drugbank_target|P04279 Semenogelin-1 (DB01593; DB14487; DB14533; DB14548)
 OpenBabel12092121033D

  0  0  0     0  0            999 V3000
M  V30 BEGIN CTAB
M  V30 COUNTS 7205 7271 0 0 0
M  V30 BEGIN ATOM
M  V30 1 H -0.908 1.98254 -0.117106 0
M  V30 2 N 0 1.576 0 0
M  V30 3 C 0.933 2.03868 1.02534 0
M  V30 4 C 1.911 0.928543 1.3348 0
M  V30 5 O 3.095 1.19667 1.45644 0
M  V30 6 C 0.222 2.43627 2.35294 0
M  V30 7 C -0.732 3.65373 2.2001 0
M  V30 8 S 0.101 5.13292 1.52614 0
M  V30 9 C 1.257 5.56322 2.86805 0
M  V30 10 H 1.49 2.90518 0.631377 0
M  V30 11 H -0.977 1.52953 0.210867 0
M  V30 12 H 0.981 2.67203 3.11629 0
M  V30 13 H -0.358 1.57376 2.7183 0
M  V30 14 H -1.165 3.90944 3.18086 0
M  V30 15 H -1.563 3.418 1.51819 0
M  V30 16 H 0.729 5.58782 3.83104 0
M  V30 17 H 1.672 6.56266 2.65933 0
M  V30 18 H 2.08 4.83886 2.90714 0
M  V30 19 N 1.4781 -0.272755 1.55222 0
M  V30 20 C 2.4251 -1.33716 1.88119 0
M  V30 21 C 3.3951 -1.49066 0.73271 0
M  V30 22 O 4.5801 -1.63469 0.984002 0
M  V30 23 C 1.7201 -2.69238 2.15882 0
M  V30 24 C 0.8331 -2.62108 3.43399 0
M  V30 25 C -0.0319 -3.89811 3.60861 0
M  V30 26 C -0.9929 -3.77193 4.8207 0
M  V30 27 N -1.8559 -4.9673 4.96189 0
M  V30 28 H 2.9841 -1.04962 2.78903 0
M  V30 29 H 0.5211 -0.507088 1.38083 0
M  V30 30 H 2.4791 -3.48089 2.29978 0
M  V30 31 H 1.1091 -2.96194 1.28331 0
M  V30 32 H 0.1611 -1.74967 3.37773 0
M  V30 33 H 1.4731 -2.48685 4.32386 0
M  V30 34 H 0.6271 -4.77103 3.74777 0
M  V30 35 H -0.6339 -4.06102 2.7006 0
M  V30 36 H -1.6289 -2.88284 4.68159 0
M  V30 37 H -0.4039 -3.62421 5.74307 0
M  V30 38 H -2.4579 -5.13431 4.08319 0
M  V30 39 H -2.5409 -4.85839 5.79221 0
M  V30 40 H -1.2729 -5.85594 5.1449 0
M  V30 41 N 2.9562 -1.48159 -0.537278 0
M  V30 42 C 4.3672 -1.49429 -1.11928 0
M  V30 43 C 4.7182 -0.26 -1.9447 0
M  V30 44 O 3.8432 0.633489 -2.0692 0
M  V30 45 C 4.4382 -2.70758 -2.03656 0
M  V30 46 C 2.9972 -2.74923 -2.57088 0
M  V30 47 C 2.1442 -2.42835 -1.3389 0
M  V30 48 H 5.0952 -1.55381 -0.322886 0
M  V30 49 H 5.1162 -2.48861 -2.87834 0
M  V30 50 H 4.6282 -3.60575 -1.43553 0
M  V30 51 H 2.7292 -1.89296 -3.20933 0
M  V30 52 H 2.8422 -3.76157 -2.9672 0
M  V30 53 H 1.2062 -1.93836 -1.65226 0
M  V30 54 H 1.9892 -3.34884 -0.755504 0
M  V30 55 N 4.4343 0.785586 -1.36625 0
M  V30 56 C 5.3823 1.91978 -1.31329 0
M  V30 57 C 6.3763 1.68162 -0.204416 0
M  V30 58 O 7.5823 1.76122 -0.371645 0
M  V30 59 H 3.9573 0.631087 -0.408942 0
M  V30 60 H 5.9283 1.93562 -2.27104 0
M  V30 61 C 4.6773 3.29055 -1.12329 0
M  V30 62 H 4.0003 3.4795 -1.96903 0
M  V30 63 H 5.4403 4.08756 -1.12671 0
M  V30 64 C 3.8993 3.36461 0.171861 0
M  V30 65 O 4.4293 3.84576 1.16035 0
M  V30 66 N 2.6353 2.89782 0.217846 0
M  V30 67 H 2.1823 2.50819 -0.587183 0
M  V30 68 H 2.1403 2.95119 1.08408 0
M  V30 69 N 5.9124 1.20967 1.01018 0
M  V30 70 C 7.1614 1.01796 1.74128 0
M  V30 71 C 7.4744 -0.449691 1.90361 0
M  V30 72 O 8.6804 -0.76068 2.60626 0
M  V30 73 C 7.1364 1.7727 3.13215 0
M  V30 74 C 6.7444 3.28171 3.04972 0
M  V30 75 C 8.4884 1.66489 3.90489 0
M  V30 76 C 6.3954 3.96156 4.39107 0
M  V30 77 H 5.3254 0.377276 0.652824 0
M  V30 78 H 7.9764 1.44651 1.12909 0
M  V30 79 H 6.3584 1.27205 3.75013 0
M  V30 80 H 7.5324 3.85499 2.52443 0
M  V30 81 H 5.8474 3.39437 2.41188 0
M  V30 82 H 8.4444 2.14617 4.89738 0
M  V30 83 H 8.7874 0.6222 4.11624 0
M  V30 84 H 9.3204 2.14003 3.35332 0
M  V30 85 H 6.0594 5.00604 4.23174 0
M  V30 86 H 5.5794 3.43617 4.91617 0
M  V30 87 H 7.2584 4.00774 5.07926 0
M  V30 88 N 7.3905 -1.2043 1.01659 0
M  V30 89 C 8.6395 -1.89118 0.701237 0
M  V30 90 C 8.9525 -1.79705 -0.772358 0
M  V30 91 O 10.1585 -2.43528 -1.20026 0
M  V30 92 C 8.6145 -3.39168 1.20388 0
M  V30 93 C 8.2225 -3.57166 2.70438 0
M  V30 94 C 9.9665 -4.1341 0.963953 0
M  V30 95 C 7.8735 -5.01042 3.14183 0
M  V30 96 H 6.8035 -0.708267 0.2586 0
M  V30 97 H 9.4545 -1.36239 1.22927 0
M  V30 98 H 7.8365 -3.91369 0.603824 0
M  V30 99 H 9.0105 -3.15351 3.35992 0
M  V30 100 H 7.3255 -2.96294 2.92572 0
M  V30 101 H 9.9225 -5.19491 1.26621 0
M  V30 102 H 10.2655 -4.16181 -0.099578 0
M  V30 103 H 10.7985 -3.67309 1.52738 0
M  V30 104 H 7.5375 -5.03426 4.19812 0
M  V30 105 H 7.0575 -5.43668 2.53348 0
M  V30 106 H 8.7365 -5.69623 3.0682 0
M  V30 107 N 8.8686 -0.792821 -1.36206 0
M  V30 108 C 10.1156 -0.366786 -1.99151 0
M  V30 109 C 10.4436 1.06243 -1.62919 0
M  V30 110 O 9.6986 1.74927 -0.877442 0
M  V30 111 C 9.9976 -0.481501 -3.54142 0
M  V30 112 C 9.6636 -1.87202 -4.10203 0
M  V30 113 C 8.3256 -2.25248 -4.25226 0
M  V30 114 C 10.6776 -2.78237 -4.40719 0
M  V30 115 C 8.0056 -3.53723 -4.68078 0
M  V30 116 C 10.3576 -4.06144 -4.85005 0
M  V30 117 C 9.0216 -4.44207 -4.98234 0
M  V30 118 H 8.2916 -0.134217 -0.728743 0
M  V30 119 H 10.9386 -1.01094 -1.62641 0
M  V30 120 H 9.2436 0.246146 -3.91026 0
M  V30 121 H 10.9406 -0.132844 -4.0078 0
M  V30 122 H 7.5306 -1.56639 -3.98951 0
M  V30 123 H 11.7146 -2.50097 -4.28679 0
M  V30 124 H 6.9706 -3.8308 -4.76508 0
M  V30 125 H 11.1446 -4.76796 -5.07581 0
M  V30 126 H 8.7716 -5.43814 -5.31197 0
M  V30 127 N 10.3467 1.47872 -0.545128 0
M  V30 128 C 11.5927 2.02793 -0.0166104 0
M  V30 129 C 11.9257 1.41987 1.32489 0
M  V30 130 O 11.2007 0.571045 1.85928 0
M  V30 131 C 11.4837 3.59989 0.0893294 0
M  V30 132 C 11.3367 4.3125 -1.27841 0
M  V30 133 C 12.6557 4.32606 0.808724 0
M  V30 134 H 9.7747 0.736962 -0.00751035 0
M  V30 135 H 12.4167 1.76433 -0.705085 0
M  V30 136 H 10.5667 3.82579 0.675681 0
M  V30 137 H 12.2387 4.20035 -1.90704 0
M  V30 138 H 10.4817 3.92076 -1.85632 0
M  V30 139 H 11.1527 5.39736 -1.15713 0
M  V30 140 H 13.6287 4.14936 0.310992 0
M  V30 141 H 12.5047 5.42251 0.851782 0
M  V30 142 H 12.7657 4.00963 1.86229 0
M  V30 143 N 11.8248 0.280983 1.55075 0
M  V30 144 C 12.7548 -0.597469 2.25727 0
M  V30 145 C 13.7358 -1.15417 1.24952 0
M  V30 146 O 14.9208 -1.18722 1.53684 0
M  V30 147 C 12.0508 -1.7789 2.98283 0
M  V30 148 C 11.0048 -1.35347 4.06036 0
M  V30 149 C 10.3308 -2.61846 4.66198 0
M  V30 150 C 11.6308 -0.499354 5.19907 0
M  V30 151 H 13.3248 -0.00824265 2.99399 0
M  V30 152 H 10.8708 -0.0025244 1.44 0
M  V30 153 H 12.8238 -2.39937 3.46422 0
M  V30 154 H 11.5478 -2.39405 2.22155 0
M  V30 155 H 10.2068 -0.756156 3.58717 0
M  V30 156 H 9.8548 -3.21632 3.86732 0
M  V30 157 H 9.5548 -2.3409 5.38958 0
M  V30 158 H 11.0788 -3.24732 5.1709 0
M  V30 159 H 12.4928 -1.02498 5.64063 0
M  V30 160 H 10.8898 -0.316424 5.99265 0
M  V30 161 H 11.9598 0.480459 4.82514 0
M  V30 162 N 13.3029 -1.57598 0.00835791 0
M  V30 163 C 14.5279 -1.95617 -0.689103 0
M  V30 164 C 14.9529 -0.883753 -1.66046 0
M  V30 165 O 14.3109 0.157352 -1.80616 0
M  V30 166 C 14.3589 -3.32736 -1.38994 0
M  V30 167 O 13.4629 -3.27631 -2.50463 0
M  V30 168 H 12.8039 -0.638379 -0.182668 0
M  V30 169 H 15.3339 -2.045 0.064036 0
M  V30 170 H 15.3439 -3.68494 -1.75147 0
M  V30 171 H 14.0189 -4.1034 -0.677778 0
M  V30 172 H 12.5959 -3.03561 -2.16576 0
M  V30 173 N 14.781 0.264519 -1.55364 0
M  V30 174 C 15.711 1.33121 -1.91836 0
M  V30 175 C 16.692 1.51101 -0.781192 0
M  V30 176 O 17.877 1.64003 -1.04003 0
M  V30 177 C 15.007 2.68921 -2.19769 0
M  V30 178 C 13.961 2.65661 -3.35571 0
M  V30 179 C 13.287 4.05093 -3.49004 0
M  V30 180 C 14.587 2.24187 -4.71739 0
M  V30 181 H 16.281 1.02844 -2.81182 0
M  V30 182 H 13.827 0.493286 -1.35287 0
M  V30 183 H 15.78 3.43663 -2.43872 0
M  V30 184 H 14.504 3.00799 -1.27231 0
M  V30 185 H 13.163 1.93377 -3.1145 0
M  V30 186 H 12.811 4.34206 -2.53917 0
M  V30 187 H 12.511 4.03804 -4.26868 0
M  V30 188 H 14.035 4.81561 -3.75408 0
M  V30 189 H 15.449 2.88654 -4.9533 0
M  V30 190 H 13.846 2.34044 -5.52579 0
M  V30 191 H 14.916 1.19327 -4.69988 0
M  V30 192 N 16.2591 1.48442 0.529413 0
M  V30 193 C 17.1891 1.65902 1.64313 0
M  V30 194 C 18.1701 0.507897 1.6234 0
M  V30 195 O 19.3551 0.740503 1.79528 0
M  V30 196 C 16.4851 1.69911 3.02898 0
M  V30 197 C 15.4391 2.8453 3.19729 0
M  V30 198 C 14.7651 2.73629 4.59381 0
M  V30 199 C 16.0651 4.25821 3.02447 0
M  V30 200 H 17.7591 2.5914 1.49955 0
M  V30 201 H 15.3051 1.24709 0.719982 0
M  V30 202 H 17.2581 1.80715 3.80684 0
M  V30 203 H 15.9821 0.732524 3.18279 0
M  V30 204 H 14.6411 2.73283 2.44361 0
M  V30 205 H 14.2891 1.74938 4.71599 0
M  V30 206 H 13.9891 3.50541 4.71588 0
M  V30 207 H 15.5131 2.86401 5.39265 0
M  V30 208 H 16.9271 4.37898 3.70024 0
M  V30 209 H 15.3241 5.03735 3.26146 0
M  V30 210 H 16.3941 4.42244 1.98867 0
M  V30 211 N 17.7372 -0.778329 1.37039 0
M  V30 212 C 18.6672 -1.90546 1.34962 0
M  V30 213 C 19.6482 -1.68681 0.219274 0
M  V30 214 O 20.8332 -1.89634 0.418624 0
M  V30 215 C 17.9632 -3.27734 1.14925 0
M  V30 216 C 16.9172 -3.64147 2.24902 0
M  V30 217 C 16.2432 -4.99806 1.89996 0
M  V30 218 C 17.5432 -3.71579 3.67051 0
M  V30 219 H 19.2372 -1.92541 2.29277 0
M  V30 220 H 16.7832 -0.924948 1.10366 0
M  V30 221 H 18.7362 -4.06215 1.12104 0
M  V30 222 H 17.4602 -3.26154 0.170631 0
M  V30 223 H 16.1192 -2.8797 2.26868 0
M  V30 224 H 15.7672 -4.94759 0.906796 0
M  V30 225 H 15.4672 -5.25139 2.63634 0
M  V30 226 H 16.9912 -5.80694 1.88749 0
M  V30 227 H 18.4052 -4.40227 3.67251 0
M  V30 228 H 16.8022 -4.08405 4.39688 0
M  V30 229 H 17.8722 -2.72404 4.01154 0
M  V30 230 N 19.2153 -1.21501 -1.00376 0
M  V30 231 C 20.4643 -1.02718 -1.73586 0
M  V30 232 C 20.7773 0.439589 -1.90596 0
M  V30 233 O 21.9833 0.746848 -2.61026 0
M  V30 234 C 20.4393 -1.78929 -3.1227 0
M  V30 235 C 20.0473 -3.29783 -3.03228 0
M  V30 236 C 21.7913 -1.68557 -3.89601 0
M  V30 237 C 19.6983 -3.98479 -4.36999 0
M  V30 238 H 18.6283 -0.380733 -0.650814 0
M  V30 239 H 21.2793 -1.45248 -1.1214 0
M  V30 240 H 19.6613 -1.29192 -3.74333 0
M  V30 241 H 20.8353 -3.86832 -2.50395 0
M  V30 242 H 19.1503 -3.40711 -2.39385 0
M  V30 243 H 21.7473 -2.17211 -4.88593 0
M  V30 244 H 22.0903 -0.644021 -4.11288 0
M  V30 245 H 22.6233 -2.15778 -3.34193 0
M  V30 246 H 19.3623 -5.02841 -4.20513 0
M  V30 247 H 18.8823 -3.46219 -4.89788 0
M  V30 248 H 20.5613 -4.03462 -5.05794 0
M  V30 249 N 20.6934 1.19889 -1.02296 0
M  V30 250 C 21.6234 2.25141 -0.619174 0
M  V30 251 C 22.6044 1.66051 0.368915 0
M  V30 252 O 23.7894 1.92546 0.252941 0
M  V30 253 C 20.9194 3.4728 0.0368783 0
M  V30 254 C 19.8734 4.19005 -0.872865 0
M  V30 255 C 19.1994 5.34637 -0.0822402 0
M  V30 256 C 20.4994 4.74452 -2.18387 0
M  V30 257 H 22.1934 2.59171 -1.49903 0
M  V30 258 H 19.7394 1.24579 -0.722222 0
M  V30 259 H 21.6924 4.20098 0.330958 0
M  V30 260 H 20.4164 3.12433 0.95149 0
M  V30 261 H 19.0754 3.48061 -1.15105 0
M  V30 262 H 18.7234 4.96034 0.83422 0
M  V30 263 H 18.4234 5.83557 -0.688149 0
M  V30 264 H 19.9474 6.10255 0.205238 0
M  V30 265 H 21.3614 5.39055 -1.95172 0
M  V30 266 H 19.7584 5.33834 -2.74119 0
M  V30 267 H 20.8284 3.92844 -2.84257 0
M  V30 268 N 22.1715 0.800033 1.35784 0
M  V30 269 C 23.0815 0.207204 2.33683 0
M  V30 270 C 24.0975 -0.64631 1.61551 0
M  V30 271 O 25.2735 -0.559604 1.93469 0
M  V30 272 C 22.3385 -0.639659 3.40748 0
M  V30 273 C 21.3995 0.233585 4.28664 0
M  V30 274 C 20.6325 -0.572954 5.30616 0
M  V30 275 O 20.8555 -1.80816 5.40982 0
M  V30 276 O 19.7895 0.0327285 6.01891 0
M  V30 277 H 23.6155 1.01692 2.86169 0
M  V30 278 H 21.2005 0.561691 1.38439 0
M  V30 279 H 23.0825 -1.12223 4.06182 0
M  V30 280 H 21.7575 -1.42708 2.90544 0
M  V30 281 H 20.6645 0.763147 3.66233 0
M  V30 282 H 21.9975 0.984784 4.82248 0
M  V30 283 N 23.6496 -1.47581 0.552962 0
M  V30 284 C 24.5966 -2.29957 -0.197108 0
M  V30 285 C 25.5666 -1.38799 -0.912359 0
M  V30 286 O 26.7516 -1.67761 -0.908888 0
M  V30 287 C 23.8916 -3.22672 -1.22379 0
M  V30 288 C 23.0046 -4.28919 -0.515038 0
M  V30 289 C 22.1396 -5.0879 -1.52664 0
M  V30 290 C 21.1786 -6.06815 -0.802631 0
M  V30 291 N 20.3156 -6.7966 -1.76086 0
M  V30 292 H 25.1556 -2.93578 0.511486 0
M  V30 293 H 22.6926 -1.4471 0.264067 0
M  V30 294 H 24.6506 -3.74845 -1.83159 0
M  V30 295 H 23.2806 -2.60925 -1.90047 0
M  V30 296 H 22.3326 -3.79835 0.207192 0
M  V30 297 H 23.6446 -4.98773 0.0523425 0
M  V30 298 H 22.7986 -5.65091 -2.20809 0
M  V30 299 H 21.5376 -4.38828 -2.12794 0
M  V30 300 H 20.5426 -5.49695 -0.107238 0
M  V30 301 H 21.7676 -6.78784 -0.207135 0
M  V30 302 H 19.7136 -6.12432 -2.35081 0
M  V30 303 H 19.6306 -7.45669 -1.24552 0
M  V30 304 H 20.8986 -7.40538 -2.43359 0
M  V30 305 N 25.1277 -0.289203 -1.54924 0
M  V30 306 C 26.0597 0.625583 -2.20497 0
M  V30 307 C 27.0727 1.10667 -1.19402 0
M  V30 308 O 28.2617 1.02615 -1.46056 0
M  V30 309 C 25.3617 1.86702 -2.82835 0
M  V30 310 C 24.5347 1.5304 -4.09753 0
M  V30 311 C 23.5937 2.62576 -4.56005 0
M  V30 312 O 22.6197 2.28167 -5.21468 0
M  V30 313 N 23.8217 3.92901 -4.27328 0
M  V30 314 H 26.5867 0.0642801 -2.99631 0
M  V30 315 H 24.1477 -0.110896 -1.6152 0
M  V30 316 H 26.1397 2.59304 -3.10715 0
M  V30 317 H 24.7097 2.33702 -2.07611 0
M  V30 318 H 23.9297 0.637564 -3.8901 0
M  V30 319 H 25.2177 1.28072 -4.92418 0
M  V30 320 H 24.6157 4.23671 -3.74859 0
M  V30 321 H 23.1727 4.61837 -4.59946 0
M  V30 322 N 26.6058 1.57591 -0.0167156 0
M  V30 323 C 27.5688 2.08393 0.954204 0
M  V30 324 C 28.5688 0.996531 1.26198 0
M  V30 325 O 29.7588 1.25858 1.20438 0
M  V30 326 C 26.8908 2.5394 2.27436 0
M  V30 327 H 28.0838 2.95455 0.514451 0
M  V30 328 H 25.6368 1.54582 0.231089 0
M  V30 329 H 26.3718 1.70171 2.76066 0
M  V30 330 H 26.1568 3.33371 2.06412 0
M  V30 331 H 27.6468 2.93512 2.97053 0
M  V30 332 N 28.0839 -0.256276 1.55502 0
M  V30 333 C 29.0469 -1.30047 1.88734 0
M  V30 334 C 30.0469 -1.4154 0.763086 0
M  V30 335 O 31.2369 -1.40403 1.03115 0
M  V30 336 C 28.3689 -2.67953 2.10747 0
M  V30 337 H 29.5619 -1.01802 2.82093 0
M  V30 338 H 27.1149 -0.495134 1.4825 0
M  V30 339 H 27.8499 -3.01351 1.19825 0
M  V30 340 H 27.6349 -2.60993 2.92617 0
M  V30 341 H 29.1249 -3.43368 2.37673 0
M  V30 342 N 29.562 -1.4872 -0.521534 0
M  V30 343 C 30.808 -1.574 -1.27879 0
M  V30 344 C 31.141 -0.250817 -1.92573 0
M  V30 345 O 30.416 0.743934 -1.79711 0
M  V30 346 C 30.699 -2.71843 -2.36164 0
M  V30 347 C 30.552 -4.13893 -1.76105 0
M  V30 348 C 31.871 -2.82008 -3.37875 0
M  V30 349 H 28.99 -0.572941 -0.463581 0
M  V30 350 H 31.632 -1.80927 -0.580119 0
M  V30 351 H 29.782 -2.51914 -2.95756 0
M  V30 352 H 31.454 -4.45284 -1.20499 0
M  V30 353 H 29.697 -4.20498 -1.06601 0
M  V30 354 H 30.368 -4.89804 -2.5455 0
M  V30 355 H 32.844 -3.00086 -2.88249 0
M  V30 356 H 31.72 -3.63796 -4.11028 0
M  V30 357 H 31.981 -1.90511 -3.98946 0
M  V30 358 N 31.0401 0.771051 -1.3745 0
M  V30 359 C 31.9731 1.89166 -1.27638 0
M  V30 360 C 32.9511 1.61842 -0.156782 0
M  V30 361 O 34.1351 1.85569 -0.331111 0
M  V30 362 C 31.2621 3.24405 -0.973621 0
M  V30 363 C 30.3081 3.70638 -2.1102 0
M  V30 364 S 31.1411 3.84228 -3.73 0
M  V30 365 C 32.2971 5.22313 -3.44876 0
M  V30 366 H 32.5301 1.972 -2.22485 0
M  V30 367 H 30.0631 0.932224 -1.23081 0
M  V30 368 H 32.0211 4.02514 -0.805766 0
M  V30 369 H 30.6821 3.14071 -0.0426279 0
M  V30 370 H 29.8751 4.68685 -1.85338 0
M  V30 371 H 29.4771 2.99632 -2.23822 0
M  V30 372 H 31.7691 6.07505 -2.99908 0
M  V30 373 H 32.7121 5.53008 -4.42253 0
M  V30 374 H 33.1201 4.90284 -2.79789 0
M  V30 375 N 32.5182 1.22032 0.997298 0
M  V30 376 C 33.7662 1.04016 1.73278 0
M  V30 377 C 34.0872 -0.426255 1.90284 0
M  V30 378 O 33.3572 -1.30694 1.45931 0
M  V30 379 H 31.9372 0.381897 0.642 0
M  V30 380 H 34.5992 1.5347 1.20137 0
M  V30 381 H 33.6952 1.51441 2.72896 0
M  V30 382 N 33.9963 -1.19345 1.0293 0
M  V30 383 C 34.9283 -2.22036 0.56857 0
M  V30 384 C 35.9413 -1.58865 -0.355779 0
M  V30 385 O 37.1303 -1.77851 -0.152103 0
M  V30 386 C 34.2303 -3.38363 -0.190752 0
M  V30 387 C 33.4033 -4.31118 0.738643 0
M  V30 388 C 32.4623 -5.26194 0.0246497 0
M  V30 389 O 31.4883 -5.65461 0.651354 0
M  V30 390 N 32.6903 -5.66971 -1.24594 0
M  V30 391 H 35.4553 -2.6219 1.45177 0
M  V30 392 H 33.0163 -1.34015 0.908381 0
M  V30 393 H 35.0083 -3.98981 -0.677961 0
M  V30 394 H 33.5783 -2.96994 -0.975366 0
M  V30 395 H 32.7983 -3.68276 1.40593 0
M  V30 396 H 34.0863 -4.90001 1.37029 0
M  V30 397 H 33.4843 -5.37104 -1.77583 0
M  V30 398 H 32.0413 -6.2984 -1.67764 0
M  V30 399 N 35.4744 -0.807222 -1.35358 0
M  V30 400 C 36.4214 -0.216037 -2.29787 0
M  V30 401 C 37.3914 0.650278 -1.52842 0
M  V30 402 O 38.5764 0.595227 -1.81278 0
M  V30 403 C 35.7164 0.628893 -3.39321 0
M  V30 404 C 34.8294 -0.257927 -4.31229 0
M  V30 405 C 33.9644 0.595069 -5.27856 0
M  V30 406 C 33.0034 -0.292111 -6.11403 0
M  V30 407 N 32.1404 0.520895 -7.00165 0
M  V30 408 H 36.9804 -1.02671 -2.79755 0
M  V30 409 H 34.5174 -0.517839 -1.37684 0
M  V30 410 H 36.4754 1.13393 -4.01494 0
M  V30 411 H 35.1054 1.40482 -2.90628 0
M  V30 412 H 34.1574 -0.881076 -3.70056 0
M  V30 413 H 35.4694 -0.940759 -4.89848 0
M  V30 414 H 34.6234 1.16522 -5.95405 0
M  V30 415 H 33.3624 1.31146 -4.69736 0
M  V30 416 H 32.3674 -0.874525 -5.428 0
M  V30 417 H 33.5924 -1.00638 -6.71602 0
M  V30 418 H 31.5384 1.22125 -6.44532 0
M  V30 419 H 31.4554 -0.103877 -7.55929 0
M  V30 420 H 32.7234 1.0743 -7.72062 0
M  V30 421 N 36.9525 1.47285 -0.560781 0
M  V30 422 C 38.2005 2.02064 -0.0379868 0
M  V30 423 C 38.5215 1.43711 1.31803 0
M  V30 424 O 37.7915 0.61362 1.86042 0
M  V30 425 H 36.3715 0.746918 -0.0110531 0
M  V30 426 H 39.0335 1.80648 -0.731598 0
M  V30 427 H 38.1295 3.12064 0.0474463 0
M  V30 428 N 38.4306 0.297415 1.54768 0
M  V30 429 C 39.6786 -0.312295 1.99673 0
M  V30 430 C 39.9996 -1.54686 1.18732 0
M  V30 431 O 39.2696 -1.93854 0.282382 0
M  V30 432 H 37.8496 -0.118381 0.73756 0
M  V30 433 H 40.5116 0.407915 1.90583 0
M  V30 434 H 39.6076 -0.586813 3.06534 0
M  V30 435 N 39.9087 -1.5758 0.0250728 0
M  V30 436 C 41.1337 -1.96337 -0.668317 0
M  V30 437 C 41.5587 -0.901314 -1.651 0
M  V30 438 O 40.9167 0.138187 -1.80773 0
M  V30 439 C 40.9647 -3.34191 -1.35457 0
M  V30 440 O 40.0687 -3.30269 -2.46974 0
M  V30 441 H 39.4097 -0.640281 -0.175887 0
M  V30 442 H 41.9397 -2.0442 0.0857224 0
M  V30 443 H 41.9497 -3.70331 -1.71228 0
M  V30 444 H 40.6247 -4.11036 -0.634218 0
M  V30 445 H 39.2017 -3.05841 -2.13344 0
M  V30 446 N 41.3868 0.248026 -1.55636 0
M  V30 447 C 42.3338 1.30707 -1.90222 0
M  V30 448 C 43.3038 1.47881 -0.756332 0
M  V30 449 O 44.4888 1.61883 -1.00988 0
M  V30 450 C 41.6288 2.65769 -2.20138 0
M  V30 451 C 40.7418 2.56612 -3.47526 0
M  V30 452 C 39.8768 3.8402 -3.67017 0
M  V30 453 C 38.9158 3.69476 -4.8801 0
M  V30 454 N 38.0528 4.88774 -5.04029 0
M  V30 455 H 42.8928 1.00512 -2.80538 0
M  V30 456 H 40.4298 0.485055 -1.38873 0
M  V30 457 H 42.3878 3.44386 -2.35487 0
M  V30 458 H 41.0178 2.94115 -1.33027 0
M  V30 459 H 40.0698 1.69571 -3.40514 0
M  V30 460 H 41.3818 2.41774 -4.36287 0
M  V30 461 H 40.5358 4.7108 -3.8232 0
M  V30 462 H 39.2748 4.01754 -2.76487 0
M  V30 463 H 38.2798 2.80799 -4.72686 0
M  V30 464 H 39.5048 3.53238 -5.8 0
M  V30 465 H 37.4508 5.0687 -4.16435 0
M  V30 466 H 37.3678 4.76562 -5.86877 0
M  V30 467 H 38.6358 5.77335 -5.23741 0
M  V30 468 N 42.8649 1.48995 0.513639 0
M  V30 469 C 44.1129 1.57531 1.26604 0
M  V30 470 C 44.4339 0.258236 1.93283 0
M  V30 471 O 43.7039 -0.721502 1.8213 0
M  V30 472 H 42.2839 0.580387 0.470276 0
M  V30 473 H 44.9459 1.85552 0.596373 0
M  V30 474 H 44.0419 2.36486 2.03669 0
M  V30 475 N 44.343 -0.763751 1.37857 0
M  V30 476 C 45.759 -1.06542 1.18832 0
M  V30 477 C 45.959 -2.01478 0.0299722 0
M  V30 478 O 45.015 -2.4458 -0.627447 0
M  V30 479 C 46.328 -1.65525 2.51042 0
M  V30 480 C 47.876 -1.77745 2.57635 0
M  V30 481 C 48.351 -2.4014 3.89996 0
M  V30 482 N 49.842 -2.47582 3.91481 0
M  V30 483 C 50.577 -2.96732 4.9065 0
M  V30 484 N 50.073 -3.45993 6.00217 0
M  V30 485 N 51.866 -2.95679 4.78048 0
M  V30 486 H 44.017 -0.133556 2.1198 0
M  V30 487 H 46.28 -0.121879 0.940133 0
M  V30 488 H 45.986 -1.03236 3.36207 0
M  V30 489 H 45.86 -2.64719 2.68707 0
M  V30 490 H 48.247 -2.39164 1.72872 0
M  V30 491 H 48.328 -0.772836 2.43846 0
M  V30 492 H 47.972 -1.79358 4.75177 0
M  V30 493 H 47.902 -3.41223 4.01092 0
M  V30 494 H 50.393 -2.1273 3.12337 0
M  V30 495 H 50.706 -3.81922 6.7183 0
M  V30 496 H 49.051 -3.44077 6.03851 0
M  V30 497 H 52.242 -2.56499 3.91568 0
M  V30 498 H 52.415 -3.33672 5.55488 0
M  V30 499 N 45.8211 -1.22559 -0.990812 0
M  V30 500 C 46.7511 -1.0218 -2.09956 0
M  V30 501 C 47.7321 0.0579394 -1.70001 0
M  V30 502 O 48.9171 -0.104684 -1.93918 0
M  V30 503 C 46.0471 -0.601023 -3.4206 0
M  V30 504 C 45.0011 -1.62694 -3.95872 0
M  V30 505 C 44.3271 -1.06193 -5.24049 0
M  V30 506 C 45.6271 -3.01743 -4.2632 0
M  V30 507 H 47.3211 -1.94916 -2.27262 0
M  V30 508 H 44.8671 -0.938566 -1.09211 0
M  V30 509 H 46.8201 -0.445561 -4.19038 0
M  V30 510 H 45.5441 0.362005 -3.24588 0
M  V30 511 H 44.2031 -1.77021 -3.21028 0
M  V30 512 H 43.8511 -0.0901903 -5.02919 0
M  V30 513 H 43.5511 -1.74732 -5.61019 0
M  V30 514 H 45.0751 -0.918092 -6.03658 0
M  V30 515 H 46.4891 -2.90777 -4.94087 0
M  V30 516 H 44.8861 -3.67425 -4.74467 0
M  V30 517 H 45.9561 -3.51518 -3.34011 0
M  V30 518 N 47.2992 1.18797 -1.03562 0
M  V30 519 C 48.7102 1.70322 -0.764676 0
M  V30 520 C 49.0612 1.82708 0.714996 0
M  V30 521 O 48.1862 1.50299 1.55689 0
M  V30 522 C 48.7812 3.09356 -1.38145 0
M  V30 523 C 47.3402 3.58114 -1.15895 0
M  V30 524 C 46.4872 2.34798 -1.4753 0
M  V30 525 H 49.4382 1.03543 -1.20268 0
M  V30 526 H 49.4592 3.72378 -0.781977 0
M  V30 527 H 48.9712 3.00309 -2.45837 0
M  V30 528 H 47.0722 3.72464 -0.100544 0
M  V30 529 H 47.1852 4.4184 -1.8524 0
M  V30 530 H 45.5492 2.38464 -0.894829 0
M  V30 531 H 46.3322 2.28375 -2.56319 0
M  V30 532 N 48.7773 0.814389 1.34928 0
M  V30 533 C 50.0023 0.410097 2.03305 0
M  V30 534 C 50.4273 -0.973464 1.60951 0
M  V30 535 O 49.7853 -1.63185 0.789964 0
M  V30 536 C 49.8333 0.51049 3.56968 0
M  V30 537 O 48.9373 -0.473035 4.09678 0
M  V30 538 H 48.2783 0.170088 0.641846 0
M  V30 539 H 50.8083 1.10244 1.72358 0
M  V30 540 H 50.8183 0.383135 4.06197 0
M  V30 541 H 49.4933 1.51963 3.87144 0
M  V30 542 H 48.0703 -0.305272 3.71648 0
M  V30 543 N 50.2554 -1.46986 0.568584 0
M  V30 544 C 51.1654 -2.33942 -0.17555 0
M  V30 545 C 52.1814 -1.48891 -0.90041 0
M  V30 546 O 53.3574 -1.81794 -0.86676 0
M  V30 547 C 50.4224 -3.25811 -1.18524 0
M  V30 548 C 49.4834 -4.26757 -0.466582 0
M  V30 549 C 48.7164 -5.14236 -1.42817 0
M  V30 550 O 48.9394 -5.04379 -2.66379 0
M  V30 551 O 47.8734 -5.94412 -0.946453 0
M  V30 552 H 51.6994 -2.98896 0.538036 0
M  V30 553 H 49.2844 -1.4573 0.329097 0
M  V30 554 H 51.1664 -3.82527 -1.76779 0
M  V30 555 H 49.8414 -2.63471 -1.88055 0
M  V30 556 H 48.7484 -3.73769 0.157451 0
M  V30 557 H 50.0814 -4.91843 0.187485 0
M  V30 558 N 51.7335 -0.305618 -1.54608 0
M  V30 559 C 52.9805 0.302298 -2.00231 0
M  V30 560 C 53.3085 1.5354 -1.19398 0
M  V30 561 O 52.5635 1.93973 -0.259423 0
M  V30 562 C 52.8625 0.698983 -3.50498 0
M  V30 563 C 52.5285 -0.432903 -4.48817 0
M  V30 564 C 51.1905 -0.743622 -4.75419 0
M  V30 565 C 53.5425 -1.19409 -5.07337 0
M  V30 566 C 50.8705 -1.81857 -5.57804 0
M  V30 567 C 53.2225 -2.25899 -5.90891 0
M  V30 568 C 51.8865 -2.57572 -6.15803 0
M  V30 569 H 51.1565 0.110619 -0.732697 0
M  V30 570 H 53.8035 -0.425674 -1.86709 0
M  V30 571 H 52.1085 1.50711 -3.61654 0
M  V30 572 H 53.8055 1.1806 -3.83227 0
M  V30 573 H 50.3955 -0.18063 -4.28219 0
M  V30 574 H 54.5795 -0.967295 -4.86782 0
M  V30 575 H 49.8355 -2.06864 -5.75341 0
M  V30 576 H 54.0095 -2.85335 -6.35261 0
M  V30 577 H 51.6365 -3.40998 -6.7943 0
M  V30 578 N 53.2116 1.57565 -0.0334293 0
M  V30 579 C 54.4366 1.96689 0.657895 0
M  V30 580 C 54.8616 0.910057 1.64619 0
M  V30 581 O 54.2196 -0.128598 1.80843 0
M  V30 582 C 54.2676 3.34905 1.33683 0
M  V30 583 O 53.3716 3.31574 2.45219 0
M  V30 584 H 52.7126 0.641205 0.172489 0
M  V30 585 H 55.2426 2.04372 -0.0965621 0
M  V30 586 H 55.2526 3.71234 1.69262 0
M  V30 587 H 53.9276 4.11366 0.612411 0
M  V30 588 H 52.5046 3.06968 2.11719 0
M  V30 589 N 54.6897 -0.239769 1.55765 0
M  V30 590 C 55.6217 -1.32001 1.87372 0
M  V30 591 C 56.6347 -1.43944 0.760522 0
M  V30 592 O 57.8237 -1.45167 1.0387 0
M  V30 593 C 54.9237 -2.69779 2.05115 0
M  V30 594 C 54.0967 -2.80014 3.36022 0
M  V30 595 C 53.1557 -3.98684 3.4342 0
M  V30 596 O 52.1817 -3.87877 4.16582 0
M  V30 597 N 53.3837 -5.12176 2.73232 0
M  V30 598 H 56.1487 -1.0522 2.80622 0
M  V30 599 H 53.7097 -0.429857 1.56089 0
M  V30 600 H 55.7017 -3.47517 2.07399 0
M  V30 601 H 54.2717 -2.89237 1.18577 0
M  V30 602 H 53.4917 -1.88896 3.45994 0
M  V30 603 H 54.7797 -2.83808 4.22292 0
M  V30 604 H 54.1777 -5.2385 2.13536 0
M  V30 605 H 52.7347 -5.88022 2.81199 0
M  V30 606 N 56.1678 -1.49265 -0.50573 0
M  V30 607 C 57.4148 -1.58513 -1.26015 0
M  V30 608 C 57.7428 -0.26972 -1.92621 0
M  V30 609 O 56.9978 0.741997 -1.81088 0
M  V30 610 C 57.2968 -2.69008 -2.35308 0
M  V30 611 C 56.9628 -4.10662 -1.86192 0
M  V30 612 C 55.6248 -4.49212 -1.72516 0
M  V30 613 C 57.9768 -4.99336 -1.49375 0
M  V30 614 C 55.3048 -5.74214 -1.20394 0
M  V30 615 C 57.6568 -6.24852 -0.987072 0
M  V30 616 C 56.3208 -6.62236 -0.836669 0
M  V30 617 H 55.5908 -0.580041 -0.461122 0
M  V30 618 H 58.2378 -1.83078 -0.561665 0
M  V30 619 H 56.5428 -2.38396 -3.10926 0
M  V30 620 H 58.2398 -2.73373 -2.93374 0
M  V30 621 H 54.8298 -3.8023 -1.97795 0
M  V30 622 H 59.0138 -4.70212 -1.5879 0
M  V30 623 H 54.2698 -6.01883 -1.07458 0
M  V30 624 H 58.4438 -6.92944 -0.692983 0
M  V30 625 H 56.0708 -7.58979 -0.430607 0
M  V30 626 N 57.6459 0.756429 -1.3826 0
M  V30 627 C 59.0569 1.33359 -1.30661 0
M  V30 628 C 59.4079 1.96161 0.0388875 0
M  V30 629 O 58.5329 1.94874 0.940918 0
M  V30 630 C 59.1279 2.42477 -2.36622 0
M  V30 631 C 57.6869 2.95922 -2.3261 0
M  V30 632 C 56.8339 1.69275 -2.19639 0
M  V30 633 H 59.7849 0.55552 -1.4866 0
M  V30 634 H 59.8059 3.22345 -2.02174 0
M  V30 635 H 59.3179 1.96739 -3.34538 0
M  V30 636 H 57.4189 3.45996 -1.38267 0
M  V30 637 H 57.5319 3.50494 -3.26636 0
M  V30 638 H 55.8959 1.92793 -1.66442 0
M  V30 639 H 56.6789 1.25619 -3.19491 0
M  V30 640 N 59.124 1.23083 0.984299 0
M  V30 641 C 60.074 0.975749 2.06066 0
M  V30 642 C 61.058 -0.0768251 1.60716 0
M  V30 643 O 62.25 0.134805 1.76486 0
M  V30 644 C 59.379 0.564673 3.38624 0
M  V30 645 C 58.465 1.65244 3.90583 0
M  V30 646 N 58.856 2.88193 4.15666 0
M  V30 647 C 57.154 1.52612 4.19077 0
M  V30 648 C 57.855 3.58593 4.58024 0
M  V30 649 N 56.831 2.86093 4.62225 0
M  V30 650 H 60.633 1.90957 2.23411 0
M  V30 651 H 58.147 1.12963 1.16675 0
M  V30 652 H 60.144 0.36322 4.15315 0
M  V30 653 H 58.804 -0.362147 3.22674 0
M  V30 654 H 59.815 3.24537 4.03604 0
M  V30 655 H 56.492 0.666121 4.12152 0
M  V30 656 H 57.882 4.63974 4.85982 0
M  V30 657 N 60.6021 -1.18246 1.0419 0
M  V30 658 C 61.8501 -1.87886 0.744543 0
M  V30 659 C 62.1711 -1.8082 -0.730006 0
M  V30 660 O 61.4411 -1.22736 -1.52685 0
M  V30 661 H 60.0211 -0.695556 0.272417 0
M  V30 662 H 62.6831 -1.43494 1.31892 0
M  V30 663 H 61.7791 -2.9389 1.05049 0
M  V30 664 N 62.0802 -0.821533 -1.34494 0
M  V30 665 C 63.0122 -0.199946 -2.28326 0
M  V30 666 C 64.0252 0.609377 -1.50965 0
M  V30 667 O 65.2142 0.439285 -1.7301 0
M  V30 668 C 62.3142 0.738431 -3.30757 0
M  V30 669 C 61.4872 -0.0277632 -4.37391 0
M  V30 670 C 60.5462 0.831332 -5.19591 0
M  V30 671 O 59.5722 0.276822 -5.68526 0
M  V30 672 N 60.7742 2.15132 -5.39165 0
M  V30 673 H 63.5392 -1.00609 -2.82308 0
M  V30 674 H 61.1002 -0.678366 -1.47003 0
M  V30 675 H 63.0922 1.31773 -3.82646 0
M  V30 676 H 61.6622 1.44533 -2.7718 0
M  V30 677 H 60.8822 -0.788359 -3.86236 0
M  V30 678 H 62.1702 -0.555251 -5.05761 0
M  V30 679 H 61.5682 2.62559 -5.01078 0
M  V30 680 H 60.1252 2.6795 -5.94177 0
M  V30 681 N 63.5583 1.46682 -0.576371 0
M  V30 682 C 64.5053 2.30241 0.160499 0
M  V30 683 C 65.4753 1.40233 0.890162 0
M  V30 684 O 66.6603 1.69186 0.882084 0
M  V30 685 C 63.8003 3.24578 1.1723 0
M  V30 686 C 62.9133 4.29684 0.446736 0
M  V30 687 C 62.0483 5.11154 1.44551 0
M  V30 688 C 61.0873 6.08015 0.70599 0
M  V30 689 N 60.2243 6.82376 1.65251 0
M  V30 690 H 65.0643 2.92727 -0.558127 0
M  V30 691 H 62.6013 1.44272 -0.287056 0
M  V30 692 H 64.5593 3.77711 1.77172 0
M  V30 693 H 63.1893 2.63916 1.85872 0
M  V30 694 H 62.2413 3.79458 -0.267594 0
M  V30 695 H 63.5533 4.98626 -0.131686 0
M  V30 696 H 62.7073 5.68533 2.11791 0
M  V30 697 H 61.4463 4.42158 2.05786 0
M  V30 698 H 60.4513 5.49796 0.0197725 0
M  V30 699 H 61.6763 6.79028 0.09912 0
M  V30 700 H 59.6223 6.16094 2.25308 0
M  V30 701 H 59.5393 7.47556 1.12673 0
M  V30 702 H 60.8073 7.44316 2.31546 0
M  V30 703 N 65.0364 0.313813 1.54444 0
M  V30 704 C 66.2844 -0.291099 1.99993 0
M  V30 705 C 66.6054 -1.53418 1.20366 0
M  V30 706 O 65.8754 -1.93544 0.302927 0
M  V30 707 H 64.4554 -0.110552 0.738774 0
M  V30 708 H 67.1174 0.428106 1.9014 0
M  V30 709 H 66.2134 -0.554268 3.07139 0
M  V30 710 N 66.5145 -1.57545 0.0417849 0
M  V30 711 C 67.4465 -2.07904 -0.964799 0
M  V30 712 C 68.4595 -1.00497 -1.28079 0
M  V30 713 O 69.6485 -1.28087 -1.24322 0
M  V30 714 C 66.7485 -2.49928 -2.28887 0
M  V30 715 C 65.9215 -3.80562 -2.15619 0
M  V30 716 C 64.9805 -4.08999 -3.31069 0
M  V30 717 O 64.0065 -4.79061 -3.0739 0
M  V30 718 N 65.2085 -3.6017 -4.55256 0
M  V30 719 H 67.9735 -2.94886 -0.535029 0
M  V30 720 H 65.5345 -1.61252 -0.144681 0
M  V30 721 H 67.5265 -2.66034 -3.04972 0
M  V30 722 H 66.0965 -1.68245 -2.63463 0
M  V30 723 H 65.3165 -3.74129 -1.24183 0
M  V30 724 H 66.6045 -4.66126 -2.03971 0
M  V30 725 H 66.0025 -3.03512 -4.77386 0
M  V30 726 H 64.5595 -3.81532 -5.28466 0
M  V30 727 N 67.9926 0.231505 -1.5589 0
M  V30 728 C 68.9426 1.29007 -1.87993 0
M  V30 729 C 69.9266 1.42764 -0.742102 0
M  V30 730 O 71.1186 1.45747 -1.00433 0
M  V30 731 C 68.2476 2.6425 -2.1915 0
M  V30 732 C 67.3336 2.54435 -3.39299 0
M  V30 733 N 67.7246 2.14262 -4.58176 0
M  V30 734 C 66.0226 2.85416 -3.42715 0
M  V30 735 C 66.7236 2.15455 -5.40328 0
M  V30 736 N 65.6996 2.55558 -4.79783 0
M  V30 737 H 69.5016 0.970213 -2.77424 0
M  V30 738 H 67.0156 0.440097 -1.56323 0
M  V30 739 H 69.0126 3.40665 -2.40319 0
M  V30 740 H 67.6726 2.9709 -1.31025 0
M  V30 741 H 68.6836 1.85554 -4.83518 0
M  V30 742 H 65.3606 3.22693 -2.64906 0
M  V30 743 H 66.7506 1.86605 -6.45467 0
M  V30 744 N 69.4707 1.49531 0.497807 0
M  V30 745 C 70.7007 1.62657 1.27382 0
M  V30 746 C 71.1087 0.298488 1.86831 0
M  V30 747 O 70.4517 -0.72647 1.68725 0
M  V30 748 C 70.5137 2.6393 2.44093 0
M  V30 749 C 70.1777 4.08195 2.05489 0
M  V30 750 C 71.1747 4.949 1.59279 0
M  V30 751 C 68.8597 4.53948 2.15026 0
M  V30 752 C 70.8537 6.25397 1.23113 0
M  V30 753 C 68.5407 5.84458 1.78473 0
M  V30 754 C 69.5387 6.70006 1.32591 0
M  V30 755 O 69.2267 7.98083 0.965327 0
M  V30 756 H 68.9587 0.550429 0.392434 0
M  V30 757 H 71.5127 1.96325 0.603801 0
M  V30 758 H 69.7427 2.25449 3.14181 0
M  V30 759 H 71.4317 2.66552 3.06113 0
M  V30 760 H 72.1977 4.60779 1.51354 0
M  V30 761 H 68.0767 3.87525 2.4969 0
M  V30 762 H 71.6207 6.92125 0.872299 0
M  V30 763 H 67.5177 6.18107 1.86048 0
M  V30 764 H 68.2857 8.11122 1.09652 0
M  V30 765 N 70.9488 -0.749086 1.3866 0
M  V30 766 C 72.1738 -1.54344 1.38538 0
M  V30 767 C 72.5988 -1.88088 -0.0216655 0
M  V30 768 O 71.9568 -1.50899 -1.00494 0
M  V30 769 C 72.0048 -2.8164 2.25192 0
M  V30 770 O 71.1088 -3.7698 1.67212 0
M  V30 771 H 70.4498 -0.466654 0.472367 0
M  V30 772 H 72.9798 -0.925355 1.82478 0
M  V30 773 H 72.9898 -3.30519 2.3921 0
M  V30 774 H 71.6648 -2.56411 3.27454 0
M  V30 775 H 70.2418 -3.35699 1.6236 0
M  V30 776 N 72.4269 -1.23603 -0.977757 0
M  V30 777 C 73.6749 -1.06759 -1.71601 0
M  V30 778 C 73.9959 0.395929 -1.90938 0
M  V30 779 O 73.2659 1.28356 -1.47992 0
M  V30 780 H 71.8459 -0.392062 -0.635843 0
M  V30 781 H 74.5079 -1.55362 -1.1768 0
M  V30 782 H 73.6039 -1.55763 -2.70452 0
M  V30 783 N 73.905 1.17692 -1.04816 0
M  V30 784 C 74.837 2.21103 -0.603822 0
M  V30 785 C 75.85 1.59411 0.33046 0
M  V30 786 O 77.039 1.7807 0.12379 0
M  V30 787 C 74.139 3.38623 0.136898 0
M  V30 788 C 73.312 4.29888 -0.807137 0
M  V30 789 C 72.371 5.26088 -0.10836 0
M  V30 790 O 71.397 5.64353 -0.741232 0
M  V30 791 N 72.599 5.68882 1.15558 0
M  V30 792 H 75.364 2.59848 -1.49329 0
M  V30 793 H 72.925 1.32553 -0.929587 0
M  V30 794 H 74.917 4.00009 0.614401 0
M  V30 795 H 73.487 2.98508 0.927993 0
M  V30 796 H 72.707 3.65993 -1.46434 0
M  V30 797 H 73.995 4.87759 -1.44807 0
M  V30 798 H 73.393 5.39861 1.69015 0
M  V30 799 H 71.95 6.32429 1.57722 0
M  V30 800 N 75.3831 0.828654 1.34056 0
M  V30 801 C 76.3301 0.252567 2.29414 0
M  V30 802 C 77.3001 -0.62588 1.53857 0
M  V30 803 O 78.4851 -0.566312 1.82202 0
M  V30 804 C 75.6251 -0.574831 3.40279 0
M  V30 805 C 74.7381 0.326499 4.30764 0
M  V30 806 C 73.8731 -0.511016 5.28736 0
M  V30 807 C 72.9121 0.389342 6.1086 0
M  V30 808 N 72.0491 -0.409439 7.00905 0
M  V30 809 H 76.8891 1.07108 2.78086 0
M  V30 810 H 74.4261 0.539677 1.36843 0
M  V30 811 H 76.3841 -1.06992 4.03248 0
M  V30 812 H 75.0141 -1.35841 2.92826 0
M  V30 813 H 74.0661 0.939837 3.68607 0
M  V30 814 H 75.3781 1.01857 4.88289 0
M  V30 815 H 74.5321 -1.07035 5.97184 0
M  V30 816 H 73.2711 -1.23657 4.71763 0
M  V30 817 H 72.2761 0.960769 5.4134 0
M  V30 818 H 73.5011 1.1131 6.69916 0
M  V30 819 H 71.4471 -1.11856 6.46393 0
M  V30 820 H 71.3641 0.224126 7.55668 0
M  V30 821 H 72.6321 -0.951336 7.73673 0
M  V30 822 N 76.8612 -1.46375 0.584142 0
M  V30 823 C 78.1092 -2.01978 0.0701287 0
M  V30 824 C 78.4302 -1.4579 -1.295 0
M  V30 825 O 77.7002 -0.64314 -1.85042 0
M  V30 826 H 76.2802 -0.746648 0.0229345 0
M  V30 827 H 78.9422 -1.79461 0.760245 0
M  V30 828 H 78.0382 -3.121 0.0022064 0
M  V30 829 N 78.3393 -0.321999 -1.54275 0
M  V30 830 C 79.2863 0.544664 -2.24281 0
M  V30 831 C 80.2563 1.1129 -1.23303 0
M  V30 832 O 81.4413 1.15354 -1.51981 0
M  V30 833 C 78.5813 1.70045 -3.00298 0
M  V30 834 C 77.6943 1.16159 -4.1609 0
M  V30 835 C 76.8293 2.28293 -4.79641 0
M  V30 836 C 75.8683 1.71648 -5.8754 0
M  V30 837 N 75.0053 2.77438 -6.44959 0
M  V30 838 H 79.8453 -0.0588907 -2.97942 0
M  V30 839 H 77.3823 -0.0408345 -1.47043 0
M  V30 840 H 79.3403 2.38054 -3.42616 0
M  V30 841 H 77.9703 2.27531 -2.28975 0
M  V30 842 H 77.0223 0.373092 -3.78566 0
M  V30 843 H 78.3343 0.707087 -4.93763 0
M  V30 844 H 77.4883 3.0421 -5.2492 0
M  V30 845 H 76.2273 2.77079 -4.01346 0
M  V30 846 H 75.2323 0.942282 -5.41665 0
M  V30 847 H 76.4573 1.23741 -6.67731 0
M  V30 848 H 74.4033 3.25519 -5.69538 0
M  V30 849 H 74.3203 2.36547 -7.1804 0
M  V30 850 H 75.5883 3.53189 -6.94894 0
M  V30 851 N 79.8174 1.5752 -0.0501392 0
M  V30 852 C 80.7494 2.08413 0.95376 0
M  V30 853 C 81.7624 1.01175 1.27544 0
M  V30 854 O 82.9514 1.28744 1.23641 0
M  V30 855 C 80.0514 2.51138 2.27559 0
M  V30 856 C 79.2244 3.817 2.13598 0
M  V30 857 C 78.2834 4.10749 3.28895 0
M  V30 858 O 77.3094 4.80685 3.04845 0
M  V30 859 N 78.5114 3.62579 4.5334 0
M  V30 860 H 81.2764 2.95165 0.519383 0
M  V30 861 H 78.8374 1.61327 0.136127 0
M  V30 862 H 80.8294 2.67648 3.03557 0
M  V30 863 H 79.3994 1.6964 2.62567 0
M  V30 864 H 78.6194 3.74782 1.22197 0
M  V30 865 H 79.9074 4.67201 2.01496 0
M  V30 866 H 79.3054 3.06039 4.75769 0
M  V30 867 H 77.8624 3.84329 5.26436 0
M  V30 868 N 81.2955 -0.223234 1.56011 0
M  V30 869 C 82.2275 -1.30006 1.88762 0
M  V30 870 C 83.2405 -1.43129 0.775746 0
M  V30 871 O 84.4295 -1.44057 1.05403 0
M  V30 872 C 81.5295 -2.67589 2.07965 0
M  V30 873 C 80.7025 -2.76434 3.38973 0
M  V30 874 C 79.7615 -3.95019 3.47629 0
M  V30 875 O 78.7875 -3.83436 4.20672 0
M  V30 876 N 79.9895 -5.09249 2.78649 0
M  V30 877 H 82.7545 -1.02238 2.81722 0
M  V30 878 H 80.3155 -0.413278 1.56536 0
M  V30 879 H 82.3075 -3.45297 2.11073 0
M  V30 880 H 80.8775 -2.87964 1.21638 0
M  V30 881 H 80.0975 -1.85216 3.47978 0
M  V30 882 H 81.3855 -2.79313 4.25278 0
M  V30 883 H 80.7835 -5.21556 2.19081 0
M  V30 884 H 79.3405 -5.85007 2.8742 0
M  V30 885 N 82.7736 -1.49793 -0.48987 0
M  V30 886 C 84.0016 -1.63568 -1.26701 0
M  V30 887 C 84.4166 -0.311465 -1.86213 0
M  V30 888 O 83.7736 0.704416 -1.68357 0
M  V30 889 C 83.8246 -2.71284 -2.38929 0
M  V30 890 O 83.5456 -3.9857 -1.81861 0
M  V30 891 C 85.0466 -2.95864 -3.3012 0
M  V30 892 H 82.2666 -0.550342 -0.383881 0
M  V30 893 H 84.8106 -1.95898 -0.586864 0
M  V30 894 H 82.9656 -2.417 -3.02753 0
M  V30 895 H 83.3796 -4.57993 -2.55622 0
M  V30 896 H 84.8536 -3.74941 -4.05121 0
M  V30 897 H 85.3306 -2.06206 -3.87783 0
M  V30 898 H 85.9366 -3.26907 -2.72051 0
M  V30 899 N 84.2517 0.741722 -1.39055 0
M  V30 900 C 85.1617 1.88621 -1.39496 0
M  V30 901 C 86.1777 1.71557 -0.290578 0
M  V30 902 O 87.3537 1.94275 -0.530954 0
M  V30 903 C 84.4187 3.24134 -1.23037 0
M  V30 904 C 83.4797 3.5364 -2.43387 0
M  V30 905 C 82.7127 4.82687 -2.27703 0
M  V30 906 O 82.9357 5.55922 -1.27696 0
M  V30 907 O 81.8697 5.1194 -3.16545 0
M  V30 908 H 85.6957 1.91203 -2.35956 0
M  V30 909 H 83.2807 0.888625 -1.20099 0
M  V30 910 H 85.1627 4.0513 -1.15964 0
M  V30 911 H 83.8377 3.22337 -0.296691 0
M  V30 912 H 82.7447 2.72758 -2.56035 0
M  V30 913 H 84.0777 3.60209 -3.35425 0
M  V30 914 N 85.7298 1.2412 0.971189 0
M  V30 915 C 86.9548 1.10667 1.75407 0
M  V30 916 C 87.3798 -0.337048 1.85056 0
M  V30 917 O 86.7378 -1.24396 1.31892 0
M  V30 918 C 86.7858 1.74726 3.15441 0
M  V30 919 O 85.8898 1.01566 3.99697 0
M  V30 920 H 85.2308 0.387341 0.539317 0
M  V30 921 H 87.7608 1.64358 1.2185 0
M  V30 922 H 87.7708 1.80341 3.6598 0
M  V30 923 H 86.4458 2.79773 3.07734 0
M  V30 924 H 85.0228 1.03713 3.58187 0
M  V30 925 N 87.2079 -1.17134 1.05439 0
M  V30 926 C 88.1549 -2.21235 0.657539 0
M  V30 927 C 89.1249 -1.62551 -0.341543 0
M  V30 928 O 90.3099 -1.89379 -0.232393 0
M  V30 929 C 87.4499 -3.45076 0.0410575 0
M  V30 930 C 86.5629 -4.18042 1.08927 0
M  V30 931 C 85.6979 -5.29376 0.439848 0
M  V30 932 C 84.7369 -5.94132 1.4722 0
M  V30 933 N 83.8739 -6.96975 0.846756 0
M  V30 934 H 88.7139 -2.54534 1.54972 0
M  V30 935 H 86.2509 -1.25028 0.775006 0
M  V30 936 H 88.2089 -4.15862 -0.33383 0
M  V30 937 H 86.8389 -3.12353 -0.814568 0
M  V30 938 H 85.8909 -3.45945 1.58196 0
M  V30 939 H 87.2029 -4.62306 1.87282 0
M  V30 940 H 86.3569 -6.06699 0.0115125 0
M  V30 941 H 85.0959 -4.86251 -0.375656 0
M  V30 942 H 84.1009 -5.15538 1.91052 0
M  V30 943 H 85.3259 -6.39337 2.28965 0
M  V30 944 H 83.2719 -6.5598 0.0518075 0
M  V30 945 H 83.1889 -7.39565 1.5678 0
M  V30 946 H 84.4569 -7.78239 0.443277 0
M  V30 947 N 88.686 -0.835752 -1.33615 0
M  V30 948 C 89.934 -0.429109 -1.97492 0
M  V30 949 C 90.255 1.01433 -1.66543 0
M  V30 950 O 89.525 1.70611 -0.962744 0
M  V30 951 H 88.105 -0.155686 -0.730596 0
M  V30 952 H 90.767 -1.06802 -1.63031 0
M  V30 953 H 89.863 -0.55861 -3.0706 0
M  V30 954 N 90.1641 1.46063 -0.591896 0
M  V30 955 C 91.3891 2.07226 -0.0850314 0
M  V30 956 C 91.8141 1.43625 1.21463 0
M  V30 957 O 91.1721 0.523305 1.73583 0
M  V30 958 C 91.2201 3.60554 0.0576567 0
M  V30 959 O 90.3241 3.97128 1.11188 0
M  V30 960 H 89.6651 0.660615 -0.0669568 0
M  V30 961 H 92.1951 1.8756 -0.81745 0
M  V30 962 H 92.2051 4.07165 0.2609 0
M  V30 963 H 90.8801 4.06235 -0.891416 0
M  V30 964 H 89.4571 3.62213 0.886356 0
M  V30 965 N 91.6422 0.330177 1.54103 0
M  V30 966 C 92.8892 -0.270405 2.00686 0
M  V30 967 C 93.2172 -1.51621 1.21825 0
M  V30 968 O 92.4722 -1.93536 0.29025 0
M  V30 969 C 92.7712 -0.643134 3.51566 0
M  V30 970 C 92.4372 0.504251 4.48072 0
M  V30 971 C 91.0992 0.819163 4.74176 0
M  V30 972 C 93.4512 1.27465 5.05373 0
M  V30 973 C 90.7792 1.90708 5.5484 0
M  V30 974 C 93.1312 2.35271 5.87223 0
M  V30 975 C 91.7952 2.67336 6.11627 0
M  V30 976 H 91.0652 -0.0989482 0.734364 0
M  V30 977 H 93.7122 0.455324 1.86008 0
M  V30 978 H 92.0172 -1.44938 3.64006 0
M  V30 979 H 93.7142 -1.11949 3.85056 0
M  V30 980 H 90.3042 0.248733 4.27878 0
M  V30 981 H 94.4882 1.04462 4.85182 0
M  V30 982 H 89.7442 2.15991 5.71977 0
M  V30 983 H 93.9182 2.95405 6.30641 0
M  V30 984 H 91.5452 3.51763 6.73919 0
M  V30 985 N 93.1203 -1.57491 0.0584922 0
M  V30 986 C 94.3453 -1.97711 -0.62652 0
M  V30 987 C 94.7703 -0.936132 -1.63151 0
M  V30 988 O 94.1283 0.099811 -1.81025 0
M  V30 989 C 94.1763 -3.36989 -1.28338 0
M  V30 990 O 93.2803 -3.35433 -2.39913 0
M  V30 991 H 92.6213 -0.643868 -0.162266 0
M  V30 992 H 95.1513 -2.04193 0.129064 0
M  V30 993 H 95.1613 -3.73879 -1.63335 0
M  V30 994 H 93.8363 -4.12289 -0.546889 0
M  V30 995 H 92.4133 -3.10298 -2.06809 0
M  V30 996 N 94.5984 0.214957 -1.56127 0
M  V30 997 C 95.8474 0.936451 -1.78643 0
M  V30 998 C 96.1604 1.85237 -0.628229 0
M  V30 999 O 97.3664 2.613 -0.737186 0
M  V30 1000 C 95.8224 1.7154 -3.16389 0
M  V30 1001 C 95.4304 0.845299 -4.39953 0
M  V30 1002 C 97.1744 2.42772 -3.48227 0
M  V30 1003 C 95.0814 1.62198 -5.68723 0
M  V30 1004 H 94.0114 0.353401 -0.666051 0
M  V30 1005 H 96.6624 0.190169 -1.82512 0
M  V30 1006 H 95.0444 2.50484 -3.06715 0
M  V30 1007 H 96.2184 0.0959353 -4.607 0
M  V30 1008 H 94.5334 0.244789 -4.1568 0
M  V30 1009 H 97.1304 3.01394 -4.41663 0
M  V30 1010 H 97.4734 3.15984 -2.71035 0
M  V30 1011 H 98.0064 1.70813 -3.5926 0
M  V30 1012 H 94.7454 0.933011 -6.48826 0
M  V30 1013 H 94.2654 2.34579 -5.52026 0
M  V30 1014 H 95.9444 2.18095 -6.09133 0
M  V30 1015 N 96.0765 1.50051 0.48192 0
M  V30 1016 C 97.0085 1.64263 1.59844 0
M  V30 1017 C 98.0215 0.52451 1.54119 0
M  V30 1018 O 99.2105 0.797293 1.59704 0
M  V30 1019 C 96.3105 1.60102 2.98698 0
M  V30 1020 C 95.4835 2.87767 3.29407 0
M  V30 1021 C 94.5425 2.76397 4.47762 0
M  V30 1022 O 93.5685 3.50348 4.48603 0
M  V30 1023 N 94.7705 1.89222 5.48794 0
M  V30 1024 H 97.5355 2.60566 1.48073 0
M  V30 1025 H 95.0965 1.47379 0.670149 0
M  V30 1026 H 97.0885 1.50123 3.75826 0
M  V30 1027 H 95.6585 0.715798 3.04294 0
M  V30 1028 H 94.8785 3.11954 2.40994 0
M  V30 1029 H 96.1665 3.72365 3.4673 0
M  V30 1030 H 95.5645 1.28434 5.50928 0
M  V30 1031 H 94.1215 1.85154 6.24949 0
M  V30 1032 N 97.5546 -0.734337 1.39446 0
M  V30 1033 C 98.7846 -1.52137 1.39778 0
M  V30 1034 C 99.1926 -1.89198 -0.00929312 0
M  V30 1035 O 98.5356 -1.54666 -0.991168 0
M  V30 1036 C 98.5976 -2.83762 2.20724 0
M  V30 1037 C 98.2616 -2.69131 3.69347 0
M  V30 1038 C 99.2586 -2.37635 4.62413 0
M  V30 1039 C 96.9436 -2.85982 4.1294 0
M  V30 1040 C 98.9376 -2.23172 5.97054 0
M  V30 1041 C 96.6246 -2.71137 5.47657 0
M  V30 1042 C 97.6226 -2.39777 6.39528 0
M  V30 1043 O 97.3106 -2.25026 7.71763 0
M  V30 1044 H 97.0426 -0.476717 0.479288 0
M  V30 1045 H 99.5966 -0.915012 1.83893 0
M  V30 1046 H 97.8266 -3.4666 1.71359 0
M  V30 1047 H 99.5156 -3.45383 2.13226 0
M  V30 1048 H 100.282 -2.24267 4.30034 0
M  V30 1049 H 96.1606 -3.09383 3.41765 0
M  V30 1050 H 99.7046 -1.98617 6.68728 0
M  V30 1051 H 95.6016 -2.84083 5.79626 0
M  V30 1052 H 96.3696 -2.40091 7.82495 0
M  V30 1053 N 99.0327 -1.24633 -0.964593 0
M  V30 1054 C 100.261 -1.11501 -1.74285 0
M  V30 1055 C 100.676 0.332165 -1.85855 0
M  V30 1056 O 100.033 1.22903 -1.34911 0
M  V30 1057 C 100.084 -1.75258 -3.16175 0
M  V30 1058 O 99.8047 -3.14318 -3.05182 0
M  V30 1059 C 101.306 -1.67776 -4.10324 0
M  V30 1060 H 98.5257 -0.389407 -0.546446 0
M  V30 1061 H 101.07 -1.64801 -1.21083 0
M  V30 1062 H 99.2247 -1.25954 -3.66353 0
M  V30 1063 H 99.6387 -3.4551 -3.94618 0
M  V30 1064 H 101.113 -2.17064 -5.0753 0
M  V30 1065 H 101.59 -0.639584 -4.34518 0
M  V30 1066 H 102.196 -2.16522 -3.66058 0
M  V30 1067 N 100.511 1.16574 -1.06058 0
M  V30 1068 C 101.741 1.90675 -0.795397 0
M  V30 1069 C 102.149 1.77547 0.653735 0
M  V30 1070 O 101.492 1.11611 1.45907 0
M  V30 1071 C 101.554 3.42011 -1.10764 0
M  V30 1072 C 101.218 3.78924 -2.55471 0
M  V30 1073 C 102.215 3.81042 -3.53699 0
M  V30 1074 C 99.8998 4.09626 -2.90708 0
M  V30 1075 C 101.894 4.13346 -4.85205 0
M  V30 1076 C 99.5808 4.41597 -4.22416 0
M  V30 1077 C 100.579 4.43436 -5.19474 0
M  V30 1078 O 100.267 4.74649 -6.48817 0
M  V30 1079 H 99.9988 0.611554 -0.288058 0
M  V30 1080 H 102.553 1.48711 -1.41683 0
M  V30 1081 H 100.783 3.84312 -0.429128 0
M  V30 1082 H 102.472 3.97384 -0.827077 0
M  V30 1083 H 103.238 3.57437 -3.27817 0
M  V30 1084 H 99.1168 4.07361 -2.15819 0
M  V30 1085 H 102.661 4.14696 -5.60957 0
M  V30 1086 H 98.5578 4.64667 -4.48056 0
M  V30 1087 H 99.3258 4.9247 -6.5377 0
M  V30 1088 N 101.989 0.842826 1.3317 0
M  V30 1089 C 102.939 0.250877 2.26616 0
M  V30 1090 C 103.923 -0.596427 1.49437 0
M  V30 1091 O 105.115 -0.447747 1.71243 0
M  V30 1092 C 102.244 -0.569779 3.38539 0
M  V30 1093 C 101.33 0.289254 4.23112 0
M  V30 1094 N 101.721 1.36987 4.86897 0
M  V30 1095 C 100.019 0.0769631 4.45934 0
M  V30 1096 C 100.72 1.89737 5.49886 0
M  V30 1097 N 99.6959 1.19827 5.30229 0
M  V30 1098 H 103.498 1.07718 2.73448 0
M  V30 1099 H 101.012 0.687693 1.47121 0
M  V30 1100 H 103.009 -1.01018 4.04476 0
M  V30 1101 H 101.669 -1.39401 2.93253 0
M  V30 1102 H 102.68 1.75277 4.87338 0
M  V30 1103 H 99.3569 -0.713507 4.11358 0
M  V30 1104 H 100.747 2.80253 6.10662 0
M  V30 1105 N 103.467 -1.45747 0.599634 0
M  V30 1106 C 104.713 -2.02592 0.0918643 0
M  V30 1107 C 105.046 -1.46806 -1.27128 0
M  V30 1108 O 104.321 -0.639658 -1.83681 0
M  V30 1109 C 104.604 -3.60073 0.0443398 0
M  V30 1110 C 104.457 -4.26208 1.43759 0
M  V30 1111 C 105.776 -4.35309 -0.647608 0
M  V30 1112 H 102.895 -0.736175 0.034857 0
M  V30 1113 H 105.537 -1.73694 0.770081 0
M  V30 1114 H 103.687 -3.84823 -0.533224 0
M  V30 1115 H 105.359 -4.12668 2.06162 0
M  V30 1116 H 103.602 -3.84916 2.00056 0
M  V30 1117 H 104.273 -5.35069 1.35665 0
M  V30 1118 H 106.749 -4.15805 -0.156776 0
M  V30 1119 H 105.625 -5.45038 -0.649942 0
M  V30 1120 H 105.886 -4.07598 -1.71219 0
M  V30 1121 N 104.945 -0.338344 -1.53925 0
M  V30 1122 C 106.222 0.314774 -1.93051 0
M  V30 1123 C 106.602 1.68669 -1.26941 0
M  V30 1124 O 105.95 2.24636 -0.418445 0
M  V30 1125 C 106.16 0.392249 -3.46789 0
M  V30 1126 C 107.508 0.645554 -4.19664 0
M  V30 1127 O 108.532 0.474575 -3.53024 0
M  V30 1128 O 107.391 0.976408 -5.37707 0
M  V30 1129 H 104.485 0.182598 -0.80659 0
M  V30 1130 H 107.031 -0.389141 -1.65178 0
M  V30 1131 H 105.803 -0.570702 -3.87116 0
M  V30 1132 H 105.426 1.14316 -3.80812 0
M  V30 1133 N 106.423 1.57458 -0.0668435 0
M  V30 1134 C 107.386 2.11323 0.887422 0
M  V30 1135 C 108.386 1.03618 1.22964 0
M  V30 1136 O 109.576 1.29626 1.16373 0
M  V30 1137 C 106.708 2.61048 2.19242 0
M  V30 1138 H 107.901 2.96942 0.420194 0
M  V30 1139 H 105.454 1.55239 0.181793 0
M  V30 1140 H 106.189 1.78868 2.70512 0
M  V30 1141 H 105.974 3.39769 1.95702 0
M  V30 1142 H 107.464 3.02814 2.87565 0
M  V30 1143 N 107.901 -0.206675 1.56239 0
M  V30 1144 C 108.849 -1.27571 1.94495 0
M  V30 1145 C 109.843 -1.47737 0.828862 0
M  V30 1146 O 111.049 -1.48735 1.0138 0
M  V30 1147 H 107.424 -0.428029 0.6183 0
M  V30 1148 H 109.395 -0.925961 2.8367 0
M  V30 1149 C 108.144 -2.61568 2.29079 0
M  V30 1150 H 107.467 -2.46863 3.14482 0
M  V30 1151 H 108.907 -3.35144 2.5972 0
M  V30 1152 C 107.366 -3.17695 1.12123 0
M  V30 1153 O 107.896 -3.99801 0.390153 0
M  V30 1154 N 106.102 -2.76276 0.901097 0
M  V30 1155 H 105.649 -2.09613 1.49733 0
M  V30 1156 H 105.607 -3.1417 0.120319 0
M  V30 1157 N 109.379 -1.50304 -0.473955 0
M  V30 1158 C 110.656 -1.51667 -1.23518 0
M  V30 1159 C 111.036 -0.259701 -2.09496 0
M  V30 1160 O 110.384 0.756986 -2.15597 0
M  V30 1161 C 110.594 -2.81082 -2.06868 0
M  V30 1162 C 111.942 -3.31631 -2.65153 0
M  V30 1163 O 112.966 -2.82384 -2.17113 0
M  V30 1164 O 111.825 -4.17471 -3.52675 0
M  V30 1165 H 108.919 -0.60822 -0.560355 0
M  V30 1166 H 111.465 -1.62592 -0.486011 0
M  V30 1167 H 110.237 -3.64041 -1.4349 0
M  V30 1168 H 109.86 -2.73146 -2.88924 0
M  V30 1169 N 110.857 0.726932 -1.39834 0
M  V30 1170 C 111.807 1.83232 -1.35683 0
M  V30 1171 C 112.791 1.59155 -0.236295 0
M  V30 1172 O 113.983 1.70522 -0.474488 0
M  V30 1173 C 111.112 3.21246 -1.21062 0
M  V30 1174 C 110.198 3.51125 -2.37849 0
M  V30 1175 N 110.589 3.51889 -3.63329 0
M  V30 1176 C 108.887 3.81527 -2.30982 0
M  V30 1177 C 109.588 3.79791 -4.40606 0
M  V30 1178 N 108.564 3.97971 -3.70297 0
M  V30 1179 H 112.366 1.8214 -2.30656 0
M  V30 1180 H 109.88 0.925545 -1.33444 0
M  V30 1181 H 111.877 4.00387 -1.16171 0
M  V30 1182 H 110.537 3.23572 -0.270458 0
M  V30 1183 H 111.548 3.33008 -3.96643 0
M  V30 1184 H 108.225 3.91411 -1.45272 0
M  V30 1185 H 109.615 3.86783 -5.49408 0
M  V30 1186 N 112.336 1.25143 0.95797 0
M  V30 1187 C 113.613 1.00472 1.67823 0
M  V30 1188 C 113.993 -0.470056 2.058 0
M  V30 1189 O 113.341 -1.44663 1.76875 0
M  V30 1190 C 113.551 1.9372 2.90299 0
M  V30 1191 C 114.899 2.21371 3.62326 0
M  V30 1192 O 115.923 1.91451 3.00375 0
M  V30 1193 O 114.782 2.72231 4.7387 0
M  V30 1194 H 111.876 0.380752 0.734137 0
M  V30 1195 H 114.422 1.36283 1.01119 0
M  V30 1196 H 113.194 2.93316 2.59001 0
M  V30 1197 H 112.817 1.58286 3.64735 0
M  V30 1198 N 113.814 -1.1601 1.06675 0
M  V30 1199 C 114.746 -2.20115 0.638921 0
M  V30 1200 C 115.759 -1.59916 -0.305057 0
M  V30 1201 O 116.948 -1.78245 -0.0954446 0
M  V30 1202 C 114.048 -3.38798 -0.0830083 0
M  V30 1203 C 113.221 -4.2855 0.875426 0
M  V30 1204 C 112.28 -5.25849 0.192042 0
M  V30 1205 O 111.306 -5.63102 0.830921 0
M  V30 1206 N 112.508 -5.70648 -1.06493 0
M  V30 1207 H 115.273 -2.57439 1.53444 0
M  V30 1208 H 112.834 -1.31057 0.950557 0
M  V30 1209 H 114.826 -4.00936 -0.550685 0
M  V30 1210 H 113.396 -2.99947 -0.880386 0
M  V30 1211 H 112.616 -3.63617 1.52238 0
M  V30 1212 H 113.904 -4.85393 1.52548 0
M  V30 1213 H 113.302 -5.42482 -1.60405 0
M  V30 1214 H 111.859 -6.34859 -1.47641 0
M  V30 1215 N 115.292 -0.849877 -1.32721 0
M  V30 1216 C 116.517 -0.463856 -2.02146 0
M  V30 1217 C 116.942 0.930449 -1.63476 0
M  V30 1218 O 116.3 1.61033 -0.832952 0
M  V30 1219 C 116.348 -0.604955 -3.55489 0
M  V30 1220 O 115.452 0.36425 -4.10788 0
M  V30 1221 H 114.793 -0.187046 -0.637111 0
M  V30 1222 H 117.323 -1.14775 -1.69375 0
M  V30 1223 H 117.333 -0.490696 -4.05038 0
M  V30 1224 H 116.008 -1.62174 -3.82978 0
M  V30 1225 H 114.585 0.206628 -3.72327 0
M  V30 1226 N 116.77 1.45427 -0.607355 0
M  V30 1227 C 118.186 1.57283 -0.270985 0
M  V30 1228 C 118.386 1.59875 1.22647 0
M  V30 1229 O 117.442 1.52893 2.00948 0
M  V30 1230 C 118.755 2.85566 -0.941952 0
M  V30 1231 C 120.303 2.9924 -0.917849 0
M  V30 1232 C 120.778 4.30293 -1.56882 0
M  V30 1233 N 122.269 4.37051 -1.5343 0
M  V30 1234 C 123.004 5.37123 -2.00715 0
M  V30 1235 N 122.5 6.43734 -2.56084 0
M  V30 1236 N 124.293 5.28479 -1.91484 0
M  V30 1237 H 116.444 1.41988 -1.57966 0
M  V30 1238 H 118.707 0.67885 -0.661715 0
M  V30 1239 H 118.413 2.8955 -1.99633 0
M  V30 1240 H 118.287 3.74322 -0.465096 0
M  V30 1241 H 120.674 2.94822 0.127984 0
M  V30 1242 H 120.755 2.11895 -1.43297 0
M  V30 1243 H 120.399 4.35469 -2.61398 0
M  V30 1244 H 120.329 5.16454 -1.02873 0
M  V30 1245 H 122.82 3.60615 -1.12982 0
M  V30 1246 H 123.133 7.16341 -2.89958 0
M  V30 1247 H 121.478 6.44485 -2.60122 0
M  V30 1248 H 124.669 4.44098 -1.47967 0
M  V30 1249 H 124.842 6.0632 -2.28648 0
M  V30 1250 N 118.248 0.346503 1.53744 0
M  V30 1251 C 119.195 -0.508914 2.25119 0
M  V30 1252 C 120.165 -1.09315 1.25058 0
M  V30 1253 O 121.35 -1.12921 1.53797 0
M  V30 1254 C 118.49 -1.65246 3.02965 0
M  V30 1255 C 117.603 -1.09525 4.17886 0
M  V30 1256 C 116.738 -2.20634 4.83212 0
M  V30 1257 C 115.777 -1.62279 5.90196 0
M  V30 1258 N 114.914 -2.67143 6.49291 0
M  V30 1259 H 119.754 0.106283 2.9781 0
M  V30 1260 H 117.291 0.0642227 1.4696 0
M  V30 1261 H 119.249 -2.32574 3.4636 0
M  V30 1262 H 117.879 -2.2386 2.32565 0
M  V30 1263 H 116.931 -0.312818 3.79112 0
M  V30 1264 H 118.243 -0.628444 4.94825 0
M  V30 1265 H 117.397 -2.95821 5.29693 0
M  V30 1266 H 116.136 -2.70659 4.05703 0
M  V30 1267 H 115.141 -0.855989 5.43096 0
M  V30 1268 H 116.366 -1.13102 6.69615 0
M  V30 1269 H 114.312 -3.16417 5.74645 0
M  V30 1270 H 114.229 -2.25093 7.21713 0
M  V30 1271 H 115.497 -3.4209 7.00425 0
M  V30 1272 N 119.726 -1.57421 0.075193 0
M  V30 1273 C 120.951 -1.98364 -0.605515 0
M  V30 1274 C 121.376 -0.953383 -1.62149 0
M  V30 1275 O 120.734 0.0806053 -1.81121 0
M  V30 1276 C 120.782 -3.38332 -1.24756 0
M  V30 1277 O 119.886 -3.37959 -2.36342 0
M  V30 1278 H 119.227 -0.645553 -0.155428 0
M  V30 1279 H 121.757 -2.04044 0.150714 0
M  V30 1280 H 121.767 -3.75591 -1.5936 0
M  V30 1281 H 120.442 -4.12846 -0.503129 0
M  V30 1282 H 119.019 -3.12474 -2.03506 0
M  V30 1283 N 121.204 0.198386 -1.56346 0
M  V30 1284 C 122.136 1.26987 -1.90806 0
M  V30 1285 C 123.149 1.41877 -0.798419 0
M  V30 1286 O 124.338 1.42362 -1.07682 0
M  V30 1287 C 121.438 2.64246 -2.12196 0
M  V30 1288 C 120.611 2.71007 -3.43328 0
M  V30 1289 C 119.67 3.89439 -3.5387 0
M  V30 1290 O 118.696 3.76695 -4.26719 0
M  V30 1291 N 119.898 5.04752 -2.86715 0
M  V30 1292 H 122.663 0.977433 -2.83313 0
M  V30 1293 H 120.224 0.388322 -1.57174 0
M  V30 1294 H 122.216 3.41896 -2.1654 0
M  V30 1295 H 120.786 2.85992 -1.26204 0
M  V30 1296 H 120.006 1.79657 -3.50881 0
M  V30 1297 H 121.294 2.72512 -4.29668 0
M  V30 1298 H 120.692 5.18004 -2.2735 0
M  V30 1299 H 119.249 5.8036 -2.96691 0
M  V30 1300 N 122.682 1.50554 0.465978 0
M  V30 1301 C 123.614 1.65949 1.58093 0
M  V30 1302 C 124.627 0.540827 1.53554 0
M  V30 1303 O 125.816 0.814187 1.5885 0
M  V30 1304 C 122.916 1.63261 2.96983 0
M  V30 1305 C 122.089 2.91245 3.26336 0
M  V30 1306 C 121.148 2.8113 4.44806 0
M  V30 1307 O 120.174 3.55086 4.44862 0
M  V30 1308 N 121.376 1.95032 5.46756 0
M  V30 1309 H 124.141 2.62122 1.45301 0
M  V30 1310 H 121.702 1.48082 0.65448 0
M  V30 1311 H 123.694 1.54101 3.74212 0
M  V30 1312 H 122.264 0.748032 3.03518 0
M  V30 1313 H 121.484 3.14493 2.37672 0
M  V30 1314 H 122.772 3.76022 3.42761 0
M  V30 1315 H 122.17 1.3427 5.49534 0
M  V30 1316 H 120.727 1.91772 6.2295 0
M  V30 1317 N 124.16 -0.719506 1.40217 0
M  V30 1318 C 125.39 -1.50646 1.41384 0
M  V30 1319 C 125.798 -1.89197 0.0107743 0
M  V30 1320 O 125.141 -1.55709 -0.974708 0
M  V30 1321 C 125.203 -2.81405 2.23722 0
M  V30 1322 C 124.867 -2.65199 3.72181 0
M  V30 1323 C 125.864 -2.32717 4.64907 0
M  V30 1324 C 123.549 -2.81586 4.1595 0
M  V30 1325 C 125.543 -2.16827 5.99387 0
M  V30 1326 C 123.23 -2.65313 5.50502 0
M  V30 1327 C 124.228 -2.32981 6.42035 0
M  V30 1328 O 123.916 -2.16827 7.74107 0
M  V30 1329 H 123.648 -0.471606 0.484318 0
M  V30 1330 H 126.202 -0.895456 1.84853 0
M  V30 1331 H 124.432 -3.44823 1.75026 0
M  V30 1332 H 126.121 -3.43102 2.16878 0
M  V30 1333 H 126.887 -2.19694 4.32388 0
M  V30 1334 H 122.766 -3.0574 3.45027 0
M  V30 1335 H 126.31 -1.91513 6.70797 0
M  V30 1336 H 122.207 -2.7792 5.82607 0
M  V30 1337 H 122.975 -2.31778 7.84998 0
M  V30 1338 N 125.638 -1.25649 -0.95132 0
M  V30 1339 C 126.915 -1.01361 -1.67288 0
M  V30 1340 C 127.295 0.459135 -2.06046 0
M  V30 1341 O 126.643 1.43723 -1.7764 0
M  V30 1342 C 126.853 -1.95256 -2.89268 0
M  V30 1343 C 128.201 -2.23289 -3.61147 0
M  V30 1344 O 129.225 -1.93041 -2.99355 0
M  V30 1345 O 128.084 -2.74741 -4.72419 0
M  V30 1346 H 125.178 -0.38464 -0.732107 0
M  V30 1347 H 127.724 -1.36817 -1.00395 0
M  V30 1348 H 126.496 -2.94685 -2.57442 0
M  V30 1349 H 126.119 -1.60218 -3.6389 0
M  V30 1350 N 127.117 1.15442 -1.07289 0
M  V30 1351 C 128.047 2.22312 -0.714107 0
M  V30 1352 C 129.028 1.67467 0.298155 0
M  V30 1353 O 130.213 1.93445 0.171048 0
M  V30 1354 C 127.343 3.47124 -0.110448 0
M  V30 1355 C 126.297 4.14926 -1.04979 0
M  V30 1356 C 125.623 5.33807 -0.308924 0
M  V30 1357 C 126.923 4.64762 -2.38314 0
M  V30 1358 H 128.617 2.5258 -1.6076 0
M  V30 1359 H 126.163 1.21404 -0.77441 0
M  V30 1360 H 128.116 4.21124 0.152482 0
M  V30 1361 H 126.84 3.16187 0.81812 0
M  V30 1362 H 125.499 3.42866 -1.29764 0
M  V30 1363 H 125.147 4.99126 0.623084 0
M  V30 1364 H 124.847 5.80113 -0.935036 0
M  V30 1365 H 126.371 6.10576 -0.0537771 0
M  V30 1366 H 127.785 5.30292 -2.1786 0
M  V30 1367 H 126.182 5.21728 -2.96514 0
M  V30 1368 H 127.252 3.80434 -3.00663 0
M  V30 1369 N 128.595 0.856903 1.32268 0
M  V30 1370 C 129.543 0.291987 2.3076 0
M  V30 1371 C 130.537 -0.585857 1.58947 0
M  V30 1372 O 131.743 -0.47341 1.73663 0
M  V30 1373 H 128.118 0.075721 0.748178 0
M  V30 1374 H 130.089 1.13687 2.75895 0
M  V30 1375 C 128.838 -0.502869 3.44044 0
M  V30 1376 H 128.161 0.163328 3.99466 0
M  V30 1377 H 129.601 -0.863691 4.1511 0
M  V30 1378 C 128.06 -1.68898 2.91505 0
M  V30 1379 O 128.59 -2.78811 2.89184 0
M  V30 1380 N 126.796 -1.51679 2.47875 0
M  V30 1381 H 126.343 -0.622666 2.49961 0
M  V30 1382 H 126.301 -2.31184 2.13076 0
M  V30 1383 N 130.073 -1.45103 0.615059 0
M  V30 1384 C 131.036 -2.29025 -0.0895485 0
M  V30 1385 C 132.036 -1.40174 -0.787906 0
M  V30 1386 O 133.226 -1.62217 -0.634933 0
M  V30 1387 C 130.358 -3.21376 -1.13711 0
M  V30 1388 H 131.551 -2.92807 0.648382 0
M  V30 1389 H 129.104 -1.51749 0.374444 0
M  V30 1390 H 129.839 -2.6241 -1.90556 0
M  V30 1391 H 129.624 -3.86834 -0.640475 0
M  V30 1392 H 131.114 -3.84459 -1.63036 0
M  V30 1393 N 131.551 -0.354651 -1.53558 0
M  V30 1394 C 132.481 0.489091 -2.2832 0
M  V30 1395 C 133.462 1.09324 -1.30316 0
M  V30 1396 O 134.647 1.11255 -1.59173 0
M  V30 1397 C 131.777 1.63456 -3.0643 0
M  V30 1398 C 130.731 1.1582 -4.12031 0
M  V30 1399 C 130.057 2.39305 -4.7816 0
M  V30 1400 C 131.357 0.250731 -5.21698 0
M  V30 1401 H 133.051 -0.134614 -2.99097 0
M  V30 1402 H 130.597 -0.0661826 -1.43848 0
M  V30 1403 H 132.55 2.23136 -3.57475 0
M  V30 1404 H 131.274 2.28533 -2.33325 0
M  V30 1405 H 129.933 0.584146 -3.61916 0
M  V30 1406 H 129.581 3.02814 -4.01637 0
M  V30 1407 H 129.281 2.08109 -5.49513 0
M  V30 1408 H 130.805 2.99691 -5.31994 0
M  V30 1409 H 132.219 0.754695 -5.68311 0
M  V30 1410 H 130.616 0.0301468 -6.00092 0
M  V30 1411 H 131.686 -0.710125 -4.79672 0
M  V30 1412 N 133.029 1.57378 -0.0835403 0
M  V30 1413 C 133.979 2.09916 0.889905 0
M  V30 1414 C 134.963 1.01151 1.25129 0
M  V30 1415 O 136.155 1.27443 1.2283 0
M  V30 1416 C 133.284 2.67379 2.15322 0
M  V30 1417 C 132.37 3.83167 1.81779 0
M  V30 1418 N 132.761 4.91665 1.18739 0
M  V30 1419 C 131.059 3.92685 2.11459 0
M  V30 1420 C 131.76 5.72409 1.0355 0
M  V30 1421 N 130.736 5.21062 1.54906 0
M  V30 1422 H 134.538 2.91188 0.398378 0
M  V30 1423 H 132.052 1.61956 0.120013 0
M  V30 1424 H 134.049 3.0334 2.8599 0
M  V30 1425 H 132.709 1.87558 2.65051 0
M  V30 1426 H 133.72 5.10784 0.855604 0
M  V30 1427 H 130.397 3.23856 2.63483 0
M  V30 1428 H 131.787 6.69699 0.543425 0
M  V30 1429 N 134.507 -0.190092 1.56449 0
M  V30 1430 C 135.454 -1.23557 1.94942 0
M  V30 1431 C 136.424 -1.44972 0.810696 0
M  V30 1432 O 137.609 -1.58023 1.06927 0
M  V30 1433 C 134.749 -2.57416 2.2985 0
M  V30 1434 C 133.862 -2.43537 3.5681 0
M  V30 1435 C 132.997 -3.70134 3.81017 0
M  V30 1436 C 132.036 -3.51109 5.01387 0
M  V30 1437 N 131.173 -4.6973 5.21822 0
M  V30 1438 H 136.013 -0.900304 2.84075 0
M  V30 1439 H 133.55 -0.43318 1.40577 0
M  V30 1440 H 135.508 -3.35409 2.48106 0
M  V30 1441 H 134.138 -2.88975 1.43852 0
M  V30 1442 H 133.19 -1.56816 3.46573 0
M  V30 1443 H 134.502 -2.25415 4.4496 0
M  V30 1444 H 133.656 -4.56566 3.9954 0
M  V30 1445 H 132.395 -3.91215 2.91207 0
M  V30 1446 H 131.4 -2.63063 4.82782 0
M  V30 1447 H 132.625 -3.31468 5.9271 0
M  V30 1448 H 130.571 -4.91065 4.34961 0
M  V30 1449 H 130.488 -4.54452 6.0416 0
M  V30 1450 H 131.756 -5.57499 5.44808 0
M  V30 1451 N 135.985 -1.50799 -0.457987 0
M  V30 1452 C 137.213 -1.66218 -1.23203 0
M  V30 1453 C 137.628 -0.350894 -1.85511 0
M  V30 1454 O 136.985 0.668546 -1.69814 0
M  V30 1455 C 137.036 -2.76291 -2.33121 0
M  V30 1456 O 136.757 -4.02338 -1.73366 0
M  V30 1457 C 138.258 -3.028 -3.2377 0
M  V30 1458 H 135.478 -0.558361 -0.372121 0
M  V30 1459 H 138.022 -1.97099 -0.545179 0
M  V30 1460 H 136.177 -2.48068 -2.97558 0
M  V30 1461 H 136.591 -4.63312 -2.4585 0
M  V30 1462 H 138.065 -3.8345 -3.97077 0
M  V30 1463 H 138.542 -2.14385 -3.83322 0
M  V30 1464 H 139.148 -3.32604 -2.65056 0
M  V30 1465 N 137.463 0.71206 -1.40597 0
M  V30 1466 C 138.691 1.50111 -1.42388 0
M  V30 1467 C 139.106 1.88784 -0.0245395 0
M  V30 1468 O 138.463 1.55681 0.952351 0
M  V30 1469 C 138.514 2.7742 -2.31776 0
M  V30 1470 O 138.235 2.40382 -3.66262 0
M  V30 1471 C 139.736 3.7129 -2.42196 0
M  V30 1472 H 136.956 0.46314 -0.485533 0
M  V30 1473 H 139.5 0.878068 -1.8469 0
M  V30 1474 H 137.655 3.36001 -1.92827 0
M  V30 1475 H 138.069 3.22324 -4.13772 0
M  V30 1476 H 139.543 4.57448 -3.08943 0
M  V30 1477 H 140.02 4.14641 -1.44809 0
M  V30 1478 H 140.626 3.18619 -2.81712 0
M  V30 1479 N 138.941 1.26152 0.944643 0
M  V30 1480 C 139.888 1.07408 2.04285 0
M  V30 1481 C 140.858 -0.0198413 1.66088 0
M  V30 1482 O 142.043 0.139264 1.90291 0
M  V30 1483 C 139.183 0.70945 3.37729 0
M  V30 1484 C 138.296 1.87926 3.88983 0
M  V30 1485 C 137.431 1.45807 5.10797 0
M  V30 1486 C 136.47 2.5964 5.54305 0
M  V30 1487 N 135.607 2.18226 6.67324 0
M  V30 1488 H 140.447 2.01389 2.1965 0
M  V30 1489 H 137.984 1.00275 1.07626 0
M  V30 1490 H 139.942 0.478948 4.14442 0
M  V30 1491 H 138.572 -0.193389 3.2222 0
M  V30 1492 H 137.624 2.22279 3.08701 0
M  V30 1493 H 138.936 2.73377 4.17213 0
M  V30 1494 H 138.09 1.18781 5.94959 0
M  V30 1495 H 136.829 0.574414 4.84305 0
M  V30 1496 H 135.834 2.87399 4.68702 0
M  V30 1497 H 137.059 3.48599 5.828 0
M  V30 1498 H 135.005 1.3229 6.42523 0
M  V30 1499 H 134.922 2.97221 6.95123 0
M  V30 1500 H 136.19 1.94403 7.54869 0
M  V30 1501 N 140.419 -1.14872 1.07899 0
M  V30 1502 C 141.644 -1.90202 0.826926 0
M  V30 1503 C 142.069 -1.77774 -0.614664 0
M  V30 1504 O 141.427 -1.11431 -1.43013 0
M  V30 1505 C 141.475 -3.38352 1.24702 0
M  V30 1506 O 140.579 -4.10497 0.39575 0
M  V30 1507 H 139.92 -0.591968 0.300782 0
M  V30 1508 H 142.45 -1.45437 1.43907 0
M  V30 1509 H 142.46 -3.89156 1.22563 0
M  V30 1510 H 141.135 -3.46715 2.29698 0
M  V30 1511 H 139.712 -3.69796 0.480117 0
M  V30 1512 N 141.898 -0.863906 -1.31812 0
M  V30 1513 C 142.83 -0.272485 -2.27575 0
M  V30 1514 C 143.843 0.56104 -1.52827 0
M  V30 1515 O 145.032 0.384021 -1.7432 0
M  V30 1516 C 142.132 0.63283 -3.32939 0
M  V30 1517 C 141.305 -0.166902 -4.37081 0
M  V30 1518 C 140.364 0.665608 -5.21973 0
M  V30 1519 O 139.39 0.0958091 -5.69119 0
M  V30 1520 N 140.592 1.9787 -5.45736 0
M  V30 1521 H 143.357 -1.0954 -2.78964 0
M  V30 1522 H 140.918 -0.724791 -1.4477 0
M  V30 1523 H 142.91 1.19532 -3.86645 0
M  V30 1524 H 141.48 1.35642 -2.81638 0
M  V30 1525 H 140.7 -0.910838 -3.83533 0
M  V30 1526 H 141.988 -0.715874 -5.03739 0
M  V30 1527 H 141.386 2.46484 -5.09178 0
M  V30 1528 H 139.943 2.48911 -6.024 0
M  V30 1529 N 143.376 1.44774 -0.622745 0
M  V30 1530 C 144.792 1.56986 -0.287652 0
M  V30 1531 C 144.992 1.61167 1.20944 0
M  V30 1532 O 144.048 1.55015 1.99315 0
M  V30 1533 C 145.361 2.84551 -0.972188 0
M  V30 1534 C 146.909 2.9825 -0.949536 0
M  V30 1535 C 147.384 4.28605 -1.61437 0
M  V30 1536 N 148.875 4.35399 -1.58057 0
M  V30 1537 C 149.61 5.34964 -2.064 0
M  V30 1538 N 149.106 6.40981 -2.62897 0
M  V30 1539 N 150.899 5.26419 -1.97078 0
M  V30 1540 H 143.05 1.40304 -1.59463 0
M  V30 1541 H 145.313 0.671794 -0.668878 0
M  V30 1542 H 145.019 2.87417 -2.02693 0
M  V30 1543 H 144.893 3.73807 -0.504771 0
M  V30 1544 H 147.28 2.94941 0.0967067 0
M  V30 1545 H 147.361 2.10364 -1.45536 0
M  V30 1546 H 147.005 4.32672 -2.66002 0
M  V30 1547 H 146.935 5.15334 -1.08344 0
M  V30 1548 H 149.426 3.59397 -1.16801 0
M  V30 1549 H 149.739 7.13225 -2.97539 0
M  V30 1550 H 148.084 6.4169 -2.66943 0
M  V30 1551 H 151.275 4.42504 -1.52669 0
M  V30 1552 H 151.448 6.03861 -2.35066 0
M  V30 1553 N 144.854 0.36279 1.53368 0
M  V30 1554 C 145.804 -0.501391 2.22419 0
M  V30 1555 C 146.788 -1.0509 1.2184 0
M  V30 1556 O 147.98 -0.981404 1.47301 0
M  V30 1557 C 145.109 -1.64201 3.01484 0
M  V30 1558 C 144.195 -1.10552 4.09438 0
M  V30 1559 N 144.586 -0.291788 5.04958 0
M  V30 1560 C 142.884 -1.3806 4.24094 0
M  V30 1561 C 143.585 0.00162655 5.817 0
M  V30 1562 N 142.561 -0.595244 5.40331 0
M  V30 1563 H 146.363 0.127159 2.93625 0
M  V30 1564 H 143.877 0.170658 1.61501 0
M  V30 1565 H 145.874 -2.27326 3.49469 0
M  V30 1566 H 144.534 -2.27365 2.31809 0
M  V30 1567 H 145.545 0.0687731 5.17854 0
M  V30 1568 H 142.222 -2.01522 3.65644 0
M  V30 1569 H 143.612 0.659278 6.68658 0
M  V30 1570 N 146.332 -1.57332 0.0918853 0
M  V30 1571 C 147.262 -2.16872 -0.865371 0
M  V30 1572 C 148.243 -1.10118 -1.29646 0
M  V30 1573 O 149.428 -1.38242 -1.36392 0
M  V30 1574 C 146.558 -2.74649 -2.12569 0
M  V30 1575 C 145.512 -3.86747 -1.83333 0
M  V30 1576 C 144.838 -4.31212 -3.16166 0
M  V30 1577 C 146.138 -5.10089 -1.1228 0
M  V30 1578 H 147.832 -2.97114 -0.369307 0
M  V30 1579 H 145.378 -1.42918 -0.176194 0
M  V30 1580 H 147.331 -3.14952 -2.7997 0
M  V30 1581 H 146.055 -1.91657 -2.64452 0
M  V30 1582 H 144.714 -3.46978 -1.18331 0
M  V30 1583 H 144.362 -3.45115 -3.6593 0
M  V30 1584 H 144.062 -5.06788 -2.97388 0
M  V30 1585 H 145.586 -4.74146 -3.84731 0
M  V30 1586 H 147 -5.47582 -1.69785 0
M  V30 1587 H 145.397 -5.91073 -1.03693 0
M  V30 1588 H 146.467 -4.84786 -0.105041 0
M  V30 1589 N 147.81 0.181792 -1.56548 0
M  V30 1590 C 149.058 0.89832 -1.81038 0
M  V30 1591 C 149.379 1.83232 -0.667164 0
M  V30 1592 O 148.649 1.93372 0.313673 0
M  V30 1593 H 147.229 0.33471 -0.667816 0
M  V30 1594 H 149.891 0.184116 -1.94028 0
M  V30 1595 H 148.987 1.4815 -2.74696 0
M  V30 1596 N 149.288 1.51039 0.449983 0
M  V30 1597 C 150.536 1.62759 1.19808 0
M  V30 1598 C 150.857 0.339981 1.92013 0
M  V30 1599 O 150.127 -0.643606 1.85026 0
M  V30 1600 H 148.707 0.599811 0.445237 0
M  V30 1601 H 151.369 1.87914 0.517138 0
M  V30 1602 H 150.465 2.44911 1.93455 0
M  V30 1603 N 150.766 -0.704594 1.40972 0
M  V30 1604 C 151.991 -1.49858 1.43378 0
M  V30 1605 C 152.416 -1.88061 0.038184 0
M  V30 1606 O 151.774 -1.5402 -0.956425 0
M  V30 1607 C 151.822 -2.74333 2.34038 0
M  V30 1608 O 150.926 -3.7147 1.7912 0
M  V30 1609 H 150.267 -0.45139 0.486974 0
M  V30 1610 H 152.797 -0.866832 1.8533 0
M  V30 1611 H 152.807 -3.22741 2.49604 0
M  V30 1612 H 151.482 -2.45863 3.35446 0
M  V30 1613 H 150.059 -3.30363 1.72958 0
M  V30 1614 N 152.244 -1.26651 -0.937939 0
M  V30 1615 C 153.176 -1.04283 -2.04102 0
M  V30 1616 C 154.189 -0.00221014 -1.628 0
M  V30 1617 O 155.378 -0.242645 -1.76843 0
M  V30 1618 C 152.478 -0.557846 -3.34277 0
M  V30 1619 C 151.651 -1.66843 -4.04329 0
M  V30 1620 C 150.71 -1.18095 -5.12777 0
M  V30 1621 O 149.736 -1.87865 -5.37304 0
M  V30 1622 N 150.938 -0.0311006 -5.80492 0
M  V30 1623 H 153.703 -1.9927 -2.23856 0
M  V30 1624 H 151.264 -1.1808 -1.10764 0
M  V30 1625 H 153.256 -0.215836 -4.04124 0
M  V30 1626 H 151.826 0.298523 -3.11171 0
M  V30 1627 H 151.046 -2.18123 -3.28353 0
M  V30 1628 H 152.334 -2.41408 -4.47883 0
M  V30 1629 H 151.732 0.551486 -5.63005 0
M  V30 1630 H 150.289 0.251809 -6.51313 0
M  V30 1631 N 153.722 1.14298 -1.08507 0
M  V30 1632 C 154.654 2.1907 -0.673859 0
M  V30 1633 C 155.667 1.60381 0.279577 0
M  V30 1634 O 156.856 1.78374 0.0670754 0
M  V30 1635 C 153.956 3.38888 0.0290979 0
M  V30 1636 C 153.129 4.27103 -0.943494 0
M  V30 1637 C 152.188 5.25477 -0.275676 0
M  V30 1638 O 151.214 5.61709 -0.920401 0
M  V30 1639 N 152.416 5.7227 0.974013 0
M  V30 1640 H 155.181 2.54965 -1.57521 0
M  V30 1641 H 152.742 1.29528 -0.971287 0
M  V30 1642 H 154.734 4.01761 0.48683 0
M  V30 1643 H 153.304 3.01309 0.832555 0
M  V30 1644 H 152.524 3.61149 -1.58004 0
M  V30 1645 H 153.812 4.82905 -1.60251 0
M  V30 1646 H 153.21 5.44965 1.51755 0
M  V30 1647 H 151.767 6.37127 1.37522 0
M  V30 1648 N 155.201 0.870884 1.31352 0
M  V30 1649 C 156.131 0.343096 2.30966 0
M  V30 1650 C 157.112 -0.566507 1.60389 0
M  V30 1651 O 158.297 -0.483336 1.88089 0
M  V30 1652 C 155.427 -0.455487 3.443 0
M  V30 1653 C 154.381 0.361103 4.26474 0
M  V30 1654 C 153.707 -0.563221 5.31725 0
M  V30 1655 C 155.007 1.59566 4.97329 0
M  V30 1656 H 156.701 1.17548 2.75359 0
M  V30 1657 H 154.247 0.566686 1.32381 0
M  V30 1658 H 156.2 -0.83525 4.13039 0
M  V30 1659 H 154.924 -1.32139 2.98675 0
M  V30 1660 H 153.583 0.722825 3.59403 0
M  V30 1661 H 153.231 -1.42643 4.82351 0
M  V30 1662 H 152.931 -0.0207409 5.87596 0
M  V30 1663 H 154.455 -0.939808 6.03324 0
M  V30 1664 H 155.869 1.28728 5.58661 0
M  V30 1665 H 154.266 2.07728 5.63 0
M  V30 1666 H 155.336 2.34798 4.24262 0
M  V30 1667 N 156.679 -1.44442 0.630414 0
M  V30 1668 C 157.609 -2.33418 -0.0618083 0
M  V30 1669 C 158.59 -1.48165 -0.835541 0
M  V30 1670 O 159.775 -1.76886 -0.801564 0
M  V30 1671 C 156.905 -3.31222 -1.04449 0
M  V30 1672 C 155.859 -4.26288 -0.382436 0
M  V30 1673 C 155.185 -5.13954 -1.47497 0
M  V30 1674 C 156.485 -5.1744 0.710865 0
M  V30 1675 H 158.179 -2.91548 0.681184 0
M  V30 1676 H 155.725 -1.40191 0.329026 0
M  V30 1677 H 157.678 -3.92351 -1.53748 0
M  V30 1678 H 156.402 -2.71299 -1.81836 0
M  V30 1679 H 155.061 -3.6649 0.0899054 0
M  V30 1680 H 154.709 -4.50385 -2.2397 0
M  V30 1681 H 154.409 -5.7837 -1.03737 0
M  V30 1682 H 155.933 -5.77955 -1.96979 0
M  V30 1683 H 157.347 -5.72509 0.300996 0
M  V30 1684 H 155.744 -5.90455 1.07156 0
M  V30 1685 H 156.814 -4.58496 1.57829 0
M  V30 1686 N 158.157 -0.370918 -1.53173 0
M  V30 1687 C 159.107 0.489588 -2.22681 0
M  V30 1688 C 160.091 1.04442 -1.22395 0
M  V30 1689 O 161.283 0.973578 -1.47819 0
M  V30 1690 C 158.412 1.626 -3.02351 0
M  V30 1691 C 157.498 1.08379 -4.10018 0
M  V30 1692 N 157.889 0.265004 -5.05105 0
M  V30 1693 C 156.187 1.35809 -4.2482 0
M  V30 1694 C 156.888 -0.0324755 -5.81691 0
M  V30 1695 N 155.864 0.566581 -5.40639 0
M  V30 1696 H 159.666 -0.142729 -2.93553 0
M  V30 1697 H 157.18 -0.179221 -1.61408 0
M  V30 1698 H 159.177 2.2547 -3.50669 0
M  V30 1699 H 157.837 2.26132 -2.33011 0
M  V30 1700 H 158.848 -0.0962352 -5.17811 0
M  V30 1701 H 155.525 1.9958 -3.66707 0
M  V30 1702 H 156.915 -0.69473 -6.68299 0
M  V30 1703 N 159.635 1.57281 -0.100228 0
M  V30 1704 C 160.583 2.15542 0.874328 0
M  V30 1705 C 161.577 1.09962 1.28859 0
M  V30 1706 O 162.783 1.28298 1.26252 0
M  V30 1707 H 159.158 0.689567 0.300003 0
M  V30 1708 H 161.129 2.96241 0.35829 0
M  V30 1709 C 159.878 2.75454 2.1218 0
M  V30 1710 H 159.201 3.56384 1.81193 0
M  V30 1711 H 160.641 3.19781 2.78417 0
M  V30 1712 C 159.1 1.71602 2.89921 0
M  V30 1713 O 159.63 1.15804 3.84646 0
M  V30 1714 N 157.836 1.41975 2.53558 0
M  V30 1715 H 157.383 1.87539 1.76598 0
M  V30 1716 H 157.341 0.727274 3.05873 0
M  V30 1717 N 161.113 -0.173488 1.56642 0
M  V30 1718 C 162.06 -1.21482 1.96242 0
M  V30 1719 C 163.03 -1.44104 0.826027 0
M  V30 1720 O 164.215 -1.5688 1.08597 0
M  V30 1721 C 161.355 -2.54964 2.32567 0
M  V30 1722 C 160.468 -2.39739 3.59373 0
M  V30 1723 C 159.603 -3.66072 3.84921 0
M  V30 1724 C 158.642 -3.45771 5.05083 0
M  V30 1725 N 157.779 -4.64169 5.26775 0
M  V30 1726 H 162.619 -0.870123 2.85014 0
M  V30 1727 H 160.156 -0.418245 1.41029 0
M  V30 1728 H 162.114 -3.32758 2.5165 0
M  V30 1729 H 160.744 -2.87433 1.46908 0
M  V30 1730 H 159.796 -1.53131 3.48217 0
M  V30 1731 H 161.108 -2.20683 4.47326 0
M  V30 1732 H 160.262 -4.52303 4.0436 0
M  V30 1733 H 159.001 -3.88105 2.9534 0
M  V30 1734 H 158.006 -2.57927 4.85545 0
M  V30 1735 H 159.231 -3.25163 5.96193 0
M  V30 1736 H 157.177 -4.86425 4.40144 0
M  V30 1737 H 157.094 -4.48019 6.08946 0
M  V30 1738 H 158.362 -5.51689 5.5069 0
M  V30 1739 N 162.591 -1.51276 -0.441967 0
M  V30 1740 C 163.523 -1.68444 -1.55433 0
M  V30 1741 C 164.536 -0.565187 -1.52674 0
M  V30 1742 O 165.725 -0.839356 -1.57534 0
M  V30 1743 C 162.825 -1.67966 -2.94348 0
M  V30 1744 C 161.998 -2.964 -3.21661 0
M  V30 1745 C 161.057 -2.88171 -4.40277 0
M  V30 1746 O 160.083 -3.62119 -4.39157 0
M  V30 1747 N 161.285 -2.03706 -5.43584 0
M  V30 1748 H 164.05 -2.644 -1.41112 0
M  V30 1749 H 161.611 -1.49104 -0.630838 0
M  V30 1750 H 163.603 -1.60035 -3.71713 0
M  V30 1751 H 162.173 -0.796225 -3.0229 0
M  V30 1752 H 161.393 -3.18234 -2.32638 0
M  V30 1753 H 162.681 -3.81427 -3.36736 0
M  V30 1754 H 162.079 -1.42995 -5.47329 0
M  V30 1755 H 160.636 -2.01658 -6.1982 0
M  V30 1756 N 164.069 0.697108 -1.41344 0
M  V30 1757 C 164.979 1.84088 -1.45427 0
M  V30 1758 C 165.995 1.70545 -0.34501 0
M  V30 1759 O 167.171 1.92488 -0.592492 0
M  V30 1760 C 164.236 3.20056 -1.33286 0
M  V30 1761 C 163.297 3.45718 -2.54514 0
M  V30 1762 C 162.53 4.75199 -2.42944 0
M  V30 1763 O 162.753 5.51579 -1.45318 0
M  V30 1764 O 161.687 5.0161 -3.32672 0
M  V30 1765 H 165.513 1.836 -2.41919 0
M  V30 1766 H 163.098 0.849966 -1.22866 0
M  V30 1767 H 164.98 4.01236 -1.28794 0
M  V30 1768 H 163.655 3.2123 -0.39909 0
M  V30 1769 H 162.562 2.64474 -2.64583 0
M  V30 1770 H 163.895 3.49356 -3.46715 0
M  V30 1771 N 165.547 1.27147 0.931209 0
M  V30 1772 C 166.795 1.13055 1.6752 0
M  V30 1773 C 167.116 -0.324791 1.92276 0
M  V30 1774 O 166.386 -1.22775 1.52654 0
M  V30 1775 H 164.966 0.415391 0.620854 0
M  V30 1776 H 167.628 1.59623 1.11833 0
M  V30 1777 H 166.724 1.65694 2.64485 0
M  V30 1778 N 167.025 -1.13721 1.09112 0
M  V30 1779 C 168.441 -1.36914 0.820174 0
M  V30 1780 C 168.641 -1.93356 -0.567079 0
M  V30 1781 O 167.697 -2.15093 -1.32255 0
M  V30 1782 C 169.01 -2.3235 1.90877 0
M  V30 1783 C 170.558 -2.45973 1.93562 0
M  V30 1784 C 171.033 -3.44714 3.01556 0
M  V30 1785 N 172.524 -3.52263 3.00775 0
M  V30 1786 C 173.259 -4.28536 3.80978 0
M  V30 1787 N 172.755 -5.07991 4.71081 0
M  V30 1788 N 174.548 -4.23804 3.69251 0
M  V30 1789 H 166.699 -0.754348 1.98553 0
M  V30 1790 H 168.962 -0.3944 0.862063 0
M  V30 1791 H 168.668 -1.98027 2.90651 0
M  V30 1792 H 168.542 -3.32332 1.78424 0
M  V30 1793 H 170.929 -2.79584 0.944286 0
M  V30 1794 H 171.01 -1.45926 2.10093 0
M  V30 1795 H 170.654 -3.11835 4.00901 0
M  V30 1796 H 170.584 -4.44558 2.82269 0
M  V30 1797 H 173.075 -2.95567 2.35475 0
M  V30 1798 H 173.388 -5.63487 5.28869 0
M  V30 1799 H 171.733 -5.07235 4.75119 0
M  V30 1800 H 174.924 -3.60806 2.98222 0
M  V30 1801 H 175.097 -4.82995 4.31995 0
M  V30 1802 N 168.503 -0.877838 -1.30888 0
M  V30 1803 C 169.78 -0.413052 -1.91189 0
M  V30 1804 C 170.16 1.1056 -1.79832 0
M  V30 1805 O 169.508 1.93771 -1.21099 0
M  V30 1806 C 169.718 -0.903191 -3.3711 0
M  V30 1807 C 171.066 -0.93395 -4.14201 0
M  V30 1808 O 172.09 -0.849373 -3.45925 0
M  V30 1809 O 170.949 -1.05772 -5.36167 0
M  V30 1810 H 168.043 -0.125035 -0.817493 0
M  V30 1811 H 170.589 -0.966269 -1.39504 0
M  V30 1812 H 169.361 -1.94692 -3.39427 0
M  V30 1813 H 168.984 -0.328732 -3.96239 0
M  V30 1814 N 169.982 1.44106 -0.638065 0
M  V30 1815 C 170.932 2.27843 0.0847285 0
M  V30 1816 C 171.916 1.39055 0.809471 0
M  V30 1817 O 173.108 1.62808 0.694435 0
M  V30 1818 C 170.237 3.26497 1.06089 0
M  V30 1819 C 169.323 4.22772 0.33541 0
M  V30 1820 N 169.714 5.01737 -0.639787 0
M  V30 1821 C 168.012 4.42227 0.578921 0
M  V30 1822 C 168.713 5.71792 -1.06904 0
M  V30 1823 N 167.689 5.42079 -0.406395 0
M  V30 1824 H 171.491 2.86305 -0.663814 0
M  V30 1825 H 169.005 1.55627 -0.464122 0
M  V30 1826 H 171.002 3.8525 1.59337 0
M  V30 1827 H 169.662 2.69595 1.80966 0
M  V30 1828 H 170.673 5.07799 -1.01789 0
M  V30 1829 H 167.35 3.96415 1.31003 0
M  V30 1830 H 168.74 6.45205 -1.8751 0
M  V30 1831 N 171.46 0.379036 1.52974 0
M  V30 1832 C 172.737 -0.263479 1.93817 0
M  V30 1833 C 173.117 -1.65244 1.31368 0
M  V30 1834 O 172.465 -2.23448 0.477856 0
M  V30 1835 C 172.675 -0.300166 3.47707 0
M  V30 1836 C 174.023 -0.534061 4.21228 0
M  V30 1837 O 175.047 -0.38081 3.54159 0
M  V30 1838 O 173.906 -0.833501 5.40106 0
M  V30 1839 H 171 -0.161149 0.811147 0
M  V30 1840 H 173.546 0.432798 1.64088 0
M  V30 1841 H 172.318 0.673138 3.85467 0
M  V30 1842 H 171.941 -1.04179 3.83709 0
M  V30 1843 N 172.938 -1.57226 0.108567 0
M  V30 1844 C 173.885 -2.14756 -0.845481 0
M  V30 1845 C 174.855 -1.06971 -1.27068 0
M  V30 1846 O 176.04 -1.34827 -1.35005 0
M  V30 1847 C 173.18 -2.74298 -2.09415 0
M  V30 1848 C 172.293 -3.96358 -1.71826 0
M  V30 1849 C 171.428 -4.44021 -2.9158 0
M  V30 1850 C 170.467 -5.58637 -2.50181 0
M  V30 1851 N 169.604 -6.01091 -3.62814 0
M  V30 1852 H 174.444 -2.95961 -0.348035 0
M  V30 1853 H 171.981 -1.46226 -0.160106 0
M  V30 1854 H 173.939 -3.06945 -2.82561 0
M  V30 1855 H 172.569 -1.95801 -2.56636 0
M  V30 1856 H 171.621 -3.69939 -0.885947 0
M  V30 1857 H 172.933 -4.79504 -1.37394 0
M  V30 1858 H 172.087 -4.78522 -3.72963 0
M  V30 1859 H 170.826 -3.59803 -3.29231 0
M  V30 1860 H 169.831 -5.23751 -1.67228 0
M  V30 1861 H 171.056 -6.44613 -2.13659 0
M  V30 1862 H 169.002 -5.19817 -4.00158 0
M  V30 1863 H 168.919 -6.79066 -3.32273 0
M  V30 1864 H 170.187 -6.40227 -4.44668 0
M  V30 1865 N 174.416 0.165178 -1.56732 0
M  V30 1866 C 175.641 0.900253 -1.86843 0
M  V30 1867 C 176.066 1.74766 -0.695596 0
M  V30 1868 O 175.424 1.77786 0.35522 0
M  V30 1869 C 175.472 1.74777 -3.15413 0
M  V30 1870 O 174.576 2.85007 -2.98068 0
M  V30 1871 H 173.917 0.251832 -0.614391 0
M  V30 1872 H 176.447 0.161468 -2.03962 0
M  V30 1873 H 176.457 2.14646 -3.46974 0
M  V30 1874 H 175.132 1.12537 -4.00385 0
M  V30 1875 H 173.709 2.48676 -2.77875 0
M  V30 1876 N 175.894 1.51508 0.433938 0
M  V30 1877 C 176.841 1.73068 1.52696 0
M  V30 1878 C 177.811 0.572441 1.55924 0
M  V30 1879 O 178.996 0.807253 1.72882 0
M  V30 1880 C 176.136 1.86474 2.90381 0
M  V30 1881 C 175.249 3.14037 2.96656 0
M  V30 1882 C 174.384 3.18019 4.25485 0
M  V30 1883 C 173.423 4.39882 4.2564 0
M  V30 1884 N 172.56 4.41394 5.45999 0
M  V30 1885 H 177.4 2.66366 1.33615 0
M  V30 1886 H 174.937 1.32008 0.649018 0
M  V30 1887 H 176.895 1.92229 3.70275 0
M  V30 1888 H 175.525 0.965809 3.08013 0
M  V30 1889 H 174.577 3.17575 2.09404 0
M  V30 1890 H 175.889 4.0394 2.92633 0
M  V30 1891 H 175.043 3.22708 5.13755 0
M  V30 1892 H 173.782 2.2601 4.3217 0
M  V30 1893 H 172.787 4.35366 3.35763 0
M  V30 1894 H 174.012 5.33159 4.20617 0
M  V30 1895 H 171.958 3.52258 5.53399 0
M  V30 1896 H 171.875 5.25111 5.4387 0
M  V30 1897 H 173.143 4.50281 6.36292 0
M  V30 1898 N 177.372 -0.689602 1.41712 0
M  V30 1899 C 178.62 -1.4468 1.4111 0
M  V30 1900 C 178.941 -1.94986 0.0232196 0
M  V30 1901 O 178.211 -1.72097 -0.935913 0
M  V30 1902 H 176.791 -0.536847 0.519427 0
M  V30 1903 H 179.453 -0.815825 1.77004 0
M  V30 1904 H 178.549 -2.30706 2.10193 0
M  V30 1905 N 178.85 -1.27639 -0.924453 0
M  V30 1906 C 179.8 -1.07295 -2.01176 0
M  V30 1907 C 180.784 5.77352e-05 -1.609 0
M  V30 1908 O 181.976 -0.218855 -1.75642 0
M  V30 1909 C 179.105 -0.725592 -3.35544 0
M  V30 1910 C 178.191 -1.83691 -3.82254 0
M  V30 1911 N 178.582 -3.07697 -4.01443 0
M  V30 1912 C 176.88 -1.72433 -4.11319 0
M  V30 1913 C 177.581 -3.80037 -4.40394 0
M  V30 1914 N 176.557 -3.0782 -4.48049 0
M  V30 1915 H 180.359 -2.01399 -2.14046 0
M  V30 1916 H 177.873 -1.18401 -1.11153 0
M  V30 1917 H 179.87 -0.560959 -4.13109 0
M  V30 1918 H 178.53 0.207782 -3.24034 0
M  V30 1919 H 179.541 -3.43424 -3.8766 0
M  V30 1920 H 176.218 -0.862005 -4.08504 0
M  V30 1921 H 177.608 -4.86632 -4.63291 0
M  V30 1922 N 180.328 1.1314 -1.09713 0
M  V30 1923 C 181.575 1.84484 -0.834987 0
M  V30 1924 C 181.903 1.83689 0.639418 0
M  V30 1925 O 181.158 1.2724 1.4869 0
M  V30 1926 C 181.457 3.32167 -1.3191 0
M  V30 1927 C 181.123 3.53139 -2.80363 0
M  V30 1928 C 179.785 3.58571 -3.20905 0
M  V30 1929 C 182.137 3.60866 -3.76065 0
M  V30 1930 C 179.465 3.69267 -4.55916 0
M  V30 1931 C 181.817 3.73089 -5.10869 0
M  V30 1932 C 180.481 3.76775 -5.50996 0
M  V30 1933 H 179.751 0.675073 -0.305544 0
M  V30 1934 H 182.398 1.33554 -1.37243 0
M  V30 1935 H 180.703 3.85469 -0.701517 0
M  V30 1936 H 182.4 3.85821 -1.09284 0
M  V30 1937 H 178.99 3.49569 -2.47991 0
M  V30 1938 H 183.174 3.55946 -3.45855 0
M  V30 1939 H 178.43 3.70388 -4.86438 0
M  V30 1940 H 182.604 3.78011 -5.84877 0
M  V30 1941 H 180.231 3.84815 -6.55608 0
M  V30 1942 N 181.806 0.884767 1.30421 0
M  V30 1943 C 182.756 0.322846 2.25703 0
M  V30 1944 C 183.74 -0.548582 1.51259 0
M  V30 1945 O 184.932 -0.39304 1.72581 0
M  V30 1946 C 182.061 -0.461787 3.4018 0
M  V30 1947 C 181.147 0.423717 4.21978 0
M  V30 1948 N 181.538 1.52408 4.82292 0
M  V30 1949 C 179.836 0.218795 4.45463 0
M  V30 1950 C 180.537 2.07136 5.43571 0
M  V30 1951 N 179.513 1.36635 5.26148 0
M  V30 1952 H 183.315 1.16363 2.69883 0
M  V30 1953 H 180.829 0.73415 1.44859 0
M  V30 1954 H 182.826 -0.880985 4.07485 0
M  V30 1955 H 181.486 -1.30001 2.9754 0
M  V30 1956 H 182.497 1.90693 4.81515 0
M  V30 1957 H 179.174 -0.582275 4.1342 0
M  V30 1958 H 180.564 2.99538 6.01437 0
M  V30 1959 N 183.284 -1.43765 0.645699 0
M  V30 1960 C 184.7 -1.56509 0.312591 0
M  V30 1961 C 184.9 -1.6307 -1.18365 0
M  V30 1962 O 183.956 -1.58167 -1.96824 0
M  V30 1963 C 185.269 -2.82968 1.01733 0
M  V30 1964 C 186.817 -2.96701 0.996865 0
M  V30 1965 C 187.292 -4.25982 1.68236 0
M  V30 1966 N 188.783 -4.32829 1.64964 0
M  V30 1967 C 189.518 -5.31613 2.14885 0
M  V30 1968 N 189.014 -6.36718 2.73061 0
M  V30 1969 N 190.807 -5.23217 2.05428 0
M  V30 1970 H 182.958 -1.3775 1.61675 0
M  V30 1971 H 185.221 -0.661067 0.679481 0
M  V30 1972 H 184.927 -2.84156 2.0724 0
M  V30 1973 H 184.801 -3.72957 0.564177 0
M  V30 1974 H 187.188 -2.95058 -0.0497719 0
M  V30 1975 H 187.269 -2.08022 1.48865 0
M  V30 1976 H 186.913 -4.28386 2.72852 0
M  V30 1977 H 186.843 -5.13545 1.16529 0
M  V30 1978 H 189.334 -3.57493 1.22503 0
M  V30 1979 H 189.647 -7.08401 3.08848 0
M  V30 1980 H 187.992 -6.37362 2.77118 0
M  V30 1981 H 191.183 -4.40019 1.59689 0
M  V30 1982 H 191.356 -6.00045 2.44643 0
M  V30 1983 N 184.763 -0.387143 -1.52771 0
M  V30 1984 C 186.009 0.196025 -2.0185 0
M  V30 1985 C 186.342 1.46641 -1.27319 0
M  V30 1986 O 185.617 1.90889 -0.373032 0
M  V30 1987 C 185.9 0.466136 -3.5707 0
M  V30 1988 C 185.753 -0.819385 -4.42274 0
M  V30 1989 C 187.072 1.25768 -4.21747 0
M  V30 1990 H 184.191 0.0697708 -0.73369 0
M  V30 1991 H 186.833 -0.516286 -1.82851 0
M  V30 1992 H 184.983 1.07293 -3.7339 0
M  V30 1993 H 186.655 -1.4563 -4.37709 0
M  V30 1994 H 184.898 -1.43517 -4.09372 0
M  V30 1995 H 185.569 -0.585065 -5.48891 0
M  V30 1996 H 188.045 0.744167 -4.09391 0
M  V30 1997 H 186.921 1.41541 -5.30337 0
M  V30 1998 H 187.182 2.27228 -3.79236 0
M  V30 1999 N 186.241 1.57166 -0.116904 0
M  V30 2000 C 187.487 1.95412 0.542405 0
M  V30 2001 C 187.82 1.00019 1.66463 0
M  V30 2002 O 187.095 0.0370346 1.94465 0
M  V30 2003 C 187.378 3.43615 1.07708 0
M  V30 2004 C 187.231 4.49781 -0.0415868 0
M  V30 2005 C 188.55 3.93616 1.96861 0
M  V30 2006 H 185.669 0.710543 0.195696 0
M  V30 2007 H 188.311 1.89027 -0.192038 0
M  V30 2008 H 186.461 3.49187 1.70296 0
M  V30 2009 H 188.133 4.56308 -0.676793 0
M  V30 2010 H 186.376 4.28033 -0.705019 0
M  V30 2011 H 187.047 5.50733 0.373717 0
M  V30 2012 H 189.523 3.90335 1.44146 0
M  V30 2013 H 188.399 4.97838 2.3119 0
M  V30 2014 H 188.66 3.34188 2.89432 0
M  V30 2015 N 187.719 -0.156864 1.56817 0
M  V30 2016 C 188.968 -0.869504 1.81996 0
M  V30 2017 C 189.281 -1.82777 0.696545 0
M  V30 2018 O 190.487 -2.58384 0.833658 0
M  V30 2019 C 188.943 -1.59679 3.22538 0
M  V30 2020 C 188.551 -0.681431 4.42787 0
M  V30 2021 C 190.295 -2.2968 3.56997 0
M  V30 2022 C 188.202 -1.40978 5.74351 0
M  V30 2023 H 187.132 -0.328438 0.678708 0
M  V30 2024 H 189.783 -0.1223 1.83092 0
M  V30 2025 H 188.165 -2.38927 3.158 0
M  V30 2026 H 189.339 0.0751166 4.60739 0
M  V30 2027 H 187.654 -0.0903431 4.16302 0
M  V30 2028 H 190.251 -2.84794 4.52544 0
M  V30 2029 H 190.594 -3.05707 2.82576 0
M  V30 2030 H 191.127 -1.57361 3.65352 0
M  V30 2031 H 187.866 -0.691561 6.51842 0
M  V30 2032 H 187.386 -2.13929 5.60352 0
M  V30 2033 H 189.065 -1.95337 6.16808 0
M  V30 2034 N 189.197 -1.51736 -0.425897 0
M  V30 2035 C 190.147 -1.70258 -1.51645 0
M  V30 2036 C 191.131 -0.556488 -1.5097 0
M  V30 2037 O 192.323 -0.812879 -1.5723 0
M  V30 2038 C 189.452 -1.84143 -2.89735 0
M  V30 2039 C 188.538 -3.04572 -2.95122 0
M  V30 2040 N 188.929 -4.2756 -2.70233 0
M  V30 2041 C 187.227 -3.04061 -3.26286 0
M  V30 2042 C 187.928 -5.08908 -2.81757 0
M  V30 2043 N 186.904 -4.43797 -3.13919 0
M  V30 2044 H 190.706 -2.63004 -1.31172 0
M  V30 2045 H 188.22 -1.4954 -0.633375 0
M  V30 2046 H 190.217 -1.95525 -3.68206 0
M  V30 2047 H 188.877 -0.925857 -3.1122 0
M  V30 2048 H 189.888 -4.56315 -2.44943 0
M  V30 2049 H 186.565 -2.22179 -3.53473 0
M  V30 2050 H 187.955 -6.16843 -2.66372 0
M  V30 2051 N 190.675 0.682077 -1.42076 0
M  V30 2052 C 191.625 1.78823 -1.41444 0
M  V30 2053 C 192.609 1.58323 -0.28681 0
M  V30 2054 O 193.801 1.68926 -0.528498 0
M  V30 2055 C 190.93 3.17232 -1.3122 0
M  V30 2056 C 190.016 3.4338 -2.489 0
M  V30 2057 N 190.407 3.40152 -3.7434 0
M  V30 2058 C 188.705 3.73986 -2.43003 0
M  V30 2059 C 189.406 3.65581 -4.52466 0
M  V30 2060 N 188.382 3.85989 -3.8277 0
M  V30 2061 H 192.184 1.7471 -2.36334 0
M  V30 2062 H 189.698 0.882622 -1.36321 0
M  V30 2063 H 191.695 3.96489 -1.2885 0
M  V30 2064 H 190.355 3.22547 -0.373263 0
M  V30 2065 H 191.366 3.20221 -4.07037 0
M  V30 2066 H 188.043 3.86591 -1.57651 0
M  V30 2067 H 189.433 3.69108 -5.61435 0
M  V30 2068 N 192.153 1.28127 0.917671 0
M  V30 2069 C 193.1 1.11717 2.0196 0
M  V30 2070 C 194.07 0.0153929 1.66093 0
M  V30 2071 O 195.255 0.179596 1.89953 0
M  V30 2072 C 192.395 0.780927 3.36148 0
M  V30 2073 C 191.508 1.96135 3.84909 0
M  V30 2074 C 190.643 1.56609 5.0759 0
M  V30 2075 C 189.682 2.71339 5.48673 0
M  V30 2076 N 188.819 2.32332 6.62545 0
M  V30 2077 H 193.659 2.06003 2.15329 0
M  V30 2078 H 191.196 1.02535 1.05475 0
M  V30 2079 H 193.154 0.56675 4.13333 0
M  V30 2080 H 191.784 -0.124998 3.22558 0
M  V30 2081 H 190.836 2.28777 3.03916 0
M  V30 2082 H 192.148 2.82165 4.1132 0
M  V30 2083 H 191.302 1.31374 5.92305 0
M  V30 2084 H 190.041 0.677014 4.82978 0
M  V30 2085 H 189.046 2.97276 4.62501 0
M  V30 2086 H 190.271 3.60882 5.75274 0
M  V30 2087 H 188.217 1.45889 6.39572 0
M  V30 2088 H 188.134 3.11899 6.88662 0
M  V30 2089 H 189.402 2.10371 7.50576 0
M  V30 2090 N 193.631 -1.12557 1.10312 0
M  V30 2091 C 194.879 -1.83675 0.843091 0
M  V30 2092 C 195.2 -1.84435 -0.633131 0
M  V30 2093 O 194.47 -1.30657 -1.45964 0
M  V30 2094 H 193.05 -0.680138 0.308904 0
M  V30 2095 H 195.712 -1.36301 1.39313 0
M  V30 2096 H 194.808 -2.87908 1.2048 0
M  V30 2097 N 195.109 -0.891671 -1.2995 0
M  V30 2098 C 196.357 -0.512486 -1.95494 0
M  V30 2099 C 196.678 0.942776 -1.70695 0
M  V30 2100 O 195.948 1.66374 -1.03424 0
M  V30 2101 H 194.528 -0.186533 -0.723336 0
M  V30 2102 H 197.19 -1.13621 -1.58355 0
M  V30 2103 H 196.286 -0.688342 -3.04415 0
M  V30 2104 N 196.587 1.43421 -0.653314 0
M  V30 2105 C 197.534 2.30768 0.0382271 0
M  V30 2106 C 198.504 1.44755 0.814576 0
M  V30 2107 O 199.689 1.73624 0.791162 0
M  V30 2108 C 196.829 3.30336 0.998599 0
M  V30 2109 C 195.942 4.31448 0.218342 0
M  V30 2110 C 195.077 5.18098 1.17252 0
M  V30 2111 C 194.116 6.10902 0.382702 0
M  V30 2112 N 193.253 6.90176 1.28848 0
M  V30 2113 H 198.093 2.89357 -0.712511 0
M  V30 2114 H 195.63 1.42548 -0.363128 0
M  V30 2115 H 197.588 3.86572 1.56901 0
M  V30 2116 H 196.218 2.73397 1.71621 0
M  V30 2117 H 195.27 3.77506 -0.46836 0
M  V30 2118 H 196.582 4.97227 -0.395812 0
M  V30 2119 H 195.736 5.7896 1.81356 0
M  V30 2120 H 194.475 4.52444 1.82058 0
M  V30 2121 H 193.48 5.49128 -0.27169 0
M  V30 2122 H 194.705 6.78598 -0.260957 0
M  V30 2123 H 192.651 6.27171 1.92334 0
M  V30 2124 H 192.568 7.52478 0.728887 0
M  V30 2125 H 193.836 7.55543 1.91766 0
M  V30 2126 N 198.065 0.39524 1.52563 0
M  V30 2127 C 199.028 -0.425001 2.25225 0
M  V30 2128 C 200.028 -0.985266 1.27079 0
M  V30 2129 O 201.218 -0.866332 1.5113 0
M  V30 2130 C 198.35 -1.59686 3.01186 0
M  V30 2131 H 199.543 0.211233 2.99155 0
M  V30 2132 H 197.096 0.147472 1.55603 0
M  V30 2133 H 197.831 -2.27035 2.31572 0
M  V30 2134 H 197.616 -1.20176 3.73229 0
M  V30 2135 H 199.106 -2.17743 3.5634 0
M  V30 2136 N 199.544 -1.57102 0.125237 0
M  V30 2137 C 200.494 -2.12202 -0.833936 0
M  V30 2138 C 201.478 -1.04433 -1.22403 0
M  V30 2139 O 202.67 -1.30655 -1.19408 0
M  V30 2140 C 199.799 -2.72994 -2.08157 0
M  V30 2141 C 198.885 -3.87852 -1.71556 0
M  V30 2142 N 199.276 -4.9464 -1.05662 0
M  V30 2143 C 197.574 -3.98153 -2.00973 0
M  V30 2144 C 198.275 -5.74953 -0.883376 0
M  V30 2145 N 197.251 -5.24985 -1.41036 0
M  V30 2146 H 201.053 -2.92141 -0.321035 0
M  V30 2147 H 198.567 -1.62217 -0.0770315 0
M  V30 2148 H 200.564 -3.10816 -2.77847 0
M  V30 2149 H 199.224 -1.9452 -2.59985 0
M  V30 2150 H 200.235 -5.12872 -0.719878 0
M  V30 2151 H 196.912 -3.30728 -2.54804 0
M  V30 2152 H 198.302 -6.70904 -0.365675 0
M  V30 2153 N 201.022 0.148545 -1.56898 0
M  V30 2154 C 202.438 0.501131 -1.51528 0
M  V30 2155 C 202.638 1.83458 -0.833399 0
M  V30 2156 O 201.694 2.49259 -0.40328 0
M  V30 2157 C 203.007 0.512864 -2.96294 0
M  V30 2158 C 204.555 0.598487 -3.07225 0
M  V30 2159 C 205.03 0.640897 -4.53494 0
M  V30 2160 N 206.521 0.703163 -4.57832 0
M  V30 2161 C 207.256 0.756935 -5.68382 0
M  V30 2162 N 206.752 0.770147 -6.88506 0
M  V30 2163 N 208.545 0.797698 -5.56411 0
M  V30 2164 H 200.696 -0.725532 -1.99624 0
M  V30 2165 H 202.959 -0.264358 -0.910395 0
M  V30 2166 H 202.665 -0.398691 -3.49433 0
M  V30 2167 H 202.539 1.35133 -3.52163 0
M  V30 2168 H 204.926 1.50046 -2.54106 0
M  V30 2169 H 205.007 -0.267093 -2.54402 0
M  V30 2170 H 204.651 -0.256915 -5.0725 0
M  V30 2171 H 204.581 1.52295 -5.04097 0
M  V30 2172 H 207.072 0.700314 -3.71354 0
M  V30 2173 H 207.385 0.812983 -7.68512 0
M  V30 2174 H 205.73 0.738049 -6.9107 0
M  V30 2175 H 208.921 0.784535 -4.61479 0
M  V30 2176 H 209.094 0.83614 -6.42583 0
M  V30 2177 N 202.5 1.5196 0.417844 0
M  V30 2178 C 203.748 1.65263 1.16329 0
M  V30 2179 C 204.069 0.380634 1.91249 0
M  V30 2180 O 203.339 -0.604214 1.86349 0
M  V30 2181 H 201.919 0.60912 0.432414 0
M  V30 2182 H 204.581 1.88969 0.477162 0
M  V30 2183 H 203.677 2.4896 1.88217 0
M  V30 2184 N 203.978 -0.674533 1.42435 0
M  V30 2185 C 205.206 -1.46283 1.46317 0
M  V30 2186 C 205.621 -1.88653 0.0745836 0
M  V30 2187 O 204.978 -1.58151 -0.91074 0
M  V30 2188 C 205.029 -2.71178 2.3905 0
M  V30 2189 O 204.75 -2.30586 3.72507 0
M  V30 2190 C 206.251 -3.64738 2.51955 0
M  V30 2191 H 203.471 -0.450104 0.497642 0
M  V30 2192 H 206.015 -0.828792 1.86953 0
M  V30 2193 H 204.17 -3.3077 2.01667 0
M  V30 2194 H 204.584 -3.11241 4.22172 0
M  V30 2195 H 206.058 -4.49096 3.20962 0
M  V30 2196 H 206.535 -4.10656 1.55752 0
M  V30 2197 H 207.141 -3.11038 2.90061 0
M  V30 2198 N 205.456 -1.28612 -0.910864 0
M  V30 2199 C 206.388 -1.08589 -2.01844 0
M  V30 2200 C 207.401 -0.0367419 -1.62759 0
M  V30 2201 O 208.59 -0.280101 -1.76289 0
M  V30 2202 C 205.69 -0.628626 -3.33019 0
M  V30 2203 C 204.863 -1.75382 -4.00699 0
M  V30 2204 C 203.922 -1.28945 -5.10156 0
M  V30 2205 O 202.948 -1.9922 -5.33198 0
M  V30 2206 N 204.15 -0.154224 -5.80295 0
M  V30 2207 H 206.915 -2.03973 -2.19579 0
M  V30 2208 H 204.476 -1.20403 -1.08234 0
M  V30 2209 H 206.468 -0.301508 -4.03575 0
M  V30 2210 H 205.038 0.232451 -3.11735 0
M  V30 2211 H 204.258 -2.25039 -3.23653 0
M  V30 2212 H 205.546 -2.50854 -4.42662 0
M  V30 2213 H 204.944 0.43194 -5.64049 0
M  V30 2214 H 203.501 0.113599 -6.51701 0
M  V30 2215 N 206.934 1.1197 -1.10907 0
M  V30 2216 C 207.882 2.19927 -0.757303 0
M  V30 2217 C 208.876 1.67564 0.248747 0
M  V30 2218 O 210.082 1.79672 0.108605 0
M  V30 2219 H 206.457 0.716925 -0.226987 0
M  V30 2220 H 208.428 2.46847 -1.67658 0
M  V30 2221 C 207.177 3.47061 -0.210671 0
M  V30 2222 H 206.5 3.87703 -0.976049 0
M  V30 2223 H 207.94 4.24 -0.0026584 0
M  V30 2224 C 206.399 3.19864 1.05777 0
M  V30 2225 O 206.929 3.40049 2.13845 0
M  V30 2226 N 205.135 2.73636 0.978349 0
M  V30 2227 H 204.682 2.5741 0.0988246 0
M  V30 2228 H 204.64 2.55815 1.82773 0
M  V30 2229 N 208.412 0.89855 1.29475 0
M  V30 2230 C 209.823 0.572537 1.77705 0
M  V30 2231 C 210.174 -0.911778 1.73727 0
M  V30 2232 O 209.299 -1.71288 1.32247 0
M  V30 2233 C 209.894 1.03252 3.22683 0
M  V30 2234 C 208.453 0.757687 3.68695 0
M  V30 2235 C 207.6 1.20787 2.49612 0
M  V30 2236 H 210.551 1.08139 1.16153 0
M  V30 2237 H 210.572 0.367307 3.78723 0
M  V30 2238 H 210.084 2.11285 3.25546 0
M  V30 2239 H 208.185 -0.310079 3.71308 0
M  V30 2240 H 208.298 1.35476 4.59547 0
M  V30 2241 H 206.662 0.626888 2.46865 0
M  V30 2242 H 207.445 2.29622 2.55203 0
M  V30 2243 N 209.89 -1.43072 0.660911 0
M  V30 2244 C 211.115 -2.06584 0.183805 0
M  V30 2245 C 211.54 -1.49257 -1.14472 0
M  V30 2246 O 210.898 -0.605528 -1.70889 0
M  V30 2247 C 210.946 -3.60418 0.114434 0
M  V30 2248 O 210.05 -4.01981 -0.921137 0
M  V30 2249 H 209.391 -0.656669 0.0983994 0
M  V30 2250 H 211.921 -1.83447 0.906006 0
M  V30 2251 H 211.931 -4.07946 -0.0663394 0
M  V30 2252 H 210.606 -4.01519 1.08422 0
M  V30 2253 H 209.183 -3.66029 -0.71253 0
M  V30 2254 N 211.368 -0.403325 -1.52352 0
M  V30 2255 C 212.3 0.4603 -2.2453 0
M  V30 2256 C 213.313 1.01505 -1.27282 0
M  V30 2257 O 214.502 0.914982 -1.53266 0
M  V30 2258 C 211.602 1.65208 -2.95905 0
M  V30 2259 C 210.775 1.22224 -4.19976 0
M  V30 2260 C 209.834 2.28028 -4.74226 0
M  V30 2261 O 208.86 1.88857 -5.36956 0
M  V30 2262 N 210.062 3.6012 -4.55295 0
M  V30 2263 H 212.827 -0.158156 -2.99282 0
M  V30 2264 H 210.388 -0.230402 -1.60252 0
M  V30 2265 H 212.38 2.35541 -3.29093 0
M  V30 2266 H 210.95 2.17658 -2.24374 0
M  V30 2267 H 210.17 0.34725 -3.92668 0
M  V30 2268 H 211.458 0.911924 -5.00561 0
M  V30 2269 H 210.856 3.94698 -4.05253 0
M  V30 2270 H 209.413 4.26447 -4.92936 0
M  V30 2271 N 212.846 1.57033 -0.133567 0
M  V30 2272 C 214.123 1.87256 0.56522 0
M  V30 2273 C 214.503 1.03726 1.83859 0
M  V30 2274 O 213.851 0.120247 2.28183 0
M  V30 2275 C 214.061 3.3865 0.843636 0
M  V30 2276 C 215.409 4.07574 1.19032 0
M  V30 2277 O 216.433 3.43752 0.933429 0
M  V30 2278 O 215.292 5.20259 1.67312 0
M  V30 2279 H 212.386 0.775678 0.286796 0
M  V30 2280 H 214.932 1.68855 -0.169168 0
M  V30 2281 H 213.704 3.91257 -0.0581149 0
M  V30 2282 H 213.327 3.62532 1.63268 0
M  V30 2283 N 214.325 -0.140222 1.56975 0
M  V30 2284 C 215.257 -1.19818 1.95388 0
M  V30 2285 C 216.27 -1.38816 0.850525 0
M  V30 2286 O 217.459 -1.38267 1.12891 0
M  V30 2287 C 214.559 -2.56189 2.21857 0
M  V30 2288 C 213.732 -2.58077 3.5315 0
M  V30 2289 C 212.791 -3.76037 3.6808 0
M  V30 2290 O 211.817 -3.60598 4.40406 0
M  V30 2291 N 213.019 -4.93763 3.05251 0
M  V30 2292 H 215.784 -0.871609 2.86746 0
M  V30 2293 H 213.345 -0.32972 1.58507 0
M  V30 2294 H 215.337 -3.33623 2.2908 0
M  V30 2295 H 213.907 -2.81111 1.36731 0
M  V30 2296 H 213.127 -1.6651 3.57307 0
M  V30 2297 H 214.415 -2.56377 4.39486 0
M  V30 2298 H 213.813 -5.09209 2.46419 0
M  V30 2299 H 212.37 -5.68949 3.18026 0
M  V30 2300 N 215.803 -1.52179 -0.40978 0
M  V30 2301 C 217.051 -1.65878 -1.15451 0
M  V30 2302 C 217.372 -0.390771 -1.91044 0
M  V30 2303 O 216.642 0.594323 -1.86667 0
M  V30 2304 H 215.222 -0.611405 -0.429177 0
M  V30 2305 H 217.884 -1.89219 -0.467134 0
M  V30 2306 H 216.98 -2.49954 -1.86894 0
M  V30 2307 N 217.281 0.66697 -1.42791 0
M  V30 2308 C 218.229 1.80157 -1.47127 0
M  V30 2309 C 219.223 1.65825 -0.346199 0
M  V30 2310 O 220.429 1.72338 -0.519572 0
M  V30 2311 H 216.804 0.594158 -0.460956 0
M  V30 2312 H 218.775 1.73619 -2.42692 0
M  V30 2313 C 217.524 3.18351 -1.39813 0
M  V30 2314 H 216.847 3.3001 -2.25684 0
M  V30 2315 H 218.287 3.97736 -1.46908 0
M  V30 2316 C 216.746 3.36707 -0.11391 0
M  V30 2317 O 217.276 3.93027 0.830241 0
M  V30 2318 N 215.482 2.90586 -0.0285295 0
M  V30 2319 H 215.029 2.4494 -0.79764 0
M  V30 2320 H 214.987 3.03245 0.830063 0
M  V30 2321 N 218.759 1.29093 0.90403 0
M  V30 2322 C 219.984 1.19809 1.69294 0
M  V30 2323 C 220.409 -0.238481 1.86582 0
M  V30 2324 O 219.767 -1.1723 1.383 0
M  V30 2325 C 219.815 1.91202 3.05736 0
M  V30 2326 O 218.919 1.22611 3.93752 0
M  V30 2327 H 218.26 0.415385 0.518027 0
M  V30 2328 H 220.79 1.70586 1.12967 0
M  V30 2329 H 220.8 1.99487 3.55906 0
M  V30 2330 H 219.475 2.95692 2.92471 0
M  V30 2331 H 218.052 1.22554 3.52186 0
M  V30 2332 N 220.237 -1.11381 1.11499 0
M  V30 2333 C 221.648 -1.6465 0.880191 0
M  V30 2334 C 221.999 -1.87199 -0.587434 0
M  V30 2335 O 221.124 -1.60667 -1.44966 0
M  V30 2336 C 221.719 -2.99105 1.59128 0
M  V30 2337 C 220.278 -3.49279 1.40289 0
M  V30 2338 C 219.425 -2.24077 1.63354 0
M  V30 2339 H 222.376 -0.950123 1.27116 0
M  V30 2340 H 222.397 -3.66107 1.03664 0
M  V30 2341 H 221.909 -2.82661 2.65941 0
M  V30 2342 H 220.01 -3.70887 0.356888 0
M  V30 2343 H 220.123 -4.2803 2.15238 0
M  V30 2344 H 218.487 -2.31733 1.05698 0
M  V30 2345 H 219.27 -2.10175 2.71443 0
M  V30 2346 N 221.715 -0.905404 -1.28997 0
M  V30 2347 C 222.94 -0.549175 -1.99997 0
M  V30 2348 C 223.365 0.860276 -1.67275 0
M  V30 2349 O 222.723 1.57355 -0.900502 0
M  V30 2350 C 222.771 -0.755185 -3.52604 0
M  V30 2351 O 221.875 0.189692 -4.11964 0
M  V30 2352 H 221.216 -0.213899 -0.628604 0
M  V30 2353 H 223.746 -1.21856 -1.64354 0
M  V30 2354 H 223.756 -0.662045 -4.02593 0
M  V30 2355 H 222.431 -1.78271 -3.75755 0
M  V30 2356 H 221.008 0.0485257 -3.72868 0
M  V30 2357 N 223.193 1.4272 -0.668489 0
M  V30 2358 C 224.441 2.01226 -0.187769 0
M  V30 2359 C 224.762 1.53092 1.2078 0
M  V30 2360 O 224.032 0.74993 1.80977 0
M  V30 2361 H 222.612 0.744041 -0.0664272 0
M  V30 2362 H 225.274 1.74723 -0.863583 0
M  V30 2363 H 224.37 3.11556 -0.184166 0
M  V30 2364 N 224.671 0.411399 1.52136 0
M  V30 2365 C 225.618 -0.412975 2.27075 0
M  V30 2366 C 226.588 -1.03912 1.29582 0
M  V30 2367 O 227.773 -1.06296 1.58448 0
M  V30 2368 C 224.913 -1.52247 3.09701 0
M  V30 2369 C 224.026 -0.917021 4.22155 0
M  V30 2370 C 223.161 -1.9994 4.92135 0
M  V30 2371 C 222.2 -1.37101 5.96548 0
M  V30 2372 N 221.337 -2.39364 6.60038 0
M  V30 2373 H 226.177 0.232499 2.97092 0
M  V30 2374 H 223.714 0.126496 1.46555 0
M  V30 2375 H 225.672 -2.17674 3.55913 0
M  V30 2376 H 224.302 -2.13794 2.41851 0
M  V30 2377 H 223.354 -0.151742 3.80097 0
M  V30 2378 H 224.666 -0.418006 4.97045 0
M  V30 2379 H 223.82 -2.73088 5.41763 0
M  V30 2380 H 222.559 -2.53208 4.16818 0
M  V30 2381 H 221.564 -0.624873 5.46237 0
M  V30 2382 H 222.789 -0.845998 6.7381 0
M  V30 2383 H 220.735 -2.91759 5.87548 0
M  V30 2384 H 220.652 -1.9428 7.3061 0
M  V30 2385 H 221.92 -3.12074 7.14304 0
M  V30 2386 N 226.149 -1.5696 0.141893 0
M  V30 2387 C 227.397 -1.95573 -0.509484 0
M  V30 2388 C 227.718 -1.02746 -1.65736 0
M  V30 2389 O 226.988 -0.0880311 -1.95702 0
M  V30 2390 H 225.568 -0.722115 -0.191205 0
M  V30 2391 H 228.23 -1.93697 0.216196 0
M  V30 2392 H 227.326 -2.99171 -0.889 0
M  V30 2393 N 227.627 0.131896 -1.57047 0
M  V30 2394 C 228.876 0.84044 -1.83356 0
M  V30 2395 C 229.189 1.81646 -0.725535 0
M  V30 2396 O 230.395 2.57025 -0.874659 0
M  V30 2397 C 228.851 1.54528 -3.25037 0
M  V30 2398 C 228.459 0.610902 -4.43815 0
M  V30 2399 C 230.203 2.23972 -3.60606 0
M  V30 2400 C 228.11 1.31823 -5.76521 0
M  V30 2401 H 227.04 0.317599 -0.683847 0
M  V30 2402 H 229.691 0.0931561 -1.83263 0
M  V30 2403 H 228.073 2.33873 -3.19561 0
M  V30 2404 H 229.247 -0.148407 -4.60561 0
M  V30 2405 H 227.562 0.0241016 -4.16393 0
M  V30 2406 H 230.159 2.77558 -4.57018 0
M  V30 2407 H 230.502 3.01173 -2.87403 0
M  V30 2408 H 231.035 1.51529 -3.6781 0
M  V30 2409 H 227.774 0.587771 -6.52859 0
M  V30 2410 H 227.294 2.04987 -5.63685 0
M  V30 2411 H 228.973 1.855 -6.19838 0
M  V30 2412 N 229.106 1.52395 0.401703 0
M  V30 2413 C 230.331 1.70972 1.17403 0
M  V30 2414 C 230.756 0.421615 1.83314 0
M  V30 2415 O 230.114 -0.621564 1.70312 0
M  V30 2416 C 230.162 2.85151 2.20728 0
M  V30 2417 O 229.266 2.51238 3.27037 0
M  V30 2418 H 228.607 0.568927 0.342372 0
M  V30 2419 H 231.137 1.99131 0.469891 0
M  V30 2420 H 231.147 3.10279 2.64936 0
M  V30 2421 H 229.822 3.78603 1.7214 0
M  V30 2422 H 228.399 2.36808 2.88057 0
M  V30 2423 N 230.584 -0.659388 1.43143 0
M  V30 2424 C 231.809 -1.45221 1.48073 0
M  V30 2425 C 232.234 -1.87845 0.097995 0
M  V30 2426 O 231.592 -1.56985 -0.90694 0
M  V30 2427 C 231.64 -2.66748 2.42647 0
M  V30 2428 O 230.744 -3.65583 1.90848 0
M  V30 2429 H 230.085 -0.435669 0.501088 0
M  V30 2430 H 232.615 -0.807432 1.87994 0
M  V30 2431 H 232.625 -3.14637 2.59745 0
M  V30 2432 H 231.3 -2.35067 3.43098 0
M  V30 2433 H 229.877 -3.24693 1.83381 0
M  V30 2434 N 232.062 -1.29571 -0.897171 0
M  V30 2435 C 232.994 -1.10724 -2.00681 0
M  V30 2436 C 234.007 -0.0540026 -1.6271 0
M  V30 2437 O 235.196 -0.298783 -1.75982 0
M  V30 2438 C 232.296 -0.663912 -3.32333 0
M  V30 2439 C 231.469 -1.79622 -3.98816 0
M  V30 2440 C 230.528 -1.34349 -5.0876 0
M  V30 2441 O 229.554 -2.04864 -5.31055 0
M  V30 2442 N 230.756 -0.215764 -5.80099 0
M  V30 2443 H 233.521 -2.06291 -2.17403 0
M  V30 2444 H 231.082 -1.21544 -1.06951 0
M  V30 2445 H 233.074 -0.344295 -4.03233 0
M  V30 2446 H 231.644 0.199375 -3.11964 0
M  V30 2447 H 230.864 -2.28459 -3.21248 0
M  V30 2448 H 232.152 -2.55535 -4.39976 0
M  V30 2449 H 231.55 0.372091 -5.64475 0
M  V30 2450 H 230.107 0.0444707 -6.51785 0
M  V30 2451 N 233.54 1.10788 -1.12088 0
M  V30 2452 C 234.77 1.86191 -0.895351 0
M  V30 2453 C 235.178 1.80763 0.558702 0
M  V30 2454 O 234.521 1.19188 1.39785 0
M  V30 2455 C 234.583 3.35659 -1.28737 0
M  V30 2456 C 234.247 3.64849 -2.75198 0
M  V30 2457 C 235.244 3.61757 -3.734 0
M  V30 2458 C 232.929 3.93641 -3.12013 0
M  V30 2459 C 234.923 3.87045 -5.06434 0
M  V30 2460 C 232.61 4.18585 -4.4523 0
M  V30 2461 C 233.608 4.15277 -5.42249 0
M  V30 2462 O 233.296 4.3959 -6.73065 0
M  V30 2463 H 233.028 0.595425 -0.32007 0
M  V30 2464 H 235.582 1.40992 -1.49367 0
M  V30 2465 H 233.812 3.81497 -0.63224 0
M  V30 2466 H 235.501 3.92441 -1.03656 0
M  V30 2467 H 236.267 3.39557 -3.46303 0
M  V30 2468 H 232.146 3.95348 -2.37109 0
M  V30 2469 H 235.69 3.84378 -5.82151 0
M  V30 2470 H 231.587 4.40264 -4.72057 0
M  V30 2471 H 232.355 4.57123 -6.78956 0
M  V30 2472 N 235.018 0.912232 1.28515 0
M  V30 2473 C 236.243 0.559774 1.99703 0
M  V30 2474 C 236.668 -0.851393 1.67729 0
M  V30 2475 O 236.026 -1.56875 0.908834 0
M  V30 2476 C 236.074 0.773874 3.52198 0
M  V30 2477 O 235.178 -0.167842 4.12058 0
M  V30 2478 H 234.519 0.21723 0.627461 0
M  V30 2479 H 237.049 1.22725 1.63706 0
M  V30 2480 H 237.059 0.683386 4.02236 0
M  V30 2481 H 235.734 1.80261 3.74805 0
M  V30 2482 H 234.311 -0.0287509 3.72889 0
M  V30 2483 N 236.496 -1.42363 0.676048 0
M  V30 2484 C 237.444 -2.32596 -0.0131507 0
M  V30 2485 C 238.438 -1.49891 -0.789238 0
M  V30 2486 O 239.644 -1.65955 -0.697061 0
M  V30 2487 H 236.019 -0.751647 -0.0230481 0
M  V30 2488 H 237.99 -2.88421 0.765243 0
M  V30 2489 C 236.739 -3.34479 -0.949702 0
M  V30 2490 H 236.062 -3.98158 -0.361938 0
M  V30 2491 H 237.502 -4.00199 -1.4006 0
M  V30 2492 C 235.961 -2.66838 -2.05667 0
M  V30 2493 O 236.491 -2.50124 -3.14326 0
M  V30 2494 N 234.697 -2.25843 -1.82875 0
M  V30 2495 H 234.244 -2.39637 -0.945085 0
M  V30 2496 H 234.202 -1.80918 -2.5713 0
M  V30 2497 N 237.974 -0.419461 -1.51915 0
M  V30 2498 C 239.202 0.152136 -2.0634 0
M  V30 2499 C 239.617 1.37988 -1.28859 0
M  V30 2500 O 238.974 1.79243 -0.343232 0
M  V30 2501 C 239.025 0.492266 -3.58133 0
M  V30 2502 O 238.746 -0.686736 -4.32684 0
M  V30 2503 C 240.247 1.11648 -4.2901 0
M  V30 2504 H 237.467 0.0158325 -0.670813 0
M  V30 2505 H 240.011 -0.593394 -1.95702 0
M  V30 2506 H 238.166 1.18769 -3.68745 0
M  V30 2507 H 238.58 -0.400341 -5.2297 0
M  V30 2508 H 240.054 1.3046 -5.36362 0
M  V30 2509 H 240.531 2.09251 -3.86148 0
M  V30 2510 H 241.137 0.460958 -4.22795 0
M  V30 2511 N 239.452 1.56882 -0.150215 0
M  V30 2512 C 240.362 2.20494 0.801222 0
M  V30 2513 C 241.378 1.19019 1.26927 0
M  V30 2514 O 242.554 1.51607 1.32579 0
M  V30 2515 C 239.619 2.81659 2.02161 0
M  V30 2516 C 238.68 3.9827 1.60249 0
M  V30 2517 C 237.913 4.56508 2.7647 0
M  V30 2518 O 238.136 4.13627 3.92771 0
M  V30 2519 O 237.07 5.46719 2.51757 0
M  V30 2520 H 240.896 3.02315 0.289717 0
M  V30 2521 H 238.481 1.49202 0.0769684 0
M  V30 2522 H 240.363 3.20522 2.73576 0
M  V30 2523 H 239.038 2.02849 2.52258 0
M  V30 2524 H 237.945 3.64117 0.858477 0
M  V30 2525 H 239.278 4.78609 1.14864 0
M  V30 2526 N 240.93 -0.123565 1.57115 0
M  V30 2527 C 241.84 -1.17074 2.033 0
M  V30 2528 C 242.856 -1.4561 0.952559 0
M  V30 2529 O 244.032 -1.56817 1.26374 0
M  V30 2530 C 241.097 -2.47857 2.42421 0
M  V30 2531 C 240.158 -2.26758 3.64526 0
M  V30 2532 C 239.391 -3.51305 4.01771 0
M  V30 2533 O 239.614 -4.5843 3.39409 0
M  V30 2534 O 238.548 -3.42578 4.94898 0
M  V30 2535 H 242.374 -0.808555 2.92739 0
M  V30 2536 H 239.959 -0.334027 1.45618 0
M  V30 2537 H 241.841 -3.2492 2.68338 0
M  V30 2538 H 240.516 -2.83558 1.5613 0
M  V30 2539 H 239.423 -1.47569 3.43765 0
M  V30 2540 H 240.756 -1.95963 4.51508 0
M  V30 2541 N 242.408 -1.52605 -0.393616 0
M  V30 2542 C 243.824 -1.41753 -0.733357 0
M  V30 2543 C 244.024 -0.534293 -1.94287 0
M  V30 2544 O 243.08 -0.0059787 -2.52499 0
M  V30 2545 C 244.393 -2.84531 -0.972772 0
M  V30 2546 C 245.941 -2.93978 -1.07453 0
M  V30 2547 C 246.416 -4.37756 -1.3466 0
M  V30 2548 N 247.907 -4.4106 -1.41492 0
M  V30 2549 C 248.642 -5.49387 -1.642 0
M  V30 2550 N 248.138 -6.67806 -1.8441 0
M  V30 2551 N 249.931 -5.36923 -1.66342 0
M  V30 2552 H 242.082 -2.08555 0.402328 0
M  V30 2553 H 244.345 -0.940654 0.117789 0
M  V30 2554 H 244.051 -3.51353 -0.156204 0
M  V30 2555 H 243.925 -3.26508 -1.88871 0
M  V30 2556 H 246.312 -2.27326 -1.88167 0
M  V30 2557 H 246.393 -2.55435 -0.136605 0
M  V30 2558 H 246.037 -5.04972 -0.544581 0
M  V30 2559 H 245.967 -4.73848 -2.2973 0
M  V30 2560 H 248.458 -3.55705 -1.27601 0
M  V30 2561 H 248.771 -7.46141 -2.01231 0
M  V30 2562 H 247.116 -6.70843 -1.81644 0
M  V30 2563 H 250.307 -4.43381 -1.50102 0
M  V30 2564 H 250.48 -6.21416 -1.837 0
M  V30 2565 N 243.887 0.651787 -1.4349 0
M  V30 2566 C 244.817 1.77621 -1.51569 0
M  V30 2567 C 245.798 1.66022 -0.370253 0
M  V30 2568 O 246.983 1.85095 -0.587658 0
M  V30 2569 C 244.113 3.16056 -1.43966 0
M  V30 2570 C 243.067 3.4242 -2.56774 0
M  V30 2571 C 242.393 4.8067 -2.34223 0
M  V30 2572 C 243.693 3.37023 -3.99015 0
M  V30 2573 H 245.387 1.71117 -2.45681 0
M  V30 2574 H 242.933 0.821825 -1.18246 0
M  V30 2575 H 244.886 3.94472 -1.48221 0
M  V30 2576 H 243.61 3.23293 -0.463586 0
M  V30 2577 H 242.269 2.66375 -2.51873 0
M  V30 2578 H 241.917 4.84585 -1.34856 0
M  V30 2579 H 241.617 4.9927 -3.09844 0
M  V30 2580 H 243.141 5.61342 -2.40265 0
M  V30 2581 H 244.555 4.05374 -4.05395 0
M  V30 2582 H 242.952 3.67159 -4.74673 0
M  V30 2583 H 244.022 2.3518 -4.2405 0
M  V30 2584 N 245.365 1.30045 0.890287 0
M  V30 2585 C 246.611 1.19747 1.64415 0
M  V30 2586 C 246.966 -0.246591 1.90813 0
M  V30 2587 O 246.259 -1.174 1.51419 0
M  V30 2588 C 246.453 1.95409 2.99249 0
M  V30 2589 C 246.282 3.47025 2.86013 0
M  V30 2590 C 245.052 4.1638 2.86279 0
M  V30 2591 C 247.25 4.42353 2.62351 0
M  V30 2592 N 245.232 5.54293 2.63879 0
M  V30 2593 C 246.603 5.67792 2.49022 0
M  V30 2594 C 248.658 4.32009 2.47533 0
M  V30 2595 C 247.361 6.8406 2.22383 0
M  V30 2596 C 249.387 5.48038 2.22279 0
M  V30 2597 C 248.749 6.72455 2.09722 0
M  V30 2598 H 244.848 0.493223 0.60684 0
M  V30 2599 H 247.432 1.6399 1.04954 0
M  V30 2600 H 245.603 1.53565 3.56752 0
M  V30 2601 H 247.335 1.77298 3.63796 0
M  V30 2602 H 244.09 3.68164 2.97913 0
M  V30 2603 H 244.514 6.26852 2.55706 0
M  V30 2604 H 249.156 3.36503 2.55979 0
M  V30 2605 H 246.874 7.79612 2.12675 0
M  V30 2606 H 250.46 5.41939 2.11643 0
M  V30 2607 H 249.34 7.60722 1.90453 0
M  V30 2608 N 246.843 -1.10192 1.12674 0
M  V30 2609 C 248.089 -1.82475 0.884915 0
M  V30 2610 C 248.422 -1.85093 -0.58773 0
M  V30 2611 O 247.697 -1.3134 -1.43457 0
M  V30 2612 C 247.98 -3.29018 1.46353 0
M  V30 2613 C 247.833 -3.34718 3.00473 0
M  V30 2614 C 249.152 -4.25473 1.12519 0
M  V30 2615 H 246.271 -0.662492 0.322915 0
M  V30 2616 H 248.913 -1.2913 1.39375 0
M  V30 2617 H 247.063 -3.74576 1.03077 0
M  V30 2618 H 248.735 -2.97622 3.52447 0
M  V30 2619 H 246.978 -2.74541 3.35872 0
M  V30 2620 H 247.649 -4.37918 3.36053 0
M  V30 2621 H 250.125 -3.88161 1.499 0
M  V30 2622 H 249.001 -5.26365 1.55663 0
M  V30 2623 H 249.262 -4.42084 0.0377407 0
M  V30 2624 N 248.321 -0.919034 -1.28029 0
M  V30 2625 C 249.271 -0.382574 -2.24767 0
M  V30 2626 C 250.255 0.508286 -1.52661 0
M  V30 2627 O 251.447 0.347145 -1.73562 0
M  V30 2628 C 248.576 0.371432 -3.41285 0
M  V30 2629 C 247.662 -0.535449 -4.20706 0
M  V30 2630 N 248.053 -1.65141 -4.78082 0
M  V30 2631 C 246.351 -0.336824 -4.44726 0
M  V30 2632 C 247.052 -2.21475 -5.37888 0
M  V30 2633 N 246.028 -1.50537 -5.22341 0
M  V30 2634 H 249.83 -1.23477 -2.66703 0
M  V30 2635 H 247.344 -0.772299 -1.42861 0
M  V30 2636 H 249.341 0.772638 -4.09678 0
M  V30 2637 H 248.001 1.22066 -3.00882 0
M  V30 2638 H 249.012 -2.03392 -4.7629 0
M  V30 2639 H 245.689 0.47246 -4.14818 0
M  V30 2640 H 247.079 -3.15379 -5.93284 0
M  V30 2641 N 249.799 1.42003 -0.683588 0
M  V30 2642 C 251.047 2.01015 -0.209101 0
M  V30 2643 C 251.368 1.54365 1.19149 0
M  V30 2644 O 250.638 0.769083 1.80172 0
M  V30 2645 H 249.218 0.743294 -0.074315 0
M  V30 2646 H 251.88 1.73798 -0.882066 0
M  V30 2647 H 250.976 3.11343 -0.2172 0
M  V30 2648 N 251.277 0.427512 1.51691 0
M  V30 2649 C 252.207 -0.3796 2.30394 0
M  V30 2650 C 253.188 -1.02982 1.35384 0
M  V30 2651 O 254.373 -1.03534 1.643 0
M  V30 2652 C 251.503 -1.48649 3.1388 0
M  V30 2653 C 250.457 -0.960294 4.17088 0
M  V30 2654 C 249.783 -2.16219 4.89033 0
M  V30 2655 C 251.083 -0.00153679 5.223 0
M  V30 2656 H 252.777 0.277164 2.98114 0
M  V30 2657 H 250.323 0.134739 1.43368 0
M  V30 2658 H 252.276 -2.05826 3.67714 0
M  V30 2659 H 251 -2.1714 2.43962 0
M  V30 2660 H 249.659 -0.410806 3.64291 0
M  V30 2661 H 249.307 -2.83307 4.15628 0
M  V30 2662 H 249.007 -1.81654 5.58816 0
M  V30 2663 H 250.531 -2.73968 5.45687 0
M  V30 2664 H 251.945 -0.482687 5.71264 0
M  V30 2665 H 250.342 0.256199 5.99553 0
M  V30 2666 H 251.412 0.938174 4.75738 0
M  V30 2667 N 252.755 -1.56801 0.158532 0
M  V30 2668 C 253.98 -2.01295 -0.499516 0
M  V30 2669 C 254.405 -1.03799 -1.56867 0
M  V30 2670 O 253.763 -0.0155162 -1.81293 0
M  V30 2671 C 253.811 -3.44469 -1.06647 0
M  V30 2672 O 252.915 -3.50012 -2.18095 0
M  V30 2673 H 252.256 -0.652884 -0.12099 0
M  V30 2674 H 254.786 -2.02958 0.258661 0
M  V30 2675 H 254.796 -3.8351 -1.39227 0
M  V30 2676 H 253.471 -4.14932 -0.283581 0
M  V30 2677 H 252.048 -3.22822 -1.86656 0
M  V30 2678 N 254.233 0.115231 -1.57178 0
M  V30 2679 C 255.18 1.14115 -2.00615 0
M  V30 2680 C 256.15 1.40939 -0.878941 0
M  V30 2681 O 257.335 1.52741 -1.14345 0
M  V30 2682 C 254.475 2.46156 -2.4187 0
M  V30 2683 C 253.588 2.26236 -3.68024 0
M  V30 2684 C 252.723 3.51534 -3.98243 0
M  V30 2685 C 251.762 3.26787 -5.17568 0
M  V30 2686 N 250.899 4.44298 -5.43639 0
M  V30 2687 H 255.739 0.763743 -2.88047 0
M  V30 2688 H 253.276 0.365615 -1.42484 0
M  V30 2689 H 255.234 3.23189 -2.63827 0
M  V30 2690 H 253.864 2.81783 -1.57475 0
M  V30 2691 H 252.916 1.40102 -3.5366 0
M  V30 2692 H 254.228 2.03929 -4.55208 0
M  V30 2693 H 253.382 4.36984 -4.20868 0
M  V30 2694 H 252.121 3.76876 -3.09541 0
M  V30 2695 H 251.126 2.39729 -4.94783 0
M  V30 2696 H 252.351 3.02812 -6.0785 0
M  V30 2697 H 250.297 4.69754 -4.57895 0
M  V30 2698 H 250.214 4.25109 -6.25154 0
M  V30 2699 H 251.482 5.3087 -5.70786 0
M  V30 2700 N 255.711 1.52812 0.385517 0
M  V30 2701 C 256.621 1.80766 1.49535 0
M  V30 2702 C 257.637 0.694651 1.59532 0
M  V30 2703 O 258.813 0.982611 1.75803 0
M  V30 2704 C 255.878 1.97381 2.85029 0
M  V30 2705 C 254.939 3.21295 2.84724 0
M  V30 2706 C 254.172 3.37108 4.13756 0
M  V30 2707 O 254.395 2.5765 5.08893 0
M  V30 2708 O 253.329 4.30378 4.20783 0
M  V30 2709 H 257.155 2.75015 1.28842 0
M  V30 2710 H 254.74 1.37946 0.573697 0
M  V30 2711 H 256.622 2.09996 3.65349 0
M  V30 2712 H 255.297 1.06322 3.05741 0
M  V30 2713 H 254.204 3.1412 2.03174 0
M  V30 2714 H 255.537 4.12212 2.68965 0
M  V30 2715 N 257.189 -0.644168 1.43834 0
M  V30 2716 C 258.121 -1.76955 1.45669 0
M  V30 2717 C 259.134 -1.58956 0.351666 0
M  V30 2718 O 260.323 -1.6751 0.616644 0
M  V30 2719 C 257.423 -3.14507 1.26248 0
M  V30 2720 C 256.596 -3.59083 2.49757 0
M  V30 2721 C 255.655 -4.75467 2.25427 0
M  V30 2722 O 254.681 -4.84444 2.98836 0
M  V30 2723 N 255.883 -5.66289 1.27661 0
M  V30 2724 H 258.648 -1.75856 2.42682 0
M  V30 2725 H 256.209 -0.828312 1.39106 0
M  V30 2726 H 258.201 -3.90067 1.0784 0
M  V30 2727 H 256.771 -3.10325 0.376478 0
M  V30 2728 H 255.991 -2.7387 2.8353 0
M  V30 2729 H 257.279 -3.85613 3.31934 0
M  V30 2730 H 256.677 -5.61718 0.670064 0
M  V30 2731 H 255.234 -6.41533 1.15234 0
M  V30 2732 N 258.668 -1.30515 -0.883378 0
M  V30 2733 C 259.896 -1.22359 -1.66841 0
M  V30 2734 C 260.311 0.213296 -1.87591 0
M  V30 2735 O 259.668 1.14075 -1.42454 0
M  V30 2736 C 259.719 -1.95011 -3.04389 0
M  V30 2737 O 259.44 -3.3309 -2.84575 0
M  V30 2738 C 260.941 -1.93532 -3.98824 0
M  V30 2739 H 258.161 -0.423371 -0.520575 0
M  V30 2740 H 260.705 -1.72167 -1.10357 0
M  V30 2741 H 258.86 -1.48997 -3.57601 0
M  V30 2742 H 259.274 -3.69907 -3.71846 0
M  V30 2743 H 260.748 -2.48902 -4.92699 0
M  V30 2744 H 261.225 -0.914627 -4.29571 0
M  V30 2745 H 261.831 -2.39364 -3.51547 0
M  V30 2746 N 260.146 1.09593 -1.13257 0
M  V30 2747 C 261.371 1.8604 -0.916732 0
M  V30 2748 C 261.796 1.80504 0.529146 0
M  V30 2749 O 261.154 1.18127 1.37534 0
M  V30 2750 C 261.202 3.32017 -1.40703 0
M  V30 2751 O 260.306 4.08141 -0.591153 0
M  V30 2752 H 259.647 0.576943 -0.328683 0
M  V30 2753 H 262.177 1.38405 -1.50682 0
M  V30 2754 H 262.187 3.82865 -1.4099 0
M  V30 2755 H 260.862 3.35361 -2.45979 0
M  V30 2756 H 259.439 3.67084 -0.656005 0
M  V30 2757 N 261.624 0.925811 1.2754 0
M  V30 2758 C 262.87 0.566092 1.94739 0
M  V30 2759 C 263.203 -0.890057 1.72603 0
M  V30 2760 O 262.478 -1.63467 1.05399 0
M  V30 2761 C 262.761 0.89054 3.48915 0
M  V30 2762 C 262.614 2.4003 3.80402 0
M  V30 2763 C 263.933 0.395101 4.38323 0
M  V30 2764 H 261.052 0.20714 0.707292 0
M  V30 2765 H 263.694 1.15725 1.50691 0
M  V30 2766 H 261.844 0.387452 3.86563 0
M  V30 2767 H 263.516 2.97494 3.52555 0
M  V30 2768 H 261.759 2.85028 3.2702 0
M  V30 2769 H 262.43 2.57785 4.8811 0
M  V30 2770 H 264.906 0.826241 4.07814 0
M  V30 2771 H 263.782 0.651086 5.45025 0
M  V30 2772 H 264.043 -0.704798 4.36446 0
M  V30 2773 N 263.102 -1.41638 0.69111 0
M  V30 2774 C 264.327 -2.06148 0.227583 0
M  V30 2775 C 264.752 -1.51652 -1.11281 0
M  V30 2776 O 264.11 -0.64164 -1.69566 0
M  V30 2777 C 264.158 -3.60095 0.190858 0
M  V30 2778 O 263.262 -4.03845 -0.835664 0
M  V30 2779 H 262.603 -0.654434 0.112306 0
M  V30 2780 H 265.133 -1.81484 0.944714 0
M  V30 2781 H 265.143 -4.07995 0.020207 0
M  V30 2782 H 263.818 -3.99129 1.16915 0
M  V30 2783 H 262.395 -3.67458 -0.63473 0
M  V30 2784 N 264.58 -0.43555 -1.51462 0
M  V30 2785 C 265.828 0.131254 -2.01673 0
M  V30 2786 C 266.149 1.43368 -1.32177 0
M  V30 2787 O 265.419 1.90524 -0.455769 0
M  V30 2788 H 263.999 0.0514954 -0.745223 0
M  V30 2789 H 266.661 -0.577847 -1.86137 0
M  V30 2790 H 265.757 0.308446 -3.10572 0
M  V30 2791 N 266.058 1.56714 -0.166846 0
M  V30 2792 C 267.021 2.16539 0.751232 0
M  V30 2793 C 268.021 1.11228 1.16125 0
M  V30 2794 O 269.211 1.36765 1.07894 0
M  V30 2795 C 266.343 2.74462 2.02196 0
M  V30 2796 H 267.536 2.99013 0.230499 0
M  V30 2797 H 265.089 1.56081 0.0826982 0
M  V30 2798 H 265.824 1.95709 2.58589 0
M  V30 2799 H 265.609 3.51527 1.73698 0
M  V30 2800 H 267.099 3.20489 2.67725 0
M  V30 2801 N 267.536 -0.106894 1.57237 0
M  V30 2802 C 268.468 -1.15646 1.97885 0
M  V30 2803 C 269.481 -1.36981 0.879779 0
M  V30 2804 O 270.67 -1.35841 1.15799 0
M  V30 2805 C 267.77 -2.51425 2.27241 0
M  V30 2806 C 266.943 -2.50529 3.58545 0
M  V30 2807 C 266.002 -3.68145 3.75973 0
M  V30 2808 O 265.028 -3.51176 4.47956 0
M  V30 2809 N 266.23 -4.87177 3.15656 0
M  V30 2810 H 268.995 -0.81059 2.8853 0
M  V30 2811 H 266.556 -0.296024 1.59171 0
M  V30 2812 H 268.548 -3.28689 2.36105 0
M  V30 2813 H 267.118 -2.78147 1.42663 0
M  V30 2814 H 266.338 -1.58894 3.60758 0
M  V30 2815 H 267.626 -2.46997 4.44826 0
M  V30 2816 H 267.024 -5.03868 2.57165 0
M  V30 2817 H 265.581 -5.62075 3.30023 0
M  V30 2818 N 269.014 -1.53014 -0.377408 0
M  V30 2819 C 269.961 -1.78616 -1.46168 0
M  V30 2820 C 270.931 -0.629917 -1.53692 0
M  V30 2821 O 272.116 -0.870861 -1.69766 0
M  V30 2822 C 269.256 -1.97123 -2.8326 0
M  V30 2823 C 268.369 -3.24831 -2.84796 0
M  V30 2824 C 267.504 -3.33591 -4.13389 0
M  V30 2825 C 266.543 -4.55377 -4.09021 0
M  V30 2826 N 265.68 -4.61355 -5.29241 0
M  V30 2827 H 270.52 -2.71142 -1.23637 0
M  V30 2828 H 268.057 -1.34326 -0.599577 0
M  V30 2829 H 270.015 -2.05839 -3.62886 0
M  V30 2830 H 268.645 -1.07946 -3.04216 0
M  V30 2831 H 267.697 -3.25128 -1.97474 0
M  V30 2832 H 269.009 -4.14523 -2.77439 0
M  V30 2833 H 268.163 -3.41554 -5.01424 0
M  V30 2834 H 266.902 -2.41894 -4.23484 0
M  V30 2835 H 265.907 -4.47527 -3.19373 0
M  V30 2836 H 267.132 -5.48402 -4.00539 0
M  V30 2837 H 265.078 -3.72554 -5.39944 0
M  V30 2838 H 264.995 -5.44935 -5.24006 0
M  V30 2839 H 266.263 -4.73586 -6.19141 0
M  V30 2840 N 270.492 0.636531 -1.44174 0
M  V30 2841 C 271.74 1.39343 -1.46383 0
M  V30 2842 C 272.061 1.94766 -0.0955715 0
M  V30 2843 O 271.331 1.75452 0.871395 0
M  V30 2844 H 269.911 0.517199 -0.538994 0
M  V30 2845 H 272.573 0.74957 -1.7991 0
M  V30 2846 H 271.669 2.22746 -2.18611 0
M  V30 2847 N 271.97 1.30982 0.876444 0
M  V30 2848 C 273.386 1.09498 1.16113 0
M  V30 2849 C 273.586 -0.13875 2.01022 0
M  V30 2850 O 272.642 -0.829935 2.38471 0
M  V30 2851 C 273.955 2.36308 1.85954 0
M  V30 2852 C 275.503 2.41856 1.98683 0
M  V30 2853 C 275.978 3.6853 2.71937 0
M  V30 2854 N 277.469 3.69387 2.79477 0
M  V30 2855 C 278.204 4.64096 3.36753 0
M  V30 2856 N 277.7 5.69155 3.95012 0
M  V30 2857 N 279.493 4.51626 3.3465 0
M  V30 2858 H 271.644 2.10118 0.310494 0
M  V30 2859 H 273.907 0.926634 0.200131 0
M  V30 2860 H 273.613 3.26388 1.31011 0
M  V30 2861 H 273.487 2.4561 2.86278 0
M  V30 2862 H 275.874 1.52249 2.52793 0
M  V30 2863 H 275.955 2.36523 0.9742 0
M  V30 2864 H 275.599 4.58499 2.18496 0
M  V30 2865 H 275.529 3.71127 3.73593 0
M  V30 2866 H 278.02 2.93438 2.38123 0
M  V30 2867 H 278.333 6.3751 4.36808 0
M  V30 2868 H 276.678 5.72937 3.93406 0
M  V30 2869 H 279.869 3.68728 2.8837 0
M  V30 2870 H 280.042 5.25614 3.7899 0
M  V30 2871 N 273.449 -1.08991 1.13837 0
M  V30 2872 C 274.396 -2.15748 0.819835 0
M  V30 2873 C 275.366 -1.64636 -0.220026 0
M  V30 2874 O 276.551 -1.90582 -0.0912757 0
M  V30 2875 C 273.691 -3.4382 0.296913 0
M  V30 2876 C 272.804 -4.0881 1.39636 0
M  V30 2877 C 271.939 -5.24655 0.831314 0
M  V30 2878 C 270.978 -5.81575 1.90886 0
M  V30 2879 N 270.115 -6.88774 1.36142 0
M  V30 2880 H 274.955 -2.42338 1.73426 0
M  V30 2881 H 272.492 -1.18935 0.865613 0
M  V30 2882 H 274.45 -4.17193 -0.0244339 0
M  V30 2883 H 273.08 -3.17535 -0.580628 0
M  V30 2884 H 272.132 -3.33258 1.83422 0
M  V30 2885 H 273.444 -4.47141 2.21058 0
M  V30 2886 H 272.598 -6.04942 0.461515 0
M  V30 2887 H 271.337 -4.87698 -0.013932 0
M  V30 2888 H 270.342 -4.99946 2.28767 0
M  V30 2889 H 271.567 -6.20592 2.75758 0
M  V30 2890 H 269.513 -6.53788 0.538254 0
M  V30 2891 H 269.43 -7.25898 2.11208 0
M  V30 2892 H 270.698 -7.72806 1.01933 0
M  V30 2893 N 274.927 -0.932562 -1.27047 0
M  V30 2894 C 275.859 -0.392734 -2.2581 0
M  V30 2895 C 276.872 0.479241 -1.55586 0
M  V30 2896 O 278.061 0.291078 -1.76111 0
M  V30 2897 C 275.161 0.455456 -3.35826 0
M  V30 2898 C 274.334 -0.398355 -4.35582 0
M  V30 2899 C 273.393 0.387985 -5.24768 0
M  V30 2900 O 272.419 -0.206003 -5.68827 0
M  V30 2901 N 273.621 1.68664 -5.55457 0
M  V30 2902 H 276.386 -1.24173 -2.72766 0
M  V30 2903 H 273.947 -0.800511 -1.40725 0
M  V30 2904 H 275.939 0.988692 -3.92437 0
M  V30 2905 H 274.509 1.20522 -2.88432 0
M  V30 2906 H 273.729 -1.11286 -3.78165 0
M  V30 2907 H 275.017 -0.981889 -4.99236 0
M  V30 2908 H 274.415 2.19147 -5.21528 0
M  V30 2909 H 272.972 2.1663 -6.14748 0
M  V30 2910 N 276.405 1.4127 -0.698611 0
M  V30 2911 C 277.653 2.00782 -0.230409 0
M  V30 2912 C 277.974 1.5562 1.17505 0
M  V30 2913 O 277.244 0.78815 1.79346 0
M  V30 2914 H 275.824 0.742464 -0.0821944 0
M  V30 2915 H 278.486 1.72852 -0.90045 0
M  V30 2916 H 277.582 3.11095 -0.25021 0
M  V30 2917 N 277.883 0.443576 1.51229 0
M  V30 2918 C 279.131 -0.120557 2.0174 0
M  V30 2919 C 279.452 -1.42665 1.32935 0
M  V30 2920 O 278.722 -1.9028 0.465866 0
M  V30 2921 H 277.302 -0.0475426 0.745486 0
M  V30 2922 H 279.964 0.587711 1.85828 0
M  V30 2923 H 279.06 -0.291972 3.10731 0
M  V30 2924 N 279.361 -1.56624 0.175154 0
M  V30 2925 C 280.586 -2.01813 -0.478137 0
M  V30 2926 C 281.011 -1.05457 -1.55757 0
M  V30 2927 O 280.369 -0.0347439 -1.81267 0
M  V30 2928 C 280.417 -3.45581 -1.02987 0
M  V30 2929 O 279.521 -3.52305 -2.14371 0
M  V30 2930 H 278.862 -0.65413 -0.114059 0
M  V30 2931 H 281.392 -2.02673 0.280173 0
M  V30 2932 H 281.402 -3.84965 -1.35151 0
M  V30 2933 H 280.077 -4.1521 -0.239556 0
M  V30 2934 H 278.654 -3.24783 -1.83222 0
M  V30 2935 N 280.839 0.0985539 -1.57292 0
M  V30 2936 C 281.771 1.14595 -1.98496 0
M  V30 2937 C 282.784 1.36512 -0.887031 0
M  V30 2938 O 283.973 1.35225 -1.16518 0
M  V30 2939 C 281.073 2.50216 -2.28572 0
M  V30 2940 C 280.246 2.48624 -3.59868 0
M  V30 2941 C 279.305 3.66146 -3.7792 0
M  V30 2942 O 278.331 3.48795 -4.49812 0
M  V30 2943 N 279.533 4.85496 -3.18235 0
M  V30 2944 H 282.298 0.795277 -2.88956 0
M  V30 2945 H 279.859 0.287579 -1.59325 0
M  V30 2946 H 281.851 3.27432 -2.37845 0
M  V30 2947 H 280.421 2.77387 -1.44136 0
M  V30 2948 H 279.641 1.56978 -3.61596 0
M  V30 2949 H 280.929 2.44635 -4.46129 0
M  V30 2950 H 280.327 5.02497 -2.59833 0
M  V30 2951 H 278.884 5.60317 -3.32999 0
M  V30 2952 N 282.317 1.53212 0.369288 0
M  V30 2953 C 283.542 1.73423 1.1375 0
M  V30 2954 C 283.967 0.460404 1.82378 0
M  V30 2955 O 283.325 -0.585298 1.71592 0
M  V30 2956 C 283.373 2.89769 2.1463 0
M  V30 2957 O 282.477 2.58119 3.21634 0
M  V30 2958 H 281.818 0.576061 0.330227 0
M  V30 2959 H 284.348 2.00083 0.427547 0
M  V30 2960 H 284.358 3.15829 2.58294 0
M  V30 2961 H 283.033 3.8217 1.64071 0
M  V30 2962 H 281.61 2.42864 2.82969 0
M  V30 2963 N 283.795 -0.628877 1.44509 0
M  V30 2964 C 285.02 -1.42048 1.5112 0
M  V30 2965 C 285.445 -1.87594 0.137818 0
M  V30 2966 O 284.803 -1.58873 -0.873437 0
M  V30 2967 C 284.851 -2.61541 2.48251 0
M  V30 2968 O 283.955 -3.61453 1.98559 0
M  V30 2969 H 283.296 -0.424942 0.510216 0
M  V30 2970 H 285.826 -0.767374 1.89664 0
M  V30 2971 H 285.836 -3.09057 2.66361 0
M  V30 2972 H 284.511 -2.27736 3.48007 0
M  V30 2973 H 283.088 -3.20731 1.90227 0
M  V30 2974 N 285.273 -1.31445 -0.869486 0
M  V30 2975 C 286.503 -1.23942 -1.65294 0
M  V30 2976 C 286.911 0.197561 -1.88166 0
M  V30 2977 O 286.254 1.14019 -1.44033 0
M  V30 2978 C 286.316 -1.91385 -3.04322 0
M  V30 2979 C 285.98 -3.40726 -3.04557 0
M  V30 2980 C 286.977 -4.36464 -2.82481 0
M  V30 2981 C 284.662 -3.82425 -3.25663 0
M  V30 2982 C 286.656 -5.71876 -2.8149 0
M  V30 2983 C 284.343 -5.1795 -3.243 0
M  V30 2984 C 285.341 -6.12486 -3.02241 0
M  V30 2985 O 285.029 -7.45534 -3.00724 0
M  V30 2986 H 284.761 -0.429459 -0.522054 0
M  V30 2987 H 287.315 -1.73873 -1.0935 0
M  V30 2988 H 285.545 -1.36004 -3.61994 0
M  V30 2989 H 287.234 -1.77791 -3.64891 0
M  V30 2990 H 288 -4.05576 -2.65956 0
M  V30 2991 H 283.879 -3.09274 -3.41863 0
M  V30 2992 H 287.423 -6.45638 -2.64191 0
M  V30 2993 H 283.32 -5.48473 -3.40365 0
M  V30 2994 H 284.088 -7.54713 -3.16782 0
M  V30 2995 N 286.751 1.08385 -1.14413 0
M  V30 2996 C 287.997 1.81044 -0.913834 0
M  V30 2997 C 288.33 1.86004 0.558209 0
M  V30 2998 O 287.605 1.33606 1.4135 0
M  V30 2999 C 287.888 3.26648 -1.51569 0
M  V30 3000 C 287.741 3.29895 -3.0576 0
M  V30 3001 C 289.06 4.23629 -1.19273 0
M  V30 3002 H 286.179 0.65727 -0.333414 0
M  V30 3003 H 288.821 1.26896 -1.41412 0
M  V30 3004 H 286.971 3.72889 -1.09023 0
M  V30 3005 H 288.643 2.91977 -3.57137 0
M  V30 3006 H 286.886 2.69163 -3.40197 0
M  V30 3007 H 287.557 4.32516 -3.42977 0
M  V30 3008 H 290.033 3.85727 -1.56057 0
M  V30 3009 H 288.909 5.23822 -1.64017 0
M  V30 3010 H 289.17 4.41968 -0.108068 0
M  V30 3011 N 288.23 0.939286 1.26551 0
M  V30 3012 C 289.16 0.465044 2.28822 0
M  V30 3013 C 290.141 -0.480692 1.63167 0
M  V30 3014 O 291.326 -0.382955 1.90387 0
M  V30 3015 C 288.456 -0.27234 3.46231 0
M  V30 3016 C 287.41 0.58666 4.2396 0
M  V30 3017 C 286.736 -0.280573 5.33963 0
M  V30 3018 C 288.036 1.85704 4.88171 0
M  V30 3019 H 289.73 1.31979 2.68741 0
M  V30 3020 H 287.276 0.636061 1.29191 0
M  V30 3021 H 289.229 -0.615133 4.16886 0
M  V30 3022 H 287.953 -1.16121 3.0526 0
M  V30 3023 H 286.612 0.91232 3.55067 0
M  V30 3024 H 286.26 -1.16874 4.89234 0
M  V30 3025 H 285.96 0.29076 5.8688 0
M  V30 3026 H 287.484 -0.618678 6.07458 0
M  V30 3027 H 288.898 1.58161 5.51052 0
M  V30 3028 H 287.295 2.37279 5.51197 0
M  V30 3029 H 288.365 2.56957 4.11219 0
M  V30 3030 N 289.708 -1.40897 0.706093 0
M  V30 3031 C 290.64 -2.29199 0.00815776 0
M  V30 3032 C 291.653 -1.45336 -0.733582 0
M  V30 3033 O 292.842 -1.68727 -0.582537 0
M  V30 3034 C 289.942 -3.23417 -1.01265 0
M  V30 3035 C 289.115 -4.36089 -0.338387 0
M  V30 3036 C 288.174 -5.10811 -1.26326 0
M  V30 3037 O 287.2 -5.64215 -0.751651 0
M  V30 3038 N 288.402 -5.19269 -2.595 0
M  V30 3039 H 291.167 -2.89738 0.766297 0
M  V30 3040 H 288.728 -1.52164 0.55296 0
M  V30 3041 H 290.72 -3.70276 -1.63334 0
M  V30 3042 H 289.29 -2.64112 -1.67223 0
M  V30 3043 H 288.51 -3.91479 0.462352 0
M  V30 3044 H 289.798 -5.08634 0.130031 0
M  V30 3045 H 289.196 -4.77347 -3.03573 0
M  V30 3046 H 287.753 -5.69667 -3.16737 0
M  V30 3047 N 291.186 -0.45159 -1.50991 0
M  V30 3048 C 292.414 0.108334 -2.06616 0
M  V30 3049 C 292.829 1.35224 -1.31757 0
M  V30 3050 O 292.186 1.78475 -0.381174 0
M  V30 3051 C 292.237 0.41619 -3.59096 0
M  V30 3052 O 291.958 -0.778361 -4.3113 0
M  V30 3053 C 293.459 1.02523 -4.31282 0
M  V30 3054 H 290.679 0.00159995 -0.670998 0
M  V30 3055 H 293.223 -0.634771 -1.94399 0
M  V30 3056 H 291.378 1.10921 -3.71181 0
M  V30 3057 H 291.792 -0.511181 -5.22003 0
M  V30 3058 H 293.266 1.19053 -5.39009 0
M  V30 3059 H 293.743 2.01013 -3.905 0
M  V30 3060 H 294.349 0.371173 -4.23677 0
M  V30 3061 N 292.664 1.56529 -0.183458 0
M  V30 3062 C 293.574 2.22144 0.754272 0
M  V30 3063 C 294.59 1.21684 1.24374 0
M  V30 3064 O 295.766 1.54385 1.29333 0
M  V30 3065 C 292.831 2.85884 1.96141 0
M  V30 3066 C 291.892 4.01579 1.51765 0
M  V30 3067 C 291.125 4.6227 2.66725 0
M  V30 3068 O 291.348 4.21865 3.83909 0
M  V30 3069 O 290.282 5.51936 2.40104 0
M  V30 3070 H 294.108 3.02861 0.225527 0
M  V30 3071 H 291.693 1.49331 0.0453032 0
M  V30 3072 H 293.575 3.26253 2.66715 0
M  V30 3073 H 292.25 2.08154 2.47899 0
M  V30 3074 H 291.157 3.65856 0.781049 0
M  V30 3075 H 292.49 4.80938 1.04686 0
M  V30 3076 N 294.142 -0.090211 1.57342 0
M  V30 3077 C 295.052 -1.12735 2.05738 0
M  V30 3078 C 296.068 -1.43557 0.983231 0
M  V30 3079 O 297.244 -1.54101 1.29672 0
M  V30 3080 C 294.309 -2.42659 2.47624 0
M  V30 3081 C 293.37 -2.18975 3.69254 0
M  V30 3082 C 292.603 -3.42704 4.09133 0
M  V30 3083 O 292.826 -4.51127 3.49057 0
M  V30 3084 O 291.76 -3.32003 5.02053 0
M  V30 3085 H 295.586 -0.746279 2.94388 0
M  V30 3086 H 293.171 -0.303064 1.46294 0
M  V30 3087 H 295.053 -3.19155 2.7517 0
M  V30 3088 H 293.728 -2.80182 1.62109 0
M  V30 3089 H 292.635 -1.40244 3.46818 0
M  V30 3090 H 293.968 -1.86342 4.55563 0
M  V30 3091 N 295.62 -1.53406 -0.361157 0
M  V30 3092 C 296.55 -1.83136 -1.44857 0
M  V30 3093 C 297.531 -0.685174 -1.5569 0
M  V30 3094 O 298.716 -0.93544 -1.70186 0
M  V30 3095 C 295.846 -2.02522 -2.82138 0
M  V30 3096 C 294.8 -3.18302 -2.86126 0
M  V30 3097 C 294.126 -3.22989 -4.26125 0
M  V30 3098 C 295.426 -4.56796 -2.53248 0
M  V30 3099 H 297.12 -2.74201 -1.20226 0
M  V30 3100 H 294.666 -1.31938 -0.576922 0
M  V30 3101 H 296.619 -2.21904 -3.58241 0
M  V30 3102 H 295.343 -1.08172 -3.08166 0
M  V30 3103 H 294.002 -2.98747 -2.12475 0
M  V30 3104 H 293.65 -2.26267 -4.49235 0
M  V30 3105 H 293.35 -4.00781 -4.29708 0
M  V30 3106 H 294.874 -3.44559 -5.04094 0
M  V30 3107 H 296.288 -4.7631 -3.19064 0
M  V30 3108 H 294.685 -5.36862 -2.68141 0
M  V30 3109 H 295.755 -4.61606 -1.48484 0
M  V30 3110 N 297.098 0.621204 -1.44841 0
M  V30 3111 C 298.344 1.3826 -1.48365 0
M  V30 3112 C 298.677 1.93831 -0.119624 0
M  V30 3113 O 297.952 1.74251 0.864111 0
M  V30 3114 C 298.235 2.54058 -2.55199 0
M  V30 3115 C 298.088 2.03772 -4.00995 0
M  V30 3116 C 299.407 3.56225 -2.58442 0
M  V30 3117 H 296.526 0.501374 -0.540179 0
M  V30 3118 H 299.168 0.7015 -1.76576 0
M  V30 3119 H 297.318 3.12162 -2.31274 0
M  V30 3120 H 298.99 1.50423 -4.36086 0
M  V30 3121 H 297.233 1.34876 -4.12299 0
M  V30 3122 H 297.904 2.87185 -4.71411 0
M  V30 3123 H 300.38 3.07939 -2.79844 0
M  V30 3124 H 299.256 4.34756 -3.3508 0
M  V30 3125 H 299.517 4.10949 -1.63013 0
M  V30 3126 N 298.576 1.31904 0.862503 0
M  V30 3127 C 299.539 1.20131 1.95195 0
M  V30 3128 C 300.539 0.126409 1.60302 0
M  V30 3129 O 301.729 0.376234 1.70089 0
M  V30 3130 C 298.861 0.845691 3.30244 0
M  V30 3131 H 300.054 2.16943 2.07064 0
M  V30 3132 H 297.607 1.15622 1.05172 0
M  V30 3133 H 298.342 -0.120957 3.24074 0
M  V30 3134 H 298.127 1.62276 3.56944 0
M  V30 3135 H 299.617 0.787418 4.10109 0
M  V30 3136 N 300.054 -1.07777 1.14986 0
M  V30 3137 C 301.002 -2.16964 0.838406 0
M  V30 3138 C 301.996 -1.68372 -0.186386 0
M  V30 3139 O 303.202 -1.79951 -0.0418465 0
M  V30 3140 H 299.577 -0.708006 0.253439 0
M  V30 3141 H 301.548 -2.40454 1.76704 0
M  V30 3142 C 300.297 -3.4604 0.339335 0
M  V30 3143 H 299.62 -3.83813 1.11927 0
M  V30 3144 H 301.06 -4.23698 0.160021 0
M  V30 3145 C 299.519 -3.23569 -0.938325 0
M  V30 3146 O 300.049 -3.47752 -2.01077 0
M  V30 3147 N 298.255 -2.77079 -0.876117 0
M  V30 3148 H 297.802 -2.576 -0.00322037 0
M  V30 3149 H 297.76 -2.62422 -1.73153 0
M  V30 3150 N 301.532 -0.945985 -1.26051 0
M  V30 3151 C 302.479 -0.45809 -2.26208 0
M  V30 3152 C 303.449 0.484816 -1.58867 0
M  V30 3153 O 304.634 0.399969 -1.86561 0
M  V30 3154 C 301.774 0.266131 -3.44072 0
M  V30 3155 C 300.887 -0.713005 -4.26075 0
M  V30 3156 C 300.022 0.0329013 -5.3119 0
M  V30 3157 C 299.061 -0.93774 -6.04874 0
M  V30 3158 N 298.198 -0.223274 -7.01745 0
M  V30 3159 H 303.038 -1.3171 -2.67313 0
M  V30 3160 H 300.575 -0.66069 -1.31428 0
M  V30 3161 H 302.533 0.702514 -4.11243 0
M  V30 3162 H 301.163 1.08925 -3.03867 0
M  V30 3163 H 300.215 -1.26789 -3.58648 0
M  V30 3164 H 301.527 -1.45406 -4.77136 0
M  V30 3165 H 300.681 0.528335 -6.04395 0
M  V30 3166 H 299.42 0.806801 -4.8098 0
M  V30 3167 H 298.425 -1.44425 -5.30492 0
M  V30 3168 H 299.65 -1.71172 -6.57173 0
M  V30 3169 H 297.596 0.532046 -6.53839 0
M  V30 3170 H 297.513 -0.90357 -7.50581 0
M  V30 3171 H 298.781 0.250907 -7.79096 0
M  V30 3172 N 303.011 1.40521 -0.713556 0
M  V30 3173 C 303.943 2.29191 -0.0203126 0
M  V30 3174 C 304.956 1.45723 0.725864 0
M  V30 3175 O 306.145 1.69033 0.573581 0
M  V30 3176 C 303.245 3.2395 0.995486 0
M  V30 3177 C 302.418 4.36262 0.315256 0
M  V30 3178 C 301.477 5.11474 1.23616 0
M  V30 3179 O 300.503 5.64606 0.721719 0
M  V30 3180 N 301.705 5.20638 2.56743 0
M  V30 3181 H 304.47 2.89327 -0.781652 0
M  V30 3182 H 302.031 1.51869 -0.561022 0
M  V30 3183 H 304.023 3.71137 1.61368 0
M  V30 3184 H 302.593 2.64995 1.6582 0
M  V30 3185 H 301.813 3.91228 -0.483106 0
M  V30 3186 H 303.101 5.08558 -0.157004 0
M  V30 3187 H 302.499 4.7895 3.01037 0
M  V30 3188 H 301.056 5.71339 3.13712 0
M  V30 3189 N 304.489 0.459591 1.5075 0
M  V30 3190 C 305.421 -0.37665 2.26084 0
M  V30 3191 C 306.434 -0.967109 1.30961 0
M  V30 3192 O 307.623 -0.857468 1.56556 0
M  V30 3193 C 304.723 -1.54112 3.01832 0
M  V30 3194 C 303.896 -1.06553 4.24223 0
M  V30 3195 C 302.955 -2.1027 4.82362 0
M  V30 3196 O 301.981 -1.68798 5.43595 0
M  V30 3197 N 303.183 -3.42974 4.68347 0
M  V30 3198 H 305.948 0.269124 2.98489 0
M  V30 3199 H 303.509 0.28972 1.59287 0
M  V30 3200 H 305.501 -2.23165 3.37608 0
M  V30 3201 H 304.071 -2.0918 2.32298 0
M  V30 3202 H 303.291 -0.201274 3.93686 0
M  V30 3203 H 304.579 -0.725516 5.03601 0
M  V30 3204 H 303.977 -3.79385 4.19623 0
M  V30 3205 H 302.534 -4.07858 5.08424 0
M  V30 3206 N 305.967 -1.56429 0.191757 0
M  V30 3207 C 307.383 -1.58754 -0.164137 0
M  V30 3208 C 307.583 -1.20782 -1.61288 0
M  V30 3209 O 306.639 -0.928999 -2.34789 0
M  V30 3210 C 307.952 -3.00396 0.135195 0
M  V30 3211 C 309.5 -3.1291 0.0750351 0
M  V30 3212 C 309.975 -4.56679 0.347632 0
M  V30 3213 N 311.466 -4.62252 0.296131 0
M  V30 3214 C 312.201 -5.71379 0.480948 0
M  V30 3215 N 311.697 -6.88986 0.725933 0
M  V30 3216 N 313.49 -5.60563 0.415435 0
M  V30 3217 H 305.641 -1.79393 1.13718 0
M  V30 3218 H 307.904 -0.832414 0.453643 0
M  V30 3219 H 307.61 -3.32726 1.13958 0
M  V30 3220 H 307.484 -3.72963 -0.563773 0
M  V30 3221 H 309.871 -2.80394 -0.919948 0
M  V30 3222 H 309.952 -2.42736 0.807029 0
M  V30 3223 H 309.596 -4.89907 1.33992 0
M  V30 3224 H 309.526 -5.25039 -0.405212 0
M  V30 3225 H 312.017 -3.7773 0.113259 0
M  V30 3226 H 312.33 -7.68046 0.855857 0
M  V30 3227 H 310.675 -6.90801 0.762788 0
M  V30 3228 H 313.866 -4.67561 0.224486 0
M  V30 3229 H 314.039 -6.45551 0.562889 0
M  V30 3230 N 307.445 0.0818655 -1.57387 0
M  V30 3231 C 308.355 1.11642 -2.06333 0
M  V30 3232 C 309.371 1.43033 -0.99083 0
M  V30 3233 O 310.547 1.53411 -1.30488 0
M  V30 3234 C 307.612 2.41342 -2.48907 0
M  V30 3235 C 306.673 2.17014 -3.7041 0
M  V30 3236 C 305.906 3.4053 -4.10944 0
M  V30 3237 O 306.129 4.4927 -3.51444 0
M  V30 3238 O 305.063 3.29336 -5.03807 0
M  V30 3239 H 308.889 0.730657 -2.9478 0
M  V30 3240 H 306.474 0.295301 -1.46452 0
M  V30 3241 H 308.356 3.17691 -2.76858 0
M  V30 3242 H 307.031 2.79319 -1.63593 0
M  V30 3243 H 305.938 1.38403 -3.47556 0
M  V30 3244 H 307.271 1.83923 -4.56545 0
M  V30 3245 N 308.923 1.53595 0.353017 0
M  V30 3246 C 310.151 1.74311 1.1146 0
M  V30 3247 C 310.566 0.477854 1.82653 0
M  V30 3248 O 309.923 -0.549977 1.74016 0
M  V30 3249 C 309.974 2.91694 2.13534 0
M  V30 3250 O 309.695 4.13325 1.45238 0
M  V30 3251 C 311.196 3.24384 3.02142 0
M  V30 3252 H 308.416 0.582669 0.332773 0
M  V30 3253 H 310.96 2.00386 0.408107 0
M  V30 3254 H 309.115 2.67977 2.79763 0
M  V30 3255 H 309.529 4.79148 2.13349 0
M  V30 3256 H 311.003 4.09893 3.69718 0
M  V30 3257 H 311.48 2.40282 3.67643 0
M  V30 3258 H 312.086 3.50073 2.41514 0
M  V30 3259 N 310.401 -0.613514 1.45168 0
M  V30 3260 C 311.348 -1.72456 1.53387 0
M  V30 3261 C 312.318 -1.6169 0.380191 0
M  V30 3262 O 313.503 -1.81356 0.592836 0
M  V30 3263 C 310.643 -3.10753 1.50088 0
M  V30 3264 C 309.756 -3.32368 2.75963 0
M  V30 3265 C 308.891 -4.60737 2.64376 0
M  V30 3266 C 307.93 -4.7559 3.85332 0
M  V30 3267 N 307.067 -5.95253 3.72315 0
M  V30 3268 H 311.907 -1.64768 2.48305 0
M  V30 3269 H 309.444 -0.803503 1.23216 0
M  V30 3270 H 311.402 -3.90758 1.46164 0
M  V30 3271 H 310.032 -3.17413 0.587243 0
M  V30 3272 H 309.084 -2.4618 2.89999 0
M  V30 3273 H 310.396 -3.39218 3.65695 0
M  V30 3274 H 309.55 -5.48928 2.58385 0
M  V30 3275 H 308.289 -4.56275 1.72233 0
M  V30 3276 H 307.294 -3.85824 3.91688 0
M  V30 3277 H 308.519 -4.81854 4.78533 0
M  V30 3278 H 306.465 -5.91847 2.82937 0
M  V30 3279 H 306.382 -6.03236 4.55677 0
M  V30 3280 H 307.65 -6.85958 3.70246 0
M  V30 3281 N 311.879 -1.3236 -0.855495 0
M  V30 3282 C 312.827 -1.2118 -1.9854 0
M  V30 3283 C 313.821 -0.116788 -1.68997 0
M  V30 3284 O 315.027 -0.279657 -1.77814 0
M  V30 3285 H 311.402 -0.375608 -0.651477 0
M  V30 3286 H 313.373 -2.16743 -2.05098 0
M  V30 3287 C 312.122 -0.950849 -3.34446 0
M  V30 3288 H 311.445 -1.78563 -3.57708 0
M  V30 3289 H 312.885 -0.912863 -4.14057 0
M  V30 3290 C 311.344 0.346404 -3.35114 0
M  V30 3291 O 311.874 1.35855 -3.7803 0
M  V30 3292 N 310.08 0.36808 -2.88259 0
M  V30 3293 H 309.627 -0.456102 -2.5353 0
M  V30 3294 H 309.585 1.23591 -2.89089 0
M  V30 3295 N 313.357 1.07166 -1.15556 0
M  V30 3296 C 314.582 1.84053 -0.955988 0
M  V30 3297 C 315.007 1.81586 0.490739 0
M  V30 3298 O 314.365 1.21018 1.34997 0
M  V30 3299 C 314.413 3.28957 -1.47714 0
M  V30 3300 O 313.517 4.06795 -0.677593 0
M  V30 3301 H 312.858 0.569842 -0.340847 0
M  V30 3302 H 315.388 1.35178 -1.53584 0
M  V30 3303 H 315.398 3.79788 -1.4908 0
M  V30 3304 H 314.073 3.30068 -2.53037 0
M  V30 3305 H 312.65 3.6561 -0.733721 0
M  V30 3306 N 314.835 0.952656 1.25548 0
M  V30 3307 C 315.785 0.442033 2.23674 0
M  V30 3308 C 316.769 -0.467632 1.53955 0
M  V30 3309 O 317.961 -0.301006 1.74422 0
M  V30 3310 C 315.09 -0.280816 3.4215 0
M  V30 3311 C 314.176 0.646803 4.19139 0
M  V30 3312 N 314.567 1.77759 4.73535 0
M  V30 3313 C 312.865 0.454617 4.43677 0
M  V30 3314 C 313.566 2.35658 5.31827 0
M  V30 3315 N 312.542 1.64333 5.18166 0
M  V30 3316 H 316.344 1.30505 2.63336 0
M  V30 3317 H 313.858 0.809904 1.40763 0
M  V30 3318 H 315.855 -0.663747 4.11582 0
M  V30 3319 H 314.515 -1.14046 3.04012 0
M  V30 3320 H 315.526 2.15949 4.7073 0
M  V30 3321 H 312.203 -0.362312 4.15925 0
M  V30 3322 H 313.593 3.30998 5.84713 0
M  V30 3323 N 316.313 -1.40141 0.720998 0
M  V30 3324 C 317.245 -2.29177 0.0324669 0
M  V30 3325 C 318.258 -1.46105 -0.718126 0
M  V30 3326 O 319.447 -1.69335 -0.564608 0
M  V30 3327 C 316.547 -3.24473 -0.978292 0
M  V30 3328 C 315.72 -4.36423 -0.292115 0
M  V30 3329 C 314.779 -5.12122 -1.20901 0
M  V30 3330 O 313.805 -5.64981 -0.691766 0
M  V30 3331 N 315.007 -5.21992 -2.53978 0
M  V30 3332 H 317.772 -2.88909 0.796984 0
M  V30 3333 H 315.333 -1.51569 0.569068 0
M  V30 3334 H 317.325 -3.71987 -1.59398 0
M  V30 3335 H 315.895 -2.65871 -1.64413 0
M  V30 3336 H 315.115 -3.90967 0.503847 0
M  V30 3337 H 316.403 -5.08467 0.183971 0
M  V30 3338 H 315.801 -4.8054 -2.98493 0
M  V30 3339 H 314.358 -5.72995 -3.10677 0
M  V30 3340 N 317.792 -0.46758 -1.50504 0
M  V30 3341 C 318.74 0.342482 -2.30065 0
M  V30 3342 C 319.734 0.993596 -1.37201 0
M  V30 3343 O 320.94 0.925102 -1.54408 0
M  V30 3344 H 317.315 0.129283 -0.740803 0
M  V30 3345 H 319.286 -0.34899 -2.96352 0
M  V30 3346 C 318.035 1.4139 -3.17654 0
M  V30 3347 H 317.358 0.922264 -3.89017 0
M  V30 3348 H 318.798 1.95335 -3.76325 0
M  V30 3349 C 317.257 2.4139 -2.35016 0
M  V30 3350 O 317.787 3.46586 -2.03079 0
M  V30 3351 N 315.993 2.13021 -1.97662 0
M  V30 3352 H 315.54 1.27499 -2.23834 0
M  V30 3353 H 315.498 2.80164 -1.42673 0
M  V30 3354 N 319.27 1.56325 -0.20005 0
M  V30 3355 C 320.217 2.1932 0.718833 0
M  V30 3356 C 321.187 1.14198 1.20615 0
M  V30 3357 O 322.372 1.42469 1.26914 0
M  V30 3358 C 319.512 2.86041 1.93066 0
M  V30 3359 C 318.625 4.05702 1.48425 0
M  V30 3360 C 317.76 4.60266 2.65196 0
M  V30 3361 C 316.799 5.72273 2.17185 0
M  V30 3362 N 315.936 6.21221 3.27152 0
M  V30 3363 H 320.776 2.97486 0.17489 0
M  V30 3364 H 318.313 1.46911 0.0745794 0
M  V30 3365 H 320.271 3.22897 2.64184 0
M  V30 3366 H 318.901 2.1043 2.44783 0
M  V30 3367 H 317.953 3.74475 0.668755 0
M  V30 3368 H 319.265 4.86699 1.09204 0
M  V30 3369 H 318.419 4.99453 3.4443 0
M  V30 3370 H 317.158 3.78386 3.07693 0
M  V30 3371 H 316.163 5.3261 1.36407 0
M  V30 3372 H 317.388 6.55974 1.75713 0
M  V30 3373 H 315.334 5.42263 3.69171 0
M  V30 3374 H 315.251 6.97284 2.92116 0
M  V30 3375 H 316.519 6.65063 4.06585 0
M  V30 3376 N 320.748 -0.0735177 1.57428 0
M  V30 3377 C 321.996 -0.771472 1.86796 0
M  V30 3378 C 322.317 -1.78201 0.791804 0
M  V30 3379 O 321.587 -1.95074 -0.179718 0
M  V30 3380 H 320.167 -0.28791 0.689287 0
M  V30 3381 H 322.829 -0.0500161 1.94836 0
M  V30 3382 H 321.925 -1.28874 2.8425 0
M  V30 3383 N 322.226 -1.5378 -0.344866 0
M  V30 3384 C 323.176 -1.78057 -1.42407 0
M  V30 3385 C 324.16 -0.635732 -1.47808 0
M  V30 3386 O 325.352 -0.89508 -1.527 0
M  V30 3387 C 322.481 -1.99242 -2.79566 0
M  V30 3388 C 321.567 -3.19787 -2.78562 0
M  V30 3389 N 321.958 -4.41284 -2.47189 0
M  V30 3390 C 320.256 -3.2093 -3.0971 0
M  V30 3391 C 320.957 -5.23128 -2.54385 0
M  V30 3392 N 319.933 -4.59813 -2.89953 0
M  V30 3393 H 323.735 -2.69588 -1.17046 0
M  V30 3394 H 321.249 -1.52687 -0.553217 0
M  V30 3395 H 323.246 -2.14768 -3.57324 0
M  V30 3396 H 321.906 -1.08953 -3.05875 0
M  V30 3397 H 322.917 -4.68657 -2.20411 0
M  V30 3398 H 319.594 -2.40603 -3.41199 0
M  V30 3399 H 320.984 -6.30096 -2.333 0
M  V30 3400 N 323.704 0.605807 -1.45491 0
M  V30 3401 C 324.934 1.38934 -1.52908 0
M  V30 3402 C 325.342 1.88513 -0.161086 0
M  V30 3403 O 324.685 1.62962 0.847891 0
M  V30 3404 C 324.747 2.62737 -2.45376 0
M  V30 3405 C 324.411 2.34785 -3.92078 0
M  V30 3406 C 325.408 1.95038 -4.8193 0
M  V30 3407 C 323.093 2.47642 -4.37011 0
M  V30 3408 C 325.087 1.68511 -6.14722 0
M  V30 3409 C 322.774 2.20728 -5.69844 0
M  V30 3410 C 323.772 1.81225 -6.58519 0
M  V30 3411 O 323.46 1.54627 -7.88889 0
M  V30 3412 H 323.192 0.431629 -0.520262 0
M  V30 3413 H 325.746 0.74573 -1.91384 0
M  V30 3414 H 323.976 3.29824 -2.01874 0
M  V30 3415 H 325.665 3.24783 -2.43456 0
M  V30 3416 H 326.431 1.84639 -4.48479 0
M  V30 3417 H 322.31 2.77356 -3.68232 0
M  V30 3418 H 325.854 1.37602 -6.83894 0
M  V30 3419 H 321.751 2.30744 -6.02849 0
M  V30 3420 H 322.519 1.68665 -8.00933 0
M  V30 3421 N 325.182 1.32811 0.848464 0
M  V30 3422 C 326.114 1.18095 1.96433 0
M  V30 3423 C 327.127 0.114354 1.62398 0
M  V30 3424 O 328.316 0.363892 1.74751 0
M  V30 3425 C 325.416 0.786798 3.2964 0
M  V30 3426 C 324.589 1.943 3.91875 0
M  V30 3427 C 323.648 1.53138 5.03423 0
M  V30 3428 O 322.674 2.24432 5.23086 0
M  V30 3429 N 323.876 0.430915 5.78898 0
M  V30 3430 H 326.641 2.14218 2.09597 0
M  V30 3431 H 324.202 1.2543 1.02367 0
M  V30 3432 H 326.194 0.493715 4.01677 0
M  V30 3433 H 324.764 -0.0834541 3.12489 0
M  V30 3434 H 323.984 2.40224 3.12547 0
M  V30 3435 H 325.272 2.71689 4.30189 0
M  V30 3436 H 324.67 -0.162333 5.65467 0
M  V30 3437 H 323.227 0.197466 6.51501 0
M  V30 3438 N 326.66 -1.06551 1.16123 0
M  V30 3439 C 327.608 -2.16063 0.861371 0
M  V30 3440 C 328.602 -1.6856 -0.168517 0
M  V30 3441 O 329.808 -1.79986 -0.0227579 0
M  V30 3442 H 326.183 -0.705278 0.260934 0
M  V30 3443 H 328.154 -2.38567 1.79244 0
M  V30 3444 C 326.903 -3.45661 0.376018 0
M  V30 3445 H 326.226 -3.82604 1.15992 0
M  V30 3446 H 327.666 -4.23504 0.204951 0
M  V30 3447 C 326.125 -3.24546 -0.903954 0
M  V30 3448 O 326.655 -3.49865 -1.97377 0
M  V30 3449 N 324.861 -2.77992 -0.846679 0
M  V30 3450 H 324.408 -2.57589 0.0241017 0
M  V30 3451 H 324.366 -2.64244 -1.70359 0
M  V30 3452 N 328.138 -0.959301 -1.25041 0
M  V30 3453 C 329.384 -0.617525 -1.9317 0
M  V30 3454 C 329.717 0.843981 -1.74902 0
M  V30 3455 O 328.992 1.60615 -1.09696 0
M  V30 3456 C 329.275 -0.982736 -3.46431 0
M  V30 3457 C 329.128 -2.50032 -3.73904 0
M  V30 3458 C 330.447 -0.511176 -4.37121 0
M  V30 3459 H 327.566 -0.22582 -0.701552 0
M  V30 3460 H 330.208 -1.19679 -1.4757 0
M  V30 3461 H 328.358 -0.489806 -3.854 0
M  V30 3462 H 330.03 -3.06737 -3.44544 0
M  V30 3463 H 328.273 -2.93598 -3.19348 0
M  V30 3464 H 328.944 -2.70635 -4.81103 0
M  V30 3465 H 331.42 -0.934075 -4.0548 0
M  V30 3466 H 330.296 -0.795361 -5.43107 0
M  V30 3467 H 330.557 0.588834 -4.38161 0
M  V30 3468 N 329.616 1.39756 -0.72842 0
M  V30 3469 C 330.862 2.00942 -0.273892 0
M  V30 3470 C 331.195 1.57656 1.13394 0
M  V30 3471 O 330.47 0.802434 1.77176 0
M  V30 3472 C 330.753 3.58211 -0.368346 0
M  V30 3473 C 330.606 4.11534 -1.81548 0
M  V30 3474 C 331.925 4.39372 0.253054 0
M  V30 3475 H 329.044 0.730047 -0.100996 0
M  V30 3476 H 331.686 1.66056 -0.923337 0
M  V30 3477 H 329.836 3.88061 0.184588 0
M  V30 3478 H 331.508 3.92431 -2.42478 0
M  V30 3479 H 329.751 3.65341 -2.33898 0
M  V30 3480 H 330.422 5.20682 -1.83288 0
M  V30 3481 H 332.898 4.15527 -0.218224 0
M  V30 3482 H 331.774 5.48677 0.156585 0
M  V30 3483 H 332.035 4.21358 1.33826 0
M  V30 3484 N 331.094 0.475555 1.50254 0
M  V30 3485 C 332.004 -0.321501 2.32387 0
M  V30 3486 C 333.02 -0.991755 1.42969 0
M  V30 3487 O 334.196 -0.978747 1.76018 0
M  V30 3488 C 331.261 -1.38667 3.17762 0
M  V30 3489 C 330.322 -0.732538 4.23004 0
M  V30 3490 C 329.555 -1.74695 5.04299 0
M  V30 3491 O 329.778 -2.97399 4.86734 0
M  V30 3492 O 328.712 -1.31631 5.8733 0
M  V30 3493 H 332.538 0.350071 3.01676 0
M  V30 3494 H 330.123 0.237321 1.47503 0
M  V30 3495 H 332.005 -2.00354 3.70724 0
M  V30 3496 H 330.68 -2.04163 2.51196 0
M  V30 3497 H 329.587 -0.0765902 3.74022 0
M  V30 3498 H 330.92 -0.120452 4.92053 0
M  V30 3499 N 332.573 -1.56217 0.208337 0
M  V30 3500 C 333.819 -1.98242 -0.427552 0
M  V30 3501 C 334.152 -1.09554 -1.60348 0
M  V30 3502 O 333.427 -0.15035 -1.93918 0
M  V30 3503 C 333.71 -3.4931 -0.874907 0
M  V30 3504 C 333.563 -4.48773 0.303751 0
M  V30 3505 C 334.882 -4.04424 -1.73577 0
M  V30 3506 H 332.001 -0.720744 -0.153936 0
M  V30 3507 H 334.643 -1.87586 0.30192 0
M  V30 3508 H 332.793 -3.58522 -1.49648 0
M  V30 3509 H 334.465 -4.51586 0.941682 0
M  V30 3510 H 332.708 -4.23194 0.953375 0
M  V30 3511 H 333.379 -5.51976 -0.0519883 0
M  V30 3512 H 335.855 -3.98075 -1.21143 0
M  V30 3513 H 334.731 -5.1047 -2.01771 0
M  V30 3514 H 334.992 -3.50494 -2.69456 0
M  V30 3515 N 334.051 0.0651679 -1.57465 0
M  V30 3516 C 335.467 0.420105 -1.53972 0
M  V30 3517 C 335.667 1.78782 -0.929474 0
M  V30 3518 O 334.723 2.46771 -0.534839 0
M  V30 3519 C 336.036 0.355084 -2.98596 0
M  V30 3520 C 337.584 0.434792 -3.09965 0
M  V30 3521 C 338.059 0.399609 -4.56253 0
M  V30 3522 N 339.55 0.459488 -4.60915 0
M  V30 3523 C 340.285 0.454584 -5.71595 0
M  V30 3524 N 339.781 0.404102 -6.9162 0
M  V30 3525 N 341.574 0.501635 -5.59857 0
M  V30 3526 H 333.725 -0.830328 -1.95498 0
M  V30 3527 H 335.988 -0.312244 -0.895102 0
M  V30 3528 H 335.694 -0.583357 -3.46828 0
M  V30 3529 H 335.568 1.16275 -3.58831 0
M  V30 3530 H 337.955 1.36366 -2.61703 0
M  V30 3531 H 338.036 -0.40157 -2.52628 0
M  V30 3532 H 337.68 -0.525436 -5.05175 0
M  V30 3533 H 337.61 1.25359 -5.11461 0
M  V30 3534 H 340.101 0.502482 -3.74544 0
M  V30 3535 H 340.414 0.404468 -7.71741 0
M  V30 3536 H 338.759 0.37069 -6.94011 0
M  V30 3537 H 341.95 0.538812 -4.64989 0
M  V30 3538 H 342.123 0.494345 -6.46112 0
M  V30 3539 N 335.529 1.53961 0.336706 0
M  V30 3540 C 336.439 1.85432 1.43708 0
M  V30 3541 C 337.455 0.745053 1.57242 0
M  V30 3542 O 338.631 1.03804 1.72588 0
M  V30 3543 C 335.696 2.06349 2.78605 0
M  V30 3544 C 334.757 3.30191 2.74358 0
M  V30 3545 C 333.99 3.50101 4.02822 0
M  V30 3546 O 334.213 2.7371 5.00439 0
M  V30 3547 O 333.147 4.43547 4.06878 0
M  V30 3548 H 336.973 2.78975 1.20028 0
M  V30 3549 H 334.558 1.39701 0.52952 0
M  V30 3550 H 336.44 2.21513 3.58483 0
M  V30 3551 H 335.115 1.15995 3.02203 0
M  V30 3552 H 334.022 3.20425 1.93078 0
M  V30 3553 H 335.355 4.2056 2.55715 0
M  V30 3554 N 337.007 -0.598083 1.45811 0
M  V30 3555 C 337.917 -1.73632 1.57763 0
M  V30 3556 C 338.933 -1.67763 0.461676 0
M  V30 3557 O 340.109 -1.87949 0.723685 0
M  V30 3558 C 337.174 -3.10114 1.55018 0
M  V30 3559 C 336.235 -3.27364 2.77726 0
M  V30 3560 C 335.468 -4.57334 2.75102 0
M  V30 3561 O 335.691 -5.40258 1.8297 0
M  V30 3562 O 334.625 -4.77502 3.66437 0
M  V30 3563 H 338.451 -1.66498 2.53992 0
M  V30 3564 H 336.036 -0.763308 1.28429 0
M  V30 3565 H 337.918 -3.9141 1.56129 0
M  V30 3566 H 336.593 -3.17718 0.619431 0
M  V30 3567 H 335.5 -2.45619 2.82174 0
M  V30 3568 H 336.833 -3.24641 3.69958 0
M  V30 3569 N 338.485 -1.33259 -0.841409 0
M  V30 3570 C 339.435 -1.19872 -1.93945 0
M  V30 3571 C 340.419 -0.102269 -1.60575 0
M  V30 3572 O 341.611 -0.330114 -1.73894 0
M  V30 3573 C 338.74 -0.937517 -3.30251 0
M  V30 3574 C 337.826 -2.07629 -3.69799 0
M  V30 3575 N 338.217 -3.32604 -3.81062 0
M  V30 3576 C 336.515 -1.98242 -3.9952 0
M  V30 3577 C 337.216 -4.07275 -4.15333 0
M  V30 3578 N 336.192 -3.35691 -4.27566 0
M  V30 3579 H 339.994 -2.14604 -2.00805 0
M  V30 3580 H 337.508 -1.2523 -1.03398 0
M  V30 3581 H 339.505 -0.822545 -4.08705 0
M  V30 3582 H 338.165 0.00128798 -3.247 0
M  V30 3583 H 339.176 -3.67382 -3.65035 0
M  V30 3584 H 335.853 -1.12005 -4.02195 0
M  V30 3585 H 337.243 -5.1511 -4.31406 0
M  V30 3586 N 339.963 1.05934 -1.16686 0
M  V30 3587 C 341.188 1.83029 -0.975455 0
M  V30 3588 C 341.613 1.82096 0.471452 0
M  V30 3589 O 340.971 1.22443 1.33706 0
M  V30 3590 C 341.019 3.27372 -1.51195 0
M  V30 3591 O 340.123 4.06054 -0.720701 0
M  V30 3592 H 339.464 0.566194 -0.346872 0
M  V30 3593 H 341.994 1.33541 -1.55009 0
M  V30 3594 H 342.004 3.78186 -1.53099 0
M  V30 3595 H 340.679 3.27366 -2.56523 0
M  V30 3596 H 339.256 3.64812 -0.772458 0
M  V30 3597 N 341.441 0.965919 1.2453 0
M  V30 3598 C 342.666 0.643971 1.97149 0
M  V30 3599 C 343.091 -0.779487 1.71189 0
M  V30 3600 O 342.449 -1.5288 0.974553 0
M  V30 3601 C 342.497 0.922557 3.48599 0
M  V30 3602 O 341.601 0.00707672 4.12399 0
M  V30 3603 H 340.942 0.243647 0.617683 0
M  V30 3604 H 343.472 1.29558 1.58353 0
M  V30 3605 H 343.482 0.853373 3.98976 0
M  V30 3606 H 342.157 1.95996 3.66822 0
M  V30 3607 H 340.734 0.12943 3.72675 0
M  V30 3608 N 342.919 -1.39368 0.735821 0
M  V30 3609 C 343.866 -2.30599 0.0963825 0
M  V30 3610 C 344.836 -1.49257 -0.728794 0
M  V30 3611 O 346.021 -1.77941 -0.688588 0
M  V30 3612 C 343.161 -3.35596 -0.804305 0
M  V30 3613 C 342.274 -4.31987 0.0335761 0
M  V30 3614 C 341.409 -5.24053 -0.868461 0
M  V30 3615 C 340.448 -6.12095 -0.0258776 0
M  V30 3616 N 339.585 -6.96514 -0.883893 0
M  V30 3617 H 344.425 -2.8471 0.880002 0
M  V30 3618 H 341.962 -1.40188 0.445619 0
M  V30 3619 H 343.92 -3.95062 -1.34096 0
M  V30 3620 H 342.55 -2.82938 -1.55389 0
M  V30 3621 H 341.602 -3.74133 0.68766 0
M  V30 3622 H 342.914 -4.94074 0.685036 0
M  V30 3623 H 342.068 -5.88549 -1.47293 0
M  V30 3624 H 340.807 -4.62289 -1.5537 0
M  V30 3625 H 339.812 -5.4661 0.591386 0
M  V30 3626 H 341.037 -6.75923 0.656156 0
M  V30 3627 H 338.983 -6.37318 -1.55441 0
M  V30 3628 H 338.9 -7.55448 -0.288931 0
M  V30 3629 H 340.168 -7.65439 -1.4739 0
M  V30 3630 N 344.397 -0.483516 -1.5 0
M  V30 3631 C 345.643 0.0672592 -2.02688 0
M  V30 3632 C 345.976 1.38247 -1.36387 0
M  V30 3633 O 345.251 1.88131 -0.493675 0
M  V30 3634 C 345.534 0.238109 -3.59312 0
M  V30 3635 C 345.387 -1.099 -4.36168 0
M  V30 3636 C 346.706 0.986916 -4.28892 0
M  V30 3637 H 343.825 0.0229696 -0.736642 0
M  V30 3638 H 346.467 -0.631527 -1.79197 0
M  V30 3639 H 344.617 0.8333 -3.79458 0
M  V30 3640 H 346.289 -1.73172 -4.27562 0
M  V30 3641 H 344.532 -1.69261 -3.99416 0
M  V30 3642 H 345.203 -0.932954 -5.44059 0
M  V30 3643 H 347.679 0.482302 -4.13295 0
M  V30 3644 H 346.555 1.07527 -5.38265 0
M  V30 3645 H 346.816 2.0265 -3.92919 0
M  V30 3646 N 345.875 1.56104 -0.216619 0
M  V30 3647 C 346.807 2.17339 0.72776 0
M  V30 3648 C 347.82 1.14109 1.16116 0
M  V30 3649 O 349.009 1.4111 1.09317 0
M  V30 3650 C 346.109 2.73818 1.99693 0
M  V30 3651 C 345.282 4.02168 1.71988 0
M  V30 3652 C 344.341 4.43259 2.83562 0
M  V30 3653 O 343.367 5.10257 2.52244 0
M  V30 3654 N 344.569 4.08535 4.12407 0
M  V30 3655 H 347.334 2.99005 0.203983 0
M  V30 3656 H 344.895 1.61861 -0.0354289 0
M  V30 3657 H 346.887 2.9828 2.73516 0
M  V30 3658 H 345.457 1.96483 2.43132 0
M  V30 3659 H 344.677 3.85612 0.818337 0
M  V30 3660 H 345.965 4.85907 1.50903 0
M  V30 3661 H 345.363 3.54687 4.40696 0
M  V30 3662 H 343.92 4.37901 4.8279 0
M  V30 3663 N 347.353 -0.0568162 1.57498 0
M  V30 3664 C 348.581 -0.765626 1.92213 0
M  V30 3665 C 348.996 -1.70353 0.813961 0
M  V30 3666 O 348.353 -1.81268 -0.211701 0
M  V30 3667 C 348.404 -1.5465 3.2675 0
M  V30 3668 O 348.125 -0.646278 4.33307 0
M  V30 3669 C 349.626 -2.35497 3.75574 0
M  V30 3670 H 346.846 -0.216835 0.634999 0
M  V30 3671 H 349.39 -0.0226146 2.04487 0
M  V30 3672 H 347.545 -2.24165 3.15957 0
M  V30 3673 H 347.959 -1.19093 5.108 0
M  V30 3674 H 349.433 -2.85722 4.72299 0
M  V30 3675 H 349.91 -3.15692 3.05344 0
M  V30 3676 H 350.516 -1.7111 3.8936 0
M  V30 3677 N 348.832 -1.54138 -0.328536 0
M  V30 3678 C 350.057 -1.76378 -1.09112 0
M  V30 3679 C 350.482 -0.508596 -1.81094 0
M  V30 3680 O 349.84 0.539598 -1.73084 0
M  V30 3681 C 349.888 -2.95358 -2.06872 0
M  V30 3682 O 348.992 -2.66556 -3.14677 0
M  V30 3683 H 348.333 -0.584614 -0.314838 0
M  V30 3684 H 350.863 -2.01146 -0.374348 0
M  V30 3685 H 350.873 -3.22566 -2.4983 0
M  V30 3686 H 349.548 -3.86385 -1.5388 0
M  V30 3687 H 348.125 -2.50282 -2.7643 0
M  V30 3688 N 350.31 0.590341 -1.46126 0
M  V30 3689 C 351.24 1.71032 -1.58966 0
M  V30 3690 C 352.221 1.64302 -0.440335 0
M  V30 3691 O 353.406 1.82436 -0.665634 0
M  V30 3692 C 350.536 3.09665 -1.57241 0
M  V30 3693 C 349.49 3.31221 -2.71066 0
M  V30 3694 C 348.816 4.70303 -2.54399 0
M  V30 3695 C 350.116 3.19796 -4.1295 0
M  V30 3696 H 351.81 1.60543 -2.52718 0
M  V30 3697 H 349.356 0.770933 -1.21625 0
M  V30 3698 H 351.309 3.87831 -1.64819 0
M  V30 3699 H 350.033 3.21036 -0.600289 0
M  V30 3700 H 348.692 2.55452 -2.62944 0
M  V30 3701 H 348.34 4.78429 -1.55288 0
M  V30 3702 H 348.04 4.85679 -3.30741 0
M  V30 3703 H 349.564 5.50647 -2.63857 0
M  V30 3704 H 350.978 3.87815 -4.22223 0
M  V30 3705 H 349.375 3.46696 -4.89818 0
M  V30 3706 H 350.445 2.16983 -4.33643 0
M  V30 3707 N 351.788 1.33704 0.83433 0
M  V30 3708 C 353.028 1.26754 1.60352 0
M  V30 3709 C 353.392 -0.163182 1.91305 0
M  V30 3710 O 354.593 -0.3567 2.66423 0
M  V30 3711 C 352.864 2.12262 2.8754 0
M  V30 3712 S 354.423 2.22549 3.78176 0
M  V30 3713 H 351.241 0.450879 0.549753 0
M  V30 3714 H 353.843 1.68788 0.986444 0
M  V30 3715 H 352.547 3.15238 2.62779 0
M  V30 3716 H 352.078 1.71082 3.54252 0
M  V30 3717 H 354.093 1.3899 4.76336 0
M  V30 3718 N 353.266 -1.05314 1.17247 0
M  V30 3719 C 354.677 -1.59753 0.96623 0
M  V30 3720 C 355.028 -1.9005 -0.487378 0
M  V30 3721 O 354.153 -1.68126 -1.36245 0
M  V30 3722 C 354.748 -2.90249 1.74759 0
M  V30 3723 C 353.307 -3.41352 1.58606 0
M  V30 3724 C 352.454 -2.15103 1.75002 0
M  V30 3725 H 355.405 -0.881406 1.31973 0
M  V30 3726 H 355.426 -3.60097 1.22925 0
M  V30 3727 H 354.938 -2.68166 2.8055 0
M  V30 3728 H 353.039 -3.68474 0.552985 0
M  V30 3729 H 353.152 -4.16019 2.37624 0
M  V30 3730 H 351.516 -2.25804 1.17833 0
M  V30 3731 H 352.299 -1.95491 2.82202 0
M  V30 3732 N 354.744 -0.972509 -1.24016 0
M  V30 3733 C 355.707 -0.511403 -2.23422 0
M  V30 3734 C 356.707 0.394679 -1.55881 0
M  V30 3735 O 357.897 0.189469 -1.73167 0
M  V30 3736 C 355.029 0.258769 -3.39916 0
M  V30 3737 H 356.222 -1.39024 -2.6573 0
M  V30 3738 H 353.775 -0.757585 -1.36713 0
M  V30 3739 H 354.51 1.1545 -3.03054 0
M  V30 3740 H 354.295 -0.391522 -3.9014 0
M  V30 3741 H 355.785 0.570244 -4.13688 0
M  V30 3742 N 356.222 1.38976 -0.743202 0
M  V30 3743 C 357.172 2.27843 -0.084513 0
M  V30 3744 C 358.156 1.44677 0.704094 0
M  V30 3745 O 359.348 1.67511 0.571755 0
M  V30 3746 C 356.477 3.33466 0.815781 0
M  V30 3747 C 355.563 4.24095 0.0208844 0
M  V30 3748 N 355.954 4.95609 -1.0102 0
M  V30 3749 C 354.252 4.45303 0.249293 0
M  V30 3750 C 354.953 5.62287 -1.49024 0
M  V30 3751 N 353.929 5.37571 -0.807377 0
M  V30 3752 H 357.731 2.80593 -0.87436 0
M  V30 3753 H 355.245 1.51755 -0.578283 0
M  V30 3754 H 357.242 3.96008 1.30321 0
M  V30 3755 H 355.902 2.82276 1.6047 0
M  V30 3756 H 356.913 4.98849 -1.39176 0
M  V30 3757 H 353.59 4.0504 1.01237 0
M  V30 3758 H 354.98 6.29519 -2.34853 0
M  V30 3759 N 357.7 0.491464 1.49741 0
M  V30 3760 C 358.632 -0.328609 2.26832 0
M  V30 3761 C 359.645 -0.939113 1.32983 0
M  V30 3762 O 360.834 -0.824067 1.58339 0
M  V30 3763 C 357.934 -1.47675 3.05033 0
M  V30 3764 C 357.107 -0.975305 4.26388 0
M  V30 3765 C 356.166 -1.99991 4.86714 0
M  V30 3766 O 355.192 -1.57229 5.47054 0
M  V30 3767 N 356.394 -3.32962 4.75517 0
M  V30 3768 H 359.159 0.332377 2.97851 0
M  V30 3769 H 356.72 0.323441 1.58636 0
M  V30 3770 H 358.712 -2.15954 3.42266 0
M  V30 3771 H 357.282 -2.04206 2.36683 0
M  V30 3772 H 356.502 -0.117723 3.94024 0
M  V30 3773 H 357.79 -0.618531 5.05026 0
M  V30 3774 H 357.188 -3.70399 4.27576 0
M  V30 3775 H 355.745 -3.96982 5.16961 0
M  V30 3776 N 359.178 -1.55987 0.224894 0
M  V30 3777 C 360.455 -1.90232 -0.455083 0
M  V30 3778 C 360.835 -1.14269 -1.77499 0
M  V30 3779 O 360.183 -0.253079 -2.27094 0
M  V30 3780 C 360.393 -3.42993 -0.644758 0
M  V30 3781 C 361.741 -4.13821 -0.950669 0
M  V30 3782 O 362.765 -3.4861 -0.731423 0
M  V30 3783 O 361.624 -5.29128 -1.36695 0
M  V30 3784 H 358.718 -0.79108 -0.241084 0
M  V30 3785 H 361.264 -1.67581 0.267327 0
M  V30 3786 H 360.036 -3.90252 0.28613 0
M  V30 3787 H 359.659 -3.71434 -1.41853 0
M  V30 3788 N 360.656 0.0484629 -1.57525 0
M  V30 3789 C 361.603 1.05504 -2.05275 0
M  V30 3790 C 362.573 1.37084 -0.937927 0
M  V30 3791 O 363.758 1.47754 -1.2072 0
M  V30 3792 C 360.898 2.35676 -2.52093 0
M  V30 3793 C 360.011 2.10423 -3.77288 0
M  V30 3794 C 359.146 3.34327 -4.12794 0
M  V30 3795 C 358.185 3.04542 -5.30962 0
M  V30 3796 N 357.322 4.20841 -5.61994 0
M  V30 3797 H 362.162 0.640885 -2.91027 0
M  V30 3798 H 359.699 0.304854 -1.43906 0
M  V30 3799 H 361.657 3.11709 -2.77297 0
M  V30 3800 H 360.287 2.7485 -1.69285 0
M  V30 3801 H 359.339 1.24976 -3.59284 0
M  V30 3802 H 360.651 1.84438 -4.63448 0
M  V30 3803 H 359.805 4.1874 -4.39024 0
M  V30 3804 H 358.544 3.63408 -3.25247 0
M  V30 3805 H 357.549 2.18528 -5.04505 0
M  V30 3806 H 358.774 2.76758 -6.20146 0
M  V30 3807 H 356.72 4.4991 -4.77406 0
M  V30 3808 H 356.637 3.98212 -6.42622 0
M  V30 3809 H 357.905 5.06184 -5.92789 0
M  V30 3810 N 362.134 1.5431 0.320358 0
M  V30 3811 C 363.064 1.86912 1.3995 0
M  V30 3812 C 364.045 0.726211 1.53819 0
M  V30 3813 O 365.23 0.980233 1.67646 0
M  V30 3814 C 362.36 2.09932 2.7667 0
M  V30 3815 C 361.314 3.25776 2.77586 0
M  V30 3816 C 360.64 3.34173 4.17412 0
M  V30 3817 C 361.94 4.6335 2.41048 0
M  V30 3818 H 363.634 2.77292 1.12914 0
M  V30 3819 H 361.18 1.33421 0.541738 0
M  V30 3820 H 363.133 2.31324 3.52232 0
M  V30 3821 H 361.857 1.16304 3.0519 0
M  V30 3822 H 360.516 3.04276 2.04479 0
M  V30 3823 H 360.164 2.38098 4.43078 0
M  V30 3824 H 359.864 4.12033 4.18931 0
M  V30 3825 H 361.388 3.57803 4.94782 0
M  V30 3826 H 362.802 4.84602 3.06324 0
M  V30 3827 H 361.199 5.43782 2.53813 0
M  V30 3828 H 362.269 4.65381 1.36193 0
M  V30 3829 N 363.613 -0.582584 1.46437 0
M  V30 3830 C 364.545 -1.70618 1.53043 0
M  V30 3831 C 365.558 -1.57322 0.418769 0
M  V30 3832 O 366.747 -1.64744 0.687136 0
M  V30 3833 C 363.847 -3.08869 1.39474 0
M  V30 3834 C 363.02 -3.48166 2.64762 0
M  V30 3835 C 362.079 -4.65478 2.4539 0
M  V30 3836 O 361.105 -4.71333 3.19114 0
M  V30 3837 N 362.307 -5.60365 1.51564 0
M  V30 3838 H 365.072 -1.65405 2.49923 0
M  V30 3839 H 362.633 -0.768567 1.42494 0
M  V30 3840 H 364.625 -3.85143 1.24287 0
M  V30 3841 H 363.195 -3.08449 0.507758 0
M  V30 3842 H 362.415 -2.61598 2.9489 0
M  V30 3843 H 363.703 -3.71188 3.4799 0
M  V30 3844 H 363.101 -5.5837 0.907705 0
M  V30 3845 H 361.658 -6.36068 1.4234 0
M  V30 3846 N 365.091 -1.34144 -0.827227 0
M  V30 3847 C 366.041 -1.21923 -1.92663 0
M  V30 3848 C 367.025 -0.119294 -1.60457 0
M  V30 3849 O 368.217 -0.348539 -1.73534 0
M  V30 3850 C 365.346 -0.972492 -3.29238 0
M  V30 3851 C 364.432 -2.1154 -3.67576 0
M  V30 3852 N 364.823 -3.36627 -3.77512 0
M  V30 3853 C 363.121 -2.02468 -3.97395 0
M  V30 3854 C 363.822 -4.11658 -4.1099 0
M  V30 3855 N 362.798 -3.40207 -4.23981 0
M  V30 3856 H 366.6 -2.16721 -1.98517 0
M  V30 3857 H 364.114 -1.2632 -1.02064 0
M  V30 3858 H 366.111 -0.865847 -4.0781 0
M  V30 3859 H 364.771 -0.0331509 -3.24683 0
M  V30 3860 H 365.782 -3.71234 -3.61118 0
M  V30 3861 H 362.459 -1.16265 -4.00985 0
M  V30 3862 H 363.849 -5.19657 -4.25918 0
M  V30 3863 N 366.569 1.04691 -1.17803 0
M  V30 3864 C 367.817 1.7743 -0.967617 0
M  V30 3865 C 368.138 1.88359 0.504574 0
M  V30 3866 O 367.408 1.40402 1.36617 0
M  V30 3867 H 365.988 0.657242 -0.355024 0
M  V30 3868 H 368.65 1.2638 -1.48371 0
M  V30 3869 H 367.746 2.78924 -1.40027 0
M  V30 3870 N 368.047 0.979072 1.23499 0
M  V30 3871 C 369.272 0.664845 1.96455 0
M  V30 3872 C 369.697 -0.761287 1.72006 0
M  V30 3873 O 369.055 -1.51837 0.990713 0
M  V30 3874 C 369.103 0.959479 3.47601 0
M  V30 3875 O 368.207 0.0508168 4.12369 0
M  V30 3876 H 367.548 0.250185 0.615064 0
M  V30 3877 H 370.078 1.31231 1.5697 0
M  V30 3878 H 370.088 0.895642 3.98048 0
M  V30 3879 H 368.763 1.99876 3.64723 0
M  V30 3880 H 367.34 0.16895 3.72517 0
M  V30 3881 N 369.525 -1.3858 0.750561 0
M  V30 3882 C 370.472 -2.30483 0.120835 0
M  V30 3883 C 371.442 -1.50022 -0.712923 0
M  V30 3884 O 372.627 -1.78662 -0.669676 0
M  V30 3885 C 369.767 -3.36431 -0.768666 0
M  V30 3886 C 368.88 -4.31927 0.0793922 0
M  V30 3887 C 368.015 -5.24944 -0.81283 0
M  V30 3888 C 367.054 -6.12088 0.0390447 0
M  V30 3889 N 366.191 -6.97412 -0.809969 0
M  V30 3890 H 371.031 -2.83761 0.91015 0
M  V30 3891 H 368.568 -1.39707 0.460463 0
M  V30 3892 H 370.526 -3.96462 -1.29898 0
M  V30 3893 H 369.156 -2.8457 -1.5238 0
M  V30 3894 H 368.208 -3.73382 0.727303 0
M  V30 3895 H 369.52 -4.93319 0.737401 0
M  V30 3896 H 368.674 -5.90078 -1.41042 0
M  V30 3897 H 367.413 -4.63911 -1.50458 0
M  V30 3898 H 366.418 -5.45952 0.649328 0
M  V30 3899 H 367.643 -6.75189 0.727809 0
M  V30 3900 H 365.589 -6.38931 -1.48672 0
M  V30 3901 H 365.506 -7.55712 -0.208789 0
M  V30 3902 H 366.774 -7.66959 -1.39263 0
M  V30 3903 N 371.003 -0.499398 -1.49478 0
M  V30 3904 C 372.28 0.108629 -1.95298 0
M  V30 3905 C 372.66 1.54282 -1.44084 0
M  V30 3906 O 372.008 2.18944 -0.653908 0
M  V30 3907 C 372.218 0.0229111 -3.48992 0
M  V30 3908 C 373.566 0.197643 -4.2414 0
M  V30 3909 O 374.59 0.0981735 -3.56065 0
M  V30 3910 O 373.449 0.401669 -5.45022 0
M  V30 3911 H 370.543 0.096181 -0.821388 0
M  V30 3912 H 373.089 -0.561822 -1.6013 0
M  V30 3913 H 371.861 -0.977321 -3.78899 0
M  V30 3914 H 371.484 0.733579 -3.90774 0
M  V30 3915 N 372.481 1.55866 -0.233164 0
M  V30 3916 C 373.73 1.97779 0.39579 0
M  V30 3917 C 374.043 1.12419 1.60066 0
M  V30 3918 O 375.249 1.44283 2.29988 0
M  V30 3919 C 373.705 3.5188 0.755556 0
M  V30 3920 C 373.313 4.45959 -0.427152 0
M  V30 3921 C 375.057 4.02479 1.34946 0
M  V30 3922 C 372.964 5.91383 -0.0443043 0
M  V30 3923 H 371.894 0.738592 0.15165 0
M  V30 3924 H 374.545 1.80486 -0.331212 0
M  V30 3925 H 372.927 3.64816 1.5403 0
M  V30 3926 H 374.101 4.44776 -1.20462 0
M  V30 3927 H 372.416 4.05765 -0.935068 0
M  V30 3928 H 375.013 5.08637 1.649 0
M  V30 3929 H 375.356 3.49014 2.26925 0
M  V30 3930 H 375.889 3.92813 0.62791 0
M  V30 3931 H 372.628 6.48857 -0.930874 0
M  V30 3932 H 372.148 5.95734 0.697238 0
M  V30 3933 H 373.827 6.45893 0.378334 0
M  V30 3934 N 373.959 -0.0401083 1.57549 0
M  V30 3935 C 375.206 -0.733125 1.88763 0
M  V30 3936 C 375.534 -1.75946 0.829058 0
M  V30 3937 O 374.789 -1.94949 -0.171323 0
M  V30 3938 C 375.088 -1.44902 3.26708 0
M  V30 3939 C 374.754 -0.559707 4.47413 0
M  V30 3940 C 373.416 -0.314731 4.8017 0
M  V30 3941 C 375.768 0.0549743 5.21171 0
M  V30 3942 C 373.096 0.553886 5.8408 0
M  V30 3943 C 375.448 0.911229 6.26003 0
M  V30 3944 C 374.112 1.16577 6.57241 0
M  V30 3945 H 373.382 -0.268269 0.690733 0
M  V30 3946 H 376.029 0.00679408 1.91499 0
M  V30 3947 H 374.334 -2.26197 3.1991 0
M  V30 3948 H 376.031 -1.99058 3.48105 0
M  V30 3949 H 372.621 -0.760793 4.21794 0
M  V30 3950 H 376.805 -0.121344 4.96152 0
M  V30 3951 H 372.061 0.759518 6.06664 0
M  V30 3952 H 376.235 1.3941 6.82303 0
M  V30 3953 H 373.862 1.84058 7.37582 0
M  V30 3954 N 375.437 -1.54477 -0.31217 0
M  V30 3955 C 376.662 -1.77526 -1.07235 0
M  V30 3956 C 377.087 -0.527775 -1.80544 0
M  V30 3957 O 376.445 0.52121 -1.73646 0
M  V30 3958 C 376.493 -2.97535 -2.03728 0
M  V30 3959 O 375.597 -2.69878 -3.11833 0
M  V30 3960 H 374.938 -0.58792 -0.30862 0
M  V30 3961 H 377.468 -2.01532 -0.352993 0
M  V30 3962 H 377.478 -3.25198 -2.46395 0
M  V30 3963 H 376.153 -3.87996 -1.49774 0
M  V30 3964 H 374.73 -2.53199 -2.7376 0
M  V30 3965 N 376.915 0.57481 -1.46744 0
M  V30 3966 C 378.143 1.35856 -1.56047 0
M  V30 3967 C 378.558 1.87691 -0.204365 0
M  V30 3968 O 377.915 1.64049 0.79963 0
M  V30 3969 C 377.966 2.54066 -2.57163 0
M  V30 3970 O 377.687 2.04377 -3.87507 0
M  V30 3971 C 379.188 3.46514 -2.76483 0
M  V30 3972 H 376.408 0.414754 -0.527466 0
M  V30 3973 H 378.952 0.698035 -1.92218 0
M  V30 3974 H 377.107 3.16092 -2.23974 0
M  V30 3975 H 377.521 2.81419 -4.4261 0
M  V30 3976 H 378.995 4.25919 -3.51137 0
M  V30 3977 H 379.472 3.98951 -1.83671 0
M  V30 3978 H 380.078 2.90318 -3.10799 0
M  V30 3979 N 378.394 1.34581 0.820102 0
M  V30 3980 C 379.326 1.22236 1.93884 0
M  V30 3981 C 380.339 0.148776 1.62119 0
M  V30 3982 O 381.528 0.400877 1.7394 0
M  V30 3983 C 378.628 0.856542 3.27897 0
M  V30 3984 C 377.801 2.02569 3.87666 0
M  V30 3985 C 376.86 1.63782 5.00062 0
M  V30 3986 O 375.886 2.35477 5.18208 0
M  V30 3987 N 377.088 0.553611 5.77854 0
M  V30 3988 H 379.853 2.18615 2.05006 0
M  V30 3989 H 377.414 1.27573 0.99683 0
M  V30 3990 H 379.406 0.578806 4.0054 0
M  V30 3991 H 377.976 -0.0171518 3.12595 0
M  V30 3992 H 377.196 2.468 3.07382 0
M  V30 3993 H 378.484 2.80752 4.24329 0
M  V30 3994 H 377.882 -0.0423528 5.65684 0
M  V30 3995 H 376.439 0.335614 6.50935 0
M  V30 3996 N 379.872 -1.04064 1.18357 0
M  V30 3997 C 381.149 -1.74252 0.888581 0
M  V30 3998 C 381.529 -2.02138 -0.60856 0
M  V30 3999 O 380.877 -1.66656 -1.56327 0
M  V30 4000 C 381.087 -3.0277 1.73584 0
M  V30 4001 C 382.435 -3.76506 1.96286 0
M  V30 4002 O 383.459 -3.12668 1.70637 0
M  V30 4003 O 382.318 -4.91243 2.39464 0
M  V30 4004 H 379.412 -0.758271 0.330082 0
M  V30 4005 H 381.958 -1.1013 1.2911 0
M  V30 4006 H 380.73 -2.78299 2.75073 0
M  V30 4007 H 380.353 -3.74631 1.33183 0
M  V30 4008 N 381.35 -0.985608 -1.22978 0
M  V30 4009 C 382.26 -0.538548 -2.28335 0
M  V30 4010 C 383.276 0.409163 -1.69121 0
M  V30 4011 O 384.452 0.277797 -1.99475 0
M  V30 4012 C 381.517 0.146867 -3.46389 0
M  V30 4013 C 380.578 -0.842896 -4.20944 0
M  V30 4014 C 379.811 -0.190095 -5.33361 0
M  V30 4015 O 380.034 1.01767 -5.61248 0
M  V30 4016 O 378.968 -0.891289 -5.95264 0
M  V30 4017 H 382.794 -1.41487 -2.68729 0
M  V30 4018 H 380.379 -0.753495 -1.29007 0
M  V30 4019 H 382.261 0.531125 -4.1804 0
M  V30 4020 H 380.936 0.997871 -3.07935 0
M  V30 4021 H 379.843 -1.27795 -3.51595 0
M  V30 4022 H 381.176 -1.66287 -4.6326 0
M  V30 4023 N 382.828 1.3818 -0.7579 0
M  V30 4024 C 383.758 2.33027 -0.148597 0
M  V30 4025 C 384.739 1.55085 0.69875 0
M  V30 4026 O 385.924 1.83384 0.639053 0
M  V30 4027 C 383.054 3.3928 0.742034 0
M  V30 4028 C 382.008 4.28 -0.00291946 0
M  V30 4029 C 381.334 5.25146 1.00625 0
M  V30 4030 C 382.634 5.08938 -1.17385 0
M  V30 4031 H 384.328 2.84231 -0.940909 0
M  V30 4032 H 381.874 1.36659 -0.453908 0
M  V30 4033 H 383.827 4.046 1.17799 0
M  V30 4034 H 382.551 2.86569 1.56671 0
M  V30 4035 H 381.21 3.64192 -0.419504 0
M  V30 4036 H 380.858 4.68721 1.8251 0
M  V30 4037 H 380.558 5.85361 0.512428 0
M  V30 4038 H 382.082 5.93342 1.44143 0
M  V30 4039 H 383.496 5.67474 -0.815224 0
M  V30 4040 H 381.893 5.7841 -1.59882 0
M  V30 4041 H 382.963 4.42424 -1.98468 0
M  V30 4042 N 384.306 0.507319 1.49211 0
M  V30 4043 C 385.236 -0.256939 2.32082 0
M  V30 4044 C 386.217 -0.956609 1.40652 0
M  V30 4045 O 387.402 -0.946788 1.69557 0
M  V30 4046 C 384.532 -1.31802 3.21318 0
M  V30 4047 C 383.486 -0.737855 4.21592 0
M  V30 4048 C 382.812 -1.89992 4.99807 0
M  V30 4049 C 384.112 0.275325 5.21574 0
M  V30 4050 H 385.806 0.434798 2.96226 0
M  V30 4051 H 383.352 0.210546 1.42452 0
M  V30 4052 H 385.305 -1.86045 3.78107 0
M  V30 4053 H 384.029 -2.03903 2.5513 0
M  V30 4054 H 382.688 -0.217126 3.65956 0
M  V30 4055 H 382.336 -2.60877 4.30061 0
M  V30 4056 H 382.036 -1.51777 5.6766 0
M  V30 4057 H 383.56 -2.44657 5.59442 0
M  V30 4058 H 384.974 -0.179193 5.7302 0
M  V30 4059 H 383.371 0.573649 5.97352 0
M  V30 4060 H 384.441 1.18903 4.70096 0
M  V30 4061 N 385.784 -1.5574 0.241426 0
M  V30 4062 C 387.03 -1.99104 -0.385406 0
M  V30 4063 C 387.363 -1.1293 -1.57988 0
M  V30 4064 O 386.638 -0.191449 -1.93555 0
M  V30 4065 C 386.921 -3.51087 -0.800616 0
M  V30 4066 C 386.774 -4.48028 0.398874 0
M  V30 4067 C 388.093 -4.08015 -1.64959 0
M  V30 4068 H 385.212 -0.723848 -0.138614 0
M  V30 4069 H 387.854 -1.86903 0.341642 0
M  V30 4070 H 386.004 -3.61615 -1.4201 0
M  V30 4071 H 387.676 -4.49487 1.03726 0
M  V30 4072 H 385.919 -4.21077 1.04293 0
M  V30 4073 H 386.59 -5.51962 0.0651056 0
M  V30 4074 H 389.066 -4.00555 -1.12672 0
M  V30 4075 H 387.942 -5.14635 -1.90898 0
M  V30 4076 H 388.203 -3.56131 -2.61961 0
M  V30 4077 N 387.262 0.0317525 -1.57568 0
M  V30 4078 C 388.492 0.733884 -1.93126 0
M  V30 4079 C 388.9 1.69563 -0.839352 0
M  V30 4080 O 388.243 1.82681 0.193175 0
M  V30 4081 C 388.305 1.54798 -3.24465 0
M  V30 4082 C 387.969 0.751304 -4.50782 0
M  V30 4083 C 388.966 0.0527632 -5.19873 0
M  V30 4084 C 386.651 0.706639 -4.97305 0
M  V30 4085 C 388.645 -0.679774 -6.33765 0
M  V30 4086 C 386.332 -0.0296449 -6.11093 0
M  V30 4087 C 387.33 -0.721614 -6.79177 0
M  V30 4088 O 387.018 -1.44595 -7.90789 0
M  V30 4089 H 386.75 0.211459 -0.642076 0
M  V30 4090 H 389.304 -0.00585615 -2.05399 0
M  V30 4091 H 387.534 2.33147 -3.08512 0
M  V30 4092 H 389.223 2.13247 -3.4537 0
M  V30 4093 H 389.989 0.0783188 -4.84937 0
M  V30 4094 H 385.868 1.23474 -4.44157 0
M  V30 4095 H 389.412 -1.22042 -6.86842 0
M  V30 4096 H 385.309 -0.0571331 -6.45475 0
M  V30 4097 H 386.077 -1.35935 -8.07133 0
M  V30 4098 N 388.74 1.54641 0.303973 0
M  V30 4099 C 389.688 1.86137 1.39484 0
M  V30 4100 C 390.682 0.734854 1.52631 0
M  V30 4101 O 391.888 0.918803 1.54784 0
M  V30 4102 H 388.263 0.590324 0.465856 0
M  V30 4103 H 390.234 2.77324 1.10154 0
M  V30 4104 C 388.983 2.12274 2.75382 0
M  V30 4105 H 388.306 2.98429 2.66046 0
M  V30 4106 H 389.746 2.38254 3.5073 0
M  V30 4107 C 388.205 0.920365 3.24085 0
M  V30 4108 O 388.735 0.139377 4.01458 0
M  V30 4109 N 386.941 0.726566 2.81371 0
M  V30 4110 H 386.488 1.36332 2.18567 0
M  V30 4111 H 386.446 -0.0763799 3.14307 0
M  V30 4112 N 390.218 -0.567019 1.47046 0
M  V30 4113 C 391.165 -1.67489 1.58796 0
M  V30 4114 C 392.135 -1.60399 0.43144 0
M  V30 4115 O 393.32 -1.79378 0.650233 0
M  V30 4116 C 390.46 -3.05821 1.59899 0
M  V30 4117 C 389.573 -3.2342 2.86397 0
M  V30 4118 C 388.708 -4.52093 2.789 0
M  V30 4119 C 387.747 -4.6309 4.00267 0
M  V30 4120 N 386.884 -5.83106 3.91064 0
M  V30 4121 H 391.724 -1.56785 2.53422 0
M  V30 4122 H 389.261 -0.763896 1.2571 0
M  V30 4123 H 391.219 -3.8591 1.58522 0
M  V30 4124 H 389.849 -3.15384 0.687929 0
M  V30 4125 H 388.901 -2.3683 2.97684 0
M  V30 4126 H 390.213 -3.27412 3.76301 0
M  V30 4127 H 389.367 -5.4043 2.75718 0
M  V30 4128 H 388.106 -4.50565 1.86662 0
M  V30 4129 H 387.111 -3.73168 4.03765 0
M  V30 4130 H 388.336 -4.66386 4.93621 0
M  V30 4131 H 386.282 -5.82546 3.01623 0
M  V30 4132 H 386.199 -5.88434 4.74638 0
M  V30 4133 H 387.467 -6.73831 3.91882 0
M  V30 4134 N 391.696 -1.35014 -0.812953 0
M  V30 4135 C 392.644 -1.27435 -1.94585 0
M  V30 4136 C 393.638 -0.170494 -1.6854 0
M  V30 4137 O 394.844 -0.336085 -1.76835 0
M  V30 4138 H 391.219 -0.396144 -0.639198 0
M  V30 4139 H 393.19 -2.23158 -1.98098 0
M  V30 4140 C 391.939 -1.05677 -3.31252 0
M  V30 4141 H 391.262 -1.89853 -3.51846 0
M  V30 4142 H 392.702 -1.04413 -4.10943 0
M  V30 4143 C 391.161 0.239615 -3.36047 0
M  V30 4144 O 391.691 1.23759 -3.8216 0
M  V30 4145 N 389.897 0.276186 -2.89285 0
M  V30 4146 H 389.444 -0.53653 -2.51951 0
M  V30 4147 H 389.402 1.14332 -2.92875 0
M  V30 4148 N 393.175 1.03435 -1.18907 0
M  V30 4149 C 394.107 2.1165 -0.879595 0
M  V30 4150 C 395.12 1.62316 0.125439 0
M  V30 4151 O 396.309 1.78201 -0.103245 0
M  V30 4152 C 393.409 3.37622 -0.294042 0
M  V30 4153 C 392.582 4.16166 -1.34629 0
M  V30 4154 C 391.641 5.20457 -0.775274 0
M  V30 4155 O 390.667 5.50379 -1.4516 0
M  V30 4156 N 391.869 5.78949 0.424126 0
M  V30 4157 H 394.634 2.38791 -1.81105 0
M  V30 4158 H 392.195 1.19681 -1.09032 0
M  V30 4159 H 394.187 4.04572 0.101679 0
M  V30 4160 H 392.757 3.07873 0.541575 0
M  V30 4161 H 391.977 3.44444 -1.91707 0
M  V30 4162 H 393.265 4.65432 -2.05549 0
M  V30 4163 H 392.663 5.56948 0.991209 0
M  V30 4164 H 391.22 6.47334 0.761691 0
M  V30 4165 N 394.653 0.992116 1.22453 0
M  V30 4166 C 395.603 0.512969 2.22155 0
M  V30 4167 C 396.587 -0.418416 1.55364 0
M  V30 4168 O 397.779 -0.245363 1.75291 0
M  V30 4169 C 394.908 -0.171822 3.4287 0
M  V30 4170 C 393.994 0.779822 4.16869 0
M  V30 4171 N 394.385 1.92734 4.6764 0
M  V30 4172 C 392.683 0.59554 4.42006 0
M  V30 4173 C 393.384 2.52458 5.24061 0
M  V30 4174 N 392.36 1.80735 5.12675 0
M  V30 4175 H 396.162 1.38817 2.5905 0
M  V30 4176 H 393.676 0.854277 1.38115 0
M  V30 4177 H 395.673 -0.532469 4.13486 0
M  V30 4178 H 394.333 -1.04317 3.07487 0
M  V30 4179 H 395.344 2.30816 4.63621 0
M  V30 4180 H 392.021 -0.229805 4.16867 0
M  V30 4181 H 393.411 3.49433 5.73887 0
M  V30 4182 N 396.131 -1.37776 0.765217 0
M  V30 4183 C 397.063 -2.28958 0.105361 0
M  V30 4184 C 398.076 -1.48316 -0.67128 0
M  V30 4185 O 399.265 -1.71046 -0.51045 0
M  V30 4186 C 396.365 -3.27421 -0.874569 0
M  V30 4187 C 395.538 -4.37132 -0.153123 0
M  V30 4188 C 394.597 -5.1571 -1.04547 0
M  V30 4189 O 393.623 -5.66896 -0.511672 0
M  V30 4190 N 394.825 -5.29808 -2.37243 0
M  V30 4191 H 397.59 -2.86227 0.888495 0
M  V30 4192 H 395.151 -1.49682 0.617 0
M  V30 4193 H 397.143 -3.7687 -1.47483 0
M  V30 4194 H 395.713 -2.70967 -1.55871 0
M  V30 4195 H 394.933 -3.89166 0.627975 0
M  V30 4196 H 396.221 -5.07625 0.345643 0
M  V30 4197 H 395.619 -4.89793 -2.83054 0
M  V30 4198 H 394.176 -5.82589 -2.9229 0
M  V30 4199 N 397.609 -0.515225 -1.4894 0
M  V30 4200 C 398.837 0.0206034 -2.0689 0
M  V30 4201 C 399.252 1.29514 -1.37374 0
M  V30 4202 O 398.609 1.76698 -0.456529 0
M  V30 4203 C 398.66 0.26351 -3.60538 0
M  V30 4204 O 398.381 -0.960517 -4.27441 0
M  V30 4205 C 399.882 0.841383 -4.35242 0
M  V30 4206 H 397.102 -0.0268608 -0.670462 0
M  V30 4207 H 399.646 -0.716651 -1.91532 0
M  V30 4208 H 397.801 0.950777 -3.75552 0
M  V30 4209 H 398.215 -0.73212 -5.19365 0
M  V30 4210 H 399.689 0.96085 -5.43573 0
M  V30 4211 H 400.166 1.8427 -3.98674 0
M  V30 4212 H 400.772 0.191143 -4.2487 0
M  V30 4213 N 399.087 1.5561 -0.249682 0
M  V30 4214 C 400.034 2.21496 0.648694 0
M  V30 4215 C 401.004 1.17977 1.16921 0
M  V30 4216 O 402.189 1.46434 1.22318 0
M  V30 4217 C 399.329 2.92039 1.83868 0
M  V30 4218 C 398.442 4.10219 1.35442 0
M  V30 4219 C 397.577 4.6847 2.50419 0
M  V30 4220 C 396.616 5.78893 1.98869 0
M  V30 4221 N 395.753 6.31315 3.07223 0
M  V30 4222 H 400.593 2.97892 0.0801582 0
M  V30 4223 H 398.13 1.47074 0.0278031 0
M  V30 4224 H 400.088 3.31138 2.53778 0
M  V30 4225 H 398.718 2.18111 2.37965 0
M  V30 4226 H 397.77 3.76413 0.54928 0
M  V30 4227 H 399.082 4.89927 0.936649 0
M  V30 4228 H 398.236 5.10158 3.28366 0
M  V30 4229 H 396.975 3.87984 2.95499 0
M  V30 4230 H 395.98 5.3668 1.19393 0
M  V30 4231 H 397.205 6.61232 1.54755 0
M  V30 4232 H 395.151 5.53733 3.51732 0
M  V30 4233 H 395.068 7.06224 2.69784 0
M  V30 4234 H 396.336 6.77662 3.8522 0
M  V30 4235 N 400.565 -0.0233959 1.57583 0
M  V30 4236 C 401.513 -1.04063 2.08023 0
M  V30 4237 C 402.507 -1.37084 0.995204 0
M  V30 4238 O 403.713 -1.35923 1.18004 0
M  V30 4239 H 400.088 -0.353144 0.663922 0
M  V30 4240 H 402.059 -0.589453 2.9252 0
M  V30 4241 C 400.808 -2.33123 2.57971 0
M  V30 4242 H 400.131 -2.08577 3.4108 0
M  V30 4243 H 401.571 -3.02632 2.96967 0
M  V30 4244 C 400.03 -3.02483 1.48342 0
M  V30 4245 O 400.56 -3.92541 0.852898 0
M  V30 4246 N 398.766 -2.63909 1.21658 0
M  V30 4247 H 398.313 -1.90758 1.73116 0
M  V30 4248 H 398.271 -3.10633 0.485218 0
M  V30 4249 N 402.043 -1.548 -0.295768 0
M  V30 4250 C 402.973 -1.89115 -1.36959 0
M  V30 4251 C 403.954 -0.75059 -1.52644 0
M  V30 4252 O 405.139 -1.00678 -1.66065 0
M  V30 4253 C 402.269 -2.14307 -2.73295 0
M  V30 4254 C 401.223 -3.30151 -2.72368 0
M  V30 4255 C 400.549 -3.40772 -4.12042 0
M  V30 4256 C 401.849 -4.67126 -2.33646 0
M  V30 4257 H 403.543 -2.79053 -1.08488 0
M  V30 4258 H 401.089 -1.34266 -0.520443 0
M  V30 4259 H 403.042 -2.36898 -3.48507 0
M  V30 4260 H 401.766 -1.21145 -3.03301 0
M  V30 4261 H 400.425 -3.0749 -1.99613 0
M  V30 4262 H 400.073 -2.45117 -4.39234 0
M  V30 4263 H 399.773 -4.18645 -4.12322 0
M  V30 4264 H 401.297 -3.6563 -4.89027 0
M  V30 4265 H 402.711 -4.89414 -2.98575 0
M  V30 4266 H 401.108 -5.47751 -2.45129 0
M  V30 4267 H 402.178 -4.67489 -1.28772 0
M  V30 4268 N 403.521 0.559213 -1.47345 0
M  V30 4269 C 404.469 1.68747 -1.60085 0
M  V30 4270 C 405.463 1.628 -0.46825 0
M  V30 4271 O 406.669 1.68009 -0.645977 0
M  V30 4272 H 403.044 0.558329 -0.503759 0
M  V30 4273 H 405.015 1.55138 -2.54902 0
M  V30 4274 C 403.764 3.07103 -1.63042 0
M  V30 4275 H 403.087 3.12361 -2.49541 0
M  V30 4276 H 404.527 3.85743 -1.76006 0
M  V30 4277 C 402.986 3.34935 -0.363357 0
M  V30 4278 O 403.516 3.98102 0.536416 0
M  V30 4279 N 401.722 2.89574 -0.244 0
M  V30 4280 H 401.269 2.38348 -0.977133 0
M  V30 4281 H 401.227 3.08566 0.602836 0
M  V30 4282 N 404.999 1.35443 0.805782 0
M  V30 4283 C 405.931 1.24285 1.92577 0
M  V30 4284 C 406.944 0.165962 1.61952 0
M  V30 4285 O 408.133 0.419303 1.73505 0
M  V30 4286 C 405.233 0.891272 3.2697 0
M  V30 4287 C 404.406 2.06669 3.85495 0
M  V30 4288 C 403.465 1.69077 4.98297 0
M  V30 4289 O 402.491 2.4096 5.15681 0
M  V30 4290 N 403.693 0.614869 5.77234 0
M  V30 4291 H 406.458 2.20777 2.02676 0
M  V30 4292 H 404.019 1.28623 0.983243 0
M  V30 4293 H 406.011 0.621256 3.99903 0
M  V30 4294 H 404.581 0.016004 3.12596 0
M  V30 4295 H 403.801 2.50046 3.04747 0
M  V30 4296 H 405.089 2.85237 4.21328 0
M  V30 4297 H 404.487 0.017648 5.65697 0
M  V30 4298 H 403.044 0.404636 6.50543 0
M  V30 4299 N 406.477 -1.02803 1.19454 0
M  V30 4300 C 407.754 -1.73299 0.907013 0
M  V30 4301 C 408.134 -2.02772 -0.587086 0
M  V30 4302 O 407.482 -1.68304 -1.54551 0
M  V30 4303 C 407.692 -3.00912 1.76785 0
M  V30 4304 C 409.04 -3.74403 2.00268 0
M  V30 4305 O 410.064 -3.10841 1.73943 0
M  V30 4306 O 408.923 -4.88675 2.4466 0
M  V30 4307 H 406.017 -0.754727 0.338106 0
M  V30 4308 H 408.563 -1.08754 1.30271 0
M  V30 4309 H 407.335 -2.75366 2.7801 0
M  V30 4310 H 406.958 -3.73197 1.37149 0
M  V30 4311 N 407.956 -0.998596 -1.21925 0
M  V30 4312 C 408.888 -0.511879 -2.23411 0
M  V30 4313 C 409.901 0.396094 -1.57908 0
M  V30 4314 O 411.09 0.197316 -1.77406 0
M  V30 4315 C 408.19 0.276802 -3.37768 0
M  V30 4316 C 407.363 -0.628687 -4.32858 0
M  V30 4317 C 406.422 0.109272 -5.26087 0
M  V30 4318 O 405.448 -0.507237 -5.66935 0
M  V30 4319 N 406.65 1.38983 -5.63617 0
M  V30 4320 H 409.415 -1.38457 -2.658 0
M  V30 4321 H 406.976 -0.873981 -1.36283 0
M  V30 4322 H 408.968 0.77928 -3.97126 0
M  V30 4323 H 407.538 1.05063 -2.94415 0
M  V30 4324 H 406.758 -1.31175 -3.71735 0
M  V30 4325 H 408.046 -1.24514 -4.93329 0
M  V30 4326 H 407.444 1.91194 -5.32411 0
M  V30 4327 H 406.001 1.83739 -6.25367 0
M  V30 4328 N 409.434 1.37368 -0.772513 0
M  V30 4329 C 410.366 2.28899 -0.117502 0
M  V30 4330 C 411.379 1.4867 0.663405 0
M  V30 4331 O 412.568 1.71314 0.501372 0
M  V30 4332 C 409.668 3.2788 0.857192 0
M  V30 4333 C 408.841 4.37207 0.129938 0
M  V30 4334 C 407.9 5.16257 1.01811 0
M  V30 4335 O 406.926 5.67159 0.481601 0
M  V30 4336 N 408.128 5.31058 2.3443 0
M  V30 4337 H 410.893 2.85752 -0.903662 0
M  V30 4338 H 408.454 1.49353 -0.62493 0
M  V30 4339 H 410.446 3.77647 1.45482 0
M  V30 4340 H 409.016 2.7179 1.54432 0
M  V30 4341 H 408.236 3.88827 -0.648605 0
M  V30 4342 H 409.524 5.07434 -0.372559 0
M  V30 4343 H 408.922 4.91287 2.80452 0
M  V30 4344 H 407.479 5.84131 2.89197 0
M  V30 4345 N 410.912 0.523116 1.48665 0
M  V30 4346 C 411.862 -0.263106 2.26477 0
M  V30 4347 C 412.846 -0.916005 1.32281 0
M  V30 4348 O 414.038 -0.819946 1.56863 0
M  V30 4349 C 411.167 -1.31361 3.17174 0
M  V30 4350 C 410.253 -0.665849 4.1884 0
M  V30 4351 N 410.644 0.244434 5.05209 0
M  V30 4352 C 408.942 -0.923863 4.36326 0
M  V30 4353 C 409.643 0.617443 5.78414 0
M  V30 4354 N 408.619 -0.0198686 5.43596 0
M  V30 4355 H 412.421 0.437295 2.90629 0
M  V30 4356 H 409.935 0.340675 1.58787 0
M  V30 4357 H 411.932 -1.89052 3.71571 0
M  V30 4358 H 410.592 -2.01546 2.54576 0
M  V30 4359 H 411.603 0.616621 5.14216 0
M  V30 4360 H 408.28 -1.6168 3.84923 0
M  V30 4361 H 409.67 1.36346 6.57921 0
M  V30 4362 N 412.39 -1.55475 0.257931 0
M  V30 4363 C 413.638 -1.98813 -0.363009 0
M  V30 4364 C 413.959 -1.14757 -1.57657 0
M  V30 4365 O 413.229 -0.232956 -1.9451 0
M  V30 4366 H 411.809 -0.734308 -0.137113 0
M  V30 4367 H 414.471 -1.9156 0.359281 0
M  V30 4368 H 413.567 -3.04941 -0.664634 0
M  V30 4369 N 413.868 0.0150385 -1.57593 0
M  V30 4370 C 415.284 0.370907 -1.5523 0
M  V30 4371 C 415.484 1.75735 -0.985882 0
M  V30 4372 O 414.54 2.44944 -0.613077 0
M  V30 4373 C 415.853 0.259908 -2.99575 0
M  V30 4374 C 417.401 0.335959 -3.11192 0
M  V30 4375 C 417.876 0.254253 -4.57294 0
M  V30 4376 N 419.367 0.312618 -4.62144 0
M  V30 4377 C 420.102 0.272505 -5.72752 0
M  V30 4378 N 419.598 0.183864 -6.92556 0
M  V30 4379 N 421.391 0.323267 -5.6117 0
M  V30 4380 H 413.542 -0.892104 -1.92757 0
M  V30 4381 H 415.805 -0.340563 -0.884715 0
M  V30 4382 H 415.511 -0.693403 -3.44797 0
M  V30 4383 H 415.385 1.048 -3.62349 0
M  V30 4384 H 417.772 1.27971 -2.65909 0
M  V30 4385 H 417.853 -0.481739 -2.51223 0
M  V30 4386 H 417.497 -0.685887 -5.03247 0
M  V30 4387 H 417.427 1.09024 -5.15191 0
M  V30 4388 H 419.918 0.38307 -3.75953 0
M  V30 4389 H 420.231 0.15874 -7.72637 0
M  V30 4390 H 418.576 0.149708 -6.94839 0
M  V30 4391 H 421.767 0.390607 -4.66467 0
M  V30 4392 H 421.94 0.288539 -6.47357 0
M  V30 4393 N 415.346 1.54954 0.287554 0
M  V30 4394 C 416.293 1.86834 1.35505 0
M  V30 4395 C 417.263 0.718452 1.49758 0
M  V30 4396 O 418.448 0.968358 1.644 0
M  V30 4397 C 415.588 2.13303 2.71286 0
M  V30 4398 C 414.701 3.40883 2.65373 0
M  V30 4399 C 413.836 3.57125 3.93236 0
M  V30 4400 C 412.875 4.78449 3.81776 0
M  V30 4401 N 412.012 4.91426 5.01443 0
M  V30 4402 H 416.852 2.77889 1.07619 0
M  V30 4403 H 414.389 1.37593 0.520241 0
M  V30 4404 H 416.347 2.26646 3.50267 0
M  V30 4405 H 414.977 1.25499 2.97405 0
M  V30 4406 H 414.029 3.36088 1.78182 0
M  V30 4407 H 415.341 4.29993 2.52799 0
M  V30 4408 H 414.495 3.70207 4.80658 0
M  V30 4409 H 413.234 2.66173 4.0866 0
M  V30 4410 H 412.239 4.65386 2.92738 0
M  V30 4411 H 413.464 5.70822 3.67884 0
M  V30 4412 H 411.41 4.03401 5.17304 0
M  V30 4413 H 411.327 5.74559 4.91343 0
M  V30 4414 H 412.595 5.08879 5.90477 0
M  V30 4415 N 416.824 -0.551391 1.4764 0
M  V30 4416 C 417.787 -1.64007 1.60107 0
M  V30 4417 C 418.787 -1.53601 0.47576 0
M  V30 4418 O 419.977 -1.57655 0.740988 0
M  V30 4419 C 417.109 -3.03569 1.55108 0
M  V30 4420 H 418.302 -1.543 2.57161 0
M  V30 4421 H 415.855 -0.771776 1.35917 0
M  V30 4422 H 416.59 -3.18804 0.594519 0
M  V30 4423 H 416.375 -3.12532 2.36783 0
M  V30 4424 H 417.865 -3.82762 1.66982 0
M  V30 4425 N 418.302 -1.35869 -0.798587 0
M  V30 4426 C 419.25 -1.29491 -1.93222 0
M  V30 4427 C 420.244 -0.18836 -1.6835 0
M  V30 4428 O 421.45 -0.354822 -1.76468 0
M  V30 4429 H 417.825 -0.402901 -0.63496 0
M  V30 4430 H 419.796 -2.25247 -1.9572 0
M  V30 4431 C 418.545 -1.09184 -3.30112 0
M  V30 4432 H 417.868 -1.93574 -3.49813 0
M  V30 4433 H 419.308 -1.08766 -4.09812 0
M  V30 4434 C 417.767 0.203959 -3.36282 0
M  V30 4435 O 418.297 1.19699 -3.83451 0
M  V30 4436 N 416.503 0.245488 -2.89561 0
M  V30 4437 H 416.05 -0.563223 -2.51367 0
M  V30 4438 H 416.008 1.11219 -2.94071 0
M  V30 4439 N 419.78 1.02168 -1.19998 0
M  V30 4440 C 420.727 2.10601 -0.944228 0
M  V30 4441 C 421.697 1.65639 0.123664 0
M  V30 4442 O 422.882 1.9079 -0.0199941 0
M  V30 4443 C 420.022 3.41504 -0.496865 0
M  V30 4444 C 419.135 3.99973 -1.63234 0
M  V30 4445 C 418.27 5.18915 -1.13579 0
M  V30 4446 C 417.309 5.69456 -2.24468 0
M  V30 4447 N 416.446 6.79665 -1.76068 0
M  V30 4448 H 421.286 2.31814 -1.8726 0
M  V30 4449 H 418.823 1.13686 -0.933483 0
M  V30 4450 H 420.781 4.16626 -0.218843 0
M  V30 4451 H 419.411 3.2038 0.394508 0
M  V30 4452 H 418.463 3.21997 -2.0254 0
M  V30 4453 H 419.775 4.33492 -2.46752 0
M  V30 4454 H 418.929 6.01222 -0.813429 0
M  V30 4455 H 417.668 4.8695 -0.270434 0
M  V30 4456 H 416.673 4.85757 -2.57526 0
M  V30 4457 H 417.898 6.03459 -3.11472 0
M  V30 4458 H 415.844 6.49538 -0.918516 0
M  V30 4459 H 415.761 7.12349 -2.5317 0
M  V30 4460 H 417.029 7.65549 -1.46817 0
M  V30 4461 N 421.258 1.00505 1.21394 0
M  V30 4462 C 422.507 0.683159 1.89778 0
M  V30 4463 C 422.82 -0.789471 1.7896 0
M  V30 4464 O 424.026 -1.22344 2.42372 0
M  V30 4465 C 422.482 1.17146 3.40301 0
M  V30 4466 C 422.09 2.67017 3.5973 0
M  V30 4467 C 423.834 0.924461 4.14311 0
M  V30 4468 C 421.741 3.09387 5.04017 0
M  V30 4469 H 420.671 0.25183 0.710702 0
M  V30 4470 H 423.322 1.21622 1.37406 0
M  V30 4471 H 421.704 0.566451 3.91928 0
M  V30 4472 H 422.878 3.32968 3.18542 0
M  V30 4473 H 421.193 2.89732 2.99073 0
M  V30 4474 H 423.79 1.21658 5.20676 0
M  V30 4475 H 424.133 -0.139286 4.16067 0
M  V30 4476 H 424.666 1.49226 3.6875 0
M  V30 4477 H 421.405 4.14989 5.07409 0
M  V30 4478 H 420.925 2.48149 5.46061 0
M  V30 4479 H 422.604 3.01371 5.72525 0
M  V30 4480 N 422.737 -1.36956 0.779787 0
M  V30 4481 C 423.962 -2.04283 0.358224 0
M  V30 4482 C 424.387 -1.58422 -1.01411 0
M  V30 4483 O 423.745 -0.748179 -1.65142 0
M  V30 4484 C 423.793 -3.58152 0.419479 0
M  V30 4485 O 422.897 -4.08342 -0.577142 0
M  V30 4486 H 422.238 -0.645967 0.153698 0
M  V30 4487 H 424.768 -1.75108 1.05822 0
M  V30 4488 H 424.778 -4.07041 0.279636 0
M  V30 4489 H 423.453 -3.90886 1.42061 0
M  V30 4490 H 422.03 -3.70751 -0.399755 0
M  V30 4491 N 424.215 -0.530993 -1.48385 0
M  V30 4492 C 425.445 -0.00133928 -2.066 0
M  V30 4493 C 425.853 1.28599 -1.38777 0
M  V30 4494 O 425.196 1.77599 -0.469495 0
M  V30 4495 C 425.258 0.292137 -3.58311 0
M  V30 4496 C 424.922 -0.901864 -4.48013 0
M  V30 4497 C 425.919 -1.80053 -4.87726 0
M  V30 4498 C 423.604 -1.10915 -4.89901 0
M  V30 4499 C 425.598 -2.89038 -5.68098 0
M  V30 4500 C 423.285 -2.20213 -5.70043 0
M  V30 4501 C 424.283 -3.09107 -6.0905 0
M  V30 4502 O 423.971 -4.16514 -6.87583 0
M  V30 4503 H 423.703 -0.0308475 -0.675296 0
M  V30 4504 H 426.257 -0.736335 -1.91748 0
M  V30 4505 H 424.487 1.08112 -3.7128 0
M  V30 4506 H 426.176 0.763994 -3.98645 0
M  V30 4507 H 426.942 -1.65234 -4.55986 0
M  V30 4508 H 422.821 -0.426498 -4.59023 0
M  V30 4509 H 426.365 -3.58451 -5.98464 0
M  V30 4510 H 422.262 -2.35016 -6.01197 0
M  V30 4511 H 423.03 -4.14237 -7.05939 0
M  V30 4512 N 425.693 1.55336 -0.266172 0
M  V30 4513 C 426.625 2.19544 0.658247 0
M  V30 4514 C 427.638 1.17746 1.12427 0
M  V30 4515 O 428.827 1.44517 1.04772 0
M  V30 4516 C 425.927 2.80032 1.9088 0
M  V30 4517 C 425.1 4.07436 1.59106 0
M  V30 4518 C 424.159 4.52056 2.69317 0
M  V30 4519 O 423.185 5.18023 2.35883 0
M  V30 4520 N 424.387 4.21448 3.99201 0
M  V30 4521 H 427.152 2.99503 0.108754 0
M  V30 4522 H 424.713 1.61667 -0.0869059 0
M  V30 4523 H 426.705 3.06831 2.63888 0
M  V30 4524 H 425.275 2.04119 2.36758 0
M  V30 4525 H 424.495 3.88021 0.695243 0
M  V30 4526 H 425.783 4.90462 1.35367 0
M  V30 4527 H 425.181 3.68528 4.29189 0
M  V30 4528 H 423.738 4.53039 4.68614 0
M  V30 4529 N 427.171 -0.0066808 1.57599 0
M  V30 4530 C 428.396 -0.707738 1.94951 0
M  V30 4531 C 428.821 -1.66882 0.867868 0
M  V30 4532 O 428.179 -1.80457 -0.17458 0
M  V30 4533 C 428.227 -1.42162 3.31394 0
M  V30 4534 O 427.331 -2.53578 3.25226 0
M  V30 4535 H 426.672 -0.188752 0.636607 0
M  V30 4536 H 429.202 0.0445193 2.04552 0
M  V30 4537 H 429.212 -1.78655 3.66806 0
M  V30 4538 H 427.887 -0.716903 4.09675 0
M  V30 4539 H 426.464 -2.19463 3.01481 0
M  V30 4540 N 428.649 -1.55105 -0.279332 0
M  V30 4541 C 429.874 -1.7976 -1.03446 0
M  V30 4542 C 430.299 -0.565952 -1.79384 0
M  V30 4543 O 429.657 0.484259 -1.74713 0
M  V30 4544 C 429.705 -3.0179 -1.97371 0
M  V30 4545 O 428.809 -2.76432 -3.06038 0
M  V30 4546 H 428.15 -0.594334 -0.29608 0
M  V30 4547 H 430.68 -2.02235 -0.310165 0
M  V30 4548 H 430.69 -3.30351 -2.39441 0
M  V30 4549 H 429.365 -3.91085 -1.4151 0
M  V30 4550 H 427.942 -2.58949 -2.68328 0
M  V30 4551 N 430.127 0.543554 -1.4793 0
M  V30 4552 C 431.352 1.32995 -1.59145 0
M  V30 4553 C 431.777 1.86472 -0.246956 0
M  V30 4554 O 431.135 1.63696 0.779324 0
M  V30 4555 C 431.183 2.46623 -2.63077 0
M  V30 4556 O 430.287 3.49261 -2.19295 0
M  V30 4557 H 429.628 0.394472 -0.534124 0
M  V30 4558 H 432.158 0.655489 -1.93816 0
M  V30 4559 H 432.168 2.93001 -2.83926 0
M  V30 4560 H 430.843 2.07059 -3.60693 0
M  V30 4561 H 429.42 3.09094 -2.08603 0
M  V30 4562 N 431.605 1.3629 0.791371 0
M  V30 4563 C 432.833 1.33562 1.58016 0
M  V30 4564 C 433.248 -0.0835616 1.88615 0
M  V30 4565 O 432.605 -1.0399 1.49974 0
M  V30 4566 C 432.656 2.15517 2.90232 0
M  V30 4567 O 432.377 3.51902 2.60953 0
M  V30 4568 C 433.878 2.20546 3.84544 0
M  V30 4569 H 431.098 0.458226 0.490173 0
M  V30 4570 H 433.642 1.79361 0.982345 0
M  V30 4571 H 431.797 1.73278 3.46487 0
M  V30 4572 H 432.211 3.94644 3.4548 0
M  V30 4573 H 433.685 2.82252 4.74382 0
M  V30 4574 H 434.162 1.20838 4.2225 0
M  V30 4575 H 434.768 2.63013 3.34222 0
M  V30 4576 N 433.083 -1.0153 1.20538 0
M  V30 4577 C 433.993 -2.13557 0.971113 0
M  V30 4578 C 435.009 -1.73845 -0.0734366 0
M  V30 4579 O 436.185 -2.01075 0.114299 0
M  V30 4580 C 433.25 -3.42661 0.527639 0
M  V30 4581 C 432.311 -3.96608 1.64319 0
M  V30 4582 C 431.544 -5.1955 1.22078 0
M  V30 4583 O 431.767 -5.70329 0.0900198 0
M  V30 4584 O 430.701 -5.66681 2.02871 0
M  V30 4585 H 434.527 -2.3619 1.90913 0
M  V30 4586 H 432.112 -1.11946 0.989362 0
M  V30 4587 H 433.994 -4.20404 0.289621 0
M  V30 4588 H 432.669 -3.21441 -0.381779 0
M  V30 4589 H 431.576 -3.20139 1.93551 0
M  V30 4590 H 432.909 -4.22219 2.52966 0
M  V30 4591 N 434.561 -1.01147 -1.20859 0
M  V30 4592 C 435.471 -0.58686 -2.27141 0
M  V30 4593 C 436.487 0.373198 -1.69951 0
M  V30 4594 O 437.663 0.235423 -2.00019 0
M  V30 4595 C 434.728 0.0733602 -3.46622 0
M  V30 4596 C 433.789 -0.931995 -4.19061 0
M  V30 4597 C 433.022 -0.303186 -5.32838 0
M  V30 4598 O 433.245 0.898395 -5.63281 0
M  V30 4599 O 432.179 -1.01735 -5.9324 0
M  V30 4600 H 436.005 -1.47155 -2.65667 0
M  V30 4601 H 433.59 -0.780689 -1.2738 0
M  V30 4602 H 435.472 0.442333 -4.19072 0
M  V30 4603 H 434.147 0.932329 -3.09983 0
M  V30 4604 H 433.054 -1.35224 -3.48805 0
M  V30 4605 H 434.387 -1.76076 -4.59628 0
M  V30 4606 N 436.039 1.36541 -0.78704 0
M  V30 4607 C 437.455 1.52571 -0.46844 0
M  V30 4608 C 437.655 1.7415 1.01361 0
M  V30 4609 O 436.711 1.77163 1.79915 0
M  V30 4610 C 438.024 2.71299 -1.29682 0
M  V30 4611 C 439.572 2.85169 -1.29027 0
M  V30 4612 C 440.047 4.06898 -2.10233 0
M  V30 4613 N 441.538 4.1404 -2.07666 0
M  V30 4614 C 442.273 5.07301 -2.67271 0
M  V30 4615 N 441.769 6.06021 -3.35724 0
M  V30 4616 N 443.562 4.99898 -2.57018 0
M  V30 4617 H 435.713 1.20788 -1.74711 0
M  V30 4618 H 437.976 0.589364 -0.742532 0
M  V30 4619 H 437.682 2.61868 -2.34773 0
M  V30 4620 H 437.556 3.6539 -0.936479 0
M  V30 4621 H 439.943 2.94062 -0.247284 0
M  V30 4622 H 440.024 1.91992 -1.69035 0
M  V30 4623 H 439.668 3.98766 -3.1456 0
M  V30 4624 H 439.598 4.99218 -1.67597 0
M  V30 4625 H 442.089 3.43357 -1.57843 0
M  V30 4626 H 442.402 6.73741 -3.78541 0
M  V30 4627 H 440.747 6.06253 -3.39826 0
M  V30 4628 H 443.938 4.21724 -2.03142 0
M  V30 4629 H 444.111 5.72392 -3.03761 0
M  V30 4630 N 437.518 0.538854 1.48102 0
M  V30 4631 C 438.934 0.19732 1.58376 0
M  V30 4632 C 439.134 -1.29971 1.5398 0
M  V30 4633 O 438.19 -2.07861 1.43352 0
M  V30 4634 C 439.503 0.807716 2.89649 0
M  V30 4635 C 441.051 0.77726 3.03196 0
M  V30 4636 C 441.526 1.36639 4.37143 0
M  V30 4637 N 443.017 1.32875 4.43732 0
M  V30 4638 C 443.752 1.7544 5.45901 0
M  V30 4639 N 443.248 2.25776 6.54979 0
M  V30 4640 N 445.041 1.66623 5.36836 0
M  V30 4641 H 437.192 1.5117 1.49202 0
M  V30 4642 H 439.455 0.629327 0.708979 0
M  V30 4643 H 439.161 1.85909 2.98548 0
M  V30 4644 H 439.035 0.289975 3.76084 0
M  V30 4645 H 441.422 -0.265374 2.93904 0
M  V30 4646 H 441.503 1.33256 2.18349 0
M  V30 4647 H 441.147 2.408 4.47189 0
M  V30 4648 H 441.077 0.786689 5.20691 0
M  V30 4649 H 443.568 0.96037 3.65493 0
M  V30 4650 H 443.881 2.56226 7.29087 0
M  V30 4651 H 442.226 2.29775 6.55918 0
M  V30 4652 H 445.417 1.27089 4.50517 0
M  V30 4653 H 445.59 2.00115 6.16326 0
M  V30 4654 N 438.996 -1.55193 0.274407 0
M  V30 4655 C 439.926 -2.25471 -0.607032 0
M  V30 4656 C 440.907 -1.24461 -1.15946 0
M  V30 4657 O 442.092 -1.53179 -1.19373 0
M  V30 4658 C 439.222 -2.97526 -1.79153 0
M  V30 4659 C 438.176 -4.05459 -1.37067 0
M  V30 4660 C 437.502 -4.65084 -2.6382 0
M  V30 4661 C 438.802 -5.19691 -0.521389 0
M  V30 4662 H 440.496 -2.99393 -0.0209343 0
M  V30 4663 H 438.042 -1.43997 -0.00862866 0
M  V30 4664 H 439.995 -3.45402 -2.41404 0
M  V30 4665 H 438.719 -2.21138 -2.40344 0
M  V30 4666 H 437.378 -3.58393 -0.771355 0
M  V30 4667 H 437.026 -3.85365 -3.23268 0
M  V30 4668 H 436.726 -5.37961 -2.36372 0
M  V30 4669 H 438.25 -5.15708 -3.26921 0
M  V30 4670 H 439.664 -5.63623 -1.04889 0
M  V30 4671 H 438.061 -5.99126 -0.341825 0
M  V30 4672 H 439.131 -4.82713 0.46 0
M  V30 4673 N 440.474 -0.00167713 -1.576 0
M  V30 4674 C 441.424 0.997744 -2.0501 0
M  V30 4675 C 442.408 1.30214 -0.94515 0
M  V30 4676 O 443.6 1.29284 -1.20891 0
M  V30 4677 C 440.729 2.2892 -2.55833 0
M  V30 4678 C 439.815 2.01437 -3.73208 0
M  V30 4679 N 440.206 1.44119 -4.84833 0
M  V30 4680 C 438.504 2.31571 -3.8117 0
M  V30 4681 C 439.205 1.33145 -5.66257 0
M  V30 4682 N 438.181 1.81763 -5.12312 0
M  V30 4683 H 441.983 0.549098 -2.88725 0
M  V30 4684 H 439.497 0.20398 -1.61114 0
M  V30 4685 H 441.494 3.01361 -2.88075 0
M  V30 4686 H 440.154 2.74436 -1.73537 0
M  V30 4687 H 441.165 1.11978 -5.0565 0
M  V30 4688 H 437.842 2.7995 -3.09732 0
M  V30 4689 H 439.232 0.890567 -6.65972 0
M  V30 4690 N 441.952 1.55251 0.271103 0
M  V30 4691 C 443.182 1.79713 1.01916 0
M  V30 4692 C 443.59 0.571613 1.80359 0
M  V30 4693 O 442.933 -0.468853 1.77616 0
M  V30 4694 C 442.995 2.97138 2.02359 0
M  V30 4695 C 442.659 4.34104 1.42837 0
M  V30 4696 C 443.656 5.13019 0.843071 0
M  V30 4697 C 441.341 4.80765 1.455 0
M  V30 4698 C 443.335 6.36729 0.292333 0
M  V30 4699 C 441.022 6.0443 0.900402 0
M  V30 4700 C 442.02 6.8225 0.32007 0
M  V30 4701 O 441.708 8.03582 -0.226031 0
M  V30 4702 H 441.44 0.602431 0.306681 0
M  V30 4703 H 443.994 2.03097 0.306701 0
M  V30 4704 H 442.224 2.6945 2.77369 0
M  V30 4705 H 443.913 3.08907 2.63309 0
M  V30 4706 H 444.679 4.781 0.815178 0
M  V30 4707 H 440.558 4.20202 1.89609 0
M  V30 4708 H 444.102 6.97414 -0.161274 0
M  V30 4709 H 439.999 6.3883 0.925541 0
M  V30 4710 H 440.767 8.18418 -0.115572 0
M  V30 4711 N 443.43 -0.535701 1.48216 0
M  V30 4712 C 444.678 -1.28928 1.55634 0
M  V30 4713 C 444.999 -1.93645 0.229514 0
M  V30 4714 O 444.269 -1.81038 -0.74846 0
M  V30 4715 H 442.849 -0.47884 0.573342 0
M  V30 4716 H 445.511 -0.623853 1.84646 0
M  V30 4717 H 444.607 -2.07157 2.33436 0
M  V30 4718 N 444.908 -1.36708 -0.784132 0
M  V30 4719 C 445.818 -1.3363 -1.92822 0
M  V30 4720 C 446.834 -0.237686 -1.72369 0
M  V30 4721 O 448.01 -0.470962 -1.95816 0
M  V30 4722 C 445.075 -1.13011 -3.27764 0
M  V30 4723 C 444.136 -2.32397 -3.60957 0
M  V30 4724 C 443.369 -2.12752 -4.89461 0
M  V30 4725 O 443.592 -1.10541 -5.59586 0
M  V30 4726 O 442.526 -3.00653 -5.21432 0
M  V30 4727 H 446.352 -2.29964 -1.98369 0
M  V30 4728 H 443.937 -1.1731 -0.925136 0
M  V30 4729 H 445.819 -1.03451 -4.08504 0
M  V30 4730 H 444.494 -0.19743 -3.23097 0
M  V30 4731 H 443.401 -2.47527 -2.80502 0
M  V30 4732 H 444.734 -3.2419 -3.70354 0
M  V30 4733 N 446.386 1.0089 -1.21074 0
M  V30 4734 C 447.334 2.11707 -0.963476 0
M  V30 4735 C 448.328 1.69172 0.0879032 0
M  V30 4736 O 449.534 1.79889 -0.0631415 0
M  V30 4737 H 445.909 0.692026 -0.294287 0
M  V30 4738 H 447.88 2.29743 -1.90422 0
M  V30 4739 C 446.629 3.43473 -0.540509 0
M  V30 4740 H 445.952 3.76634 -1.34114 0
M  V30 4741 H 447.392 4.22044 -0.406777 0
M  V30 4742 C 445.851 3.2849 0.748079 0
M  V30 4743 O 446.381 3.58883 1.8046 0
M  V30 4744 N 444.587 2.81715 0.713081 0
M  V30 4745 H 444.134 2.5718 -0.146973 0
M  V30 4746 H 444.092 2.72071 1.57558 0
M  V30 4747 N 447.864 1.01787 1.20321 0
M  V30 4748 C 449.112 0.706538 1.89347 0
M  V30 4749 C 449.433 -0.766289 1.79313 0
M  V30 4750 O 448.703 -1.55126 1.19635 0
M  V30 4751 H 447.283 0.258348 0.700903 0
M  V30 4752 H 449.945 1.28974 1.46122 0
M  V30 4753 H 449.041 0.991066 2.95946 0
M  V30 4754 N 449.342 -1.36122 0.79427 0
M  V30 4755 C 450.588 -1.99406 0.369452 0
M  V30 4756 C 450.921 -1.62886 -1.05743 0
M  V30 4757 O 450.196 -0.886053 -1.73145 0
M  V30 4758 C 450.479 -3.56046 0.538833 0
M  V30 4759 C 450.332 -4.02404 2.00976 0
M  V30 4760 C 451.651 -4.40079 -0.0431359 0
M  V30 4761 H 448.77 -0.724397 0.135712 0
M  V30 4762 H 451.412 -1.61461 1.00151 0
M  V30 4763 H 449.562 -3.885 0.000771004 0
M  V30 4764 H 451.234 -3.80415 2.60926 0
M  V30 4765 H 449.477 -3.53765 2.51063 0
M  V30 4766 H 450.148 -5.11344 2.07922 0
M  V30 4767 H 452.624 -4.14013 0.416228 0
M  V30 4768 H 451.5 -5.48799 0.105374 0
M  V30 4769 H 451.761 -4.27264 -1.13571 0
M  V30 4770 N 450.82 -0.546701 -1.47814 0
M  V30 4771 C 451.752 0.244196 -2.27895 0
M  V30 4772 C 452.765 0.88911 -1.36377 0
M  V30 4773 O 453.954 0.764733 -1.61289 0
M  V30 4774 C 451.054 1.36252 -3.10304 0
M  V30 4775 C 450.227 0.816382 -4.29714 0
M  V30 4776 C 449.286 1.81789 -4.93801 0
M  V30 4777 O 448.312 1.36818 -5.52512 0
M  V30 4778 N 449.514 3.15085 -4.87547 0
M  V30 4779 H 452.279 -0.442694 -2.96412 0
M  V30 4780 H 449.84 -0.382095 -1.57327 0
M  V30 4781 H 451.832 2.03102 -3.50045 0
M  V30 4782 H 450.402 1.95281 -2.44099 0
M  V30 4783 H 449.622 -0.0285981 -3.9419 0
M  V30 4784 H 450.91 0.430668 -5.06974 0
M  V30 4785 H 450.308 3.54275 -4.41028 0
M  V30 4786 H 448.865 3.77522 -5.31339 0
M  V30 4787 N 452.299 1.55045 -0.282633 0
M  V30 4788 C 453.246 2.22822 0.601566 0
M  V30 4789 C 454.216 1.20431 1.14392 0
M  V30 4790 O 455.401 1.48996 1.19184 0
M  V30 4791 C 452.541 2.95873 1.77632 0
M  V30 4792 C 451.654 4.12999 1.26711 0
M  V30 4793 C 450.789 4.73676 2.40426 0
M  V30 4794 C 449.828 5.82981 1.86545 0
M  V30 4795 N 448.965 6.3769 2.93762 0
M  V30 4796 H 453.805 2.97995 0.0169528 0
M  V30 4797 H 451.342 1.471 -0.00339964 0
M  V30 4798 H 453.3 3.36447 2.46697 0
M  V30 4799 H 451.93 2.2311 2.33285 0
M  V30 4800 H 450.982 3.77494 0.469314 0
M  V30 4801 H 452.294 4.91803 0.832518 0
M  V30 4802 H 451.448 5.17008 3.17471 0
M  V30 4803 H 450.187 3.94164 2.87203 0
M  V30 4804 H 449.192 5.39092 1.07983 0
M  V30 4805 H 450.417 6.64366 1.40694 0
M  V30 4806 H 448.363 5.61069 3.39908 0
M  V30 4807 H 448.28 7.11788 2.54744 0
M  V30 4808 H 449.548 6.8568 3.7076 0
M  V30 4809 N 453.777 0.010035 1.57597 0
M  V30 4810 C 455.054 -0.710296 1.82248 0
M  V30 4811 C 455.434 -1.91426 0.889911 0
M  V30 4812 O 454.782 -2.28424 -0.0590292 0
M  V30 4813 C 454.992 -1.10655 3.30993 0
M  V30 4814 C 456.34 -1.50621 3.96987 0
M  V30 4815 O 457.364 -1.20007 3.35375 0
M  V30 4816 O 456.223 -2.07587 5.05539 0
M  V30 4817 H 453.317 -0.34673 0.750804 0
M  V30 4818 H 455.863 0.0362578 1.69661 0
M  V30 4819 H 454.635 -0.248826 3.90508 0
M  V30 4820 H 454.258 -1.91189 3.48615 0
M  V30 4821 N 455.255 -1.55392 -0.262866 0
M  V30 4822 C 456.501 -1.76737 -0.99458 0
M  V30 4823 C 456.834 -0.572453 -1.85571 0
M  V30 4824 O 456.109 0.429732 -1.89693 0
M  V30 4825 C 456.392 -3.07824 -1.8686 0
M  V30 4826 C 456.245 -4.3769 -1.03672 0
M  V30 4827 C 457.564 -3.35021 -2.85393 0
M  V30 4828 H 454.683 -0.643005 -0.360157 0
M  V30 4829 H 457.325 -1.88126 -0.266216 0
M  V30 4830 H 455.475 -2.98245 -2.48962 0
M  V30 4831 H 457.147 -4.59238 -0.43563 0
M  V30 4832 H 455.39 -4.32461 -0.340513 0
M  V30 4833 H 456.061 -5.25759 -1.6817 0
M  V30 4834 H 458.537 -3.44458 -2.33426 0
M  V30 4835 H 457.413 -4.27989 -3.43681 0
M  V30 4836 H 457.674 -2.55153 -3.61039 0
M  V30 4837 N 456.733 0.527833 -1.48498 0
M  V30 4838 C 457.958 1.313 -1.60546 0
M  V30 4839 C 458.383 1.86199 -0.26672 0
M  V30 4840 O 457.741 1.64513 0.761918 0
M  V30 4841 C 457.789 2.43818 -2.65678 0
M  V30 4842 O 456.893 3.46916 -2.22987 0
M  V30 4843 H 456.234 0.388784 -0.538277 0
M  V30 4844 H 458.764 0.634896 -1.945 0
M  V30 4845 H 458.774 2.89973 -2.87018 0
M  V30 4846 H 457.449 2.03222 -3.62869 0
M  V30 4847 H 456.026 3.06864 -2.11869 0
M  V30 4848 N 458.211 1.37122 0.776871 0
M  V30 4849 C 459.143 1.28342 1.89897 0
M  V30 4850 C 460.156 0.200277 1.61563 0
M  V30 4851 O 461.345 0.456012 1.72577 0
M  V30 4852 C 458.445 0.960427 3.25006 0
M  V30 4853 C 457.618 2.148 3.81025 0
M  V30 4854 C 456.677 1.79608 4.94598 0
M  V30 4855 O 455.703 2.51845 5.10454 0
M  V30 4856 N 456.905 0.737171 5.758 0
M  V30 4857 H 459.67 2.25027 1.97947 0
M  V30 4858 H 457.231 1.3068 0.955739 0
M  V30 4859 H 459.223 0.705942 3.98495 0
M  V30 4860 H 457.793 0.0823066 3.12492 0
M  V30 4861 H 457.013 2.56454 2.99374 0
M  V30 4862 H 458.301 2.9411 4.15183 0
M  V30 4863 H 457.699 0.137637 5.65533 0
M  V30 4864 H 456.256 0.542534 6.49538 0
M  V30 4865 N 459.689 -1.00246 1.21608 0
M  V30 4866 C 460.914 -1.78167 1.06167 0
M  V30 4867 C 461.339 -1.84138 -0.384035 0
M  V30 4868 O 460.697 -1.28683 -1.27712 0
M  V30 4869 C 460.745 -3.19786 1.66642 0
M  V30 4870 O 459.849 -4.02153 0.913613 0
M  V30 4871 H 459.19 -0.549 0.37349 0
M  V30 4872 H 461.72 -1.25994 1.61204 0
M  V30 4873 H 461.73 -3.70451 1.70969 0
M  V30 4874 H 460.405 -3.14754 2.7185 0
M  V30 4875 H 458.982 -3.60711 0.945635 0
M  V30 4876 N 461.167 -1.02423 -1.1978 0
M  V30 4877 C 462.392 -0.7373 -1.93852 0
M  V30 4878 C 462.817 0.696923 -1.74713 0
M  V30 4879 O 462.175 1.48056 -1.04638 0
M  V30 4880 C 462.223 -1.08783 -3.438 0
M  V30 4881 O 461.327 -0.20383 -4.11896 0
M  V30 4882 H 460.668 -0.27284 -0.605355 0
M  V30 4883 H 463.198 -1.36966 -1.51992 0
M  V30 4884 H 463.208 -1.04276 -3.9445 0
M  V30 4885 H 461.883 -2.13274 -3.57053 0
M  V30 4886 H 460.46 -0.307091 -3.71633 0
M  V30 4887 N 462.645 1.35699 -0.801477 0
M  V30 4888 C 463.894 1.98165 -0.375979 0
M  V30 4889 C 464.207 1.64306 1.06127 0
M  V30 4890 O 465.413 2.20097 1.58964 0
M  V30 4891 C 463.869 3.54497 -0.621305 0
M  V30 4892 C 463.477 3.9727 -2.07076 0
M  V30 4893 C 465.221 4.23697 -0.26091 0
M  V30 4894 C 463.128 5.46427 -2.26211 0
M  V30 4895 H 462.058 0.741478 -0.136844 0
M  V30 4896 H 464.709 1.54834 -0.984814 0
M  V30 4897 H 463.091 3.95958 0.0574112 0
M  V30 4898 H 464.265 3.66974 -2.78687 0
M  V30 4899 H 462.58 3.40943 -2.39054 0
M  V30 4900 H 465.177 5.33334 -0.381994 0
M  V30 4901 H 465.52 4.0869 0.792344 0
M  V30 4902 H 466.053 3.87639 -0.893339 0
M  V30 4903 H 462.792 5.66396 -3.29963 0
M  V30 4904 H 462.312 5.78309 -1.59119 0
M  V30 4905 H 463.991 6.12819 -2.07513 0
M  V30 4906 N 464.123 0.554532 1.47522 0
M  V30 4907 C 465.353 0.0342074 2.06572 0
M  V30 4908 C 465.761 -1.26375 1.40805 0
M  V30 4909 O 465.104 -1.7683 0.49769 0
M  V30 4910 C 465.166 -0.235096 3.5873 0
M  V30 4911 C 464.83 0.973024 4.46521 0
M  V30 4912 C 465.827 1.8779 4.848 0
M  V30 4913 C 463.512 1.18694 4.88075 0
M  V30 4914 C 465.506 2.98039 5.63428 0
M  V30 4915 C 463.193 2.29254 5.66468 0
M  V30 4916 C 464.191 3.18757 6.04055 0
M  V30 4917 O 463.879 4.27401 6.8087 0
M  V30 4918 H 463.611 0.041587 0.67472 0
M  V30 4919 H 466.165 0.766748 1.90552 0
M  V30 4920 H 464.395 -1.02191 3.72953 0
M  V30 4921 H 466.084 -0.700477 3.9981 0
M  V30 4922 H 466.85 1.72467 4.53299 0
M  V30 4923 H 462.729 0.49947 4.58286 0
M  V30 4924 H 466.273 3.67926 5.92685 0
M  V30 4925 H 462.17 2.4455 5.97382 0
M  V30 4926 H 462.938 4.25415 6.9926 0
M  V30 4927 N 465.601 -1.54893 0.290851 0
M  V30 4928 C 466.826 -2.04804 -0.32712 0
M  V30 4929 C 467.251 -1.16721 -1.47506 0
M  V30 4930 O 466.609 -0.169107 -1.8051 0
M  V30 4931 C 466.657 -3.52268 -0.770689 0
M  V30 4932 O 465.761 -3.67236 -1.87647 0
M  V30 4933 H 465.102 -0.660789 -0.0652227 0
M  V30 4934 H 467.632 -2.00036 0.429739 0
M  V30 4935 H 467.642 -3.9393 -1.06223 0
M  V30 4936 H 466.317 -4.15843 0.069096 0
M  V30 4937 H 464.894 -3.37479 -1.58626 0
M  V30 4938 N 467.08 -0.0183926 -1.57589 0
M  V30 4939 C 468.012 0.995557 -2.06449 0
M  V30 4940 C 469.025 1.29556 -0.985849 0
M  V30 4941 O 470.214 1.2621 -1.26227 0
M  V30 4942 C 467.314 2.32572 -2.46502 0
M  V30 4943 C 466.487 2.21245 -3.77319 0
M  V30 4944 C 465.546 3.37104 -4.04039 0
M  V30 4945 O 464.572 3.14468 -4.74445 0
M  V30 4946 N 465.774 4.60553 -3.53372 0
M  V30 4947 H 468.539 0.578746 -2.94059 0
M  V30 4948 H 466.1 0.168603 -1.6102 0
M  V30 4949 H 468.092 3.08887 -2.61478 0
M  V30 4950 H 466.662 2.65931 -1.64315 0
M  V30 4951 H 465.882 1.29723 -3.72244 0
M  V30 4952 H 467.17 2.10868 -4.63047 0
M  V30 4953 H 466.568 4.81839 -2.96391 0
M  V30 4954 H 465.125 5.34072 -3.73644 0
M  V30 4955 N 468.558 1.5553 0.254621 0
M  V30 4956 C 469.786 1.81046 1.00149 0
M  V30 4957 C 470.201 0.593047 1.79244 0
M  V30 4958 O 469.558 -0.438196 1.77161 0
M  V30 4959 C 469.609 3.04684 1.94551 0
M  V30 4960 O 469.33 4.21725 1.18658 0
M  V30 4961 C 470.831 3.42943 2.80901 0
M  V30 4962 H 468.051 0.602653 0.295044 0
M  V30 4963 H 470.595 2.02576 0.279842 0
M  V30 4964 H 468.75 2.85226 2.62154 0
M  V30 4965 H 469.164 4.91746 1.82445 0
M  V30 4966 H 470.638 4.32576 3.42902 0
M  V30 4967 H 471.115 2.63176 3.51617 0
M  V30 4968 H 471.721 3.64724 2.18762 0
M  V30 4969 N 470.036 -0.519951 1.48776 0
M  V30 4970 C 470.946 -1.65025 1.66745 0
M  V30 4971 C 471.962 -1.6508 0.549954 0
M  V30 4972 O 473.138 -1.83848 0.822295 0
M  V30 4973 C 470.203 -3.0146 1.71238 0
M  V30 4974 C 469.264 -3.12182 2.94688 0
M  V30 4975 C 468.497 -4.42109 2.98958 0
M  V30 4976 O 468.72 -5.29799 2.1135 0
M  V30 4977 O 467.654 -4.57406 3.91233 0
M  V30 4978 H 471.48 -1.52801 2.62461 0
M  V30 4979 H 469.065 -0.694157 1.32294 0
M  V30 4980 H 470.947 -3.82584 1.76657 0
M  V30 4981 H 469.622 -3.13988 0.786975 0
M  V30 4982 H 468.529 -2.30316 2.94797 0
M  V30 4983 H 469.862 -3.04574 3.86646 0
M  V30 4984 N 471.514 -1.37532 -0.769588 0
M  V30 4985 C 472.424 -1.35668 -1.91393 0
M  V30 4986 C 473.44 -0.255954 -1.72107 0
M  V30 4987 O 474.616 -0.491704 -1.95305 0
M  V30 4988 C 471.681 -1.16481 -3.26547 0
M  V30 4989 C 470.742 -2.36212 -3.58472 0
M  V30 4990 C 469.975 -2.17932 -4.87177 0
M  V30 4991 O 470.198 -1.1647 -5.58382 0
M  V30 4992 O 469.132 -3.06167 -5.18214 0
M  V30 4993 H 472.958 -2.32055 -1.95918 0
M  V30 4994 H 470.543 -1.18284 -0.912641 0
M  V30 4995 H 472.425 -1.07778 -4.07384 0
M  V30 4996 H 471.1 -0.231687 -3.2287 0
M  V30 4997 H 470.007 -2.50488 -2.77861 0
M  V30 4998 H 471.34 -3.281 -3.66894 0
M  V30 4999 N 472.992 0.995999 -1.22138 0
M  V30 5000 C 473.939 2.08551 -0.988687 0
M  V30 5001 C 474.909 1.65864 0.0885021 0
M  V30 5002 O 476.094 1.90704 -0.0604589 0
M  V30 5003 C 473.234 3.40374 -0.569191 0
M  V30 5004 C 472.347 3.96421 -1.71681 0
M  V30 5005 C 471.482 5.1639 -1.2456 0
M  V30 5006 C 470.521 5.64567 -2.36497 0
M  V30 5007 N 469.658 6.75777 -1.90445 0
M  V30 5008 H 474.498 2.2779 -1.92135 0
M  V30 5009 H 472.035 1.1168 -0.957388 0
M  V30 5010 H 473.993 4.16068 -0.307166 0
M  V30 5011 H 472.623 3.21145 0.326462 0
M  V30 5012 H 471.675 3.17628 -2.09324 0
M  V30 5013 H 472.987 4.2816 -2.55891 0
M  V30 5014 H 472.141 5.99362 -0.940774 0
M  V30 5015 H 470.88 4.86266 -0.373662 0
M  V30 5016 H 469.885 4.80185 -2.67772 0
M  V30 5017 H 471.11 5.96716 -3.24202 0
M  V30 5018 H 469.056 6.47443 -1.05609 0
M  V30 5019 H 468.973 7.06818 -2.68223 0
M  V30 5020 H 470.241 7.62262 -1.63022 0
M  V30 5021 N 474.47 1.03057 1.19235 0
M  V30 5022 C 475.433 0.617418 2.20727 0
M  V30 5023 C 476.433 -0.319856 1.57587 0
M  V30 5024 O 477.623 -0.106633 1.73873 0
M  V30 5025 C 474.755 -0.096296 3.40764 0
M  V30 5026 H 475.948 1.51544 2.58794 0
M  V30 5027 H 473.501 0.821949 1.32942 0
M  V30 5028 H 474.236 -1.00859 3.08217 0
M  V30 5029 H 474.021 0.577217 3.87828 0
M  V30 5030 H 475.511 -0.372219 4.15938 0
M  V30 5031 N 475.948 -1.35272 0.808662 0
M  V30 5032 C 476.88 -2.28507 0.178149 0
M  V30 5033 C 477.893 -1.50377 -0.623754 0
M  V30 5034 O 479.082 -1.72583 -0.455774 0
M  V30 5035 C 476.182 -3.30038 -0.769959 0
M  V30 5036 C 475.355 -4.37398 -0.0139749 0
M  V30 5037 C 474.414 -5.18775 -0.880875 0
M  V30 5038 O 473.44 -5.68236 -0.331059 0
M  V30 5039 N 474.642 -5.37087 -2.20267 0
M  V30 5040 H 477.407 -2.83255 0.979106 0
M  V30 5041 H 474.968 -1.47643 0.664308 0
M  V30 5042 H 476.96 -3.81371 -1.35418 0
M  V30 5043 H 475.53 -2.75789 -1.47171 0
M  V30 5044 H 474.75 -3.86971 0.751468 0
M  V30 5045 H 476.038 -5.06268 0.506965 0
M  V30 5046 H 475.436 -4.9855 -2.67328 0
M  V30 5047 H 473.993 -5.91593 -2.73608 0
M  V30 5048 N 477.426 -0.562348 -1.47226 0
M  V30 5049 C 478.674 -0.0401371 -2.0206 0
M  V30 5050 C 478.995 1.3165 -1.43852 0
M  V30 5051 O 478.265 1.85976 -0.615599 0
M  V30 5052 H 476.845 -0.0118479 -0.746906 0
M  V30 5053 H 479.507 -0.73352 -1.8057 0
M  V30 5054 H 478.603 0.0441254 -3.12069 0
M  V30 5055 N 478.904 1.54736 -0.299062 0
M  V30 5056 C 479.851 2.23448 0.577899 0
M  V30 5057 C 480.821 1.21637 1.13109 0
M  V30 5058 O 482.006 1.50252 1.17597 0
M  V30 5059 C 479.146 2.9774 1.74484 0
M  V30 5060 C 478.259 4.1432 1.22323 0
M  V30 5061 C 477.394 4.76199 2.35388 0
M  V30 5062 C 476.433 5.84927 1.80351 0
M  V30 5063 N 475.57 6.4077 2.86982 0
M  V30 5064 H 480.41 2.97996 -0.0146545 0
M  V30 5065 H 477.947 1.47088 -0.0190013 0
M  V30 5066 H 479.905 3.39045 2.43114 0
M  V30 5067 H 478.535 2.25572 2.30905 0
M  V30 5068 H 477.587 3.7797 0.429249 0
M  V30 5069 H 478.899 4.92659 0.780309 0
M  V30 5070 H 478.053 5.20346 3.11969 0
M  V30 5071 H 476.792 3.97188 2.83006 0
M  V30 5072 H 475.797 5.40207 1.02259 0
M  V30 5073 H 477.022 6.65821 1.3364 0
M  V30 5074 H 474.968 5.64643 3.33938 0
M  V30 5075 H 474.885 7.1445 2.4718 0
M  V30 5076 H 476.153 6.89574 3.63466 0
M  V30 5077 N 480.382 0.0267497 1.57577 0
M  V30 5078 C 481.607 -0.666227 1.96408 0
M  V30 5079 C 482.032 -1.65004 0.903071 0
M  V30 5080 O 481.39 -1.80787 -0.136263 0
M  V30 5081 C 481.438 -1.35101 3.34335 0
M  V30 5082 O 480.542 -2.46623 3.30531 0
M  V30 5083 H 479.883 -0.175206 0.640468 0
M  V30 5084 H 482.413 0.0878977 2.04411 0
M  V30 5085 H 482.423 -1.70834 3.70513 0
M  V30 5086 H 481.098 -0.629844 4.11103 0
M  V30 5087 H 479.675 -2.13019 3.06068 0
M  V30 5088 N 481.861 -1.55662 -0.24637 0
M  V30 5089 C 482.793 -1.86811 -1.32794 0
M  V30 5090 C 483.806 -0.754413 -1.44265 0
M  V30 5091 O 484.995 -1.03253 -1.45606 0
M  V30 5092 C 482.095 -2.0397 -2.70646 0
M  V30 5093 C 481.268 -3.34832 -2.81436 0
M  V30 5094 C 480.327 -3.41727 -4.00136 0
M  V30 5095 O 479.353 -4.14934 -3.89639 0
M  V30 5096 N 480.555 -2.71058 -5.1333 0
M  V30 5097 H 483.32 -2.80174 -1.06409 0
M  V30 5098 H 480.881 -1.55906 -0.43647 0
M  V30 5099 H 482.873 -2.05924 -3.48393 0
M  V30 5100 H 481.443 -1.1735 -2.89738 0
M  V30 5101 H 480.663 -3.4519 -1.90361 0
M  V30 5102 H 481.951 -4.21085 -2.85595 0
M  V30 5103 H 481.349 -2.11314 -5.2475 0
M  V30 5104 H 479.906 -2.78704 -5.89209 0
M  V30 5105 N 483.339 0.512053 -1.4905 0
M  V30 5106 C 484.286 1.6148 -1.64902 0
M  V30 5107 C 485.256 1.58687 -0.490673 0
M  V30 5108 O 486.441 1.76842 -0.71636 0
M  V30 5109 C 483.581 2.99676 -1.71139 0
M  V30 5110 C 482.694 3.12568 -2.98203 0
M  V30 5111 C 481.829 4.4143 -2.95487 0
M  V30 5112 C 480.868 4.47916 -4.17179 0
M  V30 5113 N 480.005 5.68191 -4.12437 0
M  V30 5114 H 484.845 1.47271 -2.59066 0
M  V30 5115 H 482.382 0.716713 -1.28459 0
M  V30 5116 H 484.34 3.79761 -1.72736 0
M  V30 5117 H 482.97 3.12614 -0.804508 0
M  V30 5118 H 482.022 2.25618 -3.06269 0
M  V30 5119 H 483.334 3.1322 -3.88194 0
M  V30 5120 H 482.488 5.29825 -2.95585 0
M  V30 5121 H 481.227 4.43326 -2.03256 0
M  V30 5122 H 480.232 3.57925 -4.17337 0
M  V30 5123 H 481.457 4.47744 -5.1059 0
M  V30 5124 H 479.403 5.7095 -3.23036 0
M  V30 5125 H 479.32 5.70413 -4.96151 0
M  V30 5126 H 480.588 6.58823 -4.16621 0
M  V30 5127 N 484.817 1.37938 0.762283 0
M  V30 5128 C 485.749 1.30349 1.88525 0
M  V30 5129 C 486.762 0.217402 1.61342 0
M  V30 5130 O 487.951 0.474291 1.72084 0
M  V30 5131 C 485.051 0.994844 3.23969 0
M  V30 5132 C 484.224 2.18829 3.78725 0
M  V30 5133 C 483.283 1.84844 4.92665 0
M  V30 5134 O 482.309 2.57244 5.07754 0
M  V30 5135 N 483.511 0.798201 5.74986 0
M  V30 5136 H 486.276 2.27114 1.95549 0
M  V30 5137 H 483.837 1.31686 0.941825 0
M  V30 5138 H 485.829 0.748168 3.97724 0
M  V30 5139 H 484.399 0.115446 3.12387 0
M  V30 5140 H 483.619 2.59615 2.96637 0
M  V30 5141 H 484.907 2.98497 4.1204 0
M  V30 5142 H 484.305 0.197611 5.65355 0
M  V30 5143 H 482.862 0.611396 6.48926 0
M  V30 5144 N 486.295 -0.989507 1.22664 0
M  V30 5145 C 487.544 -1.72375 1.04737 0
M  V30 5146 C 487.857 -1.91096 -0.417316 0
M  V30 5147 O 489.063 -2.6188 -0.716334 0
M  V30 5148 C 487.519 -3.10161 1.82561 0
M  V30 5149 C 487.127 -2.99358 3.333 0
M  V30 5150 C 488.871 -3.87607 1.73093 0
M  V30 5151 C 486.778 -4.32319 4.03552 0
M  V30 5152 H 485.708 -0.646326 0.388302 0
M  V30 5153 H 488.359 -1.10437 1.46546 0
M  V30 5154 H 486.741 -3.728 1.33552 0
M  V30 5155 H 487.915 -2.45863 3.89728 0
M  V30 5156 H 486.23 -2.35392 3.43481 0
M  V30 5157 H 488.827 -4.86025 2.22899 0
M  V30 5158 H 489.17 -4.10509 0.691976 0
M  V30 5159 H 489.703 -3.31652 2.19663 0
M  V30 5160 H 486.442 -4.14616 5.07714 0
M  V30 5161 H 485.962 -4.85714 3.51911 0
M  V30 5162 H 487.641 -5.01051 4.09337 0
M  V30 5163 N 487.773 -1.03688 -1.18687 0
M  V30 5164 C 489.001 -0.757918 -1.92518 0
M  V30 5165 C 489.416 0.684398 -1.75959 0
M  V30 5166 O 488.773 1.46617 -1.08673 0
M  V30 5167 C 488.824 -1.10985 -3.44042 0
M  V30 5168 O 488.545 -2.49554 -3.60076 0
M  V30 5169 C 490.046 -0.854844 -4.3498 0
M  V30 5170 H 487.266 -0.276699 -0.611293 0
M  V30 5171 H 489.81 -1.38352 -1.50595 0
M  V30 5172 H 487.965 -0.529279 -3.83767 0
M  V30 5173 H 488.379 -2.6291 -4.53849 0
M  V30 5174 H 489.853 -1.15098 -5.39867 0
M  V30 5175 H 490.33 0.210507 -4.38695 0
M  V30 5176 H 490.936 -1.41853 -4.00946 0
M  V30 5177 N 489.251 1.34841 -0.815825 0
M  V30 5178 C 490.5 1.97755 -0.396976 0
M  V30 5179 C 490.813 1.65422 1.04379 0
M  V30 5180 O 492.019 2.21771 1.5662 0
M  V30 5181 C 490.475 3.53818 -0.658869 0
M  V30 5182 C 490.083 3.95051 -2.11278 0
M  V30 5183 C 491.827 4.23397 -0.305834 0
M  V30 5184 C 489.734 5.43997 -2.31994 0
M  V30 5185 H 488.664 0.739985 -0.1447 0
M  V30 5186 H 491.315 1.53781 -1.00118 0
M  V30 5187 H 489.697 3.95997 0.0154112 0
M  V30 5188 H 490.871 3.63998 -2.82564 0
M  V30 5189 H 489.186 3.38388 -2.42657 0
M  V30 5190 H 491.783 5.32899 -0.43854 0
M  V30 5191 H 492.126 4.09508 0.748952 0
M  V30 5192 H 492.659 3.8667 -0.934403 0
M  V30 5193 H 489.398 5.62865 -3.35952 0
M  V30 5194 H 488.918 5.76589 -1.65244 0
M  V30 5195 H 490.597 6.10584 -2.14001 0
M  V30 5196 N 490.729 0.570148 1.46925 0
M  V30 5197 C 492.14 0.1402 1.86173 0
M  V30 5198 C 492.491 -1.29347 1.47526 0
M  V30 5199 O 491.616 -1.97508 0.884292 0
M  V30 5200 C 492.211 0.247661 3.37894 0
M  V30 5201 C 490.77 -0.127332 3.76185 0
M  V30 5202 C 489.917 0.589349 2.70965 0
M  V30 5203 H 492.868 0.779117 1.38259 0
M  V30 5204 H 492.889 -0.530341 3.76786 0
M  V30 5205 H 492.401 1.29121 3.65991 0
M  V30 5206 H 490.502 -1.17149 3.53704 0
M  V30 5207 H 490.615 0.240238 4.78497 0
M  V30 5208 H 488.979 0.0309824 2.54681 0
M  V30 5209 H 489.762 1.6343 3.01903 0
M  V30 5210 N 492.207 -1.54576 0.307264 0
M  V30 5211 C 493.432 -2.05139 -0.305379 0
M  V30 5212 C 493.857 -1.18278 -1.46259 0
M  V30 5213 O 493.215 -0.188243 -1.8032 0
M  V30 5214 C 493.263 -3.53066 -0.733283 0
M  V30 5215 O 492.367 -3.69206 -1.83741 0
M  V30 5216 H 491.708 -0.661444 -0.0582105 0
M  V30 5217 H 494.238 -1.99569 0.450931 0
M  V30 5218 H 494.248 -3.95034 -1.02039 0
M  V30 5219 H 492.923 -4.15746 0.113198 0
M  V30 5220 H 491.5 -3.39143 -1.55037 0
M  V30 5221 N 493.685 -0.035106 -1.57561 0
M  V30 5222 C 494.617 0.973604 -2.07494 0
M  V30 5223 C 495.63 1.28504 -0.999534 0
M  V30 5224 O 496.819 1.24864 -1.27559 0
M  V30 5225 C 493.919 2.29945 -2.48955 0
M  V30 5226 C 493.092 2.1723 -3.79644 0
M  V30 5227 C 492.151 3.328 -4.07592 0
M  V30 5228 O 491.177 3.09418 -4.77754 0
M  V30 5229 N 492.379 4.56779 -3.58236 0
M  V30 5230 H 495.144 0.547525 -2.94656 0
M  V30 5231 H 492.705 0.151515 -1.61189 0
M  V30 5232 H 494.697 3.06097 -2.64739 0
M  V30 5233 H 493.267 2.64173 -1.67126 0
M  V30 5234 H 492.487 1.25768 -3.73599 0
M  V30 5235 H 493.775 2.05945 -4.65257 0
M  V30 5236 H 493.173 4.78668 -3.01485 0
M  V30 5237 H 491.73 5.30079 -3.79288 0
M  V30 5238 N 495.163 1.55791 0.238111 0
M  V30 5239 C 496.073 1.94196 1.31625 0
M  V30 5240 C 497.089 0.843545 1.52185 0
M  V30 5241 O 498.265 1.1457 1.65637 0
M  V30 5242 C 495.33 2.2365 2.64918 0
M  V30 5243 C 494.391 3.46971 2.52804 0
M  V30 5244 C 493.624 3.7501 3.79741 0
M  V30 5245 O 493.847 3.04982 4.82019 0
M  V30 5246 O 492.781 4.68525 3.77846 0
M  V30 5247 H 496.607 2.86044 1.02043 0
M  V30 5248 H 494.192 1.42786 0.439603 0
M  V30 5249 H 496.074 2.43863 3.4367 0
M  V30 5250 H 494.749 1.34979 2.94215 0
M  V30 5251 H 493.656 3.32055 1.72309 0
M  V30 5252 H 494.989 4.35971 2.28451 0
M  V30 5253 N 496.642 -0.504142 1.49319 0
M  V30 5254 C 497.574 -1.62265 1.61872 0
M  V30 5255 C 498.587 -1.54881 0.501573 0
M  V30 5256 O 499.776 -1.6087 0.773497 0
M  V30 5257 C 496.876 -3.01042 1.55651 0
M  V30 5258 C 496.049 -3.33642 2.82845 0
M  V30 5259 C 495.108 -4.51816 2.69719 0
M  V30 5260 O 494.134 -4.53755 3.4365 0
M  V30 5261 N 495.336 -5.51543 1.81055 0
M  V30 5262 H 498.101 -1.51924 2.58339 0
M  V30 5263 H 495.662 -0.691954 1.46368 0
M  V30 5264 H 497.654 -3.78013 1.44528 0
M  V30 5265 H 496.224 -3.05323 0.670546 0
M  V30 5266 H 495.444 -2.45598 3.08343 0
M  V30 5267 H 496.732 -3.5222 3.67177 0
M  V30 5268 H 496.13 -5.52774 1.20241 0
M  V30 5269 H 494.687 -6.27629 1.75856 0
M  V30 5270 N 498.12 -1.38341 -0.754957 0
M  V30 5271 C 499.03 -1.3769 -1.89944 0
M  V30 5272 C 500.046 -0.274194 -1.71826 0
M  V30 5273 O 501.222 -0.512391 -1.94773 0
M  V30 5274 C 498.287 -1.19938 -3.25293 0
M  V30 5275 C 497.348 -2.40001 -3.55946 0
M  V30 5276 C 496.581 -2.23087 -4.84838 0
M  V30 5277 O 496.804 -1.22386 -5.57116 0
M  V30 5278 O 495.738 -3.11646 -5.14937 0
M  V30 5279 H 499.564 -2.3412 -1.93446 0
M  V30 5280 H 497.149 -1.19246 -0.900044 0
M  V30 5281 H 499.031 -1.12093 -4.06218 0
M  V30 5282 H 497.706 -0.265919 -3.22606 0
M  V30 5283 H 496.613 -2.53421 -2.75188 0
M  V30 5284 H 497.946 -3.31973 -3.63394 0
M  V30 5285 N 499.598 0.982988 -1.23187 0
M  V30 5286 C 500.548 2.05962 -0.977942 0
M  V30 5287 C 501.532 1.60725 0.0751148 0
M  V30 5288 O 502.724 1.76471 -0.136683 0
M  V30 5289 C 499.853 3.38564 -0.568276 0
M  V30 5290 C 498.939 3.90407 -1.6566 0
M  V30 5291 N 499.33 4.15359 -2.88635 0
M  V30 5292 C 497.628 4.18915 -1.53058 0
M  V30 5293 C 498.329 4.57642 -3.5908 0
M  V30 5294 N 497.305 4.6192 -2.86584 0
M  V30 5295 H 501.107 2.23208 -1.91195 0
M  V30 5296 H 498.621 1.16555 -1.13087 0
M  V30 5297 H 500.618 4.15276 -0.36764 0
M  V30 5298 H 499.278 3.22712 0.358713 0
M  V30 5299 H 500.289 4.03258 -3.24966 0
M  V30 5300 H 496.966 4.12081 -0.670506 0
M  V30 5301 H 498.356 4.85488 -4.6449 0
M  V30 5302 N 501.076 1.04316 1.18135 0
M  V30 5303 C 502.301 0.768047 1.92655 0
M  V30 5304 C 502.726 -0.66904 1.758 0
M  V30 5305 O 502.084 -1.46372 1.06981 0
M  V30 5306 C 502.132 1.14239 3.42026 0
M  V30 5307 O 501.236 0.269333 4.1152 0
M  V30 5308 H 500.577 0.282436 0.600937 0
M  V30 5309 H 503.107 1.39367 1.49793 0
M  V30 5310 H 503.117 1.10538 3.92741 0
M  V30 5311 H 501.792 2.18928 3.53615 0
M  V30 5312 H 500.369 0.366175 3.71098 0
M  V30 5313 N 502.554 -1.34406 0.822964 0
M  V30 5314 C 503.486 -2.28305 0.202375 0
M  V30 5315 C 504.499 -1.5103 -0.60777 0
M  V30 5316 O 505.688 -1.73057 -0.437444 0
M  V30 5317 C 502.788 -3.30836 -0.734911 0
M  V30 5318 C 501.961 -4.37388 0.0324177 0
M  V30 5319 C 501.02 -5.1968 -0.825803 0
M  V30 5320 O 500.046 -5.68556 -0.270771 0
M  V30 5321 N 501.248 -5.39393 -2.14558 0
M  V30 5322 H 504.013 -2.82201 1.00909 0
M  V30 5323 H 501.574 -1.4693 0.67993 0
M  V30 5324 H 503.566 -3.82786 -1.31365 0
M  V30 5325 H 502.136 -2.77334 -1.44238 0
M  V30 5326 H 501.356 -3.86152 0.792469 0
M  V30 5327 H 502.644 -5.05702 0.560633 0
M  V30 5328 H 502.042 -5.01357 -2.62025 0
M  V30 5329 H 500.599 -5.94461 -2.67318 0
M  V30 5330 N 504.032 -0.577932 -1.46621 0
M  V30 5331 C 504.979 0.158048 -2.30258 0
M  V30 5332 C 505.949 0.888669 -1.40328 0
M  V30 5333 O 507.134 0.880283 -1.6928 0
M  V30 5334 C 504.274 1.16884 -3.24703 0
M  V30 5335 C 503.387 0.442163 -4.29731 0
M  V30 5336 C 502.522 1.44007 -5.11308 0
M  V30 5337 C 501.561 0.69952 -6.0809 0
M  V30 5338 N 500.698 1.64525 -6.82551 0
M  V30 5339 H 505.538 -0.561242 -2.92667 0
M  V30 5340 H 503.075 -0.288591 -1.44241 0
M  V30 5341 H 505.033 1.7677 -3.779 0
M  V30 5342 H 503.663 1.85591 -2.64113 0
M  V30 5343 H 502.715 -0.271632 -3.79429 0
M  V30 5344 H 504.027 -0.136992 -4.98612 0
M  V30 5345 H 503.181 2.11186 -5.68758 0
M  V30 5346 H 501.92 2.05315 -4.42377 0
M  V30 5347 H 500.925 0.0139217 -5.49798 0
M  V30 5348 H 502.15 0.091894 -6.79038 0
M  V30 5349 H 500.096 2.24653 -6.16334 0
M  V30 5350 H 500.013 1.11878 -7.47676 0
M  V30 5351 H 501.281 2.30754 -7.44562 0
M  V30 5352 N 505.51 1.54411 -0.315457 0
M  V30 5353 C 506.473 2.22713 0.54142 0
M  V30 5354 C 507.473 1.2179 1.04995 0
M  V30 5355 O 508.663 1.46426 0.943667 0
M  V30 5356 C 505.795 2.92485 1.75116 0
M  V30 5357 H 506.988 2.99849 -0.0555508 0
M  V30 5358 H 504.541 1.56159 -0.0664453 0
M  V30 5359 H 505.276 2.19466 2.38758 0
M  V30 5360 H 505.061 3.66483 1.39401 0
M  V30 5361 H 506.551 3.44548 2.35959 0
M  V30 5362 N 506.988 0.0434614 1.5754 0
M  V30 5363 C 507.936 -0.951465 2.1225 0
M  V30 5364 C 508.93 -1.3274 1.05245 0
M  V30 5365 O 510.136 -1.30795 1.23663 0
M  V30 5366 H 506.511 -0.324667 0.678303 0
M  V30 5367 H 508.482 -0.464855 2.94757 0
M  V30 5368 C 507.231 -2.21972 2.67626 0
M  V30 5369 H 506.554 -1.93923 3.4962 0
M  V30 5370 H 507.994 -2.89765 3.09536 0
M  V30 5371 C 506.453 -2.95919 1.61038 0
M  V30 5372 O 506.983 -3.8857 1.01862 0
M  V30 5373 N 505.189 -2.58511 1.32741 0
M  V30 5374 H 504.736 -1.83244 1.81051 0
M  V30 5375 H 504.694 -3.08296 0.616531 0
M  V30 5376 N 508.466 -1.55915 -0.229846 0
M  V30 5377 C 509.413 -1.91734 -1.28478 0
M  V30 5378 C 510.383 -0.773539 -1.46988 0
M  V30 5379 O 511.568 -1.02871 -1.60693 0
M  V30 5380 C 508.708 -2.23224 -2.63182 0
M  V30 5381 C 507.821 -3.50497 -2.52539 0
M  V30 5382 C 506.956 -3.71474 -3.79711 0
M  V30 5383 C 505.995 -4.92289 -3.63755 0
M  V30 5384 N 505.132 -5.09698 -4.82858 0
M  V30 5385 H 509.972 -2.81692 -0.972308 0
M  V30 5386 H 507.509 -1.39429 -0.468815 0
M  V30 5387 H 509.467 -2.3949 -3.41614 0
M  V30 5388 H 508.097 -1.36451 -2.92542 0
M  V30 5389 H 507.149 -3.4247 -1.65585 0
M  V30 5390 H 508.461 -4.39079 -2.36666 0
M  V30 5391 H 507.615 -3.87791 -4.66586 0
M  V30 5392 H 506.354 -2.81157 -3.985 0
M  V30 5393 H 505.359 -4.7593 -2.75264 0
M  V30 5394 H 506.584 -5.84083 -3.46445 0
M  V30 5395 H 504.53 -4.22322 -5.01976 0
M  V30 5396 H 504.447 -5.92399 -4.69681 0
M  V30 5397 H 505.715 -5.30443 -5.71183 0
M  V30 5398 N 509.944 0.496216 -1.49584 0
M  V30 5399 C 511.193 1.24668 -1.58558 0
M  V30 5400 C 511.506 1.9359 -0.279703 0
M  V30 5401 O 512.712 2.70365 -0.248048 0
M  V30 5402 C 511.168 2.26388 -2.79779 0
M  V30 5403 C 510.776 1.63384 -4.17145 0
M  V30 5404 C 512.52 3.02233 -2.98086 0
M  V30 5405 C 510.427 2.63243 -5.29582 0
M  V30 5406 H 509.357 0.468995 -0.590389 0
M  V30 5407 H 512.008 0.519985 -1.75978 0
M  V30 5408 H 510.39 3.02241 -2.55863 0
M  V30 5409 H 511.564 0.93491 -4.51216 0
M  V30 5410 H 509.879 0.999121 -4.04236 0
M  V30 5411 H 512.476 3.76919 -3.79257 0
M  V30 5412 H 512.819 3.60132 -2.08831 0
M  V30 5413 H 513.352 2.33495 -3.22063 0
M  V30 5414 H 510.091 2.10119 -6.20911 0
M  V30 5415 H 509.611 3.31363 -4.99959 0
M  V30 5416 H 511.29 3.25575 -5.59115 0
M  V30 5417 N 511.423 1.38739 0.74761 0
M  V30 5418 C 512.648 1.38702 1.54197 0
M  V30 5419 C 513.073 -0.019664 1.8809 0
M  V30 5420 O 512.431 -1.00333 1.51006 0
M  V30 5421 C 512.479 2.25492 2.814 0
M  V30 5422 O 511.583 1.67613 3.76802 0
M  V30 5423 H 510.924 0.472863 0.466151 0
M  V30 5424 H 513.454 1.82577 0.923413 0
M  V30 5425 H 513.464 2.39561 3.30264 0
M  V30 5426 H 512.139 3.27727 2.56062 0
M  V30 5427 H 510.716 1.62718 3.35526 0
M  V30 5428 N 512.901 -0.976442 1.23707 0
M  V30 5429 C 514.131 -1.75087 1.09673 0
M  V30 5430 C 514.539 -1.85852 -0.354344 0
M  V30 5431 O 513.882 -1.33985 -1.25673 0
M  V30 5432 C 513.944 -3.19272 1.65245 0
M  V30 5433 C 513.608 -3.32004 3.14042 0
M  V30 5434 C 514.605 -3.18017 4.11292 0
M  V30 5435 C 512.29 -3.56525 3.53829 0
M  V30 5436 C 514.284 -3.28363 5.46312 0
M  V30 5437 C 511.971 -3.6651 4.88993 0
M  V30 5438 C 512.969 -3.52439 5.85043 0
M  V30 5439 O 512.657 -3.62063 7.1775 0
M  V30 5440 H 512.389 -0.556164 0.384262 0
M  V30 5441 H 514.943 -1.23518 1.64111 0
M  V30 5442 H 513.173 -3.72107 1.05231 0
M  V30 5443 H 514.862 -3.7849 1.46629 0
M  V30 5444 H 515.628 -2.98966 3.81896 0
M  V30 5445 H 511.507 -3.66547 2.79579 0
M  V30 5446 H 515.051 -3.17297 6.21263 0
M  V30 5447 H 510.948 -3.85072 5.18063 0
M  V30 5448 H 511.716 -3.78833 7.25553 0
M  V30 5449 N 514.379 -1.04941 -1.1758 0
M  V30 5450 C 515.311 -0.606174 -2.21039 0
M  V30 5451 C 516.324 0.328763 -1.59446 0
M  V30 5452 O 517.513 0.121895 -1.78083 0
M  V30 5453 C 514.613 0.133294 -3.38638 0
M  V30 5454 C 513.786 -0.811711 -4.29802 0
M  V30 5455 C 512.845 -0.113958 -5.26077 0
M  V30 5456 O 511.871 -0.747237 -5.64274 0
M  V30 5457 N 513.073 1.14953 -5.69004 0
M  V30 5458 H 515.838 -1.49606 -2.59689 0
M  V30 5459 H 513.399 -0.930997 -1.32454 0
M  V30 5460 H 515.391 0.610144 -4.00074 0
M  V30 5461 H 513.961 0.924816 -2.98607 0
M  V30 5462 H 513.181 -1.46824 -3.65837 0
M  V30 5463 H 514.469 -1.45326 -4.87604 0
M  V30 5464 H 513.867 1.68441 -5.40041 0
M  V30 5465 H 512.424 1.57049 -6.32597 0
M  V30 5466 N 515.857 1.33968 -0.830081 0
M  V30 5467 C 517.082 2.02813 -0.433796 0
M  V30 5468 C 517.507 1.62076 0.954614 0
M  V30 5469 O 516.865 0.808955 1.62252 0
M  V30 5470 C 516.913 3.56348 -0.552115 0
M  V30 5471 O 516.017 4.10202 0.425191 0
M  V30 5472 H 515.358 0.639817 -0.177567 0
M  V30 5473 H 517.888 1.7106 -1.12248 0
M  V30 5474 H 517.898 4.05722 -0.430513 0
M  V30 5475 H 516.573 3.85344 -1.56471 0
M  V30 5476 H 515.15 3.71979 0.261878 0
M  V30 5477 N 517.335 0.585699 1.46312 0
M  V30 5478 C 518.56 0.0762461 2.0726 0
M  V30 5479 C 518.985 -1.22071 1.43109 0
M  V30 5480 O 518.343 -1.73804 0.515942 0
M  V30 5481 C 518.391 -0.0729404 3.60526 0
M  V30 5482 O 517.495 -1.1287 3.96654 0
M  V30 5483 H 516.836 0.0641558 0.660893 0
M  V30 5484 H 519.366 0.809492 1.87905 0
M  V30 5485 H 519.376 -0.278158 4.07051 0
M  V30 5486 H 518.051 0.874188 4.06609 0
M  V30 5487 H 516.628 -0.901703 3.61834 0
M  V30 5488 N 518.813 -1.54241 0.323641 0
M  V30 5489 C 520.038 -2.05452 -0.283605 0
M  V30 5490 C 520.463 -1.19823 -1.44997 0
M  V30 5491 O 519.821 -0.207358 -1.8011 0
M  V30 5492 C 519.869 -3.53823 -0.695795 0
M  V30 5493 O 518.973 -3.71134 -1.79815 0
M  V30 5494 H 518.314 -0.662024 -0.0511917 0
M  V30 5495 H 520.844 -1.99079 0.472073 0
M  V30 5496 H 520.854 -3.96094 -0.978434 0
M  V30 5497 H 519.529 -4.15602 0.157287 0
M  V30 5498 H 518.106 -3.40768 -1.51431 0
M  V30 5499 N 520.291 -0.0518155 -1.57515 0
M  V30 5500 C 521.519 0.631395 -1.9703 0
M  V30 5501 C 521.934 1.64341 -0.92938 0
M  V30 5502 O 521.291 1.82296 0.0863266 0
M  V30 5503 C 521.342 1.31774 -3.36627 0
M  V30 5504 O 521.063 0.346247 -4.3673 0
M  V30 5505 C 522.564 2.09065 -3.90905 0
M  V30 5506 H 519.784 0.172576 -0.648428 0
M  V30 5507 H 522.328 -0.118306 -2.04158 0
M  V30 5508 H 520.483 2.01867 -3.30649 0
M  V30 5509 H 520.897 0.836226 -5.17791 0
M  V30 5510 H 522.371 2.52508 -4.9086 0
M  V30 5511 H 522.848 2.93908 -3.26366 0
M  V30 5512 H 523.454 1.43882 -4.00223 0
M  V30 5513 N 521.769 1.56035 0.221574 0
M  V30 5514 C 522.679 1.95581 1.29558 0
M  V30 5515 C 523.695 0.859639 1.51282 0
M  V30 5516 O 524.871 1.16321 1.64413 0
M  V30 5517 C 521.936 2.26447 2.62531 0
M  V30 5518 C 520.997 3.49632 2.4911 0
M  V30 5519 C 520.23 3.79017 3.75742 0
M  V30 5520 O 520.453 3.10077 4.78757 0
M  V30 5521 O 519.387 4.72507 3.72855 0
M  V30 5522 H 523.213 2.8711 0.990035 0
M  V30 5523 H 520.798 1.43244 0.424434 0
M  V30 5524 H 522.68 2.47494 3.41064 0
M  V30 5525 H 521.355 1.38092 2.92766 0
M  V30 5526 H 520.262 3.33864 1.68777 0
M  V30 5527 H 521.595 4.3837 2.23814 0
M  V30 5528 N 523.247 -0.488276 1.49845 0
M  V30 5529 C 524.157 -1.61451 1.70207 0
M  V30 5530 C 525.173 -1.63877 0.584846 0
M  V30 5531 O 526.349 -1.82063 0.861107 0
M  V30 5532 C 523.414 -2.9776 1.77594 0
M  V30 5533 C 522.475 -3.05861 3.01243 0
M  V30 5534 C 521.708 -4.35668 3.08268 0
M  V30 5535 O 521.931 -5.25197 2.22541 0
M  V30 5536 O 520.865 -4.49005 4.00847 0
M  V30 5537 H 524.691 -1.47199 2.65643 0
M  V30 5538 H 522.276 -0.665939 1.33737 0
M  V30 5539 H 524.158 -3.7875 1.84732 0
M  V30 5540 H 522.833 -3.12248 0.8534 0
M  V30 5541 H 521.74 -2.24012 2.99616 0
M  V30 5542 H 523.073 -2.96304 3.9302 0
M  V30 5543 N 524.725 -1.39134 -0.740242 0
M  V30 5544 C 526.141 -1.20623 -1.0451 0
M  V30 5545 C 526.341 -0.0641651 -2.01398 0
M  V30 5546 O 525.397 0.585843 -2.4561 0
M  V30 5547 C 526.71 -2.53815 -1.6124 0
M  V30 5548 C 528.258 -2.60615 -1.73346 0
M  V30 5549 C 528.733 -3.94015 -2.33486 0
M  V30 5550 N 530.224 -3.95627 -2.40902 0
M  V30 5551 C 530.959 -4.95616 -2.88361 0
M  V30 5552 N 530.455 -6.06003 -3.35756 0
M  V30 5553 N 532.248 -4.82998 -2.87523 0
M  V30 5554 H 524.399 -2.12176 -0.0975576 0
M  V30 5555 H 526.662 -0.942066 -0.105904 0
M  V30 5556 H 526.368 -3.37911 -0.975144 0
M  V30 5557 H 526.242 -2.73162 -2.6012 0
M  V30 5558 H 528.629 -1.76906 -2.36195 0
M  V30 5559 H 528.71 -2.45123 -0.731336 0
M  V30 5560 H 528.354 -4.78153 -1.71267 0
M  V30 5561 H 528.284 -4.06825 -3.34366 0
M  V30 5562 H 530.775 -3.15903 -2.07398 0
M  V30 5563 H 531.088 -6.78215 -3.70464 0
M  V30 5564 H 529.433 -6.09604 -3.33778 0
M  V30 5565 H 532.624 -3.95866 -2.49816 0
M  V30 5566 H 532.797 -5.61072 -3.24196 0
M  V30 5567 N 526.204 0.969867 -1.24223 0
M  V30 5568 C 527.62 1.23809 -1.00716 0
M  V30 5569 C 527.82 1.99469 0.285358 0
M  V30 5570 O 526.876 2.31764 1.00207 0
M  V30 5571 C 528.189 2.02734 -2.2208 0
M  V30 5572 C 529.737 2.15834 -2.26681 0
M  V30 5573 C 530.212 2.98154 -3.47661 0
M  V30 5574 N 531.703 3.05737 -3.47964 0
M  V30 5575 C 532.438 3.69785 -4.38231 0
M  V30 5576 N 531.934 4.35569 -5.3875 0
M  V30 5577 N 533.727 3.66775 -4.25949 0
M  V30 5578 H 525.878 0.463294 -2.07286 0
M  V30 5579 H 528.141 0.267348 -0.909521 0
M  V30 5580 H 527.847 1.54524 -3.15935 0
M  V30 5581 H 527.721 3.0347 -2.24021 0
M  V30 5582 H 530.108 2.63248 -1.33359 0
M  V30 5583 H 530.189 1.14453 -2.28767 0
M  V30 5584 H 529.833 2.51435 -4.41297 0
M  V30 5585 H 529.763 3.99729 -3.42818 0
M  V30 5586 H 532.254 2.58941 -2.75242 0
M  V30 5587 H 532.567 4.82251 -6.03866 0
M  V30 5588 H 530.912 4.34244 -5.42639 0
M  V30 5589 H 534.103 3.14558 -3.46657 0
M  V30 5590 H 534.276 4.16407 -4.96497 0
M  V30 5591 N 527.682 1.05563 1.17022 0
M  V30 5592 C 528.612 0.681026 2.23348 0
M  V30 5593 C 529.593 -0.322983 1.67005 0
M  V30 5594 O 530.778 -0.199746 1.9317 0
M  V30 5595 C 527.908 0.0589053 3.4725 0
M  V30 5596 C 526.862 0.988082 4.16438 0
M  V30 5597 C 526.188 0.229646 5.34207 0
M  V30 5598 C 527.488 2.31388 4.68249 0
M  V30 5599 H 529.182 1.56993 2.54938 0
M  V30 5600 H 526.728 0.756302 1.2254 0
M  V30 5601 H 528.681 -0.214982 4.20851 0
M  V30 5602 H 527.405 -0.864968 3.14938 0
M  V30 5603 H 526.064 1.24659 3.44754 0
M  V30 5604 H 525.712 -0.697111 4.98146 0
M  V30 5605 H 525.412 0.848815 5.81437 0
M  V30 5606 H 526.936 -0.0368694 6.10589 0
M  V30 5607 H 528.35 2.09964 5.33468 0
M  V30 5608 H 526.747 2.88736 5.26072 0
M  V30 5609 H 527.817 2.94982 3.84855 0
M  V30 5610 N 529.16 -1.33526 0.837174 0
M  V30 5611 C 530.11 -2.2672 0.241269 0
M  V30 5612 C 531.094 -1.49183 -0.602756 0
M  V30 5613 O 532.286 -1.71052 -0.455002 0
M  V30 5614 C 529.415 -3.38294 -0.584125 0
M  V30 5615 C 528.501 -4.23231 0.271315 0
M  V30 5616 N 528.892 -4.87473 1.34922 0
M  V30 5617 C 527.19 -4.45962 0.0580589 0
M  V30 5618 C 527.891 -5.50685 1.87405 0
M  V30 5619 N 526.867 -5.30732 1.17578 0
M  V30 5620 H 530.669 -2.73903 1.06558 0
M  V30 5621 H 528.183 -1.47411 0.68145 0
M  V30 5622 H 530.18 -4.04044 -1.02731 0
M  V30 5623 H 528.84 -2.9266 -1.40643 0
M  V30 5624 H 529.851 -4.88077 1.7321 0
M  V30 5625 H 526.528 -4.11052 -0.730938 0
M  V30 5626 H 527.918 -6.11845 2.77661 0
M  V30 5627 N 530.638 -0.59345 -1.46 0
M  V30 5628 C 531.868 -0.0889642 -2.06408 0
M  V30 5629 C 532.276 1.22597 -1.44106 0
M  V30 5630 O 531.619 1.75448 -0.544398 0
M  V30 5631 C 531.681 0.139902 -3.59228 0
M  V30 5632 C 531.345 -1.09107 -4.43784 0
M  V30 5633 C 532.342 -2.00577 -4.79651 0
M  V30 5634 C 530.027 -1.31593 -4.84756 0
M  V30 5635 C 532.021 -3.12873 -5.55328 0
M  V30 5636 C 529.708 -2.44192 -5.60191 0
M  V30 5637 C 530.706 -3.34661 -5.95392 0
M  V30 5638 O 530.394 -4.45302 -6.69299 0
M  V30 5639 H 530.126 -0.0594613 -0.67338 0
M  V30 5640 H 532.68 -0.817 -1.88452 0
M  V30 5641 H 530.91 0.922672 -3.75531 0
M  V30 5642 H 532.599 0.594228 -4.01527 0
M  V30 5643 H 533.365 -1.84425 -4.48567 0
M  V30 5644 H 529.244 -0.620801 -4.56801 0
M  V30 5645 H 532.788 -3.83511 -5.82722 0
M  V30 5646 H 528.685 -2.60303 -5.90688 0
M  V30 5647 H 529.453 -4.43805 -6.87735 0
M  V30 5648 N 532.116 1.54067 -0.331816 0
M  V30 5649 C 533.364 2.00319 0.267739 0
M  V30 5650 C 533.685 1.22148 1.52003 0
M  V30 5651 O 532.955 0.325494 1.93177 0
M  V30 5652 H 531.535 0.740014 0.101922 0
M  V30 5653 H 534.197 1.89628 -0.450267 0
M  V30 5654 H 533.293 3.07765 0.518385 0
M  V30 5655 N 533.594 0.0601682 1.57485 0
M  V30 5656 C 534.504 -0.926121 2.15546 0
M  V30 5657 C 535.52 -1.33532 1.11558 0
M  V30 5658 O 536.696 -1.4104 1.4377 0
M  V30 5659 C 533.761 -2.17952 2.69625 0
M  V30 5660 C 532.822 -1.82783 3.88444 0
M  V30 5661 C 532.055 -3.02148 4.39935 0
M  V30 5662 O 532.278 -4.15803 3.90466 0
M  V30 5663 O 531.212 -2.82639 5.31412 0
M  V30 5664 H 535.038 -0.462289 3.00161 0
M  V30 5665 H 532.623 -0.162246 1.48516 0
M  V30 5666 H 534.505 -2.91474 3.04337 0
M  V30 5667 H 533.18 -2.63456 1.88077 0
M  V30 5668 H 532.087 -1.06549 3.58606 0
M  V30 5669 H 533.42 -1.42072 4.7125 0
M  V30 5670 N 535.072 -1.5615 -0.213296 0
M  V30 5671 C 536.02 -1.93953 -1.28394 0
M  V30 5672 C 537.014 -0.822592 -1.48087 0
M  V30 5673 O 538.22 -1.00748 -1.49164 0
M  V30 5674 H 534.595 -0.61648 -0.430646 0
M  V30 5675 H 536.566 -2.83275 -0.937977 0
M  V30 5676 C 535.315 -2.27969 -2.62537 0
M  V30 5677 H 534.638 -3.13432 -2.48194 0
M  V30 5678 H 536.078 -2.58297 -3.36242 0
M  V30 5679 C 534.537 -1.10775 -3.18167 0
M  V30 5680 O 535.067 -0.373201 -3.99963 0
M  V30 5681 N 533.273 -0.889377 -2.76656 0
M  V30 5682 H 532.82 -1.48843 -2.10246 0
M  V30 5683 H 532.778 -0.107 -3.14218 0
M  V30 5684 N 536.55 0.480323 -1.50102 0
M  V30 5685 C 537.798 1.23063 -1.60312 0
M  V30 5686 C 538.119 1.92659 -0.301226 0
M  V30 5687 O 537.389 1.83691 0.680753 0
M  V30 5688 H 535.969 0.457231 -0.590719 0
M  V30 5689 H 538.631 0.554893 -1.86834 0
M  V30 5690 H 537.727 1.9835 -2.40964 0
M  V30 5691 N 538.028 1.39524 0.732853 0
M  V30 5692 C 539.274 1.37068 1.49467 0
M  V30 5693 C 539.607 -0.0327166 1.94172 0
M  V30 5694 O 538.882 -0.998071 1.66939 0
M  V30 5695 C 539.165 2.34494 2.73285 0
M  V30 5696 C 539.018 3.83784 2.34585 0
M  V30 5697 C 540.337 2.29717 3.75391 0
M  V30 5698 H 537.456 0.499206 0.542183 0
M  V30 5699 H 540.098 1.70532 0.837783 0
M  V30 5700 H 538.248 2.06087 3.29333 0
M  V30 5701 H 539.92 4.22949 1.84151 0
M  V30 5702 H 538.163 4.00455 1.66787 0
M  V30 5703 H 538.834 4.47444 3.23262 0
M  V30 5704 H 541.31 2.54839 3.28932 0
M  V30 5705 H 540.186 2.99962 4.59689 0
M  V30 5706 H 540.447 1.30291 4.22465 0
M  V30 5707 N 539.506 -0.963266 1.24736 0
M  V30 5708 C 540.438 -2.06162 1.0015 0
M  V30 5709 C 541.451 -1.62771 -0.0305905 0
M  V30 5710 O 542.64 -1.77296 0.206966 0
M  V30 5711 C 539.74 -3.35333 0.490385 0
M  V30 5712 C 538.913 -4.07609 1.58663 0
M  V30 5713 C 537.972 -5.15052 1.0774 0
M  V30 5714 O 536.998 -5.4098 1.77002 0
M  V30 5715 N 538.2 -5.80436 -0.0858605 0
M  V30 5716 H 540.965 -2.27825 1.94719 0
M  V30 5717 H 538.526 -1.13121 1.15825 0
M  V30 5718 H 540.518 -4.04477 0.134371 0
M  V30 5719 H 539.088 -3.10507 -0.361155 0
M  V30 5720 H 538.308 -3.32681 2.11463 0
M  V30 5721 H 539.596 -4.52656 2.32336 0
M  V30 5722 H 538.994 -5.6178 -0.664806 0
M  V30 5723 H 537.551 -6.50674 -0.382981 0
M  V30 5724 N 540.985 -1.06182 -1.16461 0
M  V30 5725 C 541.932 -0.671613 -2.20812 0
M  V30 5726 C 542.902 0.331186 -1.62765 0
M  V30 5727 O 544.087 0.22033 -1.89524 0
M  V30 5728 C 541.227 -0.063029 -3.45042 0
M  V30 5729 C 540.34 -1.11587 -4.1734 0
M  V30 5730 C 539.475 -0.473546 -5.29085 0
M  V30 5731 C 538.514 -1.51 -5.93182 0
M  V30 5732 N 537.651 -0.891118 -6.96422 0
M  V30 5733 H 542.491 -1.56589 -2.53542 0
M  V30 5734 H 540.028 -0.782951 -1.24532 0
M  V30 5735 H 541.986 0.307344 -4.16066 0
M  V30 5736 H 540.616 0.794663 -3.12866 0
M  V30 5737 H 539.668 -1.60396 -3.44931 0
M  V30 5738 H 540.98 -1.90221 -4.61104 0
M  V30 5739 H 540.134 -0.0501432 -6.06679 0
M  V30 5740 H 538.873 0.344687 -4.8648 0
M  V30 5741 H 537.878 -1.94331 -5.14311 0
M  V30 5742 H 539.103 -2.33031 -6.37866 0
M  V30 5743 H 537.049 -0.0935753 -6.55933 0
M  V30 5744 H 536.966 -1.61486 -7.38551 0
M  V30 5745 H 538.234 -0.492822 -7.77941 0
M  V30 5746 N 542.463 1.3308 -0.844243 0
M  V30 5747 C 543.74 1.92178 -0.364261 0
M  V30 5748 C 544.12 1.76961 1.15101 0
M  V30 5749 O 543.468 1.16128 1.9679 0
M  V30 5750 C 543.678 3.393 -0.817106 0
M  V30 5751 C 545.026 4.16444 -0.828236 0
M  V30 5752 O 546.05 3.47975 -0.761062 0
M  V30 5753 O 544.909 5.38685 -0.920926 0
M  V30 5754 H 542.003 0.820411 -0.10419 0
M  V30 5755 H 544.549 1.41918 -0.930453 0
M  V30 5756 H 543.321 3.44272 -1.85991 0
M  V30 5757 H 542.944 3.96947 -0.227785 0
M  V30 5758 N 543.941 0.601185 1.45683 0
M  V30 5759 C 545.187 0.0940202 2.02582 0
M  V30 5760 C 545.52 -1.26972 1.46941 0
M  V30 5761 O 544.795 -1.83613 0.641612 0
M  V30 5762 C 545.078 0.0481715 3.60068 0
M  V30 5763 C 544.931 1.44212 4.26055 0
M  V30 5764 C 546.25 -0.642975 4.35378 0
M  V30 5765 H 543.369 0.0356404 0.736138 0
M  V30 5766 H 546.011 0.771929 1.73612 0
M  V30 5767 H 544.161 -0.529128 3.8488 0
M  V30 5768 H 545.833 2.06601 4.12449 0
M  V30 5769 H 544.076 2.00465 3.84703 0
M  V30 5770 H 544.747 1.36234 5.34925 0
M  V30 5771 H 547.223 -0.152351 4.15821 0
M  V30 5772 H 546.099 -0.644141 5.45107 0
M  V30 5773 H 546.36 -1.70785 4.0778 0
M  V30 5774 N 545.419 -1.53889 0.339982 0
M  V30 5775 C 546.644 -2.05741 -0.261798 0
M  V30 5776 C 547.069 -1.21354 -1.43718 0
M  V30 5777 O 546.427 -0.22645 -1.7988 0
M  V30 5778 C 546.475 -3.54542 -0.658228 0
M  V30 5779 O 545.579 -3.7302 -1.75869 0
M  V30 5780 H 544.92 -0.662529 -0.0441672 0
M  V30 5781 H 547.45 -1.98568 0.493161 0
M  V30 5782 H 547.46 -3.9711 -0.936368 0
M  V30 5783 H 546.135 -4.15412 0.201358 0
M  V30 5784 H 544.712 -3.42355 -1.47809 0
M  V30 5785 N 546.897 -0.0685191 -1.57451 0
M  V30 5786 C 547.829 0.929372 -2.09512 0
M  V30 5787 C 548.842 1.26354 -1.02657 0
M  V30 5788 O 550.031 1.2213 -1.30179 0
M  V30 5789 C 547.131 2.24612 -2.53777 0
M  V30 5790 C 546.304 2.09128 -3.84167 0
M  V30 5791 C 545.363 3.24079 -4.14559 0
M  V30 5792 O 544.389 2.99215 -4.8421 0
M  V30 5793 N 545.591 4.49077 -3.67845 0
M  V30 5794 H 548.356 0.484901 -2.95751 0
M  V30 5795 H 545.917 0.11729 -1.61475 0
M  V30 5796 H 547.909 3.00412 -2.71172 0
M  V30 5797 H 546.479 2.60569 -1.72692 0
M  V30 5798 H 545.699 1.17815 -3.76182 0
M  V30 5799 H 546.987 1.9603 -4.69521 0
M  V30 5800 H 546.385 4.72165 -3.11571 0
M  V30 5801 H 544.942 5.21915 -3.90446 0
M  V30 5802 N 548.375 1.56261 0.205012 0
M  V30 5803 C 549.791 1.49623 0.555433 0
M  V30 5804 C 549.991 0.766719 1.86343 0
M  V30 5805 O 549.047 0.313158 2.50551 0
M  V30 5806 C 550.36 2.94253 0.619347 0
M  V30 5807 C 551.908 3.04868 0.708855 0
M  V30 5808 C 552.383 4.50888 0.803969 0
M  V30 5809 N 553.874 4.54999 0.867758 0
M  V30 5810 C 554.609 5.65284 0.96135 0
M  V30 5811 N 554.105 6.85282 1.01786 0
M  V30 5812 N 555.898 5.53174 0.997771 0
M  V30 5813 H 548.049 2.0211 -0.653094 0
M  V30 5814 H 550.312 0.919333 -0.231366 0
M  V30 5815 H 550.018 3.50643 -0.272458 0
M  V30 5816 H 549.892 3.47063 1.47741 0
M  V30 5817 H 552.279 2.48532 1.5911 0
M  V30 5818 H 552.36 2.55199 -0.175205 0
M  V30 5819 H 552.004 5.07846 -0.0738798 0
M  V30 5820 H 551.934 4.98279 1.70369 0
M  V30 5821 H 554.425 3.68588 0.833735 0
M  V30 5822 H 554.738 7.65081 1.08951 0
M  V30 5823 H 553.083 6.8796 0.986706 0
M  V30 5824 H 556.274 4.5835 0.950392 0
M  V30 5825 H 556.447 6.39151 1.06725 0
M  V30 5826 N 549.853 -0.472356 1.50355 0
M  V30 5827 C 551.078 -1.25251 1.65309 0
M  V30 5828 C 551.503 -1.85081 0.335643 0
M  V30 5829 O 550.861 -1.67227 -0.700335 0
M  V30 5830 C 550.909 -2.3379 2.74544 0
M  V30 5831 O 550.013 -3.38401 2.35709 0
M  V30 5832 H 549.354 -0.368539 0.552336 0
M  V30 5833 H 551.884 -0.562271 1.96722 0
M  V30 5834 H 551.894 -2.79121 2.97583 0
M  V30 5835 H 550.569 -1.89614 3.70161 0
M  V30 5836 H 549.146 -2.9879 2.23112 0
M  V30 5837 N 551.331 -1.39911 -0.725443 0
M  V30 5838 C 552.58 -1.36963 -1.48068 0
M  V30 5839 C 552.893 0.0284478 -1.95579 0
M  V30 5840 O 554.099 0.180535 -2.70899 0
M  V30 5841 C 552.555 -2.40664 -2.67598 0
M  V30 5842 C 552.163 -3.86234 -2.26997 0
M  V30 5843 C 553.907 -2.46807 -3.45379 0
M  V30 5844 C 551.814 -4.81554 -3.43307 0
M  V30 5845 H 550.744 -0.509223 -0.556065 0
M  V30 5846 H 553.395 -1.65602 -0.790454 0
M  V30 5847 H 551.777 -2.05109 -3.38742 0
M  V30 5848 H 552.951 -4.3088 -1.63337 0
M  V30 5849 H 551.266 -3.83475 -1.62284 0
M  V30 5850 H 553.863 -3.15213 -4.31909 0
M  V30 5851 H 554.206 -1.49552 -3.8851 0
M  V30 5852 H 554.739 -2.81303 -2.81271 0
M  V30 5853 H 551.478 -5.80106 -3.05217 0
M  V30 5854 H 550.998 -4.4158 -4.05915 0
M  V30 5855 H 552.677 -5.0091 -4.0951 0
M  V30 5856 N 552.809 0.956637 -1.25245 0
M  V30 5857 C 554.039 1.7332 -1.12445 0
M  V30 5858 C 554.447 1.86392 0.324732 0
M  V30 5859 O 553.79 1.35967 1.23526 0
M  V30 5860 C 553.852 3.16603 -1.70303 0
M  V30 5861 C 553.516 3.26966 -3.19284 0
M  V30 5862 C 554.513 3.11434 -4.16299 0
M  V30 5863 C 552.198 3.50851 -3.59456 0
M  V30 5864 C 554.192 3.1963 -5.51467 0
M  V30 5865 C 551.879 3.58684 -4.94761 0
M  V30 5866 C 552.877 3.43087 -5.90576 0
M  V30 5867 O 552.565 3.50598 -7.2342 0
M  V30 5868 H 552.297 0.549981 -0.393061 0
M  V30 5869 H 554.851 1.20892 -1.66055 0
M  V30 5870 H 553.081 3.70385 -1.11138 0
M  V30 5871 H 554.77 3.76109 -1.52632 0
M  V30 5872 H 555.536 2.92853 -3.86604 0
M  V30 5873 H 551.415 3.62053 -2.85375 0
M  V30 5874 H 554.959 3.07373 -6.26233 0
M  V30 5875 H 550.856 3.76782 -5.24124 0
M  V30 5876 H 551.624 3.67242 -7.31489 0
M  V30 5877 N 554.287 1.06798 1.15896 0
M  V30 5878 C 555.512 0.808739 1.90982 0
M  V30 5879 C 555.937 -0.6316 1.77179 0
M  V30 5880 O 555.295 -1.4407 1.10061 0
M  V30 5881 C 555.343 1.21468 3.39526 0
M  V30 5882 O 554.447 0.356562 4.10856 0
M  V30 5883 H 553.788 0.29512 0.594811 0
M  V30 5884 H 556.318 1.42513 1.46804 0
M  V30 5885 H 556.328 1.18844 3.90308 0
M  V30 5886 H 555.003 2.26379 3.48891 0
M  V30 5887 H 553.58 0.444808 3.70238 0
M  V30 5888 N 555.766 -1.3263 0.851289 0
M  V30 5889 C 556.698 -2.27824 0.250757 0
M  V30 5890 C 557.711 -1.52285 -0.575598 0
M  V30 5891 O 558.9 -1.73946 -0.400638 0
M  V30 5892 C 556 -3.3232 -0.664571 0
M  V30 5893 C 555.173 -4.37221 0.125187 0
M  V30 5894 C 554.232 -5.21314 -0.715385 0
M  V30 5895 O 553.258 -5.69002 -0.150111 0
M  V30 5896 N 554.46 -5.43823 -2.03069 0
M  V30 5897 H 557.225 -2.79997 1.06873 0
M  V30 5898 H 554.786 -1.45455 0.710943 0
M  V30 5899 H 556.778 -3.85486 -1.23216 0
M  V30 5900 H 555.348 -2.80331 -1.38323 0
M  V30 5901 H 554.568 -3.84384 0.874199 0
M  V30 5902 H 555.856 -5.04399 0.667774 0
M  V30 5903 H 555.254 -5.06803 -2.51332 0
M  V30 5904 H 553.811 -5.99998 -2.54648 0
M  V30 5905 N 557.244 -0.608902 -1.45362 0
M  V30 5906 C 558.472 -0.111013 -2.06602 0
M  V30 5907 C 558.887 1.20516 -1.45332 0
M  V30 5908 O 558.244 1.73437 -0.567978 0
M  V30 5909 C 558.295 0.033688 -3.61484 0
M  V30 5910 O 558.016 -1.23041 -4.20467 0
M  V30 5911 C 559.517 0.562882 -4.39712 0
M  V30 5912 H 556.737 -0.0694453 -0.667397 0
M  V30 5913 H 559.281 -0.837008 -1.86586 0
M  V30 5914 H 557.436 0.710016 -3.80838 0
M  V30 5915 H 557.85 -1.06094 -5.13658 0
M  V30 5916 H 559.324 0.613213 -5.48583 0
M  V30 5917 H 559.801 1.58543 -4.09586 0
M  V30 5918 H 560.407 -0.0794454 -4.25226 0
M  V30 5919 N 558.722 1.53707 -0.348139 0
M  V30 5920 C 559.632 2.28881 0.514857 0
M  V30 5921 C 560.648 1.34168 1.10793 0
M  V30 5922 O 561.824 1.6721 1.12262 0
M  V30 5923 C 558.889 3.05042 1.64774 0
M  V30 5924 C 557.95 4.15389 1.08398 0
M  V30 5925 C 557.183 4.87909 2.16287 0
M  V30 5926 O 557.406 4.60137 3.3709 0
M  V30 5927 O 556.34 5.74254 1.80323 0
M  V30 5928 H 560.166 3.03547 -0.0963699 0
M  V30 5929 H 557.751 1.48972 -0.113043 0
M  V30 5930 H 559.633 3.52656 2.30677 0
M  V30 5931 H 558.308 2.33228 2.24469 0
M  V30 5932 H 557.215 3.72068 0.389341 0
M  V30 5933 H 558.548 4.89318 0.531829 0
M  V30 5934 N 560.2 0.0768682 1.57412 0
M  V30 5935 C 561.147 -0.888577 2.13009 0
M  V30 5936 C 562.117 -1.29198 1.0439 0
M  V30 5937 O 563.302 -1.37694 1.3208 0
M  V30 5938 C 560.442 -2.14899 2.70023 0
M  V30 5939 C 559.555 -1.79777 3.92816 0
M  V30 5940 C 558.69 -3.00467 4.38056 0
M  V30 5941 C 557.729 -2.61385 5.53484 0
M  V30 5942 N 556.866 -3.74851 5.93659 0
M  V30 5943 H 561.706 -0.407593 2.95199 0
M  V30 5944 H 559.243 -0.189534 1.45874 0
M  V30 5945 H 561.201 -2.88688 3.0119 0
M  V30 5946 H 559.831 -2.60529 1.9059 0
M  V30 5947 H 558.883 -0.960301 3.68079 0
M  V30 5948 H 560.195 -1.47027 4.76639 0
M  V30 5949 H 559.349 -3.82529 4.7091 0
M  V30 5950 H 558.088 -3.36413 3.53097 0
M  V30 5951 H 557.093 -1.77746 5.20275 0
M  V30 5952 H 558.318 -2.26603 6.40178 0
M  V30 5953 H 556.264 -4.1055 5.11649 0
M  V30 5954 H 556.181 -3.45887 6.72234 0
M  V30 5955 H 557.449 -4.57477 6.31138 0
M  V30 5956 N 561.678 -1.56367 -0.196722 0
M  V30 5957 C 562.608 -1.97442 -1.24655 0
M  V30 5958 C 563.589 -0.846147 -1.47561 0
M  V30 5959 O 564.774 -1.11035 -1.59326 0
M  V30 5960 C 561.904 -2.31253 -2.59112 0
M  V30 5961 C 560.858 -3.46804 -2.50821 0
M  V30 5962 C 560.184 -3.66286 -3.89536 0
M  V30 5963 C 561.484 -4.8104 -2.03465 0
M  V30 5964 H 563.178 -2.85388 -0.905216 0
M  V30 5965 H 560.724 -1.37304 -0.434002 0
M  V30 5966 H 562.677 -2.58583 -3.32736 0
M  V30 5967 H 561.401 -1.40188 -2.94983 0
M  V30 5968 H 560.06 -3.19563 -1.79653 0
M  V30 5969 H 559.708 -2.72555 -4.22756 0
M  V30 5970 H 559.408 -4.4402 -3.84864 0
M  V30 5971 H 560.932 -3.9599 -4.64784 0
M  V30 5972 H 562.346 -5.07411 -2.66846 0
M  V30 5973 H 560.743 -5.62232 -2.09798 0
M  V30 5974 H 561.813 -4.74732 -0.98781 0
M  V30 5975 N 563.156 0.464375 -1.50603 0
M  V30 5976 C 564.402 1.21776 -1.62168 0
M  V30 5977 C 564.735 1.91476 -0.324154 0
M  V30 5978 O 564.01 1.8242 0.674782 0
M  V30 5979 C 564.293 2.25614 -2.80661 0
M  V30 5980 C 564.146 1.60175 -4.20314 0
M  V30 5981 C 565.465 3.26862 -2.94702 0
M  V30 5982 H 562.584 0.44137 -0.590222 0
M  V30 5983 H 565.226 0.510623 -1.8301 0
M  V30 5984 H 563.376 2.85923 -2.63021 0
M  V30 5985 H 565.048 1.03411 -4.4956 0
M  V30 5986 H 563.291 0.904697 -4.24261 0
M  V30 5987 H 563.962 2.35665 -4.99165 0
M  V30 5988 H 566.438 2.76582 -3.10872 0
M  V30 5989 H 565.314 3.96839 -3.79223 0
M  V30 5990 H 565.575 3.91382 -2.05603 0
M  V30 5991 N 564.634 1.40294 0.718013 0
M  V30 5992 C 565.597 1.4012 1.81381 0
M  V30 5993 C 566.597 0.295405 1.58063 0
M  V30 5994 O 567.787 0.554187 1.6515 0
M  V30 5995 C 564.919 1.19056 3.19435 0
M  V30 5996 H 566.112 2.37645 1.82933 0
M  V30 5997 H 563.665 1.26107 0.923405 0
M  V30 5998 H 564.4 0.222809 3.23534 0
M  V30 5999 H 564.185 1.99152 3.37758 0
M  V30 6000 H 565.675 1.21716 3.99468 0
M  V30 6001 N 566.112 -0.949982 1.2575 0
M  V30 6002 C 567.36 -1.6918 1.10555 0
M  V30 6003 C 567.681 -1.91773 -0.353298 0
M  V30 6004 O 566.951 -1.50814 -1.25027 0
M  V30 6005 H 565.531 -0.626952 0.406129 0
M  V30 6006 H 568.193 -1.1419 1.57945 0
M  V30 6007 H 567.289 -2.66915 1.61749 0
M  V30 6008 N 567.59 -1.07411 -1.15328 0
M  V30 6009 C 568.537 -0.694995 -2.20087 0
M  V30 6010 C 569.507 0.313904 -1.63107 0
M  V30 6011 O 570.692 0.200216 -1.89747 0
M  V30 6012 C 567.832 -0.0996218 -3.44956 0
M  V30 6013 C 566.945 -1.16007 -4.16133 0
M  V30 6014 C 566.08 -0.529636 -5.28553 0
M  V30 6015 C 565.119 -1.57283 -5.91548 0
M  V30 6016 N 564.256 -0.964932 -6.95438 0
M  V30 6017 H 569.096 -1.5927 -2.51867 0
M  V30 6018 H 566.633 -0.796115 -1.23695 0
M  V30 6019 H 568.591 0.263197 -4.16369 0
M  V30 6020 H 567.221 0.761435 -3.13691 0
M  V30 6021 H 566.273 -1.64045 -3.4321 0
M  V30 6022 H 567.585 -1.95101 -4.59061 0
M  V30 6023 H 566.739 -0.114487 -6.06592 0
M  V30 6024 H 565.478 0.29307 -4.86819 0
M  V30 6025 H 564.483 -1.99775 -5.12221 0
M  V30 6026 H 565.708 -2.39783 -6.35359 0
M  V30 6027 H 563.654 -0.16314 -6.55797 0
M  V30 6028 H 563.571 -1.69311 -7.36797 0
M  V30 6029 H 564.839 -0.575305 -7.77374 0
M  V30 6030 N 569.068 1.32177 -0.85831 0
M  V30 6031 C 570.293 2.01847 -0.476718 0
M  V30 6032 C 570.718 1.64065 0.920021 0
M  V30 6033 O 570.076 0.843189 1.60499 0
M  V30 6034 C 570.124 3.55097 -0.627578 0
M  V30 6035 O 569.228 4.11012 0.338086 0
M  V30 6036 H 568.569 0.635907 -0.191099 0
M  V30 6037 H 571.099 1.68641 -1.15851 0
M  V30 6038 H 571.109 4.04718 -0.516476 0
M  V30 6039 H 569.784 3.81938 -1.64609 0
M  V30 6040 H 568.361 3.72451 0.182917 0
M  V30 6041 N 570.547 0.616602 1.45037 0
M  V30 6042 C 571.479 -0.135186 2.28801 0
M  V30 6043 C 572.492 -0.82303 1.40464 0
M  V30 6044 O 573.681 -0.686909 1.64754 0
M  V30 6045 C 570.781 -1.21292 3.16451 0
M  V30 6046 C 569.954 -0.61043 4.3312 0
M  V30 6047 C 569.013 -1.58022 5.01912 0
M  V30 6048 O 568.039 -1.10301 5.58411 0
M  V30 6049 N 569.241 -2.91464 5.02025 0
M  V30 6050 H 572.006 0.583612 2.93963 0
M  V30 6051 H 569.567 0.456723 1.55324 0
M  V30 6052 H 571.559 -1.86169 3.59337 0
M  V30 6053 H 570.129 -1.83412 2.53138 0
M  V30 6054 H 569.349 0.216638 3.93604 0
M  V30 6055 H 570.637 -0.188293 5.08451 0
M  V30 6056 H 570.035 -3.32829 4.57429 0
M  V30 6057 H 568.592 -3.51741 5.48745 0
M  V30 6058 N 572.025 -1.5352 0.356285 0
M  V30 6059 C 573.274 -2.00298 -0.237373 0
M  V30 6060 C 573.587 -1.24784 -1.50627 0
M  V30 6061 O 574.793 -1.62103 -2.17795 0
M  V30 6062 C 573.249 -3.56771 -0.473545 0
M  V30 6063 C 572.857 -4.41154 0.780183 0
M  V30 6064 C 574.601 -4.1193 -1.02537 0
M  V30 6065 C 572.508 -5.89161 0.514108 0
M  V30 6066 H 571.438 -0.748307 -0.092478 0
M  V30 6067 H 574.089 -1.77283 0.473588 0
M  V30 6068 H 572.471 -3.75902 -1.24553 0
M  V30 6069 H 573.645 -4.33797 1.55425 0
M  V30 6070 H 571.96 -3.97052 1.25455 0
M  V30 6071 H 574.557 -5.20133 -1.2396 0
M  V30 6072 H 574.9 -3.65943 -1.98473 0
M  V30 6073 H 575.433 -3.96561 -0.313775 0
M  V30 6074 H 572.172 -6.39408 1.44355 0
M  V30 6075 H 571.692 -5.9939 -0.221632 0
M  V30 6076 H 573.371 -6.46857 0.136122 0
M  V30 6077 N 573.503 -0.0852151 -1.57369 0
M  V30 6078 C 574.435 0.907099 -2.10486 0
M  V30 6079 C 575.448 1.25259 -1.03991 0
M  V30 6080 O 576.637 1.20743 -1.31467 0
M  V30 6081 C 573.737 2.21908 -2.56145 0
M  V30 6082 C 572.91 2.05042 -3.86363 0
M  V30 6083 C 571.969 3.19664 -4.17973 0
M  V30 6084 O 570.995 2.94062 -4.87356 0
M  V30 6085 N 572.197 4.45151 -3.72587 0
M  V30 6086 H 574.962 0.453505 -2.96249 0
M  V30 6087 H 572.523 0.100157 -1.6159 0
M  V30 6088 H 574.515 2.97519 -2.74343 0
M  V30 6089 H 573.085 2.58723 -1.75446 0
M  V30 6090 H 572.305 1.13819 -3.77411 0
M  V30 6091 H 573.593 1.91039 -4.71574 0
M  V30 6092 H 572.991 4.68834 -3.16561 0
M  V30 6093 H 571.548 5.17744 -3.9596 0
M  V30 6094 N 574.981 1.5647 0.188427 0
M  V30 6095 C 575.944 1.9421 1.21718 0
M  V30 6096 C 576.944 0.823901 1.38089 0
M  V30 6097 O 578.134 1.09122 1.35787 0
M  V30 6098 C 575.266 2.22197 2.58537 0
M  V30 6099 H 576.459 2.86252 0.894418 0
M  V30 6100 H 574.012 1.50263 0.430211 0
M  V30 6101 H 574.747 1.32814 2.95856 0
M  V30 6102 H 574.532 3.03688 2.48025 0
M  V30 6103 H 576.022 2.52376 3.3271 0
M  V30 6104 N 576.459 -0.456382 1.50847 0
M  V30 6105 C 577.87 -1.03685 1.55262 0
M  V30 6106 C 578.221 -1.92779 0.364771 0
M  V30 6107 O 577.346 -2.10043 -0.52068 0
M  V30 6108 C 577.941 -1.88718 2.81374 0
M  V30 6109 C 576.5 -2.41847 2.88422 0
M  V30 6110 C 575.647 -1.20564 2.49719 0
M  V30 6111 H 578.598 -0.238399 1.56899 0
M  V30 6112 H 578.619 -2.73957 2.6406 0
M  V30 6113 H 578.131 -1.23847 3.67809 0
M  V30 6114 H 576.232 -3.10228 2.06372 0
M  V30 6115 H 576.345 -2.75947 3.9165 0
M  V30 6116 H 574.709 -1.54504 2.02486 0
M  V30 6117 H 575.492 -0.573326 3.38479 0
M  V30 6118 N 577.937 -1.40673 -0.710563 0
M  V30 6119 C 578.885 -1.41517 -1.84596 0
M  V30 6120 C 579.879 -0.295043 -1.66811 0
M  V30 6121 O 581.085 -0.466331 -1.73854 0
M  V30 6122 H 577.46 -0.442467 -0.608052 0
M  V30 6123 H 579.431 -2.37238 -1.80999 0
M  V30 6124 C 578.18 -1.29957 -3.225 0
M  V30 6125 H 577.503 -2.15429 -3.36794 0
M  V30 6126 H 578.943 -1.34608 -4.02066 0
M  V30 6127 C 577.402 -0.0103164 -3.36898 0
M  V30 6128 O 577.932 0.950707 -3.90288 0
M  V30 6129 N 576.138 0.0608409 -2.90536 0
M  V30 6130 H 575.685 -0.721943 -2.47277 0
M  V30 6131 H 575.643 0.92292 -3.00549 0
M  V30 6132 N 579.415 0.9433 -1.26252 0
M  V30 6133 C 580.826 1.50404 -1.10614 0
M  V30 6134 C 581.177 1.93666 0.31429 0
M  V30 6135 O 580.302 1.79709 1.20555 0
M  V30 6136 C 580.897 2.73336 -2.00182 0
M  V30 6137 C 579.456 3.25686 -1.88695 0
M  V30 6138 C 578.603 1.98474 -1.93658 0
M  V30 6139 H 581.554 0.759006 -1.39373 0
M  V30 6140 H 581.575 3.47567 -1.54847 0
M  V30 6141 H 581.087 2.41818 -3.03555 0
M  V30 6142 H 579.188 3.61998 -0.882489 0
M  V30 6143 H 579.301 3.92935 -2.74115 0
M  V30 6144 H 577.665 2.14278 -1.37684 0
M  V30 6145 H 578.448 1.6929 -2.98657 0
M  V30 6146 N 580.893 1.08022 1.14757 0
M  V30 6147 C 581.84 0.706657 2.19716 0
M  V30 6148 C 582.81 -0.30525 1.63271 0
M  V30 6149 O 583.995 -0.19015 1.8985 0
M  V30 6150 C 581.135 0.117914 3.44898 0
M  V30 6151 C 580.248 1.18212 4.15512 0
M  V30 6152 C 579.383 0.557659 5.28265 0
M  V30 6153 C 578.422 1.60418 5.90705 0
M  V30 6154 N 577.559 1.0018 6.94916 0
M  V30 6155 H 582.399 1.60603 2.51019 0
M  V30 6156 H 579.936 0.802664 1.23271 0
M  V30 6157 H 581.894 -0.241112 4.16503 0
M  V30 6158 H 580.524 -0.744788 3.1409 0
M  V30 6159 H 579.576 1.65863 3.42335 0
M  V30 6160 H 580.888 1.97533 4.5802 0
M  V30 6161 H 580.042 0.146654 6.06523 0
M  V30 6162 H 578.781 -0.267249 4.86967 0
M  V30 6163 H 577.786 2.02489 5.11154 0
M  V30 6164 H 579.011 2.43149 6.34078 0
M  V30 6165 H 576.957 0.197917 6.55701 0
M  V30 6166 H 576.874 1.73216 7.35889 0
M  V30 6167 H 578.142 0.616523 7.77058 0
M  V30 6168 N 582.371 -1.3172 0.865308 0
M  V30 6169 C 583.303 -2.27545 0.274906 0
M  V30 6170 C 584.316 -1.52887 -0.559413 0
M  V30 6171 O 585.505 -1.74361 -0.382166 0
M  V30 6172 C 582.605 -3.33006 -0.629286 0
M  V30 6173 C 581.778 -4.37063 0.171553 0
M  V30 6174 C 580.837 -5.22044 -0.660052 0
M  V30 6175 O 579.863 -5.69129 -0.0897527 0
M  V30 6176 N 581.065 -5.45946 -1.97289 0
M  V30 6177 H 583.83 -2.78848 1.09836 0
M  V30 6178 H 581.391 -1.44693 0.726331 0
M  V30 6179 H 583.383 -3.86772 -1.19121 0
M  V30 6180 H 581.953 -2.81782 -1.35342 0
M  V30 6181 H 581.173 -3.83436 0.914919 0
M  V30 6182 H 582.461 -5.03662 0.721235 0
M  V30 6183 H 581.859 -5.0944 -2.45942 0
M  V30 6184 H 580.416 -6.02665 -2.4827 0
M  V30 6185 N 583.85 -0.624285 -1.44708 0
M  V30 6186 C 584.76 0.0861083 -2.34442 0
M  V30 6187 C 585.776 0.84291 -1.5222 0
M  V30 6188 O 586.952 0.796723 -1.84971 0
M  V30 6189 C 584.017 1.05999 -3.30099 0
M  V30 6190 C 583.077 0.303316 -4.28227 0
M  V30 6191 C 582.311 1.23081 -5.19314 0
M  V30 6192 O 582.534 2.46929 -5.14181 0
M  V30 6193 O 581.468 0.71883 -5.97592 0
M  V30 6194 H 585.293 -0.651756 -2.96624 0
M  V30 6195 H 582.879 -0.384493 -1.44368 0
M  V30 6196 H 584.76 1.62046 -3.88997 0
M  V30 6197 H 583.436 1.77859 -2.70459 0
M  V30 6198 H 582.343 -0.300033 -3.72895 0
M  V30 6199 H 583.676 -0.375123 -4.90768 0
M  V30 6200 N 585.328 1.53329 -0.364422 0
M  V30 6201 C 586.739 1.86345 0.115039 0
M  V30 6202 C 587.09 1.28505 1.4826 0
M  V30 6203 O 586.215 0.606639 2.07723 0
M  V30 6204 C 586.81 3.38114 0.215522 0
M  V30 6205 C 585.369 3.70932 0.639237 0
M  V30 6206 C 584.516 2.76471 -0.214261 0
M  V30 6207 H 587.467 1.47593 -0.583258 0
M  V30 6208 H 587.488 3.66031 1.0393 0
M  V30 6209 H 587 3.80182 -0.779948 0
M  V30 6210 H 585.101 3.3442 1.64298 0
M  V30 6211 H 585.214 4.77302 0.41465 0
M  V30 6212 H 583.578 2.52724 0.316678 0
M  V30 6213 H 584.361 3.21373 -1.20725 0
M  V30 6214 N 586.806 0.0935595 1.57322 0
M  V30 6215 C 588.052 -0.565234 1.95388 0
M  V30 6216 C 588.407 -1.65888 0.974632 0
M  V30 6217 O 587.7 -1.916 0.000376385 0
M  V30 6218 C 587.894 -1.16692 3.37813 0
M  V30 6219 C 587.723 -0.133091 4.49503 0
M  V30 6220 C 586.493 0.289884 5.04468 0
M  V30 6221 C 588.691 0.638141 5.10326 0
M  V30 6222 N 586.673 1.31214 5.99713 0
M  V30 6223 C 588.044 1.51227 6.01274 0
M  V30 6224 C 590.099 0.691827 4.9307 0
M  V30 6225 C 588.802 2.43536 6.76818 0
M  V30 6226 C 590.828 1.60251 5.69274 0
M  V30 6227 C 590.19 2.46427 6.59889 0
M  V30 6228 H 586.289 -0.177212 0.761656 0
M  V30 6229 H 588.873 0.175769 1.93905 0
M  V30 6230 H 587.044 -1.87775 3.39993 0
M  V30 6231 H 588.776 -1.78795 3.63063 0
M  V30 6232 H 585.531 -0.0975541 4.735 0
M  V30 6233 H 585.955 1.82143 6.52038 0
M  V30 6234 H 590.597 0.0397431 4.22781 0
M  V30 6235 H 588.315 3.0977 7.4637 0
M  V30 6236 H 591.901 1.64917 5.57937 0
M  V30 6237 H 590.781 3.15751 7.17824 0
M  V30 6238 N 588.284 -1.56567 -0.180126 0
M  V30 6239 C 589.234 -1.92132 -1.22756 0
M  V30 6240 C 590.218 -0.788639 -1.40247 0
M  V30 6241 O 591.41 -1.05171 -1.42366 0
M  V30 6242 C 588.539 -2.27719 -2.56902 0
M  V30 6243 C 587.625 -3.47481 -2.43142 0
M  V30 6244 N 588.016 -4.64973 -1.99082 0
M  V30 6245 C 586.314 -3.51914 -2.73994 0
M  V30 6246 C 587.015 -5.47119 -1.97574 0
M  V30 6247 N 585.991 -4.87925 -2.39645 0
M  V30 6248 H 589.793 -2.80464 -0.878478 0
M  V30 6249 H 587.307 -1.57686 -0.388463 0
M  V30 6250 H 589.304 -2.51389 -3.32579 0
M  V30 6251 H 587.964 -1.40722 -2.92621 0
M  V30 6252 H 588.975 -4.89358 -1.69557 0
M  V30 6253 H 585.652 -2.75372 -3.13809 0
M  V30 6254 H 587.042 -6.51254 -1.65282 0
M  V30 6255 N 589.762 0.448376 -1.51087 0
M  V30 6256 C 591.01 1.19635 -1.62886 0
M  V30 6257 C 591.331 1.91977 -0.342024 0
M  V30 6258 O 590.601 1.85094 0.641636 0
M  V30 6259 H 589.181 0.444598 -0.600285 0
M  V30 6260 H 591.843 0.515138 -1.87969 0
M  V30 6261 H 590.939 1.93194 -2.45117 0
M  V30 6262 N 591.24 1.41047 0.703093 0
M  V30 6263 C 592.15 1.44645 1.84703 0
M  V30 6264 C 593.166 0.337778 1.7069 0
M  V30 6265 O 594.342 0.584327 1.92737 0
M  V30 6266 C 591.407 1.31928 3.20618 0
M  V30 6267 C 590.468 2.53047 3.46794 0
M  V30 6268 C 589.701 2.40927 4.76224 0
M  V30 6269 O 589.924 1.42978 5.5219 0
M  V30 6270 O 588.858 3.30543 5.03016 0
M  V30 6271 H 592.684 2.41139 1.84624 0
M  V30 6272 H 590.269 1.22504 0.855167 0
M  V30 6273 H 592.151 1.27092 4.01778 0
M  V30 6274 H 590.826 0.385469 3.21397 0
M  V30 6275 H 589.733 2.6346 2.65593 0
M  V30 6276 H 591.066 3.45231 3.50822 0
M  V30 6277 N 592.718 -0.936591 1.26751 0
M  V30 6278 C 593.666 -2.0573 1.08527 0
M  V30 6279 C 594.66 -1.69397 0.0108784 0
M  V30 6280 O 595.866 -1.79215 0.167915 0
M  V30 6281 H 592.241 -0.673691 0.334133 0
M  V30 6282 H 594.212 -2.1825 2.03493 0
M  V30 6283 C 592.961 -3.39738 0.739845 0
M  V30 6284 H 592.284 -3.68174 1.55845 0
M  V30 6285 H 593.724 -4.18955 0.652149 0
M  V30 6286 C 592.183 -3.32292 -0.555288 0
M  V30 6287 O 592.713 -3.68794 -1.59229 0
M  V30 6288 N 590.919 -2.85394 -0.54762 0
M  V30 6289 H 590.466 -2.55886 0.296667 0
M  V30 6290 H 590.424 -2.80795 -1.41427 0
M  V30 6291 N 594.196 -1.08629 -1.14182 0
M  V30 6292 C 595.159 -0.722027 -2.1753 0
M  V30 6293 C 596.159 0.244305 -1.58933 0
M  V30 6294 O 597.349 0.0235545 -1.74184 0
M  V30 6295 C 594.481 -0.0663966 -3.40835 0
M  V30 6296 H 595.674 -1.63719 -2.51269 0
M  V30 6297 H 593.227 -0.884442 -1.28869 0
M  V30 6298 H 593.962 0.860389 -3.12678 0
M  V30 6299 H 593.747 -0.761598 -3.84632 0
M  V30 6300 H 595.237 0.173346 -4.1724 0
M  V30 6301 N 595.674 1.31259 -0.872281 0
M  V30 6302 C 596.621 2.28459 -0.327857 0
M  V30 6303 C 597.591 1.55831 0.574957 0
M  V30 6304 O 598.776 1.83965 0.506101 0
M  V30 6305 C 595.916 3.41985 0.462644 0
M  V30 6306 C 595.029 4.29458 -0.467949 0
M  V30 6307 C 594.164 5.30131 0.336903 0
M  V30 6308 C 593.203 6.0925 -0.58997 0
M  V30 6309 N 592.34 7.01872 0.178775 0
M  V30 6310 H 597.18 2.74414 -1.16193 0
M  V30 6311 H 594.717 1.34994 -0.584376 0
M  V30 6312 H 596.675 4.06547 0.936759 0
M  V30 6313 H 595.305 2.97134 1.2614 0
M  V30 6314 H 594.357 3.65318 -1.06052 0
M  V30 6315 H 595.669 4.84677 -1.17856 0
M  V30 6316 H 594.823 6.0038 0.873427 0
M  V30 6317 H 593.562 4.75573 1.08079 0
M  V30 6318 H 592.567 5.37889 -1.13823 0
M  V30 6319 H 593.792 6.65894 -1.33275 0
M  V30 6320 H 591.738 6.49721 0.905435 0
M  V30 6321 H 591.655 7.54522 -0.472452 0
M  V30 6322 H 592.923 7.76382 0.696454 0
M  V30 6323 N 597.152 0.631951 1.44375 0
M  V30 6324 C 598.4 0.136497 2.01639 0
M  V30 6325 C 598.721 -1.24637 1.49969 0
M  V30 6326 O 597.991 -1.82827 0.70363 0
M  V30 6327 H 596.571 0.0474703 0.74549 0
M  V30 6328 H 599.233 0.818837 1.76865 0
M  V30 6329 H 598.329 0.104817 3.11924 0
M  V30 6330 N 598.631 -1.53133 0.372548 0
M  V30 6331 C 599.541 -2.29671 -0.478379 0
M  V30 6332 C 600.557 -1.35913 -1.08644 0
M  V30 6333 O 601.733 -1.68975 -1.09588 0
M  V30 6334 C 598.798 -3.07625 -1.599 0
M  V30 6335 C 597.859 -4.17061 -1.01776 0
M  V30 6336 C 597.092 -4.91289 -2.08497 0
M  V30 6337 O 597.315 -4.65442 -3.29727 0
M  V30 6338 O 596.249 -5.7705 -1.71164 0
M  V30 6339 H 600.075 -3.03355 0.144649 0
M  V30 6340 H 597.66 -1.48773 0.136729 0
M  V30 6341 H 599.542 -3.56281 -2.25038 0
M  V30 6342 H 598.217 -2.3677 -2.2073 0
M  V30 6343 H 597.124 -3.72641 -0.330098 0
M  V30 6344 H 598.457 -4.90102 -0.453915 0
M  V30 6345 N 600.109 -0.101901 -1.5727 0
M  V30 6346 C 601.334 0.571759 -1.99363 0
M  V30 6347 C 601.759 1.60507 -0.980768 0
M  V30 6348 O 601.117 1.81231 0.0498517 0
M  V30 6349 C 601.165 1.18996 -3.404 0
M  V30 6350 O 600.269 2.30572 -3.41922 0
M  V30 6351 H 599.61 0.144449 -0.648098 0
M  V30 6352 H 602.14 -0.185325 -2.03759 0
M  V30 6353 H 602.15 1.52962 -3.78241 0
M  V30 6354 H 600.825 0.432984 -4.1364 0
M  V30 6355 H 599.402 1.98173 -3.15883 0
M  V30 6356 N 601.587 1.56661 0.17182 0
M  V30 6357 C 602.835 1.81606 0.886774 0
M  V30 6358 C 603.156 0.678818 1.82803 0
M  V30 6359 O 602.426 -0.301354 1.93568 0
M  V30 6360 H 601.006 0.669934 0.330451 0
M  V30 6361 H 603.668 1.94142 0.171757 0
M  V30 6362 H 602.764 2.75634 1.46398 0
M  V30 6363 N 603.065 -0.440357 1.51323 0
M  V30 6364 C 603.997 -1.55254 1.68609 0
M  V30 6365 C 605.01 -1.52614 0.566812 0
M  V30 6366 O 606.199 -1.57445 0.841032 0
M  V30 6367 C 603.299 -2.94169 1.68279 0
M  V30 6368 C 602.472 -3.21346 2.96742 0
M  V30 6369 C 601.531 -4.3997 2.8864 0
M  V30 6370 O 600.557 -4.38771 3.62586 0
M  V30 6371 N 601.759 -5.43367 2.04285 0
M  V30 6372 H 604.524 -1.40831 2.6455 0
M  V30 6373 H 602.085 -0.629251 1.49171 0
M  V30 6374 H 604.077 -3.71543 1.60431 0
M  V30 6375 H 602.647 -3.02205 0.799441 0
M  V30 6376 H 601.867 -2.32299 3.18482 0
M  V30 6377 H 603.155 -3.3633 3.81785 0
M  V30 6378 H 602.553 -5.47176 1.43578 0
M  V30 6379 H 601.11 -6.19605 2.02318 0
M  V30 6380 N 604.543 -1.41418 -0.695603 0
M  V30 6381 C 605.768 -1.44329 -1.48942 0
M  V30 6382 C 606.193 -0.0501579 -1.88033 0
M  V30 6383 O 605.551 0.946598 -1.54626 0
M  V30 6384 C 605.599 -2.3578 -2.72837 0
M  V30 6385 O 604.703 -1.81482 -3.70322 0
M  V30 6386 H 604.044 -0.489838 -0.44828 0
M  V30 6387 H 606.574 -1.85878 -0.855014 0
M  V30 6388 H 606.584 -2.51654 -3.21145 0
M  V30 6389 H 605.259 -3.37005 -2.43722 0
M  V30 6390 H 603.836 -1.75058 -3.29255 0
M  V30 6391 N 606.021 0.929856 -1.27246 0
M  V30 6392 C 607.249 1.71144 -1.16265 0
M  V30 6393 C 607.664 1.867 0.280786 0
M  V30 6394 O 607.021 1.38249 1.19136 0
M  V30 6395 C 607.072 3.11222 -1.83911 0
M  V30 6396 O 606.793 2.96398 -3.22614 0
M  V30 6397 C 608.294 4.05541 -1.79028 0
M  V30 6398 H 605.514 0.535499 -0.404328 0
M  V30 6399 H 608.058 1.16492 -1.68077 0
M  V30 6400 H 606.213 3.6274 -1.36009 0
M  V30 6401 H 606.627 3.8494 -3.56261 0
M  V30 6402 H 608.101 5.01351 -2.30978 0
M  V30 6403 H 608.578 4.32589 -0.759168 0
M  V30 6404 H 609.184 3.59947 -2.26535 0
M  V30 6405 N 607.499 1.09233 1.13605 0
M  V30 6406 C 608.447 0.724572 2.21027 0
M  V30 6407 C 609.441 -0.273595 1.67176 0
M  V30 6408 O 610.647 -0.135266 1.79491 0
M  V30 6409 H 607.022 0.216319 0.720215 0
M  V30 6410 H 608.993 1.63975 2.49309 0
M  V30 6411 C 607.742 0.159126 3.47336 0
M  V30 6412 H 607.065 0.918387 3.89109 0
M  V30 6413 H 608.505 -0.0602851 4.23957 0
M  V30 6414 C 606.964 -1.10514 3.18258 0
M  V30 6415 O 607.494 -2.18869 3.36837 0
M  V30 6416 N 605.7 -1.01886 2.72154 0
M  V30 6417 H 605.247 -0.137027 2.57235 0
M  V30 6418 H 605.205 -1.8655 2.53074 0
M  V30 6419 N 608.977 -1.30795 0.87923 0
M  V30 6420 C 610.393 -1.48981 0.57243 0
M  V30 6421 C 610.593 -1.80719 -0.891236 0
M  V30 6422 O 609.649 -1.89136 -1.67283 0
M  V30 6423 C 610.962 -2.61721 1.48063 0
M  V30 6424 C 612.51 -2.75603 1.48365 0
M  V30 6425 C 612.985 -3.91449 2.37763 0
M  V30 6426 N 614.476 -3.98751 2.35695 0
M  V30 6427 C 615.211 -4.87684 3.01583 0
M  V30 6428 N 614.707 -5.81454 3.76674 0
M  V30 6429 N 616.5 -4.81005 2.90844 0
M  V30 6430 H 608.651 -1.08465 1.82617 0
M  V30 6431 H 610.914 -0.536813 0.781368 0
M  V30 6432 H 610.62 -2.45073 2.52254 0
M  V30 6433 H 610.494 -3.58071 1.18596 0
M  V30 6434 H 612.881 -2.9166 0.44927 0
M  V30 6435 H 612.962 -1.79891 1.81859 0
M  V30 6436 H 612.606 -3.76149 3.41283 0
M  V30 6437 H 612.536 -4.86487 2.01589 0
M  V30 6438 H 615.027 -3.31668 1.81121 0
M  V30 6439 H 615.34 -6.46063 4.24054 0
M  V30 6440 H 613.685 -5.81403 3.80782 0
M  V30 6441 H 616.876 -4.06728 2.31711 0
M  V30 6442 H 617.049 -5.50107 3.42471 0
M  V30 6443 N 610.455 -0.639598 -1.44038 0
M  V30 6444 C 611.365 0.0612377 -2.3452 0
M  V30 6445 C 612.381 0.826717 -1.53106 0
M  V30 6446 O 613.557 0.777059 -1.85806 0
M  V30 6447 C 610.622 1.02492 -3.31204 0
M  V30 6448 C 609.683 0.25788 -4.28525 0
M  V30 6449 C 608.916 1.17566 -5.2059 0
M  V30 6450 O 609.139 2.41461 -5.16771 0
M  V30 6451 O 608.073 0.655407 -5.98321 0
M  V30 6452 H 611.899 -0.68318 -2.95916 0
M  V30 6453 H 609.484 -0.399784 -1.43952 0
M  V30 6454 H 611.366 1.57911 -3.90694 0
M  V30 6455 H 610.041 1.7498 -2.7233 0
M  V30 6456 H 608.948 -0.339566 -3.72556 0
M  V30 6457 H 610.281 -0.427154 -4.90343 0
M  V30 6458 N 611.933 1.52934 -0.380664 0
M  V30 6459 C 612.865 2.23822 0.493581 0
M  V30 6460 C 613.878 1.25761 1.03383 0
M  V30 6461 O 615.067 1.5189 0.937633 0
M  V30 6462 C 612.167 2.9342 1.69582 0
M  V30 6463 C 611.34 4.18115 1.28445 0
M  V30 6464 C 610.399 4.70788 2.35042 0
M  V30 6465 O 609.425 5.34093 1.96807 0
M  V30 6466 N 610.627 4.49899 3.66839 0
M  V30 6467 H 613.392 2.99484 -0.11371 0
M  V30 6468 H 610.953 1.60577 -0.206587 0
M  V30 6469 H 612.945 3.2556 2.40401 0
M  V30 6470 H 611.515 2.21119 2.20965 0
M  V30 6471 H 610.735 3.92109 0.405503 0
M  V30 6472 H 612.023 4.99152 0.986132 0
M  V30 6473 H 611.421 3.99349 4.0067 0
M  V30 6474 H 609.978 4.86551 4.33718 0
M  V30 6475 N 613.412 0.11024 1.57214 0
M  V30 6476 C 614.689 -0.592956 1.86396 0
M  V30 6477 C 615.069 -1.85379 1.00985 0
M  V30 6478 O 614.417 -2.28337 0.0863592 0
M  V30 6479 C 614.627 -0.893816 3.3736 0
M  V30 6480 C 615.975 -1.25069 4.05762 0
M  V30 6481 O 616.999 -0.984356 3.42329 0
M  V30 6482 O 615.858 -1.75017 5.17718 0
M  V30 6483 H 612.952 -0.29828 0.771335 0
M  V30 6484 H 615.498 0.144083 1.69087 0
M  V30 6485 H 614.27 2.6031e-05 3.913 0
M  V30 6486 H 613.893 -1.68631 3.60068 0
M  V30 6487 N 614.89 -1.56749 -0.16351 0
M  V30 6488 C 615.82 -2.00042 -1.20438 0
M  V30 6489 C 616.801 -0.877256 -1.45733 0
M  V30 6490 O 617.986 -1.1439 -1.56935 0
M  V30 6491 C 615.116 -2.36697 -2.54149 0
M  V30 6492 C 614.07 -3.52046 -2.43408 0
M  V30 6493 C 613.396 -3.74466 -3.81679 0
M  V30 6494 C 614.696 -4.85247 -1.93216 0
M  V30 6495 H 616.39 -2.87244 -0.844477 0
M  V30 6496 H 613.936 -1.38194 -0.40478 0
M  V30 6497 H 615.889 -2.65582 -3.27176 0
M  V30 6498 H 614.613 -1.46414 -2.91943 0
M  V30 6499 H 613.272 -3.23301 -1.72834 0
M  V30 6500 H 612.92 -2.81461 -4.1688 0
M  V30 6501 H 612.62 -4.52084 -3.75359 0
M  V30 6502 H 614.144 -4.0576 -4.5628 0
M  V30 6503 H 615.558 -5.12957 -2.56023 0
M  V30 6504 H 613.955 -5.66556 -1.97825 0
M  V30 6505 H 615.025 -4.7672 -0.88689 0
M  V30 6506 N 616.368 0.432326 -1.51554 0
M  V30 6507 C 617.298 1.53242 -1.76179 0
M  V30 6508 C 618.279 1.58717 -0.611801 0
M  V30 6509 O 619.464 1.74364 -0.855033 0
M  V30 6510 C 616.594 2.91278 -1.89141 0
M  V30 6511 C 615.548 3.00663 -3.04608 0
M  V30 6512 C 614.874 4.40728 -3.02759 0
M  V30 6513 C 616.174 2.74281 -4.44485 0
M  V30 6514 H 617.868 1.32886 -2.68294 0
M  V30 6515 H 615.414 0.637841 -1.29103 0
M  V30 6516 H 617.367 3.68203 -2.04951 0
M  V30 6517 H 616.091 3.12877 -0.936785 0
M  V30 6518 H 614.75 2.26179 -2.88511 0
M  V30 6519 H 614.398 4.59301 -2.05065 0
M  V30 6520 H 614.098 4.47936 -3.80299 0
M  V30 6521 H 615.622 5.19619 -3.20669 0
M  V30 6522 H 617.036 3.40936 -4.60907 0
M  V30 6523 H 615.433 2.92893 -5.23769 0
M  V30 6524 H 616.503 1.69856 -4.54177 0
M  V30 6525 N 617.846 1.41785 0.688094 0
M  V30 6526 C 619.071 1.45117 1.48175 0
M  V30 6527 C 619.496 0.060129 1.88004 0
M  V30 6528 O 618.854 -0.938385 1.55126 0
M  V30 6529 C 618.902 2.37224 2.71583 0
M  V30 6530 O 618.006 1.83443 3.69354 0
M  V30 6531 H 617.347 0.492208 0.445676 0
M  V30 6532 H 619.877 1.86329 0.845145 0
M  V30 6533 H 619.887 2.53353 3.19806 0
M  V30 6534 H 618.562 3.38293 2.41931 0
M  V30 6535 H 617.139 1.76802 3.28322 0
M  V30 6536 N 619.324 -0.923095 1.27737 0
M  V30 6537 C 620.274 -2.01061 1.0751 0
M  V30 6538 C 621.258 -1.609 0.00165451 0
M  V30 6539 O 622.45 -1.75618 0.220724 0
M  V30 6540 C 619.579 -3.35467 0.729162 0
M  V30 6541 C 618.665 -3.82059 1.84098 0
M  V30 6542 N 619.056 -4.01115 3.08124 0
M  V30 6543 C 617.354 -4.11135 1.7287 0
M  V30 6544 C 618.055 -4.39989 3.80506 0
M  V30 6545 N 617.031 -4.47721 3.08297 0
M  V30 6546 H 620.833 -2.13832 2.01626 0
M  V30 6547 H 618.347 -1.11027 1.18519 0
M  V30 6548 H 620.344 -4.13049 0.565355 0
M  V30 6549 H 619.004 -3.24056 -0.204334 0
M  V30 6550 H 620.015 -3.87294 3.43836 0
M  V30 6551 H 616.692 -4.08412 0.866352 0
M  V30 6552 H 618.082 -4.62773 4.87125 0
M  V30 6553 N 620.802 -1.09834 -1.13024 0
M  V30 6554 C 621.712 -0.753731 -2.22162 0
M  V30 6555 C 622.728 0.246105 -1.72251 0
M  V30 6556 O 623.904 0.0864051 -2.01215 0
M  V30 6557 C 620.969 -0.183958 -3.46212 0
M  V30 6558 C 620.03 -1.24028 -4.10993 0
M  V30 6559 C 619.263 -0.697597 -5.29121 0
M  V30 6560 O 619.486 0.478092 -5.68393 0
M  V30 6561 O 618.42 -1.4546 -5.84059 0
M  V30 6562 H 622.246 -1.66456 -2.5402 0
M  V30 6563 H 619.831 -0.873026 -1.21238 0
M  V30 6564 H 621.713 0.130257 -4.21199 0
M  V30 6565 H 620.388 0.699823 -3.16045 0
M  V30 6566 H 619.295 -1.60725 -3.37814 0
M  V30 6567 H 620.628 -2.09685 -4.45301 0
M  V30 6568 N 622.28 1.30327 -0.886154 0
M  V30 6569 C 623.212 2.27079 -0.311072 0
M  V30 6570 C 624.225 1.53758 0.53502 0
M  V30 6571 O 625.414 1.74947 0.354378 0
M  V30 6572 C 622.514 3.33965 0.576228 0
M  V30 6573 C 621.687 4.36735 -0.241064 0
M  V30 6574 C 620.746 5.23028 0.576916 0
M  V30 6575 O 619.772 5.692 -0.000802231 0
M  V30 6576 N 620.974 5.49016 1.88579 0
M  V30 6577 H 623.739 2.77065 -1.14259 0
M  V30 6578 H 621.3 1.43519 -0.749258 0
M  V30 6579 H 623.292 3.88618 1.12953 0
M  V30 6580 H 621.862 2.839 1.30842 0
M  V30 6581 H 621.082 3.81932 -0.975805 0
M  V30 6582 H 622.37 5.02451 -0.801272 0
M  V30 6583 H 621.768 5.13288 2.37806 0
M  V30 6584 H 620.325 6.06539 2.38651 0
M  V30 6585 N 623.758 0.647228 1.43697 0
M  V30 6586 C 624.705 -0.0480092 2.3075 0
M  V30 6587 C 625.675 -0.820705 1.44408 0
M  V30 6588 O 626.86 -0.798515 1.73287 0
M  V30 6589 C 624 -1.01259 3.2991 0
M  V30 6590 C 623.113 -0.236629 4.31351 0
M  V30 6591 C 622.248 -1.19447 5.17596 0
M  V30 6592 C 621.287 -0.408595 6.10735 0
M  V30 6593 N 620.424 -1.31772 6.89623 0
M  V30 6594 H 625.264 0.700238 2.89656 0
M  V30 6595 H 622.801 0.357082 1.427 0
M  V30 6596 H 624.759 -1.58538 3.85903 0
M  V30 6597 H 623.389 -1.72778 2.72667 0
M  V30 6598 H 622.441 0.452353 3.77701 0
M  V30 6599 H 623.753 0.374731 4.9739 0
M  V30 6600 H 622.907 -1.83809 5.78186 0
M  V30 6601 H 621.646 -1.83975 4.51669 0
M  V30 6602 H 620.651 0.24841 5.49239 0
M  V30 6603 H 621.876 0.232188 6.78703 0
M  V30 6604 H 619.822 -1.94991 6.2635 0
M  V30 6605 H 619.739 -0.760779 7.52162 0
M  V30 6606 H 621.007 -1.94967 7.54724 0
M  V30 6607 N 625.236 -1.5273 0.388769 0
M  V30 6608 C 626.484 -2.01174 -0.193208 0
M  V30 6609 C 626.805 -1.27705 -1.47365 0
M  V30 6610 O 626.075 -0.396966 -1.91836 0
M  V30 6611 H 624.655 -0.743287 -0.0743871 0
M  V30 6612 H 627.317 -1.87826 0.520336 0
M  V30 6613 H 626.413 -3.09477 -0.403803 0
M  V30 6614 N 626.714 -0.118576 -1.57153 0
M  V30 6615 C 628.13 0.238014 -1.57815 0
M  V30 6616 C 628.33 1.66747 -1.13127 0
M  V30 6617 O 627.386 2.38867 -0.818462 0
M  V30 6618 C 628.699 0.00508207 -3.007 0
M  V30 6619 C 630.247 0.0710139 -3.12919 0
M  V30 6620 C 630.722 -0.13422 -4.57803 0
M  V30 6621 N 632.213 -0.0801755 -4.63131 0
M  V30 6622 C 632.948 -0.213885 -5.73001 0
M  V30 6623 N 632.444 -0.403742 -6.91623 0
M  V30 6624 N 634.237 -0.15349 -5.6189 0
M  V30 6625 H 626.388 -1.05226 -1.84503 0
M  V30 6626 H 628.651 -0.414318 -0.852669 0
M  V30 6627 H 628.357 -0.983125 -3.3768 0
M  V30 6628 H 628.231 0.73714 -3.69927 0
M  V30 6629 H 630.618 1.04975 -2.75798 0
M  V30 6630 H 630.699 -0.692918 -2.46236 0
M  V30 6631 H 630.343 -1.10992 -4.95624 0
M  V30 6632 H 630.273 0.649692 -5.22577 0
M  V30 6633 H 632.764 0.0630689 -3.77847 0
M  V30 6634 H 633.077 -0.496645 -7.71202 0
M  V30 6635 H 631.422 -0.43971 -6.93608 0
M  V30 6636 H 634.613 -0.00613174 -4.681 0
M  V30 6637 H 634.786 -0.261138 -6.47474 0
M  V30 6638 N 628.193 1.56834 0.155195 0
M  V30 6639 C 629.143 1.94061 1.19684 0
M  V30 6640 C 630.127 0.810851 1.38975 0
M  V30 6641 O 631.319 1.07422 1.40675 0
M  V30 6642 C 628.448 2.31778 2.53247 0
M  V30 6643 C 627.534 3.51305 2.37583 0
M  V30 6644 N 627.925 4.68081 1.9166 0
M  V30 6645 C 626.223 3.56228 2.6836 0
M  V30 6646 C 626.924 5.50193 1.88845 0
M  V30 6647 N 625.9 4.91676 2.31852 0
M  V30 6648 H 629.702 2.81826 0.833747 0
M  V30 6649 H 627.216 1.58284 0.363328 0
M  V30 6650 H 629.213 2.56649 3.28538 0
M  V30 6651 H 627.873 1.4536 2.90346 0
M  V30 6652 H 628.884 4.91993 1.6175 0
M  V30 6653 H 625.561 2.8033 3.09389 0
M  V30 6654 H 626.951 6.53801 1.54901 0
M  V30 6655 N 629.671 -0.424282 1.51781 0
M  V30 6656 C 630.603 -1.53457 1.70246 0
M  V30 6657 C 631.616 -1.52004 0.582967 0
M  V30 6658 O 632.805 -1.56544 0.857683 0
M  V30 6659 C 629.905 -2.92368 1.71389 0
M  V30 6660 C 629.078 -3.1818 3.00133 0
M  V30 6661 C 628.137 -4.36884 2.9329 0
M  V30 6662 O 627.163 -4.34901 3.67219 0
M  V30 6663 N 628.365 -5.4117 2.10036 0
M  V30 6664 H 631.13 -1.38017 2.66029 0
M  V30 6665 H 628.691 -0.613394 1.4983 0
M  V30 6666 H 630.683 -3.6982 1.64362 0
M  V30 6667 H 629.253 -3.0134 0.831449 0
M  V30 6668 H 628.473 -2.28908 3.20928 0
M  V30 6669 H 629.761 -3.32261 3.85331 0
M  V30 6670 H 629.159 -5.45623 1.49373 0
M  V30 6671 H 627.716 -6.17425 2.08878 0
M  V30 6672 N 631.149 -1.42148 -0.680565 0
M  V30 6673 C 632.099 -1.41634 -1.78672 0
M  V30 6674 C 633.083 -0.288494 -1.58293 0
M  V30 6675 O 634.275 -0.530295 -1.68869 0
M  V30 6676 C 631.404 -1.31558 -3.17092 0
M  V30 6677 C 630.49 -2.49265 -3.43115 0
M  V30 6678 N 630.881 -3.74702 -3.39753 0
M  V30 6679 C 629.179 -2.43401 -3.73727 0
M  V30 6680 C 629.88 -4.52854 -3.651 0
M  V30 6681 N 628.856 -3.83181 -3.85582 0
M  V30 6682 H 632.658 -2.3652 -1.74458 0
M  V30 6683 H 630.172 -1.36415 -0.881171 0
M  V30 6684 H 632.169 -1.29272 -3.96351 0
M  V30 6685 H 630.829 -0.376696 -3.22508 0
M  V30 6686 H 631.84 -4.07378 -3.19787 0
M  V30 6687 H 628.517 -1.58062 -3.86423 0
M  V30 6688 H 629.907 -5.61827 -3.6851 0
M  V30 6689 N 632.627 0.916307 -1.28225 0
M  V30 6690 C 633.875 1.6619 -1.15002 0
M  V30 6691 C 634.196 1.92642 0.302329 0
M  V30 6692 O 633.466 1.54076 1.20985 0
M  V30 6693 H 632.046 0.615964 -0.422608 0
M  V30 6694 H 634.708 1.09963 -1.60917 0
M  V30 6695 H 633.804 2.62533 -1.68769 0
M  V30 6696 N 634.105 1.10431 1.1244 0
M  V30 6697 C 635.33 0.869089 1.88313 0
M  V30 6698 C 635.755 -0.574912 1.79099 0
M  V30 6699 O 635.113 -1.40496 1.14589 0
M  V30 6700 C 635.161 1.32208 3.3549 0
M  V30 6701 O 634.265 0.487092 4.09513 0
M  V30 6702 H 633.606 0.313894 0.585121 0
M  V30 6703 H 636.136 1.47111 1.42195 0
M  V30 6704 H 636.146 1.31201 3.86329 0
M  V30 6705 H 634.821 2.37364 3.41513 0
M  V30 6706 H 633.398 0.562372 3.68635 0
M  V30 6707 N 635.583 -1.29855 0.893053 0
M  V30 6708 C 636.533 -2.25493 0.337211 0
M  V30 6709 C 637.517 -1.51606 -0.53894 0
M  V30 6710 O 638.709 -1.72828 -0.382043 0
M  V30 6711 C 635.838 -3.40467 -0.440117 0
M  V30 6712 C 634.924 -4.217 0.450578 0
M  V30 6713 N 635.315 -4.81312 1.55476 0
M  V30 6714 C 633.613 -4.45315 0.247154 0
M  V30 6715 C 634.314 -5.42241 2.10593 0
M  V30 6716 N 633.29 -5.25267 1.39982 0
M  V30 6717 H 637.092 -2.69137 1.18079 0
M  V30 6718 H 634.606 -1.44388 0.743359 0
M  V30 6719 H 636.603 -4.08038 -0.855021 0
M  V30 6720 H 635.263 -2.98361 -1.28104 0
M  V30 6721 H 636.274 -4.80291 1.93755 0
M  V30 6722 H 632.951 -4.13782 -0.555939 0
M  V30 6723 H 634.341 -5.99517 3.03362 0
M  V30 6724 N 637.061 -0.65484 -1.43351 0
M  V30 6725 C 638.309 -0.168559 -2.01396 0
M  V30 6726 C 638.63 1.22235 -1.51933 0
M  V30 6727 O 637.9 1.81685 -0.732627 0
M  V30 6728 H 636.48 -0.0593244 -0.744641 0
M  V30 6729 H 639.142 -0.846871 -1.75539 0
M  V30 6730 H 638.238 -0.154428 -3.11718 0
M  V30 6731 N 638.539 1.52521 -0.396863 0
M  V30 6732 C 639.787 2.01274 0.182536 0
M  V30 6733 C 640.108 1.28485 1.46685 0
M  V30 6734 O 639.378 0.407134 1.91623 0
M  V30 6735 H 637.958 0.743671 0.0704442 0
M  V30 6736 H 640.62 1.87547 -0.530289 0
M  V30 6737 H 639.716 3.09687 0.387385 0
M  V30 6738 N 640.017 0.126909 1.57088 0
M  V30 6739 C 640.947 -0.816847 2.18746 0
M  V30 6740 C 641.928 -1.27161 1.12979 0
M  V30 6741 O 643.113 -1.33279 1.41246 0
M  V30 6742 C 640.243 -2.06398 2.79315 0
M  V30 6743 C 639.197 -1.74673 3.90735 0
M  V30 6744 C 638.523 -3.06482 4.38147 0
M  V30 6745 C 639.823 -1.0089 5.12463 0
M  V30 6746 H 641.517 -0.303032 2.97863 0
M  V30 6747 H 639.063 -0.144314 1.43275 0
M  V30 6748 H 641.016 -2.72885 3.2111 0
M  V30 6749 H 639.74 -2.60118 1.975 0
M  V30 6750 H 638.399 -1.10572 3.49527 0
M  V30 6751 H 638.047 -3.58152 3.5318 0
M  V30 6752 H 637.747 -2.86025 5.13287 0
M  V30 6753 H 639.271 -3.74073 4.82599 0
M  V30 6754 H 640.685 -1.57546 5.51228 0
M  V30 6755 H 639.082 -0.905006 5.93237 0
M  V30 6756 H 640.152 0.00297335 4.849 0
M  V30 6757 N 641.495 -1.56914 -0.146875 0
M  V30 6758 C 642.772 -1.74273 -0.888165 0
M  V30 6759 C 643.152 -0.69496 -1.99333 0
M  V30 6760 O 642.5 0.286093 -2.26702 0
M  V30 6761 C 642.71 -3.18336 -1.43051 0
M  V30 6762 C 644.058 -3.80024 -1.89387 0
M  V30 6763 O 645.082 -3.21765 -1.52792 0
M  V30 6764 O 643.941 -4.82367 -2.56874 0
M  V30 6765 H 641.035 -0.712565 -0.419738 0
M  V30 6766 H 643.581 -1.6918 -0.132791 0
M  V30 6767 H 642.353 -3.86092 -0.636274 0
M  V30 6768 H 641.976 -3.27854 -2.24938 0
M  V30 6769 N 642.974 0.416227 -1.52004 0
M  V30 6770 C 644.223 1.16088 -1.64944 0
M  V30 6771 C 644.536 1.91835 -0.381928 0
M  V30 6772 O 645.742 2.6867 -0.391013 0
M  V30 6773 C 644.198 2.1124 -2.91386 0
M  V30 6774 C 643.806 1.41042 -4.25219 0
M  V30 6775 C 645.55 2.86008 -3.13688 0
M  V30 6776 C 643.457 2.34801 -5.42791 0
M  V30 6777 H 642.387 0.437041 -0.61442 0
M  V30 6778 H 645.038 0.425971 -1.78487 0
M  V30 6779 H 643.42 2.88254 -2.71525 0
M  V30 6780 H 644.594 0.694416 -4.55538 0
M  V30 6781 H 642.909 0.78344 -4.08964 0
M  V30 6782 H 645.506 3.56286 -3.98703 0
M  V30 6783 H 645.849 3.48556 -2.27628 0
M  V30 6784 H 646.382 2.16095 -3.33988 0
M  V30 6785 H 643.121 1.7691 -6.31176 0
M  V30 6786 H 642.641 3.04395 -5.16821 0
M  V30 6787 H 644.32 2.9548 -5.75587 0
M  V30 6788 N 644.452 1.42507 0.673017 0
M  V30 6789 C 645.698 1.43284 1.43519 0
M  V30 6790 C 646.031 0.049668 1.94136 0
M  V30 6791 O 645.306 -0.926369 1.71022 0
M  V30 6792 C 645.589 2.45874 2.63093 0
M  V30 6793 C 645.442 3.93388 2.18096 0
M  V30 6794 C 646.761 2.45431 3.6531 0
M  V30 6795 H 643.88 0.521752 0.520522 0
M  V30 6796 H 646.522 1.73932 0.764701 0
M  V30 6797 H 644.672 2.19869 3.20296 0
M  V30 6798 H 646.344 4.30379 1.66046 0
M  V30 6799 H 644.587 4.07169 1.49652 0
M  V30 6800 H 645.258 4.60752 3.03993 0
M  V30 6801 H 647.734 2.68561 3.17827 0
M  V30 6802 H 646.61 3.19189 4.46553 0
M  V30 6803 H 646.871 1.48092 4.16559 0
M  V30 6804 N 645.93 -0.909495 1.28709 0
M  V30 6805 C 647.179 -1.65365 1.15487 0
M  V30 6806 C 647.492 -1.93364 -0.294941 0
M  V30 6807 O 648.698 -2.65905 -0.548338 0
M  V30 6808 C 647.154 -2.97923 2.01916 0
M  V30 6809 C 646.762 -2.77556 3.51663 0
M  V30 6810 C 648.506 -3.75814 1.97393 0
M  V30 6811 C 646.413 -4.0578 4.30229 0
M  V30 6812 H 645.343 -0.620323 0.42862 0
M  V30 6813 H 647.994 -1.00894 1.53273 0
M  V30 6814 H 646.376 -3.63552 1.5699 0
M  V30 6815 H 647.55 -2.2058 4.04575 0
M  V30 6816 H 645.865 -2.13072 3.57756 0
M  V30 6817 H 648.462 -4.70866 2.53357 0
M  V30 6818 H 648.805 -4.05277 0.951643 0
M  V30 6819 H 649.338 -3.1701 2.40311 0
M  V30 6820 H 646.077 -3.81488 5.33055 0
M  V30 6821 H 645.597 -4.62351 3.82089 0
M  V30 6822 H 647.276 -4.74004 4.40374 0
M  V30 6823 N 647.408 -1.11026 -1.11852 0
M  V30 6824 C 648.657 -0.851249 -1.82857 0
M  V30 6825 C 648.97 0.62514 -1.85341 0
M  V30 6826 O 650.176 1.00026 -2.52403 0
M  V30 6827 C 648.632 -1.47309 -3.28372 0
M  V30 6828 C 648.24 -2.9832 -3.34229 0
M  V30 6829 C 649.984 -1.29373 -4.04306 0
M  V30 6830 C 647.891 -3.53509 -4.74115 0
M  V30 6831 H 646.821 -0.314794 -0.685143 0
M  V30 6832 H 649.472 -1.33499 -1.25898 0
M  V30 6833 H 647.854 -0.917017 -3.85236 0
M  V30 6834 H 649.028 -3.60295 -2.87271 0
M  V30 6835 H 647.343 -3.15482 -2.71772 0
M  V30 6836 H 649.94 -1.68042 -5.07608 0
M  V30 6837 H 650.283 -0.235879 -4.15631 0
M  V30 6838 H 650.816 -1.8182 -3.53817 0
M  V30 6839 H 647.555 -4.58987 -4.67986 0
M  V30 6840 H 647.075 -2.96305 -5.21501 0
M  V30 6841 H 648.754 -3.51693 -5.43066 0
M  V30 6842 N 648.886 1.2938 -0.899927 0
M  V30 6843 C 649.796 2.31462 -0.382437 0
M  V30 6844 C 650.812 1.65956 0.522929 0
M  V30 6845 O 651.988 1.97131 0.412454 0
M  V30 6846 C 649.053 3.44595 0.381472 0
M  V30 6847 C 648.114 4.25692 -0.555444 0
M  V30 6848 C 647.347 5.33422 0.172102 0
M  V30 6849 O 647.57 5.53053 1.396 0
M  V30 6850 O 646.504 5.99939 -0.485491 0
M  V30 6851 H 650.33 2.77706 -1.22934 0
M  V30 6852 H 647.915 1.33821 -0.664259 0
M  V30 6853 H 649.797 4.13474 0.813442 0
M  V30 6854 H 648.472 3.00458 1.20443 0
M  V30 6855 H 647.379 3.59453 -1.03653 0
M  V30 6856 H 648.712 4.73471 -1.34483 0
M  V30 6857 N 650.364 0.662433 1.43002 0
M  V30 6858 C 651.296 -0.062326 2.29115 0
M  V30 6859 C 652.309 -0.777926 1.43011 0
M  V30 6860 O 653.498 -0.634146 1.66856 0
M  V30 6861 C 650.598 -1.11163 3.2015 0
M  V30 6862 C 649.771 -0.472327 4.34842 0
M  V30 6863 C 648.83 -1.41974 5.06685 0
M  V30 6864 O 647.856 -0.924795 5.61637 0
M  V30 6865 N 649.058 -2.75345 5.11043 0
M  V30 6866 H 651.823 0.676838 2.91957 0
M  V30 6867 H 649.384 0.505907 1.53793 0
M  V30 6868 H 651.376 -1.74643 3.65078 0
M  V30 6869 H 649.946 -1.75266 2.58845 0
M  V30 6870 H 649.166 0.341751 3.92716 0
M  V30 6871 H 650.454 -0.0264381 5.08793 0
M  V30 6872 H 649.852 -3.18108 4.67786 0
M  V30 6873 H 648.409 -3.34105 5.59658 0
M  V30 6874 N 651.842 -1.52309 0.404946 0
M  V30 6875 C 652.752 -2.30634 -0.429555 0
M  V30 6876 C 653.768 -1.38187 -1.05737 0
M  V30 6877 O 654.944 -1.71261 -1.05979 0
M  V30 6878 C 652.009 -3.10947 -1.53339 0
M  V30 6879 C 651.07 -4.19126 -0.929065 0
M  V30 6880 C 650.303 -4.95601 -1.9803 0
M  V30 6881 O 650.526 -4.72331 -3.1978 0
M  V30 6882 O 649.46 -5.80551 -1.58886 0
M  V30 6883 H 653.286 -3.0298 0.208963 0
M  V30 6884 H 650.871 -1.4845 0.168255 0
M  V30 6885 H 652.753 -3.60974 -2.1743 0
M  V30 6886 H 651.428 -2.41399 -2.15658 0
M  V30 6887 H 650.335 -3.73257 -0.250982 0
M  V30 6888 H 651.668 -4.90955 -0.349855 0
M  V30 6889 N 653.32 -0.135238 -1.57019 0
M  V30 6890 C 654.597 0.563227 -1.87316 0
M  V30 6891 C 654.977 1.83749 -1.03921 0
M  V30 6892 O 654.325 2.2817 -0.122675 0
M  V30 6893 C 654.535 0.840031 -3.3874 0
M  V30 6894 C 655.883 1.18598 -4.077 0
M  V30 6895 O 656.907 0.92977 -3.43851 0
M  V30 6896 O 655.766 1.66758 -5.20436 0
M  V30 6897 H 652.86 0.285971 -0.775983 0
M  V30 6898 H 655.406 -0.170965 -1.68837 0
M  V30 6899 H 654.178 -0.0622785 -3.9125 0
M  V30 6900 H 653.801 1.62882 -3.62706 0
M  V30 6901 N 654.798 1.5699 0.138552 0
M  V30 6902 C 656.075 1.74741 0.87891 0
M  V30 6903 C 656.455 0.705522 1.98961 0
M  V30 6904 O 655.803 -0.274066 2.2685 0
M  V30 6905 C 656.013 3.1909 1.4136 0
M  V30 6906 C 657.361 3.81023 1.87368 0
M  V30 6907 O 658.385 3.22571 1.51084 0
M  V30 6908 O 657.244 4.83722 2.54312 0
M  V30 6909 H 654.338 0.714781 0.415953 0
M  V30 6910 H 656.884 1.69248 0.123817 0
M  V30 6911 H 655.656 3.86424 0.61579 0
M  V30 6912 H 655.279 3.29043 2.23196 0
M  V30 6913 N 656.276 -0.40816 1.52223 0
M  V30 6914 C 657.501 -1.18127 1.70472 0
M  V30 6915 C 657.926 -1.83491 0.41384 0
M  V30 6916 O 657.284 -1.70047 -0.628778 0
M  V30 6917 C 657.332 -2.21935 2.84213 0
M  V30 6918 O 656.436 -3.28099 2.4985 0
M  V30 6919 H 655.777 -0.344781 0.56747 0
M  V30 6920 H 658.307 -0.478328 1.9893 0
M  V30 6921 H 658.317 -2.66248 3.09153 0
M  V30 6922 H 656.992 -1.73744 3.7787 0
M  V30 6923 H 655.569 -2.89058 2.35584 0
M  V30 6924 N 657.755 -1.42862 -0.66545 0
M  V30 6925 C 659.032 -1.3431 -1.42197 0
M  V30 6926 C 659.412 0.0150265 -2.11095 0
M  V30 6927 O 658.76 1.03101 -2.03918 0
M  V30 6928 C 658.97 -2.51783 -2.41674 0
M  V30 6929 C 660.318 -2.94321 -3.0604 0
M  V30 6930 O 661.342 -2.51741 -2.52001 0
M  V30 6931 O 660.201 -3.68047 -4.03985 0
M  V30 6932 H 657.295 -0.530159 -0.634713 0
M  V30 6933 H 659.841 -1.54888 -0.693386 0
M  V30 6934 H 658.613 -3.42282 -1.89627 0
M  V30 6935 H 658.236 -2.33241 -3.22001 0
M  V30 6936 N 659.233 0.902656 -1.29189 0
M  V30 6937 C 660.649 1.18296 -1.07137 0
M  V30 6938 C 660.849 2.00701 0.179223 0
M  V30 6939 O 659.905 2.3675 0.877812 0
M  V30 6940 C 661.218 1.90677 -2.32514 0
M  V30 6941 C 662.766 2.03515 -2.37804 0
M  V30 6942 C 663.241 2.79307 -3.62976 0
M  V30 6943 N 664.732 2.86862 -3.63681 0
M  V30 6944 C 665.467 3.46035 -4.57217 0
M  V30 6945 N 664.963 4.06399 -5.61081 0
M  V30 6946 N 666.756 3.43681 -4.44792 0
M  V30 6947 H 658.907 0.352765 -2.0945 0
M  V30 6948 H 661.17 0.21876 -0.922414 0
M  V30 6949 H 660.876 1.3756 -3.23682 0
M  V30 6950 H 660.75 2.91169 -2.39793 0
M  V30 6951 H 663.137 2.55809 -1.47125 0
M  V30 6952 H 663.218 1.02166 -2.34512 0
M  V30 6953 H 662.862 2.2769 -4.54004 0
M  V30 6954 H 662.792 3.80995 -3.63525 0
M  V30 6955 H 665.283 2.43987 -2.88581 0
M  V30 6956 H 665.596 4.49564 -6.2858 0
M  V30 6957 H 663.941 4.0487 -5.64894 0
M  V30 6958 H 667.132 2.9574 -3.62843 0
M  V30 6959 H 667.305 3.89503 -5.17872 0
M  V30 6960 N 660.711 1.11618 1.11262 0
M  V30 6961 C 661.661 0.745274 2.15475 0
M  V30 6962 C 662.645 -0.251585 1.58921 0
M  V30 6963 O 663.837 -0.0584093 1.76904 0
M  V30 6964 C 660.966 0.192128 3.42762 0
M  V30 6965 C 660.052 1.21676 4.0627 0
M  V30 6966 N 660.443 2.41158 4.44608 0
M  V30 6967 C 658.741 1.06013 4.33217 0
M  V30 6968 C 659.442 3.0652 4.94389 0
M  V30 6969 N 658.418 2.33994 4.9066 0
M  V30 6970 H 662.22 1.65462 2.42898 0
M  V30 6971 H 659.734 0.995695 1.28295 0
M  V30 6972 H 661.731 -0.0917339 4.16799 0
M  V30 6973 H 660.391 -0.711778 3.16802 0
M  V30 6974 H 661.402 2.786 4.3658 0
M  V30 6975 H 658.079 0.212809 4.16957 0
M  V30 6976 H 659.469 4.08225 5.33669 0
M  V30 6977 N 662.189 -1.289 0.906776 0
M  V30 6978 C 663.119 -2.29932 0.406659 0
M  V30 6979 C 664.1 -1.6189 -0.522061 0
M  V30 6980 O 665.285 -1.8935 -0.431283 0
M  V30 6981 C 662.415 -3.45425 -0.360366 0
M  V30 6982 C 661.369 -4.25316 0.478574 0
M  V30 6983 C 660.695 -5.33076 -0.416373 0
M  V30 6984 C 661.995 -4.92739 1.7322 0
M  V30 6985 H 663.689 -2.72013 1.25097 0
M  V30 6986 H 661.235 -1.30768 0.602977 0
M  V30 6987 H 663.188 -4.15186 -0.721029 0
M  V30 6988 H 661.912 -3.02206 -1.23852 0
M  V30 6989 H 660.571 -3.57273 0.821662 0
M  V30 6990 H 660.219 -4.86101 -1.29287 0
M  V30 6991 H 659.919 -5.8743 0.141309 0
M  V30 6992 H 661.443 -6.05686 -0.773072 0
M  V30 6993 H 662.857 -5.54898 1.44086 0
M  V30 6994 H 661.254 -5.57057 2.23175 0
M  V30 6995 H 662.324 -4.17625 2.46408 0
M  V30 6996 N 663.667 -0.670007 -1.42649 0
M  V30 6997 C 664.63 0.00204659 -2.292 0
M  V30 6998 C 665.63 0.733817 -1.4308 0
M  V30 6999 O 666.82 0.57254 -1.64522 0
M  V30 7000 C 663.952 1.01359 -3.25483 0
M  V30 7001 H 665.145 -0.759696 -2.90118 0
M  V30 7002 H 662.698 -0.432105 -1.50208 0
M  V30 7003 H 663.433 1.80399 -2.69493 0
M  V30 7004 H 663.218 0.492323 -3.88997 0
M  V30 7005 H 664.708 1.4824 -3.90403 0
M  V30 7006 N 665.145 1.52092 -0.413018 0
M  V30 7007 C 666.077 2.24819 0.445994 0
M  V30 7008 C 667.09 1.27925 1.00692 0
M  V30 7009 O 668.279 1.53845 0.905204 0
M  V30 7010 C 665.379 2.96951 1.6332 0
M  V30 7011 C 664.552 4.20746 1.19548 0
M  V30 7012 C 663.611 4.75668 2.25003 0
M  V30 7013 O 662.637 5.38148 1.85434 0
M  V30 7014 N 663.839 4.57579 3.57214 0
M  V30 7015 H 666.604 2.99176 -0.177209 0
M  V30 7016 H 664.165 1.60102 -0.240601 0
M  V30 7017 H 666.157 3.30586 2.33441 0
M  V30 7018 H 664.727 2.25756 2.16225 0
M  V30 7019 H 663.947 3.92881 0.32224 0
M  V30 7020 H 665.235 5.01132 0.880033 0
M  V30 7021 H 664.633 4.07758 3.92109 0
M  V30 7022 H 663.19 4.95642 4.23299 0
M  V30 7023 N 666.623 0.143563 1.56945 0
M  V30 7024 C 667.573 -0.809115 2.1316 0
M  V30 7025 C 668.557 -1.21176 1.05855 0
M  V30 7026 O 669.749 -1.17875 1.3204 0
M  V30 7027 C 666.878 -2.04957 2.75405 0
M  V30 7028 C 665.964 -1.67018 3.89828 0
M  V30 7029 N 666.355 -0.998822 4.9584 0
M  V30 7030 C 664.653 -1.96313 4.00471 0
M  V30 7031 C 665.354 -0.816217 5.75945 0
M  V30 7032 N 664.33 -1.349 5.26596 0
M  V30 7033 H 668.132 -0.286919 2.92496 0
M  V30 7034 H 665.646 -0.0580948 1.62296 0
M  V30 7035 H 667.643 -2.74201 3.14037 0
M  V30 7036 H 666.303 -2.57697 1.97541 0
M  V30 7037 H 667.314 -0.659975 5.13678 0
M  V30 7038 H 663.991 -2.50927 3.33679 0
M  V30 7039 H 665.381 -0.287353 6.71285 0
M  V30 7040 N 668.101 -1.57061 -0.130224 0
M  V30 7041 C 669.031 -2.02552 -1.16168 0
M  V30 7042 C 670.012 -0.907971 -1.4384 0
M  V30 7043 O 671.197 -1.17693 -1.54473 0
M  V30 7044 C 668.327 -2.42035 -2.49071 0
M  V30 7045 C 667.281 -3.5713 -2.35886 0
M  V30 7046 C 666.607 -3.82478 -3.7365 0
M  V30 7047 C 667.907 -4.89236 -1.8288 0
M  V30 7048 H 669.601 -2.8897 -0.783359 0
M  V30 7049 H 667.147 -1.39021 -0.375376 0
M  V30 7050 H 669.1 -2.72462 -3.21469 0
M  V30 7051 H 667.824 -1.52573 -2.88771 0
M  V30 7052 H 666.483 -3.26895 -1.65938 0
M  V30 7053 H 666.131 -2.9024 -4.10816 0
M  V30 7054 H 665.831 -4.59944 -3.65685 0
M  V30 7055 H 667.355 -4.15347 -4.47571 0
M  V30 7056 H 668.769 -5.18272 -2.45085 0
M  V30 7057 H 667.166 -5.70624 -1.85763 0
M  V30 7058 H 668.236 -4.78494 -0.785571 0
M  V30 7059 N 669.579 0.400081 -1.52437 0
M  V30 7060 C 670.527 1.50851 -1.7705 0
M  V30 7061 C 671.521 1.56928 -0.637969 0
M  V30 7062 O 672.727 1.60226 -0.820212 0
M  V30 7063 H 669.102 0.50186 -0.560036 0
M  V30 7064 H 671.073 1.27281 -2.69893 0
M  V30 7065 C 669.822 2.88117 -1.94638 0
M  V30 7066 H 669.145 2.84187 -2.81208 0
M  V30 7067 H 670.585 3.64942 -2.15855 0
M  V30 7068 C 669.044 3.29206 -0.715899 0
M  V30 7069 O 669.574 4.01544 0.111944 0
M  V30 7070 N 667.78 2.85363 -0.549191 0
M  V30 7071 H 667.327 2.26664 -1.22397 0
M  V30 7072 H 667.285 3.13214 0.27278 0
M  V30 7073 N 671.057 1.43213 0.657864 0
M  V30 7074 C 672.005 1.48271 1.79216 0
M  V30 7075 C 672.999 0.35675 1.65601 0
M  V30 7076 O 674.205 0.530535 1.72004 0
M  V30 7077 H 670.58 0.464729 0.591211 0
M  V30 7078 H 672.551 2.43792 1.7207 0
M  V30 7079 C 671.3 1.41837 3.17455 0
M  V30 7080 H 670.623 2.27781 3.28567 0
M  V30 7081 H 672.063 1.49438 3.96793 0
M  V30 7082 C 670.522 0.135347 3.36628 0
M  V30 7083 O 671.052 -0.805199 3.93547 0
M  V30 7084 N 669.258 0.0470316 2.90562 0
M  V30 7085 H 668.805 0.813221 2.44427 0
M  V30 7086 H 668.763 -0.810737 3.03767 0
M  V30 7087 N 672.536 -0.895792 1.29666 0
M  V30 7088 C 673.813 -1.62723 1.08538 0
M  V30 7089 C 674.193 -2.07848 -0.369119 0
M  V30 7090 O 673.541 -1.8372 -1.35864 0
M  V30 7091 C 673.751 -2.80505 2.07648 0
M  V30 7092 C 675.099 -3.51098 2.3878 0
M  V30 7093 O 676.123 -2.90679 2.05874 0
M  V30 7094 O 674.982 -4.60028 2.9502 0
M  V30 7095 H 672.076 -0.714692 0.416106 0
M  V30 7096 H 674.622 -0.943517 1.41053 0
M  V30 7097 H 673.394 -2.44386 3.05599 0
M  V30 7098 H 673.017 -3.5658 1.75887 0
M  V30 7099 N 674.014 -1.12206 -1.10668 0
M  V30 7100 C 675.43 -0.857619 -1.346 0
M  V30 7101 C 675.63 0.513542 -1.94846 0
M  V30 7102 O 674.686 1.26273 -2.18658 0
M  V30 7103 C 675.999 -1.97212 -2.26998 0
M  V30 7104 C 677.547 -2.00272 -2.40542 0
M  V30 7105 C 678.022 -3.10948 -3.36267 0
M  V30 7106 N 679.513 -3.10375 -3.43834 0
M  V30 7107 C 680.248 -3.92651 -4.17867 0
M  V30 7108 N 679.744 -4.84911 -4.94807 0
M  V30 7109 N 681.537 -3.80798 -4.1346 0
M  V30 7110 H 673.688 -2.00558 -0.699306 0
M  V30 7111 H 675.951 -0.872612 -0.370477 0
M  V30 7112 H 675.657 -2.96002 -1.89936 0
M  V30 7113 H 675.531 -1.87521 -3.27286 0
M  V30 7114 H 677.918 -1.02103 -2.76874 0
M  V30 7115 H 677.999 -2.14037 -1.40077 0
M  V30 7116 H 677.643 -4.09348 -3.00661 0
M  V30 7117 H 677.573 -2.94421 -4.36605 0
M  V30 7118 H 680.064 -2.43536 -2.88961 0
M  V30 7119 H 680.377 -5.44207 -5.48688 0
M  V30 7120 H 678.722 -4.88926 -4.93939 0
M  V30 7121 H 681.913 -3.08058 -3.52445 0
M  V30 7122 H 682.086 -4.4515 -4.70898 0
M  V30 7123 N 675.492 1.28418 -0.913599 0
M  V30 7124 C 676.44 2.29272 -0.392037 0
M  V30 7125 C 677.434 1.61344 0.516198 0
M  V30 7126 O 678.64 1.75557 0.39746 0
M  V30 7127 H 675.015 0.744178 -0.108178 0
M  V30 7128 H 676.986 2.70691 -1.25574 0
M  V30 7129 C 675.735 3.45905 0.352815 0
M  V30 7130 H 675.058 3.98378 -0.336848 0
M  V30 7131 H 676.498 4.18473 0.682398 0
M  V30 7132 C 674.957 2.98572 1.56065 0
M  V30 7133 O 675.487 3.01033 2.65974 0
M  V30 7134 N 673.693 2.54235 1.40759 0
M  V30 7135 H 673.24 2.52432 0.513403 0
M  V30 7136 H 673.198 2.22925 2.21702 0
M  V30 7137 N 676.97 0.677563 1.42291 0
M  V30 7138 C 678.381 0.277912 1.8462 0
M  V30 7139 C 678.732 -1.18048 1.56714 0
M  V30 7140 O 677.857 -1.90404 1.02836 0
M  V30 7141 C 678.452 0.497619 3.35126 0
M  V30 7142 C 677.011 0.152063 3.76093 0
M  V30 7143 C 676.158 0.78872 2.65847 0
M  V30 7144 H 679.109 0.879527 1.32098 0
M  V30 7145 H 679.13 -0.24939 3.79682 0
M  V30 7146 H 678.642 1.55913 3.55405 0
M  V30 7147 H 676.743 -0.905896 3.6142 0
M  V30 7148 H 676.856 0.594514 4.75397 0
M  V30 7149 H 675.22 0.219813 2.5375 0
M  V30 7150 H 676.003 1.85374 2.88949 0
M  V30 7151 N 678.448 -1.51871 0.421078 0
M  V30 7152 C 679.378 -2.30231 -0.389363 0
M  V30 7153 C 680.359 -1.34946 -1.03555 0
M  V30 7154 O 681.544 -1.63859 -1.04229 0
M  V30 7155 C 678.674 -3.13247 -1.49979 0
M  V30 7156 C 677.628 -4.16677 -0.977966 0
M  V30 7157 C 676.954 -4.88112 -2.1829 0
M  V30 7158 C 678.254 -5.22295 -0.0236775 0
M  V30 7159 H 679.948 -2.98229 0.264524 0
M  V30 7160 H 677.494 -1.43424 0.12866 0
M  V30 7161 H 679.447 -3.66838 -2.07383 0
M  V30 7162 H 678.171 -2.4304 -2.18173 0
M  V30 7163 H 676.83 -3.64114 -0.426245 0
M  V30 7164 H 676.478 -4.14423 -2.85066 0
M  V30 7165 H 676.178 -5.58041 -1.84021 0
M  V30 7166 H 677.702 -5.44521 -2.76278 0
M  V30 7167 H 679.116 -5.71055 -0.506899 0
M  V30 7168 H 677.513 -5.99656 0.230782 0
M  V30 7169 H 678.583 -4.76131 0.917999 0
M  V30 7170 N 679.926 -0.151884 -1.56866 0
M  V30 7171 C 681.173 0.498004 -1.96281 0
M  V30 7172 C 681.501 1.64551 -1.03698 0
M  V30 7173 O 680.756 1.95585 -0.0671497 0
M  V30 7174 C 681.055 1.04074 -3.41911 0
M  V30 7175 C 680.721 0.0111688 -4.50899 0
M  V30 7176 C 679.383 -0.271844 -4.80432 0
M  V30 7177 C 681.735 -0.68869 -5.1663 0
M  V30 7178 C 679.063 -1.26044 -5.73001 0
M  V30 7179 C 681.415 -1.66613 -6.10264 0
M  V30 7180 C 680.079 -1.9568 -6.38174 0
M  V30 7181 H 679.349 0.182233 -0.718242 0
M  V30 7182 H 681.996 -0.239746 -1.89993 0
M  V30 7183 H 680.301 1.85592 -3.45055 0
M  V30 7184 H 681.998 1.55224 -3.69738 0
M  V30 7185 H 678.588 0.241932 -4.27917 0
M  V30 7186 H 682.772 -0.48324 -4.93942 0
M  V30 7187 H 678.028 -1.49202 -5.92915 0
M  V30 7188 H 682.202 -2.21392 -6.60272 0
M  V30 7189 H 679.829 -2.72434 -7.09707 0
M  V30 7190 N 681.404 1.57128 0.121893 0
M  V30 7191 C 682.632 1.88883 0.844451 0
M  V30 7192 C 683.047 0.742824 1.73573 0
M  V30 7193 O 682.404 -0.286475 1.80238 0
M  V30 7194 C 682.455 3.20076 1.68029 0
M  V30 7195 O 682.176 4.30264 0.824898 0
M  V30 7196 C 683.677 3.65515 2.50826 0
M  V30 7197 H 680.897 0.62549 0.242907 0
M  V30 7198 H 683.441 2.04219 0.107151 0
M  V30 7199 H 681.596 3.06418 2.37038 0
M  V30 7200 H 682.01 5.05439 1.40113 0
M  V30 7201 H 683.484 4.60081 3.05008 0
M  V30 7202 H 683.961 2.92029 3.28048 0
M  V30 7203 H 684.567 3.81952 1.87064 0
M  V30 7204 O 682.921 -0.266262 1.5929 0
M  V30 7205 H 683.612 -0.91096 1.70942 0
M  V30 END ATOM
M  V30 BEGIN BOND
M  V30 END BOND
M  V30 END CTAB
M  END
$$$$
