drugbank_target|P04377 Pseudoazurin (DB04229)
 OpenBabel12092120023D

  0  0  0     0  0            999 V3000
M  V30 BEGIN CTAB
M  V30 COUNTS 2240 2259 0 0 0
M  V30 BEGIN ATOM
M  V30 1 H -0.908 1.98254 -0.117106 0
M  V30 2 N 0 1.576 0 0
M  V30 3 C 0.933 2.03868 1.02534 0
M  V30 4 C 1.911 0.928543 1.3348 0
M  V30 5 O 3.095 1.19667 1.45644 0
M  V30 6 C 0.222 2.43627 2.35294 0
M  V30 7 C -0.732 3.65373 2.2001 0
M  V30 8 S 0.101 5.13292 1.52614 0
M  V30 9 C 1.257 5.56322 2.86805 0
M  V30 10 H 1.49 2.90518 0.631377 0
M  V30 11 H -0.977 1.52953 0.210867 0
M  V30 12 H 0.981 2.67203 3.11629 0
M  V30 13 H -0.358 1.57376 2.7183 0
M  V30 14 H -1.165 3.90944 3.18086 0
M  V30 15 H -1.563 3.418 1.51819 0
M  V30 16 H 0.729 5.58782 3.83104 0
M  V30 17 H 1.672 6.56266 2.65933 0
M  V30 18 H 2.08 4.83886 2.90714 0
M  V30 19 N 1.4781 -0.272755 1.55222 0
M  V30 20 C 2.8941 -0.619959 1.47067 0
M  V30 21 C 3.0941 -1.895 0.684978 0
M  V30 22 O 2.1501 -2.51675 0.203931 0
M  V30 23 C 3.4631 -0.746693 2.91282 0
M  V30 24 C 5.0111 -0.840731 3.01497 0
M  V30 25 C 5.4861 -0.99924 4.46967 0
M  V30 26 N 6.9771 -1.06476 4.50796 0
M  V30 27 C 7.7121 -1.20621 5.6057 0
M  V30 28 N 7.2081 -1.31483 6.80209 0
M  V30 29 N 9.0011 -1.23733 5.48312 0
M  V30 30 H 1.1521 0.564606 2.04758 0
M  V30 31 H 3.4151 0.191177 0.928523 0
M  V30 32 H 3.1211 0.119753 3.51496 0
M  V30 33 H 2.9951 -1.6269 3.40311 0
M  V30 34 H 5.3821 -1.69764 2.41379 0
M  V30 35 H 5.4631 0.0640874 2.5572 0
M  V30 36 H 5.1071 -0.146984 5.07687 0
M  V30 37 H 5.0371 -1.91871 4.90401 0
M  V30 38 H 7.5281 -0.993196 3.64615 0
M  V30 39 H 7.8411 -1.42111 7.59621 0
M  V30 40 H 6.1861 -1.28487 6.8302 0
M  V30 41 H 9.3771 -1.14877 4.53785 0
M  V30 42 H 9.5501 -1.34412 6.33906 0
M  V30 43 N 2.9562 -1.48159 -0.537278 0
M  V30 44 C 3.9042 -1.62573 -1.66352 0
M  V30 45 C 4.8982 -0.492366 -1.62087 0
M  V30 46 O 6.1042 -0.670847 -1.67032 0
M  V30 47 H 2.4792 -0.511992 -0.550789 0
M  V30 48 H 4.4502 -2.57176 -1.51337 0
M  V30 49 C 3.1992 -1.67583 -3.04649 0
M  V30 50 H 2.5222 -2.54151 -3.08622 0
M  V30 51 H 3.9622 -1.81713 -3.83088 0
M  V30 52 C 2.4212 -0.413039 -3.34358 0
M  V30 53 O 2.9512 0.477259 -3.98855 0
M  V30 54 N 1.1572 -0.286961 -2.8918 0
M  V30 55 H 0.7042 -1.01241 -2.36871 0
M  V30 56 H 0.6622 0.556963 -3.09427 0
M  V30 57 N 4.4343 0.785586 -1.36625 0
M  V30 58 C 5.6833 1.53883 -1.30396 0
M  V30 59 C 5.9963 1.95271 0.113452 0
M  V30 60 O 7.2023 2.69858 0.298142 0
M  V30 61 C 5.6583 2.77808 -2.28802 0
M  V30 62 C 5.2663 2.43574 -3.75999 0
M  V30 63 C 7.0103 3.55783 -2.31558 0
M  V30 64 C 4.9173 3.63919 -4.66173 0
M  V30 65 H 3.8473 0.577678 -0.484566 0
M  V30 66 H 6.4983 0.861705 -1.62009 0
M  V30 67 H 4.8803 3.47339 -1.90188 0
M  V30 68 H 6.0543 1.81916 -4.23371 0
M  V30 69 H 4.3693 1.78803 -3.76056 0
M  V30 70 H 6.9663 4.45205 -2.96137 0
M  V30 71 H 7.3093 3.94644 -1.3252 0
M  V30 72 H 7.8423 2.93235 -2.68809 0
M  V30 73 H 4.5813 3.3015 -5.66287 0
M  V30 74 H 4.1013 4.2473 -4.23515 0
M  V30 75 H 5.7803 4.30901 -4.82632 0
M  V30 76 N 5.9124 1.20967 1.01018 0
M  V30 77 C 6.8754 0.965918 2.07853 0
M  V30 78 C 7.8754 -0.0610545 1.60684 0
M  V30 79 O 9.0654 0.175681 1.73312 0
M  V30 80 C 6.1974 0.455513 3.37843 0
M  V30 81 H 7.3904 1.91365 2.3091 0
M  V30 82 H 4.9434 1.02594 1.17916 0
M  V30 83 H 5.6784 -0.497381 3.20463 0
M  V30 84 H 5.4634 1.19622 3.73407 0
M  V30 85 H 6.9534 0.304667 4.16487 0
M  V30 86 N 7.3905 -1.2043 1.01659 0
M  V30 87 C 8.6395 -1.89118 0.701237 0
M  V30 88 C 8.9525 -1.79705 -0.772358 0
M  V30 89 O 10.1585 -2.43528 -1.20026 0
M  V30 90 C 8.6145 -3.39168 1.20388 0
M  V30 91 C 8.2225 -3.57166 2.70438 0
M  V30 92 C 9.9665 -4.1341 0.963953 0
M  V30 93 C 7.8735 -5.01042 3.14183 0
M  V30 94 H 6.8035 -0.708267 0.2586 0
M  V30 95 H 9.4545 -1.36239 1.22927 0
M  V30 96 H 7.8365 -3.91369 0.603824 0
M  V30 97 H 9.0105 -3.15351 3.35992 0
M  V30 98 H 7.3255 -2.96294 2.92572 0
M  V30 99 H 9.9225 -5.19491 1.26621 0
M  V30 100 H 10.2655 -4.16181 -0.099578 0
M  V30 101 H 10.7985 -3.67309 1.52738 0
M  V30 102 H 7.5375 -5.03426 4.19812 0
M  V30 103 H 7.0575 -5.43668 2.53348 0
M  V30 104 H 8.7365 -5.69623 3.0682 0
M  V30 105 N 8.8686 -0.792821 -1.36206 0
M  V30 106 C 9.8156 -0.191653 -2.30003 0
M  V30 107 C 10.7856 0.666453 -1.52143 0
M  V30 108 O 11.9706 0.61442 -1.80636 0
M  V30 109 C 9.1106 0.664848 -3.38635 0
M  V30 110 C 8.2236 -0.212175 -4.31479 0
M  V30 111 C 7.3586 0.651022 -5.27196 0
M  V30 112 C 6.3976 -0.227247 -6.11678 0
M  V30 113 N 5.5346 0.595127 -6.99573 0
M  V30 114 H 10.3746 -0.996978 -2.80828 0
M  V30 115 H 7.9116 -0.503206 -1.38225 0
M  V30 116 H 9.8696 1.17645 -4.00269 0
M  V30 117 H 8.4996 1.43557 -2.89122 0
M  V30 118 H 7.5516 -0.841777 -3.70969 0
M  V30 119 H 8.8636 -0.888751 -4.90818 0
M  V30 120 H 8.0176 1.2283 -5.94136 0
M  V30 121 H 6.7566 1.36121 -4.68319 0
M  V30 122 H 5.7616 -0.816904 -5.43697 0
M  V30 123 H 6.9866 -0.93509 -6.72631 0
M  V30 124 H 4.9326 1.28955 -6.432 0
M  V30 125 H 4.8496 -0.0236952 -7.55996 0
M  V30 126 H 6.1176 1.15613 -7.70879 0
M  V30 127 N 10.3467 1.47872 -0.545128 0
M  V30 128 C 11.5937 2.02493 -0.0165858 0
M  V30 129 C 11.9217 1.42073 1.32836 0
M  V30 130 O 11.1767 0.561459 1.87473 0
M  V30 131 C 11.4757 3.57131 0.13867 0
M  V30 132 C 11.1417 4.36411 -1.13384 0
M  V30 133 C 9.8037 4.57792 -1.48256 0
M  V30 134 C 12.1557 4.82223 -1.97764 0
M  V30 135 C 9.4837 5.22233 -2.67376 0
M  V30 136 C 11.8357 5.47977 -3.16076 0
M  V30 137 C 10.4997 5.67593 -3.51275 0
M  V30 138 H 9.7697 0.740975 -0.00606918 0
M  V30 139 H 12.4167 1.77683 -0.714207 0
M  V30 140 H 10.7217 3.80865 0.919172 0
M  V30 141 H 12.4187 3.97031 0.562782 0
M  V30 142 H 9.0087 4.2004 -0.852297 0
M  V30 143 H 13.1927 4.65493 -1.72132 0
M  V30 144 H 8.4487 5.35616 -2.94831 0
M  V30 145 H 12.6227 5.8244 -3.81755 0
M  V30 146 H 10.2497 6.17298 -4.43675 0
M  V30 147 N 11.8248 0.280983 1.55075 0
M  V30 148 C 12.7878 -0.590896 2.21452 0
M  V30 149 C 13.7878 -1.07682 1.19421 0
M  V30 150 O 14.9778 -0.97605 1.44288 0
M  V30 151 C 12.1098 -1.81587 2.88511 0
M  V30 152 H 13.3028 -0.0112554 2.99898 0
M  V30 153 H 10.8558 0.0316438 1.56268 0
M  V30 154 H 11.5908 -2.43587 2.14093 0
M  V30 155 H 11.3758 -1.4753 3.63287 0
M  V30 156 H 12.8658 -2.43575 3.39206 0
M  V30 157 N 13.3029 -1.57598 0.00835791 0
M  V30 158 C 14.2659 -2.07884 -0.965242 0
M  V30 159 C 15.2659 -0.989825 -1.26725 0
M  V30 160 O 16.4559 -1.25218 -1.21104 0
M  V30 161 C 13.5879 -2.52731 -2.28779 0
M  V30 162 H 14.7809 -2.95178 -0.530112 0
M  V30 163 H 12.3339 -1.54458 -0.239283 0
M  V30 164 H 13.0689 -1.68705 -2.76964 0
M  V30 165 H 12.8539 -3.32272 -2.08177 0
M  V30 166 H 14.3439 -2.91933 -2.98605 0
M  V30 167 N 14.781 0.264519 -1.55364 0
M  V30 168 C 15.744 1.31046 -1.88042 0
M  V30 169 C 16.744 1.41943 -0.755569 0
M  V30 170 O 17.934 1.40947 -1.02369 0
M  V30 171 C 15.066 2.69067 -2.09323 0
M  V30 172 H 16.259 1.03297 -2.81549 0
M  V30 173 H 13.812 0.502989 -1.47986 0
M  V30 174 H 14.547 3.01982 -1.18226 0
M  V30 175 H 14.332 2.62542 -2.91229 0
M  V30 176 H 15.822 3.44623 -2.35848 0
M  V30 177 N 16.2591 1.48442 0.529413 0
M  V30 178 C 17.5071 1.56179 1.28267 0
M  V30 179 C 17.8281 0.237721 1.93546 0
M  V30 180 O 17.0981 -0.740779 1.81354 0
M  V30 181 H 15.6781 0.575367 0.476405 0
M  V30 182 H 18.3401 1.84909 0.61602 0
M  V30 183 H 17.4361 2.34312 2.06165 0
M  V30 184 N 17.7372 -0.778329 1.37039 0
M  V30 185 C 18.9862 -1.53189 1.3121 0
M  V30 186 C 19.2992 -1.95328 -0.103095 0
M  V30 187 O 20.5052 -2.70012 -0.283826 0
M  V30 188 C 18.9612 -2.76591 2.30272 0
M  V30 189 C 18.5692 -2.41577 3.77286 0
M  V30 190 C 20.3132 -3.5455 2.33441 0
M  V30 191 C 18.2202 -3.61441 4.68096 0
M  V30 192 H 17.1502 -0.5751 0.487622 0
M  V30 193 H 19.8012 -0.853101 1.62464 0
M  V30 194 H 18.1832 -3.46326 1.92027 0
M  V30 195 H 19.3572 -1.79668 4.2433 0
M  V30 196 H 17.6722 -1.76806 3.76999 0
M  V30 197 H 20.2692 -4.43628 2.98493 0
M  V30 198 H 20.6122 -3.93936 1.34611 0
M  V30 199 H 21.1452 -2.91805 2.7036 0
M  V30 200 H 17.8842 -3.27142 5.6803 0
M  V30 201 H 17.4042 -4.22478 4.25761 0
M  V30 202 H 19.0832 -4.28335 4.8491 0
M  V30 203 N 19.2153 -1.21501 -1.00376 0
M  V30 204 C 20.1453 -0.999478 -2.11028 0
M  V30 205 C 21.1263 0.0759671 -1.6993 0
M  V30 206 O 22.3113 -0.0841106 -1.94018 0
M  V30 207 C 19.4413 -0.564709 -3.42678 0
M  V30 208 C 18.3953 -1.58486 -3.97576 0
M  V30 209 C 17.7213 -1.00628 -5.25146 0
M  V30 210 C 19.0213 -2.97204 -4.29496 0
M  V30 211 H 20.7153 -1.92495 -2.29317 0
M  V30 212 H 18.2613 -0.92693 -1.102 0
M  V30 213 H 20.2143 -0.401091 -4.19487 0
M  V30 214 H 18.9383 0.396411 -3.24185 0
M  V30 215 H 17.5973 -1.73606 -3.22888 0
M  V30 216 H 17.2453 -0.0368439 -5.02987 0
M  V30 217 H 16.9453 -1.68771 -5.62841 0
M  V30 218 H 18.4693 -0.854015 -6.04598 0
M  V30 219 H 19.8833 -2.8552 -4.97143 0
M  V30 220 H 18.2803 -3.62372 -4.78338 0
M  V30 221 H 19.3503 -3.47956 -3.3772 0
M  V30 222 N 20.6934 1.19889 -1.02296 0
M  V30 223 C 21.6564 2.21116 -0.603351 0
M  V30 224 C 22.6564 1.5738 0.329884 0
M  V30 225 O 23.8464 1.73802 0.117702 0
M  V30 226 C 20.9784 3.40696 0.117992 0
M  V30 227 H 22.1714 2.59754 -1.49893 0
M  V30 228 H 19.7244 1.33463 -0.813468 0
M  V30 229 H 20.4594 3.07569 1.0282 0
M  V30 230 H 20.2444 3.88188 -0.552511 0
M  V30 231 H 21.7344 4.15692 0.398696 0
M  V30 232 N 22.1715 0.800033 1.35784 0
M  V30 233 C 23.1045 0.151499 2.27697 0
M  V30 234 C 24.0825 -0.678663 1.4776 0
M  V30 235 O 25.2665 -0.647358 1.77035 0
M  V30 236 C 22.3935 -0.790492 3.29346 0
M  V30 237 C 21.4395 -0.0407832 4.26481 0
M  V30 238 S 22.2725 1.29077 5.19711 0
M  V30 239 C 23.4285 0.353055 6.24903 0
M  V30 240 H 23.6615 0.930796 2.82353 0
M  V30 241 H 21.1945 0.594767 1.42485 0
M  V30 242 H 23.1525 -1.3285 3.88409 0
M  V30 243 H 21.8135 -1.54312 2.73581 0
M  V30 244 H 21.0065 -0.755971 4.98298 0
M  V30 245 H 20.6085 0.427063 3.71554 0
M  V30 246 H 22.9005 -0.464147 6.75908 0
M  V30 247 H 23.8435 1.04023 7.00418 0
M  V30 248 H 24.2515 -0.0483344 5.64479 0
M  V30 249 N 23.6496 -1.47581 0.552962 0
M  V30 250 C 24.5796 -2.32762 -0.185451 0
M  V30 251 C 25.5606 -1.43527 -0.912905 0
M  V30 252 O 26.7456 -1.72388 -0.894201 0
M  V30 253 C 23.8756 -3.25219 -1.21859 0
M  V30 254 C 22.8296 -4.23661 -0.607864 0
M  V30 255 C 22.1556 -5.05413 -1.74533 0
M  V30 256 C 23.4556 -5.20481 0.435582 0
M  V30 257 H 25.1496 -2.94749 0.525684 0
M  V30 258 H 22.6956 -1.41738 0.254251 0
M  V30 259 H 24.6486 -3.8365 -1.7433 0
M  V30 260 H 23.3726 -2.61279 -1.95961 0
M  V30 261 H 22.0316 -3.66451 -0.104489 0
M  V30 262 H 21.6796 -4.3788 -2.47529 0
M  V30 263 H 21.3796 -5.72059 -1.34249 0
M  V30 264 H 22.9036 -5.66701 -2.27338 0
M  V30 265 H 24.3176 -5.733 -0.00290157 0
M  V30 266 H 22.7146 -5.95305 0.757067 0
M  V30 267 H 23.7846 -4.66217 1.33303 0
M  V30 268 N 25.1277 -0.289203 -1.54924 0
M  V30 269 C 26.0907 0.579144 -2.21762 0
M  V30 270 C 27.0907 1.07047 -1.1999 0
M  V30 271 O 28.2807 0.968384 -1.44803 0
M  V30 272 C 25.4127 1.80055 -2.8947 0
M  V30 273 H 26.6057 -0.00464908 -2.999 0
M  V30 274 H 24.1587 -0.0399306 -1.56249 0
M  V30 275 H 24.8937 2.42449 -2.15381 0
M  V30 276 H 24.6787 1.45602 -3.64064 0
M  V30 277 H 26.1687 2.41773 -3.40493 0
M  V30 278 N 26.6058 1.57591 -0.0167156 0
M  V30 279 C 27.5688 2.08393 0.954204 0
M  V30 280 C 28.5688 0.996531 1.26198 0
M  V30 281 O 29.7588 1.25858 1.20438 0
M  V30 282 C 26.8908 2.5394 2.27436 0
M  V30 283 H 28.0838 2.95455 0.514451 0
M  V30 284 H 25.6368 1.54582 0.231089 0
M  V30 285 H 26.3718 1.70171 2.76066 0
M  V30 286 H 26.1568 3.33371 2.06412 0
M  V30 287 H 27.6468 2.93512 2.97053 0
M  V30 288 N 28.0839 -0.256276 1.55502 0
M  V30 289 C 29.4949 -0.826068 1.67431 0
M  V30 290 C 29.8459 -1.86396 0.612446 0
M  V30 291 O 28.9709 -2.15031 -0.243025 0
M  V30 292 C 29.5659 -1.50512 3.03532 0
M  V30 293 C 28.1249 -2.02273 3.17431 0
M  V30 294 C 27.2719 -0.870548 2.63281 0
M  V30 295 H 30.2229 -0.0322728 1.58667 0
M  V30 296 H 30.2439 -2.37279 2.97454 0
M  V30 297 H 29.7559 -0.749484 3.80794 0
M  V30 298 H 27.8569 -2.80746 2.44974 0
M  V30 299 H 27.9699 -2.22655 4.24219 0
M  V30 300 H 26.3339 -1.26851 2.20864 0
M  V30 301 H 27.1169 -0.128149 3.43061 0
M  V30 302 N 29.562 -1.4872 -0.521534 0
M  V30 303 C 30.525 -1.63379 -1.60748 0
M  V30 304 C 31.525 -0.50661 -1.52611 0
M  V30 305 O 32.715 -0.772601 -1.5613 0
M  V30 306 C 29.847 -1.61192 -3.00383 0
M  V30 307 H 31.04 -2.60217 -1.49087 0
M  V30 308 H 28.593 -1.37444 -0.744235 0
M  V30 309 H 29.328 -0.65863 -3.17541 0
M  V30 310 H 29.113 -2.43032 -3.07698 0
M  V30 311 H 30.603 -1.7466 -3.7932 0
M  V30 312 N 31.0401 0.771051 -1.3745 0
M  V30 313 C 31.9701 1.89827 -1.3597 0
M  V30 314 C 32.9511 1.68562 -0.228216 0
M  V30 315 O 34.1361 1.8941 -0.428675 0
M  V30 316 C 31.2661 3.2712 -1.16662 0
M  V30 317 C 30.2201 3.6295 -2.2683 0
M  V30 318 C 29.5461 4.98791 -1.92644 0
M  V30 319 C 30.8461 3.69627 -3.69017 0
M  V30 320 H 32.5401 1.91323 -2.30295 0
M  V30 321 H 30.0861 0.919082 -1.10855 0
M  V30 322 H 32.0391 4.05615 -1.14256 0
M  V30 323 H 30.7631 3.26059 -0.187926 0
M  V30 324 H 29.4221 2.86763 -2.28392 0
M  V30 325 H 29.0701 4.94271 -0.933021 0
M  V30 326 H 28.7701 5.23733 -2.66416 0
M  V30 327 H 30.2941 5.79685 -1.91826 0
M  V30 328 H 31.7081 4.38273 -3.69581 0
M  V30 329 H 30.1051 4.06067 -4.41848 0
M  V30 330 H 31.1751 2.70273 -4.02592 0
M  V30 331 N 32.5182 1.22032 0.997298 0
M  V30 332 C 33.4812 0.987909 2.06816 0
M  V30 333 C 34.4812 -0.0440084 1.6074 0
M  V30 334 O 35.6712 0.194053 1.73116 0
M  V30 335 C 32.8032 0.49132 3.37341 0
M  V30 336 H 33.9962 1.93803 2.28868 0
M  V30 337 H 31.5492 1.03838 1.16822 0
M  V30 338 H 32.2842 -0.463364 3.20973 0
M  V30 339 H 32.0692 1.23575 3.72118 0
M  V30 340 H 33.5592 0.348824 4.16141 0
M  V30 341 N 33.9963 -1.19345 1.0293 0
M  V30 342 C 34.9063 -2.26245 0.620515 0
M  V30 343 C 35.9223 -1.70486 -0.347928 0
M  V30 344 O 37.0983 -2.00347 -0.205704 0
M  V30 345 C 34.1633 -3.46693 -0.0218957 0
M  V30 346 C 33.2243 -4.17632 0.994102 0
M  V30 347 C 32.4573 -5.32329 0.382253 0
M  V30 348 O 32.6803 -5.64552 -0.814676 0
M  V30 349 O 31.6143 -5.91664 1.10531 0
M  V30 350 H 35.4403 -2.63453 1.51083 0
M  V30 351 H 33.0253 -1.26207 0.799513 0
M  V30 352 H 34.9073 -4.19683 -0.380072 0
M  V30 353 H 33.5823 -3.11333 -0.886209 0
M  V30 354 H 32.4893 -3.4676 1.40387 0
M  V30 355 H 33.8223 -4.56964 1.8288 0
M  V30 356 N 35.4744 -0.807222 -1.35358 0
M  V30 357 C 36.4224 -0.20614 -2.31685 0
M  V30 358 C 37.4164 0.644445 -1.56663 0
M  V30 359 O 38.6224 0.537538 -1.71786 0
M  V30 360 H 34.9974 -0.0479006 -0.750473 0
M  V30 361 H 36.9684 -1.03369 -2.79924 0
M  V30 362 C 35.7174 0.630212 -3.41941 0
M  V30 363 H 35.0404 -0.0149558 -3.99797 0
M  V30 364 H 36.4804 1.01716 -4.11619 0
M  V30 365 C 34.9394 1.79601 -2.85035 0
M  V30 366 O 35.4694 2.89351 -2.78637 0
M  V30 367 N 33.6754 1.60774 -2.42074 0
M  V30 368 H 33.2224 0.715009 -2.47478 0
M  V30 369 H 33.1804 2.38933 -2.04349 0
M  V30 370 N 36.9525 1.47285 -0.560781 0
M  V30 371 C 38.2015 2.01668 -0.035895 0
M  V30 372 C 38.5145 1.44021 1.32353 0
M  V30 373 O 39.7205 1.90088 1.93853 0
M  V30 374 C 38.1765 3.59897 -0.0136659 0
M  V30 375 C 37.7845 4.26536 -1.37006 0
M  V30 376 C 39.5285 4.22017 0.458425 0
M  V30 377 C 37.4355 5.76782 -1.30675 0
M  V30 378 H 36.3655 0.753938 -0.00964879 0
M  V30 379 H 39.0165 1.69243 -0.709166 0
M  V30 380 H 37.3985 3.89301 0.725325 0
M  V30 381 H 38.5725 4.0877 -2.12705 0
M  V30 382 H 36.8875 3.76419 -1.78038 0
M  V30 383 H 39.4845 5.32124 0.524247 0
M  V30 384 H 39.8275 3.89437 1.4712 0
M  V30 385 H 40.3605 3.97159 -0.225818 0
M  V30 386 H 37.0995 6.13988 -2.29564 0
M  V30 387 H 36.6195 5.96875 -0.591622 0
M  V30 388 H 38.2985 6.39063 -1.01033 0
M  V30 389 N 38.4306 0.297415 1.54768 0
M  V30 390 C 39.3406 -0.58983 2.27064 0
M  V30 391 C 40.3566 -1.15144 1.30453 0
M  V30 392 O 41.5326 -1.17699 1.63428 0
M  V30 393 C 38.5976 -1.74714 2.9946 0
M  V30 394 C 37.6586 -1.21997 4.11601 0
M  V30 395 C 36.8916 -2.32212 4.80535 0
M  V30 396 O 37.1146 -3.52036 4.48806 0
M  V30 397 O 36.0486 -1.99106 5.68014 0
M  V30 398 H 39.8746 -0.00348199 3.037 0
M  V30 399 H 37.4596 0.0640035 1.49263 0
M  V30 400 H 39.3416 -2.42147 3.44881 0
M  V30 401 H 38.0166 -2.32016 2.25722 0
M  V30 402 H 36.9236 -0.511458 3.70587 0
M  V30 403 H 38.2566 -0.692419 4.87305 0
M  V30 404 N 39.9087 -1.5758 0.0250728 0
M  V30 405 C 41.1547 -1.91917 -0.655413 0
M  V30 406 C 41.4877 -0.901433 -1.72011 0
M  V30 407 O 40.7627 0.0764069 -1.9435 0
M  V30 408 C 41.0457 -3.36751 -1.27558 0
M  V30 409 C 40.8987 -4.49258 -0.220719 0
M  V30 410 C 42.2177 -3.81469 -2.19475 0
M  V30 411 H 39.3367 -0.697925 -0.23679 0
M  V30 412 H 41.9787 -1.89825 0.0815036 0
M  V30 413 H 40.1287 -3.38664 -1.90365 0
M  V30 414 H 41.8007 -4.59478 0.409601 0
M  V30 415 H 40.0437 -4.31415 0.454264 0
M  V30 416 H 40.7147 -5.47618 -0.694175 0
M  V30 417 H 43.1907 -3.81266 -1.66659 0
M  V30 418 H 42.0667 -4.83512 -2.59822 0
M  V30 419 H 42.3277 -3.16744 -3.08424 0
M  V30 420 N 41.3868 0.248026 -1.55636 0
M  V30 421 C 42.3368 1.30994 -1.86614 0
M  V30 422 C 43.3208 1.43543 -0.726918 0
M  V30 423 O 44.5128 1.46804 -0.988818 0
M  V30 424 C 41.6418 2.6656 -2.16335 0
M  V30 425 C 40.7278 2.58019 -3.36581 0
M  V30 426 N 41.1188 2.1911 -4.55878 0
M  V30 427 C 39.4168 2.89035 -3.39669 0
M  V30 428 C 40.1178 2.21174 -5.38012 0
M  V30 429 N 39.0938 2.60632 -4.77045 0
M  V30 430 H 42.8958 0.999583 -2.76379 0
M  V30 431 H 40.4098 0.456652 -1.55848 0
M  V30 432 H 42.4068 3.43194 -2.36692 0
M  V30 433 H 41.0668 2.98463 -1.27867 0
M  V30 434 H 42.0778 1.90672 -4.81523 0
M  V30 435 H 38.7548 3.25485 -2.61469 0
M  V30 436 H 40.1448 1.9344 -6.43452 0
M  V30 437 N 42.8649 1.48995 0.513639 0
M  V30 438 C 43.7979 1.59319 1.63379 0
M  V30 439 C 44.7759 0.442816 1.56454 0
M  V30 440 O 45.9599 0.656655 1.76693 0
M  V30 441 C 43.0869 1.5364 3.01848 0
M  V30 442 C 42.1329 2.7372 3.27078 0
M  V30 443 S 42.9659 4.35528 3.1157 0
M  V30 444 C 44.1219 4.32473 4.52458 0
M  V30 445 H 44.3549 2.54079 1.54374 0
M  V30 446 H 41.8879 1.3773 0.697849 0
M  V30 447 H 43.8459 1.51049 3.81699 0
M  V30 448 H 42.5069 0.601898 3.08279 0
M  V30 449 H 41.6999 2.6593 4.28132 0
M  V30 450 H 41.3019 2.73657 2.54927 0
M  V30 451 H 43.5939 4.03414 5.44301 0
M  V30 452 H 44.5369 5.33762 4.65299 0
M  V30 453 H 44.9449 3.62718 4.32546 0
M  V30 454 N 44.343 -0.763751 1.37857 0
M  V30 455 C 45.273 -1.89103 1.36975 0
M  V30 456 C 46.254 -1.68439 0.237152 0
M  V30 457 O 47.439 -1.8918 0.438713 0
M  V30 458 C 44.569 -3.26496 1.18395 0
M  V30 459 C 43.523 -3.61741 2.28751 0
M  V30 460 C 42.849 -4.97762 1.95286 0
M  V30 461 C 44.149 -3.67665 3.70972 0
M  V30 462 H 45.843 -1.90099 2.31307 0
M  V30 463 H 43.389 -0.91319 1.11341 0
M  V30 464 H 45.342 -4.05003 1.16406 0
M  V30 465 H 44.066 -3.25955 0.205215 0
M  V30 466 H 42.725 -2.85547 2.29909 0
M  V30 467 H 42.373 -4.93769 0.959221 0
M  V30 468 H 42.073 -5.22313 2.69189 0
M  V30 469 H 43.597 -5.7866 1.94898 0
M  V30 470 H 45.011 -4.36307 3.719 0
M  V30 471 H 43.408 -4.03718 4.43995 0
M  V30 472 H 44.478 -2.68134 4.0402 0
M  V30 473 N 45.8211 -1.22559 -0.990812 0
M  V30 474 C 46.7691 -0.994798 -2.10253 0
M  V30 475 C 47.7631 0.0627798 -1.69284 0
M  V30 476 O 48.9691 -0.0898392 -1.79776 0
M  V30 477 H 45.3441 -0.304527 -0.687581 0
M  V30 478 H 47.3151 -1.93812 -2.26891 0
M  V30 479 C 46.0641 -0.591439 -3.42633 0
M  V30 480 H 45.3871 -1.3969 -3.74602 0
M  V30 481 H 46.8271 -0.469385 -4.21394 0
M  V30 482 C 45.2861 0.699232 -3.29564 0
M  V30 483 O 45.8161 1.75112 -3.61523 0
M  V30 484 N 44.0221 0.671182 -2.82743 0
M  V30 485 H 43.5691 -0.185136 -2.56934 0
M  V30 486 H 43.5271 1.53502 -2.7438 0
M  V30 487 N 47.2992 1.18797 -1.03562 0
M  V30 488 C 48.2462 2.22253 -0.622259 0
M  V30 489 C 49.2162 1.61987 0.36736 0
M  V30 490 O 50.4012 1.88986 0.262492 0
M  V30 491 C 47.5412 3.45097 0.0138462 0
M  V30 492 C 46.6542 4.19722 -1.02263 0
M  V30 493 C 45.7892 5.30009 -0.355573 0
M  V30 494 C 44.8282 5.96399 -1.37749 0
M  V30 495 N 43.9652 6.98234 -0.735766 0
M  V30 496 H 48.8052 2.56968 -1.50903 0
M  V30 497 H 46.3422 1.26245 -0.755017 0
M  V30 498 H 48.3002 4.15279 0.399948 0
M  V30 499 H 46.9302 3.11018 0.864158 0
M  V30 500 H 45.9822 3.48418 -1.52673 0
M  V30 501 H 47.2942 4.65227 -1.79903 0
M  V30 502 H 46.4482 6.0664 0.0850095 0
M  V30 503 H 45.1872 4.85592 0.452967 0
M  V30 504 H 44.1922 5.18512 -1.82826 0
M  V30 505 H 45.4172 6.42899 -2.18764 0
M  V30 506 H 43.3632 6.55979 0.0525597 0
M  V30 507 H 43.2802 7.41965 -1.44995 0
M  V30 508 H 44.5482 7.78845 -0.31941 0
M  V30 509 N 48.7773 0.814389 1.34928 0
M  V30 510 C 50.0253 0.397636 1.9815 0
M  V30 511 C 50.3463 -1.04069 1.64908 0
M  V30 512 O 49.6163 -1.72121 0.93548 0
M  V30 513 H 48.1963 0.144043 0.732981 0
M  V30 514 H 50.8583 1.04195 1.6471 0
M  V30 515 H 49.9543 0.509688 3.0791 0
M  V30 516 N 50.2554 -1.46986 0.568584 0
M  V30 517 C 51.2184 -2.28624 -0.162366 0
M  V30 518 C 52.2184 -1.37596 -0.832103 0
M  V30 519 O 53.4084 -1.60115 -0.68622 0
M  V30 520 C 50.5404 -3.17596 -1.23878 0
M  V30 521 H 51.7334 -2.94722 0.554899 0
M  V30 522 H 49.2864 -1.52863 0.325976 0
M  V30 523 H 50.0214 -2.56214 -1.98808 0
M  V30 524 H 49.8064 -3.846 -0.763219 0
M  V30 525 H 51.2964 -3.79078 -1.75185 0
M  V30 526 N 51.7335 -0.305618 -1.54608 0
M  V30 527 C 52.6435 0.57778 -2.27374 0
M  V30 528 C 53.6595 1.14451 -1.31061 0
M  V30 529 O 54.8355 1.16831 -1.6405 0
M  V30 530 C 51.9005 1.73123 -3.00382 0
M  V30 531 C 50.9615 1.19812 -4.12242 0
M  V30 532 C 50.1945 2.2966 -4.81759 0
M  V30 533 O 50.4175 3.49651 -4.50666 0
M  V30 534 O 49.3515 1.96091 -5.69062 0
M  V30 535 H 53.1775 -0.012624 -3.03697 0
M  V30 536 H 50.7625 -0.0719184 -1.49227 0
M  V30 537 H 52.6445 2.40315 -3.4616 0
M  V30 538 H 51.3195 2.30815 -2.26949 0
M  V30 539 H 50.2265 0.491798 -3.70853 0
M  V30 540 H 51.5595 0.666566 -4.87666 0
M  V30 541 N 53.2116 1.57565 -0.0334293 0
M  V30 542 C 54.4596 1.91598 0.642999 0
M  V30 543 C 54.7806 0.910847 1.7242 0
M  V30 544 O 54.0506 -0.0469931 1.95844 0
M  V30 545 H 52.6306 0.707228 0.240496 0
M  V30 546 H 55.2926 1.94726 -0.0822488 0
M  V30 547 H 54.3886 2.92336 1.09298 0
M  V30 548 N 54.6897 -0.239769 1.55765 0
M  V30 549 C 55.6527 -1.28038 1.90103 0
M  V30 550 C 56.6527 -1.40723 0.778055 0
M  V30 551 O 57.8427 -1.39301 1.04599 0
M  V30 552 C 54.9747 -2.65702 2.13577 0
M  V30 553 H 56.1677 -0.988048 2.83157 0
M  V30 554 H 53.7207 -0.479382 1.48767 0
M  V30 555 H 54.4557 -3.00063 1.23015 0
M  V30 556 H 54.2407 -2.57875 2.95369 0
M  V30 557 H 55.7307 -3.40828 2.41301 0
M  V30 558 N 56.1678 -1.49265 -0.50573 0
M  V30 559 C 57.1008 -1.60183 -1.62532 0
M  V30 560 C 58.0788 -0.451107 -1.56217 0
M  V30 561 O 59.2628 -0.666016 -1.76342 0
M  V30 562 C 56.3898 -1.55238 -3.01029 0
M  V30 563 C 55.4358 -2.7545 -3.25621 0
M  V30 564 S 56.2688 -4.37174 -3.09256 0
M  V30 565 C 57.4248 -4.34866 -4.50158 0
M  V30 566 H 57.6578 -2.54894 -1.53025 0
M  V30 567 H 55.1908 -1.38098 -0.690535 0
M  V30 568 H 57.1488 -1.53071 -3.80893 0
M  V30 569 H 55.8098 -0.618238 -3.07956 0
M  V30 570 H 55.0028 -2.68197 -4.26716 0
M  V30 571 H 54.6048 -2.75005 -2.53472 0
M  V30 572 H 56.8968 -4.06295 -5.42154 0
M  V30 573 H 57.8398 -5.36223 -4.62462 0
M  V30 574 H 58.2478 -3.65007 -4.30616 0
M  V30 575 N 57.6459 0.756429 -1.3826 0
M  V30 576 C 58.8919 1.51772 -1.34511 0
M  V30 577 C 59.2249 1.94089 0.0656691 0
M  V30 578 O 58.4999 1.65221 1.02626 0
M  V30 579 C 58.7829 2.77226 -2.29821 0
M  V30 580 C 58.6359 2.41065 -3.79747 0
M  V30 581 C 59.9549 3.79236 -2.23312 0
M  V30 582 H 57.0739 0.550578 -0.489931 0
M  V30 583 H 59.7159 0.866607 -1.69086 0
M  V30 584 H 57.8659 3.32784 -2.00467 0
M  V30 585 H 59.5379 1.91303 -4.19763 0
M  V30 586 H 57.7809 1.7356 -3.97567 0
M  V30 587 H 58.4519 3.3081 -4.41892 0
M  V30 588 H 60.9279 3.3321 -2.49219 0
M  V30 589 H 59.8039 4.64714 -2.92116 0
M  V30 590 H 60.0649 4.24615 -1.23102 0
M  V30 591 N 59.124 1.23083 0.984299 0
M  V30 592 C 60.371 1.06057 1.72505 0
M  V30 593 C 60.699 -0.403105 1.90277 0
M  V30 594 O 59.954 -1.3149 1.44944 0
M  V30 595 C 60.253 1.72673 3.1292 0
M  V30 596 C 59.919 3.22586 3.15038 0
M  V30 597 C 58.581 3.63489 3.15324 0
M  V30 598 C 60.933 4.185 3.10657 0
M  V30 599 C 58.261 4.98772 3.08939 0
M  V30 600 C 60.613 5.53769 3.05814 0
M  V30 601 C 59.277 5.94041 3.04419 0
M  V30 602 H 58.547 0.388091 0.631242 0
M  V30 603 H 61.194 1.52963 1.15215 0
M  V30 604 H 59.499 1.18116 3.73572 0
M  V30 605 H 61.196 1.56982 3.68996 0
M  V30 606 H 57.786 2.90022 3.15571 0
M  V30 607 H 61.97 3.87911 3.09579 0
M  V30 608 H 57.226 5.29193 3.0621 0
M  V30 609 H 61.4 6.27808 3.0138 0
M  V30 610 H 59.027 6.98833 2.99227 0
M  V30 611 N 60.6021 -1.18246 1.0419 0
M  V30 612 C 61.5121 -2.25574 0.644476 0
M  V30 613 C 62.5281 -1.70845 -0.329826 0
M  V30 614 O 63.7041 -2.00554 -0.184443 0
M  V30 615 C 60.7691 -3.46697 0.014877 0
M  V30 616 C 59.8301 -4.16554 1.03834 0
M  V30 617 C 59.0631 -5.31894 0.438692 0
M  V30 618 O 59.2861 -5.65385 -0.754752 0
M  V30 619 O 58.2201 -5.90459 1.168 0
M  V30 620 H 62.0461 -2.61836 1.53869 0
M  V30 621 H 59.6311 -1.25352 0.812854 0
M  V30 622 H 61.5131 -4.20062 -0.335538 0
M  V30 623 H 60.1881 -3.12255 -0.853138 0
M  V30 624 H 59.0951 -3.45251 1.44057 0
M  V30 625 H 60.4281 -4.54998 1.87716 0
M  V30 626 N 62.0802 -0.821533 -1.34494 0
M  V30 627 C 63.4912 -0.467956 -1.8074 0
M  V30 628 C 63.8422 1.01151 -1.68116 0
M  V30 629 O 62.9672 1.78707 -1.22036 0
M  V30 630 C 63.5622 -0.842627 -3.28154 0
M  V30 631 C 62.1212 -0.541439 -3.72485 0
M  V30 632 C 61.2682 -1.06028 -2.56229 0
M  V30 633 H 64.2192 -1.01183 -1.22261 0
M  V30 634 H 64.2402 -0.145876 -3.8022 0
M  V30 635 H 63.7522 -1.91945 -3.37311 0
M  V30 636 H 61.8532 0.526034 -3.68868 0
M  V30 637 H 61.9662 -1.08453 -4.66663 0
M  V30 638 H 60.3302 -0.481892 -2.501 0
M  V30 639 H 61.1132 -2.14352 -2.68157 0
M  V30 640 N 63.5583 1.46682 -0.576371 0
M  V30 641 C 64.5213 2.28707 0.150239 0
M  V30 642 C 65.5213 1.38035 0.824794 0
M  V30 643 O 66.7113 1.60476 0.677719 0
M  V30 644 C 63.8433 3.18248 1.22192 0
M  V30 645 H 65.0363 2.94423 -0.570521 0
M  V30 646 H 62.5893 1.52688 -0.334078 0
M  V30 647 H 63.3243 2.57265 1.97447 0
M  V30 648 H 63.1093 3.85 0.742812 0
M  V30 649 H 64.5993 3.80001 1.73172 0
M  V30 650 N 65.0364 0.313813 1.54444 0
M  V30 651 C 66.2664 -0.293491 2.04505 0
M  V30 652 C 66.6744 -1.47086 1.19005 0
M  V30 653 O 66.0174 -1.82481 0.211257 0
M  V30 654 C 66.0794 -0.800455 3.50475 0
M  V30 655 C 65.7434 0.253322 4.56297 0
M  V30 656 C 66.7404 1.08612 5.08428 0
M  V30 657 C 64.4254 0.398708 5.00715 0
M  V30 658 C 66.4194 2.05013 6.0353 0
M  V30 659 C 64.1064 1.36614 5.95634 0
M  V30 660 C 65.1044 2.19033 6.46926 0
M  V30 661 O 64.7924 3.14134 7.39983 0
M  V30 662 H 64.5244 -0.0658325 0.672787 0
M  V30 663 H 67.0784 0.455177 2.00293 0
M  V30 664 H 65.3084 -1.59987 3.52053 0
M  V30 665 H 66.9974 -1.32504 3.83663 0
M  V30 666 H 67.7634 0.984736 4.74898 0
M  V30 667 H 63.6424 -0.23289 4.60411 0
M  V30 668 H 67.1864 2.69382 6.4349 0
M  V30 669 H 63.0834 1.4682 6.28581 0
M  V30 670 H 63.8514 3.0926 7.57826 0
M  V30 671 N 66.5145 -1.57545 0.0417849 0
M  V30 672 C 67.7635 -1.91494 -0.633492 0
M  V30 673 C 68.0765 -0.921084 -1.72556 0
M  V30 674 O 69.2825 -1.15228 -2.45835 0
M  V30 675 C 67.7385 -3.40072 -1.17808 0
M  V30 676 C 67.3465 -4.47843 -0.118633 0
M  V30 677 C 69.0905 -3.8307 -1.82915 0
M  V30 678 C 66.9975 -5.87529 -0.675578 0
M  V30 679 H 65.9275 -0.714653 -0.24039 0
M  V30 680 H 68.5785 -1.83175 0.109148 0
M  V30 681 H 66.9605 -3.43364 -1.97274 0
M  V30 682 H 68.1345 -4.56128 0.654494 0
M  V30 683 H 66.4495 -4.14128 0.434414 0
M  V30 684 H 69.0465 -4.84794 -2.25563 0
M  V30 685 H 69.3895 -3.1881 -2.67705 0
M  V30 686 H 69.9225 -3.82255 -1.10119 0
M  V30 687 H 66.6615 -6.55362 0.134475 0
M  V30 688 H 66.1815 -5.82824 -1.4169 0
M  V30 689 H 67.8605 -6.36491 -1.1614 0
M  V30 690 N 67.9926 0.231505 -1.5589 0
M  V30 691 C 68.9396 1.28682 -1.91598 0
M  V30 692 C 69.9096 1.47071 -0.771974 0
M  V30 693 O 71.0946 1.60802 -1.027 0
M  V30 694 C 68.2346 2.6342 -2.22944 0
M  V30 695 C 67.3476 2.52912 -3.50228 0
M  V30 696 C 66.4826 3.80106 -3.7107 0
M  V30 697 C 65.5216 3.64279 -4.91902 0
M  V30 698 N 64.6586 4.834 -5.09184 0
M  V30 699 H 69.4986 0.975305 -2.81588 0
M  V30 700 H 67.0356 0.470299 -1.39379 0
M  V30 701 H 68.9936 3.41869 -2.39126 0
M  V30 702 H 67.6236 2.92687 -1.36139 0
M  V30 703 H 66.6756 1.6595 -3.42294 0
M  V30 704 H 67.9876 2.37133 -4.38827 0
M  V30 705 H 67.1416 4.66999 -3.87295 0
M  V30 706 H 65.8806 3.98799 -2.80733 0
M  V30 707 H 64.8856 2.7577 -4.75637 0
M  V30 708 H 66.1106 3.47067 -5.83714 0
M  V30 709 H 64.0566 5.02425 -4.21788 0
M  V30 710 H 63.9736 4.70311 -5.91898 0
M  V30 711 H 65.2416 5.71747 -5.29835 0
M  V30 712 N 69.4707 1.49531 0.497807 0
M  V30 713 C 70.4337 1.65916 1.58128 0
M  V30 714 C 71.4337 0.530825 1.51786 0
M  V30 715 O 72.6237 0.797342 1.54881 0
M  V30 716 C 69.7557 1.65951 2.9778 0
M  V30 717 H 70.9487 2.62556 1.44929 0
M  V30 718 H 68.5017 1.38611 0.722275 0
M  V30 719 H 69.2367 0.709065 3.16453 0
M  V30 720 H 69.0217 2.47897 3.03792 0
M  V30 721 H 70.5117 1.80673 3.76493 0
M  V30 722 N 70.9488 -0.749086 1.3866 0
M  V30 723 C 71.8968 -1.88428 1.36373 0
M  V30 724 C 72.8908 -1.67561 0.248929 0
M  V30 725 O 74.0968 -1.75074 0.41821 0
M  V30 726 H 70.4718 -0.620023 0.42553 0
M  V30 727 H 72.4428 -1.87473 2.32156 0
M  V30 728 C 71.1918 -3.25961 1.21014 0
M  V30 729 H 70.5148 -3.42607 2.06059 0
M  V30 730 H 71.9548 -4.05625 1.23469 0
M  V30 731 C 70.4138 -3.36799 -0.0825941 0
M  V30 732 O 70.9438 -3.87517 -1.05797 0
M  V30 733 N 69.1498 -2.90258 -0.140939 0
M  V30 734 H 68.6968 -2.49174 0.653477 0
M  V30 735 H 68.6548 -2.97889 -1.00545 0
M  V30 736 N 72.4269 -1.23603 -0.977757 0
M  V30 737 C 73.8379 -1.06424 -1.53398 0
M  V30 738 C 74.1889 0.367578 -1.92726 0
M  V30 739 O 73.3139 1.25465 -1.76316 0
M  V30 740 C 73.9089 -1.92568 -2.78753 0
M  V30 741 C 72.4679 -1.79642 -3.30765 0
M  V30 742 C 71.6149 -1.88111 -2.03739 0
M  V30 743 H 74.5659 -1.37227 -0.797152 0
M  V30 744 H 74.5869 -1.45203 -3.51705 0
M  V30 745 H 74.0989 -2.96771 -2.50098 0
M  V30 746 H 72.1999 -0.782325 -3.64294 0
M  V30 747 H 72.3129 -2.63174 -4.00345 0
M  V30 748 H 70.6769 -1.31723 -2.17994 0
M  V30 749 H 71.4599 -2.93875 -1.77461 0
M  V30 750 N 73.905 1.17692 -1.04816 0
M  V30 751 C 75.153 1.87488 -0.754497 0
M  V30 752 C 75.474 1.81205 0.720407 0
M  V30 753 O 74.744 1.23544 1.52032 0
M  V30 754 H 73.324 0.694101 -0.276102 0
M  V30 755 H 75.986 1.42793 -1.32651 0
M  V30 756 H 75.082 2.93328 -1.06606 0
M  V30 757 N 75.3831 0.828654 1.34056 0
M  V30 758 C 76.6601 0.341809 1.9259 0
M  V30 759 C 77.0401 -1.17158 1.75605 0
M  V30 760 O 76.3881 -1.98132 1.13824 0
M  V30 761 C 76.5981 0.777453 3.4023 0
M  V30 762 C 77.9461 0.779579 4.17382 0
M  V30 763 O 78.9701 0.7204 3.48839 0
M  V30 764 O 77.8291 0.857996 5.39723 0
M  V30 765 H 74.9231 0.0946085 0.821571 0
M  V30 766 H 77.4691 0.913827 1.42994 0
M  V30 767 H 76.2411 1.8196 3.46419 0
M  V30 768 H 75.8641 0.181444 3.97186 0
M  V30 769 N 76.8612 -1.46375 0.584142 0
M  V30 770 C 78.0892 -2.06761 0.0759296 0
M  V30 771 C 78.5042 -1.43266 -1.22965 0
M  V30 772 O 77.8612 -0.538458 -1.74376 0
M  V30 773 C 77.9122 -3.61375 -0.0950384 0
M  V30 774 O 77.6332 -4.22495 1.15887 0
M  V30 775 C 79.1342 -4.38693 -0.637434 0
M  V30 776 H 76.3542 -0.668479 0.0581075 0
M  V30 777 H 78.8982 -1.8798 0.805218 0
M  V30 778 H 77.0532 -3.79578 -0.774554 0
M  V30 779 H 77.4672 -5.15385 0.973598 0
M  V30 780 H 78.9412 -5.47464 -0.706237 0
M  V30 781 H 79.4182 -4.06836 -1.65472 0
M  V30 782 H 80.0242 -4.25299 0.00725967 0
M  V30 783 N 78.3393 -0.321999 -1.54275 0
M  V30 784 C 79.5853 0.281461 -2.00837 0
M  V30 785 C 79.9183 1.51909 -1.20985 0
M  V30 786 O 79.1933 1.923 -0.291733 0
M  V30 787 C 79.4763 0.617162 -3.54772 0
M  V30 788 C 79.3293 -0.631064 -4.45351 0
M  V30 789 C 80.6483 1.43542 -4.16033 0
M  V30 790 H 77.7673 0.100826 -0.730071 0
M  V30 791 H 80.4093 -0.438268 -1.84876 0
M  V30 792 H 78.5593 1.23034 -3.68504 0
M  V30 793 H 80.2313 -1.26934 -4.43492 0
M  V30 794 H 78.4743 -1.26025 -4.15091 0
M  V30 795 H 79.1453 -0.351735 -5.50878 0
M  V30 796 H 81.6213 0.917134 -4.05867 0
M  V30 797 H 80.4973 1.63907 -5.23856 0
M  V30 798 H 80.7583 2.43108 -3.69257 0
M  V30 799 N 79.8174 1.5752 -0.0501392 0
M  V30 800 C 81.0454 1.96963 0.633492 0
M  V30 801 C 81.4604 0.927631 1.6444 0
M  V30 802 O 80.8174 -0.0882665 1.82286 0
M  V30 803 C 80.8684 3.36487 1.32132 0
M  V30 804 O 80.5894 4.36693 0.350894 0
M  V30 805 C 82.0904 3.90682 2.09481 0
M  V30 806 H 79.3104 0.648244 0.173266 0
M  V30 807 H 81.8544 2.0417 -0.116134 0
M  V30 808 H 80.0094 3.30434 2.02218 0
M  V30 809 H 80.4234 5.17702 0.841735 0
M  V30 810 H 81.8974 4.90591 2.5303 0
M  V30 811 H 82.3744 3.26053 2.94255 0
M  V30 812 H 82.9804 4.00069 1.44307 0
M  V30 813 N 81.2955 -0.223234 1.56011 0
M  V30 814 C 82.5425 -0.947875 1.78946 0
M  V30 815 C 82.8705 -1.844 0.618608 0
M  V30 816 O 82.1255 -1.91629 -0.397093 0
M  V30 817 C 82.4245 -1.81948 3.0762 0
M  V30 818 C 82.0905 -1.07672 4.37856 0
M  V30 819 C 80.7525 -0.871544 4.73242 0
M  V30 820 C 83.1045 -0.552081 5.18268 0
M  V30 821 C 80.4325 -0.129791 5.86556 0
M  V30 822 C 82.7845 0.17632 6.32354 0
M  V30 823 C 81.4485 0.39277 6.66343 0
M  V30 824 H 80.7185 -0.346852 0.654809 0
M  V30 825 H 83.3655 -0.216171 1.90276 0
M  V30 826 H 81.6705 -2.61899 2.91404 0
M  V30 827 H 83.3675 -2.38227 3.22566 0
M  V30 828 H 79.9575 -1.24662 4.1007 0
M  V30 829 H 84.1415 -0.698076 4.91366 0
M  V30 830 H 79.3975 0.048153 6.11381 0
M  V30 831 H 83.5715 0.590367 6.93893 0
M  V30 832 H 81.1985 0.969466 7.53993 0
M  V30 833 N 82.7736 -1.49793 -0.48987 0
M  V30 834 C 84.0226 -1.59085 -1.23995 0
M  V30 835 C 84.3356 -0.287907 -1.9347 0
M  V30 836 O 85.5416 -0.259506 -2.70257 0
M  V30 837 C 83.9976 -2.80736 -2.252 0
M  V30 838 C 83.6056 -4.17833 -1.61614 0
M  V30 839 C 85.3496 -2.99364 -3.00967 0
M  V30 840 C 83.2566 -5.30693 -2.60996 0
M  V30 841 H 82.1866 -0.592372 -0.466488 0
M  V30 842 H 84.8376 -1.76197 -0.51252 0
M  V30 843 H 83.2196 -2.57142 -3.01154 0
M  V30 844 H 84.3936 -4.51608 -0.915774 0
M  V30 845 H 82.7086 -4.04656 -0.981977 0
M  V30 846 H 85.3056 -3.80851 -3.75308 0
M  V30 847 H 85.6486 -2.10356 -3.59244 0
M  V30 848 H 86.1816 -3.2305 -2.32128 0
M  V30 849 H 82.9206 -6.21796 -2.07485 0
M  V30 850 H 82.4406 -5.01359 -3.2924 0
M  V30 851 H 84.1196 -5.6049 -3.23202 0
M  V30 852 N 84.2517 0.741722 -1.39055 0
M  V30 853 C 85.6627 1.31966 -1.32068 0
M  V30 854 C 86.0137 1.96192 0.0180797 0
M  V30 855 O 85.1387 1.95861 0.920196 0
M  V30 856 C 85.7337 2.39954 -2.39181 0
M  V30 857 C 84.2927 2.93438 -2.35735 0
M  V30 858 C 83.4397 1.66936 -2.21422 0
M  V30 859 H 86.3907 0.539721 -1.4924 0
M  V30 860 H 86.4117 3.20182 -2.05581 0
M  V30 861 H 85.9237 1.9318 -3.36605 0
M  V30 862 H 84.0247 3.4451 -1.41929 0
M  V30 863 H 84.1377 3.4701 -3.30335 0
M  V30 864 H 82.5017 1.91016 -1.68478 0
M  V30 865 H 83.2847 1.22224 -3.20806 0
M  V30 866 N 85.7298 1.2412 0.971189 0
M  V30 867 C 86.9758 1.08041 1.71625 0
M  V30 868 C 87.3088 -0.380407 1.90438 0
M  V30 869 O 86.5838 -1.28127 1.46334 0
M  V30 870 C 86.8668 1.81682 3.10908 0
M  V30 871 C 86.7198 3.35493 2.99608 0
M  V30 872 C 88.0388 1.58671 4.10501 0
M  V30 873 H 85.1578 0.39388 0.622919 0
M  V30 874 H 87.7998 1.52743 1.13003 0
M  V30 875 H 85.9498 1.43684 3.60953 0
M  V30 876 H 87.6218 3.83068 2.57015 0
M  V30 877 H 85.8648 3.64052 2.35899 0
M  V30 878 H 86.5358 3.82217 3.98264 0
M  V30 879 H 89.0118 1.91719 3.69301 0
M  V30 880 H 87.8878 2.1266 5.06031 0
M  V30 881 H 88.1488 0.524161 4.38982 0
M  V30 882 N 87.2079 -1.17134 1.05439 0
M  V30 883 C 88.4849 -1.83411 0.679699 0
M  V30 884 C 88.8649 -1.9368 -0.839726 0
M  V30 885 O 88.2129 -1.47325 -1.74664 0
M  V30 886 C 88.4229 -3.20918 1.37159 0
M  V30 887 C 89.7709 -3.96796 1.51123 0
M  V30 888 O 90.7949 -3.30406 1.3308 0
M  V30 889 O 89.6539 -5.15778 1.80651 0
M  V30 890 H 86.7479 -0.79154 0.239569 0
M  V30 891 H 89.2939 -1.24411 1.15413 0
M  V30 892 H 88.0659 -3.08428 2.40807 0
M  V30 893 H 87.6889 -3.87587 0.886674 0
M  V30 894 N 88.686 -0.835752 -1.33615 0
M  V30 895 C 89.633 -0.26473 -2.29277 0
M  V30 896 C 90.603 0.617712 -1.54187 0
M  V30 897 O 91.788 0.556641 -1.825 0
M  V30 898 C 88.928 0.556777 -3.40579 0
M  V30 899 C 88.041 -0.349339 -4.30585 0
M  V30 900 C 87.176 0.482969 -5.29 0
M  V30 901 C 86.215 -0.421732 -6.10645 0
M  V30 902 N 85.352 0.372262 -7.01112 0
M  V30 903 H 90.192 -1.08582 -2.77514 0
M  V30 904 H 87.729 -0.546927 -1.36554 0
M  V30 905 H 89.687 1.04852 -4.03809 0
M  V30 906 H 88.317 1.34286 -2.93542 0
M  V30 907 H 87.369 -0.959372 -3.68104 0
M  V30 908 H 88.681 -1.04445 -4.87742 0
M  V30 909 H 87.835 1.03866 -5.97743 0
M  V30 910 H 86.574 1.21153 -4.72412 0
M  V30 911 H 85.579 -0.989464 -5.40823 0
M  V30 912 H 86.804 -1.14861 -6.69316 0
M  V30 913 H 84.75 1.08426 -6.46977 0
M  V30 914 H 84.667 -0.264198 -7.55538 0
M  V30 915 H 85.935 0.910293 -7.74167 0
M  V30 916 N 90.1641 1.46063 -0.591896 0
M  V30 917 C 91.4121 2.01938 -0.0808391 0
M  V30 918 C 91.7331 1.46475 1.28725 0
M  V30 919 O 91.0031 0.652944 1.84698 0
M  V30 920 H 89.5831 0.746516 -0.0268938 0
M  V30 921 H 92.2451 1.79055 -0.769752 0
M  V30 922 H 91.3411 3.12094 -0.0187578 0
M  V30 923 N 91.6422 0.330177 1.54103 0
M  V30 924 C 92.5922 -0.548456 2.21305 0
M  V30 925 C 93.5762 -1.07651 1.19583 0
M  V30 926 O 94.7682 -1.01243 1.45186 0
M  V30 927 C 91.8972 -1.70559 2.97934 0
M  V30 928 C 90.9832 -1.19212 4.07 0
M  V30 929 N 91.3742 -0.398831 5.04225 0
M  V30 930 C 89.6722 -1.47024 4.2107 0
M  V30 931 C 90.3732 -0.121761 5.81573 0
M  V30 932 N 89.3492 -0.709722 5.38947 0
M  V30 933 H 93.1512 0.0648483 2.93828 0
M  V30 934 H 90.6652 0.136363 1.61826 0
M  V30 935 H 92.6622 -2.34688 3.44568 0
M  V30 936 H 91.3222 -2.32231 2.26934 0
M  V30 937 H 92.3332 -0.0410869 5.17884 0
M  V30 938 H 89.0102 -2.09232 3.61287 0
M  V30 939 H 90.4002 0.517298 6.69906 0
M  V30 940 N 93.1203 -1.57491 0.0584922 0
M  V30 941 C 94.0683 -2.13148 -0.931168 0
M  V30 942 C 95.0623 -1.06507 -1.31729 0
M  V30 943 O 96.2683 -1.24906 -1.29609 0
M  V30 944 H 92.6433 -0.68137 -0.31818 0
M  V30 945 H 94.6143 -2.95187 -0.436707 0
M  V30 946 C 93.3633 -2.69732 -2.19408 0
M  V30 947 H 92.6863 -3.51454 -1.90578 0
M  V30 948 H 94.1263 -3.12287 -2.86798 0
M  V30 949 C 92.5853 -1.63855 -2.94369 0
M  V30 950 O 93.1153 -1.05565 -3.87581 0
M  V30 951 N 91.3213 -1.35202 -2.57233 0
M  V30 952 H 90.8683 -1.82791 -1.81508 0
M  V30 953 H 90.8263 -0.645922 -3.07693 0
M  V30 954 N 94.5984 0.214957 -1.56127 0
M  V30 955 C 95.8444 0.939762 -1.79712 0
M  V30 956 C 96.1774 1.83723 -0.629247 0
M  V30 957 O 95.4524 1.90925 0.371197 0
M  V30 958 C 95.7354 1.77306 -3.13424 0
M  V30 959 C 95.5884 0.90164 -4.40671 0
M  V30 960 C 96.9074 2.74956 -3.43638 0
M  V30 961 H 94.0264 0.340214 -0.653776 0
M  V30 962 H 96.6684 0.20824 -1.88855 0
M  V30 963 H 94.8184 2.39673 -3.0576 0
M  V30 964 H 96.4904 0.294206 -4.60361 0
M  V30 965 H 94.7334 0.207368 -4.33304 0
M  V30 966 H 95.4044 1.51923 -5.30682 0
M  V30 967 H 97.8804 2.22724 -3.51473 0
M  V30 968 H 96.7564 3.30358 -4.38355 0
M  V30 969 H 97.0174 3.53023 -2.66134 0
M  V30 970 N 96.0765 1.50051 0.48192 0
M  V30 971 C 96.9865 1.7089 1.60728 0
M  V30 972 C 98.0025 0.591788 1.63627 0
M  V30 973 O 99.1785 0.868817 1.81696 0
M  V30 974 C 96.2435 1.78855 2.97005 0
M  V30 975 C 95.3045 3.02537 3.04581 0
M  V30 976 C 94.5375 3.10112 4.34357 0
M  V30 977 O 94.7605 2.24765 5.24249 0
M  V30 978 O 93.6945 4.02747 4.47301 0
M  V30 979 H 97.5205 2.66264 1.46072 0
M  V30 980 H 95.1055 1.34018 0.660264 0
M  V30 981 H 96.9875 1.86336 3.77964 0
M  V30 982 H 95.6625 0.866628 3.11883 0
M  V30 983 H 94.5695 3.00563 2.22739 0
M  V30 984 H 95.9025 3.94272 2.94636 0
M  V30 985 N 97.5546 -0.734337 1.39446 0
M  V30 986 C 98.7796 -1.52866 1.40167 0
M  V30 987 C 99.2046 -1.881 -0.00171513 0
M  V30 988 O 98.5626 -1.51957 -0.988879 0
M  V30 989 C 98.6106 -2.79235 2.28167 0
M  V30 990 O 97.7146 -3.75185 1.71201 0
M  V30 991 H 97.0556 -0.461618 0.477289 0
M  V30 992 H 99.5856 -0.905949 1.8345 0
M  V30 993 H 99.5956 -3.27963 2.42702 0
M  V30 994 H 98.2706 -2.52923 3.30156 0
M  V30 995 H 96.8476 -3.33958 1.65912 0
M  V30 996 N 99.0327 -1.24633 -0.964593 0
M  V30 997 C 100.282 -1.08188 -1.7023 0
M  V30 998 C 100.595 0.37873 -1.91898 0
M  V30 999 O 101.801 0.663427 -2.6327 0
M  V30 1000 C 100.257 -1.88773 -3.06419 0
M  V30 1001 C 99.8647 -3.39263 -2.92582 0
M  V30 1002 C 101.609 -1.80867 -3.84041 0
M  V30 1003 C 99.5157 -4.1218 -4.24101 0
M  V30 1004 H 98.4457 -0.401245 -0.638372 0
M  V30 1005 H 101.097 -1.48742 -1.07462 0
M  V30 1006 H 99.4787 -1.41035 -3.70034 0
M  V30 1007 H 100.653 -3.94603 -2.37961 0
M  V30 1008 H 98.9677 -3.48154 -2.28424 0
M  V30 1009 H 101.565 -2.32646 -4.81435 0
M  V30 1010 H 101.908 -0.774543 -4.09031 0
M  V30 1011 H 102.441 -2.26301 -3.27159 0
M  V30 1012 H 99.1797 -5.15965 -4.04303 0
M  V30 1013 H 98.6997 -3.61626 -4.78526 0
M  V30 1014 H 100.379 -4.19349 -4.92702 0
M  V30 1015 N 100.511 1.16574 -1.06058 0
M  V30 1016 C 101.458 2.20883 -0.669263 0
M  V30 1017 C 102.428 1.62729 0.332918 0
M  V30 1018 O 103.613 1.895 0.222346 0
M  V30 1019 C 100.753 3.45049 -0.0593572 0
M  V30 1020 C 99.8658 4.17458 -1.11143 0
M  V30 1021 C 99.0008 5.29135 -0.467916 0
M  V30 1022 C 98.0398 5.93343 -1.50369 0
M  V30 1023 N 97.1768 6.96516 -0.883706 0
M  V30 1024 H 102.017 2.53709 -1.5632 0
M  V30 1025 H 99.5538 1.24616 -0.781625 0
M  V30 1026 H 101.512 4.16033 0.311771 0
M  V30 1027 H 100.142 3.12781 0.797992 0
M  V30 1028 H 99.1938 3.45101 -1.60029 0
M  V30 1029 H 100.506 4.61307 -1.89731 0
M  V30 1030 H 99.6598 6.06684 -0.0436871 0
M  V30 1031 H 98.3988 4.86443 0.349864 0
M  V30 1032 H 97.4038 5.14517 -1.93784 0
M  V30 1033 H 98.6288 6.38114 -2.32352 0
M  V30 1034 H 96.5748 6.55943 -0.086595 0
M  V30 1035 H 96.4918 7.38723 -1.607 0
M  V30 1036 H 97.7598 7.77993 -0.484543 0
M  V30 1037 N 101.989 0.842826 1.3317 0
M  V30 1038 C 103.266 0.362216 1.92217 0
M  V30 1039 C 103.646 -1.15289 1.76838 0
M  V30 1040 O 102.994 -1.96914 1.15919 0
M  V30 1041 C 103.204 0.813495 3.39387 0
M  V30 1042 C 104.552 0.823804 4.16532 0
M  V30 1043 O 105.576 0.757358 3.48055 0
M  V30 1044 O 104.435 0.915193 5.38782 0
M  V30 1045 H 101.529 0.103317 0.820521 0
M  V30 1046 H 104.075 0.928942 1.42017 0
M  V30 1047 H 102.847 1.85624 3.4447 0
M  V30 1048 H 102.47 0.223561 3.96971 0
M  V30 1049 N 103.467 -1.45747 0.599634 0
M  V30 1050 C 104.4 -2.27547 -0.172552 0
M  V30 1051 C 105.378 -1.36657 -0.881116 0
M  V30 1052 O 106.562 -1.66081 -0.891595 0
M  V30 1053 C 103.689 -3.14829 -1.24903 0
M  V30 1054 C 102.735 -4.21603 -0.644465 0
M  V30 1055 S 103.568 -5.32754 0.541606 0
M  V30 1056 C 104.724 -6.23604 -0.535656 0
M  V30 1057 H 104.957 -2.92691 0.521468 0
M  V30 1058 H 102.49 -1.49473 0.386947 0
M  V30 1059 H 104.448 -3.65675 -1.86527 0
M  V30 1060 H 103.109 -2.48965 -1.91508 0
M  V30 1061 H 102.302 -4.82566 -1.45417 0
M  V30 1062 H 101.904 -3.73857 -0.103534 0
M  V30 1063 H 104.196 -6.62519 -1.41686 0
M  V30 1064 H 105.139 -7.0809 0.0376246 0
M  V30 1065 H 105.547 -5.58103 -0.84741 0
M  V30 1066 N 104.945 -0.338344 -1.53925 0
M  V30 1067 C 106.194 0.260732 -2.00008 0
M  V30 1068 C 106.507 1.52073 -1.23017 0
M  V30 1069 O 107.713 2.19672 -1.5955 0
M  V30 1070 C 106.169 0.51515 -3.56194 0
M  V30 1071 C 105.777 -0.728645 -4.42035 0
M  V30 1072 C 107.521 1.07337 -4.10706 0
M  V30 1073 C 105.428 -0.445315 -5.89721 0
M  V30 1074 H 104.358 0.101205 -0.747177 0
M  V30 1075 H 107.009 -0.452866 -1.77824 0
M  V30 1076 H 105.391 1.28932 -3.74423 0
M  V30 1077 H 106.565 -1.50352 -4.35581 0
M  V30 1078 H 104.88 -1.20813 -3.98489 0
M  V30 1079 H 107.477 1.30022 -5.18651 0
M  V30 1080 H 107.82 2.0273 -3.63602 0
M  V30 1081 H 108.353 0.360034 -3.96167 0
M  V30 1082 H 105.092 -1.36883 -6.41049 0
M  V30 1083 H 104.612 0.291569 -5.99091 0
M  V30 1084 H 106.291 -0.0606218 -6.46972 0
M  V30 1085 N 106.423 1.57458 -0.0668435 0
M  V30 1086 C 107.834 1.80776 0.466558 0
M  V30 1087 C 108.185 0.980361 1.69951 0
M  V30 1088 O 107.31 0.201441 2.1546 0
M  V30 1089 C 107.905 3.27881 0.85321 0
M  V30 1090 C 106.464 3.52062 1.3315 0
M  V30 1091 C 105.611 2.75513 0.314264 0
M  V30 1092 H 108.562 1.5598 -0.292588 0
M  V30 1093 H 108.583 3.39659 1.715 0
M  V30 1094 H 108.095 3.88075 -0.0443439 0
M  V30 1095 H 106.196 2.97167 2.24772 0
M  V30 1096 H 106.309 4.60762 1.31285 0
M  V30 1097 H 104.673 2.42123 0.790492 0
M  V30 1098 H 105.456 3.38442 -0.575477 0
M  V30 1099 N 107.901 -0.206675 1.56239 0
M  V30 1100 C 108.811 -1.27686 1.96808 0
M  V30 1101 C 109.827 -1.50455 0.874035 0
M  V30 1102 O 111.003 -1.63295 1.17884 0
M  V30 1103 C 108.068 -2.60358 2.28942 0
M  V30 1104 C 107.129 -2.45762 3.51994 0
M  V30 1105 C 106.362 -3.72108 3.82585 0
M  V30 1106 O 106.585 -4.75776 3.14631 0
M  V30 1107 O 105.519 -3.6833 4.76043 0
M  V30 1108 H 109.345 -0.962593 2.88041 0
M  V30 1109 H 106.93 -0.410746 1.43643 0
M  V30 1110 H 108.812 -3.38687 2.50737 0
M  V30 1111 H 107.487 -2.91435 1.4088 0
M  V30 1112 H 106.394 -1.65584 3.35459 0
M  V30 1113 H 107.727 -2.19621 4.40486 0
M  V30 1114 N 109.379 -1.50304 -0.473955 0
M  V30 1115 C 110.627 -1.60832 -1.22382 0
M  V30 1116 C 110.948 -0.30939 -1.9253 0
M  V30 1117 O 110.218 0.67296 -1.83978 0
M  V30 1118 H 108.798 -0.592652 -0.454723 0
M  V30 1119 H 111.46 -1.87068 -0.546968 0
M  V30 1120 H 110.556 -2.41803 -1.97327 0
M  V30 1121 N 110.857 0.726932 -1.39834 0
M  V30 1122 C 111.82 1.82269 -1.38962 0
M  V30 1123 C 112.82 1.58248 -0.285334 0
M  V30 1124 O 114.01 1.65499 -0.54366 0
M  V30 1125 C 111.142 3.20186 -1.17019 0
M  V30 1126 H 112.335 1.84443 -2.36476 0
M  V30 1127 H 109.888 0.931416 -1.25516 0
M  V30 1128 H 110.623 3.23669 -0.202204 0
M  V30 1129 H 110.408 3.3902 -1.96998 0
M  V30 1130 H 111.898 4.00235 -1.1917 0
M  V30 1131 N 112.336 1.25143 0.95797 0
M  V30 1132 C 113.246 1.06968 2.08794 0
M  V30 1133 C 114.262 0.00773911 1.73998 0
M  V30 1134 O 115.438 0.207972 2.00323 0
M  V30 1135 C 112.503 0.68691 3.39827 0
M  V30 1136 C 111.564 1.82641 3.88511 0
M  V30 1137 C 110.797 1.46181 5.1329 0
M  V30 1138 O 111.02 0.355971 5.69288 0
M  V30 1139 O 109.954 2.29085 5.566 0
M  V30 1140 H 113.78 2.01723 2.27027 0
M  V30 1141 H 111.365 1.04051 1.07209 0
M  V30 1142 H 113.247 0.485417 4.18595 0
M  V30 1143 H 111.922 -0.231417 3.22872 0
M  V30 1144 H 110.829 2.08274 3.10762 0
M  V30 1145 H 112.162 2.72386 4.09959 0
M  V30 1146 N 113.814 -1.1601 1.06675 0
M  V30 1147 C 114.761 -2.20525 0.680967 0
M  V30 1148 C 115.731 -1.62904 -0.324283 0
M  V30 1149 O 116.916 -1.89615 -0.212294 0
M  V30 1150 C 114.056 -3.45013 0.0776551 0
M  V30 1151 C 113.169 -4.16863 1.13355 0
M  V30 1152 C 112.304 -5.2888 0.49597 0
M  V30 1153 C 111.343 -5.92537 1.53513 0
M  V30 1154 N 110.48 -6.96038 0.920631 0
M  V30 1155 H 115.32 -2.52876 1.57663 0
M  V30 1156 H 112.857 -1.24199 0.788223 0
M  V30 1157 H 114.815 -4.16193 -0.289704 0
M  V30 1158 H 113.445 -3.132 -0.781393 0
M  V30 1159 H 112.497 -3.44248 1.61857 0
M  V30 1160 H 113.809 -4.60294 1.92174 0
M  V30 1161 H 112.963 -6.06653 0.0758604 0
M  V30 1162 H 111.702 -4.86622 -0.324062 0
M  V30 1163 H 110.707 -5.13482 1.9651 0
M  V30 1164 H 111.932 -6.36873 2.35733 0
M  V30 1165 H 109.878 -6.55888 0.12138 0
M  V30 1166 H 109.795 -7.3786 1.64616 0
M  V30 1167 H 111.063 -7.77725 0.525795 0
M  V30 1168 N 115.292 -0.849877 -1.32721 0
M  V30 1169 C 116.539 -0.450923 -1.97416 0
M  V30 1170 C 116.867 0.992376 -1.67279 0
M  V30 1171 O 116.122 1.71048 -0.950845 0
M  V30 1172 C 116.421 -0.631272 -3.51781 0
M  V30 1173 C 116.087 -2.04432 -4.01894 0
M  V30 1174 C 114.749 -2.4308 -4.1529 0
M  V30 1175 C 117.101 -2.96679 -4.28522 0
M  V30 1176 C 114.429 -3.73257 -4.52654 0
M  V30 1177 C 116.781 -4.26349 -4.67343 0
M  V30 1178 C 115.445 -4.64939 -4.78945 0
M  V30 1179 H 114.715 -0.165004 -0.722395 0
M  V30 1180 H 117.362 -1.07901 -1.58207 0
M  V30 1181 H 115.667 0.0800767 -3.91718 0
M  V30 1182 H 117.364 -0.302709 -3.99856 0
M  V30 1183 H 113.954 -1.73419 -3.91949 0
M  V30 1184 H 118.138 -2.68054 -4.17685 0
M  V30 1185 H 113.394 -4.02946 -4.59831 0
M  V30 1186 H 117.568 -4.97895 -4.86902 0
M  V30 1187 H 115.195 -5.65855 -5.07654 0
M  V30 1188 N 116.77 1.45427 -0.607355 0
M  V30 1189 C 117.717 2.3053 0.111625 0
M  V30 1190 C 118.687 1.4209 0.860216 0
M  V30 1191 O 119.872 1.71019 0.845998 0
M  V30 1192 C 117.012 3.26992 1.10319 0
M  V30 1193 C 116.125 4.30535 0.355493 0
M  V30 1194 C 115.26 5.14105 1.33676 0
M  V30 1195 C 114.299 6.09376 0.576862 0
M  V30 1196 N 113.436 6.85727 1.5074 0
M  V30 1197 H 118.276 2.91477 -0.620093 0
M  V30 1198 H 115.813 1.43631 -0.317594 0
M  V30 1199 H 117.771 3.81385 1.6912 0
M  V30 1200 H 116.401 2.67799 1.80232 0
M  V30 1201 H 115.453 3.78805 -0.348023 0
M  V30 1202 H 116.765 4.98235 -0.237423 0
M  V30 1203 H 115.919 5.72897 1.99684 0
M  V30 1204 H 114.658 4.46423 1.9636 0
M  V30 1205 H 113.663 5.49715 -0.0968519 0
M  V30 1206 H 114.888 6.79085 -0.0449341 0
M  V30 1207 H 112.834 6.20735 2.12189 0
M  V30 1208 H 112.751 7.49778 0.967913 0
M  V30 1209 H 114.019 7.4906 2.15706 0
M  V30 1210 N 118.248 0.346503 1.53744 0
M  V30 1211 C 119.473 -0.253074 2.0585 0
M  V30 1212 C 119.898 -1.43202 1.21962 0
M  V30 1213 O 119.256 -1.79783 0.234073 0
M  V30 1214 C 119.304 -0.643193 3.54817 0
M  V30 1215 O 118.408 -1.74286 3.73762 0
M  V30 1216 H 117.749 -0.0413583 0.662711 0
M  V30 1217 H 120.279 0.501574 1.98357 0
M  V30 1218 H 120.289 -0.919526 3.97503 0
M  V30 1219 H 118.964 0.218966 4.15323 0
M  V30 1220 H 117.541 -1.46356 3.42979 0
M  V30 1221 N 119.726 -1.57421 0.075193 0
M  V30 1222 C 120.673 -2.12915 -0.890843 0
M  V30 1223 C 121.643 -1.04252 -1.29309 0
M  V30 1224 O 122.828 -1.31933 -1.37834 0
M  V30 1225 C 119.968 -2.69795 -2.15186 0
M  V30 1226 C 119.081 -3.92624 -1.80194 0
M  V30 1227 C 118.216 -4.37736 -3.00933 0
M  V30 1228 C 117.255 -5.53205 -2.61974 0
M  V30 1229 N 116.392 -5.9326 -3.75483 0
M  V30 1230 H 121.232 -2.95156 -0.410735 0
M  V30 1231 H 118.769 -1.45854 -0.191086 0
M  V30 1232 H 120.727 -3.00883 -2.89008 0
M  V30 1233 H 119.357 -1.90313 -2.60731 0
M  V30 1234 H 118.409 -3.67977 -0.964218 0
M  V30 1235 H 119.721 -4.76482 -1.47534 0
M  V30 1236 H 118.875 -4.70503 -3.8303 0
M  V30 1237 H 117.614 -3.52739 -3.36789 0
M  V30 1238 H 116.619 -5.20086 -1.783 0
M  V30 1239 H 117.844 -6.39936 -2.27284 0
M  V30 1240 H 115.79 -5.11212 -4.11094 0
M  V30 1241 H 115.707 -6.71865 -3.46602 0
M  V30 1242 H 116.975 -6.30651 -4.58148 0
M  V30 1243 N 121.204 0.198386 -1.56346 0
M  V30 1244 C 122.453 0.917451 -1.79627 0
M  V30 1245 C 122.766 1.8456 -0.64784 0
M  V30 1246 O 123.972 2.60504 -0.764859 0
M  V30 1247 C 122.428 1.68175 -3.18191 0
M  V30 1248 C 122.036 0.798589 -4.40825 0
M  V30 1249 C 123.78 2.39065 -3.50782 0
M  V30 1250 C 121.687 1.56157 -5.70411 0
M  V30 1251 H 120.617 0.346317 -0.669762 0
M  V30 1252 H 123.268 0.170801 -1.82703 0
M  V30 1253 H 121.65 2.47216 -3.09354 0
M  V30 1254 H 122.824 0.0470665 -4.60776 0
M  V30 1255 H 121.139 0.200686 -4.15916 0
M  V30 1256 H 123.736 2.96692 -4.44835 0
M  V30 1257 H 124.079 3.13091 -2.74371 0
M  V30 1258 H 124.612 1.66993 -3.61052 0
M  V30 1259 H 121.351 0.864142 -6.49779 0
M  V30 1260 H 120.871 2.2871 -5.54483 0
M  V30 1261 H 122.55 2.11622 -6.11412 0
M  V30 1262 N 122.682 1.50554 0.465978 0
M  V30 1263 C 123.63 1.70324 1.58406 0
M  V30 1264 C 124.624 0.569139 1.59553 0
M  V30 1265 O 125.83 0.749776 1.63641 0
M  V30 1266 H 122.205 0.537688 0.525734 0
M  V30 1267 H 124.176 2.64104 1.38894 0
M  V30 1268 C 122.925 1.81928 2.96307 0
M  V30 1269 H 122.248 2.68586 2.96144 0
M  V30 1270 H 123.688 1.99784 3.73982 0
M  V30 1271 C 122.147 0.572095 3.32007 0
M  V30 1272 O 122.677 -0.286416 4.00678 0
M  V30 1273 N 120.883 0.424606 2.87481 0
M  V30 1274 H 120.43 1.12427 2.31771 0
M  V30 1275 H 120.388 -0.408697 3.11732 0
M  V30 1276 N 124.16 -0.719506 1.40217 0
M  V30 1277 C 125.07 -1.86378 1.42479 0
M  V30 1278 C 126.086 -1.71073 0.317834 0
M  V30 1279 O 127.262 -1.93406 0.561794 0
M  V30 1280 C 124.327 -3.22136 1.28178 0
M  V30 1281 C 123.388 -3.49723 2.48982 0
M  V30 1282 C 122.621 -4.79004 2.35353 0
M  V30 1283 O 122.844 -5.53821 1.36524 0
M  V30 1284 O 121.778 -5.06839 3.2465 0
M  V30 1285 H 125.604 -1.87425 2.38968 0
M  V30 1286 H 123.189 -0.869405 1.21498 0
M  V30 1287 H 125.071 -4.03234 1.22395 0
M  V30 1288 H 123.746 -3.21825 0.347934 0
M  V30 1289 H 122.653 -2.6865 2.60342 0
M  V30 1290 H 123.986 -3.54828 3.41113 0
M  V30 1291 N 125.638 -1.25649 -0.95132 0
M  V30 1292 C 126.586 -1.06118 -2.06982 0
M  V30 1293 C 127.58 0.00889169 -1.69398 0
M  V30 1294 O 128.786 -0.146988 -1.79399 0
M  V30 1295 H 125.161 -0.326248 -0.677544 0
M  V30 1296 H 127.132 -2.00932 -2.2061 0
M  V30 1297 C 125.881 -0.700145 -3.40578 0
M  V30 1298 H 125.204 -1.51537 -3.69968 0
M  V30 1299 H 126.644 -0.603211 -4.19687 0
M  V30 1300 C 125.103 0.59403 -3.31622 0
M  V30 1301 O 125.633 1.63522 -3.66911 0
M  V30 1302 N 123.839 0.58089 -2.84735 0
M  V30 1303 H 123.386 -0.266783 -2.56215 0
M  V30 1304 H 123.344 1.44695 -2.79125 0
M  V30 1305 N 127.117 1.15442 -1.07289 0
M  V30 1306 C 128.347 1.89821 -0.815576 0
M  V30 1307 C 128.755 1.7823 0.634867 0
M  V30 1308 O 128.098 1.13152 1.44715 0
M  V30 1309 C 128.16 3.40817 -1.14385 0
M  V30 1310 C 127.824 3.76193 -2.59476 0
M  V30 1311 C 128.821 3.77269 -3.57721 0
M  V30 1312 C 126.506 4.0652 -2.95037 0
M  V30 1313 C 128.5 4.08176 -4.89562 0
M  V30 1314 C 126.187 4.37092 -4.27076 0
M  V30 1315 C 127.185 4.37902 -5.24148 0
M  V30 1316 O 126.873 4.67741 -6.53815 0
M  V30 1317 H 126.605 0.608465 -0.294528 0
M  V30 1318 H 129.159 1.472 -1.43252 0
M  V30 1319 H 127.389 3.83835 -0.469865 0
M  V30 1320 H 129.078 3.96485 -0.869179 0
M  V30 1321 H 129.844 3.5394 -3.3159 0
M  V30 1322 H 125.723 4.05049 -2.20128 0
M  V30 1323 H 129.267 4.08723 -5.65324 0
M  V30 1324 H 125.164 4.59889 -4.5296 0
M  V30 1325 H 125.932 4.85509 -6.58957 0
M  V30 1326 N 128.595 0.856903 1.32268 0
M  V30 1327 C 129.841 0.462069 1.97466 0
M  V30 1328 C 130.174 -0.980298 1.67642 0
M  V30 1329 O 129.449 -1.68824 0.965858 0
M  V30 1330 C 129.732 0.704336 3.53145 0
M  V30 1331 C 129.585 2.19529 3.9259 0
M  V30 1332 C 130.904 0.1622 4.39801 0
M  V30 1333 H 128.023 0.169357 0.717278 0
M  V30 1334 H 130.665 1.07574 1.56614 0
M  V30 1335 H 128.815 0.181999 3.88073 0
M  V30 1336 H 130.487 2.78387 3.67829 0
M  V30 1337 H 128.73 2.67292 3.41668 0
M  V30 1338 H 129.401 2.31549 5.01088 0
M  V30 1339 H 131.877 0.608905 4.11621 0
M  V30 1340 H 130.753 0.361265 5.4771 0
M  V30 1341 H 131.014 -0.935158 4.32096 0
M  V30 1342 N 130.073 -1.45103 0.615059 0
M  V30 1343 C 131.003 -2.33339 -0.0865619 0
M  V30 1344 C 131.984 -1.4727 -0.851209 0
M  V30 1345 O 133.169 -1.76026 -0.820281 0
M  V30 1346 C 130.299 -3.30095 -1.07956 0
M  V30 1347 C 129.253 -4.25858 -0.427628 0
M  V30 1348 C 128.579 -5.12361 -1.5294 0
M  V30 1349 C 129.879 -5.18165 0.655944 0
M  V30 1350 H 131.573 -2.92254 0.650224 0
M  V30 1351 H 129.119 -1.40532 0.314138 0
M  V30 1352 H 131.072 -3.90698 -1.57901 0
M  V30 1353 H 129.796 -2.69355 -1.84703 0
M  V30 1354 H 128.455 -3.66564 0.0510292 0
M  V30 1355 H 128.103 -4.47984 -2.28734 0
M  V30 1356 H 127.803 -5.77238 -1.09865 0
M  V30 1357 H 129.327 -5.75833 -2.03098 0
M  V30 1358 H 130.741 -5.72796 0.240257 0
M  V30 1359 H 129.138 -5.91559 1.00888 0
M  V30 1360 H 130.208 -4.60144 1.52957 0
M  V30 1361 N 131.551 -0.354651 -1.53558 0
M  V30 1362 C 132.779 0.239515 -2.05509 0
M  V30 1363 C 133.194 1.4333 -1.2289 0
M  V30 1364 O 132.551 1.80538 -0.266899 0
M  V30 1365 C 132.602 0.643719 -3.55723 0
M  V30 1366 O 132.323 -0.502602 -4.35207 0
M  V30 1367 C 133.824 1.29743 -4.23889 0
M  V30 1368 H 131.044 0.0442697 -0.669538 0
M  V30 1369 H 133.588 -0.509856 -1.98042 0
M  V30 1370 H 131.743 1.34302 -3.63376 0
M  V30 1371 H 132.157 -0.178172 -5.24197 0
M  V30 1372 H 133.631 1.53091 -5.30346 0
M  V30 1373 H 134.108 2.25441 -3.76926 0
M  V30 1374 H 134.714 0.639865 -4.20459 0
M  V30 1375 N 133.029 1.57378 -0.0835403 0
M  V30 1376 C 134.275 1.94217 0.583733 0
M  V30 1377 C 134.608 0.964653 1.68547 0
M  V30 1378 O 133.883 -0.00422258 1.945 0
M  V30 1379 C 134.166 3.41253 1.14972 0
M  V30 1380 C 134.019 4.49768 0.0538277 0
M  V30 1381 C 135.338 3.89352 2.05166 0
M  V30 1382 H 132.457 0.706233 0.210724 0
M  V30 1383 H 135.099 1.89392 -0.1519 0
M  V30 1384 H 133.249 3.45496 1.77665 0
M  V30 1385 H 134.921 4.57641 -0.579851 0
M  V30 1386 H 133.164 4.29432 -0.614068 0
M  V30 1387 H 133.835 5.49817 0.490452 0
M  V30 1388 H 136.311 3.87189 1.52393 0
M  V30 1389 H 135.187 4.92822 2.41698 0
M  V30 1390 H 135.448 3.27973 2.96456 0
M  V30 1391 N 134.507 -0.190092 1.56449 0
M  V30 1392 C 135.735 -0.925772 1.85033 0
M  V30 1393 C 136.15 -1.76638 0.666658 0
M  V30 1394 O 135.507 -1.78822 -0.364565 0
M  V30 1395 C 135.558 -1.81786 3.12468 0
M  V30 1396 O 135.279 -1.01118 4.26271 0
M  V30 1397 C 136.78 -2.6648 3.54265 0
M  V30 1398 H 134 -0.269872 0.614337 0
M  V30 1399 H 136.544 -0.195837 2.0356 0
M  V30 1400 H 134.699 -2.50136 2.95822 0
M  V30 1401 H 135.113 -1.61956 4.98869 0
M  V30 1402 H 136.587 -3.24722 4.46385 0
M  V30 1403 H 137.064 -3.40434 2.77491 0
M  V30 1404 H 137.67 -2.03493 3.73458 0
M  V30 1405 N 135.985 -1.50799 -0.457987 0
M  V30 1406 C 136.917 -1.66786 -1.57211 0
M  V30 1407 C 137.93 -0.548962 -1.53265 0
M  V30 1408 O 139.119 -0.8226 -1.58416 0
M  V30 1409 C 136.219 -1.64834 -2.96113 0
M  V30 1410 C 135.392 -2.92971 -3.24787 0
M  V30 1411 C 134.451 -2.83485 -4.43309 0
M  V30 1412 O 133.477 -3.5744 -4.42973 0
M  V30 1413 N 134.679 -1.97929 -5.45714 0
M  V30 1414 H 137.444 -2.62889 -1.43909 0
M  V30 1415 H 135.005 -1.48427 -0.646617 0
M  V30 1416 H 136.997 -1.56084 -3.7339 0
M  V30 1417 H 135.567 -0.764118 -3.03117 0
M  V30 1418 H 134.787 -3.15749 -2.36 0
M  V30 1419 H 136.075 -3.77834 -3.40762 0
M  V30 1420 H 135.473 -1.37182 -5.48815 0
M  V30 1421 H 134.03 -1.95073 -6.21924 0
M  V30 1422 N 137.463 0.71206 -1.40597 0
M  V30 1423 C 138.874 1.29135 -1.34837 0
M  V30 1424 C 139.225 1.96186 -0.0235395 0
M  V30 1425 O 138.35 1.97768 0.878444 0
M  V30 1426 C 138.945 2.34827 -2.44217 0
M  V30 1427 C 137.504 2.88371 -2.41907 0
M  V30 1428 C 136.651 1.62202 -2.24913 0
M  V30 1429 H 139.602 0.507944 -1.50352 0
M  V30 1430 H 139.623 3.15749 -2.12327 0
M  V30 1431 H 139.135 1.85996 -3.40627 0
M  V30 1432 H 137.236 3.41422 -1.49204 0
M  V30 1433 H 137.349 3.39925 -3.37621 0
M  V30 1434 H 135.713 1.874 -1.72492 0
M  V30 1435 H 136.496 1.15391 -3.23326 0
M  V30 1436 N 138.941 1.26152 0.944643 0
M  V30 1437 C 140.189 1.11271 1.6871 0
M  V30 1438 C 140.51 -0.345166 1.91921 0
M  V30 1439 O 139.78 -1.24387 1.51343 0
M  V30 1440 H 138.36 0.408783 0.625224 0
M  V30 1441 H 141.022 1.58427 1.1352 0
M  V30 1442 H 140.118 1.62879 2.66227 0
M  V30 1443 N 140.419 -1.14872 1.07899 0
M  V30 1444 C 141.382 -2.17986 0.708161 0
M  V30 1445 C 142.382 -1.58775 -0.25442 0
M  V30 1446 O 143.572 -1.74166 -0.034645 0
M  V30 1447 C 140.704 -3.40871 0.0446929 0
M  V30 1448 H 141.897 -2.52306 1.62116 0
M  V30 1449 H 139.45 -1.2943 0.876218 0
M  V30 1450 H 140.185 -3.12124 -0.880281 0
M  V30 1451 H 139.97 -3.8511 0.737091 0
M  V30 1452 H 141.46 -4.17121 -0.19991 0
M  V30 1453 N 141.898 -0.863906 -1.31812 0
M  V30 1454 C 143.128 -0.485406 -2.00817 0
M  V30 1455 C 143.536 0.925007 -1.65046 0
M  V30 1456 O 142.879 1.61653 -0.872574 0
M  V30 1457 C 142.941 -0.555589 -3.55181 0
M  V30 1458 C 142.605 -1.92654 -4.14407 0
M  V30 1459 C 143.602 -2.89324 -4.31958 0
M  V30 1460 C 141.287 -2.2262 -4.50273 0
M  V30 1461 C 143.281 -4.14108 -4.84555 0
M  V30 1462 C 140.968 -3.47654 -5.02573 0
M  V30 1463 C 141.966 -4.43214 -5.19664 0
M  V30 1464 O 141.654 -5.66033 -5.70843 0
M  V30 1465 H 141.386 -0.188224 -0.649267 0
M  V30 1466 H 143.94 -1.16514 -1.69156 0
M  V30 1467 H 142.17 0.181037 -3.86276 0
M  V30 1468 H 143.859 -0.19138 -4.05449 0
M  V30 1469 H 144.625 -2.6748 -4.04573 0
M  V30 1470 H 140.504 -1.4902 -4.3625 0
M  V30 1471 H 144.048 -4.88703 -4.9781 0
M  V30 1472 H 139.945 -3.69345 -5.29391 0
M  V30 1473 H 140.713 -5.6812 -5.89222 0
M  V30 1474 N 143.376 1.44774 -0.622745 0
M  V30 1475 C 144.306 2.33382 0.0741861 0
M  V30 1476 C 145.287 1.47719 0.843387 0
M  V30 1477 O 146.472 1.76458 0.810934 0
M  V30 1478 C 143.602 3.30663 1.06204 0
M  V30 1479 C 142.556 4.26079 0.405037 0
M  V30 1480 C 141.882 5.13165 1.5022 0
M  V30 1481 C 143.182 5.1781 -0.683414 0
M  V30 1482 H 144.876 2.91905 -0.665713 0
M  V30 1483 H 142.422 1.40363 -0.321587 0
M  V30 1484 H 144.375 3.9153 1.55827 0
M  V30 1485 H 143.099 2.70331 1.83272 0
M  V30 1486 H 141.758 3.66532 -0.0704683 0
M  V30 1487 H 141.406 4.49191 2.26355 0
M  V30 1488 H 141.106 5.77812 1.06803 0
M  V30 1489 H 142.63 5.76902 2.00041 0
M  V30 1490 H 144.044 5.72661 -0.270631 0
M  V30 1491 H 142.441 5.91015 -1.04023 0
M  V30 1492 H 143.511 4.59326 -1.55395 0
M  V30 1493 N 144.854 0.36279 1.53368 0
M  V30 1494 C 146.1 -0.228113 2.01513 0
M  V30 1495 C 146.433 -1.48648 1.2497 0
M  V30 1496 O 145.708 -1.91459 0.342616 0
M  V30 1497 C 145.991 -0.522884 3.56284 0
M  V30 1498 C 145.844 0.74892 4.43521 0
M  V30 1499 C 147.163 -1.32461 4.19693 0
M  V30 1500 H 144.282 -0.0814343 0.732487 0
M  V30 1501 H 146.924 0.48713 1.83649 0
M  V30 1502 H 145.074 -1.1322 3.71636 0
M  V30 1503 H 146.746 1.38648 4.39971 0
M  V30 1504 H 144.989 1.36986 4.11603 0
M  V30 1505 H 145.66 0.497667 5.49752 0
M  V30 1506 H 148.136 -0.809203 4.08156 0
M  V30 1507 H 147.012 -1.49961 5.28018 0
M  V30 1508 H 147.273 -2.33232 3.75573 0
M  V30 1509 N 146.332 -1.57332 0.0918853 0
M  V30 1510 C 147.279 -2.13847 -0.868211 0
M  V30 1511 C 148.249 -1.05618 -1.28196 0
M  V30 1512 O 149.434 -1.33387 -1.36427 0
M  V30 1513 C 146.574 -2.72062 -2.12312 0
M  V30 1514 C 145.687 -3.94514 -1.7602 0
M  V30 1515 C 144.822 -4.40903 -2.96273 0
M  V30 1516 C 143.861 -5.55953 -2.56092 0
M  V30 1517 N 142.998 -5.97209 -3.69169 0
M  V30 1518 H 147.838 -2.95575 -0.379406 0
M  V30 1519 H 145.375 -1.46048 -0.175606 0
M  V30 1520 H 147.333 -3.03931 -2.858 0
M  V30 1521 H 145.963 -1.93068 -2.58698 0
M  V30 1522 H 145.015 -3.68979 -0.925135 0
M  V30 1523 H 146.327 -4.7802 -1.42472 0
M  V30 1524 H 145.481 -4.74539 -3.78018 0
M  V30 1525 H 144.22 -3.56291 -3.33029 0
M  V30 1526 H 143.225 -5.21948 -1.72773 0
M  V30 1527 H 144.45 -6.42311 -2.20484 0
M  V30 1528 H 142.396 -5.15543 -4.05649 0
M  V30 1529 H 142.313 -6.75504 -3.39456 0
M  V30 1530 H 143.581 -6.35475 -4.51434 0
M  V30 1531 N 147.81 0.181792 -1.56548 0
M  V30 1532 C 149.05 0.906711 -1.83189 0
M  V30 1533 C 149.414 1.79882 -0.671312 0
M  V30 1534 O 150.615 2.56054 -0.81792 0
M  V30 1535 C 148.886 1.69023 -3.14906 0
M  V30 1536 S 150.445 2.46535 -3.62996 0
M  V30 1537 H 147.263 0.303877 -0.642791 0
M  V30 1538 H 149.865 0.169107 -1.94767 0
M  V30 1539 H 148.569 1.02571 -3.97376 0
M  V30 1540 H 148.1 2.46941 -3.06241 0
M  V30 1541 H 150.115 3.71014 -3.29489 0
M  V30 1542 N 149.288 1.51039 0.449983 0
M  V30 1543 C 150.516 1.66869 1.2232 0
M  V30 1544 C 150.931 0.360727 1.85322 0
M  V30 1545 O 150.288 -0.659531 1.70166 0
M  V30 1546 C 150.339 2.77524 2.31652 0
M  V30 1547 O 150.06 4.03252 1.7123 0
M  V30 1548 C 151.561 3.04512 3.2216 0
M  V30 1549 H 148.781 0.560326 0.369155 0
M  V30 1550 H 151.325 1.97385 0.534719 0
M  V30 1551 H 149.48 2.49642 2.96239 0
M  V30 1552 H 149.894 4.64609 2.43389 0
M  V30 1553 H 151.368 3.85551 3.95038 0
M  V30 1554 H 151.845 2.16415 3.8218 0
M  V30 1555 H 152.451 3.34005 2.63288 0
M  V30 1556 N 150.766 -0.704594 1.40972 0
M  V30 1557 C 152.177 -1.28418 1.3552 0
M  V30 1558 C 152.528 -1.96171 0.0339434 0
M  V30 1559 O 151.653 -1.98231 -0.867944 0
M  V30 1560 C 152.248 -2.33528 2.45459 0
M  V30 1561 C 150.807 -2.87085 2.43433 0
M  V30 1562 C 149.954 -1.61007 2.2577 0
M  V30 1563 H 152.905 -0.499963 1.50619 0
M  V30 1564 H 152.926 -3.14619 2.13998 0
M  V30 1565 H 152.438 -1.84187 3.41609 0
M  V30 1566 H 150.539 -3.40626 1.51013 0
M  V30 1567 H 150.652 -3.3813 3.39419 0
M  V30 1568 H 149.016 -1.86482 1.73483 0
M  V30 1569 H 149.799 -1.13675 3.23933 0
M  V30 1570 N 152.244 -1.26651 -0.937939 0
M  V30 1571 C 153.194 -1.05156 -2.02302 0
M  V30 1572 C 154.178 0.0171233 -1.60891 0
M  V30 1573 O 155.37 -0.200213 -1.75864 0
M  V30 1574 C 152.499 -0.689962 -3.36295 0
M  V30 1575 C 151.585 -1.79626 -3.84181 0
M  V30 1576 N 151.976 -3.03422 -4.04684 0
M  V30 1577 C 150.274 -1.6806 -4.13124 0
M  V30 1578 C 150.975 -3.75345 -4.444 0
M  V30 1579 N 149.951 -3.03051 -4.51288 0
M  V30 1580 H 153.753 -1.99117 -2.1617 0
M  V30 1581 H 151.267 -1.17216 -1.12402 0
M  V30 1582 H 153.264 -0.517112 -4.13681 0
M  V30 1583 H 151.924 0.242139 -3.23796 0
M  V30 1584 H 152.935 -3.39293 -3.91281 0
M  V30 1585 H 149.612 -0.818629 -4.09396 0
M  V30 1586 H 151.002 -4.81691 -4.68427 0
M  V30 1587 N 153.722 1.14298 -1.08507 0
M  V30 1588 C 154.952 1.88945 -0.835663 0
M  V30 1589 C 155.36 1.78894 0.615928 0
M  V30 1590 O 154.703 1.1468 1.43506 0
M  V30 1591 C 154.765 3.39585 -1.17994 0
M  V30 1592 C 154.429 3.7342 -2.63451 0
M  V30 1593 C 155.426 3.73454 -3.61702 0
M  V30 1594 C 153.111 4.03368 -2.99332 0
M  V30 1595 C 155.105 4.02961 -4.93864 0
M  V30 1596 C 152.792 4.32538 -4.31687 0
M  V30 1597 C 153.79 4.32318 -5.28763 0
M  V30 1598 O 153.478 4.6078 -6.58739 0
M  V30 1599 H 153.21 0.605307 -0.300965 0
M  V30 1600 H 155.764 1.45673 -1.44806 0
M  V30 1601 H 153.994 3.83315 -0.51055 0
M  V30 1602 H 155.683 3.9554 -0.911182 0
M  V30 1603 H 156.449 3.50403 -3.35325 0
M  V30 1604 H 152.328 4.02692 -2.24411 0
M  V30 1605 H 155.872 4.02704 -5.69627 0
M  V30 1606 H 151.769 4.55059 -4.57812 0
M  V30 1607 H 152.537 4.78492 -6.64069 0
M  V30 1608 N 155.201 0.870884 1.31352 0
M  V30 1609 C 156.164 0.332243 2.26779 0
M  V30 1610 C 157.164 -0.517302 1.52252 0
M  V30 1611 O 158.354 -0.326477 1.71113 0
M  V30 1612 C 155.486 -0.528066 3.36785 0
M  V30 1613 H 156.679 1.17469 2.75937 0
M  V30 1614 H 154.232 0.64655 1.423 0
M  V30 1615 H 154.967 -1.39167 2.92922 0
M  V30 1616 H 154.752 0.0802582 3.92018 0
M  V30 1617 H 156.242 -0.897179 4.07849 0
M  V30 1618 N 156.679 -1.44442 0.630414 0
M  V30 1619 C 157.612 -2.27862 -0.124247 0
M  V30 1620 C 158.59 -1.38495 -0.851931 0
M  V30 1621 O 159.774 -1.67935 -0.856166 0
M  V30 1622 C 156.901 -3.17407 -1.18197 0
M  V30 1623 C 155.947 -4.22875 -0.554892 0
M  V30 1624 S 156.78 -5.31485 0.654489 0
M  V30 1625 C 157.936 -6.246 -0.40326 0
M  V30 1626 H 158.169 -2.91519 0.583435 0
M  V30 1627 H 155.702 -1.48618 0.418565 0
M  V30 1628 H 157.66 -3.69549 -1.78728 0
M  V30 1629 H 156.321 -2.52971 -1.86184 0
M  V30 1630 H 155.514 -4.85542 -1.35148 0
M  V30 1631 H 155.116 -3.73992 -0.0242105 0
M  V30 1632 H 157.408 -6.65375 -1.27602 0
M  V30 1633 H 158.351 -7.07851 0.187813 0
M  V30 1634 H 158.759 -5.59775 -0.728837 0
M  V30 1635 N 158.157 -0.370918 -1.53173 0
M  V30 1636 C 159.405 0.216673 -2.00935 0
M  V30 1637 C 159.726 1.48845 -1.25977 0
M  V30 1638 O 158.996 1.92286 -0.374551 0
M  V30 1639 H 157.576 0.0830565 -0.742368 0
M  V30 1640 H 160.238 -0.49838 -1.8842 0
M  V30 1641 H 159.334 0.439893 -3.08984 0
M  V30 1642 N 159.635 1.57281 -0.100228 0
M  V30 1643 C 160.568 2.09976 0.893612 0
M  V30 1644 C 161.546 1.01155 1.27304 0
M  V30 1645 O 162.73 1.28687 1.37739 0
M  V30 1646 C 159.857 2.58098 2.19324 0
M  V30 1647 C 158.903 3.78626 1.96328 0
M  V30 1648 S 159.736 5.21959 1.19662 0
M  V30 1649 C 160.892 5.73435 2.50844 0
M  V30 1650 H 161.125 2.93946 0.44534 0
M  V30 1651 H 158.658 1.53985 0.113167 0
M  V30 1652 H 160.616 2.8648 2.94005 0
M  V30 1653 H 159.277 1.74344 2.61272 0
M  V30 1654 H 158.47 4.10382 2.92579 0
M  V30 1655 H 158.072 3.50763 1.29775 0
M  V30 1656 H 160.364 5.82015 3.46792 0
M  V30 1657 H 161.307 6.7185 2.23659 0
M  V30 1658 H 161.715 5.01395 2.59352 0
M  V30 1659 N 161.113 -0.173488 1.56642 0
M  V30 1660 C 162.362 -0.888758 1.81063 0
M  V30 1661 C 162.675 -1.83506 0.67712 0
M  V30 1662 O 163.881 -2.59254 0.806206 0
M  V30 1663 C 162.337 -1.63091 3.20826 0
M  V30 1664 C 161.945 -0.728357 4.4204 0
M  V30 1665 C 163.689 -2.33454 3.54541 0
M  V30 1666 C 161.596 -1.47062 5.72823 0
M  V30 1667 H 160.526 -0.335618 0.675186 0
M  V30 1668 H 163.177 -0.141712 1.82952 0
M  V30 1669 H 161.559 -2.42263 3.13248 0
M  V30 1670 H 162.733 0.0262449 4.60793 0
M  V30 1671 H 161.048 -0.134492 4.16183 0
M  V30 1672 H 163.645 -2.89578 4.49498 0
M  V30 1673 H 163.988 -3.08687 2.79317 0
M  V30 1674 H 164.521 -1.61227 3.63663 0
M  V30 1675 H 161.26 -0.760658 6.51072 0
M  V30 1676 H 160.78 -2.1986 5.58052 0
M  V30 1677 H 162.459 -2.01868 6.14702 0
M  V30 1678 N 162.591 -1.51276 -0.441967 0
M  V30 1679 C 163.554 -1.7167 -1.51862 0
M  V30 1680 C 164.554 -0.586793 -1.49711 0
M  V30 1681 O 165.744 -0.854276 -1.51815 0
M  V30 1682 C 162.876 -1.76889 -2.91416 0
M  V30 1683 H 164.069 -2.67754 -1.35084 0
M  V30 1684 H 161.622 -1.41196 -0.670333 0
M  V30 1685 H 162.357 -0.826026 -3.13604 0
M  V30 1686 H 162.142 -2.59001 -2.94382 0
M  V30 1687 H 163.632 -1.94522 -3.69528 0
M  V30 1688 N 164.069 0.697108 -1.41344 0
M  V30 1689 C 164.999 1.82353 -1.45841 0
M  V30 1690 C 165.98 1.67115 -0.317247 0
M  V30 1691 O 167.165 1.86871 -0.528474 0
M  V30 1692 C 164.295 3.20476 -1.33838 0
M  V30 1693 C 163.249 3.50415 -2.4575 0
M  V30 1694 C 162.575 4.87878 -2.18813 0
M  V30 1695 C 163.875 3.49546 -3.88091 0
M  V30 1696 H 165.569 1.78846 -2.40113 0
M  V30 1697 H 163.115 0.859028 -1.15571 0
M  V30 1698 H 165.068 3.98988 -1.35596 0
M  V30 1699 H 163.792 3.24604 -0.360498 0
M  V30 1700 H 162.451 2.74253 -2.43271 0
M  V30 1701 H 162.099 4.8863 -1.19371 0
M  V30 1702 H 161.799 5.08875 -2.93803 0
M  V30 1703 H 163.323 5.68702 -2.22284 0
M  V30 1704 H 164.737 4.18066 -3.92293 0
M  V30 1705 H 163.134 3.82075 -4.62751 0
M  V30 1706 H 164.204 2.48552 -4.16353 0
M  V30 1707 N 165.547 1.27147 0.931209 0
M  V30 1708 C 166.796 1.12664 1.67302 0
M  V30 1709 C 167.109 -0.327718 1.92835 0
M  V30 1710 O 168.315 -0.593392 2.64936 0
M  V30 1711 C 166.771 1.9683 3.01307 0
M  V30 1712 C 166.379 3.46901 2.83485 0
M  V30 1713 C 168.123 1.90985 3.79111 0
M  V30 1714 C 166.03 4.23279 4.13024 0
M  V30 1715 H 164.96 0.41803 0.627509 0
M  V30 1716 H 167.611 1.51539 1.03481 0
M  V30 1717 H 165.993 1.50797 3.66164 0
M  V30 1718 H 167.167 4.00773 2.27415 0
M  V30 1719 H 165.482 3.54088 2.19113 0
M  V30 1720 H 168.079 2.45328 4.75098 0
M  V30 1721 H 168.422 0.882718 4.06834 0
M  V30 1722 H 168.955 2.34895 3.21044 0
M  V30 1723 H 165.694 5.26503 3.90481 0
M  V30 1724 H 165.214 3.74186 4.6877 0
M  V30 1725 H 166.893 4.32265 4.81411 0
M  V30 1726 N 167.025 -1.13721 1.09112 0
M  V30 1727 C 167.988 -2.17222 0.731241 0
M  V30 1728 C 168.988 -1.59035 -0.237566 0
M  V30 1729 O 170.178 -1.74192 -0.0161704 0
M  V30 1730 C 167.31 -3.40804 0.0808443 0
M  V30 1731 H 168.503 -2.50573 1.64783 0
M  V30 1732 H 166.056 -1.28493 0.889897 0
M  V30 1733 H 166.791 -3.1304 -0.847127 0
M  V30 1734 H 166.576 -3.84306 0.777896 0
M  V30 1735 H 168.066 -4.1731 -0.155657 0
M  V30 1736 N 168.503 -0.877838 -1.30888 0
M  V30 1737 C 169.749 -0.493426 -1.96706 0
M  V30 1738 C 170.082 0.953504 -1.6918 0
M  V30 1739 O 169.357 1.67266 -0.992594 0
M  V30 1740 C 169.64 -0.760429 -3.51979 0
M  V30 1741 C 169.493 -2.25747 -3.89048 0
M  V30 1742 C 170.812 -0.232148 -4.39487 0
M  V30 1743 H 167.931 -0.180746 -0.714493 0
M  V30 1744 H 170.573 -1.10052 -1.54882 0
M  V30 1745 H 168.723 -0.243715 -3.87735 0
M  V30 1746 H 170.395 -2.84204 -3.63354 0
M  V30 1747 H 168.638 -2.72694 -3.37373 0
M  V30 1748 H 169.309 -2.39491 -4.97341 0
M  V30 1749 H 171.785 -0.674314 -4.106 0
M  V30 1750 H 170.661 -0.448355 -5.47066 0
M  V30 1751 H 170.922 0.866297 -4.33529 0
M  V30 1752 N 169.982 1.44106 -0.638065 0
M  V30 1753 C 171.23 2.01579 -0.145043 0
M  V30 1754 C 171.551 1.50496 1.24 0
M  V30 1755 O 170.821 0.711374 1.82527 0
M  V30 1756 H 169.401 0.745282 -0.05063 0
M  V30 1757 H 172.063 1.76516 -0.826327 0
M  V30 1758 H 171.159 3.11877 -0.118039 0
M  V30 1759 N 171.46 0.379036 1.52974 0
M  V30 1760 C 172.737 -0.263479 1.93817 0
M  V30 1761 C 173.117 -1.65244 1.31368 0
M  V30 1762 O 172.465 -2.23448 0.477856 0
M  V30 1763 C 172.675 -0.300166 3.47707 0
M  V30 1764 C 174.023 -0.534061 4.21228 0
M  V30 1765 O 175.047 -0.38081 3.54159 0
M  V30 1766 O 173.906 -0.833501 5.40106 0
M  V30 1767 H 171 -0.161149 0.811147 0
M  V30 1768 H 173.546 0.432798 1.64088 0
M  V30 1769 H 172.318 0.673138 3.85467 0
M  V30 1770 H 171.941 -1.04179 3.83709 0
M  V30 1771 N 172.938 -1.57226 0.108567 0
M  V30 1772 C 174.163 -1.99604 -0.563303 0
M  V30 1773 C 174.588 -0.987563 -1.6009 0
M  V30 1774 O 173.946 0.0421687 -1.81251 0
M  V30 1775 C 173.994 -3.40902 -1.17552 0
M  V30 1776 O 173.098 -3.42896 -2.2912 0
M  V30 1777 H 172.439 -0.648704 -0.1417 0
M  V30 1778 H 174.969 -2.03679 0.193961 0
M  V30 1779 H 174.979 -3.78886 -1.51357 0
M  V30 1780 H 173.654 -4.1382 -0.415445 0
M  V30 1781 H 172.231 -3.1672 -1.96832 0
M  V30 1782 N 174.416 0.165178 -1.56732 0
M  V30 1783 C 175.827 0.727046 -1.71962 0
M  V30 1784 C 176.178 1.82508 -0.720078 0
M  V30 1785 O 175.303 2.16082 0.117242 0
M  V30 1786 C 175.898 1.32559 -3.11791 0
M  V30 1787 C 174.457 1.83422 -3.28684 0
M  V30 1788 C 173.604 0.715567 -2.67908 0
M  V30 1789 H 176.555 -0.0602896 -1.58585 0
M  V30 1790 H 176.576 2.19533 -3.10782 0
M  V30 1791 H 176.088 0.526195 -3.84516 0
M  V30 1792 H 174.189 2.65986 -2.60926 0
M  V30 1793 H 174.302 1.97543 -4.36478 0
M  V30 1794 H 172.666 1.13758 -2.27884 0
M  V30 1795 H 173.449 -0.0720836 -3.43224 0
M  V30 1796 N 175.894 1.51508 0.433938 0
M  V30 1797 C 176.857 1.72473 1.50949 0
M  V30 1798 C 177.857 0.594725 1.49398 0
M  V30 1799 O 179.047 0.862315 1.5136 0
M  V30 1800 C 176.179 1.78431 2.90474 0
M  V30 1801 H 177.372 2.68467 1.33662 0
M  V30 1802 H 174.925 1.41549 0.662836 0
M  V30 1803 H 175.66 0.842645 3.13161 0
M  V30 1804 H 175.445 2.60558 2.93005 0
M  V30 1805 H 176.935 1.96479 3.68491 0
M  V30 1806 N 177.372 -0.689602 1.41712 0
M  V30 1807 C 178.32 -1.82475 1.44242 0
M  V30 1808 C 179.314 -1.66354 0.319774 0
M  V30 1809 O 180.52 -1.73143 0.492089 0
M  V30 1810 H 176.895 -0.601416 0.451445 0
M  V30 1811 H 178.866 -1.77458 2.39899 0
M  V30 1812 C 177.615 -3.20535 1.3473 0
M  V30 1813 H 176.938 -3.33559 2.20405 0
M  V30 1814 H 178.378 -4.00023 1.40562 0
M  V30 1815 C 176.837 -3.36846 0.0603281 0
M  V30 1816 O 177.367 -3.91656 -0.892663 0
M  V30 1817 N 175.573 -2.90595 -0.0177039 0
M  V30 1818 H 175.12 -2.46178 0.758572 0
M  V30 1819 H 175.078 -3.01886 -0.878201 0
M  V30 1820 N 178.85 -1.27639 -0.924453 0
M  V30 1821 C 179.78 -1.13166 -2.04244 0
M  V30 1822 C 180.761 -0.032256 -1.70069 0
M  V30 1823 O 181.946 -0.207328 -1.9309 0
M  V30 1824 C 179.076 -0.781496 -3.38393 0
M  V30 1825 C 178.03 -1.83449 -3.86692 0
M  V30 1826 C 177.356 -1.33822 -5.17683 0
M  V30 1827 C 178.656 -3.23917 -4.09726 0
M  V30 1828 H 180.35 -2.06689 -2.1661 0
M  V30 1829 H 177.896 -0.995136 -1.04082 0
M  V30 1830 H 179.849 -0.667057 -4.16087 0
M  V30 1831 H 178.573 0.189439 -3.2605 0
M  V30 1832 H 177.232 -1.93789 -3.11193 0
M  V30 1833 H 176.88 -0.35665 -5.01734 0
M  V30 1834 H 176.58 -2.04224 -5.50968 0
M  V30 1835 H 178.104 -1.23679 -5.97943 0
M  V30 1836 H 179.518 -3.16559 -4.77978 0
M  V30 1837 H 177.915 -3.92059 -4.54324 0
M  V30 1838 H 178.985 -3.68729 -3.14908 0
M  V30 1839 N 180.328 1.1314 -1.09713 0
M  V30 1840 C 181.605 1.80762 -0.747302 0
M  V30 1841 C 181.985 1.96663 0.767265 0
M  V30 1842 O 181.333 1.53706 1.69076 0
M  V30 1843 C 181.543 3.15606 -1.48975 0
M  V30 1844 C 182.891 3.90914 -1.65746 0
M  V30 1845 O 183.915 3.25239 -1.45251 0
M  V30 1846 O 182.774 5.08718 -1.9967 0
M  V30 1847 H 179.868 0.782103 -0.268782 0
M  V30 1848 H 182.414 1.20041 -1.19951 0
M  V30 1849 H 181.186 2.99278 -2.52088 0
M  V30 1850 H 180.809 3.84029 -1.02991 0
M  V30 1851 N 181.806 0.884767 1.30421 0
M  V30 1852 C 182.738 0.308655 2.27112 0
M  V30 1853 C 183.751 -0.536655 1.53701 0
M  V30 1854 O 184.94 -0.35624 1.74909 0
M  V30 1855 C 182.04 -0.579782 3.33904 0
M  V30 1856 C 181.213 0.236417 4.36761 0
M  V30 1857 C 180.272 -0.582482 5.22966 0
M  V30 1858 O 179.298 -0.00525502 5.692 0
M  V30 1859 N 180.5 -1.89163 5.48815 0
M  V30 1860 H 183.265 1.13964 2.77186 0
M  V30 1861 H 180.826 0.747731 1.43599 0
M  V30 1862 H 182.818 -1.13366 3.88497 0
M  V30 1863 H 181.388 -1.31144 2.83761 0
M  V30 1864 H 180.608 0.97174 3.82035 0
M  V30 1865 H 181.896 0.795924 5.02536 0
M  V30 1866 H 181.294 -2.38352 5.13035 0
M  V30 1867 H 179.851 -2.39296 6.06284 0
M  V30 1868 N 183.284 -1.43765 0.645699 0
M  V30 1869 C 184.533 -2.01116 0.153412 0
M  V30 1870 C 184.846 -1.51493 -1.23731 0
M  V30 1871 O 186.052 -2.01067 -1.8244 0
M  V30 1872 C 184.508 -3.59206 0.223473 0
M  V30 1873 C 184.116 -4.17823 1.61642 0
M  V30 1874 C 185.86 -4.23972 -0.211597 0
M  V30 1875 C 183.767 -5.68183 1.64081 0
M  V30 1876 H 182.697 -0.752093 0.0535891 0
M  V30 1877 H 185.348 -1.6482 0.806633 0
M  V30 1878 H 183.73 -3.92867 -0.497118 0
M  V30 1879 H 184.904 -3.95674 2.36176 0
M  V30 1880 H 183.219 -3.65399 1.99681 0
M  V30 1881 H 185.816 -5.34275 -0.213112 0
M  V30 1882 H 186.159 -3.97352 -1.24165 0
M  V30 1883 H 186.692 -3.95166 0.456988 0
M  V30 1884 H 183.431 -5.99559 2.64971 0
M  V30 1885 H 182.951 -5.9241 0.938611 0
M  V30 1886 H 184.63 -6.32085 1.3812 0
M  V30 1887 N 184.763 -0.387143 -1.52771 0
M  V30 1888 C 186.009 0.196025 -2.0185 0
M  V30 1889 C 186.342 1.46641 -1.27319 0
M  V30 1890 O 185.617 1.90889 -0.373032 0
M  V30 1891 C 185.9 0.466136 -3.5707 0
M  V30 1892 C 185.753 -0.819385 -4.42274 0
M  V30 1893 C 187.072 1.25768 -4.21747 0
M  V30 1894 H 184.191 0.0697708 -0.73369 0
M  V30 1895 H 186.833 -0.516286 -1.82851 0
M  V30 1896 H 184.983 1.07293 -3.7339 0
M  V30 1897 H 186.655 -1.4563 -4.37709 0
M  V30 1898 H 184.898 -1.43517 -4.09372 0
M  V30 1899 H 185.569 -0.585065 -5.48891 0
M  V30 1900 H 188.045 0.744167 -4.09391 0
M  V30 1901 H 186.921 1.41541 -5.30337 0
M  V30 1902 H 187.182 2.27228 -3.79236 0
M  V30 1903 N 186.241 1.57166 -0.116904 0
M  V30 1904 C 187.466 1.999 0.55271 0
M  V30 1905 C 187.891 0.996039 1.59564 0
M  V30 1906 O 187.249 -0.032556 1.81271 0
M  V30 1907 C 187.297 3.4152 1.15742 0
M  V30 1908 O 186.401 3.44106 2.27299 0
M  V30 1909 H 185.742 0.649447 0.138258 0
M  V30 1910 H 188.272 2.03573 -0.204759 0
M  V30 1911 H 188.282 3.79684 1.49346 0
M  V30 1912 H 186.957 4.14034 0.393493 0
M  V30 1913 H 185.534 3.17759 1.9515 0
M  V30 1914 N 187.719 -0.156864 1.56817 0
M  V30 1915 C 188.682 -1.17781 1.96622 0
M  V30 1916 C 189.682 -1.36401 0.851555 0
M  V30 1917 O 190.872 -1.33561 1.11836 0
M  V30 1918 C 188.004 -2.54008 2.27361 0
M  V30 1919 H 189.197 -0.836564 2.87996 0
M  V30 1920 H 186.75 -0.39985 1.51099 0
M  V30 1921 H 187.485 -2.9312 1.38748 0
M  V30 1922 H 187.27 -2.41856 3.08623 0
M  V30 1923 H 188.76 -3.27558 2.59029 0
M  V30 1924 N 189.197 -1.51736 -0.425897 0
M  V30 1925 C 190.144 -1.73875 -1.51776 0
M  V30 1926 C 191.114 -0.580702 -1.55618 0
M  V30 1927 O 192.299 -0.81641 -1.72451 0
M  V30 1928 C 189.439 -1.88012 -2.89388 0
M  V30 1929 C 188.552 -3.15606 -2.94986 0
M  V30 1930 C 187.687 -3.20271 -4.23793 0
M  V30 1931 C 186.726 -4.42134 -4.23302 0
M  V30 1932 N 185.863 -4.44284 -5.43651 0
M  V30 1933 H 190.703 -2.67071 -1.32201 0
M  V30 1934 H 188.24 -1.32351 -0.642008 0
M  V30 1935 H 190.198 -1.9419 -3.69251 0
M  V30 1936 H 188.828 -0.98213 -3.07496 0
M  V30 1937 H 187.88 -3.18681 -2.07717 0
M  V30 1938 H 189.192 -4.05486 -2.90486 0
M  V30 1939 H 188.346 -3.25428 -5.12036 0
M  V30 1940 H 187.085 -2.28299 -4.30965 0
M  V30 1941 H 186.09 -4.3714 -3.3345 0
M  V30 1942 H 187.315 -5.35382 -4.17783 0
M  V30 1943 H 185.261 -3.55188 -5.51523 0
M  V30 1944 H 185.178 -5.27988 -5.41078 0
M  V30 1945 H 186.446 -4.53649 -6.33895 0
M  V30 1946 N 190.675 0.682077 -1.42076 0
M  V30 1947 C 191.622 1.79578 -1.44984 0
M  V30 1948 C 192.592 1.6332 -0.302614 0
M  V30 1949 O 193.777 1.83978 -0.505633 0
M  V30 1950 C 190.917 3.1756 -1.35091 0
M  V30 1951 C 190.03 3.45156 -2.59791 0
M  V30 1952 C 189.165 4.72826 -2.42093 0
M  V30 1953 C 188.204 4.93433 -3.62202 0
M  V30 1954 N 187.341 6.12338 -3.43491 0
M  V30 1955 H 192.181 1.76427 -2.40161 0
M  V30 1956 H 189.718 0.861376 -1.19242 0
M  V30 1957 H 191.676 3.97287 -1.27354 0
M  V30 1958 H 190.306 3.19854 -0.435133 0
M  V30 1959 H 189.358 2.59736 -2.77923 0
M  V30 1960 H 190.67 3.5628 -3.49094 0
M  V30 1961 H 189.824 5.60631 -2.319 0
M  V30 1962 H 188.563 4.63973 -1.50268 0
M  V30 1963 H 187.568 4.04073 -3.72834 0
M  V30 1964 H 188.793 5.04136 -4.54998 0
M  V30 1965 H 186.739 6.04672 -2.54377 0
M  V30 1966 H 186.656 6.2429 -4.26377 0
M  V30 1967 H 187.924 7.02841 -3.37097 0
M  V30 1968 N 192.153 1.28127 0.917671 0
M  V30 1969 C 193.564 1.13622 1.48145 0
M  V30 1970 C 193.915 -0.275207 1.9426 0
M  V30 1971 O 193.04 -1.1691 1.82102 0
M  V30 1972 C 193.635 2.05648 2.69248 0
M  V30 1973 C 192.194 1.95219 3.21818 0
M  V30 1974 C 191.341 1.97618 1.94532 0
M  V30 1975 H 194.292 1.40874 0.730772 0
M  V30 1976 H 194.313 1.61818 3.44377 0
M  V30 1977 H 193.825 3.08365 2.35653 0
M  V30 1978 H 191.926 0.955244 3.60147 0
M  V30 1979 H 192.039 2.81976 3.87333 0
M  V30 1980 H 190.403 1.41973 2.11461 0
M  V30 1981 H 191.186 3.02007 1.63238 0
M  V30 1982 N 193.631 -1.12557 1.10312 0
M  V30 1983 C 194.578 -2.18247 0.750781 0
M  V30 1984 C 195.548 -1.63853 -0.272293 0
M  V30 1985 O 196.733 -1.90195 -0.151862 0
M  V30 1986 C 193.873 -3.44591 0.187379 0
M  V30 1987 C 192.986 -4.13046 1.2656 0
M  V30 1988 C 192.121 -5.27034 0.663978 0
M  V30 1989 C 191.16 -5.87353 1.72287 0
M  V30 1990 N 190.297 -6.92757 1.1416 0
M  V30 1991 H 195.137 -2.47732 1.65628 0
M  V30 1992 H 192.674 -1.21629 0.827337 0
M  V30 1993 H 194.632 -4.16904 -0.157148 0
M  V30 1994 H 193.262 -3.15527 -0.681355 0
M  V30 1995 H 192.314 -3.38924 1.72727 0
M  V30 1996 H 193.626 -4.53947 2.06721 0
M  V30 1997 H 192.78 -6.06104 0.268824 0
M  V30 1998 H 191.519 -4.87407 -0.169082 0
M  V30 1999 H 190.524 -5.06971 2.12746 0
M  V30 2000 H 191.749 -6.29051 2.55875 0
M  V30 2001 H 189.695 -6.5517 0.329984 0
M  V30 2002 H 189.612 -7.3225 1.88007 0
M  V30 2003 H 190.88 -7.75658 0.772956 0
M  V30 2004 N 195.109 -0.891671 -1.2995 0
M  V30 2005 C 196.358 -0.509521 -1.95158 0
M  V30 2006 C 196.671 0.947388 -1.71125 0
M  V30 2007 O 197.877 1.43669 -2.30372 0
M  V30 2008 C 196.333 -0.860315 -3.49466 0
M  V30 2009 C 195.941 -2.33545 -3.8231 0
M  V30 2010 C 197.685 -0.547687 -4.20952 0
M  V30 2011 C 195.592 -2.62752 -5.29826 0
M  V30 2012 H 194.522 -0.18682 -0.730489 0
M  V30 2013 H 197.173 -1.08756 -1.47798 0
M  V30 2014 H 195.555 -0.211285 -3.95436 0
M  V30 2015 H 196.729 -3.02936 -3.47227 0
M  V30 2016 H 195.044 -2.61629 -3.23944 0
M  V30 2017 H 197.641 -0.742854 -5.29515 0
M  V30 2018 H 197.984 0.51332 -4.13123 0
M  V30 2019 H 198.517 -1.1542 -3.80688 0
M  V30 2020 H 195.256 -3.6762 -5.42712 0
M  V30 2021 H 194.776 -1.97977 -5.66185 0
M  V30 2022 H 196.455 -2.48601 -5.97333 0
M  V30 2023 N 196.587 1.43421 -0.653314 0
M  V30 2024 C 197.833 2.02111 -0.166992 0
M  V30 2025 C 198.166 1.51423 1.21592 0
M  V30 2026 O 197.441 0.707389 1.8118 0
M  V30 2027 C 197.724 3.5966 -0.177948 0
M  V30 2028 C 197.577 4.20579 -1.59478 0
M  V30 2029 C 198.896 4.37413 0.4856 0
M  V30 2030 H 196.015 0.734374 -0.0621557 0
M  V30 2031 H 198.657 1.70717 -0.834016 0
M  V30 2032 H 196.807 3.86537 0.390032 0
M  V30 2033 H 198.479 4.04732 -2.21336 0
M  V30 2034 H 196.722 3.77226 -2.14204 0
M  V30 2035 H 197.393 5.29665 -1.5543 0
M  V30 2036 H 199.869 4.161 0.00234528 0
M  V30 2037 H 198.745 5.47075 0.447207 0
M  V30 2038 H 199.006 4.13672 1.55974 0
M  V30 2039 N 198.065 0.39524 1.52563 0
M  V30 2040 C 198.997 -0.472201 2.24283 0
M  V30 2041 C 200.01 -1.02178 1.26742 0
M  V30 2042 O 201.199 -0.923097 1.52778 0
M  V30 2043 C 198.299 -1.66775 2.95024 0
M  V30 2044 C 197.472 -1.2445 4.19322 0
M  V30 2045 C 196.531 -2.30539 4.7301 0
M  V30 2046 O 195.557 -1.91702 5.35947 0
M  V30 2047 N 196.759 -3.6253 4.53379 0
M  V30 2048 H 199.524 0.142282 2.99362 0
M  V30 2049 H 197.085 0.2219 1.60372 0
M  V30 2050 H 199.077 -2.37283 3.27839 0
M  V30 2051 H 197.647 -2.18845 2.23217 0
M  V30 2052 H 196.867 -0.368069 3.92478 0
M  V30 2053 H 198.155 -0.938457 5.0007 0
M  V30 2054 H 197.553 -3.96841 4.03154 0
M  V30 2055 H 196.11 -4.29055 4.90668 0
M  V30 2056 N 199.544 -1.57102 0.125237 0
M  V30 2057 C 200.454 -2.19191 -0.8362 0
M  V30 2058 C 201.47 -1.16985 -1.28805 0
M  V30 2059 O 202.646 -1.49479 -1.34974 0
M  V30 2060 C 199.711 -2.78407 -2.06617 0
M  V30 2061 C 198.772 -3.9567 -1.66565 0
M  V30 2062 C 198.005 -4.52052 -2.83698 0
M  V30 2063 O 198.228 -4.07326 -3.99302 0
M  V30 2064 O 197.162 -5.42645 -2.60423 0
M  V30 2065 H 200.988 -3.01816 -0.337776 0
M  V30 2066 H 198.573 -1.4906 -0.100695 0
M  V30 2067 H 200.455 -3.16129 -2.7864 0
M  V30 2068 H 199.13 -1.9881 -2.55453 0
M  V30 2069 H 198.037 -3.62705 -0.916296 0
M  V30 2070 H 199.37 -4.76722 -1.22464 0
M  V30 2071 N 201.022 0.148545 -1.56898 0
M  V30 2072 C 202.438 0.501131 -1.51528 0
M  V30 2073 C 202.638 1.83458 -0.833399 0
M  V30 2074 O 201.694 2.49259 -0.40328 0
M  V30 2075 C 203.007 0.512864 -2.96294 0
M  V30 2076 C 204.555 0.598487 -3.07225 0
M  V30 2077 C 205.03 0.640897 -4.53494 0
M  V30 2078 N 206.521 0.703163 -4.57832 0
M  V30 2079 C 207.256 0.756935 -5.68382 0
M  V30 2080 N 206.752 0.770147 -6.88506 0
M  V30 2081 N 208.545 0.797698 -5.56411 0
M  V30 2082 H 200.696 -0.725532 -1.99624 0
M  V30 2083 H 202.959 -0.264358 -0.910395 0
M  V30 2084 H 202.665 -0.398691 -3.49433 0
M  V30 2085 H 202.539 1.35133 -3.52163 0
M  V30 2086 H 204.926 1.50046 -2.54106 0
M  V30 2087 H 205.007 -0.267093 -2.54402 0
M  V30 2088 H 204.651 -0.256915 -5.0725 0
M  V30 2089 H 204.581 1.52295 -5.04097 0
M  V30 2090 H 207.072 0.700314 -3.71354 0
M  V30 2091 H 207.385 0.812983 -7.68512 0
M  V30 2092 H 205.73 0.738049 -6.9107 0
M  V30 2093 H 208.921 0.784535 -4.61479 0
M  V30 2094 H 209.094 0.83614 -6.42583 0
M  V30 2095 N 202.5 1.5196 0.417844 0
M  V30 2096 C 203.43 1.77634 1.51554 0
M  V30 2097 C 204.411 0.626918 1.58126 0
M  V30 2098 O 205.596 0.871632 1.7354 0
M  V30 2099 C 202.726 1.91911 2.8946 0
M  V30 2100 C 201.68 3.07463 2.97743 0
M  V30 2101 C 201.006 3.06951 4.37819 0
M  V30 2102 C 202.306 4.47082 2.70027 0
M  V30 2103 H 204 2.6955 1.3032 0
M  V30 2104 H 201.546 1.29706 0.625492 0
M  V30 2105 H 203.499 2.08455 3.6623 0
M  V30 2106 H 202.223 0.966598 3.11969 0
M  V30 2107 H 200.882 2.90656 2.23416 0
M  V30 2108 H 200.53 2.09438 4.57323 0
M  V30 2109 H 200.23 3.84556 4.44286 0
M  V30 2110 H 201.754 3.25613 5.16535 0
M  V30 2111 H 203.168 4.6414 3.36522 0
M  V30 2112 H 201.565 5.2654 2.87881 0
M  V30 2113 H 202.635 4.55777 1.65514 0
M  V30 2114 N 203.978 -0.674533 1.42435 0
M  V30 2115 C 204.888 -1.81751 1.48337 0
M  V30 2116 C 205.904 -1.69975 0.372099 0
M  V30 2117 O 207.08 -1.91521 0.62304 0
M  V30 2118 C 204.145 -3.17895 1.38361 0
M  V30 2119 C 203.206 -3.41625 2.59982 0
M  V30 2120 C 202.439 -4.71274 2.50473 0
M  V30 2121 O 202.662 -5.49197 1.54075 0
M  V30 2122 O 201.596 -4.96254 3.4061 0
M  V30 2123 H 205.422 -1.79728 2.44809 0
M  V30 2124 H 203.007 -0.830312 1.24202 0
M  V30 2125 H 204.889 -3.99136 1.35161 0
M  V30 2126 H 203.564 -3.20555 0.450144 0
M  V30 2127 H 202.471 -2.60231 2.68757 0
M  V30 2128 H 203.804 -3.43796 3.52229 0
M  V30 2129 N 205.456 -1.28612 -0.910864 0
M  V30 2130 C 206.403 -1.12786 -2.01365 0
M  V30 2131 C 207.373 -0.024201 -1.66082 0
M  V30 2132 O 208.558 -0.189667 -1.89855 0
M  V30 2133 C 205.698 -0.798743 -3.35729 0
M  V30 2134 C 204.811 -1.98173 -3.83864 0
M  V30 2135 C 203.946 -1.59298 -5.06752 0
M  V30 2136 C 202.985 -2.74245 -5.47226 0
M  V30 2137 N 202.122 -2.35842 -6.61304 0
M  V30 2138 H 206.962 -2.07142 -2.14234 0
M  V30 2139 H 204.499 -1.03093 -1.0493 0
M  V30 2140 H 206.457 -0.588662 -4.13026 0
M  V30 2141 H 205.087 0.10789 -3.2262 0
M  V30 2142 H 204.139 -2.30386 -3.02699 0
M  V30 2143 H 205.451 -2.84343 -4.09818 0
M  V30 2144 H 204.605 -1.34513 -5.916 0
M  V30 2145 H 203.344 -0.702618 -4.82612 0
M  V30 2146 H 202.349 -2.99725 -4.60918 0
M  V30 2147 H 203.574 -3.63928 -5.73353 0
M  V30 2148 H 201.52 -1.49279 -6.38789 0
M  V30 2149 H 201.437 -3.15546 -6.86998 0
M  V30 2150 H 202.705 -2.14348 -7.4945 0
M  V30 2151 N 206.934 1.1197 -1.10907 0
M  V30 2152 C 208.18 1.8386 -0.855773 0
M  V30 2153 C 208.513 1.84134 0.617103 0
M  V30 2154 O 207.788 1.29041 1.45529 0
M  V30 2155 C 208.071 3.31305 -1.411 0
M  V30 2156 C 207.924 3.39456 -2.9511 0
M  V30 2157 C 209.243 4.2721 -1.05736 0
M  V30 2158 H 206.362 0.667545 -0.312334 0
M  V30 2159 H 209.004 1.31331 -1.37303 0
M  V30 2160 H 207.154 3.76169 -0.97105 0
M  V30 2161 H 208.826 3.03191 -3.47668 0
M  V30 2162 H 207.069 2.79849 -3.31462 0
M  V30 2163 H 207.74 4.43209 -3.29044 0
M  V30 2164 H 210.216 3.90497 -1.43706 0
M  V30 2165 H 209.092 5.28775 -1.47269 0
M  V30 2166 H 209.353 4.42088 0.0325958 0
M  V30 2167 N 208.412 0.89855 1.29475 0
M  V30 2168 C 209.661 0.519863 1.94885 0
M  V30 2169 C 209.974 -0.9383 1.71625 0
M  V30 2170 O 211.18 -1.42445 2.31131 0
M  V30 2171 C 209.636 0.878836 3.49005 0
M  V30 2172 C 209.244 2.35569 3.81066 0
M  V30 2173 C 210.988 0.570004 4.20656 0
M  V30 2174 C 208.895 2.65558 5.28425 0
M  V30 2175 H 207.825 0.190692 0.729488 0
M  V30 2176 H 210.476 1.09539 1.47219 0
M  V30 2177 H 208.858 0.232253 3.95318 0
M  V30 2178 H 210.032 3.04773 3.45616 0
M  V30 2179 H 208.347 2.63343 3.22552 0
M  V30 2180 H 210.944 0.770925 5.29113 0
M  V30 2181 H 211.287 -0.491404 4.1339 0
M  V30 2182 H 211.82 1.17438 3.8007 0
M  V30 2183 H 208.559 3.70493 5.40754 0
M  V30 2184 H 208.079 2.00977 5.65127 0
M  V30 2185 H 209.758 2.51765 5.96006 0
M  V30 2186 N 209.89 -1.43072 0.660911 0
M  V30 2187 C 210.853 -2.29194 -0.0166406 0
M  V30 2188 C 211.853 -1.42609 -0.742912 0
M  V30 2189 O 213.043 -1.64155 -0.583004 0
M  V30 2190 C 210.175 -3.24831 -1.0343 0
M  V30 2191 H 211.368 -2.90596 0.741208 0
M  V30 2192 H 208.921 -1.5048 0.422532 0
M  V30 2193 H 209.656 -2.68339 -1.82111 0
M  V30 2194 H 209.441 -3.88676 -0.517082 0
M  V30 2195 H 210.931 -3.89451 -1.50723 0
M  V30 2196 N 211.368 -0.403325 -1.52352 0
M  V30 2197 C 212.593 0.176499 -2.06648 0
M  V30 2198 C 213.018 1.38577 -1.27193 0
M  V30 2199 O 212.376 1.7879 -0.300637 0
M  V30 2200 C 212.424 0.511061 -3.5696 0
M  V30 2201 O 211.528 1.60294 -3.79973 0
M  V30 2202 H 210.869 0.0167337 -0.663789 0
M  V30 2203 H 213.399 -0.574848 -1.96359 0
M  V30 2204 H 213.409 0.771362 -4.00642 0
M  V30 2205 H 212.084 -0.37296 -4.14224 0
M  V30 2206 H 210.661 1.33526 -3.48174 0
M  V30 2207 N 212.846 1.57033 -0.133567 0
M  V30 2208 C 213.809 2.14897 0.796995 0
M  V30 2209 C 214.809 1.0874 1.18458 0
M  V30 2210 O 215.999 1.34446 1.1077 0
M  V30 2211 C 213.131 2.70112 2.07973 0
M  V30 2212 H 214.324 2.98457 0.293873 0
M  V30 2213 H 211.877 1.55871 0.115787 0
M  V30 2214 H 212.612 1.9018 2.62682 0
M  V30 2215 H 212.397 3.47764 1.81115 0
M  V30 2216 H 213.887 3.14738 2.74462 0
M  V30 2217 N 214.325 -0.140222 1.56975 0
M  V30 2218 C 215.272 -1.17292 1.98774 0
M  V30 2219 C 216.242 -1.4232 0.856408 0
M  V30 2220 O 217.427 -1.54541 1.119 0
M  V30 2221 C 214.567 -2.49973 2.37923 0
M  V30 2222 C 213.68 -2.32062 3.64378 0
M  V30 2223 C 212.815 -3.57825 3.926 0
M  V30 2224 C 211.854 -3.3498 5.12303 0
M  V30 2225 N 210.991 -4.52891 5.36502 0
M  V30 2226 H 215.831 -0.809472 2.86795 0
M  V30 2227 H 213.368 -0.388237 1.41884 0
M  V30 2228 H 215.326 -3.27346 2.58652 0
M  V30 2229 H 213.956 -2.84252 1.52972 0
M  V30 2230 H 213.008 -1.45711 3.51387 0
M  V30 2231 H 214.32 -2.11145 4.51906 0
M  V30 2232 H 213.474 -4.43624 4.13863 0
M  V30 2233 H 212.213 -3.81753 3.03506 0
M  V30 2234 H 211.218 -2.4757 4.90906 0
M  V30 2235 H 212.443 -3.12444 6.02956 0
M  V30 2236 H 210.389 -4.76979 4.50363 0
M  V30 2237 H 210.306 -4.35001 6.18312 0
M  V30 2238 H 211.574 -5.39884 5.62268 0
M  V30 2239 O 215.842 -1.58968 -0.284834 0
M  V30 2240 H 216.533 -1.69867 -0.930848 0
M  V30 END ATOM
M  V30 BEGIN BOND
M  V30 END BOND
M  V30 END CTAB
M  END
$$$$
