drugbank_target|P04391 Ornithine carbamoyltransferase chain I (DB02965)
 OpenBabel12092120013D

  0  0  0     0  0            999 V3000
M  V30 BEGIN CTAB
M  V30 COUNTS 5155 5203 0 0 0
M  V30 BEGIN ATOM
M  V30 1 H -0.908 1.98254 -0.117106 0
M  V30 2 N 0 1.576 0 0
M  V30 3 C 0.933 2.03868 1.02534 0
M  V30 4 C 1.911 0.928543 1.3348 0
M  V30 5 O 3.095 1.19667 1.45644 0
M  V30 6 C 0.222 2.43627 2.35294 0
M  V30 7 C -0.732 3.65373 2.2001 0
M  V30 8 S 0.101 5.13292 1.52614 0
M  V30 9 C 1.257 5.56322 2.86805 0
M  V30 10 H 1.49 2.90518 0.631377 0
M  V30 11 H -0.977 1.52953 0.210867 0
M  V30 12 H 0.981 2.67203 3.11629 0
M  V30 13 H -0.358 1.57376 2.7183 0
M  V30 14 H -1.165 3.90944 3.18086 0
M  V30 15 H -1.563 3.418 1.51819 0
M  V30 16 H 0.729 5.58782 3.83104 0
M  V30 17 H 1.672 6.56266 2.65933 0
M  V30 18 H 2.08 4.83886 2.90714 0
M  V30 19 N 1.4781 -0.272755 1.55222 0
M  V30 20 C 2.7031 -1.02683 1.80197 0
M  V30 21 C 3.1281 -1.79142 0.573551 0
M  V30 22 O 2.4861 -1.74917 -0.476849 0
M  V30 23 C 2.5341 -1.9609 3.02624 0
M  V30 24 O 1.6381 -3.04863 2.77727 0
M  V30 25 H 0.9791 -0.293557 0.595584 0
M  V30 26 H 3.5091 -0.30159 2.02365 0
M  V30 27 H 3.5191 -2.38039 3.31363 0
M  V30 28 H 2.1941 -1.39851 3.91682 0
M  V30 29 H 0.7711 -2.67228 2.60084 0
M  V30 30 N 2.9562 -1.48159 -0.537278 0
M  V30 31 C 4.2042 -1.55497 -1.29094 0
M  V30 32 C 4.5252 -0.227454 -1.93669 0
M  V30 33 O 3.7952 0.750386 -1.80959 0
M  V30 34 H 2.3752 -0.572832 -0.47945 0
M  V30 35 H 5.0372 -1.84579 -0.625818 0
M  V30 36 H 4.1332 -2.33216 -2.07405 0
M  V30 37 N 4.4343 0.785586 -1.36625 0
M  V30 38 C 5.6813 1.54362 -1.31067 0
M  V30 39 C 6.0093 1.94195 0.10893 0
M  V30 40 O 5.2643 1.63262 1.07908 0
M  V30 41 C 5.5633 2.83007 -2.1827 0
M  V30 42 C 5.2293 2.62294 -3.6676 0
M  V30 43 C 3.8913 2.56353 -4.0723 0
M  V30 44 C 6.2433 2.43371 -4.6089 0
M  V30 45 C 3.5713 2.29461 -5.39967 0
M  V30 46 C 5.9233 2.18005 -5.93849 0
M  V30 47 C 4.5873 2.105 -6.3344 0
M  V30 48 H 3.8573 0.564851 -0.479609 0
M  V30 49 H 6.5043 0.906028 -1.68711 0
M  V30 50 H 4.8093 3.51253 -1.73576 0
M  V30 51 H 6.5063 3.40817 -2.11292 0
M  V30 52 H 3.0963 2.67774 -3.34656 0
M  V30 53 H 7.2803 2.46959 -4.30494 0
M  V30 54 H 2.5363 2.22135 -5.69619 0
M  V30 55 H 6.7103 2.02359 -6.66351 0
M  V30 56 H 4.3373 1.89425 -7.36222 0
M  V30 57 N 5.9124 1.20967 1.01018 0
M  V30 58 C 7.1424 1.04803 1.78044 0
M  V30 59 C 7.5504 -0.405462 1.84804 0
M  V30 60 O 6.8934 -1.2932 1.30468 0
M  V30 61 C 6.9554 1.56377 3.23707 0
M  V30 62 C 6.6194 3.04767 3.40538 0
M  V30 63 C 7.6164 4.02366 3.29239 0
M  V30 64 C 5.3014 3.43862 3.66147 0
M  V30 65 C 7.2954 5.37049 3.43304 0
M  V30 66 C 4.9824 4.78699 3.79855 0
M  V30 67 C 5.9804 5.75101 3.68439 0
M  V30 68 O 5.6684 7.07493 3.81719 0
M  V30 69 H 5.4004 0.368778 0.56655 0
M  V30 70 H 7.9544 1.60642 1.27997 0
M  V30 71 H 6.1844 0.949297 3.74867 0
M  V30 72 H 7.8734 1.36136 3.8239 0
M  V30 73 H 8.6394 3.73506 3.09384 0
M  V30 74 H 4.5184 2.69364 3.74118 0
M  V30 75 H 8.0624 6.12277 3.34309 0
M  V30 76 H 3.9594 5.07247 3.99213 0
M  V30 77 H 4.7274 7.1483 3.98697 0
M  V30 78 N 7.3905 -1.2043 1.01659 0
M  V30 79 C 8.3405 -2.21076 0.557623 0
M  V30 80 C 9.3245 -1.56176 -0.387029 0
M  V30 81 O 10.5165 -1.7575 -0.209996 0
M  V30 82 C 7.6455 -3.43146 -0.102707 0
M  V30 83 C 6.7315 -4.15213 0.863652 0
M  V30 84 N 7.1225 -4.63662 2.02117 0
M  V30 85 C 5.4205 -4.40716 0.684472 0
M  V30 86 C 6.1215 -5.18868 2.62966 0
M  V30 87 N 5.0975 -5.0893 1.91027 0
M  V30 88 H 8.8995 -2.56201 1.44008 0
M  V30 89 H 6.4135 -1.36366 0.881931 0
M  V30 90 H 8.4105 -4.14475 -0.449054 0
M  V30 91 H 7.0705 -3.09526 -0.981003 0
M  V30 92 H 8.0815 -4.58877 2.40109 0
M  V30 93 H 4.7585 -4.17245 -0.14577 0
M  V30 94 H 6.1485 -5.6673 3.60924 0
M  V30 95 N 8.8686 -0.792821 -1.36206 0
M  V30 96 C 9.8156 -0.191653 -2.30003 0
M  V30 97 C 10.7856 0.666453 -1.52143 0
M  V30 98 O 11.9706 0.61442 -1.80636 0
M  V30 99 C 9.1106 0.664848 -3.38635 0
M  V30 100 C 8.2236 -0.212175 -4.31479 0
M  V30 101 C 7.3586 0.651022 -5.27196 0
M  V30 102 C 6.3976 -0.227247 -6.11678 0
M  V30 103 N 5.5346 0.595127 -6.99573 0
M  V30 104 H 10.3746 -0.996978 -2.80828 0
M  V30 105 H 7.9116 -0.503206 -1.38225 0
M  V30 106 H 9.8696 1.17645 -4.00269 0
M  V30 107 H 8.4996 1.43557 -2.89122 0
M  V30 108 H 7.5516 -0.841777 -3.70969 0
M  V30 109 H 8.8636 -0.888751 -4.90818 0
M  V30 110 H 8.0176 1.2283 -5.94136 0
M  V30 111 H 6.7566 1.36121 -4.68319 0
M  V30 112 H 5.7616 -0.816904 -5.43697 0
M  V30 113 H 6.9866 -0.93509 -6.72631 0
M  V30 114 H 4.9326 1.28955 -6.432 0
M  V30 115 H 4.8496 -0.0236952 -7.55996 0
M  V30 116 H 6.1176 1.15613 -7.70879 0
M  V30 117 N 10.3467 1.47872 -0.545128 0
M  V30 118 C 11.2967 2.26842 0.229456 0
M  V30 119 C 12.2807 1.33626 0.896267 0
M  V30 120 O 13.4727 1.58063 0.79657 0
M  V30 121 C 10.6017 3.19089 1.26638 0
M  V30 122 C 9.6877 4.19783 0.603598 0
M  V30 123 N 10.0787 5.0479 -0.319405 0
M  V30 124 C 8.3767 4.3765 0.858989 0
M  V30 125 C 9.0777 5.77433 -0.703241 0
M  V30 126 N 8.0537 5.43566 -0.0608309 0
M  V30 127 H 11.8557 2.89947 -0.480391 0
M  V30 128 H 9.3697 1.58263 -0.364209 0
M  V30 129 H 11.3667 3.74337 1.83515 0
M  V30 130 H 10.0267 2.5754 1.97745 0
M  V30 131 H 11.0377 5.13244 -0.692889 0
M  V30 132 H 7.7147 3.87281 1.55948 0
M  V30 133 H 9.1047 6.55824 -1.46098 0
M  V30 134 N 11.8248 0.280983 1.55075 0
M  V30 135 C 13.0718 -0.334115 1.99725 0
M  V30 136 C 13.3998 -1.5542 1.1694 0
M  V30 137 O 12.6548 -1.94361 0.228531 0
M  V30 138 C 12.9538 -0.754656 3.49342 0
M  V30 139 C 12.6198 0.361445 4.49449 0
M  V30 140 C 11.2818 0.667893 4.76542 0
M  V30 141 C 13.6338 1.11322 5.09173 0
M  V30 142 C 10.9618 1.7296 5.60626 0
M  V30 143 C 13.3138 2.1647 5.9441 0
M  V30 144 C 11.9778 2.47742 6.19822 0
M  V30 145 H 11.2478 -0.122261 0.730844 0
M  V30 146 H 13.8948 0.395917 1.87363 0
M  V30 147 H 12.1998 -1.56446 3.5921 0
M  V30 148 H 13.8968 -1.24142 3.813 0
M  V30 149 H 10.4868 0.112481 4.28452 0
M  V30 150 H 14.6708 0.88973 4.8826 0
M  V30 151 H 9.9268 1.97684 5.78559 0
M  V30 152 H 14.1008 2.75193 6.3972 0
M  V30 153 H 11.7278 3.30145 6.84769 0
M  V30 154 N 13.3029 -1.57598 0.00835791 0
M  V30 155 C 14.2329 -2.1198 -0.979113 0
M  V30 156 C 15.2139 -1.03091 -1.35301 0
M  V30 157 O 16.3989 -1.30818 -1.43528 0
M  V30 158 C 13.5289 -2.62995 -2.26828 0
M  V30 159 C 12.4829 -3.76485 -2.03576 0
M  V30 160 C 11.8089 -4.13846 -3.38579 0
M  V30 161 C 13.1089 -5.0342 -1.39161 0
M  V30 162 H 14.8029 -2.94738 -0.526281 0
M  V30 163 H 12.3489 -1.41783 -0.251704 0
M  V30 164 H 14.3019 -2.99669 -2.96271 0
M  V30 165 H 13.0259 -1.7737 -2.7424 0
M  V30 166 H 11.6849 -3.40217 -1.36557 0
M  V30 167 H 11.3329 -3.25232 -3.83709 0
M  V30 168 H 11.0329 -4.90312 -3.23834 0
M  V30 169 H 12.5569 -4.53086 -4.09323 0
M  V30 170 H 13.9709 -5.37812 -1.98573 0
M  V30 171 H 12.3679 -5.84746 -1.34878 0
M  V30 172 H 13.4379 -4.83548 -0.361868 0
M  V30 173 N 14.781 0.264519 -1.55364 0
M  V30 174 C 15.728 1.32717 -1.88825 0
M  V30 175 C 16.698 1.48675 -0.740605 0
M  V30 176 O 17.883 1.62945 -0.992657 0
M  V30 177 C 15.023 2.68089 -2.17307 0
M  V30 178 C 14.136 2.60284 -3.44785 0
M  V30 179 C 13.271 3.87892 -3.62924 0
M  V30 180 C 12.31 3.74631 -4.84064 0
M  V30 181 N 11.447 4.94092 -4.98816 0
M  V30 182 H 16.287 1.03481 -2.79456 0
M  V30 183 H 13.824 0.499757 -1.3835 0
M  V30 184 H 15.782 3.46864 -2.31821 0
M  V30 185 H 14.412 2.95509 -1.299 0
M  V30 186 H 13.464 1.73173 -3.38697 0
M  V30 187 H 14.776 2.46388 -4.33698 0
M  V30 188 H 13.93 4.75109 -3.77302 0
M  V30 189 H 12.669 4.04664 -2.7221 0
M  V30 190 H 11.674 2.85797 -4.69681 0
M  V30 191 H 12.899 3.5937 -5.76221 0
M  V30 192 H 10.845 5.11259 -4.11036 0
M  V30 193 H 10.762 4.8276 -5.81789 0
M  V30 194 H 12.03 5.82857 -5.17588 0
M  V30 195 N 16.2591 1.48442 0.529413 0
M  V30 196 C 17.1891 1.65902 1.64313 0
M  V30 197 C 18.1701 0.507897 1.6234 0
M  V30 198 O 19.3551 0.740503 1.79528 0
M  V30 199 C 16.4851 1.69911 3.02898 0
M  V30 200 C 15.4391 2.8453 3.19729 0
M  V30 201 C 14.7651 2.73629 4.59381 0
M  V30 202 C 16.0651 4.25821 3.02447 0
M  V30 203 H 17.7591 2.5914 1.49955 0
M  V30 204 H 15.3051 1.24709 0.719982 0
M  V30 205 H 17.2581 1.80715 3.80684 0
M  V30 206 H 15.9821 0.732524 3.18279 0
M  V30 207 H 14.6411 2.73283 2.44361 0
M  V30 208 H 14.2891 1.74938 4.71599 0
M  V30 209 H 13.9891 3.50541 4.71588 0
M  V30 210 H 15.5131 2.86401 5.39265 0
M  V30 211 H 16.9271 4.37898 3.70024 0
M  V30 212 H 15.3241 5.03735 3.26146 0
M  V30 213 H 16.3941 4.42244 1.98867 0
M  V30 214 N 17.7372 -0.778329 1.37039 0
M  V30 215 C 18.6672 -1.90546 1.34962 0
M  V30 216 C 19.6482 -1.68681 0.219274 0
M  V30 217 O 20.8332 -1.89634 0.418624 0
M  V30 218 C 17.9632 -3.27734 1.14925 0
M  V30 219 C 16.9172 -3.64147 2.24902 0
M  V30 220 C 16.2432 -4.99806 1.89996 0
M  V30 221 C 17.5432 -3.71579 3.67051 0
M  V30 222 H 19.2372 -1.92541 2.29277 0
M  V30 223 H 16.7832 -0.924948 1.10366 0
M  V30 224 H 18.7362 -4.06215 1.12104 0
M  V30 225 H 17.4602 -3.26154 0.170631 0
M  V30 226 H 16.1192 -2.8797 2.26868 0
M  V30 227 H 15.7672 -4.94759 0.906796 0
M  V30 228 H 15.4672 -5.25139 2.63634 0
M  V30 229 H 16.9912 -5.80694 1.88749 0
M  V30 230 H 18.4052 -4.40227 3.67251 0
M  V30 231 H 16.8022 -4.08405 4.39688 0
M  V30 232 H 17.8722 -2.72404 4.01154 0
M  V30 233 N 19.2153 -1.21501 -1.00376 0
M  V30 234 C 20.4923 -0.941745 -1.71437 0
M  V30 235 C 20.8723 0.546114 -2.03914 0
M  V30 236 O 20.2203 1.51128 -1.71384 0
M  V30 237 C 20.4303 -1.82812 -2.97289 0
M  V30 238 C 21.7783 -2.07771 -3.70292 0
M  V30 239 O 22.8023 -1.80171 -3.07273 0
M  V30 240 O 21.6613 -2.54456 -4.83647 0
M  V30 241 H 18.7553 -0.353243 -0.747762 0
M  V30 242 H 21.3013 -1.32436 -1.06108 0
M  V30 243 H 20.0733 -2.83501 -2.69709 0
M  V30 244 H 19.6963 -1.4464 -3.70358 0
M  V30 245 N 20.6934 1.19889 -1.02296 0
M  V30 246 C 21.9404 1.8942 -0.715972 0
M  V30 247 C 22.2684 1.79251 0.754944 0
M  V30 248 O 21.5234 1.17526 1.56481 0
M  V30 249 C 21.8224 3.39883 -1.10518 0
M  V30 250 C 21.4884 3.70254 -2.57337 0
M  V30 251 C 20.1504 3.78254 -2.97452 0
M  V30 252 C 22.5024 3.84052 -3.52354 0
M  V30 253 C 19.8304 3.97514 -4.31509 0
M  V30 254 C 22.1824 4.04824 -4.86108 0
M  V30 255 C 20.8464 4.11054 -5.25919 0
M  V30 256 H 20.1164 0.693138 -0.261993 0
M  V30 257 H 22.7634 1.42012 -1.28472 0
M  V30 258 H 21.0684 3.8915 -0.454953 0
M  V30 259 H 22.7654 3.9199 -0.845261 0
M  V30 260 H 19.3554 3.64632 -2.25258 0
M  V30 261 H 23.5394 3.77221 -3.22518 0
M  V30 262 H 18.7954 4.00574 -4.61898 0
M  V30 263 H 22.9694 4.14442 -5.59653 0
M  V30 264 H 20.5964 4.2573 -6.29808 0
M  V30 265 N 22.1715 0.800033 1.35784 0
M  V30 266 C 23.3995 0.389606 2.03199 0
M  V30 267 C 23.8145 -0.997375 1.60306 0
M  V30 268 O 23.1715 -1.64154 0.797481 0
M  V30 269 C 23.2225 0.455855 3.58614 0
M  V30 270 O 22.9435 1.78815 3.99946 0
M  V30 271 C 24.4445 0.0374032 4.43284 0
M  V30 272 H 21.6645 0.159132 0.651857 0
M  V30 273 H 24.2085 1.08183 1.73541 0
M  V30 274 H 22.3635 -0.188057 3.86943 0
M  V30 275 H 22.7775 1.74636 4.94573 0
M  V30 276 H 24.2515 0.134882 5.51835 0
M  V30 277 H 24.7285 -1.01651 4.27275 0
M  V30 278 H 25.3345 0.654215 4.20238 0
M  V30 279 N 23.6496 -1.47581 0.552962 0
M  V30 280 C 25.0606 -1.86324 0.118463 0
M  V30 281 C 25.4116 -1.46006 -1.3106 0
M  V30 282 O 24.5366 -0.861182 -1.98526 0
M  V30 283 C 25.1316 -3.3816 0.20821 0
M  V30 284 C 23.6906 -3.7601 -0.171226 0
M  V30 285 C 22.8376 -2.71634 0.557686 0
M  V30 286 H 25.7886 -1.39159 0.762928 0
M  V30 287 H 25.8096 -3.76141 -0.574278 0
M  V30 288 H 25.3216 -3.67473 1.24841 0
M  V30 289 H 23.4226 -3.52313 -1.21269 0
M  V30 290 H 23.5356 -4.78745 0.184379 0
M  V30 291 H 21.8996 -2.547 0.00125792 0
M  V30 292 H 22.6826 -3.0379 1.59896 0
M  V30 293 N 25.1277 -0.289203 -1.54924 0
M  V30 294 C 26.0907 0.579144 -2.21762 0
M  V30 295 C 27.0907 1.07047 -1.1999 0
M  V30 296 O 28.2807 0.968384 -1.44803 0
M  V30 297 C 25.4127 1.80055 -2.8947 0
M  V30 298 H 26.6057 -0.00464908 -2.999 0
M  V30 299 H 24.1587 -0.0399306 -1.56249 0
M  V30 300 H 24.8937 2.42449 -2.15381 0
M  V30 301 H 24.6787 1.45602 -3.64064 0
M  V30 302 H 26.1687 2.41773 -3.40493 0
M  V30 303 N 26.6058 1.57591 -0.0167156 0
M  V30 304 C 27.5158 2.1291 0.98521 0
M  V30 305 C 28.5318 1.07834 1.36557 0
M  V30 306 O 29.7078 1.39826 1.44951 0
M  V30 307 C 26.7728 2.63512 2.25305 0
M  V30 308 C 25.8338 3.83256 1.93426 0
M  V30 309 C 25.0668 4.31435 3.14165 0
M  V30 310 O 25.2898 3.78851 4.26413 0
M  V30 311 O 24.2238 5.23416 2.97186 0
M  V30 312 H 28.0498 2.98772 0.544888 0
M  V30 313 H 25.6348 1.48012 0.203141 0
M  V30 314 H 27.5168 2.96183 2.99756 0
M  V30 315 H 26.1918 1.8074 2.68542 0
M  V30 316 H 25.0988 3.55531 1.16398 0
M  V30 317 H 26.4318 4.67153 1.55013 0
M  V30 318 N 28.0839 -0.256276 1.55502 0
M  V30 319 C 29.0139 -1.32102 1.92539 0
M  V30 320 C 29.9949 -1.50684 0.789194 0
M  V30 321 O 31.1799 -1.63449 1.04872 0
M  V30 322 C 28.3099 -2.67752 2.21192 0
M  V30 323 C 27.2639 -2.63878 3.36975 0
M  V30 324 C 26.5899 -4.03236 3.51147 0
M  V30 325 C 27.8899 -2.21682 4.72921 0
M  V30 326 H 29.5839 -1.01351 2.81724 0
M  V30 327 H 27.1299 -0.486105 1.35547 0
M  V30 328 H 29.0829 -3.42365 2.45691 0
M  V30 329 H 27.8069 -3.0012 1.28824 0
M  V30 330 H 26.4659 -1.91722 3.12471 0
M  V30 331 H 26.1139 -4.32854 2.56216 0
M  V30 332 H 25.8139 -4.01535 4.29003 0
M  V30 333 H 27.3379 -4.79563 3.77957 0
M  V30 334 H 28.7519 -2.86023 4.96854 0
M  V30 335 H 27.1489 -2.3111 5.53812 0
M  V30 336 H 28.2189 -1.16833 4.70615 0
M  V30 337 N 29.562 -1.4872 -0.521534 0
M  V30 338 C 30.51 -1.64328 -1.64618 0
M  V30 339 C 31.504 -0.50953 -1.61555 0
M  V30 340 O 32.71 -0.688525 -1.66311 0
M  V30 341 H 29.085 -0.517805 -0.545328 0
M  V30 342 H 31.056 -2.58767 -1.48601 0
M  V30 343 C 29.805 -1.70805 -3.02855 0
M  V30 344 H 29.128 -2.5741 -3.05909 0
M  V30 345 H 30.568 -1.85766 -3.81139 0
M  V30 346 C 29.027 -0.448479 -3.33902 0
M  V30 347 O 29.557 0.434928 -3.99339 0
M  V30 348 N 27.763 -0.317616 -2.88859 0
M  V30 349 H 27.31 -1.03748 -2.35784 0
M  V30 350 H 27.268 0.524113 -3.10001 0
M  V30 351 N 31.0401 0.771051 -1.3745 0
M  V30 352 C 32.2651 1.56529 -1.36065 0
M  V30 353 C 32.6901 1.88029 0.0515859 0
M  V30 354 O 32.0481 1.49282 1.02882 0
M  V30 355 C 32.0961 2.85187 -2.20683 0
M  V30 356 O 31.2001 3.79593 -1.61193 0
M  V30 357 H 30.5411 0.47411 -0.464883 0
M  V30 358 H 33.0711 0.954269 -1.80983 0
M  V30 359 H 33.0811 3.34283 -2.33921 0
M  V30 360 H 31.7561 2.61588 -3.23334 0
M  V30 361 H 30.3331 3.38239 -1.56999 0
M  V30 362 N 32.5182 1.22032 0.997298 0
M  V30 363 C 33.4482 1.01065 2.10495 0
M  V30 364 C 34.4292 -0.0669542 1.69968 0
M  V30 365 O 35.6142 0.0943987 1.9397 0
M  V30 366 C 32.7442 0.582874 3.42374 0
M  V30 367 C 31.6982 1.60592 3.96729 0
M  V30 368 C 31.0242 1.03412 5.24605 0
M  V30 369 C 32.3242 2.99478 4.27914 0
M  V30 370 H 34.0182 1.93708 2.28292 0
M  V30 371 H 31.5642 0.932761 1.09707 0
M  V30 372 H 33.5172 0.423332 4.19268 0
M  V30 373 H 32.2412 -0.379213 3.24391 0
M  V30 374 H 30.9002 1.75316 3.21963 0
M  V30 375 H 30.5482 0.063518 5.0296 0
M  V30 376 H 30.2482 1.71754 5.61938 0
M  V30 377 H 31.7722 0.886066 6.04137 0
M  V30 378 H 33.1862 2.88153 4.95622 0
M  V30 379 H 31.5832 3.64903 4.76409 0
M  V30 380 H 32.6532 3.49742 3.3587 0
M  V30 381 N 33.9963 -1.19345 1.0293 0
M  V30 382 C 34.9263 -2.2481 0.631105 0
M  V30 383 C 35.9073 -1.66245 -0.360104 0
M  V30 384 O 37.0923 -1.92677 -0.242726 0
M  V30 385 C 34.2223 -3.47295 -0.0184607 0
M  V30 386 C 33.1763 -4.18536 0.895073 0
M  V30 387 C 32.5023 -5.34586 0.110592 0
M  V30 388 C 33.8023 -4.73287 2.209 0
M  V30 389 H 35.4963 -2.58372 1.51275 0
M  V30 390 H 33.0423 -1.24194 0.728818 0
M  V30 391 H 34.9953 -4.20268 -0.308675 0
M  V30 392 H 33.7193 -3.12933 -0.934907 0
M  V30 393 H 32.3783 -3.47446 1.16949 0
M  V30 394 H 32.0263 -4.96469 -0.807902 0
M  V30 395 H 31.7263 -5.83183 0.719087 0
M  V30 396 H 33.2503 -6.10355 -0.172871 0
M  V30 397 H 34.6643 -5.38013 1.98028 0
M  V30 398 H 33.0613 -5.32373 2.76946 0
M  V30 399 H 34.1313 -3.91331 2.86336 0
M  V30 400 N 35.4744 -0.807222 -1.35358 0
M  V30 401 C 36.4064 -0.175717 -2.28525 0
M  V30 402 C 37.4194 0.625354 -1.5031 0
M  V30 403 O 38.6084 0.457611 -1.72535 0
M  V30 404 C 35.7084 0.773471 -3.29956 0
M  V30 405 C 34.8814 0.0186296 -4.37396 0
M  V30 406 C 33.9404 0.886395 -5.18681 0
M  V30 407 O 32.9664 0.337106 -5.68201 0
M  V30 408 N 34.1684 2.20839 -5.36852 0
M  V30 409 H 36.9334 -0.976091 -2.83359 0
M  V30 410 H 34.4944 -0.662737 -1.47714 0
M  V30 411 H 36.4864 1.35824 -3.81227 0
M  V30 412 H 35.0564 1.47465 -2.75632 0
M  V30 413 H 34.2764 -0.747349 -3.87051 0
M  V30 414 H 35.5644 -0.501577 -5.06322 0
M  V30 415 H 34.9624 2.67858 -4.98265 0
M  V30 416 H 33.5194 2.74237 -5.91301 0
M  V30 417 N 36.9525 1.47285 -0.560781 0
M  V30 418 C 37.8825 2.32857 0.173105 0
M  V30 419 C 38.8635 1.44009 0.905281 0
M  V30 420 O 40.0485 1.7286 0.885046 0
M  V30 421 C 37.1785 3.25861 1.20133 0
M  V30 422 C 36.1325 4.23978 0.585388 0
M  V30 423 C 35.4585 5.06332 1.7185 0
M  V30 424 C 36.7585 5.20242 -0.463178 0
M  V30 425 H 38.4525 2.94466 -0.541307 0
M  V30 426 H 35.9985 1.41601 -0.261764 0
M  V30 427 H 37.9515 3.84569 1.72293 0
M  V30 428 H 36.6755 2.62315 1.94573 0
M  V30 429 H 35.3345 3.66501 0.085054 0
M  V30 430 H 34.9825 4.39186 2.45203 0
M  V30 431 H 34.6825 5.72762 1.31213 0
M  V30 432 H 36.2065 5.67899 2.24329 0
M  V30 433 H 37.6205 5.73293 -0.027502 0
M  V30 434 H 36.0175 5.94896 -0.788627 0
M  V30 435 H 37.0875 4.65504 -1.35773 0
M  V30 436 N 38.4306 0.297415 1.54768 0
M  V30 437 C 39.3936 -0.567375 2.22066 0
M  V30 438 C 40.3936 -1.06409 1.20556 0
M  V30 439 O 41.5836 -0.960691 1.45315 0
M  V30 440 C 38.7156 -1.78517 2.90421 0
M  V30 441 H 39.9086 0.0205534 2.99893 0
M  V30 442 H 37.4616 0.0482163 1.56226 0
M  V30 443 H 38.1966 -2.41303 2.16664 0
M  V30 444 H 37.9816 -1.43669 3.64831 0
M  V30 445 H 39.4716 -2.39964 3.41771 0
M  V30 446 N 39.9087 -1.5758 0.0250728 0
M  V30 447 C 40.8717 -2.08896 -0.943139 0
M  V30 448 C 41.8717 -1.00321 -1.25668 0
M  V30 449 O 43.0617 -1.26495 -1.19769 0
M  V30 450 C 40.1937 -2.55143 -2.26086 0
M  V30 451 H 41.3867 -2.95723 -0.498775 0
M  V30 452 H 38.9397 -1.54703 -0.222888 0
M  V30 453 H 39.6747 -1.71633 -2.75159 0
M  V30 454 H 39.4597 -3.34461 -2.04641 0
M  V30 455 H 40.9497 -2.95083 -2.95492 0
M  V30 456 N 41.3868 0.248026 -1.55636 0
M  V30 457 C 42.3338 1.30707 -1.90222 0
M  V30 458 C 43.3038 1.47881 -0.756332 0
M  V30 459 O 44.4888 1.61883 -1.00988 0
M  V30 460 C 41.6288 2.65769 -2.20138 0
M  V30 461 C 40.7418 2.56612 -3.47526 0
M  V30 462 C 39.8768 3.8402 -3.67017 0
M  V30 463 C 38.9158 3.69476 -4.8801 0
M  V30 464 N 38.0528 4.88774 -5.04029 0
M  V30 465 H 42.8928 1.00512 -2.80538 0
M  V30 466 H 40.4298 0.485055 -1.38873 0
M  V30 467 H 42.3878 3.44386 -2.35487 0
M  V30 468 H 41.0178 2.94115 -1.33027 0
M  V30 469 H 40.0698 1.69571 -3.40514 0
M  V30 470 H 41.3818 2.41774 -4.36287 0
M  V30 471 H 40.5358 4.7108 -3.8232 0
M  V30 472 H 39.2748 4.01754 -2.76487 0
M  V30 473 H 38.2798 2.80799 -4.72686 0
M  V30 474 H 39.5048 3.53238 -5.8 0
M  V30 475 H 37.4508 5.0687 -4.16435 0
M  V30 476 H 37.3678 4.76562 -5.86877 0
M  V30 477 H 38.6358 5.77335 -5.23741 0
M  V30 478 N 42.8649 1.48995 0.513639 0
M  V30 479 C 43.7949 1.67636 1.62544 0
M  V30 480 C 44.7759 0.525087 1.61793 0
M  V30 481 O 45.9609 0.759502 1.78732 0
M  V30 482 C 43.0909 1.73114 3.01079 0
M  V30 483 C 42.0449 2.87905 3.16693 0
M  V30 484 C 41.3709 2.78486 4.56453 0
M  V30 485 C 42.6709 4.29005 2.97913 0
M  V30 486 H 44.3649 2.60716 1.47198 0
M  V30 487 H 41.9109 1.25465 0.706714 0
M  V30 488 H 43.8639 1.84742 3.78746 0
M  V30 489 H 42.5879 0.766241 3.17484 0
M  V30 490 H 41.2469 2.75859 2.41448 0
M  V30 491 H 40.8949 1.7993 4.69717 0
M  V30 492 H 40.5949 3.55523 4.67843 0
M  V30 493 H 42.1189 2.92104 5.36197 0
M  V30 494 H 43.5329 4.41798 3.65359 0
M  V30 495 H 41.9299 5.07166 3.20785 0
M  V30 496 H 42.9999 4.44329 1.94165 0
M  V30 497 N 44.343 -0.763751 1.37857 0
M  V30 498 C 45.29 -1.87726 1.34267 0
M  V30 499 C 46.26 -1.64807 0.206879 0
M  V30 500 O 47.445 -1.86613 0.397508 0
M  V30 501 C 44.585 -3.24896 1.16346 0
M  V30 502 C 43.698 -3.59716 2.39225 0
M  V30 503 C 42.833 -4.86137 2.14114 0
M  V30 504 C 41.872 -5.13711 3.32817 0
M  V30 505 N 41.009 -6.31323 3.07206 0
M  V30 506 H 45.849 -1.90129 2.29466 0
M  V30 507 H 43.386 -0.929433 1.14017 0
M  V30 508 H 45.344 -4.04036 1.03975 0
M  V30 509 H 43.974 -3.21847 0.247909 0
M  V30 510 H 43.026 -2.75498 2.62307 0
M  V30 511 H 44.338 -3.76027 3.27728 0
M  V30 512 H 43.492 -5.73198 1.9882 0
M  V30 513 H 42.231 -4.71945 1.22961 0
M  V30 514 H 41.236 -4.25123 3.48641 0
M  V30 515 H 42.461 -5.29807 4.24832 0
M  V30 516 H 40.407 -6.18474 2.1869 0
M  V30 517 H 40.324 -6.48087 3.89254 0
M  V30 518 H 41.592 -7.213 2.95546 0
M  V30 519 N 45.8211 -1.22559 -0.990812 0
M  V30 520 C 46.7841 -0.998863 -2.0629 0
M  V30 521 C 47.7841 0.0354834 -1.60761 0
M  V30 522 O 48.9741 -0.203231 -1.7301 0
M  V30 523 C 46.1061 -0.509203 -3.37076 0
M  V30 524 H 47.2991 -1.95014 -2.27837 0
M  V30 525 H 44.8521 -1.04456 -1.16269 0
M  V30 526 H 45.5871 0.446335 -3.21214 0
M  V30 527 H 45.3721 -1.25547 -3.71457 0
M  V30 528 H 46.8621 -0.370888 -4.1595 0
M  V30 529 N 47.2992 1.18797 -1.03562 0
M  V30 530 C 48.5762 1.84469 -0.650434 0
M  V30 531 C 48.9562 1.92319 0.870433 0
M  V30 532 O 48.3042 1.44528 1.76986 0
M  V30 533 C 48.5142 3.2306 -1.32036 0
M  V30 534 C 49.8622 3.9915 -1.44792 0
M  V30 535 O 50.8862 3.32481 -1.27806 0
M  V30 536 O 49.7452 5.18587 -1.72423 0
M  V30 537 H 46.8392 0.795251 -0.226946 0
M  V30 538 H 49.3852 1.26231 -1.13419 0
M  V30 539 H 48.1572 3.1222 -2.3587 0
M  V30 540 H 47.7802 3.88949 -0.8249 0
M  V30 541 N 48.7773 0.814389 1.34928 0
M  V30 542 C 49.7243 0.22822 2.29669 0
M  V30 543 C 50.6943 -0.642164 1.53184 0
M  V30 544 O 51.8793 -0.585605 1.81591 0
M  V30 545 C 49.0193 -0.61089 3.3965 0
M  V30 546 C 48.1323 0.280792 4.31086 0
M  V30 547 C 47.2673 -0.567067 5.28165 0
M  V30 548 C 46.3063 0.324531 6.11239 0
M  V30 549 N 45.4433 -0.483756 7.00431 0
M  V30 550 H 50.2833 1.04153 2.79206 0
M  V30 551 H 47.8203 0.525133 1.37407 0
M  V30 552 H 49.7783 -1.11263 4.0209 0
M  V30 553 H 48.4083 -1.38939 2.91369 0
M  V30 554 H 47.4603 0.900688 3.69583 0
M  V30 555 H 48.7723 0.966723 4.89342 0
M  V30 556 H 47.9263 -1.13363 5.96015 0
M  V30 557 H 46.6653 -1.28654 4.70425 0
M  V30 558 H 45.6703 0.903298 5.42329 0
M  V30 559 H 46.8953 1.04198 6.71059 0
M  V30 560 H 44.8413 -1.18706 6.45171 0
M  V30 561 H 44.7583 0.143965 7.55863 0
M  V30 562 H 46.0263 -1.03334 7.7262 0
M  V30 563 N 50.2554 -1.46986 0.568584 0
M  V30 564 C 51.2024 -2.30153 -0.172707 0
M  V30 565 C 52.1724 -1.39759 -0.897586 0
M  V30 566 O 53.3574 -1.68716 -0.891044 0
M  V30 567 C 50.4974 -3.23952 -1.1895 0
M  V30 568 C 49.6104 -4.29441 -0.469517 0
M  V30 569 C 48.7454 -5.1038 -1.47259 0
M  V30 570 C 47.7844 -6.07632 -0.738225 0
M  V30 571 N 46.9214 -6.8149 -1.68868 0
M  V30 572 H 51.7614 -2.93019 0.542596 0
M  V30 573 H 49.2984 -1.44422 0.279401 0
M  V30 574 H 51.2564 -3.76767 -1.79173 0
M  V30 575 H 49.8864 -2.62926 -1.87269 0
M  V30 576 H 48.9384 -3.79594 0.247467 0
M  V30 577 H 50.2504 -4.98689 0.105241 0
M  V30 578 H 49.4044 -5.67402 -2.14803 0
M  V30 579 H 48.1434 -4.4106 -2.08128 0
M  V30 580 H 47.1484 -5.49778 -0.0489293 0
M  V30 581 H 48.3734 -6.78966 -0.135129 0
M  V30 582 H 46.3194 -6.14891 -2.28573 0
M  V30 583 H 46.2364 -7.46948 -1.16636 0
M  V30 584 H 47.5044 -7.43078 -2.3549 0
M  V30 585 N 51.7335 -0.305618 -1.54608 0
M  V30 586 C 52.9585 0.307562 -2.05107 0
M  V30 587 C 53.3835 1.46385 -1.18123 0
M  V30 588 O 52.7415 1.8034 -0.186324 0
M  V30 589 C 52.7895 0.73704 -3.52987 0
M  V30 590 O 51.8935 1.84134 -3.6901 0
M  V30 591 H 51.2345 0.0589143 -0.661381 0
M  V30 592 H 53.7645 -0.448807 -1.99617 0
M  V30 593 H 53.7745 1.02459 -3.94925 0
M  V30 594 H 52.4495 -0.108773 -4.15758 0
M  V30 595 H 51.0265 1.55398 -3.38978 0
M  V30 596 N 53.2116 1.57565 -0.0334293 0
M  V30 597 C 54.4596 1.91598 0.642999 0
M  V30 598 C 54.7806 0.910847 1.7242 0
M  V30 599 O 54.0506 -0.0469931 1.95844 0
M  V30 600 H 52.6306 0.707228 0.240496 0
M  V30 601 H 55.2926 1.94726 -0.0822488 0
M  V30 602 H 54.3886 2.92336 1.09298 0
M  V30 603 N 54.6897 -0.239769 1.55765 0
M  V30 604 C 55.6367 -1.29696 1.90913 0
M  V30 605 C 56.6067 -1.47478 0.764164 0
M  V30 606 O 57.7917 -1.61345 1.01845 0
M  V30 607 C 54.9317 -2.64598 2.21544 0
M  V30 608 C 54.0447 -2.54765 3.48882 0
M  V30 609 C 53.1797 -3.82069 3.69049 0
M  V30 610 C 52.2187 -3.66883 4.89963 0
M  V30 611 N 51.3557 -4.86094 5.06614 0
M  V30 612 H 56.1957 -0.990224 2.81067 0
M  V30 613 H 53.7327 -0.477684 1.39128 0
M  V30 614 H 55.6907 -3.43132 2.3731 0
M  V30 615 H 54.3207 -2.93405 1.34585 0
M  V30 616 H 53.3727 -1.67763 3.41409 0
M  V30 617 H 54.6847 -2.39457 4.37563 0
M  V30 618 H 53.8387 -4.69046 3.84812 0
M  V30 619 H 52.5777 -4.00282 2.78614 0
M  V30 620 H 51.5827 -2.78289 4.74168 0
M  V30 621 H 52.8077 -3.50157 5.81865 0
M  V30 622 H 50.7537 -5.04655 4.19117 0
M  V30 623 H 50.6707 -4.73443 5.89396 0
M  V30 624 H 51.9387 -5.74549 5.26795 0
M  V30 625 N 56.1678 -1.49265 -0.50573 0
M  V30 626 C 57.0778 -1.68312 -1.63427 0
M  V30 627 C 58.0938 -0.565682 -1.64548 0
M  V30 628 O 59.2698 -0.839801 -1.83055 0
M  V30 629 C 56.3348 -1.74107 -2.99813 0
M  V30 630 C 55.3958 -2.97653 -3.09356 0
M  V30 631 C 54.6288 -3.03163 -4.39236 0
M  V30 632 O 54.8518 -2.16396 -5.27758 0
M  V30 633 O 53.7858 -3.9558 -4.53652 0
M  V30 634 H 57.6118 -2.63907 -1.50289 0
M  V30 635 H 55.1968 -1.32951 -0.681502 0
M  V30 636 H 57.0788 -1.803 -3.80881 0
M  V30 637 H 55.7538 -0.816901 -3.13223 0
M  V30 638 H 54.6608 -2.96981 -2.27493 0
M  V30 639 H 55.9938 -3.89535 -3.00871 0
M  V30 640 N 57.6459 0.756429 -1.3826 0
M  V30 641 C 58.5559 1.9009 -1.37488 0
M  V30 642 C 59.5719 1.71855 -0.272366 0
M  V30 643 O 60.7479 1.94827 -0.510318 0
M  V30 644 C 57.8129 3.25421 -1.19592 0
M  V30 645 C 56.8739 3.56202 -2.39622 0
M  V30 646 C 56.1069 4.85075 -2.2257 0
M  V30 647 O 56.3299 5.57246 -1.21793 0
M  V30 648 O 55.2639 5.15269 -3.11098 0
M  V30 649 H 59.0899 1.93695 -2.33914 0
M  V30 650 H 56.6749 0.901313 -1.1915 0
M  V30 651 H 58.5569 4.06337 -1.11661 0
M  V30 652 H 57.2319 3.22634 -0.262486 0
M  V30 653 H 56.1389 2.75458 -2.53128 0
M  V30 654 H 57.4719 3.63747 -3.31586 0
M  V30 655 N 59.124 1.23083 0.984299 0
M  V30 656 C 60.087 1.00979 2.05757 0
M  V30 657 C 61.087 -0.0269573 1.60777 0
M  V30 658 O 62.277 0.212403 1.729 0
M  V30 659 C 59.409 0.527072 3.36801 0
M  V30 660 H 60.602 1.9622 2.26799 0
M  V30 661 H 58.155 1.05072 1.15714 0
M  V30 662 H 58.89 -0.429294 3.21446 0
M  V30 663 H 58.675 1.27515 3.70786 0
M  V30 664 H 60.165 0.392942 4.15747 0
M  V30 665 N 60.6021 -1.18246 1.0419 0
M  V30 666 C 61.5491 -2.2192 0.634037 0
M  V30 667 C 62.5191 -1.62179 -0.358765 0
M  V30 668 O 63.7041 -1.89122 -0.252466 0
M  V30 669 C 60.8441 -3.451 0.00445535 0
M  V30 670 C 59.9571 -4.19174 1.04487 0
M  V30 671 C 59.0921 -5.29813 0.383676 0
M  V30 672 C 58.1311 -5.9566 1.4091 0
M  V30 673 N 57.2681 -6.97834 0.772784 0
M  V30 674 H 62.1081 -2.56164 1.52263 0
M  V30 675 H 59.6451 -1.25843 0.761701 0
M  V30 676 H 61.6031 -4.15485 -0.377919 0
M  V30 677 H 60.2331 -3.11472 -0.847652 0
M  V30 678 H 59.2851 -3.47604 1.54518 0
M  V30 679 H 60.5971 -4.64267 1.82368 0
M  V30 680 H 59.7511 -6.06677 -0.0528366 0
M  V30 681 H 58.4901 -4.85825 -0.427208 0
M  V30 682 H 57.4951 -5.17535 1.85574 0
M  V30 683 H 58.7201 -6.4173 2.22171 0
M  V30 684 H 56.6661 -6.55998 -0.0177708 0
M  V30 685 H 56.5831 -7.41186 1.48928 0
M  V30 686 H 57.8511 -7.78665 0.36071 0
M  V30 687 N 62.0802 -0.821533 -1.34494 0
M  V30 688 C 63.0102 -0.257138 -2.3208 0
M  V30 689 C 63.9912 0.625645 -1.58176 0
M  V30 690 O 65.1762 0.552811 -1.86166 0
M  V30 691 C 62.3062 0.582958 -3.42372 0
M  V30 692 C 61.2602 -0.202571 -4.2752 0
M  V30 693 C 60.5862 0.760179 -5.29269 0
M  V30 694 C 61.8862 -1.40998 -5.02908 0
M  V30 695 H 63.5802 -1.07247 -2.79532 0
M  V30 696 H 61.1262 -0.517163 -1.34393 0
M  V30 697 H 63.0792 0.987972 -4.09655 0
M  V30 698 H 61.8032 1.43133 -2.93565 0
M  V30 699 H 60.4622 -0.588936 -3.61838 0
M  V30 700 H 60.1102 1.60447 -4.76724 0
M  V30 701 H 59.8102 0.238809 -5.87115 0
M  V30 702 H 61.3342 1.16308 -5.9942 0
M  V30 703 H 62.7482 -1.07905 -5.63054 0
M  V30 704 H 61.1452 -1.86689 -5.70322 0
M  V30 705 H 62.2152 -2.1889 -4.32684 0
M  V30 706 N 63.5583 1.46682 -0.576371 0
M  V30 707 C 64.7863 2.06798 -0.0649635 0
M  V30 708 C 65.2013 1.42612 1.23723 0
M  V30 709 O 64.5583 0.529203 1.74659 0
M  V30 710 C 64.6093 3.6132 0.114202 0
M  V30 711 O 64.3303 4.23104 -1.13644 0
M  V30 712 C 65.8313 4.38349 0.66069 0
M  V30 713 H 63.0513 0.668778 -0.0545616 0
M  V30 714 H 65.5953 1.88404 -0.795237 0
M  V30 715 H 63.7503 3.79162 0.794673 0
M  V30 716 H 64.1643 5.15894 -0.946253 0
M  V30 717 H 65.6383 5.47081 0.73526 0
M  V30 718 H 66.1153 4.05953 1.67627 0
M  V30 719 H 66.7213 4.25297 0.0152951 0
M  V30 720 N 65.0364 0.313813 1.54444 0
M  V30 721 C 66.2844 -0.291099 1.99993 0
M  V30 722 C 66.6054 -1.53418 1.20366 0
M  V30 723 O 65.8754 -1.93544 0.302927 0
M  V30 724 H 64.4554 -0.110552 0.738774 0
M  V30 725 H 67.1174 0.428106 1.9014 0
M  V30 726 H 66.2134 -0.554268 3.07139 0
M  V30 727 N 66.5145 -1.57545 0.0417849 0
M  V30 728 C 67.4615 -2.10977 -0.935805 0
M  V30 729 C 68.4315 -1.01486 -1.31491 0
M  V30 730 O 69.6165 -1.2898 -1.40602 0
M  V30 731 C 66.7565 -2.65169 -2.2086 0
M  V30 732 C 65.8695 -3.88714 -1.88482 0
M  V30 733 C 65.0045 -4.31254 -3.1015 0
M  V30 734 C 64.0435 -5.47524 -2.7365 0
M  V30 735 N 63.1805 -5.85162 -3.87982 0
M  V30 736 H 68.0205 -2.94218 -0.473249 0
M  V30 737 H 65.5575 -1.45415 -0.221981 0
M  V30 738 H 67.5155 -2.94685 -2.95325 0
M  V30 739 H 66.1455 -1.8474 -2.64709 0
M  V30 740 H 65.1975 -3.65849 -1.04205 0
M  V30 741 H 66.5095 -4.73245 -1.57608 0
M  V30 742 H 65.6635 -4.62273 -3.92923 0
M  V30 743 H 64.4025 -3.45516 -3.44195 0
M  V30 744 H 63.4075 -5.16187 -1.89291 0
M  V30 745 H 64.6325 -6.34971 -2.40807 0
M  V30 746 H 62.5785 -5.02377 -4.21846 0
M  V30 747 H 62.4955 -6.64362 -3.60775 0
M  V30 748 H 63.7635 -6.20791 -4.71422 0
M  V30 749 N 67.9926 0.231505 -1.5589 0
M  V30 750 C 68.9406 1.30649 -1.92441 0
M  V30 751 C 69.9346 1.49037 -0.805254 0
M  V30 752 O 71.1406 1.50329 -0.990007 0
M  V30 753 H 67.5156 0.437812 -0.611412 0
M  V30 754 H 69.4866 0.970973 -2.82161 0
M  V30 755 C 68.2356 2.65179 -2.24889 0
M  V30 756 H 67.5586 2.51835 -3.10514 0
M  V30 757 H 68.9986 3.39234 -2.54355 0
M  V30 758 C 67.4576 3.19439 -1.07054 0
M  V30 759 O 67.9876 4.00371 -0.326499 0
M  V30 760 N 66.1936 2.77675 -0.85703 0
M  V30 761 H 65.7406 2.11969 -1.46379 0
M  V30 762 H 65.6986 3.14321 -0.0703223 0
M  V30 763 N 69.4707 1.49531 0.497807 0
M  V30 764 C 70.7197 1.58426 1.24837 0
M  V30 765 C 71.0327 0.277643 1.93619 0
M  V30 766 O 72.2387 0.24517 2.70391 0
M  V30 767 C 70.6947 2.79538 2.26686 0
M  V30 768 C 70.3027 4.16971 1.63828 0
M  V30 769 C 72.0467 2.97764 3.0255 0
M  V30 770 C 69.9537 5.29301 2.63807 0
M  V30 771 H 68.8837 0.58989 0.469623 0
M  V30 772 H 71.5347 1.75923 0.521857 0
M  V30 773 H 69.9167 2.55542 3.02514 0
M  V30 774 H 71.0907 4.51116 0.939711 0
M  V30 775 H 69.4057 4.04129 1.00342 0
M  V30 776 H 72.0027 3.78856 3.77323 0
M  V30 777 H 72.3457 2.08448 3.60354 0
M  V30 778 H 72.8787 3.21815 2.33838 0
M  V30 779 H 69.6177 6.20687 2.10779 0
M  V30 780 H 69.1377 4.99606 3.31894 0
M  V30 781 H 70.8167 5.58768 3.2617 0
M  V30 782 N 70.9488 -0.749086 1.3866 0
M  V30 783 C 71.9118 -1.84457 1.36045 0
M  V30 784 C 72.9118 -1.58682 0.260122 0
M  V30 785 O 74.1018 -1.66343 0.517261 0
M  V30 786 C 71.2338 -3.22008 1.11911 0
M  V30 787 H 72.4268 -1.88182 2.33512 0
M  V30 788 H 69.9798 -0.951266 1.24019 0
M  V30 789 H 70.7148 -3.2395 0.150686 0
M  V30 790 H 70.4998 -3.42111 1.91579 0
M  V30 791 H 71.9898 -4.0208 1.12788 0
M  V30 792 N 72.4269 -1.23603 -0.977757 0
M  V30 793 C 73.3569 -1.04401 -2.0886 0
M  V30 794 C 74.3379 0.0399052 -1.70053 0
M  V30 795 O 75.5229 -0.125246 -1.93796 0
M  V30 796 C 72.6529 -0.637269 -3.41403 0
M  V30 797 C 71.6069 -1.66883 -3.94124 0
M  V30 798 C 70.9329 -1.11745 -5.22893 0
M  V30 799 C 72.2329 -3.06247 -4.23096 0
M  V30 800 H 73.9269 -1.97316 -2.25182 0
M  V30 801 H 71.4729 -0.950096 -1.08209 0
M  V30 802 H 73.4259 -0.48998 -4.18542 0
M  V30 803 H 72.1499 0.327557 -3.24953 0
M  V30 804 H 70.8089 -1.80416 -3.19133 0
M  V30 805 H 70.4569 -0.143527 -5.02795 0
M  V30 806 H 70.1569 -1.80672 -5.59134 0
M  V30 807 H 71.6809 -0.982067 -6.02651 0
M  V30 808 H 73.0949 -2.96001 -4.90975 0
M  V30 809 H 71.4919 -3.72436 -4.70544 0
M  V30 810 H 72.5619 -3.55041 -3.30263 0
M  V30 811 N 73.905 1.17692 -1.04816 0
M  V30 812 C 75.154 1.87192 -0.751132 0
M  V30 813 C 75.467 1.8169 0.724441 0
M  V30 814 O 76.673 2.46625 1.13527 0
M  V30 815 C 75.129 3.35857 -1.29338 0
M  V30 816 C 74.737 3.4987 -2.79812 0
M  V30 817 C 76.481 4.10709 -1.07322 0
M  V30 818 C 74.388 4.92536 -3.27356 0
M  V30 819 H 73.318 0.701162 -0.277288 0
M  V30 820 H 75.969 1.32932 -1.26496 0
M  V30 821 H 74.351 3.89631 -0.707376 0
M  V30 822 H 75.525 3.06332 -3.44235 0
M  V30 823 H 73.84 2.88433 -3.00325 0
M  V30 824 H 76.437 5.15952 -1.4035 0
M  V30 825 H 76.78 4.16299 -0.0108001 0
M  V30 826 H 77.313 3.6313 -1.62423 0
M  V30 827 H 74.052 4.92119 -4.33012 0
M  V30 828 H 73.572 5.3676 -2.67673 0
M  V30 829 H 75.251 5.61288 -3.21815 0
M  V30 830 N 75.3831 0.828654 1.34056 0
M  V30 831 C 76.6301 0.419458 1.98108 0
M  V30 832 C 76.9581 -1.01886 1.65679 0
M  V30 833 O 76.2131 -1.72539 0.923512 0
M  V30 834 C 76.5121 0.575226 3.52741 0
M  V30 835 C 76.1781 1.98012 4.05095 0
M  V30 836 C 74.8401 2.36442 4.19104 0
M  V30 837 C 77.1921 2.89824 4.33188 0
M  V30 838 C 74.5201 3.66009 4.58535 0
M  V30 839 C 76.8721 4.1886 4.74066 0
M  V30 840 C 75.5361 4.5726 4.86281 0
M  V30 841 H 74.8061 0.153491 0.724929 0
M  V30 842 H 77.4531 1.05371 1.59904 0
M  V30 843 H 75.7581 -0.142385 3.91541 0
M  V30 844 H 77.4551 0.239057 4.00287 0
M  V30 845 H 74.0451 1.67162 3.94658 0
M  V30 846 H 78.2291 2.61375 4.21897 0
M  V30 847 H 73.4851 3.95579 4.66184 0
M  V30 848 H 77.6591 4.90086 4.94761 0
M  V30 849 H 75.2861 5.57707 5.16592 0
M  V30 850 N 76.8612 -1.46375 0.584142 0
M  V30 851 C 77.7712 -2.34115 -0.150728 0
M  V30 852 C 78.7872 -1.49838 -0.884567 0
M  V30 853 O 79.9632 -1.82704 -0.847429 0
M  V30 854 C 77.0282 -3.2705 -1.15062 0
M  V30 855 C 76.0892 -4.27228 -0.421293 0
M  V30 856 C 75.3222 -5.15722 -1.37355 0
M  V30 857 O 75.5452 -5.07176 -2.61014 0
M  V30 858 O 74.4792 -5.95383 -0.883355 0
M  V30 859 H 78.3052 -2.98309 0.569708 0
M  V30 860 H 75.8902 -1.45373 0.344535 0
M  V30 861 H 77.7722 -3.84381 -1.72712 0
M  V30 862 H 76.4472 -2.65451 -1.8525 0
M  V30 863 H 75.3542 -3.7358 0.197085 0
M  V30 864 H 76.6872 -4.91616 0.239641 0
M  V30 865 N 78.3393 -0.321999 -1.54275 0
M  V30 866 C 79.2863 0.544664 -2.24281 0
M  V30 867 C 80.2563 1.1129 -1.23303 0
M  V30 868 O 81.4413 1.15354 -1.51981 0
M  V30 869 C 78.5813 1.70045 -3.00298 0
M  V30 870 C 77.6943 1.16159 -4.1609 0
M  V30 871 C 76.8293 2.28293 -4.79641 0
M  V30 872 C 75.8683 1.71648 -5.8754 0
M  V30 873 N 75.0053 2.77438 -6.44959 0
M  V30 874 H 79.8453 -0.0588907 -2.97942 0
M  V30 875 H 77.3823 -0.0408345 -1.47043 0
M  V30 876 H 79.3403 2.38054 -3.42616 0
M  V30 877 H 77.9703 2.27531 -2.28975 0
M  V30 878 H 77.0223 0.373092 -3.78566 0
M  V30 879 H 78.3343 0.707087 -4.93763 0
M  V30 880 H 77.4883 3.0421 -5.2492 0
M  V30 881 H 76.2273 2.77079 -4.01346 0
M  V30 882 H 75.2323 0.942282 -5.41665 0
M  V30 883 H 76.4573 1.23741 -6.67731 0
M  V30 884 H 74.4033 3.25519 -5.69538 0
M  V30 885 H 74.3203 2.36547 -7.1804 0
M  V30 886 H 75.5883 3.53189 -6.94894 0
M  V30 887 N 79.8174 1.5752 -0.0501392 0
M  V30 888 C 81.0944 1.83996 0.663685 0
M  V30 889 C 81.4744 0.938339 1.89099 0
M  V30 890 O 80.8224 -0.00087759 2.285 0
M  V30 891 C 81.0324 3.33702 1.02196 0
M  V30 892 C 82.3804 4.00691 1.40469 0
M  V30 893 O 83.4044 3.38321 1.11433 0
M  V30 894 O 82.2634 5.10658 1.94654 0
M  V30 895 H 79.3574 0.759385 0.32751 0
M  V30 896 H 81.9034 1.69514 -0.0794238 0
M  V30 897 H 80.6754 3.91015 0.149364 0
M  V30 898 H 80.2984 3.53368 1.82255 0
M  V30 899 N 81.2955 -0.223234 1.56011 0
M  V30 900 C 82.5205 -0.968978 1.83373 0
M  V30 901 C 82.9455 -1.77227 0.630254 0
M  V30 902 O 82.3035 -1.76345 -0.420959 0
M  V30 903 C 82.3515 -1.86363 3.08709 0
M  V30 904 O 81.4555 -2.95873 2.87285 0
M  V30 905 H 80.7965 -0.274461 0.604622 0
M  V30 906 H 83.3265 -0.237056 2.03222 0
M  V30 907 H 83.3365 -2.27376 3.38768 0
M  V30 908 H 82.0115 -1.27319 3.95933 0
M  V30 909 H 80.5885 -2.58818 2.68454 0
M  V30 910 N 82.7736 -1.49793 -0.48987 0
M  V30 911 C 84.0016 -1.63568 -1.26701 0
M  V30 912 C 84.4166 -0.311465 -1.86213 0
M  V30 913 O 83.7736 0.704416 -1.68357 0
M  V30 914 C 83.8246 -2.71284 -2.38929 0
M  V30 915 O 83.5456 -3.9857 -1.81861 0
M  V30 916 C 85.0466 -2.95864 -3.3012 0
M  V30 917 H 82.2666 -0.550342 -0.383881 0
M  V30 918 H 84.8106 -1.95898 -0.586864 0
M  V30 919 H 82.9656 -2.417 -3.02753 0
M  V30 920 H 83.3796 -4.57993 -2.55622 0
M  V30 921 H 84.8536 -3.74941 -4.05121 0
M  V30 922 H 85.3306 -2.06206 -3.87783 0
M  V30 923 H 85.9366 -3.26907 -2.72051 0
M  V30 924 N 84.2517 0.741722 -1.39055 0
M  V30 925 C 85.6677 1.04638 -1.20512 0
M  V30 926 C 85.8677 2.01405 -0.0620218 0
M  V30 927 O 84.9237 2.45547 0.588457 0
M  V30 928 C 86.2367 1.6151 -2.53643 0
M  V30 929 C 87.7847 1.73623 -2.6043 0
M  V30 930 C 88.2597 2.33906 -3.93767 0
M  V30 931 N 89.7507 2.41323 -3.9537 0
M  V30 932 C 90.4857 2.88888 -4.95309 0
M  V30 933 N 89.9817 3.36401 -6.05645 0
M  V30 934 N 91.7747 2.88037 -4.82692 0
M  V30 935 H 83.9257 0.0998155 -2.12165 0
M  V30 936 H 86.1887 0.106907 -0.941953 0
M  V30 937 H 85.8947 0.978739 -3.37807 0
M  V30 938 H 85.7687 2.60411 -2.72885 0
M  V30 939 H 88.1557 2.36384 -1.76655 0
M  V30 940 H 88.2367 0.733945 -2.45045 0
M  V30 941 H 87.8807 1.71776 -4.7797 0
M  V30 942 H 87.8107 3.34799 -4.06469 0
M  V30 943 H 90.3017 2.07734 -3.15682 0
M  V30 944 H 90.6147 3.71186 -6.77821 0
M  V30 945 H 88.9597 3.34427 -6.09248 0
M  V30 946 H 92.1507 2.50237 -3.95599 0
M  V30 947 H 92.3237 3.24792 -5.60726 0
M  V30 948 N 85.7298 1.2412 0.971189 0
M  V30 949 C 86.9578 1.10575 1.74874 0
M  V30 950 C 87.3728 -0.342017 1.85676 0
M  V30 951 O 86.7298 -1.23617 1.34258 0
M  V30 952 C 86.7808 1.73579 3.171 0
M  V30 953 O 86.5018 3.12695 3.06844 0
M  V30 954 C 88.0028 1.65598 4.11208 0
M  V30 955 H 85.2228 0.386504 0.548503 0
M  V30 956 H 87.7668 1.64156 1.21955 0
M  V30 957 H 85.9218 1.24009 3.67016 0
M  V30 958 H 86.3358 3.43412 3.96445 0
M  V30 959 H 87.8098 2.1437 5.08674 0
M  V30 960 H 88.2868 0.616532 4.34851 0
M  V30 961 H 88.8928 2.14578 3.67201 0
M  V30 962 N 87.2079 -1.17134 1.05439 0
M  V30 963 C 88.6239 -1.39454 0.776201 0
M  V30 964 C 88.8239 -1.91454 -0.628307 0
M  V30 965 O 87.8799 -2.10777 -1.39031 0
M  V30 966 C 89.1929 -2.38305 1.83388 0
M  V30 967 C 90.7409 -2.52006 1.85639 0
M  V30 968 C 91.2159 -3.54133 2.90437 0
M  V30 969 N 92.7069 -3.61653 2.89415 0
M  V30 970 C 93.4419 -4.4044 3.67152 0
M  V30 971 N 92.9379 -5.22721 4.54681 0
M  V30 972 N 94.7309 -4.35337 3.55581 0
M  V30 973 H 86.8819 -0.817134 1.96053 0
M  V30 974 H 89.1449 -0.421626 0.849079 0
M  V30 975 H 88.8509 -2.07173 2.84204 0
M  V30 976 H 88.7249 -3.37841 1.67761 0
M  V30 977 H 91.1119 -2.82447 0.85486 0
M  V30 978 H 91.1929 -1.52537 2.05344 0
M  V30 979 H 90.8369 -3.24431 3.90777 0
M  V30 980 H 90.7669 -4.53313 2.67983 0
M  V30 981 H 93.2579 -3.02909 2.25952 0
M  V30 982 H 93.5709 -5.80027 5.10674 0
M  V30 983 H 91.9159 -5.22093 4.58741 0
M  V30 984 H 95.1069 -3.70112 2.86592 0
M  V30 985 H 95.2799 -4.96494 4.1641 0
M  V30 986 N 88.686 -0.835752 -1.33615 0
M  V30 987 C 89.926 -0.43599 -1.99696 0
M  V30 988 C 90.29 0.98557 -1.64774 0
M  V30 989 O 91.491 1.48889 -2.23798 0
M  V30 990 C 89.762 -0.646721 -3.515 0
M  V30 991 S 91.321 -0.341715 -4.37467 0
M  V30 992 H 88.139 -0.164136 -0.691795 0
M  V30 993 H 90.741 -1.08436 -1.62671 0
M  V30 994 H 89.445 -1.68077 -3.74404 0
M  V30 995 H 88.976 0.0159173 -3.93397 0
M  V30 996 H 90.991 0.839708 -4.89043 0
M  V30 997 N 90.1641 1.46063 -0.591896 0
M  V30 998 C 91.3891 2.07226 -0.0850314 0
M  V30 999 C 91.8141 1.43625 1.21463 0
M  V30 1000 O 91.1721 0.523305 1.73583 0
M  V30 1001 C 91.2201 3.60554 0.0576567 0
M  V30 1002 O 90.3241 3.97128 1.11188 0
M  V30 1003 H 89.6651 0.660615 -0.0669568 0
M  V30 1004 H 92.1951 1.8756 -0.81745 0
M  V30 1005 H 92.2051 4.07165 0.2609 0
M  V30 1006 H 90.8801 4.06235 -0.891416 0
M  V30 1007 H 89.4571 3.62213 0.886356 0
M  V30 1008 N 91.6422 0.330177 1.54103 0
M  V30 1009 C 92.8892 -0.270405 2.00686 0
M  V30 1010 C 93.2172 -1.51621 1.21825 0
M  V30 1011 O 92.4722 -1.93536 0.29025 0
M  V30 1012 C 92.7712 -0.643134 3.51566 0
M  V30 1013 C 92.4372 0.504251 4.48072 0
M  V30 1014 C 91.0992 0.819163 4.74176 0
M  V30 1015 C 93.4512 1.27465 5.05373 0
M  V30 1016 C 90.7792 1.90708 5.5484 0
M  V30 1017 C 93.1312 2.35271 5.87223 0
M  V30 1018 C 91.7952 2.67336 6.11627 0
M  V30 1019 H 91.0652 -0.0989482 0.734364 0
M  V30 1020 H 93.7122 0.455324 1.86008 0
M  V30 1021 H 92.0172 -1.44938 3.64006 0
M  V30 1022 H 93.7142 -1.11949 3.85056 0
M  V30 1023 H 90.3042 0.248733 4.27878 0
M  V30 1024 H 94.4882 1.04462 4.85182 0
M  V30 1025 H 89.7442 2.15991 5.71977 0
M  V30 1026 H 93.9182 2.95405 6.30641 0
M  V30 1027 H 91.5452 3.51763 6.73919 0
M  V30 1028 N 93.1203 -1.57491 0.0584922 0
M  V30 1029 C 94.0303 -2.15448 -0.928414 0
M  V30 1030 C 95.0463 -1.11416 -1.3365 0
M  V30 1031 O 96.2223 -1.4362 -1.41193 0
M  V30 1032 C 93.2873 -2.69393 -2.18239 0
M  V30 1033 C 92.3483 -3.88249 -1.83196 0
M  V30 1034 C 91.5813 -4.39613 -3.02616 0
M  V30 1035 O 91.8043 -3.90023 -4.16219 0
M  V30 1036 O 90.7383 -5.31111 -2.83204 0
M  V30 1037 H 94.5643 -3.00112 -0.465483 0
M  V30 1038 H 92.1493 -1.48499 -0.163826 0
M  V30 1039 H 94.0313 -3.04026 -2.91798 0
M  V30 1040 H 92.7063 -1.87796 -2.63656 0
M  V30 1041 H 91.6133 -3.58492 -1.06931 0
M  V30 1042 H 92.9463 -4.71098 -1.42573 0
M  V30 1043 N 94.5984 0.214957 -1.56127 0
M  V30 1044 C 95.8444 0.939762 -1.79712 0
M  V30 1045 C 96.1774 1.83723 -0.629247 0
M  V30 1046 O 95.4524 1.90925 0.371197 0
M  V30 1047 C 95.7354 1.77306 -3.13424 0
M  V30 1048 C 95.5884 0.90164 -4.40671 0
M  V30 1049 C 96.9074 2.74956 -3.43638 0
M  V30 1050 H 94.0264 0.340214 -0.653776 0
M  V30 1051 H 96.6684 0.20824 -1.88855 0
M  V30 1052 H 94.8184 2.39673 -3.0576 0
M  V30 1053 H 96.4904 0.294206 -4.60361 0
M  V30 1054 H 94.7334 0.207368 -4.33304 0
M  V30 1055 H 95.4044 1.51923 -5.30682 0
M  V30 1056 H 97.8804 2.22724 -3.51473 0
M  V30 1057 H 96.7564 3.30358 -4.38355 0
M  V30 1058 H 97.0174 3.53023 -2.66134 0
M  V30 1059 N 96.0765 1.50051 0.48192 0
M  V30 1060 C 97.0395 1.67584 1.5636 0
M  V30 1061 C 98.0395 0.546894 1.51214 0
M  V30 1062 O 99.2295 0.813725 1.54026 0
M  V30 1063 C 96.3615 1.691 2.96003 0
M  V30 1064 H 97.5545 2.64078 1.42136 0
M  V30 1065 H 95.1075 1.39369 0.707533 0
M  V30 1066 H 95.8425 0.742589 3.15684 0
M  V30 1067 H 95.6275 2.51105 3.01146 0
M  V30 1068 H 97.1175 1.84656 3.74556 0
M  V30 1069 N 97.5546 -0.734337 1.39446 0
M  V30 1070 C 98.5176 -1.83004 1.37994 0
M  V30 1071 C 99.5176 -1.58397 0.276938 0
M  V30 1072 O 100.708 -1.65785 0.534875 0
M  V30 1073 C 97.8396 -3.20802 1.1532 0
M  V30 1074 H 99.0326 -1.85694 2.35494 0
M  V30 1075 H 96.5856 -0.938059 1.25021 0
M  V30 1076 H 97.3206 -3.23772 0.185036 0
M  V30 1077 H 97.1056 -3.4006 1.95197 0
M  V30 1078 H 98.5956 -4.00862 1.17046 0
M  V30 1079 N 99.0327 -1.24633 -0.964593 0
M  V30 1080 C 100.263 -1.11339 -1.74032 0
M  V30 1081 C 100.671 0.336593 -1.86182 0
M  V30 1082 O 100.014 1.24389 -1.35178 0
M  V30 1083 C 100.076 -1.68284 -3.1768 0
M  V30 1084 C 99.7397 -3.17196 -3.28992 0
M  V30 1085 C 100.737 -4.14308 -3.14078 0
M  V30 1086 C 98.4217 -3.57215 -3.53133 0
M  V30 1087 C 100.416 -5.4942 -3.23135 0
M  V30 1088 C 98.1027 -4.92468 -3.61827 0
M  V30 1089 C 99.1007 -5.8838 -3.46841 0
M  V30 1090 O 98.7887 -7.21173 -3.55197 0
M  V30 1091 H 98.5207 -0.389551 -0.552472 0
M  V30 1092 H 101.075 -1.65282 -1.21946 0
M  V30 1093 H 99.3047 -1.08777 -3.71085 0
M  V30 1094 H 100.994 -1.50234 -3.77074 0
M  V30 1095 H 101.76 -3.84731 -2.95308 0
M  V30 1096 H 97.6387 -2.83063 -3.63863 0
M  V30 1097 H 101.183 -6.24263 -3.11355 0
M  V30 1098 H 97.0797 -5.21714 -3.80111 0
M  V30 1099 H 97.8477 -7.29135 -3.71892 0
M  V30 1100 N 100.511 1.16574 -1.06058 0
M  V30 1101 C 101.788 1.83048 -0.689416 0
M  V30 1102 C 102.168 1.94122 0.829443 0
M  V30 1103 O 101.516 1.48249 1.7388 0
M  V30 1104 C 101.726 3.20186 -1.38859 0
M  V30 1105 C 103.074 3.95989 -1.53226 0
M  V30 1106 O 104.098 3.29696 -1.3483 0
M  V30 1107 O 102.957 5.14813 -1.83384 0
M  V30 1108 H 100.051 0.790258 -0.243764 0
M  V30 1109 H 102.597 1.23797 -1.16071 0
M  V30 1110 H 101.369 3.07146 -2.4244 0
M  V30 1111 H 100.992 3.87112 -0.907216 0
M  V30 1112 N 101.989 0.842826 1.3317 0
M  V30 1113 C 102.921 0.236245 2.27979 0
M  V30 1114 C 103.934 -0.585282 1.51915 0
M  V30 1115 O 105.123 -0.411705 1.73687 0
M  V30 1116 C 102.223 -0.685717 3.3189 0
M  V30 1117 C 101.396 0.0973448 4.37292 0
M  V30 1118 C 100.455 -0.748565 5.20848 0
M  V30 1119 O 99.4809 -0.186339 5.68895 0
M  V30 1120 N 100.683 -2.06527 5.42519 0
M  V30 1121 H 103.448 1.05088 2.80672 0
M  V30 1122 H 101.009 0.701667 1.45905 0
M  V30 1123 H 103.001 -1.25669 3.84694 0
M  V30 1124 H 101.571 -1.40105 2.79445 0
M  V30 1125 H 100.791 0.849706 3.84933 0
M  V30 1126 H 102.079 0.635643 5.04814 0
M  V30 1127 H 101.477 -2.54554 5.05192 0
M  V30 1128 H 100.034 -2.58464 5.98364 0
M  V30 1129 N 103.467 -1.45747 0.599634 0
M  V30 1130 C 104.715 -2.01893 0.0915472 0
M  V30 1131 C 105.036 -1.47155 -1.27946 0
M  V30 1132 O 104.306 -0.66273 -1.84349 0
M  V30 1133 H 102.886 -0.746363 0.0308524 0
M  V30 1134 H 105.548 -1.78645 0.779237 0
M  V30 1135 H 104.644 -3.1208 0.0353086 0
M  V30 1136 N 104.945 -0.338344 -1.53925 0
M  V30 1137 C 105.908 0.508299 -2.23493 0
M  V30 1138 C 106.908 1.03175 -1.23335 0
M  V30 1139 O 108.098 0.921826 -1.47811 0
M  V30 1140 C 105.23 1.70754 -2.95052 0
M  V30 1141 H 106.423 -0.100058 -2.99733 0
M  V30 1142 H 103.976 -0.0896198 -1.56043 0
M  V30 1143 H 104.711 2.35474 -2.22986 0
M  V30 1144 H 104.496 1.33946 -3.68512 0
M  V30 1145 H 105.986 2.30818 -3.48013 0
M  V30 1146 N 106.423 1.57458 -0.0668435 0
M  V30 1147 C 107.839 1.56947 0.289772 0
M  V30 1148 C 108.039 1.07584 1.70376 0
M  V30 1149 O 107.095 0.739486 2.41429 0
M  V30 1150 C 108.408 3.0052 0.103943 0
M  V30 1151 C 109.956 3.12517 0.173857 0
M  V30 1152 C 110.431 4.57997 0.0163682 0
M  V30 1153 N 111.922 4.63144 0.0721352 0
M  V30 1154 C 112.657 5.73394 -0.0253794 0
M  V30 1155 N 112.153 6.92576 -0.176133 0
M  V30 1156 N 113.946 5.62091 0.0313305 0
M  V30 1157 H 106.097 1.87863 -0.991027 0
M  V30 1158 H 108.36 0.86583 -0.38606 0
M  V30 1159 H 108.066 3.40729 -0.871572 0
M  V30 1160 H 107.94 3.67304 0.858366 0
M  V30 1161 H 110.327 2.72197 1.13985 0
M  V30 1162 H 110.408 2.48381 -0.611586 0
M  V30 1163 H 110.052 4.99005 -0.946374 0
M  V30 1164 H 109.982 5.20158 0.821153 0
M  V30 1165 H 112.473 3.77436 0.187263 0
M  V30 1166 H 112.786 7.72418 -0.242821 0
M  V30 1167 H 111.131 6.94678 -0.211429 0
M  V30 1168 H 114.322 4.67867 0.147773 0
M  V30 1169 H 114.495 6.47982 -0.048121 0
M  V30 1170 N 107.901 -0.206675 1.56239 0
M  V30 1171 C 109.147 -0.930218 1.80208 0
M  V30 1172 C 109.48 -1.83387 0.638981 0
M  V30 1173 O 108.755 -1.91119 -0.361066 0
M  V30 1174 C 109.038 -1.75641 3.1436 0
M  V30 1175 C 108.891 -0.878257 4.41142 0
M  V30 1176 C 110.21 -2.73129 3.45092 0
M  V30 1177 H 107.329 -0.336742 0.655571 0
M  V30 1178 H 109.971 -0.198222 1.88963 0
M  V30 1179 H 108.121 -2.38048 3.07027 0
M  V30 1180 H 109.793 -0.269787 4.6051 0
M  V30 1181 H 108.036 -0.184385 4.33408 0
M  V30 1182 H 108.707 -1.49106 5.3148 0
M  V30 1183 H 111.183 -2.20856 3.52649 0
M  V30 1184 H 110.059 -3.28028 4.40101 0
M  V30 1185 H 110.32 -3.51606 2.68003 0
M  V30 1186 N 109.379 -1.50304 -0.473955 0
M  V30 1187 C 110.607 -1.64902 -1.24959 0
M  V30 1188 C 111.022 -0.331198 -1.85872 0
M  V30 1189 O 110.379 0.68652 -1.69095 0
M  V30 1190 C 110.43 -2.73803 -2.36038 0
M  V30 1191 O 110.151 -4.00477 -1.77624 0
M  V30 1192 C 111.652 -2.99349 -3.26964 0
M  V30 1193 H 108.872 -0.554383 -0.378022 0
M  V30 1194 H 111.416 -1.9651 -0.566054 0
M  V30 1195 H 109.571 -2.44898 -3.00173 0
M  V30 1196 H 109.985 -4.60678 -2.5075 0
M  V30 1197 H 111.459 -3.79217 -4.01121 0
M  V30 1198 H 111.936 -2.10307 -3.85574 0
M  V30 1199 H 112.542 -3.29774 -2.68569 0
M  V30 1200 N 110.857 0.726932 -1.39834 0
M  V30 1201 C 112.087 1.51393 -1.40583 0
M  V30 1202 C 112.495 1.892 -0.000740625 0
M  V30 1203 O 111.838 1.55189 0.982951 0
M  V30 1204 C 111.9 2.82588 -2.22226 0
M  V30 1205 C 111.564 2.67169 -3.70769 0
M  V30 1206 C 112.561 2.3518 -4.63666 0
M  V30 1207 C 110.246 2.83788 -4.14451 0
M  V30 1208 C 112.24 2.20002 -5.98229 0
M  V30 1209 C 109.927 2.68229 -5.49087 0
M  V30 1210 C 110.925 2.36382 -6.4079 0
M  V30 1211 O 110.613 2.2093 -7.72946 0
M  V30 1212 H 110.345 0.474168 -0.48181 0
M  V30 1213 H 112.899 0.905247 -1.84376 0
M  V30 1214 H 111.129 3.45746 -1.73195 0
M  V30 1215 H 112.818 3.44247 -2.15055 0
M  V30 1216 H 113.584 2.21984 -4.31217 0
M  V30 1217 H 109.463 3.07566 -3.43401 0
M  V30 1218 H 113.007 1.95067 -6.69772 0
M  V30 1219 H 108.904 2.81006 -5.81125 0
M  V30 1220 H 109.672 2.35937 -7.83757 0
M  V30 1221 N 112.336 1.25143 0.95797 0
M  V30 1222 C 113.266 1.07711 2.07173 0
M  V30 1223 C 114.247 -0.0128462 1.70095 0
M  V30 1224 O 115.432 0.156061 1.93572 0
M  V30 1225 C 112.562 0.691503 3.40346 0
M  V30 1226 C 111.516 1.73132 3.9142 0
M  V30 1227 C 110.842 1.20049 5.21049 0
M  V30 1228 C 112.142 3.1294 4.1817 0
M  V30 1229 H 113.836 2.00873 2.22014 0
M  V30 1230 H 111.382 0.967191 1.06684 0
M  V30 1231 H 113.335 0.556505 4.17709 0
M  V30 1232 H 112.059 -0.275819 3.25433 0
M  V30 1233 H 110.718 1.8547 3.16222 0
M  V30 1234 H 110.366 0.223499 5.02503 0
M  V30 1235 H 110.066 1.89545 5.56189 0
M  V30 1236 H 111.59 1.07782 6.01012 0
M  V30 1237 H 113.004 3.03775 4.86203 0
M  V30 1238 H 111.401 3.79875 4.64559 0
M  V30 1239 H 112.471 3.6025 3.24573 0
M  V30 1240 N 113.814 -1.1601 1.06675 0
M  V30 1241 C 115.062 -1.86264 0.784229 0
M  V30 1242 C 115.383 -1.82328 -0.691488 0
M  V30 1243 O 114.653 -1.25947 -1.50047 0
M  V30 1244 H 113.233 -0.689621 0.28711 0
M  V30 1245 H 115.895 -1.40664 1.34906 0
M  V30 1246 H 114.991 -2.91595 1.11259 0
M  V30 1247 N 115.292 -0.849877 -1.32721 0
M  V30 1248 C 116.703 -0.506188 -1.79707 0
M  V30 1249 C 117.054 0.975627 -1.70223 0
M  V30 1250 O 116.179 1.76078 -1.25799 0
M  V30 1251 C 116.774 -0.912044 -3.26293 0
M  V30 1252 C 115.333 -0.620326 -3.71253 0
M  V30 1253 C 114.48 -1.11439 -2.53922 0
M  V30 1254 H 117.431 -1.03754 -1.20087 0
M  V30 1255 H 117.452 -0.226493 -3.79825 0
M  V30 1256 H 116.964 -1.99057 -3.33164 0
M  V30 1257 H 115.065 0.447674 -3.69901 0
M  V30 1258 H 115.178 -1.18327 -4.64258 0
M  V30 1259 H 113.542 -0.534834 -2.49021 0
M  V30 1260 H 114.325 -2.19992 -2.6355 0
M  V30 1261 N 116.77 1.45427 -0.607355 0
M  V30 1262 C 117.995 2.07124 -0.107006 0
M  V30 1263 C 118.42 1.44906 1.19933 0
M  V30 1264 O 117.778 0.541687 1.73019 0
M  V30 1265 C 117.826 3.60595 0.0194119 0
M  V30 1266 O 116.93 3.98285 1.0697 0
M  V30 1267 H 116.271 0.659868 -0.0739597 0
M  V30 1268 H 118.801 1.86683 -0.837297 0
M  V30 1269 H 118.811 4.07419 0.2177 0
M  V30 1270 H 117.486 4.05266 -0.934453 0
M  V30 1271 H 116.063 3.63133 0.847889 0
M  V30 1272 N 118.248 0.346503 1.53744 0
M  V30 1273 C 119.496 -0.248612 2.00565 0
M  V30 1274 C 119.817 -1.5083 1.23593 0
M  V30 1275 O 119.087 -1.92858 0.343912 0
M  V30 1276 H 117.667 -0.0948564 0.740953 0
M  V30 1277 H 120.329 0.468341 1.89189 0
M  V30 1278 H 119.425 -0.488994 3.08245 0
M  V30 1279 N 119.726 -1.57421 0.075193 0
M  V30 1280 C 120.951 -1.98364 -0.605515 0
M  V30 1281 C 121.376 -0.953383 -1.62149 0
M  V30 1282 O 120.734 0.0806053 -1.81121 0
M  V30 1283 C 120.782 -3.38332 -1.24756 0
M  V30 1284 O 119.886 -3.37959 -2.36342 0
M  V30 1285 H 119.227 -0.645553 -0.155428 0
M  V30 1286 H 121.757 -2.04044 0.150714 0
M  V30 1287 H 121.767 -3.75591 -1.5936 0
M  V30 1288 H 120.442 -4.12846 -0.503129 0
M  V30 1289 H 119.019 -3.12474 -2.03506 0
M  V30 1290 N 121.204 0.198386 -1.56346 0
M  V30 1291 C 122.136 1.26987 -1.90806 0
M  V30 1292 C 123.149 1.41877 -0.798419 0
M  V30 1293 O 124.338 1.42362 -1.07682 0
M  V30 1294 C 121.438 2.64246 -2.12196 0
M  V30 1295 C 120.611 2.71007 -3.43328 0
M  V30 1296 C 119.67 3.89439 -3.5387 0
M  V30 1297 O 118.696 3.76695 -4.26719 0
M  V30 1298 N 119.898 5.04752 -2.86715 0
M  V30 1299 H 122.663 0.977433 -2.83313 0
M  V30 1300 H 120.224 0.388322 -1.57174 0
M  V30 1301 H 122.216 3.41896 -2.1654 0
M  V30 1302 H 120.786 2.85992 -1.26204 0
M  V30 1303 H 120.006 1.79657 -3.50881 0
M  V30 1304 H 121.294 2.72512 -4.29668 0
M  V30 1305 H 120.692 5.18004 -2.2735 0
M  V30 1306 H 119.249 5.8036 -2.96691 0
M  V30 1307 N 122.682 1.50554 0.465978 0
M  V30 1308 C 123.931 1.61038 1.21448 0
M  V30 1309 C 124.244 0.31865 1.92987 0
M  V30 1310 O 125.45 0.302469 2.6981 0
M  V30 1311 C 123.906 2.84283 2.20706 0
M  V30 1312 C 123.514 4.20352 1.54946 0
M  V30 1313 C 125.258 3.04115 2.96166 0
M  V30 1314 C 123.165 5.34778 2.5252 0
M  V30 1315 H 122.095 0.599718 0.457005 0
M  V30 1316 H 124.746 1.7699 0.484424 0
M  V30 1317 H 123.128 2.61901 2.97025 0
M  V30 1318 H 124.302 4.53008 0.843811 0
M  V30 1319 H 122.617 4.06167 0.917475 0
M  V30 1320 H 125.214 3.86774 3.69202 0
M  V30 1321 H 125.557 2.16045 3.55852 0
M  V30 1322 H 126.09 3.26702 2.26959 0
M  V30 1323 H 122.829 6.25018 1.97566 0
M  V30 1324 H 122.349 5.06534 3.21222 0
M  V30 1325 H 124.028 5.65561 3.14245 0
M  V30 1326 N 124.16 -0.719506 1.40217 0
M  V30 1327 C 125.408 -1.47641 1.3801 0
M  V30 1328 C 125.729 -1.94992 -0.018145 0
M  V30 1329 O 124.999 -1.70073 -0.972207 0
M  V30 1330 H 123.579 -0.547744 0.507923 0
M  V30 1331 H 126.241 -0.853187 1.75233 0
M  V30 1332 H 125.337 -2.35112 2.05253 0
M  V30 1333 N 125.638 -1.25649 -0.95132 0
M  V30 1334 C 126.588 -1.03004 -2.03406 0
M  V30 1335 C 127.572 0.034187 -1.60864 0
M  V30 1336 O 128.764 -0.181549 -1.76066 0
M  V30 1337 C 125.893 -0.654255 -3.37008 0
M  V30 1338 C 124.979 -1.75542 -3.86065 0
M  V30 1339 N 125.37 -2.99113 -4.07879 0
M  V30 1340 C 123.668 -1.63669 -4.14884 0
M  V30 1341 C 124.369 -3.70611 -4.48356 0
M  V30 1342 N 123.345 -2.98247 -4.54477 0
M  V30 1343 H 127.147 -1.96813 -2.1827 0
M  V30 1344 H 124.661 -1.16017 -1.13639 0
M  V30 1345 H 126.658 -0.473206 -4.14206 0
M  V30 1346 H 125.318 0.276468 -3.23521 0
M  V30 1347 H 126.329 -3.35124 -3.94857 0
M  V30 1348 H 123.006 -0.775161 -4.10241 0
M  V30 1349 H 124.396 -4.76695 -4.73509 0
M  V30 1350 N 127.117 1.15442 -1.07289 0
M  V30 1351 C 128.064 2.20161 -0.692653 0
M  V30 1352 C 129.034 1.63073 0.31564 0
M  V30 1353 O 130.219 1.89725 0.202235 0
M  V30 1354 C 127.359 3.44967 -0.0959509 0
M  V30 1355 C 126.472 4.16256 -1.15564 0
M  V30 1356 C 125.607 5.28609 -0.524011 0
M  V30 1357 C 124.646 5.91715 -1.56653 0
M  V30 1358 N 123.783 6.9554 -0.957531 0
M  V30 1359 H 128.623 2.52037 -1.59002 0
M  V30 1360 H 126.16 1.2378 -0.794798 0
M  V30 1361 H 128.118 4.16341 0.267628 0
M  V30 1362 H 126.748 3.1361 0.764772 0
M  V30 1363 H 125.8 3.43385 -1.6368 0
M  V30 1364 H 127.112 4.59268 -1.94613 0
M  V30 1365 H 126.266 6.06604 -0.108032 0
M  V30 1366 H 125.005 4.86787 0.29825 0
M  V30 1367 H 124.01 5.12433 -1.9923 0
M  V30 1368 H 125.235 6.35614 -2.39107 0
M  V30 1369 H 123.181 6.55814 -0.156162 0
M  V30 1370 H 123.098 7.36977 -1.68526 0
M  V30 1371 H 124.366 7.77435 -0.567032 0
M  V30 1372 N 128.595 0.856903 1.32268 0
M  V30 1373 C 129.505 0.306131 2.32594 0
M  V30 1374 C 130.521 -0.577209 1.64147 0
M  V30 1375 O 131.697 -0.477043 1.95669 0
M  V30 1376 C 128.762 -0.494561 3.43154 0
M  V30 1377 C 127.823 0.415186 4.27288 0
M  V30 1378 C 127.056 -0.347387 5.32568 0
M  V30 1379 O 127.279 -1.57708 5.48165 0
M  V30 1380 O 126.213 0.287982 6.01211 0
M  V30 1381 H 130.039 1.13737 2.81598 0
M  V30 1382 H 127.624 0.619902 1.35932 0
M  V30 1383 H 129.506 -0.948944 4.10576 0
M  V30 1384 H 128.181 -1.30257 2.96336 0
M  V30 1385 H 127.088 0.917793 3.62667 0
M  V30 1386 H 128.421 1.18844 4.77637 0
M  V30 1387 N 130.073 -1.45103 0.615059 0
M  V30 1388 C 131.298 -2.07064 0.117988 0
M  V30 1389 C 131.723 -1.4554 -1.19163 0
M  V30 1390 O 131.081 -0.550855 -1.72729 0
M  V30 1391 C 131.129 -3.606 -0.000288387 0
M  V30 1392 O 130.233 -3.98847 -1.04856 0
M  V30 1393 H 129.574 -0.659467 0.0774581 0
M  V30 1394 H 132.104 -1.86236 0.847186 0
M  V30 1395 H 132.114 -4.07529 -0.196091 0
M  V30 1396 H 130.789 -4.04765 0.955932 0
M  V30 1397 H 129.366 -3.63577 -0.828619 0
M  V30 1398 N 131.551 -0.354651 -1.53558 0
M  V30 1399 C 132.8 0.239504 -2.00273 0
M  V30 1400 C 133.113 1.50759 -1.24623 0
M  V30 1401 O 134.319 2.17968 -1.61871 0
M  V30 1402 C 132.775 0.477341 -3.5672 0
M  V30 1403 C 132.383 -0.775488 -4.41237 0
M  V30 1404 C 134.127 1.02975 -4.11821 0
M  V30 1405 C 132.034 -0.507838 -5.89216 0
M  V30 1406 H 130.964 0.0932743 -0.748208 0
M  V30 1407 H 133.615 -0.471701 -1.77334 0
M  V30 1408 H 131.997 1.24953 -3.7577 0
M  V30 1409 H 133.171 -1.54963 -4.33962 0
M  V30 1410 H 131.486 -1.25033 -3.97185 0
M  V30 1411 H 134.083 1.24513 -5.2 0
M  V30 1412 H 134.426 1.98862 -3.65731 0
M  V30 1413 H 134.959 0.317994 -3.96527 0
M  V30 1414 H 131.698 -1.43674 -6.39561 0
M  V30 1415 H 131.218 0.228011 -5.99366 0
M  V30 1416 H 132.897 -0.129238 -6.46871 0
M  V30 1417 N 133.029 1.57378 -0.0835403 0
M  V30 1418 C 133.976 2.13384 0.879539 0
M  V30 1419 C 134.946 1.04936 1.28754 0
M  V30 1420 O 136.131 1.32662 1.37133 0
M  V30 1421 C 133.271 2.70932 2.13752 0
M  V30 1422 C 132.384 3.93575 1.7811 0
M  V30 1423 C 131.519 4.39326 2.98607 0
M  V30 1424 C 130.558 5.54587 2.59037 0
M  V30 1425 N 129.695 5.95243 3.72331 0
M  V30 1426 H 134.535 2.9537 0.395076 0
M  V30 1427 H 132.072 1.45953 0.183349 0
M  V30 1428 H 134.03 3.02411 2.87408 0
M  V30 1429 H 132.66 1.91693 2.59718 0
M  V30 1430 H 131.712 3.68483 0.94469 0
M  V30 1431 H 133.024 4.77258 1.45005 0
M  V30 1432 H 132.178 4.72528 3.80529 0
M  V30 1433 H 130.917 3.5452 3.34913 0
M  V30 1434 H 129.922 5.21024 1.75539 0
M  V30 1435 H 131.147 6.41133 2.23887 0
M  V30 1436 H 129.093 5.13385 4.08378 0
M  V30 1437 H 129.01 6.73694 3.43034 0
M  V30 1438 H 130.278 6.33072 4.54797 0
M  V30 1439 N 134.507 -0.190092 1.56449 0
M  V30 1440 C 135.784 -0.935886 1.71757 0
M  V30 1441 C 136.164 -2.01173 0.639726 0
M  V30 1442 O 135.512 -2.25827 -0.348502 0
M  V30 1443 C 135.722 -1.51775 3.1427 0
M  V30 1444 C 137.07 -1.99794 3.74656 0
M  V30 1445 O 138.094 -1.61607 3.1743 0
M  V30 1446 O 136.953 -2.70079 4.751 0
M  V30 1447 H 134.047 -0.439229 0.700719 0
M  V30 1448 H 136.593 -0.179395 1.68749 0
M  V30 1449 H 135.365 -0.742505 3.84191 0
M  V30 1450 H 134.988 -2.33894 3.21527 0
M  V30 1451 N 135.985 -1.50799 -0.457987 0
M  V30 1452 C 137.213 -1.66218 -1.23203 0
M  V30 1453 C 137.628 -0.350894 -1.85511 0
M  V30 1454 O 136.985 0.668546 -1.69814 0
M  V30 1455 C 137.036 -2.76291 -2.33121 0
M  V30 1456 O 136.757 -4.02338 -1.73366 0
M  V30 1457 C 138.258 -3.028 -3.2377 0
M  V30 1458 H 135.478 -0.558361 -0.372121 0
M  V30 1459 H 138.022 -1.97099 -0.545179 0
M  V30 1460 H 136.177 -2.48068 -2.97558 0
M  V30 1461 H 136.591 -4.63312 -2.4585 0
M  V30 1462 H 138.065 -3.8345 -3.97077 0
M  V30 1463 H 138.542 -2.14385 -3.83322 0
M  V30 1464 H 139.148 -3.32604 -2.65056 0
M  V30 1465 N 137.463 0.71206 -1.40597 0
M  V30 1466 C 138.426 1.80785 -1.40888 0
M  V30 1467 C 139.426 1.57937 -0.302103 0
M  V30 1468 O 140.616 1.64913 -0.561182 0
M  V30 1469 C 137.748 3.18927 -1.20409 0
M  V30 1470 H 138.941 1.81924 -2.38419 0
M  V30 1471 H 136.494 0.91805 -1.26497 0
M  V30 1472 H 137.229 3.23436 -0.236522 0
M  V30 1473 H 137.014 3.36911 -2.00582 0
M  V30 1474 H 138.504 3.98949 -1.23408 0
M  V30 1475 N 138.941 1.26152 0.944643 0
M  V30 1476 C 140.357 1.03189 1.21754 0
M  V30 1477 C 140.557 -0.245112 2.00004 0
M  V30 1478 O 139.613 -0.955176 2.33736 0
M  V30 1479 C 140.926 2.26119 1.98219 0
M  V30 1480 C 142.474 2.30984 2.11224 0
M  V30 1481 C 142.949 3.53597 2.91089 0
M  V30 1482 N 144.44 3.54053 2.98664 0
M  V30 1483 C 145.175 4.45593 3.60881 0
M  V30 1484 N 144.671 5.47416 4.24626 0
M  V30 1485 N 146.464 4.33252 3.58119 0
M  V30 1486 H 138.615 2.08177 0.421437 0
M  V30 1487 H 140.878 0.914723 0.248969 0
M  V30 1488 H 140.584 3.18984 1.48128 0
M  V30 1489 H 140.458 2.3009 2.98895 0
M  V30 1490 H 142.845 1.38635 2.60508 0
M  V30 1491 H 142.926 2.31026 1.09821 0
M  V30 1492 H 142.57 4.46273 2.42493 0
M  V30 1493 H 142.5 3.50802 3.92741 0
M  V30 1494 H 144.991 2.80403 2.53343 0
M  V30 1495 H 145.304 6.13459 4.69987 0
M  V30 1496 H 143.649 5.51278 4.23223 0
M  V30 1497 H 146.84 3.52924 3.0751 0
M  V30 1498 H 147.013 5.04786 4.06319 0
M  V30 1499 N 140.419 -1.14872 1.07899 0
M  V30 1500 C 141.665 -1.86064 0.806725 0
M  V30 1501 C 141.998 -1.82434 -0.665706 0
M  V30 1502 O 141.273 -1.25138 -1.48899 0
M  V30 1503 C 141.556 -3.34929 1.32267 0
M  V30 1504 C 141.409 -3.47161 2.86006 0
M  V30 1505 C 142.728 -4.29863 0.943717 0
M  V30 1506 H 139.847 -0.675591 0.294526 0
M  V30 1507 H 142.489 -1.34925 1.33773 0
M  V30 1508 H 140.639 -3.78611 0.870974 0
M  V30 1509 H 142.311 -3.12302 3.39507 0
M  V30 1510 H 140.554 -2.88539 3.23925 0
M  V30 1511 H 141.225 -4.51777 3.17177 0
M  V30 1512 H 143.701 -3.9417 1.33302 0
M  V30 1513 H 142.577 -5.32494 1.33198 0
M  V30 1514 H 142.838 -4.41846 -0.149796 0
M  V30 1515 N 141.898 -0.863906 -1.31812 0
M  V30 1516 C 142.828 -0.330843 -2.31144 0
M  V30 1517 C 143.809 0.575005 -1.60087 0
M  V30 1518 O 144.994 0.493304 -1.8783 0
M  V30 1519 C 142.124 0.47374 -3.44054 0
M  V30 1520 C 141.078 -0.338481 -4.26659 0
M  V30 1521 C 140.404 0.591412 -5.31419 0
M  V30 1522 C 141.704 -1.56926 -4.98168 0
M  V30 1523 H 143.398 -1.16086 -2.75979 0
M  V30 1524 H 140.944 -0.559657 -1.32679 0
M  V30 1525 H 142.897 0.857143 -4.12591 0
M  V30 1526 H 141.621 1.33721 -2.9797 0
M  V30 1527 H 140.28 -0.703754 -3.59782 0
M  V30 1528 H 139.928 1.45199 -4.81587 0
M  V30 1529 H 139.628 0.0519022 -5.87577 0
M  V30 1530 H 141.152 0.97179 -6.02817 0
M  V30 1531 H 142.566 -1.25764 -5.59336 0
M  V30 1532 H 140.963 -2.04739 -5.64094 0
M  V30 1533 H 142.033 -2.32544 -4.25501 0
M  V30 1534 N 143.376 1.44774 -0.622745 0
M  V30 1535 C 144.624 2.01721 -0.123655 0
M  V30 1536 C 144.945 1.49172 1.25589 0
M  V30 1537 O 144.215 0.691974 1.83272 0
M  V30 1538 H 142.795 0.745777 -0.0427225 0
M  V30 1539 H 145.457 1.77382 -0.807559 0
M  V30 1540 H 144.553 3.11984 -0.0849534 0
M  V30 1541 N 144.854 0.36279 1.53368 0
M  V30 1542 C 146.27 0.0116182 1.59596 0
M  V30 1543 C 146.47 -1.47012 1.37803 0
M  V30 1544 O 145.526 -2.23136 1.18181 0
M  V30 1545 C 146.839 0.465052 2.97082 0
M  V30 1546 C 148.387 0.419033 3.10182 0
M  V30 1547 C 148.862 0.848235 4.50077 0
M  V30 1548 N 150.353 0.803183 4.56183 0
M  V30 1549 C 151.088 1.107 5.62613 0
M  V30 1550 N 150.584 1.47996 6.76808 0
M  V30 1551 N 152.377 1.02998 5.52583 0
M  V30 1552 H 144.528 1.32775 1.65785 0
M  V30 1553 H 146.791 0.542518 0.777417 0
M  V30 1554 H 146.497 1.49892 3.18159 0
M  V30 1555 H 146.371 -0.149786 3.76902 0
M  V30 1556 H 148.758 -0.605696 2.88817 0
M  V30 1557 H 148.839 1.06933 2.32377 0
M  V30 1558 H 148.483 1.87107 4.7218 0
M  V30 1559 H 148.413 0.175218 5.26308 0
M  V30 1560 H 150.904 0.52838 3.74188 0
M  V30 1561 H 151.217 1.69613 7.53957 0
M  V30 1562 H 149.562 1.51859 6.78206 0
M  V30 1563 H 152.753 0.737817 4.62249 0
M  V30 1564 H 152.926 1.2701 6.35431 0
M  V30 1565 N 146.332 -1.57332 0.0918853 0
M  V30 1566 C 147.265 -2.09499 -0.904735 0
M  V30 1567 C 148.243 -1.00479 -1.27839 0
M  V30 1568 O 149.427 -1.27954 -1.38419 0
M  V30 1569 C 146.554 -2.56931 -2.2069 0
M  V30 1570 C 145.6 -3.77579 -1.98334 0
M  V30 1571 S 146.433 -5.21317 -1.22428 0
M  V30 1572 C 147.589 -5.72097 -2.53882 0
M  V30 1573 H 147.822 -2.93705 -0.460922 0
M  V30 1574 H 145.355 -1.53923 -0.121332 0
M  V30 1575 H 147.313 -2.84917 -2.95521 0
M  V30 1576 H 145.974 -1.72956 -2.62192 0
M  V30 1577 H 145.167 -4.08824 -2.94752 0
M  V30 1578 H 144.769 -3.5007 -1.31633 0
M  V30 1579 H 147.061 -5.80168 -3.49874 0
M  V30 1580 H 148.004 -6.70654 -2.27219 0
M  V30 1581 H 148.412 -5.00012 -2.62007 0
M  V30 1582 N 147.81 0.181792 -1.56548 0
M  V30 1583 C 149.04 0.914618 -1.85252 0
M  V30 1584 C 149.448 1.76791 -0.673914 0
M  V30 1585 O 148.791 1.80009 0.366416 0
M  V30 1586 C 148.853 1.85019 -3.08234 0
M  V30 1587 C 148.517 1.17754 -4.41569 0
M  V30 1588 C 149.514 0.548035 -5.17003 0
M  V30 1589 C 147.199 1.17742 -4.88305 0
M  V30 1590 C 149.193 -0.0726128 -6.37359 0
M  V30 1591 C 146.88 0.552946 -6.08593 0
M  V30 1592 C 147.878 -0.070978 -6.82963 0
M  V30 1593 O 147.566 -0.685635 -8.00971 0
M  V30 1594 H 147.298 0.271695 -0.618998 0
M  V30 1595 H 149.852 0.189944 -2.0452 0
M  V30 1596 H 148.082 2.61491 -2.84885 0
M  V30 1597 H 149.771 2.45195 -3.23472 0
M  V30 1598 H 150.537 0.540174 -4.81982 0
M  V30 1599 H 146.416 1.65246 -4.30366 0
M  V30 1600 H 149.96 -0.560213 -6.95347 0
M  V30 1601 H 145.857 0.558354 -6.43081 0
M  V30 1602 H 146.625 -0.58385 -8.16415 0
M  V30 1603 N 149.288 1.51039 0.449983 0
M  V30 1604 C 150.565 1.53612 1.21089 0
M  V30 1605 C 150.945 0.292997 2.09057 0
M  V30 1606 O 150.293 -0.72259 2.16774 0
M  V30 1607 C 150.503 2.84337 2.0237 0
M  V30 1608 C 151.851 3.35807 2.59843 0
M  V30 1609 O 152.875 2.85802 2.12593 0
M  V30 1610 O 151.734 4.23029 3.45989 0
M  V30 1611 H 148.828 0.617057 0.550608 0
M  V30 1612 H 151.374 1.63344 0.460082 0
M  V30 1613 H 150.146 3.66278 1.37681 0
M  V30 1614 H 149.769 2.77708 2.84542 0
M  V30 1615 N 150.766 -0.704594 1.40972 0
M  V30 1616 C 152.014 -1.46169 1.39568 0
M  V30 1617 C 152.335 -1.95 0.00253745 0
M  V30 1618 O 151.605 -1.71095 -0.954114 0
M  V30 1619 H 150.185 -0.542326 0.513704 0
M  V30 1620 H 152.847 -0.834553 1.76128 0
M  V30 1621 H 151.943 -2.32922 2.07735 0
M  V30 1622 N 152.244 -1.26651 -0.937939 0
M  V30 1623 C 153.493 -1.11775 -1.67897 0
M  V30 1624 C 153.806 0.33794 -1.92659 0
M  V30 1625 O 155.012 0.607434 -2.64618 0
M  V30 1626 C 153.468 -1.9523 -3.02346 0
M  V30 1627 C 153.076 -3.45393 -2.8532 0
M  V30 1628 C 154.82 -1.88972 -3.80118 0
M  V30 1629 C 152.727 -4.21083 -4.15263 0
M  V30 1630 H 151.657 -0.414696 -0.629717 0
M  V30 1631 H 154.308 -1.50988 -1.04283 0
M  V30 1632 H 152.69 -1.48853 -3.66959 0
M  V30 1633 H 153.864 -3.99561 -2.29537 0
M  V30 1634 H 152.179 -3.52921 -2.20988 0
M  V30 1635 H 154.776 -2.42805 -4.76392 0
M  V30 1636 H 155.119 -0.86113 -4.07296 0
M  V30 1637 H 155.652 -2.33189 -3.22285 0
M  V30 1638 H 152.391 -5.24425 -3.93267 0
M  V30 1639 H 151.911 -3.71695 -4.70747 0
M  V30 1640 H 153.59 -4.29706 -4.83696 0
M  V30 1641 N 153.722 1.14298 -1.08507 0
M  V30 1642 C 154.654 2.1907 -0.673859 0
M  V30 1643 C 155.667 1.60381 0.279577 0
M  V30 1644 O 156.856 1.78374 0.0670754 0
M  V30 1645 C 153.956 3.38888 0.0290979 0
M  V30 1646 C 153.129 4.27103 -0.943494 0
M  V30 1647 C 152.188 5.25477 -0.275676 0
M  V30 1648 O 151.214 5.61709 -0.920401 0
M  V30 1649 N 152.416 5.7227 0.974013 0
M  V30 1650 H 155.181 2.54965 -1.57521 0
M  V30 1651 H 152.742 1.29528 -0.971287 0
M  V30 1652 H 154.734 4.01761 0.48683 0
M  V30 1653 H 153.304 3.01309 0.832555 0
M  V30 1654 H 152.524 3.61149 -1.58004 0
M  V30 1655 H 153.812 4.82905 -1.60251 0
M  V30 1656 H 153.21 5.44965 1.51755 0
M  V30 1657 H 151.767 6.37127 1.37522 0
M  V30 1658 N 155.201 0.870884 1.31352 0
M  V30 1659 C 156.431 0.496049 2.00557 0
M  V30 1660 C 156.839 -0.916241 1.65534 0
M  V30 1661 O 156.182 -1.61188 0.881134 0
M  V30 1662 C 156.244 0.574418 3.54881 0
M  V30 1663 C 155.908 1.94849 4.1338 0
M  V30 1664 C 156.905 2.91611 4.30417 0
M  V30 1665 C 154.59 2.25005 4.49086 0
M  V30 1666 C 156.584 4.16672 4.82352 0
M  V30 1667 C 154.271 3.50315 5.00722 0
M  V30 1668 C 155.269 4.45964 5.17306 0
M  V30 1669 O 154.957 5.69052 5.67833 0
M  V30 1670 H 154.689 0.191664 0.64826 0
M  V30 1671 H 157.243 1.17409 1.68536 0
M  V30 1672 H 155.473 -0.160549 3.86367 0
M  V30 1673 H 157.162 0.212879 4.05341 0
M  V30 1674 H 157.928 2.69622 4.03149 0
M  V30 1675 H 153.807 1.51332 4.35453 0
M  V30 1676 H 157.351 4.91336 4.95211 0
M  V30 1677 H 153.248 3.72147 5.27424 0
M  V30 1678 H 154.016 5.71236 5.86201 0
M  V30 1679 N 156.679 -1.44442 0.630414 0
M  V30 1680 C 158.095 -1.56832 0.295973 0
M  V30 1681 C 158.295 -1.61806 -1.20088 0
M  V30 1682 O 157.351 -1.5607 -1.9849 0
M  V30 1683 C 158.664 -2.84031 0.987264 0
M  V30 1684 C 160.212 -2.97742 0.96534 0
M  V30 1685 C 160.687 -4.27743 1.63708 0
M  V30 1686 N 162.178 -4.34555 1.60364 0
M  V30 1687 C 162.913 -5.33862 2.09234 0
M  V30 1688 N 162.409 -6.39578 2.66292 0
M  V30 1689 N 164.202 -5.25366 1.99867 0
M  V30 1690 H 156.353 -1.39457 1.60205 0
M  V30 1691 H 158.616 -0.668237 0.672431 0
M  V30 1692 H 158.322 -2.86338 2.04215 0
M  V30 1693 H 158.196 -3.73534 0.524588 0
M  V30 1694 H 160.583 -2.94989 -0.0810639 0
M  V30 1695 H 160.664 -2.09589 1.4665 0
M  V30 1696 H 160.308 -4.31255 2.68293 0
M  V30 1697 H 160.238 -5.14752 1.11076 0
M  V30 1698 H 162.729 -3.58772 1.18705 0
M  V30 1699 H 163.042 -7.11637 3.01317 0
M  V30 1700 H 161.387 -6.40265 2.70343 0
M  V30 1701 H 164.578 -4.41688 1.55013 0
M  V30 1702 H 164.751 -6.02606 2.38265 0
M  V30 1703 N 158.157 -0.370918 -1.53173 0
M  V30 1704 C 159.405 0.216673 -2.00935 0
M  V30 1705 C 159.726 1.48845 -1.25977 0
M  V30 1706 O 158.996 1.92286 -0.374551 0
M  V30 1707 H 157.576 0.0830565 -0.742368 0
M  V30 1708 H 160.238 -0.49838 -1.8842 0
M  V30 1709 H 159.334 0.439893 -3.08984 0
M  V30 1710 N 159.635 1.57281 -0.100228 0
M  V30 1711 C 160.865 1.98591 0.569681 0
M  V30 1712 C 161.273 0.978315 1.61943 0
M  V30 1713 O 160.616 -0.0396108 1.83657 0
M  V30 1714 C 160.678 3.36282 1.271 0
M  V30 1715 C 160.342 4.55488 0.371409 0
M  V30 1716 C 161.339 5.18491 -0.382504 0
M  V30 1717 C 159.024 5.01474 0.287965 0
M  V30 1718 C 161.018 6.25852 -1.20779 0
M  V30 1719 C 158.705 6.08701 -0.540965 0
M  V30 1720 C 159.703 6.70755 -1.28749 0
M  V30 1721 O 159.391 7.75914 -2.10269 0
M  V30 1722 H 159.123 0.65752 0.156982 0
M  V30 1723 H 161.677 2.0463 -0.177734 0
M  V30 1724 H 159.907 3.26941 2.0651 0
M  V30 1725 H 161.596 3.62005 1.83595 0
M  V30 1726 H 162.362 4.83891 -0.3278 0
M  V30 1727 H 158.241 4.52932 0.858689 0
M  V30 1728 H 161.785 6.74218 -1.79096 0
M  V30 1729 H 157.682 6.42732 -0.597131 0
M  V30 1730 H 158.45 7.92925 -2.03007 0
M  V30 1731 N 161.113 -0.173488 1.56642 0
M  V30 1732 C 162.361 -0.888706 1.81512 0
M  V30 1733 C 162.682 -1.82875 0.676872 0
M  V30 1734 O 161.952 -1.93536 -0.303414 0
M  V30 1735 H 160.532 -0.331164 0.669582 0
M  V30 1736 H 163.194 -0.173823 1.94123 0
M  V30 1737 H 162.29 -1.46691 2.75478 0
M  V30 1738 N 162.591 -1.51276 -0.441967 0
M  V30 1739 C 163.523 -1.68444 -1.55433 0
M  V30 1740 C 164.536 -0.565187 -1.52674 0
M  V30 1741 O 165.725 -0.839356 -1.57534 0
M  V30 1742 C 162.825 -1.67966 -2.94348 0
M  V30 1743 C 161.998 -2.964 -3.21661 0
M  V30 1744 C 161.057 -2.88171 -4.40277 0
M  V30 1745 O 160.083 -3.62119 -4.39157 0
M  V30 1746 N 161.285 -2.03706 -5.43584 0
M  V30 1747 H 164.05 -2.644 -1.41112 0
M  V30 1748 H 161.611 -1.49104 -0.630838 0
M  V30 1749 H 163.603 -1.60035 -3.71713 0
M  V30 1750 H 162.173 -0.796225 -3.0229 0
M  V30 1751 H 161.393 -3.18234 -2.32638 0
M  V30 1752 H 162.681 -3.81427 -3.36736 0
M  V30 1753 H 162.079 -1.42995 -5.47329 0
M  V30 1754 H 160.636 -2.01658 -6.1982 0
M  V30 1755 N 164.069 0.697108 -1.41344 0
M  V30 1756 C 164.979 1.84088 -1.45427 0
M  V30 1757 C 165.995 1.70545 -0.34501 0
M  V30 1758 O 167.171 1.92488 -0.592492 0
M  V30 1759 C 164.236 3.20056 -1.33286 0
M  V30 1760 C 163.297 3.45718 -2.54514 0
M  V30 1761 C 162.53 4.75199 -2.42944 0
M  V30 1762 O 162.753 5.51579 -1.45318 0
M  V30 1763 O 161.687 5.0161 -3.32672 0
M  V30 1764 H 165.513 1.836 -2.41919 0
M  V30 1765 H 163.098 0.849966 -1.22866 0
M  V30 1766 H 164.98 4.01236 -1.28794 0
M  V30 1767 H 163.655 3.2123 -0.39909 0
M  V30 1768 H 162.562 2.64474 -2.64583 0
M  V30 1769 H 163.895 3.49356 -3.46715 0
M  V30 1770 N 165.547 1.27147 0.931209 0
M  V30 1771 C 166.796 1.12664 1.67302 0
M  V30 1772 C 167.109 -0.327718 1.92835 0
M  V30 1773 O 168.315 -0.593392 2.64936 0
M  V30 1774 C 166.771 1.9683 3.01307 0
M  V30 1775 C 166.379 3.46901 2.83485 0
M  V30 1776 C 168.123 1.90985 3.79111 0
M  V30 1777 C 166.03 4.23279 4.13024 0
M  V30 1778 H 164.96 0.41803 0.627509 0
M  V30 1779 H 167.611 1.51539 1.03481 0
M  V30 1780 H 165.993 1.50797 3.66164 0
M  V30 1781 H 167.167 4.00773 2.27415 0
M  V30 1782 H 165.482 3.54088 2.19113 0
M  V30 1783 H 168.079 2.45328 4.75098 0
M  V30 1784 H 168.422 0.882718 4.06834 0
M  V30 1785 H 168.955 2.34895 3.21044 0
M  V30 1786 H 165.694 5.26503 3.90481 0
M  V30 1787 H 165.214 3.74186 4.6877 0
M  V30 1788 H 166.893 4.32265 4.81411 0
M  V30 1789 N 167.025 -1.13721 1.09112 0
M  V30 1790 C 168.271 -1.85198 0.826414 0
M  V30 1791 C 168.604 -1.83129 -0.646319 0
M  V30 1792 O 167.879 -1.2671 -1.47563 0
M  V30 1793 C 168.162 -3.33507 1.35812 0
M  V30 1794 C 168.015 -3.44108 2.89672 0
M  V30 1795 C 169.334 -4.28838 0.989256 0
M  V30 1796 H 166.453 -0.67243 0.301675 0
M  V30 1797 H 169.095 -1.33499 1.35197 0
M  V30 1798 H 167.245 -3.77666 0.911082 0
M  V30 1799 H 168.917 -3.08684 3.428 0
M  V30 1800 H 167.16 -2.85087 3.26967 0
M  V30 1801 H 167.831 -4.48388 3.21951 0
M  V30 1802 H 170.307 -3.92734 1.37475 0
M  V30 1803 H 169.183 -5.31051 1.38838 0
M  V30 1804 H 169.444 -4.4198 -0.102924 0
M  V30 1805 N 168.503 -0.877838 -1.30888 0
M  V30 1806 C 169.413 -0.343096 -2.32078 0
M  V30 1807 C 170.429 0.551022 -1.65045 0
M  V30 1808 O 171.605 0.445854 -1.96403 0
M  V30 1809 C 168.67 0.439905 -3.43898 0
M  V30 1810 C 167.731 -0.483111 -4.26573 0
M  V30 1811 C 166.964 0.262616 -5.33053 0
M  V30 1812 O 167.187 1.48967 -5.50604 0
M  V30 1813 O 166.121 -0.383593 -6.00676 0
M  V30 1814 H 169.947 -1.18203 -2.79753 0
M  V30 1815 H 167.532 -0.64145 -1.34929 0
M  V30 1816 H 169.414 0.883504 -4.12034 0
M  V30 1817 H 168.089 1.25526 -2.98371 0
M  V30 1818 H 166.996 -0.975374 -3.61161 0
M  V30 1819 H 168.329 -1.26427 -4.75686 0
M  V30 1820 N 169.982 1.44106 -0.638065 0
M  V30 1821 C 171.21 2.06336 -0.152615 0
M  V30 1822 C 171.625 1.47731 1.17563 0
M  V30 1823 O 170.982 0.602806 1.72257 0
M  V30 1824 C 171.033 3.61479 -0.0391491 0
M  V30 1825 O 170.754 4.17903 -1.31487 0
M  V30 1826 C 172.255 4.40757 0.474176 0
M  V30 1827 H 169.475 0.665862 -0.0828776 0
M  V30 1828 H 172.019 1.84862 -0.87443 0
M  V30 1829 H 170.174 3.82191 0.633142 0
M  V30 1830 H 170.588 5.11416 -1.16421 0
M  V30 1831 H 172.062 5.49707 0.502562 0
M  V30 1832 H 172.539 4.12697 1.50258 0
M  V30 1833 H 173.145 4.24979 -0.165102 0
M  V30 1834 N 171.46 0.379036 1.52974 0
M  V30 1835 C 172.39 -0.452706 2.29069 0
M  V30 1836 C 173.371 -1.07237 1.32039 0
M  V30 1837 O 174.556 -1.08708 1.60923 0
M  V30 1838 C 171.686 -1.5856 3.08992 0
M  V30 1839 C 170.64 -1.0925 4.13822 0
M  V30 1840 C 169.966 -2.31668 4.81907 0
M  V30 1841 C 171.266 -0.167702 5.22031 0
M  V30 1842 H 172.96 0.182181 2.98845 0
M  V30 1843 H 170.506 0.0890592 1.43724 0
M  V30 1844 H 172.459 -2.1742 3.6098 0
M  V30 1845 H 171.183 -2.24792 2.36931 0
M  V30 1846 H 169.842 -0.526494 3.628 0
M  V30 1847 H 169.49 -2.96386 4.06404 0
M  V30 1848 H 169.19 -1.9934 5.52754 0
M  V30 1849 H 170.714 -2.91189 5.36695 0
M  V30 1850 H 172.128 -0.664186 5.6944 0
M  V30 1851 H 170.525 0.0653265 6.00064 0
M  V30 1852 H 171.595 0.786347 4.78482 0
M  V30 1853 N 172.938 -1.57226 0.108567 0
M  V30 1854 C 173.901 -2.13602 -0.831082 0
M  V30 1855 C 174.901 -1.06841 -1.20173 0
M  V30 1856 O 176.091 -1.32666 -1.12895 0
M  V30 1857 C 173.223 -2.66769 -2.12243 0
M  V30 1858 H 174.416 -2.97951 -0.341317 0
M  V30 1859 H 171.969 -1.55667 -0.14057 0
M  V30 1860 H 172.704 -1.85977 -2.65675 0
M  V30 1861 H 172.489 -3.44839 -1.86625 0
M  V30 1862 H 173.979 -3.10332 -2.79435 0
M  V30 1863 N 174.416 0.165178 -1.56732 0
M  V30 1864 C 175.326 1.22423 -2.00125 0
M  V30 1865 C 176.342 1.48084 -0.913619 0
M  V30 1866 O 177.518 1.60112 -1.22172 0
M  V30 1867 C 174.583 2.54197 -2.35764 0
M  V30 1868 C 173.644 2.36343 -3.58386 0
M  V30 1869 C 172.877 3.61834 -3.92316 0
M  V30 1870 O 173.1 4.67267 -3.27135 0
M  V30 1871 O 172.034 3.55579 -4.85641 0
M  V30 1872 H 175.86 0.885886 -2.90492 0
M  V30 1873 H 173.445 0.372518 -1.44681 0
M  V30 1874 H 175.327 3.3192 -2.59629 0
M  V30 1875 H 174.002 2.87598 -1.48557 0
M  V30 1876 H 172.909 1.56632 -3.39731 0
M  V30 1877 H 174.242 2.07865 -4.46154 0
M  V30 1878 N 175.894 1.51508 0.433938 0
M  V30 1879 C 177.124 1.67914 1.20369 0
M  V30 1880 C 177.532 0.377461 1.85397 0
M  V30 1881 O 176.875 -0.654255 1.71654 0
M  V30 1882 C 176.937 2.74045 2.32679 0
M  V30 1883 C 176.601 4.16543 1.87991 0
M  V30 1884 C 177.598 5.01211 1.38145 0
M  V30 1885 C 175.283 4.6266 1.95579 0
M  V30 1886 C 177.277 6.30056 0.964774 0
M  V30 1887 C 174.964 5.91501 1.53523 0
M  V30 1888 C 175.962 6.75027 1.04055 0
M  V30 1889 O 175.65 8.01459 0.625964 0
M  V30 1890 H 175.382 0.566578 0.368735 0
M  V30 1891 H 177.936 1.98709 0.51999 0
M  V30 1892 H 176.166 2.38572 3.04336 0
M  V30 1893 H 177.855 2.79295 2.94532 0
M  V30 1894 H 178.621 4.66783 1.31675 0
M  V30 1895 H 174.5 3.97767 2.33029 0
M  V30 1896 H 178.044 6.95202 0.57796 0
M  V30 1897 H 173.941 6.25442 1.59665 0
M  V30 1898 H 174.709 8.15043 0.751509 0
M  V30 1899 N 177.372 -0.689602 1.41712 0
M  V30 1900 C 178.335 -1.78521 1.43746 0
M  V30 1901 C 179.335 -1.57436 0.327191 0
M  V30 1902 O 180.525 -1.64 0.587348 0
M  V30 1903 C 177.657 -3.16971 1.25467 0
M  V30 1904 H 178.85 -1.78108 2.41283 0
M  V30 1905 H 176.403 -0.89781 1.27942 0
M  V30 1906 H 177.138 -3.23019 0.287948 0
M  V30 1907 H 176.923 -3.33678 2.05917 0
M  V30 1908 H 178.413 -3.96935 1.2974 0
M  V30 1909 N 178.85 -1.27639 -0.924453 0
M  V30 1910 C 180.075 -1.17101 -1.71179 0
M  V30 1911 C 180.5 0.268134 -1.86179 0
M  V30 1912 O 179.858 1.19415 -1.36418 0
M  V30 1913 C 179.906 -1.86313 -3.08739 0
M  V30 1914 O 179.01 -1.16331 -3.95652 0
M  V30 1915 H 178.351 -0.407091 -0.524569 0
M  V30 1916 H 180.881 -1.68767 -1.15666 0
M  V30 1917 H 180.891 -1.938 -3.59034 0
M  V30 1918 H 179.566 -2.91001 -2.97138 0
M  V30 1919 H 178.143 -1.16935 -3.54091 0
M  V30 1920 N 180.328 1.1314 -1.09713 0
M  V30 1921 C 181.574 1.84757 -0.836224 0
M  V30 1922 C 181.907 1.8347 0.636598 0
M  V30 1923 O 181.182 1.27491 1.46889 0
M  V30 1924 C 181.465 3.32782 -1.37578 0
M  V30 1925 C 181.318 3.42567 -2.91493 0
M  V30 1926 C 182.637 4.28307 -1.01198 0
M  V30 1927 H 179.756 0.67082 -0.305236 0
M  V30 1928 H 182.398 1.3278 -1.35903 0
M  V30 1929 H 180.548 3.77177 -0.931097 0
M  V30 1930 H 182.22 3.06862 -3.44432 0
M  V30 1931 H 180.463 2.83349 -3.28475 0
M  V30 1932 H 181.134 4.46674 -3.24324 0
M  V30 1933 H 183.61 3.91999 -1.39556 0
M  V30 1934 H 182.486 5.30307 -1.41653 0
M  V30 1935 H 182.747 4.42029 0.0794833 0
M  V30 1936 N 181.806 0.884767 1.30421 0
M  V30 1937 C 183.217 0.553656 1.78302 0
M  V30 1938 C 183.568 -0.930153 1.7275 0
M  V30 1939 O 182.693 -1.72681 1.30423 0
M  V30 1940 C 183.288 0.998234 3.2376 0
M  V30 1941 C 181.847 0.71854 3.69478 0
M  V30 1942 C 180.994 1.18132 2.50879 0
M  V30 1943 H 183.945 1.06901 1.17294 0
M  V30 1944 H 183.966 0.327118 3.79091 0
M  V30 1945 H 183.478 2.0782 3.27769 0
M  V30 1946 H 181.579 -0.349444 3.70958 0
M  V30 1947 H 181.692 1.30595 4.60958 0
M  V30 1948 H 180.056 0.600669 2.47516 0
M  V30 1949 H 180.839 2.26902 2.57624 0
M  V30 1950 N 183.284 -1.43765 0.645699 0
M  V30 1951 C 184.53 -2.02197 0.156271 0
M  V30 1952 C 184.863 -1.50776 -1.22393 0
M  V30 1953 O 184.138 -0.697771 -1.81553 0
M  V30 1954 C 184.421 -3.59749 0.158872 0
M  V30 1955 C 184.274 -4.21419 1.57245 0
M  V30 1956 C 185.593 -4.37149 -0.50879 0
M  V30 1957 H 182.712 -0.734694 0.0582602 0
M  V30 1958 H 185.354 -1.71157 0.824951 0
M  V30 1959 H 183.504 -3.86325 -0.410525 0
M  V30 1960 H 185.176 -4.059 2.19186 0
M  V30 1961 H 183.419 -3.78356 2.122 0
M  V30 1962 H 184.09 -5.30482 1.52619 0
M  V30 1963 H 186.566 -4.16093 -0.024412 0
M  V30 1964 H 185.442 -5.4683 -0.476213 0
M  V30 1965 H 185.703 -4.12839 -1.58165 0
M  V30 1966 N 184.763 -0.387143 -1.52771 0
M  V30 1967 C 186.009 0.188506 -2.02525 0
M  V30 1968 C 186.364 1.44649 -1.26864 0
M  V30 1969 O 185.657 1.88189 -0.359945 0
M  V30 1970 C 185.851 0.512209 -3.53711 0
M  V30 1971 C 185.68 -0.712855 -4.44014 0
M  V30 1972 C 184.45 -1.23147 -4.90064 0
M  V30 1973 C 186.648 -1.58453 -4.89282 0
M  V30 1974 N 184.63 -2.41431 -5.64433 0
M  V30 1975 C 186.001 -2.61381 -5.6221 0
M  V30 1976 C 188.056 -1.60488 -4.71326 0
M  V30 1977 C 186.759 -3.66227 -6.19088 0
M  V30 1978 C 188.785 -2.6424 -5.29085 0
M  V30 1979 C 188.147 -3.6589 -6.01917 0
M  V30 1980 H 184.246 0.0311236 -0.78138 0
M  V30 1981 H 186.83 -0.536548 -1.87161 0
M  V30 1982 H 185.001 1.20632 -3.69192 0
M  V30 1983 H 186.733 1.07482 -3.90166 0
M  V30 1984 H 183.488 -0.792795 -4.66917 0
M  V30 1985 H 183.912 -3.01274 -6.0627 0
M  V30 1986 H 188.554 -0.83247 -4.14524 0
M  V30 1987 H 186.272 -4.44337 -6.74974 0
M  V30 1988 H 189.858 -2.66695 -5.17074 0
M  V30 1989 H 188.738 -4.44855 -6.45813 0
M  V30 1990 N 186.241 1.57166 -0.116904 0
M  V30 1991 C 187.189 2.16457 0.851418 0
M  V30 1992 C 188.183 1.11323 1.27686 0
M  V30 1993 O 189.389 1.2963 1.24884 0
M  V30 1994 H 185.764 0.69271 0.292672 0
M  V30 1995 H 187.735 2.96605 0.32685 0
M  V30 1996 C 186.484 2.77689 2.09246 0
M  V30 1997 H 185.807 3.58285 1.77402 0
M  V30 1998 H 187.247 3.22716 2.7501 0
M  V30 1999 C 185.706 1.74667 2.88085 0
M  V30 2000 O 186.236 1.19877 3.83396 0
M  V30 2001 N 184.442 1.44656 2.52038 0
M  V30 2002 H 183.989 1.89402 1.74599 0
M  V30 2003 H 183.947 0.759675 3.05084 0
M  V30 2004 N 187.719 -0.156864 1.56817 0
M  V30 2005 C 188.967 -0.869404 1.82444 0
M  V30 2006 C 189.288 -1.82147 0.69623 0
M  V30 2007 O 188.558 -1.93847 -0.28287 0
M  V30 2008 H 187.138 -0.324043 0.673056 0
M  V30 2009 H 189.8 -0.153224 1.94297 0
M  V30 2010 H 188.896 -1.43761 2.77019 0
M  V30 2011 N 189.197 -1.51736 -0.425897 0
M  V30 2012 C 190.127 -1.76827 -1.52494 0
M  V30 2013 C 191.108 -0.618524 -1.58456 0
M  V30 2014 O 192.293 -0.862416 -1.74 0
M  V30 2015 C 189.423 -1.90374 -2.90474 0
M  V30 2016 C 188.377 -3.0588 -2.99369 0
M  V30 2017 C 187.703 -3.04625 -4.3944 0
M  V30 2018 C 189.003 -4.45644 -2.72394 0
M  V30 2019 H 190.697 -2.68855 -1.31748 0
M  V30 2020 H 188.243 -1.29372 -0.632362 0
M  V30 2021 H 190.196 -2.0651 -3.6733 0
M  V30 2022 H 188.92 -0.95004 -3.12477 0
M  V30 2023 H 187.579 -2.89467 -2.24954 0
M  V30 2024 H 187.227 -2.0701 -4.58428 0
M  V30 2025 H 186.927 -3.82195 -4.46319 0
M  V30 2026 H 188.451 -3.22869 -5.18255 0
M  V30 2027 H 189.865 -4.62348 -3.38979 0
M  V30 2028 H 188.262 -5.25006 -2.9067 0
M  V30 2029 H 189.332 -4.54893 -1.67929 0
M  V30 2030 N 190.675 0.682077 -1.42076 0
M  V30 2031 C 191.903 1.47057 -1.4554 0
M  V30 2032 C 192.318 1.8869 -0.0645779 0
M  V30 2033 O 191.675 1.57666 0.919115 0
M  V30 2034 C 191.726 2.72442 -2.37609 0
M  V30 2035 O 191.447 2.32559 -3.71279 0
M  V30 2036 C 192.948 3.66069 -2.50017 0
M  V30 2037 H 190.168 0.452737 -0.495248 0
M  V30 2038 H 192.712 0.838695 -1.8651 0
M  V30 2039 H 190.867 3.31835 -1.9991 0
M  V30 2040 H 191.281 3.13475 -4.20516 0
M  V30 2041 H 192.755 4.50792 -3.18576 0
M  V30 2042 H 193.232 4.11476 -1.53572 0
M  V30 2043 H 193.838 3.12572 -2.88407 0
M  V30 2044 N 192.153 1.28127 0.917671 0
M  V30 2045 C 193.101 1.11569 2.04096 0
M  V30 2046 C 194.095 0.0360242 1.69362 0
M  V30 2047 O 195.301 0.194501 1.78946 0
M  V30 2048 H 191.676 0.344097 0.668656 0
M  V30 2049 H 193.647 2.06711 2.15205 0
M  V30 2050 C 192.396 0.790197 3.38602 0
M  V30 2051 H 191.719 1.61293 3.6582 0
M  V30 2052 H 193.159 0.714271 4.1794 0
M  V30 2053 C 191.618 -0.505897 3.3308 0
M  V30 2054 O 192.148 -1.53736 3.71117 0
M  V30 2055 N 190.354 -0.505193 2.86175 0
M  V30 2056 H 189.901 0.334621 2.55417 0
M  V30 2057 H 189.859 -1.37243 2.82863 0
M  V30 2058 N 193.631 -1.12557 1.10312 0
M  V30 2059 C 194.541 -2.21841 0.763142 0
M  V30 2060 C 195.557 -1.72354 -0.238801 0
M  V30 2061 O 196.733 -2.01249 -0.0778746 0
M  V30 2062 C 193.798 -3.46131 0.198632 0
M  V30 2063 C 192.859 -4.10464 1.25769 0
M  V30 2064 C 192.092 -5.28821 0.72002 0
M  V30 2065 O 192.315 -5.6859 -0.453993 0
M  V30 2066 O 191.249 -5.83437 1.47935 0
M  V30 2067 H 195.075 -2.53312 1.67532 0
M  V30 2068 H 192.66 -1.20867 0.878157 0
M  V30 2069 H 194.542 -4.2125 -0.112401 0
M  V30 2070 H 193.217 -3.16338 -0.686419 0
M  V30 2071 H 192.124 -3.3713 1.62156 0
M  V30 2072 H 193.457 -4.44408 2.11571 0
M  V30 2073 N 195.109 -0.891671 -1.2995 0
M  V30 2074 C 196.356 -0.513501 -1.95881 0
M  V30 2075 C 196.684 0.938655 -1.70351 0
M  V30 2076 O 195.939 1.67936 -1.00478 0
M  V30 2077 C 196.238 -0.742868 -3.49594 0
M  V30 2078 C 195.904 -2.17114 -3.95186 0
M  V30 2079 C 194.566 -2.56169 -4.07346 0
M  V30 2080 C 196.918 -3.10162 -4.18866 0
M  V30 2081 C 194.246 -3.87469 -4.4055 0
M  V30 2082 C 196.598 -4.41001 -4.53542 0
M  V30 2083 C 195.262 -4.79941 -4.63911 0
M  V30 2084 H 194.532 -0.187903 -0.71678 0
M  V30 2085 H 197.179 -1.1288 -1.54694 0
M  V30 2086 H 195.484 -0.044586 -3.91775 0
M  V30 2087 H 197.181 -0.429767 -3.9869 0
M  V30 2088 H 193.771 -1.85801 -3.86233 0
M  V30 2089 H 197.955 -2.81206 -4.08946 0
M  V30 2090 H 193.211 -4.17371 -4.46779 0
M  V30 2091 H 197.385 -5.13133 -4.70815 0
M  V30 2092 H 195.012 -5.81719 -4.89395 0
M  V30 2093 N 196.587 1.43421 -0.653314 0
M  V30 2094 C 197.537 2.2792 0.060558 0
M  V30 2095 C 198.521 1.39906 0.794677 0
M  V30 2096 O 199.713 1.63536 0.677128 0
M  V30 2097 C 196.842 3.27603 1.0262 0
M  V30 2098 C 195.928 4.23104 0.290551 0
M  V30 2099 N 196.319 5.01031 -0.692967 0
M  V30 2100 C 194.617 4.42816 0.531984 0
M  V30 2101 C 195.318 5.70626 -1.12963 0
M  V30 2102 N 194.294 5.41617 -0.463867 0
M  V30 2103 H 198.096 2.85585 -0.694143 0
M  V30 2104 H 195.61 1.55126 -0.480602 0
M  V30 2105 H 197.607 3.86918 1.55242 0
M  V30 2106 H 196.267 2.71499 1.78096 0
M  V30 2107 H 197.278 5.0669 -1.07169 0
M  V30 2108 H 193.955 3.97782 1.26791 0
M  V30 2109 H 195.345 6.4318 -1.94343 0
M  V30 2110 N 198.065 0.39524 1.52563 0
M  V30 2111 C 199.476 -0.0774719 1.86539 0
M  V30 2112 C 199.827 -1.45641 1.31466 0
M  V30 2113 O 198.952 -2.06459 0.648367 0
M  V30 2114 C 199.547 -0.147356 3.38479 0
M  V30 2115 C 198.106 -0.564373 3.72145 0
M  V30 2116 C 197.253 0.269919 2.75983 0
M  V30 2117 H 200.204 0.612876 1.46388 0
M  V30 2118 H 200.225 -0.965343 3.68051 0
M  V30 2119 H 199.737 0.856387 3.78534 0
M  V30 2120 H 197.838 -1.57527 3.37663 0
M  V30 2121 H 197.951 -0.318402 4.78041 0
M  V30 2122 H 196.315 -0.265696 2.5331 0
M  V30 2123 H 197.098 1.27175 3.18875 0
M  V30 2124 N 199.544 -1.57102 0.125237 0
M  V30 2125 C 200.772 -1.99761 -0.538797 0
M  V30 2126 C 201.187 -1.00503 -1.59827 0
M  V30 2127 O 200.544 0.00119474 -1.825 0
M  V30 2128 C 200.595 -3.42408 -1.15927 0
M  V30 2129 O 200.316 -4.37869 -0.142143 0
M  V30 2130 C 201.817 -4.00232 -1.90602 0
M  V30 2131 H 199.037 -0.655772 -0.14214 0
M  V30 2132 H 201.581 -2.03383 0.213413 0
M  V30 2133 H 199.736 -3.39706 -1.86223 0
M  V30 2134 H 200.15 -5.21128 -0.593775 0
M  V30 2135 H 201.624 -5.02105 -2.29335 0
M  V30 2136 H 202.101 -3.39721 -2.78363 0
M  V30 2137 H 202.707 -4.06499 -1.25055 0
M  V30 2138 N 201.022 0.148545 -1.56898 0
M  V30 2139 C 201.954 1.20852 -1.9475 0
M  V30 2140 C 202.967 1.39265 -0.843152 0
M  V30 2141 O 204.156 1.38864 -1.12156 0
M  V30 2142 C 201.256 2.57362 -2.20495 0
M  V30 2143 C 200.429 2.59947 -3.51776 0
M  V30 2144 C 199.488 3.77984 -3.6608 0
M  V30 2145 O 198.514 3.62929 -4.38487 0
M  V30 2146 N 199.716 4.95375 -3.02629 0
M  V30 2147 H 202.481 0.886804 -2.86279 0
M  V30 2148 H 200.042 0.338121 -1.5833 0
M  V30 2149 H 202.034 3.34833 -2.27307 0
M  V30 2150 H 200.604 2.81832 -1.35238 0
M  V30 2151 H 199.824 1.68403 -3.56419 0
M  V30 2152 H 201.112 2.58704 -4.38121 0
M  V30 2153 H 200.51 5.10509 -2.43715 0
M  V30 2154 H 199.067 5.70627 -3.15004 0
M  V30 2155 N 202.5 1.5196 0.417844 0
M  V30 2156 C 203.43 1.77634 1.51554 0
M  V30 2157 C 204.411 0.626918 1.58126 0
M  V30 2158 O 205.596 0.871632 1.7354 0
M  V30 2159 C 202.726 1.91911 2.8946 0
M  V30 2160 C 201.68 3.07463 2.97743 0
M  V30 2161 C 201.006 3.06951 4.37819 0
M  V30 2162 C 202.306 4.47082 2.70027 0
M  V30 2163 H 204 2.6955 1.3032 0
M  V30 2164 H 201.546 1.29706 0.625492 0
M  V30 2165 H 203.499 2.08455 3.6623 0
M  V30 2166 H 202.223 0.966598 3.11969 0
M  V30 2167 H 200.882 2.90656 2.23416 0
M  V30 2168 H 200.53 2.09438 4.57323 0
M  V30 2169 H 200.23 3.84556 4.44286 0
M  V30 2170 H 201.754 3.25613 5.16535 0
M  V30 2171 H 203.168 4.6414 3.36522 0
M  V30 2172 H 201.565 5.2654 2.87881 0
M  V30 2173 H 202.635 4.55777 1.65514 0
M  V30 2174 N 203.978 -0.674533 1.42435 0
M  V30 2175 C 204.908 -1.80009 1.48724 0
M  V30 2176 C 205.889 -1.6659 0.343793 0
M  V30 2177 O 207.074 -1.86007 0.558137 0
M  V30 2178 C 204.204 -3.18306 1.38919 0
M  V30 2179 C 203.158 -3.46461 2.51294 0
M  V30 2180 C 202.484 -4.84335 2.26547 0
M  V30 2181 C 203.784 -3.43328 3.93603 0
M  V30 2182 H 205.478 -1.75004 2.42928 0
M  V30 2183 H 203.024 -0.840533 1.16923 0
M  V30 2184 H 204.977 -3.9678 1.41927 0
M  V30 2185 H 203.701 -3.2399 0.412094 0
M  V30 2186 H 202.36 -2.70348 2.47604 0
M  V30 2187 H 202.008 -4.86669 1.2713 0
M  V30 2188 H 201.708 -5.04136 3.01861 0
M  V30 2189 H 203.232 -5.65094 2.31304 0
M  V30 2190 H 204.646 -4.11772 3.98894 0
M  V30 2191 H 203.043 -3.74664 4.68771 0
M  V30 2192 H 204.113 -2.41897 4.20255 0
M  V30 2193 N 205.456 -1.28612 -0.910864 0
M  V30 2194 C 206.419 -1.12803 -1.9952 0
M  V30 2195 C 207.419 -0.0668264 -1.60661 0
M  V30 2196 O 208.609 -0.312847 -1.71368 0
M  V30 2197 C 205.741 -0.72254 -3.33155 0
M  V30 2198 H 206.934 -2.09109 -2.14973 0
M  V30 2199 H 204.487 -1.11639 -1.09391 0
M  V30 2200 H 205.222 0.241152 -3.23402 0
M  V30 2201 H 205.007 -1.48916 -3.62721 0
M  V30 2202 H 206.497 -0.634666 -4.12749 0
M  V30 2203 N 206.934 1.1197 -1.10907 0
M  V30 2204 C 208.211 1.79959 -0.766432 0
M  V30 2205 C 208.591 1.97466 0.746363 0
M  V30 2206 O 207.939 1.55491 1.67436 0
M  V30 2207 C 208.149 3.14009 -1.52314 0
M  V30 2208 C 209.497 3.89134 -1.69883 0
M  V30 2209 O 210.521 3.2368 -1.48692 0
M  V30 2210 O 209.38 5.06572 -2.05054 0
M  V30 2211 H 206.474 0.779208 -0.277062 0
M  V30 2212 H 209.02 1.18762 -1.21217 0
M  V30 2213 H 207.792 2.96587 -2.55249 0
M  V30 2214 H 207.415 3.82915 -1.07059 0
M  V30 2215 N 208.412 0.89855 1.29475 0
M  V30 2216 C 209.342 0.39201 2.30186 0
M  V30 2217 C 210.323 -0.532359 1.61555 0
M  V30 2218 O 211.508 -0.443331 1.89072 0
M  V30 2219 C 208.638 -0.382353 3.45189 0
M  V30 2220 C 207.592 0.451483 4.25612 0
M  V30 2221 C 206.918 -0.450307 5.328 0
M  V30 2222 C 208.218 1.70079 4.93832 0
M  V30 2223 H 209.912 1.23362 2.72804 0
M  V30 2224 H 207.458 0.594638 1.31149 0
M  V30 2225 H 209.411 -0.747451 4.14718 0
M  V30 2226 H 208.135 -1.25774 3.01411 0
M  V30 2227 H 206.794 0.798897 3.57789 0
M  V30 2228 H 206.442 -1.32379 4.85268 0
M  V30 2229 H 206.142 0.103902 5.87508 0
M  V30 2230 H 207.666 -0.811623 6.05182 0
M  V30 2231 H 209.08 1.40549 5.55805 0
M  V30 2232 H 207.477 2.19623 5.58467 0
M  V30 2233 H 208.547 2.43744 4.19186 0
M  V30 2234 N 209.89 -1.43072 0.660911 0
M  V30 2235 C 210.82 -2.33497 -0.0122829 0
M  V30 2236 C 211.801 -1.49903 -0.803925 0
M  V30 2237 O 212.986 -1.78546 -0.763864 0
M  V30 2238 C 210.116 -3.33363 -0.973994 0
M  V30 2239 C 209.07 -4.27003 -0.291928 0
M  V30 2240 C 208.396 -5.16967 -1.36562 0
M  V30 2241 C 209.696 -5.15816 0.820462 0
M  V30 2242 H 211.39 -2.90038 0.742873 0
M  V30 2243 H 208.936 -1.39461 0.358688 0
M  V30 2244 H 210.889 -3.95524 -1.45392 0
M  V30 2245 H 209.613 -2.75095 -1.7604 0
M  V30 2246 H 208.272 -3.66217 0.167623 0
M  V30 2247 H 207.92 -4.55034 -2.14366 0
M  V30 2248 H 207.62 -5.80441 -0.914454 0
M  V30 2249 H 209.144 -5.82003 -1.84675 0
M  V30 2250 H 210.558 -5.71742 0.422366 0
M  V30 2251 H 208.955 -5.8805 1.19656 0
M  V30 2252 H 210.025 -4.55045 1.67518 0
M  V30 2253 N 211.368 -0.403325 -1.52352 0
M  V30 2254 C 212.596 0.174012 -2.06167 0
M  V30 2255 C 213.011 1.39347 -1.27388 0
M  V30 2256 O 212.368 1.79597 -0.324201 0
M  V30 2257 C 212.419 0.530223 -3.5759 0
M  V30 2258 O 212.14 -0.640806 -4.33388 0
M  V30 2259 C 213.641 1.16192 -4.27802 0
M  V30 2260 H 210.861 0.0229464 -0.670608 0
M  V30 2261 H 213.405 -0.572604 -1.9632 0
M  V30 2262 H 211.56 1.22673 -3.67464 0
M  V30 2263 H 211.974 -0.344851 -5.23365 0
M  V30 2264 H 213.448 1.36141 -5.34948 0
M  V30 2265 H 213.925 2.13335 -3.83907 0
M  V30 2266 H 214.531 0.505775 -4.22282 0
M  V30 2267 N 212.846 1.57033 -0.133567 0
M  V30 2268 C 213.779 2.11824 0.848872 0
M  V30 2269 C 214.757 1.03833 1.2513 0
M  V30 2270 O 215.941 1.31579 1.34978 0
M  V30 2271 C 213.068 2.62692 2.138 0
M  V30 2272 C 212.114 3.82705 1.88253 0
M  V30 2273 S 212.947 5.2438 1.08563 0
M  V30 2274 C 214.103 5.78627 2.38624 0
M  V30 2275 H 214.336 2.94824 0.38289 0
M  V30 2276 H 211.869 1.5419 0.0804796 0
M  V30 2277 H 213.827 2.92652 2.87863 0
M  V30 2278 H 212.488 1.79847 2.57515 0
M  V30 2279 H 211.681 4.16496 2.83809 0
M  V30 2280 H 211.283 3.53437 1.22305 0
M  V30 2281 H 213.575 5.8924 3.34369 0
M  V30 2282 H 214.518 6.76443 2.09358 0
M  V30 2283 H 214.926 5.06783 2.48658 0
M  V30 2284 N 214.325 -0.140222 1.56975 0
M  V30 2285 C 215.257 -1.19818 1.95388 0
M  V30 2286 C 216.27 -1.38816 0.850525 0
M  V30 2287 O 217.459 -1.38267 1.12891 0
M  V30 2288 C 214.559 -2.56189 2.21857 0
M  V30 2289 C 213.732 -2.58077 3.5315 0
M  V30 2290 C 212.791 -3.76037 3.6808 0
M  V30 2291 O 211.817 -3.60598 4.40406 0
M  V30 2292 N 213.019 -4.93763 3.05251 0
M  V30 2293 H 215.784 -0.871609 2.86746 0
M  V30 2294 H 213.345 -0.32972 1.58507 0
M  V30 2295 H 215.337 -3.33623 2.2908 0
M  V30 2296 H 213.907 -2.81111 1.36731 0
M  V30 2297 H 213.127 -1.6651 3.57307 0
M  V30 2298 H 214.415 -2.56377 4.39486 0
M  V30 2299 H 213.813 -5.09209 2.46419 0
M  V30 2300 H 212.37 -5.68949 3.18026 0
M  V30 2301 N 215.803 -1.52179 -0.40978 0
M  V30 2302 C 216.713 -1.78364 -1.52392 0
M  V30 2303 C 217.729 -0.669183 -1.60617 0
M  V30 2304 O 218.905 -0.954518 -1.77344 0
M  V30 2305 C 215.97 -1.92822 -2.88133 0
M  V30 2306 C 215.031 -3.16725 -2.898 0
M  V30 2307 C 214.264 -3.30483 -4.19067 0
M  V30 2308 O 214.487 -2.49522 -5.12928 0
M  V30 2309 O 213.421 -4.2363 -4.27576 0
M  V30 2310 H 217.247 -2.72931 -1.33201 0
M  V30 2311 H 214.832 -1.37016 -0.59557 0
M  V30 2312 H 216.714 -2.04157 -3.68643 0
M  V30 2313 H 215.389 -1.01444 -3.07393 0
M  V30 2314 H 214.296 -3.10848 -2.08146 0
M  V30 2315 H 215.629 -4.07881 -2.75489 0
M  V30 2316 N 217.281 0.66697 -1.42791 0
M  V30 2317 C 218.231 1.77313 -1.43332 0
M  V30 2318 C 219.215 1.5801 -0.303586 0
M  V30 2319 O 220.407 1.68356 -0.546385 0
M  V30 2320 C 217.536 3.15822 -1.34578 0
M  V30 2321 C 216.622 3.40721 -2.52528 0
M  V30 2322 N 217.013 3.36162 -3.77927 0
M  V30 2323 C 215.311 3.71387 -2.46956 0
M  V30 2324 C 216.012 3.60762 -4.56318 0
M  V30 2325 N 214.988 3.81908 -3.86843 0
M  V30 2326 H 218.79 1.72193 -2.38174 0
M  V30 2327 H 216.304 0.868114 -1.3725 0
M  V30 2328 H 218.301 3.951 -1.33048 0
M  V30 2329 H 216.961 3.22133 -0.407453 0
M  V30 2330 H 217.972 3.15885 -4.10411 0
M  V30 2331 H 214.649 3.84897 -1.61743 0
M  V30 2332 H 216.039 3.63132 -5.65318 0
M  V30 2333 N 218.759 1.29093 0.90403 0
M  V30 2334 C 219.689 1.16401 2.02418 0
M  V30 2335 C 220.67 0.0593085 1.69997 0
M  V30 2336 O 221.855 0.238021 1.92736 0
M  V30 2337 C 218.985 0.835233 3.37107 0
M  V30 2338 C 217.939 1.89578 3.83724 0
M  V30 2339 C 217.265 1.42041 5.15489 0
M  V30 2340 C 218.565 3.30394 4.04521 0
M  V30 2341 H 220.259 2.10109 2.13295 0
M  V30 2342 H 217.805 1.01157 1.02486 0
M  V30 2343 H 219.758 0.733169 4.14973 0
M  V30 2344 H 218.482 -0.137543 3.2631 0
M  V30 2345 H 217.141 1.98715 3.08071 0
M  V30 2346 H 216.789 0.436426 5.01103 0
M  V30 2347 H 216.489 2.12964 5.4765 0
M  V30 2348 H 218.013 1.33176 5.959 0
M  V30 2349 H 219.427 3.24123 4.72882 0
M  V30 2350 H 217.824 3.99237 4.48029 0
M  V30 2351 H 218.894 3.73692 3.09002 0
M  V30 2352 N 220.237 -1.11381 1.11499 0
M  V30 2353 C 221.648 -1.6465 0.880191 0
M  V30 2354 C 221.999 -1.87199 -0.587434 0
M  V30 2355 O 221.124 -1.60667 -1.44966 0
M  V30 2356 C 221.719 -2.99105 1.59128 0
M  V30 2357 C 220.278 -3.49279 1.40289 0
M  V30 2358 C 219.425 -2.24077 1.63354 0
M  V30 2359 H 222.376 -0.950123 1.27116 0
M  V30 2360 H 222.397 -3.66107 1.03664 0
M  V30 2361 H 221.909 -2.82661 2.65941 0
M  V30 2362 H 220.01 -3.70887 0.356888 0
M  V30 2363 H 220.123 -4.2803 2.15238 0
M  V30 2364 H 218.487 -2.31733 1.05698 0
M  V30 2365 H 219.27 -2.10175 2.71443 0
M  V30 2366 N 221.715 -0.905404 -1.28997 0
M  V30 2367 C 222.963 -0.533192 -1.9494 0
M  V30 2368 C 223.284 0.924618 -1.71685 0
M  V30 2369 O 222.554 1.65268 -1.05183 0
M  V30 2370 H 221.134 -0.194194 -0.721317 0
M  V30 2371 H 223.796 -1.15294 -1.57141 0
M  V30 2372 H 222.892 -0.72059 -3.03667 0
M  V30 2373 N 223.193 1.4272 -0.668489 0
M  V30 2374 C 224.14 2.30796 0.0137489 0
M  V30 2375 C 225.11 1.4561 0.799177 0
M  V30 2376 O 226.295 1.74453 0.772702 0
M  V30 2377 C 223.435 3.31377 0.963507 0
M  V30 2378 C 222.548 4.31655 0.172569 0
M  V30 2379 C 221.683 5.19312 1.1175 0
M  V30 2380 C 220.722 6.11274 0.317886 0
M  V30 2381 N 219.859 6.91504 1.2152 0
M  V30 2382 H 224.699 2.88585 -0.743161 0
M  V30 2383 H 222.236 1.42154 -0.378226 0
M  V30 2384 H 224.194 3.88214 1.52792 0
M  V30 2385 H 222.824 2.75202 1.68712 0
M  V30 2386 H 221.876 3.76988 -0.508374 0
M  V30 2387 H 223.188 4.96779 -0.448527 0
M  V30 2388 H 222.342 5.80851 1.75206 0
M  V30 2389 H 221.081 4.5435 1.77249 0
M  V30 2390 H 220.086 5.48809 -0.329918 0
M  V30 2391 H 221.311 6.78283 -0.332917 0
M  V30 2392 H 219.257 6.29176 1.85671 0
M  V30 2393 H 219.174 7.53209 0.649036 0
M  V30 2394 H 220.442 7.57535 1.83742 0
M  V30 2395 N 224.671 0.411399 1.52136 0
M  V30 2396 C 225.634 -0.401089 2.25663 0
M  V30 2397 C 226.634 -0.971732 1.28117 0
M  V30 2398 O 227.824 -0.850254 1.52041 0
M  V30 2399 C 224.956 -1.56483 3.02863 0
M  V30 2400 H 226.149 0.24295 2.98914 0
M  V30 2401 H 223.702 0.163968 1.55438 0
M  V30 2402 H 224.437 -2.24567 2.33967 0
M  V30 2403 H 224.222 -1.16211 3.74483 0
M  V30 2404 H 225.712 -2.13951 3.58629 0
M  V30 2405 N 226.149 -1.5696 0.141893 0
M  V30 2406 C 227.396 -1.9596 -0.510492 0
M  V30 2407 C 227.724 -1.02648 -1.65208 0
M  V30 2408 O 226.979 -0.0546947 -1.95624 0
M  V30 2409 C 227.278 -3.41242 -1.06249 0
M  V30 2410 C 226.944 -4.50882 -0.0398791 0
M  V30 2411 C 225.606 -4.80595 0.241247 0
M  V30 2412 C 227.958 -5.17058 0.65578 0
M  V30 2413 C 225.286 -5.73792 1.22393 0
M  V30 2414 C 227.638 -6.11313 1.62724 0
M  V30 2415 C 226.302 -6.39407 1.91612 0
M  V30 2416 H 225.572 -0.717068 -0.186802 0
M  V30 2417 H 228.219 -1.90142 0.227643 0
M  V30 2418 H 226.524 -3.43866 -1.87785 0
M  V30 2419 H 228.221 -3.68742 -1.57576 0
M  V30 2420 H 224.811 -4.27754 -0.269174 0
M  V30 2421 H 228.995 -4.94239 0.451779 0
M  V30 2422 H 224.251 -5.93853 1.45424 0
M  V30 2423 H 228.425 -6.61668 2.17183 0
M  V30 2424 H 226.052 -7.11427 2.6791 0
M  V30 2425 N 227.627 0.131896 -1.57047 0
M  V30 2426 C 228.575 1.18146 -2.0036 0
M  V30 2427 C 229.569 1.43614 -0.898406 0
M  V30 2428 O 230.775 1.43729 -1.08361 0
M  V30 2429 H 227.15 0.398042 -0.638018 0
M  V30 2430 H 229.121 0.789564 -2.87765 0
M  V30 2431 C 227.87 2.50341 -2.41298 0
M  V30 2432 H 227.193 2.31578 -3.25902 0
M  V30 2433 H 228.633 3.22371 -2.75414 0
M  V30 2434 C 227.092 3.11984 -1.27153 0
M  V30 2435 O 227.622 3.97484 -0.580459 0
M  V30 2436 N 225.828 2.71662 -1.03189 0
M  V30 2437 H 225.375 2.02231 -1.59564 0
M  V30 2438 H 225.333 3.13238 -0.270077 0
M  V30 2439 N 229.106 1.52395 0.401703 0
M  V30 2440 C 230.016 1.7917 1.51444 0
M  V30 2441 C 231.032 0.677691 1.6026 0
M  V30 2442 O 232.208 0.963909 1.76835 0
M  V30 2443 C 229.273 1.94347 2.87107 0
M  V30 2444 C 228.334 3.18257 2.88116 0
M  V30 2445 C 227.567 3.32701 4.17308 0
M  V30 2446 O 227.79 2.52238 5.11598 0
M  V30 2447 O 226.724 4.25891 4.25324 0
M  V30 2448 H 230.55 2.73633 1.31752 0
M  V30 2449 H 228.135 1.3733 0.588296 0
M  V30 2450 H 230.017 2.06109 3.67555 0
M  V30 2451 H 228.692 1.03073 3.06851 0
M  V30 2452 H 227.599 3.11947 2.06494 0
M  V30 2453 H 228.932 4.09336 2.73322 0
M  V30 2454 N 230.584 -0.659388 1.43143 0
M  V30 2455 C 231.517 -1.78425 1.42267 0
M  V30 2456 C 232.495 -1.60085 0.284894 0
M  V30 2457 O 233.679 -1.82351 0.477527 0
M  V30 2458 C 230.806 -3.15642 1.22833 0
M  V30 2459 C 229.852 -3.52698 2.39806 0
M  V30 2460 S 230.685 -3.53372 4.02353 0
M  V30 2461 C 231.841 -4.93256 3.85291 0
M  V30 2462 H 232.074 -1.78897 2.37452 0
M  V30 2463 H 229.607 -0.831469 1.301 0
M  V30 2464 H 231.565 -3.94838 1.12308 0
M  V30 2465 H 230.226 -3.12739 0.29207 0
M  V30 2466 H 229.419 -4.52475 2.21996 0
M  V30 2467 H 229.021 -2.80899 2.46925 0
M  V30 2468 H 231.313 -5.81751 3.47235 0
M  V30 2469 H 232.256 -5.16115 4.84799 0
M  V30 2470 H 232.664 -4.665 3.17865 0
M  V30 2471 N 232.062 -1.29571 -0.897171 0
M  V30 2472 C 233.29 -1.20583 -1.68129 0
M  V30 2473 C 233.705 0.233181 -1.87354 0
M  V30 2474 O 233.062 1.15579 -1.41236 0
M  V30 2475 C 233.113 -1.91772 -3.06441 0
M  V30 2476 O 232.834 -3.30053 -2.88091 0
M  V30 2477 C 234.335 -1.89291 -4.00854 0
M  V30 2478 H 231.555 -0.417826 -0.525036 0
M  V30 2479 H 234.099 -1.70987 -1.12177 0
M  V30 2480 H 232.254 -1.45196 -3.59161 0
M  V30 2481 H 232.668 -3.65942 -3.75748 0
M  V30 2482 H 234.142 -2.43662 -4.95311 0
M  V30 2483 H 234.619 -0.869014 -4.30517 0
M  V30 2484 H 235.225 -2.35622 -3.54066 0
M  V30 2485 N 233.54 1.10788 -1.12088 0
M  V30 2486 C 234.47 2.19083 -0.807755 0
M  V30 2487 C 235.451 1.6858 0.226859 0
M  V30 2488 O 236.636 1.93997 0.0888475 0
M  V30 2489 C 233.766 3.46344 -0.257576 0
M  V30 2490 C 232.72 4.101 -1.22483 0
M  V30 2491 C 232.046 5.32016 -0.535052 0
M  V30 2492 C 233.346 4.54236 -2.57811 0
M  V30 2493 H 235.04 2.45534 -1.71328 0
M  V30 2494 H 232.586 1.1801 -0.825205 0
M  V30 2495 H 234.539 4.21392 -0.0262679 0
M  V30 2496 H 233.263 3.19373 0.683278 0
M  V30 2497 H 231.922 3.37054 -1.44189 0
M  V30 2498 H 231.57 5.01319 0.410827 0
M  V30 2499 H 231.27 5.75625 -1.18024 0
M  V30 2500 H 232.794 6.09799 -0.312695 0
M  V30 2501 H 234.208 5.20575 -2.40155 0
M  V30 2502 H 232.605 5.08682 -3.18375 0
M  V30 2503 H 233.675 3.6734 -3.16528 0
M  V30 2504 N 235.018 0.912232 1.28515 0
M  V30 2505 C 236.264 0.545405 1.95328 0
M  V30 2506 C 236.597 -0.908313 1.71649 0
M  V30 2507 O 235.872 -1.64575 1.03659 0
M  V30 2508 C 236.155 0.853483 3.4984 0
M  V30 2509 C 236.008 2.35982 3.82926 0
M  V30 2510 C 237.327 0.348589 4.38717 0
M  V30 2511 H 234.446 0.199626 0.709449 0
M  V30 2512 H 237.088 1.1412 1.5191 0
M  V30 2513 H 235.238 0.34643 3.86952 0
M  V30 2514 H 236.91 2.93738 3.55691 0
M  V30 2515 H 235.153 2.81543 3.30024 0
M  V30 2516 H 235.824 2.52593 4.90816 0
M  V30 2517 H 238.3 0.78294 4.08668 0
M  V30 2518 H 237.176 0.593242 5.45685 0
M  V30 2519 H 237.437 -0.751049 4.35674 0
M  V30 2520 N 236.496 -1.42363 0.676048 0
M  V30 2521 C 237.726 -2.05561 0.206967 0
M  V30 2522 C 238.134 -1.50887 -1.14148 0
M  V30 2523 O 237.477 -0.643933 -1.72044 0
M  V30 2524 C 237.539 -3.5944 0.0659508 0
M  V30 2525 C 237.203 -4.36812 1.34331 0
M  V30 2526 C 238.2 -4.67383 2.27704 0
M  V30 2527 C 235.885 -4.76429 1.59125 0
M  V30 2528 C 237.879 -5.36509 3.44147 0
M  V30 2529 C 235.566 -5.45294 2.75857 0
M  V30 2530 C 236.564 -5.75259 3.68193 0
M  V30 2531 O 236.252 -6.42712 4.82883 0
M  V30 2532 H 235.984 -0.668872 0.0979084 0
M  V30 2533 H 238.538 -1.83467 0.923531 0
M  V30 2534 H 236.768 -3.80197 -0.706204 0
M  V30 2535 H 238.457 -4.0427 -0.363418 0
M  V30 2536 H 239.223 -4.37275 2.09799 0
M  V30 2537 H 235.102 -4.52498 0.881258 0
M  V30 2538 H 238.646 -5.59814 4.16238 0
M  V30 2539 H 234.543 -5.7482 2.93688 0
M  V30 2540 H 235.311 -6.61204 4.82444 0
M  V30 2541 N 237.974 -0.419461 -1.51915 0
M  V30 2542 C 238.937 0.389116 -2.25873 0
M  V30 2543 C 239.937 0.964924 -1.28631 0
M  V30 2544 O 241.127 0.842179 -1.52489 0
M  V30 2545 C 238.259 1.54874 -3.03689 0
M  V30 2546 H 239.452 -0.258799 -2.98781 0
M  V30 2547 H 237.005 -0.172209 -1.55348 0
M  V30 2548 H 237.74 2.23323 -2.35154 0
M  V30 2549 H 237.525 1.14223 -3.75094 0
M  V30 2550 H 239.015 2.12046 -3.59759 0
M  V30 2551 N 239.452 1.56882 -0.150215 0
M  V30 2552 C 240.7 1.9584 0.499105 0
M  V30 2553 C 241.021 1.03623 1.65188 0
M  V30 2554 O 240.291 0.0984084 1.95653 0
M  V30 2555 H 238.871 0.723119 0.187373 0
M  V30 2556 H 241.533 1.9358 -0.226466 0
M  V30 2557 H 240.629 2.99638 0.873122 0
M  V30 2558 N 240.93 -0.123565 1.57115 0
M  V30 2559 C 242.207 -0.862196 1.75572 0
M  V30 2560 C 242.587 -1.98279 0.724475 0
M  V30 2561 O 241.935 -2.27102 -0.252407 0
M  V30 2562 C 242.145 -1.38309 3.20424 0
M  V30 2563 C 243.493 -1.83724 3.82793 0
M  V30 2564 O 244.517 -1.47999 3.23998 0
M  V30 2565 O 243.376 -2.49685 4.86127 0
M  V30 2566 H 240.47 -0.409113 0.718718 0
M  V30 2567 H 243.016 -0.107661 1.69358 0
M  V30 2568 H 241.788 -0.578889 3.86994 0
M  V30 2569 H 241.411 -2.20046 3.31158 0
M  V30 2570 N 242.408 -1.52605 -0.393616 0
M  V30 2571 C 243.371 -1.76415 -1.46323 0
M  V30 2572 C 244.371 -0.634126 -1.47768 0
M  V30 2573 O 245.561 -0.902142 -1.4902 0
M  V30 2574 C 242.693 -1.8607 -2.85641 0
M  V30 2575 H 243.886 -2.71916 -1.26498 0
M  V30 2576 H 241.439 -1.43257 -0.625073 0
M  V30 2577 H 242.174 -0.925378 -3.10817 0
M  V30 2578 H 241.959 -2.68235 -2.85993 0
M  V30 2579 H 243.449 -2.06179 -3.63153 0
M  V30 2580 N 243.887 0.651787 -1.4349 0
M  V30 2581 C 245.303 0.96762 -1.26922 0
M  V30 2582 C 245.503 2.00602 -0.189982 0
M  V30 2583 O 244.559 2.48793 0.431107 0
M  V30 2584 C 245.872 1.45052 -2.63401 0
M  V30 2585 C 247.42 1.5671 -2.70945 0
M  V30 2586 C 247.895 2.0839 -4.07845 0
M  V30 2587 N 249.386 2.1569 -4.09917 0
M  V30 2588 C 250.121 2.56804 -5.12679 0
M  V30 2589 N 249.617 2.97203 -6.25813 0
M  V30 2590 N 251.41 2.56756 -5.00033 0
M  V30 2591 H 243.561 -0.0353158 -2.12371 0
M  V30 2592 H 245.824 0.0467858 -0.946845 0
M  V30 2593 H 245.53 0.761926 -3.43348 0
M  V30 2594 H 245.404 2.42529 -2.88894 0
M  V30 2595 H 247.791 2.2467 -1.9133 0
M  V30 2596 H 247.872 0.57662 -2.49216 0
M  V30 2597 H 247.516 1.41031 -4.87927 0
M  V30 2598 H 247.446 3.08271 -4.26938 0
M  V30 2599 H 249.937 1.87237 -3.28254 0
M  V30 2600 H 250.25 3.27328 -7.00055 0
M  V30 2601 H 248.595 2.95004 -6.29283 0
M  V30 2602 H 251.786 2.24572 -4.10713 0
M  V30 2603 H 251.959 2.88475 -5.80247 0
M  V30 2604 N 245.365 1.30045 0.890287 0
M  V30 2605 C 246.313 1.15873 2.01683 0
M  V30 2606 C 247.307 0.0719403 1.69247 0
M  V30 2607 O 248.513 0.232414 1.78493 0
M  V30 2608 H 244.888 0.358203 0.661207 0
M  V30 2609 H 246.859 2.11229 2.10772 0
M  V30 2610 C 245.608 0.861842 3.36849 0
M  V30 2611 H 244.931 1.69016 3.62317 0
M  V30 2612 H 246.371 0.802762 4.16331 0
M  V30 2613 C 244.83 -0.435132 3.34078 0
M  V30 2614 O 245.36 -1.4583 3.74295 0
M  V30 2615 N 243.566 -0.444377 2.87182 0
M  V30 2616 H 243.113 0.388723 2.5465 0
M  V30 2617 H 243.071 -1.31213 2.85711 0
M  V30 2618 N 246.843 -1.10192 1.12674 0
M  V30 2619 C 247.791 -2.18694 0.792196 0
M  V30 2620 C 248.785 -1.67938 -0.222058 0
M  V30 2621 O 249.991 -1.79822 -0.0800074 0
M  V30 2622 H 246.366 -0.713223 0.238364 0
M  V30 2623 H 248.337 -2.44149 1.71564 0
M  V30 2624 C 247.086 -3.46682 0.265859 0
M  V30 2625 H 246.409 -3.86101 1.03761 0
M  V30 2626 H 247.849 -4.23942 0.0701128 0
M  V30 2627 C 246.308 -3.21506 -1.00675 0
M  V30 2628 O 246.838 -3.43408 -2.08408 0
M  V30 2629 N 245.044 -2.75158 -0.934692 0
M  V30 2630 H 244.591 -2.57535 -0.0578604 0
M  V30 2631 H 244.549 -2.58691 -1.7868 0
M  V30 2632 N 248.321 -0.919034 -1.28029 0
M  V30 2633 C 249.254 -0.355887 -2.25408 0
M  V30 2634 C 250.232 0.542874 -1.5327 0
M  V30 2635 O 251.416 0.485338 -1.82145 0
M  V30 2636 C 248.543 0.490759 -3.35126 0
M  V30 2637 C 247.589 -0.343358 -4.25116 0
M  V30 2638 S 248.422 -1.75344 -5.05979 0
M  V30 2639 C 249.578 -0.914244 -6.19187 0
M  V30 2640 H 249.811 -1.18123 -2.72826 0
M  V30 2641 H 247.344 -0.720636 -1.36551 0
M  V30 2642 H 249.302 0.973404 -3.98792 0
M  V30 2643 H 247.963 1.29054 -2.86363 0
M  V30 2644 H 247.156 0.304266 -5.03081 0
M  V30 2645 H 246.758 -0.759851 -3.662 0
M  V30 2646 H 249.05 -0.146282 -6.77342 0
M  V30 2647 H 249.993 -1.66661 -6.88208 0
M  V30 2648 H 250.401 -0.460082 -5.62622 0
M  V30 2649 N 249.799 1.42003 -0.683588 0
M  V30 2650 C 251.047 2.01015 -0.209101 0
M  V30 2651 C 251.368 1.54365 1.19149 0
M  V30 2652 O 250.638 0.769083 1.80172 0
M  V30 2653 H 249.218 0.743294 -0.074315 0
M  V30 2654 H 251.88 1.73798 -0.882066 0
M  V30 2655 H 250.976 3.11343 -0.2172 0
M  V30 2656 N 251.277 0.427512 1.51691 0
M  V30 2657 C 252.225 -0.403359 2.29076 0
M  V30 2658 C 253.219 -1.02962 1.34518 0
M  V30 2659 O 254.425 -0.965715 1.51901 0
M  V30 2660 H 250.8 -0.148879 0.737115 0
M  V30 2661 H 252.771 0.270295 2.97173 0
M  V30 2662 C 251.52 -1.49763 3.13794 0
M  V30 2663 H 250.843 -1.02508 3.86435 0
M  V30 2664 H 252.283 -2.05244 3.71014 0
M  V30 2665 C 250.742 -2.47536 2.28533 0
M  V30 2666 O 251.272 -3.51848 1.93819 0
M  V30 2667 N 249.478 -2.18187 1.91945 0
M  V30 2668 H 249.025 -1.33389 2.20375 0
M  V30 2669 H 248.983 -2.83848 1.35195 0
M  V30 2670 N 252.755 -1.56801 0.158532 0
M  V30 2671 C 253.98 -2.01295 -0.499516 0
M  V30 2672 C 254.405 -1.03799 -1.56867 0
M  V30 2673 O 253.763 -0.0155162 -1.81293 0
M  V30 2674 C 253.811 -3.44469 -1.06647 0
M  V30 2675 O 252.915 -3.50012 -2.18095 0
M  V30 2676 H 252.256 -0.652884 -0.12099 0
M  V30 2677 H 254.786 -2.02958 0.258661 0
M  V30 2678 H 254.796 -3.8351 -1.39227 0
M  V30 2679 H 253.471 -4.14932 -0.283581 0
M  V30 2680 H 252.048 -3.22822 -1.86656 0
M  V30 2681 N 254.233 0.115231 -1.57178 0
M  V30 2682 C 255.166 1.17166 -1.95825 0
M  V30 2683 C 256.144 1.39912 -0.828463 0
M  V30 2684 O 257.328 1.54004 -1.08697 0
M  V30 2685 C 254.455 2.52478 -2.25771 0
M  V30 2686 C 253.501 2.46136 -3.48309 0
M  V30 2687 S 254.334 1.89736 -5.0076 0
M  V30 2688 C 255.49 3.26713 -5.33863 0
M  V30 2689 H 255.723 0.842103 -2.85124 0
M  V30 2690 H 253.256 0.322136 -1.51002 0
M  V30 2691 H 255.214 3.30332 -2.43702 0
M  V30 2692 H 253.875 2.82609 -1.37079 0
M  V30 2693 H 253.068 3.45819 -3.66641 0
M  V30 2694 H 252.67 1.76404 -3.29784 0
M  V30 2695 H 254.962 4.22935 -5.29275 0
M  V30 2696 H 255.905 3.13205 -6.35065 0
M  V30 2697 H 256.313 3.25316 -4.61335 0
M  V30 2698 N 255.711 1.52812 0.385517 0
M  V30 2699 C 256.641 1.80808 1.47752 0
M  V30 2700 C 257.622 0.660318 1.5676 0
M  V30 2701 O 258.807 0.908246 1.71652 0
M  V30 2702 C 255.937 1.98008 2.85324 0
M  V30 2703 C 254.891 3.13709 2.91154 0
M  V30 2704 C 254.217 3.16169 4.31209 0
M  V30 2705 C 255.517 4.52709 2.60483 0
M  V30 2706 H 257.211 2.72253 1.24573 0
M  V30 2707 H 254.757 1.31003 0.597839 0
M  V30 2708 H 256.71 2.16176 3.61726 0
M  V30 2709 H 255.434 1.03255 3.09848 0
M  V30 2710 H 254.093 2.95329 2.17201 0
M  V30 2711 H 253.741 2.19092 4.52778 0
M  V30 2712 H 253.441 3.93894 4.36029 0
M  V30 2713 H 254.965 3.36496 5.09512 0
M  V30 2714 H 256.379 4.71173 3.26602 0
M  V30 2715 H 254.776 5.32528 2.76648 0
M  V30 2716 H 255.846 4.59186 1.55809 0
M  V30 2717 N 257.189 -0.644168 1.43834 0
M  V30 2718 C 258.099 -1.78563 1.52159 0
M  V30 2719 C 259.115 -1.69147 0.408069 0
M  V30 2720 O 260.291 -1.90156 0.663524 0
M  V30 2721 C 257.356 -3.14888 1.45073 0
M  V30 2722 C 256.417 -3.36034 2.6717 0
M  V30 2723 C 255.65 -4.65855 2.60413 0
M  V30 2724 O 255.873 -5.45805 1.65689 0
M  V30 2725 O 254.807 -4.88918 3.5106 0
M  V30 2726 H 258.633 -1.74494 2.48567 0
M  V30 2727 H 256.218 -0.80378 1.25935 0
M  V30 2728 H 258.1 -3.96179 1.43597 0
M  V30 2729 H 256.775 -3.19528 0.518037 0
M  V30 2730 H 255.682 -2.54472 2.74217 0
M  V30 2731 H 257.015 -3.36247 3.59442 0
M  V30 2732 N 258.668 -1.30515 -0.883378 0
M  V30 2733 C 259.631 -1.1701 -1.97082 0
M  V30 2734 C 260.631 -0.10089 -1.60483 0
M  V30 2735 O 261.821 -0.349127 -1.70666 0
M  V30 2736 C 258.953 -0.793045 -3.31547 0
M  V30 2737 H 260.146 -2.13622 -2.10489 0
M  V30 2738 H 257.699 -1.13935 -1.06998 0
M  V30 2739 H 258.434 0.172499 -3.23841 0
M  V30 2740 H 258.219 -1.56576 -3.5948 0
M  V30 2741 H 259.709 -0.722073 -4.1131 0
M  V30 2742 N 260.146 1.09593 -1.13257 0
M  V30 2743 C 261.109 2.14359 -0.811358 0
M  V30 2744 C 262.109 1.59808 0.178377 0
M  V30 2745 O 263.299 1.74132 -0.0484911 0
M  V30 2746 C 260.431 3.40269 -0.207276 0
M  V30 2747 H 261.624 2.44284 -1.73969 0
M  V30 2748 H 259.177 1.25102 -0.936973 0
M  V30 2749 H 259.912 3.15969 0.73036 0
M  V30 2750 H 259.697 3.81154 -0.919992 0
M  V30 2751 H 261.187 4.176 0.000667944 0
M  V30 2752 N 261.624 0.925811 1.2754 0
M  V30 2753 C 262.587 0.428129 2.25166 0
M  V30 2754 C 263.587 -0.452261 1.54309 0
M  V30 2755 O 264.777 -0.253608 1.72344 0
M  V30 2756 C 261.909 -0.384749 3.38722 0
M  V30 2757 H 263.102 1.29066 2.70706 0
M  V30 2758 H 260.655 0.706323 1.3943 0
M  V30 2759 H 261.39 -1.26618 2.98561 0
M  V30 2760 H 261.175 0.246454 3.91325 0
M  V30 2761 H 262.665 -0.723389 4.11287 0
M  V30 2762 N 263.102 -1.41638 0.69111 0
M  V30 2763 C 264.032 -2.3347 0.037248 0
M  V30 2764 C 265.013 -1.51575 -0.771947 0
M  V30 2765 O 266.198 -1.80126 -0.72582 0
M  V30 2766 C 263.328 -3.35354 -0.903064 0
M  V30 2767 C 262.282 -4.27526 -0.201288 0
M  V30 2768 C 261.608 -5.19747 -1.25565 0
M  V30 2769 C 262.908 -5.13959 0.929689 0
M  V30 2770 H 264.602 -2.88397 0.804227 0
M  V30 2771 H 262.148 -1.38669 0.388189 0
M  V30 2772 H 264.101 -3.98519 -1.36969 0
M  V30 2773 H 262.825 -2.78767 -1.70166 0
M  V30 2774 H 261.484 -3.65779 0.245265 0
M  V30 2775 H 261.132 -4.59479 -2.04666 0
M  V30 2776 H 260.832 -5.8225 -0.791128 0
M  V30 2777 H 262.356 -5.85789 -1.72288 0
M  V30 2778 H 263.77 -5.70718 0.543546 0
M  V30 2779 H 262.167 -5.85379 1.32103 0
M  V30 2780 H 263.237 -4.51389 1.77133 0
M  V30 2781 N 264.58 -0.43555 -1.51462 0
M  V30 2782 C 265.808 0.130242 -2.0649 0
M  V30 2783 C 266.223 1.36614 -1.30315 0
M  V30 2784 O 265.58 1.78869 -0.362223 0
M  V30 2785 C 265.631 0.454253 -3.58635 0
M  V30 2786 O 265.352 -0.73259 -4.31931 0
M  V30 2787 C 266.853 1.07091 -4.3017 0
M  V30 2788 H 264.073 0.00871669 -0.670943 0
M  V30 2789 H 266.617 -0.614117 -1.95061 0
M  V30 2790 H 264.772 1.14851 -3.69984 0
M  V30 2791 H 265.186 -0.455787 -5.22516 0
M  V30 2792 H 266.66 1.24764 -5.37716 0
M  V30 2793 H 267.137 2.05144 -3.88346 0
M  V30 2794 H 267.743 0.416089 -4.2326 0
M  V30 2795 N 266.058 1.56714 -0.166846 0
M  V30 2796 C 267.306 1.96358 0.478305 0
M  V30 2797 C 267.627 1.0537 1.6408 0
M  V30 2798 O 266.897 0.119154 1.95537 0
M  V30 2799 H 265.477 0.725065 0.179692 0
M  V30 2800 H 268.139 1.93329 -0.246985 0
M  V30 2801 H 267.235 3.00547 0.841292 0
M  V30 2802 N 267.536 -0.106894 1.57237 0
M  V30 2803 C 268.466 -1.13148 2.04254 0
M  V30 2804 C 269.447 -1.42476 0.929224 0
M  V30 2805 O 270.632 -1.52709 1.19973 0
M  V30 2806 C 267.762 -2.4545 2.45706 0
M  V30 2807 C 266.716 -2.30558 3.60592 0
M  V30 2808 C 266.042 -3.67931 3.87983 0
M  V30 2809 C 267.342 -1.75597 4.91897 0
M  V30 2810 H 269.036 -0.740374 2.90101 0
M  V30 2811 H 266.582 -0.354696 1.39563 0
M  V30 2812 H 268.535 -3.17389 2.77205 0
M  V30 2813 H 267.259 -2.86475 1.56843 0
M  V30 2814 H 265.918 -1.61067 3.29322 0
M  V30 2815 H 265.566 -4.06462 2.96306 0
M  V30 2816 H 265.266 -3.58817 4.65322 0
M  V30 2817 H 266.79 -4.41356 4.21945 0
M  V30 2818 H 268.204 -2.37364 5.21854 0
M  V30 2819 H 266.601 -1.77272 5.73319 0
M  V30 2820 H 267.671 -0.714451 4.79608 0
M  V30 2821 N 269.014 -1.53014 -0.377408 0
M  V30 2822 C 270.291 -1.59215 -1.13622 0
M  V30 2823 C 270.671 -0.392407 -2.07421 0
M  V30 2824 O 270.019 0.618342 -2.19975 0
M  V30 2825 C 270.229 -2.93669 -1.88573 0
M  V30 2826 C 271.577 -3.47822 -2.43526 0
M  V30 2827 O 272.601 -2.9562 -1.98715 0
M  V30 2828 O 271.46 -4.39055 -3.25412 0
M  V30 2829 H 268.554 -0.642625 -0.52054 0
M  V30 2830 H 271.1 -1.65353 -0.381625 0
M  V30 2831 H 269.872 -3.7243 -1.20048 0
M  V30 2832 H 269.495 -2.90968 -2.70968 0
M  V30 2833 N 270.492 0.636531 -1.44174 0
M  V30 2834 C 271.422 1.76003 -1.53444 0
M  V30 2835 C 272.403 1.65619 -0.387841 0
M  V30 2836 O 273.588 1.84461 -0.607257 0
M  V30 2837 C 270.718 3.14511 -1.4731 0
M  V30 2838 C 269.672 3.39677 -2.60391 0
M  V30 2839 C 268.998 4.78159 -2.39308 0
M  V30 2840 C 270.298 3.32772 -4.02567 0
M  V30 2841 H 271.992 1.68501 -2.47483 0
M  V30 2842 H 269.538 0.809237 -1.19111 0
M  V30 2843 H 271.491 3.92878 -1.52397 0
M  V30 2844 H 270.215 3.22783 -0.49785 0
M  V30 2845 H 268.874 2.63688 -2.54684 0
M  V30 2846 H 268.522 4.83128 -1.39988 0
M  V30 2847 H 268.222 4.95956 -3.15122 0
M  V30 2848 H 269.746 5.58762 -2.46205 0
M  V30 2849 H 271.16 4.01051 -4.09672 0
M  V30 2850 H 269.557 3.62104 -4.7854 0
M  V30 2851 H 270.627 2.30669 -4.2652 0
M  V30 2852 N 271.97 1.30982 0.876444 0
M  V30 2853 C 273.386 1.09498 1.16113 0
M  V30 2854 C 273.586 -0.13875 2.01022 0
M  V30 2855 O 272.642 -0.829935 2.38471 0
M  V30 2856 C 273.955 2.36308 1.85954 0
M  V30 2857 C 275.503 2.41856 1.98683 0
M  V30 2858 C 275.978 3.6853 2.71937 0
M  V30 2859 N 277.469 3.69387 2.79477 0
M  V30 2860 C 278.204 4.64096 3.36753 0
M  V30 2861 N 277.7 5.69155 3.95012 0
M  V30 2862 N 279.493 4.51626 3.3465 0
M  V30 2863 H 271.644 2.10118 0.310494 0
M  V30 2864 H 273.907 0.926634 0.200131 0
M  V30 2865 H 273.613 3.26388 1.31011 0
M  V30 2866 H 273.487 2.4561 2.86278 0
M  V30 2867 H 275.874 1.52249 2.52793 0
M  V30 2868 H 275.955 2.36523 0.9742 0
M  V30 2869 H 275.599 4.58499 2.18496 0
M  V30 2870 H 275.529 3.71127 3.73593 0
M  V30 2871 H 278.02 2.93438 2.38123 0
M  V30 2872 H 278.333 6.3751 4.36808 0
M  V30 2873 H 276.678 5.72937 3.93406 0
M  V30 2874 H 279.869 3.68728 2.8837 0
M  V30 2875 H 280.042 5.25614 3.7899 0
M  V30 2876 N 273.449 -1.08991 1.13837 0
M  V30 2877 C 274.379 -2.17771 0.842507 0
M  V30 2878 C 275.36 -1.6892 -0.20001 0
M  V30 2879 O 276.545 -1.94113 -0.0579731 0
M  V30 2880 C 273.675 -3.4589 0.312644 0
M  V30 2881 C 272.629 -4.08099 1.28992 0
M  V30 2882 C 271.955 -5.31098 0.619623 0
M  V30 2883 C 273.255 -4.50077 2.65005 0
M  V30 2884 H 274.949 -2.42777 1.75213 0
M  V30 2885 H 272.495 -1.16682 0.843875 0
M  V30 2886 H 274.448 -4.21297 0.0933043 0
M  V30 2887 H 273.172 -3.20419 -0.632382 0
M  V30 2888 H 271.831 -3.34717 1.49533 0
M  V30 2889 H 271.479 -5.0191 -0.33102 0
M  V30 2890 H 271.179 -5.73674 1.27167 0
M  V30 2891 H 272.703 -6.09224 0.409669 0
M  V30 2892 H 274.117 -5.16688 2.48407 0
M  V30 2893 H 272.514 -5.03553 3.26427 0
M  V30 2894 H 273.584 -3.62257 3.22332 0
M  V30 2895 N 274.927 -0.932562 -1.27047 0
M  V30 2896 C 276.173 -0.576412 -1.94436 0
M  V30 2897 C 276.506 0.880891 -1.73072 0
M  V30 2898 O 275.781 1.62905 -1.06264 0
M  V30 2899 C 276.064 -0.909031 -3.48437 0
M  V30 2900 C 275.917 -2.42044 -3.79123 0
M  V30 2901 C 277.236 -0.418341 -4.38107 0
M  V30 2902 H 274.355 -0.210888 -0.706184 0
M  V30 2903 H 276.997 -1.16522 -1.50075 0
M  V30 2904 H 275.147 -0.407947 -3.86352 0
M  V30 2905 H 276.819 -2.99359 -3.50973 0
M  V30 2906 H 275.062 -2.86758 -3.25503 0
M  V30 2907 H 275.733 -2.6037 -4.86736 0
M  V30 2908 H 278.209 -0.847856 -4.0737 0
M  V30 2909 H 277.085 -0.679981 -5.44672 0
M  V30 2910 H 277.346 0.681642 -4.36814 0
M  V30 2911 N 276.405 1.4127 -0.698611 0
M  V30 2912 C 277.368 2.29158 -0.044132 0
M  V30 2913 C 278.368 1.44529 0.704841 0
M  V30 2914 O 279.558 1.65643 0.539276 0
M  V30 2915 C 276.69 3.27459 0.947809 0
M  V30 2916 H 277.883 2.88529 -0.817994 0
M  V30 2917 H 275.436 1.49307 -0.46228 0
M  V30 2918 H 276.171 2.73073 1.74933 0
M  V30 2919 H 275.956 3.8991 0.41385 0
M  V30 2920 H 277.446 3.93311 1.40344 0
M  V30 2921 N 277.883 0.443576 1.51229 0
M  V30 2922 C 279.294 -0.0180867 1.86691 0
M  V30 2923 C 279.645 -1.41384 1.36033 0
M  V30 2924 O 278.77 -2.04291 0.713722 0
M  V30 2925 C 279.365 -0.039597 3.38777 0
M  V30 2926 C 277.924 -0.445692 3.73752 0
M  V30 2927 C 277.071 0.357584 2.74985 0
M  V30 2928 H 280.022 0.659138 1.44364 0
M  V30 2929 H 280.043 -0.847761 3.70936 0
M  V30 2930 H 279.555 0.976382 3.75617 0
M  V30 2931 H 277.656 -1.46704 3.42503 0
M  V30 2932 H 277.769 -0.166155 4.78812 0
M  V30 2933 H 276.133 -0.184973 2.54027 0
M  V30 2934 H 276.916 1.37256 3.14668 0
M  V30 2935 N 279.361 -1.56624 0.175154 0
M  V30 2936 C 280.293 -2.15333 -0.785128 0
M  V30 2937 C 281.306 -1.1099 -1.19101 0
M  V30 2938 O 282.495 -1.38162 -1.13019 0
M  V30 2939 C 279.595 -2.68427 -2.06882 0
M  V30 2940 C 278.768 -3.97466 -1.8259 0
M  V30 2941 C 277.827 -4.35585 -2.95215 0
M  V30 2942 O 276.853 -5.03389 -2.65684 0
M  V30 2943 N 278.055 -3.97457 -4.23094 0
M  V30 2944 H 280.82 -2.98359 -0.283187 0
M  V30 2945 H 278.381 -1.61898 -0.00749817 0
M  V30 2946 H 280.373 -2.90924 -2.81328 0
M  V30 2947 H 278.943 -1.89968 -2.48256 0
M  V30 2948 H 278.163 -3.83307 -0.920287 0
M  V30 2949 H 279.451 -4.81736 -1.63733 0
M  V30 2950 H 278.849 -3.42878 -4.49945 0
M  V30 2951 H 277.406 -4.24947 -4.9423 0
M  V30 2952 N 280.839 0.0985539 -1.57292 0
M  V30 2953 C 281.802 1.10402 -2.00858 0
M  V30 2954 C 282.802 1.33146 -0.901593 0
M  V30 2955 O 283.992 1.29318 -1.16716 0
M  V30 2956 C 281.124 2.45394 -2.36632 0
M  V30 2957 H 282.317 0.729099 -2.90902 0
M  V30 2958 H 279.87 0.343495 -1.52479 0
M  V30 2959 H 280.605 2.87769 -1.49531 0
M  V30 2960 H 280.39 2.30235 -3.17387 0
M  V30 2961 H 281.88 3.17718 -2.71007 0
M  V30 2962 N 282.317 1.53212 0.369288 0
M  V30 2963 C 283.557 1.70915 1.12105 0
M  V30 2964 C 283.921 0.449444 1.86665 0
M  V30 2965 O 285.122 0.503105 2.6405 0
M  V30 2966 C 283.393 2.9222 2.05772 0
M  V30 2967 S 284.952 3.30609 2.88519 0
M  V30 2968 H 281.77 0.601445 0.379189 0
M  V30 2969 H 284.372 1.91306 0.402794 0
M  V30 2970 H 283.076 3.82103 1.49752 0
M  V30 2971 H 282.607 2.7422 2.82076 0
M  V30 2972 H 284.622 2.82333 4.08047 0
M  V30 2973 N 283.795 -0.628877 1.44509 0
M  V30 2974 C 285.041 -1.38863 1.48623 0
M  V30 2975 C 285.396 -1.92038 0.117933 0
M  V30 2976 O 284.689 -1.70853 -0.86716 0
M  V30 2977 C 284.883 -2.56995 2.48371 0
M  V30 2978 C 284.712 -2.15385 3.94765 0
M  V30 2979 C 283.482 -2.02558 4.62924 0
M  V30 2980 C 285.68 -1.74158 4.83915 0
M  V30 2981 N 283.662 -1.54534 5.94132 0
M  V30 2982 C 285.033 -1.37396 6.04584 0
M  V30 2983 C 287.088 -1.61559 4.7096 0
M  V30 2984 C 285.791 -0.892948 7.13736 0
M  V30 2985 C 287.817 -1.14862 5.80139 0
M  V30 2986 C 287.179 -0.790516 6.9995 0
M  V30 2987 H 283.278 -0.502858 0.59888 0
M  V30 2988 H 285.862 -0.72121 1.8085 0
M  V30 2989 H 284.033 -3.21362 2.1813 0
M  V30 2990 H 285.765 -3.23801 2.42766 0
M  V30 2991 H 282.52 -2.23082 4.1777 0
M  V30 2992 H 282.944 -1.32815 6.63844 0
M  V30 2993 H 287.586 -1.87876 3.78764 0
M  V30 2994 H 285.304 -0.617291 8.05739 0
M  V30 2995 H 288.89 -1.05569 5.72142 0
M  V30 2996 H 287.77 -0.434713 7.82994 0
M  V30 2997 N 285.273 -1.31445 -0.869486 0
M  V30 2998 C 286.684 -1.19042 -1.43826 0
M  V30 2999 C 287.035 0.202919 -1.95148 0
M  V30 3000 O 286.16 1.10071 -1.86315 0
M  V30 3001 C 286.755 -2.15499 -2.6143 0
M  V30 3002 C 285.314 -2.07028 -3.14351 0
M  V30 3003 C 284.461 -2.04701 -1.87063 0
M  V30 3004 H 287.412 -1.43489 -0.677984 0
M  V30 3005 H 287.433 -1.74488 -3.38134 0
M  V30 3006 H 286.945 -3.16899 -2.24046 0
M  V30 3007 H 285.046 -1.08825 -3.56354 0
M  V30 3008 H 285.159 -2.96157 -3.766 0
M  V30 3009 H 283.523 -1.49724 -2.06046 0
M  V30 3010 H 284.306 -3.07857 -1.51917 0
M  V30 3011 N 286.751 1.08385 -1.14413 0
M  V30 3012 C 287.661 2.18856 -0.844951 0
M  V30 3013 C 288.677 1.73121 0.174668 0
M  V30 3014 O 289.853 2.014 0.00312857 0
M  V30 3015 C 286.918 3.45155 -0.32696 0
M  V30 3016 C 285.979 4.05513 -1.40916 0
M  V30 3017 C 285.212 5.25784 -0.915793 0
M  V30 3018 O 285.435 5.69884 0.242651 0
M  V30 3019 O 284.369 5.77545 -1.69487 0
M  V30 3020 H 288.195 2.46919 -1.76818 0
M  V30 3021 H 285.78 1.17524 -0.922411 0
M  V30 3022 H 287.662 4.21377 -0.0440211 0
M  V30 3023 H 286.337 3.18668 0.568539 0
M  V30 3024 H 285.244 3.30879 -1.74556 0
M  V30 3025 H 286.577 4.3625 -2.27919 0
M  V30 3026 N 288.23 0.939286 1.26551 0
M  V30 3027 C 289.193 0.451987 2.24699 0
M  V30 3028 C 290.193 -0.435869 1.5478 0
M  V30 3029 O 291.383 -0.235314 1.72603 0
M  V30 3030 C 288.515 -0.348801 3.39111 0
M  V30 3031 H 289.708 1.3193 2.69322 0
M  V30 3032 H 287.261 0.721072 1.38673 0
M  V30 3033 H 287.996 -1.23444 2.99887 0
M  V30 3034 H 287.781 0.287945 3.91041 0
M  V30 3035 H 289.271 -0.679726 4.12031 0
M  V30 3036 N 289.708 -1.40897 0.706093 0
M  V30 3037 C 290.671 -2.29131 0.0562841 0
M  V30 3038 C 291.671 -1.44901 -0.697166 0
M  V30 3039 O 292.861 -1.65926 -0.530484 0
M  V30 3040 C 289.993 -3.27957 -0.93043 0
M  V30 3041 H 291.186 -2.88091 0.833284 0
M  V30 3042 H 288.739 -1.4906 0.470192 0
M  V30 3043 H 289.474 -2.73997 -1.73482 0
M  V30 3044 H 289.259 -3.90124 -0.393166 0
M  V30 3045 H 290.749 -3.94049 -1.38256 0
M  V30 3046 N 291.186 -0.45159 -1.50991 0
M  V30 3047 C 292.116 0.342898 -2.30969 0
M  V30 3048 C 293.097 1.00815 -1.37005 0
M  V30 3049 O 294.282 1.00907 -1.65926 0
M  V30 3050 C 291.412 1.43637 -3.16205 0
M  V30 3051 C 290.366 0.893818 -4.18563 0
M  V30 3052 C 289.692 2.08411 -4.92411 0
M  V30 3053 C 290.992 -0.0815568 -5.22236 0
M  V30 3054 H 292.686 -0.324556 -2.97636 0
M  V30 3055 H 290.232 -0.157531 -1.43136 0
M  V30 3056 H 292.185 1.9995 -3.70942 0
M  V30 3057 H 290.909 2.13232 -2.47386 0
M  V30 3058 H 289.568 0.352798 -3.64898 0
M  V30 3059 H 289.216 2.76658 -4.20082 0
M  V30 3060 H 288.916 1.72741 -5.61636 0
M  V30 3061 H 290.44 2.65251 -5.49976 0
M  V30 3062 H 291.854 0.391742 -5.7196 0
M  V30 3063 H 290.251 -0.351551 -5.99069 0
M  V30 3064 H 291.321 -1.01374 -4.74185 0
M  V30 3065 N 292.664 1.56529 -0.183458 0
M  V30 3066 C 293.91 1.97537 0.459036 0
M  V30 3067 C 294.243 1.06989 1.62071 0
M  V30 3068 O 293.518 0.11948 1.94133 0
M  V30 3069 C 293.801 3.47874 0.930368 0
M  V30 3070 C 293.654 4.492 -0.232317 0
M  V30 3071 C 294.973 4.01612 1.79989 0
M  V30 3072 H 292.092 0.718204 0.165383 0
M  V30 3073 H 294.734 1.88042 -0.272038 0
M  V30 3074 H 292.884 3.56095 1.55333 0
M  V30 3075 H 294.556 4.53027 -0.86972 0
M  V30 3076 H 292.799 4.24657 -0.885928 0
M  V30 3077 H 293.47 5.51823 0.139796 0
M  V30 3078 H 295.946 3.96097 1.27461 0
M  V30 3079 H 294.822 5.07195 2.09867 0
M  V30 3080 H 295.083 3.46163 2.74998 0
M  V30 3081 N 294.142 -0.090211 1.57342 0
M  V30 3082 C 295.37 -0.806224 1.90546 0
M  V30 3083 C 295.785 -1.72041 0.777644 0
M  V30 3084 O 295.142 -1.80778 -0.250103 0
M  V30 3085 C 295.193 -1.61546 3.23396 0
M  V30 3086 O 294.914 -0.738043 4.31839 0
M  V30 3087 C 296.415 -2.4341 3.70495 0
M  V30 3088 H 293.635 -0.230256 0.630257 0
M  V30 3089 H 296.179 -0.0659843 2.04394 0
M  V30 3090 H 294.334 -2.30816 3.11131 0
M  V30 3091 H 294.748 -1.29901 5.08159 0
M  V30 3092 H 296.222 -2.95676 4.66133 0
M  V30 3093 H 296.699 -3.22098 2.98579 0
M  V30 3094 H 297.305 -1.79331 3.85643 0
M  V30 3095 N 295.62 -1.53406 -0.361157 0
M  V30 3096 C 296.53 -1.83122 -1.4664 0
M  V30 3097 C 297.546 -0.719943 -1.58407 0
M  V30 3098 O 298.722 -1.01046 -1.74218 0
M  V30 3099 C 295.787 -2.01891 -2.81853 0
M  V30 3100 C 294.848 -3.25784 -2.79577 0
M  V30 3101 C 294.081 -3.43648 -4.0834 0
M  V30 3102 O 294.304 -2.65714 -5.0473 0
M  V30 3103 O 293.238 -4.37018 -4.13883 0
M  V30 3104 H 297.064 -2.7703 -1.24451 0
M  V30 3105 H 294.649 -1.38841 -0.551678 0
M  V30 3106 H 296.531 -2.15782 -3.61962 0
M  V30 3107 H 295.206 -1.11173 -3.0401 0
M  V30 3108 H 294.113 -3.17312 -1.98151 0
M  V30 3109 H 295.446 -4.16439 -2.62373 0
M  V30 3110 N 297.098 0.621204 -1.44841 0
M  V30 3111 C 298.338 1.39201 -1.49674 0
M  V30 3112 C 298.702 1.91561 -0.129764 0
M  V30 3113 O 299.903 2.68748 -0.0527814 0
M  V30 3114 C 298.174 2.519 -2.53537 0
M  V30 3115 S 299.733 3.39916 -2.77494 0
M  V30 3116 H 296.551 0.474758 -0.529269 0
M  V30 3117 H 299.153 0.718171 -1.81831 0
M  V30 3118 H 297.857 2.11761 -3.51547 0
M  V30 3119 H 297.388 3.241 -2.22986 0
M  V30 3120 H 299.403 4.49646 -2.0984 0
M  V30 3121 N 298.576 1.31904 0.862503 0
M  V30 3122 C 299.992 1.10724 1.14945 0
M  V30 3123 C 300.192 -0.117421 2.01158 0
M  V30 3124 O 299.248 -0.804595 2.39338 0
M  V30 3125 C 300.561 2.38267 1.83437 0
M  V30 3126 C 302.109 2.43949 1.96106 0
M  V30 3127 C 302.584 3.71394 2.68013 0
M  V30 3128 N 304.075 3.72331 2.75543 0
M  V30 3129 C 304.81 4.67641 3.31812 0
M  V30 3130 N 304.306 5.73313 3.88953 0
M  V30 3131 N 306.099 4.5515 3.29841 0
M  V30 3132 H 298.25 2.10436 0.288191 0
M  V30 3133 H 300.513 0.928705 0.190292 0
M  V30 3134 H 300.219 3.27759 1.27542 0
M  V30 3135 H 300.093 2.48633 2.83657 0
M  V30 3136 H 302.48 1.54922 2.51164 0
M  V30 3137 H 302.561 2.37543 0.949059 0
M  V30 3138 H 302.205 4.60791 2.13621 0
M  V30 3139 H 302.135 3.75069 3.69636 0
M  V30 3140 H 304.626 2.95947 2.34997 0
M  V30 3141 H 304.939 6.42107 4.30022 0
M  V30 3142 H 303.284 5.77077 3.87308 0
M  V30 3143 H 306.475 3.71766 2.84443 0
M  V30 3144 H 306.648 5.29604 3.73394 0
M  V30 3145 N 300.054 -1.07777 1.14986 0
M  V30 3146 C 301.017 -2.13041 0.845358 0
M  V30 3147 C 302.017 -1.60071 -0.152931 0
M  V30 3148 O 303.207 -1.74033 0.0761879 0
M  V30 3149 C 300.339 -3.39896 0.261383 0
M  V30 3150 H 301.532 -2.41485 1.77834 0
M  V30 3151 H 299.085 -1.23595 0.956757 0
M  V30 3152 H 299.82 -3.17091 -0.68 0
M  V30 3153 H 299.605 -3.79642 0.980514 0
M  V30 3154 H 301.095 -4.17548 0.0657687 0
M  V30 3155 N 301.532 -0.945985 -1.26051 0
M  V30 3156 C 302.462 -0.477172 -2.28572 0
M  V30 3157 C 303.443 0.472032 -1.63419 0
M  V30 3158 O 304.628 0.372853 -1.90587 0
M  V30 3159 C 301.758 0.253975 -3.4637 0
M  V30 3160 C 300.712 -0.609135 -4.23643 0
M  V30 3161 C 300.038 0.252252 -5.34105 0
M  V30 3162 C 301.338 -1.8829 -4.8718 0
M  V30 3163 H 303.032 -1.33402 -2.68038 0
M  V30 3164 H 300.578 -0.642904 -1.28852 0
M  V30 3165 H 302.531 0.593016 -4.17207 0
M  V30 3166 H 301.255 1.145 -3.05871 0
M  V30 3167 H 299.914 -0.931138 -3.54578 0
M  V30 3168 H 299.562 1.14278 -4.89846 0
M  V30 3169 H 299.262 -0.32188 -5.86718 0
M  V30 3170 H 300.786 0.586454 -6.07777 0
M  V30 3171 H 302.2 -1.61081 -5.50205 0
M  V30 3172 H 300.597 -2.40199 -5.49931 0
M  V30 3173 H 301.667 -2.59134 -4.09851 0
M  V30 3174 N 303.011 1.40521 -0.713556 0
M  V30 3175 C 303.974 2.29098 -0.0684347 0
M  V30 3176 C 304.974 1.45268 0.689472 0
M  V30 3177 O 306.164 1.66205 0.521677 0
M  V30 3178 C 303.296 3.28446 0.913024 0
M  V30 3179 H 304.489 2.87645 -0.84855 0
M  V30 3180 H 302.042 1.48809 -0.47809 0
M  V30 3181 H 302.777 2.74913 1.72027 0
M  V30 3182 H 302.562 3.90327 0.372472 0
M  V30 3183 H 304.052 3.94777 1.36165 0
M  V30 3184 N 304.489 0.459591 1.5075 0
M  V30 3185 C 305.421 -0.37665 2.26084 0
M  V30 3186 C 306.434 -0.967109 1.30961 0
M  V30 3187 O 307.623 -0.857468 1.56556 0
M  V30 3188 C 304.723 -1.54112 3.01832 0
M  V30 3189 C 303.896 -1.06553 4.24223 0
M  V30 3190 C 302.955 -2.1027 4.82362 0
M  V30 3191 O 301.981 -1.68798 5.43595 0
M  V30 3192 N 303.183 -3.42974 4.68347 0
M  V30 3193 H 305.948 0.269124 2.98489 0
M  V30 3194 H 303.509 0.28972 1.59287 0
M  V30 3195 H 305.501 -2.23165 3.37608 0
M  V30 3196 H 304.071 -2.0918 2.32298 0
M  V30 3197 H 303.291 -0.201274 3.93686 0
M  V30 3198 H 304.579 -0.725516 5.03601 0
M  V30 3199 H 303.977 -3.79385 4.19623 0
M  V30 3200 H 302.534 -4.07858 5.08424 0
M  V30 3201 N 305.967 -1.56429 0.191757 0
M  V30 3202 C 306.899 -2.16154 -0.762245 0
M  V30 3203 C 307.912 -1.12247 -1.17917 0
M  V30 3204 O 309.101 -1.39353 -1.11548 0
M  V30 3205 C 306.201 -2.70606 -2.04024 0
M  V30 3206 C 305.374 -3.99381 -1.78364 0
M  V30 3207 C 304.433 -4.38692 -2.90578 0
M  V30 3208 O 303.459 -5.06179 -2.6033 0
M  V30 3209 N 304.661 -4.01922 -4.18854 0
M  V30 3210 H 307.426 -2.98643 -0.251526 0
M  V30 3211 H 304.987 -1.61897 0.00967373 0
M  V30 3212 H 306.979 -2.93891 -2.78227 0
M  V30 3213 H 305.549 -1.9259 -2.46227 0
M  V30 3214 H 304.769 -3.84262 -0.879581 0
M  V30 3215 H 306.057 -4.83445 -1.58614 0
M  V30 3216 H 305.455 -3.47631 -4.46283 0
M  V30 3217 H 304.012 -4.30165 -4.89695 0
M  V30 3218 N 307.445 0.0818655 -1.57387 0
M  V30 3219 C 308.393 1.11712 -2.04018 0
M  V30 3220 C 309.387 1.40683 -0.94364 0
M  V30 3221 O 310.593 1.40209 -1.12878 0
M  V30 3222 H 306.968 0.377542 -0.650358 0
M  V30 3223 H 308.939 0.697614 -2.90131 0
M  V30 3224 C 307.688 2.42537 -2.49141 0
M  V30 3225 H 307.011 2.21092 -3.33104 0
M  V30 3226 H 308.451 3.13446 -2.85531 0
M  V30 3227 C 306.91 3.0778 -1.37014 0
M  V30 3228 O 307.44 3.95436 -0.706621 0
M  V30 3229 N 305.646 2.68242 -1.11779 0
M  V30 3230 H 305.193 1.97052 -1.65917 0
M  V30 3231 H 305.151 3.1222 -0.369594 0
M  V30 3232 N 308.923 1.53595 0.353017 0
M  V30 3233 C 310.171 1.70049 1.09215 0
M  V30 3234 C 310.492 0.461406 1.89463 0
M  V30 3235 O 309.762 -0.524633 1.88744 0
M  V30 3236 H 308.342 0.626912 0.40619 0
M  V30 3237 H 311.004 1.90822 0.396585 0
M  V30 3238 H 310.1 2.56718 1.77488 0
M  V30 3239 N 310.401 -0.613514 1.45168 0
M  V30 3240 C 311.649 -1.36997 1.48581 0
M  V30 3241 C 311.97 -1.94589 0.126545 0
M  V30 3242 O 311.24 -1.76816 -0.843372 0
M  V30 3243 H 309.82 -0.508558 0.547154 0
M  V30 3244 H 312.482 -0.720853 1.81079 0
M  V30 3245 H 311.578 -2.1924 2.22127 0
M  V30 3246 N 311.879 -1.3236 -0.855495 0
M  V30 3247 C 312.827 -1.2118 -1.9854 0
M  V30 3248 C 313.821 -0.116788 -1.68997 0
M  V30 3249 O 315.027 -0.279657 -1.77814 0
M  V30 3250 H 311.402 -0.375608 -0.651477 0
M  V30 3251 H 313.373 -2.16743 -2.05098 0
M  V30 3252 C 312.122 -0.950849 -3.34446 0
M  V30 3253 H 311.445 -1.78563 -3.57708 0
M  V30 3254 H 312.885 -0.912863 -4.14057 0
M  V30 3255 C 311.344 0.346404 -3.35114 0
M  V30 3256 O 311.874 1.35855 -3.7803 0
M  V30 3257 N 310.08 0.36808 -2.88259 0
M  V30 3258 H 309.627 -0.456102 -2.5353 0
M  V30 3259 H 309.585 1.23591 -2.89089 0
M  V30 3260 N 313.357 1.07166 -1.15556 0
M  V30 3261 C 314.606 1.79181 -0.926132 0
M  V30 3262 C 314.919 1.87768 0.547967 0
M  V30 3263 O 316.125 2.56323 0.895036 0
M  V30 3264 C 314.581 3.22 -1.60761 0
M  V30 3265 C 314.189 3.21607 -3.11886 0
M  V30 3266 C 315.933 3.9861 -1.4598 0
M  V30 3267 C 313.84 4.59092 -3.72812 0
M  V30 3268 H 312.77 0.67154 -0.342856 0
M  V30 3269 H 315.421 1.2027 -1.3859 0
M  V30 3270 H 313.803 3.81115 -1.07553 0
M  V30 3271 H 314.977 2.72127 -3.71865 0
M  V30 3272 H 313.292 2.58495 -3.2645 0
M  V30 3273 H 315.889 5.00225 -1.88888 0
M  V30 3274 H 316.232 4.143 -0.407541 0
M  V30 3275 H 316.765 3.45996 -1.96295 0
M  V30 3276 H 313.504 4.48606 -4.77946 0
M  V30 3277 H 313.024 5.08803 -3.17616 0
M  V30 3278 H 314.703 5.28059 -3.73848 0
M  V30 3279 N 314.835 0.952656 1.25548 0
M  V30 3280 C 316.063 0.623496 1.97282 0
M  V30 3281 C 316.478 -0.803987 1.70826 0
M  V30 3282 O 315.835 -1.53755 0.983147 0
M  V30 3283 C 315.886 0.870209 3.5087 0
M  V30 3284 O 315.607 2.24156 3.76412 0
M  V30 3285 C 317.108 0.553164 4.39835 0
M  V30 3286 H 314.328 0.233931 0.628902 0
M  V30 3287 H 316.872 1.27649 1.59768 0
M  V30 3288 H 315.027 0.263652 3.86502 0
M  V30 3289 H 315.441 2.31021 4.70882 0
M  V30 3290 H 316.915 0.776342 5.46513 0
M  V30 3291 H 317.392 -0.512215 4.36203 0
M  V30 3292 H 317.998 1.13896 4.09766 0
M  V30 3293 N 316.313 -1.40141 0.720998 0
M  V30 3294 C 317.243 -2.33339 0.0867621 0
M  V30 3295 C 318.224 -1.53178 -0.739622 0
M  V30 3296 O 319.409 -1.81625 -0.687449 0
M  V30 3297 C 316.539 -3.37194 -0.831728 0
M  V30 3298 C 315.493 -4.27857 -0.110558 0
M  V30 3299 C 314.819 -5.22294 -1.14513 0
M  V30 3300 C 316.119 -5.11872 1.0385 0
M  V30 3301 H 317.813 -2.86626 0.865219 0
M  V30 3302 H 315.359 -1.37814 0.417516 0
M  V30 3303 H 317.312 -4.01335 -1.28485 0
M  V30 3304 H 316.036 -2.82314 -1.64214 0
M  V30 3305 H 314.695 -3.65176 0.322797 0
M  V30 3306 H 314.343 -4.63717 -1.94874 0
M  V30 3307 H 314.043 -5.83797 -0.667446 0
M  V30 3308 H 315.567 -5.89312 -1.59824 0
M  V30 3309 H 316.981 -5.69436 0.664482 0
M  V30 3310 H 315.378 -5.82445 1.4449 0
M  V30 3311 H 316.448 -4.4753 1.86668 0
M  V30 3312 N 317.792 -0.46758 -1.50504 0
M  V30 3313 C 319.02 0.0864133 -2.06719 0
M  V30 3314 C 319.435 1.33819 -1.33184 0
M  V30 3315 O 318.792 1.78061 -0.400083 0
M  V30 3316 C 318.843 0.378079 -3.59517 0
M  V30 3317 O 318.564 -0.824044 -4.3028 0
M  V30 3318 C 320.065 0.979426 -4.32345 0
M  V30 3319 H 317.285 -0.00551697 -0.670977 0
M  V30 3320 H 319.829 -0.655354 -1.93715 0
M  V30 3321 H 317.984 1.06977 -3.72337 0
M  V30 3322 H 318.398 -0.566518 -5.21432 0
M  V30 3323 H 319.872 1.1333 -5.40241 0
M  V30 3324 H 320.349 1.9686 -3.9261 0
M  V30 3325 H 320.955 0.326216 -4.24047 0
M  V30 3326 N 319.27 1.56325 -0.20005 0
M  V30 3327 C 320.18 2.22931 0.730668 0
M  V30 3328 C 321.196 1.22997 1.23076 0
M  V30 3329 O 322.372 1.55748 1.27689 0
M  V30 3330 C 319.437 2.87948 1.93098 0
M  V30 3331 C 318.498 4.03166 1.47497 0
M  V30 3332 C 317.731 4.65073 2.61807 0
M  V30 3333 O 317.954 4.25913 3.79413 0
M  V30 3334 O 316.888 5.54452 2.34237 0
M  V30 3335 H 320.714 3.03084 0.193391 0
M  V30 3336 H 318.299 1.49371 0.0294621 0
M  V30 3337 H 320.181 3.29063 2.6324 0
M  V30 3338 H 318.856 2.10771 2.45677 0
M  V30 3339 H 317.763 3.66664 0.742201 0
M  V30 3340 H 319.096 4.82022 0.995796 0
M  V30 3341 N 320.748 -0.0735177 1.57428 0
M  V30 3342 C 322.025 -0.805903 1.78226 0
M  V30 3343 C 322.405 -1.95874 0.787189 0
M  V30 3344 O 321.753 -2.2779 -0.180029 0
M  V30 3345 C 321.963 -1.28045 3.24662 0
M  V30 3346 C 323.311 -1.71453 3.88444 0
M  V30 3347 O 324.335 -1.37616 3.28543 0
M  V30 3348 O 323.194 -2.34093 4.93825 0
M  V30 3349 H 320.288 -0.386041 0.73137 0
M  V30 3350 H 322.834 -0.0537269 1.69615 0
M  V30 3351 H 321.606 -0.455476 3.8864 0
M  V30 3352 H 321.229 -2.094 3.37991 0
M  V30 3353 N 322.226 -1.5378 -0.344866 0
M  V30 3354 C 323.472 -1.71216 -1.08687 0
M  V30 3355 C 323.805 -0.473281 -1.88345 0
M  V30 3356 O 323.08 0.52968 -1.87149 0
M  V30 3357 C 323.363 -2.97486 -2.02914 0
M  V30 3358 C 323.216 -4.31579 -1.26727 0
M  V30 3359 C 324.535 -3.19422 -3.0275 0
M  V30 3360 H 321.654 -0.62301 -0.393735 0
M  V30 3361 H 324.296 -1.8645 -0.365563 0
M  V30 3362 H 322.446 -2.84629 -2.64421 0
M  V30 3363 H 324.118 -4.56284 -0.67845 0
M  V30 3364 H 322.361 -4.30049 -0.569273 0
M  V30 3365 H 323.032 -5.16106 -1.95803 0
M  V30 3366 H 325.508 -3.316 -2.51357 0
M  V30 3367 H 324.384 -4.09169 -3.65885 0
M  V30 3368 H 324.645 -2.35656 -3.74057 0
M  V30 3369 N 323.704 0.605807 -1.45491 0
M  V30 3370 C 324.667 1.69836 -1.5391 0
M  V30 3371 C 325.667 1.55261 -0.418424 0
M  V30 3372 O 326.857 1.60296 -0.681965 0
M  V30 3373 C 323.989 3.09117 -1.43734 0
M  V30 3374 H 325.182 1.63738 -2.51257 0
M  V30 3375 H 322.735 0.821689 -1.32959 0
M  V30 3376 H 323.47 3.20791 -0.475788 0
M  V30 3377 H 323.255 3.21104 -2.25021 0
M  V30 3378 H 324.745 3.88696 -1.52661 0
M  V30 3379 N 325.182 1.32811 0.848464 0
M  V30 3380 C 326.129 1.22265 1.95755 0
M  V30 3381 C 327.099 0.103413 1.65778 0
M  V30 3382 O 328.284 0.280033 1.88734 0
M  V30 3383 C 325.424 0.958014 3.31536 0
M  V30 3384 C 324.537 2.16262 3.73971 0
M  V30 3385 C 323.672 1.83295 4.98575 0
M  V30 3386 C 322.711 3.00041 5.33518 0
M  V30 3387 N 321.848 2.67125 6.49299 0
M  V30 3388 H 326.688 2.17128 2.04107 0
M  V30 3389 H 324.225 1.07982 0.998913 0
M  V30 3390 H 326.183 0.785052 4.09747 0
M  V30 3391 H 324.813 0.046159 3.22767 0
M  V30 3392 H 323.865 2.44565 2.91362 0
M  V30 3393 H 325.177 3.03572 3.95785 0
M  V30 3394 H 324.331 1.62586 5.84509 0
M  V30 3395 H 323.07 0.932078 4.7871 0
M  V30 3396 H 322.075 3.21374 4.46093 0
M  V30 3397 H 323.3 3.90869 5.55336 0
M  V30 3398 H 321.246 1.79586 6.3094 0
M  V30 3399 H 321.163 3.47965 6.71161 0
M  V30 3400 H 322.431 2.49861 7.3837 0
M  V30 3401 N 326.66 -1.06551 1.16123 0
M  V30 3402 C 327.908 -1.78947 0.939267 0
M  V30 3403 C 328.229 -1.87532 -0.534476 0
M  V30 3404 O 327.499 -1.38211 -1.38833 0
M  V30 3405 H 326.079 -0.662807 0.344523 0
M  V30 3406 H 328.741 -1.28725 1.46342 0
M  V30 3407 H 327.837 -2.81117 1.35572 0
M  V30 3408 N 328.138 -0.959301 -1.25041 0
M  V30 3409 C 329.384 -0.617525 -1.9317 0
M  V30 3410 C 329.717 0.843981 -1.74902 0
M  V30 3411 O 328.992 1.60615 -1.09696 0
M  V30 3412 C 329.275 -0.982736 -3.46431 0
M  V30 3413 C 329.128 -2.50032 -3.73904 0
M  V30 3414 C 330.447 -0.511176 -4.37121 0
M  V30 3415 H 327.566 -0.22582 -0.701552 0
M  V30 3416 H 330.208 -1.19679 -1.4757 0
M  V30 3417 H 328.358 -0.489806 -3.854 0
M  V30 3418 H 330.03 -3.06737 -3.44544 0
M  V30 3419 H 328.273 -2.93598 -3.19348 0
M  V30 3420 H 328.944 -2.70635 -4.81103 0
M  V30 3421 H 331.42 -0.934075 -4.0548 0
M  V30 3422 H 330.296 -0.795361 -5.43107 0
M  V30 3423 H 330.557 0.588834 -4.38161 0
M  V30 3424 N 329.616 1.39756 -0.72842 0
M  V30 3425 C 330.526 2.34444 -0.0855374 0
M  V30 3426 C 331.542 1.57976 0.729356 0
M  V30 3427 O 332.718 1.90301 0.659346 0
M  V30 3428 C 329.783 3.36965 0.815798 0
M  V30 3429 C 328.844 4.29299 -0.0105996 0
M  V30 3430 C 328.077 5.26923 0.84781 0
M  V30 3431 O 328.3 5.30859 2.08673 0
M  V30 3432 O 327.234 6.01249 0.279969 0
M  V30 3433 H 331.06 2.91065 -0.866892 0
M  V30 3434 H 328.645 1.4117 -0.48902 0
M  V30 3435 H 330.527 3.99804 1.33171 0
M  V30 3436 H 329.202 2.82739 1.57608 0
M  V30 3437 H 328.109 3.69703 -0.571877 0
M  V30 3438 H 329.442 4.86712 -0.73295 0
M  V30 3439 N 331.094 0.475555 1.50254 0
M  V30 3440 C 332.342 -0.077738 2.0195 0
M  V30 3441 C 332.663 -1.39813 1.35931 0
M  V30 3442 O 331.933 -1.89249 0.506123 0
M  V30 3443 H 330.513 -0.031719 0.746326 0
M  V30 3444 H 333.175 0.626995 1.84539 0
M  V30 3445 H 332.271 -0.225995 3.11281 0
M  V30 3446 N 332.573 -1.56217 0.208337 0
M  V30 3447 C 333.536 -2.18455 -0.693557 0
M  V30 3448 C 334.536 -1.14268 -1.13135 0
M  V30 3449 O 335.726 -1.39577 -1.0423 0
M  V30 3450 C 332.858 -2.79727 -1.94848 0
M  V30 3451 H 334.051 -2.99519 -0.15114 0
M  V30 3452 H 331.604 -1.56245 -0.041287 0
M  V30 3453 H 332.339 -2.02497 -2.53309 0
M  V30 3454 H 332.124 -3.56009 -1.64316 0
M  V30 3455 H 333.614 -3.27475 -2.59133 0
M  V30 3456 N 334.051 0.0651679 -1.57465 0
M  V30 3457 C 335.328 0.79644 -1.78651 0
M  V30 3458 C 335.708 1.95454 -0.797566 0
M  V30 3459 O 335.056 2.27882 0.167946 0
M  V30 3460 C 335.266 1.26322 -3.25337 0
M  V30 3461 C 336.614 1.6939 -3.89348 0
M  V30 3462 O 337.638 1.35872 -3.29268 0
M  V30 3463 O 336.497 2.31471 -4.95059 0
M  V30 3464 H 333.591 0.382157 -0.733407 0
M  V30 3465 H 336.137 0.0447311 -1.69641 0
M  V30 3466 H 334.909 0.434859 -3.88876 0
M  V30 3467 H 334.532 2.07604 -3.39096 0
M  V30 3468 N 335.529 1.53961 0.336706 0
M  V30 3469 C 336.776 1.71536 1.07618 0
M  V30 3470 C 337.104 0.482125 1.8843 0
M  V30 3471 O 336.359 -0.536142 1.88213 0
M  V30 3472 C 336.658 2.93493 2.03953 0
M  V30 3473 C 336.324 4.28811 1.39399 0
M  V30 3474 C 334.986 4.65602 1.21523 0
M  V30 3475 C 337.338 5.12844 0.929541 0
M  V30 3476 C 334.666 5.84037 0.558312 0
M  V30 3477 C 337.018 6.31951 0.286505 0
M  V30 3478 C 335.682 6.67432 0.0954869 0
M  V30 3479 H 334.952 0.627696 0.393801 0
M  V30 3480 H 337.599 1.88186 0.354715 0
M  V30 3481 H 335.904 2.71475 2.82504 0
M  V30 3482 H 337.601 3.04285 2.61174 0
M  V30 3483 H 334.191 3.99858 1.54311 0
M  V30 3484 H 338.375 4.84947 1.05548 0
M  V30 3485 H 333.631 6.10097 0.398995 0
M  V30 3486 H 337.805 6.96352 -0.0814376 0
M  V30 3487 H 335.432 7.59063 -0.415579 0
M  V30 3488 N 337.007 -0.598083 1.45811 0
M  V30 3489 C 338.256 -1.35295 1.49594 0
M  V30 3490 C 338.569 -1.95057 0.145679 0
M  V30 3491 O 339.775 -2.71431 0.0612099 0
M  V30 3492 C 338.231 -2.45124 2.63519 0
M  V30 3493 C 337.839 -1.91732 4.04899 0
M  V30 3494 C 339.583 -3.2205 2.76558 0
M  V30 3495 C 337.49 -2.991 5.1019 0
M  V30 3496 H 336.42 -0.508552 0.556679 0
M  V30 3497 H 339.071 -0.639977 1.71978 0
M  V30 3498 H 337.453 -3.19149 2.34435 0
M  V30 3499 H 338.627 -1.24352 4.43704 0
M  V30 3500 H 336.942 -1.27522 3.96393 0
M  V30 3501 H 339.539 -4.0215 3.52391 0
M  V30 3502 H 339.882 -3.73663 1.83526 0
M  V30 3503 H 340.415 -2.55127 3.05213 0
M  V30 3504 H 337.154 -2.52393 6.04961 0
M  V30 3505 H 336.674 -3.65017 4.75944 0
M  V30 3506 H 338.353 -3.63318 5.35359 0
M  V30 3507 N 338.485 -1.33259 -0.841409 0
M  V30 3508 C 339.715 -1.2742 -1.62628 0
M  V30 3509 C 340.123 0.157604 -1.88542 0
M  V30 3510 O 339.466 1.10938 -1.46419 0
M  V30 3511 C 339.528 -1.97797 -3.00194 0
M  V30 3512 C 339.192 -3.47109 -2.97261 0
M  V30 3513 C 340.189 -4.42358 -2.73159 0
M  V30 3514 C 337.874 -3.89247 -3.17478 0
M  V30 3515 C 339.868 -5.77718 -2.69296 0
M  V30 3516 C 337.555 -5.24713 -3.13241 0
M  V30 3517 C 338.553 -6.1876 -2.89181 0
M  V30 3518 O 338.241 -7.51745 -2.84843 0
M  V30 3519 H 337.973 -0.440436 -0.512827 0
M  V30 3520 H 340.527 -1.76153 -1.05638 0
M  V30 3521 H 338.757 -1.43652 -3.59028 0
M  V30 3522 H 340.446 -1.8549 -3.61038 0
M  V30 3523 H 341.212 -4.11127 -2.57294 0
M  V30 3524 H 337.091 -3.16456 -3.35226 0
M  V30 3525 H 340.635 -6.51097 -2.50436 0
M  V30 3526 H 336.532 -5.55569 -3.28654 0
M  V30 3527 H 337.3 -7.61262 -3.00702 0
M  V30 3528 N 339.963 1.05934 -1.16686 0
M  V30 3529 C 341.191 1.8249 -0.974929 0
M  V30 3530 C 341.606 1.82679 0.476861 0
M  V30 3531 O 340.963 1.2486 1.33103 0
M  V30 3532 C 341.014 3.28943 -1.49929 0
M  V30 3533 O 340.735 3.28886 -2.89423 0
M  V30 3534 C 342.236 4.22215 -1.35089 0
M  V30 3535 H 339.456 0.575295 -0.345365 0
M  V30 3536 H 342 1.33631 -1.548 0
M  V30 3537 H 340.155 3.751 -0.968423 0
M  V30 3538 H 340.569 4.20493 -3.13506 0
M  V30 3539 H 342.043 5.22987 -1.76603 0
M  V30 3540 H 342.52 4.38195 -0.296935 0
M  V30 3541 H 343.126 3.81907 -1.87155 0
M  V30 3542 N 341.441 0.965919 1.2453 0
M  V30 3543 C 342.718 0.543777 1.87889 0
M  V30 3544 C 343.098 -0.97909 1.87021 0
M  V30 3545 O 342.446 -1.84969 1.3416 0
M  V30 3546 C 342.656 1.13327 3.30088 0
M  V30 3547 C 344.004 1.21707 4.06783 0
M  V30 3548 O 345.028 1.08566 3.39252 0
M  V30 3549 O 343.887 1.42456 5.27606 0
M  V30 3550 H 340.981 0.181054 0.806938 0
M  V30 3551 H 343.527 1.06007 1.32516 0
M  V30 3552 H 342.299 2.17612 3.25209 0
M  V30 3553 H 341.922 0.600911 3.93033 0
M  V30 3554 N 342.919 -1.39368 0.735821 0
M  V30 3555 C 344.165 -2.00794 0.284544 0
M  V30 3556 C 344.498 -1.58255 -1.12557 0
M  V30 3557 O 343.773 -0.811819 -1.76748 0
M  V30 3558 C 344.056 -3.58011 0.387337 0
M  V30 3559 C 343.909 -4.10566 1.83728 0
M  V30 3560 C 345.228 -4.395 -0.22975 0
M  V30 3561 H 342.347 -0.729501 0.104866 0
M  V30 3562 H 344.989 -1.65564 0.93213 0
M  V30 3563 H 343.139 -3.88154 -0.164006 0
M  V30 3564 H 344.811 -3.91139 2.44556 0
M  V30 3565 H 343.054 -3.64095 2.35833 0
M  V30 3566 H 343.725 -5.19702 1.86047 0
M  V30 3567 H 346.201 -4.15406 0.240257 0
M  V30 3568 H 345.077 -5.48752 -0.127485 0
M  V30 3569 H 345.338 -4.22062 -1.3159 0
M  V30 3570 N 344.397 -0.483516 -1.5 0
M  V30 3571 C 345.643 0.0593261 -2.03313 0
M  V30 3572 C 345.998 1.36288 -1.35806 0
M  V30 3573 O 345.291 1.85519 -0.478897 0
M  V30 3574 C 345.485 0.286226 -3.56252 0
M  V30 3575 C 345.314 -0.993788 -4.38582 0
M  V30 3576 C 344.084 -1.54064 -4.81241 0
M  V30 3577 C 346.282 -1.89249 -4.78215 0
M  V30 3578 N 344.264 -2.76838 -5.47936 0
M  V30 3579 C 345.635 -2.96606 -5.44449 0
M  V30 3580 C 347.69 -1.90138 -4.60165 0
M  V30 3581 C 346.393 -4.04857 -5.94544 0
M  V30 3582 C 348.419 -2.97353 -5.1121 0
M  V30 3583 C 347.781 -4.03429 -5.77429 0
M  V30 3584 H 343.88 -0.0186322 -0.781778 0
M  V30 3585 H 346.464 -0.654489 -1.8337 0
M  V30 3586 H 344.635 0.969086 -3.76116 0
M  V30 3587 H 346.367 0.824515 -3.96212 0
M  V30 3588 H 343.122 -1.08813 -4.6093 0
M  V30 3589 H 343.546 -3.39221 -5.85882 0
M  V30 3590 H 348.188 -1.09441 -4.0839 0
M  V30 3591 H 345.906 -4.86363 -6.4535 0
M  V30 3592 H 349.492 -2.99039 -4.99066 0
M  V30 3593 H 348.372 -4.85025 -6.16214 0
M  V30 3594 N 345.875 1.56104 -0.216619 0
M  V30 3595 C 347.121 1.98466 0.417033 0
M  V30 3596 C 347.454 1.10403 1.59765 0
M  V30 3597 O 346.729 0.160632 1.93836 0
M  V30 3598 C 347.012 3.49769 0.85637 0
M  V30 3599 C 346.865 4.48606 -0.327546 0
M  V30 3600 C 348.184 4.05339 1.7143 0
M  V30 3601 H 345.303 0.721551 0.150112 0
M  V30 3602 H 347.945 1.87423 -0.311864 0
M  V30 3603 H 346.095 3.5931 1.47745 0
M  V30 3604 H 347.767 4.5108 -0.965618 0
M  V30 3605 H 346.01 4.22682 -0.975805 0
M  V30 3606 H 346.681 5.51995 0.0227149 0
M  V30 3607 H 349.157 3.98712 1.19031 0
M  V30 3608 H 348.033 5.11533 1.99061 0
M  V30 3609 H 348.294 3.51918 2.67593 0
M  V30 3610 N 347.353 -0.0568162 1.57498 0
M  V30 3611 C 348.578 -0.769402 1.92601 0
M  V30 3612 C 349.003 -1.69559 0.814336 0
M  V30 3613 O 348.361 -1.79811 -0.231903 0
M  V30 3614 C 348.409 -1.52634 3.26704 0
M  V30 3615 O 347.513 -2.63797 3.16994 0
M  V30 3616 H 346.854 -0.208909 0.63028 0
M  V30 3617 H 349.384 -0.0205798 2.0459 0
M  V30 3618 H 349.394 -1.90234 3.60936 0
M  V30 3619 H 348.069 -0.846875 4.07186 0
M  V30 3620 H 346.646 -2.28943 2.94346 0
M  V30 3621 N 348.832 -1.54138 -0.328536 0
M  V30 3622 C 349.765 -1.78014 -1.4278 0
M  V30 3623 C 350.743 -0.629889 -1.49904 0
M  V30 3624 O 351.927 -0.866763 -1.6739 0
M  V30 3625 C 349.054 -1.89225 -2.80912 0
M  V30 3626 C 348.1 -3.11483 -2.91343 0
M  V30 3627 S 348.933 -4.70201 -2.56263 0
M  V30 3628 C 350.089 -4.84312 -3.96476 0
M  V30 3629 H 350.322 -2.70974 -1.22313 0
M  V30 3630 H 347.855 -1.45197 -0.525084 0
M  V30 3631 H 349.813 -1.9637 -3.60485 0
M  V30 3632 H 348.474 -0.972518 -2.98665 0
M  V30 3633 H 347.667 -3.16046 -3.92595 0
M  V30 3634 H 347.269 -3.02642 -2.19736 0
M  V30 3635 H 349.561 -4.66643 -4.91173 0
M  V30 3636 H 350.504 -5.86411 -3.96898 0
M  V30 3637 H 350.912 -4.12652 -3.85199 0
M  V30 3638 N 350.31 0.590341 -1.46126 0
M  V30 3639 C 351.558 1.34616 -1.50742 0
M  V30 3640 C 351.879 1.94363 -0.157486 0
M  V30 3641 O 351.149 1.78136 0.815136 0
M  V30 3642 H 349.729 0.499789 -0.555175 0
M  V30 3643 H 352.391 0.691953 -1.82203 0
M  V30 3644 H 351.487 2.15678 -2.25587 0
M  V30 3645 N 351.788 1.33704 0.83433 0
M  V30 3646 C 352.698 1.26382 1.97648 0
M  V30 3647 C 353.714 0.173548 1.73132 0
M  V30 3648 O 354.89 0.397962 1.97429 0
M  V30 3649 C 351.955 1.00769 3.31733 0
M  V30 3650 C 351.016 2.1884 3.69334 0
M  V30 3651 C 350.249 1.9444 4.9702 0
M  V30 3652 O 350.472 0.896961 5.63303 0
M  V30 3653 O 349.406 2.81093 5.32231 0
M  V30 3654 H 353.232 2.22444 2.06767 0
M  V30 3655 H 350.817 1.13795 0.968037 0
M  V30 3656 H 352.699 0.882186 4.12062 0
M  V30 3657 H 351.374 0.0773783 3.23608 0
M  V30 3658 H 350.281 2.36946 2.89495 0
M  V30 3659 H 351.614 3.10221 3.82131 0
M  V30 3660 N 353.266 -1.05314 1.17247 0
M  V30 3661 C 354.229 -2.112 0.890357 0
M  V30 3662 C 355.229 -1.60359 -0.118943 0
M  V30 3663 O 356.419 -1.73833 0.113086 0
M  V30 3664 C 353.551 -3.39266 0.333422 0
M  V30 3665 H 354.744 -2.37659 1.82916 0
M  V30 3666 H 352.297 -1.21538 0.982758 0
M  V30 3667 H 353.032 -3.18462 -0.612587 0
M  V30 3668 H 352.817 -3.77477 1.06082 0
M  V30 3669 H 354.307 -4.17315 0.154322 0
M  V30 3670 N 354.744 -0.972509 -1.24016 0
M  V30 3671 C 355.691 -0.505969 -2.25186 0
M  V30 3672 C 356.661 0.451009 -1.5986 0
M  V30 3673 O 357.846 0.360307 -1.87367 0
M  V30 3674 C 354.986 0.193089 -3.44559 0
M  V30 3675 C 354.099 -0.803222 -4.24467 0
M  V30 3676 C 353.234 -0.0797793 -5.3114 0
M  V30 3677 C 352.273 -1.06583 -6.02749 0
M  V30 3678 N 351.41 -0.372074 -7.01113 0
M  V30 3679 H 356.25 -1.37351 -2.64459 0
M  V30 3680 H 353.787 -0.688419 -1.29997 0
M  V30 3681 H 355.745 0.615125 -4.1264 0
M  V30 3682 H 354.375 1.02455 -3.06109 0
M  V30 3683 H 353.427 -1.34368 -3.55878 0
M  V30 3684 H 354.739 -1.55494 -4.73944 0
M  V30 3685 H 353.893 0.400015 -6.0538 0
M  V30 3686 H 352.632 0.704597 -4.82583 0
M  V30 3687 H 351.637 -1.55645 -5.27309 0
M  V30 3688 H 352.862 -1.85074 -6.53395 0
M  V30 3689 H 350.808 0.393238 -6.5482 0
M  V30 3690 H 350.725 -1.06258 -7.48495 0
M  V30 3691 H 351.993 0.0855932 -7.79453 0
M  V30 3692 N 356.222 1.38976 -0.743202 0
M  V30 3693 C 357.132 2.3434 -0.110399 0
M  V30 3694 C 358.148 1.58741 0.712559 0
M  V30 3695 O 359.324 1.9099 0.639125 0
M  V30 3696 C 356.389 3.37812 0.780012 0
M  V30 3697 C 355.45 4.29263 -0.0561319 0
M  V30 3698 C 354.683 5.27793 0.791875 0
M  V30 3699 O 354.906 5.33043 2.03031 0
M  V30 3700 O 353.84 6.01512 0.216183 0
M  V30 3701 H 357.666 2.90129 -0.897714 0
M  V30 3702 H 355.251 1.40643 -0.503966 0
M  V30 3703 H 357.133 4.01194 1.28923 0
M  V30 3704 H 355.808 2.84395 1.546 0
M  V30 3705 H 354.715 3.69076 -0.611056 0
M  V30 3706 H 356.048 4.85907 -0.784531 0
M  V30 3707 N 357.7 0.491464 1.49741 0
M  V30 3708 C 358.647 -0.292027 2.28945 0
M  V30 3709 C 359.617 -0.968973 1.34908 0
M  V30 3710 O 360.802 -0.97748 1.6386 0
M  V30 3711 C 357.942 -1.35617 3.17336 0
M  V30 3712 C 357.055 -0.691957 4.26422 0
M  V30 3713 C 356.19 -1.73572 5.02042 0
M  V30 3714 C 355.229 -1.05286 6.02977 0
M  V30 3715 N 354.366 -2.0404 6.71798 0
M  V30 3716 H 359.206 0.389654 2.95442 0
M  V30 3717 H 356.743 0.204003 1.45679 0
M  V30 3718 H 358.701 -1.98502 3.66951 0
M  V30 3719 H 357.331 -2.00674 2.52844 0
M  V30 3720 H 356.383 0.0499523 3.80367 0
M  V30 3721 H 357.695 -0.153946 4.98562 0
M  V30 3722 H 356.849 -2.43987 5.55478 0
M  V30 3723 H 355.588 -2.30757 4.29654 0
M  V30 3724 H 354.593 -0.334446 5.48782 0
M  V30 3725 H 355.818 -0.487636 6.77347 0
M  V30 3726 H 353.764 -2.60205 6.02187 0
M  V30 3727 H 353.681 -1.55279 7.39881 0
M  V30 3728 H 354.949 -2.73772 7.29842 0
M  V30 3729 N 359.178 -1.55987 0.224894 0
M  V30 3730 C 360.424 -1.99433 -0.39973 0
M  V30 3731 C 360.779 -1.11004 -1.57149 0
M  V30 3732 O 360.072 -0.160725 -1.90925 0
M  V30 3733 C 360.266 -3.46394 -0.880106 0
M  V30 3734 C 360.095 -4.4904 0.243565 0
M  V30 3735 C 358.865 -5.00272 0.711056 0
M  V30 3736 C 361.063 -5.03195 1.06299 0
M  V30 3737 N 359.045 -5.86628 1.80944 0
M  V30 3738 C 360.416 -5.86508 2.01017 0
M  V30 3739 C 362.471 -4.8555 1.10205 0
M  V30 3740 C 361.174 -6.54062 2.99324 0
M  V30 3741 C 363.2 -5.53866 2.07332 0
M  V30 3742 C 362.562 -6.3695 3.00789 0
M  V30 3743 H 358.661 -0.773815 -0.112847 0
M  V30 3744 H 361.245 -1.91754 0.337432 0
M  V30 3745 H 359.416 -3.54515 -1.58662 0
M  V30 3746 H 361.148 -3.76752 -1.47783 0
M  V30 3747 H 357.903 -4.72655 0.29906 0
M  V30 3748 H 358.327 -6.34507 2.36073 0
M  V30 3749 H 362.969 -4.20966 0.39343 0
M  V30 3750 H 360.687 -7.17827 3.71147 0
M  V30 3751 H 364.273 -5.42178 2.11032 0
M  V30 3752 H 363.153 -6.8888 3.74718 0
M  V30 3753 N 360.656 0.0484629 -1.57525 0
M  V30 3754 C 361.619 1.03956 -2.04269 0
M  V30 3755 C 362.619 1.30211 -0.943496 0
M  V30 3756 O 363.809 1.25539 -1.20771 0
M  V30 3757 C 360.941 2.37742 -2.44319 0
M  V30 3758 H 362.134 0.636182 -2.93075 0
M  V30 3759 H 359.687 0.294811 -1.53494 0
M  V30 3760 H 360.422 2.82866 -1.5861 0
M  V30 3761 H 360.207 2.20021 -3.24551 0
M  V30 3762 H 361.697 3.08936 -2.80978 0
M  V30 3763 N 362.134 1.5431 0.320358 0
M  V30 3764 C 363.044 1.86946 1.41734 0
M  V30 3765 C 364.06 0.761689 1.56443 0
M  V30 3766 O 365.236 1.05629 1.71477 0
M  V30 3767 C 362.301 2.09293 2.76401 0
M  V30 3768 C 361.362 3.33082 2.70841 0
M  V30 3769 C 360.595 3.54353 3.99086 0
M  V30 3770 O 360.818 2.79002 4.97508 0
M  V30 3771 O 359.752 4.47838 4.0215 0
M  V30 3772 H 363.578 2.80232 1.17062 0
M  V30 3773 H 361.163 1.40255 0.514673 0
M  V30 3774 H 363.045 2.25303 3.56113 0
M  V30 3775 H 361.72 1.19194 3.00956 0
M  V30 3776 H 360.627 3.22454 1.89668 0
M  V30 3777 H 361.96 4.23249 2.5124 0
M  V30 3778 N 363.613 -0.582584 1.46437 0
M  V30 3779 C 365.029 -0.905962 1.31394 0
M  V30 3780 C 365.229 -1.99468 0.285476 0
M  V30 3781 O 364.285 -2.50566 -0.311914 0
M  V30 3782 C 365.598 -1.3232 2.70022 0
M  V30 3783 C 367.146 -1.43604 2.78113 0
M  V30 3784 C 367.621 -1.88694 4.17323 0
M  V30 3785 N 369.112 -1.95887 4.19741 0
M  V30 3786 C 369.847 -2.32051 5.24347 0
M  V30 3787 N 369.343 -2.67006 6.39281 0
M  V30 3788 N 371.136 -2.32606 5.11713 0
M  V30 3789 H 363.287 0.1366 2.1196 0
M  V30 3790 H 365.55 -0.00155736 0.947999 0
M  V30 3791 H 365.256 -0.597242 3.46592 0
M  V30 3792 H 365.13 -2.28469 3.00136 0
M  V30 3793 H 367.517 -2.15286 2.01832 0
M  V30 3794 H 367.598 -0.457059 2.51684 0
M  V30 3795 H 367.242 -1.1759 4.941 0
M  V30 3796 H 367.172 -2.8755 4.4116 0
M  V30 3797 H 369.663 -1.71362 3.36814 0
M  V30 3798 H 369.976 -2.93554 7.14875 0
M  V30 3799 H 368.321 -2.64644 6.42642 0
M  V30 3800 H 371.512 -2.04721 4.2096 0
M  V30 3801 H 371.685 -2.60462 5.93349 0
M  V30 3802 N 365.091 -1.34144 -0.827227 0
M  V30 3803 C 366.34 -1.25602 -1.5782 0
M  V30 3804 C 366.653 0.173445 -1.94829 0
M  V30 3805 O 367.859 0.380984 -2.68814 0
M  V30 3806 C 366.315 -2.20151 -2.84713 0
M  V30 3807 C 365.923 -3.68331 -2.55021 0
M  V30 3808 C 367.667 -2.20508 -3.62735 0
M  V30 3809 C 365.574 -4.54762 -3.78082 0
M  V30 3810 H 364.504 -0.466573 -0.592306 0
M  V30 3811 H 367.155 -1.59283 -0.911116 0
M  V30 3812 H 365.537 -1.79417 -3.53023 0
M  V30 3813 H 366.711 -4.17577 -1.94849 0
M  V30 3814 H 365.026 -3.7038 -1.90283 0
M  V30 3815 H 367.623 -2.82306 -4.54101 0
M  V30 3816 H 367.966 -1.20322 -3.98533 0
M  V30 3817 H 368.499 -2.59664 -3.01362 0
M  V30 3818 H 365.238 -5.55867 -3.47407 0
M  V30 3819 H 364.758 -4.10254 -4.37552 0
M  V30 3820 H 366.437 -4.69153 -4.45538 0
M  V30 3821 N 366.569 1.04691 -1.17803 0
M  V30 3822 C 367.532 2.10724 -0.901545 0
M  V30 3823 C 368.532 1.6042 0.110437 0
M  V30 3824 O 369.722 1.7377 -0.122303 0
M  V30 3825 C 366.854 3.39084 -0.351409 0
M  V30 3826 H 368.047 2.36686 -1.84174 0
M  V30 3827 H 365.6 1.21015 -0.98919 0
M  V30 3828 H 366.335 3.18782 0.59569 0
M  V30 3829 H 366.12 3.76909 -1.08083 0
M  V30 3830 H 367.61 4.17227 -0.176451 0
M  V30 3831 N 368.047 0.979072 1.23499 0
M  V30 3832 C 368.977 0.537606 2.27227 0
M  V30 3833 C 369.958 -0.428539 1.64613 0
M  V30 3834 O 371.143 -0.322191 1.91509 0
M  V30 3835 C 368.273 -0.162052 3.46922 0
M  V30 3836 C 367.227 0.721242 4.21879 0
M  V30 3837 C 366.553 -0.110555 5.34586 0
M  V30 3838 C 367.853 2.01141 4.82016 0
M  V30 3839 H 369.547 1.40462 2.64406 0
M  V30 3840 H 367.093 0.67684 1.27102 0
M  V30 3841 H 369.046 -0.482192 4.18632 0
M  V30 3842 H 367.77 -1.06351 3.08799 0
M  V30 3843 H 366.429 1.02482 3.51984 0
M  V30 3844 H 366.077 -1.0125 4.92704 0
M  V30 3845 H 365.777 0.477325 5.85658 0
M  V30 3846 H 367.301 -0.425107 6.09118 0
M  V30 3847 H 368.715 1.75612 5.45741 0
M  V30 3848 H 367.112 2.54695 5.43369 0
M  V30 3849 H 368.182 2.69909 4.02836 0
M  V30 3850 N 369.525 -1.3858 0.750561 0
M  V30 3851 C 370.455 -2.33102 0.136237 0
M  V30 3852 C 371.436 -1.54713 -0.706965 0
M  V30 3853 O 372.621 -1.83043 -0.648769 0
M  V30 3854 C 369.751 -3.38882 -0.760017 0
M  V30 3855 C 368.705 -4.27995 -0.0197785 0
M  V30 3856 C 368.031 -5.24605 -1.03408 0
M  V30 3857 C 369.331 -5.09554 1.14684 0
M  V30 3858 H 371.025 -2.84726 0.925822 0
M  V30 3859 H 368.571 -1.36898 0.446654 0
M  V30 3860 H 370.524 -4.0397 -1.19943 0
M  V30 3861 H 369.248 -2.85734 -1.58189 0
M  V30 3862 H 367.907 -3.64409 0.400184 0
M  V30 3863 H 367.555 -4.67746 -1.84994 0
M  V30 3864 H 367.255 -5.85081 -0.543464 0
M  V30 3865 H 368.779 -5.9257 -1.47288 0
M  V30 3866 H 370.193 -5.67899 0.785118 0
M  V30 3867 H 368.59 -5.7925 1.56812 0
M  V30 3868 H 369.66 -4.4347 1.96118 0
M  V30 3869 N 371.003 -0.499398 -1.49478 0
M  V30 3870 C 372.419 -0.155261 -1.58843 0
M  V30 3871 C 372.619 1.34008 -1.50479 0
M  V30 3872 O 371.675 2.11589 -1.37791 0
M  V30 3873 C 372.988 -0.730636 -2.91689 0
M  V30 3874 C 374.536 -0.696599 -3.0515 0
M  V30 3875 C 375.011 -1.25001 -4.40612 0
M  V30 3876 N 376.502 -1.21064 -4.47099 0
M  V30 3877 C 377.237 -1.60905 -5.50361 0
M  V30 3878 N 376.733 -2.08331 -6.60735 0
M  V30 3879 N 378.526 -1.52331 -5.41065 0
M  V30 3880 H 370.677 -1.47162 -1.53158 0
M  V30 3881 H 372.94 -0.610309 -0.725415 0
M  V30 3882 H 372.646 -1.77928 -3.03372 0
M  V30 3883 H 372.52 -0.190161 -3.7672 0
M  V30 3884 H 374.907 0.343204 -2.93097 0
M  V30 3885 H 374.988 -1.2742 -2.21806 0
M  V30 3886 H 374.632 -2.28859 -4.53416 0
M  V30 3887 H 374.562 -0.64836 -5.22593 0
M  V30 3888 H 377.053 -0.863128 -3.67911 0
M  V30 3889 H 377.366 -2.36805 -7.35624 0
M  V30 3890 H 375.711 -2.12304 -6.6178 0
M  V30 3891 H 378.902 -1.151 -4.53729 0
M  V30 3892 H 379.075 -1.83704 -6.21415 0
M  V30 3893 N 372.481 1.55866 -0.233164 0
M  V30 3894 C 373.391 2.24431 0.683217 0
M  V30 3895 C 374.407 1.2558 1.2044 0
M  V30 3896 O 375.583 1.58422 1.24356 0
M  V30 3897 C 372.648 2.91979 1.86947 0
M  V30 3898 C 371.709 4.06204 1.38912 0
M  V30 3899 C 370.942 4.70522 2.51883 0
M  V30 3900 O 371.165 4.33865 3.70293 0
M  V30 3901 O 370.099 5.59296 2.22423 0
M  V30 3902 H 373.925 3.03426 0.129059 0
M  V30 3903 H 371.51 1.494 -0.0022283 0
M  V30 3904 H 373.392 3.34573 2.56201 0
M  V30 3905 H 372.067 2.15935 2.41151 0
M  V30 3906 H 370.974 3.68155 0.664259 0
M  V30 3907 H 372.307 4.84025 0.893328 0
M  V30 3908 N 373.959 -0.0401083 1.57549 0
M  V30 3909 C 375.189 -0.744115 1.92734 0
M  V30 3910 C 375.597 -1.70005 0.830348 0
M  V30 3911 O 374.94 -1.82576 -0.20286 0
M  V30 3912 C 375.002 -1.56516 3.2364 0
M  V30 3913 C 374.666 -0.7752 4.50377 0
M  V30 3914 C 375.663 -0.0803326 5.19838 0
M  V30 3915 C 373.348 -0.733002 4.96923 0
M  V30 3916 C 375.342 0.646154 6.34116 0
M  V30 3917 C 373.029 -0.00276321 6.111 0
M  V30 3918 C 374.027 0.685585 6.7955 0
M  V30 3919 O 373.715 1.40399 7.91545 0
M  V30 3920 H 373.447 -0.214861 0.640945 0
M  V30 3921 H 376.001 -0.00503675 2.05399 0
M  V30 3922 H 374.231 -2.3478 3.07271 0
M  V30 3923 H 375.92 -2.15076 3.44234 0
M  V30 3924 H 376.686 -0.104035 4.84888 0
M  V30 3925 H 372.565 -1.25827 4.43496 0
M  V30 3926 H 376.109 1.18398 6.87479 0
M  V30 3927 H 372.006 0.0229012 6.45496 0
M  V30 3928 H 372.774 1.31653 8.07843 0
M  V30 3929 N 375.437 -1.54477 -0.31217 0
M  V30 3930 C 376.369 -1.81011 -1.40598 0
M  V30 3931 C 377.382 -0.692546 -1.47335 0
M  V30 3932 O 378.571 -0.969847 -1.49854 0
M  V30 3933 C 375.671 -1.92307 -2.79054 0
M  V30 3934 C 374.844 -3.22594 -2.95384 0
M  V30 3935 C 373.903 -3.24448 -4.1427 0
M  V30 3936 O 372.929 -3.98035 -4.06887 0
M  V30 3937 N 374.131 -2.49042 -5.24365 0
M  V30 3938 H 376.896 -2.75408 -1.18196 0
M  V30 3939 H 374.457 -1.53914 -0.502202 0
M  V30 3940 H 376.449 -1.90962 -3.56813 0
M  V30 3941 H 375.019 -1.04955 -2.94454 0
M  V30 3942 H 374.239 -3.36806 -2.04831 0
M  V30 3943 H 375.527 -4.08593 -3.03198 0
M  V30 3944 H 374.925 -1.88867 -5.33241 0
M  V30 3945 H 373.482 -2.53463 -6.005 0
M  V30 3946 N 376.915 0.57481 -1.46744 0
M  V30 3947 C 378.161 1.3347 -1.52688 0
M  V30 3948 C 378.494 1.93353 -0.181229 0
M  V30 3949 O 377.769 1.76912 0.808237 0
M  V30 3950 C 378.052 2.45811 -2.63152 0
M  V30 3951 C 377.905 1.90912 -4.07275 0
M  V30 3952 C 379.224 3.47822 -2.69644 0
M  V30 3953 H 376.343 0.483935 -0.555856 0
M  V30 3954 H 378.985 0.644968 -1.78718 0
M  V30 3955 H 377.135 3.04646 -2.41088 0
M  V30 3956 H 378.807 1.36473 -4.4065 0
M  V30 3957 H 377.05 1.21691 -4.16382 0
M  V30 3958 H 377.721 2.72042 -4.80309 0
M  V30 3959 H 380.197 2.9888 -2.895 0
M  V30 3960 H 379.073 4.23876 -3.48742 0
M  V30 3961 H 379.334 4.05555 -1.76005 0
M  V30 3962 N 378.394 1.34581 0.820102 0
M  V30 3963 C 379.342 1.26401 1.95258 0
M  V30 3964 C 380.336 0.161553 1.68628 0
M  V30 3965 O 381.542 0.326703 1.7701 0
M  V30 3966 H 377.917 0.392749 0.64129 0
M  V30 3967 H 379.888 2.22105 1.99279 0
M  V30 3968 C 378.637 1.03919 3.31807 0
M  V30 3969 H 377.96 1.87984 3.52848 0
M  V30 3970 H 379.4 1.02232 4.11491 0
M  V30 3971 C 377.859 -0.257433 3.35915 0
M  V30 3972 O 378.389 -1.25784 3.81499 0
M  V30 3973 N 376.595 -0.291524 2.89134 0
M  V30 3974 H 376.142 0.523161 2.52232 0
M  V30 3975 H 376.1 -1.15883 2.92264 0
M  V30 3976 N 379.872 -1.04064 1.18357 0
M  V30 3977 C 381.097 -1.81454 1.00445 0
M  V30 3978 C 381.522 -1.82823 -0.442423 0
M  V30 3979 O 380.88 -1.24555 -1.31741 0
M  V30 3980 C 380.928 -3.24925 1.56384 0
M  V30 3981 O 380.032 -4.04856 0.785209 0
M  V30 3982 H 379.373 -0.560604 0.355835 0
M  V30 3983 H 381.903 -1.31059 1.57114 0
M  V30 3984 H 381.913 -3.75702 1.59097 0
M  V30 3985 H 380.588 -3.23244 2.61699 0
M  V30 3986 H 379.165 -3.63537 0.830399 0
M  V30 3987 N 381.35 -0.985608 -1.22978 0
M  V30 3988 C 382.297 -0.529825 -2.24636 0
M  V30 3989 C 383.267 0.434028 -1.60329 0
M  V30 3990 O 384.452 0.340414 -1.87739 0
M  V30 3991 C 381.592 0.156533 -3.44745 0
M  V30 3992 C 380.705 -0.848197 -4.23591 0
M  V30 3993 C 379.84 -0.136109 -5.31026 0
M  V30 3994 C 378.879 -1.1297 -6.01585 0
M  V30 3995 N 378.016 -0.446415 -7.00679 0
M  V30 3996 H 382.856 -1.40148 -2.62988 0
M  V30 3997 H 380.393 -0.702168 -1.29259 0
M  V30 3998 H 382.351 0.571324 -4.1327 0
M  V30 3999 H 380.981 0.992025 -3.07179 0
M  V30 4000 H 380.033 -1.38135 -3.54433 0
M  V30 4001 H 381.345 -1.60512 -4.72268 0
M  V30 4002 H 380.499 0.335784 -6.0577 0
M  V30 4003 H 379.238 0.653373 -4.83304 0
M  V30 4004 H 378.243 -1.6123 -5.25628 0
M  V30 4005 H 379.468 -1.91993 -6.51395 0
M  V30 4006 H 377.414 0.323763 -6.55201 0
M  V30 4007 H 377.331 -1.1419 -7.47326 0
M  V30 4008 H 378.599 0.00291697 -7.795 0
M  V30 4009 N 382.828 1.3818 -0.7579 0
M  V30 4010 C 383.761 2.28055 -0.0814093 0
M  V30 4011 C 384.739 1.45603 0.723779 0
M  V30 4012 O 385.923 1.74961 0.701491 0
M  V30 4013 C 383.05 3.2676 0.891394 0
M  V30 4014 C 382.096 4.26153 0.171909 0
M  V30 4015 S 382.929 5.23434 -1.13035 0
M  V30 4016 C 384.085 6.25694 -0.160727 0
M  V30 4017 H 384.318 2.85082 -0.84353 0
M  V30 4018 H 381.851 1.44246 -0.550671 0
M  V30 4019 H 383.809 3.8414 1.44731 0
M  V30 4020 H 382.47 2.68706 1.62652 0
M  V30 4021 H 381.663 4.95738 0.908843 0
M  V30 4022 H 381.265 3.72691 -0.312606 0
M  V30 4023 H 383.557 6.74161 0.671773 0
M  V30 4024 H 384.5 7.03285 -0.824353 0
M  V30 4025 H 384.908 5.64064 0.221892 0
M  V30 4026 N 384.306 0.507319 1.49211 0
M  V30 4027 C 385.239 -0.314509 2.26022 0
M  V30 4028 C 386.217 -0.964849 1.30879 0
M  V30 4029 O 387.401 -0.993707 1.6018 0
M  V30 4030 C 384.528 -1.44346 3.06402 0
M  V30 4031 C 383.574 -0.90685 4.16748 0
M  V30 4032 S 384.407 0.207392 5.35098 0
M  V30 4033 C 385.563 -0.924573 6.19033 0
M  V30 4034 H 385.796 0.337416 2.95379 0
M  V30 4035 H 383.329 0.292718 1.516 0
M  V30 4036 H 385.287 -2.09029 3.53295 0
M  V30 4037 H 383.948 -2.06702 2.36502 0
M  V30 4038 H 383.141 -1.75309 4.72528 0
M  V30 4039 H 382.743 -0.33712 3.72478 0
M  V30 4040 H 385.035 -1.82839 6.52362 0
M  V30 4041 H 385.978 -0.405248 7.06939 0
M  V30 4042 H 386.386 -1.19476 5.51712 0
M  V30 4043 N 385.784 -1.5574 0.241426 0
M  V30 4044 C 386.716 -2.18469 -0.693091 0
M  V30 4045 C 387.729 -1.15942 -1.14286 0
M  V30 4046 O 388.918 -1.42832 -1.07058 0
M  V30 4047 C 386.018 -2.7696 -1.95311 0
M  V30 4048 C 385.191 -4.04853 -1.65568 0
M  V30 4049 C 384.25 -4.47715 -2.76474 0
M  V30 4050 O 383.276 -5.14205 -2.44094 0
M  V30 4051 N 384.478 -4.15044 -4.05855 0
M  V30 4052 H 387.243 -2.99292 -0.156388 0
M  V30 4053 H 384.804 -1.61784 0.0611752 0
M  V30 4054 H 386.796 -3.02594 -2.68736 0
M  V30 4055 H 385.366 -2.00326 -2.39975 0
M  V30 4056 H 384.586 -3.86865 -0.756886 0
M  V30 4057 H 385.874 -4.88246 -1.43153 0
M  V30 4058 H 385.272 -3.61654 -4.34998 0
M  V30 4059 H 383.829 -4.45526 -4.75762 0
M  V30 4060 N 387.262 0.0317525 -1.57568 0
M  V30 4061 C 388.192 1.03274 -2.0942 0
M  V30 4062 C 389.173 1.3788 -0.996143 0
M  V30 4063 O 390.358 1.46811 -1.27122 0
M  V30 4064 C 387.488 2.33448 -2.57137 0
M  V30 4065 C 386.442 2.13091 -3.71182 0
M  V30 4066 C 385.768 3.49001 -4.05095 0
M  V30 4067 C 387.068 1.51928 -4.99715 0
M  V30 4068 H 388.762 0.60112 -2.93303 0
M  V30 4069 H 386.308 0.287705 -1.41097 0
M  V30 4070 H 388.261 3.03802 -2.92032 0
M  V30 4071 H 386.985 2.78665 -1.70333 0
M  V30 4072 H 385.644 1.45171 -3.36632 0
M  V30 4073 H 385.292 3.91862 -3.15362 0
M  V30 4074 H 384.992 3.36207 -4.81911 0
M  V30 4075 H 386.516 4.20721 -4.42522 0
M  V30 4076 H 387.93 2.12196 -5.32584 0
M  V30 4077 H 386.327 1.49716 -5.81124 0
M  V30 4078 H 387.397 0.484811 -4.8247 0
M  V30 4079 N 388.74 1.54641 0.303973 0
M  V30 4080 C 389.968 1.77768 1.05858 0
M  V30 4081 C 390.383 0.535722 1.8104 0
M  V30 4082 O 389.74 -0.494337 1.75677 0
M  V30 4083 C 389.791 2.9834 2.04146 0
M  V30 4084 O 389.512 4.17736 1.32015 0
M  V30 4085 C 391.013 3.33832 2.91669 0
M  V30 4086 H 388.233 0.592961 0.314067 0
M  V30 4087 H 390.777 2.01583 0.344149 0
M  V30 4088 H 388.932 2.76742 2.71096 0
M  V30 4089 H 389.346 4.85693 1.97998 0
M  V30 4090 H 390.82 4.21448 3.56491 0
M  V30 4091 H 391.297 2.51857 3.59812 0
M  V30 4092 H 391.903 3.57579 2.30254 0
M  V30 4093 N 390.218 -0.567019 1.47046 0
M  V30 4094 C 391.466 -1.322 1.52864 0
M  V30 4095 C 391.787 -1.94088 0.188388 0
M  V30 4096 O 391.057 -1.7941 -0.786693 0
M  V30 4097 H 389.637 -0.490894 0.563056 0
M  V30 4098 H 392.299 -0.662879 1.83281 0
M  V30 4099 H 391.395 -2.12062 2.2899 0
M  V30 4100 N 391.696 -1.35014 -0.812953 0
M  V30 4101 C 392.644 -1.27435 -1.94585 0
M  V30 4102 C 393.638 -0.170494 -1.6854 0
M  V30 4103 O 394.844 -0.336085 -1.76835 0
M  V30 4104 H 391.219 -0.396144 -0.639198 0
M  V30 4105 H 393.19 -2.23158 -1.98098 0
M  V30 4106 C 391.939 -1.05677 -3.31252 0
M  V30 4107 H 391.262 -1.89853 -3.51846 0
M  V30 4108 H 392.702 -1.04413 -4.10943 0
M  V30 4109 C 391.161 0.239615 -3.36047 0
M  V30 4110 O 391.691 1.23759 -3.8216 0
M  V30 4111 N 389.897 0.276186 -2.89285 0
M  V30 4112 H 389.444 -0.53653 -2.51951 0
M  V30 4113 H 389.402 1.14332 -2.92875 0
M  V30 4114 N 393.175 1.03435 -1.18907 0
M  V30 4115 C 394.586 1.58195 -0.991523 0
M  V30 4116 C 394.937 1.90801 0.457081 0
M  V30 4117 O 394.062 1.70272 1.33553 0
M  V30 4118 C 394.657 2.87432 -1.79355 0
M  V30 4119 C 393.216 3.38785 -1.64017 0
M  V30 4120 C 392.363 2.12292 -1.78402 0
M  V30 4121 H 395.314 0.860299 -1.33359 0
M  V30 4122 H 395.335 3.58096 -1.28638 0
M  V30 4123 H 394.847 2.63669 -2.84781 0
M  V30 4124 H 392.948 3.67547 -0.611536 0
M  V30 4125 H 393.061 4.12186 -2.44212 0
M  V30 4126 H 391.425 2.23901 -1.2141 0
M  V30 4127 H 392.208 1.90977 -2.85277 0
M  V30 4128 N 394.653 0.992116 1.22453 0
M  V30 4129 C 395.563 0.55065 2.28046 0
M  V30 4130 C 396.579 -0.400189 1.69335 0
M  V30 4131 O 397.755 -0.267215 1.99619 0
M  V30 4132 C 394.82 -0.128496 3.46462 0
M  V30 4133 C 393.881 0.865208 4.20491 0
M  V30 4134 C 393.114 0.218377 5.33253 0
M  V30 4135 O 393.337 -0.987894 5.6178 0
M  V30 4136 O 392.271 0.922845 5.94783 0
M  V30 4137 H 396.097 1.4291 2.67975 0
M  V30 4138 H 393.682 0.760326 1.28606 0
M  V30 4139 H 395.564 -0.508947 4.18315 0
M  V30 4140 H 394.239 -0.981526 3.0846 0
M  V30 4141 H 393.146 1.29658 3.50913 0
M  V30 4142 H 394.479 1.68741 4.62371 0
M  V30 4143 N 396.131 -1.37776 0.765217 0
M  V30 4144 C 397.377 -2.00145 0.327072 0
M  V30 4145 C 397.71 -1.60607 -1.09175 0
M  V30 4146 O 396.985 -0.849127 -1.74986 0
M  V30 4147 C 397.268 -3.57109 0.46319 0
M  V30 4148 C 397.121 -4.06576 1.92395 0
M  V30 4149 C 398.44 -4.39888 -0.136473 0
M  V30 4150 H 395.559 -0.727113 0.120316 0
M  V30 4151 H 398.201 -1.63549 0.967039 0
M  V30 4152 H 396.351 -3.88414 -0.0816358 0
M  V30 4153 H 398.023 -3.85864 2.52798 0
M  V30 4154 H 396.266 -3.59011 2.43503 0
M  V30 4155 H 396.937 -5.15639 1.97028 0
M  V30 4156 H 399.413 -4.14803 0.328317 0
M  V30 4157 H 398.289 -5.48899 -0.0110582 0
M  V30 4158 H 398.55 -4.24758 -1.22608 0
M  V30 4159 N 397.609 -0.515225 -1.4894 0
M  V30 4160 C 398.556 0.255567 -2.29381 0
M  V30 4161 C 399.526 0.947387 -1.36432 0
M  V30 4162 O 400.711 0.951288 -1.65394 0
M  V30 4163 C 397.851 1.30551 -3.19453 0
M  V30 4164 C 396.964 0.624029 -4.27469 0
M  V30 4165 C 396.099 1.65563 -5.0474 0
M  V30 4166 C 395.138 0.956802 -6.04576 0
M  V30 4167 N 394.275 1.93326 -6.74959 0
M  V30 4168 H 399.115 -0.436607 -2.94784 0
M  V30 4169 H 396.652 -0.227154 -1.45336 0
M  V30 4170 H 398.61 1.92639 -3.70062 0
M  V30 4171 H 397.24 1.96626 -2.56004 0
M  V30 4172 H 396.292 -0.110459 -3.8024 0
M  V30 4173 H 397.604 0.0746092 -4.98744 0
M  V30 4174 H 396.758 2.35119 -5.59289 0
M  V30 4175 H 395.497 2.23893 -4.3327 0
M  V30 4176 H 394.502 0.247097 -5.49244 0
M  V30 4177 H 395.727 0.379814 -6.78037 0
M  V30 4178 H 393.673 2.50591 -6.06251 0
M  V30 4179 H 393.59 1.43489 -7.42258 0
M  V30 4180 H 394.858 2.62126 -7.34105 0
M  V30 4181 N 399.087 1.5561 -0.249682 0
M  V30 4182 C 400.334 1.99011 0.374287 0
M  V30 4183 C 400.662 1.13785 1.57744 0
M  V30 4184 O 399.917 0.189326 1.94782 0
M  V30 4185 C 400.216 3.4775 0.824887 0
M  V30 4186 C 399.882 4.50086 -0.270819 0
M  V30 4187 C 398.544 4.77791 -0.571746 0
M  V30 4188 C 400.896 5.11312 -1.01041 0
M  V30 4189 C 398.224 5.63997 -1.61629 0
M  V30 4190 C 400.576 5.98651 -2.0445 0
M  V30 4191 C 399.24 6.24688 -2.35204 0
M  V30 4192 H 398.51 0.728233 0.136961 0
M  V30 4193 H 401.157 1.88122 -0.358087 0
M  V30 4194 H 399.462 3.55985 1.63651 0
M  V30 4195 H 401.159 3.78721 1.31799 0
M  V30 4196 H 397.749 4.28592 -0.026136 0
M  V30 4197 H 401.933 4.89953 -0.791177 0
M  V30 4198 H 397.189 5.82425 -1.85988 0
M  V30 4199 H 401.363 6.45135 -2.62248 0
M  V30 4200 H 398.99 6.91281 -3.16282 0
M  V30 4201 N 400.565 -0.0233959 1.57583 0
M  V30 4202 C 401.495 -1.02162 2.09965 0
M  V30 4203 C 402.476 -1.3735 1.00344 0
M  V30 4204 O 403.661 -1.46135 1.27899 0
M  V30 4205 C 400.791 -2.32081 2.58371 0
M  V30 4206 C 399.745 -2.1112 3.72307 0
M  V30 4207 C 399.071 -3.46848 4.06941 0
M  V30 4208 C 400.371 -1.49276 5.00514 0
M  V30 4209 H 402.065 -0.585557 2.93618 0
M  V30 4210 H 399.611 -0.280218 1.41247 0
M  V30 4211 H 401.564 -3.02249 2.93639 0
M  V30 4212 H 400.288 -2.77758 1.71808 0
M  V30 4213 H 398.947 -1.43384 3.37397 0
M  V30 4214 H 398.595 -3.90184 3.17436 0
M  V30 4215 H 398.295 -3.33646 4.83688 0
M  V30 4216 H 399.819 -4.18369 4.44747 0
M  V30 4217 H 401.233 -2.09368 5.33702 0
M  V30 4218 H 399.63 -1.46632 5.8191 0
M  V30 4219 H 400.7 -0.459217 4.82721 0
M  V30 4220 N 402.043 -1.548 -0.295768 0
M  V30 4221 C 402.993 -1.82497 -1.3667 0
M  V30 4222 C 403.977 -0.682434 -1.45711 0
M  V30 4223 O 405.169 -0.943207 -1.49775 0
M  V30 4224 C 402.298 -2.08036 -2.73086 0
M  V30 4225 C 401.384 -3.28488 -2.68247 0
M  V30 4226 N 401.775 -4.48924 -2.33025 0
M  V30 4227 C 400.073 -3.3062 -2.99343 0
M  V30 4228 C 400.774 -5.30956 -2.37613 0
M  V30 4229 N 399.75 -4.68805 -2.75178 0
M  V30 4230 H 403.552 -2.73175 -1.0841 0
M  V30 4231 H 401.066 -1.5437 -0.504361 0
M  V30 4232 H 403.063 -2.26027 -3.5031 0
M  V30 4233 H 401.723 -1.18629 -3.02254 0
M  V30 4234 H 402.734 -4.75432 -2.05389 0
M  V30 4235 H 399.411 -2.51336 -3.33371 0
M  V30 4236 H 400.801 -6.37199 -2.13135 0
M  V30 4237 N 403.521 0.559213 -1.47345 0
M  V30 4238 C 404.761 1.32728 -1.55444 0
M  V30 4239 C 405.125 1.90838 -0.210895 0
M  V30 4240 O 406.326 2.68282 -0.166719 0
M  V30 4241 C 404.597 2.4092 -2.63993 0
M  V30 4242 S 406.156 3.2784 -2.91661 0
M  V30 4243 H 402.974 0.451883 -0.548929 0
M  V30 4244 H 405.576 0.640404 -1.84714 0
M  V30 4245 H 404.28 1.9666 -3.60212 0
M  V30 4246 H 403.811 3.14351 -2.36531 0
M  V30 4247 H 405.826 4.40341 -2.28722 0
M  V30 4248 N 404.999 1.35443 0.805782 0
M  V30 4249 C 405.929 1.31095 1.93226 0
M  V30 4250 C 406.91 0.185244 1.69088 0
M  V30 4251 O 408.095 0.380332 1.90439 0
M  V30 4252 C 405.225 1.08299 3.29983 0
M  V30 4253 C 404.179 2.17519 3.68605 0
M  V30 4254 C 403.505 1.79887 5.03532 0
M  V30 4255 C 404.805 3.5949 3.78898 0
M  V30 4256 H 406.499 2.25352 1.97122 0
M  V30 4257 H 404.045 1.0848 0.946996 0
M  V30 4258 H 405.998 1.03897 4.08391 0
M  V30 4259 H 404.722 0.104885 3.26432 0
M  V30 4260 H 403.381 2.2102 2.92482 0
M  V30 4261 H 403.029 0.80693 4.96485 0
M  V30 4262 H 402.729 2.53001 5.30344 0
M  V30 4263 H 404.253 1.77011 5.84379 0
M  V30 4264 H 405.667 3.58307 4.47536 0
M  V30 4265 H 404.064 4.31371 4.1718 0
M  V30 4266 H 405.134 3.95584 2.80431 0
M  V30 4267 N 406.477 -1.02803 1.19454 0
M  V30 4268 C 407.888 -1.57667 0.999899 0
M  V30 4269 C 408.239 -1.91041 -0.446956 0
M  V30 4270 O 407.364 -1.70978 -1.32648 0
M  V30 4271 C 407.959 -2.86477 1.80877 0
M  V30 4272 C 406.518 -3.37911 1.65811 0
M  V30 4273 C 405.665 -2.11343 1.79526 0
M  V30 4274 H 408.616 -0.853214 1.33813 0
M  V30 4275 H 408.637 -3.57408 1.30536 0
M  V30 4276 H 408.149 -2.62155 2.86175 0
M  V30 4277 H 406.25 -3.67218 0.63102 0
M  V30 4278 H 406.363 -4.10885 2.46395 0
M  V30 4279 H 404.727 -2.23254 1.22596 0
M  V30 4280 H 405.51 -1.89461 2.86285 0
M  V30 4281 N 407.956 -0.998596 -1.21925 0
M  V30 4282 C 408.919 -0.558679 -2.22287 0
M  V30 4283 C 409.919 0.361525 -1.56683 0
M  V30 4284 O 411.109 0.152695 -1.73529 0
M  V30 4285 C 408.241 0.18661 -3.40389 0
M  V30 4286 H 409.434 -1.4463 -2.62721 0
M  V30 4287 H 406.987 -0.786413 -1.35075 0
M  V30 4288 H 407.722 1.08996 -3.05435 0
M  V30 4289 H 407.507 -0.474188 -3.89222 0
M  V30 4290 H 408.997 0.482367 -4.14805 0
M  V30 4291 N 409.434 1.37368 -0.772513 0
M  V30 4292 C 410.681 1.99673 -0.337182 0
M  V30 4293 C 411.009 1.61324 1.0865 0
M  V30 4294 O 410.264 0.851377 1.7621 0
M  V30 4295 C 410.563 3.54817 -0.428876 0
M  V30 4296 C 410.229 4.12936 -1.81092 0
M  V30 4297 C 408.891 4.28523 -2.1891 0
M  V30 4298 C 411.243 4.44801 -2.71664 0
M  V30 4299 C 408.571 4.73277 -3.46735 0
M  V30 4300 C 410.923 4.90981 -3.98899 0
M  V30 4301 C 409.587 5.04773 -4.36761 0
M  V30 4302 H 408.857 0.730656 -0.123384 0
M  V30 4303 H 411.504 1.64124 -0.986686 0
M  V30 4304 H 409.809 3.90618 0.304167 0
M  V30 4305 H 411.506 4.00933 -0.0733334 0
M  V30 4306 H 408.096 4.01233 -1.50699 0
M  V30 4307 H 412.28 4.32344 -2.43706 0
M  V30 4308 H 407.536 4.82142 -3.75964 0
M  V30 4309 H 411.71 5.14603 -4.69208 0
M  V30 4310 H 409.337 5.39211 -5.35868 0
M  V30 4311 N 410.912 0.523116 1.48665 0
M  V30 4312 C 411.862 -0.263106 2.26477 0
M  V30 4313 C 412.846 -0.916005 1.32281 0
M  V30 4314 O 414.038 -0.819946 1.56863 0
M  V30 4315 C 411.167 -1.31361 3.17174 0
M  V30 4316 C 410.253 -0.665849 4.1884 0
M  V30 4317 N 410.644 0.244434 5.05209 0
M  V30 4318 C 408.942 -0.923863 4.36326 0
M  V30 4319 C 409.643 0.617443 5.78414 0
M  V30 4320 N 408.619 -0.0198686 5.43596 0
M  V30 4321 H 412.421 0.437295 2.90629 0
M  V30 4322 H 409.935 0.340675 1.58787 0
M  V30 4323 H 411.932 -1.89052 3.71571 0
M  V30 4324 H 410.592 -2.01546 2.54576 0
M  V30 4325 H 411.603 0.616621 5.14216 0
M  V30 4326 H 408.28 -1.6168 3.84923 0
M  V30 4327 H 409.67 1.36346 6.57921 0
M  V30 4328 N 412.39 -1.55475 0.257931 0
M  V30 4329 C 413.667 -1.91155 -0.414629 0
M  V30 4330 C 414.047 -1.18008 -1.75035 0
M  V30 4331 O 413.395 -0.301193 -2.26506 0
M  V30 4332 C 413.605 -3.44283 -0.571859 0
M  V30 4333 C 414.953 -4.15744 -0.862678 0
M  V30 4334 O 415.977 -3.50083 -0.657314 0
M  V30 4335 O 414.836 -5.31909 -1.2544 0
M  V30 4336 H 411.93 -0.796016 -0.22425 0
M  V30 4337 H 414.476 -1.66976 0.302814 0
M  V30 4338 H 413.248 -3.89558 0.368844 0
M  V30 4339 H 412.871 -3.7436 -1.33943 0
M  V30 4340 N 413.868 0.0150385 -1.57593 0
M  V30 4341 C 415.145 0.7392 -1.81094 0
M  V30 4342 C 415.525 1.92817 -0.859344 0
M  V30 4343 O 414.873 2.28301 0.095362 0
M  V30 4344 C 415.083 1.15907 -3.29191 0
M  V30 4345 C 416.431 1.56918 -3.9454 0
M  V30 4346 O 417.455 1.25328 -3.33424 0
M  V30 4347 O 416.314 2.15604 -5.02173 0
M  V30 4348 H 413.408 0.358631 -0.745193 0
M  V30 4349 H 415.954 -0.00926156 -1.69697 0
M  V30 4350 H 414.726 0.310921 -3.90063 0
M  V30 4351 H 414.349 1.96711 -3.45529 0
M  V30 4352 N 415.346 1.54954 0.287554 0
M  V30 4353 C 416.278 1.83224 1.37701 0
M  V30 4354 C 417.291 0.715898 1.46215 0
M  V30 4355 O 418.48 0.993565 1.48292 0
M  V30 4356 C 415.58 1.96723 2.75959 0
M  V30 4357 C 414.753 3.27253 2.90215 0
M  V30 4358 C 413.812 3.30998 4.09056 0
M  V30 4359 O 412.838 4.04457 4.00503 0
M  V30 4360 N 414.04 2.57353 5.20336 0
M  V30 4361 H 416.805 2.77254 1.138 0
M  V30 4362 H 414.366 1.54694 0.477652 0
M  V30 4363 H 416.358 1.96615 3.5373 0
M  V30 4364 H 414.928 1.09626 2.92747 0
M  V30 4365 H 414.148 3.40022 1.99447 0
M  V30 4366 H 415.436 4.13365 2.96659 0
M  V30 4367 H 414.834 1.97327 5.30169 0
M  V30 4368 H 413.391 2.62984 5.96391 0
M  V30 4369 N 416.824 -0.551391 1.4764 0
M  V30 4370 C 418.052 -1.33357 1.58189 0
M  V30 4371 C 418.467 -1.87342 0.234199 0
M  V30 4372 O 417.824 -1.65301 -0.77343 0
M  V30 4373 C 417.875 -2.49942 2.61173 0
M  V30 4374 O 417.596 -1.98187 3.90709 0
M  V30 4375 C 419.097 -3.42072 2.8196 0
M  V30 4376 H 416.317 -0.40631 0.533998 0
M  V30 4377 H 418.861 -0.667367 1.93304 0
M  V30 4378 H 417.016 -3.12489 2.28975 0
M  V30 4379 H 417.43 -2.74342 4.47031 0
M  V30 4380 H 418.904 -4.20278 3.57869 0
M  V30 4381 H 419.381 -3.95978 1.89995 0
M  V30 4382 H 419.987 -2.85336 3.15378 0
M  V30 4383 N 418.302 -1.35869 -0.798587 0
M  V30 4384 C 419.53 -1.32722 -1.58722 0
M  V30 4385 C 419.945 0.0935631 -1.88568 0
M  V30 4386 O 419.302 1.04784 -1.49421 0
M  V30 4387 C 419.353 -2.13974 -2.91371 0
M  V30 4388 O 419.074 -3.50514 -2.62815 0
M  V30 4389 C 420.575 -2.18504 -3.85708 0
M  V30 4390 H 417.795 -0.45562 -0.492596 0
M  V30 4391 H 420.339 -1.78837 -0.991843 0
M  V30 4392 H 418.494 -1.71438 -3.47402 0
M  V30 4393 H 418.908 -3.92806 -3.47568 0
M  V30 4394 H 420.382 -2.79732 -4.75872 0
M  V30 4395 H 420.859 -1.18597 -4.22885 0
M  V30 4396 H 421.465 -2.61236 -3.35612 0
M  V30 4397 N 419.78 1.02168 -1.19998 0
M  V30 4398 C 420.71 2.12488 -0.96804 0
M  V30 4399 C 421.691 1.69799 0.101185 0
M  V30 4400 O 422.876 1.94121 -0.0552993 0
M  V30 4401 C 420.006 3.43479 -0.513776 0
M  V30 4402 C 418.96 3.99884 -1.52566 0
M  V30 4403 C 418.286 5.26582 -0.928214 0
M  V30 4404 C 419.586 4.33861 -2.90795 0
M  V30 4405 H 421.28 2.32149 -1.89069 0
M  V30 4406 H 418.826 1.11564 -0.910468 0
M  V30 4407 H 420.779 4.20036 -0.338774 0
M  V30 4408 H 419.503 3.23561 0.444493 0
M  V30 4409 H 418.162 3.25429 -1.68794 0
M  V30 4410 H 417.81 5.02986 0.0378289 0
M  V30 4411 H 417.51 5.65284 -1.60397 0
M  V30 4412 H 419.034 6.05799 -0.764167 0
M  V30 4413 H 420.448 5.01327 -2.78109 0
M  V30 4414 H 418.845 4.83664 -3.55231 0
M  V30 4415 H 419.915 3.42848 -3.42904 0
M  V30 4416 N 421.258 1.00505 1.21394 0
M  V30 4417 C 422.506 0.686415 1.90086 0
M  V30 4418 C 422.827 -0.785264 1.7849 0
M  V30 4419 O 422.097 -1.56387 1.17983 0
M  V30 4420 H 420.677 0.2509 0.703604 0
M  V30 4421 H 423.339 1.27417 1.47482 0
M  V30 4422 H 422.435 0.959621 2.96981 0
M  V30 4423 N 422.737 -1.36956 0.779787 0
M  V30 4424 C 423.684 -2.30175 0.169697 0
M  V30 4425 C 424.654 -1.51501 -0.68094 0
M  V30 4426 O 425.839 -1.80042 -0.631629 0
M  V30 4427 C 422.979 -3.37985 -0.697131 0
M  V30 4428 C 422.092 -4.31661 0.170992 0
M  V30 4429 C 421.227 -5.2655 -0.701298 0
M  V30 4430 C 420.266 -6.11867 0.168869 0
M  V30 4431 N 419.403 -6.98973 -0.661855 0
M  V30 4432 H 424.243 -2.81767 0.970135 0
M  V30 4433 H 421.78 -1.38699 0.489994 0
M  V30 4434 H 423.738 -3.99128 -1.2146 0
M  V30 4435 H 422.368 -2.87739 -1.46309 0
M  V30 4436 H 421.42 -3.71756 0.80634 0
M  V30 4437 H 422.732 -4.91644 0.841875 0
M  V30 4438 H 421.886 -5.92937 -1.28494 0
M  V30 4439 H 420.625 -4.66998 -1.40584 0
M  V30 4440 H 419.63 -5.44452 0.764986 0
M  V30 4441 H 420.855 -6.73493 0.870863 0
M  V30 4442 H 418.801 -6.41941 -1.35086 0
M  V30 4443 H 418.718 -7.55984 -0.0484447 0
M  V30 4444 H 419.986 -7.6974 -1.22963 0
M  V30 4445 N 424.215 -0.530993 -1.48385 0
M  V30 4446 C 425.162 0.231223 -2.29639 0
M  V30 4447 C 426.132 0.932864 -1.37429 0
M  V30 4448 O 427.317 0.933692 -1.66394 0
M  V30 4449 C 424.457 1.27155 -3.2082 0
M  V30 4450 C 423.57 0.578655 -4.28107 0
M  V30 4451 C 422.705 1.602 -5.06467 0
M  V30 4452 C 421.744 0.892625 -6.05556 0
M  V30 4453 N 420.881 1.86157 -6.76971 0
M  V30 4454 H 425.721 -0.467848 -2.94305 0
M  V30 4455 H 423.258 -0.242556 -1.45086 0
M  V30 4456 H 425.216 1.88703 -3.72085 0
M  V30 4457 H 423.846 1.939 -2.58075 0
M  V30 4458 H 422.898 -0.150782 -3.80101 0
M  V30 4459 H 424.21 0.0217065 -4.98795 0
M  V30 4460 H 423.364 2.29173 -5.61751 0
M  V30 4461 H 422.103 2.19285 -4.35621 0
M  V30 4462 H 421.108 0.188829 -5.49476 0
M  V30 4463 H 422.333 0.307878 -6.78402 0
M  V30 4464 H 420.279 2.44147 -6.08875 0
M  V30 4465 H 420.196 1.35608 -7.43738 0
M  V30 4466 H 421.464 2.54325 -7.36844 0
M  V30 4467 N 425.693 1.55336 -0.266172 0
M  V30 4468 C 426.626 2.18256 0.666296 0
M  V30 4469 C 427.604 1.14064 1.1588 0
M  V30 4470 O 428.788 1.42546 1.23341 0
M  V30 4471 C 425.915 2.79867 1.90768 0
M  V30 4472 C 424.961 3.97283 1.55141 0
M  V30 4473 S 425.794 5.31694 0.637313 0
M  V30 4474 C 426.95 5.96769 1.88727 0
M  V30 4475 H 427.183 2.97008 0.131647 0
M  V30 4476 H 424.716 1.54317 -0.0504869 0
M  V30 4477 H 426.674 3.15996 2.62025 0
M  V30 4478 H 425.335 2.01025 2.41346 0
M  V30 4479 H 424.528 4.3905 2.4749 0
M  V30 4480 H 424.13 3.6253 0.919113 0
M  V30 4481 H 426.422 6.15458 2.83227 0
M  V30 4482 H 427.365 6.91752 1.51276 0
M  V30 4483 H 427.773 5.26034 2.04814 0
M  V30 4484 N 427.171 -0.0066808 1.57599 0
M  V30 4485 C 428.134 -0.985035 2.06953 0
M  V30 4486 C 429.134 -1.27663 0.977687 0
M  V30 4487 O 430.324 -1.22293 1.24057 0
M  V30 4488 C 427.456 -2.3118 2.50536 0
M  V30 4489 H 428.649 -0.558255 2.94658 0
M  V30 4490 H 426.202 -0.254011 1.54222 0
M  V30 4491 H 426.937 -2.78561 1.66054 0
M  V30 4492 H 426.722 -2.11338 3.3027 0
M  V30 4493 H 428.212 -3.01377 2.8907 0
M  V30 4494 N 428.649 -1.55105 -0.279332 0
M  V30 4495 C 429.559 -1.90638 -1.36727 0
M  V30 4496 C 430.575 -0.802899 -1.54368 0
M  V30 4497 O 431.751 -1.10138 -1.68616 0
M  V30 4498 C 428.816 -2.16547 -2.70755 0
M  V30 4499 C 427.877 -3.40146 -2.61915 0
M  V30 4500 C 427.11 -3.6481 -3.8955 0
M  V30 4501 O 427.333 -2.92095 -4.89935 0
M  V30 4502 O 426.267 -4.58343 -3.90135 0
M  V30 4503 H 430.093 -2.83237 -1.09591 0
M  V30 4504 H 427.678 -1.4157 -0.477306 0
M  V30 4505 H 429.56 -2.34665 -3.50014 0
M  V30 4506 H 428.235 -1.27131 -2.9769 0
M  V30 4507 H 427.142 -3.2737 -1.81052 0
M  V30 4508 H 428.475 -4.29761 -2.3993 0
M  V30 4509 N 430.127 0.543554 -1.4793 0
M  V30 4510 C 431.037 1.67657 -1.64098 0
M  V30 4511 C 432.053 1.65934 -0.523622 0
M  V30 4512 O 433.229 1.85133 -0.792943 0
M  V30 4513 C 430.294 3.04146 -1.66421 0
M  V30 4514 C 429.355 3.16831 -2.89684 0
M  V30 4515 C 428.588 4.46809 -2.91886 0
M  V30 4516 O 428.811 5.33095 -2.02895 0
M  V30 4517 O 427.745 4.63573 -3.83906 0
M  V30 4518 H 431.571 1.56957 -2.59997 0
M  V30 4519 H 429.156 0.715116 -1.31173 0
M  V30 4520 H 431.038 3.85346 -1.70548 0
M  V30 4521 H 429.713 3.152 -0.736923 0
M  V30 4522 H 428.62 2.34977 -2.91095 0
M  V30 4523 H 429.953 3.10687 -3.81752 0
M  V30 4524 N 431.605 1.3629 0.791371 0
M  V30 4525 C 432.852 1.30412 1.54916 0
M  V30 4526 C 433.18 -0.117162 1.94147 0
M  V30 4527 O 432.435 -1.08599 1.62803 0
M  V30 4528 C 432.734 2.17068 2.8393 0
M  V30 4529 C 432.4 3.65645 2.63846 0
M  V30 4530 C 431.062 4.0614 2.58077 0
M  V30 4531 C 433.414 4.59855 2.45322 0
M  V30 4532 C 430.742 5.3899 2.31748 0
M  V30 4533 C 433.094 5.9292 2.2052 0
M  V30 4534 C 431.758 6.32542 2.13183 0
M  V30 4535 H 431.028 0.47721 0.566879 0
M  V30 4536 H 433.675 1.68325 0.913172 0
M  V30 4537 H 431.98 1.72085 3.51986 0
M  V30 4538 H 433.677 2.09846 3.4171 0
M  V30 4539 H 430.267 3.33518 2.69191 0
M  V30 4540 H 434.451 4.29443 2.48782 0
M  V30 4541 H 429.707 5.68672 2.24548 0
M  V30 4542 H 433.881 6.65487 2.05182 0
M  V30 4543 H 431.508 7.35412 1.92544 0
M  V30 4544 N 433.083 -1.0153 1.20538 0
M  V30 4545 C 434.331 -1.74803 1.01432 0
M  V30 4546 C 434.652 -1.8963 -0.454456 0
M  V30 4547 O 433.922 -1.43975 -1.32846 0
M  V30 4548 H 432.502 -0.647598 0.372324 0
M  V30 4549 H 435.164 -1.22402 1.5167 0
M  V30 4550 H 434.26 -2.75114 1.47373 0
M  V30 4551 N 434.561 -1.01147 -1.20859 0
M  V30 4552 C 435.491 -0.597663 -2.25722 0
M  V30 4553 C 436.472 0.384744 -1.65692 0
M  V30 4554 O 437.657 0.271303 -1.92296 0
M  V30 4555 C 434.787 0.0700149 -3.47229 0
M  V30 4556 C 433.741 -0.832843 -4.19819 0
M  V30 4557 C 433.067 -0.0312202 -5.34691 0
M  V30 4558 C 434.367 -2.1385 -4.76514 0
M  V30 4559 H 436.061 -1.47423 -2.60589 0
M  V30 4560 H 433.607 -0.710301 -1.25263 0
M  V30 4561 H 435.56 0.37103 -4.19763 0
M  V30 4562 H 434.284 0.981259 -3.11511 0
M  V30 4563 H 432.943 -1.11778 -3.49144 0
M  V30 4564 H 432.591 0.881515 -4.95215 0
M  V30 4565 H 432.291 -0.632434 -5.84187 0
M  V30 4566 H 433.815 0.26346 -6.10031 0
M  V30 4567 H 435.229 -1.9002 -5.40893 0
M  V30 4568 H 433.626 -2.69012 -5.36426 0
M  V30 4569 H 434.696 -2.80495 -3.95538 0
M  V30 4570 N 436.039 1.36541 -0.78704 0
M  V30 4571 C 436.989 2.27459 -0.156957 0
M  V30 4572 C 437.973 1.46843 0.657709 0
M  V30 4573 O 439.165 1.69245 0.518173 0
M  V30 4574 C 436.294 3.35893 0.709278 0
M  V30 4575 C 435.38 4.23947 -0.114049 0
M  V30 4576 N 435.771 4.92145 -1.16736 0
M  V30 4577 C 434.069 4.4587 0.107497 0
M  V30 4578 C 434.77 5.57261 -1.66837 0
M  V30 4579 N 433.746 5.3473 -0.977992 0
M  V30 4580 H 437.548 2.77669 -0.963185 0
M  V30 4581 H 435.062 1.49839 -0.62627 0
M  V30 4582 H 437.059 3.99953 1.17656 0
M  V30 4583 H 435.719 2.87238 1.51408 0
M  V30 4584 H 436.73 4.94169 -1.54976 0
M  V30 4585 H 433.407 4.08056 0.882994 0
M  V30 4586 H 434.797 6.21728 -2.54762 0
M  V30 4587 N 437.518 0.538854 1.48102 0
M  V30 4588 C 438.766 0.00798599 2.02098 0
M  V30 4589 C 439.087 -1.33922 1.41739 0
M  V30 4590 O 438.357 -1.86932 0.585934 0
M  V30 4591 H 436.937 -3.62179e-05 0.747 0
M  V30 4592 H 439.599 0.7047 1.81714 0
M  V30 4593 H 438.695 -0.0937672 3.11959 0
M  V30 4594 N 438.996 -1.55193 0.274407 0
M  V30 4595 C 440.244 -1.99187 -0.341902 0
M  V30 4596 C 440.565 -1.16422 -1.56431 0
M  V30 4597 O 439.835 -0.253573 -1.94252 0
M  V30 4598 H 438.415 -0.735721 -0.129317 0
M  V30 4599 H 441.077 -1.91168 0.379578 0
M  V30 4600 H 440.173 -3.05629 -0.632253 0
M  V30 4601 N 440.474 -0.00167713 -1.576 0
M  V30 4602 C 441.407 1.02317 -2.03977 0
M  V30 4603 C 442.385 1.33381 -0.929963 0
M  V30 4604 O 443.569 1.45517 -1.19822 0
M  V30 4605 C 440.696 2.35035 -2.43878 0
M  V30 4606 C 439.742 2.19621 -3.65607 0
M  V30 4607 S 440.575 1.52068 -5.13455 0
M  V30 4608 C 441.731 2.86212 -5.56627 0
M  V30 4609 H 441.964 0.628285 -2.90585 0
M  V30 4610 H 439.497 0.209239 -1.52976 0
M  V30 4611 H 441.455 3.11345 -2.67534 0
M  V30 4612 H 440.116 2.71663 -1.57665 0
M  V30 4613 H 439.309 3.1767 -3.91282 0
M  V30 4614 H 438.911 1.51455 -3.41961 0
M  V30 4615 H 441.203 3.82509 -5.59189 0
M  V30 4616 H 442.146 2.65235 -6.56549 0
M  V30 4617 H 442.554 2.90199 -4.84195 0
M  V30 4618 N 441.952 1.55251 0.271103 0
M  V30 4619 C 442.862 1.9136 1.35714 0
M  V30 4620 C 443.878 0.811075 1.5394 0
M  V30 4621 O 445.054 1.11031 1.6803 0
M  V30 4622 C 442.119 2.1798 2.69603 0
M  V30 4623 C 441.18 3.4153 2.60107 0
M  V30 4624 C 440.413 3.66871 3.8761 0
M  V30 4625 O 440.636 2.94689 4.8838 0
M  V30 4626 O 439.57 4.60405 3.87699 0
M  V30 4627 H 443.396 2.83815 1.08088 0
M  V30 4628 H 440.981 1.41821 0.469792 0
M  V30 4629 H 442.863 2.36518 3.48765 0
M  V30 4630 H 441.538 1.28708 2.97012 0
M  V30 4631 H 440.445 3.28325 1.79314 0
M  V30 4632 H 441.778 4.31027 2.37647 0
M  V30 4633 N 443.43 -0.535701 1.48216 0
M  V30 4634 C 444.676 -1.29375 1.56173 0
M  V30 4635 C 445.009 -1.92804 0.232429 0
M  V30 4636 O 444.284 -1.78992 -0.761048 0
M  V30 4637 C 444.567 -2.38747 2.69577 0
M  V30 4638 C 444.42 -1.80046 4.12193 0
M  V30 4639 C 445.739 -3.40551 2.78771 0
M  V30 4640 H 442.858 -0.469027 0.568491 0
M  V30 4641 H 445.5 -0.597358 1.80365 0
M  V30 4642 H 443.65 -2.98147 2.4908 0
M  V30 4643 H 445.322 -1.24742 4.44114 0
M  V30 4644 H 443.565 -1.10609 4.19462 0
M  V30 4645 H 444.236 -2.59212 4.87353 0
M  V30 4646 H 446.712 -2.91099 2.97322 0
M  V30 4647 H 445.588 -4.1448 3.59857 0
M  V30 4648 H 445.849 -4.00746 1.86696 0
M  V30 4649 N 444.908 -1.36708 -0.784132 0
M  V30 4650 C 446.136 -1.34398 -1.57305 0
M  V30 4651 C 446.551 0.0735577 -1.88657 0
M  V30 4652 O 445.908 1.03193 -1.50524 0
M  V30 4653 C 445.959 -2.17053 -2.89085 0
M  V30 4654 O 445.68 -3.53281 -2.59083 0
M  V30 4655 C 447.181 -2.22583 -3.83369 0
M  V30 4656 H 444.401 -0.460819 -0.487736 0
M  V30 4657 H 446.945 -1.79879 -0.972819 0
M  V30 4658 H 445.1 -1.75113 -3.45564 0
M  V30 4659 H 445.514 -3.9647 -3.43383 0
M  V30 4660 H 446.988 -2.84763 -4.72878 0
M  V30 4661 H 447.465 -1.23075 -4.21603 0
M  V30 4662 H 448.071 -2.64781 -3.32823 0
M  V30 4663 N 446.386 1.0089 -1.21074 0
M  V30 4664 C 447.663 1.71834 -0.934469 0
M  V30 4665 C 448.043 2.0368 0.554753 0
M  V30 4666 O 447.391 1.70742 1.51854 0
M  V30 4667 C 447.601 2.98061 -1.8155 0
M  V30 4668 C 448.949 3.7117 -2.06199 0
M  V30 4669 O 449.973 3.08034 -1.78867 0
M  V30 4670 O 448.832 4.84721 -2.52404 0
M  V30 4671 H 445.926 0.749253 -0.35007 0
M  V30 4672 H 448.472 1.06668 -1.31985 0
M  V30 4673 H 447.244 2.70908 -2.82355 0
M  V30 4674 H 446.867 3.70968 -1.43068 0
M  V30 4675 N 447.864 1.01787 1.20321 0
M  V30 4676 C 448.774 0.598898 2.26827 0
M  V30 4677 C 449.79 -0.36418 1.70146 0
M  V30 4678 O 450.966 -0.224812 2.00141 0
M  V30 4679 C 448.031 -0.0549769 3.46656 0
M  V30 4680 C 447.092 0.954205 4.18561 0
M  V30 4681 C 446.325 0.331439 5.3267 0
M  V30 4682 O 446.548 -0.86851 5.63749 0
M  V30 4683 O 445.482 1.0488 5.92692 0
M  V30 4684 H 449.308 1.48562 2.64883 0
M  V30 4685 H 446.893 0.787434 1.26964 0
M  V30 4686 H 448.775 -0.420102 4.19301 0
M  V30 4687 H 447.45 -0.915876 3.10473 0
M  V30 4688 H 446.357 1.37072 3.48083 0
M  V30 4689 H 447.69 1.78511 4.58688 0
M  V30 4690 N 449.342 -1.36122 0.79427 0
M  V30 4691 C 450.588 -1.99406 0.369452 0
M  V30 4692 C 450.921 -1.62886 -1.05743 0
M  V30 4693 O 450.196 -0.886053 -1.73145 0
M  V30 4694 C 450.479 -3.56046 0.538833 0
M  V30 4695 C 450.332 -4.02404 2.00976 0
M  V30 4696 C 451.651 -4.40079 -0.0431359 0
M  V30 4697 H 448.77 -0.724397 0.135712 0
M  V30 4698 H 451.412 -1.61461 1.00151 0
M  V30 4699 H 449.562 -3.885 0.000771004 0
M  V30 4700 H 451.234 -3.80415 2.60926 0
M  V30 4701 H 449.477 -3.53765 2.51063 0
M  V30 4702 H 450.148 -5.11344 2.07922 0
M  V30 4703 H 452.624 -4.14013 0.416228 0
M  V30 4704 H 451.5 -5.48799 0.105374 0
M  V30 4705 H 451.761 -4.27264 -1.13571 0
M  V30 4706 N 450.82 -0.546701 -1.47814 0
M  V30 4707 C 452.067 -0.0187407 -2.02491 0
M  V30 4708 C 452.395 1.32685 -1.42215 0
M  V30 4709 O 451.65 1.87413 -0.563454 0
M  V30 4710 C 451.949 0.134869 -3.57145 0
M  V30 4711 C 451.615 -1.13849 -4.3629 0
M  V30 4712 C 450.277 -1.48743 -4.57634 0
M  V30 4713 C 452.629 -1.98277 -4.82012 0
M  V30 4714 C 449.957 -2.67932 -5.21948 0
M  V30 4715 C 452.309 -3.16659 -5.4764 0
M  V30 4716 C 450.973 -3.51879 -5.67219 0
M  V30 4717 H 450.243 -0.0068577 -0.740968 0
M  V30 4718 H 452.89 -0.716097 -1.77607 0
M  V30 4719 H 451.195 0.915118 -3.80963 0
M  V30 4720 H 452.892 0.558556 -3.97091 0
M  V30 4721 H 449.482 -0.856767 -4.19949 0
M  V30 4722 H 453.666 -1.72628 -4.6531 0
M  V30 4723 H 448.922 -2.95401 -5.35302 0
M  V30 4724 H 453.096 -3.82374 -5.82033 0
M  V30 4725 H 450.723 -4.44331 -6.16825 0
M  V30 4726 N 452.299 1.55045 -0.282633 0
M  V30 4727 C 453.209 2.26491 0.61147 0
M  V30 4728 C 454.225 1.29348 1.16384 0
M  V30 4729 O 455.401 1.62298 1.19253 0
M  V30 4730 C 452.466 2.97779 1.77563 0
M  V30 4731 C 451.527 4.10418 1.25919 0
M  V30 4732 C 450.76 4.78297 2.36786 0
M  V30 4733 O 450.983 4.45426 3.56303 0
M  V30 4734 O 449.917 5.66089 2.04517 0
M  V30 4735 H 453.743 3.03683 0.0324615 0
M  V30 4736 H 451.328 1.49317 -0.0497576 0
M  V30 4737 H 453.21 3.42554 2.45427 0
M  V30 4738 H 451.885 2.23498 2.34159 0
M  V30 4739 H 450.792 3.70082 0.546797 0
M  V30 4740 H 452.125 4.86622 0.738887 0
M  V30 4741 N 453.777 0.010035 1.57597 0
M  V30 4742 C 455.002 -0.687021 1.95691 0
M  V30 4743 C 455.427 -1.65952 0.885519 0
M  V30 4744 O 454.785 -1.80633 -0.15543 0
M  V30 4745 C 454.833 -1.3864 3.32884 0
M  V30 4746 O 453.937 -2.50115 3.27897 0
M  V30 4747 H 453.278 -0.181989 0.638573 0
M  V30 4748 H 455.808 0.0662122 2.04493 0
M  V30 4749 H 455.818 -1.74754 3.6868 0
M  V30 4750 H 454.493 -0.673411 4.10412 0
M  V30 4751 H 453.07 -2.16253 3.03791 0
M  V30 4752 N 455.255 -1.55392 -0.262866 0
M  V30 4753 C 456.218 -1.88181 -1.30846 0
M  V30 4754 C 457.218 -0.757079 -1.41862 0
M  V30 4755 O 458.408 -1.02519 -1.40838 0
M  V30 4756 C 455.54 -2.09609 -2.68844 0
M  V30 4757 H 456.733 -2.81659 -1.02997 0
M  V30 4758 H 454.286 -1.48039 -0.501414 0
M  V30 4759 H 455.021 -1.18547 -3.01856 0
M  V30 4760 H 454.806 -2.91508 -2.62231 0
M  V30 4761 H 456.296 -2.36215 -3.44372 0
M  V30 4762 N 456.733 0.527833 -1.48498 0
M  V30 4763 C 457.696 1.61439 -1.62696 0
M  V30 4764 C 458.696 1.52824 -0.500136 0
M  V30 4765 O 459.886 1.56456 -0.765976 0
M  V30 4766 C 457.018 3.01063 -1.59918 0
M  V30 4767 H 458.211 1.50189 -2.59583 0
M  V30 4768 H 455.764 0.750055 -1.37127 0
M  V30 4769 H 456.499 3.17818 -0.645163 0
M  V30 4770 H 456.284 3.08725 -2.41726 0
M  V30 4771 H 457.774 3.80057 -1.73051 0
M  V30 4772 N 458.211 1.37122 0.776871 0
M  V30 4773 C 459.436 1.354 1.57104 0
M  V30 4774 C 459.861 -0.0595562 1.88006 0
M  V30 4775 O 459.219 -1.03514 1.48844 0
M  V30 4776 C 459.267 2.19472 2.8612 0
M  V30 4777 O 458.371 1.59582 3.80273 0
M  V30 4778 H 457.712 0.462869 0.476076 0
M  V30 4779 H 460.242 1.80577 0.961932 0
M  V30 4780 H 460.252 2.32502 3.35271 0
M  V30 4781 H 458.927 3.22222 2.62956 0
M  V30 4782 H 457.504 1.55564 3.38902 0
M  V30 4783 N 459.689 -1.00246 1.21608 0
M  V30 4784 C 460.938 -1.73476 1.02902 0
M  V30 4785 C 461.251 -1.90643 -0.437561 0
M  V30 4786 O 462.457 -2.61105 -0.74407 0
M  V30 4787 C 460.913 -3.12079 1.79261 0
M  V30 4788 C 460.521 -3.02877 3.30106 0
M  V30 4789 C 462.265 -3.89421 1.68972 0
M  V30 4790 C 460.172 -4.36575 3.98944 0
M  V30 4791 H 459.102 -0.650408 0.381425 0
M  V30 4792 H 461.753 -1.11985 1.45367 0
M  V30 4793 H 460.135 -3.74196 1.2959 0
M  V30 4794 H 461.309 -2.49983 3.87098 0
M  V30 4795 H 459.624 -2.39022 3.40965 0
M  V30 4796 H 462.221 -4.88362 2.17731 0
M  V30 4797 H 462.564 -4.1122 0.648397 0
M  V30 4798 H 463.097 -3.33963 2.16133 0
M  V30 4799 H 459.836 -4.19978 5.03288 0
M  V30 4800 H 459.356 -4.8942 3.4674 0
M  V30 4801 H 461.035 -5.05364 4.04 0
M  V30 4802 N 461.167 -1.02423 -1.1978 0
M  V30 4803 C 462.413 -0.719051 -1.89625 0
M  V30 4804 C 462.746 0.750083 -1.7913 0
M  V30 4805 O 462.021 1.54574 -1.18056 0
M  V30 4806 C 462.304 -1.16499 -3.40735 0
M  V30 4807 C 462.157 -2.695 -3.60125 0
M  V30 4808 C 463.476 -0.742166 -4.33797 0
M  V30 4809 H 460.595 -0.26269 -0.688595 0
M  V30 4810 H 463.237 -1.27333 -1.41018 0
M  V30 4811 H 461.387 -0.69341 -3.82262 0
M  V30 4812 H 463.059 -3.24569 -3.278 0
M  V30 4813 H 461.302 -3.10113 -3.03336 0
M  V30 4814 H 461.973 -2.95757 -4.66081 0
M  V30 4815 H 464.449 -1.1477 -3.99959 0
M  V30 4816 H 463.325 -1.08213 -5.38127 0
M  V30 4817 H 463.586 0.355747 -4.40666 0
M  V30 4818 N 462.645 1.35699 -0.801477 0
M  V30 4819 C 463.892 1.98913 -0.379459 0
M  V30 4820 C 464.22 1.63592 1.05204 0
M  V30 4821 O 463.475 0.888563 1.74365 0
M  V30 4822 C 463.774 3.53828 -0.504041 0
M  V30 4823 C 463.44 4.09002 -1.8981 0
M  V30 4824 C 462.102 4.23783 -2.27951 0
M  V30 4825 C 464.454 4.38939 -2.81038 0
M  V30 4826 C 461.782 4.65816 -3.56696 0
M  V30 4827 C 464.134 4.82409 -4.09224 0
M  V30 4828 C 462.798 4.95395 -4.4737 0
M  V30 4829 H 462.068 0.727874 -0.138854 0
M  V30 4830 H 464.715 1.61994 -1.02128 0
M  V30 4831 H 463.02 3.91175 0.221242 0
M  V30 4832 H 464.717 4.00687 -0.158361 0
M  V30 4833 H 461.307 3.97946 -1.59176 0
M  V30 4834 H 465.491 4.27077 -2.52821 0
M  V30 4835 H 460.747 4.74059 -3.86106 0
M  V30 4836 H 464.921 5.04535 -4.80018 0
M  V30 4837 H 462.548 5.27724 -5.47185 0
M  V30 4838 N 464.123 0.554532 1.47522 0
M  V30 4839 C 465.4 -0.0360704 1.95567 0
M  V30 4840 C 465.78 -1.48828 1.49711 0
M  V30 4841 O 465.128 -2.16366 0.734717 0
M  V30 4842 C 465.338 0.106631 3.48837 0
M  V30 4843 C 466.686 -0.0400899 4.24581 0
M  V30 4844 O 467.71 0.0340453 3.56184 0
M  V30 4845 O 466.569 -0.199111 5.46137 0
M  V30 4846 H 463.663 -0.0656294 0.824392 0
M  V30 4847 H 466.209 0.620867 1.57935 0
M  V30 4848 H 464.981 1.11727 3.7501 0
M  V30 4849 H 464.604 -0.58804 3.93227 0
M  V30 4850 N 465.601 -1.54893 0.290851 0
M  V30 4851 C 466.533 -2.20564 -0.623236 0
M  V30 4852 C 467.546 -1.19519 -1.1054 0
M  V30 4853 O 468.735 -1.46165 -1.02459 0
M  V30 4854 C 465.835 -2.83033 -1.86401 0
M  V30 4855 C 465.008 -4.09916 -1.52604 0
M  V30 4856 C 464.067 -4.56284 -2.62091 0
M  V30 4857 O 463.093 -5.2171 -2.27612 0
M  V30 4858 N 464.295 -4.27746 -3.92446 0
M  V30 4859 H 467.06 -2.99638 -0.0610915 0
M  V30 4860 H 464.621 -1.61508 0.112615 0
M  V30 4861 H 466.613 -3.1099 -2.58973 0
M  V30 4862 H 465.183 -2.0786 -2.33481 0
M  V30 4863 H 464.403 -3.89078 -0.633424 0
M  V30 4864 H 465.691 -4.92554 -1.27547 0
M  V30 4865 H 465.089 -3.7531 -4.23272 0
M  V30 4866 H 463.646 -4.60437 -4.61347 0
M  V30 4867 N 467.08 -0.0183926 -1.57589 0
M  V30 4868 C 468.043 0.951986 -2.08494 0
M  V30 4869 C 469.043 1.26092 -0.997874 0
M  V30 4870 O 470.233 1.20304 -1.25987 0
M  V30 4871 C 467.365 2.27165 -2.54182 0
M  V30 4872 H 468.558 0.511307 -2.95509 0
M  V30 4873 H 466.111 0.229444 -1.54607 0
M  V30 4874 H 466.846 2.75884 -1.70465 0
M  V30 4875 H 466.631 2.06057 -3.33591 0
M  V30 4876 H 468.121 2.9674 -2.93828 0
M  V30 4877 N 468.558 1.5553 0.254621 0
M  V30 4878 C 469.468 1.92789 1.33677 0
M  V30 4879 C 470.484 0.827356 1.53071 0
M  V30 4880 O 471.66 1.12807 1.66843 0
M  V30 4881 C 468.725 2.20827 2.67275 0
M  V30 4882 C 467.786 3.4427 2.5647 0
M  V30 4883 C 467.019 3.70961 3.83697 0
M  V30 4884 O 467.242 2.99852 4.85227 0
M  V30 4885 O 466.176 4.64491 3.82794 0
M  V30 4886 H 470.002 2.84945 1.05071 0
M  V30 4887 H 467.587 1.42312 0.454723 0
M  V30 4888 H 469.469 2.40204 3.46237 0
M  V30 4889 H 468.144 1.31851 2.9563 0
M  V30 4890 H 467.051 3.30209 1.75821 0
M  V30 4891 H 468.384 4.33524 2.33062 0
M  V30 4892 N 470.036 -0.519951 1.48776 0
M  V30 4893 C 470.984 -1.64443 1.64503 0
M  V30 4894 C 471.978 -1.61501 0.511248 0
M  V30 4895 O 473.184 -1.66238 0.690294 0
M  V30 4896 H 469.559 -0.544776 0.518385 0
M  V30 4897 H 471.53 -1.48325 2.58925 0
M  V30 4898 C 470.279 -3.02673 1.71127 0
M  V30 4899 H 469.602 -3.05635 2.57735 0
M  V30 4900 H 471.042 -3.80941 1.86172 0
M  V30 4901 C 469.501 -3.33854 0.452032 0
M  V30 4902 O 470.031 -3.99385 -0.430678 0
M  V30 4903 N 468.237 -2.88825 0.32069 0
M  V30 4904 H 467.784 -2.35674 1.03998 0
M  V30 4905 H 467.742 -3.10056 -0.520814 0
M  V30 4906 N 471.514 -1.37532 -0.769588 0
M  V30 4907 C 472.93 -1.18379 -1.07045 0
M  V30 4908 C 473.13 -0.0214312 -2.01489 0
M  V30 4909 O 472.186 0.637809 -2.44312 0
M  V30 4910 C 473.499 -2.50338 -1.66588 0
M  V30 4911 C 475.047 -2.56879 -1.78835 0
M  V30 4912 C 475.522 -3.88974 -2.41792 0
M  V30 4913 N 477.013 -3.90428 -2.4924 0
M  V30 4914 C 477.748 -4.89388 -2.98809 0
M  V30 4915 N 477.244 -5.98745 -3.48535 0
M  V30 4916 N 479.037 -4.76791 -2.97703 0
M  V30 4917 H 471.188 -2.11921 -0.142541 0
M  V30 4918 H 473.451 -0.939608 -0.125863 0
M  V30 4919 H 473.157 -3.35767 -1.0466 0
M  V30 4920 H 473.031 -2.67583 -2.65856 0
M  V30 4921 H 475.418 -1.71856 -2.39895 0
M  V30 4922 H 475.499 -2.43516 -0.783166 0
M  V30 4923 H 475.143 -4.74412 -1.81371 0
M  V30 4924 H 475.073 -3.99641 -3.4292 0
M  V30 4925 H 477.564 -3.11433 -2.14052 0
M  V30 4926 H 477.877 -6.70205 -3.84767 0
M  V30 4927 H 476.222 -6.02387 -3.46634 0
M  V30 4928 H 479.413 -3.90478 -2.58157 0
M  V30 4929 H 479.586 -5.54069 -3.36024 0
M  V30 4930 N 472.992 0.995999 -1.22138 0
M  V30 4931 C 473.925 2.08302 -0.931952 0
M  V30 4932 C 474.903 1.62127 0.123956 0
M  V30 4933 O 476.087 1.88499 -0.00696004 0
M  V30 4934 C 473.214 3.36317 -0.401068 0
M  V30 4935 C 472.26 4.01413 -1.44117 0
M  V30 4936 S 473.093 4.42664 -3.01345 0
M  V30 4937 C 474.249 5.73853 -2.49887 0
M  V30 4938 H 474.482 2.32532 -1.85246 0
M  V30 4939 H 472.015 1.13005 -1.0521 0
M  V30 4940 H 473.973 4.10375 -0.101352 0
M  V30 4941 H 472.634 3.10123 0.498272 0
M  V30 4942 H 471.827 4.9358 -1.01952 0
M  V30 4943 H 471.429 3.33668 -1.68943 0
M  V30 4944 H 473.721 6.50039 -1.90934 0
M  V30 4945 H 474.664 6.20841 -3.40532 0
M  V30 4946 H 475.072 5.31105 -1.9128 0
M  V30 4947 N 474.47 1.03057 1.19235 0
M  V30 4948 C 475.42 0.583386 2.2041 0
M  V30 4949 C 476.404 -0.368776 1.56617 0
M  V30 4950 O 477.596 -0.189471 1.75983 0
M  V30 4951 C 474.725 -0.0626534 3.43243 0
M  V30 4952 C 473.811 0.91205 4.14177 0
M  V30 4953 N 474.202 2.07514 4.61272 0
M  V30 4954 C 472.5 0.735859 4.39888 0
M  V30 4955 C 473.201 2.69003 5.15764 0
M  V30 4956 N 472.177 1.96954 5.06666 0
M  V30 4957 H 475.979 1.46988 2.54503 0
M  V30 4958 H 473.493 0.897785 1.35328 0
M  V30 4959 H 475.49 -0.400653 4.1497 0
M  V30 4960 H 474.15 -0.944813 3.1065 0
M  V30 4961 H 475.161 2.45448 4.56043 0
M  V30 4962 H 471.838 -0.0970656 4.17387 0
M  V30 4963 H 473.228 3.67514 5.6248 0
M  V30 4964 N 475.948 -1.35272 0.808662 0
M  V30 4965 C 477.176 -2.02946 0.402537 0
M  V30 4966 C 477.591 -1.60937 -0.987147 0
M  V30 4967 O 476.948 -0.807917 -1.63643 0
M  V30 4968 C 476.999 -3.58317 0.47868 0
M  V30 4969 O 476.72 -3.98799 1.81358 0
M  V30 4970 C 478.221 -4.43251 0.0656281 0
M  V30 4971 H 475.441 -0.650831 0.163279 0
M  V30 4972 H 477.985 -1.72849 1.09286 0
M  V30 4973 H 476.14 -3.87055 -0.163415 0
M  V30 4974 H 476.554 -4.93451 1.77781 0
M  V30 4975 H 478.028 -5.51738 0.170017 0
M  V30 4976 H 478.505 -4.27913 -0.989278 0
M  V30 4977 H 479.111 -4.19813 0.68096 0
M  V30 4978 N 477.426 -0.562348 -1.47226 0
M  V30 4979 C 478.675 -0.038041 -2.01664 0
M  V30 4980 C 478.988 1.32199 -1.44162 0
M  V30 4981 O 480.194 1.9365 -1.90294 0
M  V30 4982 C 478.65 -0.0174958 -3.59896 0
M  V30 4983 C 478.258 -1.3746 -4.2639 0
M  V30 4984 C 480.002 0.453934 -4.22066 0
M  V30 4985 C 477.909 -1.31289 -5.76643 0
M  V30 4986 H 476.839 -0.0104511 -0.753928 0
M  V30 4987 H 479.49 -0.710966 -1.69167 0
M  V30 4988 H 477.872 0.721182 -3.89378 0
M  V30 4989 H 479.046 -2.1314 -4.08544 0
M  V30 4990 H 477.361 -1.78438 -3.7623 0
M  V30 4991 H 479.958 0.518584 -5.32179 0
M  V30 4992 H 480.301 1.46706 -3.89594 0
M  V30 4993 H 480.834 -0.230044 -3.97134 0
M  V30 4994 H 477.573 -2.30217 -6.13743 0
M  V30 4995 H 477.093 -0.597973 -5.96812 0
M  V30 4996 H 478.772 -1.01713 -6.38955 0
M  V30 4997 N 478.904 1.54736 -0.299062 0
M  V30 4998 C 479.851 2.23448 0.577899 0
M  V30 4999 C 480.821 1.21637 1.13109 0
M  V30 5000 O 482.006 1.50252 1.17597 0
M  V30 5001 C 479.146 2.9774 1.74484 0
M  V30 5002 C 478.259 4.1432 1.22323 0
M  V30 5003 C 477.394 4.76199 2.35388 0
M  V30 5004 C 476.433 5.84927 1.80351 0
M  V30 5005 N 475.57 6.4077 2.86982 0
M  V30 5006 H 480.41 2.97996 -0.0146545 0
M  V30 5007 H 477.947 1.47088 -0.0190013 0
M  V30 5008 H 479.905 3.39045 2.43114 0
M  V30 5009 H 478.535 2.25572 2.30905 0
M  V30 5010 H 477.587 3.7797 0.429249 0
M  V30 5011 H 478.899 4.92659 0.780309 0
M  V30 5012 H 478.053 5.20346 3.11969 0
M  V30 5013 H 476.792 3.97188 2.83006 0
M  V30 5014 H 475.797 5.40207 1.02259 0
M  V30 5015 H 477.022 6.65821 1.3364 0
M  V30 5016 H 474.968 5.64643 3.33938 0
M  V30 5017 H 474.885 7.1445 2.4718 0
M  V30 5018 H 476.153 6.89574 3.63466 0
M  V30 5019 N 480.382 0.0267497 1.57577 0
M  V30 5020 C 481.345 -0.940916 2.08996 0
M  V30 5021 C 482.345 -1.25561 1.00455 0
M  V30 5022 O 483.535 -1.19634 1.26623 0
M  V30 5023 C 480.667 -2.25814 2.55384 0
M  V30 5024 H 481.86 -0.495628 2.95776 0
M  V30 5025 H 479.413 -0.221241 1.54726 0
M  V30 5026 H 480.148 -2.74976 1.71926 0
M  V30 5027 H 479.933 -2.04285 3.34679 0
M  V30 5028 H 481.423 -2.95178 2.95398 0
M  V30 5029 N 481.861 -1.55662 -0.24637 0
M  V30 5030 C 483.107 -1.77782 -0.975779 0
M  V30 5031 C 483.44 -0.592103 -1.84953 0
M  V30 5032 O 482.715 0.409588 -1.90138 0
M  V30 5033 C 482.998 -3.09788 -1.83584 0
M  V30 5034 C 482.851 -4.38764 -0.990241 0
M  V30 5035 C 484.17 -3.38029 -2.81823 0
M  V30 5036 H 481.289 -0.646789 -0.353317 0
M  V30 5037 H 483.931 -1.88398 -0.246248 0
M  V30 5038 H 482.081 -3.00869 -2.45784 0
M  V30 5039 H 483.753 -4.59675 -0.386897 0
M  V30 5040 H 481.996 -4.32798 -0.294626 0
M  V30 5041 H 482.667 -5.27514 -1.62584 0
M  V30 5042 H 485.143 -3.46915 -2.2976 0
M  V30 5043 H 484.019 -4.3161 -3.39122 0
M  V30 5044 H 484.28 -2.58968 -3.58313 0
M  V30 5045 N 483.339 0.512053 -1.4905 0
M  V30 5046 C 484.272 1.63209 -1.59493 0
M  V30 5047 C 485.25 1.56407 -0.444481 0
M  V30 5048 O 486.434 1.76623 -0.658535 0
M  V30 5049 C 483.561 3.01685 -1.53961 0
M  V30 5050 C 482.607 3.26786 -2.74068 0
M  V30 5051 S 483.44 3.11107 -4.35859 0
M  V30 5052 C 484.596 4.51997 -4.32954 0
M  V30 5053 H 484.829 1.54104 -2.54243 0
M  V30 5054 H 482.362 0.696382 -1.37804 0
M  V30 5055 H 484.32 3.81538 -1.51455 0
M  V30 5056 H 482.981 3.08215 -0.605178 0
M  V30 5057 H 482.174 4.27849 -2.66386 0
M  V30 5058 H 481.776 2.54635 -2.73928 0
M  V30 5059 H 484.068 5.43871 -4.03993 0
M  V30 5060 H 485.011 4.64731 -5.34257 0
M  V30 5061 H 485.419 4.32159 -3.63178 0
M  V30 5062 N 484.817 1.37938 0.762283 0
M  V30 5063 C 486.063 1.33866 1.52341 0
M  V30 5064 C 486.396 -0.0738961 1.94059 0
M  V30 5065 O 485.671 -1.03326 1.64785 0
M  V30 5066 C 485.954 2.28644 2.78197 0
M  V30 5067 C 485.807 3.78722 2.42672 0
M  V30 5068 C 487.126 2.21702 3.80179 0
M  V30 5069 H 484.245 0.487593 0.55265 0
M  V30 5070 H 486.887 1.68717 0.873767 0
M  V30 5071 H 485.037 1.99055 3.33631 0
M  V30 5072 H 486.709 4.18948 1.93081 0
M  V30 5073 H 484.952 3.96827 1.75244 0
M  V30 5074 H 485.623 4.40486 3.3268 0
M  V30 5075 H 488.099 2.47805 3.34263 0
M  V30 5076 H 486.975 2.90143 4.65949 0
M  V30 5077 H 487.236 1.21301 4.25133 0
M  V30 5078 N 486.295 -0.989507 1.22664 0
M  V30 5079 C 487.258 -2.06183 1.00106 0
M  V30 5080 C 488.258 -1.60765 -0.0337726 0
M  V30 5081 O 489.448 -1.72989 0.205072 0
M  V30 5082 C 486.58 -3.37021 0.51279 0
M  V30 5083 H 487.773 -2.27629 1.95256 0
M  V30 5084 H 485.326 -1.16158 1.0458 0
M  V30 5085 H 486.061 -3.21261 -0.442917 0
M  V30 5086 H 485.846 -3.71323 1.25942 0
M  V30 5087 H 487.336 -4.1591 0.375315 0
M  V30 5088 N 487.773 -1.03688 -1.18687 0
M  V30 5089 C 489.001 -0.757918 -1.92518 0
M  V30 5090 C 489.416 0.684398 -1.75959 0
M  V30 5091 O 488.773 1.46617 -1.08673 0
M  V30 5092 C 488.824 -1.10985 -3.44042 0
M  V30 5093 O 488.545 -2.49554 -3.60076 0
M  V30 5094 C 490.046 -0.854844 -4.3498 0
M  V30 5095 H 487.266 -0.276699 -0.611293 0
M  V30 5096 H 489.81 -1.38352 -1.50595 0
M  V30 5097 H 487.965 -0.529279 -3.83767 0
M  V30 5098 H 488.379 -2.6291 -4.53849 0
M  V30 5099 H 489.853 -1.15098 -5.39867 0
M  V30 5100 H 490.33 0.210507 -4.38695 0
M  V30 5101 H 490.936 -1.41853 -4.00946 0
M  V30 5102 N 489.251 1.34841 -0.815825 0
M  V30 5103 C 490.181 2.32187 -0.247298 0
M  V30 5104 C 491.162 1.5791 0.632344 0
M  V30 5105 O 492.347 1.8593 0.560698 0
M  V30 5106 C 489.477 3.42122 0.597466 0
M  V30 5107 C 488.431 4.27602 -0.184446 0
M  V30 5108 C 487.757 5.28942 0.782609 0
M  V30 5109 C 489.057 5.03502 -1.38865 0
M  V30 5110 H 490.751 2.79985 -1.06061 0
M  V30 5111 H 488.297 1.34611 -0.511461 0
M  V30 5112 H 490.25 4.09232 1.00533 0
M  V30 5113 H 488.974 2.92956 1.44376 0
M  V30 5114 H 487.633 3.62085 -0.573592 0
M  V30 5115 H 487.281 4.7604 1.62466 0
M  V30 5116 H 486.981 5.87008 0.263695 0
M  V30 5117 H 488.505 5.98922 1.18848 0
M  V30 5118 H 489.919 5.63506 -1.05518 0
M  V30 5119 H 488.316 5.71108 -1.8427 0
M  V30 5120 H 489.386 4.33608 -2.17054 0
M  V30 5121 N 490.729 0.570148 1.46925 0
M  V30 5122 C 491.954 0.0542592 2.07329 0
M  V30 5123 C 492.379 -1.23582 1.41806 0
M  V30 5124 O 491.737 -1.74341 0.497479 0
M  V30 5125 C 491.785 -0.111175 3.60429 0
M  V30 5126 O 490.889 -1.17071 3.95434 0
M  V30 5127 H 490.23 0.0571425 0.661537 0
M  V30 5128 H 492.76 0.789516 1.88753 0
M  V30 5129 H 492.77 -0.321315 4.06733 0
M  V30 5130 H 491.445 0.831012 4.07513 0
M  V30 5131 H 490.022 -0.940029 3.60857 0
M  V30 5132 N 492.207 -1.54576 0.307264 0
M  V30 5133 C 493.154 -2.23751 -0.56604 0
M  V30 5134 C 494.124 -1.22235 -1.12462 0
M  V30 5135 O 495.309 -1.50873 -1.16799 0
M  V30 5136 C 492.449 -2.98661 -1.72903 0
M  V30 5137 C 491.562 -4.14963 -1.20124 0
M  V30 5138 C 490.697 -4.77441 -2.3286 0
M  V30 5139 C 489.736 -5.85875 -1.77247 0
M  V30 5140 N 488.873 -6.42282 -2.8358 0
M  V30 5141 H 493.713 -2.97984 0.0304578 0
M  V30 5142 H 491.25 -1.47076 0.0268015 0
M  V30 5143 H 493.208 -3.40329 -2.41313 0
M  V30 5144 H 491.838 -2.26793 -2.29706 0
M  V30 5145 H 490.89 -3.78193 -0.409198 0
M  V30 5146 H 492.202 -4.93066 -0.754171 0
M  V30 5147 H 491.356 -5.21993 -3.09205 0
M  V30 5148 H 490.095 -3.98684 -2.80896 0
M  V30 5149 H 489.1 -5.40741 -0.993926 0
M  V30 5150 H 490.325 -6.6652 -1.30107 0
M  V30 5151 H 488.271 -5.66406 -3.30939 0
M  V30 5152 H 488.188 -7.1575 -2.43388 0
M  V30 5153 H 489.456 -6.91492 -3.59804 0
M  V30 5154 O 493.724 -0.174109 -1.60559 0
M  V30 5155 H 494.415 0.415114 -1.892 0
M  V30 END ATOM
M  V30 BEGIN BOND
M  V30 END BOND
M  V30 END CTAB
M  END
$$$$
