drugbank_target|P04392 DNA adenine methylase (DB01752)
 OpenBabel12092120223D

  0  0  0     0  0            999 V3000
M  V30 BEGIN CTAB
M  V30 COUNTS 9453 10116 0 0 0
M  V30 BEGIN ATOM
M  V30 1 H -1.547 9.37743 -1.21644 0
M  V30 2 O -1.44 8.89599 -0.40059 0
M  V30 3 P 0 8.91 0 0
M  V30 4 O 0.22 10.1746 0.733838 0
M  V30 5 O 0.79 8.73346 -1.23964 0
M  V30 6 O 0.25 7.66872 0.971405 0
M  V30 7 C -0.69 7.42405 2.04668 0
M  V30 8 C 0.04 6.86059 3.24661 0
M  V30 9 O 0.25 5.42934 3.03695 0
M  V30 10 C 1.44 7.41287 3.50796 0
M  V30 11 O 1.83 7.27073 4.86816 0
M  V30 12 C 2.32 6.5273 2.63741 0
M  V30 13 C 1.61 5.1842 2.73198 0
M  V30 14 N 1.66 4.38762 1.4784 0
M  V30 15 H -1.178 8.36899 2.3252 0
M  V30 16 H -1.45 6.70391 1.71179 0
M  V30 17 H -0.582 7.03638 4.13219 0
M  V30 18 H 2.073 4.59931 3.54016 0
M  V30 19 H 2.353 6.88995 1.59871 0
M  V30 20 H 3.344 6.4684 3.0373 0
M  V30 21 H 1.51 8.47002 3.20749 0
M  V30 22 P 3.37998 7.20834 5.23717 0
M  V30 23 O 3.59998 7.79853 6.57286 0
M  V30 24 O 4.16998 7.79239 4.12957 0
M  V30 25 O 3.62998 5.63315 5.29344 0
M  V30 26 C 2.68998 4.80255 6.01876 0
M  V30 27 C 3.41998 3.64202 6.65911 0
M  V30 28 O 3.62998 2.60694 5.64732 0
M  V30 29 C 4.81998 3.93473 7.1943 0
M  V30 30 O 5.20998 3.02071 8.21205 0
M  V30 31 C 5.69998 3.73047 5.97036 0
M  V30 32 C 4.98998 2.58828 5.25741 0
M  V30 33 N 5.03998 2.68068 3.77503 0
M  V30 34 H 2.20098 5.40332 6.79951 0
M  V30 35 H 1.93098 4.41613 5.32378 0
M  V30 36 H 2.79798 3.26331 7.47797 0
M  V30 37 P 6.75996 2.75334 8.47391 0
M  V30 38 O 6.97996 2.44571 9.90142 0
M  V30 39 O 7.54996 3.87688 7.92115 0
M  V30 40 O 7.00996 1.4459 7.59357 0
M  V30 41 C 6.06996 0.347608 7.69215 0
M  V30 42 C 6.79996 -0.96767 7.52806 0
M  V30 43 O 7.00996 -1.21036 6.1011 0
M  V30 44 C 8.19996 -1.04544 8.13308 0
M  V30 45 O 8.58996 -2.38311 8.41922 0
M  V30 46 C 9.07996 -0.491279 7.02284 0
M  V30 47 C 8.36996 -0.996264 5.77469 0
M  V30 48 N 8.41996 -0.0501916 4.62973 0
M  V30 49 C 8.33996 1.32786 4.63244 0
M  V30 50 N 8.41996 1.86957 3.44545 0
M  V30 51 C 8.55996 0.780241 2.58481 0
M  V30 52 C 8.68996 0.738536 1.17757 0
M  V30 53 O 8.70996 1.66794 0.372349 0
M  V30 54 N 8.80996 -0.58337 0.711393 0
M  V30 55 C 8.80996 -1.70816 1.51017 0
M  V30 56 N 8.93996 -2.87826 0.880757 0
M  V30 57 N 8.67996 -1.67126 2.8339 0
M  V30 58 C 8.55996 -0.401421 3.30572 0
M  V30 59 H 5.58096 0.374722 8.67691 0
M  V30 60 H 5.31096 0.443485 6.90277 0
M  V30 61 H 6.17796 -1.75537 7.96793 0
M  V30 62 H 8.83296 -1.95076 5.46529 0
M  V30 63 H 9.11196 0.608565 7.04577 0
M  V30 64 H 10.104 -0.889672 7.08939 0
M  V30 65 H 8.26996 -0.43308 9.04564 0
M  V30 66 H 8.22096 1.91249 5.54442 0
M  V30 67 H 8.90296 -0.718054 -0.275244 0
M  V30 68 H 8.93996 -3.75721 1.41832 0
M  V30 69 H 9.04096 -2.90436 -0.145468 0
M  V30 70 P 10.1399 -2.75334 8.47391 0
M  V30 71 O 10.3599 -3.84204 9.44982 0
M  V30 72 O 10.9299 -1.51982 8.68909 0
M  V30 73 O 10.3899 -3.29363 6.99321 0
M  V30 74 C 9.44994 -4.24066 6.42823 0
M  V30 75 C 10.1799 -5.20775 5.52155 0
M  V30 76 O 10.3899 -4.56607 4.22514 0
M  V30 77 C 11.5799 -5.62697 5.96604 0
M  V30 78 O 11.9699 -6.87667 5.41053 0
M  V30 79 C 12.4599 -4.52537 5.39283 0
M  V30 80 C 11.7499 -4.20027 4.08623 0
M  V30 81 N 11.7999 -2.76189 3.71603 0
M  V30 82 C 11.7199 -1.66944 4.54297 0
M  V30 83 N 11.7899 -0.536169 3.91344 0
M  V30 84 C 11.9399 -0.901569 2.58849 0
M  V30 85 C 12.0699 -0.146599 1.40236 0
M  V30 86 N 12.0799 1.18234 1.37046 0
M  V30 87 N 12.1899 -0.822941 0.249738 0
M  V30 88 C 12.1799 -2.15179 0.280525 0
M  V30 89 N 12.0599 -2.96414 1.30822 0
M  V30 90 C 11.9399 -2.25804 2.44748 0
M  V30 91 H 8.96194 -4.79756 7.24086 0
M  V30 92 H 8.68994 -3.69963 5.84682 0
M  V30 93 H 9.55794 -6.10431 5.41508 0
M  V30 94 H 12.2129 -4.78816 3.28024 0
M  V30 95 H 12.4929 -3.64957 6.05871 0
M  V30 96 H 13.4839 -4.88748 5.21323 0
M  V30 97 H 11.6499 -5.66789 7.0643 0
M  V30 98 H 11.6089 -1.74684 5.62396 0
M  V30 99 H 11.9899 1.71949 2.24394 0
M  V30 100 H 12.1789 1.67511 0.470742 0
M  V30 101 H 12.2869 -2.63704 -0.6828 0
M  V30 102 P 13.5199 -7.20834 5.23717 0
M  V30 103 O 13.7399 -8.66104 5.38572 0
M  V30 104 O 14.3099 -6.33544 6.1349 0
M  V30 105 O 13.7699 -6.7751 3.72168 0
M  V30 106 C 12.8299 -7.20825 2.7076 0
M  V30 107 C 13.5599 -7.45864 1.40599 0
M  V30 108 O 13.7699 -6.17651 0.734225 0
M  V30 109 C 14.9599 -8.05808 1.51899 0
M  V30 110 O 15.3499 -8.74358 0.335205 0
M  V30 111 C 15.8399 -6.83093 1.70294 0
M  V30 112 C 15.1299 -5.79992 0.836974 0
M  V30 113 N 15.1799 -4.41864 1.38293 0
M  V30 114 H 12.3409 -8.13644 3.0377 0
M  V30 115 H 12.0709 -6.42788 2.55485 0
M  V30 116 H 12.9379 -8.12039 0.792769 0
M  V30 117 P 16.8999 -8.91 1.09116e-15 0
M  V30 118 O 17.1199 -10.1746 -0.733838 0
M  V30 119 O 17.6899 -8.73346 1.23964 0
M  V30 120 O 17.1499 -7.66872 -0.971405 0
M  V30 121 C 16.2099 -7.42405 -2.04668 0
M  V30 122 C 16.9399 -6.86059 -3.24661 0
M  V30 123 O 17.1499 -5.42934 -3.03695 0
M  V30 124 C 18.3399 -7.41287 -3.50796 0
M  V30 125 O 18.7299 -7.27073 -4.86816 0
M  V30 126 C 19.2199 -6.5273 -2.63741 0
M  V30 127 C 18.5099 -5.1842 -2.73198 0
M  V30 128 N 18.5599 -4.38762 -1.4784 0
M  V30 129 C 18.4799 -4.83651 -0.183876 0
M  V30 130 N 18.5499 -3.88759 0.699393 0
M  V30 131 C 18.6999 -2.7404 -0.0575568 0
M  V30 132 C 18.8299 -1.37902 0.293928 0
M  V30 133 N 18.8399 -0.938021 1.54797 0
M  V30 134 N 18.9499 -0.491817 -0.70549 0
M  V30 135 C 18.9399 -0.931735 -1.95979 0
M  V30 136 N 18.8199 -2.16017 -2.41481 0
M  V30 137 C 18.6999 -3.02547 -1.39121 0
M  V30 138 H 15.7219 -8.36899 -2.3252 0
M  V30 139 H 15.4499 -6.70391 -1.71179 0
M  V30 140 H 16.3179 -7.03638 -4.13219 0
M  V30 141 H 18.9729 -4.59931 -3.54016 0
M  V30 142 H 19.2529 -6.88995 -1.59871 0
M  V30 143 H 20.2439 -6.4684 -3.0373 0
M  V30 144 H 18.4099 -8.47002 -3.20749 0
M  V30 145 H 18.3689 -5.8885 0.0765548 0
M  V30 146 H 18.7499 -1.60276 2.32875 0
M  V30 147 H 18.9389 0.0699355 1.73859 0
M  V30 148 H 19.0469 -0.165507 -2.71897 0
M  V30 149 P 20.2799 -7.20834 -5.23717 0
M  V30 150 O 20.4999 -7.7993 -6.57351 0
M  V30 151 O 21.0699 -7.79328 -4.13004 0
M  V30 152 O 20.5299 -5.63315 -5.29344 0
M  V30 153 C 19.5899 -4.80193 -6.01798 0
M  V30 154 C 20.3199 -3.64202 -6.65911 0
M  V30 155 O 20.5299 -2.60694 -5.64732 0
M  V30 156 C 21.7199 -3.93473 -7.1943 0
M  V30 157 O 22.1099 -3.02071 -8.21205 0
M  V30 158 C 22.5999 -3.73047 -5.97036 0
M  V30 159 C 21.8899 -2.58828 -5.25741 0
M  V30 160 N 21.9399 -2.6801 -3.77422 0
M  V30 161 C 22.0899 -1.50443 -3.07133 0
M  V30 162 O 22.1799 -0.419406 -3.61576 0
M  V30 163 N 22.1299 -1.6403 -1.69677 0
M  V30 164 C 22.0399 -2.81206 -0.986255 0
M  V30 165 C 21.8899 -3.99158 -1.80325 0
M  V30 166 C 21.8399 -3.89779 -3.1476 0
M  V30 167 H 19.0999 -5.40332 -6.79951 0
M  V30 168 H 18.8309 -4.41549 -5.32301 0
M  V30 169 H 19.6979 -3.26331 -7.47797 0
M  V30 170 H 22.3529 -1.6395 -5.56554 0
M  V30 171 H 22.6319 -4.63439 -5.3432 0
M  V30 172 H 23.6239 -3.44728 -6.25838 0
M  V30 173 H 21.7899 -4.96652 -7.57263 0
M  V30 174 H 21.7189 -4.80159 -3.74441 0
M  V30 175 P 23.6599 -2.75334 -8.47391 0
M  V30 176 O 23.8799 -2.44595 -9.90239 0
M  V30 177 O 24.4499 -3.87732 -7.92204 0
M  V30 178 O 23.9099 -1.4459 -7.59357 0
M  V30 179 C 22.9699 -0.347563 -7.69115 0
M  V30 180 C 23.6999 0.96767 -7.52806 0
M  V30 181 O 23.9099 1.21036 -6.1011 0
M  V30 182 C 25.0999 1.04544 -8.13308 0
M  V30 183 O 25.4899 2.38311 -8.41922 0
M  V30 184 C 25.9799 0.491279 -7.02284 0
M  V30 185 C 25.2699 0.996264 -5.77469 0
M  V30 186 N 25.3199 0.0501808 -4.62873 0
M  V30 187 C 25.4699 0.588177 -3.36904 0
M  V30 188 O 25.5599 1.78598 -3.17173 0
M  V30 189 N 25.5099 -0.329694 -2.33686 0
M  V30 190 C 25.4199 -1.6953 -2.45079 0
M  V30 191 O 25.4699 -2.41926 -1.44899 0
M  V30 192 C 25.2699 -2.16933 -3.80505 0
M  V30 193 C 25.1599 -3.65373 -3.97621 0
M  V30 194 C 25.2199 -1.30326 -4.83752 0
M  V30 195 H 22.4799 -0.374722 -8.67691 0
M  V30 196 H 22.2109 -0.443421 -6.90177 0
M  V30 197 H 23.0779 1.75537 -7.96793 0
M  V30 198 H 25.7329 1.94496 -5.46629 0
M  V30 199 H 26.0119 -0.608651 -7.04676 0
M  V30 200 H 27.0039 0.889672 -7.08939 0
M  V30 201 H 25.1699 0.43308 -9.04564 0
M  V30 202 H 25.0989 -1.68366 -5.8516 0
M  V30 203 H 26.1289 -4.05985 -4.30448 0
M  V30 204 H 24.3919 -3.88028 -4.72875 0
M  V30 205 H 24.8799 -4.11381 -3.01609 0
M  V30 206 H 25.6159 0.0393617 -1.41345 0
M  V30 207 P 27.0398 2.75334 -8.47391 0
M  V30 208 O 27.2598 3.84128 -9.44797 0
M  V30 209 O 27.8298 1.51947 -8.68712 0
M  V30 210 O 27.2898 3.29363 -6.99321 0
M  V30 211 C 26.3498 4.24011 -6.4274 0
M  V30 212 C 27.0798 5.20775 -5.52155 0
M  V30 213 O 27.2898 4.56534 -4.22446 0
M  V30 214 C 28.4798 5.62629 -5.96531 0
M  V30 215 O 28.8698 6.87667 -5.41053 0
M  V30 216 C 29.3598 4.52537 -5.39283 0
M  V30 217 C 28.6498 4.20027 -4.08623 0
M  V30 218 N 28.6998 2.76189 -3.71603 0
M  V30 219 C 28.6198 1.64862 -4.52822 0
M  V30 220 N 28.6998 0.512671 -3.88633 0
M  V30 221 C 28.8398 0.888083 -2.54977 0
M  V30 222 C 28.9698 0.094668 -1.38677 0
M  V30 223 O 28.9898 -1.13053 -1.28163 0
M  V30 224 N 29.0898 0.890102 -0.232633 0
M  V30 225 C 29.0898 2.26958 -0.21772 0
M  V30 226 N 29.2198 2.84626 0.97925 0
M  V30 227 N 28.9598 3.0178 -1.31033 0
M  V30 228 C 28.8398 2.26781 -2.43843 0
M  V30 229 H 25.8608 4.797 -7.24003 0
M  V30 230 H 25.5908 3.69856 -5.84513 0
M  V30 231 H 26.4578 6.10356 -5.41441 0
M  V30 232 H 29.1128 4.79061 -3.27488 0
M  V30 233 H 29.3918 3.64906 -6.05785 0
M  V30 234 H 30.3838 4.8868 -5.2125 0
M  V30 235 H 28.5498 5.66726 -7.06352 0
M  V30 236 H 28.5008 1.71169 -5.60966 0
M  V30 237 H 29.1828 0.419134 0.644739 0
M  V30 238 H 29.2198 3.87332 1.06098 0
M  V30 239 H 29.3208 2.26417 1.82483 0
M  V30 240 P 30.4198 7.20834 -5.23717 0
M  V30 241 O 30.6398 8.66104 -5.38572 0
M  V30 242 O 31.2098 6.33544 -6.1349 0
M  V30 243 O 30.6698 6.7751 -3.72168 0
M  V30 244 C 29.7298 7.20825 -2.7076 0
M  V30 245 C 30.4598 7.45864 -1.40599 0
M  V30 246 O 30.6698 6.17651 -0.734225 0
M  V30 247 C 31.8598 8.05808 -1.51899 0
M  V30 248 O 32.2498 8.74358 -0.335205 0
M  V30 249 C 32.7398 6.83093 -1.70294 0
M  V30 250 C 32.0298 5.79992 -0.836974 0
M  V30 251 N 32.0798 4.41864 -1.38293 0
M  V30 252 H 29.2408 8.13644 -3.0377 0
M  V30 253 H 28.9708 6.42788 -2.55485 0
M  V30 254 H 29.8378 8.12039 -0.792769 0
M  V30 255 P 33.7998 8.91 -2.18232e-15 0
M  V30 256 O 34.0198 10.1726 0.733694 0
M  V30 257 O 34.5898 8.73148 -1.23936 0
M  V30 258 O 34.0498 7.66872 0.971405 0
M  V30 259 C 33.1098 7.42309 2.04641 0
M  V30 260 C 33.8398 6.86059 3.24661 0
M  V30 261 O 34.0498 5.42847 3.03646 0
M  V30 262 C 35.2398 7.41196 3.50753 0
M  V30 263 O 35.6298 7.27073 4.86816 0
M  V30 264 C 36.1198 6.5273 2.63741 0
M  V30 265 C 35.4098 5.1842 2.73198 0
M  V30 266 N 35.4598 4.38762 1.4784 0
M  V30 267 H 32.6208 8.36803 2.32493 0
M  V30 268 H 32.3508 6.70197 1.71129 0
M  V30 269 H 33.2178 7.03551 4.13168 0
M  V30 270 P 37.1798 7.20834 5.23717 0
M  V30 271 O 37.3998 7.79853 6.57286 0
M  V30 272 O 37.9698 7.79239 4.12957 0
M  V30 273 O 37.4298 5.63315 5.29344 0
M  V30 274 C 36.4898 4.80255 6.01876 0
M  V30 275 C 37.2198 3.64202 6.65911 0
M  V30 276 O 37.4298 2.60694 5.64732 0
M  V30 277 C 38.6198 3.93473 7.1943 0
M  V30 278 O 39.0098 3.02071 8.21205 0
M  V30 279 C 39.4998 3.73047 5.97036 0
M  V30 280 C 38.7898 2.58828 5.25741 0
M  V30 281 N 38.8398 2.68068 3.77503 0
M  V30 282 H 36.0008 5.40332 6.79951 0
M  V30 283 H 35.7308 4.41613 5.32378 0
M  V30 284 H 36.5978 3.26331 7.47797 0
M  V30 285 P 40.5598 2.75334 8.47391 0
M  V30 286 O 40.7798 2.44571 9.90142 0
M  V30 287 O 41.3498 3.87688 7.92115 0
M  V30 288 O 40.8098 1.4459 7.59357 0
M  V30 289 C 39.8698 0.347608 7.69215 0
M  V30 290 C 40.5998 -0.96767 7.52806 0
M  V30 291 O 40.8098 -1.21036 6.1011 0
M  V30 292 C 41.9998 -1.04544 8.13308 0
M  V30 293 O 42.3898 -2.38311 8.41922 0
M  V30 294 C 42.8798 -0.491279 7.02284 0
M  V30 295 C 42.1698 -0.996264 5.77469 0
M  V30 296 N 42.2198 -0.0501916 4.62973 0
M  V30 297 H 39.3808 0.374722 8.67691 0
M  V30 298 H 39.1108 0.443485 6.90277 0
M  V30 299 H 39.9778 -1.75537 7.96793 0
M  V30 300 P 43.9397 -2.75334 8.47391 0
M  V30 301 O 44.1597 -3.84128 9.44797 0
M  V30 302 O 44.7297 -1.51947 8.68712 0
M  V30 303 O 44.1897 -3.29363 6.99321 0
M  V30 304 C 43.2497 -4.24011 6.4274 0
M  V30 305 C 43.9797 -5.20775 5.52155 0
M  V30 306 O 44.1897 -4.56534 4.22446 0
M  V30 307 C 45.3797 -5.62629 5.96531 0
M  V30 308 O 45.7697 -6.87667 5.41053 0
M  V30 309 C 46.2597 -4.52537 5.39283 0
M  V30 310 C 45.5497 -4.20027 4.08623 0
M  V30 311 N 45.5997 -2.76189 3.71603 0
M  V30 312 H 42.7607 -4.797 7.24003 0
M  V30 313 H 42.4907 -3.69856 5.84513 0
M  V30 314 H 43.3577 -6.10356 5.41441 0
M  V30 315 P 47.3197 -7.20834 5.23717 0
M  V30 316 O 47.5397 -8.66104 5.38572 0
M  V30 317 O 48.1097 -6.33544 6.1349 0
M  V30 318 O 47.5697 -6.7751 3.72168 0
M  V30 319 C 46.6297 -7.20825 2.7076 0
M  V30 320 C 47.3597 -7.45864 1.40599 0
M  V30 321 O 47.5697 -6.17651 0.734225 0
M  V30 322 C 48.7597 -8.05808 1.51899 0
M  V30 323 O 49.1497 -8.74358 0.335205 0
M  V30 324 C 49.6397 -6.83093 1.70294 0
M  V30 325 C 48.9297 -5.79992 0.836974 0
M  V30 326 N 48.9797 -4.41864 1.38293 0
M  V30 327 H 46.1407 -8.13644 3.0377 0
M  V30 328 H 45.8707 -6.42788 2.55485 0
M  V30 329 H 46.7377 -8.12039 0.792769 0
M  V30 330 P 50.6997 -8.91 3.27348e-15 0
M  V30 331 O 50.9197 -10.1726 -0.733694 0
M  V30 332 O 51.4897 -8.73148 1.23936 0
M  V30 333 O 50.9497 -7.66872 -0.971405 0
M  V30 334 C 50.0097 -7.42309 -2.04641 0
M  V30 335 C 50.7397 -6.86059 -3.24661 0
M  V30 336 O 50.9497 -5.42847 -3.03646 0
M  V30 337 C 52.1397 -7.41196 -3.50753 0
M  V30 338 O 52.5297 -7.27073 -4.86816 0
M  V30 339 C 53.0197 -6.5273 -2.63741 0
M  V30 340 C 52.3097 -5.1842 -2.73198 0
M  V30 341 N 52.3597 -4.38762 -1.4784 0
M  V30 342 H 49.5207 -8.36803 -2.32493 0
M  V30 343 H 49.2507 -6.70197 -1.71129 0
M  V30 344 H 50.1177 -7.03551 -4.13168 0
M  V30 345 P 54.0797 -7.20834 -5.23717 0
M  V30 346 O 54.2997 -7.79853 -6.57286 0
M  V30 347 O 54.8697 -7.79239 -4.12957 0
M  V30 348 O 54.3297 -5.63315 -5.29344 0
M  V30 349 C 53.3897 -4.80255 -6.01876 0
M  V30 350 C 54.1197 -3.64202 -6.65911 0
M  V30 351 O 54.3297 -2.60694 -5.64732 0
M  V30 352 C 55.5197 -3.93473 -7.1943 0
M  V30 353 O 55.9097 -3.02071 -8.21205 0
M  V30 354 C 56.3997 -3.73047 -5.97036 0
M  V30 355 C 55.6897 -2.58828 -5.25741 0
M  V30 356 N 55.7397 -2.68068 -3.77503 0
M  V30 357 H 52.9007 -5.40332 -6.79951 0
M  V30 358 H 52.6307 -4.41613 -5.32378 0
M  V30 359 H 53.4977 -3.26331 -7.47797 0
M  V30 360 P 57.4597 -2.75334 -8.47391 0
M  V30 361 O 57.6797 -2.44571 -9.90142 0
M  V30 362 O 58.2497 -3.87688 -7.92115 0
M  V30 363 O 57.7097 -1.4459 -7.59357 0
M  V30 364 C 56.7697 -0.347608 -7.69215 0
M  V30 365 C 57.4997 0.96767 -7.52806 0
M  V30 366 O 57.7097 1.21036 -6.1011 0
M  V30 367 C 58.8997 1.04544 -8.13308 0
M  V30 368 O 59.2897 2.38311 -8.41922 0
M  V30 369 C 59.7797 0.491279 -7.02284 0
M  V30 370 C 59.0697 0.996264 -5.77469 0
M  V30 371 N 59.1197 0.0501916 -4.62973 0
M  V30 372 H 56.2807 -0.374722 -8.67691 0
M  V30 373 H 56.0107 -0.443485 -6.90277 0
M  V30 374 H 56.8777 1.75537 -7.96793 0
M  V30 375 P 60.8396 2.75334 -8.47391 0
M  V30 376 O 61.0596 3.84128 -9.44797 0
M  V30 377 O 61.6296 1.51947 -8.68712 0
M  V30 378 O 61.0896 3.29363 -6.99321 0
M  V30 379 C 60.1496 4.24011 -6.4274 0
M  V30 380 C 60.8796 5.20775 -5.52155 0
M  V30 381 O 61.0896 4.56534 -4.22446 0
M  V30 382 C 62.2796 5.62629 -5.96531 0
M  V30 383 O 62.6696 6.87667 -5.41053 0
M  V30 384 C 63.1596 4.52537 -5.39283 0
M  V30 385 C 62.4496 4.20027 -4.08623 0
M  V30 386 N 62.4996 2.76189 -3.71603 0
M  V30 387 H 59.6606 4.797 -7.24003 0
M  V30 388 H 59.3906 3.69856 -5.84513 0
M  V30 389 H 60.2576 6.10356 -5.41441 0
M  V30 390 P 64.2196 7.20834 -5.23717 0
M  V30 391 O 64.4396 8.66104 -5.38572 0
M  V30 392 O 65.0096 6.33544 -6.1349 0
M  V30 393 O 64.4696 6.7751 -3.72168 0
M  V30 394 C 63.5296 7.20825 -2.7076 0
M  V30 395 C 64.2596 7.45864 -1.40599 0
M  V30 396 O 64.4696 6.17651 -0.734225 0
M  V30 397 C 65.6596 8.05808 -1.51899 0
M  V30 398 O 66.0496 8.74358 -0.335205 0
M  V30 399 C 66.5396 6.83093 -1.70294 0
M  V30 400 C 65.8296 5.79992 -0.836974 0
M  V30 401 N 65.8796 4.41864 -1.38293 0
M  V30 402 H 63.0406 8.13644 -3.0377 0
M  V30 403 H 62.7706 6.42788 -2.55485 0
M  V30 404 H 63.6376 8.12039 -0.792769 0
M  V30 405 P 67.5996 8.91 -4.36464e-15 0
M  V30 406 O 67.8196 10.1746 0.733838 0
M  V30 407 O 68.3896 8.73346 -1.23964 0
M  V30 408 O 67.8496 7.66872 0.971405 0
M  V30 409 C 66.9096 7.42405 2.04668 0
M  V30 410 C 67.6396 6.86059 3.24661 0
M  V30 411 O 67.8496 5.42934 3.03695 0
M  V30 412 C 69.0396 7.41287 3.50796 0
M  V30 413 O 69.4296 7.27073 4.86816 0
M  V30 414 C 69.9196 6.5273 2.63741 0
M  V30 415 C 69.2096 5.1842 2.73198 0
M  V30 416 N 69.2596 4.38762 1.4784 0
M  V30 417 H 66.4216 8.36899 2.3252 0
M  V30 418 H 66.1496 6.70391 1.71179 0
M  V30 419 H 67.0176 7.03638 4.13219 0
M  V30 420 H 69.6726 4.59931 3.54016 0
M  V30 421 H 69.9526 6.88995 1.59871 0
M  V30 422 H 70.9436 6.4684 3.0373 0
M  V30 423 H 69.1096 8.47002 3.20749 0
M  V30 424 P 70.9796 7.20834 5.23717 0
M  V30 425 O 71.1996 7.79853 6.57286 0
M  V30 426 O 71.7696 7.79239 4.12957 0
M  V30 427 O 71.2296 5.63315 5.29344 0
M  V30 428 C 70.2896 4.80255 6.01876 0
M  V30 429 C 71.0196 3.64202 6.65911 0
M  V30 430 O 71.2296 2.60694 5.64732 0
M  V30 431 C 72.4196 3.93473 7.1943 0
M  V30 432 O 72.8096 3.02071 8.21205 0
M  V30 433 C 73.2996 3.73047 5.97036 0
M  V30 434 C 72.5896 2.58828 5.25741 0
M  V30 435 N 72.6396 2.68068 3.77503 0
M  V30 436 H 69.8006 5.40332 6.79951 0
M  V30 437 H 69.5306 4.41613 5.32378 0
M  V30 438 H 70.3976 3.26331 7.47797 0
M  V30 439 P 74.3596 2.75334 8.47391 0
M  V30 440 O 74.5796 2.44571 9.90142 0
M  V30 441 O 75.1496 3.87688 7.92115 0
M  V30 442 O 74.6096 1.4459 7.59357 0
M  V30 443 C 73.6696 0.347608 7.69215 0
M  V30 444 C 74.3996 -0.96767 7.52806 0
M  V30 445 O 74.6096 -1.21036 6.1011 0
M  V30 446 C 75.7996 -1.04544 8.13308 0
M  V30 447 O 76.1896 -2.38311 8.41922 0
M  V30 448 C 76.6796 -0.491279 7.02284 0
M  V30 449 C 75.9696 -0.996264 5.77469 0
M  V30 450 N 76.0196 -0.0501916 4.62973 0
M  V30 451 H 73.1806 0.374722 8.67691 0
M  V30 452 H 72.9106 0.443485 6.90277 0
M  V30 453 H 73.7776 -1.75537 7.96793 0
M  V30 454 P 77.7395 -2.75334 8.47391 0
M  V30 455 O 77.9595 -3.84128 9.44797 0
M  V30 456 O 78.5295 -1.51947 8.68712 0
M  V30 457 O 77.9895 -3.29363 6.99321 0
M  V30 458 C 77.0495 -4.24011 6.4274 0
M  V30 459 C 77.7795 -5.20775 5.52155 0
M  V30 460 O 77.9895 -4.56534 4.22446 0
M  V30 461 C 79.1795 -5.62629 5.96531 0
M  V30 462 O 79.5695 -6.87667 5.41053 0
M  V30 463 C 80.0595 -4.52537 5.39283 0
M  V30 464 C 79.3495 -4.20027 4.08623 0
M  V30 465 N 79.3995 -2.76189 3.71603 0
M  V30 466 H 76.5605 -4.797 7.24003 0
M  V30 467 H 76.2905 -3.69856 5.84513 0
M  V30 468 H 77.1575 -6.10356 5.41441 0
M  V30 469 P 81.1195 -7.20834 5.23717 0
M  V30 470 O 81.3395 -8.66189 5.38625 0
M  V30 471 O 81.9095 -6.33615 6.1356 0
M  V30 472 O 81.3695 -6.7751 3.72168 0
M  V30 473 C 80.4295 -7.20732 2.70725 0
M  V30 474 C 81.1595 -7.45864 1.40599 0
M  V30 475 O 81.3695 -6.17651 0.734225 0
M  V30 476 C 82.5595 -8.05808 1.51899 0
M  V30 477 O 82.9495 -8.74358 0.335205 0
M  V30 478 C 83.4395 -6.83093 1.70294 0
M  V30 479 C 82.7295 -5.79992 0.836974 0
M  V30 480 N 82.7795 -4.41769 1.38263 0
M  V30 481 C 82.9295 -3.38591 0.481702 0
M  V30 482 O 83.0195 -3.56839 -0.718452 0
M  V30 483 N 82.9695 -2.1206 1.03569 0
M  V30 484 C 82.8795 -1.80696 2.36966 0
M  V30 485 C 82.7295 -2.94845 3.23898 0
M  V30 486 C 82.6795 -4.19803 2.73435 0
M  V30 487 H 79.9395 -8.13644 3.0377 0
M  V30 488 H 79.6705 -6.42695 2.55448 0
M  V30 489 H 80.5375 -8.12039 0.792769 0
M  V30 490 H 83.1925 -5.79978 -0.160587 0
M  V30 491 H 83.4715 -6.51379 2.75643 0
M  V30 492 H 84.4635 -7.01734 1.34462 0
M  V30 493 H 82.6295 -8.73674 2.38337 0
M  V30 494 H 82.5585 -5.04492 3.4095 0
M  V30 495 P 84.4995 -8.91 5.4558e-15 0
M  V30 496 O 84.7195 -10.1726 -0.733694 0
M  V30 497 O 85.2895 -8.73148 1.23936 0
M  V30 498 O 84.7495 -7.66872 -0.971405 0
M  V30 499 C 83.8095 -7.42309 -2.04641 0
M  V30 500 C 84.5395 -6.86059 -3.24661 0
M  V30 501 O 84.7495 -5.42847 -3.03646 0
M  V30 502 C 85.9395 -7.41196 -3.50753 0
M  V30 503 O 86.3295 -7.27073 -4.86816 0
M  V30 504 C 86.8195 -6.5273 -2.63741 0
M  V30 505 C 86.1095 -5.1842 -2.73198 0
M  V30 506 N 86.1595 -4.38762 -1.4784 0
M  V30 507 H 83.3205 -8.36803 -2.32493 0
M  V30 508 H 83.0505 -6.70197 -1.71129 0
M  V30 509 H 83.9175 -7.03551 -4.13168 0
M  V30 510 P 87.8795 -7.20834 -5.23717 0
M  V30 511 O 88.0995 -7.79853 -6.57286 0
M  V30 512 O 88.6695 -7.79239 -4.12957 0
M  V30 513 O 88.1295 -5.63315 -5.29344 0
M  V30 514 C 87.1895 -4.80255 -6.01876 0
M  V30 515 C 87.9195 -3.64202 -6.65911 0
M  V30 516 O 88.1295 -2.60694 -5.64732 0
M  V30 517 C 89.3195 -3.93473 -7.1943 0
M  V30 518 O 89.7095 -3.02071 -8.21205 0
M  V30 519 C 90.1995 -3.73047 -5.97036 0
M  V30 520 C 89.4895 -2.58828 -5.25741 0
M  V30 521 N 89.5395 -2.68068 -3.77503 0
M  V30 522 C 89.4595 -3.79715 -2.96723 0
M  V30 523 N 89.5395 -3.5377 -1.68852 0
M  V30 524 C 89.6795 -2.15054 -1.63254 0
M  V30 525 C 89.8095 -1.28964 -0.518571 0
M  V30 526 N 89.9295 0.0538097 -0.918425 0
M  V30 527 C 89.9295 0.494275 -2.22578 0
M  V30 528 N 90.0595 1.81086 -2.40434 0
M  V30 529 N 89.7995 -0.313645 -3.27502 0
M  V30 530 C 89.6795 -1.61829 -2.91033 0
M  V30 531 H 86.7005 -5.40332 -6.79951 0
M  V30 532 H 86.4305 -4.41613 -5.32378 0
M  V30 533 H 87.2975 -3.26331 -7.47797 0
M  V30 534 P 91.2595 -2.75334 -8.47391 0
M  V30 535 O 91.4795 -2.44571 -9.90142 0
M  V30 536 O 92.0495 -3.87688 -7.92115 0
M  V30 537 O 91.5095 -1.4459 -7.59357 0
M  V30 538 C 90.5695 -0.347608 -7.69215 0
M  V30 539 C 91.2995 0.96767 -7.52806 0
M  V30 540 O 91.5095 1.21036 -6.1011 0
M  V30 541 C 92.6995 1.04544 -8.13308 0
M  V30 542 O 93.0895 2.38311 -8.41922 0
M  V30 543 C 93.5795 0.491279 -7.02284 0
M  V30 544 C 92.8695 0.996264 -5.77469 0
M  V30 545 N 92.9195 0.0501916 -4.62973 0
M  V30 546 H 90.0805 -0.374722 -8.67691 0
M  V30 547 H 89.8105 -0.443485 -6.90277 0
M  V30 548 H 90.6775 1.75537 -7.96793 0
M  V30 549 P 94.6394 2.75334 -8.47391 0
M  V30 550 O 94.8594 3.84128 -9.44797 0
M  V30 551 O 95.4294 1.51947 -8.68712 0
M  V30 552 O 94.8894 3.29363 -6.99321 0
M  V30 553 C 93.9494 4.24011 -6.4274 0
M  V30 554 C 94.6794 5.20775 -5.52155 0
M  V30 555 O 94.8894 4.56534 -4.22446 0
M  V30 556 C 96.0794 5.62629 -5.96531 0
M  V30 557 O 96.4694 6.87667 -5.41053 0
M  V30 558 C 96.9594 4.52537 -5.39283 0
M  V30 559 C 96.2494 4.20027 -4.08623 0
M  V30 560 N 96.2994 2.76189 -3.71603 0
M  V30 561 H 93.4604 4.797 -7.24003 0
M  V30 562 H 93.1904 3.69856 -5.84513 0
M  V30 563 H 94.0574 6.10356 -5.41441 0
M  V30 564 P 98.0194 7.20834 -5.23717 0
M  V30 565 O 98.2394 8.66104 -5.38572 0
M  V30 566 O 98.8094 6.33544 -6.1349 0
M  V30 567 O 98.2694 6.7751 -3.72168 0
M  V30 568 C 97.3294 7.20825 -2.7076 0
M  V30 569 C 98.0594 7.45864 -1.40599 0
M  V30 570 O 98.2694 6.17651 -0.734225 0
M  V30 571 C 99.4594 8.05808 -1.51899 0
M  V30 572 O 99.8494 8.74358 -0.335205 0
M  V30 573 C 100.339 6.83093 -1.70294 0
M  V30 574 C 99.6294 5.79992 -0.836974 0
M  V30 575 N 99.6794 4.41864 -1.38293 0
M  V30 576 H 96.8404 8.13644 -3.0377 0
M  V30 577 H 96.5704 6.42788 -2.55485 0
M  V30 578 H 97.4374 8.12039 -0.792769 0
M  V30 579 P 101.399 8.91 -6.54696e-15 0
M  V30 580 O 101.619 10.1726 0.733694 0
M  V30 581 O 102.189 8.73148 -1.23936 0
M  V30 582 O 101.649 7.66872 0.971405 0
M  V30 583 C 100.709 7.42309 2.04641 0
M  V30 584 C 101.439 6.86059 3.24661 0
M  V30 585 O 101.649 5.42847 3.03646 0
M  V30 586 C 102.839 7.41196 3.50753 0
M  V30 587 O 103.229 7.27073 4.86816 0
M  V30 588 C 103.719 6.5273 2.63741 0
M  V30 589 C 103.009 5.1842 2.73198 0
M  V30 590 N 103.059 4.38762 1.4784 0
M  V30 591 H 100.22 8.36803 2.32493 0
M  V30 592 H 99.9504 6.70197 1.71129 0
M  V30 593 H 100.817 7.03551 4.13168 0
M  V30 594 P 104.779 7.20834 5.23717 0
M  V30 595 O 104.999 7.79853 6.57286 0
M  V30 596 O 105.569 7.79239 4.12957 0
M  V30 597 O 105.029 5.63315 5.29344 0
M  V30 598 C 104.089 4.80255 6.01876 0
M  V30 599 C 104.819 3.64202 6.65911 0
M  V30 600 O 105.029 2.60694 5.64732 0
M  V30 601 C 106.219 3.93473 7.1943 0
M  V30 602 O 106.609 3.02071 8.21205 0
M  V30 603 C 107.099 3.73047 5.97036 0
M  V30 604 C 106.389 2.58828 5.25741 0
M  V30 605 N 106.439 2.68068 3.77503 0
M  V30 606 H 103.6 5.40332 6.79951 0
M  V30 607 H 103.33 4.41613 5.32378 0
M  V30 608 H 104.197 3.26331 7.47797 0
M  V30 609 P 108.159 2.75334 8.47391 0
M  V30 610 O 108.379 2.44595 9.90239 0
M  V30 611 O 108.949 3.87732 7.92204 0
M  V30 612 O 108.409 1.4459 7.59357 0
M  V30 613 C 107.469 0.347608 7.69215 0
M  V30 614 C 108.199 -0.96767 7.52806 0
M  V30 615 O 108.409 -1.21036 6.1011 0
M  V30 616 C 109.599 -1.04544 8.13308 0
M  V30 617 O 109.989 -2.38311 8.41922 0
M  V30 618 C 110.479 -0.491279 7.02284 0
M  V30 619 C 109.769 -0.996264 5.77469 0
M  V30 620 N 109.819 -0.0501808 4.62873 0
M  V30 621 C 109.969 -0.578037 3.3505 0
M  V30 622 O 110.059 -1.8073 3.21711 0
M  V30 623 N 110.019 0.468541 2.263 0
M  V30 624 C 109.919 1.59186 2.47176 0
M  V30 625 N 109.969 2.37626 1.40392 0
M  V30 626 C 109.769 2.16203 3.77467 0
M  V30 627 C 109.719 1.29324 4.8195 0
M  V30 628 H 106.979 0.374679 8.67591 0
M  V30 629 H 106.71 0.443421 6.90177 0
M  V30 630 H 107.577 -1.75559 7.96891 0
M  V30 631 H 110.232 -1.94529 5.46723 0
M  V30 632 H 110.511 0.608651 7.04676 0
M  V30 633 H 111.503 -0.889672 7.08939 0
M  V30 634 H 109.669 -0.43308 9.04564 0
M  V30 635 H 109.597 1.67758 5.83046 0
M  V30 636 H 109.699 3.23869 3.92281 0
M  V30 637 H 110.087 1.96317 0.467202 0
M  V30 638 H 109.89 3.39693 1.51142 0
M  V30 639 P 111.539 -2.75334 8.47391 0
M  V30 640 O 111.759 -3.84128 9.44797 0
M  V30 641 O 112.329 -1.51947 8.68712 0
M  V30 642 O 111.789 -3.29363 6.99321 0
M  V30 643 C 110.849 -4.24011 6.4274 0
M  V30 644 C 111.579 -5.20775 5.52155 0
M  V30 645 O 111.789 -4.56534 4.22446 0
M  V30 646 C 112.979 -5.62629 5.96531 0
M  V30 647 O 113.369 -6.87667 5.41053 0
M  V30 648 C 113.859 -4.52537 5.39283 0
M  V30 649 C 113.149 -4.20027 4.08623 0
M  V30 650 N 113.199 -2.76189 3.71603 0
M  V30 651 C 113.119 -1.64862 4.52822 0
M  V30 652 N 113.199 -0.512671 3.88633 0
M  V30 653 C 113.339 -0.888083 2.54977 0
M  V30 654 C 113.469 -0.094668 1.38677 0
M  V30 655 O 113.489 1.13053 1.28163 0
M  V30 656 N 113.589 -0.890102 0.232633 0
M  V30 657 C 113.589 -2.26958 0.21772 0
M  V30 658 N 113.719 -2.84626 -0.97925 0
M  V30 659 N 113.459 -3.0178 1.31033 0
M  V30 660 C 113.339 -2.26781 2.43843 0
M  V30 661 H 110.36 -4.797 7.24003 0
M  V30 662 H 110.09 -3.69856 5.84513 0
M  V30 663 H 110.957 -6.10356 5.41441 0
M  V30 664 H 113.612 -4.79061 3.27488 0
M  V30 665 H 113.891 -3.64906 6.05785 0
M  V30 666 H 114.883 -4.8868 5.2125 0
M  V30 667 H 113.049 -5.66726 7.06352 0
M  V30 668 H 113 -1.71169 5.60966 0
M  V30 669 H 113.682 -0.419134 -0.644739 0
M  V30 670 H 113.719 -3.87332 -1.06098 0
M  V30 671 H 113.82 -2.26417 -1.82483 0
M  V30 672 P 114.919 -7.20834 5.23717 0
M  V30 673 O 115.139 -8.66104 5.38572 0
M  V30 674 O 115.709 -6.33544 6.1349 0
M  V30 675 O 115.169 -6.7751 3.72168 0
M  V30 676 C 114.229 -7.20825 2.7076 0
M  V30 677 C 114.959 -7.45864 1.40599 0
M  V30 678 O 115.169 -6.17651 0.734225 0
M  V30 679 C 116.359 -8.05808 1.51899 0
M  V30 680 O 116.749 -8.74358 0.335205 0
M  V30 681 C 117.239 -6.83093 1.70294 0
M  V30 682 C 116.529 -5.79992 0.836974 0
M  V30 683 N 116.579 -4.41864 1.38293 0
M  V30 684 C 116.499 -3.99538 2.69438 0
M  V30 685 N 116.579 -2.69909 2.84277 0
M  V30 686 C 116.719 -2.21719 1.5408 0
M  V30 687 C 116.849 -0.891712 1.06628 0
M  V30 688 O 116.869 0.161298 1.70137 0
M  V30 689 N 116.969 -0.856846 -0.334985 0
M  V30 690 C 116.969 -1.9641 -1.15789 0
M  V30 691 N 117.099 -1.72708 -2.46522 0
M  V30 692 N 116.839 -3.21165 -0.713741 0
M  V30 693 C 116.719 -3.26797 0.639748 0
M  V30 694 H 113.74 -8.13644 3.0377 0
M  V30 695 H 113.47 -6.42788 2.55485 0
M  V30 696 H 114.337 -8.12039 0.792769 0
M  V30 697 H 116.992 -5.80061 -0.166416 0
M  V30 698 H 117.271 -6.51287 2.75604 0
M  V30 699 H 118.263 -7.01734 1.34462 0
M  V30 700 H 116.429 -8.73674 2.38337 0
M  V30 701 H 116.38 -4.68207 3.53221 0
M  V30 702 H 117.062 0.0398818 -0.767965 0
M  V30 703 H 117.099 -2.50995 -3.13503 0
M  V30 704 H 117.2 -0.759148 -2.80716 0
M  V30 705 P 118.299 -8.91 7.63812e-15 0
M  V30 706 O 118.519 -10.1726 -0.733694 0
M  V30 707 O 119.089 -8.73148 1.23936 0
M  V30 708 O 118.549 -7.66872 -0.971405 0
M  V30 709 C 117.609 -7.42309 -2.04641 0
M  V30 710 C 118.339 -6.86059 -3.24661 0
M  V30 711 O 118.549 -5.42847 -3.03646 0
M  V30 712 C 119.739 -7.41196 -3.50753 0
M  V30 713 O 120.129 -7.27073 -4.86816 0
M  V30 714 C 120.619 -6.5273 -2.63741 0
M  V30 715 C 119.909 -5.1842 -2.73198 0
M  V30 716 N 119.959 -4.38762 -1.4784 0
M  V30 717 H 117.12 -8.36803 -2.32493 0
M  V30 718 H 116.85 -6.70197 -1.71129 0
M  V30 719 H 117.717 -7.03551 -4.13168 0
M  V30 720 P 121.679 -7.20834 -5.23717 0
M  V30 721 O 121.899 -7.79853 -6.57286 0
M  V30 722 O 122.469 -7.79239 -4.12957 0
M  V30 723 O 121.929 -5.63315 -5.29344 0
M  V30 724 C 120.989 -4.80255 -6.01876 0
M  V30 725 C 121.719 -3.64202 -6.65911 0
M  V30 726 O 121.929 -2.60694 -5.64732 0
M  V30 727 C 123.119 -3.93473 -7.1943 0
M  V30 728 O 123.509 -3.02071 -8.21205 0
M  V30 729 C 123.999 -3.73047 -5.97036 0
M  V30 730 C 123.289 -2.58828 -5.25741 0
M  V30 731 N 123.339 -2.68068 -3.77503 0
M  V30 732 H 120.5 -5.40332 -6.79951 0
M  V30 733 H 120.23 -4.41613 -5.32378 0
M  V30 734 H 121.097 -3.26331 -7.47797 0
M  V30 735 P 125.059 -2.75334 -8.47391 0
M  V30 736 O 125.279 -2.44571 -9.90142 0
M  V30 737 O 125.849 -3.87688 -7.92115 0
M  V30 738 O 125.309 -1.4459 -7.59357 0
M  V30 739 C 124.369 -0.347608 -7.69215 0
M  V30 740 C 125.099 0.96767 -7.52806 0
M  V30 741 O 125.309 1.21036 -6.1011 0
M  V30 742 C 126.499 1.04544 -8.13308 0
M  V30 743 O 126.889 2.38311 -8.41922 0
M  V30 744 C 127.379 0.491279 -7.02284 0
M  V30 745 C 126.669 0.996264 -5.77469 0
M  V30 746 N 126.719 0.0501916 -4.62973 0
M  V30 747 H 123.88 -0.374722 -8.67691 0
M  V30 748 H 123.61 -0.443485 -6.90277 0
M  V30 749 H 124.477 1.75537 -7.96793 0
M  V30 750 P 128.439 2.75334 -8.47391 0
M  V30 751 O 128.659 3.84128 -9.44797 0
M  V30 752 O 129.229 1.51947 -8.68712 0
M  V30 753 O 128.689 3.29363 -6.99321 0
M  V30 754 C 127.749 4.24011 -6.4274 0
M  V30 755 C 128.479 5.20775 -5.52155 0
M  V30 756 O 128.689 4.56534 -4.22446 0
M  V30 757 C 129.879 5.62629 -5.96531 0
M  V30 758 O 130.269 6.87667 -5.41053 0
M  V30 759 C 130.759 4.52537 -5.39283 0
M  V30 760 C 130.049 4.20027 -4.08623 0
M  V30 761 N 130.099 2.76189 -3.71603 0
M  V30 762 H 127.26 4.797 -7.24003 0
M  V30 763 H 126.99 3.69856 -5.84513 0
M  V30 764 H 127.857 6.10356 -5.41441 0
M  V30 765 P 131.819 7.20834 -5.23717 0
M  V30 766 O 132.039 8.66104 -5.38572 0
M  V30 767 O 132.609 6.33544 -6.1349 0
M  V30 768 O 132.069 6.7751 -3.72168 0
M  V30 769 C 131.129 7.20825 -2.7076 0
M  V30 770 C 131.859 7.45864 -1.40599 0
M  V30 771 O 132.069 6.17651 -0.734225 0
M  V30 772 C 133.259 8.05808 -1.51899 0
M  V30 773 O 133.649 8.74358 -0.335205 0
M  V30 774 C 134.139 6.83093 -1.70294 0
M  V30 775 C 133.429 5.79992 -0.836974 0
M  V30 776 N 133.479 4.41864 -1.38293 0
M  V30 777 H 130.64 8.13644 -3.0377 0
M  V30 778 H 130.37 6.42788 -2.55485 0
M  V30 779 H 131.237 8.12039 -0.792769 0
M  V30 780 P 135.199 8.91 -8.72928e-15 0
M  V30 781 O 135.419 10.1726 0.733694 0
M  V30 782 O 135.989 8.73148 -1.23936 0
M  V30 783 O 135.449 7.66872 0.971405 0
M  V30 784 C 134.509 7.42309 2.04641 0
M  V30 785 C 135.239 6.86059 3.24661 0
M  V30 786 O 135.449 5.42847 3.03646 0
M  V30 787 C 136.639 7.41196 3.50753 0
M  V30 788 O 137.029 7.27073 4.86816 0
M  V30 789 C 137.519 6.5273 2.63741 0
M  V30 790 C 136.809 5.1842 2.73198 0
M  V30 791 N 136.859 4.38762 1.4784 0
M  V30 792 H 134.02 8.36803 2.32493 0
M  V30 793 H 133.75 6.70197 1.71129 0
M  V30 794 H 134.617 7.03551 4.13168 0
M  V30 795 P 138.579 7.20834 5.23717 0
M  V30 796 O 138.799 7.79853 6.57286 0
M  V30 797 O 139.369 7.79239 4.12957 0
M  V30 798 O 138.829 5.63315 5.29344 0
M  V30 799 C 137.889 4.80255 6.01876 0
M  V30 800 C 138.619 3.64202 6.65911 0
M  V30 801 O 138.829 2.60694 5.64732 0
M  V30 802 C 140.019 3.93473 7.1943 0
M  V30 803 O 140.409 3.02071 8.21205 0
M  V30 804 C 140.899 3.73047 5.97036 0
M  V30 805 C 140.189 2.58828 5.25741 0
M  V30 806 N 140.239 2.68068 3.77503 0
M  V30 807 H 137.4 5.40332 6.79951 0
M  V30 808 H 137.13 4.41613 5.32378 0
M  V30 809 H 137.997 3.26331 7.47797 0
M  V30 810 P 141.959 2.75334 8.47391 0
M  V30 811 O 142.179 2.44571 9.90142 0
M  V30 812 O 142.749 3.87688 7.92115 0
M  V30 813 O 142.209 1.4459 7.59357 0
M  V30 814 C 141.269 0.347608 7.69215 0
M  V30 815 C 141.999 -0.96767 7.52806 0
M  V30 816 O 142.209 -1.21036 6.1011 0
M  V30 817 C 143.399 -1.04544 8.13308 0
M  V30 818 O 143.789 -2.38311 8.41922 0
M  V30 819 C 144.279 -0.491279 7.02284 0
M  V30 820 C 143.569 -0.996264 5.77469 0
M  V30 821 N 143.619 -0.0501916 4.62973 0
M  V30 822 H 140.78 0.374722 8.67691 0
M  V30 823 H 140.51 0.443485 6.90277 0
M  V30 824 H 141.377 -1.75537 7.96793 0
M  V30 825 P 145.339 -2.75334 8.47391 0
M  V30 826 O 145.559 -3.84128 9.44797 0
M  V30 827 O 146.129 -1.51947 8.68712 0
M  V30 828 O 145.589 -3.29363 6.99321 0
M  V30 829 C 144.649 -4.24011 6.4274 0
M  V30 830 C 145.379 -5.20775 5.52155 0
M  V30 831 O 145.589 -4.56534 4.22446 0
M  V30 832 C 146.779 -5.62629 5.96531 0
M  V30 833 O 147.169 -6.87667 5.41053 0
M  V30 834 C 147.659 -4.52537 5.39283 0
M  V30 835 C 146.949 -4.20027 4.08623 0
M  V30 836 N 146.999 -2.76189 3.71603 0
M  V30 837 C 146.919 -1.64862 4.52822 0
M  V30 838 N 146.999 -0.512671 3.88633 0
M  V30 839 C 147.139 -0.888083 2.54977 0
M  V30 840 C 147.269 -0.094668 1.38677 0
M  V30 841 O 147.289 1.13053 1.28163 0
M  V30 842 N 147.389 -0.890102 0.232633 0
M  V30 843 C 147.389 -2.26958 0.21772 0
M  V30 844 N 147.519 -2.84626 -0.97925 0
M  V30 845 N 147.259 -3.0178 1.31033 0
M  V30 846 C 147.139 -2.26781 2.43843 0
M  V30 847 H 144.16 -4.797 7.24003 0
M  V30 848 H 143.89 -3.69856 5.84513 0
M  V30 849 H 144.757 -6.10356 5.41441 0
M  V30 850 H 147.412 -4.79061 3.27488 0
M  V30 851 H 147.691 -3.64906 6.05785 0
M  V30 852 H 148.683 -4.8868 5.2125 0
M  V30 853 H 146.849 -5.66726 7.06352 0
M  V30 854 H 146.8 -1.71169 5.60966 0
M  V30 855 H 147.482 -0.419134 -0.644739 0
M  V30 856 H 147.519 -3.87332 -1.06098 0
M  V30 857 H 147.62 -2.26417 -1.82483 0
M  V30 858 P 148.719 -7.20834 5.23717 0
M  V30 859 O 148.939 -8.66104 5.38572 0
M  V30 860 O 149.509 -6.33544 6.1349 0
M  V30 861 O 148.969 -6.7751 3.72168 0
M  V30 862 C 148.029 -7.20825 2.7076 0
M  V30 863 C 148.759 -7.45864 1.40599 0
M  V30 864 O 148.969 -6.17651 0.734225 0
M  V30 865 C 150.159 -8.05808 1.51899 0
M  V30 866 O 150.549 -8.74358 0.335205 0
M  V30 867 C 151.039 -6.83093 1.70294 0
M  V30 868 C 150.329 -5.79992 0.836974 0
M  V30 869 N 150.379 -4.41864 1.38293 0
M  V30 870 H 147.54 -8.13644 3.0377 0
M  V30 871 H 147.27 -6.42788 2.55485 0
M  V30 872 H 148.137 -8.12039 0.792769 0
M  V30 873 P 152.099 -8.91 9.82044e-15 0
M  V30 874 O 152.319 -10.1726 -0.733694 0
M  V30 875 O 152.889 -8.73148 1.23936 0
M  V30 876 O 152.349 -7.66872 -0.971405 0
M  V30 877 C 151.409 -7.42309 -2.04641 0
M  V30 878 C 152.139 -6.86059 -3.24661 0
M  V30 879 O 152.349 -5.42847 -3.03646 0
M  V30 880 C 153.539 -7.41196 -3.50753 0
M  V30 881 O 153.929 -7.27073 -4.86816 0
M  V30 882 C 154.419 -6.5273 -2.63741 0
M  V30 883 C 153.709 -5.1842 -2.73198 0
M  V30 884 N 153.759 -4.38762 -1.4784 0
M  V30 885 H 150.92 -8.36803 -2.32493 0
M  V30 886 H 150.65 -6.70197 -1.71129 0
M  V30 887 H 151.517 -7.03551 -4.13168 0
M  V30 888 P 155.479 -7.20834 -5.23717 0
M  V30 889 O 155.699 -7.79853 -6.57286 0
M  V30 890 O 156.269 -7.79239 -4.12957 0
M  V30 891 O 155.729 -5.63315 -5.29344 0
M  V30 892 C 154.789 -4.80255 -6.01876 0
M  V30 893 C 155.519 -3.64202 -6.65911 0
M  V30 894 O 155.729 -2.60694 -5.64732 0
M  V30 895 C 156.919 -3.93473 -7.1943 0
M  V30 896 O 157.309 -3.02071 -8.21205 0
M  V30 897 C 157.799 -3.73047 -5.97036 0
M  V30 898 C 157.089 -2.58828 -5.25741 0
M  V30 899 N 157.139 -2.68068 -3.77503 0
M  V30 900 H 154.3 -5.40332 -6.79951 0
M  V30 901 H 154.03 -4.41613 -5.32378 0
M  V30 902 H 154.897 -3.26331 -7.47797 0
M  V30 903 P 158.859 -2.75334 -8.47391 0
M  V30 904 O 159.079 -2.44619 -9.90336 0
M  V30 905 O 159.649 -3.87776 -7.92294 0
M  V30 906 O 159.109 -1.4459 -7.59357 0
M  V30 907 C 158.169 -0.347653 -7.69315 0
M  V30 908 C 158.899 0.96767 -7.52806 0
M  V30 909 O 159.109 1.21055 -6.10208 0
M  V30 910 C 160.299 1.04557 -8.13408 0
M  V30 911 O 160.689 2.38311 -8.41922 0
M  V30 912 C 161.179 0.491279 -7.02284 0
M  V30 913 C 160.469 0.996264 -5.77469 0
M  V30 914 N 160.519 0.0501916 -4.62973 0
M  V30 915 C 160.439 -1.31969 -4.65661 0
M  V30 916 N 160.509 -1.86649 -3.48119 0
M  V30 917 C 160.659 -0.792089 -2.62406 0
M  V30 918 C 160.789 -0.705684 -1.2207 0
M  V30 919 N 160.799 -1.76207 -0.413762 0
M  V30 920 N 160.909 0.518981 -0.685754 0
M  V30 921 C 160.899 1.57595 -1.49174 0
M  V30 922 N 160.779 1.62909 -2.80066 0
M  V30 923 C 160.659 0.388195 -3.3073 0
M  V30 924 H 157.681 -0.374765 -8.67791 0
M  V30 925 H 157.409 -0.443613 -6.90476 0
M  V30 926 H 158.277 1.75559 -7.96891 0
M  V30 927 H 160.932 1.94563 -5.46818 0
M  V30 928 H 161.212 -0.608651 -7.04676 0
M  V30 929 H 162.203 0.889796 -7.09039 0
M  V30 930 H 160.369 0.433128 -9.04664 0
M  V30 931 H 160.328 -1.89246 -5.57664 0
M  V30 932 H 160.709 -2.71005 -0.804694 0
M  V30 933 H 160.898 -1.63189 0.603768 0
M  V30 934 H 161.006 2.53475 -0.997614 0
M  V30 935 P 162.239 2.75334 -8.47391 0
M  V30 936 O 162.459 3.84128 -9.44797 0
M  V30 937 O 163.029 1.51947 -8.68712 0
M  V30 938 O 162.489 3.29363 -6.99321 0
M  V30 939 C 161.549 4.24011 -6.4274 0
M  V30 940 C 162.279 5.20775 -5.52155 0
M  V30 941 O 162.489 4.56534 -4.22446 0
M  V30 942 C 163.679 5.62629 -5.96531 0
M  V30 943 O 164.069 6.87667 -5.41053 0
M  V30 944 C 164.559 4.52537 -5.39283 0
M  V30 945 C 163.849 4.20027 -4.08623 0
M  V30 946 N 163.899 2.76189 -3.71603 0
M  V30 947 H 161.06 4.797 -7.24003 0
M  V30 948 H 160.79 3.69856 -5.84513 0
M  V30 949 H 161.657 6.10356 -5.41441 0
M  V30 950 P 165.619 7.20834 -5.23717 0
M  V30 951 O 165.839 8.66104 -5.38572 0
M  V30 952 O 166.409 6.33544 -6.1349 0
M  V30 953 O 165.869 6.7751 -3.72168 0
M  V30 954 C 164.929 7.20825 -2.7076 0
M  V30 955 C 165.659 7.45864 -1.40599 0
M  V30 956 O 165.869 6.17651 -0.734225 0
M  V30 957 C 167.059 8.05808 -1.51899 0
M  V30 958 O 167.449 8.74358 -0.335205 0
M  V30 959 C 167.939 6.83093 -1.70294 0
M  V30 960 C 167.229 5.79992 -0.836974 0
M  V30 961 N 167.279 4.41864 -1.38293 0
M  V30 962 H 164.44 8.13644 -3.0377 0
M  V30 963 H 164.17 6.42788 -2.55485 0
M  V30 964 H 165.037 8.12039 -0.792769 0
M  V30 965 P 168.999 8.91 -1.09116e-14 0
M  V30 966 O 169.219 10.1726 0.733694 0
M  V30 967 O 169.789 8.73148 -1.23936 0
M  V30 968 O 169.249 7.66872 0.971405 0
M  V30 969 C 168.309 7.42309 2.04641 0
M  V30 970 C 169.039 6.86059 3.24661 0
M  V30 971 O 169.249 5.42847 3.03646 0
M  V30 972 C 170.439 7.41196 3.50753 0
M  V30 973 O 170.829 7.27073 4.86816 0
M  V30 974 C 171.319 6.5273 2.63741 0
M  V30 975 C 170.609 5.1842 2.73198 0
M  V30 976 N 170.659 4.38762 1.4784 0
M  V30 977 H 167.82 8.36803 2.32493 0
M  V30 978 H 167.55 6.70197 1.71129 0
M  V30 979 H 168.417 7.03551 4.13168 0
M  V30 980 P 172.379 7.20834 5.23717 0
M  V30 981 O 172.599 7.79853 6.57286 0
M  V30 982 O 173.169 7.79239 4.12957 0
M  V30 983 O 172.629 5.63315 5.29344 0
M  V30 984 C 171.689 4.80255 6.01876 0
M  V30 985 C 172.419 3.64202 6.65911 0
M  V30 986 O 172.629 2.60694 5.64732 0
M  V30 987 C 173.819 3.93473 7.1943 0
M  V30 988 O 174.209 3.02071 8.21205 0
M  V30 989 C 174.699 3.73047 5.97036 0
M  V30 990 C 173.989 2.58828 5.25741 0
M  V30 991 N 174.039 2.68068 3.77503 0
M  V30 992 H 171.2 5.40332 6.79951 0
M  V30 993 H 170.93 4.41613 5.32378 0
M  V30 994 H 171.797 3.26331 7.47797 0
M  V30 995 P 175.759 2.75334 8.47391 0
M  V30 996 O 175.979 2.44571 9.90142 0
M  V30 997 O 176.549 3.87688 7.92115 0
M  V30 998 O 176.009 1.4459 7.59357 0
M  V30 999 C 175.069 0.347608 7.69215 0
M  V30 1000 C 175.799 -0.96767 7.52806 0
M  V30 1001 O 176.009 -1.21036 6.1011 0
M  V30 1002 C 177.199 -1.04544 8.13308 0
M  V30 1003 O 177.589 -2.38311 8.41922 0
M  V30 1004 C 178.079 -0.491279 7.02284 0
M  V30 1005 C 177.369 -0.996264 5.77469 0
M  V30 1006 N 177.419 -0.0501916 4.62973 0
M  V30 1007 H 174.58 0.374722 8.67691 0
M  V30 1008 H 174.31 0.443485 6.90277 0
M  V30 1009 H 175.177 -1.75537 7.96793 0
M  V30 1010 P 179.139 -2.75334 8.47391 0
M  V30 1011 O 179.359 -3.84128 9.44797 0
M  V30 1012 O 179.929 -1.51947 8.68712 0
M  V30 1013 O 179.389 -3.29363 6.99321 0
M  V30 1014 C 178.449 -4.24011 6.4274 0
M  V30 1015 C 179.179 -5.20775 5.52155 0
M  V30 1016 O 179.389 -4.56534 4.22446 0
M  V30 1017 C 180.579 -5.62629 5.96531 0
M  V30 1018 O 180.969 -6.87667 5.41053 0
M  V30 1019 C 181.459 -4.52537 5.39283 0
M  V30 1020 C 180.749 -4.20027 4.08623 0
M  V30 1021 N 180.799 -2.76189 3.71603 0
M  V30 1022 H 177.96 -4.797 7.24003 0
M  V30 1023 H 177.69 -3.69856 5.84513 0
M  V30 1024 H 178.557 -6.10356 5.41441 0
M  V30 1025 P 182.519 -7.20834 5.23717 0
M  V30 1026 O 182.739 -8.66104 5.38572 0
M  V30 1027 O 183.309 -6.33544 6.1349 0
M  V30 1028 O 182.769 -6.7751 3.72168 0
M  V30 1029 C 181.829 -7.20825 2.7076 0
M  V30 1030 C 182.559 -7.45864 1.40599 0
M  V30 1031 O 182.769 -6.17651 0.734225 0
M  V30 1032 C 183.959 -8.05808 1.51899 0
M  V30 1033 O 184.349 -8.74358 0.335205 0
M  V30 1034 C 184.839 -6.83093 1.70294 0
M  V30 1035 C 184.129 -5.79992 0.836974 0
M  V30 1036 N 184.179 -4.41864 1.38293 0
M  V30 1037 H 181.34 -8.13644 3.0377 0
M  V30 1038 H 181.07 -6.42788 2.55485 0
M  V30 1039 H 181.937 -8.12039 0.792769 0
M  V30 1040 P 185.899 -8.91 -8.29613e-14 0
M  V30 1041 O 186.119 -10.1726 -0.733694 0
M  V30 1042 O 186.689 -8.73148 1.23936 0
M  V30 1043 O 186.149 -7.66872 -0.971405 0
M  V30 1044 C 185.209 -7.42309 -2.04641 0
M  V30 1045 C 185.939 -6.86059 -3.24661 0
M  V30 1046 O 186.149 -5.42847 -3.03646 0
M  V30 1047 C 187.339 -7.41196 -3.50753 0
M  V30 1048 O 187.729 -7.27073 -4.86816 0
M  V30 1049 C 188.219 -6.5273 -2.63741 0
M  V30 1050 C 187.509 -5.1842 -2.73198 0
M  V30 1051 N 187.559 -4.38762 -1.4784 0
M  V30 1052 H 184.72 -8.36803 -2.32493 0
M  V30 1053 H 184.45 -6.70197 -1.71129 0
M  V30 1054 H 185.317 -7.03551 -4.13168 0
M  V30 1055 P 189.279 -7.20834 -5.23717 0
M  V30 1056 O 189.499 -7.79853 -6.57286 0
M  V30 1057 O 190.069 -7.79239 -4.12957 0
M  V30 1058 O 189.529 -5.63315 -5.29344 0
M  V30 1059 C 188.589 -4.80255 -6.01876 0
M  V30 1060 C 189.319 -3.64202 -6.65911 0
M  V30 1061 O 189.529 -2.60694 -5.64732 0
M  V30 1062 C 190.719 -3.93473 -7.1943 0
M  V30 1063 O 191.109 -3.02071 -8.21205 0
M  V30 1064 C 191.599 -3.73047 -5.97036 0
M  V30 1065 C 190.889 -2.58828 -5.25741 0
M  V30 1066 N 190.939 -2.68068 -3.77503 0
M  V30 1067 H 188.1 -5.40332 -6.79951 0
M  V30 1068 H 187.83 -4.41613 -5.32378 0
M  V30 1069 H 188.697 -3.26331 -7.47797 0
M  V30 1070 P 192.659 -2.75334 -8.47391 0
M  V30 1071 O 192.879 -2.44619 -9.90336 0
M  V30 1072 O 193.449 -3.87776 -7.92294 0
M  V30 1073 O 192.909 -1.4459 -7.59357 0
M  V30 1074 C 191.969 -0.347653 -7.69315 0
M  V30 1075 C 192.699 0.96767 -7.52806 0
M  V30 1076 O 192.909 1.21055 -6.10208 0
M  V30 1077 C 194.099 1.04557 -8.13408 0
M  V30 1078 O 194.489 2.38311 -8.41922 0
M  V30 1079 C 194.979 0.491279 -7.02284 0
M  V30 1080 C 194.269 0.996264 -5.77469 0
M  V30 1081 N 194.319 0.0501916 -4.62973 0
M  V30 1082 H 191.481 -0.374765 -8.67791 0
M  V30 1083 H 191.209 -0.443613 -6.90476 0
M  V30 1084 H 192.077 1.75559 -7.96891 0
M  V30 1085 H 194.732 1.94563 -5.46818 0
M  V30 1086 H 195.012 -0.608651 -7.04676 0
M  V30 1087 H 196.003 0.889796 -7.09039 0
M  V30 1088 H 194.169 0.433128 -9.04664 0
M  V30 1089 P 196.039 2.75334 -8.47391 0
M  V30 1090 O 196.259 3.84166 -9.4489 0
M  V30 1091 O 196.829 1.51964 -8.6881 0
M  V30 1092 O 196.289 3.29363 -6.99321 0
M  V30 1093 C 195.349 4.23956 -6.42656 0
M  V30 1094 C 196.079 5.20775 -5.52155 0
M  V30 1095 O 196.289 4.56534 -4.22446 0
M  V30 1096 C 197.479 5.62629 -5.96531 0
M  V30 1097 O 197.869 6.87667 -5.41053 0
M  V30 1098 C 198.359 4.52537 -5.39283 0
M  V30 1099 C 197.649 4.20027 -4.08623 0
M  V30 1100 N 197.699 2.7613 -3.71522 0
M  V30 1101 C 197.849 2.45612 -2.37989 0
M  V30 1102 O 197.939 3.30919 -1.51621 0
M  V30 1103 N 197.889 1.10684 -2.08435 0
M  V30 1104 C 197.799 0.0690084 -2.9792 0
M  V30 1105 C 197.649 0.481522 -4.35345 0
M  V30 1106 C 197.599 1.78906 -4.67968 0
M  V30 1107 H 194.859 4.797 -7.24003 0
M  V30 1108 H 194.59 3.69802 -5.84429 0
M  V30 1109 H 195.457 6.10356 -5.41441 0
M  V30 1110 H 198.112 4.78651 -3.27911 0
M  V30 1111 H 198.391 3.64957 -6.05871 0
M  V30 1112 H 199.383 4.8868 -5.2125 0
M  V30 1113 H 197.549 5.66726 -7.06352 0
M  V30 1114 H 197.478 2.07737 -5.72367 0
M  V30 1115 P 199.419 7.20834 -5.23717 0
M  V30 1116 O 199.639 8.66104 -5.38572 0
M  V30 1117 O 200.209 6.33544 -6.1349 0
M  V30 1118 O 199.669 6.7751 -3.72168 0
M  V30 1119 C 198.729 7.20825 -2.7076 0
M  V30 1120 C 199.459 7.45864 -1.40599 0
M  V30 1121 O 199.669 6.17651 -0.734225 0
M  V30 1122 C 200.859 8.05808 -1.51899 0
M  V30 1123 O 201.249 8.74358 -0.335205 0
M  V30 1124 C 201.739 6.83093 -1.70294 0
M  V30 1125 C 201.029 5.79992 -0.836974 0
M  V30 1126 N 201.079 4.41864 -1.38293 0
M  V30 1127 H 198.24 8.13644 -3.0377 0
M  V30 1128 H 197.97 6.42788 -2.55485 0
M  V30 1129 H 198.837 8.12039 -0.792769 0
M  V30 1130 P 202.799 8.91 2.40144e-13 0
M  V30 1131 O 203.019 10.1726 0.733694 0
M  V30 1132 O 203.589 8.73148 -1.23936 0
M  V30 1133 O 203.049 7.66872 0.971405 0
M  V30 1134 C 202.109 7.42309 2.04641 0
M  V30 1135 C 202.839 6.86059 3.24661 0
M  V30 1136 O 203.049 5.42847 3.03646 0
M  V30 1137 C 204.239 7.41196 3.50753 0
M  V30 1138 O 204.629 7.27073 4.86816 0
M  V30 1139 C 205.119 6.5273 2.63741 0
M  V30 1140 C 204.409 5.1842 2.73198 0
M  V30 1141 N 204.459 4.38762 1.4784 0
M  V30 1142 C 204.379 4.81605 0.168631 0
M  V30 1143 N 204.459 3.85454 -0.713363 0
M  V30 1144 C 204.599 2.6994 0.0566958 0
M  V30 1145 C 204.729 1.34815 -0.338502 0
M  V30 1146 N 204.849 0.496304 0.77465 0
M  V30 1147 C 204.849 0.908403 2.09122 0
M  V30 1148 N 204.979 -0.0517805 3.00955 0
M  V30 1149 N 204.719 2.17875 2.46519 0
M  V30 1150 C 204.599 3.01988 1.4033 0
M  V30 1151 H 201.62 8.36803 2.32493 0
M  V30 1152 H 201.35 6.70197 1.71129 0
M  V30 1153 H 202.217 7.03551 4.13168 0
M  V30 1154 P 206.179 7.20834 5.23717 0
M  V30 1155 O 206.399 7.79853 6.57286 0
M  V30 1156 O 206.969 7.79239 4.12957 0
M  V30 1157 O 206.429 5.63315 5.29344 0
M  V30 1158 C 205.489 4.80255 6.01876 0
M  V30 1159 C 206.219 3.64202 6.65911 0
M  V30 1160 O 206.429 2.60694 5.64732 0
M  V30 1161 C 207.619 3.93473 7.1943 0
M  V30 1162 O 208.009 3.02071 8.21205 0
M  V30 1163 C 208.499 3.73047 5.97036 0
M  V30 1164 C 207.789 2.58828 5.25741 0
M  V30 1165 N 207.839 2.68068 3.77503 0
M  V30 1166 H 205 5.40332 6.79951 0
M  V30 1167 H 204.73 4.41613 5.32378 0
M  V30 1168 H 205.597 3.26331 7.47797 0
M  V30 1169 P 209.559 2.75334 8.47391 0
M  V30 1170 O 209.779 2.44571 9.90142 0
M  V30 1171 O 210.349 3.87688 7.92115 0
M  V30 1172 O 209.809 1.4459 7.59357 0
M  V30 1173 C 208.869 0.347608 7.69215 0
M  V30 1174 C 209.599 -0.96767 7.52806 0
M  V30 1175 O 209.809 -1.21036 6.1011 0
M  V30 1176 C 210.999 -1.04544 8.13308 0
M  V30 1177 O 211.389 -2.38311 8.41922 0
M  V30 1178 C 211.879 -0.491279 7.02284 0
M  V30 1179 C 211.169 -0.996264 5.77469 0
M  V30 1180 N 211.219 -0.0501916 4.62973 0
M  V30 1181 H 208.38 0.374722 8.67691 0
M  V30 1182 H 208.11 0.443485 6.90277 0
M  V30 1183 H 208.977 -1.75537 7.96793 0
M  V30 1184 P 212.939 -2.75334 8.47391 0
M  V30 1185 O 213.159 -3.84128 9.44797 0
M  V30 1186 O 213.729 -1.51947 8.68712 0
M  V30 1187 O 213.189 -3.29363 6.99321 0
M  V30 1188 C 212.249 -4.24011 6.4274 0
M  V30 1189 C 212.979 -5.20775 5.52155 0
M  V30 1190 O 213.189 -4.56534 4.22446 0
M  V30 1191 C 214.379 -5.62629 5.96531 0
M  V30 1192 O 214.769 -6.87667 5.41053 0
M  V30 1193 C 215.259 -4.52537 5.39283 0
M  V30 1194 C 214.549 -4.20027 4.08623 0
M  V30 1195 N 214.599 -2.76189 3.71603 0
M  V30 1196 H 211.76 -4.797 7.24003 0
M  V30 1197 H 211.49 -3.69856 5.84513 0
M  V30 1198 H 212.357 -6.10356 5.41441 0
M  V30 1199 P 216.319 -7.20834 5.23717 0
M  V30 1200 O 216.539 -8.66104 5.38572 0
M  V30 1201 O 217.109 -6.33544 6.1349 0
M  V30 1202 O 216.569 -6.7751 3.72168 0
M  V30 1203 C 215.629 -7.20825 2.7076 0
M  V30 1204 C 216.359 -7.45864 1.40599 0
M  V30 1205 O 216.569 -6.17651 0.734225 0
M  V30 1206 C 217.759 -8.05808 1.51899 0
M  V30 1207 O 218.149 -8.74358 0.335205 0
M  V30 1208 C 218.639 -6.83093 1.70294 0
M  V30 1209 C 217.929 -5.79992 0.836974 0
M  V30 1210 N 217.979 -4.41864 1.38293 0
M  V30 1211 H 215.14 -8.13644 3.0377 0
M  V30 1212 H 214.87 -6.42788 2.55485 0
M  V30 1213 H 215.737 -8.12039 0.792769 0
M  V30 1214 P 219.699 -8.91 -3.97326e-13 0
M  V30 1215 O 219.919 -10.1726 -0.733694 0
M  V30 1216 O 220.489 -8.73148 1.23936 0
M  V30 1217 O 219.949 -7.66872 -0.971405 0
M  V30 1218 C 219.009 -7.42309 -2.04641 0
M  V30 1219 C 219.739 -6.86059 -3.24661 0
M  V30 1220 O 219.949 -5.42847 -3.03646 0
M  V30 1221 C 221.139 -7.41196 -3.50753 0
M  V30 1222 O 221.529 -7.27073 -4.86816 0
M  V30 1223 C 222.019 -6.5273 -2.63741 0
M  V30 1224 C 221.309 -5.1842 -2.73198 0
M  V30 1225 N 221.359 -4.38762 -1.4784 0
M  V30 1226 H 218.52 -8.36803 -2.32493 0
M  V30 1227 H 218.25 -6.70197 -1.71129 0
M  V30 1228 H 219.117 -7.03551 -4.13168 0
M  V30 1229 P 223.079 -7.20834 -5.23717 0
M  V30 1230 O 223.299 -7.80006 -6.57415 0
M  V30 1231 O 223.869 -7.79416 -4.13051 0
M  V30 1232 O 223.329 -5.63315 -5.29344 0
M  V30 1233 C 222.389 -4.80318 -6.01954 0
M  V30 1234 C 223.119 -3.64202 -6.65911 0
M  V30 1235 O 223.329 -2.60736 -5.64823 0
M  V30 1236 C 224.519 -3.93521 -7.19518 0
M  V30 1237 O 224.909 -3.02071 -8.21205 0
M  V30 1238 C 225.399 -3.73047 -5.97036 0
M  V30 1239 C 224.689 -2.58828 -5.25741 0
M  V30 1240 N 224.739 -2.68068 -3.77503 0
M  V30 1241 H 221.901 -5.40394 -6.8003 0
M  V30 1242 H 221.629 -4.41741 -5.32532 0
M  V30 1243 H 222.497 -3.26371 -7.47889 0
M  V30 1244 H 225.152 -1.64007 -5.56746 0
M  V30 1245 H 225.432 -4.63439 -5.3432 0
M  V30 1246 H 226.423 -3.44776 -6.25925 0
M  V30 1247 H 224.589 -4.96707 -7.57347 0
M  V30 1248 P 226.459 -2.75334 -8.47391 0
M  V30 1249 O 226.679 -2.44571 -9.90142 0
M  V30 1250 O 227.249 -3.87688 -7.92115 0
M  V30 1251 O 226.709 -1.4459 -7.59357 0
M  V30 1252 C 225.769 -0.347608 -7.69215 0
M  V30 1253 C 226.499 0.96767 -7.52806 0
M  V30 1254 O 226.709 1.21036 -6.1011 0
M  V30 1255 C 227.899 1.04544 -8.13308 0
M  V30 1256 O 228.289 2.38311 -8.41922 0
M  V30 1257 C 228.779 0.491279 -7.02284 0
M  V30 1258 C 228.069 0.996264 -5.77469 0
M  V30 1259 N 228.119 0.0501916 -4.62973 0
M  V30 1260 H 225.28 -0.374722 -8.67691 0
M  V30 1261 H 225.01 -0.443485 -6.90277 0
M  V30 1262 H 225.877 1.75537 -7.96793 0
M  V30 1263 P 229.839 2.75334 -8.47391 0
M  V30 1264 O 230.059 3.84128 -9.44797 0
M  V30 1265 O 230.629 1.51947 -8.68712 0
M  V30 1266 O 230.089 3.29363 -6.99321 0
M  V30 1267 C 229.149 4.24011 -6.4274 0
M  V30 1268 C 229.879 5.20775 -5.52155 0
M  V30 1269 O 230.089 4.56534 -4.22446 0
M  V30 1270 C 231.279 5.62629 -5.96531 0
M  V30 1271 O 231.669 6.87667 -5.41053 0
M  V30 1272 C 232.159 4.52537 -5.39283 0
M  V30 1273 C 231.449 4.20027 -4.08623 0
M  V30 1274 N 231.499 2.76189 -3.71603 0
M  V30 1275 H 228.66 4.797 -7.24003 0
M  V30 1276 H 228.39 3.69856 -5.84513 0
M  V30 1277 H 229.257 6.10356 -5.41441 0
M  V30 1278 P 233.219 7.20834 -5.23717 0
M  V30 1279 O 233.439 8.66104 -5.38572 0
M  V30 1280 O 234.009 6.33544 -6.1349 0
M  V30 1281 O 233.469 6.7751 -3.72168 0
M  V30 1282 C 232.529 7.20825 -2.7076 0
M  V30 1283 C 233.259 7.45864 -1.40599 0
M  V30 1284 O 233.469 6.17651 -0.734225 0
M  V30 1285 C 234.659 8.05808 -1.51899 0
M  V30 1286 O 235.049 8.74358 -0.335205 0
M  V30 1287 C 235.539 6.83093 -1.70294 0
M  V30 1288 C 234.829 5.79992 -0.836974 0
M  V30 1289 N 234.879 4.41864 -1.38293 0
M  V30 1290 H 232.04 8.13644 -3.0377 0
M  V30 1291 H 231.77 6.42788 -2.55485 0
M  V30 1292 H 232.637 8.12039 -0.792769 0
M  V30 1293 P 236.599 8.91 5.54508e-13 0
M  V30 1294 O 236.819 10.1726 0.733694 0
M  V30 1295 O 237.389 8.73148 -1.23936 0
M  V30 1296 O 236.849 7.66872 0.971405 0
M  V30 1297 C 235.909 7.42309 2.04641 0
M  V30 1298 C 236.639 6.86059 3.24661 0
M  V30 1299 O 236.849 5.42847 3.03646 0
M  V30 1300 C 238.039 7.41196 3.50753 0
M  V30 1301 O 238.429 7.27073 4.86816 0
M  V30 1302 C 238.919 6.5273 2.63741 0
M  V30 1303 C 238.209 5.1842 2.73198 0
M  V30 1304 N 238.259 4.38762 1.4784 0
M  V30 1305 H 235.42 8.36803 2.32493 0
M  V30 1306 H 235.15 6.70197 1.71129 0
M  V30 1307 H 236.017 7.03551 4.13168 0
M  V30 1308 P 239.979 7.20834 5.23717 0
M  V30 1309 O 240.199 7.79853 6.57286 0
M  V30 1310 O 240.769 7.79239 4.12957 0
M  V30 1311 O 240.229 5.63315 5.29344 0
M  V30 1312 C 239.289 4.80255 6.01876 0
M  V30 1313 C 240.019 3.64202 6.65911 0
M  V30 1314 O 240.229 2.60694 5.64732 0
M  V30 1315 C 241.419 3.93473 7.1943 0
M  V30 1316 O 241.809 3.02071 8.21205 0
M  V30 1317 C 242.299 3.73047 5.97036 0
M  V30 1318 C 241.589 2.58828 5.25741 0
M  V30 1319 N 241.639 2.68068 3.77503 0
M  V30 1320 H 238.8 5.40332 6.79951 0
M  V30 1321 H 238.53 4.41613 5.32378 0
M  V30 1322 H 239.397 3.26331 7.47797 0
M  V30 1323 P 243.359 2.75334 8.47391 0
M  V30 1324 O 243.579 2.44571 9.90142 0
M  V30 1325 O 244.149 3.87688 7.92115 0
M  V30 1326 O 243.609 1.4459 7.59357 0
M  V30 1327 C 242.669 0.347608 7.69215 0
M  V30 1328 C 243.399 -0.96767 7.52806 0
M  V30 1329 O 243.609 -1.21036 6.1011 0
M  V30 1330 C 244.799 -1.04544 8.13308 0
M  V30 1331 O 245.189 -2.38311 8.41922 0
M  V30 1332 C 245.679 -0.491279 7.02284 0
M  V30 1333 C 244.969 -0.996264 5.77469 0
M  V30 1334 N 245.019 -0.0501916 4.62973 0
M  V30 1335 H 242.18 0.374722 8.67691 0
M  V30 1336 H 241.91 0.443485 6.90277 0
M  V30 1337 H 242.777 -1.75537 7.96793 0
M  V30 1338 P 246.739 -2.75334 8.47391 0
M  V30 1339 O 246.959 -3.84128 9.44797 0
M  V30 1340 O 247.529 -1.51947 8.68712 0
M  V30 1341 O 246.989 -3.29363 6.99321 0
M  V30 1342 C 246.049 -4.24011 6.4274 0
M  V30 1343 C 246.779 -5.20775 5.52155 0
M  V30 1344 O 246.989 -4.56534 4.22446 0
M  V30 1345 C 248.179 -5.62629 5.96531 0
M  V30 1346 O 248.569 -6.87667 5.41053 0
M  V30 1347 C 249.059 -4.52537 5.39283 0
M  V30 1348 C 248.349 -4.20027 4.08623 0
M  V30 1349 N 248.399 -2.76189 3.71603 0
M  V30 1350 H 245.56 -4.797 7.24003 0
M  V30 1351 H 245.29 -3.69856 5.84513 0
M  V30 1352 H 246.157 -6.10356 5.41441 0
M  V30 1353 P 250.119 -7.20834 5.23717 0
M  V30 1354 O 250.339 -8.66104 5.38572 0
M  V30 1355 O 250.909 -6.33544 6.1349 0
M  V30 1356 O 250.369 -6.7751 3.72168 0
M  V30 1357 C 249.429 -7.20825 2.7076 0
M  V30 1358 C 250.159 -7.45864 1.40599 0
M  V30 1359 O 250.369 -6.17651 0.734225 0
M  V30 1360 C 251.559 -8.05808 1.51899 0
M  V30 1361 O 251.949 -8.74358 0.335205 0
M  V30 1362 C 252.439 -6.83093 1.70294 0
M  V30 1363 C 251.729 -5.79992 0.836974 0
M  V30 1364 N 251.779 -4.41864 1.38293 0
M  V30 1365 H 248.94 -8.13644 3.0377 0
M  V30 1366 H 248.67 -6.42788 2.55485 0
M  V30 1367 H 249.537 -8.12039 0.792769 0
M  V30 1368 P 253.498 -8.91 -7.1169e-13 0
M  V30 1369 O 253.718 -10.1726 -0.733694 0
M  V30 1370 O 254.288 -8.73148 1.23936 0
M  V30 1371 O 253.748 -7.66872 -0.971405 0
M  V30 1372 C 252.808 -7.42309 -2.04641 0
M  V30 1373 C 253.538 -6.86059 -3.24661 0
M  V30 1374 O 253.748 -5.42847 -3.03646 0
M  V30 1375 C 254.938 -7.41196 -3.50753 0
M  V30 1376 O 255.328 -7.27073 -4.86816 0
M  V30 1377 C 255.818 -6.5273 -2.63741 0
M  V30 1378 C 255.108 -5.1842 -2.73198 0
M  V30 1379 N 255.158 -4.38762 -1.4784 0
M  V30 1380 H 252.319 -8.36803 -2.32493 0
M  V30 1381 H 252.049 -6.70197 -1.71129 0
M  V30 1382 H 252.916 -7.03551 -4.13168 0
M  V30 1383 P 256.878 -7.20834 -5.23717 0
M  V30 1384 O 257.098 -7.7993 -6.57351 0
M  V30 1385 O 257.668 -7.79328 -4.13004 0
M  V30 1386 O 257.128 -5.63315 -5.29344 0
M  V30 1387 C 256.188 -4.80193 -6.01798 0
M  V30 1388 C 256.918 -3.64202 -6.65911 0
M  V30 1389 O 257.128 -2.60694 -5.64732 0
M  V30 1390 C 258.318 -3.93473 -7.1943 0
M  V30 1391 O 258.708 -3.02071 -8.21205 0
M  V30 1392 C 259.198 -3.73047 -5.97036 0
M  V30 1393 C 258.488 -2.58828 -5.25741 0
M  V30 1394 N 258.538 -2.6801 -3.77422 0
M  V30 1395 C 258.688 -1.50443 -3.07133 0
M  V30 1396 O 258.778 -0.419406 -3.61576 0
M  V30 1397 N 258.728 -1.6403 -1.69677 0
M  V30 1398 C 258.638 -2.81206 -0.986255 0
M  V30 1399 C 258.488 -3.99158 -1.80325 0
M  V30 1400 C 258.438 -3.89779 -3.1476 0
M  V30 1401 H 255.698 -5.40332 -6.79951 0
M  V30 1402 H 255.429 -4.41549 -5.32301 0
M  V30 1403 H 256.296 -3.26331 -7.47797 0
M  V30 1404 H 258.951 -1.6395 -5.56554 0
M  V30 1405 H 259.23 -4.63439 -5.3432 0
M  V30 1406 H 260.222 -3.44728 -6.25838 0
M  V30 1407 H 258.388 -4.96652 -7.57263 0
M  V30 1408 H 258.317 -4.80159 -3.74441 0
M  V30 1409 P 260.258 -2.75334 -8.47391 0
M  V30 1410 O 260.478 -2.44571 -9.90142 0
M  V30 1411 O 261.048 -3.87688 -7.92115 0
M  V30 1412 O 260.508 -1.4459 -7.59357 0
M  V30 1413 C 259.568 -0.347608 -7.69215 0
M  V30 1414 C 260.298 0.96767 -7.52806 0
M  V30 1415 O 260.508 1.21036 -6.1011 0
M  V30 1416 C 261.698 1.04544 -8.13308 0
M  V30 1417 O 262.088 2.38311 -8.41922 0
M  V30 1418 C 262.578 0.491279 -7.02284 0
M  V30 1419 C 261.868 0.996264 -5.77469 0
M  V30 1420 N 261.918 0.0501916 -4.62973 0
M  V30 1421 H 259.079 -0.374722 -8.67691 0
M  V30 1422 H 258.809 -0.443485 -6.90277 0
M  V30 1423 H 259.676 1.75537 -7.96793 0
M  V30 1424 P 263.638 2.75334 -8.47391 0
M  V30 1425 O 263.858 3.84128 -9.44797 0
M  V30 1426 O 264.428 1.51947 -8.68712 0
M  V30 1427 O 263.888 3.29363 -6.99321 0
M  V30 1428 C 262.948 4.24011 -6.4274 0
M  V30 1429 C 263.678 5.20775 -5.52155 0
M  V30 1430 O 263.888 4.56534 -4.22446 0
M  V30 1431 C 265.078 5.62629 -5.96531 0
M  V30 1432 O 265.468 6.87667 -5.41053 0
M  V30 1433 C 265.958 4.52537 -5.39283 0
M  V30 1434 C 265.248 4.20027 -4.08623 0
M  V30 1435 N 265.298 2.76189 -3.71603 0
M  V30 1436 H 262.459 4.797 -7.24003 0
M  V30 1437 H 262.189 3.69856 -5.84513 0
M  V30 1438 H 263.056 6.10356 -5.41441 0
M  V30 1439 P 267.018 7.20834 -5.23717 0
M  V30 1440 O 267.238 8.66104 -5.38572 0
M  V30 1441 O 267.808 6.33544 -6.1349 0
M  V30 1442 O 267.268 6.7751 -3.72168 0
M  V30 1443 C 266.328 7.20825 -2.7076 0
M  V30 1444 C 267.058 7.45864 -1.40599 0
M  V30 1445 O 267.268 6.17651 -0.734225 0
M  V30 1446 C 268.458 8.05808 -1.51899 0
M  V30 1447 O 268.848 8.74358 -0.335205 0
M  V30 1448 C 269.338 6.83093 -1.70294 0
M  V30 1449 C 268.628 5.79992 -0.836974 0
M  V30 1450 N 268.678 4.41864 -1.38293 0
M  V30 1451 H 265.839 8.13644 -3.0377 0
M  V30 1452 H 265.569 6.42788 -2.55485 0
M  V30 1453 H 266.436 8.12039 -0.792769 0
M  V30 1454 P 270.398 8.91 8.68872e-13 0
M  V30 1455 O 270.618 10.1726 0.733694 0
M  V30 1456 O 271.188 8.73148 -1.23936 0
M  V30 1457 O 270.648 7.66872 0.971405 0
M  V30 1458 C 269.708 7.42309 2.04641 0
M  V30 1459 C 270.438 6.86059 3.24661 0
M  V30 1460 O 270.648 5.42847 3.03646 0
M  V30 1461 C 271.838 7.41196 3.50753 0
M  V30 1462 O 272.228 7.27073 4.86816 0
M  V30 1463 C 272.718 6.5273 2.63741 0
M  V30 1464 C 272.008 5.1842 2.73198 0
M  V30 1465 N 272.058 4.38762 1.4784 0
M  V30 1466 H 269.219 8.36803 2.32493 0
M  V30 1467 H 268.949 6.70197 1.71129 0
M  V30 1468 H 269.816 7.03551 4.13168 0
M  V30 1469 P 273.778 7.20834 5.23717 0
M  V30 1470 O 273.998 7.7993 6.57351 0
M  V30 1471 O 274.568 7.79328 4.13004 0
M  V30 1472 O 274.028 5.63315 5.29344 0
M  V30 1473 C 273.088 4.80193 6.01798 0
M  V30 1474 C 273.818 3.64202 6.65911 0
M  V30 1475 O 274.028 2.60694 5.64732 0
M  V30 1476 C 275.218 3.93473 7.1943 0
M  V30 1477 O 275.608 3.02071 8.21205 0
M  V30 1478 C 276.098 3.73047 5.97036 0
M  V30 1479 C 275.388 2.58828 5.25741 0
M  V30 1480 N 275.438 2.6801 3.77422 0
M  V30 1481 C 275.588 1.50443 3.07133 0
M  V30 1482 O 275.678 0.419406 3.61576 0
M  V30 1483 N 275.628 1.6403 1.69677 0
M  V30 1484 C 275.538 2.81206 0.986255 0
M  V30 1485 O 275.588 2.80892 -0.249754 0
M  V30 1486 C 275.388 3.99158 1.80325 0
M  V30 1487 C 275.278 5.29309 1.06921 0
M  V30 1488 C 275.338 3.89779 3.1476 0
M  V30 1489 H 272.598 5.40332 6.79951 0
M  V30 1490 H 272.329 4.41549 5.32301 0
M  V30 1491 H 273.196 3.26331 7.47797 0
M  V30 1492 H 275.851 1.6395 5.56554 0
M  V30 1493 H 276.13 4.63439 5.3432 0
M  V30 1494 H 277.122 3.44728 6.25838 0
M  V30 1495 H 275.288 4.96652 7.57263 0
M  V30 1496 H 275.217 4.80159 3.74441 0
M  V30 1497 H 276.247 5.81459 1.09608 0
M  V30 1498 H 274.51 5.9187 1.54487 0
M  V30 1499 H 274.998 5.10095 0.0220288 0
M  V30 1500 H 275.734 0.798962 1.16664 0
M  V30 1501 P 277.158 2.75334 8.47391 0
M  V30 1502 O 277.378 2.44571 9.90142 0
M  V30 1503 O 277.948 3.87688 7.92115 0
M  V30 1504 O 277.408 1.4459 7.59357 0
M  V30 1505 C 276.468 0.347608 7.69215 0
M  V30 1506 C 277.198 -0.96767 7.52806 0
M  V30 1507 O 277.408 -1.21036 6.1011 0
M  V30 1508 C 278.598 -1.04544 8.13308 0
M  V30 1509 O 278.988 -2.38311 8.41922 0
M  V30 1510 C 279.478 -0.491279 7.02284 0
M  V30 1511 C 278.768 -0.996264 5.77469 0
M  V30 1512 N 278.818 -0.0501916 4.62973 0
M  V30 1513 H 275.979 0.374722 8.67691 0
M  V30 1514 H 275.709 0.443485 6.90277 0
M  V30 1515 H 276.576 -1.75537 7.96793 0
M  V30 1516 P 280.538 -2.75334 8.47391 0
M  V30 1517 O 280.758 -3.84128 9.44797 0
M  V30 1518 O 281.328 -1.51947 8.68712 0
M  V30 1519 O 280.788 -3.29363 6.99321 0
M  V30 1520 C 279.848 -4.24011 6.4274 0
M  V30 1521 C 280.578 -5.20775 5.52155 0
M  V30 1522 O 280.788 -4.56534 4.22446 0
M  V30 1523 C 281.978 -5.62629 5.96531 0
M  V30 1524 O 282.368 -6.87667 5.41053 0
M  V30 1525 C 282.858 -4.52537 5.39283 0
M  V30 1526 C 282.148 -4.20027 4.08623 0
M  V30 1527 N 282.198 -2.76189 3.71603 0
M  V30 1528 H 279.359 -4.797 7.24003 0
M  V30 1529 H 279.089 -3.69856 5.84513 0
M  V30 1530 H 279.956 -6.10356 5.41441 0
M  V30 1531 P 283.918 -7.20834 5.23717 0
M  V30 1532 O 284.138 -8.66104 5.38572 0
M  V30 1533 O 284.708 -6.33544 6.1349 0
M  V30 1534 O 284.168 -6.7751 3.72168 0
M  V30 1535 C 283.228 -7.20825 2.7076 0
M  V30 1536 C 283.958 -7.45864 1.40599 0
M  V30 1537 O 284.168 -6.17651 0.734225 0
M  V30 1538 C 285.358 -8.05808 1.51899 0
M  V30 1539 O 285.748 -8.74358 0.335205 0
M  V30 1540 C 286.238 -6.83093 1.70294 0
M  V30 1541 C 285.528 -5.79992 0.836974 0
M  V30 1542 N 285.578 -4.41864 1.38293 0
M  V30 1543 H 282.739 -8.13644 3.0377 0
M  V30 1544 H 282.469 -6.42788 2.55485 0
M  V30 1545 H 283.336 -8.12039 0.792769 0
M  V30 1546 P 287.298 -8.91 -1.02605e-12 0
M  V30 1547 O 287.518 -10.1726 -0.733694 0
M  V30 1548 O 288.088 -8.73148 1.23936 0
M  V30 1549 O 287.548 -7.66872 -0.971405 0
M  V30 1550 C 286.608 -7.42309 -2.04641 0
M  V30 1551 C 287.338 -6.86059 -3.24661 0
M  V30 1552 O 287.548 -5.42847 -3.03646 0
M  V30 1553 C 288.738 -7.41196 -3.50753 0
M  V30 1554 O 289.128 -7.27073 -4.86816 0
M  V30 1555 C 289.618 -6.5273 -2.63741 0
M  V30 1556 C 288.908 -5.1842 -2.73198 0
M  V30 1557 N 288.958 -4.38762 -1.4784 0
M  V30 1558 H 286.119 -8.36803 -2.32493 0
M  V30 1559 H 285.849 -6.70197 -1.71129 0
M  V30 1560 H 286.716 -7.03551 -4.13168 0
M  V30 1561 P 290.678 -7.20834 -5.23717 0
M  V30 1562 O 290.898 -7.79853 -6.57286 0
M  V30 1563 O 291.468 -7.79239 -4.12957 0
M  V30 1564 O 290.928 -5.63315 -5.29344 0
M  V30 1565 C 289.988 -4.80255 -6.01876 0
M  V30 1566 C 290.718 -3.64202 -6.65911 0
M  V30 1567 O 290.928 -2.60694 -5.64732 0
M  V30 1568 C 292.118 -3.93473 -7.1943 0
M  V30 1569 O 292.508 -3.02071 -8.21205 0
M  V30 1570 C 292.998 -3.73047 -5.97036 0
M  V30 1571 C 292.288 -2.58828 -5.25741 0
M  V30 1572 N 292.338 -2.68068 -3.77503 0
M  V30 1573 H 289.499 -5.40332 -6.79951 0
M  V30 1574 H 289.229 -4.41613 -5.32378 0
M  V30 1575 H 290.096 -3.26331 -7.47797 0
M  V30 1576 P 294.058 -2.75334 -8.47391 0
M  V30 1577 O 294.278 -2.44571 -9.90142 0
M  V30 1578 O 294.848 -3.87688 -7.92115 0
M  V30 1579 O 294.308 -1.4459 -7.59357 0
M  V30 1580 C 293.368 -0.347608 -7.69215 0
M  V30 1581 C 294.098 0.96767 -7.52806 0
M  V30 1582 O 294.308 1.21036 -6.1011 0
M  V30 1583 C 295.498 1.04544 -8.13308 0
M  V30 1584 O 295.888 2.38311 -8.41922 0
M  V30 1585 C 296.378 0.491279 -7.02284 0
M  V30 1586 C 295.668 0.996264 -5.77469 0
M  V30 1587 N 295.718 0.0501916 -4.62973 0
M  V30 1588 H 292.879 -0.374722 -8.67691 0
M  V30 1589 H 292.609 -0.443485 -6.90277 0
M  V30 1590 H 293.476 1.75537 -7.96793 0
M  V30 1591 P 297.438 2.75334 -8.47391 0
M  V30 1592 O 297.658 3.84128 -9.44797 0
M  V30 1593 O 298.228 1.51947 -8.68712 0
M  V30 1594 O 297.688 3.29363 -6.99321 0
M  V30 1595 C 296.748 4.24011 -6.4274 0
M  V30 1596 C 297.478 5.20775 -5.52155 0
M  V30 1597 O 297.688 4.56534 -4.22446 0
M  V30 1598 C 298.878 5.62629 -5.96531 0
M  V30 1599 O 299.268 6.87667 -5.41053 0
M  V30 1600 C 299.758 4.52537 -5.39283 0
M  V30 1601 C 299.048 4.20027 -4.08623 0
M  V30 1602 N 299.098 2.76189 -3.71603 0
M  V30 1603 H 296.259 4.797 -7.24003 0
M  V30 1604 H 295.989 3.69856 -5.84513 0
M  V30 1605 H 296.856 6.10356 -5.41441 0
M  V30 1606 P 300.818 7.20834 -5.23717 0
M  V30 1607 O 301.038 8.66104 -5.38572 0
M  V30 1608 O 301.608 6.33544 -6.1349 0
M  V30 1609 O 301.068 6.7751 -3.72168 0
M  V30 1610 C 300.128 7.20825 -2.7076 0
M  V30 1611 C 300.858 7.45864 -1.40599 0
M  V30 1612 O 301.068 6.17651 -0.734225 0
M  V30 1613 C 302.258 8.05808 -1.51899 0
M  V30 1614 O 302.648 8.74358 -0.335205 0
M  V30 1615 C 303.138 6.83093 -1.70294 0
M  V30 1616 C 302.428 5.79992 -0.836974 0
M  V30 1617 N 302.478 4.41864 -1.38293 0
M  V30 1618 H 299.639 8.13644 -3.0377 0
M  V30 1619 H 299.369 6.42788 -2.55485 0
M  V30 1620 H 300.236 8.12039 -0.792769 0
M  V30 1621 P 304.198 8.91 1.18324e-12 0
M  V30 1622 O 304.418 10.1726 0.733694 0
M  V30 1623 O 304.988 8.73148 -1.23936 0
M  V30 1624 O 304.448 7.66872 0.971405 0
M  V30 1625 C 303.508 7.42309 2.04641 0
M  V30 1626 C 304.238 6.86059 3.24661 0
M  V30 1627 O 304.448 5.42847 3.03646 0
M  V30 1628 C 305.638 7.41196 3.50753 0
M  V30 1629 O 306.028 7.27073 4.86816 0
M  V30 1630 C 306.518 6.5273 2.63741 0
M  V30 1631 C 305.808 5.1842 2.73198 0
M  V30 1632 N 305.858 4.38762 1.4784 0
M  V30 1633 C 305.778 4.81605 0.168631 0
M  V30 1634 N 305.858 3.85454 -0.713363 0
M  V30 1635 C 305.998 2.6994 0.0566958 0
M  V30 1636 C 306.128 1.34815 -0.338502 0
M  V30 1637 N 306.248 0.496304 0.77465 0
M  V30 1638 C 306.248 0.908403 2.09122 0
M  V30 1639 N 306.378 -0.0517805 3.00955 0
M  V30 1640 N 306.118 2.17875 2.46519 0
M  V30 1641 C 305.998 3.01988 1.4033 0
M  V30 1642 H 303.019 8.36803 2.32493 0
M  V30 1643 H 302.749 6.70197 1.71129 0
M  V30 1644 H 303.616 7.03551 4.13168 0
M  V30 1645 P 307.578 7.20834 5.23717 0
M  V30 1646 O 307.798 7.79853 6.57286 0
M  V30 1647 O 308.368 7.79239 4.12957 0
M  V30 1648 O 307.828 5.63315 5.29344 0
M  V30 1649 C 306.888 4.80255 6.01876 0
M  V30 1650 C 307.618 3.64202 6.65911 0
M  V30 1651 O 307.828 2.60694 5.64732 0
M  V30 1652 C 309.018 3.93473 7.1943 0
M  V30 1653 O 309.408 3.02071 8.21205 0
M  V30 1654 C 309.898 3.73047 5.97036 0
M  V30 1655 C 309.188 2.58828 5.25741 0
M  V30 1656 N 309.238 2.68068 3.77503 0
M  V30 1657 H 306.399 5.40332 6.79951 0
M  V30 1658 H 306.129 4.41613 5.32378 0
M  V30 1659 H 306.996 3.26331 7.47797 0
M  V30 1660 P 310.958 2.75334 8.47391 0
M  V30 1661 O 311.178 2.44571 9.90142 0
M  V30 1662 O 311.748 3.87688 7.92115 0
M  V30 1663 O 311.208 1.4459 7.59357 0
M  V30 1664 C 310.268 0.347608 7.69215 0
M  V30 1665 C 310.998 -0.96767 7.52806 0
M  V30 1666 O 311.208 -1.21036 6.1011 0
M  V30 1667 C 312.398 -1.04544 8.13308 0
M  V30 1668 O 312.788 -2.38311 8.41922 0
M  V30 1669 C 313.278 -0.491279 7.02284 0
M  V30 1670 C 312.568 -0.996264 5.77469 0
M  V30 1671 N 312.618 -0.0501916 4.62973 0
M  V30 1672 H 309.779 0.374722 8.67691 0
M  V30 1673 H 309.509 0.443485 6.90277 0
M  V30 1674 H 310.376 -1.75537 7.96793 0
M  V30 1675 P 314.338 -2.75334 8.47391 0
M  V30 1676 O 314.558 -3.84166 9.4489 0
M  V30 1677 O 315.128 -1.51964 8.6881 0
M  V30 1678 O 314.588 -3.29363 6.99321 0
M  V30 1679 C 313.648 -4.23956 6.42656 0
M  V30 1680 C 314.378 -5.20775 5.52155 0
M  V30 1681 O 314.588 -4.56534 4.22446 0
M  V30 1682 C 315.778 -5.62629 5.96531 0
M  V30 1683 O 316.168 -6.87667 5.41053 0
M  V30 1684 C 316.658 -4.52537 5.39283 0
M  V30 1685 C 315.948 -4.20027 4.08623 0
M  V30 1686 N 315.998 -2.7613 3.71522 0
M  V30 1687 C 316.148 -2.45612 2.37989 0
M  V30 1688 O 316.238 -3.30919 1.51621 0
M  V30 1689 N 316.188 -1.10684 2.08435 0
M  V30 1690 C 316.098 -0.0690084 2.9792 0
M  V30 1691 C 315.948 -0.481522 4.35345 0
M  V30 1692 C 315.898 -1.78906 4.67968 0
M  V30 1693 H 313.158 -4.797 7.24003 0
M  V30 1694 H 312.889 -3.69802 5.84429 0
M  V30 1695 H 313.756 -6.10356 5.41441 0
M  V30 1696 H 316.411 -4.78651 3.27911 0
M  V30 1697 H 316.69 -3.64957 6.05871 0
M  V30 1698 H 317.682 -4.8868 5.2125 0
M  V30 1699 H 315.848 -5.66726 7.06352 0
M  V30 1700 H 315.777 -2.07737 5.72367 0
M  V30 1701 P 317.718 -7.20834 5.23717 0
M  V30 1702 O 317.938 -8.66104 5.38572 0
M  V30 1703 O 318.508 -6.33544 6.1349 0
M  V30 1704 O 317.968 -6.7751 3.72168 0
M  V30 1705 C 317.028 -7.20825 2.7076 0
M  V30 1706 C 317.758 -7.45864 1.40599 0
M  V30 1707 O 317.968 -6.17651 0.734225 0
M  V30 1708 C 319.158 -8.05808 1.51899 0
M  V30 1709 O 319.548 -8.74358 0.335205 0
M  V30 1710 C 320.038 -6.83093 1.70294 0
M  V30 1711 C 319.328 -5.79992 0.836974 0
M  V30 1712 N 319.378 -4.41864 1.38293 0
M  V30 1713 H 316.539 -8.13644 3.0377 0
M  V30 1714 H 316.269 -6.42788 2.55485 0
M  V30 1715 H 317.136 -8.12039 0.792769 0
M  V30 1716 P 321.098 -8.91 -1.34042e-12 0
M  V30 1717 O 321.318 -10.1726 -0.733694 0
M  V30 1718 O 321.888 -8.73148 1.23936 0
M  V30 1719 O 321.348 -7.66872 -0.971405 0
M  V30 1720 C 320.408 -7.42309 -2.04641 0
M  V30 1721 C 321.138 -6.86059 -3.24661 0
M  V30 1722 O 321.348 -5.42847 -3.03646 0
M  V30 1723 C 322.538 -7.41196 -3.50753 0
M  V30 1724 O 322.928 -7.27073 -4.86816 0
M  V30 1725 C 323.418 -6.5273 -2.63741 0
M  V30 1726 C 322.708 -5.1842 -2.73198 0
M  V30 1727 N 322.758 -4.38762 -1.4784 0
M  V30 1728 H 319.919 -8.36803 -2.32493 0
M  V30 1729 H 319.649 -6.70197 -1.71129 0
M  V30 1730 H 320.516 -7.03551 -4.13168 0
M  V30 1731 P 324.478 -7.20834 -5.23717 0
M  V30 1732 O 324.698 -7.7993 -6.57351 0
M  V30 1733 O 325.268 -7.79328 -4.13004 0
M  V30 1734 O 324.728 -5.63315 -5.29344 0
M  V30 1735 C 323.788 -4.80193 -6.01798 0
M  V30 1736 C 324.518 -3.64202 -6.65911 0
M  V30 1737 O 324.728 -2.60694 -5.64732 0
M  V30 1738 C 325.918 -3.93473 -7.1943 0
M  V30 1739 O 326.308 -3.02071 -8.21205 0
M  V30 1740 C 326.798 -3.73047 -5.97036 0
M  V30 1741 C 326.088 -2.58828 -5.25741 0
M  V30 1742 N 326.138 -2.6801 -3.77422 0
M  V30 1743 C 326.288 -1.50443 -3.07133 0
M  V30 1744 O 326.378 -0.419406 -3.61576 0
M  V30 1745 N 326.328 -1.6403 -1.69677 0
M  V30 1746 C 326.238 -2.81206 -0.986255 0
M  V30 1747 O 326.288 -2.80892 0.249754 0
M  V30 1748 C 326.088 -3.99158 -1.80325 0
M  V30 1749 C 325.978 -5.29309 -1.06921 0
M  V30 1750 C 326.038 -3.89779 -3.1476 0
M  V30 1751 H 323.298 -5.40332 -6.79951 0
M  V30 1752 H 323.029 -4.41549 -5.32301 0
M  V30 1753 H 323.896 -3.26331 -7.47797 0
M  V30 1754 H 326.551 -1.6395 -5.56554 0
M  V30 1755 H 326.83 -4.63439 -5.3432 0
M  V30 1756 H 327.822 -3.44728 -6.25838 0
M  V30 1757 H 325.988 -4.96652 -7.57263 0
M  V30 1758 H 325.917 -4.80159 -3.74441 0
M  V30 1759 H 326.947 -5.81459 -1.09608 0
M  V30 1760 H 325.21 -5.9187 -1.54487 0
M  V30 1761 H 325.698 -5.10095 -0.0220288 0
M  V30 1762 H 326.434 -0.798962 -1.16664 0
M  V30 1763 P 327.858 -2.75334 -8.47391 0
M  V30 1764 O 328.078 -2.44571 -9.90142 0
M  V30 1765 O 328.648 -3.87688 -7.92115 0
M  V30 1766 O 328.108 -1.4459 -7.59357 0
M  V30 1767 C 327.168 -0.347608 -7.69215 0
M  V30 1768 C 327.898 0.96767 -7.52806 0
M  V30 1769 O 328.108 1.21036 -6.1011 0
M  V30 1770 C 329.298 1.04544 -8.13308 0
M  V30 1771 O 329.688 2.38311 -8.41922 0
M  V30 1772 C 330.178 0.491279 -7.02284 0
M  V30 1773 C 329.468 0.996264 -5.77469 0
M  V30 1774 N 329.518 0.0501916 -4.62973 0
M  V30 1775 C 329.438 -1.32786 -4.63244 0
M  V30 1776 N 329.518 -1.86957 -3.44545 0
M  V30 1777 C 329.658 -0.780241 -2.58481 0
M  V30 1778 C 329.788 -0.738536 -1.17757 0
M  V30 1779 N 329.908 0.58337 -0.711393 0
M  V30 1780 C 329.908 1.70816 -1.51017 0
M  V30 1781 N 330.038 2.87826 -0.880757 0
M  V30 1782 N 329.778 1.67126 -2.8339 0
M  V30 1783 C 329.658 0.401421 -3.30572 0
M  V30 1784 H 326.679 -0.374722 -8.67691 0
M  V30 1785 H 326.409 -0.443485 -6.90277 0
M  V30 1786 H 327.276 1.75537 -7.96793 0
M  V30 1787 P 331.238 2.75334 -8.47391 0
M  V30 1788 O 331.458 3.84128 -9.44797 0
M  V30 1789 O 332.028 1.51947 -8.68712 0
M  V30 1790 O 331.488 3.29363 -6.99321 0
M  V30 1791 C 330.548 4.24011 -6.4274 0
M  V30 1792 C 331.278 5.20775 -5.52155 0
M  V30 1793 O 331.488 4.56534 -4.22446 0
M  V30 1794 C 332.678 5.62629 -5.96531 0
M  V30 1795 O 333.068 6.87667 -5.41053 0
M  V30 1796 C 333.558 4.52537 -5.39283 0
M  V30 1797 C 332.848 4.20027 -4.08623 0
M  V30 1798 N 332.898 2.76189 -3.71603 0
M  V30 1799 H 330.059 4.797 -7.24003 0
M  V30 1800 H 329.789 3.69856 -5.84513 0
M  V30 1801 H 330.656 6.10356 -5.41441 0
M  V30 1802 P 334.618 7.20834 -5.23717 0
M  V30 1803 O 334.838 8.66104 -5.38572 0
M  V30 1804 O 335.408 6.33544 -6.1349 0
M  V30 1805 O 334.868 6.7751 -3.72168 0
M  V30 1806 C 333.928 7.20825 -2.7076 0
M  V30 1807 C 334.658 7.45864 -1.40599 0
M  V30 1808 O 334.868 6.17651 -0.734225 0
M  V30 1809 C 336.058 8.05808 -1.51899 0
M  V30 1810 O 336.448 8.74358 -0.335205 0
M  V30 1811 C 336.938 6.83093 -1.70294 0
M  V30 1812 C 336.228 5.79992 -0.836974 0
M  V30 1813 N 336.278 4.41864 -1.38293 0
M  V30 1814 H 333.439 8.13644 -3.0377 0
M  V30 1815 H 333.169 6.42788 -2.55485 0
M  V30 1816 H 334.036 8.12039 -0.792769 0
M  V30 1817 P 337.998 8.91 1.4976e-12 0
M  V30 1818 O 338.218 10.1726 0.733694 0
M  V30 1819 O 338.788 8.73148 -1.23936 0
M  V30 1820 O 338.248 7.66872 0.971405 0
M  V30 1821 C 337.308 7.42309 2.04641 0
M  V30 1822 C 338.038 6.86059 3.24661 0
M  V30 1823 O 338.248 5.42847 3.03646 0
M  V30 1824 C 339.438 7.41196 3.50753 0
M  V30 1825 O 339.828 7.27073 4.86816 0
M  V30 1826 C 340.318 6.5273 2.63741 0
M  V30 1827 C 339.608 5.1842 2.73198 0
M  V30 1828 N 339.658 4.38762 1.4784 0
M  V30 1829 H 336.819 8.36803 2.32493 0
M  V30 1830 H 336.549 6.70197 1.71129 0
M  V30 1831 H 337.416 7.03551 4.13168 0
M  V30 1832 P 341.378 7.20834 5.23717 0
M  V30 1833 O 341.598 7.79853 6.57286 0
M  V30 1834 O 342.168 7.79239 4.12957 0
M  V30 1835 O 341.628 5.63315 5.29344 0
M  V30 1836 C 340.688 4.80255 6.01876 0
M  V30 1837 C 341.418 3.64202 6.65911 0
M  V30 1838 O 341.628 2.60694 5.64732 0
M  V30 1839 C 342.818 3.93473 7.1943 0
M  V30 1840 O 343.208 3.02071 8.21205 0
M  V30 1841 C 343.698 3.73047 5.97036 0
M  V30 1842 C 342.988 2.58828 5.25741 0
M  V30 1843 N 343.038 2.68068 3.77503 0
M  V30 1844 H 340.199 5.40332 6.79951 0
M  V30 1845 H 339.929 4.41613 5.32378 0
M  V30 1846 H 340.796 3.26331 7.47797 0
M  V30 1847 P 344.758 2.75334 8.47391 0
M  V30 1848 O 344.978 2.44571 9.90142 0
M  V30 1849 O 345.548 3.87688 7.92115 0
M  V30 1850 O 345.008 1.4459 7.59357 0
M  V30 1851 C 344.068 0.347608 7.69215 0
M  V30 1852 C 344.798 -0.96767 7.52806 0
M  V30 1853 O 345.008 -1.21036 6.1011 0
M  V30 1854 C 346.198 -1.04544 8.13308 0
M  V30 1855 O 346.588 -2.38311 8.41922 0
M  V30 1856 C 347.078 -0.491279 7.02284 0
M  V30 1857 C 346.368 -0.996264 5.77469 0
M  V30 1858 N 346.418 -0.0501916 4.62973 0
M  V30 1859 H 343.579 0.374722 8.67691 0
M  V30 1860 H 343.309 0.443485 6.90277 0
M  V30 1861 H 344.176 -1.75537 7.96793 0
M  V30 1862 P 348.138 -2.75334 8.47391 0
M  V30 1863 O 348.358 -3.84166 9.4489 0
M  V30 1864 O 348.928 -1.51964 8.6881 0
M  V30 1865 O 348.388 -3.29363 6.99321 0
M  V30 1866 C 347.448 -4.23956 6.42656 0
M  V30 1867 C 348.178 -5.20775 5.52155 0
M  V30 1868 O 348.388 -4.56534 4.22446 0
M  V30 1869 C 349.578 -5.62629 5.96531 0
M  V30 1870 O 349.968 -6.87667 5.41053 0
M  V30 1871 C 350.458 -4.52537 5.39283 0
M  V30 1872 C 349.748 -4.20027 4.08623 0
M  V30 1873 N 349.798 -2.7613 3.71522 0
M  V30 1874 C 349.948 -2.45612 2.37989 0
M  V30 1875 O 350.038 -3.30919 1.51621 0
M  V30 1876 N 349.988 -1.10684 2.08435 0
M  V30 1877 C 349.898 -0.0690084 2.9792 0
M  V30 1878 C 349.748 -0.481522 4.35345 0
M  V30 1879 C 349.698 -1.78906 4.67968 0
M  V30 1880 H 346.958 -4.797 7.24003 0
M  V30 1881 H 346.689 -3.69802 5.84429 0
M  V30 1882 H 347.556 -6.10356 5.41441 0
M  V30 1883 H 350.211 -4.78651 3.27911 0
M  V30 1884 H 350.49 -3.64957 6.05871 0
M  V30 1885 H 351.482 -4.8868 5.2125 0
M  V30 1886 H 349.648 -5.66726 7.06352 0
M  V30 1887 H 349.577 -2.07737 5.72367 0
M  V30 1888 P 351.518 -7.20834 5.23717 0
M  V30 1889 O 351.738 -8.66104 5.38572 0
M  V30 1890 O 352.308 -6.33544 6.1349 0
M  V30 1891 O 351.768 -6.7751 3.72168 0
M  V30 1892 C 350.828 -7.20825 2.7076 0
M  V30 1893 C 351.558 -7.45864 1.40599 0
M  V30 1894 O 351.768 -6.17651 0.734225 0
M  V30 1895 C 352.958 -8.05808 1.51899 0
M  V30 1896 O 353.348 -8.74358 0.335205 0
M  V30 1897 C 353.838 -6.83093 1.70294 0
M  V30 1898 C 353.128 -5.79992 0.836974 0
M  V30 1899 N 353.178 -4.41864 1.38293 0
M  V30 1900 H 350.339 -8.13644 3.0377 0
M  V30 1901 H 350.069 -6.42788 2.55485 0
M  V30 1902 H 350.936 -8.12039 0.792769 0
M  V30 1903 P 354.898 -8.91 -1.65478e-12 0
M  V30 1904 O 355.118 -10.1726 -0.733694 0
M  V30 1905 O 355.688 -8.73148 1.23936 0
M  V30 1906 O 355.148 -7.66872 -0.971405 0
M  V30 1907 C 354.208 -7.42309 -2.04641 0
M  V30 1908 C 354.938 -6.86059 -3.24661 0
M  V30 1909 O 355.148 -5.42847 -3.03646 0
M  V30 1910 C 356.338 -7.41196 -3.50753 0
M  V30 1911 O 356.728 -7.27073 -4.86816 0
M  V30 1912 C 357.218 -6.5273 -2.63741 0
M  V30 1913 C 356.508 -5.1842 -2.73198 0
M  V30 1914 N 356.558 -4.38762 -1.4784 0
M  V30 1915 H 353.719 -8.36803 -2.32493 0
M  V30 1916 H 353.449 -6.70197 -1.71129 0
M  V30 1917 H 354.316 -7.03551 -4.13168 0
M  V30 1918 P 358.278 -7.20834 -5.23717 0
M  V30 1919 O 358.498 -7.80006 -6.57415 0
M  V30 1920 O 359.068 -7.79416 -4.13051 0
M  V30 1921 O 358.528 -5.63315 -5.29344 0
M  V30 1922 C 357.588 -4.80318 -6.01954 0
M  V30 1923 C 358.318 -3.64202 -6.65911 0
M  V30 1924 O 358.528 -2.60736 -5.64823 0
M  V30 1925 C 359.718 -3.93521 -7.19518 0
M  V30 1926 O 360.108 -3.02071 -8.21205 0
M  V30 1927 C 360.598 -3.73047 -5.97036 0
M  V30 1928 C 359.888 -2.58828 -5.25741 0
M  V30 1929 N 359.938 -2.68068 -3.77503 0
M  V30 1930 H 357.1 -5.40394 -6.8003 0
M  V30 1931 H 356.828 -4.41741 -5.32532 0
M  V30 1932 H 357.696 -3.26371 -7.47889 0
M  V30 1933 H 360.351 -1.64007 -5.56746 0
M  V30 1934 H 360.631 -4.63439 -5.3432 0
M  V30 1935 H 361.622 -3.44776 -6.25925 0
M  V30 1936 H 359.788 -4.96707 -7.57347 0
M  V30 1937 P 361.658 -2.75334 -8.47391 0
M  V30 1938 O 361.878 -2.44571 -9.90142 0
M  V30 1939 O 362.448 -3.87688 -7.92115 0
M  V30 1940 O 361.908 -1.4459 -7.59357 0
M  V30 1941 C 360.968 -0.347608 -7.69215 0
M  V30 1942 C 361.698 0.96767 -7.52806 0
M  V30 1943 O 361.908 1.21036 -6.1011 0
M  V30 1944 C 363.098 1.04544 -8.13308 0
M  V30 1945 O 363.488 2.38311 -8.41922 0
M  V30 1946 C 363.978 0.491279 -7.02284 0
M  V30 1947 C 363.268 0.996264 -5.77469 0
M  V30 1948 N 363.318 0.0501916 -4.62973 0
M  V30 1949 H 360.479 -0.374722 -8.67691 0
M  V30 1950 H 360.209 -0.443485 -6.90277 0
M  V30 1951 H 361.076 1.75537 -7.96793 0
M  V30 1952 P 365.038 2.75334 -8.47391 0
M  V30 1953 O 365.258 3.84204 -9.44982 0
M  V30 1954 O 365.828 1.51982 -8.68909 0
M  V30 1955 O 365.288 3.29363 -6.99321 0
M  V30 1956 C 364.348 4.24066 -6.42823 0
M  V30 1957 C 365.078 5.20775 -5.52155 0
M  V30 1958 O 365.288 4.56607 -4.22514 0
M  V30 1959 C 366.478 5.62697 -5.96604 0
M  V30 1960 O 366.868 6.87667 -5.41053 0
M  V30 1961 C 367.358 4.52537 -5.39283 0
M  V30 1962 C 366.648 4.20027 -4.08623 0
M  V30 1963 N 366.698 2.76189 -3.71603 0
M  V30 1964 H 363.86 4.79756 -7.24086 0
M  V30 1965 H 363.588 3.69963 -5.84682 0
M  V30 1966 H 364.456 6.10431 -5.41508 0
M  V30 1967 H 367.111 4.78816 -3.28024 0
M  V30 1968 H 367.391 3.64957 -6.05871 0
M  V30 1969 H 368.382 4.88748 -5.21323 0
M  V30 1970 H 366.548 5.66789 -7.0643 0
M  V30 1971 P 368.418 7.20834 -5.23717 0
M  V30 1972 O 368.638 8.66104 -5.38572 0
M  V30 1973 O 369.208 6.33544 -6.1349 0
M  V30 1974 O 368.668 6.7751 -3.72168 0
M  V30 1975 C 367.728 7.20825 -2.7076 0
M  V30 1976 C 368.458 7.45864 -1.40599 0
M  V30 1977 O 368.668 6.17651 -0.734225 0
M  V30 1978 C 369.858 8.05808 -1.51899 0
M  V30 1979 O 370.248 8.74358 -0.335205 0
M  V30 1980 C 370.738 6.83093 -1.70294 0
M  V30 1981 C 370.028 5.79992 -0.836974 0
M  V30 1982 N 370.078 4.41864 -1.38293 0
M  V30 1983 C 369.998 3.99538 -2.69438 0
M  V30 1984 N 370.078 2.69909 -2.84277 0
M  V30 1985 C 370.218 2.21719 -1.5408 0
M  V30 1986 C 370.348 0.891712 -1.06628 0
M  V30 1987 O 370.368 -0.161298 -1.70137 0
M  V30 1988 N 370.468 0.856846 0.334985 0
M  V30 1989 C 370.468 1.9641 1.15789 0
M  V30 1990 N 370.598 1.72708 2.46522 0
M  V30 1991 N 370.338 3.21165 0.713741 0
M  V30 1992 C 370.218 3.26797 -0.639748 0
M  V30 1993 H 367.239 8.13644 -3.0377 0
M  V30 1994 H 366.969 6.42788 -2.55485 0
M  V30 1995 H 367.836 8.12039 -0.792769 0
M  V30 1996 H 370.491 5.80061 0.166416 0
M  V30 1997 H 370.77 6.51287 -2.75604 0
M  V30 1998 H 371.762 7.01734 -1.34462 0
M  V30 1999 H 369.928 8.73674 -2.38337 0
M  V30 2000 H 369.879 4.68207 -3.53221 0
M  V30 2001 H 370.561 -0.0398818 0.767965 0
M  V30 2002 H 370.598 2.50995 3.13503 0
M  V30 2003 H 370.699 0.759148 2.80716 0
M  V30 2004 P 371.798 8.91 1.81197e-12 0
M  V30 2005 O 372.018 10.1726 0.733694 0
M  V30 2006 O 372.588 8.73148 -1.23936 0
M  V30 2007 O 372.048 7.66872 0.971405 0
M  V30 2008 C 371.108 7.42309 2.04641 0
M  V30 2009 C 371.838 6.86059 3.24661 0
M  V30 2010 O 372.048 5.42847 3.03646 0
M  V30 2011 C 373.238 7.41196 3.50753 0
M  V30 2012 O 373.628 7.27073 4.86816 0
M  V30 2013 C 374.118 6.5273 2.63741 0
M  V30 2014 C 373.408 5.1842 2.73198 0
M  V30 2015 N 373.458 4.38762 1.4784 0
M  V30 2016 H 370.619 8.36803 2.32493 0
M  V30 2017 H 370.349 6.70197 1.71129 0
M  V30 2018 H 371.216 7.03551 4.13168 0
M  V30 2019 P 375.178 7.20834 5.23717 0
M  V30 2020 O 375.398 7.79853 6.57286 0
M  V30 2021 O 375.968 7.79239 4.12957 0
M  V30 2022 O 375.428 5.63315 5.29344 0
M  V30 2023 C 374.488 4.80255 6.01876 0
M  V30 2024 C 375.218 3.64202 6.65911 0
M  V30 2025 O 375.428 2.60694 5.64732 0
M  V30 2026 C 376.618 3.93473 7.1943 0
M  V30 2027 O 377.008 3.02071 8.21205 0
M  V30 2028 C 377.498 3.73047 5.97036 0
M  V30 2029 C 376.788 2.58828 5.25741 0
M  V30 2030 N 376.838 2.68068 3.77503 0
M  V30 2031 H 373.999 5.40332 6.79951 0
M  V30 2032 H 373.729 4.41613 5.32378 0
M  V30 2033 H 374.596 3.26331 7.47797 0
M  V30 2034 P 378.558 2.75334 8.47391 0
M  V30 2035 O 378.778 2.44571 9.90142 0
M  V30 2036 O 379.348 3.87688 7.92115 0
M  V30 2037 O 378.808 1.4459 7.59357 0
M  V30 2038 C 377.868 0.347608 7.69215 0
M  V30 2039 C 378.598 -0.96767 7.52806 0
M  V30 2040 O 378.808 -1.21036 6.1011 0
M  V30 2041 C 379.998 -1.04544 8.13308 0
M  V30 2042 O 380.388 -2.38311 8.41922 0
M  V30 2043 C 380.878 -0.491279 7.02284 0
M  V30 2044 C 380.168 -0.996264 5.77469 0
M  V30 2045 N 380.218 -0.0501916 4.62973 0
M  V30 2046 H 377.379 0.374722 8.67691 0
M  V30 2047 H 377.109 0.443485 6.90277 0
M  V30 2048 H 377.976 -1.75537 7.96793 0
M  V30 2049 P 381.938 -2.75334 8.47391 0
M  V30 2050 O 382.158 -3.84204 9.44982 0
M  V30 2051 O 382.728 -1.51982 8.68909 0
M  V30 2052 O 382.188 -3.29363 6.99321 0
M  V30 2053 C 381.248 -4.24066 6.42823 0
M  V30 2054 C 381.978 -5.20775 5.52155 0
M  V30 2055 O 382.188 -4.56607 4.22514 0
M  V30 2056 C 383.378 -5.62697 5.96604 0
M  V30 2057 O 383.768 -6.87667 5.41053 0
M  V30 2058 C 384.258 -4.52537 5.39283 0
M  V30 2059 C 383.548 -4.20027 4.08623 0
M  V30 2060 N 383.598 -2.76189 3.71603 0
M  V30 2061 H 380.76 -4.79756 7.24086 0
M  V30 2062 H 380.488 -3.69963 5.84682 0
M  V30 2063 H 381.356 -6.10431 5.41508 0
M  V30 2064 H 384.011 -4.78816 3.28024 0
M  V30 2065 H 384.291 -3.64957 6.05871 0
M  V30 2066 H 385.282 -4.88748 5.21323 0
M  V30 2067 H 383.448 -5.66789 7.0643 0
M  V30 2068 P 385.318 -7.20834 5.23717 0
M  V30 2069 O 385.538 -8.66104 5.38572 0
M  V30 2070 O 386.108 -6.33544 6.1349 0
M  V30 2071 O 385.568 -6.7751 3.72168 0
M  V30 2072 C 384.628 -7.20825 2.7076 0
M  V30 2073 C 385.358 -7.45864 1.40599 0
M  V30 2074 O 385.568 -6.17651 0.734225 0
M  V30 2075 C 386.758 -8.05808 1.51899 0
M  V30 2076 O 387.148 -8.74358 0.335205 0
M  V30 2077 C 387.638 -6.83093 1.70294 0
M  V30 2078 C 386.928 -5.79992 0.836974 0
M  V30 2079 N 386.978 -4.41864 1.38293 0
M  V30 2080 H 384.139 -8.13644 3.0377 0
M  V30 2081 H 383.869 -6.42788 2.55485 0
M  V30 2082 H 384.736 -8.12039 0.792769 0
M  V30 2083 P 388.698 -8.91 -1.96915e-12 0
M  V30 2084 O 388.918 -10.1726 -0.733694 0
M  V30 2085 O 389.488 -8.73148 1.23936 0
M  V30 2086 O 388.948 -7.66872 -0.971405 0
M  V30 2087 C 388.008 -7.42309 -2.04641 0
M  V30 2088 C 388.738 -6.86059 -3.24661 0
M  V30 2089 O 388.948 -5.42847 -3.03646 0
M  V30 2090 C 390.138 -7.41196 -3.50753 0
M  V30 2091 O 390.528 -7.27073 -4.86816 0
M  V30 2092 C 391.018 -6.5273 -2.63741 0
M  V30 2093 C 390.308 -5.1842 -2.73198 0
M  V30 2094 N 390.358 -4.38762 -1.4784 0
M  V30 2095 C 390.278 -4.81605 -0.168631 0
M  V30 2096 N 390.358 -3.85454 0.713363 0
M  V30 2097 C 390.498 -2.6994 -0.0566958 0
M  V30 2098 C 390.628 -1.34815 0.338502 0
M  V30 2099 N 390.748 -0.496304 -0.77465 0
M  V30 2100 C 390.748 -0.908403 -2.09122 0
M  V30 2101 N 390.878 0.0517805 -3.00955 0
M  V30 2102 N 390.618 -2.17875 -2.46519 0
M  V30 2103 C 390.498 -3.01988 -1.4033 0
M  V30 2104 H 387.519 -8.36803 -2.32493 0
M  V30 2105 H 387.249 -6.70197 -1.71129 0
M  V30 2106 H 388.116 -7.03551 -4.13168 0
M  V30 2107 P 392.078 -7.20834 -5.23717 0
M  V30 2108 O 392.298 -7.79853 -6.57286 0
M  V30 2109 O 392.868 -7.79239 -4.12957 0
M  V30 2110 O 392.328 -5.63315 -5.29344 0
M  V30 2111 C 391.388 -4.80255 -6.01876 0
M  V30 2112 C 392.118 -3.64202 -6.65911 0
M  V30 2113 O 392.328 -2.60694 -5.64732 0
M  V30 2114 C 393.518 -3.93473 -7.1943 0
M  V30 2115 O 393.908 -3.02071 -8.21205 0
M  V30 2116 C 394.398 -3.73047 -5.97036 0
M  V30 2117 C 393.688 -2.58828 -5.25741 0
M  V30 2118 N 393.738 -2.68068 -3.77503 0
M  V30 2119 H 390.899 -5.40332 -6.79951 0
M  V30 2120 H 390.629 -4.41613 -5.32378 0
M  V30 2121 H 391.496 -3.26331 -7.47797 0
M  V30 2122 P 395.458 -2.75334 -8.47391 0
M  V30 2123 O 395.678 -2.44571 -9.90142 0
M  V30 2124 O 396.248 -3.87688 -7.92115 0
M  V30 2125 O 395.708 -1.4459 -7.59357 0
M  V30 2126 C 394.768 -0.347608 -7.69215 0
M  V30 2127 C 395.498 0.96767 -7.52806 0
M  V30 2128 O 395.708 1.21036 -6.1011 0
M  V30 2129 C 396.898 1.04544 -8.13308 0
M  V30 2130 O 397.288 2.38311 -8.41922 0
M  V30 2131 C 397.778 0.491279 -7.02284 0
M  V30 2132 C 397.068 0.996264 -5.77469 0
M  V30 2133 N 397.118 0.0501916 -4.62973 0
M  V30 2134 H 394.279 -0.374722 -8.67691 0
M  V30 2135 H 394.009 -0.443485 -6.90277 0
M  V30 2136 H 394.876 1.75537 -7.96793 0
M  V30 2137 P 398.838 2.75334 -8.47391 0
M  V30 2138 O 399.058 3.84128 -9.44797 0
M  V30 2139 O 399.628 1.51947 -8.68712 0
M  V30 2140 O 399.088 3.29363 -6.99321 0
M  V30 2141 C 398.148 4.24011 -6.4274 0
M  V30 2142 C 398.878 5.20775 -5.52155 0
M  V30 2143 O 399.088 4.56534 -4.22446 0
M  V30 2144 C 400.278 5.62629 -5.96531 0
M  V30 2145 O 400.668 6.87667 -5.41053 0
M  V30 2146 C 401.158 4.52537 -5.39283 0
M  V30 2147 C 400.448 4.20027 -4.08623 0
M  V30 2148 N 400.498 2.76189 -3.71603 0
M  V30 2149 H 397.659 4.797 -7.24003 0
M  V30 2150 H 397.389 3.69856 -5.84513 0
M  V30 2151 H 398.256 6.10356 -5.41441 0
M  V30 2152 P 402.218 7.20834 -5.23717 0
M  V30 2153 O 402.438 8.66104 -5.38572 0
M  V30 2154 O 403.008 6.33544 -6.1349 0
M  V30 2155 O 402.468 6.7751 -3.72168 0
M  V30 2156 C 401.528 7.20825 -2.7076 0
M  V30 2157 C 402.258 7.45864 -1.40599 0
M  V30 2158 O 402.468 6.17651 -0.734225 0
M  V30 2159 C 403.658 8.05808 -1.51899 0
M  V30 2160 O 404.048 8.74358 -0.335205 0
M  V30 2161 C 404.538 6.83093 -1.70294 0
M  V30 2162 C 403.828 5.79992 -0.836974 0
M  V30 2163 N 403.878 4.41864 -1.38293 0
M  V30 2164 H 401.039 8.13644 -3.0377 0
M  V30 2165 H 400.769 6.42788 -2.55485 0
M  V30 2166 H 401.636 8.12039 -0.792769 0
M  V30 2167 P 405.598 8.91 2.12633e-12 0
M  V30 2168 O 405.818 10.1726 0.733694 0
M  V30 2169 O 406.388 8.73148 -1.23936 0
M  V30 2170 O 405.848 7.66872 0.971405 0
M  V30 2171 C 404.908 7.42309 2.04641 0
M  V30 2172 C 405.638 6.86059 3.24661 0
M  V30 2173 O 405.848 5.42847 3.03646 0
M  V30 2174 C 407.038 7.41196 3.50753 0
M  V30 2175 O 407.428 7.27073 4.86816 0
M  V30 2176 C 407.918 6.5273 2.63741 0
M  V30 2177 C 407.208 5.1842 2.73198 0
M  V30 2178 N 407.258 4.38762 1.4784 0
M  V30 2179 C 407.178 4.81605 0.168631 0
M  V30 2180 N 407.258 3.85454 -0.713363 0
M  V30 2181 C 407.398 2.6994 0.0566958 0
M  V30 2182 C 407.528 1.34815 -0.338502 0
M  V30 2183 O 407.548 0.869548 -1.47125 0
M  V30 2184 N 407.648 0.496304 0.77465 0
M  V30 2185 C 407.648 0.908403 2.09122 0
M  V30 2186 N 407.778 -0.0517805 3.00955 0
M  V30 2187 N 407.518 2.17875 2.46519 0
M  V30 2188 C 407.398 3.01988 1.4033 0
M  V30 2189 H 404.419 8.36803 2.32493 0
M  V30 2190 H 404.149 6.70197 1.71129 0
M  V30 2191 H 405.016 7.03551 4.13168 0
M  V30 2192 H 407.671 4.59498 3.54415 0
M  V30 2193 H 407.95 6.88898 1.59848 0
M  V30 2194 H 408.942 6.46749 3.03687 0
M  V30 2195 H 407.108 8.46908 3.20714 0
M  V30 2196 H 407.059 5.86405 -0.105564 0
M  V30 2197 H 407.741 -0.483664 0.597855 0
M  V30 2198 H 407.778 0.187865 4.0116 0
M  V30 2199 H 407.879 -1.03585 2.71726 0
M  V30 2200 P 408.978 7.20834 5.23717 0
M  V30 2201 O 409.198 7.79853 6.57286 0
M  V30 2202 O 409.768 7.79239 4.12957 0
M  V30 2203 O 409.228 5.63315 5.29344 0
M  V30 2204 C 408.288 4.80255 6.01876 0
M  V30 2205 C 409.018 3.64202 6.65911 0
M  V30 2206 O 409.228 2.60694 5.64732 0
M  V30 2207 C 410.418 3.93473 7.1943 0
M  V30 2208 O 410.808 3.02071 8.21205 0
M  V30 2209 C 411.298 3.73047 5.97036 0
M  V30 2210 C 410.588 2.58828 5.25741 0
M  V30 2211 N 410.638 2.68068 3.77503 0
M  V30 2212 H 407.799 5.40332 6.79951 0
M  V30 2213 H 407.529 4.41613 5.32378 0
M  V30 2214 H 408.396 3.26331 7.47797 0
M  V30 2215 P 412.358 2.75334 8.47391 0
M  V30 2216 O 412.578 2.44571 9.90142 0
M  V30 2217 O 413.148 3.87688 7.92115 0
M  V30 2218 O 412.608 1.4459 7.59357 0
M  V30 2219 C 411.668 0.347608 7.69215 0
M  V30 2220 C 412.398 -0.96767 7.52806 0
M  V30 2221 O 412.608 -1.21036 6.1011 0
M  V30 2222 C 413.798 -1.04544 8.13308 0
M  V30 2223 O 414.188 -2.38311 8.41922 0
M  V30 2224 C 414.678 -0.491279 7.02284 0
M  V30 2225 C 413.968 -0.996264 5.77469 0
M  V30 2226 N 414.018 -0.0501916 4.62973 0
M  V30 2227 H 411.179 0.374722 8.67691 0
M  V30 2228 H 410.909 0.443485 6.90277 0
M  V30 2229 H 411.776 -1.75537 7.96793 0
M  V30 2230 P 415.738 -2.75334 8.47391 0
M  V30 2231 O 415.958 -3.84166 9.4489 0
M  V30 2232 O 416.528 -1.51964 8.6881 0
M  V30 2233 O 415.988 -3.29363 6.99321 0
M  V30 2234 C 415.048 -4.23956 6.42656 0
M  V30 2235 C 415.778 -5.20775 5.52155 0
M  V30 2236 O 415.988 -4.56534 4.22446 0
M  V30 2237 C 417.178 -5.62629 5.96531 0
M  V30 2238 O 417.568 -6.87667 5.41053 0
M  V30 2239 C 418.058 -4.52537 5.39283 0
M  V30 2240 C 417.348 -4.20027 4.08623 0
M  V30 2241 N 417.398 -2.7613 3.71522 0
M  V30 2242 C 417.548 -2.45612 2.37989 0
M  V30 2243 O 417.638 -3.30919 1.51621 0
M  V30 2244 N 417.588 -1.10684 2.08435 0
M  V30 2245 C 417.498 -0.0690084 2.9792 0
M  V30 2246 O 417.548 1.10553 2.59426 0
M  V30 2247 C 417.348 -0.481522 4.35345 0
M  V30 2248 C 417.238 0.618778 5.36443 0
M  V30 2249 C 417.298 -1.78906 4.67968 0
M  V30 2250 H 414.558 -4.797 7.24003 0
M  V30 2251 H 414.289 -3.69802 5.84429 0
M  V30 2252 H 415.156 -6.10356 5.41441 0
M  V30 2253 H 417.811 -4.78651 3.27911 0
M  V30 2254 H 418.09 -3.64957 6.05871 0
M  V30 2255 H 419.082 -4.8868 5.2125 0
M  V30 2256 H 417.248 -5.66726 7.06352 0
M  V30 2257 H 417.177 -2.07737 5.72367 0
M  V30 2258 H 418.207 0.754375 5.86871 0
M  V30 2259 H 416.47 0.359721 6.10641 0
M  V30 2260 H 416.958 1.55533 4.8581 0
M  V30 2261 H 417.694 -0.862651 1.12037 0
M  V30 2262 P 419.118 -7.20834 5.23717 0
M  V30 2263 O 419.338 -8.66189 5.38625 0
M  V30 2264 O 419.908 -6.33615 6.1356 0
M  V30 2265 O 419.368 -6.7751 3.72168 0
M  V30 2266 C 418.428 -7.20732 2.70725 0
M  V30 2267 C 419.158 -7.45864 1.40599 0
M  V30 2268 O 419.368 -6.17651 0.734225 0
M  V30 2269 C 420.558 -8.05808 1.51899 0
M  V30 2270 O 420.948 -8.74358 0.335205 0
M  V30 2271 C 421.438 -6.83093 1.70294 0
M  V30 2272 C 420.728 -5.79992 0.836974 0
M  V30 2273 N 420.778 -4.41769 1.38263 0
M  V30 2274 C 420.928 -3.38591 0.481702 0
M  V30 2275 O 421.018 -3.56839 -0.718452 0
M  V30 2276 N 420.968 -2.1206 1.03569 0
M  V30 2277 C 420.878 -1.80696 2.36966 0
M  V30 2278 O 420.928 -0.630473 2.74862 0
M  V30 2279 C 420.728 -2.94845 3.23898 0
M  V30 2280 C 420.618 -2.65253 4.70362 0
M  V30 2281 C 420.678 -4.19803 2.73435 0
M  V30 2282 H 417.938 -8.13644 3.0377 0
M  V30 2283 H 417.669 -6.42695 2.55448 0
M  V30 2284 H 418.536 -8.12039 0.792769 0
M  V30 2285 H 421.191 -5.79978 -0.160587 0
M  V30 2286 H 421.47 -6.51379 2.75643 0
M  V30 2287 H 422.462 -7.01734 1.34462 0
M  V30 2288 H 420.628 -8.73674 2.38337 0
M  V30 2289 H 420.557 -5.04492 3.4095 0
M  V30 2290 H 421.587 -2.83924 5.1913 0
M  V30 2291 H 419.85 -3.29824 5.15163 0
M  V30 2292 H 420.338 -1.59723 4.84449 0
M  V30 2293 H 421.074 -1.35644 0.399345 0
M  V30 2294 P 422.497 -8.91 -2.28351e-12 0
M  V30 2295 O 422.717 -10.1726 -0.733694 0
M  V30 2296 O 423.287 -8.73148 1.23936 0
M  V30 2297 O 422.747 -7.66872 -0.971405 0
M  V30 2298 C 421.807 -7.42309 -2.04641 0
M  V30 2299 C 422.537 -6.86059 -3.24661 0
M  V30 2300 O 422.747 -5.42847 -3.03646 0
M  V30 2301 C 423.937 -7.41196 -3.50753 0
M  V30 2302 O 424.327 -7.27073 -4.86816 0
M  V30 2303 C 424.817 -6.5273 -2.63741 0
M  V30 2304 C 424.107 -5.1842 -2.73198 0
M  V30 2305 N 424.157 -4.38762 -1.4784 0
M  V30 2306 H 421.318 -8.36803 -2.32493 0
M  V30 2307 H 421.048 -6.70197 -1.71129 0
M  V30 2308 H 421.915 -7.03551 -4.13168 0
M  V30 2309 P 425.877 -7.20834 -5.23717 0
M  V30 2310 O 426.097 -7.79853 -6.57286 0
M  V30 2311 O 426.667 -7.79239 -4.12957 0
M  V30 2312 O 426.127 -5.63315 -5.29344 0
M  V30 2313 C 425.187 -4.80255 -6.01876 0
M  V30 2314 C 425.917 -3.64202 -6.65911 0
M  V30 2315 O 426.127 -2.60694 -5.64732 0
M  V30 2316 C 427.317 -3.93473 -7.1943 0
M  V30 2317 O 427.707 -3.02071 -8.21205 0
M  V30 2318 C 428.197 -3.73047 -5.97036 0
M  V30 2319 C 427.487 -2.58828 -5.25741 0
M  V30 2320 N 427.537 -2.68068 -3.77503 0
M  V30 2321 H 424.698 -5.40332 -6.79951 0
M  V30 2322 H 424.428 -4.41613 -5.32378 0
M  V30 2323 H 425.295 -3.26331 -7.47797 0
M  V30 2324 P 429.257 -2.75334 -8.47391 0
M  V30 2325 O 429.477 -2.44571 -9.90142 0
M  V30 2326 O 430.047 -3.87688 -7.92115 0
M  V30 2327 O 429.507 -1.4459 -7.59357 0
M  V30 2328 C 428.567 -0.347608 -7.69215 0
M  V30 2329 C 429.297 0.96767 -7.52806 0
M  V30 2330 O 429.507 1.21036 -6.1011 0
M  V30 2331 C 430.697 1.04544 -8.13308 0
M  V30 2332 O 431.087 2.38311 -8.41922 0
M  V30 2333 C 431.577 0.491279 -7.02284 0
M  V30 2334 C 430.867 0.996264 -5.77469 0
M  V30 2335 N 430.917 0.0501916 -4.62973 0
M  V30 2336 C 430.837 -1.32786 -4.63244 0
M  V30 2337 N 430.917 -1.86957 -3.44545 0
M  V30 2338 C 431.057 -0.780241 -2.58481 0
M  V30 2339 C 431.187 -0.738536 -1.17757 0
M  V30 2340 O 431.207 -1.66794 -0.372349 0
M  V30 2341 N 431.307 0.58337 -0.711393 0
M  V30 2342 C 431.307 1.70816 -1.51017 0
M  V30 2343 N 431.437 2.87826 -0.880757 0
M  V30 2344 N 431.177 1.67126 -2.8339 0
M  V30 2345 C 431.057 0.401421 -3.30572 0
M  V30 2346 H 428.078 -0.374722 -8.67691 0
M  V30 2347 H 427.808 -0.443485 -6.90277 0
M  V30 2348 H 428.675 1.75537 -7.96793 0
M  V30 2349 H 431.33 1.95076 -5.46529 0
M  V30 2350 H 431.609 -0.608565 -7.04577 0
M  V30 2351 H 432.601 0.889672 -7.08939 0
M  V30 2352 H 430.767 0.43308 -9.04564 0
M  V30 2353 H 430.718 -1.91249 -5.54442 0
M  V30 2354 H 431.4 0.718054 0.275244 0
M  V30 2355 H 431.437 3.75721 -1.41832 0
M  V30 2356 H 431.538 2.90436 0.145468 0
M  V30 2357 P 432.637 2.75334 -8.47391 0
M  V30 2358 O 432.857 3.84128 -9.44797 0
M  V30 2359 O 433.427 1.51947 -8.68712 0
M  V30 2360 O 432.887 3.29363 -6.99321 0
M  V30 2361 C 431.947 4.24011 -6.4274 0
M  V30 2362 C 432.677 5.20775 -5.52155 0
M  V30 2363 O 432.887 4.56534 -4.22446 0
M  V30 2364 C 434.077 5.62629 -5.96531 0
M  V30 2365 O 434.467 6.87667 -5.41053 0
M  V30 2366 C 434.957 4.52537 -5.39283 0
M  V30 2367 C 434.247 4.20027 -4.08623 0
M  V30 2368 N 434.297 2.76189 -3.71603 0
M  V30 2369 H 431.458 4.797 -7.24003 0
M  V30 2370 H 431.188 3.69856 -5.84513 0
M  V30 2371 H 432.055 6.10356 -5.41441 0
M  V30 2372 P 436.017 7.20834 -5.23717 0
M  V30 2373 O 436.237 8.66104 -5.38572 0
M  V30 2374 O 436.807 6.33544 -6.1349 0
M  V30 2375 O 436.267 6.7751 -3.72168 0
M  V30 2376 C 435.327 7.20825 -2.7076 0
M  V30 2377 C 436.057 7.45864 -1.40599 0
M  V30 2378 O 436.267 6.17651 -0.734225 0
M  V30 2379 C 437.457 8.05808 -1.51899 0
M  V30 2380 O 437.847 8.74358 -0.335205 0
M  V30 2381 C 438.337 6.83093 -1.70294 0
M  V30 2382 C 437.627 5.79992 -0.836974 0
M  V30 2383 N 437.677 4.41864 -1.38293 0
M  V30 2384 C 437.597 3.99538 -2.69438 0
M  V30 2385 N 437.677 2.69909 -2.84277 0
M  V30 2386 C 437.817 2.21719 -1.5408 0
M  V30 2387 C 437.947 0.891712 -1.06628 0
M  V30 2388 N 438.067 0.856846 0.334985 0
M  V30 2389 C 438.067 1.9641 1.15789 0
M  V30 2390 N 438.197 1.72708 2.46522 0
M  V30 2391 N 437.937 3.21165 0.713741 0
M  V30 2392 C 437.817 3.26797 -0.639748 0
M  V30 2393 H 434.838 8.13644 -3.0377 0
M  V30 2394 H 434.568 6.42788 -2.55485 0
M  V30 2395 H 435.435 8.12039 -0.792769 0
M  V30 2396 P 439.397 8.91 2.44069e-12 0
M  V30 2397 O 439.617 10.1736 0.733766 0
M  V30 2398 O 440.187 8.73247 -1.2395 0
M  V30 2399 O 439.647 7.66872 0.971405 0
M  V30 2400 C 438.707 7.42212 2.04614 0
M  V30 2401 C 439.437 6.86059 3.24661 0
M  V30 2402 O 439.647 5.42847 3.03646 0
M  V30 2403 C 440.837 7.41196 3.50753 0
M  V30 2404 O 441.227 7.27073 4.86816 0
M  V30 2405 C 441.717 6.5273 2.63741 0
M  V30 2406 C 441.007 5.1842 2.73198 0
M  V30 2407 N 441.057 4.38668 1.47808 0
M  V30 2408 C 441.207 3.02239 1.60048 0
M  V30 2409 O 441.297 2.46459 2.67869 0
M  V30 2410 N 441.247 2.32436 0.408571 0
M  V30 2411 C 441.157 2.85471 -0.854993 0
M  V30 2412 O 441.207 2.12566 -1.8531 0
M  V30 2413 C 441.007 4.28918 -0.887335 0
M  V30 2414 C 440.897 4.91066 -2.24619 0
M  V30 2415 C 440.957 5.00349 0.255399 0
M  V30 2416 H 438.217 8.36803 2.32493 0
M  V30 2417 H 437.948 6.701 1.71105 0
M  V30 2418 H 438.815 7.03551 4.13168 0
M  V30 2419 H 441.47 4.59773 3.53894 0
M  V30 2420 H 441.749 6.88995 1.59871 0
M  V30 2421 H 442.741 6.46749 3.03687 0
M  V30 2422 H 440.907 8.46908 3.20714 0
M  V30 2423 H 440.836 6.08548 0.206986 0
M  V30 2424 H 441.866 5.34836 -2.53099 0
M  V30 2425 H 440.129 5.69638 -2.2291 0
M  V30 2426 H 440.617 4.13971 -2.98044 0
M  V30 2427 H 441.353 1.33211 0.474216 0
M  V30 2428 P 442.777 7.20834 5.23717 0
M  V30 2429 O 442.997 7.79853 6.57286 0
M  V30 2430 O 443.567 7.79239 4.12957 0
M  V30 2431 O 443.027 5.63315 5.29344 0
M  V30 2432 C 442.087 4.80255 6.01876 0
M  V30 2433 C 442.817 3.64202 6.65911 0
M  V30 2434 O 443.027 2.60694 5.64732 0
M  V30 2435 C 444.217 3.93473 7.1943 0
M  V30 2436 O 444.607 3.02071 8.21205 0
M  V30 2437 C 445.097 3.73047 5.97036 0
M  V30 2438 C 444.387 2.58828 5.25741 0
M  V30 2439 N 444.437 2.68068 3.77503 0
M  V30 2440 H 441.598 5.40332 6.79951 0
M  V30 2441 H 441.328 4.41613 5.32378 0
M  V30 2442 H 442.195 3.26331 7.47797 0
M  V30 2443 P 446.157 2.75334 8.47391 0
M  V30 2444 O 446.377 2.44571 9.90142 0
M  V30 2445 O 446.947 3.87688 7.92115 0
M  V30 2446 O 446.407 1.4459 7.59357 0
M  V30 2447 C 445.467 0.347608 7.69215 0
M  V30 2448 C 446.197 -0.96767 7.52806 0
M  V30 2449 O 446.407 -1.21036 6.1011 0
M  V30 2450 C 447.597 -1.04544 8.13308 0
M  V30 2451 O 447.987 -2.38311 8.41922 0
M  V30 2452 C 448.477 -0.491279 7.02284 0
M  V30 2453 C 447.767 -0.996264 5.77469 0
M  V30 2454 N 447.817 -0.0501916 4.62973 0
M  V30 2455 H 444.978 0.374722 8.67691 0
M  V30 2456 H 444.708 0.443485 6.90277 0
M  V30 2457 H 445.575 -1.75537 7.96793 0
M  V30 2458 P 449.537 -2.75334 8.47391 0
M  V30 2459 O 449.757 -3.84128 9.44797 0
M  V30 2460 O 450.327 -1.51947 8.68712 0
M  V30 2461 O 449.787 -3.29363 6.99321 0
M  V30 2462 C 448.847 -4.24011 6.4274 0
M  V30 2463 C 449.577 -5.20775 5.52155 0
M  V30 2464 O 449.787 -4.56534 4.22446 0
M  V30 2465 C 450.977 -5.62629 5.96531 0
M  V30 2466 O 451.367 -6.87667 5.41053 0
M  V30 2467 C 451.857 -4.52537 5.39283 0
M  V30 2468 C 451.147 -4.20027 4.08623 0
M  V30 2469 N 451.197 -2.76189 3.71603 0
M  V30 2470 H 448.358 -4.797 7.24003 0
M  V30 2471 H 448.088 -3.69856 5.84513 0
M  V30 2472 H 448.955 -6.10356 5.41441 0
M  V30 2473 P 452.917 -7.20834 5.23717 0
M  V30 2474 O 453.137 -8.66104 5.38572 0
M  V30 2475 O 453.707 -6.33544 6.1349 0
M  V30 2476 O 453.167 -6.7751 3.72168 0
M  V30 2477 C 452.227 -7.20825 2.7076 0
M  V30 2478 C 452.957 -7.45864 1.40599 0
M  V30 2479 O 453.167 -6.17651 0.734225 0
M  V30 2480 C 454.357 -8.05808 1.51899 0
M  V30 2481 O 454.747 -8.74358 0.335205 0
M  V30 2482 C 455.237 -6.83093 1.70294 0
M  V30 2483 C 454.527 -5.79992 0.836974 0
M  V30 2484 N 454.577 -4.41864 1.38293 0
M  V30 2485 H 451.738 -8.13644 3.0377 0
M  V30 2486 H 451.468 -6.42788 2.55485 0
M  V30 2487 H 452.335 -8.12039 0.792769 0
M  V30 2488 P 456.297 -8.91 -2.59788e-12 0
M  V30 2489 O 456.517 -10.1726 -0.733694 0
M  V30 2490 O 457.087 -8.73148 1.23936 0
M  V30 2491 O 456.547 -7.66872 -0.971405 0
M  V30 2492 C 455.607 -7.42309 -2.04641 0
M  V30 2493 C 456.337 -6.86059 -3.24661 0
M  V30 2494 O 456.547 -5.42847 -3.03646 0
M  V30 2495 C 457.737 -7.41196 -3.50753 0
M  V30 2496 O 458.127 -7.27073 -4.86816 0
M  V30 2497 C 458.617 -6.5273 -2.63741 0
M  V30 2498 C 457.907 -5.1842 -2.73198 0
M  V30 2499 N 457.957 -4.38762 -1.4784 0
M  V30 2500 H 455.118 -8.36803 -2.32493 0
M  V30 2501 H 454.848 -6.70197 -1.71129 0
M  V30 2502 H 455.715 -7.03551 -4.13168 0
M  V30 2503 P 459.677 -7.20834 -5.23717 0
M  V30 2504 O 459.897 -7.79853 -6.57286 0
M  V30 2505 O 460.467 -7.79239 -4.12957 0
M  V30 2506 O 459.927 -5.63315 -5.29344 0
M  V30 2507 C 458.987 -4.80255 -6.01876 0
M  V30 2508 C 459.717 -3.64202 -6.65911 0
M  V30 2509 O 459.927 -2.60694 -5.64732 0
M  V30 2510 C 461.117 -3.93473 -7.1943 0
M  V30 2511 O 461.507 -3.02071 -8.21205 0
M  V30 2512 C 461.997 -3.73047 -5.97036 0
M  V30 2513 C 461.287 -2.58828 -5.25741 0
M  V30 2514 N 461.337 -2.68068 -3.77503 0
M  V30 2515 H 458.498 -5.40332 -6.79951 0
M  V30 2516 H 458.228 -4.41613 -5.32378 0
M  V30 2517 H 459.095 -3.26331 -7.47797 0
M  V30 2518 P 463.057 -2.75334 -8.47391 0
M  V30 2519 O 463.277 -2.44571 -9.90142 0
M  V30 2520 O 463.847 -3.87688 -7.92115 0
M  V30 2521 O 463.307 -1.4459 -7.59357 0
M  V30 2522 C 462.367 -0.347608 -7.69215 0
M  V30 2523 C 463.097 0.96767 -7.52806 0
M  V30 2524 O 463.307 1.21036 -6.1011 0
M  V30 2525 C 464.497 1.04544 -8.13308 0
M  V30 2526 O 464.887 2.38311 -8.41922 0
M  V30 2527 C 465.377 0.491279 -7.02284 0
M  V30 2528 C 464.667 0.996264 -5.77469 0
M  V30 2529 N 464.717 0.0501916 -4.62973 0
M  V30 2530 H 461.878 -0.374722 -8.67691 0
M  V30 2531 H 461.608 -0.443485 -6.90277 0
M  V30 2532 H 462.475 1.75537 -7.96793 0
M  V30 2533 P 466.437 2.75334 -8.47391 0
M  V30 2534 O 466.657 3.84128 -9.44797 0
M  V30 2535 O 467.227 1.51947 -8.68712 0
M  V30 2536 O 466.687 3.29363 -6.99321 0
M  V30 2537 C 465.747 4.24011 -6.4274 0
M  V30 2538 C 466.477 5.20775 -5.52155 0
M  V30 2539 O 466.687 4.56534 -4.22446 0
M  V30 2540 C 467.877 5.62629 -5.96531 0
M  V30 2541 O 468.267 6.87667 -5.41053 0
M  V30 2542 C 468.757 4.52537 -5.39283 0
M  V30 2543 C 468.047 4.20027 -4.08623 0
M  V30 2544 N 468.097 2.76189 -3.71603 0
M  V30 2545 H 465.258 4.797 -7.24003 0
M  V30 2546 H 464.988 3.69856 -5.84513 0
M  V30 2547 H 465.855 6.10356 -5.41441 0
M  V30 2548 P 469.817 7.20834 -5.23717 0
M  V30 2549 O 470.037 8.66189 -5.38625 0
M  V30 2550 O 470.607 6.33615 -6.1356 0
M  V30 2551 O 470.067 6.7751 -3.72168 0
M  V30 2552 C 469.127 7.20732 -2.70725 0
M  V30 2553 C 469.857 7.45864 -1.40599 0
M  V30 2554 O 470.067 6.17651 -0.734225 0
M  V30 2555 C 471.257 8.05808 -1.51899 0
M  V30 2556 O 471.647 8.74358 -0.335205 0
M  V30 2557 C 472.137 6.83093 -1.70294 0
M  V30 2558 C 471.427 5.79992 -0.836974 0
M  V30 2559 N 471.477 4.41769 -1.38263 0
M  V30 2560 C 471.627 3.38591 -0.481702 0
M  V30 2561 O 471.717 3.56839 0.718452 0
M  V30 2562 N 471.667 2.1206 -1.03569 0
M  V30 2563 C 471.577 1.80696 -2.36966 0
M  V30 2564 C 471.427 2.94845 -3.23898 0
M  V30 2565 C 471.377 4.19803 -2.73435 0
M  V30 2566 H 468.637 8.13644 -3.0377 0
M  V30 2567 H 468.368 6.42695 -2.55448 0
M  V30 2568 H 469.235 8.12039 -0.792769 0
M  V30 2569 H 471.89 5.79978 0.160587 0
M  V30 2570 H 472.169 6.51379 -2.75643 0
M  V30 2571 H 473.161 7.01734 -1.34462 0
M  V30 2572 H 471.327 8.73674 -2.38337 0
M  V30 2573 H 471.256 5.04492 -3.4095 0
M  V30 2574 P 473.197 8.91 2.75506e-12 0
M  V30 2575 O 473.417 10.1726 0.733694 0
M  V30 2576 O 473.987 8.73148 -1.23936 0
M  V30 2577 O 473.447 7.66872 0.971405 0
M  V30 2578 C 472.507 7.42309 2.04641 0
M  V30 2579 C 473.237 6.86059 3.24661 0
M  V30 2580 O 473.447 5.42847 3.03646 0
M  V30 2581 C 474.637 7.41196 3.50753 0
M  V30 2582 O 475.027 7.27073 4.86816 0
M  V30 2583 C 475.517 6.5273 2.63741 0
M  V30 2584 C 474.807 5.1842 2.73198 0
M  V30 2585 N 474.857 4.38762 1.4784 0
M  V30 2586 H 472.018 8.36803 2.32493 0
M  V30 2587 H 471.748 6.70197 1.71129 0
M  V30 2588 H 472.615 7.03551 4.13168 0
M  V30 2589 P 476.577 7.20834 5.23717 0
M  V30 2590 O 476.797 7.80006 6.57415 0
M  V30 2591 O 477.367 7.79416 4.13051 0
M  V30 2592 O 476.827 5.63315 5.29344 0
M  V30 2593 C 475.887 4.80318 6.01954 0
M  V30 2594 C 476.617 3.64202 6.65911 0
M  V30 2595 O 476.827 2.60736 5.64823 0
M  V30 2596 C 478.017 3.93521 7.19518 0
M  V30 2597 O 478.407 3.02071 8.21205 0
M  V30 2598 C 478.897 3.73047 5.97036 0
M  V30 2599 C 478.187 2.58828 5.25741 0
M  V30 2600 N 478.237 2.68068 3.77503 0
M  V30 2601 H 475.399 5.40394 6.8003 0
M  V30 2602 H 475.127 4.41741 5.32532 0
M  V30 2603 H 475.995 3.26371 7.47889 0
M  V30 2604 H 478.65 1.64007 5.56746 0
M  V30 2605 H 478.93 4.63439 5.3432 0
M  V30 2606 H 479.921 3.44776 6.25925 0
M  V30 2607 H 478.087 4.96707 7.57347 0
M  V30 2608 P 479.957 2.75334 8.47391 0
M  V30 2609 O 480.177 2.44571 9.90142 0
M  V30 2610 O 480.747 3.87688 7.92115 0
M  V30 2611 O 480.207 1.4459 7.59357 0
M  V30 2612 C 479.267 0.347608 7.69215 0
M  V30 2613 C 479.997 -0.96767 7.52806 0
M  V30 2614 O 480.207 -1.21036 6.1011 0
M  V30 2615 C 481.397 -1.04544 8.13308 0
M  V30 2616 O 481.787 -2.38311 8.41922 0
M  V30 2617 C 482.277 -0.491279 7.02284 0
M  V30 2618 C 481.567 -0.996264 5.77469 0
M  V30 2619 N 481.617 -0.0501916 4.62973 0
M  V30 2620 H 478.778 0.374722 8.67691 0
M  V30 2621 H 478.508 0.443485 6.90277 0
M  V30 2622 H 479.375 -1.75537 7.96793 0
M  V30 2623 P 483.337 -2.75334 8.47391 0
M  V30 2624 O 483.557 -3.84128 9.44797 0
M  V30 2625 O 484.127 -1.51947 8.68712 0
M  V30 2626 O 483.587 -3.29363 6.99321 0
M  V30 2627 C 482.647 -4.24011 6.4274 0
M  V30 2628 C 483.377 -5.20775 5.52155 0
M  V30 2629 O 483.587 -4.56534 4.22446 0
M  V30 2630 C 484.777 -5.62629 5.96531 0
M  V30 2631 O 485.167 -6.87667 5.41053 0
M  V30 2632 C 485.657 -4.52537 5.39283 0
M  V30 2633 C 484.947 -4.20027 4.08623 0
M  V30 2634 N 484.997 -2.76189 3.71603 0
M  V30 2635 H 482.158 -4.797 7.24003 0
M  V30 2636 H 481.888 -3.69856 5.84513 0
M  V30 2637 H 482.755 -6.10356 5.41441 0
M  V30 2638 P 486.717 -7.20834 5.23717 0
M  V30 2639 O 486.937 -8.66104 5.38572 0
M  V30 2640 O 487.507 -6.33544 6.1349 0
M  V30 2641 O 486.967 -6.7751 3.72168 0
M  V30 2642 C 486.027 -7.20825 2.7076 0
M  V30 2643 C 486.757 -7.45864 1.40599 0
M  V30 2644 O 486.967 -6.17651 0.734225 0
M  V30 2645 C 488.157 -8.05808 1.51899 0
M  V30 2646 O 488.547 -8.74358 0.335205 0
M  V30 2647 C 489.037 -6.83093 1.70294 0
M  V30 2648 C 488.327 -5.79992 0.836974 0
M  V30 2649 N 488.377 -4.41864 1.38293 0
M  V30 2650 H 485.538 -8.13644 3.0377 0
M  V30 2651 H 485.268 -6.42788 2.55485 0
M  V30 2652 H 486.135 -8.12039 0.792769 0
M  V30 2653 P 490.097 -8.91 -2.91224e-12 0
M  V30 2654 O 490.317 -10.1726 -0.733694 0
M  V30 2655 O 490.887 -8.73148 1.23936 0
M  V30 2656 O 490.347 -7.66872 -0.971405 0
M  V30 2657 C 489.407 -7.42309 -2.04641 0
M  V30 2658 C 490.137 -6.86059 -3.24661 0
M  V30 2659 O 490.347 -5.42847 -3.03646 0
M  V30 2660 C 491.537 -7.41196 -3.50753 0
M  V30 2661 O 491.927 -7.27073 -4.86816 0
M  V30 2662 C 492.417 -6.5273 -2.63741 0
M  V30 2663 C 491.707 -5.1842 -2.73198 0
M  V30 2664 N 491.757 -4.38762 -1.4784 0
M  V30 2665 H 488.918 -8.36803 -2.32493 0
M  V30 2666 H 488.648 -6.70197 -1.71129 0
M  V30 2667 H 489.515 -7.03551 -4.13168 0
M  V30 2668 P 493.477 -7.20834 -5.23717 0
M  V30 2669 O 493.697 -7.7993 -6.57351 0
M  V30 2670 O 494.267 -7.79328 -4.13004 0
M  V30 2671 O 493.727 -5.63315 -5.29344 0
M  V30 2672 C 492.787 -4.80255 -6.01876 0
M  V30 2673 C 493.517 -3.64202 -6.65911 0
M  V30 2674 O 493.727 -2.60694 -5.64732 0
M  V30 2675 C 494.917 -3.93473 -7.1943 0
M  V30 2676 O 495.307 -3.02071 -8.21205 0
M  V30 2677 C 495.797 -3.73047 -5.97036 0
M  V30 2678 C 495.087 -2.58828 -5.25741 0
M  V30 2679 N 495.137 -2.6801 -3.77422 0
M  V30 2680 C 495.287 -1.50173 -3.05038 0
M  V30 2681 O 495.377 -0.428832 -3.665 0
M  V30 2682 N 495.337 -1.70922 -1.55541 0
M  V30 2683 C 495.237 -2.7407 -1.06402 0
M  V30 2684 N 495.287 -2.74764 0.260931 0
M  V30 2685 C 495.087 -3.96781 -1.78296 0
M  V30 2686 C 495.037 -3.87909 -3.13891 0
M  V30 2687 H 492.297 -5.4027 -6.79873 0
M  V30 2688 H 492.028 -4.41549 -5.32301 0
M  V30 2689 H 492.895 -3.26371 -7.47889 0
M  V30 2690 H 495.55 -1.63978 -5.5665 0
M  V30 2691 H 495.829 -4.63439 -5.3432 0
M  V30 2692 H 496.821 -3.44728 -6.25838 0
M  V30 2693 H 494.987 -4.96652 -7.57263 0
M  V30 2694 H 494.915 -4.78425 -3.73088 0
M  V30 2695 H 495.017 -4.92593 -1.26997 0
M  V30 2696 H 495.405 -1.86285 0.77595 0
M  V30 2697 H 495.208 -3.63657 0.773896 0
M  V30 2698 P 496.857 -2.75334 -8.47391 0
M  V30 2699 O 497.077 -2.44571 -9.90142 0
M  V30 2700 O 497.647 -3.87688 -7.92115 0
M  V30 2701 O 497.107 -1.4459 -7.59357 0
M  V30 2702 C 496.167 -0.347608 -7.69215 0
M  V30 2703 C 496.897 0.96767 -7.52806 0
M  V30 2704 O 497.107 1.21036 -6.1011 0
M  V30 2705 C 498.297 1.04544 -8.13308 0
M  V30 2706 O 498.687 2.38311 -8.41922 0
M  V30 2707 C 499.177 0.491279 -7.02284 0
M  V30 2708 C 498.467 0.996264 -5.77469 0
M  V30 2709 N 498.517 0.0501916 -4.62973 0
M  V30 2710 H 495.678 -0.374722 -8.67691 0
M  V30 2711 H 495.408 -0.443485 -6.90277 0
M  V30 2712 H 496.275 1.75537 -7.96793 0
M  V30 2713 P 500.237 2.75334 -8.47391 0
M  V30 2714 O 500.457 3.84128 -9.44797 0
M  V30 2715 O 501.027 1.51947 -8.68712 0
M  V30 2716 O 500.487 3.29363 -6.99321 0
M  V30 2717 C 499.547 4.24011 -6.4274 0
M  V30 2718 C 500.277 5.20775 -5.52155 0
M  V30 2719 O 500.487 4.56534 -4.22446 0
M  V30 2720 C 501.677 5.62629 -5.96531 0
M  V30 2721 O 502.067 6.87667 -5.41053 0
M  V30 2722 C 502.557 4.52537 -5.39283 0
M  V30 2723 C 501.847 4.20027 -4.08623 0
M  V30 2724 N 501.897 2.76189 -3.71603 0
M  V30 2725 H 499.058 4.797 -7.24003 0
M  V30 2726 H 498.788 3.69856 -5.84513 0
M  V30 2727 H 499.655 6.10356 -5.41441 0
M  V30 2728 P 503.617 7.20834 -5.23717 0
M  V30 2729 O 503.837 8.66104 -5.38572 0
M  V30 2730 O 504.407 6.33544 -6.1349 0
M  V30 2731 O 503.867 6.7751 -3.72168 0
M  V30 2732 C 502.927 7.20825 -2.7076 0
M  V30 2733 C 503.657 7.45864 -1.40599 0
M  V30 2734 O 503.867 6.17651 -0.734225 0
M  V30 2735 C 505.057 8.05808 -1.51899 0
M  V30 2736 O 505.447 8.74358 -0.335205 0
M  V30 2737 C 505.937 6.83093 -1.70294 0
M  V30 2738 C 505.227 5.79992 -0.836974 0
M  V30 2739 N 505.277 4.41864 -1.38293 0
M  V30 2740 H 502.438 8.13644 -3.0377 0
M  V30 2741 H 502.168 6.42788 -2.55485 0
M  V30 2742 H 503.035 8.12039 -0.792769 0
M  V30 2743 P 506.997 8.91 3.06942e-12 0
M  V30 2744 O 507.217 10.1726 0.733694 0
M  V30 2745 O 507.787 8.73148 -1.23936 0
M  V30 2746 O 507.247 7.66872 0.971405 0
M  V30 2747 C 506.307 7.42309 2.04641 0
M  V30 2748 C 507.037 6.86059 3.24661 0
M  V30 2749 O 507.247 5.42847 3.03646 0
M  V30 2750 C 508.437 7.41196 3.50753 0
M  V30 2751 O 508.827 7.27073 4.86816 0
M  V30 2752 C 509.317 6.5273 2.63741 0
M  V30 2753 C 508.607 5.1842 2.73198 0
M  V30 2754 N 508.657 4.38762 1.4784 0
M  V30 2755 H 505.818 8.36803 2.32493 0
M  V30 2756 H 505.548 6.70197 1.71129 0
M  V30 2757 H 506.415 7.03551 4.13168 0
M  V30 2758 P 510.377 7.20834 5.23717 0
M  V30 2759 O 510.597 7.79853 6.57286 0
M  V30 2760 O 511.167 7.79239 4.12957 0
M  V30 2761 O 510.627 5.63315 5.29344 0
M  V30 2762 C 509.687 4.80255 6.01876 0
M  V30 2763 C 510.417 3.64202 6.65911 0
M  V30 2764 O 510.627 2.60694 5.64732 0
M  V30 2765 C 511.817 3.93473 7.1943 0
M  V30 2766 O 512.207 3.02071 8.21205 0
M  V30 2767 C 512.697 3.73047 5.97036 0
M  V30 2768 C 511.987 2.58828 5.25741 0
M  V30 2769 N 512.037 2.68068 3.77503 0
M  V30 2770 H 509.198 5.40332 6.79951 0
M  V30 2771 H 508.928 4.41613 5.32378 0
M  V30 2772 H 509.795 3.26331 7.47797 0
M  V30 2773 P 513.757 2.75334 8.47391 0
M  V30 2774 O 513.977 2.44571 9.90142 0
M  V30 2775 O 514.547 3.87688 7.92115 0
M  V30 2776 O 514.007 1.4459 7.59357 0
M  V30 2777 C 513.067 0.347608 7.69215 0
M  V30 2778 C 513.797 -0.96767 7.52806 0
M  V30 2779 O 514.007 -1.21036 6.1011 0
M  V30 2780 C 515.197 -1.04544 8.13308 0
M  V30 2781 O 515.587 -2.38311 8.41922 0
M  V30 2782 C 516.077 -0.491279 7.02284 0
M  V30 2783 C 515.367 -0.996264 5.77469 0
M  V30 2784 N 515.417 -0.0501916 4.62973 0
M  V30 2785 H 512.578 0.374722 8.67691 0
M  V30 2786 H 512.308 0.443485 6.90277 0
M  V30 2787 H 513.175 -1.75537 7.96793 0
M  V30 2788 P 517.137 -2.75334 8.47391 0
M  V30 2789 O 517.357 -3.84128 9.44797 0
M  V30 2790 O 517.927 -1.51947 8.68712 0
M  V30 2791 O 517.387 -3.29363 6.99321 0
M  V30 2792 C 516.447 -4.24011 6.4274 0
M  V30 2793 C 517.177 -5.20775 5.52155 0
M  V30 2794 O 517.387 -4.56534 4.22446 0
M  V30 2795 C 518.577 -5.62629 5.96531 0
M  V30 2796 O 518.967 -6.87667 5.41053 0
M  V30 2797 C 519.457 -4.52537 5.39283 0
M  V30 2798 C 518.747 -4.20027 4.08623 0
M  V30 2799 N 518.797 -2.76189 3.71603 0
M  V30 2800 H 515.958 -4.797 7.24003 0
M  V30 2801 H 515.688 -3.69856 5.84513 0
M  V30 2802 H 516.555 -6.10356 5.41441 0
M  V30 2803 P 520.517 -7.20834 5.23717 0
M  V30 2804 O 520.737 -8.66104 5.38572 0
M  V30 2805 O 521.307 -6.33544 6.1349 0
M  V30 2806 O 520.767 -6.7751 3.72168 0
M  V30 2807 C 519.827 -7.20825 2.7076 0
M  V30 2808 C 520.557 -7.45864 1.40599 0
M  V30 2809 O 520.767 -6.17651 0.734225 0
M  V30 2810 C 521.957 -8.05808 1.51899 0
M  V30 2811 O 522.347 -8.74358 0.335205 0
M  V30 2812 C 522.837 -6.83093 1.70294 0
M  V30 2813 C 522.127 -5.79992 0.836974 0
M  V30 2814 N 522.177 -4.41864 1.38293 0
M  V30 2815 H 519.338 -8.13644 3.0377 0
M  V30 2816 H 519.068 -6.42788 2.55485 0
M  V30 2817 H 519.935 -8.12039 0.792769 0
M  V30 2818 P 523.897 -8.91 -3.22661e-12 0
M  V30 2819 O 524.117 -10.1746 -0.733838 0
M  V30 2820 O 524.687 -8.73346 1.23964 0
M  V30 2821 O 524.147 -7.66872 -0.971405 0
M  V30 2822 C 523.207 -7.42405 -2.04668 0
M  V30 2823 C 523.937 -6.86059 -3.24661 0
M  V30 2824 O 524.147 -5.42934 -3.03695 0
M  V30 2825 C 525.337 -7.41287 -3.50796 0
M  V30 2826 O 525.727 -7.27073 -4.86816 0
M  V30 2827 C 526.217 -6.5273 -2.63741 0
M  V30 2828 C 525.507 -5.1842 -2.73198 0
M  V30 2829 N 525.557 -4.38762 -1.4784 0
M  V30 2830 H 522.719 -8.36899 -2.3252 0
M  V30 2831 H 522.447 -6.70391 -1.71179 0
M  V30 2832 H 523.315 -7.03638 -4.13219 0
M  V30 2833 H 525.97 -4.59931 -3.54016 0
M  V30 2834 H 526.25 -6.88995 -1.59871 0
M  V30 2835 H 527.241 -6.4684 -3.0373 0
M  V30 2836 H 525.407 -8.47002 -3.20749 0
M  V30 2837 P 527.277 -7.20834 -5.23717 0
M  V30 2838 O 527.497 -7.79853 -6.57286 0
M  V30 2839 O 528.067 -7.79239 -4.12957 0
M  V30 2840 O 527.527 -5.63315 -5.29344 0
M  V30 2841 C 526.587 -4.80255 -6.01876 0
M  V30 2842 C 527.317 -3.64202 -6.65911 0
M  V30 2843 O 527.527 -2.60694 -5.64732 0
M  V30 2844 C 528.717 -3.93473 -7.1943 0
M  V30 2845 O 529.107 -3.02071 -8.21205 0
M  V30 2846 C 529.597 -3.73047 -5.97036 0
M  V30 2847 C 528.887 -2.58828 -5.25741 0
M  V30 2848 N 528.937 -2.68068 -3.77503 0
M  V30 2849 H 526.098 -5.40332 -6.79951 0
M  V30 2850 H 525.828 -4.41613 -5.32378 0
M  V30 2851 H 526.695 -3.26331 -7.47797 0
M  V30 2852 P 530.657 -2.75334 -8.47391 0
M  V30 2853 O 530.877 -2.44571 -9.90142 0
M  V30 2854 O 531.447 -3.87688 -7.92115 0
M  V30 2855 O 530.907 -1.4459 -7.59357 0
M  V30 2856 C 529.967 -0.347608 -7.69215 0
M  V30 2857 C 530.697 0.96767 -7.52806 0
M  V30 2858 O 530.907 1.21036 -6.1011 0
M  V30 2859 C 532.097 1.04544 -8.13308 0
M  V30 2860 O 532.487 2.38311 -8.41922 0
M  V30 2861 C 532.977 0.491279 -7.02284 0
M  V30 2862 C 532.267 0.996264 -5.77469 0
M  V30 2863 N 532.317 0.0501916 -4.62973 0
M  V30 2864 H 529.478 -0.374722 -8.67691 0
M  V30 2865 H 529.208 -0.443485 -6.90277 0
M  V30 2866 H 530.075 1.75537 -7.96793 0
M  V30 2867 P 534.037 2.75334 -8.47391 0
M  V30 2868 O 534.257 3.84128 -9.44797 0
M  V30 2869 O 534.827 1.51947 -8.68712 0
M  V30 2870 O 534.287 3.29363 -6.99321 0
M  V30 2871 C 533.347 4.24011 -6.4274 0
M  V30 2872 C 534.077 5.20775 -5.52155 0
M  V30 2873 O 534.287 4.56534 -4.22446 0
M  V30 2874 C 535.477 5.62629 -5.96531 0
M  V30 2875 O 535.867 6.87667 -5.41053 0
M  V30 2876 C 536.357 4.52537 -5.39283 0
M  V30 2877 C 535.647 4.20027 -4.08623 0
M  V30 2878 N 535.697 2.76189 -3.71603 0
M  V30 2879 H 532.858 4.797 -7.24003 0
M  V30 2880 H 532.588 3.69856 -5.84513 0
M  V30 2881 H 533.455 6.10356 -5.41441 0
M  V30 2882 P 537.417 7.20834 -5.23717 0
M  V30 2883 O 537.637 8.66104 -5.38572 0
M  V30 2884 O 538.207 6.33544 -6.1349 0
M  V30 2885 O 537.667 6.7751 -3.72168 0
M  V30 2886 C 536.727 7.20825 -2.7076 0
M  V30 2887 C 537.457 7.45864 -1.40599 0
M  V30 2888 O 537.667 6.17651 -0.734225 0
M  V30 2889 C 538.857 8.05808 -1.51899 0
M  V30 2890 O 539.247 8.74358 -0.335205 0
M  V30 2891 C 539.737 6.83093 -1.70294 0
M  V30 2892 C 539.027 5.79992 -0.836974 0
M  V30 2893 N 539.077 4.41864 -1.38293 0
M  V30 2894 H 536.238 8.13644 -3.0377 0
M  V30 2895 H 535.968 6.42788 -2.55485 0
M  V30 2896 H 536.835 8.12039 -0.792769 0
M  V30 2897 P 540.797 8.91 3.38379e-12 0
M  V30 2898 O 541.017 10.1726 0.733694 0
M  V30 2899 O 541.587 8.73148 -1.23936 0
M  V30 2900 O 541.047 7.66872 0.971405 0
M  V30 2901 C 540.107 7.42309 2.04641 0
M  V30 2902 C 540.837 6.86059 3.24661 0
M  V30 2903 O 541.047 5.42847 3.03646 0
M  V30 2904 C 542.237 7.41196 3.50753 0
M  V30 2905 O 542.627 7.27073 4.86816 0
M  V30 2906 C 543.117 6.5273 2.63741 0
M  V30 2907 C 542.407 5.1842 2.73198 0
M  V30 2908 N 542.457 4.38762 1.4784 0
M  V30 2909 H 539.618 8.36803 2.32493 0
M  V30 2910 H 539.348 6.70197 1.71129 0
M  V30 2911 H 540.215 7.03551 4.13168 0
M  V30 2912 P 544.177 7.20834 5.23717 0
M  V30 2913 O 544.397 7.79853 6.57286 0
M  V30 2914 O 544.967 7.79239 4.12957 0
M  V30 2915 O 544.427 5.63315 5.29344 0
M  V30 2916 C 543.487 4.80255 6.01876 0
M  V30 2917 C 544.217 3.64202 6.65911 0
M  V30 2918 O 544.427 2.60694 5.64732 0
M  V30 2919 C 545.617 3.93473 7.1943 0
M  V30 2920 O 546.007 3.02071 8.21205 0
M  V30 2921 C 546.497 3.73047 5.97036 0
M  V30 2922 C 545.787 2.58828 5.25741 0
M  V30 2923 N 545.837 2.68068 3.77503 0
M  V30 2924 H 542.998 5.40332 6.79951 0
M  V30 2925 H 542.728 4.41613 5.32378 0
M  V30 2926 H 543.595 3.26331 7.47797 0
M  V30 2927 P 547.557 2.75334 8.47391 0
M  V30 2928 O 547.777 2.44571 9.90142 0
M  V30 2929 O 548.347 3.87688 7.92115 0
M  V30 2930 O 547.807 1.4459 7.59357 0
M  V30 2931 C 546.867 0.347608 7.69215 0
M  V30 2932 C 547.597 -0.96767 7.52806 0
M  V30 2933 O 547.807 -1.21036 6.1011 0
M  V30 2934 C 548.997 -1.04544 8.13308 0
M  V30 2935 O 549.387 -2.38311 8.41922 0
M  V30 2936 C 549.877 -0.491279 7.02284 0
M  V30 2937 C 549.167 -0.996264 5.77469 0
M  V30 2938 N 549.217 -0.0501916 4.62973 0
M  V30 2939 H 546.378 0.374722 8.67691 0
M  V30 2940 H 546.108 0.443485 6.90277 0
M  V30 2941 H 546.975 -1.75537 7.96793 0
M  V30 2942 P 550.937 -2.75334 8.47391 0
M  V30 2943 O 551.157 -3.84128 9.44797 0
M  V30 2944 O 551.727 -1.51947 8.68712 0
M  V30 2945 O 551.187 -3.29363 6.99321 0
M  V30 2946 C 550.247 -4.24011 6.4274 0
M  V30 2947 C 550.977 -5.20775 5.52155 0
M  V30 2948 O 551.187 -4.56534 4.22446 0
M  V30 2949 C 552.377 -5.62629 5.96531 0
M  V30 2950 O 552.767 -6.87667 5.41053 0
M  V30 2951 C 553.257 -4.52537 5.39283 0
M  V30 2952 C 552.547 -4.20027 4.08623 0
M  V30 2953 N 552.597 -2.76189 3.71603 0
M  V30 2954 H 549.758 -4.797 7.24003 0
M  V30 2955 H 549.488 -3.69856 5.84513 0
M  V30 2956 H 550.355 -6.10356 5.41441 0
M  V30 2957 P 554.317 -7.20834 5.23717 0
M  V30 2958 O 554.537 -8.66104 5.38572 0
M  V30 2959 O 555.107 -6.33544 6.1349 0
M  V30 2960 O 554.567 -6.7751 3.72168 0
M  V30 2961 C 553.627 -7.20825 2.7076 0
M  V30 2962 C 554.357 -7.45864 1.40599 0
M  V30 2963 O 554.567 -6.17651 0.734225 0
M  V30 2964 C 555.757 -8.05808 1.51899 0
M  V30 2965 O 556.147 -8.74358 0.335205 0
M  V30 2966 C 556.637 -6.83093 1.70294 0
M  V30 2967 C 555.927 -5.79992 0.836974 0
M  V30 2968 N 555.977 -4.41864 1.38293 0
M  V30 2969 C 555.897 -3.99538 2.69438 0
M  V30 2970 N 555.977 -2.69909 2.84277 0
M  V30 2971 C 556.117 -2.21719 1.5408 0
M  V30 2972 C 556.247 -0.891712 1.06628 0
M  V30 2973 O 556.267 0.161298 1.70137 0
M  V30 2974 N 556.367 -0.856846 -0.334985 0
M  V30 2975 C 556.367 -1.9641 -1.15789 0
M  V30 2976 N 556.497 -1.72708 -2.46522 0
M  V30 2977 N 556.237 -3.21165 -0.713741 0
M  V30 2978 C 556.117 -3.26797 0.639748 0
M  V30 2979 H 553.138 -8.13644 3.0377 0
M  V30 2980 H 552.868 -6.42788 2.55485 0
M  V30 2981 H 553.735 -8.12039 0.792769 0
M  V30 2982 H 556.39 -5.80061 -0.166416 0
M  V30 2983 H 556.669 -6.51287 2.75604 0
M  V30 2984 H 557.661 -7.01734 1.34462 0
M  V30 2985 H 555.827 -8.73674 2.38337 0
M  V30 2986 H 555.778 -4.68207 3.53221 0
M  V30 2987 H 556.46 0.0398818 -0.767965 0
M  V30 2988 H 556.497 -2.50995 -3.13503 0
M  V30 2989 H 556.598 -0.759148 -2.80716 0
M  V30 2990 P 557.697 -8.91 -3.54097e-12 0
M  V30 2991 O 557.917 -10.1726 -0.733694 0
M  V30 2992 O 558.487 -8.73148 1.23936 0
M  V30 2993 O 557.947 -7.66872 -0.971405 0
M  V30 2994 C 557.007 -7.42309 -2.04641 0
M  V30 2995 C 557.737 -6.86059 -3.24661 0
M  V30 2996 O 557.947 -5.42847 -3.03646 0
M  V30 2997 C 559.137 -7.41196 -3.50753 0
M  V30 2998 O 559.527 -7.27073 -4.86816 0
M  V30 2999 C 560.017 -6.5273 -2.63741 0
M  V30 3000 C 559.307 -5.1842 -2.73198 0
M  V30 3001 N 559.357 -4.38762 -1.4784 0
M  V30 3002 H 556.518 -8.36803 -2.32493 0
M  V30 3003 H 556.248 -6.70197 -1.71129 0
M  V30 3004 H 557.115 -7.03551 -4.13168 0
M  V30 3005 P 561.077 -7.20834 -5.23717 0
M  V30 3006 O 561.297 -7.79853 -6.57286 0
M  V30 3007 O 561.867 -7.79239 -4.12957 0
M  V30 3008 O 561.327 -5.63315 -5.29344 0
M  V30 3009 C 560.387 -4.80255 -6.01876 0
M  V30 3010 C 561.117 -3.64202 -6.65911 0
M  V30 3011 O 561.327 -2.60694 -5.64732 0
M  V30 3012 C 562.517 -3.93473 -7.1943 0
M  V30 3013 O 562.907 -3.02071 -8.21205 0
M  V30 3014 C 563.397 -3.73047 -5.97036 0
M  V30 3015 C 562.687 -2.58828 -5.25741 0
M  V30 3016 N 562.737 -2.68068 -3.77503 0
M  V30 3017 H 559.898 -5.40332 -6.79951 0
M  V30 3018 H 559.628 -4.41613 -5.32378 0
M  V30 3019 H 560.495 -3.26331 -7.47797 0
M  V30 3020 P 564.457 -2.75334 -8.47391 0
M  V30 3021 O 564.677 -2.44571 -9.90142 0
M  V30 3022 O 565.247 -3.87688 -7.92115 0
M  V30 3023 O 564.707 -1.4459 -7.59357 0
M  V30 3024 C 563.767 -0.347608 -7.69215 0
M  V30 3025 C 564.497 0.96767 -7.52806 0
M  V30 3026 O 564.707 1.21036 -6.1011 0
M  V30 3027 C 565.897 1.04544 -8.13308 0
M  V30 3028 O 566.287 2.38311 -8.41922 0
M  V30 3029 C 566.777 0.491279 -7.02284 0
M  V30 3030 C 566.067 0.996264 -5.77469 0
M  V30 3031 N 566.117 0.0501916 -4.62973 0
M  V30 3032 H 563.278 -0.374722 -8.67691 0
M  V30 3033 H 563.008 -0.443485 -6.90277 0
M  V30 3034 H 563.875 1.75537 -7.96793 0
M  V30 3035 P 567.837 2.75334 -8.47391 0
M  V30 3036 O 568.057 3.84166 -9.4489 0
M  V30 3037 O 568.627 1.51964 -8.6881 0
M  V30 3038 O 568.087 3.29363 -6.99321 0
M  V30 3039 C 567.147 4.23956 -6.42656 0
M  V30 3040 C 567.877 5.20775 -5.52155 0
M  V30 3041 O 568.087 4.56534 -4.22446 0
M  V30 3042 C 569.277 5.62629 -5.96531 0
M  V30 3043 O 569.667 6.87667 -5.41053 0
M  V30 3044 C 570.157 4.52537 -5.39283 0
M  V30 3045 C 569.447 4.20027 -4.08623 0
M  V30 3046 N 569.497 2.7613 -3.71522 0
M  V30 3047 C 569.647 2.45612 -2.37989 0
M  V30 3048 O 569.737 3.30919 -1.51621 0
M  V30 3049 N 569.687 1.10684 -2.08435 0
M  V30 3050 C 569.597 0.0690084 -2.9792 0
M  V30 3051 C 569.447 0.481522 -4.35345 0
M  V30 3052 C 569.397 1.78906 -4.67968 0
M  V30 3053 H 566.657 4.797 -7.24003 0
M  V30 3054 H 566.388 3.69802 -5.84429 0
M  V30 3055 H 567.255 6.10356 -5.41441 0
M  V30 3056 H 569.91 4.78651 -3.27911 0
M  V30 3057 H 570.189 3.64957 -6.05871 0
M  V30 3058 H 571.181 4.8868 -5.2125 0
M  V30 3059 H 569.347 5.66726 -7.06352 0
M  V30 3060 H 569.276 2.07737 -5.72367 0
M  V30 3061 P 571.217 7.20834 -5.23717 0
M  V30 3062 O 571.437 8.66104 -5.38572 0
M  V30 3063 O 572.007 6.33544 -6.1349 0
M  V30 3064 O 571.467 6.7751 -3.72168 0
M  V30 3065 C 570.527 7.20825 -2.7076 0
M  V30 3066 C 571.257 7.45864 -1.40599 0
M  V30 3067 O 571.467 6.17651 -0.734225 0
M  V30 3068 C 572.657 8.05808 -1.51899 0
M  V30 3069 O 573.047 8.74358 -0.335205 0
M  V30 3070 C 573.537 6.83093 -1.70294 0
M  V30 3071 C 572.827 5.79992 -0.836974 0
M  V30 3072 N 572.877 4.41864 -1.38293 0
M  V30 3073 H 570.038 8.13644 -3.0377 0
M  V30 3074 H 569.768 6.42788 -2.55485 0
M  V30 3075 H 570.635 8.12039 -0.792769 0
M  V30 3076 P 574.597 8.91 3.69815e-12 0
M  V30 3077 O 574.817 10.1726 0.733694 0
M  V30 3078 O 575.387 8.73148 -1.23936 0
M  V30 3079 O 574.847 7.66872 0.971405 0
M  V30 3080 C 573.907 7.42309 2.04641 0
M  V30 3081 C 574.637 6.86059 3.24661 0
M  V30 3082 O 574.847 5.42847 3.03646 0
M  V30 3083 C 576.037 7.41196 3.50753 0
M  V30 3084 O 576.427 7.27073 4.86816 0
M  V30 3085 C 576.917 6.5273 2.63741 0
M  V30 3086 C 576.207 5.1842 2.73198 0
M  V30 3087 N 576.257 4.38762 1.4784 0
M  V30 3088 H 573.418 8.36803 2.32493 0
M  V30 3089 H 573.148 6.70197 1.71129 0
M  V30 3090 H 574.015 7.03551 4.13168 0
M  V30 3091 P 577.977 7.20834 5.23717 0
M  V30 3092 O 578.197 7.79853 6.57286 0
M  V30 3093 O 578.767 7.79239 4.12957 0
M  V30 3094 O 578.227 5.63315 5.29344 0
M  V30 3095 C 577.287 4.80255 6.01876 0
M  V30 3096 C 578.017 3.64202 6.65911 0
M  V30 3097 O 578.227 2.60694 5.64732 0
M  V30 3098 C 579.417 3.93473 7.1943 0
M  V30 3099 O 579.807 3.02071 8.21205 0
M  V30 3100 C 580.297 3.73047 5.97036 0
M  V30 3101 C 579.587 2.58828 5.25741 0
M  V30 3102 N 579.637 2.68068 3.77503 0
M  V30 3103 H 576.798 5.40332 6.79951 0
M  V30 3104 H 576.528 4.41613 5.32378 0
M  V30 3105 H 577.395 3.26331 7.47797 0
M  V30 3106 P 581.357 2.75334 8.47391 0
M  V30 3107 O 581.577 2.44571 9.90142 0
M  V30 3108 O 582.147 3.87688 7.92115 0
M  V30 3109 O 581.607 1.4459 7.59357 0
M  V30 3110 C 580.667 0.347608 7.69215 0
M  V30 3111 C 581.397 -0.96767 7.52806 0
M  V30 3112 O 581.607 -1.21036 6.1011 0
M  V30 3113 C 582.797 -1.04544 8.13308 0
M  V30 3114 O 583.187 -2.38311 8.41922 0
M  V30 3115 C 583.677 -0.491279 7.02284 0
M  V30 3116 C 582.967 -0.996264 5.77469 0
M  V30 3117 N 583.017 -0.0501916 4.62973 0
M  V30 3118 H 580.178 0.374722 8.67691 0
M  V30 3119 H 579.908 0.443485 6.90277 0
M  V30 3120 H 580.775 -1.75537 7.96793 0
M  V30 3121 P 584.737 -2.75334 8.47391 0
M  V30 3122 O 584.957 -3.84166 9.4489 0
M  V30 3123 O 585.527 -1.51964 8.6881 0
M  V30 3124 O 584.987 -3.29363 6.99321 0
M  V30 3125 C 584.047 -4.23956 6.42656 0
M  V30 3126 C 584.777 -5.20775 5.52155 0
M  V30 3127 O 584.987 -4.56534 4.22446 0
M  V30 3128 C 586.177 -5.62629 5.96531 0
M  V30 3129 O 586.567 -6.87667 5.41053 0
M  V30 3130 C 587.057 -4.52537 5.39283 0
M  V30 3131 C 586.347 -4.20027 4.08623 0
M  V30 3132 N 586.397 -2.7613 3.71522 0
M  V30 3133 C 586.547 -2.45612 2.37989 0
M  V30 3134 O 586.637 -3.30919 1.51621 0
M  V30 3135 N 586.587 -1.10684 2.08435 0
M  V30 3136 C 586.497 -0.0690084 2.9792 0
M  V30 3137 C 586.347 -0.481522 4.35345 0
M  V30 3138 C 586.297 -1.78906 4.67968 0
M  V30 3139 H 583.557 -4.797 7.24003 0
M  V30 3140 H 583.288 -3.69802 5.84429 0
M  V30 3141 H 584.155 -6.10356 5.41441 0
M  V30 3142 H 586.81 -4.78651 3.27911 0
M  V30 3143 H 587.089 -3.64957 6.05871 0
M  V30 3144 H 588.081 -4.8868 5.2125 0
M  V30 3145 H 586.247 -5.66726 7.06352 0
M  V30 3146 H 586.176 -2.07737 5.72367 0
M  V30 3147 P 588.117 -7.20834 5.23717 0
M  V30 3148 O 588.337 -8.66104 5.38572 0
M  V30 3149 O 588.907 -6.33544 6.1349 0
M  V30 3150 O 588.367 -6.7751 3.72168 0
M  V30 3151 C 587.427 -7.20825 2.7076 0
M  V30 3152 C 588.157 -7.45864 1.40599 0
M  V30 3153 O 588.367 -6.17651 0.734225 0
M  V30 3154 C 589.557 -8.05808 1.51899 0
M  V30 3155 O 589.947 -8.74358 0.335205 0
M  V30 3156 C 590.437 -6.83093 1.70294 0
M  V30 3157 C 589.727 -5.79992 0.836974 0
M  V30 3158 N 589.777 -4.41864 1.38293 0
M  V30 3159 H 586.938 -8.13644 3.0377 0
M  V30 3160 H 586.668 -6.42788 2.55485 0
M  V30 3161 H 587.535 -8.12039 0.792769 0
M  V30 3162 P 591.496 -8.91 -3.85533e-12 0
M  V30 3163 O 591.716 -10.1726 -0.733694 0
M  V30 3164 O 592.286 -8.73148 1.23936 0
M  V30 3165 O 591.746 -7.66872 -0.971405 0
M  V30 3166 C 590.806 -7.42309 -2.04641 0
M  V30 3167 C 591.536 -6.86059 -3.24661 0
M  V30 3168 O 591.746 -5.42847 -3.03646 0
M  V30 3169 C 592.937 -7.41196 -3.50753 0
M  V30 3170 O 593.327 -7.27073 -4.86816 0
M  V30 3171 C 593.817 -6.5273 -2.63741 0
M  V30 3172 C 593.106 -5.1842 -2.73198 0
M  V30 3173 N 593.156 -4.38762 -1.4784 0
M  V30 3174 H 590.317 -8.36803 -2.32493 0
M  V30 3175 H 590.048 -6.70197 -1.71129 0
M  V30 3176 H 590.914 -7.03551 -4.13168 0
M  V30 3177 P 594.876 -7.20834 -5.23717 0
M  V30 3178 O 595.096 -7.7993 -6.57351 0
M  V30 3179 O 595.666 -7.79328 -4.13004 0
M  V30 3180 O 595.126 -5.63315 -5.29344 0
M  V30 3181 C 594.186 -4.80193 -6.01798 0
M  V30 3182 C 594.916 -3.64202 -6.65911 0
M  V30 3183 O 595.126 -2.60694 -5.64732 0
M  V30 3184 C 596.316 -3.93473 -7.1943 0
M  V30 3185 O 596.706 -3.02071 -8.21205 0
M  V30 3186 C 597.196 -3.73047 -5.97036 0
M  V30 3187 C 596.486 -2.58828 -5.25741 0
M  V30 3188 N 596.536 -2.6801 -3.77422 0
M  V30 3189 C 596.686 -1.50443 -3.07133 0
M  V30 3190 O 596.776 -0.419406 -3.61576 0
M  V30 3191 N 596.726 -1.6403 -1.69677 0
M  V30 3192 C 596.636 -2.81206 -0.986255 0
M  V30 3193 O 596.686 -2.80892 0.249754 0
M  V30 3194 C 596.486 -3.99158 -1.80325 0
M  V30 3195 C 596.376 -5.29309 -1.06921 0
M  V30 3196 C 596.436 -3.89779 -3.1476 0
M  V30 3197 H 593.696 -5.40332 -6.79951 0
M  V30 3198 H 593.427 -4.41549 -5.32301 0
M  V30 3199 H 594.294 -3.26331 -7.47797 0
M  V30 3200 H 596.949 -1.6395 -5.56554 0
M  V30 3201 H 597.228 -4.63439 -5.3432 0
M  V30 3202 H 598.22 -3.44728 -6.25838 0
M  V30 3203 H 596.386 -4.96652 -7.57263 0
M  V30 3204 H 596.315 -4.80159 -3.74441 0
M  V30 3205 H 597.345 -5.81459 -1.09608 0
M  V30 3206 H 595.608 -5.9187 -1.54487 0
M  V30 3207 H 596.096 -5.10095 -0.0220288 0
M  V30 3208 H 596.832 -0.798962 -1.16664 0
M  V30 3209 P 598.256 -2.75334 -8.47391 0
M  V30 3210 O 598.476 -2.44571 -9.90142 0
M  V30 3211 O 599.046 -3.87688 -7.92115 0
M  V30 3212 O 598.506 -1.4459 -7.59357 0
M  V30 3213 C 597.566 -0.347608 -7.69215 0
M  V30 3214 C 598.296 0.96767 -7.52806 0
M  V30 3215 O 598.506 1.21036 -6.1011 0
M  V30 3216 C 599.696 1.04544 -8.13308 0
M  V30 3217 O 600.086 2.38311 -8.41922 0
M  V30 3218 C 600.576 0.491279 -7.02284 0
M  V30 3219 C 599.866 0.996264 -5.77469 0
M  V30 3220 N 599.916 0.0501916 -4.62973 0
M  V30 3221 H 597.077 -0.374722 -8.67691 0
M  V30 3222 H 596.807 -0.443485 -6.90277 0
M  V30 3223 H 597.674 1.75537 -7.96793 0
M  V30 3224 P 601.636 2.75334 -8.47391 0
M  V30 3225 O 601.856 3.84204 -9.44982 0
M  V30 3226 O 602.426 1.51982 -8.68909 0
M  V30 3227 O 601.886 3.29363 -6.99321 0
M  V30 3228 C 600.946 4.24066 -6.42823 0
M  V30 3229 C 601.676 5.20775 -5.52155 0
M  V30 3230 O 601.886 4.56607 -4.22514 0
M  V30 3231 C 603.076 5.62697 -5.96604 0
M  V30 3232 O 603.466 6.87667 -5.41053 0
M  V30 3233 C 603.956 4.52537 -5.39283 0
M  V30 3234 C 603.246 4.20027 -4.08623 0
M  V30 3235 N 603.296 2.76189 -3.71603 0
M  V30 3236 C 603.216 1.66944 -4.54297 0
M  V30 3237 N 603.286 0.536169 -3.91344 0
M  V30 3238 C 603.436 0.901569 -2.58849 0
M  V30 3239 C 603.566 0.146599 -1.40236 0
M  V30 3240 N 603.576 -1.18234 -1.37046 0
M  V30 3241 N 603.686 0.822941 -0.249738 0
M  V30 3242 C 603.676 2.15179 -0.280525 0
M  V30 3243 N 603.556 2.96414 -1.30822 0
M  V30 3244 C 603.436 2.25804 -2.44748 0
M  V30 3245 H 600.458 4.79756 -7.24086 0
M  V30 3246 H 600.186 3.69963 -5.84682 0
M  V30 3247 H 601.054 6.10431 -5.41508 0
M  V30 3248 H 603.709 4.78816 -3.28024 0
M  V30 3249 H 603.989 3.64957 -6.05871 0
M  V30 3250 H 604.98 4.88748 -5.21323 0
M  V30 3251 H 603.146 5.66789 -7.0643 0
M  V30 3252 H 603.105 1.74684 -5.62396 0
M  V30 3253 H 603.486 -1.71949 -2.24394 0
M  V30 3254 H 603.675 -1.67511 -0.470742 0
M  V30 3255 H 603.783 2.63704 0.6828 0
M  V30 3256 P 605.016 7.20834 -5.23717 0
M  V30 3257 O 605.236 8.66104 -5.38572 0
M  V30 3258 O 605.806 6.33544 -6.1349 0
M  V30 3259 O 605.266 6.7751 -3.72168 0
M  V30 3260 C 604.326 7.20825 -2.7076 0
M  V30 3261 C 605.056 7.45864 -1.40599 0
M  V30 3262 O 605.266 6.17651 -0.734225 0
M  V30 3263 C 606.456 8.05808 -1.51899 0
M  V30 3264 O 606.846 8.74358 -0.335205 0
M  V30 3265 C 607.336 6.83093 -1.70294 0
M  V30 3266 C 606.626 5.79992 -0.836974 0
M  V30 3267 N 606.676 4.41864 -1.38293 0
M  V30 3268 H 603.837 8.13644 -3.0377 0
M  V30 3269 H 603.567 6.42788 -2.55485 0
M  V30 3270 H 604.434 8.12039 -0.792769 0
M  V30 3271 P 608.396 8.91 4.01252e-12 0
M  V30 3272 O 608.616 10.1736 0.733766 0
M  V30 3273 O 609.186 8.73247 -1.2395 0
M  V30 3274 O 608.646 7.66872 0.971405 0
M  V30 3275 C 607.706 7.42212 2.04614 0
M  V30 3276 C 608.436 6.86059 3.24661 0
M  V30 3277 O 608.646 5.42847 3.03646 0
M  V30 3278 C 609.836 7.41196 3.50753 0
M  V30 3279 O 610.226 7.27073 4.86816 0
M  V30 3280 C 610.716 6.5273 2.63741 0
M  V30 3281 C 610.006 5.1842 2.73198 0
M  V30 3282 N 610.056 4.38668 1.47808 0
M  V30 3283 C 610.206 3.02239 1.60048 0
M  V30 3284 O 610.296 2.46459 2.67869 0
M  V30 3285 N 610.246 2.32436 0.408571 0
M  V30 3286 C 610.156 2.85471 -0.854993 0
M  V30 3287 C 610.006 4.28918 -0.887335 0
M  V30 3288 C 609.956 5.00349 0.255399 0
M  V30 3289 H 607.216 8.36803 2.32493 0
M  V30 3290 H 606.947 6.701 1.71105 0
M  V30 3291 H 607.814 7.03551 4.13168 0
M  V30 3292 H 610.469 4.59773 3.53894 0
M  V30 3293 H 610.748 6.88995 1.59871 0
M  V30 3294 H 611.74 6.46749 3.03687 0
M  V30 3295 H 609.906 8.46908 3.20714 0
M  V30 3296 H 609.835 6.08548 0.206986 0
M  V30 3297 P 611.776 7.20834 5.23717 0
M  V30 3298 O 611.996 7.79853 6.57286 0
M  V30 3299 O 612.566 7.79239 4.12957 0
M  V30 3300 O 612.026 5.63315 5.29344 0
M  V30 3301 C 611.086 4.80255 6.01876 0
M  V30 3302 C 611.816 3.64202 6.65911 0
M  V30 3303 O 612.026 2.60694 5.64732 0
M  V30 3304 C 613.216 3.93473 7.1943 0
M  V30 3305 O 613.606 3.02071 8.21205 0
M  V30 3306 C 614.096 3.73047 5.97036 0
M  V30 3307 C 613.386 2.58828 5.25741 0
M  V30 3308 N 613.436 2.68068 3.77503 0
M  V30 3309 H 610.597 5.40332 6.79951 0
M  V30 3310 H 610.327 4.41613 5.32378 0
M  V30 3311 H 611.194 3.26331 7.47797 0
M  V30 3312 P 615.156 2.75334 8.47391 0
M  V30 3313 O 615.376 2.44571 9.90142 0
M  V30 3314 O 615.946 3.87688 7.92115 0
M  V30 3315 O 615.406 1.4459 7.59357 0
M  V30 3316 C 614.466 0.347608 7.69215 0
M  V30 3317 C 615.196 -0.96767 7.52806 0
M  V30 3318 O 615.406 -1.21036 6.1011 0
M  V30 3319 C 616.596 -1.04544 8.13308 0
M  V30 3320 O 616.986 -2.38311 8.41922 0
M  V30 3321 C 617.476 -0.491279 7.02284 0
M  V30 3322 C 616.766 -0.996264 5.77469 0
M  V30 3323 N 616.816 -0.0501916 4.62973 0
M  V30 3324 H 613.977 0.374722 8.67691 0
M  V30 3325 H 613.707 0.443485 6.90277 0
M  V30 3326 H 614.574 -1.75537 7.96793 0
M  V30 3327 P 618.536 -2.75334 8.47391 0
M  V30 3328 O 618.756 -3.84128 9.44797 0
M  V30 3329 O 619.326 -1.51947 8.68712 0
M  V30 3330 O 618.786 -3.29363 6.99321 0
M  V30 3331 C 617.846 -4.24011 6.4274 0
M  V30 3332 C 618.576 -5.20775 5.52155 0
M  V30 3333 O 618.786 -4.56534 4.22446 0
M  V30 3334 C 619.976 -5.62629 5.96531 0
M  V30 3335 O 620.366 -6.87667 5.41053 0
M  V30 3336 C 620.856 -4.52537 5.39283 0
M  V30 3337 C 620.146 -4.20027 4.08623 0
M  V30 3338 N 620.196 -2.76189 3.71603 0
M  V30 3339 H 617.357 -4.797 7.24003 0
M  V30 3340 H 617.087 -3.69856 5.84513 0
M  V30 3341 H 617.954 -6.10356 5.41441 0
M  V30 3342 P 621.916 -7.20834 5.23717 0
M  V30 3343 O 622.136 -8.66274 5.38678 0
M  V30 3344 O 622.706 -6.33687 6.13629 0
M  V30 3345 O 622.166 -6.7751 3.72168 0
M  V30 3346 C 621.226 -7.20919 2.70795 0
M  V30 3347 C 621.956 -7.45864 1.40599 0
M  V30 3348 O 622.166 -6.17751 0.734343 0
M  V30 3349 C 623.356 -8.05906 1.51917 0
M  V30 3350 O 623.746 -8.74358 0.335205 0
M  V30 3351 C 624.236 -6.83093 1.70294 0
M  V30 3352 C 623.526 -5.79992 0.836974 0
M  V30 3353 N 623.576 -4.41864 1.38293 0
M  V30 3354 H 620.738 -8.13738 3.03804 0
M  V30 3355 H 620.466 -6.42974 2.55559 0
M  V30 3356 H 621.334 -8.12139 0.792866 0
M  V30 3357 H 623.989 -5.80178 -0.160643 0
M  V30 3358 H 624.269 -6.51379 2.75643 0
M  V30 3359 H 625.26 -7.01832 1.3448 0
M  V30 3360 H 623.426 -8.73771 2.38364 0
M  V30 3361 P 625.296 -8.91 -4.1697e-12 0
M  V30 3362 O 625.516 -10.1726 -0.733694 0
M  V30 3363 O 626.086 -8.73148 1.23936 0
M  V30 3364 O 625.546 -7.66872 -0.971405 0
M  V30 3365 C 624.606 -7.42309 -2.04641 0
M  V30 3366 C 625.336 -6.86059 -3.24661 0
M  V30 3367 O 625.546 -5.42847 -3.03646 0
M  V30 3368 C 626.736 -7.41196 -3.50753 0
M  V30 3369 O 627.126 -7.27073 -4.86816 0
M  V30 3370 C 627.616 -6.5273 -2.63741 0
M  V30 3371 C 626.906 -5.1842 -2.73198 0
M  V30 3372 N 626.956 -4.38762 -1.4784 0
M  V30 3373 H 624.117 -8.36803 -2.32493 0
M  V30 3374 H 623.847 -6.70197 -1.71129 0
M  V30 3375 H 624.714 -7.03551 -4.13168 0
M  V30 3376 P 628.676 -7.20834 -5.23717 0
M  V30 3377 O 628.896 -7.79853 -6.57286 0
M  V30 3378 O 629.466 -7.79239 -4.12957 0
M  V30 3379 O 628.926 -5.63315 -5.29344 0
M  V30 3380 C 627.986 -4.80255 -6.01876 0
M  V30 3381 C 628.716 -3.64202 -6.65911 0
M  V30 3382 O 628.926 -2.60694 -5.64732 0
M  V30 3383 C 630.116 -3.93473 -7.1943 0
M  V30 3384 O 630.506 -3.02071 -8.21205 0
M  V30 3385 C 630.996 -3.73047 -5.97036 0
M  V30 3386 C 630.286 -2.58828 -5.25741 0
M  V30 3387 N 630.336 -2.68068 -3.77503 0
M  V30 3388 H 627.497 -5.40332 -6.79951 0
M  V30 3389 H 627.227 -4.41613 -5.32378 0
M  V30 3390 H 628.094 -3.26331 -7.47797 0
M  V30 3391 P 632.056 -2.75334 -8.47391 0
M  V30 3392 O 632.276 -2.44571 -9.90142 0
M  V30 3393 O 632.846 -3.87688 -7.92115 0
M  V30 3394 O 632.306 -1.4459 -7.59357 0
M  V30 3395 C 631.366 -0.347608 -7.69215 0
M  V30 3396 C 632.096 0.96767 -7.52806 0
M  V30 3397 O 632.306 1.21036 -6.1011 0
M  V30 3398 C 633.496 1.04544 -8.13308 0
M  V30 3399 O 633.886 2.38311 -8.41922 0
M  V30 3400 C 634.376 0.491279 -7.02284 0
M  V30 3401 C 633.666 0.996264 -5.77469 0
M  V30 3402 N 633.716 0.0501916 -4.62973 0
M  V30 3403 H 630.877 -0.374722 -8.67691 0
M  V30 3404 H 630.607 -0.443485 -6.90277 0
M  V30 3405 H 631.474 1.75537 -7.96793 0
M  V30 3406 P 635.436 2.75334 -8.47391 0
M  V30 3407 O 635.656 3.84128 -9.44797 0
M  V30 3408 O 636.226 1.51947 -8.68712 0
M  V30 3409 O 635.686 3.29363 -6.99321 0
M  V30 3410 C 634.746 4.24011 -6.4274 0
M  V30 3411 C 635.476 5.20775 -5.52155 0
M  V30 3412 O 635.686 4.56534 -4.22446 0
M  V30 3413 C 636.876 5.62629 -5.96531 0
M  V30 3414 O 637.266 6.87667 -5.41053 0
M  V30 3415 C 637.756 4.52537 -5.39283 0
M  V30 3416 C 637.046 4.20027 -4.08623 0
M  V30 3417 N 637.096 2.76189 -3.71603 0
M  V30 3418 H 634.257 4.797 -7.24003 0
M  V30 3419 H 633.987 3.69856 -5.84513 0
M  V30 3420 H 634.854 6.10356 -5.41441 0
M  V30 3421 P 638.816 7.20834 -5.23717 0
M  V30 3422 O 639.036 8.66104 -5.38572 0
M  V30 3423 O 639.606 6.33544 -6.1349 0
M  V30 3424 O 639.066 6.7751 -3.72168 0
M  V30 3425 C 638.126 7.20825 -2.7076 0
M  V30 3426 C 638.856 7.45864 -1.40599 0
M  V30 3427 O 639.066 6.17651 -0.734225 0
M  V30 3428 C 640.256 8.05808 -1.51899 0
M  V30 3429 O 640.646 8.74358 -0.335205 0
M  V30 3430 C 641.136 6.83093 -1.70294 0
M  V30 3431 C 640.426 5.79992 -0.836974 0
M  V30 3432 N 640.476 4.41864 -1.38293 0
M  V30 3433 H 637.637 8.13644 -3.0377 0
M  V30 3434 H 637.367 6.42788 -2.55485 0
M  V30 3435 H 638.234 8.12039 -0.792769 0
M  V30 3436 P 642.196 8.91 4.32688e-12 0
M  V30 3437 O 642.416 10.1726 0.733694 0
M  V30 3438 O 642.986 8.73148 -1.23936 0
M  V30 3439 O 642.446 7.66872 0.971405 0
M  V30 3440 C 641.506 7.42309 2.04641 0
M  V30 3441 C 642.236 6.86059 3.24661 0
M  V30 3442 O 642.446 5.42847 3.03646 0
M  V30 3443 C 643.636 7.41196 3.50753 0
M  V30 3444 O 644.026 7.27073 4.86816 0
M  V30 3445 C 644.516 6.5273 2.63741 0
M  V30 3446 C 643.806 5.1842 2.73198 0
M  V30 3447 N 643.856 4.38762 1.4784 0
M  V30 3448 H 641.017 8.36803 2.32493 0
M  V30 3449 H 640.747 6.70197 1.71129 0
M  V30 3450 H 641.614 7.03551 4.13168 0
M  V30 3451 P 645.576 7.20834 5.23717 0
M  V30 3452 O 645.796 7.79853 6.57286 0
M  V30 3453 O 646.366 7.79239 4.12957 0
M  V30 3454 O 645.826 5.63315 5.29344 0
M  V30 3455 C 644.886 4.80255 6.01876 0
M  V30 3456 C 645.616 3.64202 6.65911 0
M  V30 3457 O 645.826 2.60694 5.64732 0
M  V30 3458 C 647.016 3.93473 7.1943 0
M  V30 3459 O 647.406 3.02071 8.21205 0
M  V30 3460 C 647.896 3.73047 5.97036 0
M  V30 3461 C 647.186 2.58828 5.25741 0
M  V30 3462 N 647.236 2.68068 3.77503 0
M  V30 3463 H 644.397 5.40332 6.79951 0
M  V30 3464 H 644.127 4.41613 5.32378 0
M  V30 3465 H 644.994 3.26331 7.47797 0
M  V30 3466 P 648.956 2.75334 8.47391 0
M  V30 3467 O 649.176 2.44571 9.90142 0
M  V30 3468 O 649.746 3.87688 7.92115 0
M  V30 3469 O 649.206 1.4459 7.59357 0
M  V30 3470 C 648.266 0.347608 7.69215 0
M  V30 3471 C 648.996 -0.96767 7.52806 0
M  V30 3472 O 649.206 -1.21036 6.1011 0
M  V30 3473 C 650.396 -1.04544 8.13308 0
M  V30 3474 O 650.786 -2.38311 8.41922 0
M  V30 3475 C 651.276 -0.491279 7.02284 0
M  V30 3476 C 650.566 -0.996264 5.77469 0
M  V30 3477 N 650.616 -0.0501916 4.62973 0
M  V30 3478 H 647.777 0.374722 8.67691 0
M  V30 3479 H 647.507 0.443485 6.90277 0
M  V30 3480 H 648.374 -1.75537 7.96793 0
M  V30 3481 P 652.336 -2.75334 8.47391 0
M  V30 3482 O 652.556 -3.84128 9.44797 0
M  V30 3483 O 653.126 -1.51947 8.68712 0
M  V30 3484 O 652.586 -3.29363 6.99321 0
M  V30 3485 C 651.646 -4.24011 6.4274 0
M  V30 3486 C 652.376 -5.20775 5.52155 0
M  V30 3487 O 652.586 -4.56534 4.22446 0
M  V30 3488 C 653.776 -5.62629 5.96531 0
M  V30 3489 O 654.166 -6.87667 5.41053 0
M  V30 3490 C 654.656 -4.52537 5.39283 0
M  V30 3491 C 653.946 -4.20027 4.08623 0
M  V30 3492 N 653.996 -2.76189 3.71603 0
M  V30 3493 H 651.157 -4.797 7.24003 0
M  V30 3494 H 650.887 -3.69856 5.84513 0
M  V30 3495 H 651.754 -6.10356 5.41441 0
M  V30 3496 P 655.716 -7.20834 5.23717 0
M  V30 3497 O 655.936 -8.66104 5.38572 0
M  V30 3498 O 656.506 -6.33544 6.1349 0
M  V30 3499 O 655.966 -6.7751 3.72168 0
M  V30 3500 C 655.026 -7.20825 2.7076 0
M  V30 3501 C 655.756 -7.45864 1.40599 0
M  V30 3502 O 655.966 -6.17651 0.734225 0
M  V30 3503 C 657.156 -8.05808 1.51899 0
M  V30 3504 O 657.546 -8.74358 0.335205 0
M  V30 3505 C 658.036 -6.83093 1.70294 0
M  V30 3506 C 657.326 -5.79992 0.836974 0
M  V30 3507 N 657.376 -4.41864 1.38293 0
M  V30 3508 H 654.537 -8.13644 3.0377 0
M  V30 3509 H 654.267 -6.42788 2.55485 0
M  V30 3510 H 655.134 -8.12039 0.792769 0
M  V30 3511 P 659.096 -8.91 -4.48406e-12 0
M  V30 3512 O 659.316 -10.1726 -0.733694 0
M  V30 3513 O 659.886 -8.73148 1.23936 0
M  V30 3514 O 659.346 -7.66872 -0.971405 0
M  V30 3515 C 658.406 -7.42309 -2.04641 0
M  V30 3516 C 659.136 -6.86059 -3.24661 0
M  V30 3517 O 659.346 -5.42847 -3.03646 0
M  V30 3518 C 660.536 -7.41196 -3.50753 0
M  V30 3519 O 660.926 -7.27073 -4.86816 0
M  V30 3520 C 661.416 -6.5273 -2.63741 0
M  V30 3521 C 660.706 -5.1842 -2.73198 0
M  V30 3522 N 660.756 -4.38762 -1.4784 0
M  V30 3523 H 657.917 -8.36803 -2.32493 0
M  V30 3524 H 657.647 -6.70197 -1.71129 0
M  V30 3525 H 658.514 -7.03551 -4.13168 0
M  V30 3526 P 662.476 -7.20834 -5.23717 0
M  V30 3527 O 662.696 -7.79853 -6.57286 0
M  V30 3528 O 663.266 -7.79239 -4.12957 0
M  V30 3529 O 662.726 -5.63315 -5.29344 0
M  V30 3530 C 661.786 -4.80255 -6.01876 0
M  V30 3531 C 662.516 -3.64202 -6.65911 0
M  V30 3532 O 662.726 -2.60694 -5.64732 0
M  V30 3533 C 663.916 -3.93473 -7.1943 0
M  V30 3534 O 664.306 -3.02071 -8.21205 0
M  V30 3535 C 664.796 -3.73047 -5.97036 0
M  V30 3536 C 664.086 -2.58828 -5.25741 0
M  V30 3537 N 664.136 -2.68068 -3.77503 0
M  V30 3538 H 661.297 -5.40332 -6.79951 0
M  V30 3539 H 661.027 -4.41613 -5.32378 0
M  V30 3540 H 661.894 -3.26331 -7.47797 0
M  V30 3541 P 665.856 -2.75334 -8.47391 0
M  V30 3542 O 666.076 -2.44571 -9.90142 0
M  V30 3543 O 666.646 -3.87688 -7.92115 0
M  V30 3544 O 666.106 -1.4459 -7.59357 0
M  V30 3545 C 665.166 -0.347608 -7.69215 0
M  V30 3546 C 665.896 0.96767 -7.52806 0
M  V30 3547 O 666.106 1.21036 -6.1011 0
M  V30 3548 C 667.296 1.04544 -8.13308 0
M  V30 3549 O 667.686 2.38311 -8.41922 0
M  V30 3550 C 668.176 0.491279 -7.02284 0
M  V30 3551 C 667.466 0.996264 -5.77469 0
M  V30 3552 N 667.516 0.0501916 -4.62973 0
M  V30 3553 H 664.677 -0.374722 -8.67691 0
M  V30 3554 H 664.407 -0.443485 -6.90277 0
M  V30 3555 H 665.274 1.75537 -7.96793 0
M  V30 3556 P 669.236 2.75334 -8.47391 0
M  V30 3557 O 669.456 3.84128 -9.44797 0
M  V30 3558 O 670.026 1.51947 -8.68712 0
M  V30 3559 O 669.486 3.29363 -6.99321 0
M  V30 3560 C 668.546 4.24011 -6.4274 0
M  V30 3561 C 669.276 5.20775 -5.52155 0
M  V30 3562 O 669.486 4.56534 -4.22446 0
M  V30 3563 C 670.676 5.62629 -5.96531 0
M  V30 3564 O 671.066 6.87667 -5.41053 0
M  V30 3565 C 671.556 4.52537 -5.39283 0
M  V30 3566 C 670.846 4.20027 -4.08623 0
M  V30 3567 N 670.896 2.76189 -3.71603 0
M  V30 3568 H 668.057 4.797 -7.24003 0
M  V30 3569 H 667.787 3.69856 -5.84513 0
M  V30 3570 H 668.654 6.10356 -5.41441 0
M  V30 3571 P 672.616 7.20834 -5.23717 0
M  V30 3572 O 672.836 8.66104 -5.38572 0
M  V30 3573 O 673.406 6.33544 -6.1349 0
M  V30 3574 O 672.866 6.7751 -3.72168 0
M  V30 3575 C 671.926 7.20825 -2.7076 0
M  V30 3576 C 672.656 7.45864 -1.40599 0
M  V30 3577 O 672.866 6.17651 -0.734225 0
M  V30 3578 C 674.056 8.05808 -1.51899 0
M  V30 3579 O 674.446 8.74358 -0.335205 0
M  V30 3580 C 674.936 6.83093 -1.70294 0
M  V30 3581 C 674.226 5.79992 -0.836974 0
M  V30 3582 N 674.276 4.41864 -1.38293 0
M  V30 3583 H 671.437 8.13644 -3.0377 0
M  V30 3584 H 671.167 6.42788 -2.55485 0
M  V30 3585 H 672.034 8.12039 -0.792769 0
M  V30 3586 P 675.996 8.91 4.64125e-12 0
M  V30 3587 O 676.216 10.1726 0.733694 0
M  V30 3588 O 676.786 8.73148 -1.23936 0
M  V30 3589 O 676.246 7.66872 0.971405 0
M  V30 3590 C 675.306 7.42309 2.04641 0
M  V30 3591 C 676.036 6.86059 3.24661 0
M  V30 3592 O 676.246 5.42847 3.03646 0
M  V30 3593 C 677.436 7.41196 3.50753 0
M  V30 3594 O 677.826 7.27073 4.86816 0
M  V30 3595 C 678.316 6.5273 2.63741 0
M  V30 3596 C 677.606 5.1842 2.73198 0
M  V30 3597 N 677.656 4.38762 1.4784 0
M  V30 3598 H 674.817 8.36803 2.32493 0
M  V30 3599 H 674.547 6.70197 1.71129 0
M  V30 3600 H 675.414 7.03551 4.13168 0
M  V30 3601 P 679.376 7.20834 5.23717 0
M  V30 3602 O 679.596 7.79853 6.57286 0
M  V30 3603 O 680.166 7.79239 4.12957 0
M  V30 3604 O 679.626 5.63315 5.29344 0
M  V30 3605 C 678.686 4.80255 6.01876 0
M  V30 3606 C 679.416 3.64202 6.65911 0
M  V30 3607 O 679.626 2.60694 5.64732 0
M  V30 3608 C 680.816 3.93473 7.1943 0
M  V30 3609 O 681.206 3.02071 8.21205 0
M  V30 3610 C 681.696 3.73047 5.97036 0
M  V30 3611 C 680.986 2.58828 5.25741 0
M  V30 3612 N 681.036 2.68068 3.77503 0
M  V30 3613 H 678.197 5.40332 6.79951 0
M  V30 3614 H 677.927 4.41613 5.32378 0
M  V30 3615 H 678.794 3.26331 7.47797 0
M  V30 3616 P 682.756 2.75334 8.47391 0
M  V30 3617 O 682.976 2.44571 9.90142 0
M  V30 3618 O 683.546 3.87688 7.92115 0
M  V30 3619 O 683.006 1.4459 7.59357 0
M  V30 3620 C 682.066 0.347608 7.69215 0
M  V30 3621 C 682.796 -0.96767 7.52806 0
M  V30 3622 O 683.006 -1.21036 6.1011 0
M  V30 3623 C 684.196 -1.04544 8.13308 0
M  V30 3624 O 684.586 -2.38311 8.41922 0
M  V30 3625 C 685.076 -0.491279 7.02284 0
M  V30 3626 C 684.366 -0.996264 5.77469 0
M  V30 3627 N 684.416 -0.0501916 4.62973 0
M  V30 3628 C 684.336 1.32786 4.63244 0
M  V30 3629 N 684.416 1.86957 3.44545 0
M  V30 3630 C 684.556 0.780241 2.58481 0
M  V30 3631 C 684.686 0.738536 1.17757 0
M  V30 3632 N 684.806 -0.58337 0.711393 0
M  V30 3633 C 684.806 -1.70816 1.51017 0
M  V30 3634 N 684.936 -2.87826 0.880757 0
M  V30 3635 N 684.676 -1.67126 2.8339 0
M  V30 3636 C 684.556 -0.401421 3.30572 0
M  V30 3637 H 681.577 0.374722 8.67691 0
M  V30 3638 H 681.307 0.443485 6.90277 0
M  V30 3639 H 682.174 -1.75537 7.96793 0
M  V30 3640 P 686.136 -2.75334 8.47391 0
M  V30 3641 O 686.356 -3.84128 9.44797 0
M  V30 3642 O 686.926 -1.51947 8.68712 0
M  V30 3643 O 686.386 -3.29363 6.99321 0
M  V30 3644 C 685.446 -4.24011 6.4274 0
M  V30 3645 C 686.176 -5.20775 5.52155 0
M  V30 3646 O 686.386 -4.56534 4.22446 0
M  V30 3647 C 687.576 -5.62629 5.96531 0
M  V30 3648 O 687.966 -6.87667 5.41053 0
M  V30 3649 C 688.456 -4.52537 5.39283 0
M  V30 3650 C 687.746 -4.20027 4.08623 0
M  V30 3651 N 687.796 -2.76189 3.71603 0
M  V30 3652 C 687.716 -1.64862 4.52822 0
M  V30 3653 N 687.796 -0.512671 3.88633 0
M  V30 3654 C 687.936 -0.888083 2.54977 0
M  V30 3655 C 688.066 -0.094668 1.38677 0
M  V30 3656 O 688.086 1.13053 1.28163 0
M  V30 3657 N 688.186 -0.890102 0.232633 0
M  V30 3658 C 688.186 -2.26958 0.21772 0
M  V30 3659 N 688.316 -2.84626 -0.97925 0
M  V30 3660 N 688.056 -3.0178 1.31033 0
M  V30 3661 C 687.936 -2.26781 2.43843 0
M  V30 3662 H 684.957 -4.797 7.24003 0
M  V30 3663 H 684.687 -3.69856 5.84513 0
M  V30 3664 H 685.554 -6.10356 5.41441 0
M  V30 3665 H 688.209 -4.79061 3.27488 0
M  V30 3666 H 688.488 -3.64906 6.05785 0
M  V30 3667 H 689.48 -4.8868 5.2125 0
M  V30 3668 H 687.646 -5.66726 7.06352 0
M  V30 3669 H 687.597 -1.71169 5.60966 0
M  V30 3670 H 688.279 -0.419134 -0.644739 0
M  V30 3671 H 688.316 -3.87332 -1.06098 0
M  V30 3672 H 688.417 -2.26417 -1.82483 0
M  V30 3673 P 689.516 -7.20834 5.23717 0
M  V30 3674 O 689.736 -8.66104 5.38572 0
M  V30 3675 O 690.306 -6.33544 6.1349 0
M  V30 3676 O 689.766 -6.7751 3.72168 0
M  V30 3677 C 688.826 -7.20825 2.7076 0
M  V30 3678 C 689.556 -7.45864 1.40599 0
M  V30 3679 O 689.766 -6.17651 0.734225 0
M  V30 3680 C 690.956 -8.05808 1.51899 0
M  V30 3681 O 691.346 -8.74358 0.335205 0
M  V30 3682 C 691.836 -6.83093 1.70294 0
M  V30 3683 C 691.126 -5.79992 0.836974 0
M  V30 3684 N 691.176 -4.41864 1.38293 0
M  V30 3685 H 688.337 -8.13644 3.0377 0
M  V30 3686 H 688.067 -6.42788 2.55485 0
M  V30 3687 H 688.934 -8.12039 0.792769 0
M  V30 3688 P 692.896 -8.91 -4.67181e-12 0
M  V30 3689 O 693.116 -10.1726 -0.733694 0
M  V30 3690 O 693.686 -8.73148 1.23936 0
M  V30 3691 O 693.146 -7.66872 -0.971405 0
M  V30 3692 C 692.206 -7.42309 -2.04641 0
M  V30 3693 C 692.936 -6.86059 -3.24661 0
M  V30 3694 O 693.146 -5.42847 -3.03646 0
M  V30 3695 C 694.336 -7.41196 -3.50753 0
M  V30 3696 O 694.726 -7.27073 -4.86816 0
M  V30 3697 C 695.216 -6.5273 -2.63741 0
M  V30 3698 C 694.506 -5.1842 -2.73198 0
M  V30 3699 N 694.556 -4.38762 -1.4784 0
M  V30 3700 H 691.717 -8.36803 -2.32493 0
M  V30 3701 H 691.447 -6.70197 -1.71129 0
M  V30 3702 H 692.314 -7.03551 -4.13168 0
M  V30 3703 P 696.276 -7.20834 -5.23717 0
M  V30 3704 O 696.496 -7.79853 -6.57286 0
M  V30 3705 O 697.066 -7.79239 -4.12957 0
M  V30 3706 O 696.526 -5.63315 -5.29344 0
M  V30 3707 C 695.586 -4.80255 -6.01876 0
M  V30 3708 C 696.316 -3.64202 -6.65911 0
M  V30 3709 O 696.526 -2.60694 -5.64732 0
M  V30 3710 C 697.716 -3.93473 -7.1943 0
M  V30 3711 O 698.106 -3.02071 -8.21205 0
M  V30 3712 C 698.596 -3.73047 -5.97036 0
M  V30 3713 C 697.886 -2.58828 -5.25741 0
M  V30 3714 N 697.936 -2.68068 -3.77503 0
M  V30 3715 H 695.097 -5.40332 -6.79951 0
M  V30 3716 H 694.827 -4.41613 -5.32378 0
M  V30 3717 H 695.694 -3.26331 -7.47797 0
M  V30 3718 P 699.656 -2.75334 -8.47391 0
M  V30 3719 O 699.876 -2.44571 -9.90142 0
M  V30 3720 O 700.446 -3.87688 -7.92115 0
M  V30 3721 O 699.906 -1.4459 -7.59357 0
M  V30 3722 C 698.966 -0.347608 -7.69215 0
M  V30 3723 C 699.696 0.96767 -7.52806 0
M  V30 3724 O 699.906 1.21036 -6.1011 0
M  V30 3725 C 701.096 1.04544 -8.13308 0
M  V30 3726 O 701.486 2.38311 -8.41922 0
M  V30 3727 C 701.976 0.491279 -7.02284 0
M  V30 3728 C 701.266 0.996264 -5.77469 0
M  V30 3729 N 701.316 0.0501916 -4.62973 0
M  V30 3730 C 701.236 -1.32786 -4.63244 0
M  V30 3731 N 701.316 -1.86957 -3.44545 0
M  V30 3732 C 701.456 -0.780241 -2.58481 0
M  V30 3733 C 701.586 -0.738536 -1.17757 0
M  V30 3734 O 701.606 -1.66794 -0.372349 0
M  V30 3735 N 701.706 0.58337 -0.711393 0
M  V30 3736 C 701.706 1.70816 -1.51017 0
M  V30 3737 N 701.836 2.87826 -0.880757 0
M  V30 3738 N 701.576 1.67126 -2.8339 0
M  V30 3739 C 701.456 0.401421 -3.30572 0
M  V30 3740 H 698.477 -0.374722 -8.67691 0
M  V30 3741 H 698.207 -0.443485 -6.90277 0
M  V30 3742 H 699.074 1.75537 -7.96793 0
M  V30 3743 H 701.729 1.95076 -5.46529 0
M  V30 3744 H 702.008 -0.608565 -7.04577 0
M  V30 3745 H 703 0.889672 -7.08939 0
M  V30 3746 H 701.166 0.43308 -9.04564 0
M  V30 3747 H 701.117 -1.91249 -5.54442 0
M  V30 3748 H 701.799 0.718054 0.275244 0
M  V30 3749 H 701.836 3.75721 -1.41832 0
M  V30 3750 H 701.937 2.90436 0.145468 0
M  V30 3751 P 703.036 2.75334 -8.47391 0
M  V30 3752 O 703.256 3.84128 -9.44797 0
M  V30 3753 O 703.826 1.51947 -8.68712 0
M  V30 3754 O 703.286 3.29363 -6.99321 0
M  V30 3755 C 702.346 4.24011 -6.4274 0
M  V30 3756 C 703.076 5.20775 -5.52155 0
M  V30 3757 O 703.286 4.56534 -4.22446 0
M  V30 3758 C 704.476 5.62629 -5.96531 0
M  V30 3759 O 704.866 6.87667 -5.41053 0
M  V30 3760 C 705.356 4.52537 -5.39283 0
M  V30 3761 C 704.646 4.20027 -4.08623 0
M  V30 3762 N 704.696 2.76189 -3.71603 0
M  V30 3763 H 701.857 4.797 -7.24003 0
M  V30 3764 H 701.587 3.69856 -5.84513 0
M  V30 3765 H 702.454 6.10356 -5.41441 0
M  V30 3766 P 706.416 7.20834 -5.23717 0
M  V30 3767 O 706.636 8.66104 -5.38572 0
M  V30 3768 O 707.206 6.33544 -6.1349 0
M  V30 3769 O 706.666 6.7751 -3.72168 0
M  V30 3770 C 705.726 7.20825 -2.7076 0
M  V30 3771 C 706.456 7.45864 -1.40599 0
M  V30 3772 O 706.666 6.17651 -0.734225 0
M  V30 3773 C 707.856 8.05808 -1.51899 0
M  V30 3774 O 708.246 8.74358 -0.335205 0
M  V30 3775 C 708.736 6.83093 -1.70294 0
M  V30 3776 C 708.026 5.79992 -0.836974 0
M  V30 3777 N 708.076 4.41864 -1.38293 0
M  V30 3778 H 705.237 8.13644 -3.0377 0
M  V30 3779 H 704.967 6.42788 -2.55485 0
M  V30 3780 H 705.834 8.12039 -0.792769 0
M  V30 3781 P 709.796 8.91 4.82899e-12 0
M  V30 3782 O 710.016 10.1726 0.733694 0
M  V30 3783 O 710.586 8.73148 -1.23936 0
M  V30 3784 O 710.046 7.66872 0.971405 0
M  V30 3785 C 709.106 7.42309 2.04641 0
M  V30 3786 C 709.836 6.86059 3.24661 0
M  V30 3787 O 710.046 5.42847 3.03646 0
M  V30 3788 C 711.236 7.41196 3.50753 0
M  V30 3789 O 711.626 7.27073 4.86816 0
M  V30 3790 C 712.116 6.5273 2.63741 0
M  V30 3791 C 711.406 5.1842 2.73198 0
M  V30 3792 N 711.456 4.38762 1.4784 0
M  V30 3793 H 708.617 8.36803 2.32493 0
M  V30 3794 H 708.347 6.70197 1.71129 0
M  V30 3795 H 709.214 7.03551 4.13168 0
M  V30 3796 P 713.176 7.20834 5.23717 0
M  V30 3797 O 713.396 7.79853 6.57286 0
M  V30 3798 O 713.966 7.79239 4.12957 0
M  V30 3799 O 713.426 5.63315 5.29344 0
M  V30 3800 C 712.486 4.80255 6.01876 0
M  V30 3801 C 713.216 3.64202 6.65911 0
M  V30 3802 O 713.426 2.60694 5.64732 0
M  V30 3803 C 714.616 3.93473 7.1943 0
M  V30 3804 O 715.006 3.02071 8.21205 0
M  V30 3805 C 715.496 3.73047 5.97036 0
M  V30 3806 C 714.786 2.58828 5.25741 0
M  V30 3807 N 714.836 2.68068 3.77503 0
M  V30 3808 H 711.997 5.40332 6.79951 0
M  V30 3809 H 711.727 4.41613 5.32378 0
M  V30 3810 H 712.594 3.26331 7.47797 0
M  V30 3811 P 716.556 2.75334 8.47391 0
M  V30 3812 O 716.776 2.44571 9.90142 0
M  V30 3813 O 717.346 3.87688 7.92115 0
M  V30 3814 O 716.806 1.4459 7.59357 0
M  V30 3815 C 715.866 0.347608 7.69215 0
M  V30 3816 C 716.596 -0.96767 7.52806 0
M  V30 3817 O 716.806 -1.21036 6.1011 0
M  V30 3818 C 717.996 -1.04544 8.13308 0
M  V30 3819 O 718.386 -2.38311 8.41922 0
M  V30 3820 C 718.876 -0.491279 7.02284 0
M  V30 3821 C 718.166 -0.996264 5.77469 0
M  V30 3822 N 718.216 -0.0501916 4.62973 0
M  V30 3823 H 715.377 0.374722 8.67691 0
M  V30 3824 H 715.107 0.443485 6.90277 0
M  V30 3825 H 715.974 -1.75537 7.96793 0
M  V30 3826 P 719.936 -2.75334 8.47391 0
M  V30 3827 O 720.156 -3.84128 9.44797 0
M  V30 3828 O 720.726 -1.51947 8.68712 0
M  V30 3829 O 720.186 -3.29363 6.99321 0
M  V30 3830 C 719.246 -4.24011 6.4274 0
M  V30 3831 C 719.976 -5.20775 5.52155 0
M  V30 3832 O 720.186 -4.56534 4.22446 0
M  V30 3833 C 721.376 -5.62629 5.96531 0
M  V30 3834 O 721.766 -6.87667 5.41053 0
M  V30 3835 C 722.256 -4.52537 5.39283 0
M  V30 3836 C 721.546 -4.20027 4.08623 0
M  V30 3837 N 721.596 -2.76189 3.71603 0
M  V30 3838 H 718.757 -4.797 7.24003 0
M  V30 3839 H 718.487 -3.69856 5.84513 0
M  V30 3840 H 719.354 -6.10356 5.41441 0
M  V30 3841 P 723.316 -7.20834 5.23717 0
M  V30 3842 O 723.536 -8.66274 5.38678 0
M  V30 3843 O 724.106 -6.33687 6.13629 0
M  V30 3844 O 723.566 -6.7751 3.72168 0
M  V30 3845 C 722.626 -7.20919 2.70795 0
M  V30 3846 C 723.356 -7.45864 1.40599 0
M  V30 3847 O 723.566 -6.17751 0.734343 0
M  V30 3848 C 724.756 -8.05906 1.51917 0
M  V30 3849 O 725.146 -8.74358 0.335205 0
M  V30 3850 C 725.636 -6.83093 1.70294 0
M  V30 3851 C 724.926 -5.79992 0.836974 0
M  V30 3852 N 724.976 -4.41864 1.38293 0
M  V30 3853 H 722.138 -8.13738 3.03804 0
M  V30 3854 H 721.866 -6.42974 2.55559 0
M  V30 3855 H 722.734 -8.12139 0.792866 0
M  V30 3856 H 725.389 -5.80178 -0.160643 0
M  V30 3857 H 725.669 -6.51379 2.75643 0
M  V30 3858 H 726.66 -7.01832 1.3448 0
M  V30 3859 H 724.826 -8.73771 2.38364 0
M  V30 3860 P 726.696 -8.91 -4.98617e-12 0
M  V30 3861 O 726.916 -10.1746 -0.733838 0
M  V30 3862 O 727.486 -8.73346 1.23964 0
M  V30 3863 O 726.946 -7.66872 -0.971405 0
M  V30 3864 C 726.006 -7.42405 -2.04668 0
M  V30 3865 C 726.736 -6.86059 -3.24661 0
M  V30 3866 O 726.946 -5.42934 -3.03695 0
M  V30 3867 C 728.136 -7.41287 -3.50796 0
M  V30 3868 O 728.526 -7.27073 -4.86816 0
M  V30 3869 C 729.016 -6.5273 -2.63741 0
M  V30 3870 C 728.306 -5.1842 -2.73198 0
M  V30 3871 N 728.356 -4.38762 -1.4784 0
M  V30 3872 H 725.518 -8.36899 -2.3252 0
M  V30 3873 H 725.246 -6.70391 -1.71179 0
M  V30 3874 H 726.114 -7.03638 -4.13219 0
M  V30 3875 H 728.769 -4.59931 -3.54016 0
M  V30 3876 H 729.049 -6.88995 -1.59871 0
M  V30 3877 H 730.04 -6.4684 -3.0373 0
M  V30 3878 H 728.206 -8.47002 -3.20749 0
M  V30 3879 P 730.076 -7.20834 -5.23717 0
M  V30 3880 O 730.296 -7.79853 -6.57286 0
M  V30 3881 O 730.866 -7.79239 -4.12957 0
M  V30 3882 O 730.326 -5.63315 -5.29344 0
M  V30 3883 C 729.386 -4.80255 -6.01876 0
M  V30 3884 C 730.116 -3.64202 -6.65911 0
M  V30 3885 O 730.326 -2.60694 -5.64732 0
M  V30 3886 C 731.516 -3.93473 -7.1943 0
M  V30 3887 O 731.906 -3.02071 -8.21205 0
M  V30 3888 C 732.396 -3.73047 -5.97036 0
M  V30 3889 C 731.686 -2.58828 -5.25741 0
M  V30 3890 N 731.736 -2.68068 -3.77503 0
M  V30 3891 C 731.656 -3.79715 -2.96723 0
M  V30 3892 N 731.736 -3.5377 -1.68852 0
M  V30 3893 C 731.876 -2.15054 -1.63254 0
M  V30 3894 C 732.006 -1.28964 -0.518571 0
M  V30 3895 O 732.026 -1.56826 0.679156 0
M  V30 3896 N 732.126 0.0538097 -0.918425 0
M  V30 3897 C 732.126 0.494275 -2.22578 0
M  V30 3898 N 732.256 1.81086 -2.40434 0
M  V30 3899 N 731.996 -0.313645 -3.27502 0
M  V30 3900 C 731.876 -1.61829 -2.91033 0
M  V30 3901 H 728.897 -5.40332 -6.79951 0
M  V30 3902 H 728.627 -4.41613 -5.32378 0
M  V30 3903 H 729.494 -3.26331 -7.47797 0
M  V30 3904 H 732.149 -1.63422 -5.56814 0
M  V30 3905 H 732.428 -4.63374 -5.34244 0
M  V30 3906 H 733.42 -3.44728 -6.25838 0
M  V30 3907 H 731.586 -4.96652 -7.57263 0
M  V30 3908 H 731.537 -4.80617 -3.3614 0
M  V30 3909 H 732.219 0.742702 -0.199384 0
M  V30 3910 H 732.256 2.20598 -3.35588 0
M  V30 3911 H 732.357 2.43518 -1.58945 0
M  V30 3912 P 733.456 -2.75334 -8.47391 0
M  V30 3913 O 733.676 -2.44571 -9.90142 0
M  V30 3914 O 734.246 -3.87688 -7.92115 0
M  V30 3915 O 733.706 -1.4459 -7.59357 0
M  V30 3916 C 732.766 -0.347608 -7.69215 0
M  V30 3917 C 733.496 0.96767 -7.52806 0
M  V30 3918 O 733.706 1.21036 -6.1011 0
M  V30 3919 C 734.896 1.04544 -8.13308 0
M  V30 3920 O 735.286 2.38311 -8.41922 0
M  V30 3921 C 735.776 0.491279 -7.02284 0
M  V30 3922 C 735.066 0.996264 -5.77469 0
M  V30 3923 N 735.116 0.0501916 -4.62973 0
M  V30 3924 H 732.277 -0.374722 -8.67691 0
M  V30 3925 H 732.007 -0.443485 -6.90277 0
M  V30 3926 H 732.874 1.75537 -7.96793 0
M  V30 3927 P 736.836 2.75334 -8.47391 0
M  V30 3928 O 737.056 3.84128 -9.44797 0
M  V30 3929 O 737.626 1.51947 -8.68712 0
M  V30 3930 O 737.086 3.29363 -6.99321 0
M  V30 3931 C 736.146 4.24011 -6.4274 0
M  V30 3932 C 736.876 5.20775 -5.52155 0
M  V30 3933 O 737.086 4.56534 -4.22446 0
M  V30 3934 C 738.276 5.62629 -5.96531 0
M  V30 3935 O 738.666 6.87667 -5.41053 0
M  V30 3936 C 739.156 4.52537 -5.39283 0
M  V30 3937 C 738.446 4.20027 -4.08623 0
M  V30 3938 N 738.496 2.76189 -3.71603 0
M  V30 3939 H 735.657 4.797 -7.24003 0
M  V30 3940 H 735.387 3.69856 -5.84513 0
M  V30 3941 H 736.254 6.10356 -5.41441 0
M  V30 3942 P 740.216 7.20834 -5.23717 0
M  V30 3943 O 740.436 8.66104 -5.38572 0
M  V30 3944 O 741.006 6.33544 -6.1349 0
M  V30 3945 O 740.466 6.7751 -3.72168 0
M  V30 3946 C 739.526 7.20825 -2.7076 0
M  V30 3947 C 740.256 7.45864 -1.40599 0
M  V30 3948 O 740.466 6.17651 -0.734225 0
M  V30 3949 C 741.656 8.05808 -1.51899 0
M  V30 3950 O 742.046 8.74358 -0.335205 0
M  V30 3951 C 742.536 6.83093 -1.70294 0
M  V30 3952 C 741.826 5.79992 -0.836974 0
M  V30 3953 N 741.876 4.41864 -1.38293 0
M  V30 3954 H 739.037 8.13644 -3.0377 0
M  V30 3955 H 738.767 6.42788 -2.55485 0
M  V30 3956 H 739.634 8.12039 -0.792769 0
M  V30 3957 P 743.596 8.91 5.14336e-12 0
M  V30 3958 O 743.816 10.1736 0.733766 0
M  V30 3959 O 744.386 8.73247 -1.2395 0
M  V30 3960 O 743.846 7.66872 0.971405 0
M  V30 3961 C 742.906 7.42212 2.04614 0
M  V30 3962 C 743.636 6.86059 3.24661 0
M  V30 3963 O 743.846 5.42847 3.03646 0
M  V30 3964 C 745.036 7.41196 3.50753 0
M  V30 3965 O 745.426 7.27073 4.86816 0
M  V30 3966 C 745.916 6.5273 2.63741 0
M  V30 3967 C 745.206 5.1842 2.73198 0
M  V30 3968 N 745.256 4.38668 1.47808 0
M  V30 3969 C 745.406 3.02239 1.60048 0
M  V30 3970 O 745.496 2.46459 2.67869 0
M  V30 3971 N 745.446 2.32436 0.408571 0
M  V30 3972 C 745.356 2.85471 -0.854993 0
M  V30 3973 O 745.406 2.12566 -1.8531 0
M  V30 3974 C 745.206 4.28918 -0.887335 0
M  V30 3975 C 745.096 4.91066 -2.24619 0
M  V30 3976 C 745.156 5.00349 0.255399 0
M  V30 3977 H 742.416 8.36803 2.32493 0
M  V30 3978 H 742.147 6.701 1.71105 0
M  V30 3979 H 743.014 7.03551 4.13168 0
M  V30 3980 H 745.669 4.59773 3.53894 0
M  V30 3981 H 745.948 6.88995 1.59871 0
M  V30 3982 H 746.94 6.46749 3.03687 0
M  V30 3983 H 745.106 8.46908 3.20714 0
M  V30 3984 H 745.035 6.08548 0.206986 0
M  V30 3985 H 746.065 5.34836 -2.53099 0
M  V30 3986 H 744.328 5.69638 -2.2291 0
M  V30 3987 H 744.816 4.13971 -2.98044 0
M  V30 3988 H 745.552 1.33211 0.474216 0
M  V30 3989 P 746.976 7.20834 5.23717 0
M  V30 3990 O 747.196 7.79853 6.57286 0
M  V30 3991 O 747.766 7.79239 4.12957 0
M  V30 3992 O 747.226 5.63315 5.29344 0
M  V30 3993 C 746.286 4.80255 6.01876 0
M  V30 3994 C 747.016 3.64202 6.65911 0
M  V30 3995 O 747.226 2.60694 5.64732 0
M  V30 3996 C 748.416 3.93473 7.1943 0
M  V30 3997 O 748.806 3.02071 8.21205 0
M  V30 3998 C 749.296 3.73047 5.97036 0
M  V30 3999 C 748.586 2.58828 5.25741 0
M  V30 4000 N 748.636 2.68068 3.77503 0
M  V30 4001 H 745.797 5.40332 6.79951 0
M  V30 4002 H 745.527 4.41613 5.32378 0
M  V30 4003 H 746.394 3.26331 7.47797 0
M  V30 4004 P 750.356 2.75334 8.47391 0
M  V30 4005 O 750.576 2.44571 9.90142 0
M  V30 4006 O 751.146 3.87688 7.92115 0
M  V30 4007 O 750.606 1.4459 7.59357 0
M  V30 4008 C 749.666 0.347608 7.69215 0
M  V30 4009 C 750.396 -0.96767 7.52806 0
M  V30 4010 O 750.606 -1.21036 6.1011 0
M  V30 4011 C 751.796 -1.04544 8.13308 0
M  V30 4012 O 752.186 -2.38311 8.41922 0
M  V30 4013 C 752.676 -0.491279 7.02284 0
M  V30 4014 C 751.966 -0.996264 5.77469 0
M  V30 4015 N 752.016 -0.0501916 4.62973 0
M  V30 4016 H 749.177 0.374722 8.67691 0
M  V30 4017 H 748.907 0.443485 6.90277 0
M  V30 4018 H 749.774 -1.75537 7.96793 0
M  V30 4019 P 753.736 -2.75334 8.47391 0
M  V30 4020 O 753.956 -3.84128 9.44797 0
M  V30 4021 O 754.526 -1.51947 8.68712 0
M  V30 4022 O 753.986 -3.29363 6.99321 0
M  V30 4023 C 753.046 -4.24011 6.4274 0
M  V30 4024 C 753.776 -5.20775 5.52155 0
M  V30 4025 O 753.986 -4.56534 4.22446 0
M  V30 4026 C 755.176 -5.62629 5.96531 0
M  V30 4027 O 755.566 -6.87667 5.41053 0
M  V30 4028 C 756.056 -4.52537 5.39283 0
M  V30 4029 C 755.346 -4.20027 4.08623 0
M  V30 4030 N 755.396 -2.76189 3.71603 0
M  V30 4031 H 752.557 -4.797 7.24003 0
M  V30 4032 H 752.287 -3.69856 5.84513 0
M  V30 4033 H 753.154 -6.10356 5.41441 0
M  V30 4034 P 757.116 -7.20834 5.23717 0
M  V30 4035 O 757.336 -8.66104 5.38572 0
M  V30 4036 O 757.906 -6.33544 6.1349 0
M  V30 4037 O 757.366 -6.7751 3.72168 0
M  V30 4038 C 756.426 -7.20825 2.7076 0
M  V30 4039 C 757.156 -7.45864 1.40599 0
M  V30 4040 O 757.366 -6.17651 0.734225 0
M  V30 4041 C 758.556 -8.05808 1.51899 0
M  V30 4042 O 758.946 -8.74358 0.335205 0
M  V30 4043 C 759.436 -6.83093 1.70294 0
M  V30 4044 C 758.726 -5.79992 0.836974 0
M  V30 4045 N 758.776 -4.41864 1.38293 0
M  V30 4046 H 755.937 -8.13644 3.0377 0
M  V30 4047 H 755.667 -6.42788 2.55485 0
M  V30 4048 H 756.534 -8.12039 0.792769 0
M  V30 4049 P 760.496 -8.91 -5.30054e-12 0
M  V30 4050 O 760.716 -10.1746 -0.733838 0
M  V30 4051 O 761.286 -8.73346 1.23964 0
M  V30 4052 O 760.746 -7.66872 -0.971405 0
M  V30 4053 C 759.806 -7.42405 -2.04668 0
M  V30 4054 C 760.536 -6.86059 -3.24661 0
M  V30 4055 O 760.746 -5.42934 -3.03695 0
M  V30 4056 C 761.936 -7.41287 -3.50796 0
M  V30 4057 O 762.326 -7.27073 -4.86816 0
M  V30 4058 C 762.816 -6.5273 -2.63741 0
M  V30 4059 C 762.106 -5.1842 -2.73198 0
M  V30 4060 N 762.156 -4.38762 -1.4784 0
M  V30 4061 H 759.318 -8.36899 -2.3252 0
M  V30 4062 H 759.046 -6.70391 -1.71179 0
M  V30 4063 H 759.914 -7.03638 -4.13219 0
M  V30 4064 H 762.569 -4.59931 -3.54016 0
M  V30 4065 H 762.849 -6.88995 -1.59871 0
M  V30 4066 H 763.84 -6.4684 -3.0373 0
M  V30 4067 H 762.006 -8.47002 -3.20749 0
M  V30 4068 P 763.875 -7.20834 -5.23717 0
M  V30 4069 O 764.095 -7.79853 -6.57286 0
M  V30 4070 O 764.665 -7.79239 -4.12957 0
M  V30 4071 O 764.125 -5.63315 -5.29344 0
M  V30 4072 C 763.185 -4.80255 -6.01876 0
M  V30 4073 C 763.915 -3.64202 -6.65911 0
M  V30 4074 O 764.125 -2.60694 -5.64732 0
M  V30 4075 C 765.315 -3.93473 -7.1943 0
M  V30 4076 O 765.705 -3.02071 -8.21205 0
M  V30 4077 C 766.195 -3.73047 -5.97036 0
M  V30 4078 C 765.485 -2.58828 -5.25741 0
M  V30 4079 N 765.535 -2.68068 -3.77503 0
M  V30 4080 H 762.696 -5.40332 -6.79951 0
M  V30 4081 H 762.426 -4.41613 -5.32378 0
M  V30 4082 H 763.293 -3.26331 -7.47797 0
M  V30 4083 P 767.255 -2.75334 -8.47391 0
M  V30 4084 O 767.475 -2.44571 -9.90142 0
M  V30 4085 O 768.045 -3.87688 -7.92115 0
M  V30 4086 O 767.505 -1.4459 -7.59357 0
M  V30 4087 C 766.565 -0.347608 -7.69215 0
M  V30 4088 C 767.295 0.96767 -7.52806 0
M  V30 4089 O 767.505 1.21036 -6.1011 0
M  V30 4090 C 768.695 1.04544 -8.13308 0
M  V30 4091 O 769.085 2.38311 -8.41922 0
M  V30 4092 C 769.575 0.491279 -7.02284 0
M  V30 4093 C 768.865 0.996264 -5.77469 0
M  V30 4094 N 768.915 0.0501916 -4.62973 0
M  V30 4095 H 766.076 -0.374722 -8.67691 0
M  V30 4096 H 765.806 -0.443485 -6.90277 0
M  V30 4097 H 766.673 1.75537 -7.96793 0
M  V30 4098 P 770.635 2.75334 -8.47391 0
M  V30 4099 O 770.855 3.84128 -9.44797 0
M  V30 4100 O 771.425 1.51947 -8.68712 0
M  V30 4101 O 770.885 3.29363 -6.99321 0
M  V30 4102 C 769.945 4.24011 -6.4274 0
M  V30 4103 C 770.675 5.20775 -5.52155 0
M  V30 4104 O 770.885 4.56534 -4.22446 0
M  V30 4105 C 772.075 5.62629 -5.96531 0
M  V30 4106 O 772.465 6.87667 -5.41053 0
M  V30 4107 C 772.955 4.52537 -5.39283 0
M  V30 4108 C 772.245 4.20027 -4.08623 0
M  V30 4109 N 772.295 2.76189 -3.71603 0
M  V30 4110 H 769.456 4.797 -7.24003 0
M  V30 4111 H 769.186 3.69856 -5.84513 0
M  V30 4112 H 770.053 6.10356 -5.41441 0
M  V30 4113 P 774.015 7.20834 -5.23717 0
M  V30 4114 O 774.235 8.66189 -5.38625 0
M  V30 4115 O 774.805 6.33615 -6.1356 0
M  V30 4116 O 774.265 6.7751 -3.72168 0
M  V30 4117 C 773.325 7.20732 -2.70725 0
M  V30 4118 C 774.055 7.45864 -1.40599 0
M  V30 4119 O 774.265 6.17651 -0.734225 0
M  V30 4120 C 775.455 8.05808 -1.51899 0
M  V30 4121 O 775.845 8.74358 -0.335205 0
M  V30 4122 C 776.335 6.83093 -1.70294 0
M  V30 4123 C 775.625 5.79992 -0.836974 0
M  V30 4124 N 775.675 4.41769 -1.38263 0
M  V30 4125 C 775.825 3.38591 -0.481702 0
M  V30 4126 O 775.915 3.56839 0.718452 0
M  V30 4127 N 775.865 2.1206 -1.03569 0
M  V30 4128 C 775.775 1.80696 -2.36966 0
M  V30 4129 C 775.625 2.94845 -3.23898 0
M  V30 4130 C 775.575 4.19803 -2.73435 0
M  V30 4131 H 772.835 8.13644 -3.0377 0
M  V30 4132 H 772.566 6.42695 -2.55448 0
M  V30 4133 H 773.433 8.12039 -0.792769 0
M  V30 4134 H 776.088 5.79978 0.160587 0
M  V30 4135 H 776.367 6.51379 -2.75643 0
M  V30 4136 H 777.359 7.01734 -1.34462 0
M  V30 4137 H 775.525 8.73674 -2.38337 0
M  V30 4138 H 775.454 5.04492 -3.4095 0
M  V30 4139 P 777.395 8.91 5.45772e-12 0
M  V30 4140 O 777.615 10.1726 0.733694 0
M  V30 4141 O 778.185 8.73148 -1.23936 0
M  V30 4142 O 777.645 7.66872 0.971405 0
M  V30 4143 C 776.705 7.42309 2.04641 0
M  V30 4144 C 777.435 6.86059 3.24661 0
M  V30 4145 O 777.645 5.42847 3.03646 0
M  V30 4146 C 778.835 7.41196 3.50753 0
M  V30 4147 O 779.225 7.27073 4.86816 0
M  V30 4148 C 779.715 6.5273 2.63741 0
M  V30 4149 C 779.005 5.1842 2.73198 0
M  V30 4150 N 779.055 4.38762 1.4784 0
M  V30 4151 H 776.216 8.36803 2.32493 0
M  V30 4152 H 775.946 6.70197 1.71129 0
M  V30 4153 H 776.813 7.03551 4.13168 0
M  V30 4154 P 780.775 7.20834 5.23717 0
M  V30 4155 O 780.995 7.79853 6.57286 0
M  V30 4156 O 781.565 7.79239 4.12957 0
M  V30 4157 O 781.025 5.63315 5.29344 0
M  V30 4158 C 780.085 4.80255 6.01876 0
M  V30 4159 C 780.815 3.64202 6.65911 0
M  V30 4160 O 781.025 2.60694 5.64732 0
M  V30 4161 C 782.215 3.93473 7.1943 0
M  V30 4162 O 782.605 3.02071 8.21205 0
M  V30 4163 C 783.095 3.73047 5.97036 0
M  V30 4164 C 782.385 2.58828 5.25741 0
M  V30 4165 N 782.435 2.68068 3.77503 0
M  V30 4166 H 779.596 5.40332 6.79951 0
M  V30 4167 H 779.326 4.41613 5.32378 0
M  V30 4168 H 780.193 3.26331 7.47797 0
M  V30 4169 P 784.155 2.75334 8.47391 0
M  V30 4170 O 784.375 2.44571 9.90142 0
M  V30 4171 O 784.945 3.87688 7.92115 0
M  V30 4172 O 784.405 1.4459 7.59357 0
M  V30 4173 C 783.465 0.347608 7.69215 0
M  V30 4174 C 784.195 -0.96767 7.52806 0
M  V30 4175 O 784.405 -1.21036 6.1011 0
M  V30 4176 C 785.595 -1.04544 8.13308 0
M  V30 4177 O 785.985 -2.38311 8.41922 0
M  V30 4178 C 786.475 -0.491279 7.02284 0
M  V30 4179 C 785.765 -0.996264 5.77469 0
M  V30 4180 N 785.815 -0.0501916 4.62973 0
M  V30 4181 H 782.976 0.374722 8.67691 0
M  V30 4182 H 782.706 0.443485 6.90277 0
M  V30 4183 H 783.573 -1.75537 7.96793 0
M  V30 4184 P 787.535 -2.75334 8.47391 0
M  V30 4185 O 787.755 -3.84204 9.44982 0
M  V30 4186 O 788.325 -1.51982 8.68909 0
M  V30 4187 O 787.785 -3.29363 6.99321 0
M  V30 4188 C 786.845 -4.24066 6.42823 0
M  V30 4189 C 787.575 -5.20775 5.52155 0
M  V30 4190 O 787.785 -4.56607 4.22514 0
M  V30 4191 C 788.975 -5.62697 5.96604 0
M  V30 4192 O 789.365 -6.87667 5.41053 0
M  V30 4193 C 789.855 -4.52537 5.39283 0
M  V30 4194 C 789.145 -4.20027 4.08623 0
M  V30 4195 N 789.195 -2.76189 3.71603 0
M  V30 4196 H 786.357 -4.79756 7.24086 0
M  V30 4197 H 786.085 -3.69963 5.84682 0
M  V30 4198 H 786.953 -6.10431 5.41508 0
M  V30 4199 H 789.608 -4.78816 3.28024 0
M  V30 4200 H 789.888 -3.64957 6.05871 0
M  V30 4201 H 790.879 -4.88748 5.21323 0
M  V30 4202 H 789.045 -5.66789 7.0643 0
M  V30 4203 P 790.915 -7.20834 5.23717 0
M  V30 4204 O 791.135 -8.66104 5.38572 0
M  V30 4205 O 791.705 -6.33544 6.1349 0
M  V30 4206 O 791.165 -6.7751 3.72168 0
M  V30 4207 C 790.225 -7.20825 2.7076 0
M  V30 4208 C 790.955 -7.45864 1.40599 0
M  V30 4209 O 791.165 -6.17651 0.734225 0
M  V30 4210 C 792.355 -8.05808 1.51899 0
M  V30 4211 O 792.745 -8.74358 0.335205 0
M  V30 4212 C 793.235 -6.83093 1.70294 0
M  V30 4213 C 792.525 -5.79992 0.836974 0
M  V30 4214 N 792.575 -4.41864 1.38293 0
M  V30 4215 H 789.736 -8.13644 3.0377 0
M  V30 4216 H 789.466 -6.42788 2.55485 0
M  V30 4217 H 790.333 -8.12039 0.792769 0
M  V30 4218 P 794.295 -8.91 -5.6149e-12 0
M  V30 4219 O 794.515 -10.1726 -0.733694 0
M  V30 4220 O 795.085 -8.73148 1.23936 0
M  V30 4221 O 794.545 -7.66872 -0.971405 0
M  V30 4222 C 793.605 -7.42309 -2.04641 0
M  V30 4223 C 794.335 -6.86059 -3.24661 0
M  V30 4224 O 794.545 -5.42847 -3.03646 0
M  V30 4225 C 795.735 -7.41196 -3.50753 0
M  V30 4226 O 796.125 -7.27073 -4.86816 0
M  V30 4227 C 796.615 -6.5273 -2.63741 0
M  V30 4228 C 795.905 -5.1842 -2.73198 0
M  V30 4229 N 795.955 -4.38762 -1.4784 0
M  V30 4230 H 793.116 -8.36803 -2.32493 0
M  V30 4231 H 792.846 -6.70197 -1.71129 0
M  V30 4232 H 793.713 -7.03551 -4.13168 0
M  V30 4233 P 797.675 -7.20834 -5.23717 0
M  V30 4234 O 797.895 -7.79853 -6.57286 0
M  V30 4235 O 798.465 -7.79239 -4.12957 0
M  V30 4236 O 797.925 -5.63315 -5.29344 0
M  V30 4237 C 796.985 -4.80255 -6.01876 0
M  V30 4238 C 797.715 -3.64202 -6.65911 0
M  V30 4239 O 797.925 -2.60694 -5.64732 0
M  V30 4240 C 799.115 -3.93473 -7.1943 0
M  V30 4241 O 799.505 -3.02071 -8.21205 0
M  V30 4242 C 799.995 -3.73047 -5.97036 0
M  V30 4243 C 799.285 -2.58828 -5.25741 0
M  V30 4244 N 799.335 -2.68068 -3.77503 0
M  V30 4245 H 796.496 -5.40332 -6.79951 0
M  V30 4246 H 796.226 -4.41613 -5.32378 0
M  V30 4247 H 797.093 -3.26331 -7.47797 0
M  V30 4248 P 801.055 -2.75334 -8.47391 0
M  V30 4249 O 801.275 -2.44571 -9.90142 0
M  V30 4250 O 801.845 -3.87688 -7.92115 0
M  V30 4251 O 801.305 -1.4459 -7.59357 0
M  V30 4252 C 800.365 -0.347608 -7.69215 0
M  V30 4253 C 801.095 0.96767 -7.52806 0
M  V30 4254 O 801.305 1.21036 -6.1011 0
M  V30 4255 C 802.495 1.04544 -8.13308 0
M  V30 4256 O 802.885 2.38311 -8.41922 0
M  V30 4257 C 803.375 0.491279 -7.02284 0
M  V30 4258 C 802.665 0.996264 -5.77469 0
M  V30 4259 N 802.715 0.0501916 -4.62973 0
M  V30 4260 H 799.876 -0.374722 -8.67691 0
M  V30 4261 H 799.606 -0.443485 -6.90277 0
M  V30 4262 H 800.473 1.75537 -7.96793 0
M  V30 4263 P 804.435 2.75334 -8.47391 0
M  V30 4264 O 804.655 3.84166 -9.4489 0
M  V30 4265 O 805.225 1.51964 -8.6881 0
M  V30 4266 O 804.685 3.29363 -6.99321 0
M  V30 4267 C 803.745 4.23956 -6.42656 0
M  V30 4268 C 804.475 5.20775 -5.52155 0
M  V30 4269 O 804.685 4.56534 -4.22446 0
M  V30 4270 C 805.875 5.62629 -5.96531 0
M  V30 4271 O 806.265 6.87667 -5.41053 0
M  V30 4272 C 806.755 4.52537 -5.39283 0
M  V30 4273 C 806.045 4.20027 -4.08623 0
M  V30 4274 N 806.095 2.7613 -3.71522 0
M  V30 4275 C 806.245 2.45612 -2.37989 0
M  V30 4276 O 806.335 3.30919 -1.51621 0
M  V30 4277 N 806.285 1.10684 -2.08435 0
M  V30 4278 C 806.195 0.0690084 -2.9792 0
M  V30 4279 C 806.045 0.481522 -4.35345 0
M  V30 4280 C 805.995 1.78906 -4.67968 0
M  V30 4281 H 803.255 4.797 -7.24003 0
M  V30 4282 H 802.986 3.69802 -5.84429 0
M  V30 4283 H 803.853 6.10356 -5.41441 0
M  V30 4284 H 806.508 4.78651 -3.27911 0
M  V30 4285 H 806.787 3.64957 -6.05871 0
M  V30 4286 H 807.779 4.8868 -5.2125 0
M  V30 4287 H 805.945 5.66726 -7.06352 0
M  V30 4288 H 805.874 2.07737 -5.72367 0
M  V30 4289 P 807.815 7.20834 -5.23717 0
M  V30 4290 O 808.035 8.66104 -5.38572 0
M  V30 4291 O 808.605 6.33544 -6.1349 0
M  V30 4292 O 808.065 6.7751 -3.72168 0
M  V30 4293 C 807.125 7.20825 -2.7076 0
M  V30 4294 C 807.855 7.45864 -1.40599 0
M  V30 4295 O 808.065 6.17651 -0.734225 0
M  V30 4296 C 809.255 8.05808 -1.51899 0
M  V30 4297 O 809.645 8.74358 -0.335205 0
M  V30 4298 C 810.135 6.83093 -1.70294 0
M  V30 4299 C 809.425 5.79992 -0.836974 0
M  V30 4300 N 809.475 4.41864 -1.38293 0
M  V30 4301 H 806.636 8.13644 -3.0377 0
M  V30 4302 H 806.366 6.42788 -2.55485 0
M  V30 4303 H 807.233 8.12039 -0.792769 0
M  V30 4304 P 811.195 8.91 5.77209e-12 0
M  V30 4305 O 811.415 10.1726 0.733694 0
M  V30 4306 O 811.985 8.73148 -1.23936 0
M  V30 4307 O 811.445 7.66872 0.971405 0
M  V30 4308 C 810.505 7.42309 2.04641 0
M  V30 4309 C 811.235 6.86059 3.24661 0
M  V30 4310 O 811.445 5.42847 3.03646 0
M  V30 4311 C 812.635 7.41196 3.50753 0
M  V30 4312 O 813.025 7.27073 4.86816 0
M  V30 4313 C 813.515 6.5273 2.63741 0
M  V30 4314 C 812.805 5.1842 2.73198 0
M  V30 4315 N 812.855 4.38762 1.4784 0
M  V30 4316 H 810.016 8.36803 2.32493 0
M  V30 4317 H 809.746 6.70197 1.71129 0
M  V30 4318 H 810.613 7.03551 4.13168 0
M  V30 4319 P 814.575 7.20834 5.23717 0
M  V30 4320 O 814.795 7.79853 6.57286 0
M  V30 4321 O 815.365 7.79239 4.12957 0
M  V30 4322 O 814.825 5.63315 5.29344 0
M  V30 4323 C 813.885 4.80255 6.01876 0
M  V30 4324 C 814.615 3.64202 6.65911 0
M  V30 4325 O 814.825 2.60694 5.64732 0
M  V30 4326 C 816.015 3.93473 7.1943 0
M  V30 4327 O 816.405 3.02071 8.21205 0
M  V30 4328 C 816.895 3.73047 5.97036 0
M  V30 4329 C 816.185 2.58828 5.25741 0
M  V30 4330 N 816.235 2.68068 3.77503 0
M  V30 4331 H 813.396 5.40332 6.79951 0
M  V30 4332 H 813.126 4.41613 5.32378 0
M  V30 4333 H 813.993 3.26331 7.47797 0
M  V30 4334 P 817.955 2.75334 8.47391 0
M  V30 4335 O 818.175 2.44571 9.90142 0
M  V30 4336 O 818.745 3.87688 7.92115 0
M  V30 4337 O 818.205 1.4459 7.59357 0
M  V30 4338 C 817.265 0.347608 7.69215 0
M  V30 4339 C 817.995 -0.96767 7.52806 0
M  V30 4340 O 818.205 -1.21036 6.1011 0
M  V30 4341 C 819.395 -1.04544 8.13308 0
M  V30 4342 O 819.785 -2.38311 8.41922 0
M  V30 4343 C 820.275 -0.491279 7.02284 0
M  V30 4344 C 819.565 -0.996264 5.77469 0
M  V30 4345 N 819.615 -0.0501916 4.62973 0
M  V30 4346 H 816.776 0.374722 8.67691 0
M  V30 4347 H 816.506 0.443485 6.90277 0
M  V30 4348 H 817.373 -1.75537 7.96793 0
M  V30 4349 P 821.335 -2.75334 8.47391 0
M  V30 4350 O 821.555 -3.84166 9.4489 0
M  V30 4351 O 822.125 -1.51964 8.6881 0
M  V30 4352 O 821.585 -3.29363 6.99321 0
M  V30 4353 C 820.645 -4.23956 6.42656 0
M  V30 4354 C 821.375 -5.20775 5.52155 0
M  V30 4355 O 821.585 -4.56534 4.22446 0
M  V30 4356 C 822.775 -5.62629 5.96531 0
M  V30 4357 O 823.165 -6.87667 5.41053 0
M  V30 4358 C 823.655 -4.52537 5.39283 0
M  V30 4359 C 822.945 -4.20027 4.08623 0
M  V30 4360 N 822.995 -2.7613 3.71522 0
M  V30 4361 C 823.145 -2.45612 2.37989 0
M  V30 4362 O 823.235 -3.30919 1.51621 0
M  V30 4363 N 823.185 -1.10684 2.08435 0
M  V30 4364 C 823.095 -0.0690084 2.9792 0
M  V30 4365 C 822.945 -0.481522 4.35345 0
M  V30 4366 C 822.895 -1.78906 4.67968 0
M  V30 4367 H 820.155 -4.797 7.24003 0
M  V30 4368 H 819.886 -3.69802 5.84429 0
M  V30 4369 H 820.753 -6.10356 5.41441 0
M  V30 4370 H 823.408 -4.78651 3.27911 0
M  V30 4371 H 823.687 -3.64957 6.05871 0
M  V30 4372 H 824.679 -4.8868 5.2125 0
M  V30 4373 H 822.845 -5.66726 7.06352 0
M  V30 4374 H 822.774 -2.07737 5.72367 0
M  V30 4375 P 824.715 -7.20834 5.23717 0
M  V30 4376 O 824.935 -8.66274 5.38678 0
M  V30 4377 O 825.505 -6.33687 6.13629 0
M  V30 4378 O 824.965 -6.7751 3.72168 0
M  V30 4379 C 824.025 -7.20919 2.70795 0
M  V30 4380 C 824.755 -7.45864 1.40599 0
M  V30 4381 O 824.965 -6.17751 0.734343 0
M  V30 4382 C 826.155 -8.05906 1.51917 0
M  V30 4383 O 826.545 -8.74358 0.335205 0
M  V30 4384 C 827.035 -6.83093 1.70294 0
M  V30 4385 C 826.325 -5.79992 0.836974 0
M  V30 4386 N 826.375 -4.41864 1.38293 0
M  V30 4387 H 823.537 -8.13738 3.03804 0
M  V30 4388 H 823.265 -6.42974 2.55559 0
M  V30 4389 H 824.133 -8.12139 0.792866 0
M  V30 4390 H 826.788 -5.80178 -0.160643 0
M  V30 4391 H 827.068 -6.51379 2.75643 0
M  V30 4392 H 828.059 -7.01832 1.3448 0
M  V30 4393 H 826.225 -8.73771 2.38364 0
M  V30 4394 P 828.095 -8.91 -5.92927e-12 0
M  V30 4395 O 828.315 -10.1726 -0.733694 0
M  V30 4396 O 828.885 -8.73148 1.23936 0
M  V30 4397 O 828.345 -7.66872 -0.971405 0
M  V30 4398 C 827.405 -7.42309 -2.04641 0
M  V30 4399 C 828.135 -6.86059 -3.24661 0
M  V30 4400 O 828.345 -5.42847 -3.03646 0
M  V30 4401 C 829.535 -7.41196 -3.50753 0
M  V30 4402 O 829.925 -7.27073 -4.86816 0
M  V30 4403 C 830.415 -6.5273 -2.63741 0
M  V30 4404 C 829.705 -5.1842 -2.73198 0
M  V30 4405 N 829.755 -4.38762 -1.4784 0
M  V30 4406 H 826.916 -8.36803 -2.32493 0
M  V30 4407 H 826.646 -6.70197 -1.71129 0
M  V30 4408 H 827.513 -7.03551 -4.13168 0
M  V30 4409 P 831.475 -7.20834 -5.23717 0
M  V30 4410 O 831.695 -7.79853 -6.57286 0
M  V30 4411 O 832.265 -7.79239 -4.12957 0
M  V30 4412 O 831.725 -5.63315 -5.29344 0
M  V30 4413 C 830.785 -4.80255 -6.01876 0
M  V30 4414 C 831.515 -3.64202 -6.65911 0
M  V30 4415 O 831.725 -2.60694 -5.64732 0
M  V30 4416 C 832.915 -3.93473 -7.1943 0
M  V30 4417 O 833.305 -3.02071 -8.21205 0
M  V30 4418 C 833.795 -3.73047 -5.97036 0
M  V30 4419 C 833.085 -2.58828 -5.25741 0
M  V30 4420 N 833.135 -2.68068 -3.77503 0
M  V30 4421 H 830.296 -5.40332 -6.79951 0
M  V30 4422 H 830.026 -4.41613 -5.32378 0
M  V30 4423 H 830.893 -3.26331 -7.47797 0
M  V30 4424 P 834.855 -2.75334 -8.47391 0
M  V30 4425 O 835.075 -2.44571 -9.90142 0
M  V30 4426 O 835.645 -3.87688 -7.92115 0
M  V30 4427 O 835.105 -1.4459 -7.59357 0
M  V30 4428 C 834.165 -0.347608 -7.69215 0
M  V30 4429 C 834.895 0.96767 -7.52806 0
M  V30 4430 O 835.105 1.21036 -6.1011 0
M  V30 4431 C 836.295 1.04544 -8.13308 0
M  V30 4432 O 836.685 2.38311 -8.41922 0
M  V30 4433 C 837.175 0.491279 -7.02284 0
M  V30 4434 C 836.465 0.996264 -5.77469 0
M  V30 4435 N 836.515 0.0501916 -4.62973 0
M  V30 4436 H 833.676 -0.374722 -8.67691 0
M  V30 4437 H 833.406 -0.443485 -6.90277 0
M  V30 4438 H 834.273 1.75537 -7.96793 0
M  V30 4439 P 838.235 2.75334 -8.47391 0
M  V30 4440 O 838.455 3.84128 -9.44797 0
M  V30 4441 O 839.025 1.51947 -8.68712 0
M  V30 4442 O 838.485 3.29363 -6.99321 0
M  V30 4443 C 837.545 4.24011 -6.4274 0
M  V30 4444 C 838.275 5.20775 -5.52155 0
M  V30 4445 O 838.485 4.56534 -4.22446 0
M  V30 4446 C 839.675 5.62629 -5.96531 0
M  V30 4447 O 840.065 6.87667 -5.41053 0
M  V30 4448 C 840.555 4.52537 -5.39283 0
M  V30 4449 C 839.845 4.20027 -4.08623 0
M  V30 4450 N 839.895 2.76189 -3.71603 0
M  V30 4451 H 837.056 4.797 -7.24003 0
M  V30 4452 H 836.786 3.69856 -5.84513 0
M  V30 4453 H 837.653 6.10356 -5.41441 0
M  V30 4454 P 841.615 7.20834 -5.23717 0
M  V30 4455 O 841.835 8.66104 -5.38572 0
M  V30 4456 O 842.405 6.33544 -6.1349 0
M  V30 4457 O 841.865 6.7751 -3.72168 0
M  V30 4458 C 840.925 7.20825 -2.7076 0
M  V30 4459 C 841.655 7.45864 -1.40599 0
M  V30 4460 O 841.865 6.17651 -0.734225 0
M  V30 4461 C 843.055 8.05808 -1.51899 0
M  V30 4462 O 843.445 8.74358 -0.335205 0
M  V30 4463 C 843.935 6.83093 -1.70294 0
M  V30 4464 C 843.225 5.79992 -0.836974 0
M  V30 4465 N 843.275 4.41864 -1.38293 0
M  V30 4466 H 840.436 8.13644 -3.0377 0
M  V30 4467 H 840.166 6.42788 -2.55485 0
M  V30 4468 H 841.033 8.12039 -0.792769 0
M  V30 4469 P 844.995 8.91 6.08645e-12 0
M  V30 4470 O 845.215 10.1726 0.733694 0
M  V30 4471 O 845.785 8.73148 -1.23936 0
M  V30 4472 O 845.245 7.66872 0.971405 0
M  V30 4473 C 844.305 7.42309 2.04641 0
M  V30 4474 C 845.035 6.86059 3.24661 0
M  V30 4475 O 845.245 5.42847 3.03646 0
M  V30 4476 C 846.435 7.41196 3.50753 0
M  V30 4477 O 846.825 7.27073 4.86816 0
M  V30 4478 C 847.315 6.5273 2.63741 0
M  V30 4479 C 846.605 5.1842 2.73198 0
M  V30 4480 N 846.655 4.38762 1.4784 0
M  V30 4481 C 846.575 4.81605 0.168631 0
M  V30 4482 N 846.655 3.85454 -0.713363 0
M  V30 4483 C 846.795 2.6994 0.0566958 0
M  V30 4484 C 846.925 1.34815 -0.338502 0
M  V30 4485 O 846.945 0.869548 -1.47125 0
M  V30 4486 N 847.045 0.496304 0.77465 0
M  V30 4487 C 847.045 0.908403 2.09122 0
M  V30 4488 N 847.175 -0.0517805 3.00955 0
M  V30 4489 N 846.915 2.17875 2.46519 0
M  V30 4490 C 846.795 3.01988 1.4033 0
M  V30 4491 H 843.816 8.36803 2.32493 0
M  V30 4492 H 843.546 6.70197 1.71129 0
M  V30 4493 H 844.413 7.03551 4.13168 0
M  V30 4494 H 847.068 4.59498 3.54415 0
M  V30 4495 H 847.347 6.88898 1.59848 0
M  V30 4496 H 848.339 6.46749 3.03687 0
M  V30 4497 H 846.505 8.46908 3.20714 0
M  V30 4498 H 846.456 5.86405 -0.105564 0
M  V30 4499 H 847.138 -0.483664 0.597855 0
M  V30 4500 H 847.175 0.187865 4.0116 0
M  V30 4501 H 847.276 -1.03585 2.71726 0
M  V30 4502 P 848.375 7.20834 5.23717 0
M  V30 4503 O 848.595 7.7993 6.57351 0
M  V30 4504 O 849.165 7.79328 4.13004 0
M  V30 4505 O 848.625 5.63315 5.29344 0
M  V30 4506 C 847.685 4.80193 6.01798 0
M  V30 4507 C 848.415 3.64202 6.65911 0
M  V30 4508 O 848.625 2.60694 5.64732 0
M  V30 4509 C 849.815 3.93473 7.1943 0
M  V30 4510 O 850.205 3.02071 8.21205 0
M  V30 4511 C 850.695 3.73047 5.97036 0
M  V30 4512 C 849.985 2.58828 5.25741 0
M  V30 4513 N 850.035 2.6801 3.77422 0
M  V30 4514 C 850.185 1.50443 3.07133 0
M  V30 4515 O 850.275 0.419406 3.61576 0
M  V30 4516 N 850.225 1.6403 1.69677 0
M  V30 4517 C 850.135 2.81206 0.986255 0
M  V30 4518 O 850.185 2.80892 -0.249754 0
M  V30 4519 C 849.985 3.99158 1.80325 0
M  V30 4520 C 849.875 5.29309 1.06921 0
M  V30 4521 C 849.935 3.89779 3.1476 0
M  V30 4522 H 847.195 5.40332 6.79951 0
M  V30 4523 H 846.926 4.41549 5.32301 0
M  V30 4524 H 847.793 3.26331 7.47797 0
M  V30 4525 H 850.448 1.6395 5.56554 0
M  V30 4526 H 850.727 4.63439 5.3432 0
M  V30 4527 H 851.719 3.44728 6.25838 0
M  V30 4528 H 849.885 4.96652 7.57263 0
M  V30 4529 H 849.814 4.80159 3.74441 0
M  V30 4530 H 850.844 5.81459 1.09608 0
M  V30 4531 H 849.107 5.9187 1.54487 0
M  V30 4532 H 849.595 5.10095 0.0220288 0
M  V30 4533 H 850.331 0.798962 1.16664 0
M  V30 4534 P 851.755 2.75334 8.47391 0
M  V30 4535 O 851.975 2.44571 9.90142 0
M  V30 4536 O 852.545 3.87688 7.92115 0
M  V30 4537 O 852.005 1.4459 7.59357 0
M  V30 4538 C 851.065 0.347608 7.69215 0
M  V30 4539 C 851.795 -0.96767 7.52806 0
M  V30 4540 O 852.005 -1.21036 6.1011 0
M  V30 4541 C 853.195 -1.04544 8.13308 0
M  V30 4542 O 853.585 -2.38311 8.41922 0
M  V30 4543 C 854.075 -0.491279 7.02284 0
M  V30 4544 C 853.365 -0.996264 5.77469 0
M  V30 4545 N 853.415 -0.0501916 4.62973 0
M  V30 4546 H 850.576 0.374722 8.67691 0
M  V30 4547 H 850.306 0.443485 6.90277 0
M  V30 4548 H 851.173 -1.75537 7.96793 0
M  V30 4549 P 855.135 -2.75334 8.47391 0
M  V30 4550 O 855.355 -3.84128 9.44797 0
M  V30 4551 O 855.925 -1.51947 8.68712 0
M  V30 4552 O 855.385 -3.29363 6.99321 0
M  V30 4553 C 854.445 -4.24011 6.4274 0
M  V30 4554 C 855.175 -5.20775 5.52155 0
M  V30 4555 O 855.385 -4.56534 4.22446 0
M  V30 4556 C 856.575 -5.62629 5.96531 0
M  V30 4557 O 856.965 -6.87667 5.41053 0
M  V30 4558 C 857.455 -4.52537 5.39283 0
M  V30 4559 C 856.745 -4.20027 4.08623 0
M  V30 4560 N 856.795 -2.76189 3.71603 0
M  V30 4561 H 853.956 -4.797 7.24003 0
M  V30 4562 H 853.686 -3.69856 5.84513 0
M  V30 4563 H 854.553 -6.10356 5.41441 0
M  V30 4564 P 858.515 -7.20834 5.23717 0
M  V30 4565 O 858.735 -8.66104 5.38572 0
M  V30 4566 O 859.305 -6.33544 6.1349 0
M  V30 4567 O 858.765 -6.7751 3.72168 0
M  V30 4568 C 857.825 -7.20825 2.7076 0
M  V30 4569 C 858.555 -7.45864 1.40599 0
M  V30 4570 O 858.765 -6.17651 0.734225 0
M  V30 4571 C 859.955 -8.05808 1.51899 0
M  V30 4572 O 860.345 -8.74358 0.335205 0
M  V30 4573 C 860.835 -6.83093 1.70294 0
M  V30 4574 C 860.125 -5.79992 0.836974 0
M  V30 4575 N 860.175 -4.41864 1.38293 0
M  V30 4576 H 857.336 -8.13644 3.0377 0
M  V30 4577 H 857.066 -6.42788 2.55485 0
M  V30 4578 H 857.933 -8.12039 0.792769 0
M  V30 4579 P 861.895 -8.91 -6.24363e-12 0
M  V30 4580 O 862.115 -10.1736 -0.733766 0
M  V30 4581 O 862.685 -8.73247 1.2395 0
M  V30 4582 O 862.145 -7.66872 -0.971405 0
M  V30 4583 C 861.205 -7.42212 -2.04614 0
M  V30 4584 C 861.935 -6.86059 -3.24661 0
M  V30 4585 O 862.145 -5.42847 -3.03646 0
M  V30 4586 C 863.335 -7.41196 -3.50753 0
M  V30 4587 O 863.725 -7.27073 -4.86816 0
M  V30 4588 C 864.215 -6.5273 -2.63741 0
M  V30 4589 C 863.505 -5.1842 -2.73198 0
M  V30 4590 N 863.555 -4.38668 -1.47808 0
M  V30 4591 C 863.705 -3.02239 -1.60048 0
M  V30 4592 O 863.795 -2.46459 -2.67869 0
M  V30 4593 N 863.745 -2.32436 -0.408571 0
M  V30 4594 C 863.655 -2.85471 0.854993 0
M  V30 4595 C 863.505 -4.28918 0.887335 0
M  V30 4596 C 863.455 -5.00349 -0.255399 0
M  V30 4597 H 860.715 -8.36803 -2.32493 0
M  V30 4598 H 860.446 -6.701 -1.71105 0
M  V30 4599 H 861.313 -7.03551 -4.13168 0
M  V30 4600 H 863.968 -4.59773 -3.53894 0
M  V30 4601 H 864.247 -6.88995 -1.59871 0
M  V30 4602 H 865.239 -6.46749 -3.03687 0
M  V30 4603 H 863.405 -8.46908 -3.20714 0
M  V30 4604 H 863.334 -6.08548 -0.206986 0
M  V30 4605 P 865.275 -7.20834 -5.23717 0
M  V30 4606 O 865.495 -7.79853 -6.57286 0
M  V30 4607 O 866.065 -7.79239 -4.12957 0
M  V30 4608 O 865.525 -5.63315 -5.29344 0
M  V30 4609 C 864.585 -4.80255 -6.01876 0
M  V30 4610 C 865.315 -3.64202 -6.65911 0
M  V30 4611 O 865.525 -2.60694 -5.64732 0
M  V30 4612 C 866.715 -3.93473 -7.1943 0
M  V30 4613 O 867.105 -3.02071 -8.21205 0
M  V30 4614 C 867.595 -3.73047 -5.97036 0
M  V30 4615 C 866.885 -2.58828 -5.25741 0
M  V30 4616 N 866.935 -2.68068 -3.77503 0
M  V30 4617 H 864.096 -5.40332 -6.79951 0
M  V30 4618 H 863.826 -4.41613 -5.32378 0
M  V30 4619 H 864.693 -3.26331 -7.47797 0
M  V30 4620 P 868.655 -2.75334 -8.47391 0
M  V30 4621 O 868.875 -2.44571 -9.90142 0
M  V30 4622 O 869.445 -3.87688 -7.92115 0
M  V30 4623 O 868.905 -1.4459 -7.59357 0
M  V30 4624 C 867.965 -0.347608 -7.69215 0
M  V30 4625 C 868.695 0.96767 -7.52806 0
M  V30 4626 O 868.905 1.21036 -6.1011 0
M  V30 4627 C 870.095 1.04544 -8.13308 0
M  V30 4628 O 870.485 2.38311 -8.41922 0
M  V30 4629 C 870.975 0.491279 -7.02284 0
M  V30 4630 C 870.265 0.996264 -5.77469 0
M  V30 4631 N 870.315 0.0501916 -4.62973 0
M  V30 4632 H 867.476 -0.374722 -8.67691 0
M  V30 4633 H 867.206 -0.443485 -6.90277 0
M  V30 4634 H 868.073 1.75537 -7.96793 0
M  V30 4635 P 872.035 2.75334 -8.47391 0
M  V30 4636 O 872.255 3.84128 -9.44797 0
M  V30 4637 O 872.825 1.51947 -8.68712 0
M  V30 4638 O 872.285 3.29363 -6.99321 0
M  V30 4639 C 871.345 4.24011 -6.4274 0
M  V30 4640 C 872.075 5.20775 -5.52155 0
M  V30 4641 O 872.285 4.56534 -4.22446 0
M  V30 4642 C 873.475 5.62629 -5.96531 0
M  V30 4643 O 873.865 6.87667 -5.41053 0
M  V30 4644 C 874.355 4.52537 -5.39283 0
M  V30 4645 C 873.645 4.20027 -4.08623 0
M  V30 4646 N 873.695 2.76189 -3.71603 0
M  V30 4647 H 870.856 4.797 -7.24003 0
M  V30 4648 H 870.586 3.69856 -5.84513 0
M  V30 4649 H 871.453 6.10356 -5.41441 0
M  V30 4650 H 873.734 6.85814 -4.46035 0
M  V30 4651 H 877.756 -5.51656 7.74769 0
M  V30 4652 O 877.636 -4.58361 7.63359 0
M  V30 4653 P 876.195 -4.23843 7.83734 0
M  V30 4654 O 875.975 -4.19407 9.29784 0
M  V30 4655 O 875.405 -5.24426 7.09156 0
M  V30 4656 O 875.945 -2.7935 7.20758 0
M  V30 4657 C 876.885 -1.7299 7.50419 0
M  V30 4658 C 876.155 -0.406376 7.57911 0
M  V30 4659 O 875.945 0.0897726 6.21935 0
M  V30 4660 C 874.755 -0.447224 8.1878 0
M  V30 4661 O 874.365 0.825065 8.71101 0
M  V30 4662 C 873.875 -0.783801 6.99623 0
M  V30 4663 C 874.585 -0.0619192 5.85967 0
M  V30 4664 N 874.535 -0.7859 4.56281 0
M  V30 4665 H 877.374 -1.93423 8.4679 0
M  V30 4666 H 877.646 -1.68181 6.71046 0
M  V30 4667 H 876.778 0.289041 8.15388 0
M  V30 4668 P 872.815 1.17771 8.83182 0
M  V30 4669 O 872.595 2.07206 9.98732 0
M  V30 4670 O 872.025 -0.0743816 8.81969 0
M  V30 4671 O 872.565 1.97652 7.47304 0
M  V30 4672 C 873.505 3.01133 7.08783 0
M  V30 4673 C 872.775 4.12613 6.37049 0
M  V30 4674 O 872.565 3.72827 4.97879 0
M  V30 4675 C 871.375 4.45085 6.88694 0
M  V30 4676 O 870.985 5.7877 6.5624 0
M  V30 4677 C 870.495 3.47817 6.12078 0
M  V30 4678 C 871.205 3.39414 4.77697 0
M  V30 4679 N 871.155 2.04615 4.15333 0
M  V30 4680 H 873.994 3.41248 7.98759 0
M  V30 4681 H 874.266 2.5837 6.41742 0
M  V30 4682 H 873.398 5.02657 6.42673 0
M  V30 4683 P 869.435 6.144 6.45285 0
M  V30 4684 O 869.215 7.54673 6.86199 0
M  V30 4685 O 868.645 5.12391 7.179 0
M  V30 4686 O 869.185 5.99158 4.88404 0
M  V30 4687 C 870.125 6.60234 3.96415 0
M  V30 4688 C 869.395 7.08259 2.72856 0
M  V30 4689 O 869.185 5.9427 1.83651 0
M  V30 4690 C 867.995 7.64886 2.9555 0
M  V30 4691 O 867.605 8.53963 1.90717 0
M  V30 4692 C 867.115 6.4116 2.90739 0
M  V30 4693 C 867.825 5.55375 1.86963 0
M  V30 4694 N 867.775 4.09664 2.15742 0
M  V30 4695 H 870.614 7.45574 4.45629 0
M  V30 4696 H 870.886 5.86232 3.67314 0
M  V30 4697 H 870.018 7.84412 2.24479 0
M  V30 4698 P 866.055 8.7635 1.60911 0
M  V30 4699 O 865.835 10.1388 1.11561 0
M  V30 4700 O 865.265 8.36503 2.79617 0
M  V30 4701 O 865.805 7.71806 0.42951 0
M  V30 4702 C 866.745 7.67148 -0.673689 0
M  V30 4703 C 866.015 7.33374 -1.95559 0
M  V30 4704 O 865.805 5.88721 -2.00726 0
M  V30 4705 C 864.615 7.92526 -2.10483 0
M  V30 4706 O 864.225 8.02971 -3.47653 0
M  V30 4707 C 863.735 6.89602 -1.41652 0
M  V30 4708 C 864.445 5.59201 -1.75185 0
M  V30 4709 N 864.395 4.58235 -0.662552 0
M  V30 4710 C 864.475 4.7683 0.704049 0
M  V30 4711 N 864.395 3.66233 1.39775 0
M  V30 4712 C 864.255 2.66526 0.431739 0
M  V30 4713 C 864.125 1.26394 0.575992 0
M  V30 4714 N 864.005 0.62859 -0.67177 0
M  V30 4715 C 864.005 1.27134 -1.89385 0
M  V30 4716 N 863.875 0.492035 -2.96951 0
M  V30 4717 N 864.135 2.58978 -2.02907 0
M  V30 4718 C 864.255 3.22433 -0.832218 0
M  V30 4719 H 867.234 8.65116 -0.777161 0
M  V30 4720 H 867.506 6.90173 -0.474152 0
M  V30 4721 H 866.638 7.66548 -2.79458 0
M  V30 4722 P 862.675 8.03563 -3.84925 0
M  V30 4723 O 862.455 8.85821 -5.0569 0
M  V30 4724 O 861.885 8.41101 -2.65469 0
M  V30 4725 O 862.425 6.4965 -4.18908 0
M  V30 4726 C 863.365 5.81037 -5.05421 0
M  V30 4727 C 862.635 4.78366 -5.89277 0
M  V30 4728 O 862.425 3.58302 -5.08433 0
M  V30 4729 C 861.235 5.17448 -6.36119 0
M  V30 4730 O 860.845 4.45271 -7.53232 0
M  V30 4731 C 860.355 4.74639 -5.19936 0
M  V30 4732 C 861.065 3.49432 -4.70418 0
M  V30 4733 N 861.015 3.31776 -3.22945 0
M  V30 4734 H 863.854 6.54213 -5.71376 0
M  V30 4735 H 864.126 5.30492 -4.44033 0
M  V30 4736 H 863.258 4.55889 -6.76652 0
M  V30 4737 P 859.295 4.23843 -7.83734 0
M  V30 4738 O 859.075 4.19407 -9.29784 0
M  V30 4739 O 858.505 5.24426 -7.09156 0
M  V30 4740 O 859.045 2.7935 -7.20758 0
M  V30 4741 C 859.985 1.7299 -7.50419 0
M  V30 4742 C 859.255 0.406376 -7.57911 0
M  V30 4743 O 859.045 -0.0897726 -6.21935 0
M  V30 4744 C 857.855 0.447224 -8.1878 0
M  V30 4745 O 857.465 -0.825065 -8.71101 0
M  V30 4746 C 856.975 0.783801 -6.99623 0
M  V30 4747 C 857.685 0.0619192 -5.85967 0
M  V30 4748 N 857.635 0.7859 -4.56281 0
M  V30 4749 H 860.474 1.93423 -8.4679 0
M  V30 4750 H 860.746 1.68181 -6.71046 0
M  V30 4751 H 859.878 -0.289041 -8.15388 0
M  V30 4752 P 855.915 -1.17771 -8.83182 0
M  V30 4753 O 855.695 -2.07206 -9.98732 0
M  V30 4754 O 855.125 0.0743816 -8.81969 0
M  V30 4755 O 855.665 -1.97652 -7.47304 0
M  V30 4756 C 856.605 -3.01133 -7.08783 0
M  V30 4757 C 855.875 -4.12613 -6.37049 0
M  V30 4758 O 855.665 -3.72827 -4.97879 0
M  V30 4759 C 854.475 -4.45085 -6.88694 0
M  V30 4760 O 854.085 -5.7877 -6.5624 0
M  V30 4761 C 853.595 -3.47817 -6.12078 0
M  V30 4762 C 854.305 -3.39414 -4.77697 0
M  V30 4763 N 854.255 -2.04199 -4.15538 0
M  V30 4764 H 857.094 -3.41248 -7.98759 0
M  V30 4765 H 857.366 -2.57728 -6.42 0
M  V30 4766 H 856.498 -5.02657 -6.42673 0
M  V30 4767 H 853.843 -4.11708 -4.08956 0
M  V30 4768 H 853.563 -2.49626 -6.61679 0
M  V30 4769 H 852.572 -3.8662 -6.00862 0
M  V30 4770 H 854.406 -4.29991 -7.97006 0
M  V30 4771 P 852.535 -6.144 -6.45285 0
M  V30 4772 O 852.315 -7.54673 -6.86199 0
M  V30 4773 O 851.745 -5.12391 -7.179 0
M  V30 4774 O 852.285 -5.99158 -4.88404 0
M  V30 4775 C 853.225 -6.60234 -3.96415 0
M  V30 4776 C 852.495 -7.08259 -2.72856 0
M  V30 4777 O 852.285 -5.9427 -1.83651 0
M  V30 4778 C 851.095 -7.64886 -2.9555 0
M  V30 4779 O 850.705 -8.53963 -1.90717 0
M  V30 4780 C 850.215 -6.4116 -2.90739 0
M  V30 4781 C 850.925 -5.55375 -1.86963 0
M  V30 4782 N 850.875 -4.09448 -2.16152 0
M  V30 4783 C 850.955 -3.46824 -3.37593 0
M  V30 4784 N 850.885 -2.17422 -3.29777 0
M  V30 4785 C 850.735 -1.93065 -1.94427 0
M  V30 4786 C 850.605 -0.738053 -1.20141 0
M  V30 4787 N 850.595 0.474256 -1.74676 0
M  V30 4788 N 850.485 -0.850049 0.13045 0
M  V30 4789 C 850.495 -2.06169 0.676992 0
M  V30 4790 N 850.615 -3.23842 0.101312 0
M  V30 4791 C 850.735 -3.09402 -1.23122 0
M  V30 4792 H 853.714 -7.45574 -4.45629 0
M  V30 4793 H 853.986 -5.85864 -3.679 0
M  V30 4794 H 853.118 -7.84412 -2.24479 0
M  V30 4795 H 850.463 -5.73457 -0.888562 0
M  V30 4796 H 850.183 -5.90877 -3.88583 0
M  V30 4797 H 849.192 -6.6596 -2.58858 0
M  V30 4798 H 851.026 -8.16339 -3.92049 0
M  V30 4799 H 851.067 -4.00505 -4.3174 0
M  V30 4800 H 850.686 0.581337 -2.76658 0
M  V30 4801 H 850.497 1.30811 -1.14888 0
M  V30 4802 H 850.389 -2.08295 1.75542 0
M  V30 4803 P 849.155 -8.7635 -1.60911 0
M  V30 4804 O 848.935 -10.1388 -1.11561 0
M  V30 4805 O 848.365 -8.36503 -2.79617 0
M  V30 4806 O 848.905 -7.71906 -0.429565 0
M  V30 4807 C 849.845 -7.67148 0.673689 0
M  V30 4808 C 849.115 -7.33666 1.94851 0
M  V30 4809 O 848.905 -5.88816 2.00759 0
M  V30 4810 C 847.715 -7.92526 2.10483 0
M  V30 4811 O 847.325 -8.03063 3.47693 0
M  V30 4812 C 846.835 -6.89602 1.41652 0
M  V30 4813 C 847.545 -5.59201 1.75185 0
M  V30 4814 N 847.495 -4.58235 0.662552 0
M  V30 4815 C 847.345 -3.24451 1.01643 0
M  V30 4816 O 847.255 -2.94958 2.21722 0
M  V30 4817 N 847.295 -2.30408 -0.165238 0
M  V30 4818 C 847.395 -2.66048 -1.25118 0
M  V30 4819 N 847.345 -1.70787 -2.16813 0
M  V30 4820 C 847.545 -4.02732 -1.64413 0
M  V30 4821 C 847.595 -4.9488 -0.63991 0
M  V30 4822 H 850.335 -8.65017 0.777072 0
M  V30 4823 H 850.605 -6.90173 0.474152 0
M  V30 4824 H 849.738 -7.66642 2.79492 0
M  V30 4825 H 847.083 -5.16254 2.65229 0
M  V30 4826 H 846.803 -7.06532 0.329431 0
M  V30 4827 H 845.812 -6.91023 1.82047 0
M  V30 4828 H 847.646 -8.90873 1.62657 0
M  V30 4829 H 847.718 -6.00104 -0.892197 0
M  V30 4830 H 847.616 -4.31733 -2.69229 0
M  V30 4831 H 847.228 -0.724835 -1.8844 0
M  V30 4832 H 847.424 -1.94716 -3.16734 0
M  V30 4833 P 845.775 -8.03563 3.84925 0
M  V30 4834 O 845.555 -8.85821 5.0569 0
M  V30 4835 O 844.985 -8.41101 2.65469 0
M  V30 4836 O 845.525 -6.4965 4.18908 0
M  V30 4837 C 846.465 -5.81037 5.05421 0
M  V30 4838 C 845.735 -4.78366 5.89277 0
M  V30 4839 O 845.525 -3.58302 5.08433 0
M  V30 4840 C 844.335 -5.17448 6.36119 0
M  V30 4841 O 843.945 -4.45271 7.53232 0
M  V30 4842 C 843.455 -4.74639 5.19936 0
M  V30 4843 C 844.165 -3.49432 4.70418 0
M  V30 4844 N 844.115 -3.31776 3.22945 0
M  V30 4845 H 846.954 -6.54213 5.71376 0
M  V30 4846 H 847.226 -5.30492 4.44033 0
M  V30 4847 H 846.358 -4.55889 6.76652 0
M  V30 4848 P 842.395 -4.23843 7.83734 0
M  V30 4849 O 842.175 -4.19407 9.29784 0
M  V30 4850 O 841.605 -5.24426 7.09156 0
M  V30 4851 O 842.145 -2.7935 7.20758 0
M  V30 4852 C 843.085 -1.7299 7.50419 0
M  V30 4853 C 842.355 -0.406376 7.57911 0
M  V30 4854 O 842.145 0.0897726 6.21935 0
M  V30 4855 C 840.955 -0.447224 8.1878 0
M  V30 4856 O 840.565 0.825065 8.71101 0
M  V30 4857 C 840.075 -0.783801 6.99623 0
M  V30 4858 C 840.785 -0.0619192 5.85967 0
M  V30 4859 N 840.735 -0.790462 4.56202 0
M  V30 4860 H 843.574 -1.93423 8.4679 0
M  V30 4861 H 843.846 -1.68852 6.70877 0
M  V30 4862 H 842.978 0.289041 8.15388 0
M  V30 4863 H 840.323 0.927006 5.72848 0
M  V30 4864 H 840.043 -1.86973 6.82036 0
M  V30 4865 H 839.052 -0.403953 7.13357 0
M  V30 4866 H 840.886 -1.20599 8.97534 0
M  V30 4867 P 839.015 1.17771 8.83182 0
M  V30 4868 O 838.795 2.07206 9.98732 0
M  V30 4869 O 838.225 -0.0743816 8.81969 0
M  V30 4870 O 838.765 1.97652 7.47304 0
M  V30 4871 C 839.705 3.01133 7.08783 0
M  V30 4872 C 838.975 4.12613 6.37049 0
M  V30 4873 O 838.765 3.72827 4.97879 0
M  V30 4874 C 837.575 4.45085 6.88694 0
M  V30 4875 O 837.185 5.7877 6.5624 0
M  V30 4876 C 836.695 3.47817 6.12078 0
M  V30 4877 C 837.405 3.39414 4.77697 0
M  V30 4878 N 837.355 2.04615 4.15333 0
M  V30 4879 H 840.194 3.41248 7.98759 0
M  V30 4880 H 840.466 2.5837 6.41742 0
M  V30 4881 H 839.598 5.02657 6.42673 0
M  V30 4882 P 835.635 6.144 6.45285 0
M  V30 4883 O 835.415 7.54673 6.86199 0
M  V30 4884 O 834.845 5.12391 7.179 0
M  V30 4885 O 835.385 5.99158 4.88404 0
M  V30 4886 C 836.325 6.60234 3.96415 0
M  V30 4887 C 835.595 7.08259 2.72856 0
M  V30 4888 O 835.385 5.9427 1.83651 0
M  V30 4889 C 834.195 7.64886 2.9555 0
M  V30 4890 O 833.805 8.53963 1.90717 0
M  V30 4891 C 833.315 6.4116 2.90739 0
M  V30 4892 C 834.025 5.55375 1.86963 0
M  V30 4893 N 833.975 4.09448 2.16152 0
M  V30 4894 H 836.814 7.45574 4.45629 0
M  V30 4895 H 837.086 5.85864 3.679 0
M  V30 4896 H 836.218 7.84412 2.24479 0
M  V30 4897 H 833.563 5.73457 0.888562 0
M  V30 4898 H 833.283 5.90877 3.88583 0
M  V30 4899 H 832.292 6.6596 2.58858 0
M  V30 4900 H 834.126 8.16339 3.92049 0
M  V30 4901 P 832.255 8.7635 1.60911 0
M  V30 4902 O 832.035 10.1388 1.11561 0
M  V30 4903 O 831.465 8.36503 2.79617 0
M  V30 4904 O 832.005 7.71806 0.42951 0
M  V30 4905 C 832.945 7.67148 -0.673689 0
M  V30 4906 C 832.215 7.33374 -1.95559 0
M  V30 4907 O 832.005 5.88721 -2.00726 0
M  V30 4908 C 830.815 7.92526 -2.10483 0
M  V30 4909 O 830.425 8.02971 -3.47653 0
M  V30 4910 C 829.935 6.89602 -1.41652 0
M  V30 4911 C 830.645 5.59201 -1.75185 0
M  V30 4912 N 830.595 4.58301 -0.657969 0
M  V30 4913 H 833.434 8.65116 -0.777161 0
M  V30 4914 H 833.706 6.9022 -0.46725 0
M  V30 4915 H 832.838 7.66548 -2.79458 0
M  V30 4916 H 830.183 5.16165 -2.65183 0
M  V30 4917 H 829.903 7.06433 -0.329384 0
M  V30 4918 H 828.912 6.90926 -1.82021 0
M  V30 4919 H 830.746 8.90873 -1.62657 0
M  V30 4920 P 828.875 8.03563 -3.84925 0
M  V30 4921 O 828.655 8.85821 -5.0569 0
M  V30 4922 O 828.085 8.41101 -2.65469 0
M  V30 4923 O 828.625 6.4965 -4.18908 0
M  V30 4924 C 829.565 5.81037 -5.05421 0
M  V30 4925 C 828.835 4.78366 -5.89277 0
M  V30 4926 O 828.625 3.58302 -5.08433 0
M  V30 4927 C 827.435 5.17448 -6.36119 0
M  V30 4928 O 827.045 4.45271 -7.53232 0
M  V30 4929 C 826.555 4.74639 -5.19936 0
M  V30 4930 C 827.265 3.49432 -4.70418 0
M  V30 4931 N 827.215 3.31776 -3.22945 0
M  V30 4932 H 830.054 6.54213 -5.71376 0
M  V30 4933 H 830.326 5.30492 -4.44033 0
M  V30 4934 H 829.458 4.55889 -6.76652 0
M  V30 4935 P 825.495 4.23843 -7.83734 0
M  V30 4936 O 825.275 4.19407 -9.29784 0
M  V30 4937 O 824.705 5.24426 -7.09156 0
M  V30 4938 O 825.245 2.7935 -7.20758 0
M  V30 4939 C 826.185 1.7299 -7.50419 0
M  V30 4940 C 825.455 0.406376 -7.57911 0
M  V30 4941 O 825.245 -0.0897726 -6.21935 0
M  V30 4942 C 824.055 0.447224 -8.1878 0
M  V30 4943 O 823.665 -0.825065 -8.71101 0
M  V30 4944 C 823.175 0.783801 -6.99623 0
M  V30 4945 C 823.885 0.0619192 -5.85967 0
M  V30 4946 N 823.835 0.7859 -4.56281 0
M  V30 4947 C 823.915 2.14308 -4.31736 0
M  V30 4948 N 823.835 2.46106 -3.05116 0
M  V30 4949 C 823.695 1.23422 -2.4014 0
M  V30 4950 C 823.565 0.938381 -1.02409 0
M  V30 4951 N 823.445 -0.444647 -0.805413 0
M  V30 4952 C 823.445 -1.40829 -1.79435 0
M  V30 4953 N 823.315 -2.67213 -1.38558 0
M  V30 4954 N 823.575 -1.12947 -3.09005 0
M  V30 4955 C 823.695 0.204887 -3.32369 0
M  V30 4956 H 826.674 1.93423 -8.4679 0
M  V30 4957 H 826.946 1.68181 -6.71046 0
M  V30 4958 H 826.078 -0.289041 -8.15388 0
M  V30 4959 P 822.115 -1.17771 -8.83182 0
M  V30 4960 O 821.895 -2.07206 -9.98732 0
M  V30 4961 O 821.325 0.0743816 -8.81969 0
M  V30 4962 O 821.865 -1.97652 -7.47304 0
M  V30 4963 C 822.805 -3.01133 -7.08783 0
M  V30 4964 C 822.075 -4.12613 -6.37049 0
M  V30 4965 O 821.865 -3.72827 -4.97879 0
M  V30 4966 C 820.675 -4.45085 -6.88694 0
M  V30 4967 O 820.285 -5.7877 -6.5624 0
M  V30 4968 C 819.795 -3.47817 -6.12078 0
M  V30 4969 C 820.505 -3.39414 -4.77697 0
M  V30 4970 N 820.455 -2.04615 -4.15333 0
M  V30 4971 H 823.294 -3.41248 -7.98759 0
M  V30 4972 H 823.566 -2.5837 -6.41742 0
M  V30 4973 H 822.698 -5.02657 -6.42673 0
M  V30 4974 P 818.735 -6.144 -6.45285 0
M  V30 4975 O 818.515 -7.54673 -6.86199 0
M  V30 4976 O 817.945 -5.12391 -7.179 0
M  V30 4977 O 818.485 -5.99158 -4.88404 0
M  V30 4978 C 819.425 -6.60234 -3.96415 0
M  V30 4979 C 818.695 -7.08259 -2.72856 0
M  V30 4980 O 818.485 -5.9427 -1.83651 0
M  V30 4981 C 817.295 -7.64886 -2.9555 0
M  V30 4982 O 816.905 -8.53963 -1.90717 0
M  V30 4983 C 816.415 -6.4116 -2.90739 0
M  V30 4984 C 817.125 -5.55375 -1.86963 0
M  V30 4985 N 817.075 -4.09664 -2.15742 0
M  V30 4986 H 819.914 -7.45574 -4.45629 0
M  V30 4987 H 820.186 -5.86232 -3.67314 0
M  V30 4988 H 819.318 -7.84412 -2.24479 0
M  V30 4989 P 815.355 -8.7635 -1.60911 0
M  V30 4990 O 815.135 -10.1388 -1.11561 0
M  V30 4991 O 814.565 -8.36503 -2.79617 0
M  V30 4992 O 815.105 -7.71806 -0.42951 0
M  V30 4993 C 816.045 -7.67148 0.673689 0
M  V30 4994 C 815.315 -7.33374 1.95559 0
M  V30 4995 O 815.105 -5.88721 2.00726 0
M  V30 4996 C 813.915 -7.92526 2.10483 0
M  V30 4997 O 813.525 -8.02971 3.47653 0
M  V30 4998 C 813.035 -6.89602 1.41652 0
M  V30 4999 C 813.745 -5.59201 1.75185 0
M  V30 5000 N 813.695 -4.58235 0.662552 0
M  V30 5001 H 816.534 -8.65116 0.777161 0
M  V30 5002 H 816.806 -6.90173 0.474152 0
M  V30 5003 H 815.938 -7.66548 2.79458 0
M  V30 5004 P 811.975 -8.03563 3.84925 0
M  V30 5005 O 811.755 -8.85821 5.0569 0
M  V30 5006 O 811.185 -8.41101 2.65469 0
M  V30 5007 O 811.725 -6.4965 4.18908 0
M  V30 5008 C 812.665 -5.81037 5.05421 0
M  V30 5009 C 811.935 -4.78366 5.89277 0
M  V30 5010 O 811.725 -3.58302 5.08433 0
M  V30 5011 C 810.535 -5.17448 6.36119 0
M  V30 5012 O 810.145 -4.45271 7.53232 0
M  V30 5013 C 809.655 -4.74639 5.19936 0
M  V30 5014 C 810.365 -3.49432 4.70418 0
M  V30 5015 N 810.315 -3.31776 3.22945 0
M  V30 5016 H 813.154 -6.54213 5.71376 0
M  V30 5017 H 813.426 -5.30492 4.44033 0
M  V30 5018 H 812.558 -4.55889 6.76652 0
M  V30 5019 P 808.595 -4.23843 7.83734 0
M  V30 5020 O 808.375 -4.19407 9.29784 0
M  V30 5021 O 807.805 -5.24426 7.09156 0
M  V30 5022 O 808.345 -2.7935 7.20758 0
M  V30 5023 C 809.285 -1.7299 7.50419 0
M  V30 5024 C 808.555 -0.406376 7.57911 0
M  V30 5025 O 808.345 0.0897726 6.21935 0
M  V30 5026 C 807.155 -0.447224 8.1878 0
M  V30 5027 O 806.765 0.825065 8.71101 0
M  V30 5028 C 806.275 -0.783801 6.99623 0
M  V30 5029 C 806.985 -0.0619192 5.85967 0
M  V30 5030 N 806.935 -0.7859 4.56281 0
M  V30 5031 C 807.015 -2.14308 4.31736 0
M  V30 5032 N 806.935 -2.46106 3.05116 0
M  V30 5033 C 806.795 -1.23422 2.4014 0
M  V30 5034 C 806.665 -0.938381 1.02409 0
M  V30 5035 N 806.545 0.444647 0.805413 0
M  V30 5036 C 806.545 1.40829 1.79435 0
M  V30 5037 N 806.415 2.67213 1.38558 0
M  V30 5038 N 806.675 1.12947 3.09005 0
M  V30 5039 C 806.795 -0.204887 3.32369 0
M  V30 5040 H 809.774 -1.93423 8.4679 0
M  V30 5041 H 810.046 -1.68181 6.71046 0
M  V30 5042 H 809.178 0.289041 8.15388 0
M  V30 5043 P 805.215 1.17771 8.83182 0
M  V30 5044 O 804.995 2.07206 9.98732 0
M  V30 5045 O 804.425 -0.0743816 8.81969 0
M  V30 5046 O 804.965 1.97652 7.47304 0
M  V30 5047 C 805.905 3.01133 7.08783 0
M  V30 5048 C 805.175 4.12613 6.37049 0
M  V30 5049 O 804.965 3.72827 4.97879 0
M  V30 5050 C 803.775 4.45085 6.88694 0
M  V30 5051 O 803.385 5.7877 6.5624 0
M  V30 5052 C 802.895 3.47817 6.12078 0
M  V30 5053 C 803.605 3.39414 4.77697 0
M  V30 5054 N 803.555 2.04199 4.15538 0
M  V30 5055 H 806.394 3.41248 7.98759 0
M  V30 5056 H 806.666 2.57728 6.42 0
M  V30 5057 H 805.798 5.02657 6.42673 0
M  V30 5058 H 803.143 4.11708 4.08956 0
M  V30 5059 H 802.863 2.49626 6.61679 0
M  V30 5060 H 801.872 3.8662 6.00862 0
M  V30 5061 H 803.706 4.29991 7.97006 0
M  V30 5062 P 801.835 6.144 6.45285 0
M  V30 5063 O 801.615 7.54673 6.86199 0
M  V30 5064 O 801.045 5.12391 7.179 0
M  V30 5065 O 801.585 5.99158 4.88404 0
M  V30 5066 C 802.525 6.60234 3.96415 0
M  V30 5067 C 801.795 7.08259 2.72856 0
M  V30 5068 O 801.585 5.9427 1.83651 0
M  V30 5069 C 800.395 7.64886 2.9555 0
M  V30 5070 O 800.005 8.53963 1.90717 0
M  V30 5071 C 799.515 6.4116 2.90739 0
M  V30 5072 C 800.225 5.55375 1.86963 0
M  V30 5073 N 800.175 4.09448 2.16152 0
M  V30 5074 H 803.014 7.45574 4.45629 0
M  V30 5075 H 803.286 5.85864 3.679 0
M  V30 5076 H 802.418 7.84412 2.24479 0
M  V30 5077 H 799.763 5.73457 0.888562 0
M  V30 5078 H 799.483 5.90877 3.88583 0
M  V30 5079 H 798.492 6.6596 2.58858 0
M  V30 5080 H 800.326 8.16339 3.92049 0
M  V30 5081 P 798.455 8.7635 1.60911 0
M  V30 5082 O 798.235 10.1388 1.11561 0
M  V30 5083 O 797.665 8.36503 2.79617 0
M  V30 5084 O 798.205 7.71806 0.42951 0
M  V30 5085 C 799.145 7.67148 -0.673689 0
M  V30 5086 C 798.415 7.33374 -1.95559 0
M  V30 5087 O 798.205 5.88721 -2.00726 0
M  V30 5088 C 797.015 7.92526 -2.10483 0
M  V30 5089 O 796.625 8.02971 -3.47653 0
M  V30 5090 C 796.135 6.89602 -1.41652 0
M  V30 5091 C 796.845 5.59201 -1.75185 0
M  V30 5092 N 796.795 4.58235 -0.662552 0
M  V30 5093 H 799.634 8.65116 -0.777161 0
M  V30 5094 H 799.906 6.90173 -0.474152 0
M  V30 5095 H 799.038 7.66548 -2.79458 0
M  V30 5096 P 795.075 8.03563 -3.84925 0
M  V30 5097 O 794.855 8.85821 -5.0569 0
M  V30 5098 O 794.285 8.41101 -2.65469 0
M  V30 5099 O 794.825 6.4965 -4.18908 0
M  V30 5100 C 795.765 5.81037 -5.05421 0
M  V30 5101 C 795.035 4.78366 -5.89277 0
M  V30 5102 O 794.825 3.58302 -5.08433 0
M  V30 5103 C 793.635 5.17448 -6.36119 0
M  V30 5104 O 793.245 4.45271 -7.53232 0
M  V30 5105 C 792.755 4.74639 -5.19936 0
M  V30 5106 C 793.465 3.49432 -4.70418 0
M  V30 5107 N 793.415 3.31776 -3.22945 0
M  V30 5108 H 796.254 6.54213 -5.71376 0
M  V30 5109 H 796.526 5.30492 -4.44033 0
M  V30 5110 H 795.658 4.55889 -6.76652 0
M  V30 5111 P 791.695 4.23843 -7.83734 0
M  V30 5112 O 791.475 4.19407 -9.29784 0
M  V30 5113 O 790.905 5.24426 -7.09156 0
M  V30 5114 O 791.445 2.7935 -7.20758 0
M  V30 5115 C 792.385 1.7299 -7.50419 0
M  V30 5116 C 791.655 0.406376 -7.57911 0
M  V30 5117 O 791.445 -0.0897726 -6.21935 0
M  V30 5118 C 790.255 0.447224 -8.1878 0
M  V30 5119 O 789.865 -0.825065 -8.71101 0
M  V30 5120 C 789.375 0.783801 -6.99623 0
M  V30 5121 C 790.085 0.0619192 -5.85967 0
M  V30 5122 N 790.035 0.7859 -4.56281 0
M  V30 5123 H 792.874 1.93423 -8.4679 0
M  V30 5124 H 793.146 1.68181 -6.71046 0
M  V30 5125 H 792.278 -0.289041 -8.15388 0
M  V30 5126 P 788.315 -1.17771 -8.83182 0
M  V30 5127 O 788.095 -2.07206 -9.98732 0
M  V30 5128 O 787.525 0.0743816 -8.81969 0
M  V30 5129 O 788.065 -1.97652 -7.47304 0
M  V30 5130 C 789.005 -3.01133 -7.08783 0
M  V30 5131 C 788.275 -4.12613 -6.37049 0
M  V30 5132 O 788.065 -3.72827 -4.97879 0
M  V30 5133 C 786.875 -4.45085 -6.88694 0
M  V30 5134 O 786.485 -5.7877 -6.5624 0
M  V30 5135 C 785.995 -3.47817 -6.12078 0
M  V30 5136 C 786.705 -3.39414 -4.77697 0
M  V30 5137 N 786.655 -2.04199 -4.15538 0
M  V30 5138 H 789.494 -3.41248 -7.98759 0
M  V30 5139 H 789.766 -2.57728 -6.42 0
M  V30 5140 H 788.898 -5.02657 -6.42673 0
M  V30 5141 H 786.243 -4.11708 -4.08956 0
M  V30 5142 H 785.963 -2.49626 -6.61679 0
M  V30 5143 H 784.972 -3.8662 -6.00862 0
M  V30 5144 H 786.806 -4.29991 -7.97006 0
M  V30 5145 P 784.935 -6.144 -6.45285 0
M  V30 5146 O 784.715 -7.54673 -6.86199 0
M  V30 5147 O 784.145 -5.12391 -7.179 0
M  V30 5148 O 784.685 -5.99158 -4.88404 0
M  V30 5149 C 785.625 -6.60234 -3.96415 0
M  V30 5150 C 784.895 -7.08259 -2.72856 0
M  V30 5151 O 784.685 -5.9427 -1.83651 0
M  V30 5152 C 783.495 -7.64886 -2.9555 0
M  V30 5153 O 783.105 -8.53963 -1.90717 0
M  V30 5154 C 782.615 -6.4116 -2.90739 0
M  V30 5155 C 783.325 -5.55375 -1.86963 0
M  V30 5156 N 783.275 -4.09664 -2.15742 0
M  V30 5157 H 786.114 -7.45574 -4.45629 0
M  V30 5158 H 786.386 -5.86232 -3.67314 0
M  V30 5159 H 785.518 -7.84412 -2.24479 0
M  V30 5160 P 781.555 -8.7635 -1.60911 0
M  V30 5161 O 781.335 -10.1388 -1.11561 0
M  V30 5162 O 780.765 -8.36503 -2.79617 0
M  V30 5163 O 781.305 -7.71806 -0.42951 0
M  V30 5164 C 782.245 -7.67148 0.673689 0
M  V30 5165 C 781.515 -7.33374 1.95559 0
M  V30 5166 O 781.305 -5.88721 2.00726 0
M  V30 5167 C 780.115 -7.92526 2.10483 0
M  V30 5168 O 779.725 -8.02971 3.47653 0
M  V30 5169 C 779.235 -6.89602 1.41652 0
M  V30 5170 C 779.945 -5.59201 1.75185 0
M  V30 5171 N 779.895 -4.58235 0.662552 0
M  V30 5172 H 782.734 -8.65116 0.777161 0
M  V30 5173 H 783.006 -6.90173 0.474152 0
M  V30 5174 H 782.138 -7.66548 2.79458 0
M  V30 5175 P 778.175 -8.03563 3.84925 0
M  V30 5176 O 777.955 -8.85821 5.0569 0
M  V30 5177 O 777.385 -8.41101 2.65469 0
M  V30 5178 O 777.925 -6.4965 4.18908 0
M  V30 5179 C 778.865 -5.81037 5.05421 0
M  V30 5180 C 778.135 -4.78366 5.89277 0
M  V30 5181 O 777.925 -3.58302 5.08433 0
M  V30 5182 C 776.735 -5.17448 6.36119 0
M  V30 5183 O 776.345 -4.45271 7.53232 0
M  V30 5184 C 775.855 -4.74639 5.19936 0
M  V30 5185 C 776.565 -3.49432 4.70418 0
M  V30 5186 N 776.515 -3.31776 3.22945 0
M  V30 5187 C 776.595 -4.27147 2.23315 0
M  V30 5188 N 776.515 -3.78447 1.02186 0
M  V30 5189 C 776.375 -2.41001 1.21732 0
M  V30 5190 C 776.245 -1.36111 0.27694 0
M  V30 5191 N 776.125 -0.113683 0.912949 0
M  V30 5192 C 776.125 0.0846396 2.27943 0
M  V30 5193 N 775.995 1.34737 2.6916 0
M  V30 5194 N 776.255 -0.902521 3.16379 0
M  V30 5195 C 776.375 -2.11937 2.56849 0
M  V30 5196 H 779.354 -6.54213 5.71376 0
M  V30 5197 H 779.626 -5.30492 4.44033 0
M  V30 5198 H 778.758 -4.55889 6.76652 0
M  V30 5199 P 774.795 -4.23843 7.83734 0
M  V30 5200 O 774.575 -4.19407 9.29784 0
M  V30 5201 O 774.005 -5.24426 7.09156 0
M  V30 5202 O 774.545 -2.7935 7.20758 0
M  V30 5203 C 775.485 -1.7299 7.50419 0
M  V30 5204 C 774.755 -0.406376 7.57911 0
M  V30 5205 O 774.545 0.0897726 6.21935 0
M  V30 5206 C 773.355 -0.447224 8.1878 0
M  V30 5207 O 772.965 0.825065 8.71101 0
M  V30 5208 C 772.475 -0.783801 6.99623 0
M  V30 5209 C 773.185 -0.0619192 5.85967 0
M  V30 5210 N 773.135 -0.790462 4.56202 0
M  V30 5211 H 775.974 -1.93423 8.4679 0
M  V30 5212 H 776.246 -1.68852 6.70877 0
M  V30 5213 H 775.378 0.289041 8.15388 0
M  V30 5214 H 772.723 0.927006 5.72848 0
M  V30 5215 H 772.443 -1.86973 6.82036 0
M  V30 5216 H 771.452 -0.403953 7.13357 0
M  V30 5217 H 773.286 -1.20599 8.97534 0
M  V30 5218 P 771.415 1.17771 8.83182 0
M  V30 5219 O 771.195 2.07206 9.98732 0
M  V30 5220 O 770.625 -0.0743816 8.81969 0
M  V30 5221 O 771.165 1.97652 7.47304 0
M  V30 5222 C 772.105 3.01133 7.08783 0
M  V30 5223 C 771.375 4.12613 6.37049 0
M  V30 5224 O 771.165 3.72827 4.97879 0
M  V30 5225 C 769.975 4.45085 6.88694 0
M  V30 5226 O 769.585 5.7877 6.5624 0
M  V30 5227 C 769.095 3.47817 6.12078 0
M  V30 5228 C 769.805 3.39414 4.77697 0
M  V30 5229 N 769.755 2.04199 4.15538 0
M  V30 5230 H 772.594 3.41248 7.98759 0
M  V30 5231 H 772.866 2.57728 6.42 0
M  V30 5232 H 771.998 5.02657 6.42673 0
M  V30 5233 H 769.343 4.11708 4.08956 0
M  V30 5234 H 769.063 2.49626 6.61679 0
M  V30 5235 H 768.072 3.8662 6.00862 0
M  V30 5236 H 769.906 4.29991 7.97006 0
M  V30 5237 P 768.035 6.144 6.45285 0
M  V30 5238 O 767.815 7.54673 6.86199 0
M  V30 5239 O 767.245 5.12391 7.179 0
M  V30 5240 O 767.785 5.99158 4.88404 0
M  V30 5241 C 768.725 6.60234 3.96415 0
M  V30 5242 C 767.995 7.08259 2.72856 0
M  V30 5243 O 767.785 5.9427 1.83651 0
M  V30 5244 C 766.595 7.64886 2.9555 0
M  V30 5245 O 766.205 8.53963 1.90717 0
M  V30 5246 C 765.715 6.4116 2.90739 0
M  V30 5247 C 766.425 5.55375 1.86963 0
M  V30 5248 N 766.375 4.09448 2.16152 0
M  V30 5249 H 769.214 7.45574 4.45629 0
M  V30 5250 H 769.486 5.85864 3.679 0
M  V30 5251 H 768.618 7.84412 2.24479 0
M  V30 5252 H 765.963 5.73457 0.888562 0
M  V30 5253 H 765.683 5.90877 3.88583 0
M  V30 5254 H 764.692 6.6596 2.58858 0
M  V30 5255 H 766.526 8.16339 3.92049 0
M  V30 5256 P 764.656 8.7635 1.60911 0
M  V30 5257 O 764.436 10.1388 1.11561 0
M  V30 5258 O 763.866 8.36503 2.79617 0
M  V30 5259 O 764.406 7.71806 0.42951 0
M  V30 5260 C 765.346 7.67148 -0.673689 0
M  V30 5261 C 764.616 7.33374 -1.95559 0
M  V30 5262 O 764.406 5.88721 -2.00726 0
M  V30 5263 C 763.216 7.92526 -2.10483 0
M  V30 5264 O 762.826 8.02971 -3.47653 0
M  V30 5265 C 762.336 6.89602 -1.41652 0
M  V30 5266 C 763.046 5.59201 -1.75185 0
M  V30 5267 N 762.996 4.58235 -0.662552 0
M  V30 5268 H 765.835 8.65116 -0.777161 0
M  V30 5269 H 766.107 6.90173 -0.474152 0
M  V30 5270 H 765.239 7.66548 -2.79458 0
M  V30 5271 P 761.276 8.03563 -3.84925 0
M  V30 5272 O 761.056 8.85821 -5.0569 0
M  V30 5273 O 760.486 8.41101 -2.65469 0
M  V30 5274 O 761.026 6.4965 -4.18908 0
M  V30 5275 C 761.966 5.81037 -5.05421 0
M  V30 5276 C 761.236 4.78366 -5.89277 0
M  V30 5277 O 761.026 3.58302 -5.08433 0
M  V30 5278 C 759.836 5.17448 -6.36119 0
M  V30 5279 O 759.446 4.45271 -7.53232 0
M  V30 5280 C 758.956 4.74639 -5.19936 0
M  V30 5281 C 759.666 3.49432 -4.70418 0
M  V30 5282 N 759.616 3.31776 -3.22945 0
M  V30 5283 H 762.455 6.54213 -5.71376 0
M  V30 5284 H 762.727 5.30492 -4.44033 0
M  V30 5285 H 761.859 4.55889 -6.76652 0
M  V30 5286 P 757.896 4.23843 -7.83734 0
M  V30 5287 O 757.676 4.19407 -9.29784 0
M  V30 5288 O 757.106 5.24426 -7.09156 0
M  V30 5289 O 757.646 2.7935 -7.20758 0
M  V30 5290 C 758.586 1.7299 -7.50419 0
M  V30 5291 C 757.856 0.406376 -7.57911 0
M  V30 5292 O 757.646 -0.0897726 -6.21935 0
M  V30 5293 C 756.456 0.447224 -8.1878 0
M  V30 5294 O 756.066 -0.825065 -8.71101 0
M  V30 5295 C 755.576 0.783801 -6.99623 0
M  V30 5296 C 756.286 0.0619192 -5.85967 0
M  V30 5297 N 756.236 0.790462 -4.56202 0
M  V30 5298 H 759.075 1.93423 -8.4679 0
M  V30 5299 H 759.347 1.68852 -6.70877 0
M  V30 5300 H 758.479 -0.289041 -8.15388 0
M  V30 5301 H 755.824 -0.927006 -5.72848 0
M  V30 5302 H 755.544 1.86973 -6.82036 0
M  V30 5303 H 754.553 0.403953 -7.13357 0
M  V30 5304 H 756.387 1.20599 -8.97534 0
M  V30 5305 P 754.516 -1.17771 -8.83182 0
M  V30 5306 O 754.296 -2.07206 -9.98732 0
M  V30 5307 O 753.726 0.0743816 -8.81969 0
M  V30 5308 O 754.266 -1.97652 -7.47304 0
M  V30 5309 C 755.206 -3.01133 -7.08783 0
M  V30 5310 C 754.476 -4.12613 -6.37049 0
M  V30 5311 O 754.266 -3.72827 -4.97879 0
M  V30 5312 C 753.076 -4.45085 -6.88694 0
M  V30 5313 O 752.686 -5.7877 -6.5624 0
M  V30 5314 C 752.196 -3.47817 -6.12078 0
M  V30 5315 C 752.906 -3.39414 -4.77697 0
M  V30 5316 N 752.856 -2.04615 -4.15333 0
M  V30 5317 H 755.695 -3.41248 -7.98759 0
M  V30 5318 H 755.967 -2.5837 -6.41742 0
M  V30 5319 H 755.099 -5.02657 -6.42673 0
M  V30 5320 P 751.136 -6.144 -6.45285 0
M  V30 5321 O 750.916 -7.54673 -6.86199 0
M  V30 5322 O 750.346 -5.12391 -7.179 0
M  V30 5323 O 750.886 -5.99158 -4.88404 0
M  V30 5324 C 751.826 -6.60234 -3.96415 0
M  V30 5325 C 751.096 -7.08259 -2.72856 0
M  V30 5326 O 750.886 -5.9427 -1.83651 0
M  V30 5327 C 749.696 -7.64886 -2.9555 0
M  V30 5328 O 749.306 -8.53963 -1.90717 0
M  V30 5329 C 748.816 -6.4116 -2.90739 0
M  V30 5330 C 749.526 -5.55375 -1.86963 0
M  V30 5331 N 749.476 -4.09664 -2.15742 0
M  V30 5332 H 752.315 -7.45574 -4.45629 0
M  V30 5333 H 752.587 -5.86232 -3.67314 0
M  V30 5334 H 751.719 -7.84412 -2.24479 0
M  V30 5335 P 747.756 -8.7635 -1.60911 0
M  V30 5336 O 747.536 -10.1388 -1.11561 0
M  V30 5337 O 746.966 -8.36503 -2.79617 0
M  V30 5338 O 747.506 -7.71806 -0.42951 0
M  V30 5339 C 748.446 -7.67148 0.673689 0
M  V30 5340 C 747.716 -7.33374 1.95559 0
M  V30 5341 O 747.506 -5.88721 2.00726 0
M  V30 5342 C 746.316 -7.92526 2.10483 0
M  V30 5343 O 745.926 -8.02971 3.47653 0
M  V30 5344 C 745.436 -6.89602 1.41652 0
M  V30 5345 C 746.146 -5.59201 1.75185 0
M  V30 5346 N 746.096 -4.58301 0.657969 0
M  V30 5347 C 746.176 -4.79019 -0.692603 0
M  V30 5348 N 746.106 -3.69736 -1.38998 0
M  V30 5349 C 745.956 -2.70474 -0.438135 0
M  V30 5350 C 745.826 -1.30327 -0.538142 0
M  V30 5351 N 745.816 -0.64304 -1.69192 0
M  V30 5352 N 745.706 -0.611027 0.605183 0
M  V30 5353 C 745.716 -1.27002 1.75953 0
M  V30 5354 N 745.836 -2.56038 1.98546 0
M  V30 5355 C 745.956 -3.22681 0.822541 0
M  V30 5356 H 748.935 -8.65116 0.777161 0
M  V30 5357 H 749.207 -6.9022 0.46725 0
M  V30 5358 H 748.339 -7.66548 2.79458 0
M  V30 5359 H 745.684 -5.16165 2.65183 0
M  V30 5360 H 745.404 -7.06433 0.329384 0
M  V30 5361 H 744.413 -6.90926 1.82021 0
M  V30 5362 H 746.247 -8.90873 1.62657 0
M  V30 5363 H 746.288 -5.77785 -1.13874 0
M  V30 5364 H 745.907 -1.15585 -2.57991 0
M  V30 5365 H 745.718 0.382989 -1.69835 0
M  V30 5366 H 745.61 -0.653331 2.64449 0
M  V30 5367 P 744.376 -8.03563 3.84925 0
M  V30 5368 O 744.156 -8.85821 5.0569 0
M  V30 5369 O 743.586 -8.41101 2.65469 0
M  V30 5370 O 744.126 -6.4965 4.18908 0
M  V30 5371 C 745.066 -5.81037 5.05421 0
M  V30 5372 C 744.336 -4.78366 5.89277 0
M  V30 5373 O 744.126 -3.58302 5.08433 0
M  V30 5374 C 742.936 -5.17448 6.36119 0
M  V30 5375 O 742.546 -4.45271 7.53232 0
M  V30 5376 C 742.056 -4.74639 5.19936 0
M  V30 5377 C 742.766 -3.49432 4.70418 0
M  V30 5378 N 742.716 -3.31776 3.22945 0
M  V30 5379 H 745.555 -6.54213 5.71376 0
M  V30 5380 H 745.827 -5.30492 4.44033 0
M  V30 5381 H 744.959 -4.55889 6.76652 0
M  V30 5382 P 740.996 -4.23843 7.83734 0
M  V30 5383 O 740.776 -4.19407 9.29784 0
M  V30 5384 O 740.206 -5.24426 7.09156 0
M  V30 5385 O 740.746 -2.7935 7.20758 0
M  V30 5386 C 741.686 -1.7299 7.50419 0
M  V30 5387 C 740.956 -0.406376 7.57911 0
M  V30 5388 O 740.746 0.0897726 6.21935 0
M  V30 5389 C 739.556 -0.447224 8.1878 0
M  V30 5390 O 739.166 0.825065 8.71101 0
M  V30 5391 C 738.676 -0.783801 6.99623 0
M  V30 5392 C 739.386 -0.0619192 5.85967 0
M  V30 5393 N 739.336 -0.7859 4.56281 0
M  V30 5394 H 742.175 -1.93423 8.4679 0
M  V30 5395 H 742.447 -1.68181 6.71046 0
M  V30 5396 H 741.579 0.289041 8.15388 0
M  V30 5397 P 737.616 1.17771 8.83182 0
M  V30 5398 O 737.396 2.07206 9.98732 0
M  V30 5399 O 736.826 -0.0743816 8.81969 0
M  V30 5400 O 737.366 1.97652 7.47304 0
M  V30 5401 C 738.306 3.01133 7.08783 0
M  V30 5402 C 737.576 4.12613 6.37049 0
M  V30 5403 O 737.366 3.72827 4.97879 0
M  V30 5404 C 736.176 4.45085 6.88694 0
M  V30 5405 O 735.786 5.7877 6.5624 0
M  V30 5406 C 735.296 3.47817 6.12078 0
M  V30 5407 C 736.006 3.39414 4.77697 0
M  V30 5408 N 735.956 2.04199 4.15538 0
M  V30 5409 H 738.795 3.41248 7.98759 0
M  V30 5410 H 739.067 2.57728 6.42 0
M  V30 5411 H 738.199 5.02657 6.42673 0
M  V30 5412 H 735.544 4.11708 4.08956 0
M  V30 5413 H 735.264 2.49626 6.61679 0
M  V30 5414 H 734.273 3.8662 6.00862 0
M  V30 5415 H 736.107 4.29991 7.97006 0
M  V30 5416 P 734.236 6.144 6.45285 0
M  V30 5417 O 734.016 7.54673 6.86199 0
M  V30 5418 O 733.446 5.12391 7.179 0
M  V30 5419 O 733.986 5.99236 4.88467 0
M  V30 5420 C 734.926 6.60234 3.96415 0
M  V30 5421 C 734.196 7.08079 2.736 0
M  V30 5422 O 733.986 5.94365 1.8368 0
M  V30 5423 C 732.796 7.64886 2.9555 0
M  V30 5424 O 732.406 8.5406 1.90739 0
M  V30 5425 C 731.916 6.4116 2.90739 0
M  V30 5426 C 732.626 5.55375 1.86963 0
M  V30 5427 N 732.576 4.09664 2.15742 0
M  V30 5428 C 732.426 3.22231 1.08477 0
M  V30 5429 O 732.336 3.68951 -0.0600489 0
M  V30 5430 N 732.376 1.76692 1.48799 0
M  V30 5431 C 732.476 1.41695 2.57602 0
M  V30 5432 N 732.426 0.107296 2.75791 0
M  V30 5433 C 732.626 2.29178 3.69733 0
M  V30 5434 C 732.676 3.62753 3.42653 0
M  V30 5435 H 735.416 7.45488 4.45578 0
M  V30 5436 H 735.686 5.86232 3.67314 0
M  V30 5437 H 734.819 7.84508 2.24507 0
M  V30 5438 H 732.164 5.73556 0.888715 0
M  V30 5439 H 731.884 5.9096 3.88638 0
M  V30 5440 H 730.893 6.66053 2.58894 0
M  V30 5441 H 732.727 8.16339 3.92049 0
M  V30 5442 H 732.799 4.33052 4.24913 0
M  V30 5443 H 732.697 1.9103 4.71577 0
M  V30 5444 H 732.309 -0.521221 1.95056 0
M  V30 5445 H 732.505 -0.286429 3.70695 0
M  V30 5446 P 730.856 8.7635 1.60911 0
M  V30 5447 O 730.636 10.1388 1.11561 0
M  V30 5448 O 730.066 8.36503 2.79617 0
M  V30 5449 O 730.606 7.71806 0.42951 0
M  V30 5450 C 731.546 7.67148 -0.673689 0
M  V30 5451 C 730.816 7.33374 -1.95559 0
M  V30 5452 O 730.606 5.88721 -2.00726 0
M  V30 5453 C 729.416 7.92526 -2.10483 0
M  V30 5454 O 729.026 8.02971 -3.47653 0
M  V30 5455 C 728.536 6.89602 -1.41652 0
M  V30 5456 C 729.246 5.59201 -1.75185 0
M  V30 5457 N 729.196 4.58235 -0.662552 0
M  V30 5458 H 732.035 8.65116 -0.777161 0
M  V30 5459 H 732.307 6.90173 -0.474152 0
M  V30 5460 H 731.439 7.66548 -2.79458 0
M  V30 5461 P 727.476 8.03563 -3.84925 0
M  V30 5462 O 727.256 8.85821 -5.0569 0
M  V30 5463 O 726.686 8.41101 -2.65469 0
M  V30 5464 O 727.226 6.4965 -4.18908 0
M  V30 5465 C 728.166 5.81037 -5.05421 0
M  V30 5466 C 727.436 4.78366 -5.89277 0
M  V30 5467 O 727.226 3.58302 -5.08433 0
M  V30 5468 C 726.036 5.17448 -6.36119 0
M  V30 5469 O 725.646 4.45271 -7.53232 0
M  V30 5470 C 725.156 4.74639 -5.19936 0
M  V30 5471 C 725.866 3.49432 -4.70418 0
M  V30 5472 N 725.816 3.31776 -3.22945 0
M  V30 5473 H 728.655 6.54213 -5.71376 0
M  V30 5474 H 728.927 5.30492 -4.44033 0
M  V30 5475 H 728.059 4.55889 -6.76652 0
M  V30 5476 P 724.096 4.23843 -7.83734 0
M  V30 5477 O 723.876 4.19407 -9.29784 0
M  V30 5478 O 723.306 5.24426 -7.09156 0
M  V30 5479 O 723.846 2.7935 -7.20758 0
M  V30 5480 C 724.786 1.7299 -7.50419 0
M  V30 5481 C 724.056 0.406376 -7.57911 0
M  V30 5482 O 723.846 -0.0897726 -6.21935 0
M  V30 5483 C 722.656 0.447224 -8.1878 0
M  V30 5484 O 722.266 -0.825065 -8.71101 0
M  V30 5485 C 721.776 0.783801 -6.99623 0
M  V30 5486 C 722.486 0.0619192 -5.85967 0
M  V30 5487 N 722.436 0.7859 -4.56281 0
M  V30 5488 H 725.275 1.93423 -8.4679 0
M  V30 5489 H 725.547 1.68181 -6.71046 0
M  V30 5490 H 724.679 -0.289041 -8.15388 0
M  V30 5491 P 720.716 -1.17771 -8.83182 0
M  V30 5492 O 720.496 -2.07206 -9.98732 0
M  V30 5493 O 719.926 0.0743816 -8.81969 0
M  V30 5494 O 720.466 -1.97652 -7.47304 0
M  V30 5495 C 721.406 -3.01133 -7.08783 0
M  V30 5496 C 720.676 -4.12613 -6.37049 0
M  V30 5497 O 720.466 -3.72827 -4.97879 0
M  V30 5498 C 719.276 -4.45085 -6.88694 0
M  V30 5499 O 718.886 -5.7877 -6.5624 0
M  V30 5500 C 718.396 -3.47817 -6.12078 0
M  V30 5501 C 719.106 -3.39414 -4.77697 0
M  V30 5502 N 719.056 -2.04615 -4.15333 0
M  V30 5503 H 721.895 -3.41248 -7.98759 0
M  V30 5504 H 722.167 -2.5837 -6.41742 0
M  V30 5505 H 721.299 -5.02657 -6.42673 0
M  V30 5506 P 717.336 -6.144 -6.45285 0
M  V30 5507 O 717.116 -7.54673 -6.86199 0
M  V30 5508 O 716.546 -5.12391 -7.179 0
M  V30 5509 O 717.086 -5.99158 -4.88404 0
M  V30 5510 C 718.026 -6.60234 -3.96415 0
M  V30 5511 C 717.296 -7.08259 -2.72856 0
M  V30 5512 O 717.086 -5.9427 -1.83651 0
M  V30 5513 C 715.896 -7.64886 -2.9555 0
M  V30 5514 O 715.506 -8.53963 -1.90717 0
M  V30 5515 C 715.016 -6.4116 -2.90739 0
M  V30 5516 C 715.726 -5.55375 -1.86963 0
M  V30 5517 N 715.676 -4.09664 -2.15742 0
M  V30 5518 H 718.515 -7.45574 -4.45629 0
M  V30 5519 H 718.787 -5.86232 -3.67314 0
M  V30 5520 H 717.919 -7.84412 -2.24479 0
M  V30 5521 P 713.956 -8.7635 -1.60911 0
M  V30 5522 O 713.736 -10.1388 -1.11561 0
M  V30 5523 O 713.166 -8.36503 -2.79617 0
M  V30 5524 O 713.706 -7.71806 -0.42951 0
M  V30 5525 C 714.646 -7.67148 0.673689 0
M  V30 5526 C 713.916 -7.33374 1.95559 0
M  V30 5527 O 713.706 -5.88721 2.00726 0
M  V30 5528 C 712.516 -7.92526 2.10483 0
M  V30 5529 O 712.126 -8.02971 3.47653 0
M  V30 5530 C 711.636 -6.89602 1.41652 0
M  V30 5531 C 712.346 -5.59201 1.75185 0
M  V30 5532 N 712.296 -4.58235 0.662552 0
M  V30 5533 H 715.135 -8.65116 0.777161 0
M  V30 5534 H 715.407 -6.90173 0.474152 0
M  V30 5535 H 714.539 -7.66548 2.79458 0
M  V30 5536 P 710.576 -8.03563 3.84925 0
M  V30 5537 O 710.356 -8.85821 5.0569 0
M  V30 5538 O 709.786 -8.41101 2.65469 0
M  V30 5539 O 710.326 -6.4965 4.18908 0
M  V30 5540 C 711.266 -5.81037 5.05421 0
M  V30 5541 C 710.536 -4.78366 5.89277 0
M  V30 5542 O 710.326 -3.58302 5.08433 0
M  V30 5543 C 709.136 -5.17448 6.36119 0
M  V30 5544 O 708.746 -4.45271 7.53232 0
M  V30 5545 C 708.256 -4.74639 5.19936 0
M  V30 5546 C 708.966 -3.49432 4.70418 0
M  V30 5547 N 708.916 -3.32099 3.22613 0
M  V30 5548 H 711.755 -6.54213 5.71376 0
M  V30 5549 H 712.027 -5.30936 4.43503 0
M  V30 5550 H 711.159 -4.55889 6.76652 0
M  V30 5551 H 708.504 -2.61715 5.17932 0
M  V30 5552 H 708.224 -5.52155 4.41878 0
M  V30 5553 H 707.233 -4.51981 5.53374 0
M  V30 5554 H 709.067 -6.25124 6.55234 0
M  V30 5555 P 707.196 -4.23843 7.83734 0
M  V30 5556 O 706.976 -4.19407 9.29784 0
M  V30 5557 O 706.406 -5.24426 7.09156 0
M  V30 5558 O 706.946 -2.7935 7.20758 0
M  V30 5559 C 707.886 -1.7299 7.50419 0
M  V30 5560 C 707.156 -0.406376 7.57911 0
M  V30 5561 O 706.946 0.0897726 6.21935 0
M  V30 5562 C 705.756 -0.447224 8.1878 0
M  V30 5563 O 705.366 0.825065 8.71101 0
M  V30 5564 C 704.876 -0.783801 6.99623 0
M  V30 5565 C 705.586 -0.0619192 5.85967 0
M  V30 5566 N 705.536 -0.7859 4.56281 0
M  V30 5567 H 708.375 -1.93423 8.4679 0
M  V30 5568 H 708.647 -1.68181 6.71046 0
M  V30 5569 H 707.779 0.289041 8.15388 0
M  V30 5570 P 703.816 1.17771 8.83182 0
M  V30 5571 O 703.596 2.07206 9.98732 0
M  V30 5572 O 703.026 -0.0743816 8.81969 0
M  V30 5573 O 703.566 1.97678 7.474 0
M  V30 5574 C 704.506 3.01133 7.08783 0
M  V30 5575 C 703.776 4.1203 6.37546 0
M  V30 5576 O 703.566 3.72887 4.9796 0
M  V30 5577 C 702.376 4.45085 6.88694 0
M  V30 5578 O 701.986 5.78836 6.56315 0
M  V30 5579 C 701.496 3.47817 6.12078 0
M  V30 5580 C 702.206 3.39414 4.77697 0
M  V30 5581 N 702.156 2.04615 4.15333 0
M  V30 5582 C 702.006 1.96929 2.77162 0
M  V30 5583 O 701.916 3.02017 2.12006 0
M  V30 5584 N 701.956 0.55485 2.24237 0
M  V30 5585 C 702.056 -0.367808 2.9169 0
M  V30 5586 N 702.006 -1.53426 2.29427 0
M  V30 5587 C 702.206 -0.319148 4.33828 0
M  V30 5588 C 702.256 0.920672 4.90433 0
M  V30 5589 H 704.996 3.41209 7.98667 0
M  V30 5590 H 705.266 2.5837 6.41742 0
M  V30 5591 H 704.399 5.02718 6.42752 0
M  V30 5592 H 701.744 4.11779 4.09026 0
M  V30 5593 H 701.464 2.49661 6.61772 0
M  V30 5594 H 700.473 3.86674 6.00946 0
M  V30 5595 H 702.307 4.29991 7.97006 0
M  V30 5596 H 702.379 1.00589 5.98303 0
M  V30 5597 H 702.277 -1.22639 4.93799 0
M  V30 5598 H 701.889 -1.56819 1.27167 0
M  V30 5599 H 702.085 -2.41062 2.83063 0
M  V30 5600 P 700.436 6.144 6.45285 0
M  V30 5601 O 700.216 7.54673 6.86199 0
M  V30 5602 O 699.646 5.12391 7.179 0
M  V30 5603 O 700.186 5.99158 4.88404 0
M  V30 5604 C 701.126 6.60234 3.96415 0
M  V30 5605 C 700.396 7.08259 2.72856 0
M  V30 5606 O 700.186 5.9427 1.83651 0
M  V30 5607 C 698.996 7.64886 2.9555 0
M  V30 5608 O 698.606 8.53963 1.90717 0
M  V30 5609 C 698.116 6.4116 2.90739 0
M  V30 5610 C 698.826 5.55375 1.86963 0
M  V30 5611 N 698.776 4.09664 2.15742 0
M  V30 5612 H 701.615 7.45574 4.45629 0
M  V30 5613 H 701.887 5.86232 3.67314 0
M  V30 5614 H 701.019 7.84412 2.24479 0
M  V30 5615 P 697.056 8.7635 1.60911 0
M  V30 5616 O 696.836 10.1388 1.11561 0
M  V30 5617 O 696.266 8.36503 2.79617 0
M  V30 5618 O 696.806 7.71806 0.42951 0
M  V30 5619 C 697.746 7.67148 -0.673689 0
M  V30 5620 C 697.016 7.33374 -1.95559 0
M  V30 5621 O 696.806 5.88721 -2.00726 0
M  V30 5622 C 695.616 7.92526 -2.10483 0
M  V30 5623 O 695.226 8.02971 -3.47653 0
M  V30 5624 C 694.736 6.89602 -1.41652 0
M  V30 5625 C 695.446 5.59201 -1.75185 0
M  V30 5626 N 695.396 4.58301 -0.657969 0
M  V30 5627 H 698.235 8.65116 -0.777161 0
M  V30 5628 H 698.507 6.9022 -0.46725 0
M  V30 5629 H 697.639 7.66548 -2.79458 0
M  V30 5630 H 694.984 5.16165 -2.65183 0
M  V30 5631 H 694.704 7.06433 -0.329384 0
M  V30 5632 H 693.713 6.90926 -1.82021 0
M  V30 5633 H 695.547 8.90873 -1.62657 0
M  V30 5634 P 693.676 8.03563 -3.84925 0
M  V30 5635 O 693.456 8.85821 -5.0569 0
M  V30 5636 O 692.886 8.41101 -2.65469 0
M  V30 5637 O 693.426 6.4965 -4.18908 0
M  V30 5638 C 694.366 5.81037 -5.05421 0
M  V30 5639 C 693.636 4.78366 -5.89277 0
M  V30 5640 O 693.426 3.58302 -5.08433 0
M  V30 5641 C 692.236 5.17448 -6.36119 0
M  V30 5642 O 691.846 4.45271 -7.53232 0
M  V30 5643 C 691.356 4.74639 -5.19936 0
M  V30 5644 C 692.066 3.49432 -4.70418 0
M  V30 5645 N 692.016 3.31776 -3.22945 0
M  V30 5646 H 694.855 6.54213 -5.71376 0
M  V30 5647 H 695.127 5.30492 -4.44033 0
M  V30 5648 H 694.259 4.55889 -6.76652 0
M  V30 5649 P 690.296 4.23843 -7.83734 0
M  V30 5650 O 690.076 4.19407 -9.29784 0
M  V30 5651 O 689.506 5.24426 -7.09156 0
M  V30 5652 O 690.046 2.79386 -7.20852 0
M  V30 5653 C 690.986 1.7299 -7.50419 0
M  V30 5654 C 690.256 0.41401 -7.5797 0
M  V30 5655 O 690.046 -0.089787 -6.22035 0
M  V30 5656 C 688.856 0.447224 -8.1878 0
M  V30 5657 O 688.466 -0.825159 -8.71201 0
M  V30 5658 C 687.976 0.783801 -6.99623 0
M  V30 5659 C 688.686 0.0619192 -5.85967 0
M  V30 5660 N 688.636 0.7859 -4.56281 0
M  V30 5661 C 688.486 0.0359258 -3.39981 0
M  V30 5662 O 688.396 -1.19723 -3.49038 0
M  V30 5663 N 688.436 0.869151 -2.14025 0
M  V30 5664 C 688.536 2.01207 -2.14363 0
M  V30 5665 N 688.486 2.58978 -0.954287 0
M  V30 5666 C 688.686 2.80817 -3.32215 0
M  V30 5667 C 688.736 2.13785 -4.50884 0
M  V30 5668 H 691.476 1.93401 -8.46693 0
M  V30 5669 H 691.746 1.68181 -6.71046 0
M  V30 5670 H 690.879 -0.289076 -8.15488 0
M  V30 5671 H 688.224 -0.927166 -5.72947 0
M  V30 5672 H 687.944 1.87 -6.82132 0
M  V30 5673 H 686.953 0.404009 -7.13457 0
M  V30 5674 H 688.787 1.20599 -8.97534 0
M  V30 5675 H 688.859 2.70295 -5.43162 0
M  V30 5676 H 688.757 3.89465 -3.27406 0
M  V30 5677 H 688.369 2.01616 -0.107046 0
M  V30 5678 H 688.565 3.61403 -0.873101 0
M  V30 5679 P 686.916 -1.17771 -8.83182 0
M  V30 5680 O 686.696 -2.07206 -9.98732 0
M  V30 5681 O 686.126 0.0743816 -8.81969 0
M  V30 5682 O 686.666 -1.97652 -7.47304 0
M  V30 5683 C 687.606 -3.01055 -7.08599 0
M  V30 5684 C 686.876 -4.12613 -6.37049 0
M  V30 5685 O 686.666 -3.72827 -4.97879 0
M  V30 5686 C 685.476 -4.45719 -6.88164 0
M  V30 5687 O 685.086 -5.7877 -6.5624 0
M  V30 5688 C 684.596 -3.47768 -6.11991 0
M  V30 5689 C 685.306 -3.39356 -4.77615 0
M  V30 5690 N 685.256 -2.04571 -4.15244 0
M  V30 5691 C 685.106 -1.98587 -2.78314 0
M  V30 5692 O 685.016 -2.98134 -2.08835 0
M  V30 5693 N 685.066 -0.714467 -2.24925 0
M  V30 5694 C 685.156 0.470001 -2.94169 0
M  V30 5695 C 685.306 0.312541 -4.36783 0
M  V30 5696 C 685.356 -0.914512 -4.92583 0
M  V30 5697 H 688.097 -3.41169 -7.98575 0
M  V30 5698 H 688.366 -2.58295 -6.41556 0
M  V30 5699 H 687.499 -5.02657 -6.42673 0
M  V30 5700 H 684.844 -4.11637 -4.08885 0
M  V30 5701 H 684.565 -2.49626 -6.61679 0
M  V30 5702 H 683.573 -3.86566 -6.00778 0
M  V30 5703 H 685.407 -4.29943 -7.96918 0
M  V30 5704 H 685.478 -1.00937 -6.00374 0
M  V30 5705 P 683.536 -6.144 -6.45285 0
M  V30 5706 O 683.316 -7.54673 -6.86199 0
M  V30 5707 O 682.746 -5.12391 -7.179 0
M  V30 5708 O 683.286 -5.99158 -4.88404 0
M  V30 5709 C 684.226 -6.60234 -3.96415 0
M  V30 5710 C 683.496 -7.08259 -2.72856 0
M  V30 5711 O 683.286 -5.9427 -1.83651 0
M  V30 5712 C 682.096 -7.64886 -2.9555 0
M  V30 5713 O 681.706 -8.53963 -1.90717 0
M  V30 5714 C 681.216 -6.4116 -2.90739 0
M  V30 5715 C 681.926 -5.55375 -1.86963 0
M  V30 5716 N 681.876 -4.09448 -2.16152 0
M  V30 5717 H 684.715 -7.45574 -4.45629 0
M  V30 5718 H 684.987 -5.85864 -3.679 0
M  V30 5719 H 684.119 -7.84412 -2.24479 0
M  V30 5720 H 681.464 -5.73457 -0.888562 0
M  V30 5721 H 681.184 -5.90877 -3.88583 0
M  V30 5722 H 680.193 -6.6596 -2.58858 0
M  V30 5723 H 682.027 -8.16339 -3.92049 0
M  V30 5724 P 680.156 -8.7635 -1.60911 0
M  V30 5725 O 679.936 -10.1388 -1.11561 0
M  V30 5726 O 679.366 -8.36503 -2.79617 0
M  V30 5727 O 679.906 -7.71806 -0.42951 0
M  V30 5728 C 680.846 -7.67148 0.673689 0
M  V30 5729 C 680.116 -7.33374 1.95559 0
M  V30 5730 O 679.906 -5.88721 2.00726 0
M  V30 5731 C 678.716 -7.92526 2.10483 0
M  V30 5732 O 678.326 -8.02971 3.47653 0
M  V30 5733 C 677.836 -6.89602 1.41652 0
M  V30 5734 C 678.546 -5.59201 1.75185 0
M  V30 5735 N 678.496 -4.58235 0.662552 0
M  V30 5736 H 681.335 -8.65116 0.777161 0
M  V30 5737 H 681.607 -6.90173 0.474152 0
M  V30 5738 H 680.739 -7.66548 2.79458 0
M  V30 5739 P 676.776 -8.03563 3.84925 0
M  V30 5740 O 676.556 -8.85821 5.0569 0
M  V30 5741 O 675.986 -8.41101 2.65469 0
M  V30 5742 O 676.526 -6.4965 4.18908 0
M  V30 5743 C 677.466 -5.81037 5.05421 0
M  V30 5744 C 676.736 -4.78366 5.89277 0
M  V30 5745 O 676.526 -3.58302 5.08433 0
M  V30 5746 C 675.336 -5.17448 6.36119 0
M  V30 5747 O 674.946 -4.45271 7.53232 0
M  V30 5748 C 674.456 -4.74639 5.19936 0
M  V30 5749 C 675.166 -3.49432 4.70418 0
M  V30 5750 N 675.116 -3.31776 3.22945 0
M  V30 5751 H 677.955 -6.54213 5.71376 0
M  V30 5752 H 678.227 -5.30492 4.44033 0
M  V30 5753 H 677.359 -4.55889 6.76652 0
M  V30 5754 P 673.396 -4.23843 7.83734 0
M  V30 5755 O 673.176 -4.19407 9.29784 0
M  V30 5756 O 672.606 -5.24426 7.09156 0
M  V30 5757 O 673.146 -2.7935 7.20758 0
M  V30 5758 C 674.086 -1.7299 7.50419 0
M  V30 5759 C 673.356 -0.406376 7.57911 0
M  V30 5760 O 673.146 0.0897726 6.21935 0
M  V30 5761 C 671.956 -0.447224 8.1878 0
M  V30 5762 O 671.566 0.825065 8.71101 0
M  V30 5763 C 671.076 -0.783801 6.99623 0
M  V30 5764 C 671.786 -0.0619192 5.85967 0
M  V30 5765 N 671.736 -0.790462 4.56202 0
M  V30 5766 H 674.575 -1.93423 8.4679 0
M  V30 5767 H 674.847 -1.68852 6.70877 0
M  V30 5768 H 673.979 0.289041 8.15388 0
M  V30 5769 H 671.324 0.927006 5.72848 0
M  V30 5770 H 671.044 -1.86973 6.82036 0
M  V30 5771 H 670.053 -0.403953 7.13357 0
M  V30 5772 H 671.887 -1.20599 8.97534 0
M  V30 5773 P 670.016 1.17771 8.83182 0
M  V30 5774 O 669.796 2.07206 9.98732 0
M  V30 5775 O 669.226 -0.0743816 8.81969 0
M  V30 5776 O 669.766 1.97652 7.47304 0
M  V30 5777 C 670.706 3.01133 7.08783 0
M  V30 5778 C 669.976 4.12613 6.37049 0
M  V30 5779 O 669.766 3.72827 4.97879 0
M  V30 5780 C 668.576 4.45085 6.88694 0
M  V30 5781 O 668.186 5.7877 6.5624 0
M  V30 5782 C 667.696 3.47817 6.12078 0
M  V30 5783 C 668.406 3.39414 4.77697 0
M  V30 5784 N 668.356 2.04199 4.15538 0
M  V30 5785 H 671.195 3.41248 7.98759 0
M  V30 5786 H 671.467 2.57728 6.42 0
M  V30 5787 H 670.599 5.02657 6.42673 0
M  V30 5788 H 667.944 4.11708 4.08956 0
M  V30 5789 H 667.664 2.49626 6.61679 0
M  V30 5790 H 666.673 3.8662 6.00862 0
M  V30 5791 H 668.507 4.29991 7.97006 0
M  V30 5792 P 666.636 6.144 6.45285 0
M  V30 5793 O 666.416 7.54673 6.86199 0
M  V30 5794 O 665.846 5.12391 7.179 0
M  V30 5795 O 666.386 5.99158 4.88404 0
M  V30 5796 C 667.326 6.60234 3.96415 0
M  V30 5797 C 666.596 7.08259 2.72856 0
M  V30 5798 O 666.386 5.9427 1.83651 0
M  V30 5799 C 665.196 7.64886 2.9555 0
M  V30 5800 O 664.806 8.53963 1.90717 0
M  V30 5801 C 664.316 6.4116 2.90739 0
M  V30 5802 C 665.026 5.55375 1.86963 0
M  V30 5803 N 664.976 4.09664 2.15742 0
M  V30 5804 H 667.815 7.45574 4.45629 0
M  V30 5805 H 668.087 5.86232 3.67314 0
M  V30 5806 H 667.219 7.84412 2.24479 0
M  V30 5807 P 663.256 8.7635 1.60911 0
M  V30 5808 O 663.036 10.1388 1.11561 0
M  V30 5809 O 662.466 8.36503 2.79617 0
M  V30 5810 O 663.006 7.71806 0.42951 0
M  V30 5811 C 663.946 7.67148 -0.673689 0
M  V30 5812 C 663.216 7.33374 -1.95559 0
M  V30 5813 O 663.006 5.88721 -2.00726 0
M  V30 5814 C 661.816 7.92526 -2.10483 0
M  V30 5815 O 661.426 8.02971 -3.47653 0
M  V30 5816 C 660.936 6.89602 -1.41652 0
M  V30 5817 C 661.646 5.59201 -1.75185 0
M  V30 5818 N 661.596 4.58235 -0.662552 0
M  V30 5819 H 664.435 8.65116 -0.777161 0
M  V30 5820 H 664.707 6.90173 -0.474152 0
M  V30 5821 H 663.839 7.66548 -2.79458 0
M  V30 5822 P 659.876 8.03563 -3.84925 0
M  V30 5823 O 659.656 8.85821 -5.0569 0
M  V30 5824 O 659.086 8.41101 -2.65469 0
M  V30 5825 O 659.626 6.4965 -4.18908 0
M  V30 5826 C 660.566 5.81037 -5.05421 0
M  V30 5827 C 659.836 4.78366 -5.89277 0
M  V30 5828 O 659.626 3.58302 -5.08433 0
M  V30 5829 C 658.436 5.17448 -6.36119 0
M  V30 5830 O 658.046 4.45271 -7.53232 0
M  V30 5831 C 657.556 4.74639 -5.19936 0
M  V30 5832 C 658.266 3.49432 -4.70418 0
M  V30 5833 N 658.216 3.31776 -3.22945 0
M  V30 5834 H 661.055 6.54213 -5.71376 0
M  V30 5835 H 661.327 5.30492 -4.44033 0
M  V30 5836 H 660.459 4.55889 -6.76652 0
M  V30 5837 P 656.496 4.23843 -7.83734 0
M  V30 5838 O 656.276 4.19407 -9.29784 0
M  V30 5839 O 655.706 5.24426 -7.09156 0
M  V30 5840 O 656.246 2.7935 -7.20758 0
M  V30 5841 C 657.186 1.7299 -7.50419 0
M  V30 5842 C 656.456 0.406376 -7.57911 0
M  V30 5843 O 656.246 -0.0897726 -6.21935 0
M  V30 5844 C 655.056 0.447224 -8.1878 0
M  V30 5845 O 654.666 -0.825065 -8.71101 0
M  V30 5846 C 654.176 0.783801 -6.99623 0
M  V30 5847 C 654.886 0.0619192 -5.85967 0
M  V30 5848 N 654.836 0.7859 -4.56281 0
M  V30 5849 H 657.675 1.93423 -8.4679 0
M  V30 5850 H 657.947 1.68181 -6.71046 0
M  V30 5851 H 657.079 -0.289041 -8.15388 0
M  V30 5852 P 653.116 -1.17771 -8.83182 0
M  V30 5853 O 652.896 -2.07206 -9.98732 0
M  V30 5854 O 652.326 0.0743816 -8.81969 0
M  V30 5855 O 652.866 -1.97652 -7.47304 0
M  V30 5856 C 653.806 -3.01133 -7.08783 0
M  V30 5857 C 653.076 -4.12613 -6.37049 0
M  V30 5858 O 652.866 -3.72827 -4.97879 0
M  V30 5859 C 651.676 -4.45085 -6.88694 0
M  V30 5860 O 651.286 -5.7877 -6.5624 0
M  V30 5861 C 650.796 -3.47817 -6.12078 0
M  V30 5862 C 651.506 -3.39414 -4.77697 0
M  V30 5863 N 651.456 -2.04615 -4.15333 0
M  V30 5864 H 654.295 -3.41248 -7.98759 0
M  V30 5865 H 654.567 -2.5837 -6.41742 0
M  V30 5866 H 653.699 -5.02657 -6.42673 0
M  V30 5867 P 649.736 -6.144 -6.45285 0
M  V30 5868 O 649.516 -7.54673 -6.86199 0
M  V30 5869 O 648.946 -5.12391 -7.179 0
M  V30 5870 O 649.486 -5.99158 -4.88404 0
M  V30 5871 C 650.426 -6.60234 -3.96415 0
M  V30 5872 C 649.696 -7.08259 -2.72856 0
M  V30 5873 O 649.486 -5.9427 -1.83651 0
M  V30 5874 C 648.296 -7.64886 -2.9555 0
M  V30 5875 O 647.906 -8.53963 -1.90717 0
M  V30 5876 C 647.416 -6.4116 -2.90739 0
M  V30 5877 C 648.126 -5.55375 -1.86963 0
M  V30 5878 N 648.076 -4.09448 -2.16152 0
M  V30 5879 H 650.915 -7.45574 -4.45629 0
M  V30 5880 H 651.187 -5.85864 -3.679 0
M  V30 5881 H 650.319 -7.84412 -2.24479 0
M  V30 5882 H 647.664 -5.73457 -0.888562 0
M  V30 5883 H 647.384 -5.90877 -3.88583 0
M  V30 5884 H 646.393 -6.6596 -2.58858 0
M  V30 5885 H 648.227 -8.16339 -3.92049 0
M  V30 5886 P 646.356 -8.7635 -1.60911 0
M  V30 5887 O 646.136 -10.1388 -1.11561 0
M  V30 5888 O 645.566 -8.36503 -2.79617 0
M  V30 5889 O 646.106 -7.71806 -0.42951 0
M  V30 5890 C 647.046 -7.67148 0.673689 0
M  V30 5891 C 646.316 -7.33374 1.95559 0
M  V30 5892 O 646.106 -5.88721 2.00726 0
M  V30 5893 C 644.916 -7.92526 2.10483 0
M  V30 5894 O 644.526 -8.02971 3.47653 0
M  V30 5895 C 644.036 -6.89602 1.41652 0
M  V30 5896 C 644.746 -5.59201 1.75185 0
M  V30 5897 N 644.696 -4.58301 0.657969 0
M  V30 5898 H 647.535 -8.65116 0.777161 0
M  V30 5899 H 647.807 -6.9022 0.46725 0
M  V30 5900 H 646.939 -7.66548 2.79458 0
M  V30 5901 H 644.284 -5.16165 2.65183 0
M  V30 5902 H 644.004 -7.06433 0.329384 0
M  V30 5903 H 643.013 -6.90926 1.82021 0
M  V30 5904 H 644.847 -8.90873 1.62657 0
M  V30 5905 P 642.976 -8.03563 3.84925 0
M  V30 5906 O 642.756 -8.85821 5.0569 0
M  V30 5907 O 642.186 -8.41101 2.65469 0
M  V30 5908 O 642.726 -6.4965 4.18908 0
M  V30 5909 C 643.666 -5.81037 5.05421 0
M  V30 5910 C 642.936 -4.78366 5.89277 0
M  V30 5911 O 642.726 -3.58302 5.08433 0
M  V30 5912 C 641.536 -5.17448 6.36119 0
M  V30 5913 O 641.146 -4.45271 7.53232 0
M  V30 5914 C 640.656 -4.74639 5.19936 0
M  V30 5915 C 641.366 -3.49432 4.70418 0
M  V30 5916 N 641.316 -3.31776 3.22945 0
M  V30 5917 H 644.155 -6.54213 5.71376 0
M  V30 5918 H 644.427 -5.30492 4.44033 0
M  V30 5919 H 643.559 -4.55889 6.76652 0
M  V30 5920 P 639.596 -4.23843 7.83734 0
M  V30 5921 O 639.376 -4.19407 9.29784 0
M  V30 5922 O 638.806 -5.24426 7.09156 0
M  V30 5923 O 639.346 -2.7935 7.20758 0
M  V30 5924 C 640.286 -1.7299 7.50419 0
M  V30 5925 C 639.556 -0.406376 7.57911 0
M  V30 5926 O 639.346 0.0897726 6.21935 0
M  V30 5927 C 638.156 -0.447224 8.1878 0
M  V30 5928 O 637.766 0.825065 8.71101 0
M  V30 5929 C 637.276 -0.783801 6.99623 0
M  V30 5930 C 637.986 -0.0619192 5.85967 0
M  V30 5931 N 637.936 -0.7859 4.56281 0
M  V30 5932 H 640.775 -1.93423 8.4679 0
M  V30 5933 H 641.047 -1.68181 6.71046 0
M  V30 5934 H 640.179 0.289041 8.15388 0
M  V30 5935 P 636.216 1.17771 8.83182 0
M  V30 5936 O 635.996 2.07206 9.98732 0
M  V30 5937 O 635.426 -0.0743816 8.81969 0
M  V30 5938 O 635.966 1.97652 7.47304 0
M  V30 5939 C 636.906 3.01133 7.08783 0
M  V30 5940 C 636.176 4.12613 6.37049 0
M  V30 5941 O 635.966 3.72827 4.97879 0
M  V30 5942 C 634.776 4.45085 6.88694 0
M  V30 5943 O 634.386 5.7877 6.5624 0
M  V30 5944 C 633.896 3.47817 6.12078 0
M  V30 5945 C 634.606 3.39414 4.77697 0
M  V30 5946 N 634.556 2.04199 4.15538 0
M  V30 5947 H 637.395 3.41248 7.98759 0
M  V30 5948 H 637.667 2.57728 6.42 0
M  V30 5949 H 636.799 5.02657 6.42673 0
M  V30 5950 H 634.144 4.11708 4.08956 0
M  V30 5951 H 633.864 2.49626 6.61679 0
M  V30 5952 H 632.873 3.8662 6.00862 0
M  V30 5953 H 634.707 4.29991 7.97006 0
M  V30 5954 P 632.836 6.144 6.45285 0
M  V30 5955 O 632.616 7.54673 6.86199 0
M  V30 5956 O 632.046 5.12391 7.179 0
M  V30 5957 O 632.586 5.99158 4.88404 0
M  V30 5958 C 633.526 6.60234 3.96415 0
M  V30 5959 C 632.796 7.08259 2.72856 0
M  V30 5960 O 632.586 5.9427 1.83651 0
M  V30 5961 C 631.396 7.64886 2.9555 0
M  V30 5962 O 631.006 8.53963 1.90717 0
M  V30 5963 C 630.516 6.4116 2.90739 0
M  V30 5964 C 631.226 5.55375 1.86963 0
M  V30 5965 N 631.176 4.09664 2.15742 0
M  V30 5966 H 634.015 7.45574 4.45629 0
M  V30 5967 H 634.287 5.86232 3.67314 0
M  V30 5968 H 633.419 7.84412 2.24479 0
M  V30 5969 P 629.456 8.7635 1.60911 0
M  V30 5970 O 629.236 10.1388 1.11561 0
M  V30 5971 O 628.666 8.36503 2.79617 0
M  V30 5972 O 629.206 7.71806 0.42951 0
M  V30 5973 C 630.146 7.67148 -0.673689 0
M  V30 5974 C 629.416 7.33374 -1.95559 0
M  V30 5975 O 629.206 5.88721 -2.00726 0
M  V30 5976 C 628.016 7.92526 -2.10483 0
M  V30 5977 O 627.626 8.02971 -3.47653 0
M  V30 5978 C 627.136 6.89602 -1.41652 0
M  V30 5979 C 627.846 5.59201 -1.75185 0
M  V30 5980 N 627.796 4.58301 -0.657969 0
M  V30 5981 H 630.635 8.65116 -0.777161 0
M  V30 5982 H 630.907 6.9022 -0.46725 0
M  V30 5983 H 630.039 7.66548 -2.79458 0
M  V30 5984 H 627.384 5.16165 -2.65183 0
M  V30 5985 H 627.104 7.06433 -0.329384 0
M  V30 5986 H 626.113 6.90926 -1.82021 0
M  V30 5987 H 627.947 8.90873 -1.62657 0
M  V30 5988 P 626.076 8.03563 -3.84925 0
M  V30 5989 O 625.856 8.85821 -5.0569 0
M  V30 5990 O 625.286 8.41101 -2.65469 0
M  V30 5991 O 625.826 6.4965 -4.18908 0
M  V30 5992 C 626.766 5.81037 -5.05421 0
M  V30 5993 C 626.036 4.78366 -5.89277 0
M  V30 5994 O 625.826 3.58302 -5.08433 0
M  V30 5995 C 624.636 5.17448 -6.36119 0
M  V30 5996 O 624.246 4.45271 -7.53232 0
M  V30 5997 C 623.756 4.74639 -5.19936 0
M  V30 5998 C 624.466 3.49432 -4.70418 0
M  V30 5999 N 624.416 3.31776 -3.22945 0
M  V30 6000 H 627.255 6.54213 -5.71376 0
M  V30 6001 H 627.527 5.30492 -4.44033 0
M  V30 6002 H 626.659 4.55889 -6.76652 0
M  V30 6003 P 622.696 4.23843 -7.83734 0
M  V30 6004 O 622.476 4.19407 -9.29784 0
M  V30 6005 O 621.906 5.24426 -7.09156 0
M  V30 6006 O 622.446 2.7935 -7.20758 0
M  V30 6007 C 623.386 1.7299 -7.50419 0
M  V30 6008 C 622.656 0.406376 -7.57911 0
M  V30 6009 O 622.446 -0.0897726 -6.21935 0
M  V30 6010 C 621.256 0.447224 -8.1878 0
M  V30 6011 O 620.866 -0.825065 -8.71101 0
M  V30 6012 C 620.376 0.783801 -6.99623 0
M  V30 6013 C 621.086 0.0619192 -5.85967 0
M  V30 6014 N 621.036 0.7859 -4.56281 0
M  V30 6015 H 623.875 1.93423 -8.4679 0
M  V30 6016 H 624.147 1.68181 -6.71046 0
M  V30 6017 H 623.279 -0.289041 -8.15388 0
M  V30 6018 P 619.316 -1.17771 -8.83182 0
M  V30 6019 O 619.096 -2.07206 -9.98732 0
M  V30 6020 O 618.526 0.0743816 -8.81969 0
M  V30 6021 O 619.066 -1.97652 -7.47304 0
M  V30 6022 C 620.006 -3.01133 -7.08783 0
M  V30 6023 C 619.276 -4.12613 -6.37049 0
M  V30 6024 O 619.066 -3.72827 -4.97879 0
M  V30 6025 C 617.876 -4.45085 -6.88694 0
M  V30 6026 O 617.486 -5.7877 -6.5624 0
M  V30 6027 C 616.996 -3.47817 -6.12078 0
M  V30 6028 C 617.706 -3.39414 -4.77697 0
M  V30 6029 N 617.656 -2.04199 -4.15538 0
M  V30 6030 H 620.495 -3.41248 -7.98759 0
M  V30 6031 H 620.767 -2.57728 -6.42 0
M  V30 6032 H 619.899 -5.02657 -6.42673 0
M  V30 6033 H 617.244 -4.11708 -4.08956 0
M  V30 6034 H 616.964 -2.49626 -6.61679 0
M  V30 6035 H 615.973 -3.8662 -6.00862 0
M  V30 6036 H 617.807 -4.29991 -7.97006 0
M  V30 6037 P 615.936 -6.144 -6.45285 0
M  V30 6038 O 615.716 -7.54673 -6.86199 0
M  V30 6039 O 615.146 -5.12391 -7.179 0
M  V30 6040 O 615.686 -5.99158 -4.88404 0
M  V30 6041 C 616.626 -6.60234 -3.96415 0
M  V30 6042 C 615.896 -7.08259 -2.72856 0
M  V30 6043 O 615.686 -5.9427 -1.83651 0
M  V30 6044 C 614.496 -7.64886 -2.9555 0
M  V30 6045 O 614.106 -8.53963 -1.90717 0
M  V30 6046 C 613.616 -6.4116 -2.90739 0
M  V30 6047 C 614.326 -5.55375 -1.86963 0
M  V30 6048 N 614.276 -4.09664 -2.15742 0
M  V30 6049 H 617.115 -7.45574 -4.45629 0
M  V30 6050 H 617.387 -5.86232 -3.67314 0
M  V30 6051 H 616.519 -7.84412 -2.24479 0
M  V30 6052 P 612.556 -8.7635 -1.60911 0
M  V30 6053 O 612.336 -10.1388 -1.11561 0
M  V30 6054 O 611.766 -8.36503 -2.79617 0
M  V30 6055 O 612.306 -7.71806 -0.42951 0
M  V30 6056 C 613.246 -7.67148 0.673689 0
M  V30 6057 C 612.516 -7.33374 1.95559 0
M  V30 6058 O 612.306 -5.88721 2.00726 0
M  V30 6059 C 611.116 -7.92526 2.10483 0
M  V30 6060 O 610.726 -8.02971 3.47653 0
M  V30 6061 C 610.236 -6.89602 1.41652 0
M  V30 6062 C 610.946 -5.59201 1.75185 0
M  V30 6063 N 610.896 -4.58235 0.662552 0
M  V30 6064 C 610.976 -4.7683 -0.704049 0
M  V30 6065 N 610.896 -3.66233 -1.39775 0
M  V30 6066 C 610.756 -2.66526 -0.431739 0
M  V30 6067 C 610.626 -1.26394 -0.575992 0
M  V30 6068 N 610.506 -0.62859 0.67177 0
M  V30 6069 C 610.506 -1.27134 1.89385 0
M  V30 6070 N 610.376 -0.492035 2.96951 0
M  V30 6071 N 610.636 -2.58978 2.02907 0
M  V30 6072 C 610.756 -3.22433 0.832218 0
M  V30 6073 H 613.735 -8.65116 0.777161 0
M  V30 6074 H 614.007 -6.90173 0.474152 0
M  V30 6075 H 613.139 -7.66548 2.79458 0
M  V30 6076 P 609.176 -8.03563 3.84925 0
M  V30 6077 O 608.956 -8.85821 5.0569 0
M  V30 6078 O 608.386 -8.41101 2.65469 0
M  V30 6079 O 608.926 -6.4965 4.18908 0
M  V30 6080 C 609.866 -5.81037 5.05421 0
M  V30 6081 C 609.136 -4.78366 5.89277 0
M  V30 6082 O 608.926 -3.58302 5.08433 0
M  V30 6083 C 607.736 -5.17448 6.36119 0
M  V30 6084 O 607.346 -4.45271 7.53232 0
M  V30 6085 C 606.856 -4.74639 5.19936 0
M  V30 6086 C 607.566 -3.49432 4.70418 0
M  V30 6087 N 607.516 -3.32099 3.22613 0
M  V30 6088 H 610.355 -6.54213 5.71376 0
M  V30 6089 H 610.627 -5.30936 4.43503 0
M  V30 6090 H 609.759 -4.55889 6.76652 0
M  V30 6091 H 607.104 -2.61715 5.17932 0
M  V30 6092 H 606.824 -5.52155 4.41878 0
M  V30 6093 H 605.833 -4.51981 5.53374 0
M  V30 6094 H 607.667 -6.25124 6.55234 0
M  V30 6095 P 605.796 -4.23843 7.83734 0
M  V30 6096 O 605.576 -4.19407 9.29784 0
M  V30 6097 O 605.006 -5.24426 7.09156 0
M  V30 6098 O 605.546 -2.7935 7.20758 0
M  V30 6099 C 606.486 -1.72945 7.50224 0
M  V30 6100 C 605.756 -0.406376 7.57911 0
M  V30 6101 O 605.546 0.0897726 6.21935 0
M  V30 6102 C 604.356 -0.438983 8.18724 0
M  V30 6103 O 603.966 0.825065 8.71101 0
M  V30 6104 C 603.476 -0.783689 6.99524 0
M  V30 6105 C 604.186 -0.0619086 5.85867 0
M  V30 6106 N 604.136 -0.78573 4.56183 0
M  V30 6107 C 603.986 -0.0292889 3.41887 0
M  V30 6108 O 603.896 1.18445 3.4419 0
M  V30 6109 N 603.946 -0.744061 2.23964 0
M  V30 6110 C 604.036 -2.10932 2.10362 0
M  V30 6111 O 603.986 -2.64117 0.98825 0
M  V30 6112 C 604.186 -2.8202 3.34994 0
M  V30 6113 C 604.296 -4.31095 3.25037 0
M  V30 6114 C 604.236 -2.15547 4.52261 0
M  V30 6115 H 606.977 -1.93379 8.46595 0
M  V30 6116 H 607.246 -1.68132 6.70852 0
M  V30 6117 H 606.379 0.289041 8.15388 0
M  V30 6118 H 603.724 0.926847 5.72749 0
M  V30 6119 H 603.445 -1.86973 6.82036 0
M  V30 6120 H 602.453 -0.403896 7.13257 0
M  V30 6121 H 604.287 -1.20585 8.97435 0
M  V30 6122 H 604.358 -2.71231 5.45042 0
M  V30 6123 H 603.328 -4.76966 3.49992 0
M  V30 6124 H 605.065 -4.67047 3.95024 0
M  V30 6125 H 604.577 -4.58996 2.22312 0
M  V30 6126 H 603.841 -0.214893 1.39758 0
M  V30 6127 P 602.416 1.17771 8.83182 0
M  V30 6128 O 602.196 2.07206 9.98732 0
M  V30 6129 O 601.626 -0.0743816 8.81969 0
M  V30 6130 O 602.166 1.97652 7.47304 0
M  V30 6131 C 603.106 3.01133 7.08783 0
M  V30 6132 C 602.376 4.12613 6.37049 0
M  V30 6133 O 602.166 3.72827 4.97879 0
M  V30 6134 C 600.976 4.45085 6.88694 0
M  V30 6135 O 600.586 5.7877 6.5624 0
M  V30 6136 C 600.096 3.47817 6.12078 0
M  V30 6137 C 600.806 3.39414 4.77697 0
M  V30 6138 N 600.756 2.04615 4.15333 0
M  V30 6139 H 603.595 3.41248 7.98759 0
M  V30 6140 H 603.867 2.5837 6.41742 0
M  V30 6141 H 602.999 5.02657 6.42673 0
M  V30 6142 P 599.036 6.144 6.45285 0
M  V30 6143 O 598.816 7.54673 6.86199 0
M  V30 6144 O 598.246 5.12391 7.179 0
M  V30 6145 O 598.786 5.99158 4.88404 0
M  V30 6146 C 599.726 6.60234 3.96415 0
M  V30 6147 C 598.996 7.08259 2.72856 0
M  V30 6148 O 598.786 5.9427 1.83651 0
M  V30 6149 C 597.596 7.64886 2.9555 0
M  V30 6150 O 597.206 8.53963 1.90717 0
M  V30 6151 C 596.716 6.4116 2.90739 0
M  V30 6152 C 597.426 5.55375 1.86963 0
M  V30 6153 N 597.376 4.09448 2.16152 0
M  V30 6154 C 597.456 3.46824 3.37593 0
M  V30 6155 N 597.386 2.17422 3.29777 0
M  V30 6156 C 597.236 1.93065 1.94427 0
M  V30 6157 C 597.106 0.738053 1.20141 0
M  V30 6158 N 597.096 -0.474256 1.74676 0
M  V30 6159 N 596.986 0.850049 -0.13045 0
M  V30 6160 C 596.996 2.06169 -0.676992 0
M  V30 6161 N 597.116 3.23842 -0.101312 0
M  V30 6162 C 597.236 3.09402 1.23122 0
M  V30 6163 H 600.215 7.45574 4.45629 0
M  V30 6164 H 600.487 5.85864 3.679 0
M  V30 6165 H 599.619 7.84412 2.24479 0
M  V30 6166 H 596.964 5.73457 0.888562 0
M  V30 6167 H 596.684 5.90877 3.88583 0
M  V30 6168 H 595.693 6.6596 2.58858 0
M  V30 6169 H 597.527 8.16339 3.92049 0
M  V30 6170 H 597.568 4.00505 4.3174 0
M  V30 6171 H 597.187 -0.581337 2.76658 0
M  V30 6172 H 596.998 -1.30811 1.14888 0
M  V30 6173 H 596.89 2.08295 -1.75542 0
M  V30 6174 P 595.656 8.7635 1.60911 0
M  V30 6175 O 595.437 10.1388 1.11561 0
M  V30 6176 O 594.866 8.36503 2.79617 0
M  V30 6177 O 595.406 7.71806 0.42951 0
M  V30 6178 C 596.346 7.67148 -0.673689 0
M  V30 6179 C 595.616 7.33374 -1.95559 0
M  V30 6180 O 595.406 5.88721 -2.00726 0
M  V30 6181 C 594.216 7.92526 -2.10483 0
M  V30 6182 O 593.827 8.02971 -3.47653 0
M  V30 6183 C 593.337 6.89602 -1.41652 0
M  V30 6184 C 594.046 5.59201 -1.75185 0
M  V30 6185 N 593.996 4.58235 -0.662552 0
M  V30 6186 H 596.836 8.65116 -0.777161 0
M  V30 6187 H 597.107 6.90173 -0.474152 0
M  V30 6188 H 596.24 7.66548 -2.79458 0
M  V30 6189 P 592.277 8.03563 -3.84925 0
M  V30 6190 O 592.057 8.85821 -5.0569 0
M  V30 6191 O 591.487 8.41101 -2.65469 0
M  V30 6192 O 592.027 6.4965 -4.18908 0
M  V30 6193 C 592.967 5.81037 -5.05421 0
M  V30 6194 C 592.237 4.78366 -5.89277 0
M  V30 6195 O 592.027 3.58302 -5.08433 0
M  V30 6196 C 590.837 5.17448 -6.36119 0
M  V30 6197 O 590.447 4.45271 -7.53232 0
M  V30 6198 C 589.957 4.74639 -5.19936 0
M  V30 6199 C 590.667 3.49432 -4.70418 0
M  V30 6200 N 590.617 3.31776 -3.22945 0
M  V30 6201 H 593.456 6.54213 -5.71376 0
M  V30 6202 H 593.728 5.30492 -4.44033 0
M  V30 6203 H 592.86 4.55889 -6.76652 0
M  V30 6204 P 588.897 4.23843 -7.83734 0
M  V30 6205 O 588.677 4.19407 -9.29784 0
M  V30 6206 O 588.107 5.24426 -7.09156 0
M  V30 6207 O 588.647 2.7935 -7.20758 0
M  V30 6208 C 589.587 1.7299 -7.50419 0
M  V30 6209 C 588.857 0.406376 -7.57911 0
M  V30 6210 O 588.647 -0.0897726 -6.21935 0
M  V30 6211 C 587.457 0.447224 -8.1878 0
M  V30 6212 O 587.067 -0.825065 -8.71101 0
M  V30 6213 C 586.577 0.783801 -6.99623 0
M  V30 6214 C 587.287 0.0619192 -5.85967 0
M  V30 6215 N 587.237 0.7859 -4.56281 0
M  V30 6216 C 587.317 2.14308 -4.31736 0
M  V30 6217 N 587.237 2.46106 -3.05116 0
M  V30 6218 C 587.097 1.23422 -2.4014 0
M  V30 6219 C 586.967 0.938381 -1.02409 0
M  V30 6220 N 586.847 -0.444647 -0.805413 0
M  V30 6221 C 586.847 -1.40829 -1.79435 0
M  V30 6222 N 586.717 -2.67213 -1.38558 0
M  V30 6223 N 586.977 -1.12947 -3.09005 0
M  V30 6224 C 587.097 0.204887 -3.32369 0
M  V30 6225 H 590.076 1.93423 -8.4679 0
M  V30 6226 H 590.348 1.68181 -6.71046 0
M  V30 6227 H 589.48 -0.289041 -8.15388 0
M  V30 6228 P 585.517 -1.17771 -8.83182 0
M  V30 6229 O 585.297 -2.07206 -9.98732 0
M  V30 6230 O 584.727 0.0743816 -8.81969 0
M  V30 6231 O 585.267 -1.97652 -7.47304 0
M  V30 6232 C 586.207 -3.01133 -7.08783 0
M  V30 6233 C 585.477 -4.12613 -6.37049 0
M  V30 6234 O 585.267 -3.72827 -4.97879 0
M  V30 6235 C 584.077 -4.45085 -6.88694 0
M  V30 6236 O 583.687 -5.7877 -6.5624 0
M  V30 6237 C 583.197 -3.47817 -6.12078 0
M  V30 6238 C 583.907 -3.39414 -4.77697 0
M  V30 6239 N 583.857 -2.04615 -4.15333 0
M  V30 6240 H 586.696 -3.41248 -7.98759 0
M  V30 6241 H 586.968 -2.5837 -6.41742 0
M  V30 6242 H 586.1 -5.02657 -6.42673 0
M  V30 6243 P 582.137 -6.144 -6.45285 0
M  V30 6244 O 581.917 -7.54673 -6.86199 0
M  V30 6245 O 581.347 -5.12391 -7.179 0
M  V30 6246 O 581.887 -5.99158 -4.88404 0
M  V30 6247 C 582.827 -6.60234 -3.96415 0
M  V30 6248 C 582.097 -7.08259 -2.72856 0
M  V30 6249 O 581.887 -5.9427 -1.83651 0
M  V30 6250 C 580.697 -7.64886 -2.9555 0
M  V30 6251 O 580.307 -8.53963 -1.90717 0
M  V30 6252 C 579.817 -6.4116 -2.90739 0
M  V30 6253 C 580.527 -5.55375 -1.86963 0
M  V30 6254 N 580.477 -4.09664 -2.15742 0
M  V30 6255 H 583.316 -7.45574 -4.45629 0
M  V30 6256 H 583.588 -5.86232 -3.67314 0
M  V30 6257 H 582.72 -7.84412 -2.24479 0
M  V30 6258 P 578.757 -8.7635 -1.60911 0
M  V30 6259 O 578.537 -10.1388 -1.11561 0
M  V30 6260 O 577.967 -8.36503 -2.79617 0
M  V30 6261 O 578.507 -7.71806 -0.42951 0
M  V30 6262 C 579.447 -7.67148 0.673689 0
M  V30 6263 C 578.717 -7.33374 1.95559 0
M  V30 6264 O 578.507 -5.88721 2.00726 0
M  V30 6265 C 577.317 -7.92526 2.10483 0
M  V30 6266 O 576.927 -8.02971 3.47653 0
M  V30 6267 C 576.437 -6.89602 1.41652 0
M  V30 6268 C 577.147 -5.59201 1.75185 0
M  V30 6269 N 577.097 -4.58301 0.657969 0
M  V30 6270 H 579.936 -8.65116 0.777161 0
M  V30 6271 H 580.208 -6.9022 0.46725 0
M  V30 6272 H 579.34 -7.66548 2.79458 0
M  V30 6273 H 576.685 -5.16165 2.65183 0
M  V30 6274 H 576.405 -7.06433 0.329384 0
M  V30 6275 H 575.414 -6.90926 1.82021 0
M  V30 6276 H 577.248 -8.90873 1.62657 0
M  V30 6277 P 575.377 -8.03563 3.84925 0
M  V30 6278 O 575.157 -8.85821 5.0569 0
M  V30 6279 O 574.587 -8.41101 2.65469 0
M  V30 6280 O 575.127 -6.4965 4.18908 0
M  V30 6281 C 576.067 -5.81037 5.05421 0
M  V30 6282 C 575.337 -4.78366 5.89277 0
M  V30 6283 O 575.127 -3.58302 5.08433 0
M  V30 6284 C 573.937 -5.17448 6.36119 0
M  V30 6285 O 573.547 -4.45271 7.53232 0
M  V30 6286 C 573.057 -4.74639 5.19936 0
M  V30 6287 C 573.767 -3.49432 4.70418 0
M  V30 6288 N 573.717 -3.31776 3.22945 0
M  V30 6289 H 576.556 -6.54213 5.71376 0
M  V30 6290 H 576.828 -5.30492 4.44033 0
M  V30 6291 H 575.96 -4.55889 6.76652 0
M  V30 6292 P 571.997 -4.23843 7.83734 0
M  V30 6293 O 571.777 -4.19407 9.29784 0
M  V30 6294 O 571.207 -5.24426 7.09156 0
M  V30 6295 O 571.747 -2.7935 7.20758 0
M  V30 6296 C 572.687 -1.7299 7.50419 0
M  V30 6297 C 571.957 -0.406376 7.57911 0
M  V30 6298 O 571.747 0.0897726 6.21935 0
M  V30 6299 C 570.557 -0.447224 8.1878 0
M  V30 6300 O 570.167 0.825065 8.71101 0
M  V30 6301 C 569.677 -0.783801 6.99623 0
M  V30 6302 C 570.387 -0.0619192 5.85967 0
M  V30 6303 N 570.337 -0.7859 4.56281 0
M  V30 6304 C 570.417 -2.14308 4.31736 0
M  V30 6305 N 570.337 -2.46106 3.05116 0
M  V30 6306 C 570.197 -1.23422 2.4014 0
M  V30 6307 C 570.067 -0.938381 1.02409 0
M  V30 6308 N 569.947 0.444647 0.805413 0
M  V30 6309 C 569.947 1.40829 1.79435 0
M  V30 6310 N 569.817 2.67213 1.38558 0
M  V30 6311 N 570.077 1.12947 3.09005 0
M  V30 6312 C 570.197 -0.204887 3.32369 0
M  V30 6313 H 573.176 -1.93423 8.4679 0
M  V30 6314 H 573.448 -1.68181 6.71046 0
M  V30 6315 H 572.58 0.289041 8.15388 0
M  V30 6316 P 568.617 1.17771 8.83182 0
M  V30 6317 O 568.397 2.07206 9.98732 0
M  V30 6318 O 567.827 -0.0743816 8.81969 0
M  V30 6319 O 568.367 1.97652 7.47304 0
M  V30 6320 C 569.307 3.01133 7.08783 0
M  V30 6321 C 568.577 4.12613 6.37049 0
M  V30 6322 O 568.367 3.72827 4.97879 0
M  V30 6323 C 567.177 4.45085 6.88694 0
M  V30 6324 O 566.787 5.7877 6.5624 0
M  V30 6325 C 566.297 3.47817 6.12078 0
M  V30 6326 C 567.007 3.39414 4.77697 0
M  V30 6327 N 566.957 2.04615 4.15333 0
M  V30 6328 H 569.796 3.41248 7.98759 0
M  V30 6329 H 570.068 2.5837 6.41742 0
M  V30 6330 H 569.2 5.02657 6.42673 0
M  V30 6331 P 565.237 6.144 6.45285 0
M  V30 6332 O 565.017 7.54673 6.86199 0
M  V30 6333 O 564.447 5.12391 7.179 0
M  V30 6334 O 564.987 5.99158 4.88404 0
M  V30 6335 C 565.927 6.60234 3.96415 0
M  V30 6336 C 565.197 7.08259 2.72856 0
M  V30 6337 O 564.987 5.9427 1.83651 0
M  V30 6338 C 563.797 7.64886 2.9555 0
M  V30 6339 O 563.407 8.53963 1.90717 0
M  V30 6340 C 562.917 6.4116 2.90739 0
M  V30 6341 C 563.627 5.55375 1.86963 0
M  V30 6342 N 563.577 4.09664 2.15742 0
M  V30 6343 H 566.416 7.45574 4.45629 0
M  V30 6344 H 566.688 5.86232 3.67314 0
M  V30 6345 H 565.82 7.84412 2.24479 0
M  V30 6346 P 561.857 8.7635 1.60911 0
M  V30 6347 O 561.637 10.1388 1.11561 0
M  V30 6348 O 561.067 8.36503 2.79617 0
M  V30 6349 O 561.607 7.71806 0.42951 0
M  V30 6350 C 562.547 7.67148 -0.673689 0
M  V30 6351 C 561.817 7.33374 -1.95559 0
M  V30 6352 O 561.607 5.88721 -2.00726 0
M  V30 6353 C 560.417 7.92526 -2.10483 0
M  V30 6354 O 560.027 8.02971 -3.47653 0
M  V30 6355 C 559.537 6.89602 -1.41652 0
M  V30 6356 C 560.247 5.59201 -1.75185 0
M  V30 6357 N 560.197 4.58301 -0.657969 0
M  V30 6358 H 563.036 8.65116 -0.777161 0
M  V30 6359 H 563.308 6.9022 -0.46725 0
M  V30 6360 H 562.44 7.66548 -2.79458 0
M  V30 6361 H 559.785 5.16165 -2.65183 0
M  V30 6362 H 559.505 7.06433 -0.329384 0
M  V30 6363 H 558.514 6.90926 -1.82021 0
M  V30 6364 H 560.348 8.90873 -1.62657 0
M  V30 6365 P 558.477 8.03563 -3.84925 0
M  V30 6366 O 558.257 8.85821 -5.0569 0
M  V30 6367 O 557.687 8.41101 -2.65469 0
M  V30 6368 O 558.227 6.49734 -4.18962 0
M  V30 6369 C 559.167 5.81037 -5.05421 0
M  V30 6370 C 558.437 4.79018 -5.88876 0
M  V30 6371 O 558.227 3.58359 -5.08515 0
M  V30 6372 C 557.037 5.17448 -6.36119 0
M  V30 6373 O 556.647 4.45322 -7.53318 0
M  V30 6374 C 556.157 4.74639 -5.19936 0
M  V30 6375 C 556.867 3.49432 -4.70418 0
M  V30 6376 N 556.817 3.31776 -3.22945 0
M  V30 6377 C 556.667 2.02742 -2.72939 0
M  V30 6378 O 556.577 1.08301 -3.52749 0
M  V30 6379 N 556.617 1.96117 -1.22063 0
M  V30 6380 C 556.717 2.8878 -0.551566 0
M  V30 6381 N 556.667 2.65609 0.750198 0
M  V30 6382 C 556.867 4.22457 -1.03707 0
M  V30 6383 C 556.917 4.37979 -2.39113 0
M  V30 6384 H 559.657 6.54138 -5.7131 0
M  V30 6385 H 559.927 5.30492 -4.44033 0
M  V30 6386 H 559.06 4.55945 -6.76735 0
M  V30 6387 H 556.405 2.6176 -5.18021 0
M  V30 6388 H 556.125 5.52233 -4.41941 0
M  V30 6389 H 555.134 4.52045 -5.53452 0
M  V30 6390 H 556.968 6.25124 -6.55234 0
M  V30 6391 H 557.04 5.37936 -2.80552 0
M  V30 6392 H 556.938 5.07528 -0.359553 0
M  V30 6393 H 556.55 1.69403 1.09847 0
M  V30 6394 H 556.746 3.43701 1.41792 0
M  V30 6395 P 555.097 4.23843 -7.83734 0
M  V30 6396 O 554.877 4.19407 -9.29784 0
M  V30 6397 O 554.307 5.24426 -7.09156 0
M  V30 6398 O 554.847 2.7935 -7.20758 0
M  V30 6399 C 555.787 1.7299 -7.50419 0
M  V30 6400 C 555.057 0.406376 -7.57911 0
M  V30 6401 O 554.847 -0.0897726 -6.21935 0
M  V30 6402 C 553.657 0.447224 -8.1878 0
M  V30 6403 O 553.267 -0.825065 -8.71101 0
M  V30 6404 C 552.777 0.783801 -6.99623 0
M  V30 6405 C 553.487 0.0619192 -5.85967 0
M  V30 6406 N 553.437 0.790462 -4.56202 0
M  V30 6407 H 556.276 1.93423 -8.4679 0
M  V30 6408 H 556.548 1.68852 -6.70877 0
M  V30 6409 H 555.68 -0.289041 -8.15388 0
M  V30 6410 H 553.025 -0.927006 -5.72848 0
M  V30 6411 H 552.745 1.86973 -6.82036 0
M  V30 6412 H 551.754 0.403953 -7.13357 0
M  V30 6413 H 553.588 1.20599 -8.97534 0
M  V30 6414 P 551.717 -1.17771 -8.83182 0
M  V30 6415 O 551.497 -2.07206 -9.98732 0
M  V30 6416 O 550.927 0.0743816 -8.81969 0
M  V30 6417 O 551.467 -1.97652 -7.47304 0
M  V30 6418 C 552.407 -3.01133 -7.08783 0
M  V30 6419 C 551.677 -4.12613 -6.37049 0
M  V30 6420 O 551.467 -3.72827 -4.97879 0
M  V30 6421 C 550.277 -4.45085 -6.88694 0
M  V30 6422 O 549.887 -5.7877 -6.5624 0
M  V30 6423 C 549.397 -3.47817 -6.12078 0
M  V30 6424 C 550.107 -3.39414 -4.77697 0
M  V30 6425 N 550.057 -2.04615 -4.15333 0
M  V30 6426 H 552.896 -3.41248 -7.98759 0
M  V30 6427 H 553.168 -2.5837 -6.41742 0
M  V30 6428 H 552.3 -5.02657 -6.42673 0
M  V30 6429 P 548.337 -6.144 -6.45285 0
M  V30 6430 O 548.117 -7.54673 -6.86199 0
M  V30 6431 O 547.547 -5.12391 -7.179 0
M  V30 6432 O 548.087 -5.99158 -4.88404 0
M  V30 6433 C 549.027 -6.60234 -3.96415 0
M  V30 6434 C 548.297 -7.08259 -2.72856 0
M  V30 6435 O 548.087 -5.9427 -1.83651 0
M  V30 6436 C 546.897 -7.64886 -2.9555 0
M  V30 6437 O 546.507 -8.53963 -1.90717 0
M  V30 6438 C 546.017 -6.4116 -2.90739 0
M  V30 6439 C 546.727 -5.55375 -1.86963 0
M  V30 6440 N 546.677 -4.09664 -2.15742 0
M  V30 6441 H 549.516 -7.45574 -4.45629 0
M  V30 6442 H 549.788 -5.86232 -3.67314 0
M  V30 6443 H 548.92 -7.84412 -2.24479 0
M  V30 6444 P 544.957 -8.7635 -1.60911 0
M  V30 6445 O 544.737 -10.1388 -1.11561 0
M  V30 6446 O 544.167 -8.36503 -2.79617 0
M  V30 6447 O 544.707 -7.71806 -0.42951 0
M  V30 6448 C 545.647 -7.67148 0.673689 0
M  V30 6449 C 544.917 -7.33374 1.95559 0
M  V30 6450 O 544.707 -5.88721 2.00726 0
M  V30 6451 C 543.517 -7.92526 2.10483 0
M  V30 6452 O 543.127 -8.02971 3.47653 0
M  V30 6453 C 542.637 -6.89602 1.41652 0
M  V30 6454 C 543.347 -5.59201 1.75185 0
M  V30 6455 N 543.297 -4.58301 0.657969 0
M  V30 6456 H 546.136 -8.65116 0.777161 0
M  V30 6457 H 546.408 -6.9022 0.46725 0
M  V30 6458 H 545.54 -7.66548 2.79458 0
M  V30 6459 H 542.885 -5.16165 2.65183 0
M  V30 6460 H 542.605 -7.06433 0.329384 0
M  V30 6461 H 541.614 -6.90926 1.82021 0
M  V30 6462 H 543.448 -8.90873 1.62657 0
M  V30 6463 P 541.577 -8.03563 3.84925 0
M  V30 6464 O 541.357 -8.85821 5.0569 0
M  V30 6465 O 540.787 -8.41101 2.65469 0
M  V30 6466 O 541.327 -6.4965 4.18908 0
M  V30 6467 C 542.267 -5.81037 5.05421 0
M  V30 6468 C 541.537 -4.78366 5.89277 0
M  V30 6469 O 541.327 -3.58302 5.08433 0
M  V30 6470 C 540.137 -5.17448 6.36119 0
M  V30 6471 O 539.747 -4.45271 7.53232 0
M  V30 6472 C 539.257 -4.74639 5.19936 0
M  V30 6473 C 539.967 -3.49432 4.70418 0
M  V30 6474 N 539.917 -3.31776 3.22945 0
M  V30 6475 H 542.756 -6.54213 5.71376 0
M  V30 6476 H 543.028 -5.30492 4.44033 0
M  V30 6477 H 542.16 -4.55889 6.76652 0
M  V30 6478 P 538.197 -4.23843 7.83734 0
M  V30 6479 O 537.977 -4.19407 9.29784 0
M  V30 6480 O 537.407 -5.24426 7.09156 0
M  V30 6481 O 537.947 -2.7935 7.20758 0
M  V30 6482 C 538.887 -1.7299 7.50419 0
M  V30 6483 C 538.157 -0.406376 7.57911 0
M  V30 6484 O 537.947 0.0897726 6.21935 0
M  V30 6485 C 536.757 -0.447224 8.1878 0
M  V30 6486 O 536.367 0.825065 8.71101 0
M  V30 6487 C 535.877 -0.783801 6.99623 0
M  V30 6488 C 536.587 -0.0619192 5.85967 0
M  V30 6489 N 536.537 -0.790462 4.56202 0
M  V30 6490 H 539.376 -1.93423 8.4679 0
M  V30 6491 H 539.648 -1.68852 6.70877 0
M  V30 6492 H 538.78 0.289041 8.15388 0
M  V30 6493 H 536.125 0.927006 5.72848 0
M  V30 6494 H 535.845 -1.86973 6.82036 0
M  V30 6495 H 534.854 -0.403953 7.13357 0
M  V30 6496 H 536.688 -1.20599 8.97534 0
M  V30 6497 P 534.817 1.17771 8.83182 0
M  V30 6498 O 534.597 2.07206 9.98732 0
M  V30 6499 O 534.027 -0.0743816 8.81969 0
M  V30 6500 O 534.567 1.97652 7.47304 0
M  V30 6501 C 535.507 3.01133 7.08783 0
M  V30 6502 C 534.777 4.12613 6.37049 0
M  V30 6503 O 534.567 3.72827 4.97879 0
M  V30 6504 C 533.377 4.45085 6.88694 0
M  V30 6505 O 532.987 5.7877 6.5624 0
M  V30 6506 C 532.497 3.47817 6.12078 0
M  V30 6507 C 533.207 3.39414 4.77697 0
M  V30 6508 N 533.157 2.04199 4.15538 0
M  V30 6509 H 535.996 3.41248 7.98759 0
M  V30 6510 H 536.268 2.57728 6.42 0
M  V30 6511 H 535.4 5.02657 6.42673 0
M  V30 6512 H 532.745 4.11708 4.08956 0
M  V30 6513 H 532.465 2.49626 6.61679 0
M  V30 6514 H 531.474 3.8662 6.00862 0
M  V30 6515 H 533.308 4.29991 7.97006 0
M  V30 6516 P 531.437 6.144 6.45285 0
M  V30 6517 O 531.217 7.54673 6.86199 0
M  V30 6518 O 530.647 5.12391 7.179 0
M  V30 6519 O 531.187 5.99158 4.88404 0
M  V30 6520 C 532.127 6.60234 3.96415 0
M  V30 6521 C 531.397 7.08259 2.72856 0
M  V30 6522 O 531.187 5.9427 1.83651 0
M  V30 6523 C 529.997 7.64886 2.9555 0
M  V30 6524 O 529.607 8.53963 1.90717 0
M  V30 6525 C 529.117 6.4116 2.90739 0
M  V30 6526 C 529.827 5.55375 1.86963 0
M  V30 6527 N 529.777 4.09664 2.15742 0
M  V30 6528 H 532.616 7.45574 4.45629 0
M  V30 6529 H 532.888 5.86232 3.67314 0
M  V30 6530 H 532.02 7.84412 2.24479 0
M  V30 6531 P 528.057 8.7635 1.60911 0
M  V30 6532 O 527.837 10.1388 1.11561 0
M  V30 6533 O 527.267 8.36503 2.79617 0
M  V30 6534 O 527.807 7.71806 0.42951 0
M  V30 6535 C 528.747 7.67148 -0.673689 0
M  V30 6536 C 528.017 7.33374 -1.95559 0
M  V30 6537 O 527.807 5.88721 -2.00726 0
M  V30 6538 C 526.617 7.92526 -2.10483 0
M  V30 6539 O 526.227 8.02971 -3.47653 0
M  V30 6540 C 525.737 6.89602 -1.41652 0
M  V30 6541 C 526.447 5.59201 -1.75185 0
M  V30 6542 N 526.397 4.58235 -0.662552 0
M  V30 6543 H 529.236 8.65116 -0.777161 0
M  V30 6544 H 529.508 6.90173 -0.474152 0
M  V30 6545 H 528.64 7.66548 -2.79458 0
M  V30 6546 P 524.677 8.03563 -3.84925 0
M  V30 6547 O 524.457 8.85821 -5.0569 0
M  V30 6548 O 523.887 8.41101 -2.65469 0
M  V30 6549 O 524.427 6.4965 -4.18908 0
M  V30 6550 C 525.367 5.81037 -5.05421 0
M  V30 6551 C 524.637 4.78366 -5.89277 0
M  V30 6552 O 524.427 3.58302 -5.08433 0
M  V30 6553 C 523.237 5.17448 -6.36119 0
M  V30 6554 O 522.847 4.45271 -7.53232 0
M  V30 6555 C 522.357 4.74639 -5.19936 0
M  V30 6556 C 523.067 3.49432 -4.70418 0
M  V30 6557 N 523.017 3.31776 -3.22945 0
M  V30 6558 H 525.856 6.54213 -5.71376 0
M  V30 6559 H 526.128 5.30492 -4.44033 0
M  V30 6560 H 525.26 4.55889 -6.76652 0
M  V30 6561 P 521.297 4.23843 -7.83734 0
M  V30 6562 O 521.077 4.19407 -9.29784 0
M  V30 6563 O 520.507 5.24426 -7.09156 0
M  V30 6564 O 521.047 2.7935 -7.20758 0
M  V30 6565 C 521.987 1.7299 -7.50419 0
M  V30 6566 C 521.257 0.406376 -7.57911 0
M  V30 6567 O 521.047 -0.0897726 -6.21935 0
M  V30 6568 C 519.857 0.447224 -8.1878 0
M  V30 6569 O 519.467 -0.825065 -8.71101 0
M  V30 6570 C 518.977 0.783801 -6.99623 0
M  V30 6571 C 519.687 0.0619192 -5.85967 0
M  V30 6572 N 519.637 0.790462 -4.56202 0
M  V30 6573 H 522.476 1.93423 -8.4679 0
M  V30 6574 H 522.748 1.68852 -6.70877 0
M  V30 6575 H 521.88 -0.289041 -8.15388 0
M  V30 6576 H 519.225 -0.927006 -5.72848 0
M  V30 6577 H 518.945 1.86973 -6.82036 0
M  V30 6578 H 517.954 0.403953 -7.13357 0
M  V30 6579 H 519.788 1.20599 -8.97534 0
M  V30 6580 P 517.917 -1.17771 -8.83182 0
M  V30 6581 O 517.697 -2.07206 -9.98732 0
M  V30 6582 O 517.127 0.0743816 -8.81969 0
M  V30 6583 O 517.667 -1.97652 -7.47304 0
M  V30 6584 C 518.607 -3.01133 -7.08783 0
M  V30 6585 C 517.877 -4.12613 -6.37049 0
M  V30 6586 O 517.667 -3.72827 -4.97879 0
M  V30 6587 C 516.477 -4.45085 -6.88694 0
M  V30 6588 O 516.087 -5.7877 -6.5624 0
M  V30 6589 C 515.597 -3.47817 -6.12078 0
M  V30 6590 C 516.307 -3.39414 -4.77697 0
M  V30 6591 N 516.257 -2.04199 -4.15538 0
M  V30 6592 H 519.096 -3.41248 -7.98759 0
M  V30 6593 H 519.368 -2.57728 -6.42 0
M  V30 6594 H 518.5 -5.02657 -6.42673 0
M  V30 6595 H 515.845 -4.11708 -4.08956 0
M  V30 6596 H 515.565 -2.49626 -6.61679 0
M  V30 6597 H 514.574 -3.8662 -6.00862 0
M  V30 6598 H 516.408 -4.29991 -7.97006 0
M  V30 6599 P 514.537 -6.144 -6.45285 0
M  V30 6600 O 514.317 -7.54673 -6.86199 0
M  V30 6601 O 513.747 -5.12391 -7.179 0
M  V30 6602 O 514.287 -5.99158 -4.88404 0
M  V30 6603 C 515.227 -6.60234 -3.96415 0
M  V30 6604 C 514.497 -7.08259 -2.72856 0
M  V30 6605 O 514.287 -5.9427 -1.83651 0
M  V30 6606 C 513.097 -7.64886 -2.9555 0
M  V30 6607 O 512.707 -8.53963 -1.90717 0
M  V30 6608 C 512.217 -6.4116 -2.90739 0
M  V30 6609 C 512.927 -5.55375 -1.86963 0
M  V30 6610 N 512.877 -4.09664 -2.15742 0
M  V30 6611 H 515.716 -7.45574 -4.45629 0
M  V30 6612 H 515.988 -5.86232 -3.67314 0
M  V30 6613 H 515.12 -7.84412 -2.24479 0
M  V30 6614 P 511.157 -8.7635 -1.60911 0
M  V30 6615 O 510.937 -10.1388 -1.11561 0
M  V30 6616 O 510.367 -8.36503 -2.79617 0
M  V30 6617 O 510.907 -7.71806 -0.42951 0
M  V30 6618 C 511.847 -7.67148 0.673689 0
M  V30 6619 C 511.117 -7.33374 1.95559 0
M  V30 6620 O 510.907 -5.88721 2.00726 0
M  V30 6621 C 509.717 -7.92526 2.10483 0
M  V30 6622 O 509.327 -8.02971 3.47653 0
M  V30 6623 C 508.837 -6.89602 1.41652 0
M  V30 6624 C 509.547 -5.59201 1.75185 0
M  V30 6625 N 509.497 -4.58235 0.662552 0
M  V30 6626 H 512.336 -8.65116 0.777161 0
M  V30 6627 H 512.608 -6.90173 0.474152 0
M  V30 6628 H 511.74 -7.66548 2.79458 0
M  V30 6629 P 507.777 -8.03563 3.84925 0
M  V30 6630 O 507.557 -8.85821 5.0569 0
M  V30 6631 O 506.987 -8.41101 2.65469 0
M  V30 6632 O 507.527 -6.4965 4.18908 0
M  V30 6633 C 508.467 -5.81037 5.05421 0
M  V30 6634 C 507.737 -4.78366 5.89277 0
M  V30 6635 O 507.527 -3.58302 5.08433 0
M  V30 6636 C 506.337 -5.17448 6.36119 0
M  V30 6637 O 505.947 -4.45271 7.53232 0
M  V30 6638 C 505.457 -4.74639 5.19936 0
M  V30 6639 C 506.167 -3.49432 4.70418 0
M  V30 6640 N 506.117 -3.31776 3.22945 0
M  V30 6641 H 508.956 -6.54213 5.71376 0
M  V30 6642 H 509.228 -5.30492 4.44033 0
M  V30 6643 H 508.36 -4.55889 6.76652 0
M  V30 6644 P 504.397 -4.23843 7.83734 0
M  V30 6645 O 504.177 -4.19407 9.29784 0
M  V30 6646 O 503.607 -5.24426 7.09156 0
M  V30 6647 O 504.147 -2.7935 7.20758 0
M  V30 6648 C 505.087 -1.7299 7.50419 0
M  V30 6649 C 504.357 -0.406376 7.57911 0
M  V30 6650 O 504.147 0.0897726 6.21935 0
M  V30 6651 C 502.957 -0.447224 8.1878 0
M  V30 6652 O 502.567 0.825065 8.71101 0
M  V30 6653 C 502.077 -0.783801 6.99623 0
M  V30 6654 C 502.787 -0.0619192 5.85967 0
M  V30 6655 N 502.737 -0.790462 4.56202 0
M  V30 6656 H 505.576 -1.93423 8.4679 0
M  V30 6657 H 505.848 -1.68852 6.70877 0
M  V30 6658 H 504.98 0.289041 8.15388 0
M  V30 6659 H 502.325 0.927006 5.72848 0
M  V30 6660 H 502.045 -1.86973 6.82036 0
M  V30 6661 H 501.054 -0.403953 7.13357 0
M  V30 6662 H 502.888 -1.20599 8.97534 0
M  V30 6663 P 501.017 1.17771 8.83182 0
M  V30 6664 O 500.797 2.07206 9.98732 0
M  V30 6665 O 500.227 -0.0743816 8.81969 0
M  V30 6666 O 500.767 1.97652 7.47304 0
M  V30 6667 C 501.707 3.01133 7.08783 0
M  V30 6668 C 500.977 4.12613 6.37049 0
M  V30 6669 O 500.767 3.72827 4.97879 0
M  V30 6670 C 499.577 4.45085 6.88694 0
M  V30 6671 O 499.187 5.7877 6.5624 0
M  V30 6672 C 498.697 3.47817 6.12078 0
M  V30 6673 C 499.407 3.39414 4.77697 0
M  V30 6674 N 499.357 2.04199 4.15538 0
M  V30 6675 H 502.196 3.41248 7.98759 0
M  V30 6676 H 502.468 2.57728 6.42 0
M  V30 6677 H 501.6 5.02657 6.42673 0
M  V30 6678 H 498.945 4.11708 4.08956 0
M  V30 6679 H 498.665 2.49626 6.61679 0
M  V30 6680 H 497.674 3.8662 6.00862 0
M  V30 6681 H 499.508 4.29991 7.97006 0
M  V30 6682 P 497.637 6.144 6.45285 0
M  V30 6683 O 497.417 7.54673 6.86199 0
M  V30 6684 O 496.847 5.12391 7.179 0
M  V30 6685 O 497.387 5.99158 4.88404 0
M  V30 6686 C 498.327 6.60234 3.96415 0
M  V30 6687 C 497.597 7.08259 2.72856 0
M  V30 6688 O 497.387 5.9427 1.83651 0
M  V30 6689 C 496.197 7.64886 2.9555 0
M  V30 6690 O 495.807 8.53963 1.90717 0
M  V30 6691 C 495.317 6.4116 2.90739 0
M  V30 6692 C 496.027 5.55375 1.86963 0
M  V30 6693 N 495.977 4.09664 2.15742 0
M  V30 6694 C 496.057 3.44381 3.37233 0
M  V30 6695 N 495.977 2.14131 3.28347 0
M  V30 6696 C 495.837 1.90247 1.91588 0
M  V30 6697 C 495.707 0.683992 1.20892 0
M  V30 6698 O 495.687 -0.46618 1.64523 0
M  V30 6699 N 495.587 0.903396 -0.173998 0
M  V30 6700 C 495.587 2.14171 -0.784879 0
M  V30 6701 N 495.457 2.1435 -2.11317 0
M  V30 6702 N 495.717 3.28784 -0.119316 0
M  V30 6703 C 495.837 3.0977 1.22194 0
M  V30 6704 H 498.816 7.45574 4.45629 0
M  V30 6705 H 499.088 5.86232 3.67314 0
M  V30 6706 H 498.22 7.84412 2.24479 0
M  V30 6707 H 495.565 5.73556 0.888715 0
M  V30 6708 H 495.285 5.9096 3.88638 0
M  V30 6709 H 494.294 6.66053 2.58894 0
M  V30 6710 H 496.128 8.16429 3.92093 0
M  V30 6711 H 496.177 3.96785 4.32043 0
M  V30 6712 H 495.495 0.0999567 -0.761467 0
M  V30 6713 H 495.458 3.03436 -2.63076 0
M  V30 6714 H 495.357 1.25228 -2.62233 0
M  V30 6715 P 494.257 8.7635 1.60911 0
M  V30 6716 O 494.037 10.1388 1.11561 0
M  V30 6717 O 493.467 8.36503 2.79617 0
M  V30 6718 O 494.007 7.71806 0.42951 0
M  V30 6719 C 494.947 7.67148 -0.673689 0
M  V30 6720 C 494.217 7.33374 -1.95559 0
M  V30 6721 O 494.007 5.88721 -2.00726 0
M  V30 6722 C 492.817 7.92526 -2.10483 0
M  V30 6723 O 492.427 8.02971 -3.47653 0
M  V30 6724 C 491.937 6.89602 -1.41652 0
M  V30 6725 C 492.647 5.59201 -1.75185 0
M  V30 6726 N 492.597 4.58235 -0.662552 0
M  V30 6727 H 495.436 8.65116 -0.777161 0
M  V30 6728 H 495.708 6.90173 -0.474152 0
M  V30 6729 H 494.84 7.66548 -2.79458 0
M  V30 6730 P 490.877 8.03563 -3.84925 0
M  V30 6731 O 490.657 8.85821 -5.0569 0
M  V30 6732 O 490.087 8.41101 -2.65469 0
M  V30 6733 O 490.627 6.4965 -4.18908 0
M  V30 6734 C 491.567 5.81037 -5.05421 0
M  V30 6735 C 490.837 4.78366 -5.89277 0
M  V30 6736 O 490.627 3.58302 -5.08433 0
M  V30 6737 C 489.437 5.17448 -6.36119 0
M  V30 6738 O 489.047 4.45271 -7.53232 0
M  V30 6739 C 488.557 4.74639 -5.19936 0
M  V30 6740 C 489.267 3.49432 -4.70418 0
M  V30 6741 N 489.217 3.31776 -3.22945 0
M  V30 6742 H 492.056 6.54213 -5.71376 0
M  V30 6743 H 492.328 5.30492 -4.44033 0
M  V30 6744 H 491.46 4.55889 -6.76652 0
M  V30 6745 P 487.497 4.23843 -7.83734 0
M  V30 6746 O 487.277 4.19407 -9.29784 0
M  V30 6747 O 486.707 5.24426 -7.09156 0
M  V30 6748 O 487.247 2.7935 -7.20758 0
M  V30 6749 C 488.187 1.7299 -7.50419 0
M  V30 6750 C 487.457 0.406376 -7.57911 0
M  V30 6751 O 487.247 -0.0897726 -6.21935 0
M  V30 6752 C 486.057 0.447224 -8.1878 0
M  V30 6753 O 485.667 -0.825065 -8.71101 0
M  V30 6754 C 485.177 0.783801 -6.99623 0
M  V30 6755 C 485.887 0.0619192 -5.85967 0
M  V30 6756 N 485.837 0.790462 -4.56202 0
M  V30 6757 H 488.676 1.93423 -8.4679 0
M  V30 6758 H 488.948 1.68852 -6.70877 0
M  V30 6759 H 488.08 -0.289041 -8.15388 0
M  V30 6760 H 485.425 -0.927006 -5.72848 0
M  V30 6761 H 485.145 1.86973 -6.82036 0
M  V30 6762 H 484.154 0.403953 -7.13357 0
M  V30 6763 H 485.988 1.20599 -8.97534 0
M  V30 6764 P 484.117 -1.17771 -8.83182 0
M  V30 6765 O 483.897 -2.07206 -9.98732 0
M  V30 6766 O 483.327 0.0743816 -8.81969 0
M  V30 6767 O 483.867 -1.97652 -7.47304 0
M  V30 6768 C 484.807 -3.01133 -7.08783 0
M  V30 6769 C 484.077 -4.12613 -6.37049 0
M  V30 6770 O 483.867 -3.72827 -4.97879 0
M  V30 6771 C 482.677 -4.45085 -6.88694 0
M  V30 6772 O 482.287 -5.7877 -6.5624 0
M  V30 6773 C 481.797 -3.47817 -6.12078 0
M  V30 6774 C 482.507 -3.39414 -4.77697 0
M  V30 6775 N 482.457 -2.04615 -4.15333 0
M  V30 6776 H 485.296 -3.41248 -7.98759 0
M  V30 6777 H 485.568 -2.5837 -6.41742 0
M  V30 6778 H 484.7 -5.02657 -6.42673 0
M  V30 6779 P 480.737 -6.144 -6.45285 0
M  V30 6780 O 480.517 -7.54673 -6.86199 0
M  V30 6781 O 479.947 -5.12391 -7.179 0
M  V30 6782 O 480.487 -5.99158 -4.88404 0
M  V30 6783 C 481.427 -6.60234 -3.96415 0
M  V30 6784 C 480.697 -7.08259 -2.72856 0
M  V30 6785 O 480.487 -5.9427 -1.83651 0
M  V30 6786 C 479.297 -7.64886 -2.9555 0
M  V30 6787 O 478.907 -8.53963 -1.90717 0
M  V30 6788 C 478.417 -6.4116 -2.90739 0
M  V30 6789 C 479.127 -5.55375 -1.86963 0
M  V30 6790 N 479.077 -4.09664 -2.15742 0
M  V30 6791 H 481.916 -7.45574 -4.45629 0
M  V30 6792 H 482.188 -5.86232 -3.67314 0
M  V30 6793 H 481.32 -7.84412 -2.24479 0
M  V30 6794 P 477.357 -8.7635 -1.60911 0
M  V30 6795 O 477.137 -10.1388 -1.11561 0
M  V30 6796 O 476.567 -8.36503 -2.79617 0
M  V30 6797 O 477.107 -7.71806 -0.42951 0
M  V30 6798 C 478.047 -7.67148 0.673689 0
M  V30 6799 C 477.317 -7.33374 1.95559 0
M  V30 6800 O 477.107 -5.88721 2.00726 0
M  V30 6801 C 475.917 -7.92526 2.10483 0
M  V30 6802 O 475.527 -8.02971 3.47653 0
M  V30 6803 C 475.037 -6.89602 1.41652 0
M  V30 6804 C 475.747 -5.59201 1.75185 0
M  V30 6805 N 475.697 -4.58235 0.662552 0
M  V30 6806 H 478.536 -8.65116 0.777161 0
M  V30 6807 H 478.808 -6.90173 0.474152 0
M  V30 6808 H 477.94 -7.66548 2.79458 0
M  V30 6809 P 473.977 -8.03563 3.84925 0
M  V30 6810 O 473.757 -8.85821 5.0569 0
M  V30 6811 O 473.187 -8.41101 2.65469 0
M  V30 6812 O 473.727 -6.4965 4.18908 0
M  V30 6813 C 474.667 -5.81037 5.05421 0
M  V30 6814 C 473.937 -4.78366 5.89277 0
M  V30 6815 O 473.727 -3.58302 5.08433 0
M  V30 6816 C 472.537 -5.17448 6.36119 0
M  V30 6817 O 472.147 -4.45271 7.53232 0
M  V30 6818 C 471.657 -4.74639 5.19936 0
M  V30 6819 C 472.367 -3.49432 4.70418 0
M  V30 6820 N 472.317 -3.31776 3.22945 0
M  V30 6821 C 472.397 -4.27147 2.23315 0
M  V30 6822 N 472.317 -3.78447 1.02186 0
M  V30 6823 C 472.177 -2.41001 1.21732 0
M  V30 6824 C 472.047 -1.36111 0.27694 0
M  V30 6825 N 471.927 -0.113683 0.912949 0
M  V30 6826 C 471.927 0.0846396 2.27943 0
M  V30 6827 N 471.797 1.34737 2.6916 0
M  V30 6828 N 472.057 -0.902521 3.16379 0
M  V30 6829 C 472.177 -2.11937 2.56849 0
M  V30 6830 H 475.156 -6.54213 5.71376 0
M  V30 6831 H 475.428 -5.30492 4.44033 0
M  V30 6832 H 474.56 -4.55889 6.76652 0
M  V30 6833 P 470.597 -4.23843 7.83734 0
M  V30 6834 O 470.377 -4.19407 9.29784 0
M  V30 6835 O 469.807 -5.24426 7.09156 0
M  V30 6836 O 470.347 -2.7935 7.20758 0
M  V30 6837 C 471.287 -1.7299 7.50419 0
M  V30 6838 C 470.557 -0.406376 7.57911 0
M  V30 6839 O 470.347 0.0897726 6.21935 0
M  V30 6840 C 469.157 -0.447224 8.1878 0
M  V30 6841 O 468.767 0.825065 8.71101 0
M  V30 6842 C 468.277 -0.783801 6.99623 0
M  V30 6843 C 468.987 -0.0619192 5.85967 0
M  V30 6844 N 468.937 -0.7859 4.56281 0
M  V30 6845 H 471.776 -1.93423 8.4679 0
M  V30 6846 H 472.048 -1.68181 6.71046 0
M  V30 6847 H 471.18 0.289041 8.15388 0
M  V30 6848 P 467.217 1.17771 8.83182 0
M  V30 6849 O 466.997 2.07206 9.98732 0
M  V30 6850 O 466.427 -0.0743816 8.81969 0
M  V30 6851 O 466.967 1.97652 7.47304 0
M  V30 6852 C 467.907 3.01133 7.08783 0
M  V30 6853 C 467.177 4.12613 6.37049 0
M  V30 6854 O 466.967 3.72827 4.97879 0
M  V30 6855 C 465.777 4.45085 6.88694 0
M  V30 6856 O 465.387 5.7877 6.5624 0
M  V30 6857 C 464.897 3.47817 6.12078 0
M  V30 6858 C 465.607 3.39414 4.77697 0
M  V30 6859 N 465.557 2.04199 4.15538 0
M  V30 6860 H 468.396 3.41248 7.98759 0
M  V30 6861 H 468.668 2.57728 6.42 0
M  V30 6862 H 467.8 5.02657 6.42673 0
M  V30 6863 H 465.145 4.11708 4.08956 0
M  V30 6864 H 464.865 2.49626 6.61679 0
M  V30 6865 H 463.874 3.8662 6.00862 0
M  V30 6866 H 465.708 4.29991 7.97006 0
M  V30 6867 P 463.837 6.144 6.45285 0
M  V30 6868 O 463.617 7.54673 6.86199 0
M  V30 6869 O 463.047 5.12391 7.179 0
M  V30 6870 O 463.587 5.99158 4.88404 0
M  V30 6871 C 464.527 6.60234 3.96415 0
M  V30 6872 C 463.797 7.08259 2.72856 0
M  V30 6873 O 463.587 5.9427 1.83651 0
M  V30 6874 C 462.397 7.64886 2.9555 0
M  V30 6875 O 462.007 8.53963 1.90717 0
M  V30 6876 C 461.517 6.4116 2.90739 0
M  V30 6877 C 462.227 5.55375 1.86963 0
M  V30 6878 N 462.177 4.09664 2.15742 0
M  V30 6879 H 465.016 7.45574 4.45629 0
M  V30 6880 H 465.288 5.86232 3.67314 0
M  V30 6881 H 464.42 7.84412 2.24479 0
M  V30 6882 P 460.457 8.7635 1.60911 0
M  V30 6883 O 460.237 10.1388 1.11561 0
M  V30 6884 O 459.667 8.36503 2.79617 0
M  V30 6885 O 460.207 7.71806 0.42951 0
M  V30 6886 C 461.147 7.67148 -0.673689 0
M  V30 6887 C 460.417 7.33374 -1.95559 0
M  V30 6888 O 460.207 5.88721 -2.00726 0
M  V30 6889 C 459.017 7.92526 -2.10483 0
M  V30 6890 O 458.627 8.02971 -3.47653 0
M  V30 6891 C 458.137 6.89602 -1.41652 0
M  V30 6892 C 458.847 5.59201 -1.75185 0
M  V30 6893 N 458.797 4.58301 -0.657969 0
M  V30 6894 H 461.636 8.65116 -0.777161 0
M  V30 6895 H 461.908 6.9022 -0.46725 0
M  V30 6896 H 461.04 7.66548 -2.79458 0
M  V30 6897 H 458.385 5.16165 -2.65183 0
M  V30 6898 H 458.105 7.06433 -0.329384 0
M  V30 6899 H 457.114 6.90926 -1.82021 0
M  V30 6900 H 458.948 8.90873 -1.62657 0
M  V30 6901 P 457.077 8.03563 -3.84925 0
M  V30 6902 O 456.857 8.85821 -5.0569 0
M  V30 6903 O 456.287 8.41101 -2.65469 0
M  V30 6904 O 456.827 6.4965 -4.18908 0
M  V30 6905 C 457.767 5.81037 -5.05421 0
M  V30 6906 C 457.037 4.78366 -5.89277 0
M  V30 6907 O 456.827 3.58302 -5.08433 0
M  V30 6908 C 455.637 5.17448 -6.36119 0
M  V30 6909 O 455.247 4.45271 -7.53232 0
M  V30 6910 C 454.757 4.74639 -5.19936 0
M  V30 6911 C 455.467 3.49432 -4.70418 0
M  V30 6912 N 455.417 3.31776 -3.22945 0
M  V30 6913 H 458.256 6.54213 -5.71376 0
M  V30 6914 H 458.528 5.30492 -4.44033 0
M  V30 6915 H 457.66 4.55889 -6.76652 0
M  V30 6916 P 453.697 4.23843 -7.83734 0
M  V30 6917 O 453.477 4.19407 -9.29784 0
M  V30 6918 O 452.907 5.24426 -7.09156 0
M  V30 6919 O 453.447 2.7935 -7.20758 0
M  V30 6920 C 454.387 1.7299 -7.50419 0
M  V30 6921 C 453.657 0.406376 -7.57911 0
M  V30 6922 O 453.447 -0.0897726 -6.21935 0
M  V30 6923 C 452.257 0.447224 -8.1878 0
M  V30 6924 O 451.867 -0.825065 -8.71101 0
M  V30 6925 C 451.377 0.783801 -6.99623 0
M  V30 6926 C 452.087 0.0619192 -5.85967 0
M  V30 6927 N 452.037 0.790462 -4.56202 0
M  V30 6928 H 454.876 1.93423 -8.4679 0
M  V30 6929 H 455.148 1.68852 -6.70877 0
M  V30 6930 H 454.28 -0.289041 -8.15388 0
M  V30 6931 H 451.625 -0.927006 -5.72848 0
M  V30 6932 H 451.345 1.86973 -6.82036 0
M  V30 6933 H 450.354 0.403953 -7.13357 0
M  V30 6934 H 452.188 1.20599 -8.97534 0
M  V30 6935 P 450.317 -1.17771 -8.83182 0
M  V30 6936 O 450.097 -2.07206 -9.98732 0
M  V30 6937 O 449.527 0.0743816 -8.81969 0
M  V30 6938 O 450.067 -1.97652 -7.47304 0
M  V30 6939 C 451.007 -3.01133 -7.08783 0
M  V30 6940 C 450.277 -4.12613 -6.37049 0
M  V30 6941 O 450.067 -3.72827 -4.97879 0
M  V30 6942 C 448.877 -4.45085 -6.88694 0
M  V30 6943 O 448.487 -5.7877 -6.5624 0
M  V30 6944 C 447.997 -3.47817 -6.12078 0
M  V30 6945 C 448.707 -3.39414 -4.77697 0
M  V30 6946 N 448.657 -2.04615 -4.15333 0
M  V30 6947 H 451.496 -3.41248 -7.98759 0
M  V30 6948 H 451.768 -2.5837 -6.41742 0
M  V30 6949 H 450.9 -5.02657 -6.42673 0
M  V30 6950 P 446.937 -6.144 -6.45285 0
M  V30 6951 O 446.717 -7.54673 -6.86199 0
M  V30 6952 O 446.147 -5.12391 -7.179 0
M  V30 6953 O 446.687 -5.99158 -4.88404 0
M  V30 6954 C 447.627 -6.60234 -3.96415 0
M  V30 6955 C 446.897 -7.08259 -2.72856 0
M  V30 6956 O 446.687 -5.9427 -1.83651 0
M  V30 6957 C 445.497 -7.64886 -2.9555 0
M  V30 6958 O 445.107 -8.53963 -1.90717 0
M  V30 6959 C 444.617 -6.4116 -2.90739 0
M  V30 6960 C 445.327 -5.55375 -1.86963 0
M  V30 6961 N 445.277 -4.09664 -2.15742 0
M  V30 6962 H 448.116 -7.45574 -4.45629 0
M  V30 6963 H 448.388 -5.86232 -3.67314 0
M  V30 6964 H 447.52 -7.84412 -2.24479 0
M  V30 6965 P 443.557 -8.7635 -1.60911 0
M  V30 6966 O 443.337 -10.1388 -1.11561 0
M  V30 6967 O 442.767 -8.36503 -2.79617 0
M  V30 6968 O 443.307 -7.71806 -0.42951 0
M  V30 6969 C 444.247 -7.67148 0.673689 0
M  V30 6970 C 443.517 -7.33374 1.95559 0
M  V30 6971 O 443.307 -5.88721 2.00726 0
M  V30 6972 C 442.117 -7.92526 2.10483 0
M  V30 6973 O 441.727 -8.02971 3.47653 0
M  V30 6974 C 441.237 -6.89602 1.41652 0
M  V30 6975 C 441.947 -5.59201 1.75185 0
M  V30 6976 N 441.897 -4.58301 0.657969 0
M  V30 6977 C 441.977 -4.79019 -0.692603 0
M  V30 6978 N 441.907 -3.69736 -1.38998 0
M  V30 6979 C 441.757 -2.70474 -0.438135 0
M  V30 6980 C 441.627 -1.30327 -0.538142 0
M  V30 6981 N 441.617 -0.64304 -1.69192 0
M  V30 6982 N 441.507 -0.611027 0.605183 0
M  V30 6983 C 441.517 -1.27002 1.75953 0
M  V30 6984 N 441.637 -2.56038 1.98546 0
M  V30 6985 C 441.757 -3.22681 0.822541 0
M  V30 6986 H 444.736 -8.65116 0.777161 0
M  V30 6987 H 445.008 -6.9022 0.46725 0
M  V30 6988 H 444.14 -7.66548 2.79458 0
M  V30 6989 H 441.485 -5.16165 2.65183 0
M  V30 6990 H 441.205 -7.06433 0.329384 0
M  V30 6991 H 440.214 -6.90926 1.82021 0
M  V30 6992 H 442.048 -8.90873 1.62657 0
M  V30 6993 H 442.089 -5.77785 -1.13874 0
M  V30 6994 H 441.708 -1.15585 -2.57991 0
M  V30 6995 H 441.519 0.382989 -1.69835 0
M  V30 6996 H 441.411 -0.653331 2.64449 0
M  V30 6997 P 440.177 -8.03563 3.84925 0
M  V30 6998 O 439.957 -8.85821 5.0569 0
M  V30 6999 O 439.387 -8.41101 2.65469 0
M  V30 7000 O 439.927 -6.4965 4.18908 0
M  V30 7001 C 440.867 -5.80886 5.05289 0
M  V30 7002 C 440.137 -4.78366 5.89277 0
M  V30 7003 O 439.927 -3.58302 5.08433 0
M  V30 7004 C 438.737 -5.16748 6.36559 0
M  V30 7005 O 438.347 -4.45271 7.53232 0
M  V30 7006 C 437.857 -4.74572 5.19863 0
M  V30 7007 C 438.567 -3.49373 4.70338 0
M  V30 7008 N 438.517 -3.31704 3.22876 0
M  V30 7009 C 438.367 -2.03326 2.74871 0
M  V30 7010 O 438.277 -1.06486 3.48076 0
M  V30 7011 N 438.327 -1.91838 1.37456 0
M  V30 7012 C 438.417 -2.94295 0.462035 0
M  V30 7013 C 438.567 -4.25064 1.05249 0
M  V30 7014 C 438.617 -4.40214 2.39192 0
M  V30 7015 H 441.358 -6.54063 5.71245 0
M  V30 7016 H 441.627 -5.30339 4.43905 0
M  V30 7017 H 440.76 -4.55889 6.76652 0
M  V30 7018 H 438.105 -2.6167 5.17842 0
M  V30 7019 H 437.826 -5.52155 4.41878 0
M  V30 7020 H 436.834 -4.51918 5.53297 0
M  V30 7021 H 438.668 -6.25055 6.55162 0
M  V30 7022 H 438.739 -5.39798 2.81523 0
M  V30 7023 P 436.797 -4.23843 7.83734 0
M  V30 7024 O 436.577 -4.19407 9.29784 0
M  V30 7025 O 436.007 -5.24426 7.09156 0
M  V30 7026 O 436.547 -2.7935 7.20758 0
M  V30 7027 C 437.487 -1.7299 7.50419 0
M  V30 7028 C 436.757 -0.406376 7.57911 0
M  V30 7029 O 436.547 0.0897726 6.21935 0
M  V30 7030 C 435.357 -0.447224 8.1878 0
M  V30 7031 O 434.967 0.825065 8.71101 0
M  V30 7032 C 434.477 -0.783801 6.99623 0
M  V30 7033 C 435.187 -0.0619192 5.85967 0
M  V30 7034 N 435.137 -0.790462 4.56202 0
M  V30 7035 H 437.976 -1.93423 8.4679 0
M  V30 7036 H 438.248 -1.68852 6.70877 0
M  V30 7037 H 437.38 0.289041 8.15388 0
M  V30 7038 H 434.725 0.927006 5.72848 0
M  V30 7039 H 434.445 -1.86973 6.82036 0
M  V30 7040 H 433.454 -0.403953 7.13357 0
M  V30 7041 H 435.288 -1.20599 8.97534 0
M  V30 7042 P 433.417 1.17771 8.83182 0
M  V30 7043 O 433.197 2.07206 9.98732 0
M  V30 7044 O 432.627 -0.0743816 8.81969 0
M  V30 7045 O 433.167 1.97678 7.474 0
M  V30 7046 C 434.107 3.01133 7.08783 0
M  V30 7047 C 433.377 4.1203 6.37546 0
M  V30 7048 O 433.167 3.72887 4.9796 0
M  V30 7049 C 431.977 4.45085 6.88694 0
M  V30 7050 O 431.587 5.78836 6.56315 0
M  V30 7051 C 431.097 3.47817 6.12078 0
M  V30 7052 C 431.807 3.39414 4.77697 0
M  V30 7053 N 431.757 2.04615 4.15333 0
M  V30 7054 C 431.607 1.96929 2.77162 0
M  V30 7055 O 431.517 3.02017 2.12006 0
M  V30 7056 N 431.557 0.55485 2.24237 0
M  V30 7057 C 431.657 -0.367808 2.9169 0
M  V30 7058 N 431.607 -1.53426 2.29427 0
M  V30 7059 C 431.807 -0.319148 4.33828 0
M  V30 7060 C 431.857 0.920672 4.90433 0
M  V30 7061 H 434.597 3.41209 7.98667 0
M  V30 7062 H 434.867 2.5837 6.41742 0
M  V30 7063 H 434 5.02718 6.42752 0
M  V30 7064 H 431.345 4.11779 4.09026 0
M  V30 7065 H 431.065 2.49661 6.61772 0
M  V30 7066 H 430.074 3.86674 6.00946 0
M  V30 7067 H 431.908 4.29991 7.97006 0
M  V30 7068 H 431.98 1.00589 5.98303 0
M  V30 7069 H 431.878 -1.22639 4.93799 0
M  V30 7070 H 431.49 -1.56819 1.27167 0
M  V30 7071 H 431.686 -2.41062 2.83063 0
M  V30 7072 P 430.037 6.144 6.45285 0
M  V30 7073 O 429.817 7.54673 6.86199 0
M  V30 7074 O 429.247 5.12391 7.179 0
M  V30 7075 O 429.787 5.99158 4.88404 0
M  V30 7076 C 430.727 6.60234 3.96415 0
M  V30 7077 C 429.997 7.08259 2.72856 0
M  V30 7078 O 429.787 5.9427 1.83651 0
M  V30 7079 C 428.597 7.64886 2.9555 0
M  V30 7080 O 428.207 8.53963 1.90717 0
M  V30 7081 C 427.717 6.4116 2.90739 0
M  V30 7082 C 428.427 5.55375 1.86963 0
M  V30 7083 N 428.377 4.09664 2.15742 0
M  V30 7084 H 431.216 7.45574 4.45629 0
M  V30 7085 H 431.488 5.86232 3.67314 0
M  V30 7086 H 430.62 7.84412 2.24479 0
M  V30 7087 P 426.657 8.7635 1.60911 0
M  V30 7088 O 426.437 10.1388 1.11561 0
M  V30 7089 O 425.867 8.36503 2.79617 0
M  V30 7090 O 426.407 7.71806 0.42951 0
M  V30 7091 C 427.347 7.67148 -0.673689 0
M  V30 7092 C 426.617 7.33374 -1.95559 0
M  V30 7093 O 426.407 5.88721 -2.00726 0
M  V30 7094 C 425.217 7.92526 -2.10483 0
M  V30 7095 O 424.827 8.02971 -3.47653 0
M  V30 7096 C 424.337 6.89602 -1.41652 0
M  V30 7097 C 425.047 5.59201 -1.75185 0
M  V30 7098 N 424.997 4.58235 -0.662552 0
M  V30 7099 H 427.836 8.65116 -0.777161 0
M  V30 7100 H 428.108 6.90173 -0.474152 0
M  V30 7101 H 427.24 7.66548 -2.79458 0
M  V30 7102 P 423.278 8.03563 -3.84925 0
M  V30 7103 O 423.058 8.85821 -5.0569 0
M  V30 7104 O 422.488 8.41101 -2.65469 0
M  V30 7105 O 423.028 6.4965 -4.18908 0
M  V30 7106 C 423.968 5.81037 -5.05421 0
M  V30 7107 C 423.238 4.78366 -5.89277 0
M  V30 7108 O 423.028 3.58302 -5.08433 0
M  V30 7109 C 421.838 5.17448 -6.36119 0
M  V30 7110 O 421.448 4.45271 -7.53232 0
M  V30 7111 C 420.958 4.74639 -5.19936 0
M  V30 7112 C 421.668 3.49432 -4.70418 0
M  V30 7113 N 421.618 3.32099 -3.22613 0
M  V30 7114 C 421.698 4.28245 -2.25527 0
M  V30 7115 N 421.628 3.80823 -1.04874 0
M  V30 7116 C 421.478 2.44571 -1.23535 0
M  V30 7117 C 421.348 1.37068 -0.330675 0
M  V30 7118 N 421.338 1.51472 0.990824 0
M  V30 7119 N 421.228 0.138614 -0.848756 0
M  V30 7120 C 421.238 -0.00675923 -2.16999 0
M  V30 7121 N 421.358 0.904372 -3.11122 0
M  V30 7122 C 421.478 2.12707 -2.56212 0
M  V30 7123 H 424.457 6.54213 -5.71376 0
M  V30 7124 H 424.729 5.30936 -4.43503 0
M  V30 7125 H 423.861 4.55889 -6.76652 0
M  V30 7126 H 421.206 2.61715 -5.17932 0
M  V30 7127 H 420.926 5.52155 -4.41878 0
M  V30 7128 H 419.935 4.51981 -5.53374 0
M  V30 7129 H 421.769 6.25124 -6.55234 0
M  V30 7130 H 421.81 5.34372 -2.47488 0
M  V30 7131 H 421.429 2.45153 1.4078 0
M  V30 7132 H 421.24 0.688422 1.59911 0
M  V30 7133 H 421.132 -1.02584 -2.52346 0
M  V30 7134 P 419.898 4.23843 -7.83734 0
M  V30 7135 O 419.678 4.19407 -9.29784 0
M  V30 7136 O 419.108 5.24426 -7.09156 0
M  V30 7137 O 419.648 2.7935 -7.20758 0
M  V30 7138 C 420.588 1.7299 -7.50419 0
M  V30 7139 C 419.858 0.406376 -7.57911 0
M  V30 7140 O 419.648 -0.0897726 -6.21935 0
M  V30 7141 C 418.458 0.447224 -8.1878 0
M  V30 7142 O 418.068 -0.825065 -8.71101 0
M  V30 7143 C 417.578 0.783801 -6.99623 0
M  V30 7144 C 418.288 0.0619192 -5.85967 0
M  V30 7145 N 418.238 0.790462 -4.56202 0
M  V30 7146 C 418.318 2.13895 -4.34171 0
M  V30 7147 N 418.248 2.46449 -3.08687 0
M  V30 7148 C 418.098 1.2525 -2.43697 0
M  V30 7149 C 417.968 0.914535 -1.07318 0
M  V30 7150 N 417.958 1.80782 -0.0887348 0
M  V30 7151 N 417.848 -0.386745 -0.768133 0
M  V30 7152 C 417.858 -1.28096 -1.75159 0
M  V30 7153 N 417.978 -1.09708 -3.04861 0
M  V30 7154 C 418.098 0.214857 -3.32306 0
M  V30 7155 H 421.077 1.93423 -8.4679 0
M  V30 7156 H 421.349 1.68852 -6.70877 0
M  V30 7157 H 420.481 -0.289041 -8.15388 0
M  V30 7158 H 417.826 -0.927006 -5.72848 0
M  V30 7159 H 417.546 1.86973 -6.82036 0
M  V30 7160 H 416.555 0.403953 -7.13357 0
M  V30 7161 H 418.389 1.20599 -8.97534 0
M  V30 7162 H 418.43 2.86846 -5.14318 0
M  V30 7163 H 418.049 2.81082 -0.302037 0
M  V30 7164 H 417.86 1.49688 0.889064 0
M  V30 7165 H 417.752 -2.31317 -1.43855 0
M  V30 7166 P 416.518 -1.17771 -8.83182 0
M  V30 7167 O 416.298 -2.07206 -9.98732 0
M  V30 7168 O 415.728 0.0743816 -8.81969 0
M  V30 7169 O 416.268 -1.97652 -7.47304 0
M  V30 7170 C 417.208 -3.01133 -7.08783 0
M  V30 7171 C 416.478 -4.12613 -6.37049 0
M  V30 7172 O 416.268 -3.72827 -4.97879 0
M  V30 7173 C 415.078 -4.45085 -6.88694 0
M  V30 7174 O 414.688 -5.7877 -6.5624 0
M  V30 7175 C 414.198 -3.47817 -6.12078 0
M  V30 7176 C 414.908 -3.39414 -4.77697 0
M  V30 7177 N 414.858 -2.04615 -4.15333 0
M  V30 7178 H 417.697 -3.41248 -7.98759 0
M  V30 7179 H 417.969 -2.5837 -6.41742 0
M  V30 7180 H 417.101 -5.02657 -6.42673 0
M  V30 7181 P 413.138 -6.144 -6.45285 0
M  V30 7182 O 412.918 -7.54673 -6.86199 0
M  V30 7183 O 412.348 -5.12391 -7.179 0
M  V30 7184 O 412.888 -5.99158 -4.88404 0
M  V30 7185 C 413.828 -6.60234 -3.96415 0
M  V30 7186 C 413.098 -7.08259 -2.72856 0
M  V30 7187 O 412.888 -5.9427 -1.83651 0
M  V30 7188 C 411.698 -7.64886 -2.9555 0
M  V30 7189 O 411.308 -8.53963 -1.90717 0
M  V30 7190 C 410.818 -6.4116 -2.90739 0
M  V30 7191 C 411.528 -5.55375 -1.86963 0
M  V30 7192 N 411.478 -4.09664 -2.15742 0
M  V30 7193 H 414.317 -7.45574 -4.45629 0
M  V30 7194 H 414.589 -5.86232 -3.67314 0
M  V30 7195 H 413.721 -7.84412 -2.24479 0
M  V30 7196 P 409.758 -8.7635 -1.60911 0
M  V30 7197 O 409.538 -10.1388 -1.11561 0
M  V30 7198 O 408.968 -8.36503 -2.79617 0
M  V30 7199 O 409.508 -7.71906 -0.429565 0
M  V30 7200 C 410.448 -7.67148 0.673689 0
M  V30 7201 C 409.718 -7.33666 1.94851 0
M  V30 7202 O 409.508 -5.88816 2.00759 0
M  V30 7203 C 408.318 -7.92526 2.10483 0
M  V30 7204 O 407.928 -8.03063 3.47693 0
M  V30 7205 C 407.438 -6.89602 1.41652 0
M  V30 7206 C 408.148 -5.59201 1.75185 0
M  V30 7207 N 408.098 -4.58235 0.662552 0
M  V30 7208 C 407.948 -3.24451 1.01643 0
M  V30 7209 O 407.858 -2.94958 2.21722 0
M  V30 7210 N 407.898 -2.30408 -0.165238 0
M  V30 7211 C 407.998 -2.66048 -1.25118 0
M  V30 7212 N 407.948 -1.70787 -2.16813 0
M  V30 7213 C 408.148 -4.02732 -1.64413 0
M  V30 7214 C 408.198 -4.9488 -0.63991 0
M  V30 7215 H 410.938 -8.65017 0.777072 0
M  V30 7216 H 411.208 -6.90173 0.474152 0
M  V30 7217 H 410.341 -7.66642 2.79492 0
M  V30 7218 H 407.686 -5.16254 2.65229 0
M  V30 7219 H 407.406 -7.06532 0.329431 0
M  V30 7220 H 406.415 -6.91023 1.82047 0
M  V30 7221 H 408.249 -8.90873 1.62657 0
M  V30 7222 H 408.321 -6.00104 -0.892197 0
M  V30 7223 H 408.219 -4.31733 -2.69229 0
M  V30 7224 H 407.831 -0.724835 -1.8844 0
M  V30 7225 H 408.027 -1.94716 -3.16734 0
M  V30 7226 P 406.378 -8.03563 3.84925 0
M  V30 7227 O 406.158 -8.85821 5.0569 0
M  V30 7228 O 405.588 -8.41101 2.65469 0
M  V30 7229 O 406.128 -6.4965 4.18908 0
M  V30 7230 C 407.068 -5.81037 5.05421 0
M  V30 7231 C 406.338 -4.78366 5.89277 0
M  V30 7232 O 406.128 -3.58302 5.08433 0
M  V30 7233 C 404.938 -5.17448 6.36119 0
M  V30 7234 O 404.548 -4.45271 7.53232 0
M  V30 7235 C 404.058 -4.74639 5.19936 0
M  V30 7236 C 404.768 -3.49432 4.70418 0
M  V30 7237 N 404.718 -3.32099 3.22613 0
M  V30 7238 H 407.557 -6.54213 5.71376 0
M  V30 7239 H 407.829 -5.30936 4.43503 0
M  V30 7240 H 406.961 -4.55889 6.76652 0
M  V30 7241 H 404.306 -2.61715 5.17932 0
M  V30 7242 H 404.026 -5.52155 4.41878 0
M  V30 7243 H 403.035 -4.51981 5.53374 0
M  V30 7244 H 404.869 -6.25124 6.55234 0
M  V30 7245 P 402.998 -4.23843 7.83734 0
M  V30 7246 O 402.778 -4.19407 9.29784 0
M  V30 7247 O 402.208 -5.24426 7.09156 0
M  V30 7248 O 402.748 -2.7935 7.20758 0
M  V30 7249 C 403.688 -1.7299 7.50419 0
M  V30 7250 C 402.958 -0.406376 7.57911 0
M  V30 7251 O 402.748 0.0897726 6.21935 0
M  V30 7252 C 401.558 -0.447224 8.1878 0
M  V30 7253 O 401.168 0.825065 8.71101 0
M  V30 7254 C 400.678 -0.783801 6.99623 0
M  V30 7255 C 401.388 -0.0619192 5.85967 0
M  V30 7256 N 401.338 -0.790462 4.56202 0
M  V30 7257 H 404.177 -1.93423 8.4679 0
M  V30 7258 H 404.449 -1.68852 6.70877 0
M  V30 7259 H 403.581 0.289041 8.15388 0
M  V30 7260 H 400.926 0.927006 5.72848 0
M  V30 7261 H 400.646 -1.86973 6.82036 0
M  V30 7262 H 399.655 -0.403953 7.13357 0
M  V30 7263 H 401.489 -1.20599 8.97534 0
M  V30 7264 P 399.618 1.17771 8.83182 0
M  V30 7265 O 399.398 2.07206 9.98732 0
M  V30 7266 O 398.828 -0.0743816 8.81969 0
M  V30 7267 O 399.368 1.97652 7.47304 0
M  V30 7268 C 400.308 3.01133 7.08783 0
M  V30 7269 C 399.578 4.12613 6.37049 0
M  V30 7270 O 399.368 3.72827 4.97879 0
M  V30 7271 C 398.178 4.45085 6.88694 0
M  V30 7272 O 397.788 5.7877 6.5624 0
M  V30 7273 C 397.298 3.47817 6.12078 0
M  V30 7274 C 398.008 3.39414 4.77697 0
M  V30 7275 N 397.958 2.04615 4.15333 0
M  V30 7276 H 400.797 3.41248 7.98759 0
M  V30 7277 H 401.069 2.5837 6.41742 0
M  V30 7278 H 400.201 5.02657 6.42673 0
M  V30 7279 P 396.238 6.144 6.45285 0
M  V30 7280 O 396.018 7.54673 6.86199 0
M  V30 7281 O 395.448 5.12391 7.179 0
M  V30 7282 O 395.988 5.99158 4.88404 0
M  V30 7283 C 396.928 6.60234 3.96415 0
M  V30 7284 C 396.198 7.08259 2.72856 0
M  V30 7285 O 395.988 5.9427 1.83651 0
M  V30 7286 C 394.798 7.64886 2.9555 0
M  V30 7287 O 394.408 8.53963 1.90717 0
M  V30 7288 C 393.918 6.4116 2.90739 0
M  V30 7289 C 394.628 5.55375 1.86963 0
M  V30 7290 N 394.578 4.09664 2.15742 0
M  V30 7291 H 397.417 7.45574 4.45629 0
M  V30 7292 H 397.689 5.86232 3.67314 0
M  V30 7293 H 396.821 7.84412 2.24479 0
M  V30 7294 P 392.858 8.7635 1.60911 0
M  V30 7295 O 392.638 10.1388 1.11561 0
M  V30 7296 O 392.068 8.36503 2.79617 0
M  V30 7297 O 392.608 7.71806 0.42951 0
M  V30 7298 C 393.548 7.66948 -0.673514 0
M  V30 7299 C 392.818 7.33374 -1.95559 0
M  V30 7300 O 392.608 5.88721 -2.00726 0
M  V30 7301 C 391.418 7.92218 -2.1125 0
M  V30 7302 O 391.028 8.02971 -3.47653 0
M  V30 7303 C 390.538 6.89504 -1.41631 0
M  V30 7304 C 391.248 5.59106 -1.75155 0
M  V30 7305 N 391.198 4.58136 -0.662409 0
M  V30 7306 C 391.048 3.26059 -1.02863 0
M  V30 7307 O 390.958 2.90743 -2.19009 0
M  V30 7308 N 391.008 2.35995 0.0155585 0
M  V30 7309 C 391.098 2.65248 1.35603 0
M  V30 7310 C 391.248 4.05747 1.64698 0
M  V30 7311 C 391.298 4.96734 0.652411 0
M  V30 7312 H 394.039 8.64917 -0.776982 0
M  V30 7313 H 394.308 6.89974 -0.474015 0
M  V30 7314 H 393.441 7.66548 -2.79458 0
M  V30 7315 H 390.786 5.16076 -2.65138 0
M  V30 7316 H 390.507 7.06433 -0.329384 0
M  V30 7317 H 389.515 6.90829 -1.81996 0
M  V30 7318 H 391.349 8.90774 -1.62639 0
M  V30 7319 H 391.42 6.02181 0.895285 0
M  V30 7320 P 389.478 8.03563 -3.84925 0
M  V30 7321 O 389.258 8.85821 -5.0569 0
M  V30 7322 O 388.688 8.41101 -2.65469 0
M  V30 7323 O 389.228 6.4965 -4.18908 0
M  V30 7324 C 390.168 5.81037 -5.05421 0
M  V30 7325 C 389.438 4.78366 -5.89277 0
M  V30 7326 O 389.228 3.58302 -5.08433 0
M  V30 7327 C 388.038 5.17448 -6.36119 0
M  V30 7328 O 387.648 4.45271 -7.53232 0
M  V30 7329 C 387.158 4.74639 -5.19936 0
M  V30 7330 C 387.868 3.49432 -4.70418 0
M  V30 7331 N 387.818 3.31776 -3.22945 0
M  V30 7332 H 390.657 6.54213 -5.71376 0
M  V30 7333 H 390.929 5.30492 -4.44033 0
M  V30 7334 H 390.061 4.55889 -6.76652 0
M  V30 7335 P 386.098 4.23843 -7.83734 0
M  V30 7336 O 385.878 4.19407 -9.29784 0
M  V30 7337 O 385.308 5.24426 -7.09156 0
M  V30 7338 O 385.848 2.7935 -7.20758 0
M  V30 7339 C 386.788 1.7299 -7.50419 0
M  V30 7340 C 386.058 0.406376 -7.57911 0
M  V30 7341 O 385.848 -0.0897726 -6.21935 0
M  V30 7342 C 384.658 0.447224 -8.1878 0
M  V30 7343 O 384.268 -0.825065 -8.71101 0
M  V30 7344 C 383.778 0.783801 -6.99623 0
M  V30 7345 C 384.488 0.0619192 -5.85967 0
M  V30 7346 N 384.438 0.7859 -4.56281 0
M  V30 7347 H 387.277 1.93423 -8.4679 0
M  V30 7348 H 387.549 1.68181 -6.71046 0
M  V30 7349 H 386.681 -0.289041 -8.15388 0
M  V30 7350 P 382.718 -1.17771 -8.83182 0
M  V30 7351 O 382.498 -2.07206 -9.98732 0
M  V30 7352 O 381.928 0.0743816 -8.81969 0
M  V30 7353 O 382.468 -1.97652 -7.47304 0
M  V30 7354 C 383.408 -3.01133 -7.08783 0
M  V30 7355 C 382.678 -4.12613 -6.37049 0
M  V30 7356 O 382.468 -3.72827 -4.97879 0
M  V30 7357 C 381.278 -4.45085 -6.88694 0
M  V30 7358 O 380.888 -5.7877 -6.5624 0
M  V30 7359 C 380.398 -3.47817 -6.12078 0
M  V30 7360 C 381.108 -3.39414 -4.77697 0
M  V30 7361 N 381.058 -2.04615 -4.15333 0
M  V30 7362 H 383.897 -3.41248 -7.98759 0
M  V30 7363 H 384.169 -2.5837 -6.41742 0
M  V30 7364 H 383.301 -5.02657 -6.42673 0
M  V30 7365 P 379.338 -6.144 -6.45285 0
M  V30 7366 O 379.118 -7.54673 -6.86199 0
M  V30 7367 O 378.548 -5.12391 -7.179 0
M  V30 7368 O 379.088 -5.99158 -4.88404 0
M  V30 7369 C 380.028 -6.60234 -3.96415 0
M  V30 7370 C 379.298 -7.08259 -2.72856 0
M  V30 7371 O 379.088 -5.9427 -1.83651 0
M  V30 7372 C 377.898 -7.64886 -2.9555 0
M  V30 7373 O 377.508 -8.53963 -1.90717 0
M  V30 7374 C 377.018 -6.4116 -2.90739 0
M  V30 7375 C 377.728 -5.55375 -1.86963 0
M  V30 7376 N 377.678 -4.09448 -2.16152 0
M  V30 7377 H 380.517 -7.45574 -4.45629 0
M  V30 7378 H 380.789 -5.85864 -3.679 0
M  V30 7379 H 379.921 -7.84412 -2.24479 0
M  V30 7380 H 377.266 -5.73457 -0.888562 0
M  V30 7381 H 376.986 -5.90877 -3.88583 0
M  V30 7382 H 375.995 -6.6596 -2.58858 0
M  V30 7383 H 377.829 -8.16339 -3.92049 0
M  V30 7384 P 375.958 -8.7635 -1.60911 0
M  V30 7385 O 375.738 -10.1388 -1.11561 0
M  V30 7386 O 375.168 -8.36503 -2.79617 0
M  V30 7387 O 375.708 -7.71806 -0.42951 0
M  V30 7388 C 376.648 -7.67148 0.673689 0
M  V30 7389 C 375.918 -7.33374 1.95559 0
M  V30 7390 O 375.708 -5.88721 2.00726 0
M  V30 7391 C 374.518 -7.92526 2.10483 0
M  V30 7392 O 374.128 -8.02971 3.47653 0
M  V30 7393 C 373.638 -6.89602 1.41652 0
M  V30 7394 C 374.348 -5.59201 1.75185 0
M  V30 7395 N 374.298 -4.58235 0.662552 0
M  V30 7396 H 377.137 -8.65116 0.777161 0
M  V30 7397 H 377.409 -6.90173 0.474152 0
M  V30 7398 H 376.541 -7.66548 2.79458 0
M  V30 7399 P 372.578 -8.03563 3.84925 0
M  V30 7400 O 372.358 -8.85821 5.0569 0
M  V30 7401 O 371.788 -8.41101 2.65469 0
M  V30 7402 O 372.328 -6.49734 4.18962 0
M  V30 7403 C 373.268 -5.81037 5.05421 0
M  V30 7404 C 372.538 -4.79018 5.88876 0
M  V30 7405 O 372.328 -3.58359 5.08515 0
M  V30 7406 C 371.138 -5.17448 6.36119 0
M  V30 7407 O 370.748 -4.45322 7.53318 0
M  V30 7408 C 370.258 -4.74639 5.19936 0
M  V30 7409 C 370.968 -3.49432 4.70418 0
M  V30 7410 N 370.918 -3.31776 3.22945 0
M  V30 7411 C 370.768 -2.02742 2.72939 0
M  V30 7412 O 370.678 -1.08301 3.52749 0
M  V30 7413 N 370.718 -1.96117 1.22063 0
M  V30 7414 C 370.818 -2.8878 0.551566 0
M  V30 7415 N 370.768 -2.65609 -0.750198 0
M  V30 7416 C 370.968 -4.22457 1.03707 0
M  V30 7417 C 371.018 -4.37979 2.39113 0
M  V30 7418 H 373.758 -6.54138 5.7131 0
M  V30 7419 H 374.028 -5.30492 4.44033 0
M  V30 7420 H 373.161 -4.55945 6.76735 0
M  V30 7421 H 370.506 -2.6176 5.18021 0
M  V30 7422 H 370.226 -5.52233 4.41941 0
M  V30 7423 H 369.235 -4.52045 5.53452 0
M  V30 7424 H 371.069 -6.25124 6.55234 0
M  V30 7425 H 371.141 -5.37936 2.80552 0
M  V30 7426 H 371.039 -5.07528 0.359553 0
M  V30 7427 H 370.651 -1.69403 -1.09847 0
M  V30 7428 H 370.847 -3.43701 -1.41792 0
M  V30 7429 P 369.198 -4.23843 7.83734 0
M  V30 7430 O 368.978 -4.19407 9.29784 0
M  V30 7431 O 368.408 -5.24426 7.09156 0
M  V30 7432 O 368.948 -2.7935 7.20758 0
M  V30 7433 C 369.888 -1.7299 7.50419 0
M  V30 7434 C 369.158 -0.406376 7.57911 0
M  V30 7435 O 368.948 0.0897726 6.21935 0
M  V30 7436 C 367.758 -0.447224 8.1878 0
M  V30 7437 O 367.368 0.825065 8.71101 0
M  V30 7438 C 366.878 -0.783801 6.99623 0
M  V30 7439 C 367.588 -0.0619192 5.85967 0
M  V30 7440 N 367.538 -0.7859 4.56281 0
M  V30 7441 H 370.377 -1.93423 8.4679 0
M  V30 7442 H 370.649 -1.68181 6.71046 0
M  V30 7443 H 369.781 0.289041 8.15388 0
M  V30 7444 P 365.818 1.17771 8.83182 0
M  V30 7445 O 365.598 2.07206 9.98732 0
M  V30 7446 O 365.028 -0.0743816 8.81969 0
M  V30 7447 O 365.568 1.97652 7.47304 0
M  V30 7448 C 366.508 3.01133 7.08783 0
M  V30 7449 C 365.778 4.12613 6.37049 0
M  V30 7450 O 365.568 3.72827 4.97879 0
M  V30 7451 C 364.378 4.45085 6.88694 0
M  V30 7452 O 363.988 5.7877 6.5624 0
M  V30 7453 C 363.498 3.47817 6.12078 0
M  V30 7454 C 364.208 3.39414 4.77697 0
M  V30 7455 N 364.158 2.04615 4.15333 0
M  V30 7456 H 366.997 3.41248 7.98759 0
M  V30 7457 H 367.269 2.5837 6.41742 0
M  V30 7458 H 366.401 5.02657 6.42673 0
M  V30 7459 P 362.438 6.144 6.45285 0
M  V30 7460 O 362.218 7.54673 6.86199 0
M  V30 7461 O 361.648 5.12391 7.179 0
M  V30 7462 O 362.188 5.99158 4.88404 0
M  V30 7463 C 363.128 6.60234 3.96415 0
M  V30 7464 C 362.398 7.08259 2.72856 0
M  V30 7465 O 362.188 5.9427 1.83651 0
M  V30 7466 C 360.998 7.64886 2.9555 0
M  V30 7467 O 360.608 8.53963 1.90717 0
M  V30 7468 C 360.118 6.4116 2.90739 0
M  V30 7469 C 360.828 5.55375 1.86963 0
M  V30 7470 N 360.778 4.09664 2.15742 0
M  V30 7471 H 363.617 7.45574 4.45629 0
M  V30 7472 H 363.889 5.86232 3.67314 0
M  V30 7473 H 363.021 7.84412 2.24479 0
M  V30 7474 P 359.058 8.7635 1.60911 0
M  V30 7475 O 358.838 10.1388 1.11561 0
M  V30 7476 O 358.268 8.36503 2.79617 0
M  V30 7477 O 358.808 7.71806 0.42951 0
M  V30 7478 C 359.748 7.67148 -0.673689 0
M  V30 7479 C 359.018 7.33374 -1.95559 0
M  V30 7480 O 358.808 5.88721 -2.00726 0
M  V30 7481 C 357.618 7.92526 -2.10483 0
M  V30 7482 O 357.228 8.02971 -3.47653 0
M  V30 7483 C 356.738 6.89602 -1.41652 0
M  V30 7484 C 357.448 5.59201 -1.75185 0
M  V30 7485 N 357.398 4.58235 -0.662552 0
M  V30 7486 H 360.237 8.65116 -0.777161 0
M  V30 7487 H 360.509 6.90173 -0.474152 0
M  V30 7488 H 359.641 7.66548 -2.79458 0
M  V30 7489 P 355.678 8.03563 -3.84925 0
M  V30 7490 O 355.458 8.85821 -5.0569 0
M  V30 7491 O 354.888 8.41101 -2.65469 0
M  V30 7492 O 355.428 6.4965 -4.18908 0
M  V30 7493 C 356.368 5.81037 -5.05421 0
M  V30 7494 C 355.638 4.78366 -5.89277 0
M  V30 7495 O 355.428 3.58302 -5.08433 0
M  V30 7496 C 354.238 5.17448 -6.36119 0
M  V30 7497 O 353.848 4.45271 -7.53232 0
M  V30 7498 C 353.358 4.74639 -5.19936 0
M  V30 7499 C 354.068 3.49432 -4.70418 0
M  V30 7500 N 354.018 3.31776 -3.22945 0
M  V30 7501 H 356.857 6.54213 -5.71376 0
M  V30 7502 H 357.129 5.30492 -4.44033 0
M  V30 7503 H 356.261 4.55889 -6.76652 0
M  V30 7504 P 352.298 4.23843 -7.83734 0
M  V30 7505 O 352.078 4.19407 -9.29784 0
M  V30 7506 O 351.508 5.24426 -7.09156 0
M  V30 7507 O 352.048 2.7935 -7.20758 0
M  V30 7508 C 352.988 1.7299 -7.50419 0
M  V30 7509 C 352.258 0.406376 -7.57911 0
M  V30 7510 O 352.048 -0.0897726 -6.21935 0
M  V30 7511 C 350.858 0.447224 -8.1878 0
M  V30 7512 O 350.468 -0.825065 -8.71101 0
M  V30 7513 C 349.978 0.783801 -6.99623 0
M  V30 7514 C 350.688 0.0619192 -5.85967 0
M  V30 7515 N 350.638 0.7859 -4.56281 0
M  V30 7516 C 350.718 2.14308 -4.31736 0
M  V30 7517 N 350.638 2.46106 -3.05116 0
M  V30 7518 C 350.498 1.23422 -2.4014 0
M  V30 7519 C 350.368 0.938381 -1.02409 0
M  V30 7520 N 350.248 -0.444647 -0.805413 0
M  V30 7521 C 350.248 -1.40829 -1.79435 0
M  V30 7522 N 350.118 -2.67213 -1.38558 0
M  V30 7523 N 350.378 -1.12947 -3.09005 0
M  V30 7524 C 350.498 0.204887 -3.32369 0
M  V30 7525 H 353.477 1.93423 -8.4679 0
M  V30 7526 H 353.749 1.68181 -6.71046 0
M  V30 7527 H 352.881 -0.289041 -8.15388 0
M  V30 7528 P 348.918 -1.17771 -8.83182 0
M  V30 7529 O 348.698 -2.07206 -9.98732 0
M  V30 7530 O 348.128 0.0743816 -8.81969 0
M  V30 7531 O 348.668 -1.97652 -7.47304 0
M  V30 7532 C 349.608 -3.01133 -7.08783 0
M  V30 7533 C 348.878 -4.12613 -6.37049 0
M  V30 7534 O 348.668 -3.72827 -4.97879 0
M  V30 7535 C 347.478 -4.45085 -6.88694 0
M  V30 7536 O 347.088 -5.7877 -6.5624 0
M  V30 7537 C 346.598 -3.47817 -6.12078 0
M  V30 7538 C 347.308 -3.39414 -4.77697 0
M  V30 7539 N 347.258 -2.04615 -4.15333 0
M  V30 7540 H 350.097 -3.41248 -7.98759 0
M  V30 7541 H 350.369 -2.5837 -6.41742 0
M  V30 7542 H 349.501 -5.02657 -6.42673 0
M  V30 7543 P 345.538 -6.144 -6.45285 0
M  V30 7544 O 345.318 -7.54673 -6.86199 0
M  V30 7545 O 344.748 -5.12391 -7.179 0
M  V30 7546 O 345.288 -5.99158 -4.88404 0
M  V30 7547 C 346.228 -6.60234 -3.96415 0
M  V30 7548 C 345.498 -7.08259 -2.72856 0
M  V30 7549 O 345.288 -5.9427 -1.83651 0
M  V30 7550 C 344.098 -7.64886 -2.9555 0
M  V30 7551 O 343.708 -8.53963 -1.90717 0
M  V30 7552 C 343.218 -6.4116 -2.90739 0
M  V30 7553 C 343.928 -5.55375 -1.86963 0
M  V30 7554 N 343.878 -4.09664 -2.15742 0
M  V30 7555 H 346.717 -7.45574 -4.45629 0
M  V30 7556 H 346.989 -5.86232 -3.67314 0
M  V30 7557 H 346.121 -7.84412 -2.24479 0
M  V30 7558 P 342.158 -8.7635 -1.60911 0
M  V30 7559 O 341.938 -10.1388 -1.11561 0
M  V30 7560 O 341.368 -8.36503 -2.79617 0
M  V30 7561 O 341.908 -7.71806 -0.42951 0
M  V30 7562 C 342.848 -7.67148 0.673689 0
M  V30 7563 C 342.118 -7.33374 1.95559 0
M  V30 7564 O 341.908 -5.88721 2.00726 0
M  V30 7565 C 340.718 -7.92526 2.10483 0
M  V30 7566 O 340.328 -8.02971 3.47653 0
M  V30 7567 C 339.838 -6.89602 1.41652 0
M  V30 7568 C 340.548 -5.59201 1.75185 0
M  V30 7569 N 340.498 -4.58235 0.662552 0
M  V30 7570 H 343.337 -8.65116 0.777161 0
M  V30 7571 H 343.609 -6.90173 0.474152 0
M  V30 7572 H 342.741 -7.66548 2.79458 0
M  V30 7573 P 338.778 -8.03563 3.84925 0
M  V30 7574 O 338.558 -8.85821 5.0569 0
M  V30 7575 O 337.988 -8.41101 2.65469 0
M  V30 7576 O 338.528 -6.4965 4.18908 0
M  V30 7577 C 339.468 -5.81037 5.05421 0
M  V30 7578 C 338.738 -4.78366 5.89277 0
M  V30 7579 O 338.528 -3.58302 5.08433 0
M  V30 7580 C 337.338 -5.17448 6.36119 0
M  V30 7581 O 336.948 -4.45271 7.53232 0
M  V30 7582 C 336.458 -4.74639 5.19936 0
M  V30 7583 C 337.168 -3.49432 4.70418 0
M  V30 7584 N 337.118 -3.31776 3.22945 0
M  V30 7585 H 339.957 -6.54213 5.71376 0
M  V30 7586 H 340.229 -5.30492 4.44033 0
M  V30 7587 H 339.361 -4.55889 6.76652 0
M  V30 7588 P 335.398 -4.23843 7.83734 0
M  V30 7589 O 335.178 -4.19407 9.29784 0
M  V30 7590 O 334.608 -5.24426 7.09156 0
M  V30 7591 O 335.148 -2.7935 7.20758 0
M  V30 7592 C 336.088 -1.7299 7.50419 0
M  V30 7593 C 335.358 -0.406376 7.57911 0
M  V30 7594 O 335.148 0.0897726 6.21935 0
M  V30 7595 C 333.958 -0.447224 8.1878 0
M  V30 7596 O 333.568 0.825065 8.71101 0
M  V30 7597 C 333.078 -0.783801 6.99623 0
M  V30 7598 C 333.788 -0.0619192 5.85967 0
M  V30 7599 N 333.738 -0.790462 4.56202 0
M  V30 7600 H 336.577 -1.93423 8.4679 0
M  V30 7601 H 336.849 -1.68852 6.70877 0
M  V30 7602 H 335.981 0.289041 8.15388 0
M  V30 7603 H 333.326 0.927006 5.72848 0
M  V30 7604 H 333.046 -1.86973 6.82036 0
M  V30 7605 H 332.055 -0.403953 7.13357 0
M  V30 7606 H 333.889 -1.20599 8.97534 0
M  V30 7607 P 332.018 1.17771 8.83182 0
M  V30 7608 O 331.798 2.07206 9.98732 0
M  V30 7609 O 331.228 -0.0743816 8.81969 0
M  V30 7610 O 331.768 1.97652 7.47304 0
M  V30 7611 C 332.708 3.01055 7.08599 0
M  V30 7612 C 331.978 4.12613 6.37049 0
M  V30 7613 O 331.768 3.72827 4.97879 0
M  V30 7614 C 330.578 4.45719 6.88164 0
M  V30 7615 O 330.188 5.7877 6.5624 0
M  V30 7616 C 329.698 3.47768 6.11991 0
M  V30 7617 C 330.408 3.39356 4.77615 0
M  V30 7618 N 330.358 2.04571 4.15244 0
M  V30 7619 C 330.208 1.98587 2.78314 0
M  V30 7620 O 330.118 2.98134 2.08835 0
M  V30 7621 N 330.168 0.714467 2.24925 0
M  V30 7622 C 330.258 -0.470001 2.94169 0
M  V30 7623 C 330.408 -0.312541 4.36783 0
M  V30 7624 C 330.458 0.914512 4.92583 0
M  V30 7625 H 333.199 3.41169 7.98575 0
M  V30 7626 H 333.468 2.58295 6.41556 0
M  V30 7627 H 332.601 5.02657 6.42673 0
M  V30 7628 H 329.946 4.11637 4.08885 0
M  V30 7629 H 329.667 2.49626 6.61679 0
M  V30 7630 H 328.675 3.86566 6.00778 0
M  V30 7631 H 330.509 4.29943 7.96918 0
M  V30 7632 H 330.58 1.00937 6.00374 0
M  V30 7633 P 328.638 6.144 6.45285 0
M  V30 7634 O 328.418 7.54673 6.86199 0
M  V30 7635 O 327.848 5.12391 7.179 0
M  V30 7636 O 328.388 5.99158 4.88404 0
M  V30 7637 C 329.328 6.60234 3.96415 0
M  V30 7638 C 328.598 7.08259 2.72856 0
M  V30 7639 O 328.388 5.9427 1.83651 0
M  V30 7640 C 327.198 7.64886 2.9555 0
M  V30 7641 O 326.808 8.53963 1.90717 0
M  V30 7642 C 326.318 6.4116 2.90739 0
M  V30 7643 C 327.028 5.55375 1.86963 0
M  V30 7644 N 326.978 4.09448 2.16152 0
M  V30 7645 C 327.058 3.46824 3.37593 0
M  V30 7646 N 326.988 2.17422 3.29777 0
M  V30 7647 C 326.838 1.93065 1.94427 0
M  V30 7648 C 326.708 0.738053 1.20141 0
M  V30 7649 N 326.698 -0.474256 1.74676 0
M  V30 7650 N 326.588 0.850049 -0.13045 0
M  V30 7651 C 326.598 2.06169 -0.676992 0
M  V30 7652 N 326.718 3.23842 -0.101312 0
M  V30 7653 C 326.838 3.09402 1.23122 0
M  V30 7654 H 329.817 7.45574 4.45629 0
M  V30 7655 H 330.089 5.85864 3.679 0
M  V30 7656 H 329.221 7.84412 2.24479 0
M  V30 7657 H 326.566 5.73457 0.888562 0
M  V30 7658 H 326.286 5.90877 3.88583 0
M  V30 7659 H 325.295 6.6596 2.58858 0
M  V30 7660 H 327.129 8.16339 3.92049 0
M  V30 7661 H 327.17 4.00505 4.3174 0
M  V30 7662 H 326.789 -0.581337 2.76658 0
M  V30 7663 H 326.6 -1.30811 1.14888 0
M  V30 7664 H 326.492 2.08295 -1.75542 0
M  V30 7665 P 325.258 8.7635 1.60911 0
M  V30 7666 O 325.038 10.1388 1.11561 0
M  V30 7667 O 324.468 8.36503 2.79617 0
M  V30 7668 O 325.008 7.71806 0.42951 0
M  V30 7669 C 325.948 7.67148 -0.673689 0
M  V30 7670 C 325.218 7.33374 -1.95559 0
M  V30 7671 O 325.008 5.88721 -2.00726 0
M  V30 7672 C 323.818 7.92526 -2.10483 0
M  V30 7673 O 323.428 8.02971 -3.47653 0
M  V30 7674 C 322.938 6.89602 -1.41652 0
M  V30 7675 C 323.648 5.59201 -1.75185 0
M  V30 7676 N 323.598 4.58301 -0.657969 0
M  V30 7677 H 326.437 8.65116 -0.777161 0
M  V30 7678 H 326.709 6.9022 -0.46725 0
M  V30 7679 H 325.841 7.66548 -2.79458 0
M  V30 7680 H 323.186 5.16165 -2.65183 0
M  V30 7681 H 322.906 7.06433 -0.329384 0
M  V30 7682 H 321.915 6.90926 -1.82021 0
M  V30 7683 H 323.749 8.90873 -1.62657 0
M  V30 7684 P 321.878 8.03563 -3.84925 0
M  V30 7685 O 321.658 8.85821 -5.0569 0
M  V30 7686 O 321.088 8.41101 -2.65469 0
M  V30 7687 O 321.628 6.4965 -4.18908 0
M  V30 7688 C 322.568 5.81037 -5.05421 0
M  V30 7689 C 321.838 4.78366 -5.89277 0
M  V30 7690 O 321.628 3.58302 -5.08433 0
M  V30 7691 C 320.438 5.17448 -6.36119 0
M  V30 7692 O 320.048 4.45271 -7.53232 0
M  V30 7693 C 319.558 4.74639 -5.19936 0
M  V30 7694 C 320.268 3.49432 -4.70418 0
M  V30 7695 N 320.218 3.31776 -3.22945 0
M  V30 7696 H 323.057 6.54213 -5.71376 0
M  V30 7697 H 323.329 5.30492 -4.44033 0
M  V30 7698 H 322.461 4.55889 -6.76652 0
M  V30 7699 P 318.498 4.23843 -7.83734 0
M  V30 7700 O 318.278 4.19407 -9.29784 0
M  V30 7701 O 317.708 5.24426 -7.09156 0
M  V30 7702 O 318.248 2.7935 -7.20758 0
M  V30 7703 C 319.188 1.7299 -7.50419 0
M  V30 7704 C 318.458 0.406376 -7.57911 0
M  V30 7705 O 318.248 -0.0897726 -6.21935 0
M  V30 7706 C 317.058 0.447224 -8.1878 0
M  V30 7707 O 316.668 -0.825065 -8.71101 0
M  V30 7708 C 316.178 0.783801 -6.99623 0
M  V30 7709 C 316.888 0.0619192 -5.85967 0
M  V30 7710 N 316.838 0.7859 -4.56281 0
M  V30 7711 C 316.918 2.14308 -4.31736 0
M  V30 7712 N 316.838 2.46106 -3.05116 0
M  V30 7713 C 316.698 1.23422 -2.4014 0
M  V30 7714 C 316.568 0.938381 -1.02409 0
M  V30 7715 N 316.448 -0.444647 -0.805413 0
M  V30 7716 C 316.448 -1.40829 -1.79435 0
M  V30 7717 N 316.318 -2.67213 -1.38558 0
M  V30 7718 N 316.578 -1.12947 -3.09005 0
M  V30 7719 C 316.698 0.204887 -3.32369 0
M  V30 7720 H 319.677 1.93423 -8.4679 0
M  V30 7721 H 319.949 1.68181 -6.71046 0
M  V30 7722 H 319.081 -0.289041 -8.15388 0
M  V30 7723 P 315.118 -1.17771 -8.83182 0
M  V30 7724 O 314.898 -2.07206 -9.98732 0
M  V30 7725 O 314.328 0.0743816 -8.81969 0
M  V30 7726 O 314.868 -1.97652 -7.47304 0
M  V30 7727 C 315.808 -3.01133 -7.08783 0
M  V30 7728 C 315.078 -4.12613 -6.37049 0
M  V30 7729 O 314.868 -3.72827 -4.97879 0
M  V30 7730 C 313.678 -4.45085 -6.88694 0
M  V30 7731 O 313.288 -5.7877 -6.5624 0
M  V30 7732 C 312.798 -3.47817 -6.12078 0
M  V30 7733 C 313.508 -3.39414 -4.77697 0
M  V30 7734 N 313.458 -2.04199 -4.15538 0
M  V30 7735 H 316.297 -3.41248 -7.98759 0
M  V30 7736 H 316.569 -2.57728 -6.42 0
M  V30 7737 H 315.701 -5.02657 -6.42673 0
M  V30 7738 H 313.046 -4.11708 -4.08956 0
M  V30 7739 H 312.766 -2.49626 -6.61679 0
M  V30 7740 H 311.775 -3.8662 -6.00862 0
M  V30 7741 H 313.609 -4.29991 -7.97006 0
M  V30 7742 P 311.738 -6.144 -6.45285 0
M  V30 7743 O 311.518 -7.54673 -6.86199 0
M  V30 7744 O 310.948 -5.12391 -7.179 0
M  V30 7745 O 311.488 -5.99158 -4.88404 0
M  V30 7746 C 312.428 -6.60234 -3.96415 0
M  V30 7747 C 311.698 -7.08259 -2.72856 0
M  V30 7748 O 311.488 -5.9427 -1.83651 0
M  V30 7749 C 310.298 -7.64886 -2.9555 0
M  V30 7750 O 309.908 -8.53963 -1.90717 0
M  V30 7751 C 309.418 -6.4116 -2.90739 0
M  V30 7752 C 310.128 -5.55375 -1.86963 0
M  V30 7753 N 310.078 -4.09664 -2.15742 0
M  V30 7754 H 312.917 -7.45574 -4.45629 0
M  V30 7755 H 313.189 -5.86232 -3.67314 0
M  V30 7756 H 312.321 -7.84412 -2.24479 0
M  V30 7757 P 308.358 -8.7635 -1.60911 0
M  V30 7758 O 308.138 -10.1388 -1.11561 0
M  V30 7759 O 307.568 -8.36503 -2.79617 0
M  V30 7760 O 308.108 -7.71806 -0.42951 0
M  V30 7761 C 309.048 -7.66948 0.673514 0
M  V30 7762 C 308.318 -7.33374 1.95559 0
M  V30 7763 O 308.108 -5.88721 2.00726 0
M  V30 7764 C 306.918 -7.92218 2.1125 0
M  V30 7765 O 306.528 -8.02971 3.47653 0
M  V30 7766 C 306.038 -6.89504 1.41631 0
M  V30 7767 C 306.748 -5.59106 1.75155 0
M  V30 7768 N 306.698 -4.58136 0.662409 0
M  V30 7769 C 306.548 -3.26059 1.02863 0
M  V30 7770 O 306.458 -2.90743 2.19009 0
M  V30 7771 N 306.508 -2.35995 -0.0155585 0
M  V30 7772 C 306.598 -2.65248 -1.35603 0
M  V30 7773 C 306.748 -4.05747 -1.64698 0
M  V30 7774 C 306.798 -4.96734 -0.652411 0
M  V30 7775 H 309.539 -8.64917 0.776982 0
M  V30 7776 H 309.808 -6.89974 0.474015 0
M  V30 7777 H 308.941 -7.66548 2.79458 0
M  V30 7778 H 306.286 -5.16076 2.65138 0
M  V30 7779 H 306.007 -7.06433 0.329384 0
M  V30 7780 H 305.015 -6.90829 1.81996 0
M  V30 7781 H 306.849 -8.90774 1.62639 0
M  V30 7782 H 306.92 -6.02181 -0.895285 0
M  V30 7783 P 304.978 -8.03563 3.84925 0
M  V30 7784 O 304.758 -8.85821 5.0569 0
M  V30 7785 O 304.188 -8.41101 2.65469 0
M  V30 7786 O 304.728 -6.4965 4.18908 0
M  V30 7787 C 305.668 -5.81037 5.05421 0
M  V30 7788 C 304.938 -4.78366 5.89277 0
M  V30 7789 O 304.728 -3.58302 5.08433 0
M  V30 7790 C 303.538 -5.17448 6.36119 0
M  V30 7791 O 303.148 -4.45271 7.53232 0
M  V30 7792 C 302.658 -4.74639 5.19936 0
M  V30 7793 C 303.368 -3.49432 4.70418 0
M  V30 7794 N 303.318 -3.31776 3.22945 0
M  V30 7795 H 306.157 -6.54213 5.71376 0
M  V30 7796 H 306.429 -5.30492 4.44033 0
M  V30 7797 H 305.561 -4.55889 6.76652 0
M  V30 7798 P 301.598 -4.23843 7.83734 0
M  V30 7799 O 301.378 -4.19407 9.29784 0
M  V30 7800 O 300.808 -5.24426 7.09156 0
M  V30 7801 O 301.348 -2.7935 7.20758 0
M  V30 7802 C 302.288 -1.7299 7.50419 0
M  V30 7803 C 301.558 -0.406376 7.57911 0
M  V30 7804 O 301.348 0.0897726 6.21935 0
M  V30 7805 C 300.158 -0.447224 8.1878 0
M  V30 7806 O 299.768 0.825065 8.71101 0
M  V30 7807 C 299.278 -0.783801 6.99623 0
M  V30 7808 C 299.988 -0.0619192 5.85967 0
M  V30 7809 N 299.938 -0.790462 4.56202 0
M  V30 7810 H 302.777 -1.93423 8.4679 0
M  V30 7811 H 303.049 -1.68852 6.70877 0
M  V30 7812 H 302.181 0.289041 8.15388 0
M  V30 7813 H 299.526 0.927006 5.72848 0
M  V30 7814 H 299.246 -1.86973 6.82036 0
M  V30 7815 H 298.255 -0.403953 7.13357 0
M  V30 7816 H 300.089 -1.20599 8.97534 0
M  V30 7817 P 298.218 1.17771 8.83182 0
M  V30 7818 O 297.998 2.07206 9.98732 0
M  V30 7819 O 297.428 -0.0743816 8.81969 0
M  V30 7820 O 297.968 1.97652 7.47304 0
M  V30 7821 C 298.908 3.01133 7.08783 0
M  V30 7822 C 298.178 4.12613 6.37049 0
M  V30 7823 O 297.968 3.72827 4.97879 0
M  V30 7824 C 296.778 4.45085 6.88694 0
M  V30 7825 O 296.388 5.7877 6.5624 0
M  V30 7826 C 295.898 3.47817 6.12078 0
M  V30 7827 C 296.608 3.39414 4.77697 0
M  V30 7828 N 296.558 2.04615 4.15333 0
M  V30 7829 H 299.397 3.41248 7.98759 0
M  V30 7830 H 299.669 2.5837 6.41742 0
M  V30 7831 H 298.801 5.02657 6.42673 0
M  V30 7832 P 294.838 6.144 6.45285 0
M  V30 7833 O 294.618 7.54673 6.86199 0
M  V30 7834 O 294.048 5.12391 7.179 0
M  V30 7835 O 294.588 5.99158 4.88404 0
M  V30 7836 C 295.528 6.60234 3.96415 0
M  V30 7837 C 294.798 7.08259 2.72856 0
M  V30 7838 O 294.588 5.9427 1.83651 0
M  V30 7839 C 293.398 7.64886 2.9555 0
M  V30 7840 O 293.008 8.53963 1.90717 0
M  V30 7841 C 292.518 6.4116 2.90739 0
M  V30 7842 C 293.228 5.55375 1.86963 0
M  V30 7843 N 293.178 4.09664 2.15742 0
M  V30 7844 H 296.017 7.45574 4.45629 0
M  V30 7845 H 296.289 5.86232 3.67314 0
M  V30 7846 H 295.421 7.84412 2.24479 0
M  V30 7847 P 291.458 8.7635 1.60911 0
M  V30 7848 O 291.238 10.1388 1.11561 0
M  V30 7849 O 290.668 8.36503 2.79617 0
M  V30 7850 O 291.208 7.71806 0.42951 0
M  V30 7851 C 292.148 7.67148 -0.673689 0
M  V30 7852 C 291.418 7.33374 -1.95559 0
M  V30 7853 O 291.208 5.88721 -2.00726 0
M  V30 7854 C 290.018 7.92526 -2.10483 0
M  V30 7855 O 289.628 8.02971 -3.47653 0
M  V30 7856 C 289.138 6.89602 -1.41652 0
M  V30 7857 C 289.848 5.59201 -1.75185 0
M  V30 7858 N 289.798 4.58235 -0.662552 0
M  V30 7859 H 292.637 8.65116 -0.777161 0
M  V30 7860 H 292.909 6.90173 -0.474152 0
M  V30 7861 H 292.041 7.66548 -2.79458 0
M  V30 7862 P 288.078 8.03563 -3.84925 0
M  V30 7863 O 287.858 8.85821 -5.0569 0
M  V30 7864 O 287.288 8.41101 -2.65469 0
M  V30 7865 O 287.828 6.4965 -4.18908 0
M  V30 7866 C 288.768 5.81037 -5.05421 0
M  V30 7867 C 288.038 4.78366 -5.89277 0
M  V30 7868 O 287.828 3.58302 -5.08433 0
M  V30 7869 C 286.638 5.17448 -6.36119 0
M  V30 7870 O 286.248 4.45271 -7.53232 0
M  V30 7871 C 285.758 4.74639 -5.19936 0
M  V30 7872 C 286.468 3.49432 -4.70418 0
M  V30 7873 N 286.418 3.31776 -3.22945 0
M  V30 7874 H 289.257 6.54213 -5.71376 0
M  V30 7875 H 289.529 5.30492 -4.44033 0
M  V30 7876 H 288.661 4.55889 -6.76652 0
M  V30 7877 P 284.698 4.23843 -7.83734 0
M  V30 7878 O 284.478 4.19407 -9.29784 0
M  V30 7879 O 283.908 5.24426 -7.09156 0
M  V30 7880 O 284.448 2.7935 -7.20758 0
M  V30 7881 C 285.388 1.7299 -7.50419 0
M  V30 7882 C 284.658 0.406376 -7.57911 0
M  V30 7883 O 284.448 -0.0897726 -6.21935 0
M  V30 7884 C 283.258 0.447224 -8.1878 0
M  V30 7885 O 282.868 -0.825065 -8.71101 0
M  V30 7886 C 282.378 0.783801 -6.99623 0
M  V30 7887 C 283.088 0.0619192 -5.85967 0
M  V30 7888 N 283.038 0.790462 -4.56202 0
M  V30 7889 H 285.877 1.93423 -8.4679 0
M  V30 7890 H 286.149 1.68852 -6.70877 0
M  V30 7891 H 285.281 -0.289041 -8.15388 0
M  V30 7892 H 282.626 -0.927006 -5.72848 0
M  V30 7893 H 282.346 1.86973 -6.82036 0
M  V30 7894 H 281.355 0.403953 -7.13357 0
M  V30 7895 H 283.189 1.20599 -8.97534 0
M  V30 7896 P 281.318 -1.17771 -8.83182 0
M  V30 7897 O 281.098 -2.07206 -9.98732 0
M  V30 7898 O 280.528 0.0743816 -8.81969 0
M  V30 7899 O 281.068 -1.97652 -7.47304 0
M  V30 7900 C 282.008 -3.01133 -7.08783 0
M  V30 7901 C 281.278 -4.12613 -6.37049 0
M  V30 7902 O 281.068 -3.72827 -4.97879 0
M  V30 7903 C 279.878 -4.45085 -6.88694 0
M  V30 7904 O 279.488 -5.7877 -6.5624 0
M  V30 7905 C 278.998 -3.47817 -6.12078 0
M  V30 7906 C 279.708 -3.39414 -4.77697 0
M  V30 7907 N 279.658 -2.04199 -4.15538 0
M  V30 7908 H 282.497 -3.41248 -7.98759 0
M  V30 7909 H 282.769 -2.57728 -6.42 0
M  V30 7910 H 281.901 -5.02657 -6.42673 0
M  V30 7911 H 279.246 -4.11708 -4.08956 0
M  V30 7912 H 278.966 -2.49626 -6.61679 0
M  V30 7913 H 277.975 -3.8662 -6.00862 0
M  V30 7914 H 279.809 -4.29991 -7.97006 0
M  V30 7915 P 277.938 -6.144 -6.45285 0
M  V30 7916 O 277.718 -7.54673 -6.86199 0
M  V30 7917 O 277.148 -5.12391 -7.179 0
M  V30 7918 O 277.688 -5.99158 -4.88404 0
M  V30 7919 C 278.628 -6.60234 -3.96415 0
M  V30 7920 C 277.898 -7.08259 -2.72856 0
M  V30 7921 O 277.688 -5.9427 -1.83651 0
M  V30 7922 C 276.498 -7.64886 -2.9555 0
M  V30 7923 O 276.108 -8.53963 -1.90717 0
M  V30 7924 C 275.618 -6.4116 -2.90739 0
M  V30 7925 C 276.328 -5.55375 -1.86963 0
M  V30 7926 N 276.278 -4.09448 -2.16152 0
M  V30 7927 C 276.358 -3.46824 -3.37593 0
M  V30 7928 N 276.288 -2.17422 -3.29777 0
M  V30 7929 C 276.138 -1.93065 -1.94427 0
M  V30 7930 C 276.008 -0.738053 -1.20141 0
M  V30 7931 N 275.998 0.474256 -1.74676 0
M  V30 7932 N 275.888 -0.850049 0.13045 0
M  V30 7933 C 275.898 -2.06169 0.676992 0
M  V30 7934 N 276.018 -3.23842 0.101312 0
M  V30 7935 C 276.138 -3.09402 -1.23122 0
M  V30 7936 H 279.117 -7.45574 -4.45629 0
M  V30 7937 H 279.389 -5.85864 -3.679 0
M  V30 7938 H 278.521 -7.84412 -2.24479 0
M  V30 7939 H 275.866 -5.73457 -0.888562 0
M  V30 7940 H 275.586 -5.90877 -3.88583 0
M  V30 7941 H 274.595 -6.6596 -2.58858 0
M  V30 7942 H 276.429 -8.16339 -3.92049 0
M  V30 7943 H 276.47 -4.00505 -4.3174 0
M  V30 7944 H 276.089 0.581337 -2.76658 0
M  V30 7945 H 275.9 1.30811 -1.14888 0
M  V30 7946 H 275.792 -2.08295 1.75542 0
M  V30 7947 P 274.558 -8.7635 -1.60911 0
M  V30 7948 O 274.338 -10.1388 -1.11561 0
M  V30 7949 O 273.768 -8.36503 -2.79617 0
M  V30 7950 O 274.308 -7.71806 -0.42951 0
M  V30 7951 C 275.248 -7.67148 0.673689 0
M  V30 7952 C 274.518 -7.33374 1.95559 0
M  V30 7953 O 274.308 -5.88721 2.00726 0
M  V30 7954 C 273.118 -7.92526 2.10483 0
M  V30 7955 O 272.728 -8.02971 3.47653 0
M  V30 7956 C 272.238 -6.89602 1.41652 0
M  V30 7957 C 272.948 -5.59201 1.75185 0
M  V30 7958 N 272.898 -4.58301 0.657969 0
M  V30 7959 H 275.737 -8.65116 0.777161 0
M  V30 7960 H 276.009 -6.9022 0.46725 0
M  V30 7961 H 275.141 -7.66548 2.79458 0
M  V30 7962 H 272.486 -5.16165 2.65183 0
M  V30 7963 H 272.206 -7.06433 0.329384 0
M  V30 7964 H 271.215 -6.90926 1.82021 0
M  V30 7965 H 273.049 -8.90873 1.62657 0
M  V30 7966 P 271.178 -8.03563 3.84925 0
M  V30 7967 O 270.958 -8.85821 5.0569 0
M  V30 7968 O 270.388 -8.41101 2.65469 0
M  V30 7969 O 270.928 -6.4965 4.18908 0
M  V30 7970 C 271.868 -5.81037 5.05421 0
M  V30 7971 C 271.138 -4.78366 5.89277 0
M  V30 7972 O 270.928 -3.58302 5.08433 0
M  V30 7973 C 269.738 -5.17448 6.36119 0
M  V30 7974 O 269.348 -4.45271 7.53232 0
M  V30 7975 C 268.858 -4.74639 5.19936 0
M  V30 7976 C 269.568 -3.49432 4.70418 0
M  V30 7977 N 269.518 -3.32099 3.22613 0
M  V30 7978 H 272.357 -6.54213 5.71376 0
M  V30 7979 H 272.629 -5.30936 4.43503 0
M  V30 7980 H 271.761 -4.55889 6.76652 0
M  V30 7981 H 269.106 -2.61715 5.17932 0
M  V30 7982 H 268.826 -5.52155 4.41878 0
M  V30 7983 H 267.835 -4.51981 5.53374 0
M  V30 7984 H 269.669 -6.25124 6.55234 0
M  V30 7985 P 267.798 -4.23843 7.83734 0
M  V30 7986 O 267.578 -4.19407 9.29784 0
M  V30 7987 O 267.008 -5.24426 7.09156 0
M  V30 7988 O 267.548 -2.7935 7.20758 0
M  V30 7989 C 268.488 -1.7299 7.50419 0
M  V30 7990 C 267.758 -0.406376 7.57911 0
M  V30 7991 O 267.548 0.0897726 6.21935 0
M  V30 7992 C 266.358 -0.447224 8.1878 0
M  V30 7993 O 265.968 0.825065 8.71101 0
M  V30 7994 C 265.478 -0.783801 6.99623 0
M  V30 7995 C 266.188 -0.0619192 5.85967 0
M  V30 7996 N 266.138 -0.7859 4.56281 0
M  V30 7997 H 268.977 -1.93423 8.4679 0
M  V30 7998 H 269.249 -1.68181 6.71046 0
M  V30 7999 H 268.381 0.289041 8.15388 0
M  V30 8000 P 264.418 1.17771 8.83182 0
M  V30 8001 O 264.198 2.07206 9.98732 0
M  V30 8002 O 263.628 -0.0743816 8.81969 0
M  V30 8003 O 264.168 1.97652 7.47304 0
M  V30 8004 C 265.108 3.01133 7.08783 0
M  V30 8005 C 264.378 4.12613 6.37049 0
M  V30 8006 O 264.168 3.72827 4.97879 0
M  V30 8007 C 262.978 4.45085 6.88694 0
M  V30 8008 O 262.588 5.7877 6.5624 0
M  V30 8009 C 262.098 3.47817 6.12078 0
M  V30 8010 C 262.808 3.39414 4.77697 0
M  V30 8011 N 262.758 2.04199 4.15538 0
M  V30 8012 H 265.597 3.41248 7.98759 0
M  V30 8013 H 265.869 2.57728 6.42 0
M  V30 8014 H 265.001 5.02657 6.42673 0
M  V30 8015 H 262.346 4.11708 4.08956 0
M  V30 8016 H 262.066 2.49626 6.61679 0
M  V30 8017 H 261.075 3.8662 6.00862 0
M  V30 8018 H 262.909 4.29991 7.97006 0
M  V30 8019 P 261.038 6.144 6.45285 0
M  V30 8020 O 260.818 7.54673 6.86199 0
M  V30 8021 O 260.248 5.12391 7.179 0
M  V30 8022 O 260.788 5.99158 4.88404 0
M  V30 8023 C 261.728 6.60234 3.96415 0
M  V30 8024 C 260.998 7.08259 2.72856 0
M  V30 8025 O 260.788 5.9427 1.83651 0
M  V30 8026 C 259.598 7.64886 2.9555 0
M  V30 8027 O 259.208 8.53963 1.90717 0
M  V30 8028 C 258.718 6.4116 2.90739 0
M  V30 8029 C 259.428 5.55375 1.86963 0
M  V30 8030 N 259.378 4.09664 2.15742 0
M  V30 8031 C 259.458 3.44381 3.37233 0
M  V30 8032 N 259.378 2.14131 3.28347 0
M  V30 8033 C 259.238 1.90247 1.91588 0
M  V30 8034 C 259.108 0.683992 1.20892 0
M  V30 8035 N 258.988 0.903396 -0.173998 0
M  V30 8036 C 258.988 2.14171 -0.784879 0
M  V30 8037 N 258.858 2.1435 -2.11317 0
M  V30 8038 N 259.118 3.28784 -0.119316 0
M  V30 8039 C 259.238 3.0977 1.22194 0
M  V30 8040 H 262.217 7.45574 4.45629 0
M  V30 8041 H 262.489 5.86232 3.67314 0
M  V30 8042 H 261.621 7.84412 2.24479 0
M  V30 8043 P 257.658 8.7635 1.60911 0
M  V30 8044 O 257.438 10.1388 1.11561 0
M  V30 8045 O 256.868 8.36503 2.79617 0
M  V30 8046 O 257.408 7.71806 0.42951 0
M  V30 8047 C 258.348 7.67148 -0.673689 0
M  V30 8048 C 257.618 7.33374 -1.95559 0
M  V30 8049 O 257.408 5.88721 -2.00726 0
M  V30 8050 C 256.218 7.92526 -2.10483 0
M  V30 8051 O 255.828 8.02971 -3.47653 0
M  V30 8052 C 255.338 6.89602 -1.41652 0
M  V30 8053 C 256.048 5.59201 -1.75185 0
M  V30 8054 N 255.998 4.58235 -0.662552 0
M  V30 8055 H 258.837 8.65116 -0.777161 0
M  V30 8056 H 259.109 6.90173 -0.474152 0
M  V30 8057 H 258.241 7.66548 -2.79458 0
M  V30 8058 P 254.279 8.03563 -3.84925 0
M  V30 8059 O 254.059 8.85821 -5.0569 0
M  V30 8060 O 253.489 8.41101 -2.65469 0
M  V30 8061 O 254.029 6.4965 -4.18908 0
M  V30 8062 C 254.969 5.81037 -5.05421 0
M  V30 8063 C 254.239 4.78366 -5.89277 0
M  V30 8064 O 254.029 3.58302 -5.08433 0
M  V30 8065 C 252.839 5.17448 -6.36119 0
M  V30 8066 O 252.449 4.45271 -7.53232 0
M  V30 8067 C 251.959 4.74639 -5.19936 0
M  V30 8068 C 252.669 3.49432 -4.70418 0
M  V30 8069 N 252.619 3.32099 -3.22613 0
M  V30 8070 H 255.458 6.54213 -5.71376 0
M  V30 8071 H 255.73 5.30936 -4.43503 0
M  V30 8072 H 254.862 4.55889 -6.76652 0
M  V30 8073 H 252.207 2.61715 -5.17932 0
M  V30 8074 H 251.927 5.52155 -4.41878 0
M  V30 8075 H 250.936 4.51981 -5.53374 0
M  V30 8076 H 252.77 6.25124 -6.55234 0
M  V30 8077 P 250.899 4.23843 -7.83734 0
M  V30 8078 O 250.679 4.19407 -9.29784 0
M  V30 8079 O 250.109 5.24426 -7.09156 0
M  V30 8080 O 250.649 2.7935 -7.20758 0
M  V30 8081 C 251.589 1.7299 -7.50419 0
M  V30 8082 C 250.859 0.406376 -7.57911 0
M  V30 8083 O 250.649 -0.0897726 -6.21935 0
M  V30 8084 C 249.459 0.447224 -8.1878 0
M  V30 8085 O 249.069 -0.825065 -8.71101 0
M  V30 8086 C 248.579 0.783801 -6.99623 0
M  V30 8087 C 249.289 0.0619192 -5.85967 0
M  V30 8088 N 249.239 0.7859 -4.56281 0
M  V30 8089 H 252.078 1.93423 -8.4679 0
M  V30 8090 H 252.35 1.68181 -6.71046 0
M  V30 8091 H 251.482 -0.289041 -8.15388 0
M  V30 8092 P 247.519 -1.17771 -8.83182 0
M  V30 8093 O 247.299 -2.07206 -9.98732 0
M  V30 8094 O 246.729 0.0743816 -8.81969 0
M  V30 8095 O 247.269 -1.97652 -7.47304 0
M  V30 8096 C 248.209 -3.01133 -7.08783 0
M  V30 8097 C 247.479 -4.12613 -6.37049 0
M  V30 8098 O 247.269 -3.72827 -4.97879 0
M  V30 8099 C 246.079 -4.45085 -6.88694 0
M  V30 8100 O 245.689 -5.7877 -6.5624 0
M  V30 8101 C 245.199 -3.47817 -6.12078 0
M  V30 8102 C 245.909 -3.39414 -4.77697 0
M  V30 8103 N 245.859 -2.04615 -4.15333 0
M  V30 8104 H 248.698 -3.41248 -7.98759 0
M  V30 8105 H 248.97 -2.5837 -6.41742 0
M  V30 8106 H 248.102 -5.02657 -6.42673 0
M  V30 8107 P 244.139 -6.144 -6.45285 0
M  V30 8108 O 243.919 -7.54673 -6.86199 0
M  V30 8109 O 243.349 -5.12391 -7.179 0
M  V30 8110 O 243.889 -5.99158 -4.88404 0
M  V30 8111 C 244.829 -6.60234 -3.96415 0
M  V30 8112 C 244.099 -7.08259 -2.72856 0
M  V30 8113 O 243.889 -5.9427 -1.83651 0
M  V30 8114 C 242.699 -7.64886 -2.9555 0
M  V30 8115 O 242.309 -8.53963 -1.90717 0
M  V30 8116 C 241.819 -6.4116 -2.90739 0
M  V30 8117 C 242.529 -5.55375 -1.86963 0
M  V30 8118 N 242.479 -4.09448 -2.16152 0
M  V30 8119 H 245.318 -7.45574 -4.45629 0
M  V30 8120 H 245.59 -5.85864 -3.679 0
M  V30 8121 H 244.722 -7.84412 -2.24479 0
M  V30 8122 H 242.067 -5.73457 -0.888562 0
M  V30 8123 H 241.787 -5.90877 -3.88583 0
M  V30 8124 H 240.796 -6.6596 -2.58858 0
M  V30 8125 H 242.63 -8.16339 -3.92049 0
M  V30 8126 P 240.759 -8.7635 -1.60911 0
M  V30 8127 O 240.539 -10.1388 -1.11561 0
M  V30 8128 O 239.969 -8.36503 -2.79617 0
M  V30 8129 O 240.509 -7.71806 -0.42951 0
M  V30 8130 C 241.449 -7.67148 0.673689 0
M  V30 8131 C 240.719 -7.33374 1.95559 0
M  V30 8132 O 240.509 -5.88721 2.00726 0
M  V30 8133 C 239.319 -7.92526 2.10483 0
M  V30 8134 O 238.929 -8.02971 3.47653 0
M  V30 8135 C 238.439 -6.89602 1.41652 0
M  V30 8136 C 239.149 -5.59201 1.75185 0
M  V30 8137 N 239.099 -4.58235 0.662552 0
M  V30 8138 H 241.938 -8.65116 0.777161 0
M  V30 8139 H 242.21 -6.90173 0.474152 0
M  V30 8140 H 241.342 -7.66548 2.79458 0
M  V30 8141 P 237.379 -8.03563 3.84925 0
M  V30 8142 O 237.159 -8.85821 5.0569 0
M  V30 8143 O 236.589 -8.41101 2.65469 0
M  V30 8144 O 237.129 -6.4965 4.18908 0
M  V30 8145 C 238.069 -5.81037 5.05421 0
M  V30 8146 C 237.339 -4.78366 5.89277 0
M  V30 8147 O 237.129 -3.58302 5.08433 0
M  V30 8148 C 235.939 -5.17448 6.36119 0
M  V30 8149 O 235.549 -4.45271 7.53232 0
M  V30 8150 C 235.059 -4.74639 5.19936 0
M  V30 8151 C 235.769 -3.49432 4.70418 0
M  V30 8152 N 235.719 -3.31776 3.22945 0
M  V30 8153 H 238.558 -6.54213 5.71376 0
M  V30 8154 H 238.83 -5.30492 4.44033 0
M  V30 8155 H 237.962 -4.55889 6.76652 0
M  V30 8156 P 233.999 -4.23843 7.83734 0
M  V30 8157 O 233.779 -4.19407 9.29784 0
M  V30 8158 O 233.209 -5.24426 7.09156 0
M  V30 8159 O 233.749 -2.7935 7.20758 0
M  V30 8160 C 234.689 -1.7299 7.50419 0
M  V30 8161 C 233.959 -0.406376 7.57911 0
M  V30 8162 O 233.749 0.0897726 6.21935 0
M  V30 8163 C 232.559 -0.447224 8.1878 0
M  V30 8164 O 232.169 0.825065 8.71101 0
M  V30 8165 C 231.679 -0.783801 6.99623 0
M  V30 8166 C 232.389 -0.0619192 5.85967 0
M  V30 8167 N 232.339 -0.790462 4.56202 0
M  V30 8168 H 235.178 -1.93423 8.4679 0
M  V30 8169 H 235.45 -1.68852 6.70877 0
M  V30 8170 H 234.582 0.289041 8.15388 0
M  V30 8171 H 231.927 0.927006 5.72848 0
M  V30 8172 H 231.647 -1.86973 6.82036 0
M  V30 8173 H 230.656 -0.403953 7.13357 0
M  V30 8174 H 232.49 -1.20599 8.97534 0
M  V30 8175 P 230.619 1.17771 8.83182 0
M  V30 8176 O 230.399 2.07206 9.98732 0
M  V30 8177 O 229.829 -0.0743816 8.81969 0
M  V30 8178 O 230.369 1.97652 7.47304 0
M  V30 8179 C 231.309 3.01133 7.08783 0
M  V30 8180 C 230.579 4.12613 6.37049 0
M  V30 8181 O 230.369 3.72827 4.97879 0
M  V30 8182 C 229.179 4.45085 6.88694 0
M  V30 8183 O 228.789 5.7877 6.5624 0
M  V30 8184 C 228.299 3.47817 6.12078 0
M  V30 8185 C 229.009 3.39414 4.77697 0
M  V30 8186 N 228.959 2.04199 4.15538 0
M  V30 8187 H 231.798 3.41248 7.98759 0
M  V30 8188 H 232.07 2.57728 6.42 0
M  V30 8189 H 231.202 5.02657 6.42673 0
M  V30 8190 H 228.547 4.11708 4.08956 0
M  V30 8191 H 228.267 2.49626 6.61679 0
M  V30 8192 H 227.276 3.8662 6.00862 0
M  V30 8193 H 229.11 4.29991 7.97006 0
M  V30 8194 P 227.239 6.144 6.45285 0
M  V30 8195 O 227.019 7.54673 6.86199 0
M  V30 8196 O 226.449 5.12391 7.179 0
M  V30 8197 O 226.989 5.99158 4.88404 0
M  V30 8198 C 227.929 6.60234 3.96415 0
M  V30 8199 C 227.199 7.08259 2.72856 0
M  V30 8200 O 226.989 5.9427 1.83651 0
M  V30 8201 C 225.799 7.64886 2.9555 0
M  V30 8202 O 225.409 8.53963 1.90717 0
M  V30 8203 C 224.919 6.4116 2.90739 0
M  V30 8204 C 225.629 5.55375 1.86963 0
M  V30 8205 N 225.579 4.09664 2.15742 0
M  V30 8206 H 228.418 7.45574 4.45629 0
M  V30 8207 H 228.69 5.86232 3.67314 0
M  V30 8208 H 227.822 7.84412 2.24479 0
M  V30 8209 P 223.859 8.7635 1.60911 0
M  V30 8210 O 223.639 10.1388 1.11561 0
M  V30 8211 O 223.069 8.36503 2.79617 0
M  V30 8212 O 223.609 7.71806 0.42951 0
M  V30 8213 C 224.549 7.67148 -0.673689 0
M  V30 8214 C 223.819 7.33374 -1.95559 0
M  V30 8215 O 223.609 5.88721 -2.00726 0
M  V30 8216 C 222.419 7.92526 -2.10483 0
M  V30 8217 O 222.029 8.02971 -3.47653 0
M  V30 8218 C 221.539 6.89602 -1.41652 0
M  V30 8219 C 222.249 5.59201 -1.75185 0
M  V30 8220 N 222.199 4.58301 -0.657969 0
M  V30 8221 H 225.038 8.65116 -0.777161 0
M  V30 8222 H 225.31 6.9022 -0.46725 0
M  V30 8223 H 224.442 7.66548 -2.79458 0
M  V30 8224 H 221.787 5.16165 -2.65183 0
M  V30 8225 H 221.507 7.06433 -0.329384 0
M  V30 8226 H 220.516 6.90926 -1.82021 0
M  V30 8227 H 222.35 8.90873 -1.62657 0
M  V30 8228 P 220.479 8.03563 -3.84925 0
M  V30 8229 O 220.259 8.85821 -5.0569 0
M  V30 8230 O 219.689 8.41101 -2.65469 0
M  V30 8231 O 220.229 6.4965 -4.18908 0
M  V30 8232 C 221.169 5.81037 -5.05421 0
M  V30 8233 C 220.439 4.78366 -5.89277 0
M  V30 8234 O 220.229 3.58302 -5.08433 0
M  V30 8235 C 219.039 5.17448 -6.36119 0
M  V30 8236 O 218.649 4.45271 -7.53232 0
M  V30 8237 C 218.159 4.74639 -5.19936 0
M  V30 8238 C 218.869 3.49432 -4.70418 0
M  V30 8239 N 218.819 3.31776 -3.22945 0
M  V30 8240 H 221.658 6.54213 -5.71376 0
M  V30 8241 H 221.93 5.30492 -4.44033 0
M  V30 8242 H 221.062 4.55889 -6.76652 0
M  V30 8243 P 217.099 4.23843 -7.83734 0
M  V30 8244 O 216.879 4.19407 -9.29784 0
M  V30 8245 O 216.309 5.24426 -7.09156 0
M  V30 8246 O 216.849 2.7935 -7.20758 0
M  V30 8247 C 217.789 1.7299 -7.50419 0
M  V30 8248 C 217.059 0.406376 -7.57911 0
M  V30 8249 O 216.849 -0.0897726 -6.21935 0
M  V30 8250 C 215.659 0.447224 -8.1878 0
M  V30 8251 O 215.269 -0.825065 -8.71101 0
M  V30 8252 C 214.779 0.783801 -6.99623 0
M  V30 8253 C 215.489 0.0619192 -5.85967 0
M  V30 8254 N 215.439 0.7859 -4.56281 0
M  V30 8255 H 218.278 1.93423 -8.4679 0
M  V30 8256 H 218.55 1.68181 -6.71046 0
M  V30 8257 H 217.682 -0.289041 -8.15388 0
M  V30 8258 P 213.719 -1.17771 -8.83182 0
M  V30 8259 O 213.499 -2.07206 -9.98732 0
M  V30 8260 O 212.929 0.0743816 -8.81969 0
M  V30 8261 O 213.469 -1.97652 -7.47304 0
M  V30 8262 C 214.409 -3.01133 -7.08783 0
M  V30 8263 C 213.679 -4.12613 -6.37049 0
M  V30 8264 O 213.469 -3.72827 -4.97879 0
M  V30 8265 C 212.279 -4.45085 -6.88694 0
M  V30 8266 O 211.889 -5.7877 -6.5624 0
M  V30 8267 C 211.399 -3.47817 -6.12078 0
M  V30 8268 C 212.109 -3.39414 -4.77697 0
M  V30 8269 N 212.059 -2.04615 -4.15333 0
M  V30 8270 H 214.898 -3.41248 -7.98759 0
M  V30 8271 H 215.17 -2.5837 -6.41742 0
M  V30 8272 H 214.302 -5.02657 -6.42673 0
M  V30 8273 P 210.339 -6.144 -6.45285 0
M  V30 8274 O 210.119 -7.54673 -6.86199 0
M  V30 8275 O 209.549 -5.12391 -7.179 0
M  V30 8276 O 210.089 -5.99158 -4.88404 0
M  V30 8277 C 211.029 -6.60234 -3.96415 0
M  V30 8278 C 210.299 -7.08259 -2.72856 0
M  V30 8279 O 210.089 -5.9427 -1.83651 0
M  V30 8280 C 208.899 -7.64886 -2.9555 0
M  V30 8281 O 208.509 -8.53963 -1.90717 0
M  V30 8282 C 208.019 -6.4116 -2.90739 0
M  V30 8283 C 208.729 -5.55375 -1.86963 0
M  V30 8284 N 208.679 -4.09664 -2.15742 0
M  V30 8285 H 211.518 -7.45574 -4.45629 0
M  V30 8286 H 211.79 -5.86232 -3.67314 0
M  V30 8287 H 210.922 -7.84412 -2.24479 0
M  V30 8288 P 206.959 -8.7635 -1.60911 0
M  V30 8289 O 206.739 -10.1388 -1.11561 0
M  V30 8290 O 206.169 -8.36503 -2.79617 0
M  V30 8291 O 206.709 -7.71806 -0.42951 0
M  V30 8292 C 207.649 -7.66948 0.673514 0
M  V30 8293 C 206.919 -7.33374 1.95559 0
M  V30 8294 O 206.709 -5.88721 2.00726 0
M  V30 8295 C 205.519 -7.92218 2.1125 0
M  V30 8296 O 205.129 -8.02971 3.47653 0
M  V30 8297 C 204.639 -6.89504 1.41631 0
M  V30 8298 C 205.349 -5.59106 1.75155 0
M  V30 8299 N 205.299 -4.58136 0.662409 0
M  V30 8300 C 205.149 -3.26059 1.02863 0
M  V30 8301 O 205.059 -2.90743 2.19009 0
M  V30 8302 N 205.109 -2.35995 -0.0155585 0
M  V30 8303 C 205.199 -2.65248 -1.35603 0
M  V30 8304 C 205.349 -4.05747 -1.64698 0
M  V30 8305 C 205.399 -4.96734 -0.652411 0
M  V30 8306 H 208.14 -8.64917 0.776982 0
M  V30 8307 H 208.409 -6.89974 0.474015 0
M  V30 8308 H 207.542 -7.66548 2.79458 0
M  V30 8309 H 204.887 -5.16076 2.65138 0
M  V30 8310 H 204.608 -7.06433 0.329384 0
M  V30 8311 H 203.616 -6.90829 1.81996 0
M  V30 8312 H 205.45 -8.90774 1.62639 0
M  V30 8313 H 205.521 -6.02181 -0.895285 0
M  V30 8314 P 203.579 -8.03563 3.84925 0
M  V30 8315 O 203.359 -8.85821 5.0569 0
M  V30 8316 O 202.789 -8.41101 2.65469 0
M  V30 8317 O 203.329 -6.4965 4.18908 0
M  V30 8318 C 204.269 -5.81037 5.05421 0
M  V30 8319 C 203.539 -4.78366 5.89277 0
M  V30 8320 O 203.329 -3.58302 5.08433 0
M  V30 8321 C 202.139 -5.17448 6.36119 0
M  V30 8322 O 201.749 -4.45271 7.53232 0
M  V30 8323 C 201.259 -4.74639 5.19936 0
M  V30 8324 C 201.969 -3.49432 4.70418 0
M  V30 8325 N 201.919 -3.32099 3.22613 0
M  V30 8326 H 204.758 -6.54213 5.71376 0
M  V30 8327 H 205.03 -5.30936 4.43503 0
M  V30 8328 H 204.162 -4.55889 6.76652 0
M  V30 8329 H 201.507 -2.61715 5.17932 0
M  V30 8330 H 201.227 -5.52155 4.41878 0
M  V30 8331 H 200.236 -4.51981 5.53374 0
M  V30 8332 H 202.07 -6.25124 6.55234 0
M  V30 8333 P 200.199 -4.23843 7.83734 0
M  V30 8334 O 199.979 -4.19407 9.29784 0
M  V30 8335 O 199.409 -5.24426 7.09156 0
M  V30 8336 O 199.949 -2.7935 7.20758 0
M  V30 8337 C 200.889 -1.7299 7.50419 0
M  V30 8338 C 200.159 -0.406376 7.57911 0
M  V30 8339 O 199.949 0.0897726 6.21935 0
M  V30 8340 C 198.759 -0.447224 8.1878 0
M  V30 8341 O 198.369 0.825065 8.71101 0
M  V30 8342 C 197.879 -0.783801 6.99623 0
M  V30 8343 C 198.589 -0.0619192 5.85967 0
M  V30 8344 N 198.539 -0.7859 4.56281 0
M  V30 8345 C 198.619 -2.14308 4.31736 0
M  V30 8346 N 198.539 -2.46106 3.05116 0
M  V30 8347 C 198.399 -1.23422 2.4014 0
M  V30 8348 C 198.269 -0.938381 1.02409 0
M  V30 8349 N 198.149 0.444647 0.805413 0
M  V30 8350 C 198.149 1.40829 1.79435 0
M  V30 8351 N 198.019 2.67213 1.38558 0
M  V30 8352 N 198.279 1.12947 3.09005 0
M  V30 8353 C 198.399 -0.204887 3.32369 0
M  V30 8354 H 201.378 -1.93423 8.4679 0
M  V30 8355 H 201.65 -1.68181 6.71046 0
M  V30 8356 H 200.782 0.289041 8.15388 0
M  V30 8357 P 196.819 1.17771 8.83182 0
M  V30 8358 O 196.599 2.07206 9.98732 0
M  V30 8359 O 196.029 -0.0743816 8.81969 0
M  V30 8360 O 196.569 1.97652 7.47304 0
M  V30 8361 C 197.509 3.01133 7.08783 0
M  V30 8362 C 196.779 4.12613 6.37049 0
M  V30 8363 O 196.569 3.72827 4.97879 0
M  V30 8364 C 195.379 4.45085 6.88694 0
M  V30 8365 O 194.989 5.7877 6.5624 0
M  V30 8366 C 194.499 3.47817 6.12078 0
M  V30 8367 C 195.209 3.39414 4.77697 0
M  V30 8368 N 195.159 2.04615 4.15333 0
M  V30 8369 H 197.998 3.41248 7.98759 0
M  V30 8370 H 198.27 2.5837 6.41742 0
M  V30 8371 H 197.402 5.02657 6.42673 0
M  V30 8372 P 193.439 6.144 6.45285 0
M  V30 8373 O 193.219 7.54673 6.86199 0
M  V30 8374 O 192.649 5.12391 7.179 0
M  V30 8375 O 193.189 5.99158 4.88404 0
M  V30 8376 C 194.129 6.60234 3.96415 0
M  V30 8377 C 193.399 7.08259 2.72856 0
M  V30 8378 O 193.189 5.9427 1.83651 0
M  V30 8379 C 191.999 7.64886 2.9555 0
M  V30 8380 O 191.609 8.53963 1.90717 0
M  V30 8381 C 191.119 6.4116 2.90739 0
M  V30 8382 C 191.829 5.55375 1.86963 0
M  V30 8383 N 191.779 4.09664 2.15742 0
M  V30 8384 H 194.618 7.45574 4.45629 0
M  V30 8385 H 194.89 5.86232 3.67314 0
M  V30 8386 H 194.022 7.84412 2.24479 0
M  V30 8387 P 190.059 8.7635 1.60911 0
M  V30 8388 O 189.839 10.1388 1.11561 0
M  V30 8389 O 189.269 8.36503 2.79617 0
M  V30 8390 O 189.809 7.71806 0.42951 0
M  V30 8391 C 190.749 7.67148 -0.673689 0
M  V30 8392 C 190.019 7.33374 -1.95559 0
M  V30 8393 O 189.809 5.88721 -2.00726 0
M  V30 8394 C 188.619 7.92526 -2.10483 0
M  V30 8395 O 188.229 8.02971 -3.47653 0
M  V30 8396 C 187.739 6.89602 -1.41652 0
M  V30 8397 C 188.449 5.59201 -1.75185 0
M  V30 8398 N 188.399 4.58235 -0.662552 0
M  V30 8399 H 191.238 8.65116 -0.777161 0
M  V30 8400 H 191.51 6.90173 -0.474152 0
M  V30 8401 H 190.642 7.66548 -2.79458 0
M  V30 8402 P 186.679 8.03563 -3.84925 0
M  V30 8403 O 186.459 8.85821 -5.0569 0
M  V30 8404 O 185.889 8.41101 -2.65469 0
M  V30 8405 O 186.429 6.4965 -4.18908 0
M  V30 8406 C 187.369 5.81037 -5.05421 0
M  V30 8407 C 186.639 4.78366 -5.89277 0
M  V30 8408 O 186.429 3.58302 -5.08433 0
M  V30 8409 C 185.239 5.17448 -6.36119 0
M  V30 8410 O 184.849 4.45271 -7.53232 0
M  V30 8411 C 184.359 4.74639 -5.19936 0
M  V30 8412 C 185.069 3.49432 -4.70418 0
M  V30 8413 N 185.019 3.31776 -3.22945 0
M  V30 8414 H 187.858 6.54213 -5.71376 0
M  V30 8415 H 188.13 5.30492 -4.44033 0
M  V30 8416 H 187.262 4.55889 -6.76652 0
M  V30 8417 P 183.299 4.23843 -7.83734 0
M  V30 8418 O 183.079 4.19407 -9.29784 0
M  V30 8419 O 182.509 5.24426 -7.09156 0
M  V30 8420 O 183.049 2.7935 -7.20758 0
M  V30 8421 C 183.989 1.7299 -7.50419 0
M  V30 8422 C 183.259 0.406376 -7.57911 0
M  V30 8423 O 183.049 -0.0897726 -6.21935 0
M  V30 8424 C 181.859 0.447224 -8.1878 0
M  V30 8425 O 181.469 -0.825065 -8.71101 0
M  V30 8426 C 180.979 0.783801 -6.99623 0
M  V30 8427 C 181.689 0.0619192 -5.85967 0
M  V30 8428 N 181.639 0.7859 -4.56281 0
M  V30 8429 H 184.478 1.93423 -8.4679 0
M  V30 8430 H 184.75 1.68181 -6.71046 0
M  V30 8431 H 183.882 -0.289041 -8.15388 0
M  V30 8432 P 179.919 -1.17771 -8.83182 0
M  V30 8433 O 179.699 -2.07206 -9.98732 0
M  V30 8434 O 179.129 0.0743816 -8.81969 0
M  V30 8435 O 179.669 -1.97652 -7.47304 0
M  V30 8436 C 180.609 -3.01133 -7.08783 0
M  V30 8437 C 179.879 -4.12613 -6.37049 0
M  V30 8438 O 179.669 -3.72827 -4.97879 0
M  V30 8439 C 178.479 -4.45085 -6.88694 0
M  V30 8440 O 178.089 -5.7877 -6.5624 0
M  V30 8441 C 177.599 -3.47817 -6.12078 0
M  V30 8442 C 178.309 -3.39414 -4.77697 0
M  V30 8443 N 178.259 -2.04615 -4.15333 0
M  V30 8444 H 181.098 -3.41248 -7.98759 0
M  V30 8445 H 181.37 -2.5837 -6.41742 0
M  V30 8446 H 180.502 -5.02657 -6.42673 0
M  V30 8447 P 176.539 -6.144 -6.45285 0
M  V30 8448 O 176.319 -7.54673 -6.86199 0
M  V30 8449 O 175.749 -5.12391 -7.179 0
M  V30 8450 O 176.289 -5.99158 -4.88404 0
M  V30 8451 C 177.229 -6.60234 -3.96415 0
M  V30 8452 C 176.499 -7.08259 -2.72856 0
M  V30 8453 O 176.289 -5.9427 -1.83651 0
M  V30 8454 C 175.099 -7.64886 -2.9555 0
M  V30 8455 O 174.709 -8.53963 -1.90717 0
M  V30 8456 C 174.219 -6.4116 -2.90739 0
M  V30 8457 C 174.929 -5.55375 -1.86963 0
M  V30 8458 N 174.879 -4.09664 -2.15742 0
M  V30 8459 H 177.718 -7.45574 -4.45629 0
M  V30 8460 H 177.99 -5.86232 -3.67314 0
M  V30 8461 H 177.122 -7.84412 -2.24479 0
M  V30 8462 P 173.159 -8.7635 -1.60911 0
M  V30 8463 O 172.939 -10.1388 -1.11561 0
M  V30 8464 O 172.369 -8.36503 -2.79617 0
M  V30 8465 O 172.909 -7.71806 -0.42951 0
M  V30 8466 C 173.849 -7.67148 0.673689 0
M  V30 8467 C 173.119 -7.33374 1.95559 0
M  V30 8468 O 172.909 -5.88721 2.00726 0
M  V30 8469 C 171.719 -7.92526 2.10483 0
M  V30 8470 O 171.329 -8.02971 3.47653 0
M  V30 8471 C 170.839 -6.89602 1.41652 0
M  V30 8472 C 171.549 -5.59201 1.75185 0
M  V30 8473 N 171.499 -4.58235 0.662552 0
M  V30 8474 H 174.338 -8.65116 0.777161 0
M  V30 8475 H 174.61 -6.90173 0.474152 0
M  V30 8476 H 173.742 -7.66548 2.79458 0
M  V30 8477 P 169.779 -8.03563 3.84925 0
M  V30 8478 O 169.559 -8.85821 5.0569 0
M  V30 8479 O 168.989 -8.41101 2.65469 0
M  V30 8480 O 169.529 -6.4965 4.18908 0
M  V30 8481 C 170.469 -5.81037 5.05421 0
M  V30 8482 C 169.739 -4.78366 5.89277 0
M  V30 8483 O 169.529 -3.58302 5.08433 0
M  V30 8484 C 168.339 -5.17448 6.36119 0
M  V30 8485 O 167.949 -4.45271 7.53232 0
M  V30 8486 C 167.459 -4.74639 5.19936 0
M  V30 8487 C 168.169 -3.49432 4.70418 0
M  V30 8488 N 168.119 -3.32099 3.22613 0
M  V30 8489 H 170.958 -6.54213 5.71376 0
M  V30 8490 H 171.23 -5.30936 4.43503 0
M  V30 8491 H 170.362 -4.55889 6.76652 0
M  V30 8492 H 167.707 -2.61715 5.17932 0
M  V30 8493 H 167.427 -5.52155 4.41878 0
M  V30 8494 H 166.436 -4.51981 5.53374 0
M  V30 8495 H 168.27 -6.25124 6.55234 0
M  V30 8496 P 166.399 -4.23843 7.83734 0
M  V30 8497 O 166.179 -4.19407 9.29784 0
M  V30 8498 O 165.609 -5.24426 7.09156 0
M  V30 8499 O 166.149 -2.7935 7.20758 0
M  V30 8500 C 167.089 -1.7299 7.50419 0
M  V30 8501 C 166.359 -0.406376 7.57911 0
M  V30 8502 O 166.149 0.0897726 6.21935 0
M  V30 8503 C 164.959 -0.447224 8.1878 0
M  V30 8504 O 164.569 0.825065 8.71101 0
M  V30 8505 C 164.079 -0.783801 6.99623 0
M  V30 8506 C 164.789 -0.0619192 5.85967 0
M  V30 8507 N 164.739 -0.7859 4.56281 0
M  V30 8508 H 167.578 -1.93423 8.4679 0
M  V30 8509 H 167.85 -1.68181 6.71046 0
M  V30 8510 H 166.982 0.289041 8.15388 0
M  V30 8511 P 163.019 1.17771 8.83182 0
M  V30 8512 O 162.799 2.07206 9.98732 0
M  V30 8513 O 162.229 -0.0743816 8.81969 0
M  V30 8514 O 162.769 1.97652 7.47304 0
M  V30 8515 C 163.709 3.01055 7.08599 0
M  V30 8516 C 162.979 4.12613 6.37049 0
M  V30 8517 O 162.769 3.72827 4.97879 0
M  V30 8518 C 161.579 4.45719 6.88164 0
M  V30 8519 O 161.189 5.7877 6.5624 0
M  V30 8520 C 160.699 3.47768 6.11991 0
M  V30 8521 C 161.409 3.39356 4.77615 0
M  V30 8522 N 161.359 2.04571 4.15244 0
M  V30 8523 C 161.209 1.98587 2.78314 0
M  V30 8524 O 161.119 2.98134 2.08835 0
M  V30 8525 N 161.169 0.714467 2.24925 0
M  V30 8526 C 161.259 -0.470001 2.94169 0
M  V30 8527 O 161.209 -1.55587 2.35195 0
M  V30 8528 C 161.409 -0.312541 4.36783 0
M  V30 8529 C 161.519 -1.57711 5.16352 0
M  V30 8530 C 161.459 0.914512 4.92583 0
M  V30 8531 H 164.2 3.41169 7.98575 0
M  V30 8532 H 164.469 2.58295 6.41556 0
M  V30 8533 H 163.602 5.02657 6.42673 0
M  V30 8534 H 160.947 4.11637 4.08885 0
M  V30 8535 H 160.668 2.49626 6.61679 0
M  V30 8536 H 159.676 3.86566 6.00778 0
M  V30 8537 H 161.51 4.29943 7.96918 0
M  V30 8538 H 161.581 1.00937 6.00374 0
M  V30 8539 H 160.551 -1.80153 5.63503 0
M  V30 8540 H 162.288 -1.4566 5.94104 0
M  V30 8541 H 161.8 -2.40664 4.49645 0
M  V30 8542 H 161.064 0.647622 1.25697 0
M  V30 8543 P 159.639 6.144 6.45285 0
M  V30 8544 O 159.419 7.54673 6.86199 0
M  V30 8545 O 158.849 5.12391 7.179 0
M  V30 8546 O 159.389 5.99158 4.88404 0
M  V30 8547 C 160.329 6.60234 3.96415 0
M  V30 8548 C 159.599 7.08259 2.72856 0
M  V30 8549 O 159.389 5.9427 1.83651 0
M  V30 8550 C 158.199 7.64886 2.9555 0
M  V30 8551 O 157.809 8.53963 1.90717 0
M  V30 8552 C 157.319 6.4116 2.90739 0
M  V30 8553 C 158.029 5.55375 1.86963 0
M  V30 8554 N 157.979 4.09664 2.15742 0
M  V30 8555 H 160.818 7.45574 4.45629 0
M  V30 8556 H 161.09 5.86232 3.67314 0
M  V30 8557 H 160.222 7.84412 2.24479 0
M  V30 8558 P 156.259 8.7635 1.60911 0
M  V30 8559 O 156.039 10.1388 1.11561 0
M  V30 8560 O 155.469 8.36503 2.79617 0
M  V30 8561 O 156.009 7.71806 0.42951 0
M  V30 8562 C 156.949 7.67148 -0.673689 0
M  V30 8563 C 156.219 7.33374 -1.95559 0
M  V30 8564 O 156.009 5.88721 -2.00726 0
M  V30 8565 C 154.819 7.92526 -2.10483 0
M  V30 8566 O 154.429 8.02971 -3.47653 0
M  V30 8567 C 153.939 6.89602 -1.41652 0
M  V30 8568 C 154.649 5.59201 -1.75185 0
M  V30 8569 N 154.599 4.58235 -0.662552 0
M  V30 8570 H 157.438 8.65116 -0.777161 0
M  V30 8571 H 157.71 6.90173 -0.474152 0
M  V30 8572 H 156.842 7.66548 -2.79458 0
M  V30 8573 P 152.879 8.03563 -3.84925 0
M  V30 8574 O 152.659 8.85821 -5.0569 0
M  V30 8575 O 152.089 8.41101 -2.65469 0
M  V30 8576 O 152.629 6.4965 -4.18908 0
M  V30 8577 C 153.569 5.81037 -5.05421 0
M  V30 8578 C 152.839 4.78366 -5.89277 0
M  V30 8579 O 152.629 3.58302 -5.08433 0
M  V30 8580 C 151.439 5.17448 -6.36119 0
M  V30 8581 O 151.049 4.45271 -7.53232 0
M  V30 8582 C 150.559 4.74639 -5.19936 0
M  V30 8583 C 151.269 3.49432 -4.70418 0
M  V30 8584 N 151.219 3.31776 -3.22945 0
M  V30 8585 H 154.058 6.54213 -5.71376 0
M  V30 8586 H 154.33 5.30492 -4.44033 0
M  V30 8587 H 153.462 4.55889 -6.76652 0
M  V30 8588 P 149.499 4.23843 -7.83734 0
M  V30 8589 O 149.279 4.19407 -9.29784 0
M  V30 8590 O 148.709 5.24426 -7.09156 0
M  V30 8591 O 149.249 2.79386 -7.20852 0
M  V30 8592 C 150.189 1.7299 -7.50419 0
M  V30 8593 C 149.459 0.41401 -7.5797 0
M  V30 8594 O 149.249 -0.089787 -6.22035 0
M  V30 8595 C 148.059 0.447224 -8.1878 0
M  V30 8596 O 147.669 -0.825159 -8.71201 0
M  V30 8597 C 147.179 0.783801 -6.99623 0
M  V30 8598 C 147.889 0.0619192 -5.85967 0
M  V30 8599 N 147.839 0.7859 -4.56281 0
M  V30 8600 C 147.689 0.0359258 -3.39981 0
M  V30 8601 O 147.599 -1.19723 -3.49038 0
M  V30 8602 N 147.639 0.869151 -2.14025 0
M  V30 8603 C 147.739 2.01207 -2.14363 0
M  V30 8604 N 147.689 2.58978 -0.954287 0
M  V30 8605 C 147.889 2.80817 -3.32215 0
M  V30 8606 C 147.939 2.13785 -4.50884 0
M  V30 8607 H 150.679 1.93401 -8.46693 0
M  V30 8608 H 150.949 1.68181 -6.71046 0
M  V30 8609 H 150.082 -0.289076 -8.15488 0
M  V30 8610 H 147.427 -0.927166 -5.72947 0
M  V30 8611 H 147.147 1.87 -6.82132 0
M  V30 8612 H 146.156 0.404009 -7.13457 0
M  V30 8613 H 147.99 1.20599 -8.97534 0
M  V30 8614 H 148.062 2.70295 -5.43162 0
M  V30 8615 H 147.96 3.89465 -3.27406 0
M  V30 8616 H 147.572 2.01616 -0.107046 0
M  V30 8617 H 147.768 3.61403 -0.873101 0
M  V30 8618 P 146.119 -1.17771 -8.83182 0
M  V30 8619 O 145.899 -2.07206 -9.98732 0
M  V30 8620 O 145.329 0.0743816 -8.81969 0
M  V30 8621 O 145.869 -1.97652 -7.47304 0
M  V30 8622 C 146.809 -3.01133 -7.08783 0
M  V30 8623 C 146.079 -4.12613 -6.37049 0
M  V30 8624 O 145.869 -3.72827 -4.97879 0
M  V30 8625 C 144.679 -4.45085 -6.88694 0
M  V30 8626 O 144.289 -5.7877 -6.5624 0
M  V30 8627 C 143.799 -3.47817 -6.12078 0
M  V30 8628 C 144.509 -3.39414 -4.77697 0
M  V30 8629 N 144.459 -2.04615 -4.15333 0
M  V30 8630 H 147.298 -3.41248 -7.98759 0
M  V30 8631 H 147.57 -2.5837 -6.41742 0
M  V30 8632 H 146.702 -5.02657 -6.42673 0
M  V30 8633 P 142.739 -6.144 -6.45285 0
M  V30 8634 O 142.519 -7.54673 -6.86199 0
M  V30 8635 O 141.949 -5.12391 -7.179 0
M  V30 8636 O 142.489 -5.99158 -4.88404 0
M  V30 8637 C 143.429 -6.60234 -3.96415 0
M  V30 8638 C 142.699 -7.08259 -2.72856 0
M  V30 8639 O 142.489 -5.9427 -1.83651 0
M  V30 8640 C 141.299 -7.64886 -2.9555 0
M  V30 8641 O 140.909 -8.53963 -1.90717 0
M  V30 8642 C 140.419 -6.4116 -2.90739 0
M  V30 8643 C 141.129 -5.55375 -1.86963 0
M  V30 8644 N 141.079 -4.09664 -2.15742 0
M  V30 8645 H 143.918 -7.45574 -4.45629 0
M  V30 8646 H 144.19 -5.86232 -3.67314 0
M  V30 8647 H 143.322 -7.84412 -2.24479 0
M  V30 8648 P 139.359 -8.7635 -1.60911 0
M  V30 8649 O 139.139 -10.1388 -1.11561 0
M  V30 8650 O 138.569 -8.36503 -2.79617 0
M  V30 8651 O 139.109 -7.71806 -0.42951 0
M  V30 8652 C 140.049 -7.67148 0.673689 0
M  V30 8653 C 139.319 -7.33374 1.95559 0
M  V30 8654 O 139.109 -5.88721 2.00726 0
M  V30 8655 C 137.919 -7.92526 2.10483 0
M  V30 8656 O 137.529 -8.02971 3.47653 0
M  V30 8657 C 137.039 -6.89602 1.41652 0
M  V30 8658 C 137.749 -5.59201 1.75185 0
M  V30 8659 N 137.699 -4.58235 0.662552 0
M  V30 8660 H 140.538 -8.65116 0.777161 0
M  V30 8661 H 140.81 -6.90173 0.474152 0
M  V30 8662 H 139.942 -7.66548 2.79458 0
M  V30 8663 P 135.979 -8.03563 3.84925 0
M  V30 8664 O 135.759 -8.85821 5.0569 0
M  V30 8665 O 135.189 -8.41101 2.65469 0
M  V30 8666 O 135.729 -6.4965 4.18908 0
M  V30 8667 C 136.669 -5.81037 5.05421 0
M  V30 8668 C 135.939 -4.78366 5.89277 0
M  V30 8669 O 135.729 -3.58302 5.08433 0
M  V30 8670 C 134.539 -5.17448 6.36119 0
M  V30 8671 O 134.149 -4.45271 7.53232 0
M  V30 8672 C 133.659 -4.74639 5.19936 0
M  V30 8673 C 134.369 -3.49432 4.70418 0
M  V30 8674 N 134.319 -3.31776 3.22945 0
M  V30 8675 H 137.158 -6.54213 5.71376 0
M  V30 8676 H 137.43 -5.30492 4.44033 0
M  V30 8677 H 136.562 -4.55889 6.76652 0
M  V30 8678 P 132.599 -4.23843 7.83734 0
M  V30 8679 O 132.379 -4.19407 9.29784 0
M  V30 8680 O 131.809 -5.24426 7.09156 0
M  V30 8681 O 132.349 -2.7935 7.20758 0
M  V30 8682 C 133.289 -1.7299 7.50419 0
M  V30 8683 C 132.559 -0.406376 7.57911 0
M  V30 8684 O 132.349 0.0897726 6.21935 0
M  V30 8685 C 131.159 -0.447224 8.1878 0
M  V30 8686 O 130.769 0.825065 8.71101 0
M  V30 8687 C 130.279 -0.783801 6.99623 0
M  V30 8688 C 130.989 -0.0619192 5.85967 0
M  V30 8689 N 130.939 -0.790462 4.56202 0
M  V30 8690 H 133.778 -1.93423 8.4679 0
M  V30 8691 H 134.05 -1.68852 6.70877 0
M  V30 8692 H 133.182 0.289041 8.15388 0
M  V30 8693 H 130.527 0.927006 5.72848 0
M  V30 8694 H 130.247 -1.86973 6.82036 0
M  V30 8695 H 129.256 -0.403953 7.13357 0
M  V30 8696 H 131.09 -1.20599 8.97534 0
M  V30 8697 P 129.219 1.17771 8.83182 0
M  V30 8698 O 128.999 2.07206 9.98732 0
M  V30 8699 O 128.429 -0.0743816 8.81969 0
M  V30 8700 O 128.969 1.97652 7.47304 0
M  V30 8701 C 129.909 3.01133 7.08783 0
M  V30 8702 C 129.179 4.12613 6.37049 0
M  V30 8703 O 128.969 3.72827 4.97879 0
M  V30 8704 C 127.779 4.45085 6.88694 0
M  V30 8705 O 127.389 5.7877 6.5624 0
M  V30 8706 C 126.899 3.47817 6.12078 0
M  V30 8707 C 127.609 3.39414 4.77697 0
M  V30 8708 N 127.559 2.04615 4.15333 0
M  V30 8709 H 130.398 3.41248 7.98759 0
M  V30 8710 H 130.67 2.5837 6.41742 0
M  V30 8711 H 129.802 5.02657 6.42673 0
M  V30 8712 P 125.839 6.144 6.45285 0
M  V30 8713 O 125.619 7.54673 6.86199 0
M  V30 8714 O 125.049 5.12391 7.179 0
M  V30 8715 O 125.589 5.99158 4.88404 0
M  V30 8716 C 126.529 6.60234 3.96415 0
M  V30 8717 C 125.799 7.08259 2.72856 0
M  V30 8718 O 125.589 5.9427 1.83651 0
M  V30 8719 C 124.399 7.64886 2.9555 0
M  V30 8720 O 124.009 8.53963 1.90717 0
M  V30 8721 C 123.519 6.4116 2.90739 0
M  V30 8722 C 124.229 5.55375 1.86963 0
M  V30 8723 N 124.179 4.09448 2.16152 0
M  V30 8724 H 127.018 7.45574 4.45629 0
M  V30 8725 H 127.29 5.85864 3.679 0
M  V30 8726 H 126.422 7.84412 2.24479 0
M  V30 8727 H 123.767 5.73457 0.888562 0
M  V30 8728 H 123.487 5.90877 3.88583 0
M  V30 8729 H 122.496 6.6596 2.58858 0
M  V30 8730 H 124.33 8.16339 3.92049 0
M  V30 8731 P 122.459 8.7635 1.60911 0
M  V30 8732 O 122.239 10.1388 1.11561 0
M  V30 8733 O 121.669 8.36503 2.79617 0
M  V30 8734 O 122.209 7.71806 0.42951 0
M  V30 8735 C 123.149 7.67148 -0.673689 0
M  V30 8736 C 122.419 7.33374 -1.95559 0
M  V30 8737 O 122.209 5.88721 -2.00726 0
M  V30 8738 C 121.019 7.92526 -2.10483 0
M  V30 8739 O 120.629 8.02971 -3.47653 0
M  V30 8740 C 120.139 6.89602 -1.41652 0
M  V30 8741 C 120.849 5.59201 -1.75185 0
M  V30 8742 N 120.799 4.58235 -0.662552 0
M  V30 8743 H 123.638 8.65116 -0.777161 0
M  V30 8744 H 123.91 6.90173 -0.474152 0
M  V30 8745 H 123.042 7.66548 -2.79458 0
M  V30 8746 P 119.079 8.03563 -3.84925 0
M  V30 8747 O 118.859 8.85821 -5.0569 0
M  V30 8748 O 118.289 8.41101 -2.65469 0
M  V30 8749 O 118.829 6.49734 -4.18962 0
M  V30 8750 C 119.769 5.81037 -5.05421 0
M  V30 8751 C 119.039 4.79018 -5.88876 0
M  V30 8752 O 118.829 3.58359 -5.08515 0
M  V30 8753 C 117.639 5.17448 -6.36119 0
M  V30 8754 O 117.249 4.45322 -7.53318 0
M  V30 8755 C 116.759 4.74639 -5.19936 0
M  V30 8756 C 117.469 3.49432 -4.70418 0
M  V30 8757 N 117.419 3.31776 -3.22945 0
M  V30 8758 C 117.269 2.02742 -2.72939 0
M  V30 8759 O 117.179 1.08301 -3.52749 0
M  V30 8760 N 117.219 1.96117 -1.22063 0
M  V30 8761 C 117.319 2.8878 -0.551566 0
M  V30 8762 N 117.269 2.65609 0.750198 0
M  V30 8763 C 117.469 4.22457 -1.03707 0
M  V30 8764 C 117.519 4.37979 -2.39113 0
M  V30 8765 H 120.259 6.54138 -5.7131 0
M  V30 8766 H 120.529 5.30492 -4.44033 0
M  V30 8767 H 119.662 4.55945 -6.76735 0
M  V30 8768 H 117.007 2.6176 -5.18021 0
M  V30 8769 H 116.727 5.52233 -4.41941 0
M  V30 8770 H 115.736 4.52045 -5.53452 0
M  V30 8771 H 117.57 6.25124 -6.55234 0
M  V30 8772 H 117.642 5.37936 -2.80552 0
M  V30 8773 H 117.54 5.07528 -0.359553 0
M  V30 8774 H 117.152 1.69403 1.09847 0
M  V30 8775 H 117.348 3.43701 1.41792 0
M  V30 8776 P 115.699 4.23843 -7.83734 0
M  V30 8777 O 115.479 4.19407 -9.29784 0
M  V30 8778 O 114.909 5.24426 -7.09156 0
M  V30 8779 O 115.449 2.79386 -7.20852 0
M  V30 8780 C 116.389 1.7299 -7.50419 0
M  V30 8781 C 115.659 0.41401 -7.5797 0
M  V30 8782 O 115.449 -0.089787 -6.22035 0
M  V30 8783 C 114.259 0.447224 -8.1878 0
M  V30 8784 O 113.869 -0.825159 -8.71201 0
M  V30 8785 C 113.379 0.783801 -6.99623 0
M  V30 8786 C 114.089 0.0619192 -5.85967 0
M  V30 8787 N 114.039 0.7859 -4.56281 0
M  V30 8788 C 113.889 0.0359258 -3.39981 0
M  V30 8789 O 113.799 -1.19723 -3.49038 0
M  V30 8790 N 113.839 0.869151 -2.14025 0
M  V30 8791 C 113.939 2.01207 -2.14363 0
M  V30 8792 N 113.889 2.58978 -0.954287 0
M  V30 8793 C 114.089 2.80817 -3.32215 0
M  V30 8794 C 114.139 2.13785 -4.50884 0
M  V30 8795 H 116.879 1.93401 -8.46693 0
M  V30 8796 H 117.149 1.68181 -6.71046 0
M  V30 8797 H 116.282 -0.289076 -8.15488 0
M  V30 8798 H 113.627 -0.927166 -5.72947 0
M  V30 8799 H 113.347 1.87 -6.82132 0
M  V30 8800 H 112.356 0.404009 -7.13457 0
M  V30 8801 H 114.19 1.20599 -8.97534 0
M  V30 8802 H 114.262 2.70295 -5.43162 0
M  V30 8803 H 114.16 3.89465 -3.27406 0
M  V30 8804 H 113.772 2.01616 -0.107046 0
M  V30 8805 H 113.968 3.61403 -0.873101 0
M  V30 8806 P 112.319 -1.17771 -8.83182 0
M  V30 8807 O 112.099 -2.07206 -9.98732 0
M  V30 8808 O 111.529 0.0743816 -8.81969 0
M  V30 8809 O 112.069 -1.97652 -7.47304 0
M  V30 8810 C 113.009 -3.01133 -7.08783 0
M  V30 8811 C 112.279 -4.12613 -6.37049 0
M  V30 8812 O 112.069 -3.72827 -4.97879 0
M  V30 8813 C 110.879 -4.45085 -6.88694 0
M  V30 8814 O 110.489 -5.7877 -6.5624 0
M  V30 8815 C 109.999 -3.47817 -6.12078 0
M  V30 8816 C 110.709 -3.39414 -4.77697 0
M  V30 8817 N 110.659 -2.04615 -4.15333 0
M  V30 8818 C 110.739 -0.803897 -4.75249 0
M  V30 8819 N 110.659 0.197615 -3.91502 0
M  V30 8820 C 110.519 -0.413002 -2.66823 0
M  V30 8821 C 110.389 0.157221 -1.38007 0
M  V30 8822 O 110.369 1.34419 -1.057 0
M  V30 8823 N 110.269 -0.833136 -0.390236 0
M  V30 8824 C 110.269 -2.19402 -0.623885 0
M  V30 8825 N 110.139 -2.97622 0.449677 0
M  V30 8826 N 110.399 -2.73005 -1.83601 0
M  V30 8827 C 110.519 -1.78786 -2.80935 0
M  V30 8828 H 113.498 -3.41248 -7.98759 0
M  V30 8829 H 113.77 -2.5837 -6.41742 0
M  V30 8830 H 112.902 -5.02657 -6.42673 0
M  V30 8831 H 110.247 -4.11779 -4.09026 0
M  V30 8832 H 109.967 -2.49661 -6.61772 0
M  V30 8833 H 108.976 -3.86674 -6.00946 0
M  V30 8834 H 110.81 -4.30038 -7.97094 0
M  V30 8835 H 110.859 -0.670579 -5.82754 0
M  V30 8836 H 110.177 -0.528446 0.557287 0
M  V30 8837 H 110.14 -4.00117 0.344773 0
M  V30 8838 H 110.039 -2.55448 1.38544 0
M  V30 8839 P 108.939 -6.144 -6.45285 0
M  V30 8840 O 108.719 -7.54673 -6.86199 0
M  V30 8841 O 108.149 -5.12391 -7.179 0
M  V30 8842 O 108.689 -5.99158 -4.88404 0
M  V30 8843 C 109.629 -6.60234 -3.96415 0
M  V30 8844 C 108.899 -7.08259 -2.72856 0
M  V30 8845 O 108.689 -5.9427 -1.83651 0
M  V30 8846 C 107.499 -7.64886 -2.9555 0
M  V30 8847 O 107.109 -8.53963 -1.90717 0
M  V30 8848 C 106.619 -6.4116 -2.90739 0
M  V30 8849 C 107.329 -5.55375 -1.86963 0
M  V30 8850 N 107.279 -4.09664 -2.15742 0
M  V30 8851 H 110.118 -7.45574 -4.45629 0
M  V30 8852 H 110.39 -5.86232 -3.67314 0
M  V30 8853 H 109.522 -7.84412 -2.24479 0
M  V30 8854 P 105.559 -8.7635 -1.60911 0
M  V30 8855 O 105.339 -10.1388 -1.11561 0
M  V30 8856 O 104.769 -8.36503 -2.79617 0
M  V30 8857 O 105.309 -7.71806 -0.42951 0
M  V30 8858 C 106.249 -7.67148 0.673689 0
M  V30 8859 C 105.519 -7.33374 1.95559 0
M  V30 8860 O 105.309 -5.88721 2.00726 0
M  V30 8861 C 104.119 -7.92526 2.10483 0
M  V30 8862 O 103.729 -8.02971 3.47653 0
M  V30 8863 C 103.239 -6.89602 1.41652 0
M  V30 8864 C 103.949 -5.59201 1.75185 0
M  V30 8865 N 103.899 -4.58235 0.662552 0
M  V30 8866 H 106.738 -8.65116 0.777161 0
M  V30 8867 H 107.01 -6.90173 0.474152 0
M  V30 8868 H 106.142 -7.66548 2.79458 0
M  V30 8869 P 102.179 -8.03563 3.84925 0
M  V30 8870 O 101.959 -8.85821 5.0569 0
M  V30 8871 O 101.389 -8.41101 2.65469 0
M  V30 8872 O 101.929 -6.4965 4.18908 0
M  V30 8873 C 102.869 -5.81037 5.05421 0
M  V30 8874 C 102.139 -4.78366 5.89277 0
M  V30 8875 O 101.929 -3.58302 5.08433 0
M  V30 8876 C 100.739 -5.17448 6.36119 0
M  V30 8877 O 100.349 -4.45271 7.53232 0
M  V30 8878 C 99.8594 -4.74639 5.19936 0
M  V30 8879 C 100.569 -3.49432 4.70418 0
M  V30 8880 N 100.519 -3.32099 3.22613 0
M  V30 8881 H 103.358 -6.54213 5.71376 0
M  V30 8882 H 103.63 -5.30936 4.43503 0
M  V30 8883 H 102.762 -4.55889 6.76652 0
M  V30 8884 H 100.107 -2.61715 5.17932 0
M  V30 8885 H 99.8274 -5.52155 4.41878 0
M  V30 8886 H 98.8364 -4.51981 5.53374 0
M  V30 8887 H 100.67 -6.25124 6.55234 0
M  V30 8888 P 98.7994 -4.23843 7.83734 0
M  V30 8889 O 98.5794 -4.19407 9.29784 0
M  V30 8890 O 98.0094 -5.24426 7.09156 0
M  V30 8891 O 98.5494 -2.7935 7.20758 0
M  V30 8892 C 99.4894 -1.7299 7.50419 0
M  V30 8893 C 98.7594 -0.406376 7.57911 0
M  V30 8894 O 98.5494 0.0897726 6.21935 0
M  V30 8895 C 97.3594 -0.447224 8.1878 0
M  V30 8896 O 96.9694 0.825065 8.71101 0
M  V30 8897 C 96.4794 -0.783801 6.99623 0
M  V30 8898 C 97.1894 -0.0619192 5.85967 0
M  V30 8899 N 97.1394 -0.7859 4.56281 0
M  V30 8900 H 99.9784 -1.93423 8.4679 0
M  V30 8901 H 100.25 -1.68181 6.71046 0
M  V30 8902 H 99.3824 0.289041 8.15388 0
M  V30 8903 P 95.4195 1.17771 8.83182 0
M  V30 8904 O 95.1995 2.07206 9.98732 0
M  V30 8905 O 94.6295 -0.0743816 8.81969 0
M  V30 8906 O 95.1695 1.97652 7.47304 0
M  V30 8907 C 96.1095 3.01133 7.08783 0
M  V30 8908 C 95.3795 4.12613 6.37049 0
M  V30 8909 O 95.1695 3.72827 4.97879 0
M  V30 8910 C 93.9795 4.45085 6.88694 0
M  V30 8911 O 93.5895 5.7877 6.5624 0
M  V30 8912 C 93.0995 3.47817 6.12078 0
M  V30 8913 C 93.8095 3.39414 4.77697 0
M  V30 8914 N 93.7595 2.04615 4.15333 0
M  V30 8915 H 96.5985 3.41248 7.98759 0
M  V30 8916 H 96.8705 2.5837 6.41742 0
M  V30 8917 H 96.0025 5.02657 6.42673 0
M  V30 8918 P 92.0395 6.144 6.45285 0
M  V30 8919 O 91.8195 7.54673 6.86199 0
M  V30 8920 O 91.2495 5.12391 7.179 0
M  V30 8921 O 91.7895 5.99158 4.88404 0
M  V30 8922 C 92.7295 6.60062 3.96313 0
M  V30 8923 C 91.9995 7.08259 2.72856 0
M  V30 8924 O 91.7895 5.9427 1.83651 0
M  V30 8925 C 90.5995 7.65087 2.94749 0
M  V30 8926 O 90.2095 8.53963 1.90717 0
M  V30 8927 C 89.7195 6.41069 2.90698 0
M  V30 8928 C 90.4295 5.5528 1.86931 0
M  V30 8929 N 90.3795 4.09575 2.15696 0
M  V30 8930 C 90.2295 3.24249 1.08435 0
M  V30 8931 O 90.1395 3.63946 -0.0628747 0
M  V30 8932 N 90.1895 1.90009 1.39973 0
M  V30 8933 C 90.2795 1.34884 2.65614 0
M  V30 8934 C 90.4295 2.3145 3.71736 0
M  V30 8935 C 90.4795 3.63518 3.44754 0
M  V30 8936 H 93.2205 7.45402 4.45526 0
M  V30 8937 H 93.4895 5.86062 3.67208 0
M  V30 8938 H 92.6225 7.84412 2.24479 0
M  V30 8939 H 89.9675 5.73358 0.888409 0
M  V30 8940 H 89.6885 5.90877 3.88583 0
M  V30 8941 H 88.6965 6.65867 2.58821 0
M  V30 8942 H 90.5305 8.16248 3.92006 0
M  V30 8943 H 90.6015 4.34551 4.26383 0
M  V30 8944 P 88.6595 8.7635 1.60911 0
M  V30 8945 O 88.4395 10.1388 1.11561 0
M  V30 8946 O 87.8695 8.36503 2.79617 0
M  V30 8947 O 88.4095 7.71806 0.42951 0
M  V30 8948 C 89.3495 7.67148 -0.673689 0
M  V30 8949 C 88.6195 7.33374 -1.95559 0
M  V30 8950 O 88.4095 5.88721 -2.00726 0
M  V30 8951 C 87.2195 7.92526 -2.10483 0
M  V30 8952 O 86.8295 8.02971 -3.47653 0
M  V30 8953 C 86.3395 6.89602 -1.41652 0
M  V30 8954 C 87.0495 5.59201 -1.75185 0
M  V30 8955 N 86.9995 4.58235 -0.662552 0
M  V30 8956 H 89.8385 8.65116 -0.777161 0
M  V30 8957 H 90.1105 6.90173 -0.474152 0
M  V30 8958 H 89.2425 7.66548 -2.79458 0
M  V30 8959 P 85.2795 8.03563 -3.84925 0
M  V30 8960 O 85.0595 8.85821 -5.0569 0
M  V30 8961 O 84.4895 8.41101 -2.65469 0
M  V30 8962 O 85.0295 6.4965 -4.18908 0
M  V30 8963 C 85.9695 5.81037 -5.05421 0
M  V30 8964 C 85.2395 4.78366 -5.89277 0
M  V30 8965 O 85.0295 3.58302 -5.08433 0
M  V30 8966 C 83.8395 5.17448 -6.36119 0
M  V30 8967 O 83.4495 4.45271 -7.53232 0
M  V30 8968 C 82.9595 4.74639 -5.19936 0
M  V30 8969 C 83.6695 3.49432 -4.70418 0
M  V30 8970 N 83.6195 3.31776 -3.22945 0
M  V30 8971 C 83.6995 4.27147 -2.23315 0
M  V30 8972 N 83.6195 3.78447 -1.02186 0
M  V30 8973 C 83.4795 2.41001 -1.21732 0
M  V30 8974 C 83.3495 1.36111 -0.27694 0
M  V30 8975 N 83.2295 0.113683 -0.912949 0
M  V30 8976 C 83.2295 -0.0846396 -2.27943 0
M  V30 8977 N 83.0995 -1.34737 -2.6916 0
M  V30 8978 N 83.3595 0.902521 -3.16379 0
M  V30 8979 C 83.4795 2.11937 -2.56849 0
M  V30 8980 H 86.4585 6.54213 -5.71376 0
M  V30 8981 H 86.7305 5.30492 -4.44033 0
M  V30 8982 H 85.8625 4.55889 -6.76652 0
M  V30 8983 P 81.8995 4.23843 -7.83734 0
M  V30 8984 O 81.6795 4.19407 -9.29784 0
M  V30 8985 O 81.1095 5.24426 -7.09156 0
M  V30 8986 O 81.6495 2.7935 -7.20758 0
M  V30 8987 C 82.5895 1.7299 -7.50419 0
M  V30 8988 C 81.8595 0.406376 -7.57911 0
M  V30 8989 O 81.6495 -0.0897726 -6.21935 0
M  V30 8990 C 80.4595 0.447224 -8.1878 0
M  V30 8991 O 80.0695 -0.825065 -8.71101 0
M  V30 8992 C 79.5795 0.783801 -6.99623 0
M  V30 8993 C 80.2895 0.0619192 -5.85967 0
M  V30 8994 N 80.2395 0.790462 -4.56202 0
M  V30 8995 H 83.0785 1.93423 -8.4679 0
M  V30 8996 H 83.3505 1.68852 -6.70877 0
M  V30 8997 H 82.4825 -0.289041 -8.15388 0
M  V30 8998 H 79.8275 -0.927006 -5.72848 0
M  V30 8999 H 79.5475 1.86973 -6.82036 0
M  V30 9000 H 78.5565 0.403953 -7.13357 0
M  V30 9001 H 80.3905 1.20599 -8.97534 0
M  V30 9002 P 78.5196 -1.17771 -8.83182 0
M  V30 9003 O 78.2996 -2.07206 -9.98732 0
M  V30 9004 O 77.7296 0.0743816 -8.81969 0
M  V30 9005 O 78.2696 -1.97652 -7.47304 0
M  V30 9006 C 79.2096 -3.01133 -7.08783 0
M  V30 9007 C 78.4796 -4.12613 -6.37049 0
M  V30 9008 O 78.2696 -3.72827 -4.97879 0
M  V30 9009 C 77.0796 -4.45085 -6.88694 0
M  V30 9010 O 76.6896 -5.7877 -6.5624 0
M  V30 9011 C 76.1996 -3.47817 -6.12078 0
M  V30 9012 C 76.9096 -3.39414 -4.77697 0
M  V30 9013 N 76.8596 -2.04615 -4.15333 0
M  V30 9014 H 79.6986 -3.41248 -7.98759 0
M  V30 9015 H 79.9706 -2.5837 -6.41742 0
M  V30 9016 H 79.1026 -5.02657 -6.42673 0
M  V30 9017 P 75.1396 -6.144 -6.45285 0
M  V30 9018 O 74.9196 -7.54673 -6.86199 0
M  V30 9019 O 74.3496 -5.12391 -7.179 0
M  V30 9020 O 74.8896 -5.99158 -4.88404 0
M  V30 9021 C 75.8296 -6.60234 -3.96415 0
M  V30 9022 C 75.0996 -7.08259 -2.72856 0
M  V30 9023 O 74.8896 -5.9427 -1.83651 0
M  V30 9024 C 73.6996 -7.64886 -2.9555 0
M  V30 9025 O 73.3096 -8.53963 -1.90717 0
M  V30 9026 C 72.8196 -6.4116 -2.90739 0
M  V30 9027 C 73.5296 -5.55375 -1.86963 0
M  V30 9028 N 73.4796 -4.09664 -2.15742 0
M  V30 9029 H 76.3186 -7.45574 -4.45629 0
M  V30 9030 H 76.5906 -5.86232 -3.67314 0
M  V30 9031 H 75.7226 -7.84412 -2.24479 0
M  V30 9032 P 71.7596 -8.7635 -1.60911 0
M  V30 9033 O 71.5396 -10.1388 -1.11561 0
M  V30 9034 O 70.9696 -8.36503 -2.79617 0
M  V30 9035 O 71.5096 -7.71806 -0.42951 0
M  V30 9036 C 72.4496 -7.67148 0.673689 0
M  V30 9037 C 71.7196 -7.33374 1.95559 0
M  V30 9038 O 71.5096 -5.88721 2.00726 0
M  V30 9039 C 70.3196 -7.92526 2.10483 0
M  V30 9040 O 69.9296 -8.02971 3.47653 0
M  V30 9041 C 69.4396 -6.89602 1.41652 0
M  V30 9042 C 70.1496 -5.59201 1.75185 0
M  V30 9043 N 70.0996 -4.58235 0.662552 0
M  V30 9044 H 72.9386 -8.65116 0.777161 0
M  V30 9045 H 73.2106 -6.90173 0.474152 0
M  V30 9046 H 72.3426 -7.66548 2.79458 0
M  V30 9047 P 68.3796 -8.03563 3.84925 0
M  V30 9048 O 68.1596 -8.85821 5.0569 0
M  V30 9049 O 67.5896 -8.41101 2.65469 0
M  V30 9050 O 68.1296 -6.4965 4.18908 0
M  V30 9051 C 69.0696 -5.81037 5.05421 0
M  V30 9052 C 68.3396 -4.78366 5.89277 0
M  V30 9053 O 68.1296 -3.58302 5.08433 0
M  V30 9054 C 66.9396 -5.17448 6.36119 0
M  V30 9055 O 66.5496 -4.45271 7.53232 0
M  V30 9056 C 66.0596 -4.74639 5.19936 0
M  V30 9057 C 66.7696 -3.49432 4.70418 0
M  V30 9058 N 66.7196 -3.32099 3.22613 0
M  V30 9059 H 69.5586 -6.54213 5.71376 0
M  V30 9060 H 69.8306 -5.30936 4.43503 0
M  V30 9061 H 68.9626 -4.55889 6.76652 0
M  V30 9062 H 66.3076 -2.61715 5.17932 0
M  V30 9063 H 66.0276 -5.52155 4.41878 0
M  V30 9064 H 65.0366 -4.51981 5.53374 0
M  V30 9065 H 66.8706 -6.25124 6.55234 0
M  V30 9066 P 64.9996 -4.23843 7.83734 0
M  V30 9067 O 64.7796 -4.19407 9.29784 0
M  V30 9068 O 64.2096 -5.24426 7.09156 0
M  V30 9069 O 64.7496 -2.7935 7.20758 0
M  V30 9070 C 65.6896 -1.7299 7.50419 0
M  V30 9071 C 64.9596 -0.406376 7.57911 0
M  V30 9072 O 64.7496 0.0897726 6.21935 0
M  V30 9073 C 63.5596 -0.447224 8.1878 0
M  V30 9074 O 63.1696 0.825065 8.71101 0
M  V30 9075 C 62.6796 -0.783801 6.99623 0
M  V30 9076 C 63.3896 -0.0619192 5.85967 0
M  V30 9077 N 63.3396 -0.790462 4.56202 0
M  V30 9078 H 66.1786 -1.93423 8.4679 0
M  V30 9079 H 66.4506 -1.68852 6.70877 0
M  V30 9080 H 65.5826 0.289041 8.15388 0
M  V30 9081 H 62.9276 0.927006 5.72848 0
M  V30 9082 H 62.6476 -1.86973 6.82036 0
M  V30 9083 H 61.6566 -0.403953 7.13357 0
M  V30 9084 H 63.4906 -1.20599 8.97534 0
M  V30 9085 P 61.6197 1.17771 8.83182 0
M  V30 9086 O 61.3997 2.07206 9.98732 0
M  V30 9087 O 60.8297 -0.0743816 8.81969 0
M  V30 9088 O 61.3697 1.97652 7.47304 0
M  V30 9089 C 62.3097 3.01133 7.08783 0
M  V30 9090 C 61.5797 4.12613 6.37049 0
M  V30 9091 O 61.3697 3.72827 4.97879 0
M  V30 9092 C 60.1797 4.45085 6.88694 0
M  V30 9093 O 59.7897 5.7877 6.5624 0
M  V30 9094 C 59.2997 3.47817 6.12078 0
M  V30 9095 C 60.0097 3.39414 4.77697 0
M  V30 9096 N 59.9597 2.04615 4.15333 0
M  V30 9097 H 62.7987 3.41248 7.98759 0
M  V30 9098 H 63.0707 2.5837 6.41742 0
M  V30 9099 H 62.2027 5.02657 6.42673 0
M  V30 9100 P 58.2397 6.144 6.45285 0
M  V30 9101 O 58.0197 7.54673 6.86199 0
M  V30 9102 O 57.4497 5.12391 7.179 0
M  V30 9103 O 57.9897 5.99158 4.88404 0
M  V30 9104 C 58.9297 6.60234 3.96415 0
M  V30 9105 C 58.1997 7.08259 2.72856 0
M  V30 9106 O 57.9897 5.9427 1.83651 0
M  V30 9107 C 56.7997 7.64886 2.9555 0
M  V30 9108 O 56.4097 8.53963 1.90717 0
M  V30 9109 C 55.9197 6.4116 2.90739 0
M  V30 9110 C 56.6297 5.55375 1.86963 0
M  V30 9111 N 56.5797 4.09664 2.15742 0
M  V30 9112 H 59.4187 7.45574 4.45629 0
M  V30 9113 H 59.6907 5.86232 3.67314 0
M  V30 9114 H 58.8227 7.84412 2.24479 0
M  V30 9115 P 54.8597 8.7635 1.60911 0
M  V30 9116 O 54.6397 10.1388 1.11561 0
M  V30 9117 O 54.0697 8.36503 2.79617 0
M  V30 9118 O 54.6097 7.71806 0.42951 0
M  V30 9119 C 55.5497 7.67148 -0.673689 0
M  V30 9120 C 54.8197 7.33374 -1.95559 0
M  V30 9121 O 54.6097 5.88721 -2.00726 0
M  V30 9122 C 53.4197 7.92526 -2.10483 0
M  V30 9123 O 53.0297 8.02971 -3.47653 0
M  V30 9124 C 52.5397 6.89602 -1.41652 0
M  V30 9125 C 53.2497 5.59201 -1.75185 0
M  V30 9126 N 53.1997 4.58235 -0.662552 0
M  V30 9127 H 56.0387 8.65116 -0.777161 0
M  V30 9128 H 56.3107 6.90173 -0.474152 0
M  V30 9129 H 55.4427 7.66548 -2.79458 0
M  V30 9130 P 51.4797 8.03563 -3.84925 0
M  V30 9131 O 51.2597 8.85821 -5.0569 0
M  V30 9132 O 50.6897 8.41101 -2.65469 0
M  V30 9133 O 51.2297 6.4965 -4.18908 0
M  V30 9134 C 52.1697 5.81037 -5.05421 0
M  V30 9135 C 51.4397 4.78366 -5.89277 0
M  V30 9136 O 51.2297 3.58302 -5.08433 0
M  V30 9137 C 50.0397 5.17448 -6.36119 0
M  V30 9138 O 49.6497 4.45271 -7.53232 0
M  V30 9139 C 49.1597 4.74639 -5.19936 0
M  V30 9140 C 49.8697 3.49432 -4.70418 0
M  V30 9141 N 49.8197 3.31776 -3.22945 0
M  V30 9142 H 52.6587 6.54213 -5.71376 0
M  V30 9143 H 52.9307 5.30492 -4.44033 0
M  V30 9144 H 52.0627 4.55889 -6.76652 0
M  V30 9145 P 48.0997 4.23843 -7.83734 0
M  V30 9146 O 47.8797 4.19407 -9.29784 0
M  V30 9147 O 47.3097 5.24426 -7.09156 0
M  V30 9148 O 47.8497 2.7935 -7.20758 0
M  V30 9149 C 48.7897 1.7299 -7.50419 0
M  V30 9150 C 48.0597 0.406376 -7.57911 0
M  V30 9151 O 47.8497 -0.0897726 -6.21935 0
M  V30 9152 C 46.6597 0.447224 -8.1878 0
M  V30 9153 O 46.2697 -0.825065 -8.71101 0
M  V30 9154 C 45.7797 0.783801 -6.99623 0
M  V30 9155 C 46.4897 0.0619192 -5.85967 0
M  V30 9156 N 46.4397 0.7859 -4.56281 0
M  V30 9157 H 49.2787 1.93423 -8.4679 0
M  V30 9158 H 49.5507 1.68181 -6.71046 0
M  V30 9159 H 48.6827 -0.289041 -8.15388 0
M  V30 9160 P 44.7198 -1.17771 -8.83182 0
M  V30 9161 O 44.4998 -2.07206 -9.98732 0
M  V30 9162 O 43.9298 0.0743816 -8.81969 0
M  V30 9163 O 44.4698 -1.97652 -7.47304 0
M  V30 9164 C 45.4098 -3.01133 -7.08783 0
M  V30 9165 C 44.6798 -4.12613 -6.37049 0
M  V30 9166 O 44.4698 -3.72827 -4.97879 0
M  V30 9167 C 43.2798 -4.45085 -6.88694 0
M  V30 9168 O 42.8898 -5.7877 -6.5624 0
M  V30 9169 C 42.3998 -3.47817 -6.12078 0
M  V30 9170 C 43.1098 -3.39414 -4.77697 0
M  V30 9171 N 43.0598 -2.04199 -4.15538 0
M  V30 9172 H 45.8988 -3.41248 -7.98759 0
M  V30 9173 H 46.1708 -2.57728 -6.42 0
M  V30 9174 H 45.3028 -5.02657 -6.42673 0
M  V30 9175 H 42.6478 -4.11708 -4.08956 0
M  V30 9176 H 42.3678 -2.49626 -6.61679 0
M  V30 9177 H 41.3768 -3.8662 -6.00862 0
M  V30 9178 H 43.2108 -4.29991 -7.97006 0
M  V30 9179 P 41.3398 -6.144 -6.45285 0
M  V30 9180 O 41.1198 -7.54673 -6.86199 0
M  V30 9181 O 40.5498 -5.12391 -7.179 0
M  V30 9182 O 41.0898 -5.99158 -4.88404 0
M  V30 9183 C 42.0298 -6.60234 -3.96415 0
M  V30 9184 C 41.2998 -7.08259 -2.72856 0
M  V30 9185 O 41.0898 -5.9427 -1.83651 0
M  V30 9186 C 39.8998 -7.64886 -2.9555 0
M  V30 9187 O 39.5098 -8.53963 -1.90717 0
M  V30 9188 C 39.0198 -6.4116 -2.90739 0
M  V30 9189 C 39.7298 -5.55375 -1.86963 0
M  V30 9190 N 39.6798 -4.09664 -2.15742 0
M  V30 9191 H 42.5188 -7.45574 -4.45629 0
M  V30 9192 H 42.7908 -5.86232 -3.67314 0
M  V30 9193 H 41.9228 -7.84412 -2.24479 0
M  V30 9194 P 37.9598 -8.7635 -1.60911 0
M  V30 9195 O 37.7398 -10.1388 -1.11561 0
M  V30 9196 O 37.1698 -8.36503 -2.79617 0
M  V30 9197 O 37.7098 -7.71806 -0.42951 0
M  V30 9198 C 38.6498 -7.67148 0.673689 0
M  V30 9199 C 37.9198 -7.33374 1.95559 0
M  V30 9200 O 37.7098 -5.88721 2.00726 0
M  V30 9201 C 36.5198 -7.92526 2.10483 0
M  V30 9202 O 36.1298 -8.02971 3.47653 0
M  V30 9203 C 35.6398 -6.89602 1.41652 0
M  V30 9204 C 36.3498 -5.59201 1.75185 0
M  V30 9205 N 36.2998 -4.58301 0.657969 0
M  V30 9206 H 39.1388 -8.65116 0.777161 0
M  V30 9207 H 39.4108 -6.9022 0.46725 0
M  V30 9208 H 38.5428 -7.66548 2.79458 0
M  V30 9209 H 35.8878 -5.16165 2.65183 0
M  V30 9210 H 35.6078 -7.06433 0.329384 0
M  V30 9211 H 34.6168 -6.90926 1.82021 0
M  V30 9212 H 36.4508 -8.90873 1.62657 0
M  V30 9213 P 34.5798 -8.03563 3.84925 0
M  V30 9214 O 34.3598 -8.85821 5.0569 0
M  V30 9215 O 33.7898 -8.41101 2.65469 0
M  V30 9216 O 34.3298 -6.4965 4.18908 0
M  V30 9217 C 35.2698 -5.81037 5.05421 0
M  V30 9218 C 34.5398 -4.78366 5.89277 0
M  V30 9219 O 34.3298 -3.58302 5.08433 0
M  V30 9220 C 33.1398 -5.17448 6.36119 0
M  V30 9221 O 32.7498 -4.45271 7.53232 0
M  V30 9222 C 32.2598 -4.74639 5.19936 0
M  V30 9223 C 32.9698 -3.49432 4.70418 0
M  V30 9224 N 32.9198 -3.31776 3.22945 0
M  V30 9225 H 35.7588 -6.54213 5.71376 0
M  V30 9226 H 36.0308 -5.30492 4.44033 0
M  V30 9227 H 35.1628 -4.55889 6.76652 0
M  V30 9228 P 31.1998 -4.23843 7.83734 0
M  V30 9229 O 30.9798 -4.19407 9.29784 0
M  V30 9230 O 30.4098 -5.24426 7.09156 0
M  V30 9231 O 30.9498 -2.79386 7.20852 0
M  V30 9232 C 31.8898 -1.7299 7.50419 0
M  V30 9233 C 31.1598 -0.41401 7.5797 0
M  V30 9234 O 30.9498 0.089787 6.22035 0
M  V30 9235 C 29.7598 -0.447224 8.1878 0
M  V30 9236 O 29.3698 0.825159 8.71201 0
M  V30 9237 C 28.8798 -0.783801 6.99623 0
M  V30 9238 C 29.5898 -0.0619192 5.85967 0
M  V30 9239 N 29.5398 -0.7859 4.56281 0
M  V30 9240 C 29.3898 -0.0359258 3.39981 0
M  V30 9241 O 29.2998 1.19723 3.49038 0
M  V30 9242 N 29.3398 -0.869151 2.14025 0
M  V30 9243 C 29.4398 -2.01207 2.14363 0
M  V30 9244 N 29.3898 -2.58978 0.954287 0
M  V30 9245 C 29.5898 -2.80817 3.32215 0
M  V30 9246 C 29.6398 -2.13785 4.50884 0
M  V30 9247 H 32.3798 -1.93401 8.46693 0
M  V30 9248 H 32.6498 -1.68181 6.71046 0
M  V30 9249 H 31.7828 0.289076 8.15488 0
M  V30 9250 H 29.1278 0.927166 5.72947 0
M  V30 9251 H 28.8478 -1.87 6.82132 0
M  V30 9252 H 27.8568 -0.404009 7.13457 0
M  V30 9253 H 29.6908 -1.20599 8.97534 0
M  V30 9254 H 29.7628 -2.70295 5.43162 0
M  V30 9255 H 29.6608 -3.89465 3.27406 0
M  V30 9256 H 29.2728 -2.01616 0.107046 0
M  V30 9257 H 29.4688 -3.61403 0.873101 0
M  V30 9258 P 27.8199 1.17771 8.83182 0
M  V30 9259 O 27.5999 2.07206 9.98732 0
M  V30 9260 O 27.0299 -0.0743816 8.81969 0
M  V30 9261 O 27.5699 1.97652 7.47304 0
M  V30 9262 C 28.5099 3.01133 7.08783 0
M  V30 9263 C 27.7799 4.12613 6.37049 0
M  V30 9264 O 27.5699 3.72827 4.97879 0
M  V30 9265 C 26.3799 4.45085 6.88694 0
M  V30 9266 O 25.9899 5.7877 6.5624 0
M  V30 9267 C 25.4999 3.47817 6.12078 0
M  V30 9268 C 26.2099 3.39414 4.77697 0
M  V30 9269 N 26.1599 2.04199 4.15538 0
M  V30 9270 C 26.2399 0.821545 4.76977 0
M  V30 9271 N 26.1699 -0.1794 3.94592 0
M  V30 9272 C 26.0199 0.419121 2.70776 0
M  V30 9273 C 25.8899 -0.109072 1.40577 0
M  V30 9274 N 25.8799 -1.4104 1.1344 0
M  V30 9275 N 25.7699 0.764381 0.39411 0
M  V30 9276 C 25.7799 2.06587 0.664135 0
M  V30 9277 N 25.8999 2.67948 1.82153 0
M  V30 9278 C 26.0199 1.77942 2.8147 0
M  V30 9279 H 28.9989 3.41248 7.98759 0
M  V30 9280 H 29.2709 2.57728 6.42 0
M  V30 9281 H 28.4029 5.02657 6.42673 0
M  V30 9282 H 25.7479 4.11708 4.08956 0
M  V30 9283 H 25.4679 2.49626 6.61679 0
M  V30 9284 H 24.4769 3.8662 6.00862 0
M  V30 9285 H 26.3109 4.29991 7.97006 0
M  V30 9286 H 26.3519 0.702451 5.84696 0
M  V30 9287 H 25.9709 -2.09647 1.89651 0
M  V30 9288 H 25.7819 -1.73358 0.160575 0
M  V30 9289 H 25.6739 2.71695 -0.195838 0
M  V30 9290 P 24.4399 6.144 6.45285 0
M  V30 9291 O 24.2199 7.54673 6.86199 0
M  V30 9292 O 23.6499 5.12391 7.179 0
M  V30 9293 O 24.1899 5.99158 4.88404 0
M  V30 9294 C 25.1299 6.60234 3.96415 0
M  V30 9295 C 24.3999 7.08259 2.72856 0
M  V30 9296 O 24.1899 5.9427 1.83651 0
M  V30 9297 C 22.9999 7.64886 2.9555 0
M  V30 9298 O 22.6099 8.53963 1.90717 0
M  V30 9299 C 22.1199 6.4116 2.90739 0
M  V30 9300 C 22.8299 5.55375 1.86963 0
M  V30 9301 N 22.7799 4.09664 2.15742 0
M  V30 9302 C 22.8599 3.44381 3.37233 0
M  V30 9303 N 22.7799 2.14131 3.28347 0
M  V30 9304 C 22.6399 1.90247 1.91588 0
M  V30 9305 C 22.5099 0.683992 1.20892 0
M  V30 9306 N 22.3899 0.903396 -0.173998 0
M  V30 9307 C 22.3899 2.14171 -0.784879 0
M  V30 9308 N 22.2599 2.1435 -2.11317 0
M  V30 9309 N 22.5199 3.28784 -0.119316 0
M  V30 9310 C 22.6399 3.0977 1.22194 0
M  V30 9311 H 25.6189 7.45574 4.45629 0
M  V30 9312 H 25.8909 5.86232 3.67314 0
M  V30 9313 H 25.0229 7.84412 2.24479 0
M  V30 9314 P 21.0599 8.7635 1.60911 0
M  V30 9315 O 20.8399 10.1388 1.11561 0
M  V30 9316 O 20.2699 8.36503 2.79617 0
M  V30 9317 O 20.8099 7.71806 0.42951 0
M  V30 9318 C 21.7499 7.66948 -0.673514 0
M  V30 9319 C 21.0199 7.33374 -1.95559 0
M  V30 9320 O 20.8099 5.88721 -2.00726 0
M  V30 9321 C 19.6199 7.92218 -2.1125 0
M  V30 9322 O 19.2299 8.02971 -3.47653 0
M  V30 9323 C 18.7399 6.89504 -1.41631 0
M  V30 9324 C 19.4499 5.59106 -1.75155 0
M  V30 9325 N 19.3999 4.58136 -0.662409 0
M  V30 9326 C 19.2499 3.26059 -1.02863 0
M  V30 9327 O 19.1599 2.90743 -2.19009 0
M  V30 9328 N 19.2099 2.35995 0.0155585 0
M  V30 9329 C 19.2999 2.65248 1.35603 0
M  V30 9330 O 19.2499 1.75605 2.20651 0
M  V30 9331 C 19.4499 4.05747 1.64698 0
M  V30 9332 C 19.5599 4.42345 3.09553 0
M  V30 9333 C 19.4999 4.96734 0.652411 0
M  V30 9334 H 22.2409 8.64917 -0.776982 0
M  V30 9335 H 22.5099 6.89974 -0.474015 0
M  V30 9336 H 21.6429 7.66548 -2.79458 0
M  V30 9337 H 18.9879 5.16076 -2.65138 0
M  V30 9338 H 18.7089 7.06433 -0.329384 0
M  V30 9339 H 17.7169 6.90829 -1.81996 0
M  V30 9340 H 19.5509 8.90774 -1.62639 0
M  V30 9341 H 19.6219 6.02181 0.895285 0
M  V30 9342 H 18.5919 4.80252 3.45468 0
M  V30 9343 H 20.3289 5.20015 3.22119 0
M  V30 9344 H 19.8409 3.53269 3.67833 0
M  V30 9345 H 19.1049 1.39558 -0.227499 0
M  V30 9346 P 17.6799 8.03563 -3.84925 0
M  V30 9347 O 17.4599 8.85821 -5.0569 0
M  V30 9348 O 16.8899 8.41101 -2.65469 0
M  V30 9349 O 17.4299 6.4965 -4.18908 0
M  V30 9350 C 18.3699 5.81037 -5.05421 0
M  V30 9351 C 17.6399 4.78366 -5.89277 0
M  V30 9352 O 17.4299 3.58302 -5.08433 0
M  V30 9353 C 16.2399 5.17448 -6.36119 0
M  V30 9354 O 15.8499 4.45271 -7.53232 0
M  V30 9355 C 15.3599 4.74639 -5.19936 0
M  V30 9356 C 16.0699 3.49432 -4.70418 0
M  V30 9357 N 16.0199 3.31776 -3.22945 0
M  V30 9358 H 18.8589 6.54213 -5.71376 0
M  V30 9359 H 19.1309 5.30492 -4.44033 0
M  V30 9360 H 18.2629 4.55889 -6.76652 0
M  V30 9361 P 14.2999 4.23843 -7.83734 0
M  V30 9362 O 14.0799 4.19407 -9.29784 0
M  V30 9363 O 13.5099 5.24426 -7.09156 0
M  V30 9364 O 14.0499 2.7935 -7.20758 0
M  V30 9365 C 14.9899 1.72945 -7.50224 0
M  V30 9366 C 14.2599 0.406376 -7.57911 0
M  V30 9367 O 14.0499 -0.0897726 -6.21935 0
M  V30 9368 C 12.8599 0.438983 -8.18724 0
M  V30 9369 O 12.4699 -0.825065 -8.71101 0
M  V30 9370 C 11.9799 0.783689 -6.99524 0
M  V30 9371 C 12.6899 0.0619086 -5.85867 0
M  V30 9372 N 12.6399 0.78573 -4.56183 0
M  V30 9373 C 12.4899 0.0292889 -3.41887 0
M  V30 9374 O 12.3999 -1.18445 -3.4419 0
M  V30 9375 N 12.4499 0.744061 -2.23964 0
M  V30 9376 C 12.5399 2.10932 -2.10362 0
M  V30 9377 O 12.4899 2.64117 -0.98825 0
M  V30 9378 C 12.6899 2.8202 -3.34994 0
M  V30 9379 C 12.7999 4.31095 -3.25037 0
M  V30 9380 C 12.7399 2.15547 -4.52261 0
M  V30 9381 H 15.4809 1.93379 -8.46595 0
M  V30 9382 H 15.7499 1.68132 -6.70852 0
M  V30 9383 H 14.8829 -0.289041 -8.15388 0
M  V30 9384 H 12.2279 -0.926847 -5.72749 0
M  V30 9385 H 11.9489 1.86973 -6.82036 0
M  V30 9386 H 10.9569 0.403896 -7.13257 0
M  V30 9387 H 12.7909 1.20585 -8.97435 0
M  V30 9388 H 12.8619 2.71231 -5.45042 0
M  V30 9389 H 11.8319 4.76966 -3.49992 0
M  V30 9390 H 13.5689 4.67047 -3.95024 0
M  V30 9391 H 13.0809 4.58996 -2.22312 0
M  V30 9392 H 12.3449 0.214893 -1.39758 0
M  V30 9393 P 10.92 -1.17771 -8.83182 0
M  V30 9394 O 10.7 -2.07206 -9.98732 0
M  V30 9395 O 10.13 0.0743816 -8.81969 0
M  V30 9396 O 10.67 -1.97678 -7.474 0
M  V30 9397 C 11.61 -3.01133 -7.08783 0
M  V30 9398 C 10.88 -4.1203 -6.37546 0
M  V30 9399 O 10.67 -3.72887 -4.9796 0
M  V30 9400 C 9.47996 -4.45085 -6.88694 0
M  V30 9401 O 9.08996 -5.78836 -6.56315 0
M  V30 9402 C 8.59996 -3.47817 -6.12078 0
M  V30 9403 C 9.30996 -3.39414 -4.77697 0
M  V30 9404 N 9.25996 -2.04615 -4.15333 0
M  V30 9405 C 9.10996 -1.96929 -2.77162 0
M  V30 9406 O 9.01996 -3.02017 -2.12006 0
M  V30 9407 N 9.05996 -0.55485 -2.24237 0
M  V30 9408 C 9.15996 0.367808 -2.9169 0
M  V30 9409 N 9.10996 1.53426 -2.29427 0
M  V30 9410 C 9.30996 0.319148 -4.33828 0
M  V30 9411 C 9.35996 -0.920672 -4.90433 0
M  V30 9412 H 12.1 -3.41209 -7.98667 0
M  V30 9413 H 12.37 -2.5837 -6.41742 0
M  V30 9414 H 11.503 -5.02718 -6.42752 0
M  V30 9415 H 8.84796 -4.11779 -4.09026 0
M  V30 9416 H 8.56796 -2.49661 -6.61772 0
M  V30 9417 H 7.57696 -3.86674 -6.00946 0
M  V30 9418 H 9.41096 -4.29991 -7.97006 0
M  V30 9419 H 9.48296 -1.00589 -5.98303 0
M  V30 9420 H 9.38096 1.22639 -4.93799 0
M  V30 9421 H 8.99296 1.56819 -1.27167 0
M  V30 9422 H 9.18896 2.41062 -2.83063 0
M  V30 9423 P 7.53998 -6.144 -6.45285 0
M  V30 9424 O 7.31998 -7.54673 -6.86199 0
M  V30 9425 O 6.74998 -5.12391 -7.179 0
M  V30 9426 O 7.28998 -5.99158 -4.88404 0
M  V30 9427 C 8.22998 -6.60234 -3.96415 0
M  V30 9428 C 7.49998 -7.08259 -2.72856 0
M  V30 9429 O 7.28998 -5.9427 -1.83651 0
M  V30 9430 C 6.09998 -7.64886 -2.9555 0
M  V30 9431 O 5.70998 -8.53963 -1.90717 0
M  V30 9432 C 5.21998 -6.4116 -2.90739 0
M  V30 9433 C 5.92998 -5.55375 -1.86963 0
M  V30 9434 N 5.87998 -4.09664 -2.15742 0
M  V30 9435 H 8.71898 -7.45574 -4.45629 0
M  V30 9436 H 8.99098 -5.86232 -3.67314 0
M  V30 9437 H 8.12298 -7.84412 -2.24479 0
M  V30 9438 P 4.16 -8.7635 -1.60911 0
M  V30 9439 O 3.94 -10.1388 -1.11561 0
M  V30 9440 O 3.37 -8.36503 -2.79617 0
M  V30 9441 O 3.91 -7.71806 -0.42951 0
M  V30 9442 C 4.85 -7.67148 0.673689 0
M  V30 9443 C 4.12 -7.33374 1.95559 0
M  V30 9444 O 3.91 -5.88721 2.00726 0
M  V30 9445 C 2.72 -7.92526 2.10483 0
M  V30 9446 O 2.33 -8.02971 3.47653 0
M  V30 9447 C 1.84 -6.89602 1.41652 0
M  V30 9448 C 2.55 -5.59201 1.75185 0
M  V30 9449 N 2.5 -4.58235 0.662552 0
M  V30 9450 H 5.339 -8.65116 0.777161 0
M  V30 9451 H 5.611 -6.90173 0.474152 0
M  V30 9452 H 4.743 -7.66548 2.79458 0
M  V30 9453 H 1.613 -8.66322 3.55694 0
M  V30 END ATOM
M  V30 BEGIN BOND
M  V30 END BOND
M  V30 END CTAB
M  END
$$$$
