drugbank_target|P04584 Gag-Pol polyprotein (DB02428; DB04490; DB07581; DB07634; DB08231; DB08274; DB08286; DB08421; DB08474; DB08663; DB08664; DB08686)
 OpenBabel12092119583D

  0  0  0     0  0            999 V3000
M  V30 BEGIN CTAB
M  V30 COUNTS 23251 23509 0 0 0
M  V30 BEGIN ATOM
M  V30 1 H -0.908 1.98254 -0.117106 0
M  V30 2 N 0 1.576 0 0
M  V30 3 C 0.933 2.03868 1.02534 0
M  V30 4 C 1.911 0.928543 1.3348 0
M  V30 5 O 3.095 1.19667 1.45644 0
M  V30 6 C 0.222 2.43627 2.35294 0
M  V30 7 C -0.732 3.65373 2.2001 0
M  V30 8 S 0.101 5.13292 1.52614 0
M  V30 9 C 1.257 5.56322 2.86805 0
M  V30 10 H 1.49 2.90518 0.631377 0
M  V30 11 H -0.977 1.52953 0.210867 0
M  V30 12 H 0.981 2.67203 3.11629 0
M  V30 13 H -0.358 1.57376 2.7183 0
M  V30 14 H -1.165 3.90944 3.18086 0
M  V30 15 H -1.563 3.418 1.51819 0
M  V30 16 H 0.729 5.58782 3.83104 0
M  V30 17 H 1.672 6.56266 2.65933 0
M  V30 18 H 2.08 4.83886 2.90714 0
M  V30 19 N 1.4781 -0.272755 1.55222 0
M  V30 20 C 2.7261 -1.00234 1.75492 0
M  V30 21 C 3.0471 -1.8681 0.5592 0
M  V30 22 O 2.3171 -1.91215 -0.425882 0
M  V30 23 H 0.8971 -0.373076 0.647166 0
M  V30 24 H 3.5591 -0.296926 1.92625 0
M  V30 25 H 2.6551 -1.63913 2.65592 0
M  V30 26 N 2.9562 -1.48159 -0.537278 0
M  V30 27 C 3.9192 -1.61665 -1.62472 0
M  V30 28 C 4.9192 -0.490395 -1.5314 0
M  V30 29 O 6.1092 -0.755998 -1.5694 0
M  V30 30 C 3.2412 -1.57997 -3.02076 0
M  V30 31 H 4.4342 -2.58621 -1.51839 0
M  V30 32 H 1.9872 -1.36647 -0.758771 0
M  V30 33 H 2.7222 -0.624913 -3.18222 0
M  V30 34 H 2.5072 -2.39755 -3.10258 0
M  V30 35 H 3.9972 -1.70627 -3.81151 0
M  V30 36 N 4.4343 0.785586 -1.36625 0
M  V30 37 C 5.8503 1.08419 -1.17122 0
M  V30 38 C 6.0503 2.015 0.00208491 0
M  V30 39 O 5.1063 2.43551 0.666278 0
M  V30 40 C 6.4193 1.69498 -2.48377 0
M  V30 41 C 7.9673 1.81821 -2.54775 0
M  V30 42 C 8.4423 2.46315 -3.86126 0
M  V30 43 N 9.9333 2.53779 -3.87492 0
M  V30 44 C 10.6683 3.045 -4.85868 0
M  V30 45 N 10.1643 3.55499 -5.94637 0
M  V30 46 N 11.9573 3.03247 -4.73284 0
M  V30 47 H 4.1083 0.167264 -2.1174 0
M  V30 48 H 6.3713 0.13682 -0.938075 0
M  V30 49 H 6.0773 1.08571 -3.34522 0
M  V30 50 H 5.9513 2.6896 -2.64462 0
M  V30 51 H 8.3383 2.41884 -1.69045 0
M  V30 52 H 8.4193 0.811532 -2.42586 0
M  V30 53 H 8.0633 1.86895 -4.72263 0
M  V30 54 H 7.9933 3.47561 -3.95612 0
M  V30 55 H 10.4843 2.17672 -3.08913 0
M  V30 56 H 10.7973 3.92562 -6.65669 0
M  V30 57 H 9.1423 3.5364 -5.98301 0
M  V30 58 H 12.3333 2.62696 -3.87438 0
M  V30 59 H 12.5063 3.42467 -5.50109 0
M  V30 60 N 5.9124 1.20967 1.01018 0
M  V30 61 C 6.8604 0.961223 2.1181 0
M  V30 62 C 7.8544 -0.0897034 1.69162 0
M  V30 63 O 9.0604 0.0612271 1.79896 0
M  V30 64 H 5.4354 0.29355 0.692338 0
M  V30 65 H 7.4064 1.90178 2.29946 0
M  V30 66 C 6.1554 0.536854 3.4353 0
M  V30 67 H 5.4784 1.33713 3.76777 0
M  V30 68 H 6.9184 0.402286 4.22087 0
M  V30 69 C 5.3774 -0.751574 3.2841 0
M  V30 70 O 5.9074 -1.80841 3.58691 0
M  V30 71 N 4.1134 -0.716079 2.81639 0
M  V30 72 H 3.6604 0.144236 2.57196 0
M  V30 73 H 3.6184 -1.57847 2.71904 0
M  V30 74 N 7.3905 -1.2043 1.01659 0
M  V30 75 C 8.6155 -1.94318 0.724942 0
M  V30 76 C 9.0405 -1.74266 -0.708034 0
M  V30 77 O 8.3985 -1.03694 -1.48719 0
M  V30 78 C 8.4465 -3.44486 1.06591 0
M  V30 79 O 7.5505 -4.12017 0.177599 0
M  V30 80 H 6.8915 -0.60708 0.26898 0
M  V30 81 H 9.4215 -1.52861 1.35995 0
M  V30 82 H 9.4315 -3.95106 1.01762 0
M  V30 83 H 8.1065 -3.58404 2.10997 0
M  V30 84 H 6.6835 -3.71821 0.283421 0
M  V30 85 N 8.8686 -0.792821 -1.36206 0
M  V30 86 C 10.1146 -0.36733 -1.99446 0
M  V30 87 C 10.4476 1.05917 -1.62774 0
M  V30 88 O 9.7226 1.7324 -0.88421 0
M  V30 89 C 10.0056 -0.535044 -3.56103 0
M  V30 90 C 9.8586 -2.00548 -4.02617 0
M  V30 91 C 11.1776 0.0478191 -4.40074 0
M  V30 92 H 8.2966 -0.134941 -0.724541 0
M  V30 93 H 10.9386 -0.999794 -1.61568 0
M  V30 94 H 9.0886 0.00336329 -3.885 0
M  V30 95 H 10.7606 -2.60521 -3.80692 0
M  V30 96 H 9.0036 -2.50686 -3.54032 0
M  V30 97 H 9.6746 -2.07377 -5.11565 0
M  V30 98 H 12.1506 -0.411822 -4.14057 0
M  V30 99 H 11.0266 -0.0995336 -5.4881 0
M  V30 100 H 11.2876 1.14025 -4.27142 0
M  V30 101 N 10.3467 1.47872 -0.545128 0
M  V30 102 C 11.2767 2.32661 0.197793 0
M  V30 103 C 12.2577 1.43041 0.920504 0
M  V30 104 O 13.4427 1.71912 0.90333 0
M  V30 105 C 10.5727 3.24569 1.23582 0
M  V30 106 C 9.5267 4.23333 0.630323 0
M  V30 107 C 8.8527 5.0448 1.77211 0
M  V30 108 C 10.1527 5.20704 -0.407974 0
M  V30 109 H 11.8467 2.95024 -0.510045 0
M  V30 110 H 9.3927 1.4187 -0.246731 0
M  V30 111 H 11.3457 3.8272 1.76362 0
M  V30 112 H 10.0697 2.60236 1.97344 0
M  V30 113 H 8.7287 3.6639 0.123922 0
M  V30 114 H 8.3767 4.36561 2.49847 0
M  V30 115 H 8.0767 5.71339 1.37281 0
M  V30 116 H 9.6007 5.65487 2.3034 0
M  V30 117 H 11.0147 5.7329 0.033305 0
M  V30 118 H 9.4117 5.95699 -0.725486 0
M  V30 119 H 10.4817 4.66917 -1.30828 0
M  V30 120 N 11.8248 0.280983 1.55075 0
M  V30 121 C 13.2408 -0.0729964 1.59433 0
M  V30 122 C 13.4408 -1.5411 1.29817 0
M  V30 123 O 12.4968 -2.29086 1.06187 0
M  V30 124 C 13.8098 0.306921 2.9913 0
M  V30 125 C 15.3578 0.254023 3.11968 0
M  V30 126 C 15.8328 0.608467 4.5394 0
M  V30 127 N 17.3238 0.560241 4.59799 0
M  V30 128 C 18.0588 0.80722 5.6769 0
M  V30 129 N 17.5548 1.11912 6.83701 0
M  V30 130 N 19.3478 0.735623 5.57266 0
M  V30 131 H 11.4988 1.238 1.7259 0
M  V30 132 H 13.7618 0.500547 0.805082 0
M  V30 133 H 13.4678 1.32816 3.25657 0
M  V30 134 H 13.3418 -0.349363 3.75579 0
M  V30 135 H 15.7288 -0.75794 2.852 0
M  V30 136 H 15.8098 0.944649 2.37718 0
M  V30 137 H 15.4538 1.61814 4.81434 0
M  V30 138 H 15.3838 -0.104013 5.26497 0
M  V30 139 H 17.8748 0.329288 3.76463 0
M  V30 140 H 18.1878 1.29409 7.61888 0
M  V30 141 H 16.5328 1.15695 6.85303 0
M  V30 142 H 19.7238 0.491752 4.6551 0
M  V30 143 H 19.8968 0.931482 6.4127 0
M  V30 144 N 13.3029 -1.57598 0.00835791 0
M  V30 145 C 14.5509 -1.90551 -0.6734 0
M  V30 146 C 14.8719 -0.883301 -1.73847 0
M  V30 147 O 14.1419 0.0781442 -1.95744 0
M  V30 148 H 12.7219 -0.703312 -0.251717 0
M  V30 149 H 15.3839 -1.94833 0.0512592 0
M  V30 150 H 14.4799 -2.9056 -1.13935 0
M  V30 151 N 14.781 0.264519 -1.55364 0
M  V30 152 C 15.728 1.32717 -1.88825 0
M  V30 153 C 16.698 1.48675 -0.740605 0
M  V30 154 O 17.883 1.62945 -0.992657 0
M  V30 155 C 15.023 2.68089 -2.17307 0
M  V30 156 C 14.136 2.60284 -3.44785 0
M  V30 157 C 13.271 3.87892 -3.62924 0
M  V30 158 C 12.31 3.74631 -4.84064 0
M  V30 159 N 11.447 4.94092 -4.98816 0
M  V30 160 H 16.287 1.03481 -2.79456 0
M  V30 161 H 13.824 0.499757 -1.3835 0
M  V30 162 H 15.782 3.46864 -2.31821 0
M  V30 163 H 14.412 2.95509 -1.299 0
M  V30 164 H 13.464 1.73173 -3.38697 0
M  V30 165 H 14.776 2.46388 -4.33698 0
M  V30 166 H 13.93 4.75109 -3.77302 0
M  V30 167 H 12.669 4.04664 -2.7221 0
M  V30 168 H 11.674 2.85797 -4.69681 0
M  V30 169 H 12.899 3.5937 -5.76221 0
M  V30 170 H 10.845 5.11259 -4.11036 0
M  V30 171 H 10.762 4.8276 -5.81789 0
M  V30 172 H 12.03 5.82857 -5.17588 0
M  V30 173 N 16.2591 1.48442 0.529413 0
M  V30 174 C 17.2061 1.63007 1.63394 0
M  V30 175 C 18.1761 0.47212 1.59249 0
M  V30 176 O 19.3611 0.695673 1.77666 0
M  V30 177 C 16.5011 1.6763 3.01653 0
M  V30 178 C 15.6141 2.94535 3.16027 0
M  V30 179 C 14.7491 2.90316 4.44849 0
M  V30 180 C 13.7881 4.11923 4.52754 0
M  V30 181 N 12.9251 4.05777 5.72965 0
M  V30 182 H 17.7651 2.5733 1.50285 0
M  V30 183 H 15.3021 1.27613 0.731656 0
M  V30 184 H 17.2601 1.68292 3.81751 0
M  V30 185 H 15.8901 0.76797 3.13532 0
M  V30 186 H 14.9421 3.03615 2.29177 0
M  V30 187 H 16.2541 3.84512 3.17729 0
M  V30 188 H 15.4081 2.89382 5.33238 0
M  V30 189 H 14.1471 1.98068 4.45668 0
M  V30 190 H 13.1521 4.13131 3.62771 0
M  V30 191 H 14.3771 5.0533 4.53672 0
M  V30 192 H 12.3231 3.16351 5.74681 0
M  V30 193 H 12.2401 4.8946 5.76164 0
M  V30 194 H 13.5081 4.08904 6.6364 0
M  V30 195 N 17.7372 -0.778329 1.37039 0
M  V30 196 C 18.7002 -1.87301 1.32102 0
M  V30 197 C 19.7002 -1.59198 0.226405 0
M  V30 198 O 20.8902 -1.67403 0.481861 0
M  V30 199 C 18.0222 -3.24309 1.05055 0
M  V30 200 H 19.2152 -1.93093 2.29467 0
M  V30 201 H 16.7682 -0.977358 1.21973 0
M  V30 202 H 17.5032 -3.24196 0.0819373 0
M  V30 203 H 17.2882 -3.46098 1.84279 0
M  V30 204 H 18.7782 -4.04382 1.04234 0
M  V30 205 N 19.2153 -1.21501 -1.00376 0
M  V30 206 C 20.4923 -0.941745 -1.71437 0
M  V30 207 C 20.8723 0.546114 -2.03914 0
M  V30 208 O 20.2203 1.51128 -1.71384 0
M  V30 209 C 20.4303 -1.82812 -2.97289 0
M  V30 210 C 21.7783 -2.07771 -3.70292 0
M  V30 211 O 22.8023 -1.80171 -3.07273 0
M  V30 212 O 21.6613 -2.54456 -4.83647 0
M  V30 213 H 18.7553 -0.353243 -0.747762 0
M  V30 214 H 21.3013 -1.32436 -1.06108 0
M  V30 215 H 20.0733 -2.83501 -2.69709 0
M  V30 216 H 19.6963 -1.4464 -3.70358 0
M  V30 217 N 20.6934 1.19889 -1.02296 0
M  V30 218 C 21.6034 2.26571 -0.608508 0
M  V30 219 C 22.6194 1.70299 0.356964 0
M  V30 220 O 23.7954 2.00235 0.216326 0
M  V30 221 C 20.8604 3.46677 0.0402814 0
M  V30 222 C 19.9214 4.18153 -0.97194 0
M  V30 223 C 19.1544 5.32525 -0.354016 0
M  V30 224 O 19.3774 5.64112 0.844604 0
M  V30 225 O 18.3114 5.92242 -1.07391 0
M  V30 226 H 22.1374 2.64251 -1.49684 0
M  V30 227 H 19.7224 1.26629 -0.792809 0
M  V30 228 H 21.6044 4.19475 0.402324 0
M  V30 229 H 20.2794 3.10858 0.902707 0
M  V30 230 H 19.1864 3.47499 -1.38546 0
M  V30 231 H 20.5194 4.57927 -1.80454 0
M  V30 232 N 22.1715 0.800033 1.35784 0
M  V30 233 C 23.1015 0.220184 2.3246 0
M  V30 234 C 24.0825 -0.65073 1.57161 0
M  V30 235 O 25.2675 -0.582359 1.85263 0
M  V30 236 C 22.3975 -0.637353 3.41402 0
M  V30 237 C 21.3515 0.134531 4.27789 0
M  V30 238 C 20.6775 -0.844285 5.27992 0
M  V30 239 C 21.9775 1.32979 5.05088 0
M  V30 240 H 23.6715 1.02787 2.81203 0
M  V30 241 H 21.2175 0.495717 1.35199 0
M  V30 242 H 23.1705 -1.05302 4.08031 0
M  V30 243 H 21.8945 -1.47785 2.91251 0
M  V30 244 H 20.5535 0.531296 3.6273 0
M  V30 245 H 20.2015 -1.68011 4.74111 0
M  V30 246 H 19.9015 -0.332184 5.8666 0
M  V30 247 H 21.4255 -1.2583 5.97494 0
M  V30 248 H 22.8395 0.98934 5.64699 0
M  V30 249 H 21.2365 1.77593 5.7322 0
M  V30 250 H 22.3065 2.11978 4.36111 0
M  V30 251 N 23.6496 -1.47581 0.552962 0
M  V30 252 C 24.5596 -2.33743 -0.200353 0
M  V30 253 C 25.5756 -1.47928 -0.916151 0
M  V30 254 O 26.7516 -1.80865 -0.885993 0
M  V30 255 C 23.8166 -3.24536 -1.21973 0
M  V30 256 C 22.8776 -4.26238 -0.511819 0
M  V30 257 C 22.1106 -5.12693 -1.48263 0
M  V30 258 O 22.3336 -5.01525 -2.71714 0
M  V30 259 O 21.2676 -5.93375 -1.00945 0
M  V30 260 H 25.0936 -2.9945 0.506304 0
M  V30 261 H 22.6786 -1.46071 0.313622 0
M  V30 262 H 24.5606 -3.80631 -1.80827 0
M  V30 263 H 23.2356 -2.61462 -1.90839 0
M  V30 264 H 22.1426 -3.73914 0.117799 0
M  V30 265 H 23.4756 -4.92014 0.135308 0
M  V30 266 N 25.1277 -0.289203 -1.54924 0
M  V30 267 C 26.5437 0.0645403 -1.59469 0
M  V30 268 C 26.7437 1.53419 -1.30632 0
M  V30 269 O 25.7997 2.2852 -1.074 0
M  V30 270 C 27.1127 -0.32278 -2.98963 0
M  V30 271 C 28.6607 -0.270564 -3.11828 0
M  V30 272 C 29.1357 -0.632532 -4.53611 0
M  V30 273 N 30.6267 -0.584617 -4.59496 0
M  V30 274 C 31.3617 -0.837314 -5.67254 0
M  V30 275 N 30.8577 -1.15536 -6.83098 0
M  V30 276 N 32.6507 -0.765166 -5.56868 0
M  V30 277 H 24.8017 -1.24714 -1.71931 0
M  V30 278 H 27.0647 -0.504809 -0.802416 0
M  V30 279 H 26.7707 -1.34541 -3.24948 0
M  V30 280 H 26.6447 0.32944 -3.75759 0
M  V30 281 H 29.0317 0.742805 -2.85598 0
M  V30 282 H 29.1127 -0.957242 -2.37214 0
M  V30 283 H 28.7567 -1.64365 -4.80569 0
M  V30 284 H 28.6867 0.07609 -5.26545 0
M  V30 285 H 31.1777 -0.349248 -3.76283 0
M  V30 286 H 31.4907 -1.33447 -7.61191 0
M  V30 287 H 29.8357 -1.19328 -6.84679 0
M  V30 288 H 33.0267 -0.516432 -4.65243 0
M  V30 289 H 33.1997 -0.965477 -6.40767 0
M  V30 290 N 26.6058 1.57591 -0.0167156 0
M  V30 291 C 27.8548 1.90461 0.663877 0
M  V30 292 C 28.1678 0.893515 1.73999 0
M  V30 293 O 29.3738 1.11302 2.47637 0
M  V30 294 C 27.8298 3.38155 1.23204 0
M  V30 295 C 27.4378 4.47597 0.189866 0
M  V30 296 C 29.1818 3.80111 1.88986 0
M  V30 297 C 27.0888 5.86379 0.768964 0
M  V30 298 H 26.0188 0.710738 0.251729 0
M  V30 299 H 28.6698 1.83326 -0.0799926 0
M  V30 300 H 27.0518 3.40182 2.02712 0
M  V30 301 H 28.2258 4.57112 -0.581846 0
M  V30 302 H 26.5408 4.14766 -0.368475 0
M  V30 303 H 29.1378 4.81145 2.33247 0
M  V30 304 H 29.4808 3.14511 2.72743 0
M  V30 305 H 30.0138 3.80454 1.16187 0
M  V30 306 H 26.7528 6.55493 -0.0301957 0
M  V30 307 H 26.2728 5.80496 1.50945 0
M  V30 308 H 27.9518 6.34563 1.26251 0
M  V30 309 N 28.0839 -0.256276 1.55502 0
M  V30 310 C 29.4999 -0.604325 1.47716 0
M  V30 311 C 29.6999 -1.88763 0.705039 0
M  V30 312 O 28.7559 -2.51445 0.230613 0
M  V30 313 C 30.0689 -0.715756 2.92057 0
M  V30 314 C 31.6169 -0.808706 3.02372 0
M  V30 315 C 32.0919 -0.951777 4.48001 0
M  V30 316 N 33.5829 -1.01688 4.519 0
M  V30 317 C 34.3179 -1.14668 5.61817 0
M  V30 318 N 33.8139 -1.24261 6.81565 0
M  V30 319 N 35.6069 -1.1791 5.49594 0
M  V30 320 H 27.7579 0.586291 2.04148 0
M  V30 321 H 30.0209 0.201015 0.926443 0
M  V30 322 H 29.7269 0.157027 3.51349 0
M  V30 323 H 29.6009 -1.59071 3.42018 0
M  V30 324 H 31.9879 -1.67195 2.43166 0
M  V30 325 H 32.0689 0.0912063 2.55637 0
M  V30 326 H 31.7129 -0.0931291 5.07815 0
M  V30 327 H 31.6429 -1.86659 4.92408 0
M  V30 328 H 34.1339 -0.954468 3.65648 0
M  V30 329 H 34.4469 -1.34046 7.61086 0
M  V30 330 H 32.7919 -1.21236 6.84344 0
M  V30 331 H 35.9829 -1.10057 4.54978 0
M  V30 332 H 36.1559 -1.27681 6.35296 0
M  V30 333 N 29.562 -1.4872 -0.521534 0
M  V30 334 C 30.492 -1.66771 -1.63431 0
M  V30 335 C 31.473 -0.516499 -1.62069 0
M  V30 336 O 32.658 -0.750013 -1.79132 0
M  V30 337 C 29.788 -1.71515 -3.01993 0
M  V30 338 C 28.742 -2.86222 -3.18216 0
M  V30 339 C 28.068 -2.76061 -4.57924 0
M  V30 340 C 29.368 -4.27419 -3.00184 0
M  V30 341 H 31.062 -2.59932 -1.48579 0
M  V30 342 H 28.608 -1.25089 -0.713358 0
M  V30 343 H 30.561 -1.82731 -3.7972 0
M  V30 344 H 29.285 -0.749393 -3.17886 0
M  V30 345 H 27.944 -2.74575 -2.42908 0
M  V30 346 H 27.592 -1.77437 -4.70665 0
M  V30 347 H 27.292 -3.53037 -4.69722 0
M  V30 348 H 28.816 -2.89256 -5.37739 0
M  V30 349 H 30.23 -4.39855 -3.67697 0
M  V30 350 H 28.627 -5.05458 -3.2347 0
M  V30 351 H 29.697 -4.43293 -1.96518 0
M  V30 352 N 31.0401 0.771051 -1.3745 0
M  V30 353 C 32.4561 1.07171 -1.18265 0
M  V30 354 C 32.6561 2.01491 -0.019287 0
M  V30 355 O 31.7121 2.44244 0.640408 0
M  V30 356 C 33.0251 1.66854 -2.50161 0
M  V30 357 C 34.5731 1.79109 -2.56689 0
M  V30 358 C 35.0481 2.42205 -3.88717 0
M  V30 359 N 36.5391 2.49655 -3.90162 0
M  V30 360 C 37.2741 2.9933 -4.8907 0
M  V30 361 N 36.7701 3.49172 -5.98374 0
M  V30 362 N 38.5631 2.9821 -4.76474 0
M  V30 363 H 30.7141 0.144796 -2.11906 0
M  V30 364 H 32.9771 0.126863 -0.939473 0
M  V30 365 H 32.6831 1.05017 -3.35655 0
M  V30 366 H 32.5571 2.6614 -2.673 0
M  V30 367 H 34.9441 2.40077 -1.71601 0
M  V30 368 H 35.0251 0.785757 -2.43433 0
M  V30 369 H 34.6691 1.81875 -4.74219 0
M  V30 370 H 34.5991 3.43345 -3.99276 0
M  V30 371 H 37.0901 2.14383 -3.11205 0
M  V30 372 H 37.4031 3.8548 -6.69795 0
M  V30 373 H 35.7481 3.47275 -6.02018 0
M  V30 374 H 38.9391 2.58572 -3.90203 0
M  V30 375 H 39.1121 3.36613 -5.53711 0
M  V30 376 N 32.5182 1.22032 0.997298 0
M  V30 377 C 33.9292 1.0397 1.55071 0
M  V30 378 C 34.2802 -0.398192 1.92117 0
M  V30 379 O 33.4052 -1.28254 1.74298 0
M  V30 380 C 34.0002 1.88109 2.81781 0
M  V30 381 C 32.5592 1.74357 3.33581 0
M  V30 382 C 31.7062 1.84846 2.06706 0
M  V30 383 H 34.6572 1.35941 0.818883 0
M  V30 384 H 34.6782 1.39589 3.53971 0
M  V30 385 H 34.1902 2.92754 2.54787 0
M  V30 386 H 32.2912 0.72427 3.65493 0
M  V30 387 H 32.4042 2.56772 4.04481 0
M  V30 388 H 30.7682 1.28238 2.20062 0
M  V30 389 H 31.5512 2.91014 1.82114 0
M  V30 390 N 33.9963 -1.19345 1.0293 0
M  V30 391 C 35.2443 -1.88665 0.724574 0
M  V30 392 C 35.5653 -1.80036 -0.749144 0
M  V30 393 O 34.8353 -1.2111 -1.53978 0
M  V30 394 H 33.4153 -0.698406 0.265025 0
M  V30 395 H 36.0773 -1.44885 1.30362 0
M  V30 396 H 35.1733 -2.94987 1.01926 0
M  V30 397 N 35.4744 -0.807222 -1.35358 0
M  V30 398 C 36.7224 -0.387122 -1.98358 0
M  V30 399 C 37.0434 1.04942 -1.64354 0
M  V30 400 O 36.3134 1.72615 -0.926339 0
M  V30 401 H 34.8934 -0.140154 -0.733734 0
M  V30 402 H 37.5554 -1.0332 -1.6526 0
M  V30 403 H 36.6514 -0.493352 -3.08176 0
M  V30 404 N 36.9525 1.47285 -0.560781 0
M  V30 405 C 37.8995 2.30058 0.18491 0
M  V30 406 C 38.8695 1.39281 0.904986 0
M  V30 407 O 40.0545 1.68241 0.899979 0
M  V30 408 C 37.1945 3.23317 1.20666 0
M  V30 409 C 36.3075 4.29186 0.492285 0
M  V30 410 C 35.4425 5.09592 1.49964 0
M  V30 411 C 34.4815 6.07232 0.770439 0
M  V30 412 N 33.6185 6.80584 1.72479 0
M  V30 413 H 38.4585 2.93302 -0.527048 0
M  V30 414 H 35.9955 1.44568 -0.271738 0
M  V30 415 H 37.9535 3.75811 1.81168 0
M  V30 416 H 36.5835 2.61929 1.88661 0
M  V30 417 H 35.6355 3.7972 -0.227333 0
M  V30 418 H 36.9475 4.98738 -0.0787929 0
M  V30 419 H 36.1015 5.66254 2.17809 0
M  V30 420 H 34.8405 4.3995 2.10464 0
M  V30 421 H 33.8455 5.49745 0.0780846 0
M  V30 422 H 35.0705 6.78884 0.171134 0
M  V30 423 H 33.0165 6.1367 2.3183 0
M  V30 424 H 32.9335 7.46319 1.20596 0
M  V30 425 H 34.2015 7.41818 2.39428 0
M  V30 426 N 38.4306 0.297415 1.54768 0
M  V30 427 C 39.3776 -0.580276 2.23386 0
M  V30 428 C 40.3476 -1.13238 1.21517 0
M  V30 429 O 41.5326 -1.17757 1.50126 0
M  V30 430 C 38.6726 -1.74801 2.97555 0
M  V30 431 C 37.7856 -1.22764 4.1419 0
M  V30 432 C 36.9206 -2.35895 4.75949 0
M  V30 433 C 35.9596 -1.80974 5.84735 0
M  V30 434 N 35.0966 -2.87664 6.40464 0
M  V30 435 H 39.9366 0.0114833 2.97998 0
M  V30 436 H 37.4736 0.0174361 1.4709 0
M  V30 437 H 39.4316 -2.43475 3.38786 0
M  V30 438 H 38.0616 -2.31145 2.25326 0
M  V30 439 H 37.1136 -0.433271 3.77924 0
M  V30 440 H 38.4256 -0.785551 4.92575 0
M  V30 441 H 37.5796 -3.12523 5.20014 0
M  V30 442 H 36.3186 -2.83429 3.96887 0
M  V30 443 H 35.3236 -1.02834 5.40097 0
M  V30 444 H 36.5486 -1.34348 6.65678 0
M  V30 445 H 34.4946 -3.34538 5.64287 0
M  V30 446 H 34.4116 -2.4794 7.14186 0
M  V30 447 H 35.6796 -3.642 6.89187 0
M  V30 448 N 39.9087 -1.5758 0.0250728 0
M  V30 449 C 40.8557 -2.09973 -0.958129 0
M  V30 450 C 41.8257 -1.00085 -1.3256 0
M  V30 451 O 43.0107 -1.27481 -1.41962 0
M  V30 452 C 40.1507 -2.62812 -2.2366 0
M  V30 453 C 39.2637 -3.86693 -1.92594 0
M  V30 454 C 38.3987 -4.27941 -3.14707 0
M  V30 455 C 37.4377 -5.44591 -2.79442 0
M  V30 456 N 36.5747 -5.81014 -3.94167 0
M  V30 457 H 41.4147 -2.937 -0.504428 0
M  V30 458 H 38.9517 -1.45172 -0.237392 0
M  V30 459 H 40.9097 -2.91536 -2.98434 0
M  V30 460 H 39.5397 -1.81922 -2.66654 0
M  V30 461 H 38.5917 -3.64723 -1.0808 0
M  V30 462 H 39.9037 -4.71547 -1.62619 0
M  V30 463 H 39.0577 -4.58079 -3.97804 0
M  V30 464 H 37.7967 -3.41845 -3.4784 0
M  V30 465 H 36.8017 -5.1415 -1.94755 0
M  V30 466 H 38.0267 -6.32382 -2.47528 0
M  V30 467 H 35.9727 -4.97874 -4.2715 0
M  V30 468 H 35.8897 -6.60498 -3.67801 0
M  V30 469 H 37.1577 -6.15756 -4.7798 0
M  V30 470 N 41.3868 0.248026 -1.55636 0
M  V30 471 C 42.6168 0.992367 -1.81206 0
M  V30 472 C 43.0248 1.7949 -0.598324 0
M  V30 473 O 42.3678 1.78292 0.442434 0
M  V30 474 C 42.4298 1.97926 -3.00109 0
M  V30 475 C 42.0938 1.36377 -4.36177 0
M  V30 476 C 43.0908 0.76682 -5.14214 0
M  V30 477 C 40.7758 1.38347 -4.82872 0
M  V30 478 C 42.7698 0.197778 -6.37093 0
M  V30 479 C 40.4568 0.810574 -6.057 0
M  V30 480 C 41.4548 0.218754 -6.8265 0
M  V30 481 O 41.1428 -0.345298 -8.03158 0
M  V30 482 H 40.8748 0.297704 -0.606917 0
M  V30 483 H 43.4288 0.276517 -2.0353 0
M  V30 484 H 41.6588 2.73339 -2.73538 0
M  V30 485 H 43.3478 2.58694 -3.12781 0
M  V30 486 H 44.1138 0.744114 -4.79258 0
M  V30 487 H 39.9928 1.8335 -4.2297 0
M  V30 488 H 43.5368 -0.264788 -6.97097 0
M  V30 489 H 39.4338 0.830604 -6.40134 0
M  V30 490 H 40.2018 -0.237055 -8.18157 0
M  V30 491 N 42.8649 1.48995 0.513639 0
M  V30 492 C 44.2809 1.35478 0.843682 0
M  V30 493 C 44.4809 0.378213 1.97919 0
M  V30 494 O 43.5369 -0.194689 2.51748 0
M  V30 495 C 44.8499 2.75901 1.1958 0
M  V30 496 C 46.3979 2.84509 1.30474 0
M  V30 497 C 46.8729 4.25671 1.69021 0
M  V30 498 N 48.3639 4.28422 1.76094 0
M  V30 499 C 49.0989 5.34601 2.07338 0
M  V30 500 N 48.5949 6.5104 2.36894 0
M  V30 501 N 50.3879 5.22007 2.08483 0
M  V30 502 H 42.5389 2.11092 -0.235328 0
M  V30 503 H 44.8019 0.947039 -0.0426669 0
M  V30 504 H 44.5079 3.49001 0.434913 0
M  V30 505 H 44.3819 3.10467 2.1422 0
M  V30 506 H 46.7689 2.11655 2.05637 0
M  V30 507 H 46.8499 2.53542 0.339155 0
M  V30 508 H 46.4939 4.99048 0.944135 0
M  V30 509 H 46.4239 4.54094 2.66658 0
M  V30 510 H 48.9149 3.44441 1.55464 0
M  V30 511 H 49.2279 7.2779 2.59887 0
M  V30 512 H 47.5729 6.54287 2.34378 0
M  V30 513 H 50.7639 4.30051 1.84861 0
M  V30 514 H 50.9369 6.04854 2.325 0
M  V30 515 N 44.343 -0.763751 1.37857 0
M  V30 516 C 45.273 -1.89103 1.36975 0
M  V30 517 C 46.254 -1.68439 0.237152 0
M  V30 518 O 47.439 -1.8918 0.438713 0
M  V30 519 C 44.569 -3.26496 1.18395 0
M  V30 520 C 43.523 -3.61741 2.28751 0
M  V30 521 C 42.849 -4.97762 1.95286 0
M  V30 522 C 44.149 -3.67665 3.70972 0
M  V30 523 H 45.843 -1.90099 2.31307 0
M  V30 524 H 43.389 -0.91319 1.11341 0
M  V30 525 H 45.342 -4.05003 1.16406 0
M  V30 526 H 44.066 -3.25955 0.205215 0
M  V30 527 H 42.725 -2.85547 2.29909 0
M  V30 528 H 42.373 -4.93769 0.959221 0
M  V30 529 H 42.073 -5.22313 2.69189 0
M  V30 530 H 43.597 -5.7866 1.94898 0
M  V30 531 H 45.011 -4.36307 3.719 0
M  V30 532 H 43.408 -4.03718 4.43995 0
M  V30 533 H 44.478 -2.68134 4.0402 0
M  V30 534 N 45.8211 -1.22559 -0.990812 0
M  V30 535 C 46.7681 -0.997519 -2.0813 0
M  V30 536 C 47.7381 0.0814702 -1.659 0
M  V30 537 O 48.9231 -0.0685424 -1.90677 0
M  V30 538 C 46.0631 -0.583615 -3.40129 0
M  V30 539 C 45.1761 -1.7336 -3.9569 0
M  V30 540 C 44.3111 -1.26748 -5.15857 0
M  V30 541 C 43.3501 -2.38888 -5.63559 0
M  V30 542 N 42.4871 -1.93308 -6.74964 0
M  V30 543 H 47.3271 -1.93099 -2.26973 0
M  V30 544 H 44.8641 -0.962114 -1.11273 0
M  V30 545 H 46.8221 -0.324801 -4.15934 0
M  V30 546 H 45.4521 0.312845 -3.2128 0
M  V30 547 H 44.5041 -2.10669 -3.16738 0
M  V30 548 H 45.8161 -2.57704 -4.27071 0
M  V30 549 H 44.9701 -0.966173 -5.98957 0
M  V30 550 H 43.7091 -0.394272 -4.86104 0
M  V30 551 H 42.7141 -2.69805 -4.79046 0
M  V30 552 H 43.9391 -3.26728 -5.95336 0
M  V30 553 H 41.8851 -1.08352 -6.4699 0
M  V30 554 H 41.8021 -2.71217 -7.05675 0
M  V30 555 H 43.0701 -1.66252 -7.61564 0
M  V30 556 N 47.2992 1.18797 -1.03562 0
M  V30 557 C 48.2492 2.20161 -0.592724 0
M  V30 558 C 49.2332 1.56772 0.362133 0
M  V30 559 O 50.4252 1.76062 0.182009 0
M  V30 560 C 47.5542 3.43266 0.0481024 0
M  V30 561 C 46.6402 4.13786 -0.9296 0
M  V30 562 N 47.0312 4.60388 -2.09467 0
M  V30 563 C 45.3292 4.39572 -0.754499 0
M  V30 564 C 46.0302 5.14619 -2.71187 0
M  V30 565 N 45.0062 5.05826 -1.991 0
M  V30 566 H 48.8082 2.53877 -1.48066 0
M  V30 567 H 46.3222 1.34946 -0.903514 0
M  V30 568 H 48.3192 4.15136 0.383058 0
M  V30 569 H 46.9792 3.11048 0.931636 0
M  V30 570 H 47.9902 4.54999 -2.47379 0
M  V30 571 H 44.6672 4.17425 0.0793713 0
M  V30 572 H 46.0572 5.60917 -3.69895 0
M  V30 573 N 48.7773 0.814389 1.34928 0
M  V30 574 C 50.0263 0.394871 1.97797 0
M  V30 575 C 50.3393 -1.04555 1.65311 0
M  V30 576 O 51.5453 -1.56856 2.21604 0
M  V30 577 C 50.0013 0.655103 3.53888 0
M  V30 578 C 49.6093 2.10858 3.95276 0
M  V30 579 C 51.3533 0.301329 4.23429 0
M  V30 580 C 49.2603 2.31415 5.44244 0
M  V30 581 H 48.1903 0.143913 0.740139 0
M  V30 582 H 50.8413 0.999544 1.53888 0
M  V30 583 H 49.2233 -0.0196253 3.95995 0
M  V30 584 H 50.3973 2.82176 3.64298 0
M  V30 585 H 48.7123 2.42297 3.38646 0
M  V30 586 H 51.3093 0.432869 5.32945 0
M  V30 587 H 51.6523 -0.75331 4.09428 0
M  V30 588 H 52.1853 0.930288 3.86769 0
M  V30 589 H 48.9243 3.35353 5.63222 0
M  V30 590 H 48.4443 1.6463 5.76764 0
M  V30 591 H 50.1233 2.13352 6.10811 0
M  V30 592 N 50.2554 -1.46986 0.568584 0
M  V30 593 C 51.5014 -2.02741 0.0488709 0
M  V30 594 C 51.8344 -1.44077 -1.30214 0
M  V30 595 O 51.1094 -0.600552 -1.84996 0
M  V30 596 C 51.3924 -3.60086 -0.032047 0
M  V30 597 C 51.2454 -4.29162 1.34686 0
M  V30 598 C 52.5644 -4.33838 -0.739798 0
M  V30 599 H 49.6834 -0.736749 0.0192338 0
M  V30 600 H 52.3254 -1.75289 0.733065 0
M  V30 601 H 50.4754 -3.83606 -0.61473 0
M  V30 602 H 52.1474 -4.16948 1.97362 0
M  V30 603 H 50.3904 -3.89073 1.91846 0
M  V30 604 H 51.0614 -5.37826 1.24285 0
M  V30 605 H 53.5374 -4.15378 -0.244939 0
M  V30 606 H 52.4134 -5.43537 -0.765406 0
M  V30 607 H 52.6744 -4.03875 -1.79827 0
M  V30 608 N 51.7335 -0.305618 -1.54608 0
M  V30 609 C 52.9795 0.295595 -2.01241 0
M  V30 610 C 53.3345 1.51171 -1.19018 0
M  V30 611 O 52.6275 1.89832 -0.259684 0
M  V30 612 C 52.8215 0.698983 -3.50498 0
M  V30 613 C 52.6505 -0.476491 -4.47168 0
M  V30 614 C 51.4205 -0.969963 -4.95903 0
M  V30 615 C 53.6185 -1.32294 -4.96994 0
M  V30 616 N 51.6005 -2.11172 -5.76437 0
M  V30 617 C 52.9715 -2.31212 -5.75275 0
M  V30 618 C 55.0265 -1.35278 -4.7917 0
M  V30 619 C 53.7295 -3.32896 -6.37631 0
M  V30 620 C 55.7555 -2.35823 -5.42348 0
M  V30 621 C 55.1175 -3.33469 -6.20466 0
M  V30 622 H 51.2165 0.0724992 -0.778632 0
M  V30 623 H 53.8005 -0.436583 -1.89742 0
M  V30 624 H 51.9715 1.40032 -3.62278 0
M  V30 625 H 53.7035 1.28013 -3.8392 0
M  V30 626 H 50.4585 -0.544178 -4.70463 0
M  V30 627 H 50.8825 -2.68714 -6.21387 0
M  V30 628 H 55.5245 -0.61157 -4.18354 0
M  V30 629 H 53.2425 -4.07933 -6.97579 0
M  V30 630 H 56.8285 -2.38911 -5.30484 0
M  V30 631 H 55.7085 -4.09996 -6.68485 0
M  V30 632 N 53.2116 1.57565 -0.0334293 0
M  V30 633 C 54.1746 2.09393 0.932048 0
M  V30 634 C 55.1746 1.00986 1.25134 0
M  V30 635 O 56.3646 1.27129 1.19096 0
M  V30 636 C 53.4966 2.56338 2.2473 0
M  V30 637 H 54.6896 2.95984 0.483085 0
M  V30 638 H 52.2426 1.54819 0.21468 0
M  V30 639 H 52.9776 1.7309 2.74245 0
M  V30 640 H 52.7626 3.35542 2.02865 0
M  V30 641 H 54.2526 2.96646 2.93923 0
M  V30 642 N 54.6897 -0.239769 1.55765 0
M  V30 643 C 55.6527 -1.28038 1.90103 0
M  V30 644 C 56.6527 -1.40723 0.778055 0
M  V30 645 O 57.8427 -1.39301 1.04599 0
M  V30 646 C 54.9747 -2.65702 2.13577 0
M  V30 647 H 56.1677 -0.988048 2.83157 0
M  V30 648 H 53.7207 -0.479382 1.48767 0
M  V30 649 H 54.4557 -3.00063 1.23015 0
M  V30 650 H 54.2407 -2.57875 2.95369 0
M  V30 651 H 55.7307 -3.40828 2.41301 0
M  V30 652 N 56.1678 -1.49265 -0.50573 0
M  V30 653 C 57.1158 -1.66065 -1.62866 0
M  V30 654 C 58.1098 -0.526636 -1.61006 0
M  V30 655 O 59.3158 -0.706126 -1.65571 0
M  V30 656 H 55.6908 -0.52356 -0.539805 0
M  V30 657 H 57.6618 -2.60329 -1.45848 0
M  V30 658 C 56.4108 -1.74008 -3.01026 0
M  V30 659 H 55.7338 -2.6064 -3.03161 0
M  V30 660 H 57.1738 -1.89798 -3.79147 0
M  V30 661 C 55.6328 -0.483868 -3.33407 0
M  V30 662 O 56.1628 0.392548 -3.99777 0
M  V30 663 N 54.3688 -0.348236 -2.88506 0
M  V30 664 H 53.9158 -1.06242 -2.34671 0
M  V30 665 H 53.8738 0.491204 -3.10539 0
M  V30 666 N 57.6459 0.756429 -1.3826 0
M  V30 667 C 58.5929 1.87011 -1.35261 0
M  V30 668 C 59.5629 1.64695 -0.215616 0
M  V30 669 O 60.7479 1.864 -0.407399 0
M  V30 670 C 57.8879 3.24275 -1.18068 0
M  V30 671 C 57.0009 3.58442 -2.41129 0
M  V30 672 C 56.1359 4.84994 -2.16689 0
M  V30 673 C 55.1749 5.11939 -3.35537 0
M  V30 674 N 54.3119 6.29685 -3.10549 0
M  V30 675 H 59.1519 1.8891 -2.30472 0
M  V30 676 H 56.6889 0.923373 -1.14509 0
M  V30 677 H 58.6469 4.03479 -1.06116 0
M  V30 678 H 57.2769 3.21711 -0.264973 0
M  V30 679 H 56.3289 2.74103 -2.63764 0
M  V30 680 H 57.6409 3.74283 -3.29717 0
M  V30 681 H 56.7949 5.72135 -2.01857 0
M  V30 682 H 55.5339 4.71286 -1.25462 0
M  V30 683 H 54.5389 4.23268 -3.50891 0
M  V30 684 H 55.7639 5.27546 -4.27635 0
M  V30 685 H 53.7099 6.17306 -2.21967 0
M  V30 686 H 53.6269 6.46014 -3.92686 0
M  V30 687 H 54.8949 7.19722 -2.99367 0
M  V30 688 N 59.124 1.23083 0.984299 0
M  V30 689 C 60.054 1.03292 2.09411 0
M  V30 690 C 61.035 -0.048923 1.7003 0
M  V30 691 O 62.22 0.114967 1.93859 0
M  V30 692 C 59.35 0.619155 3.41736 0
M  V30 693 C 58.304 1.64791 3.95004 0
M  V30 694 C 57.63 1.0897 5.23478 0
M  V30 695 C 58.93 3.03999 4.24714 0
M  V30 696 H 60.624 1.96119 2.26225 0
M  V30 697 H 58.17 0.944344 1.08711 0
M  V30 698 H 60.123 0.467777 4.18796 0
M  V30 699 H 58.847 -0.344786 3.24775 0
M  V30 700 H 57.506 1.78721 3.20085 0
M  V30 701 H 57.154 0.11686 5.02864 0
M  V30 702 H 56.854 1.77704 5.60085 0
M  V30 703 H 58.378 0.950093 6.03163 0
M  V30 704 H 59.792 2.93393 4.92538 0
M  V30 705 H 58.189 3.69936 4.72512 0
M  V30 706 H 59.259 3.53285 3.32142 0
M  V30 707 N 60.6021 -1.18246 1.0419 0
M  V30 708 C 61.8791 -1.84121 0.660208 0
M  V30 709 C 62.2591 -1.92778 -0.860221 0
M  V30 710 O 61.6071 -1.45464 -1.76217 0
M  V30 711 C 61.8171 -3.22355 1.33747 0
M  V30 712 C 63.1651 -3.98376 1.46906 0
M  V30 713 O 64.1891 -3.31799 1.29568 0
M  V30 714 O 63.0481 -5.17665 1.75171 0
M  V30 715 H 60.1421 -0.794036 0.231161 0
M  V30 716 H 62.6881 -1.25628 1.14087 0
M  V30 717 H 61.4601 -3.10964 2.37522 0
M  V30 718 H 61.0831 -3.88506 0.845515 0
M  V30 719 N 62.0802 -0.821533 -1.34494 0
M  V30 720 C 63.4962 -0.507117 -1.51329 0
M  V30 721 C 63.6962 0.968964 -1.76673 0
M  V30 722 O 62.7522 1.75348 -1.81685 0
M  V30 723 C 64.0652 -1.36544 -2.67911 0
M  V30 724 C 65.6132 -1.36242 -2.81793 0
M  V30 725 C 66.0882 -2.2052 -4.01416 0
M  V30 726 N 67.5792 -2.18136 -4.08621 0
M  V30 727 C 68.3142 -2.80095 -5.00334 0
M  V30 728 N 67.8102 -3.51039 -5.9728 0
M  V30 729 N 69.6032 -2.69656 -4.93196 0
M  V30 730 H 61.7542 -1.77729 -1.16302 0
M  V30 731 H 64.0172 -0.757291 -0.570276 0
M  V30 732 H 63.7232 -2.41361 -2.55808 0
M  V30 733 H 63.5972 -1.02917 -3.62888 0
M  V30 734 H 65.9842 -0.322041 -2.93338 0
M  V30 735 H 66.0652 -1.73866 -1.87628 0
M  V30 736 H 65.7092 -3.24607 -3.90631 0
M  V30 737 H 65.6392 -1.80247 -4.94791 0
M  V30 738 H 68.1302 -1.6653 -3.39229 0
M  V30 739 H 68.4432 -3.95565 -6.63889 0
M  V30 740 H 66.7882 -3.55145 -5.97409 0
M  V30 741 H 69.9792 -2.13808 -4.16418 0
M  V30 742 H 70.1522 -3.1823 -5.64476 0
M  V30 743 N 63.5583 1.46682 -0.576371 0
M  V30 744 C 64.8053 2.02412 -0.0595339 0
M  V30 745 C 65.1333 1.44859 1.29793 0
M  V30 746 O 64.3883 0.601099 1.8624 0
M  V30 747 C 64.6873 3.57345 0.062886 0
M  V30 748 C 64.3533 4.33908 -1.22616 0
M  V30 749 C 63.0153 4.54544 -1.57933 0
M  V30 750 C 65.3673 4.77919 -2.07948 0
M  V30 751 C 62.6953 5.16444 -2.78393 0
M  V30 752 C 65.0473 5.41149 -3.27629 0
M  V30 753 C 63.7113 5.60014 -3.63236 0
M  V30 754 H 62.9813 0.74068 -0.021785 0
M  V30 755 H 65.6283 1.76128 -0.751735 0
M  V30 756 H 63.9333 3.82729 0.838178 0
M  V30 757 H 65.6303 3.98136 0.478439 0
M  V30 758 H 62.2203 4.18138 -0.941202 0
M  V30 759 H 66.4043 4.61738 -1.81967 0
M  V30 760 H 61.6603 5.29242 -3.06126 0
M  V30 761 H 65.8343 5.74211 -3.94023 0
M  V30 762 H 63.4613 6.07748 -4.56669 0
M  V30 763 N 65.0364 0.313813 1.54444 0
M  V30 764 C 66.2844 -0.291099 1.99993 0
M  V30 765 C 66.6054 -1.53418 1.20366 0
M  V30 766 O 65.8754 -1.93544 0.302927 0
M  V30 767 H 64.4554 -0.110552 0.738774 0
M  V30 768 H 67.1174 0.428106 1.9014 0
M  V30 769 H 66.2134 -0.554268 3.07139 0
M  V30 770 N 66.5145 -1.57545 0.0417849 0
M  V30 771 C 67.4445 -2.14009 -0.933929 0
M  V30 772 C 68.4255 -1.05938 -1.33083 0
M  V30 773 O 69.6105 -1.33833 -1.40721 0
M  V30 774 C 66.7405 -2.67747 -2.21199 0
M  V30 775 C 65.6945 -3.80718 -1.95544 0
M  V30 776 C 65.0205 -4.20935 -3.29724 0
M  V30 777 C 66.3205 -5.06258 -1.28452 0
M  V30 778 H 68.0145 -2.95788 -0.463645 0
M  V30 779 H 65.5605 -1.42285 -0.221573 0
M  V30 780 H 67.5135 -3.05886 -2.89848 0
M  V30 781 H 66.2375 -1.83147 -2.70416 0
M  V30 782 H 64.8965 -3.43037 -1.2931 0
M  V30 783 H 64.5445 -3.33298 -3.76724 0
M  V30 784 H 64.2445 -4.9707 -3.13361 0
M  V30 785 H 65.7685 -4.61666 -3.9962 0
M  V30 786 H 67.1825 -5.41903 -1.8712 0
M  V30 787 H 65.5795 -5.87475 -1.22445 0
M  V30 788 H 66.6495 -4.84207 -0.259219 0
M  V30 789 N 67.9926 0.231505 -1.5589 0
M  V30 790 C 68.9556 1.27028 -1.90779 0
M  V30 791 C 69.9556 1.40308 -0.785507 0
M  V30 792 O 71.1456 1.38744 -1.05336 0
M  V30 793 C 68.2776 2.64566 -2.14983 0
M  V30 794 H 69.4706 0.973017 -2.83677 0
M  V30 795 H 67.0236 0.471486 -1.49019 0
M  V30 796 H 67.7586 2.99406 -1.24604 0
M  V30 797 H 67.5436 2.56305 -2.96732 0
M  V30 798 H 69.0336 3.39543 -2.43105 0
M  V30 799 N 69.4707 1.49531 0.497807 0
M  V30 800 C 70.3807 1.69176 1.62532 0
M  V30 801 C 71.3967 0.5744 1.64246 0
M  V30 802 O 72.5727 0.849497 1.82608 0
M  V30 803 C 69.6377 1.75695 2.98885 0
M  V30 804 C 68.6987 2.9929 3.07773 0
M  V30 805 C 67.9317 3.05488 4.37622 0
M  V30 806 O 68.1547 2.19192 5.26603 0
M  V30 807 O 67.0887 3.9798 4.51548 0
M  V30 808 H 70.9147 2.647 1.48887 0
M  V30 809 H 68.4997 1.3331 0.674441 0
M  V30 810 H 70.3817 1.82317 3.79919 0
M  V30 811 H 69.0567 0.8335 3.12785 0
M  V30 812 H 67.9637 2.98183 2.25915 0
M  V30 813 H 69.2967 3.91125 2.98801 0
M  V30 814 N 70.9488 -0.749086 1.3866 0
M  V30 815 C 72.1738 -1.54344 1.38538 0
M  V30 816 C 72.5988 -1.88088 -0.0216655 0
M  V30 817 O 71.9568 -1.50899 -1.00494 0
M  V30 818 C 72.0048 -2.8164 2.25192 0
M  V30 819 O 71.1088 -3.7698 1.67212 0
M  V30 820 H 70.4498 -0.466654 0.472367 0
M  V30 821 H 72.9798 -0.925355 1.82478 0
M  V30 822 H 72.9898 -3.30519 2.3921 0
M  V30 823 H 71.6648 -2.56411 3.27454 0
M  V30 824 H 70.2418 -3.35699 1.6236 0
M  V30 825 N 72.4269 -1.23603 -0.977757 0
M  V30 826 C 73.3569 -1.04401 -2.0886 0
M  V30 827 C 74.3379 0.0399052 -1.70053 0
M  V30 828 O 75.5229 -0.125246 -1.93796 0
M  V30 829 C 72.6529 -0.637269 -3.41403 0
M  V30 830 C 71.6069 -1.66883 -3.94124 0
M  V30 831 C 70.9329 -1.11745 -5.22893 0
M  V30 832 C 72.2329 -3.06247 -4.23096 0
M  V30 833 H 73.9269 -1.97316 -2.25182 0
M  V30 834 H 71.4729 -0.950096 -1.08209 0
M  V30 835 H 73.4259 -0.48998 -4.18542 0
M  V30 836 H 72.1499 0.327557 -3.24953 0
M  V30 837 H 70.8089 -1.80416 -3.19133 0
M  V30 838 H 70.4569 -0.143527 -5.02795 0
M  V30 839 H 70.1569 -1.80672 -5.59134 0
M  V30 840 H 71.6809 -0.982067 -6.02651 0
M  V30 841 H 73.0949 -2.96001 -4.90975 0
M  V30 842 H 71.4919 -3.72436 -4.70544 0
M  V30 843 H 72.5619 -3.55041 -3.30263 0
M  V30 844 N 73.905 1.17692 -1.04816 0
M  V30 845 C 74.835 2.23777 -0.666791 0
M  V30 846 C 75.816 1.66796 0.33361 0
M  V30 847 O 77.001 1.93039 0.212042 0
M  V30 848 C 74.131 3.47281 -0.0367933 0
M  V30 849 C 73.085 4.17059 -0.961546 0
M  V30 850 C 72.411 5.34342 -0.195626 0
M  V30 851 C 73.711 4.69713 -2.28402 0
M  V30 852 H 75.405 2.55933 -1.55367 0
M  V30 853 H 72.951 1.23019 -0.748484 0
M  V30 854 H 74.904 4.20706 0.241775 0
M  V30 855 H 73.628 3.14381 0.885004 0
M  V30 856 H 72.287 3.45541 -1.22462 0
M  V30 857 H 71.935 4.97692 0.728816 0
M  V30 858 H 71.635 5.81966 -0.811775 0
M  V30 859 H 73.159 6.10553 0.0757473 0
M  V30 860 H 74.573 5.34794 -2.06563 0
M  V30 861 H 72.97 5.279 -2.8538 0
M  V30 862 H 74.04 3.86726 -2.92525 0
M  V30 863 N 75.3831 0.828654 1.34056 0
M  V30 864 C 76.2931 0.256725 2.33191 0
M  V30 865 C 77.3091 -0.611898 1.62886 0
M  V30 866 O 78.4851 -0.51844 1.94613 0
M  V30 867 C 75.5501 -0.567238 3.42028 0
M  V30 868 C 74.6111 0.324458 4.28072 0
M  V30 869 C 73.8441 -0.460274 5.31712 0
M  V30 870 O 74.0671 -1.693 5.44696 0
M  V30 871 O 73.0011 0.160391 6.01686 0
M  V30 872 H 76.8271 1.07739 2.83947 0
M  V30 873 H 74.4121 0.59093 1.37217 0
M  V30 874 H 76.2941 -1.03582 4.08471 0
M  V30 875 H 74.9691 -1.36513 2.93506 0
M  V30 876 H 73.8761 0.840659 3.64532 0
M  V30 877 H 75.2091 1.08685 4.8005 0
M  V30 878 N 76.8612 -1.46375 0.584142 0
M  V30 879 C 78.0862 -2.07268 0.0740405 0
M  V30 880 C 78.5112 -1.42979 -1.22223 0
M  V30 881 O 77.8692 -0.514092 -1.73859 0
M  V30 882 C 77.9172 -3.60518 -0.0767769 0
M  V30 883 O 77.0212 -3.96533 -1.13292 0
M  V30 884 H 76.3622 -0.660961 0.0634524 0
M  V30 885 H 78.8922 -1.87991 0.807492 0
M  V30 886 H 78.9022 -4.07021 -0.282489 0
M  V30 887 H 77.5772 -4.06702 0.86986 0
M  V30 888 H 76.1542 -3.61738 -0.905553 0
M  V30 889 N 78.3393 -0.321999 -1.54275 0
M  V30 890 C 79.2863 0.544664 -2.24281 0
M  V30 891 C 80.2563 1.1129 -1.23303 0
M  V30 892 O 81.4413 1.15354 -1.51981 0
M  V30 893 C 78.5813 1.70045 -3.00298 0
M  V30 894 C 77.6943 1.16159 -4.1609 0
M  V30 895 C 76.8293 2.28293 -4.79641 0
M  V30 896 C 75.8683 1.71648 -5.8754 0
M  V30 897 N 75.0053 2.77438 -6.44959 0
M  V30 898 H 79.8453 -0.0588907 -2.97942 0
M  V30 899 H 77.3823 -0.0408345 -1.47043 0
M  V30 900 H 79.3403 2.38054 -3.42616 0
M  V30 901 H 77.9703 2.27531 -2.28975 0
M  V30 902 H 77.0223 0.373092 -3.78566 0
M  V30 903 H 78.3343 0.707087 -4.93763 0
M  V30 904 H 77.4883 3.0421 -5.2492 0
M  V30 905 H 76.2273 2.77079 -4.01346 0
M  V30 906 H 75.2323 0.942282 -5.41665 0
M  V30 907 H 76.4573 1.23741 -6.67731 0
M  V30 908 H 74.4033 3.25519 -5.69538 0
M  V30 909 H 74.3203 2.36547 -7.1804 0
M  V30 910 H 75.5883 3.53189 -6.94894 0
M  V30 911 N 79.8174 1.5752 -0.0501392 0
M  V30 912 C 80.7274 2.14952 0.939827 0
M  V30 913 C 81.7434 1.10706 1.34239 0
M  V30 914 O 82.9194 1.42869 1.41952 0
M  V30 915 C 79.9844 2.68232 2.19665 0
M  V30 916 C 79.0454 3.87272 1.85253 0
M  V30 917 C 78.2784 4.38002 3.04943 0
M  V30 918 O 78.5014 3.87811 4.18281 0
M  V30 919 O 77.4354 5.29602 2.86017 0
M  V30 920 H 81.2614 2.9986 0.481392 0
M  V30 921 H 78.8464 1.4841 0.171699 0
M  V30 922 H 80.7284 3.02475 2.93406 0
M  V30 923 H 79.4034 1.86395 2.64648 0
M  V30 924 H 78.3104 3.5792 1.0883 0
M  V30 925 H 79.6434 4.70336 1.4507 0
M  V30 926 N 81.2955 -0.223234 1.56011 0
M  V30 927 C 82.5435 -0.946003 1.78592 0
M  V30 928 C 82.8645 -1.84936 0.618349 0
M  V30 929 O 82.1345 -1.92473 -0.364833 0
M  V30 930 H 80.7145 -0.352298 0.658707 0
M  V30 931 H 83.3765 -0.235494 1.93472 0
M  V30 932 H 82.4725 -1.55381 2.70672 0
M  V30 933 N 82.7736 -1.49793 -0.48987 0
M  V30 934 C 84.0136 -1.61466 -1.25332 0
M  V30 935 C 84.3776 -0.299688 -1.89647 0
M  V30 936 O 85.5786 -0.291687 -2.67213 0
M  V30 937 C 83.8496 -2.74944 -2.28343 0
M  V30 938 S 85.4086 -3.06637 -3.13878 0
M  V30 939 H 82.2266 -0.569411 -0.425784 0
M  V30 940 H 84.8286 -1.875 -0.553541 0
M  V30 941 H 83.5326 -3.68994 -1.79643 0
M  V30 942 H 83.0636 -2.50938 -3.02975 0
M  V30 943 H 85.0786 -2.49015 -4.29192 0
M  V30 944 N 84.2517 0.741722 -1.39055 0
M  V30 945 C 85.1837 1.8657 -1.33133 0
M  V30 946 C 86.1967 1.61001 -0.241329 0
M  V30 947 O 87.3857 1.7136 -0.499784 0
M  V30 948 C 84.4857 3.22457 -1.04283 0
M  V30 949 C 83.6587 3.75435 -2.24427 0
M  V30 950 C 82.7177 4.89867 -1.92138 0
M  V30 951 O 81.7437 5.03879 -2.64754 0
M  V30 952 N 82.9457 5.73738 -0.88347 0
M  V30 953 H 85.7107 1.92156 -2.29991 0
M  V30 954 H 83.2717 0.922172 -1.3307 0
M  V30 955 H 85.2637 3.9657 -0.807128 0
M  V30 956 H 83.8337 3.12181 -0.161807 0
M  V30 957 H 83.0537 2.92751 -2.6399 0
M  V30 958 H 84.3417 4.07563 -3.04581 0
M  V30 959 H 83.7397 5.64999 -0.281517 0
M  V30 960 H 82.2967 6.47947 -0.707662 0
M  V30 961 N 85.7298 1.2412 0.971189 0
M  V30 962 C 86.6768 1.0305 2.06517 0
M  V30 963 C 87.6468 -0.0550666 1.66009 0
M  V30 964 O 88.8318 0.0988688 1.90544 0
M  V30 965 C 85.9718 0.637653 3.39158 0
M  V30 966 C 85.0848 1.79633 3.92882 0
M  V30 967 C 84.2198 1.34939 5.13775 0
M  V30 968 C 83.2588 2.47823 5.59687 0
M  V30 969 N 82.3958 2.04022 6.71803 0
M  V30 970 H 87.2358 1.96685 2.23873 0
M  V30 971 H 84.7728 0.979694 1.09729 0
M  V30 972 H 86.7308 0.390931 4.15364 0
M  V30 973 H 85.3608 -0.261693 3.21737 0
M  V30 974 H 84.4128 2.15681 3.13346 0
M  V30 975 H 85.7248 2.64466 4.22918 0
M  V30 976 H 84.8788 1.06134 5.97345 0
M  V30 977 H 83.6178 0.471557 4.85415 0
M  V30 978 H 82.6228 2.77392 4.74693 0
M  V30 979 H 83.8478 3.36158 5.90063 0
M  V30 980 H 81.7938 1.18632 6.45184 0
M  V30 981 H 81.7108 2.82409 7.01271 0
M  V30 982 H 82.9788 1.78347 7.58823 0
M  V30 983 N 87.2079 -1.17134 1.05439 0
M  V30 984 C 88.4569 -1.86791 0.761049 0
M  V30 985 C 88.7699 -1.82072 -0.714795 0
M  V30 986 O 89.9759 -2.47223 -1.12218 0
M  V30 987 C 88.4319 -3.35166 1.31117 0
M  V30 988 C 88.0399 -3.48381 2.81664 0
M  V30 989 C 89.7839 -4.10134 1.09499 0
M  V30 990 C 87.6909 -4.90793 3.29964 0
M  V30 991 H 86.6209 -0.699681 0.281002 0
M  V30 992 H 89.2719 -1.3226 1.27199 0
M  V30 993 H 87.6539 -3.8925 0.72803 0
M  V30 994 H 88.8279 -3.04502 3.45855 0
M  V30 995 H 87.1429 -2.86836 3.01851 0
M  V30 996 H 89.7399 -5.152 1.43084 0
M  V30 997 H 90.0829 -4.16287 0.0328772 0
M  V30 998 H 90.6159 -3.62264 1.64346 0
M  V30 999 H 87.3549 -4.89816 4.35616 0
M  V30 1000 H 86.8749 -5.35333 2.70516 0
M  V30 1001 H 88.5539 -5.59573 3.24787 0
M  V30 1002 N 88.686 -0.835752 -1.33615 0
M  V30 1003 C 89.616 -0.281739 -2.31794 0
M  V30 1004 C 90.597 0.608833 -1.58831 0
M  V30 1005 O 91.782 0.533035 -1.86741 0
M  V30 1006 C 88.912 0.546612 -3.42971 0
M  V30 1007 C 87.866 -0.247904 -4.27281 0
M  V30 1008 C 87.192 0.704001 -5.30045 0
M  V30 1009 C 88.492 -1.46324 -5.01385 0
M  V30 1010 H 90.186 -1.10206 -2.78379 0
M  V30 1011 H 87.732 -0.531388 -1.33837 0
M  V30 1012 H 89.685 0.944467 -4.1068 0
M  V30 1013 H 88.409 1.40011 -2.95067 0
M  V30 1014 H 87.068 -0.627281 -3.61194 0
M  V30 1015 H 86.716 1.55381 -4.78399 0
M  V30 1016 H 86.416 0.176524 -5.87335 0
M  V30 1017 H 87.94 1.09944 -6.0062 0
M  V30 1018 H 89.354 -1.13871 -5.61877 0
M  V30 1019 H 87.751 -1.92728 -5.6831 0
M  V30 1020 H 88.821 -2.23467 -4.30338 0
M  V30 1021 N 90.1641 1.46063 -0.591896 0
M  V30 1022 C 91.3921 2.06717 -0.0868936 0
M  V30 1023 C 91.8071 1.43916 1.22203 0
M  V30 1024 O 91.1641 0.547698 1.74088 0
M  V30 1025 C 91.2151 3.6142 0.0758725 0
M  V30 1026 O 90.9361 4.21874 -1.18126 0
M  V30 1027 C 92.4371 4.39025 0.61416 0
M  V30 1028 H 89.6571 0.668162 -0.0616518 0
M  V30 1029 H 92.2011 1.8755 -0.815175 0
M  V30 1030 H 90.3561 3.79983 0.754413 0
M  V30 1031 H 90.7701 5.14861 -1.00092 0
M  V30 1032 H 92.2441 5.4783 0.677193 0
M  V30 1033 H 92.7211 4.07708 1.63312 0
M  V30 1034 H 93.3271 4.2529 -0.0298142 0
M  V30 1035 N 91.6422 0.330177 1.54103 0
M  V30 1036 C 92.8882 -0.270806 2.00984 0
M  V30 1037 C 93.2212 -1.51265 1.21789 0
M  V30 1038 O 92.4962 -1.92142 0.301927 0
M  V30 1039 C 92.7792 -0.598339 3.55094 0
M  V30 1040 C 92.6322 0.654674 4.4501 0
M  V30 1041 C 93.9512 -1.41334 4.16789 0
M  V30 1042 H 91.0702 -0.0969531 0.730595 0
M  V30 1043 H 93.7122 0.448066 1.84641 0
M  V30 1044 H 91.8622 -1.21078 3.69151 0
M  V30 1045 H 93.5342 1.29285 4.42813 0
M  V30 1046 H 91.7772 1.28224 4.14416 0
M  V30 1047 H 92.4482 0.380944 5.50684 0
M  V30 1048 H 94.9242 -0.895597 4.06347 0
M  V30 1049 H 93.8002 -1.61127 5.24718 0
M  V30 1050 H 94.0612 -2.41146 3.70541 0
M  V30 1051 N 93.1203 -1.57491 0.0584922 0
M  V30 1052 C 94.0503 -2.14988 -0.911178 0
M  V30 1053 C 95.0313 -1.07343 -1.31952 0
M  V30 1054 O 96.2163 -1.35318 -1.39294 0
M  V30 1055 C 93.3463 -2.70078 -2.18347 0
M  V30 1056 C 92.3003 -3.82771 -1.91495 0
M  V30 1057 C 91.6263 -4.24408 -3.25241 0
M  V30 1058 C 92.9263 -5.07592 -1.23075 0
M  V30 1059 H 94.6203 -2.96263 -0.432246 0
M  V30 1060 H 92.1663 -1.42512 -0.206469 0
M  V30 1061 H 94.1193 -3.08943 -2.86587 0
M  V30 1062 H 92.8433 -1.86005 -2.68458 0
M  V30 1063 H 91.5023 -3.44389 -1.25664 0
M  V30 1064 H 91.1503 -3.37275 -3.73168 0
M  V30 1065 H 90.8503 -5.00366 -3.08071 0
M  V30 1066 H 92.3743 -4.65879 -3.94701 0
M  V30 1067 H 93.7883 -5.43857 -1.81362 0
M  V30 1068 H 92.1853 -5.88741 -1.16207 0
M  V30 1069 H 93.2553 -4.84454 -0.207847 0
M  V30 1070 N 94.5984 0.214957 -1.56127 0
M  V30 1071 C 95.8754 0.963093 -1.70247 0
M  V30 1072 C 96.2554 2.02166 -0.60764 0
M  V30 1073 O 95.6034 2.25244 0.384385 0
M  V30 1074 C 95.8134 1.56756 -3.11815 0
M  V30 1075 C 97.1614 2.0573 -3.7143 0
M  V30 1076 O 98.1854 1.66637 -3.14818 0
M  V30 1077 O 97.0444 2.77603 -4.70743 0
M  V30 1078 H 94.1384 0.450321 -0.693643 0
M  V30 1079 H 96.6844 0.206219 -1.68442 0
M  V30 1080 H 95.4564 0.803533 -3.82961 0
M  V30 1081 H 95.0794 2.3898 -3.17765 0
M  V30 1082 N 96.0765 1.50051 0.48192 0
M  V30 1083 C 97.4875 1.5348 1.06305 0
M  V30 1084 C 97.8385 0.331997 1.93371 0
M  V30 1085 O 96.9635 -0.556256 2.09129 0
M  V30 1086 C 97.5585 2.7813 1.93466 0
M  V30 1087 C 96.1175 2.84275 2.46707 0
M  V30 1088 C 95.2645 2.47637 1.24785 0
M  V30 1089 H 98.2155 1.56472 0.264995 0
M  V30 1090 H 98.2365 2.59372 2.78399 0
M  V30 1091 H 97.7485 3.65654 1.30072 0
M  V30 1092 H 95.8495 2.01077 3.13686 0
M  V30 1093 H 95.9625 3.8691 2.82555 0
M  V30 1094 H 94.3265 1.99835 1.57918 0
M  V30 1095 H 95.1095 3.37457 0.630694 0
M  V30 1096 N 97.5546 -0.734337 1.39446 0
M  V30 1097 C 98.4876 -1.85715 1.32609 0
M  V30 1098 C 99.4656 -1.6137 0.199636 0
M  V30 1099 O 100.65 -1.84626 0.380195 0
M  V30 1100 C 97.7766 -3.21709 1.05929 0
M  V30 1101 C 96.8226 -3.64913 2.20773 0
M  V30 1102 S 97.6556 -3.74203 3.83056 0
M  V30 1103 C 98.8116 -5.12986 3.58603 0
M  V30 1104 H 99.0446 -1.91232 2.27635 0
M  V30 1105 H 96.5776 -0.899263 1.25509 0
M  V30 1106 H 98.5356 -4.00236 0.912203 0
M  V30 1107 H 97.1966 -3.13848 0.125883 0
M  V30 1108 H 96.3896 -4.63606 1.97699 0
M  V30 1109 H 95.9916 -2.93593 2.31688 0
M  V30 1110 H 98.2836 -5.99339 3.15909 0
M  V30 1111 H 99.2266 -5.41088 4.5676 0
M  V30 1112 H 99.6346 -4.82694 2.9269 0
M  V30 1113 N 99.0327 -1.24633 -0.964593 0
M  V30 1114 C 100.279 -1.08949 -1.71049 0
M  V30 1115 C 100.612 0.370302 -1.90637 0
M  V30 1116 O 99.8867 1.27349 -1.47011 0
M  V30 1117 C 100.17 -1.83329 -3.0994 0
M  V30 1118 C 100.023 -3.37077 -2.97824 0
M  V30 1119 C 101.342 -1.60846 -4.09654 0
M  V30 1120 H 98.4607 -0.397178 -0.620821 0
M  V30 1121 H 101.103 -1.5334 -1.12191 0
M  V30 1122 H 99.2527 -1.45597 -3.60186 0
M  V30 1123 H 100.925 -3.84425 -2.5498 0
M  V30 1124 H 99.1677 -3.65298 -2.33965 0
M  V30 1125 H 99.8387 -3.84324 -3.96231 0
M  V30 1126 H 102.315 -1.93674 -3.68279 0
M  V30 1127 H 101.191 -2.1534 -5.04896 0
M  V30 1128 H 101.452 -0.547434 -4.38698 0
M  V30 1129 N 100.511 1.16574 -1.06058 0
M  V30 1130 C 101.922 1.68662 -0.800632 0
M  V30 1131 C 102.273 1.84184 0.67608 0
M  V30 1132 O 101.398 1.53568 1.52466 0
M  V30 1133 C 101.993 3.06356 -1.44676 0
M  V30 1134 C 100.552 3.55575 -1.23465 0
M  V30 1135 C 99.6988 2.31616 -1.52477 0
M  V30 1136 H 102.65 1.00969 -1.22438 0
M  V30 1137 H 102.671 3.70636 -0.860788 0
M  V30 1138 H 102.183 2.95027 -2.52152 0
M  V30 1139 H 100.284 3.72167 -0.179527 0
M  V30 1140 H 100.397 4.37812 -1.94571 0
M  V30 1141 H 98.7608 2.36512 -0.945209 0
M  V30 1142 H 99.5438 2.22887 -2.61106 0
M  V30 1143 N 101.989 0.842826 1.3317 0
M  V30 1144 C 103.217 0.454055 2.01856 0
M  V30 1145 C 103.632 -0.94587 1.63397 0
M  V30 1146 O 102.989 -1.61534 0.849302 0
M  V30 1147 C 103.04 0.569715 3.56982 0
M  V30 1148 O 102.761 1.91448 3.94055 0
M  V30 1149 C 104.262 0.178412 4.42941 0
M  V30 1150 H 101.482 0.17979 0.646465 0
M  V30 1151 H 104.026 1.1365 1.70012 0
M  V30 1152 H 102.181 -0.0648587 3.87346 0
M  V30 1153 H 102.595 1.90282 4.88767 0
M  V30 1154 H 104.069 0.310376 5.51127 0
M  V30 1155 H 104.546 -0.880056 4.30293 0
M  V30 1156 H 105.152 0.787579 4.17944 0
M  V30 1157 N 103.467 -1.45747 0.599634 0
M  V30 1158 C 104.715 -2.01893 0.0915472 0
M  V30 1159 C 105.036 -1.47155 -1.27946 0
M  V30 1160 O 104.306 -0.66273 -1.84349 0
M  V30 1161 H 102.886 -0.746363 0.0308524 0
M  V30 1162 H 105.548 -1.78645 0.779237 0
M  V30 1163 H 104.644 -3.1208 0.0353086 0
M  V30 1164 N 104.945 -0.338344 -1.53925 0
M  V30 1165 C 106.17 0.263987 -2.05713 0
M  V30 1166 C 106.595 1.43847 -1.21201 0
M  V30 1167 O 105.953 1.79904 -0.224535 0
M  V30 1168 C 106.001 0.662 -3.54471 0
M  V30 1169 O 105.105 1.76265 -3.72833 0
M  V30 1170 H 104.446 0.0448722 -0.662482 0
M  V30 1171 H 106.976 -0.491048 -1.9862 0
M  V30 1172 H 106.986 0.940594 -3.9701 0
M  V30 1173 H 105.661 -0.196937 -4.15433 0
M  V30 1174 H 104.238 1.48173 -3.42198 0
M  V30 1175 N 106.423 1.57458 -0.0668435 0
M  V30 1176 C 107.333 2.15937 0.916975 0
M  V30 1177 C 108.349 1.12123 1.33058 0
M  V30 1178 O 109.525 1.44366 1.40429 0
M  V30 1179 C 106.59 2.70547 2.16807 0
M  V30 1180 C 105.651 3.89215 1.81135 0
M  V30 1181 C 104.884 4.41211 3.0028 0
M  V30 1182 O 105.107 3.92225 4.14144 0
M  V30 1183 O 104.041 5.32605 2.80384 0
M  V30 1184 H 107.867 3.00354 0.449561 0
M  V30 1185 H 105.452 1.48584 0.155949 0
M  V30 1186 H 107.334 3.0557 2.90181 0
M  V30 1187 H 106.009 1.89192 2.62656 0
M  V30 1188 H 104.916 3.59054 1.05028 0
M  V30 1189 H 106.249 4.71848 1.40073 0
M  V30 1190 N 107.901 -0.206675 1.56239 0
M  V30 1191 C 108.849 -1.27571 1.94495 0
M  V30 1192 C 109.843 -1.47737 0.828862 0
M  V30 1193 O 111.049 -1.48735 1.0138 0
M  V30 1194 H 107.424 -0.428029 0.6183 0
M  V30 1195 H 109.395 -0.925961 2.8367 0
M  V30 1196 C 108.144 -2.61568 2.29079 0
M  V30 1197 H 107.467 -2.46863 3.14482 0
M  V30 1198 H 108.907 -3.35144 2.5972 0
M  V30 1199 C 107.366 -3.17695 1.12123 0
M  V30 1200 O 107.896 -3.99801 0.390153 0
M  V30 1201 N 106.102 -2.76276 0.901097 0
M  V30 1202 H 105.649 -2.09613 1.49733 0
M  V30 1203 H 105.607 -3.1417 0.120319 0
M  V30 1204 N 109.379 -1.50304 -0.473955 0
M  V30 1205 C 110.309 -1.71886 -1.58042 0
M  V30 1206 C 111.29 -0.567799 -1.60344 0
M  V30 1207 O 112.475 -0.806623 -1.76656 0
M  V30 1208 C 109.605 -1.81036 -2.96384 0
M  V30 1209 C 108.559 -2.962 -3.08949 0
M  V30 1210 C 107.885 -2.9049 -4.48909 0
M  V30 1211 C 109.185 -4.36752 -2.86434 0
M  V30 1212 H 110.879 -2.64527 -1.40234 0
M  V30 1213 H 108.425 -1.27295 -0.673201 0
M  V30 1214 H 110.378 -1.94719 -3.73714 0
M  V30 1215 H 109.102 -0.850147 -3.15341 0
M  V30 1216 H 107.761 -2.82164 -2.3405 0
M  V30 1217 H 107.409 -1.92321 -4.64781 0
M  V30 1218 H 107.109 -3.67802 -4.58253 0
M  V30 1219 H 108.633 -3.06218 -5.28264 0
M  V30 1220 H 110.047 -4.5133 -3.53517 0
M  V30 1221 H 108.444 -5.15493 -3.07225 0
M  V30 1222 H 109.514 -4.49321 -1.82316 0
M  V30 1223 N 110.857 0.726932 -1.39834 0
M  V30 1224 C 111.804 1.841 -1.39197 0
M  V30 1225 C 112.774 1.642 -0.250502 0
M  V30 1226 O 113.959 1.85494 -0.446846 0
M  V30 1227 C 111.099 3.21697 -1.24919 0
M  V30 1228 C 110.212 3.53247 -2.48678 0
M  V30 1229 C 109.347 4.80289 -2.26928 0
M  V30 1230 C 108.386 5.04707 -3.4632 0
M  V30 1231 N 107.523 6.22956 -3.23836 0
M  V30 1232 H 112.363 1.83979 -2.34427 0
M  V30 1233 H 109.9 0.898876 -1.16442 0
M  V30 1234 H 111.858 4.01137 -1.1465 0
M  V30 1235 H 110.488 3.21076 -0.333153 0
M  V30 1236 H 109.54 2.68447 -2.69519 0
M  V30 1237 H 110.852 3.67205 -3.37582 0
M  V30 1238 H 110.006 5.67725 -2.13947 0
M  V30 1239 H 108.745 4.68519 -1.35431 0
M  V30 1240 H 107.75 4.1573 -3.5979 0
M  V30 1241 H 108.975 5.18357 -4.38729 0
M  V30 1242 H 106.921 6.12459 -2.35011 0
M  V30 1243 H 106.838 6.37539 -4.063 0
M  V30 1244 H 108.106 7.1321 -3.14566 0
M  V30 1245 N 112.336 1.25143 0.95797 0
M  V30 1246 C 113.561 1.12521 1.74223 0
M  V30 1247 C 113.986 -0.317402 1.85403 0
M  V30 1248 O 113.344 -1.2299 1.33204 0
M  V30 1249 C 113.392 1.78062 3.1357 0
M  V30 1250 O 112.496 1.058 3.98598 0
M  V30 1251 H 111.837 0.39304 0.535178 0
M  V30 1252 H 114.367 1.65641 1.201 0
M  V30 1253 H 114.377 1.84213 3.64046 0
M  V30 1254 H 113.052 2.83021 3.04749 0
M  V30 1255 H 111.629 1.07506 3.57067 0
M  V30 1256 N 113.814 -1.1601 1.06675 0
M  V30 1257 C 114.744 -2.22688 0.702307 0
M  V30 1258 C 115.725 -1.67306 -0.307032 0
M  V30 1259 O 116.91 -1.93352 -0.181305 0
M  V30 1260 C 114.04 -3.47178 0.092038 0
M  V30 1261 C 112.994 -4.15477 1.02777 0
M  V30 1262 C 112.32 -5.33963 0.28061 0
M  V30 1263 C 113.62 -4.66019 2.35846 0
M  V30 1264 H 115.314 -2.53429 1.59419 0
M  V30 1265 H 112.86 -1.21813 0.767961 0
M  V30 1266 H 114.813 -4.21037 -0.174814 0
M  V30 1267 H 113.537 -3.15749 -0.834877 0
M  V30 1268 H 112.196 -3.43549 1.27944 0
M  V30 1269 H 111.844 -4.98788 -0.649545 0
M  V30 1270 H 111.544 -5.806 0.904258 0
M  V30 1271 H 113.068 -6.10596 0.021396 0
M  V30 1272 H 114.482 -5.3144 2.15045 0
M  V30 1273 H 112.879 -5.23293 2.93743 0
M  V30 1274 H 113.949 -3.82023 2.98641 0
M  V30 1275 N 115.292 -0.849877 -1.32721 0
M  V30 1276 C 116.539 -0.450923 -1.97416 0
M  V30 1277 C 116.867 0.992376 -1.67279 0
M  V30 1278 O 116.122 1.71048 -0.950845 0
M  V30 1279 C 116.421 -0.631272 -3.51781 0
M  V30 1280 C 116.087 -2.04432 -4.01894 0
M  V30 1281 C 114.749 -2.4308 -4.1529 0
M  V30 1282 C 117.101 -2.96679 -4.28522 0
M  V30 1283 C 114.429 -3.73257 -4.52654 0
M  V30 1284 C 116.781 -4.26349 -4.67343 0
M  V30 1285 C 115.445 -4.64939 -4.78945 0
M  V30 1286 H 114.715 -0.165004 -0.722395 0
M  V30 1287 H 117.362 -1.07901 -1.58207 0
M  V30 1288 H 115.667 0.0800767 -3.91718 0
M  V30 1289 H 117.364 -0.302709 -3.99856 0
M  V30 1290 H 113.954 -1.73419 -3.91949 0
M  V30 1291 H 118.138 -2.68054 -4.17685 0
M  V30 1292 H 113.394 -4.02946 -4.59831 0
M  V30 1293 H 117.568 -4.97895 -4.86902 0
M  V30 1294 H 115.195 -5.65855 -5.07654 0
M  V30 1295 N 116.77 1.45427 -0.607355 0
M  V30 1296 C 117.718 2.32269 0.12411 0
M  V30 1297 C 118.712 1.45955 0.859854 0
M  V30 1298 O 119.918 1.6244 0.775447 0
M  V30 1299 H 116.293 0.749691 0.0588839 0
M  V30 1300 H 118.264 2.91743 -0.626762 0
M  V30 1301 C 117.013 3.29567 1.1082 0
M  V30 1302 H 116.336 3.95978 0.551492 0
M  V30 1303 H 117.776 3.93061 1.58995 0
M  V30 1304 C 116.235 2.56722 2.18164 0
M  V30 1305 O 116.765 2.34842 3.25902 0
M  V30 1306 N 114.971 2.16861 1.93442 0
M  V30 1307 H 114.518 2.34855 1.05834 0
M  V30 1308 H 114.476 1.68444 2.65469 0
M  V30 1309 N 118.248 0.346503 1.53744 0
M  V30 1310 C 119.476 -0.25041 2.05379 0
M  V30 1311 C 119.891 -1.43979 1.22129 0
M  V30 1312 O 119.248 -1.80677 0.257321 0
M  V30 1313 C 119.299 -0.662575 3.55376 0
M  V30 1314 O 119.02 0.479515 4.35468 0
M  V30 1315 C 120.521 -1.31989 4.23195 0
M  V30 1316 H 117.741 -0.0478198 0.669294 0
M  V30 1317 H 120.285 0.499346 1.9831 0
M  V30 1318 H 118.44 -1.36227 3.62658 0
M  V30 1319 H 118.854 0.15037 5.24284 0
M  V30 1320 H 120.328 -1.55902 5.29527 0
M  V30 1321 H 120.805 -2.27436 3.75725 0
M  V30 1322 H 121.411 -0.662154 4.20114 0
M  V30 1323 N 119.726 -1.57421 0.075193 0
M  V30 1324 C 120.972 -1.93905 -0.594025 0
M  V30 1325 C 121.305 -0.955701 -1.69056 0
M  V30 1326 O 120.58 0.0145373 -1.94495 0
M  V30 1327 C 120.863 -3.40638 -1.1678 0
M  V30 1328 C 120.716 -4.49733 -0.0776792 0
M  V30 1329 C 122.035 -3.88259 -2.07228 0
M  V30 1330 H 119.154 -0.705105 -0.214466 0
M  V30 1331 H 121.796 -1.8947 0.141854 0
M  V30 1332 H 119.946 -3.44549 -1.79494 0
M  V30 1333 H 121.618 -4.57942 0.555573 0
M  V30 1334 H 119.861 -4.29751 0.591286 0
M  V30 1335 H 120.532 -5.49549 -0.519603 0
M  V30 1336 H 123.008 -3.86376 -1.54445 0
M  V30 1337 H 121.884 -4.91533 -2.44308 0
M  V30 1338 H 122.145 -3.26396 -2.98191 0
M  V30 1339 N 121.204 0.198386 -1.56346 0
M  V30 1340 C 122.444 0.92609 -1.82217 0
M  V30 1341 C 122.808 1.80584 -0.652195 0
M  V30 1342 O 124.009 2.56907 -0.790716 0
M  V30 1343 C 122.28 1.72354 -3.13096 0
M  V30 1344 S 123.839 2.50371 -3.6036 0
M  V30 1345 H 120.657 0.310677 -0.639532 0
M  V30 1346 H 123.259 0.189755 -1.94577 0
M  V30 1347 H 121.963 1.0678 -3.96265 0
M  V30 1348 H 121.494 2.50175 -3.03605 0
M  V30 1349 H 123.509 3.74488 -3.25535 0
M  V30 1350 N 122.682 1.50554 0.465978 0
M  V30 1351 C 123.928 1.62038 1.21949 0
M  V30 1352 C 124.261 0.322116 1.9151 0
M  V30 1353 O 123.536 -0.676723 1.82348 0
M  V30 1354 C 123.819 2.80421 2.25912 0
M  V30 1355 C 123.672 4.20144 1.60622 0
M  V30 1356 C 124.991 2.94354 3.27176 0
M  V30 1357 H 122.11 0.589752 0.441998 0
M  V30 1358 H 124.752 1.82956 0.51257 0
M  V30 1359 H 122.902 2.62717 2.86203 0
M  V30 1360 H 124.574 4.49449 1.03889 0
M  V30 1361 H 122.817 4.24165 0.909211 0
M  V30 1362 H 123.488 4.98914 2.36196 0
M  V30 1363 H 125.964 3.10578 2.76913 0
M  V30 1364 H 124.84 3.788 3.97242 0
M  V30 1365 H 125.101 2.05186 3.916 0
M  V30 1366 N 124.16 -0.719506 1.40217 0
M  V30 1367 C 125.409 -1.47486 1.37589 0
M  V30 1368 C 125.722 -1.9559 -0.0201568 0
M  V30 1369 O 126.928 -2.70973 -0.169049 0
M  V30 1370 C 125.384 -2.66575 2.41796 0
M  V30 1371 C 124.992 -2.25358 3.87192 0
M  V30 1372 C 126.736 -3.4433 2.48269 0
M  V30 1373 C 124.643 -3.41262 4.83005 0
M  V30 1374 H 123.573 -0.553901 0.511576 0
M  V30 1375 H 126.224 -0.783427 1.65936 0
M  V30 1376 H 124.606 -3.3787 2.06543 0
M  V30 1377 H 125.78 -1.61509 4.31569 0
M  V30 1378 H 124.095 -1.60657 3.84159 0
M  V30 1379 H 126.692 -4.30569 3.17041 0
M  V30 1380 H 127.035 -3.87872 1.51198 0
M  V30 1381 H 127.568 -2.80076 2.82493 0
M  V30 1382 H 124.307 -3.02755 5.81394 0
M  V30 1383 H 123.827 -4.0404 4.43297 0
M  V30 1384 H 125.506 -4.07383 5.02641 0
M  V30 1385 N 125.638 -1.25649 -0.95132 0
M  V30 1386 C 126.884 -1.11766 -1.69941 0
M  V30 1387 C 127.239 0.33735 -1.89419 0
M  V30 1388 O 126.532 1.24491 -1.45645 0
M  V30 1389 C 126.726 -1.80909 -3.08231 0
M  V30 1390 C 126.555 -3.32984 -3.02245 0
M  V30 1391 C 125.325 -4.02247 -3.05819 0
M  V30 1392 C 127.523 -4.29332 -2.83157 0
M  V30 1393 N 125.505 -5.41072 -2.90024 0
M  V30 1394 C 126.876 -5.55265 -2.75828 0
M  V30 1395 C 128.931 -4.19707 -2.67863 0
M  V30 1396 C 127.634 -6.72671 -2.54767 0
M  V30 1397 C 129.66 -5.36809 -2.48173 0
M  V30 1398 C 129.022 -6.61683 -2.41567 0
M  V30 1399 H 125.121 -0.463708 -0.629682 0
M  V30 1400 H 127.705 -1.58796 -1.12659 0
M  V30 1401 H 125.876 -1.36369 -3.63673 0
M  V30 1402 H 127.608 -1.59739 -3.71841 0
M  V30 1403 H 124.363 -3.53531 -3.15139 0
M  V30 1404 H 124.787 -6.13938 -2.85323 0
M  V30 1405 H 129.429 -3.23907 -2.71743 0
M  V30 1406 H 127.147 -7.68577 -2.49629 0
M  V30 1407 H 130.733 -5.31224 -2.37259 0
M  V30 1408 H 129.613 -7.50768 -2.26531 0
M  V30 1409 N 127.117 1.15442 -1.07289 0
M  V30 1410 C 128.357 1.8788 -0.805012 0
M  V30 1411 C 128.721 1.80413 0.656907 0
M  V30 1412 O 129.922 2.47874 1.0398 0
M  V30 1413 C 128.193 3.3298 -1.29843 0
M  V30 1414 S 129.752 4.23158 -1.16114 0
M  V30 1415 H 126.57 0.64839 -0.291739 0
M  V30 1416 H 129.172 1.39285 -1.37186 0
M  V30 1417 H 127.876 3.35958 -2.35712 0
M  V30 1418 H 127.407 3.86629 -0.726767 0
M  V30 1419 H 129.422 4.96103 -0.0982778 0
M  V30 1420 N 128.595 0.856903 1.32268 0
M  V30 1421 C 129.844 0.457599 1.96441 0
M  V30 1422 C 130.157 -0.992426 1.68553 0
M  V30 1423 O 131.363 -1.49727 2.26482 0
M  V30 1424 C 129.819 0.767358 3.51624 0
M  V30 1425 C 129.427 2.23326 3.88367 0
M  V30 1426 C 131.171 0.435887 4.22256 0
M  V30 1427 C 129.078 2.48613 5.36606 0
M  V30 1428 H 128.008 0.167387 0.735185 0
M  V30 1429 H 130.659 1.048 1.5063 0
M  V30 1430 H 129.041 0.106367 3.95857 0
M  V30 1431 H 130.215 2.93623 3.55137 0
M  V30 1432 H 128.53 2.52948 3.30766 0
M  V30 1433 H 131.127 0.602202 5.31298 0
M  V30 1434 H 131.47 -0.622672 4.11617 0
M  V30 1435 H 132.003 1.05286 3.83614 0
M  V30 1436 H 128.742 3.53101 5.52268 0
M  V30 1437 H 128.262 1.82896 5.71235 0
M  V30 1438 H 129.941 2.32676 6.03714 0
M  V30 1439 N 130.073 -1.45103 0.615059 0
M  V30 1440 C 131.023 -2.27679 -0.120966 0
M  V30 1441 C 132.007 -1.3775 -0.831491 0
M  V30 1442 O 133.199 -1.61683 -0.720249 0
M  V30 1443 C 130.328 -3.24767 -1.1127 0
M  V30 1444 C 129.414 -4.22184 -0.402627 0
M  V30 1445 N 129.805 -5.02692 0.559884 0
M  V30 1446 C 128.103 -4.4125 -0.649202 0
M  V30 1447 C 128.804 -5.73421 0.977942 0
M  V30 1448 N 127.78 -5.42657 0.320104 0
M  V30 1449 H 131.582 -2.87325 0.618181 0
M  V30 1450 H 129.096 -1.56345 0.439304 0
M  V30 1451 H 131.093 -3.82666 -1.65446 0
M  V30 1452 H 129.753 -2.66682 -1.85232 0
M  V30 1453 H 130.764 -5.09354 0.936976 0
M  V30 1454 H 127.441 -3.9428 -1.37293 0
M  V30 1455 H 128.831 -6.48107 1.77222 0
M  V30 1456 N 131.551 -0.354651 -1.53558 0
M  V30 1457 C 132.514 0.484566 -2.24019 0
M  V30 1458 C 133.514 1.01861 -1.24422 0
M  V30 1459 O 134.704 0.906097 -1.4878 0
M  V30 1460 C 131.836 1.67615 -2.96847 0
M  V30 1461 H 133.029 -0.131843 -2.9961 0
M  V30 1462 H 130.582 -0.106165 -1.55939 0
M  V30 1463 H 131.317 2.33095 -2.25471 0
M  V30 1464 H 131.102 1.30029 -3.69912 0
M  V30 1465 H 132.592 2.27114 -3.50441 0
M  V30 1466 N 133.029 1.57378 -0.0835403 0
M  V30 1467 C 133.939 2.16897 0.894021 0
M  V30 1468 C 134.955 1.13528 1.31861 0
M  V30 1469 O 136.131 1.45848 1.3889 0
M  V30 1470 C 133.196 2.72831 2.13925 0
M  V30 1471 C 132.257 3.91115 1.76997 0
M  V30 1472 C 131.49 4.44371 2.95584 0
M  V30 1473 O 131.713 3.96596 4.09961 0
M  V30 1474 O 130.647 5.35549 2.74719 0
M  V30 1475 H 134.473 3.00814 0.417679 0
M  V30 1476 H 132.058 1.48741 0.140181 0
M  V30 1477 H 133.94 3.0863 2.86924 0
M  V30 1478 H 132.615 1.91967 2.60635 0
M  V30 1479 H 131.522 3.60148 1.01214 0
M  V30 1480 H 132.855 4.73307 1.3506 0
M  V30 1481 N 134.507 -0.190092 1.56449 0
M  V30 1482 C 135.417 -1.25591 1.98152 0
M  V30 1483 C 136.433 -1.49519 0.889944 0
M  V30 1484 O 137.609 -1.62036 1.19609 0
M  V30 1485 C 134.674 -2.57916 2.3169 0
M  V30 1486 C 133.735 -2.42015 3.5458 0
M  V30 1487 C 132.968 -3.6803 3.8651 0
M  V30 1488 O 133.191 -4.72413 3.1966 0
M  V30 1489 O 132.125 -3.6326 4.79923 0
M  V30 1490 H 135.951 -0.931988 2.89046 0
M  V30 1491 H 133.536 -0.395488 1.4407 0
M  V30 1492 H 135.418 -3.36008 2.54316 0
M  V30 1493 H 134.093 -2.89925 1.43963 0
M  V30 1494 H 133 -1.62017 3.37196 0
M  V30 1495 H 134.333 -2.14937 4.4279 0
M  V30 1496 N 135.985 -1.50799 -0.457987 0
M  V30 1497 C 136.932 -1.70617 -1.5543 0
M  V30 1498 C 137.902 -0.547562 -1.56815 0
M  V30 1499 O 139.087 -0.779647 -1.74144 0
M  V30 1500 C 136.227 -1.81831 -2.93311 0
M  V30 1501 C 135.34 -3.09278 -3.01615 0
M  V30 1502 C 134.475 -3.11209 -4.30491 0
M  V30 1503 C 133.514 -4.33055 -4.32585 0
M  V30 1504 N 132.651 -4.32652 -5.52952 0
M  V30 1505 H 137.491 -2.64207 -1.37836 0
M  V30 1506 H 135.028 -1.30959 -0.669937 0
M  V30 1507 H 136.986 -1.86314 -3.73287 0
M  V30 1508 H 135.616 -0.916685 -3.0951 0
M  V30 1509 H 134.668 -3.14203 -2.1443 0
M  V30 1510 H 135.98 -3.99233 -2.99022 0
M  V30 1511 H 135.134 -3.14494 -5.18824 0
M  V30 1512 H 133.873 -2.19106 -4.35711 0
M  V30 1513 H 132.878 -4.29969 -3.42647 0
M  V30 1514 H 134.103 -5.264 -4.29046 0
M  V30 1515 H 132.049 -3.43409 -5.58933 0
M  V30 1516 H 131.966 -5.16392 -5.52155 0
M  V30 1517 H 133.234 -4.40101 -6.43375 0
M  V30 1518 N 137.463 0.71206 -1.40597 0
M  V30 1519 C 138.709 1.47416 -1.39271 0
M  V30 1520 C 139.042 1.942 0.00388791 0
M  V30 1521 O 138.317 1.68403 0.973179 0
M  V30 1522 C 138.6 2.69774 -2.38525 0
M  V30 1523 C 138.453 2.28861 -3.87224 0
M  V30 1524 C 139.772 3.71939 -2.35264 0
M  V30 1525 H 136.891 0.534713 -0.5072 0
M  V30 1526 H 139.533 0.812375 -1.71757 0
M  V30 1527 H 137.683 3.26238 -2.10953 0
M  V30 1528 H 139.355 1.77852 -4.25636 0
M  V30 1529 H 137.598 1.60824 -4.02887 0
M  V30 1530 H 138.269 3.16584 -4.52193 0
M  V30 1531 H 140.745 3.25113 -2.59694 0
M  V30 1532 H 139.621 4.55186 -3.06753 0
M  V30 1533 H 139.882 4.20484 -1.36549 0
M  V30 1534 N 138.941 1.26152 0.944643 0
M  V30 1535 C 139.888 1.07408 2.04285 0
M  V30 1536 C 140.858 -0.0198413 1.66088 0
M  V30 1537 O 142.043 0.139264 1.90291 0
M  V30 1538 C 139.183 0.70945 3.37729 0
M  V30 1539 C 138.296 1.87926 3.88983 0
M  V30 1540 C 137.431 1.45807 5.10797 0
M  V30 1541 C 136.47 2.5964 5.54305 0
M  V30 1542 N 135.607 2.18226 6.67324 0
M  V30 1543 H 140.447 2.01389 2.1965 0
M  V30 1544 H 137.984 1.00275 1.07626 0
M  V30 1545 H 139.942 0.478948 4.14442 0
M  V30 1546 H 138.572 -0.193389 3.2222 0
M  V30 1547 H 137.624 2.22279 3.08701 0
M  V30 1548 H 138.936 2.73377 4.17213 0
M  V30 1549 H 138.09 1.18781 5.94959 0
M  V30 1550 H 136.829 0.574414 4.84305 0
M  V30 1551 H 135.834 2.87399 4.68702 0
M  V30 1552 H 137.059 3.48599 5.828 0
M  V30 1553 H 135.005 1.3229 6.42523 0
M  V30 1554 H 134.922 2.97221 6.95123 0
M  V30 1555 H 136.19 1.94403 7.54869 0
M  V30 1556 N 140.419 -1.14872 1.07899 0
M  V30 1557 C 141.696 -1.81928 0.71845 0
M  V30 1558 C 142.076 -1.95417 -0.798455 0
M  V30 1559 O 141.424 -1.50997 -1.715 0
M  V30 1560 C 141.634 -3.17937 1.43935 0
M  V30 1561 C 142.982 -3.93501 1.59506 0
M  V30 1562 O 144.006 -3.27509 1.40058 0
M  V30 1563 O 142.865 -5.1183 1.91551 0
M  V30 1564 H 139.959 -0.78628 0.256305 0
M  V30 1565 H 142.505 -1.21934 1.18026 0
M  V30 1566 H 141.277 -3.0325 2.47295 0
M  V30 1567 H 140.9 -3.85619 0.968687 0
M  V30 1568 N 141.898 -0.863906 -1.31812 0
M  V30 1569 C 143.126 -0.486111 -2.01108 0
M  V30 1570 C 143.541 0.919755 -1.64882 0
M  V30 1571 O 142.898 1.60162 -0.874893 0
M  V30 1572 C 142.949 -0.626435 -3.56031 0
M  V30 1573 O 142.67 -1.97693 -3.90959 0
M  V30 1574 C 144.171 -0.248857 -4.42601 0
M  V30 1575 H 141.391 -0.190052 -0.643523 0
M  V30 1576 H 143.935 -1.1634 -1.68182 0
M  V30 1577 H 142.09 0.00322717 -3.874 0
M  V30 1578 H 142.504 -1.98034 -4.85678 0
M  V30 1579 H 143.978 -0.398016 -5.50563 0
M  V30 1580 H 144.455 0.811489 -4.31638 0
M  V30 1581 H 145.061 -0.853971 -4.16638 0
M  V30 1582 N 143.376 1.44774 -0.622745 0
M  V30 1583 C 144.286 2.34433 0.0886031 0
M  V30 1584 C 145.302 1.52131 0.844529 0
M  V30 1585 O 146.478 1.84886 0.798691 0
M  V30 1586 C 143.543 3.29986 1.0635 0
M  V30 1587 C 142.604 4.28195 0.307873 0
M  V30 1588 C 141.837 5.19183 1.23633 0
M  V30 1589 O 142.06 5.13918 2.47476 0
M  V30 1590 O 140.994 5.97515 0.725189 0
M  V30 1591 H 144.82 2.96693 -0.648599 0
M  V30 1592 H 142.405 1.44408 -0.382957 0
M  V30 1593 H 144.287 3.88825 1.6246 0
M  V30 1594 H 142.962 2.70269 1.78146 0
M  V30 1595 H 141.869 3.72927 -0.296064 0
M  V30 1596 H 143.202 4.90808 -0.3699 0
M  V30 1597 N 144.854 0.36279 1.53368 0
M  V30 1598 C 146.102 -0.227326 2.00817 0
M  V30 1599 C 146.423 -1.49511 1.25186 0
M  V30 1600 O 145.693 -1.92482 0.364348 0
M  V30 1601 H 144.273 -0.0869923 0.741917 0
M  V30 1602 H 146.935 0.488381 1.88682 0
M  V30 1603 H 146.031 -0.456273 3.08747 0
M  V30 1604 N 146.332 -1.57332 0.0918853 0
M  V30 1605 C 147.295 -2.12708 -0.85369 0
M  V30 1606 C 148.295 -1.05561 -1.213 0
M  V30 1607 O 149.485 -1.31461 -1.14296 0
M  V30 1608 C 146.617 -2.64503 -2.15061 0
M  V30 1609 H 147.81 -2.97573 -0.3729 0
M  V30 1610 H 145.363 -1.55509 -0.157072 0
M  V30 1611 H 146.098 -1.83149 -2.67632 0
M  V30 1612 H 145.883 -3.4284 -1.90272 0
M  V30 1613 H 147.373 -3.07351 -2.82711 0
M  V30 1614 N 147.81 0.181792 -1.56548 0
M  V30 1615 C 148.757 1.22521 -1.95595 0
M  V30 1616 C 149.727 1.4454 -0.818373 0
M  V30 1617 O 150.912 1.57454 -1.07763 0
M  V30 1618 C 148.052 2.56193 -2.31212 0
M  V30 1619 C 147.165 2.41641 -3.58097 0
M  V30 1620 C 146.3 3.68108 -3.82975 0
M  V30 1621 C 145.339 3.48445 -5.03242 0
M  V30 1622 N 144.476 4.66956 -5.24306 0
M  V30 1623 H 149.316 0.885226 -2.84548 0
M  V30 1624 H 146.853 0.425718 -1.40805 0
M  V30 1625 H 148.811 3.34088 -2.49882 0
M  V30 1626 H 147.441 2.88208 -1.45382 0
M  V30 1627 H 146.493 1.54976 -3.474 0
M  V30 1628 H 147.805 2.23052 -4.46149 0
M  V30 1629 H 146.959 4.54441 -4.01956 0
M  V30 1630 H 145.698 3.89666 -2.93278 0
M  V30 1631 H 144.703 2.60499 -4.8417 0
M  V30 1632 H 145.928 3.2832 -5.9446 0
M  V30 1633 H 143.874 4.88752 -4.37559 0
M  V30 1634 H 143.791 4.51242 -6.06561 0
M  V30 1635 H 145.059 5.54602 -5.47756 0
M  V30 1636 N 149.288 1.51039 0.449983 0
M  V30 1637 C 150.22 1.67617 1.56324 0
M  V30 1638 C 151.233 0.557083 1.52972 0
M  V30 1639 O 152.422 0.830989 1.57977 0
M  V30 1640 C 149.522 1.66402 2.95235 0
M  V30 1641 C 148.695 2.9469 3.23229 0
M  V30 1642 C 147.754 2.85832 4.41799 0
M  V30 1643 O 146.78 3.59785 4.41071 0
M  V30 1644 N 147.982 2.00821 5.44657 0
M  V30 1645 H 150.747 2.63648 1.42512 0
M  V30 1646 H 148.308 1.48767 0.638737 0
M  V30 1647 H 150.3 1.58062 3.72557 0
M  V30 1648 H 148.87 0.780182 3.02708 0
M  V30 1649 H 148.09 3.16996 2.34323 0
M  V30 1650 H 149.378 3.79636 3.38754 0
M  V30 1651 H 148.776 1.40091 5.48079 0
M  V30 1652 H 147.333 1.98368 6.20881 0
M  V30 1653 N 150.766 -0.704594 1.40972 0
M  V30 1654 C 152.015 -1.46018 1.39146 0
M  V30 1655 C 152.328 -1.956 0.000589254 0
M  V30 1656 O 153.534 -2.71137 -0.1403 0
M  V30 1657 C 151.99 -2.63996 2.4461 0
M  V30 1658 C 151.598 -2.21238 3.89561 0
M  V30 1659 C 153.342 -3.41677 2.51907 0
M  V30 1660 C 151.249 -3.3612 4.86598 0
M  V30 1661 H 150.179 -0.548444 0.517422 0
M  V30 1662 H 152.83 -0.765784 1.66757 0
M  V30 1663 H 151.212 -3.3566 2.10115 0
M  V30 1664 H 152.386 -1.56923 4.33257 0
M  V30 1665 H 150.701 -1.56574 3.85841 0
M  V30 1666 H 153.298 -4.27182 3.2159 0
M  V30 1667 H 153.641 -3.86247 1.55303 0
M  V30 1668 H 154.174 -2.77064 2.85448 0
M  V30 1669 H 150.913 -2.96572 5.84573 0
M  V30 1670 H 150.433 -3.99315 4.47557 0
M  V30 1671 H 152.112 -4.02029 5.06934 0
M  V30 1672 N 152.244 -1.26651 -0.937939 0
M  V30 1673 C 153.49 -1.12553 -1.687 0
M  V30 1674 C 153.823 0.329782 -1.91379 0
M  V30 1675 O 153.098 1.24202 -1.4968 0
M  V30 1676 C 153.381 -1.89862 -3.05981 0
M  V30 1677 C 153.234 -3.43318 -2.90607 0
M  V30 1678 C 154.553 -1.69499 -4.0615 0
M  V30 1679 H 151.672 -0.410257 -0.612257 0
M  V30 1680 H 154.314 -1.55685 -1.08913 0
M  V30 1681 H 152.464 -1.53204 -3.57017 0
M  V30 1682 H 154.136 -3.89747 -2.46769 0
M  V30 1683 H 152.379 -3.70179 -2.26164 0
M  V30 1684 H 153.05 -3.92642 -3.8799 0
M  V30 1685 H 155.526 -2.01442 -3.64088 0
M  V30 1686 H 154.402 -2.26002 -5.00214 0
M  V30 1687 H 154.663 -0.640365 -4.37438 0
M  V30 1688 N 153.722 1.14298 -1.08507 0
M  V30 1689 C 155.138 1.37347 -0.812901 0
M  V30 1690 C 155.338 1.93052 0.577325 0
M  V30 1691 O 154.394 2.14389 1.33393 0
M  V30 1692 C 155.707 2.33359 -1.89642 0
M  V30 1693 C 157.255 2.46996 -1.92255 0
M  V30 1694 C 157.73 3.46309 -2.99724 0
M  V30 1695 N 159.221 3.53853 -2.98902 0
M  V30 1696 C 159.956 4.3055 -3.787 0
M  V30 1697 N 159.452 5.10482 -4.6838 0
M  V30 1698 N 161.245 4.25757 -3.66998 0
M  V30 1699 H 153.396 0.764867 -1.9815 0
M  V30 1700 H 155.659 0.398966 -0.859959 0
M  V30 1701 H 155.365 1.99565 -2.89597 0
M  V30 1702 H 155.239 3.33274 -1.76659 0
M  V30 1703 H 157.626 2.80081 -0.929445 0
M  V30 1704 H 157.707 1.47039 -2.09316 0
M  V30 1705 H 157.351 3.13957 -3.99241 0
M  V30 1706 H 157.281 4.46049 -2.79907 0
M  V30 1707 H 159.772 2.96812 -2.33904 0
M  V30 1708 H 160.085 5.66284 -5.25873 0
M  V30 1709 H 158.43 5.09747 -4.72422 0
M  V30 1710 H 161.621 3.62383 -2.96304 0
M  V30 1711 H 161.794 4.85279 -4.29427 0
M  V30 1712 N 155.201 0.870884 1.31352 0
M  V30 1713 C 156.617 0.562932 1.49343 0
M  V30 1714 C 156.817 -0.902725 1.80148 0
M  V30 1715 O 155.873 -1.68484 1.88067 0
M  V30 1716 C 157.186 1.46393 2.62659 0
M  V30 1717 C 158.734 1.46607 2.76542 0
M  V30 1718 C 159.209 2.35266 3.92955 0
M  V30 1719 N 160.7 2.33151 4.00243 0
M  V30 1720 C 161.435 2.98471 4.89594 0
M  V30 1721 N 160.931 3.72964 5.8384 0
M  V30 1722 N 162.724 2.87775 4.82848 0
M  V30 1723 H 154.875 1.81923 1.09626 0
M  V30 1724 H 157.138 0.777934 0.541777 0
M  V30 1725 H 156.844 2.50689 2.46674 0
M  V30 1726 H 156.718 1.16314 3.58819 0
M  V30 1727 H 159.105 0.43069 2.9194 0
M  V30 1728 H 159.186 1.8071 1.81046 0
M  V30 1729 H 158.83 3.38881 3.78315 0
M  V30 1730 H 158.76 1.98487 4.87761 0
M  V30 1731 H 161.251 1.79006 3.32814 0
M  V30 1732 H 161.564 4.19932 6.4875 0
M  V30 1733 H 159.909 3.77073 5.83816 0
M  V30 1734 H 163.1 2.29116 4.08195 0
M  V30 1735 H 163.273 3.38961 5.52277 0
M  V30 1736 N 156.679 -1.44442 0.630414 0
M  V30 1737 C 157.629 -2.27794 -0.0968103 0
M  V30 1738 C 158.613 -1.38624 -0.816834 0
M  V30 1739 O 159.805 -1.62438 -0.70306 0
M  V30 1740 C 156.934 -3.25929 -1.07819 0
M  V30 1741 C 156.02 -4.22588 -0.357826 0
M  V30 1742 N 156.411 -5.0207 0.613169 0
M  V30 1743 C 154.709 -4.41914 -0.602365 0
M  V30 1744 C 155.41 -5.72351 1.03871 0
M  V30 1745 N 154.386 -5.42287 0.377642 0
M  V30 1746 H 158.188 -2.86653 0.648621 0
M  V30 1747 H 155.702 -1.55871 0.455862 0
M  V30 1748 H 157.699 -3.84399 -1.61378 0
M  V30 1749 H 156.359 -2.68631 -1.82393 0
M  V30 1750 H 157.37 -5.08331 0.990947 0
M  V30 1751 H 154.047 -3.95714 -1.33103 0
M  V30 1752 H 155.437 -6.4619 1.84086 0
M  V30 1753 N 158.157 -0.370918 -1.53173 0
M  V30 1754 C 159.087 0.464847 -2.28826 0
M  V30 1755 C 160.068 1.07936 -1.31468 0
M  V30 1756 O 161.253 1.0956 -1.60344 0
M  V30 1757 C 158.383 1.60196 -3.08147 0
M  V30 1758 C 157.337 1.11443 -4.13237 0
M  V30 1759 C 156.663 2.3422 -4.80672 0
M  V30 1760 C 157.963 0.195384 -5.21934 0
M  V30 1761 H 159.657 -0.166329 -2.98938 0
M  V30 1762 H 157.203 -0.0814359 -1.4377 0
M  V30 1763 H 159.156 2.19332 -3.59822 0
M  V30 1764 H 157.88 2.26045 -2.35735 0
M  V30 1765 H 156.539 0.545727 -3.62515 0
M  V30 1766 H 156.187 2.98537 -4.04827 0
M  V30 1767 H 155.887 2.02269 -5.51689 0
M  V30 1768 H 157.411 2.94032 -5.35143 0
M  V30 1769 H 158.825 0.694375 -5.69079 0
M  V30 1770 H 157.222 -0.0335027 -6.00091 0
M  V30 1771 H 158.292 -0.760961 -4.78892 0
M  V30 1772 N 159.635 1.57281 -0.100228 0
M  V30 1773 C 160.881 1.94826 0.563101 0
M  V30 1774 C 161.214 0.982475 1.67514 0
M  V30 1775 O 160.489 0.0164069 1.94493 0
M  V30 1776 C 160.772 3.42453 1.11346 0
M  V30 1777 C 160.625 4.498 0.00612081 0
M  V30 1778 C 161.944 3.91506 2.01024 0
M  V30 1779 H 159.063 0.708428 0.203221 0
M  V30 1780 H 161.705 1.8922 -0.171979 0
M  V30 1781 H 159.855 3.47361 1.7399 0
M  V30 1782 H 161.527 4.57 -0.628357 0
M  V30 1783 H 159.77 4.28756 -0.659581 0
M  V30 1784 H 160.441 5.50306 0.432109 0
M  V30 1785 H 162.917 3.88784 1.48278 0
M  V30 1786 H 161.793 4.95358 2.36457 0
M  V30 1787 H 162.054 3.31099 2.92961 0
M  V30 1788 N 161.113 -0.173488 1.56642 0
M  V30 1789 C 162.076 -1.19859 1.95362 0
M  V30 1790 C 163.076 -1.37296 0.83704 0
M  V30 1791 O 164.266 -1.34739 1.10413 0
M  V30 1792 C 161.398 -2.56405 2.24654 0
M  V30 1793 H 162.591 -0.867062 2.87092 0
M  V30 1794 H 160.144 -0.415853 1.50666 0
M  V30 1795 H 160.879 -2.94576 1.35631 0
M  V30 1796 H 160.664 -2.45115 3.06041 0
M  V30 1797 H 162.154 -3.30287 2.5554 0
M  V30 1798 N 162.591 -1.51276 -0.441967 0
M  V30 1799 C 163.501 -1.75092 -1.56141 0
M  V30 1800 C 164.517 -0.634963 -1.62001 0
M  V30 1801 O 165.693 -0.916686 -1.79329 0
M  V30 1802 C 162.758 -1.86666 -2.92158 0
M  V30 1803 C 161.819 -3.10506 -2.96453 0
M  V30 1804 C 161.052 -3.21519 -4.25982 0
M  V30 1805 O 161.275 -2.38586 -5.18105 0
M  V30 1806 O 160.209 -4.14465 -4.36466 0
M  V30 1807 H 164.035 -2.70044 -1.38961 0
M  V30 1808 H 161.62 -1.35722 -0.624499 0
M  V30 1809 H 163.502 -1.96292 -3.72891 0
M  V30 1810 H 162.177 -0.949014 -3.09476 0
M  V30 1811 H 161.084 -3.06363 -2.14692 0
M  V30 1812 H 162.417 -4.01945 -2.84079 0
M  V30 1813 N 164.069 0.697108 -1.41344 0
M  V30 1814 C 165.297 1.48593 -1.43972 0
M  V30 1815 C 165.712 1.88747 -0.0445612 0
M  V30 1816 O 165.069 1.56682 0.935785 0
M  V30 1817 C 165.12 2.74946 -2.34706 0
M  V30 1818 O 164.841 2.36484 -3.68791 0
M  V30 1819 C 166.342 3.687 -2.46121 0
M  V30 1820 H 163.562 0.457964 -0.490418 0
M  V30 1821 H 166.106 0.858429 -1.8561 0
M  V30 1822 H 164.261 3.33937 -1.9638 0
M  V30 1823 H 164.675 3.17918 -4.17167 0
M  V30 1824 H 166.149 4.54145 -3.13777 0
M  V30 1825 H 166.626 4.13081 -1.49199 0
M  V30 1826 H 167.232 3.15613 -2.85076 0
M  V30 1827 N 165.547 1.27147 0.931209 0
M  V30 1828 C 166.795 1.13055 1.6752 0
M  V30 1829 C 167.116 -0.324791 1.92276 0
M  V30 1830 O 166.386 -1.22775 1.52654 0
M  V30 1831 H 164.966 0.415391 0.620854 0
M  V30 1832 H 167.628 1.59623 1.11833 0
M  V30 1833 H 166.724 1.65694 2.64485 0
M  V30 1834 N 167.025 -1.13721 1.09112 0
M  V30 1835 C 168.253 -1.88773 0.846899 0
M  V30 1836 C 168.668 -1.7896 -0.601572 0
M  V30 1837 O 168.025 -1.15394 -1.41388 0
M  V30 1838 C 168.076 -3.3849 1.26913 0
M  V30 1839 O 167.797 -3.48043 2.66079 0
M  V30 1840 C 169.298 -4.30518 1.05682 0
M  V30 1841 H 166.518 -0.59772 0.304914 0
M  V30 1842 H 169.062 -1.43977 1.45227 0
M  V30 1843 H 167.217 -3.80881 0.707723 0
M  V30 1844 H 167.631 -4.4109 2.83795 0
M  V30 1845 H 169.105 -5.3391 1.40156 0
M  V30 1846 H 169.582 -4.392 -0.00563416 0
M  V30 1847 H 170.188 -3.93893 1.60402 0
M  V30 1848 N 168.503 -0.877838 -1.30888 0
M  V30 1849 C 169.466 -0.344265 -2.266 0
M  V30 1850 C 170.466 0.50922 -1.52524 0
M  V30 1851 O 171.656 0.317398 -1.71284 0
M  V30 1852 C 168.788 0.510198 -3.37061 0
M  V30 1853 H 169.981 -1.1893 -2.7531 0
M  V30 1854 H 167.534 -0.654088 -1.41956 0
M  V30 1855 H 168.269 1.37612 -2.93655 0
M  V30 1856 H 168.054 -0.101047 -3.9197 0
M  V30 1857 H 169.544 0.875537 -4.08319 0
M  V30 1858 N 169.982 1.44106 -0.638065 0
M  V30 1859 C 170.892 2.34513 0.0637334 0
M  V30 1860 C 171.908 1.53018 0.828346 0
M  V30 1861 O 173.084 1.85723 0.779036 0
M  V30 1862 C 170.149 3.31095 1.02844 0
M  V30 1863 C 169.21 4.28497 0.26244 0
M  V30 1864 C 168.443 5.20465 1.1812 0
M  V30 1865 O 168.666 5.16514 2.42011 0
M  V30 1866 O 167.6 5.98251 0.661774 0
M  V30 1867 H 171.426 2.95989 -0.68003 0
M  V30 1868 H 169.011 1.43994 -0.398252 0
M  V30 1869 H 170.893 3.90526 1.58327 0
M  V30 1870 H 169.568 2.72144 1.7527 0
M  V30 1871 H 168.475 3.72592 -0.335602 0
M  V30 1872 H 169.808 4.90388 -0.421936 0
M  V30 1873 N 171.46 0.379036 1.52974 0
M  V30 1874 C 172.407 -0.461048 2.26148 0
M  V30 1875 C 173.377 -1.06637 1.27349 0
M  V30 1876 O 174.562 -1.09633 1.56157 0
M  V30 1877 C 171.702 -1.58782 3.06402 0
M  V30 1878 C 170.815 -1.00636 4.20115 0
M  V30 1879 C 169.95 -2.10334 4.87784 0
M  V30 1880 C 168.989 -1.49724 5.93506 0
M  V30 1881 N 168.126 -2.5331 6.54812 0
M  V30 1882 H 172.966 0.169429 2.97518 0
M  V30 1883 H 170.503 0.0953806 1.4679 0
M  V30 1884 H 172.461 -2.25174 3.51215 0
M  V30 1885 H 171.091 -2.18876 2.37261 0
M  V30 1886 H 170.143 -0.232332 3.7969 0
M  V30 1887 H 171.455 -0.523343 4.96047 0
M  V30 1888 H 170.609 -2.84519 5.35849 0
M  V30 1889 H 169.348 -2.61992 4.11353 0
M  V30 1890 H 168.353 -0.740598 5.44789 0
M  V30 1891 H 169.578 -0.988732 6.71864 0
M  V30 1892 H 167.524 -3.04156 5.81227 0
M  V30 1893 H 167.441 -2.09734 7.26325 0
M  V30 1894 H 168.709 -3.27155 7.07524 0
M  V30 1895 N 172.938 -1.57226 0.108567 0
M  V30 1896 C 173.871 -2.10447 -0.882464 0
M  V30 1897 C 174.849 -1.01829 -1.26766 0
M  V30 1898 O 176.033 -1.29415 -1.37054 0
M  V30 1899 C 173.16 -2.59258 -2.17952 0
M  V30 1900 C 172.206 -3.79662 -1.94318 0
M  V30 1901 S 173.039 -5.22586 -1.16892 0
M  V30 1902 C 174.195 -5.74758 -2.47799 0
M  V30 1903 H 174.428 -2.94178 -0.429745 0
M  V30 1904 H 171.961 -1.54043 -0.105 0
M  V30 1905 H 173.919 -2.88036 -2.92482 0
M  V30 1906 H 172.58 -1.75728 -2.60343 0
M  V30 1907 H 171.773 -4.11928 -2.90399 0
M  V30 1908 H 171.375 -3.51446 -1.27913 0
M  V30 1909 H 173.667 -5.83846 -3.43701 0
M  V30 1910 H 174.61 -6.73027 -2.20093 0
M  V30 1911 H 175.018 -5.02763 -2.56689 0
M  V30 1912 N 174.416 0.165178 -1.56732 0
M  V30 1913 C 175.827 0.727046 -1.71962 0
M  V30 1914 C 176.178 1.82508 -0.720078 0
M  V30 1915 O 175.303 2.16082 0.117242 0
M  V30 1916 C 175.898 1.32559 -3.11791 0
M  V30 1917 C 174.457 1.83422 -3.28684 0
M  V30 1918 C 173.604 0.715567 -2.67908 0
M  V30 1919 H 176.555 -0.0602896 -1.58585 0
M  V30 1920 H 176.576 2.19533 -3.10782 0
M  V30 1921 H 176.088 0.526195 -3.84516 0
M  V30 1922 H 174.189 2.65986 -2.60926 0
M  V30 1923 H 174.302 1.97543 -4.36478 0
M  V30 1924 H 172.666 1.13758 -2.27884 0
M  V30 1925 H 173.449 -0.0720836 -3.43224 0
M  V30 1926 N 175.894 1.51508 0.433938 0
M  V30 1927 C 177.119 1.68443 1.21003 0
M  V30 1928 C 177.544 0.382636 1.84167 0
M  V30 1929 O 176.902 -0.65755 1.68956 0
M  V30 1930 C 176.95 2.80405 2.26727 0
M  V30 1931 O 176.054 2.44245 3.32292 0
M  V30 1932 H 175.395 0.561536 0.354363 0
M  V30 1933 H 177.925 1.9809 0.512024 0
M  V30 1934 H 177.935 3.0459 2.71457 0
M  V30 1935 H 176.61 3.74867 1.80132 0
M  V30 1936 H 175.187 2.30644 2.93015 0
M  V30 1937 N 177.372 -0.689602 1.41712 0
M  V30 1938 C 178.6 -1.47827 1.44758 0
M  V30 1939 C 179.015 -1.88721 0.0545703 0
M  V30 1940 O 178.372 -1.57176 -0.927463 0
M  V30 1941 C 178.423 -2.73698 2.3616 0
M  V30 1942 O 178.144 -2.34524 3.7004 0
M  V30 1943 C 179.645 -3.67389 2.48072 0
M  V30 1944 H 176.865 -0.455357 0.49284 0
M  V30 1945 H 179.409 -0.848574 1.86063 0
M  V30 1946 H 177.564 -3.32891 1.98148 0
M  V30 1947 H 177.978 -3.15701 4.18847 0
M  V30 1948 H 179.452 -4.52475 3.16181 0
M  V30 1949 H 179.929 -4.12284 1.51388 0
M  V30 1950 H 180.535 -3.14097 2.86746 0
M  V30 1951 N 178.85 -1.27639 -0.924453 0
M  V30 1952 C 180.075 -1.17101 -1.71179 0
M  V30 1953 C 180.5 0.268134 -1.86179 0
M  V30 1954 O 179.858 1.19415 -1.36418 0
M  V30 1955 C 179.906 -1.86313 -3.08739 0
M  V30 1956 O 179.01 -1.16331 -3.95652 0
M  V30 1957 H 178.351 -0.407091 -0.524569 0
M  V30 1958 H 180.881 -1.68767 -1.15666 0
M  V30 1959 H 180.891 -1.938 -3.59034 0
M  V30 1960 H 179.566 -2.91001 -2.97138 0
M  V30 1961 H 178.143 -1.16935 -3.54091 0
M  V30 1962 N 180.328 1.1314 -1.09713 0
M  V30 1963 C 181.744 1.36477 -0.827423 0
M  V30 1964 C 181.944 1.93654 0.556817 0
M  V30 1965 O 181 2.15791 1.31112 0
M  V30 1966 C 182.313 2.31334 -1.92106 0
M  V30 1967 C 183.861 2.44943 -1.94864 0
M  V30 1968 C 184.336 3.4311 -3.0338 0
M  V30 1969 N 185.827 3.50662 -3.02639 0
M  V30 1970 C 186.562 4.2651 -3.83246 0
M  V30 1971 N 186.058 5.05485 -4.73768 0
M  V30 1972 N 187.851 4.2184 -3.71493 0
M  V30 1973 H 180.002 0.743807 -1.9895 0
M  V30 1974 H 182.265 0.389823 -0.864143 0
M  V30 1975 H 181.971 1.96483 -2.91698 0
M  V30 1976 H 181.845 3.31381 -1.80184 0
M  V30 1977 H 184.232 2.79079 -0.959099 0
M  V30 1978 H 184.313 1.4481 -2.10864 0
M  V30 1979 H 183.957 3.09704 -4.02549 0
M  V30 1980 H 183.887 4.43055 -2.84622 0
M  V30 1981 H 186.378 2.94315 -2.37039 0
M  V30 1982 H 186.691 5.60675 -5.3185 0
M  V30 1983 H 185.036 5.04708 -4.77802 0
M  V30 1984 H 188.227 3.5922 -3.00131 0
M  V30 1985 H 188.4 4.80697 -4.3455 0
M  V30 1986 N 181.806 0.884767 1.30421 0
M  V30 1987 C 183.217 0.553656 1.78302 0
M  V30 1988 C 183.568 -0.930153 1.7275 0
M  V30 1989 O 182.693 -1.72681 1.30423 0
M  V30 1990 C 183.288 0.998234 3.2376 0
M  V30 1991 C 181.847 0.71854 3.69478 0
M  V30 1992 C 180.994 1.18132 2.50879 0
M  V30 1993 H 183.945 1.06901 1.17294 0
M  V30 1994 H 183.966 0.327118 3.79091 0
M  V30 1995 H 183.478 2.0782 3.27769 0
M  V30 1996 H 181.579 -0.349444 3.70958 0
M  V30 1997 H 181.692 1.30595 4.60958 0
M  V30 1998 H 180.056 0.600669 2.47516 0
M  V30 1999 H 180.839 2.26902 2.57624 0
M  V30 2000 N 183.284 -1.43765 0.645699 0
M  V30 2001 C 184.512 -2.06253 0.163556 0
M  V30 2002 C 184.927 -1.48352 -1.16778 0
M  V30 2003 O 184.284 -0.611932 -1.71935 0
M  V30 2004 C 184.335 -3.61453 0.0583186 0
M  V30 2005 O 184.056 -4.172 1.33702 0
M  V30 2006 C 185.557 -4.41002 -0.450795 0
M  V30 2007 H 182.777 -0.665413 0.0864077 0
M  V30 2008 H 185.321 -1.84396 0.884222 0
M  V30 2009 H 183.476 -3.82522 -0.612865 0
M  V30 2010 H 183.89 -5.10791 1.19131 0
M  V30 2011 H 185.364 -5.49966 -0.473403 0
M  V30 2012 H 185.841 -4.13488 -1.48068 0
M  V30 2013 H 186.447 -4.24886 0.187637 0
M  V30 2014 N 184.763 -0.387143 -1.52771 0
M  V30 2015 C 185.726 0.436939 -2.24997 0
M  V30 2016 C 186.726 0.991991 -1.26555 0
M  V30 2017 O 187.916 0.874335 -1.50669 0
M  V30 2018 C 185.048 1.61281 -3.00335 0
M  V30 2019 H 186.241 -0.195365 -2.99263 0
M  V30 2020 H 183.794 -0.139218 -1.55679 0
M  V30 2021 H 184.529 2.2826 -2.30364 0
M  V30 2022 H 184.314 1.22154 -3.72587 0
M  V30 2023 H 185.804 2.19629 -3.5518 0
M  V30 2024 N 186.241 1.57166 -0.116904 0
M  V30 2025 C 187.652 1.82169 0.408809 0
M  V30 2026 C 188.003 1.03393 1.66746 0
M  V30 2027 O 187.128 0.269886 2.1471 0
M  V30 2028 C 187.723 3.30429 0.748466 0
M  V30 2029 C 186.282 3.5612 1.21882 0
M  V30 2030 C 185.429 2.76374 0.226452 0
M  V30 2031 H 188.38 1.5497 -0.342063 0
M  V30 2032 H 188.401 3.44943 1.60607 0
M  V30 2033 H 187.913 3.87737 -0.167784 0
M  V30 2034 H 186.014 3.04168 2.15204 0
M  V30 2035 H 186.127 4.64705 1.16559 0
M  V30 2036 H 184.491 2.44515 0.713063 0
M  V30 2037 H 185.274 3.3644 -0.682859 0
M  V30 2038 N 187.719 -0.156864 1.56817 0
M  V30 2039 C 188.944 -0.890331 1.87318 0
M  V30 2040 C 189.369 -1.74394 0.704855 0
M  V30 2041 O 188.727 -1.77972 -0.345786 0
M  V30 2042 C 188.775 -1.73102 3.16336 0
M  V30 2043 O 187.879 -2.83422 2.99576 0
M  V30 2044 H 187.22 -0.24857 0.615718 0
M  V30 2045 H 189.75 -0.150649 2.04045 0
M  V30 2046 H 189.76 -2.12803 3.48107 0
M  V30 2047 H 188.435 -1.10412 4.00976 0
M  V30 2048 H 187.012 -2.47199 2.7919 0
M  V30 2049 N 189.197 -1.51736 -0.425897 0
M  V30 2050 C 190.422 -1.69082 -1.20108 0
M  V30 2051 C 190.847 -0.392398 -1.83962 0
M  V30 2052 O 190.205 0.64858 -1.69302 0
M  V30 2053 C 190.253 -2.81604 -2.25237 0
M  V30 2054 O 189.357 -2.46004 -3.30992 0
M  V30 2055 H 188.698 -0.563408 -0.35138 0
M  V30 2056 H 191.228 -1.98358 -0.501512 0
M  V30 2057 H 191.238 -3.06025 -2.69838 0
M  V30 2058 H 189.913 -3.75817 -1.78142 0
M  V30 2059 H 188.49 -2.32195 -2.91787 0
M  V30 2060 N 190.675 0.682077 -1.42076 0
M  V30 2061 C 191.585 1.82535 -1.47371 0
M  V30 2062 C 192.601 1.7017 -0.363079 0
M  V30 2063 O 193.777 1.91848 -0.612875 0
M  V30 2064 C 190.842 3.18624 -1.36674 0
M  V30 2065 C 189.903 3.42999 -2.58167 0
M  V30 2066 C 189.136 4.72595 -2.4797 0
M  V30 2067 O 189.359 5.50006 -1.5116 0
M  V30 2068 O 188.293 4.98054 -3.37974 0
M  V30 2069 H 192.119 1.81023 -2.43853 0
M  V30 2070 H 189.704 0.836887 -1.2376 0
M  V30 2071 H 191.586 3.99847 -1.33043 0
M  V30 2072 H 190.261 3.20789 -0.433138 0
M  V30 2073 H 189.168 2.61653 -2.67373 0
M  V30 2074 H 190.501 3.45659 -3.50401 0
M  V30 2075 N 192.153 1.28127 0.917671 0
M  V30 2076 C 193.1 1.11717 2.0196 0
M  V30 2077 C 194.07 0.0153929 1.66093 0
M  V30 2078 O 195.255 0.179596 1.89953 0
M  V30 2079 C 192.395 0.780927 3.36148 0
M  V30 2080 C 191.508 1.96135 3.84909 0
M  V30 2081 C 190.643 1.56609 5.0759 0
M  V30 2082 C 189.682 2.71339 5.48673 0
M  V30 2083 N 188.819 2.32332 6.62545 0
M  V30 2084 H 193.659 2.06003 2.15329 0
M  V30 2085 H 191.196 1.02535 1.05475 0
M  V30 2086 H 193.154 0.56675 4.13333 0
M  V30 2087 H 191.784 -0.124998 3.22558 0
M  V30 2088 H 190.836 2.28777 3.03916 0
M  V30 2089 H 192.148 2.82165 4.1132 0
M  V30 2090 H 191.302 1.31374 5.92305 0
M  V30 2091 H 190.041 0.677014 4.82978 0
M  V30 2092 H 189.046 2.97276 4.62501 0
M  V30 2093 H 190.271 3.60882 5.75274 0
M  V30 2094 H 188.217 1.45889 6.39572 0
M  V30 2095 H 188.134 3.11899 6.88662 0
M  V30 2096 H 189.402 2.10371 7.50576 0
M  V30 2097 N 193.631 -1.12557 1.10312 0
M  V30 2098 C 194.879 -1.83675 0.843091 0
M  V30 2099 C 195.2 -1.84435 -0.633131 0
M  V30 2100 O 194.47 -1.30657 -1.45964 0
M  V30 2101 H 193.05 -0.680138 0.308904 0
M  V30 2102 H 195.712 -1.36301 1.39313 0
M  V30 2103 H 194.808 -2.87908 1.2048 0
M  V30 2104 N 195.109 -0.891671 -1.2995 0
M  V30 2105 C 196.357 -0.512486 -1.95494 0
M  V30 2106 C 196.678 0.942776 -1.70695 0
M  V30 2107 O 195.948 1.66374 -1.03424 0
M  V30 2108 H 194.528 -0.186533 -0.723336 0
M  V30 2109 H 197.19 -1.13621 -1.58355 0
M  V30 2110 H 196.286 -0.688342 -3.04415 0
M  V30 2111 N 196.587 1.43421 -0.653314 0
M  V30 2112 C 197.535 2.32546 0.0501531 0
M  V30 2113 C 198.529 1.48617 0.812985 0
M  V30 2114 O 199.735 1.64825 0.723375 0
M  V30 2115 H 196.11 0.751185 0.0350032 0
M  V30 2116 H 198.081 2.89602 -0.719261 0
M  V30 2117 C 196.83 3.32925 1.00279 0
M  V30 2118 H 196.153 3.97532 0.425236 0
M  V30 2119 H 197.593 3.9792 1.46409 0
M  V30 2120 C 196.052 2.63532 2.09886 0
M  V30 2121 O 196.582 2.45092 3.18265 0
M  V30 2122 N 194.788 2.22905 1.86445 0
M  V30 2123 H 194.335 2.38103 0.98309 0
M  V30 2124 H 194.293 1.76805 2.59976 0
M  V30 2125 N 198.065 0.39524 1.52563 0
M  V30 2126 C 199.295 -0.184675 2.05773 0
M  V30 2127 C 199.703 -1.40571 1.26635 0
M  V30 2128 O 199.046 -1.81105 0.30769 0
M  V30 2129 C 199.108 -0.613551 3.54226 0
M  V30 2130 C 198.772 0.49484 4.54313 0
M  V30 2131 C 199.769 1.3541 5.01956 0
M  V30 2132 C 197.454 0.663565 4.97898 0
M  V30 2133 C 199.448 2.36716 5.91814 0
M  V30 2134 C 197.135 1.67996 5.87555 0
M  V30 2135 C 198.133 2.53017 6.34406 0
M  V30 2136 O 197.821 3.52917 7.22291 0
M  V30 2137 H 197.553 -0.030077 0.675331 0
M  V30 2138 H 200.107 0.560708 1.97599 0
M  V30 2139 H 198.337 -1.411 3.60038 0
M  V30 2140 H 200.026 -1.11981 3.90148 0
M  V30 2141 H 200.792 1.23509 4.6901 0
M  V30 2142 H 196.671 0.0114913 4.60999 0
M  V30 2143 H 200.215 3.03113 6.28306 0
M  V30 2144 H 196.112 1.79933 6.19915 0
M  V30 2145 H 196.88 3.48996 7.40367 0
M  V30 2146 N 199.544 -1.57102 0.125237 0
M  V30 2147 C 200.955 -1.82384 -0.399142 0
M  V30 2148 C 201.306 -1.04276 -1.66195 0
M  V30 2149 O 200.431 -0.281269 -2.14564 0
M  V30 2150 C 201.026 -3.30821 -0.730932 0
M  V30 2151 C 199.585 -3.56762 -1.19992 0
M  V30 2152 C 198.732 -2.7649 -0.211792 0
M  V30 2153 H 201.683 -1.54786 0.350277 0
M  V30 2154 H 201.704 -3.4579 -1.58775 0
M  V30 2155 H 201.216 -3.87643 0.188345 0
M  V30 2156 H 199.317 -3.05305 -2.13588 0
M  V30 2157 H 199.43 -4.65317 -1.14093 0
M  V30 2158 H 197.794 -2.4489 -0.700085 0
M  V30 2159 H 198.577 -3.36073 0.700691 0
M  V30 2160 N 201.022 0.148545 -1.56898 0
M  V30 2161 C 202.268 0.862694 -1.83536 0
M  V30 2162 C 202.601 1.80889 -0.706604 0
M  V30 2163 O 201.876 1.92328 0.289885 0
M  V30 2164 C 202.159 1.63853 -3.20662 0
M  V30 2165 C 202.012 0.713925 -4.44098 0
M  V30 2166 C 203.331 2.60133 -3.54991 0
M  V30 2167 H 200.45 0.312179 -0.667618 0
M  V30 2168 H 203.092 0.127953 -1.89569 0
M  V30 2169 H 201.242 2.26489 -3.1565 0
M  V30 2170 H 202.914 0.098686 -4.61194 0
M  V30 2171 H 201.157 0.0234019 -4.33794 0
M  V30 2172 H 201.828 1.29278 -5.36648 0
M  V30 2173 H 204.304 2.07616 -3.60603 0
M  V30 2174 H 203.18 3.11468 -4.51972 0
M  V30 2175 H 203.441 3.41417 -2.80868 0
M  V30 2176 N 202.5 1.5196 0.417844 0
M  V30 2177 C 203.432 1.70895 1.52733 0
M  V30 2178 C 204.445 0.589405 1.51756 0
M  V30 2179 O 205.634 0.864312 1.56179 0
M  V30 2180 C 202.734 1.72627 2.91639 0
M  V30 2181 C 201.907 3.01479 3.16905 0
M  V30 2182 C 200.966 2.95139 4.35637 0
M  V30 2183 O 199.992 3.69059 4.3334 0
M  V30 2184 N 201.194 2.12328 5.40275 0
M  V30 2185 H 203.959 2.66612 1.36888 0
M  V30 2186 H 201.52 1.50089 0.607037 0
M  V30 2187 H 203.512 1.65928 3.6912 0
M  V30 2188 H 202.082 0.844216 3.00985 0
M  V30 2189 H 201.302 3.21895 2.27546 0
M  V30 2190 H 202.59 3.86736 3.30625 0
M  V30 2191 H 201.988 1.51685 5.44985 0
M  V30 2192 H 200.545 2.11494 6.16534 0
M  V30 2193 N 203.978 -0.674533 1.42435 0
M  V30 2194 C 204.928 -1.7807 1.4239 0
M  V30 2195 C 205.912 -1.58169 0.295202 0
M  V30 2196 O 207.104 -1.68643 0.537449 0
M  V30 2197 C 204.233 -3.16532 1.32901 0
M  V30 2198 C 203.319 -3.42055 2.50717 0
M  V30 2199 N 203.71 -3.38162 3.76139 0
M  V30 2200 C 202.008 -3.72692 2.44983 0
M  V30 2201 C 202.709 -3.63177 4.54398 0
M  V30 2202 N 201.685 -3.83954 3.84812 0
M  V30 2203 H 205.487 -1.73454 2.37257 0
M  V30 2204 H 203.001 -0.875381 1.36788 0
M  V30 2205 H 204.998 -3.958 1.30951 0
M  V30 2206 H 203.658 -3.22345 0.390363 0
M  V30 2207 H 204.669 -3.18057 4.0873 0
M  V30 2208 H 201.346 -3.85749 1.59699 0
M  V30 2209 H 202.736 -3.66125 5.63384 0
M  V30 2210 N 205.456 -1.28612 -0.910864 0
M  V30 2211 C 206.702 -1.16106 -1.66274 0
M  V30 2212 C 207.035 0.289113 -1.92036 0
M  V30 2213 O 206.31 1.21 -1.52281 0
M  V30 2214 C 206.593 -1.96309 -3.01885 0
M  V30 2215 C 206.446 -3.49405 -2.8326 0
M  V30 2216 C 207.765 -1.78076 -4.02463 0
M  V30 2217 H 204.884 -0.423152 -0.603417 0
M  V30 2218 H 207.526 -1.57961 -1.05586 0
M  V30 2219 H 205.676 -1.60742 -3.53687 0
M  V30 2220 H 207.348 -3.94894 -2.38446 0
M  V30 2221 H 205.591 -3.74893 -2.18261 0
M  V30 2222 H 206.262 -4.00784 -3.79574 0
M  V30 2223 H 208.738 -2.0912 -3.59733 0
M  V30 2224 H 207.614 -2.36561 -4.95308 0
M  V30 2225 H 207.875 -0.733008 -4.35981 0
M  V30 2226 N 206.934 1.1197 -1.10907 0
M  V30 2227 C 208.182 1.83225 -0.852819 0
M  V30 2228 C 208.503 1.84769 0.623341 0
M  V30 2229 O 207.773 1.3143 1.45269 0
M  V30 2230 H 206.353 0.67849 -0.312507 0
M  V30 2231 H 209.015 1.3556 -1.40033 0
M  V30 2232 H 208.111 2.87265 -1.22005 0
M  V30 2233 N 208.412 0.89855 1.29475 0
M  V30 2234 C 209.66 0.522847 1.9522 0
M  V30 2235 C 209.981 -0.93371 1.71192 0
M  V30 2236 O 209.251 -1.65823 1.04305 0
M  V30 2237 H 207.831 0.190366 0.722336 0
M  V30 2238 H 210.493 1.14459 1.5775 0
M  V30 2239 H 209.589 0.704476 3.04045 0
M  V30 2240 N 209.89 -1.43072 0.660911 0
M  V30 2241 C 210.838 -2.32569 -0.0378199 0
M  V30 2242 C 211.832 -1.49046 -0.805092 0
M  V30 2243 O 213.038 -1.65206 -0.714624 0
M  V30 2244 H 209.413 -0.75136 -0.031019 0
M  V30 2245 H 211.384 -2.89216 0.734609 0
M  V30 2246 C 210.133 -3.33453 -0.985124 0
M  V30 2247 H 209.456 -3.97752 -0.404147 0
M  V30 2248 H 210.896 -3.98691 -1.44297 0
M  V30 2249 C 209.355 -2.64642 -2.08486 0
M  V30 2250 O 209.885 -2.46776 -3.16961 0
M  V30 2251 N 208.091 -2.23891 -1.8526 0
M  V30 2252 H 207.638 -2.38621 -0.970449 0
M  V30 2253 H 207.596 -1.78181 -2.59034 0
M  V30 2254 N 211.368 -0.403325 -1.52352 0
M  V30 2255 C 212.598 0.17376 -2.05868 0
M  V30 2256 C 213.006 1.39898 -1.27378 0
M  V30 2257 O 212.349 1.80939 -0.31729 0
M  V30 2258 C 212.411 0.594756 -3.54546 0
M  V30 2259 C 212.075 -0.518926 -4.54044 0
M  V30 2260 C 213.072 -1.3807 -5.01231 0
M  V30 2261 C 210.757 -0.689961 -4.97539 0
M  V30 2262 C 212.751 -2.39852 -5.90551 0
M  V30 2263 C 210.438 -1.71109 -5.86656 0
M  V30 2264 C 211.436 -2.56378 -6.33056 0
M  V30 2265 O 211.124 -3.56743 -7.20409 0
M  V30 2266 H 210.856 0.0264951 -0.675481 0
M  V30 2267 H 213.41 -0.571179 -1.97299 0
M  V30 2268 H 211.64 1.39189 -3.60782 0
M  V30 2269 H 213.329 1.0991 -3.90736 0
M  V30 2270 H 214.095 -1.25994 -4.68349 0
M  V30 2271 H 209.974 -0.035939 -4.60986 0
M  V30 2272 H 213.518 -3.06441 -6.26689 0
M  V30 2273 H 209.415 -1.83218 -6.18952 0
M  V30 2274 H 210.183 -3.52918 -7.38506 0
M  V30 2275 N 212.846 1.57033 -0.133567 0
M  V30 2276 C 214.074 2.00044 0.528195 0
M  V30 2277 C 214.489 1.01349 1.59291 0
M  V30 2278 O 213.846 0.00848369 1.82498 0
M  V30 2279 C 213.897 3.43018 1.1411 0
M  V30 2280 O 213.618 4.37939 0.11892 0
M  V30 2281 C 215.119 4.01237 1.88477 0
M  V30 2282 H 212.339 0.656517 0.138661 0
M  V30 2283 H 214.883 2.03267 -0.224196 0
M  V30 2284 H 213.038 3.40688 1.84418 0
M  V30 2285 H 213.452 5.21436 0.56613 0
M  V30 2286 H 214.926 5.03314 2.26669 0
M  V30 2287 H 215.403 3.41193 2.76558 0
M  V30 2288 H 216.009 4.07156 1.22898 0
M  V30 2289 N 214.325 -0.140222 1.56975 0
M  V30 2290 C 215.275 -1.17827 1.95194 0
M  V30 2291 C 216.259 -1.38195 0.824075 0
M  V30 2292 O 217.451 -1.39643 1.0876 0
M  V30 2293 C 214.58 -2.51024 2.34184 0
M  V30 2294 C 213.666 -2.3422 3.53556 0
M  V30 2295 N 214.057 -1.87185 4.69889 0
M  V30 2296 C 212.355 -2.64949 3.58773 0
M  V30 2297 C 213.056 -1.83586 5.5197 0
M  V30 2298 N 212.032 -2.2715 4.93866 0
M  V30 2299 H 215.834 -0.806817 2.82609 0
M  V30 2300 H 213.348 -0.348208 1.58623 0
M  V30 2301 H 215.345 -3.26074 2.59772 0
M  V30 2302 H 214.005 -2.88945 1.48124 0
M  V30 2303 H 215.016 -1.57048 4.93514 0
M  V30 2304 H 211.693 -3.067 2.8327 0
M  V30 2305 H 213.083 -1.48655 6.55249 0
M  V30 2306 N 215.803 -1.52179 -0.40978 0
M  V30 2307 C 217.052 -1.65434 -1.15388 0
M  V30 2308 C 217.365 -0.390056 -1.91671 0
M  V30 2309 O 218.571 -0.402399 -2.68501 0
M  V30 2310 C 217.027 -2.92279 -2.10003 0
M  V30 2311 C 216.635 -4.25813 -1.39239 0
M  V30 2312 C 218.379 -3.14897 -2.84675 0
M  V30 2313 C 216.286 -5.43782 -2.32498 0
M  V30 2314 H 215.216 -0.616267 -0.434432 0
M  V30 2315 H 217.867 -1.78666 -0.418401 0
M  V30 2316 H 216.249 -2.72744 -2.871 0
M  V30 2317 H 217.423 -4.55828 -0.675099 0
M  V30 2318 H 215.738 -4.09292 -0.766097 0
M  V30 2319 H 218.335 -4.0021 -3.54593 0
M  V30 2320 H 218.678 -2.29103 -3.47588 0
M  V30 2321 H 219.211 -3.34901 -2.14677 0
M  V30 2322 H 215.95 -6.3192 -1.74233 0
M  V30 2323 H 215.47 -5.18106 -3.02201 0
M  V30 2324 H 217.149 -5.76834 -2.93038 0
M  V30 2325 N 217.281 0.66697 -1.42791 0
M  V30 2326 C 218.692 1.2478 -1.38877 0
M  V30 2327 C 219.043 1.96012 -0.0859426 0
M  V30 2328 O 218.168 2.00463 0.815081 0
M  V30 2329 C 218.763 2.26938 -2.51564 0
M  V30 2330 C 217.322 2.80529 -2.50959 0
M  V30 2331 C 216.469 1.54965 -2.29959 0
M  V30 2332 H 219.42 0.459853 -1.51892 0
M  V30 2333 H 219.441 3.08834 -2.22265 0
M  V30 2334 H 218.953 1.75065 -3.46372 0
M  V30 2335 H 217.054 3.36502 -1.59991 0
M  V30 2336 H 217.167 3.29012 -3.48265 0
M  V30 2337 H 215.531 1.81817 -1.78366 0
M  V30 2338 H 216.314 1.05047 -3.26833 0
M  V30 2339 N 218.759 1.29093 0.90403 0
M  V30 2340 C 219.689 1.16401 2.02418 0
M  V30 2341 C 220.67 0.0593085 1.69997 0
M  V30 2342 O 221.855 0.238021 1.92736 0
M  V30 2343 C 218.985 0.835233 3.37107 0
M  V30 2344 C 217.939 1.89578 3.83724 0
M  V30 2345 C 217.265 1.42041 5.15489 0
M  V30 2346 C 218.565 3.30394 4.04521 0
M  V30 2347 H 220.259 2.10109 2.13295 0
M  V30 2348 H 217.805 1.01157 1.02486 0
M  V30 2349 H 219.758 0.733169 4.14973 0
M  V30 2350 H 218.482 -0.137543 3.2631 0
M  V30 2351 H 217.141 1.98715 3.08071 0
M  V30 2352 H 216.789 0.436426 5.01103 0
M  V30 2353 H 216.489 2.12964 5.4765 0
M  V30 2354 H 218.013 1.33176 5.959 0
M  V30 2355 H 219.427 3.24123 4.72882 0
M  V30 2356 H 217.824 3.99237 4.48029 0
M  V30 2357 H 218.894 3.73692 3.09002 0
M  V30 2358 N 220.237 -1.11381 1.11499 0
M  V30 2359 C 221.462 -1.87475 0.887019 0
M  V30 2360 C 221.887 -1.79639 -0.557796 0
M  V30 2361 O 221.245 -1.15924 -1.39396 0
M  V30 2362 C 221.293 -3.34213 1.35403 0
M  V30 2363 O 220.397 -4.0903 0.526146 0
M  V30 2364 H 219.738 -0.582099 0.319463 0
M  V30 2365 H 222.268 -1.40785 1.48461 0
M  V30 2366 H 222.278 -3.8506 1.34881 0
M  V30 2367 H 220.953 -3.39232 2.40612 0
M  V30 2368 H 219.53 -3.68082 0.597522 0
M  V30 2369 N 221.715 -0.905404 -1.28997 0
M  V30 2370 C 223.126 -0.581953 -1.77398 0
M  V30 2371 C 223.477 0.902552 -1.74208 0
M  V30 2372 O 222.602 1.70584 -1.33154 0
M  V30 2373 C 223.197 -1.04961 -3.22131 0
M  V30 2374 C 221.756 -0.777229 -3.68288 0
M  V30 2375 C 220.903 -1.22109 -2.48967 0
M  V30 2376 H 223.854 -1.08754 -1.15578 0
M  V30 2377 H 223.875 -0.387387 -3.78523 0
M  V30 2378 H 223.387 -2.13008 -3.24421 0
M  V30 2379 H 221.488 0.290383 -3.71467 0
M  V30 2380 H 221.601 -1.37911 -4.58822 0
M  V30 2381 H 219.965 -0.639971 -2.46529 0
M  V30 2382 H 220.748 -2.30972 -2.53982 0
M  V30 2383 N 223.193 1.4272 -0.668489 0
M  V30 2384 C 224.609 1.55992 -0.33745 0
M  V30 2385 C 224.809 1.64933 1.15756 0
M  V30 2386 O 223.865 1.61278 1.94282 0
M  V30 2387 C 225.178 2.81314 -1.06222 0
M  V30 2388 C 226.726 2.95078 -1.04394 0
M  V30 2389 C 227.201 4.23252 -1.74991 0
M  V30 2390 N 228.692 4.3015 -1.71829 0
M  V30 2391 C 229.427 5.28127 -2.23315 0
M  V30 2392 N 228.923 6.32293 -2.83156 0
M  V30 2393 N 230.716 5.19882 -2.13726 0
M  V30 2394 H 222.867 1.3516 -1.63846 0
M  V30 2395 H 225.13 0.650174 -0.689912 0
M  V30 2396 H 224.836 2.80823 -2.11734 0
M  V30 2397 H 224.71 3.72012 -0.62344 0
M  V30 2398 H 227.097 2.951 0.0028244 0
M  V30 2399 H 227.178 2.05627 -1.52155 0
M  V30 2400 H 226.822 4.2399 -2.79633 0
M  V30 2401 H 226.752 5.11626 -1.24685 0
M  V30 2402 H 229.243 3.55499 -1.28175 0
M  V30 2403 H 229.556 7.03398 -3.20079 0
M  V30 2404 H 227.901 6.32873 -2.87223 0
M  V30 2405 H 231.092 4.37423 -1.66669 0
M  V30 2406 H 231.265 5.96077 -2.54158 0
M  V30 2407 N 224.671 0.411399 1.52136 0
M  V30 2408 C 225.899 -0.163076 2.06256 0
M  V30 2409 C 226.314 -1.3867 1.28125 0
M  V30 2410 O 225.671 -1.79423 0.333721 0
M  V30 2411 C 225.722 -0.511252 3.57867 0
M  V30 2412 O 225.443 0.66378 4.33042 0
M  V30 2413 C 226.944 -1.13921 4.28412 0
M  V30 2414 H 224.164 -0.0193897 0.67072 0
M  V30 2415 H 226.708 0.583007 1.96013 0
M  V30 2416 H 224.863 -1.20723 3.6811 0
M  V30 2417 H 225.277 0.372601 5.23175 0
M  V30 2418 H 226.751 -1.33302 5.35663 0
M  V30 2419 H 227.228 -2.11296 3.85033 0
M  V30 2420 H 227.834 -0.483373 4.22544 0
M  V30 2421 N 226.149 -1.5696 0.141893 0
M  V30 2422 C 227.079 -2.19516 -0.795936 0
M  V30 2423 C 228.06 -1.14187 -1.26077 0
M  V30 2424 O 229.245 -1.42511 -1.31925 0
M  V30 2425 C 226.375 -2.81272 -2.03723 0
M  V30 2426 C 225.329 -3.92384 -1.70936 0
M  V30 2427 C 224.655 -4.41052 -3.02287 0
M  V30 2428 C 225.955 -5.13403 -0.959954 0
M  V30 2429 H 227.649 -2.98138 -0.274596 0
M  V30 2430 H 225.195 -1.43406 -0.130636 0
M  V30 2431 H 227.148 -3.237 -2.69808 0
M  V30 2432 H 225.872 -1.99973 -2.58221 0
M  V30 2433 H 224.531 -3.50566 -1.07232 0
M  V30 2434 H 224.179 -3.56582 -3.54765 0
M  V30 2435 H 223.879 -5.15993 -2.81114 0
M  V30 2436 H 225.403 -4.86146 -3.69451 0
M  V30 2437 H 226.817 -5.52706 -1.52279 0
M  V30 2438 H 225.214 -5.94073 -0.848357 0
M  V30 2439 H 226.284 -4.84875 0.0492434 0
M  V30 2440 N 227.627 0.131896 -1.57047 0
M  V30 2441 C 228.575 1.18146 -2.0036 0
M  V30 2442 C 229.569 1.43614 -0.898406 0
M  V30 2443 O 230.775 1.43729 -1.08361 0
M  V30 2444 H 227.15 0.398042 -0.638018 0
M  V30 2445 H 229.121 0.789564 -2.87765 0
M  V30 2446 C 227.87 2.50341 -2.41298 0
M  V30 2447 H 227.193 2.31578 -3.25902 0
M  V30 2448 H 228.633 3.22371 -2.75414 0
M  V30 2449 C 227.092 3.11984 -1.27153 0
M  V30 2450 O 227.622 3.97484 -0.580459 0
M  V30 2451 N 225.828 2.71662 -1.03189 0
M  V30 2452 H 225.375 2.02231 -1.59564 0
M  V30 2453 H 225.333 3.13238 -0.270077 0
M  V30 2454 N 229.106 1.52395 0.401703 0
M  V30 2455 C 230.069 1.75636 1.47257 0
M  V30 2456 C 231.069 0.62628 1.48103 0
M  V30 2457 O 232.259 0.894227 1.49497 0
M  V30 2458 C 229.391 1.84553 2.86624 0
M  V30 2459 H 230.584 2.71241 1.27938 0
M  V30 2460 H 228.137 1.42923 0.632662 0
M  V30 2461 H 228.872 0.908882 3.11303 0
M  V30 2462 H 228.657 2.66715 2.87412 0
M  V30 2463 H 230.147 2.04251 3.64241 0
M  V30 2464 N 230.584 -0.659388 1.43143 0
M  V30 2465 C 231.83 -1.41984 1.45644 0
M  V30 2466 C 232.185 -1.92245 0.0771718 0
M  V30 2467 O 231.478 -1.68976 -0.903205 0
M  V30 2468 C 231.672 -2.62206 2.42864 0
M  V30 2469 C 231.501 -2.23711 3.90107 0
M  V30 2470 C 230.271 -2.12332 4.58523 0
M  V30 2471 C 232.469 -1.84384 4.80112 0
M  V30 2472 N 230.451 -1.67102 5.9072 0
M  V30 2473 C 231.822 -1.5019 6.01534 0
M  V30 2474 C 233.877 -1.71512 4.67427 0
M  V30 2475 C 232.58 -1.04414 7.11681 0
M  V30 2476 C 234.606 -1.27142 5.77572 0
M  V30 2477 C 233.968 -0.938808 6.98116 0
M  V30 2478 H 230.067 -0.515448 0.588079 0
M  V30 2479 H 232.651 -0.759409 1.79279 0
M  V30 2480 H 230.822 -3.25917 2.11265 0
M  V30 2481 H 232.554 -3.28877 2.35843 0
M  V30 2482 H 229.309 -2.31893 4.12944 0
M  V30 2483 H 229.733 -1.46866 6.60878 0
M  V30 2484 H 234.375 -1.95868 3.74694 0
M  V30 2485 H 232.093 -0.788061 8.04248 0
M  V30 2486 H 235.679 -1.17681 5.69774 0
M  V30 2487 H 234.559 -0.6007 7.81896 0
M  V30 2488 N 232.062 -1.29571 -0.897171 0
M  V30 2489 C 233.308 -1.17863 -1.65034 0
M  V30 2490 C 233.641 0.268729 -1.92332 0
M  V30 2491 O 232.916 1.19378 -1.53555 0
M  V30 2492 C 233.199 -1.995 -2.99786 0
M  V30 2493 C 233.052 -3.5239 -2.79538 0
M  V30 2494 C 234.371 -1.82335 -4.00552 0
M  V30 2495 H 231.49 -0.429528 -0.598895 0
M  V30 2496 H 234.132 -1.59072 -1.03905 0
M  V30 2497 H 232.282 -1.64485 -3.51962 0
M  V30 2498 H 233.954 -3.97401 -2.34244 0
M  V30 2499 H 232.197 -3.77187 -2.14273 0
M  V30 2500 H 232.868 -4.04787 -3.75302 0
M  V30 2501 H 235.344 -2.12924 -3.57495 0
M  V30 2502 H 234.22 -2.41801 -4.92771 0
M  V30 2503 H 234.481 -0.779209 -4.35179 0
M  V30 2504 N 233.54 1.10788 -1.12088 0
M  V30 2505 C 234.487 2.17025 -0.785407 0
M  V30 2506 C 235.457 1.64265 0.246191 0
M  V30 2507 O 236.642 1.90412 0.121584 0
M  V30 2508 C 233.782 3.44249 -0.242177 0
M  V30 2509 C 232.895 4.1098 -1.33115 0
M  V30 2510 C 232.03 5.25911 -0.747741 0
M  V30 2511 C 231.069 5.84538 -1.81609 0
M  V30 2512 N 230.206 6.90853 -1.25167 0
M  V30 2513 H 235.046 2.45066 -1.69548 0
M  V30 2514 H 232.583 1.20297 -0.846582 0
M  V30 2515 H 234.541 4.17101 0.0908026 0
M  V30 2516 H 233.171 3.16571 0.631072 0
M  V30 2517 H 232.223 3.36133 -1.78097 0
M  V30 2518 H 233.535 4.50601 -2.13917 0
M  V30 2519 H 232.689 6.056 -0.365216 0
M  V30 2520 H 231.428 4.87614 0.0915188 0
M  V30 2521 H 230.433 5.03522 -2.20785 0
M  V30 2522 H 231.658 6.249 -2.6585 0
M  V30 2523 H 229.604 6.54562 -0.434174 0
M  V30 2524 H 229.521 7.29166 -1.99633 0
M  V30 2525 H 230.789 7.7433 -0.896259 0
M  V30 2526 N 235.018 0.912232 1.28515 0
M  V30 2527 C 235.948 0.416403 2.29757 0
M  V30 2528 C 236.929 -0.515194 1.6211 0
M  V30 2529 O 238.114 -0.423253 1.89532 0
M  V30 2530 C 235.244 -0.34572 3.45575 0
M  V30 2531 C 234.198 0.496599 4.25109 0
M  V30 2532 C 233.524 -0.393771 5.33248 0
M  V30 2533 C 234.824 1.75307 4.92001 0
M  V30 2534 H 236.518 1.26249 2.7148 0
M  V30 2535 H 234.064 0.608515 1.30511 0
M  V30 2536 H 236.017 -0.703422 4.15488 0
M  V30 2537 H 234.741 -1.2257 3.02728 0
M  V30 2538 H 233.4 0.8368 3.56922 0
M  V30 2539 H 233.048 -1.27225 4.86644 0
M  V30 2540 H 232.748 0.166209 5.87365 0
M  V30 2541 H 234.272 -0.747389 6.06009 0
M  V30 2542 H 235.686 1.46437 5.54283 0
M  V30 2543 H 234.083 2.25534 5.56106 0
M  V30 2544 H 235.153 2.48176 4.16577 0
M  V30 2545 N 236.496 -1.42363 0.676048 0
M  V30 2546 C 237.742 -2.0182 0.199125 0
M  V30 2547 C 238.075 -1.53339 -1.19168 0
M  V30 2548 O 237.35 -0.736124 -1.80032 0
M  V30 2549 C 237.633 -3.59331 0.235144 0
M  V30 2550 C 237.486 -4.17989 1.66149 0
M  V30 2551 C 238.805 -4.3813 -0.41595 0
M  V30 2552 H 235.924 -0.733293 0.0738311 0
M  V30 2553 H 238.566 -1.69368 0.86107 0
M  V30 2554 H 236.716 -3.87109 -0.328487 0
M  V30 2555 H 238.388 -4.0116 2.27747 0
M  V30 2556 H 236.631 -3.7377 2.20178 0
M  V30 2557 H 237.302 -5.27126 1.63837 0
M  V30 2558 H 239.778 -4.16051 0.0638529 0
M  V30 2559 H 238.654 -5.47717 -0.360115 0
M  V30 2560 H 238.915 -4.16101 -1.49373 0
M  V30 2561 N 237.974 -0.419461 -1.51915 0
M  V30 2562 C 238.884 0.407528 -2.31033 0
M  V30 2563 C 239.9 1.04413 -1.3919 0
M  V30 2564 O 241.076 1.0434 -1.72265 0
M  V30 2565 C 238.141 1.50365 -3.12396 0
M  V30 2566 C 237.202 0.889029 -4.19994 0
M  V30 2567 C 236.435 1.93291 -4.97468 0
M  V30 2568 O 236.658 3.15259 -4.75361 0
M  V30 2569 O 235.592 1.53339 -5.8204 0
M  V30 2570 H 239.418 -0.237865 -3.02767 0
M  V30 2571 H 237.003 -0.182413 -1.48282 0
M  V30 2572 H 238.885 2.13975 -3.63032 0
M  V30 2573 H 237.56 2.13345 -2.43445 0
M  V30 2574 H 236.467 0.215353 -3.7348 0
M  V30 2575 H 237.8 0.302991 -4.91267 0
M  V30 2576 N 239.452 1.56882 -0.150215 0
M  V30 2577 C 240.362 2.20494 0.801222 0
M  V30 2578 C 241.378 1.19019 1.26927 0
M  V30 2579 O 242.554 1.51607 1.32579 0
M  V30 2580 C 239.619 2.81659 2.02161 0
M  V30 2581 C 238.68 3.9827 1.60249 0
M  V30 2582 C 237.913 4.56508 2.7647 0
M  V30 2583 O 238.136 4.13627 3.92771 0
M  V30 2584 O 237.07 5.46719 2.51757 0
M  V30 2585 H 240.896 3.02315 0.289717 0
M  V30 2586 H 238.481 1.49202 0.0769684 0
M  V30 2587 H 240.363 3.20522 2.73576 0
M  V30 2588 H 239.038 2.02849 2.52258 0
M  V30 2589 H 237.945 3.64117 0.858477 0
M  V30 2590 H 239.278 4.78609 1.14864 0
M  V30 2591 N 240.93 -0.123565 1.57115 0
M  V30 2592 C 241.877 -1.15177 2.00007 0
M  V30 2593 C 242.847 -1.41403 0.871454 0
M  V30 2594 O 244.032 -1.53346 1.13533 0
M  V30 2595 C 241.172 -2.47436 2.40561 0
M  V30 2596 C 240.285 -2.28184 3.66819 0
M  V30 2597 C 239.42 -3.53641 3.96373 0
M  V30 2598 C 238.459 -3.29528 5.15827 0
M  V30 2599 N 237.596 -4.47175 5.41275 0
M  V30 2600 H 242.436 -0.779008 2.87638 0
M  V30 2601 H 239.973 -0.373166 1.42288 0
M  V30 2602 H 241.931 -3.24584 2.62109 0
M  V30 2603 H 240.561 -2.82614 1.55978 0
M  V30 2604 H 239.613 -1.41976 3.52912 0
M  V30 2605 H 240.925 -2.0634 4.5412 0
M  V30 2606 H 240.079 -4.39209 4.18545 0
M  V30 2607 H 238.818 -3.78512 3.07538 0
M  V30 2608 H 237.823 -2.42349 4.93505 0
M  V30 2609 H 239.048 -3.06031 6.06236 0
M  V30 2610 H 236.994 -4.72175 4.55397 0
M  V30 2611 H 236.911 -4.28419 6.22891 0
M  V30 2612 H 238.179 -5.3389 5.67963 0
M  V30 2613 N 242.408 -1.52605 -0.393616 0
M  V30 2614 C 243.355 -1.77055 -1.48054 0
M  V30 2615 C 244.325 -0.61358 -1.54352 0
M  V30 2616 O 245.51 -0.852806 -1.70681 0
M  V30 2617 C 242.65 -1.94108 -2.85335 0
M  V30 2618 C 241.763 -3.21792 -2.88226 0
M  V30 2619 C 240.898 -3.29188 -4.16904 0
M  V30 2620 C 239.937 -4.51013 -4.13828 0
M  V30 2621 N 239.074 -4.55716 -5.34105 0
M  V30 2622 H 243.914 -2.69815 -1.26506 0
M  V30 2623 H 241.451 -1.33683 -0.61379 0
M  V30 2624 H 243.409 -2.01979 -3.65049 0
M  V30 2625 H 242.039 -1.04713 -3.05344 0
M  V30 2626 H 241.091 -3.23015 -2.00911 0
M  V30 2627 H 242.403 -4.11557 -2.8182 0
M  V30 2628 H 241.557 -3.36216 -5.05018 0
M  V30 2629 H 240.296 -2.37389 -4.26026 0
M  V30 2630 H 239.301 -4.44115 -3.24102 0
M  V30 2631 H 240.526 -5.44123 -4.06333 0
M  V30 2632 H 238.472 -3.66807 -5.43865 0
M  V30 2633 H 238.389 -5.39346 -5.29756 0
M  V30 2634 H 239.657 -4.66993 -6.2413 0
M  V30 2635 N 243.887 0.651787 -1.4349 0
M  V30 2636 C 245.134 1.41167 -1.45183 0
M  V30 2637 C 245.462 1.94349 -0.0766601 0
M  V30 2638 O 244.717 1.72804 0.918555 0
M  V30 2639 C 245.016 2.60914 -2.44251 0
M  V30 2640 C 244.682 2.26142 -3.9009 0
M  V30 2641 C 243.344 2.16371 -4.2981 0
M  V30 2642 C 245.696 1.98334 -4.81989 0
M  V30 2643 C 243.024 1.7695 -5.5938 0
M  V30 2644 C 245.376 1.6041 -6.11924 0
M  V30 2645 C 244.04 1.49166 -6.5062 0
M  V30 2646 H 243.31 0.516566 -0.531263 0
M  V30 2647 H 245.957 0.741099 -1.76579 0
M  V30 2648 H 244.262 3.3311 -2.06265 0
M  V30 2649 H 245.959 3.19127 -2.42815 0
M  V30 2650 H 242.549 2.34658 -3.58655 0
M  V30 2651 H 246.733 2.04803 -4.52072 0
M  V30 2652 H 241.989 1.66831 -5.88198 0
M  V30 2653 H 246.163 1.37925 -6.82605 0
M  V30 2654 H 243.79 1.1839 -7.50925 0
M  V30 2655 N 245.365 1.30045 0.890287 0
M  V30 2656 C 246.613 1.18327 1.63839 0
M  V30 2657 C 246.934 -0.263455 1.93212 0
M  V30 2658 O 246.204 -1.17856 1.56482 0
M  V30 2659 H 244.784 0.434933 0.607324 0
M  V30 2660 H 247.446 1.631 1.06698 0
M  V30 2661 H 246.542 1.74024 2.59079 0
M  V30 2662 N 246.843 -1.10192 1.12674 0
M  V30 2663 C 247.806 -2.14786 0.799979 0
M  V30 2664 C 248.806 -1.59711 -0.18685 0
M  V30 2665 O 249.996 -1.74156 0.0392558 0
M  V30 2666 C 247.128 -3.40374 0.189228 0
M  V30 2667 H 248.321 -2.45203 1.72671 0
M  V30 2668 H 245.874 -1.25597 0.930326 0
M  V30 2669 H 246.609 -3.15577 -0.747107 0
M  V30 2670 H 246.394 -3.81637 0.899766 0
M  V30 2671 H 247.884 -4.17594 -0.0228143 0
M  V30 2672 N 248.321 -0.919034 -1.28029 0
M  V30 2673 C 249.231 -0.416756 -2.30869 0
M  V30 2674 C 250.247 0.498235 -1.66714 0
M  V30 2675 O 251.423 0.383144 -1.97722 0
M  V30 2676 C 248.488 0.330274 -3.45123 0
M  V30 2677 C 247.549 -0.618578 -4.2482 0
M  V30 2678 C 246.782 0.0928959 -5.33619 0
M  V30 2679 O 247.005 1.31375 -5.55065 0
M  V30 2680 O 245.939 -0.574499 -5.99152 0
M  V30 2681 H 249.765 -1.27043 -2.75851 0
M  V30 2682 H 247.35 -0.684052 -1.3282 0
M  V30 2683 H 249.232 0.751972 -4.14636 0
M  V30 2684 H 247.907 1.1597 -3.02213 0
M  V30 2685 H 246.814 -1.08978 -3.57875 0
M  V30 2686 H 248.147 -1.41497 -4.71423 0
M  V30 2687 N 249.799 1.42003 -0.683588 0
M  V30 2688 C 251.045 2.01712 -0.209825 0
M  V30 2689 C 251.378 1.53968 1.18353 0
M  V30 2690 O 250.653 0.745661 1.79639 0
M  V30 2691 C 250.936 3.59202 -0.254197 0
M  V30 2692 C 250.789 4.17102 -1.68363 0
M  V30 2693 C 252.108 4.38344 0.392709 0
M  V30 2694 H 249.227 0.732891 -0.0777189 0
M  V30 2695 H 251.869 1.68909 -0.87004 0
M  V30 2696 H 250.019 3.87278 0.307954 0
M  V30 2697 H 251.691 3.99946 -2.29871 0
M  V30 2698 H 249.934 3.72597 -2.22157 0
M  V30 2699 H 250.605 5.26249 -1.6663 0
M  V30 2700 H 253.081 4.16011 -0.0859162 0
M  V30 2701 H 251.957 5.47901 0.331063 0
M  V30 2702 H 252.218 4.16887 1.47164 0
M  V30 2703 N 251.277 0.427512 1.51691 0
M  V30 2704 C 252.523 -0.142439 2.02299 0
M  V30 2705 C 252.856 -1.43214 1.31162 0
M  V30 2706 O 252.131 -1.89833 0.423511 0
M  V30 2707 C 252.414 -0.371301 3.58181 0
M  V30 2708 C 252.267 0.936358 4.39946 0
M  V30 2709 C 253.586 -1.14542 4.24933 0
M  V30 2710 H 250.705 -0.0502937 0.735282 0
M  V30 2711 H 253.347 0.564584 1.81418 0
M  V30 2712 H 251.497 -0.973559 3.76104 0
M  V30 2713 H 253.169 1.57184 4.33694 0
M  V30 2714 H 251.412 1.5432 4.05423 0
M  V30 2715 H 252.083 0.730388 5.47147 0
M  V30 2716 H 254.559 -0.635362 4.11221 0
M  V30 2717 H 253.435 -1.27431 5.33903 0
M  V30 2718 H 253.696 -2.17093 3.85127 0
M  V30 2719 N 252.755 -1.56801 0.158532 0
M  V30 2720 C 254.166 -1.83189 -0.360366 0
M  V30 2721 C 254.517 -1.07778 -1.63946 0
M  V30 2722 O 253.642 -0.326718 -2.13919 0
M  V30 2723 C 254.237 -3.32297 -0.660595 0
M  V30 2724 C 252.796 -3.59227 -1.12398 0
M  V30 2725 C 251.943 -2.76877 -0.153097 0
M  V30 2726 H 254.894 -1.54008 0.383031 0
M  V30 2727 H 254.915 -3.4908 -1.51405 0
M  V30 2728 H 254.427 -3.87156 0.270527 0
M  V30 2729 H 252.528 -3.09766 -2.07064 0
M  V30 2730 H 252.641 -4.67632 -1.04197 0
M  V30 2731 H 251.005 -2.46319 -0.647983 0
M  V30 2732 H 251.788 -3.34511 0.77182 0
M  V30 2733 N 254.233 0.115231 -1.57178 0
M  V30 2734 C 255.481 0.820727 -1.84685 0
M  V30 2735 C 255.802 1.80237 -0.744279 0
M  V30 2736 O 255.072 1.94529 0.231375 0
M  V30 2737 H 253.652 0.306084 -0.681411 0
M  V30 2738 H 256.314 0.101656 -1.94635 0
M  V30 2739 H 255.41 1.36366 -2.80733 0
M  V30 2740 N 255.711 1.52812 0.385517 0
M  V30 2741 C 256.958 1.68026 1.1302 0
M  V30 2742 C 257.286 0.421934 1.89868 0
M  V30 2743 O 256.541 -0.595749 1.86412 0
M  V30 2744 C 256.84 2.86856 2.13187 0
M  V30 2745 C 256.506 4.24159 1.5297 0
M  V30 2746 C 255.168 4.61501 1.36274 0
M  V30 2747 C 257.52 5.09627 1.09223 0
M  V30 2748 C 254.848 5.81966 0.743837 0
M  V30 2749 C 257.2 6.30719 0.487411 0
M  V30 2750 C 255.864 6.6679 0.307777 0
M  V30 2751 H 255.134 0.614849 0.413571 0
M  V30 2752 H 257.781 1.86962 0.414405 0
M  V30 2753 H 256.086 2.6235 2.90998 0
M  V30 2754 H 257.783 2.95821 2.70722 0
M  V30 2755 H 254.373 3.94746 1.66954 0
M  V30 2756 H 258.557 4.81343 1.20922 0
M  V30 2757 H 253.813 6.08519 0.592891 0
M  V30 2758 H 257.987 6.96259 0.140143 0
M  V30 2759 H 255.614 7.60001 -0.173879 0
M  V30 2760 N 257.189 -0.644168 1.43834 0
M  V30 2761 C 258.121 -1.76955 1.45669 0
M  V30 2762 C 259.134 -1.58956 0.351666 0
M  V30 2763 O 260.323 -1.6751 0.616644 0
M  V30 2764 C 257.423 -3.14507 1.26248 0
M  V30 2765 C 256.596 -3.59083 2.49757 0
M  V30 2766 C 255.655 -4.75467 2.25427 0
M  V30 2767 O 254.681 -4.84444 2.98836 0
M  V30 2768 N 255.883 -5.66289 1.27661 0
M  V30 2769 H 258.648 -1.75856 2.42682 0
M  V30 2770 H 256.209 -0.828312 1.39106 0
M  V30 2771 H 258.201 -3.90067 1.0784 0
M  V30 2772 H 256.771 -3.10325 0.376478 0
M  V30 2773 H 255.991 -2.7387 2.8353 0
M  V30 2774 H 257.279 -3.85613 3.31934 0
M  V30 2775 H 256.677 -5.61718 0.670064 0
M  V30 2776 H 255.234 -6.41533 1.15234 0
M  V30 2777 N 258.668 -1.30515 -0.883378 0
M  V30 2778 C 259.631 -1.1701 -1.97082 0
M  V30 2779 C 260.631 -0.10089 -1.60483 0
M  V30 2780 O 261.821 -0.349127 -1.70666 0
M  V30 2781 C 258.953 -0.793045 -3.31547 0
M  V30 2782 H 260.146 -2.13622 -2.10489 0
M  V30 2783 H 257.699 -1.13935 -1.06998 0
M  V30 2784 H 258.434 0.172499 -3.23841 0
M  V30 2785 H 258.219 -1.56576 -3.5948 0
M  V30 2786 H 259.709 -0.722073 -4.1131 0
M  V30 2787 N 260.146 1.09593 -1.13257 0
M  V30 2788 C 261.076 2.18214 -0.830946 0
M  V30 2789 C 262.057 1.68812 0.208966 0
M  V30 2790 O 263.242 1.9408 0.0682666 0
M  V30 2791 C 260.372 3.46051 -0.294296 0
M  V30 2792 C 259.326 4.08778 -1.26826 0
M  V30 2793 C 258.652 5.31419 -0.591449 0
M  V30 2794 C 259.952 4.51476 -2.62615 0
M  V30 2795 H 261.646 2.43703 -1.73923 0
M  V30 2796 H 259.192 1.17128 -0.837675 0
M  V30 2797 H 261.145 4.2134 -0.0709606 0
M  V30 2798 H 259.869 3.20079 0.649366 0
M  V30 2799 H 258.528 3.35505 -1.47756 0
M  V30 2800 H 258.176 5.01727 0.357633 0
M  V30 2801 H 257.876 5.74341 -1.24123 0
M  V30 2802 H 259.4 6.09433 -0.377355 0
M  V30 2803 H 260.814 5.17999 -2.45663 0
M  V30 2804 H 259.211 5.05277 -3.23752 0
M  V30 2805 H 260.281 3.63962 -3.20406 0
M  V30 2806 N 261.624 0.925811 1.2754 0
M  V30 2807 C 262.849 0.580924 1.99098 0
M  V30 2808 C 263.274 -0.833555 1.68622 0
M  V30 2809 O 262.632 -1.55903 0.925422 0
M  V30 2810 C 262.68 0.811186 3.51358 0
M  V30 2811 O 261.784 -0.124129 4.12213 0
M  V30 2812 H 261.125 0.223873 0.625122 0
M  V30 2813 H 263.655 1.24455 1.62395 0
M  V30 2814 H 263.665 0.72601 4.01489 0
M  V30 2815 H 262.34 1.84227 3.72872 0
M  V30 2816 H 260.917 0.0108006 3.72898 0
M  V30 2817 N 263.102 -1.41638 0.69111 0
M  V30 2818 C 264.012 -2.34588 0.0233487 0
M  V30 2819 C 265.028 -1.55987 -0.770984 0
M  V30 2820 O 266.204 -1.88486 -0.709569 0
M  V30 2821 C 263.269 -3.34684 -0.904851 0
M  V30 2822 C 262.33 -4.29176 -0.103225 0
M  V30 2823 C 261.563 -5.2449 -0.987216 0
M  V30 2824 O 261.786 -5.2514 -2.22674 0
M  V30 2825 O 260.72 -6.00295 -0.439281 0
M  V30 2826 H 264.546 -2.93261 0.789416 0
M  V30 2827 H 262.131 -1.42417 0.45142 0
M  V30 2828 H 264.013 -3.96133 -1.43724 0
M  V30 2829 H 262.688 -2.78461 -1.65049 0
M  V30 2830 H 261.595 -3.71089 0.473655 0
M  V30 2831 H 262.928 -4.88484 0.60365 0
M  V30 2832 N 264.58 -0.43555 -1.51462 0
M  V30 2833 C 265.828 0.131254 -2.01673 0
M  V30 2834 C 266.149 1.43368 -1.32177 0
M  V30 2835 O 265.419 1.90524 -0.455769 0
M  V30 2836 H 263.999 0.0514954 -0.745223 0
M  V30 2837 H 266.661 -0.577847 -1.86137 0
M  V30 2838 H 265.757 0.308446 -3.10572 0
M  V30 2839 N 266.058 1.56714 -0.166846 0
M  V30 2840 C 267.298 1.98641 0.481763 0
M  V30 2841 C 267.662 1.05038 1.6072 0
M  V30 2842 O 268.863 1.36087 2.31805 0
M  V30 2843 C 267.134 3.44362 0.956517 0
M  V30 2844 S 268.693 4.08317 1.60694 0
M  V30 2845 H 265.511 0.693873 0.155116 0
M  V30 2846 H 268.113 1.93719 -0.263251 0
M  V30 2847 H 266.817 4.10204 0.126936 0
M  V30 2848 H 266.348 3.53041 1.73568 0
M  V30 2849 H 268.363 4.02999 2.89494 0
M  V30 2850 N 267.536 -0.106894 1.57237 0
M  V30 2851 C 268.764 -0.826389 1.8968 0
M  V30 2852 C 269.179 -1.72856 0.759353 0
M  V30 2853 O 268.536 -1.80503 -0.269263 0
M  V30 2854 C 268.587 -1.64967 3.21665 0
M  V30 2855 O 268.308 -0.783804 4.31031 0
M  V30 2856 C 269.809 -2.47326 3.67892 0
M  V30 2857 H 267.029 -0.236927 0.627779 0
M  V30 2858 H 269.573 -0.0876593 2.04312 0
M  V30 2859 H 267.728 -2.34103 3.08666 0
M  V30 2860 H 268.142 -1.35284 5.06753 0
M  V30 2861 H 269.616 -3.00604 4.6297 0
M  V30 2862 H 270.093 -3.25247 2.95146 0
M  V30 2863 H 270.699 -1.83411 3.83719 0
M  V30 2864 N 269.014 -1.53014 -0.377408 0
M  V30 2865 C 270.425 -1.60438 -0.954798 0
M  V30 2866 C 270.776 -0.464418 -1.90624 0
M  V30 2867 O 269.901 0.41087 -2.12464 0
M  V30 2868 C 270.496 -2.90797 -1.73847 0
M  V30 2869 C 269.055 -3.00595 -2.26538 0
M  V30 2870 C 268.202 -2.55645 -1.07429 0
M  V30 2871 H 271.153 -1.57926 -0.156575 0
M  V30 2872 H 271.174 -2.77935 -2.5987 0
M  V30 2873 H 270.686 -3.73746 -1.04574 0
M  V30 2874 H 268.787 -2.22208 -2.99089 0
M  V30 2875 H 268.9 -4.05456 -2.5523 0
M  V30 2876 H 267.264 -2.10239 -1.43777 0
M  V30 2877 H 268.047 -3.41 -0.396728 0
M  V30 2878 N 270.492 0.636531 -1.44174 0
M  V30 2879 C 271.722 1.42146 -1.49927 0
M  V30 2880 C 272.13 1.88812 -0.121063 0
M  V30 2881 O 271.473 1.61126 0.882267 0
M  V30 2882 C 271.535 2.67883 -2.39748 0
M  V30 2883 C 271.199 2.43048 -3.8701 0
M  V30 2884 C 272.196 2.05216 -4.77684 0
M  V30 2885 C 269.881 2.56856 -4.3166 0
M  V30 2886 C 271.875 1.81512 -6.11009 0
M  V30 2887 C 269.562 2.32766 -5.65034 0
M  V30 2888 C 270.56 1.95152 -6.54526 0
M  V30 2889 O 270.248 1.71326 -7.85431 0
M  V30 2890 H 269.98 0.442567 -0.51099 0
M  V30 2891 H 272.534 0.786158 -1.8976 0
M  V30 2892 H 270.764 3.34032 -1.94832 0
M  V30 2893 H 272.453 3.29874 -2.36513 0
M  V30 2894 H 273.219 1.94111 -4.44462 0
M  V30 2895 H 269.098 2.85104 -3.62266 0
M  V30 2896 H 272.642 1.52077 -6.80822 0
M  V30 2897 H 268.539 2.43479 -5.97819 0
M  V30 2898 H 269.307 1.85616 -7.97176 0
M  V30 2899 N 271.97 1.30982 0.876444 0
M  V30 2900 C 273.247 1.10942 1.61094 0
M  V30 2901 C 273.627 -0.338223 2.08373 0
M  V30 2902 O 272.975 -1.33122 1.85717 0
M  V30 2903 C 273.185 2.11789 2.77392 0
M  V30 2904 C 274.533 2.43965 3.47514 0
M  V30 2905 O 275.557 2.10166 2.87591 0
M  V30 2906 O 274.416 3.01817 4.55597 0
M  V30 2907 H 271.51 0.42667 0.708436 0
M  V30 2908 H 274.056 1.42438 0.922474 0
M  V30 2909 H 272.828 3.09194 2.39823 0
M  V30 2910 H 272.451 1.81161 3.5393 0
M  V30 2911 N 273.449 -1.08991 1.13837 0
M  V30 2912 C 274.698 -1.80631 0.897509 0
M  V30 2913 C 275.011 -1.86872 -0.57777 0
M  V30 2914 O 276.217 -2.54866 -0.935701 0
M  V30 2915 C 274.673 -3.24517 1.55618 0
M  V30 2916 C 274.281 -3.26529 3.0673 0
M  V30 2917 C 276.025 -4.00882 1.3962 0
M  V30 2918 C 273.932 -4.64965 3.65461 0
M  V30 2919 H 272.862 -0.67691 0.332129 0
M  V30 2920 H 275.513 -1.2246 1.3666 0
M  V30 2921 H 273.895 -3.82778 1.01476 0
M  V30 2922 H 275.069 -2.78008 3.67489 0
M  V30 2923 H 273.384 -2.63656 3.22296 0
M  V30 2924 H 275.981 -5.03167 1.80906 0
M  V30 2925 H 276.324 -4.14896 0.341578 0
M  V30 2926 H 276.857 -3.49075 1.90766 0
M  V30 2927 H 273.596 -4.56153 4.70749 0
M  V30 2928 H 273.116 -5.13792 3.09481 0
M  V30 2929 H 274.795 -5.3394 3.654 0
M  V30 2930 N 274.927 -0.932562 -1.27047 0
M  V30 2931 C 275.875 -0.42603 -2.28665 0
M  V30 2932 C 276.869 0.49219 -1.62092 0
M  V30 2933 O 278.075 0.371355 -1.76128 0
M  V30 2934 H 274.45 -0.119213 -0.742491 0
M  V30 2935 H 276.421 -1.29579 -2.68797 0
M  V30 2936 C 275.17 0.301426 -3.46391 0
M  V30 2937 H 274.493 -0.39595 -3.97834 0
M  V30 2938 H 275.933 0.6202 -4.1944 0
M  V30 2939 C 274.392 1.51616 -3.00856 0
M  V30 2940 O 274.922 2.61476 -3.04948 0
M  V30 2941 N 273.128 1.36969 -2.56296 0
M  V30 2942 H 272.675 0.475873 -2.53166 0
M  V30 2943 H 272.633 2.18368 -2.26192 0
M  V30 2944 N 276.405 1.4127 -0.698611 0
M  V30 2945 C 277.337 2.292 0.00399731 0
M  V30 2946 C 278.35 1.44944 0.741279 0
M  V30 2947 O 279.539 1.68416 0.591477 0
M  V30 2948 C 276.639 3.22875 1.02979 0
M  V30 2949 C 275.812 4.35904 0.36151 0
M  V30 2950 C 274.871 5.10134 1.29033 0
M  V30 2951 O 273.897 5.63809 0.781562 0
M  V30 2952 N 275.099 5.17885 2.6225 0
M  V30 2953 H 277.864 2.9014 -0.750921 0
M  V30 2954 H 275.425 1.52455 -0.544882 0
M  V30 2955 H 277.417 3.69404 1.65296 0
M  V30 2956 H 275.987 2.63221 1.68622 0
M  V30 2957 H 275.207 3.91719 -0.441584 0
M  V30 2958 H 276.495 5.08696 -0.103055 0
M  V30 2959 H 275.893 4.7573 3.061 0
M  V30 2960 H 274.45 5.6798 3.19754 0
M  V30 2961 N 277.883 0.443576 1.51229 0
M  V30 2962 C 278.816 -0.410089 2.24485 0
M  V30 2963 C 279.794 -1.01949 1.26669 0
M  V30 2964 O 280.978 -1.06075 1.55821 0
M  V30 2965 C 278.105 -1.57211 3.00004 0
M  V30 2966 C 277.151 -1.08279 4.12526 0
M  V30 2967 S 277.984 -0.0197476 5.35496 0
M  V30 2968 C 279.14 -1.18629 6.14555 0
M  V30 2969 H 279.373 0.211832 2.96544 0
M  V30 2970 H 276.906 0.228156 1.52705 0
M  V30 2971 H 278.864 -2.23825 3.44111 0
M  V30 2972 H 277.525 -2.16547 2.27522 0
M  V30 2973 H 276.718 -1.95193 4.64667 0
M  V30 2974 H 276.32 -0.494797 3.70713 0
M  V30 2975 H 278.612 -2.10344 6.4402 0
M  V30 2976 H 279.555 -0.70472 7.04584 0
M  V30 2977 H 279.963 -1.42768 5.46148 0
M  V30 2978 N 279.361 -1.56624 0.175154 0
M  V30 2979 C 280.291 -2.21155 -0.749195 0
M  V30 2980 C 281.272 -1.16836 -1.23626 0
M  V30 2981 O 282.457 -1.45277 -1.28873 0
M  V30 2982 C 279.587 -2.8553 -1.97711 0
M  V30 2983 C 278.541 -3.95921 -1.62575 0
M  V30 2984 C 277.867 -4.47365 -2.92864 0
M  V30 2985 C 279.167 -5.15323 -0.850838 0
M  V30 2986 H 280.861 -2.98653 -0.211295 0
M  V30 2987 H 278.407 -1.43651 -0.100188 0
M  V30 2988 H 280.36 -3.2935 -2.62881 0
M  V30 2989 H 279.084 -2.05406 -2.53921 0
M  V30 2990 H 277.743 -3.52762 -0.997719 0
M  V30 2991 H 277.391 -3.64027 -3.47122 0
M  V30 2992 H 277.091 -5.21839 -2.70106 0
M  V30 2993 H 278.615 -4.93873 -3.59056 0
M  V30 2994 H 280.029 -5.55812 -1.40521 0
M  V30 2995 H 278.426 -5.95739 -0.722154 0
M  V30 2996 H 279.496 -4.84661 0.152082 0
M  V30 2997 N 280.839 0.0985539 -1.57292 0
M  V30 2998 C 281.787 1.1387 -2.02821 0
M  V30 2999 C 282.781 1.41676 -0.928666 0
M  V30 3000 O 283.987 1.41398 -1.11385 0
M  V30 3001 H 280.362 0.384419 -0.646317 0
M  V30 3002 H 282.333 0.728347 -2.89375 0
M  V30 3003 C 281.082 2.45166 -2.46554 0
M  V30 3004 H 280.405 2.24613 -3.3074 0
M  V30 3005 H 281.845 3.16456 -2.8219 0
M  V30 3006 C 280.304 3.09216 -1.33742 0
M  V30 3007 O 280.834 3.96163 -0.66464 0
M  V30 3008 N 279.04 2.69413 -1.08928 0
M  V30 3009 H 278.587 1.98801 -1.63817 0
M  V30 3010 H 278.545 3.12594 -0.336458 0
M  V30 3011 N 282.317 1.53212 0.369288 0
M  V30 3012 C 283.557 1.70915 1.12105 0
M  V30 3013 C 283.921 0.449444 1.86665 0
M  V30 3014 O 285.122 0.503105 2.6405 0
M  V30 3015 C 283.393 2.9222 2.05772 0
M  V30 3016 S 284.952 3.30609 2.88519 0
M  V30 3017 H 281.77 0.601445 0.379189 0
M  V30 3018 H 284.372 1.91306 0.402794 0
M  V30 3019 H 283.076 3.82103 1.49752 0
M  V30 3020 H 282.607 2.7422 2.82076 0
M  V30 3021 H 284.622 2.82333 4.08047 0
M  V30 3022 N 283.795 -0.628877 1.44509 0
M  V30 3023 C 285.041 -1.39045 1.47629 0
M  V30 3024 C 285.374 -1.93892 0.109343 0
M  V30 3025 O 284.649 -1.7379 -0.87334 0
M  V30 3026 C 284.932 -2.55408 2.53848 0
M  V30 3027 C 284.785 -2.05896 3.99909 0
M  V30 3028 C 286.104 -3.5759 2.56549 0
M  V30 3029 H 283.223 -0.504232 0.537512 0
M  V30 3030 H 285.865 -0.710854 1.76201 0
M  V30 3031 H 284.015 -3.13384 2.29615 0
M  V30 3032 H 285.687 -1.52734 4.35282 0
M  V30 3033 H 283.93 -1.37061 4.11578 0
M  V30 3034 H 284.601 -2.89681 4.69882 0
M  V30 3035 H 287.077 -3.09419 2.78207 0
M  V30 3036 H 285.953 -4.36527 3.32769 0
M  V30 3037 H 286.214 -4.11808 1.60832 0
M  V30 3038 N 285.273 -1.31445 -0.869486 0
M  V30 3039 C 286.521 -1.20918 -1.61936 0
M  V30 3040 C 286.842 0.232683 -1.93607 0
M  V30 3041 O 286.112 1.15352 -1.58338 0
M  V30 3042 H 284.692 -0.44454 -0.600328 0
M  V30 3043 H 287.354 -1.64776 -1.0409 0
M  V30 3044 H 286.45 -1.78124 -2.56278 0
M  V30 3045 N 286.751 1.08385 -1.14413 0
M  V30 3046 C 288.028 1.77429 -0.823297 0
M  V30 3047 C 288.408 1.9974 0.683163 0
M  V30 3048 O 287.756 1.60739 1.62405 0
M  V30 3049 C 287.966 3.09004 -1.62227 0
M  V30 3050 C 289.314 3.83532 -1.82177 0
M  V30 3051 O 290.338 3.18786 -1.58915 0
M  V30 3052 O 289.197 4.99792 -2.21067 0
M  V30 3053 H 286.291 0.769999 -0.301712 0
M  V30 3054 H 288.837 1.14846 -1.24934 0
M  V30 3055 H 287.609 2.88316 -2.64555 0
M  V30 3056 H 287.232 3.79316 -1.19187 0
M  V30 3057 N 288.23 0.939286 1.26551 0
M  V30 3058 C 289.18 0.418284 2.2413 0
M  V30 3059 C 290.164 -0.483935 1.5345 0
M  V30 3060 O 291.356 -0.319489 1.74093 0
M  V30 3061 C 288.485 -0.31709 3.41832 0
M  V30 3062 C 287.571 0.602311 4.19801 0
M  V30 3063 N 287.962 1.72726 4.75394 0
M  V30 3064 C 286.26 0.407534 4.44134 0
M  V30 3065 C 286.961 2.30004 5.34297 0
M  V30 3066 N 285.937 1.58828 5.1988 0
M  V30 3067 H 289.739 1.27705 2.64705 0
M  V30 3068 H 287.253 0.794929 1.41614 0
M  V30 3069 H 289.25 -0.707364 4.10855 0
M  V30 3070 H 287.91 -1.17264 3.02786 0
M  V30 3071 H 288.921 2.10944 4.72994 0
M  V30 3072 H 285.598 -0.406406 4.15517 0
M  V30 3073 H 286.988 3.24778 5.88191 0
M  V30 3074 N 289.708 -1.40897 0.706093 0
M  V30 3075 C 290.64 -2.29199 0.00815776 0
M  V30 3076 C 291.653 -1.45336 -0.733582 0
M  V30 3077 O 292.842 -1.68727 -0.582537 0
M  V30 3078 C 289.942 -3.23417 -1.01265 0
M  V30 3079 C 289.115 -4.36089 -0.338387 0
M  V30 3080 C 288.174 -5.10811 -1.26326 0
M  V30 3081 O 287.2 -5.64215 -0.751651 0
M  V30 3082 N 288.402 -5.19269 -2.595 0
M  V30 3083 H 291.167 -2.89738 0.766297 0
M  V30 3084 H 288.728 -1.52164 0.55296 0
M  V30 3085 H 290.72 -3.70276 -1.63334 0
M  V30 3086 H 289.29 -2.64112 -1.67223 0
M  V30 3087 H 288.51 -3.91479 0.462352 0
M  V30 3088 H 289.798 -5.08634 0.130031 0
M  V30 3089 H 289.196 -4.77347 -3.03573 0
M  V30 3090 H 287.753 -5.69667 -3.16737 0
M  V30 3091 N 291.186 -0.45159 -1.50991 0
M  V30 3092 C 292.149 0.341117 -2.26647 0
M  V30 3093 C 293.149 0.937422 -1.30649 0
M  V30 3094 O 294.339 0.809644 -1.54241 0
M  V30 3095 C 291.471 1.48398 -3.06905 0
M  V30 3096 H 292.664 -0.322117 -2.98165 0
M  V30 3097 H 290.217 -0.205122 -1.54948 0
M  V30 3098 H 290.952 2.18284 -2.39838 0
M  V30 3099 H 290.737 1.06241 -3.77432 0
M  V30 3100 H 292.227 2.04367 -3.64176 0
M  V30 3101 N 292.664 1.56529 -0.183458 0
M  V30 3102 C 293.627 2.17324 0.728223 0
M  V30 3103 C 294.627 1.12453 1.14939 0
M  V30 3104 O 295.817 1.37902 1.06437 0
M  V30 3105 C 292.949 2.76591 1.99274 0
M  V30 3106 H 294.142 2.99241 0.198772 0
M  V30 3107 H 291.695 1.5616 0.0661391 0
M  V30 3108 H 292.43 1.98441 2.56499 0
M  V30 3109 H 292.215 3.5335 1.69959 0
M  V30 3110 H 293.705 3.23311 2.6431 0
M  V30 3111 N 294.142 -0.090211 1.57342 0
M  V30 3112 C 295.075 -1.14035 1.97664 0
M  V30 3113 C 296.053 -1.38576 0.850616 0
M  V30 3114 O 297.237 -1.52255 1.11134 0
M  V30 3115 C 294.364 -2.48854 2.2976 0
M  V30 3116 C 293.41 -2.40564 3.52181 0
M  V30 3117 S 294.243 -1.81745 5.03715 0
M  V30 3118 C 295.399 -3.18178 5.38993 0
M  V30 3119 H 295.632 -0.796636 2.86428 0
M  V30 3120 H 293.165 -0.298072 1.51496 0
M  V30 3121 H 295.123 -3.26413 2.48927 0
M  V30 3122 H 293.784 -2.80393 1.41558 0
M  V30 3123 H 292.977 -3.39942 3.72096 0
M  V30 3124 H 292.579 -1.71135 3.32549 0
M  V30 3125 H 294.871 -4.14461 5.35937 0
M  V30 3126 H 295.814 -3.03062 6.39968 0
M  V30 3127 H 296.222 -3.17935 4.66452 0
M  V30 3128 N 295.62 -1.53406 -0.361157 0
M  V30 3129 C 296.552 -1.76446 -1.46286 0
M  V30 3130 C 297.565 -0.645322 -1.49464 0
M  V30 3131 O 298.754 -0.921681 -1.52864 0
M  V30 3132 C 295.854 -1.83332 -2.85031 0
M  V30 3133 C 295.027 -3.13033 -3.05498 0
M  V30 3134 C 294.086 -3.11104 -4.24383 0
M  V30 3135 O 293.112 -3.84888 -4.19344 0
M  V30 3136 N 294.314 -2.32234 -5.32022 0
M  V30 3137 H 297.079 -2.71508 -1.26899 0
M  V30 3138 H 294.64 -1.52238 -0.550915 0
M  V30 3139 H 296.632 -1.79514 -3.62708 0
M  V30 3140 H 295.202 -0.955342 -2.97644 0
M  V30 3141 H 294.422 -3.30119 -2.15442 0
M  V30 3142 H 295.71 -3.9874 -3.16044 0
M  V30 3143 H 295.108 -1.71807 -5.38979 0
M  V30 3144 H 293.665 -2.3423 -6.08259 0
M  V30 3145 N 297.098 0.621204 -1.44841 0
M  V30 3146 C 298.347 1.37658 -1.47422 0
M  V30 3147 C 298.66 1.95264 -0.114629 0
M  V30 3148 O 299.866 2.71494 -0.0180199 0
M  V30 3149 C 298.322 2.49285 -2.59586 0
M  V30 3150 C 297.93 1.98149 -4.01797 0
M  V30 3151 C 299.674 3.26409 -2.71399 0
M  V30 3152 C 297.581 3.07178 -5.05367 0
M  V30 3153 H 296.511 0.517344 -0.548517 0
M  V30 3154 H 299.162 0.667257 -1.70938 0
M  V30 3155 H 297.544 3.22839 -2.29328 0
M  V30 3156 H 298.718 1.31395 -4.41669 0
M  V30 3157 H 297.033 1.33812 -3.94314 0
M  V30 3158 H 299.63 4.07706 -3.45948 0
M  V30 3159 H 299.973 3.76535 -1.77559 0
M  V30 3160 H 300.506 2.5995 -3.01116 0
M  V30 3161 H 297.245 2.61985 -6.00869 0
M  V30 3162 H 296.765 3.72542 -4.70077 0
M  V30 3163 H 298.444 3.71789 -5.29511 0
M  V30 3164 N 298.576 1.31904 0.862503 0
M  V30 3165 C 299.825 1.21373 1.61094 0
M  V30 3166 C 300.138 -0.22504 1.94301 0
M  V30 3167 O 301.344 -0.452121 2.67709 0
M  V30 3168 C 299.8 2.12525 2.9045 0
M  V30 3169 C 299.408 3.61441 2.64697 0
M  V30 3170 C 301.152 2.10813 3.68454 0
M  V30 3171 C 299.059 4.44578 3.90006 0
M  V30 3172 H 297.989 0.450705 0.604468 0
M  V30 3173 H 300.64 1.56811 0.953027 0
M  V30 3174 H 299.022 1.69994 3.57656 0
M  V30 3175 H 300.196 4.12264 2.05851 0
M  V30 3176 H 298.511 3.65205 2.00036 0
M  V30 3177 H 301.108 2.70167 4.61426 0
M  V30 3178 H 301.451 1.09713 4.01583 0
M  V30 3179 H 301.984 2.51583 3.08141 0
M  V30 3180 H 298.723 5.46461 3.62023 0
M  V30 3181 H 298.243 3.98508 4.48276 0
M  V30 3182 H 299.922 4.57176 4.5782 0
M  V30 3183 N 300.054 -1.07777 1.14986 0
M  V30 3184 C 301.47 -1.32373 0.891596 0
M  V30 3185 C 301.67 -1.9609 -0.463788 0
M  V30 3186 O 300.726 -2.21801 -1.20667 0
M  V30 3187 C 302.039 -2.21905 2.02925 0
M  V30 3188 C 303.587 -2.35367 2.06329 0
M  V30 3189 C 304.062 -3.28245 3.19405 0
M  V30 3190 N 305.553 -3.35824 3.19024 0
M  V30 3191 C 306.288 -4.07739 4.03158 0
M  V30 3192 N 305.784 -4.82306 4.97346 0
M  V30 3193 N 307.577 -4.03635 3.91197 0
M  V30 3194 H 299.728 -0.648039 2.02273 0
M  V30 3195 H 301.991 -0.348149 0.881757 0
M  V30 3196 H 301.697 -1.82342 3.0074 0
M  V30 3197 H 301.571 -3.22407 1.95789 0
M  V30 3198 H 303.958 -2.74186 1.09116 0
M  V30 3199 H 304.039 -1.34585 2.17533 0
M  V30 3200 H 303.683 -2.90146 4.16867 0
M  V30 3201 H 303.613 -4.28971 3.05437 0
M  V30 3202 H 306.104 -2.8267 2.50811 0
M  V30 3203 H 306.417 -5.34661 5.57994 0
M  V30 3204 H 304.762 -4.81337 5.01338 0
M  V30 3205 H 307.953 -3.44491 3.16928 0
M  V30 3206 H 308.126 -4.59417 4.5699 0
M  V30 3207 N 301.532 -0.945985 -1.26051 0
M  V30 3208 C 302.442 -0.465633 -2.29933 0
M  V30 3209 C 303.458 0.462761 -1.67733 0
M  V30 3210 O 304.634 0.341118 -1.9849 0
M  V30 3211 C 301.699 0.256994 -3.45746 0
M  V30 3212 C 300.76 -0.708549 -4.23412 0
M  V30 3213 C 299.993 -0.0203135 -5.33696 0
M  V30 3214 O 300.216 1.19571 -5.57726 0
M  V30 3215 O 299.15 -0.701459 -5.97799 0
M  V30 3216 H 302.976 -1.32866 -2.73094 0
M  V30 3217 H 300.561 -0.712071 -1.31339 0
M  V30 3218 H 302.443 0.663852 -4.16138 0
M  V30 3219 H 301.118 1.09533 -3.04605 0
M  V30 3220 H 300.025 -1.16545 -3.55483 0
M  V30 3221 H 301.358 -1.51465 -4.68315 0
M  V30 3222 N 303.011 1.40521 -0.713556 0
M  V30 3223 C 304.26 2.00155 -0.249192 0
M  V30 3224 C 304.573 1.57224 1.16362 0
M  V30 3225 O 305.779 2.09542 1.72639 0
M  V30 3226 C 304.235 3.5773 -0.3946 0
M  V30 3227 C 303.843 4.09635 -1.81392 0
M  V30 3228 C 305.587 4.24499 0.00907364 0
M  V30 3229 C 303.494 5.59707 -1.91003 0
M  V30 3230 H 302.424 0.74868 -0.0894114 0
M  V30 3231 H 305.075 1.60784 -0.884352 0
M  V30 3232 H 303.457 3.94792 0.30911 0
M  V30 3233 H 304.631 3.83955 -2.54785 0
M  V30 3234 H 302.946 3.55456 -2.16888 0
M  V30 3235 H 305.543 5.34683 -0.0420404 0
M  V30 3236 H 305.886 4.02824 1.05065 0
M  V30 3237 H 306.419 3.92536 -0.645007 0
M  V30 3238 H 303.158 5.86234 -2.93275 0
M  V30 3239 H 302.678 5.87258 -1.22019 0
M  V30 3240 H 304.357 6.24776 -1.6812 0
M  V30 3241 N 304.489 0.459591 1.5075 0
M  V30 3242 C 305.738 -0.100971 2.01447 0
M  V30 3243 C 306.051 -1.41816 1.34713 0
M  V30 3244 O 307.257 -2.06299 1.76502 0
M  V30 3245 C 305.713 -0.23047 3.59161 0
M  V30 3246 C 305.321 1.0776 4.34847 0
M  V30 3247 C 307.065 -0.743608 4.17936 0
M  V30 3248 C 304.972 0.91253 5.84317 0
M  V30 3249 H 303.902 -0.0415102 0.752856 0
M  V30 3250 H 306.553 0.592742 1.73663 0
M  V30 3251 H 304.935 -0.987703 3.83485 0
M  V30 3252 H 306.109 1.8449 4.22256 0
M  V30 3253 H 304.424 1.52097 3.87628 0
M  V30 3254 H 307.021 -0.883959 5.27343 0
M  V30 3255 H 307.364 -1.73196 3.78562 0
M  V30 3256 H 307.897 -0.04408 3.97776 0
M  V30 3257 H 304.636 1.87391 6.28144 0
M  V30 3258 H 304.156 0.185422 5.99513 0
M  V30 3259 H 305.835 0.574547 6.44444 0
M  V30 3260 N 305.967 -1.56429 0.191757 0
M  V30 3261 C 306.915 -2.20273 -0.747174 0
M  V30 3262 C 307.909 -1.17288 -1.22229 0
M  V30 3263 O 309.115 -1.35441 -1.18557 0
M  V30 3264 H 305.49 -0.705885 -0.259289 0
M  V30 3265 H 307.461 -2.97826 -0.184963 0
M  V30 3266 C 306.21 -2.87356 -1.95759 0
M  V30 3267 H 305.533 -3.66341 -1.60106 0
M  V30 3268 H 306.973 -3.3547 -2.59299 0
M  V30 3269 C 305.432 -1.88213 -2.79423 0
M  V30 3270 O 305.962 -1.38033 -3.7724 0
M  V30 3271 N 304.168 -1.56516 -2.44849 0
M  V30 3272 H 303.715 -1.97516 -1.65364 0
M  V30 3273 H 303.673 -0.904369 -3.01112 0
M  V30 3274 N 307.445 0.0818655 -1.57387 0
M  V30 3275 C 308.355 1.11642 -2.06333 0
M  V30 3276 C 309.371 1.43033 -0.99083 0
M  V30 3277 O 310.547 1.53411 -1.30488 0
M  V30 3278 C 307.612 2.41342 -2.48907 0
M  V30 3279 C 306.673 2.17014 -3.7041 0
M  V30 3280 C 305.906 3.4053 -4.10944 0
M  V30 3281 O 306.129 4.4927 -3.51444 0
M  V30 3282 O 305.063 3.29336 -5.03807 0
M  V30 3283 H 308.889 0.730657 -2.9478 0
M  V30 3284 H 306.474 0.295301 -1.46452 0
M  V30 3285 H 308.356 3.17691 -2.76858 0
M  V30 3286 H 307.031 2.79319 -1.63593 0
M  V30 3287 H 305.938 1.38403 -3.47556 0
M  V30 3288 H 307.271 1.83923 -4.56545 0
M  V30 3289 N 308.923 1.53595 0.353017 0
M  V30 3290 C 309.833 1.83897 1.45667 0
M  V30 3291 C 310.849 0.728334 1.58023 0
M  V30 3292 O 312.025 1.01968 1.73679 0
M  V30 3293 C 309.09 2.03383 2.80778 0
M  V30 3294 C 308.151 3.27262 2.77845 0
M  V30 3295 C 307.384 3.45809 4.06512 0
M  V30 3296 O 307.607 2.68387 5.03314 0
M  V30 3297 O 306.541 4.39207 4.11559 0
M  V30 3298 H 310.367 2.77686 1.2298 0
M  V30 3299 H 307.952 1.39132 0.544308 0
M  V30 3300 H 309.834 2.17698 3.60812 0
M  V30 3301 H 308.509 1.12783 3.03417 0
M  V30 3302 H 307.416 3.18359 1.96465 0
M  V30 3303 H 308.749 4.17824 2.60161 0
M  V30 3304 N 310.401 -0.613514 1.45168 0
M  V30 3305 C 311.364 -1.7065 1.53007 0
M  V30 3306 C 312.364 -1.5548 0.410184 0
M  V30 3307 O 313.554 -1.60656 0.673455 0
M  V30 3308 C 310.686 -3.09875 1.42093 0
M  V30 3309 H 311.879 -1.65068 2.50385 0
M  V30 3310 H 309.432 -0.828728 1.32521 0
M  V30 3311 H 310.167 -3.21039 0.458769 0
M  V30 3312 H 309.952 -3.22293 2.23315 0
M  V30 3313 H 311.442 -3.895 1.50598 0
M  V30 3314 N 311.879 -1.3236 -0.855495 0
M  V30 3315 C 312.842 -1.21164 -1.94556 0
M  V30 3316 C 313.842 -0.134908 -1.60233 0
M  V30 3317 O 315.032 -0.385249 -1.69887 0
M  V30 3318 C 312.164 -0.863192 -3.29791 0
M  V30 3319 H 313.357 -2.18038 -2.05911 0
M  V30 3320 H 310.91 -1.16179 -1.04557 0
M  V30 3321 H 311.645 0.103769 -3.24134 0
M  V30 3322 H 311.43 -1.64166 -3.56078 0
M  V30 3323 H 312.92 -0.809156 -4.09686 0
M  V30 3324 N 313.357 1.07166 -1.15556 0
M  V30 3325 C 314.267 2.17947 -0.868116 0
M  V30 3326 C 315.283 1.73297 0.156297 0
M  V30 3327 O 316.459 2.01392 -0.0182327 0
M  V30 3328 C 313.524 3.44789 -0.36355 0
M  V30 3329 C 312.585 4.03996 -1.45209 0
M  V30 3330 C 311.818 5.24783 -0.971508 0
M  V30 3331 O 312.041 5.70109 0.182194 0
M  V30 3332 O 310.975 5.75715 -1.75603 0
M  V30 3333 H 314.801 2.4503 -1.79427 0
M  V30 3334 H 312.386 1.16539 -0.934824 0
M  V30 3335 H 314.268 4.21307 -0.0887113 0
M  V30 3336 H 312.943 3.19253 0.534708 0
M  V30 3337 H 311.85 3.29009 -1.78056 0
M  V30 3338 H 313.183 4.33808 -2.32533 0
M  V30 3339 N 314.835 0.952656 1.25548 0
M  V30 3340 C 316.081 0.616826 1.93822 0
M  V30 3341 C 316.436 -0.836684 1.73255 0
M  V30 3342 O 315.729 -1.59218 1.06584 0
M  V30 3343 C 315.923 0.908818 3.45652 0
M  V30 3344 C 315.752 2.38916 3.80984 0
M  V30 3345 C 314.522 3.04637 4.03143 0
M  V30 3346 C 316.72 3.36838 3.88645 0
M  V30 3347 N 314.702 4.42565 4.25453 0
M  V30 3348 C 316.073 4.60065 4.1562 0
M  V30 3349 C 318.128 3.31704 3.71318 0
M  V30 3350 C 316.831 5.78795 4.2707 0
M  V30 3351 C 318.857 4.4977 3.84006 0
M  V30 3352 C 318.219 5.71783 4.11392 0
M  V30 3353 H 314.318 0.27629 0.731565 0
M  V30 3354 H 316.902 1.22443 1.5138 0
M  V30 3355 H 315.073 0.330166 3.86994 0
M  V30 3356 H 316.805 0.533093 4.01174 0
M  V30 3357 H 313.56 2.55215 3.98952 0
M  V30 3358 H 313.984 5.1399 4.40617 0
M  V30 3359 H 318.626 2.3842 3.49164 0
M  V30 3360 H 316.344 6.72521 4.48041 0
M  V30 3361 H 319.93 4.47342 3.71989 0
M  V30 3362 H 318.81 6.61617 4.2099 0
M  V30 3363 N 316.313 -1.40141 0.720998 0
M  V30 3364 C 317.59 -1.94677 0.189757 0
M  V30 3365 C 317.97 -1.65879 -1.30566 0
M  V30 3366 O 317.318 -0.979391 -2.06447 0
M  V30 3367 C 317.528 -3.45279 0.508304 0
M  V30 3368 C 318.876 -4.22209 0.449934 0
M  V30 3369 O 319.9 -3.53413 0.444677 0
M  V30 3370 O 318.759 -5.44788 0.432189 0
M  V30 3371 H 315.853 -0.826459 0.0299026 0
M  V30 3372 H 318.399 -1.49719 0.7989 0
M  V30 3373 H 317.171 -3.59619 1.54239 0
M  V30 3374 H 316.794 -3.97386 -0.130525 0
M  V30 3375 N 317.792 -0.46758 -1.50504 0
M  V30 3376 C 319.038 0.0887532 -2.02606 0
M  V30 3377 C 319.371 1.39686 -1.34913 0
M  V30 3378 O 318.646 1.88644 -0.473694 0
M  V30 3379 C 318.929 0.276206 -3.59039 0
M  V30 3380 C 318.782 -1.05267 -4.37309 0
M  V30 3381 C 320.101 1.03235 -4.27821 0
M  V30 3382 H 317.22 0.0307814 -0.736357 0
M  V30 3383 H 319.862 -0.612485 -1.79857 0
M  V30 3384 H 318.012 0.8735 -3.78553 0
M  V30 3385 H 319.684 -1.68628 -4.29374 0
M  V30 3386 H 317.927 -1.65015 -4.01189 0
M  V30 3387 H 318.598 -0.875197 -5.45018 0
M  V30 3388 H 321.074 0.526111 -4.12761 0
M  V30 3389 H 319.95 1.1323 -5.37094 0
M  V30 3390 H 320.211 2.06806 -3.90748 0
M  V30 3391 N 319.27 1.56325 -0.20005 0
M  V30 3392 C 320.202 2.16555 0.750771 0
M  V30 3393 C 321.215 1.12871 1.1732 0
M  V30 3394 O 322.404 1.39943 1.10807 0
M  V30 3395 C 319.504 2.71684 2.02586 0
M  V30 3396 C 318.677 4.00321 1.76244 0
M  V30 3397 C 317.736 4.40227 2.88248 0
M  V30 3398 O 316.762 5.07552 2.57642 0
M  V30 3399 N 317.964 4.04138 4.16717 0
M  V30 3400 H 320.729 2.98772 0.235685 0
M  V30 3401 H 318.29 1.6189 -0.0182594 0
M  V30 3402 H 320.282 2.95363 2.76664 0
M  V30 3403 H 318.852 1.93893 2.45202 0
M  V30 3404 H 318.072 3.84723 0.85919 0
M  V30 3405 H 319.36 4.84279 1.56048 0
M  V30 3406 H 318.758 3.49993 4.44434 0
M  V30 3407 H 317.315 4.32756 4.87407 0
M  V30 3408 N 320.748 -0.0735177 1.57428 0
M  V30 3409 C 321.698 -1.09442 2.00016 0
M  V30 3410 C 322.682 -1.34575 0.881947 0
M  V30 3411 O 323.874 -1.34905 1.14585 0
M  V30 3412 C 321.003 -2.40865 2.4462 0
M  V30 3413 C 320.089 -2.19014 3.63172 0
M  V30 3414 N 320.48 -1.67087 4.77405 0
M  V30 3415 C 318.778 -2.49494 3.69688 0
M  V30 3416 C 319.479 -1.6001 5.5926 0
M  V30 3417 N 318.455 -2.05999 5.03056 0
M  V30 3418 H 322.257 -0.686227 2.85776 0
M  V30 3419 H 319.771 -0.280617 1.59957 0
M  V30 3420 H 321.768 -3.14763 2.73368 0
M  V30 3421 H 320.428 -2.82403 1.60246 0
M  V30 3422 H 321.439 -1.35975 4.99731 0
M  V30 3423 H 318.116 -2.94409 2.96023 0
M  V30 3424 H 319.506 -1.2073 6.60964 0
M  V30 3425 N 322.226 -1.5378 -0.344866 0
M  V30 3426 C 323.637 -1.62428 -0.920552 0
M  V30 3427 C 323.988 -0.504747 -1.89596 0
M  V30 3428 O 323.113 0.365711 -2.13287 0
M  V30 3429 C 323.708 -2.94419 -1.67639 0
M  V30 3430 C 322.267 -3.05333 -2.20111 0
M  V30 3431 C 321.414 -2.57866 -1.01982 0
M  V30 3432 H 324.365 -1.58222 -0.123042 0
M  V30 3433 H 324.386 -2.83384 -2.53917 0
M  V30 3434 H 323.898 -3.7588 -0.966224 0
M  V30 3435 H 321.999 -2.28502 -2.94308 0
M  V30 3436 H 322.112 -4.10778 -2.46573 0
M  V30 3437 H 320.476 -2.13241 -1.39285 0
M  V30 3438 H 321.259 -3.41765 -0.324308 0
M  V30 3439 N 323.704 0.605807 -1.45491 0
M  V30 3440 C 324.953 1.36086 -1.48874 0
M  V30 3441 C 325.266 1.95131 -0.135333 0
M  V30 3442 O 326.472 2.7146 -0.0468144 0
M  V30 3443 C 324.928 2.46518 -2.62215 0
M  V30 3444 C 324.536 1.93877 -4.03876 0
M  V30 3445 C 326.28 3.23512 -2.74846 0
M  V30 3446 C 324.187 3.01801 -5.08596 0
M  V30 3447 H 323.117 0.511497 -0.553974 0
M  V30 3448 H 325.768 0.649089 -1.71636 0
M  V30 3449 H 324.15 3.20388 -2.32739 0
M  V30 3450 H 325.324 1.26704 -4.43038 0
M  V30 3451 H 323.639 1.29622 -3.95711 0
M  V30 3452 H 326.236 4.04013 -3.50253 0
M  V30 3453 H 326.579 3.74631 -1.81542 0
M  V30 3454 H 327.112 2.56742 -3.03856 0
M  V30 3455 H 323.851 2.55597 -6.03614 0
M  V30 3456 H 323.371 3.67535 -4.74002 0
M  V30 3457 H 325.05 3.66152 -5.33424 0
M  V30 3458 N 325.182 1.32811 0.848464 0
M  V30 3459 C 326.593 1.21315 1.41914 0
M  V30 3460 C 326.944 -0.171847 1.95446 0
M  V30 3461 O 326.069 -1.07093 1.88043 0
M  V30 3462 C 326.664 2.19631 2.57968 0
M  V30 3463 C 325.223 2.12003 3.11017 0
M  V30 3464 C 324.37 2.07651 1.83783 0
M  V30 3465 H 327.321 1.44549 0.655071 0
M  V30 3466 H 327.342 1.79845 3.35315 0
M  V30 3467 H 326.854 3.20423 2.18976 0
M  V30 3468 H 324.955 1.14481 3.54577 0
M  V30 3469 H 325.068 3.02111 3.71841 0
M  V30 3470 H 323.432 1.52983 2.03638 0
M  V30 3471 H 324.215 3.10235 1.47 0
M  V30 3472 N 326.66 -1.06551 1.16123 0
M  V30 3473 C 327.908 -1.78947 0.939267 0
M  V30 3474 C 328.229 -1.87532 -0.534476 0
M  V30 3475 O 327.499 -1.38211 -1.38833 0
M  V30 3476 H 326.079 -0.662807 0.344523 0
M  V30 3477 H 328.741 -1.28725 1.46342 0
M  V30 3478 H 327.837 -2.81117 1.35572 0
M  V30 3479 N 328.138 -0.959301 -1.25041 0
M  V30 3480 C 329.549 -0.65667 -1.74771 0
M  V30 3481 C 329.9 0.827852 -1.77879 0
M  V30 3482 O 329.025 1.64783 -1.40269 0
M  V30 3483 C 329.62 -1.1853 -3.1739 0
M  V30 3484 C 328.179 -0.932734 -3.6466 0
M  V30 3485 C 327.326 -1.32558 -2.43564 0
M  V30 3486 H 330.277 -1.13558 -1.10862 0
M  V30 3487 H 330.298 -0.547582 -3.76539 0
M  V30 3488 H 329.81 -2.26576 -3.15095 0
M  V30 3489 H 327.911 0.13257 -3.72364 0
M  V30 3490 H 328.024 -1.57248 -4.52559 0
M  V30 3491 H 326.388 -0.743956 -2.43593 0
M  V30 3492 H 327.171 -2.41537 -2.43957 0
M  V30 3493 N 329.616 1.39756 -0.72842 0
M  V30 3494 C 330.546 2.33289 -0.0991354 0
M  V30 3495 C 331.527 1.53568 0.731489 0
M  V30 3496 O 332.712 1.81987 0.677807 0
M  V30 3497 C 329.842 3.3763 0.813834 0
M  V30 3498 C 328.796 4.2791 0.0878663 0
M  V30 3499 C 328.122 5.22894 1.11741 0
M  V30 3500 C 329.422 5.11314 -1.06563 0
M  V30 3501 H 331.116 2.86163 -0.880408 0
M  V30 3502 H 328.662 1.37591 -0.424819 0
M  V30 3503 H 330.615 4.0201 1.26355 0
M  V30 3504 H 329.339 2.83181 1.62715 0
M  V30 3505 H 327.998 3.65 -0.342159 0
M  V30 3506 H 327.646 4.64744 1.92412 0
M  V30 3507 H 327.346 5.84143 0.636477 0
M  V30 3508 H 328.87 5.90151 1.56697 0
M  V30 3509 H 330.284 5.69076 -0.694671 0
M  V30 3510 H 328.681 5.81671 -1.47577 0
M  V30 3511 H 329.751 4.46534 -1.89038 0
M  V30 3512 N 331.094 0.475555 1.50254 0
M  V30 3513 C 332.505 0.0215174 1.86688 0
M  V30 3514 C 332.856 -1.38467 1.39001 0
M  V30 3515 O 331.981 -2.02732 0.756894 0
M  V30 3516 C 332.576 0.0322715 3.38785 0
M  V30 3517 C 331.135 -0.366314 3.74613 0
M  V30 3518 C 330.282 0.415832 2.74164 0
M  V30 3519 H 333.233 0.689612 1.42934 0
M  V30 3520 H 333.254 -0.76889 3.7265 0
M  V30 3521 H 332.766 1.05584 3.73462 0
M  V30 3522 H 330.867 -1.39406 3.45538 0
M  V30 3523 H 330.98 -0.064555 4.79057 0
M  V30 3524 H 329.344 -0.131048 2.54363 0
M  V30 3525 H 330.127 1.43899 3.11686 0
M  V30 3526 N 332.573 -1.56217 0.208337 0
M  V30 3527 C 333.536 -2.18455 -0.693557 0
M  V30 3528 C 334.536 -1.14268 -1.13135 0
M  V30 3529 O 335.726 -1.39577 -1.0423 0
M  V30 3530 C 332.858 -2.79727 -1.94848 0
M  V30 3531 H 334.051 -2.99519 -0.15114 0
M  V30 3532 H 331.604 -1.56245 -0.041287 0
M  V30 3533 H 332.339 -2.02497 -2.53309 0
M  V30 3534 H 332.124 -3.56009 -1.64316 0
M  V30 3535 H 333.614 -3.27475 -2.59133 0
M  V30 3536 N 334.051 0.0651679 -1.57465 0
M  V30 3537 C 335.299 0.761555 -1.87202 0
M  V30 3538 C 335.62 1.77778 -0.801243 0
M  V30 3539 O 334.89 1.95166 0.16937 0
M  V30 3540 H 333.47 0.284251 -0.690804 0
M  V30 3541 H 336.132 0.0396827 -1.9486 0
M  V30 3542 H 335.228 1.27365 -2.84929 0
M  V30 3543 N 335.529 1.53961 0.336706 0
M  V30 3544 C 336.461 1.78751 1.4346 0
M  V30 3545 C 337.474 0.669019 1.48418 0
M  V30 3546 O 338.663 0.945884 1.51378 0
M  V30 3547 C 335.763 1.87844 2.82078 0
M  V30 3548 C 334.936 3.17854 3.00479 0
M  V30 3549 C 333.995 3.17816 4.19379 0
M  V30 3550 O 333.021 3.91511 4.13168 0
M  V30 3551 N 334.223 2.40669 5.2826 0
M  V30 3552 H 336.988 2.73493 1.22563 0
M  V30 3553 H 334.549 1.53096 0.526625 0
M  V30 3554 H 336.541 1.85261 3.59806 0
M  V30 3555 H 335.111 1.00257 2.96086 0
M  V30 3556 H 334.331 3.33504 2.10163 0
M  V30 3557 H 335.619 4.03718 3.0966 0
M  V30 3558 H 335.017 1.8036 5.36178 0
M  V30 3559 H 333.574 2.43877 6.04456 0
M  V30 3560 N 337.007 -0.598083 1.45811 0
M  V30 3561 C 337.937 -1.71873 1.58057 0
M  V30 3562 C 338.918 -1.64533 0.431615 0
M  V30 3563 O 340.103 -1.82787 0.65595 0
M  V30 3564 C 337.233 -3.10495 1.55597 0
M  V30 3565 C 336.187 -3.32654 2.69305 0
M  V30 3566 C 335.513 -4.71646 2.51902 0
M  V30 3567 C 336.813 -3.21981 4.11248 0
M  V30 3568 H 338.507 -1.61881 2.51863 0
M  V30 3569 H 336.053 -0.777372 1.21214 0
M  V30 3570 H 338.006 -3.88699 1.6276 0
M  V30 3571 H 336.73 -3.2135 0.583255 0
M  V30 3572 H 335.389 -2.56843 2.61586 0
M  V30 3573 H 335.037 -4.79246 1.52748 0
M  V30 3574 H 334.737 -4.87426 3.2816 0
M  V30 3575 H 336.261 -5.52038 2.60933 0
M  V30 3576 H 337.675 -3.90049 4.20161 0
M  V30 3577 H 336.072 -3.49289 4.87972 0
M  V30 3578 H 337.142 -2.1928 4.32486 0
M  V30 3579 N 338.485 -1.33259 -0.841409 0
M  V30 3580 C 339.901 -1.12538 -1.13169 0
M  V30 3581 C 340.101 0.0854037 -2.01319 0
M  V30 3582 O 339.157 0.766417 -2.40587 0
M  V30 3583 C 340.47 -2.41156 -1.79623 0
M  V30 3584 C 342.018 -2.47038 -1.922 0
M  V30 3585 C 342.493 -3.7561 -2.6207 0
M  V30 3586 N 343.984 -3.76667 -2.69585 0
M  V30 3587 C 344.719 -4.72861 -3.2433 0
M  V30 3588 N 344.215 -5.79428 -3.79783 0
M  V30 3589 N 346.008 -4.6034 -3.22558 0
M  V30 3590 H 338.159 -2.10868 -0.254676 0
M  V30 3591 H 340.422 -0.931615 -0.175493 0
M  V30 3592 H 340.128 -3.29747 -1.22311 0
M  V30 3593 H 340.002 -2.53114 -2.79666 0
M  V30 3594 H 342.389 -1.58898 -2.48667 0
M  V30 3595 H 342.47 -2.39022 -0.911148 0
M  V30 3596 H 342.114 -4.64131 -2.06263 0
M  V30 3597 H 342.044 -3.80902 -3.63622 0
M  V30 3598 H 344.535 -2.99648 -2.30259 0
M  V30 3599 H 344.848 -6.48867 -4.19752 0
M  V30 3600 H 343.193 -5.83166 -3.78078 0
M  V30 3601 H 346.384 -3.76244 -2.78492 0
M  V30 3602 H 346.557 -5.35478 -3.64921 0
M  V30 3603 N 339.963 1.05934 -1.16686 0
M  V30 3604 C 340.873 2.17014 -0.891183 0
M  V30 3605 C 341.889 1.73453 0.137907 0
M  V30 3606 O 343.065 2.01361 -0.039592 0
M  V30 3607 C 340.13 3.44384 -0.400099 0
M  V30 3608 C 339.191 4.02433 -1.49486 0
M  V30 3609 C 338.424 5.23723 -1.02711 0
M  V30 3610 O 338.647 5.7027 0.121716 0
M  V30 3611 O 337.581 5.7382 -1.81699 0
M  V30 3612 H 341.407 2.43113 -1.82015 0
M  V30 3613 H 338.992 1.15541 -0.947132 0
M  V30 3614 H 340.874 4.21189 -0.133392 0
M  V30 3615 H 339.549 3.19802 0.500817 0
M  V30 3616 H 338.456 3.27102 -1.81535 0
M  V30 3617 H 339.789 4.31317 -2.37121 0
M  V30 3618 N 341.441 0.965919 1.2453 0
M  V30 3619 C 342.852 0.665929 1.7442 0
M  V30 3620 C 343.203 -0.818407 1.78316 0
M  V30 3621 O 342.328 -1.64037 1.41141 0
M  V30 3622 C 342.923 1.20211 3.16757 0
M  V30 3623 C 341.482 0.952059 3.6416 0
M  V30 3624 C 340.629 1.33848 2.42858 0
M  V30 3625 H 343.58 1.14144 1.10258 0
M  V30 3626 H 343.601 0.567544 3.76244 0
M  V30 3627 H 343.113 2.28244 3.13889 0
M  V30 3628 H 341.214 -0.112821 3.72429 0
M  V30 3629 H 341.327 1.59645 4.51719 0
M  V30 3630 H 339.691 0.756864 2.43195 0
M  V30 3631 H 340.474 2.42827 2.42673 0
M  V30 3632 N 342.919 -1.39368 0.735821 0
M  V30 3633 C 344.335 -1.54204 0.411492 0
M  V30 3634 C 344.535 -1.70268 -1.07755 0
M  V30 3635 O 343.591 -1.70364 -1.86366 0
M  V30 3636 C 344.904 -2.75925 1.19523 0
M  V30 3637 C 346.452 -2.89761 1.18354 0
M  V30 3638 C 346.927 -4.14421 1.94986 0
M  V30 3639 N 348.418 -4.21462 1.92156 0
M  V30 3640 C 349.153 -5.16871 2.48258 0
M  V30 3641 N 348.649 -6.18063 3.13001 0
M  V30 3642 N 350.442 -5.09093 2.38287 0
M  V30 3643 H 342.593 -1.27189 1.70108 0
M  V30 3644 H 344.856 -0.616517 0.720147 0
M  V30 3645 H 344.562 -2.70401 2.24892 0
M  V30 3646 H 344.436 -3.68614 0.800222 0
M  V30 3647 H 346.823 -2.94777 0.137975 0
M  V30 3648 H 346.904 -1.98133 1.61793 0
M  V30 3649 H 346.548 -4.10166 2.99543 0
M  V30 3650 H 346.478 -5.05095 1.48953 0
M  V30 3651 H 348.969 -3.48979 1.44991 0
M  V30 3652 H 349.282 -6.87326 3.53275 0
M  V30 3653 H 347.627 -6.18448 3.17091 0
M  V30 3654 H 350.818 -4.28973 1.8735 0
M  V30 3655 H 350.991 -5.83272 2.82308 0
M  V30 3656 N 344.397 -0.483516 -1.5 0
M  V30 3657 C 345.645 0.067027 -2.01989 0
M  V30 3658 C 345.966 1.3909 -1.36671 0
M  V30 3659 O 345.236 1.88978 -0.516152 0
M  V30 3660 H 343.816 0.0277606 -0.746484 0
M  V30 3661 H 346.478 -0.636773 -1.84204 0
M  V30 3662 H 345.574 0.209484 -3.11396 0
M  V30 3663 N 345.875 1.56104 -0.216619 0
M  V30 3664 C 347.1 2.0301 0.424462 0
M  V30 3665 C 347.525 1.0955 1.52907 0
M  V30 3666 O 346.883 0.0827914 1.81111 0
M  V30 3667 C 346.931 3.4819 0.937883 0
M  V30 3668 O 346.035 3.57865 2.04955 0
M  V30 3669 H 345.376 0.656925 0.0966755 0
M  V30 3670 H 347.906 2.01859 -0.33381 0
M  V30 3671 H 347.916 3.88413 1.24897 0
M  V30 3672 H 346.591 4.15699 0.129387 0
M  V30 3673 H 345.168 3.29527 1.74546 0
M  V30 3674 N 347.353 -0.0568162 1.57498 0
M  V30 3675 C 348.63 -0.786954 1.79071 0
M  V30 3676 C 349.01 -1.95028 0.80792 0
M  V30 3677 O 348.358 -2.27968 -0.155858 0
M  V30 3678 C 348.568 -1.24594 3.26002 0
M  V30 3679 C 349.916 -1.67323 3.90241 0
M  V30 3680 O 350.94 -1.34124 3.29984 0
M  V30 3681 O 349.799 -2.28842 4.9628 0
M  V30 3682 H 346.893 -0.378262 0.735423 0
M  V30 3683 H 349.439 -0.035734 1.69662 0
M  V30 3684 H 348.211 -0.41423 3.89101 0
M  V30 3685 H 347.834 -2.05803 3.40192 0
M  V30 3686 N 348.832 -1.54138 -0.328536 0
M  V30 3687 C 350.081 -1.71318 -1.06456 0
M  V30 3688 C 350.394 -0.491109 -1.89334 0
M  V30 3689 O 351.6 -0.54416 -2.65991 0
M  V30 3690 C 350.056 -3.03 -1.94214 0
M  V30 3691 C 349.664 -4.32595 -1.16471 0
M  V30 3692 C 351.408 -3.29544 -2.67583 0
M  V30 3693 C 349.315 -5.55341 -2.03347 0
M  V30 3694 H 348.245 -0.638429 -0.401155 0
M  V30 3695 H 350.896 -1.80633 -0.323106 0
M  V30 3696 H 349.278 -2.87579 -2.72239 0
M  V30 3697 H 350.452 -4.58766 -0.432525 0
M  V30 3698 H 348.767 -4.12777 -0.548063 0
M  V30 3699 H 351.364 -4.18444 -3.3288 0
M  V30 3700 H 351.707 -2.47206 -3.34955 0
M  V30 3701 H 352.24 -3.45809 -1.96623 0
M  V30 3702 H 348.979 -6.40268 -1.40491 0
M  V30 3703 H 348.499 -5.33397 -2.74313 0
M  V30 3704 H 350.178 -5.91557 -2.62049 0
M  V30 3705 N 350.31 0.590341 -1.46126 0
M  V30 3706 C 351.273 1.68194 -1.55703 0
M  V30 3707 C 352.273 1.54808 -0.434868 0
M  V30 3708 O 353.463 1.59564 -0.698928 0
M  V30 3709 C 350.595 3.07575 -1.47005 0
M  V30 3710 H 351.788 1.61064 -2.52979 0
M  V30 3711 H 349.341 0.807541 -1.33823 0
M  V30 3712 H 350.076 3.20268 -0.509785 0
M  V30 3713 H 349.861 3.187 -2.28414 0
M  V30 3714 H 351.351 3.87055 -1.56776 0
M  V30 3715 N 351.788 1.33704 0.83433 0
M  V30 3716 C 353.036 1.25169 1.58673 0
M  V30 3717 C 353.357 -0.18127 1.94156 0
M  V30 3718 O 352.627 -1.11113 1.6134 0
M  V30 3719 H 351.207 0.4603 0.58833 0
M  V30 3720 H 353.869 1.67478 0.996847 0
M  V30 3721 H 352.965 1.84856 2.51465 0
M  V30 3722 N 353.266 -1.05314 1.17247 0
M  V30 3723 C 354.494 -1.81971 0.984593 0
M  V30 3724 C 354.909 -1.82929 -0.467166 0
M  V30 3725 O 354.266 -1.25564 -1.32438 0
M  V30 3726 C 354.317 -3.28143 1.51672 0
M  V30 3727 O 354.038 -3.27347 2.91163 0
M  V30 3728 C 355.539 -4.21493 1.37326 0
M  V30 3729 H 352.759 -0.573455 0.348411 0
M  V30 3730 H 355.303 -1.32808 1.55506 0
M  V30 3731 H 353.458 -3.74582 0.988302 0
M  V30 3732 H 353.872 -4.18824 3.15732 0
M  V30 3733 H 355.346 -5.22043 1.79375 0
M  V30 3734 H 355.823 -4.38031 0.320169 0
M  V30 3735 H 356.429 -3.80909 1.89178 0
M  V30 3736 N 354.744 -0.972509 -1.24016 0
M  V30 3737 C 355.972 -0.654803 -1.96265 0
M  V30 3738 C 356.387 0.776708 -1.72083 0
M  V30 3739 O 355.744 1.52171 -1.00748 0
M  V30 3740 C 355.795 -0.92592 -3.49441 0
M  V30 3741 O 355.516 -2.30116 -3.72798 0
M  V30 3742 C 357.017 -0.623068 -4.38899 0
M  V30 3743 H 354.237 -0.243907 -0.6251 0
M  V30 3744 H 356.781 -1.30175 -1.57717 0
M  V30 3745 H 354.936 -0.325108 -3.86033 0
M  V30 3746 H 355.35 -2.38483 -4.67147 0
M  V30 3747 H 356.824 -0.863189 -5.45209 0
M  V30 3748 H 357.301 0.442754 -4.36963 0
M  V30 3749 H 357.907 -1.204 -4.07902 0
M  V30 3750 N 356.222 1.38976 -0.743202 0
M  V30 3751 C 357.447 2.05161 -0.303936 0
M  V30 3752 C 357.872 1.55677 1.05576 0
M  V30 3753 O 357.23 0.704131 1.67068 0
M  V30 3754 C 357.278 3.59138 -0.324373 0
M  V30 3755 O 356.382 4.06668 0.685204 0
M  V30 3756 H 355.723 0.649815 -0.136518 0
M  V30 3757 H 358.253 1.77852 -1.01142 0
M  V30 3758 H 358.263 4.07639 -0.171618 0
M  V30 3759 H 356.938 3.94515 -1.31647 0
M  V30 3760 H 355.515 3.69561 0.497913 0
M  V30 3761 N 357.7 0.491464 1.49741 0
M  V30 3762 C 358.928 -0.0535151 2.06831 0
M  V30 3763 C 359.343 -1.31683 1.35296 0
M  V30 3764 O 358.7 -1.77402 0.42836 0
M  V30 3765 C 358.751 -0.320835 3.60073 0
M  V30 3766 O 358.472 0.892394 4.28915 0
M  V30 3767 C 359.973 -0.910519 4.33848 0
M  V30 3768 H 357.193 0.0161909 0.670805 0
M  V30 3769 H 359.737 0.68609 1.92647 0
M  V30 3770 H 357.892 -1.0104 3.73991 0
M  V30 3771 H 358.306 0.649401 5.20464 0
M  V30 3772 H 359.78 -1.04721 5.41976 0
M  V30 3773 H 360.257 -1.90589 3.95692 0
M  V30 3774 H 360.863 -0.258712 4.24512 0
M  V30 3775 N 359.178 -1.55987 0.224894 0
M  V30 3776 C 360.424 -1.98684 -0.406502 0
M  V30 3777 C 360.757 -1.11248 -1.59177 0
M  V30 3778 O 360.032 -0.170909 -1.93748 0
M  V30 3779 C 360.315 -3.50218 -0.837808 0
M  V30 3780 C 360.168 -4.48426 0.351332 0
M  V30 3781 C 361.487 -4.06243 -1.69278 0
M  V30 3782 H 358.606 -0.722337 -0.146283 0
M  V30 3783 H 361.248 -1.87255 0.321799 0
M  V30 3784 H 359.398 -3.60089 -1.45837 0
M  V30 3785 H 361.07 -4.50562 0.989526 0
M  V30 3786 H 359.313 -4.22159 0.998207 0
M  V30 3787 H 359.984 -5.52 0.00655905 0
M  V30 3788 H 362.46 -3.99337 -1.16914 0
M  V30 3789 H 361.336 -5.12581 -1.96346 0
M  V30 3790 H 361.597 -3.53332 -2.65723 0
M  V30 3791 N 360.656 0.0484629 -1.57525 0
M  V30 3792 C 361.566 1.07241 -2.08654 0
M  V30 3793 C 362.582 1.409 -1.02095 0
M  V30 3794 O 363.758 1.50609 -1.33712 0
M  V30 3795 C 360.823 2.36008 -2.5397 0
M  V30 3796 C 359.884 2.09108 -3.7493 0
M  V30 3797 C 359.117 3.31736 -4.18075 0
M  V30 3798 O 359.34 4.41714 -3.60895 0
M  V30 3799 O 358.274 3.18576 -5.10679 0
M  V30 3800 H 362.1 0.667965 -2.96263 0
M  V30 3801 H 359.685 0.26417 -1.47046 0
M  V30 3802 H 361.567 3.11747 -2.83535 0
M  V30 3803 H 360.242 2.75786 -1.69481 0
M  V30 3804 H 359.149 1.31 -3.50414 0
M  V30 3805 H 360.482 1.74198 -4.60343 0
M  V30 3806 N 362.134 1.5431 0.320358 0
M  V30 3807 C 363.044 1.86946 1.41734 0
M  V30 3808 C 364.06 0.761689 1.56443 0
M  V30 3809 O 365.236 1.05629 1.71477 0
M  V30 3810 C 362.301 2.09293 2.76401 0
M  V30 3811 C 361.362 3.33082 2.70841 0
M  V30 3812 C 360.595 3.54353 3.99086 0
M  V30 3813 O 360.818 2.79002 4.97508 0
M  V30 3814 O 359.752 4.47838 4.0215 0
M  V30 3815 H 363.578 2.80232 1.17062 0
M  V30 3816 H 361.163 1.40255 0.514673 0
M  V30 3817 H 363.045 2.25303 3.56113 0
M  V30 3818 H 361.72 1.19194 3.00956 0
M  V30 3819 H 360.627 3.22454 1.89668 0
M  V30 3820 H 361.96 4.23249 2.5124 0
M  V30 3821 N 363.613 -0.582584 1.46437 0
M  V30 3822 C 364.545 -1.70618 1.53043 0
M  V30 3823 C 365.558 -1.57322 0.418769 0
M  V30 3824 O 366.747 -1.64744 0.687136 0
M  V30 3825 C 363.847 -3.08869 1.39474 0
M  V30 3826 C 363.02 -3.48166 2.64762 0
M  V30 3827 C 362.079 -4.65478 2.4539 0
M  V30 3828 O 361.105 -4.71333 3.19114 0
M  V30 3829 N 362.307 -5.60365 1.51564 0
M  V30 3830 H 365.072 -1.65405 2.49923 0
M  V30 3831 H 362.633 -0.768567 1.42494 0
M  V30 3832 H 364.625 -3.85143 1.24287 0
M  V30 3833 H 363.195 -3.08449 0.507758 0
M  V30 3834 H 362.415 -2.61598 2.9489 0
M  V30 3835 H 363.703 -3.71188 3.4799 0
M  V30 3836 H 363.101 -5.5837 0.907705 0
M  V30 3837 H 361.658 -6.36068 1.4234 0
M  V30 3838 N 365.091 -1.34144 -0.827227 0
M  V30 3839 C 366.34 -1.25602 -1.5782 0
M  V30 3840 C 366.653 0.173445 -1.94829 0
M  V30 3841 O 367.859 0.380984 -2.68814 0
M  V30 3842 C 366.315 -2.20151 -2.84713 0
M  V30 3843 C 365.923 -3.68331 -2.55021 0
M  V30 3844 C 367.667 -2.20508 -3.62735 0
M  V30 3845 C 365.574 -4.54762 -3.78082 0
M  V30 3846 H 364.504 -0.466573 -0.592306 0
M  V30 3847 H 367.155 -1.59283 -0.911116 0
M  V30 3848 H 365.537 -1.79417 -3.53023 0
M  V30 3849 H 366.711 -4.17577 -1.94849 0
M  V30 3850 H 365.026 -3.7038 -1.90283 0
M  V30 3851 H 367.623 -2.82306 -4.54101 0
M  V30 3852 H 367.966 -1.20322 -3.98533 0
M  V30 3853 H 368.499 -2.59664 -3.01362 0
M  V30 3854 H 365.238 -5.55867 -3.47407 0
M  V30 3855 H 364.758 -4.10254 -4.37552 0
M  V30 3856 H 366.437 -4.69153 -4.45538 0
M  V30 3857 N 366.569 1.04691 -1.17803 0
M  V30 3858 C 367.501 2.12571 -0.857097 0
M  V30 3859 C 368.514 1.62174 0.142647 0
M  V30 3860 O 369.703 1.78301 -0.0843387 0
M  V30 3861 C 366.803 3.37915 -0.258216 0
M  V30 3862 C 365.976 4.1757 -1.30207 0
M  V30 3863 C 365.035 5.2125 -0.720029 0
M  V30 3864 O 364.061 5.51888 -1.39314 0
M  V30 3865 N 365.263 5.78466 0.485507 0
M  V30 3866 H 368.028 2.40698 -1.78562 0
M  V30 3867 H 365.589 1.20831 -1.07757 0
M  V30 3868 H 367.581 4.04442 0.144584 0
M  V30 3869 H 366.151 3.07281 0.574199 0
M  V30 3870 H 365.371 3.46458 -1.88043 0
M  V30 3871 H 366.659 4.67586 -2.00601 0
M  V30 3872 H 366.057 5.55866 1.05022 0
M  V30 3873 H 364.614 6.4649 0.830307 0
M  V30 3874 N 368.047 0.979072 1.23499 0
M  V30 3875 C 369.293 0.6578 1.9247 0
M  V30 3876 C 369.648 -0.799746 1.74991 0
M  V30 3877 O 368.941 -1.56922 1.09937 0
M  V30 3878 C 369.135 0.981932 3.43646 0
M  V30 3879 C 368.964 2.46944 3.75831 0
M  V30 3880 C 367.734 3.13119 3.96591 0
M  V30 3881 C 369.932 3.45006 3.81412 0
M  V30 3882 N 367.914 4.51489 4.15969 0
M  V30 3883 C 369.285 4.68778 4.05768 0
M  V30 3884 C 371.34 3.39505 3.64198 0
M  V30 3885 C 370.043 5.87723 4.14697 0
M  V30 3886 C 372.069 4.57814 3.7438 0
M  V30 3887 C 371.431 5.80381 3.99171 0
M  V30 3888 H 367.53 0.291746 0.72554 0
M  V30 3889 H 370.114 1.25626 1.48749 0
M  V30 3890 H 368.285 0.412179 3.86207 0
M  V30 3891 H 370.017 0.618068 3.99953 0
M  V30 3892 H 366.772 2.63619 3.93449 0
M  V30 3893 H 367.196 5.23221 4.29615 0
M  V30 3894 H 371.838 2.45773 3.44029 0
M  V30 3895 H 369.556 6.81874 4.33675 0
M  V30 3896 H 373.142 4.55132 3.62417 0
M  V30 3897 H 372.022 6.70398 4.06861 0
M  V30 3898 N 369.525 -1.3858 0.750561 0
M  V30 3899 C 370.458 -2.28095 0.0693139 0
M  V30 3900 C 371.436 -1.45217 -0.731491 0
M  V30 3901 O 372.62 -1.74587 -0.71076 0
M  V30 3902 C 369.747 -3.26282 -0.90871 0
M  V30 3903 C 368.793 -4.26056 -0.194507 0
M  V30 3904 S 369.626 -5.24026 1.10257 0
M  V30 3905 C 370.782 -6.2577 0.127542 0
M  V30 3906 H 371.015 -2.85526 0.8284 0
M  V30 3907 H 368.548 -1.44536 0.543014 0
M  V30 3908 H 370.506 -3.83367 -1.46766 0
M  V30 3909 H 369.167 -2.6784 -1.64075 0
M  V30 3910 H 368.36 -4.95249 -0.93512 0
M  V30 3911 H 367.962 -3.72852 0.292837 0
M  V30 3912 H 370.254 -6.73796 -0.707516 0
M  V30 3913 H 371.197 -7.03712 0.787044 0
M  V30 3914 H 371.605 -5.63938 -0.251803 0
M  V30 3915 N 371.003 -0.499398 -1.49478 0
M  V30 3916 C 372.25 0.0456899 -2.02448 0
M  V30 3917 C 372.578 1.37142 -1.37921 0
M  V30 3918 O 371.833 1.89111 -0.503544 0
M  V30 3919 C 372.132 0.248424 -3.56536 0
M  V30 3920 C 371.798 -0.999107 -4.39692 0
M  V30 3921 C 370.46 -1.34108 -4.62135 0
M  V30 3922 C 372.812 -1.82842 -4.88076 0
M  V30 3923 C 370.14 -2.51191 -5.30208 0
M  V30 3924 C 372.492 -2.99076 -5.57437 0
M  V30 3925 C 371.156 -3.33655 -5.78127 0
M  V30 3926 H 370.426 0.0167191 -0.740811 0
M  V30 3927 H 373.073 -0.65923 -1.79795 0
M  V30 3928 H 371.378 1.03586 -3.77859 0
M  V30 3929 H 373.075 0.684605 -3.95113 0
M  V30 3930 H 369.665 -0.722729 -4.22463 0
M  V30 3931 H 373.849 -1.57737 -4.70566 0
M  V30 3932 H 369.105 -2.78221 -5.44429 0
M  V30 3933 H 373.279 -3.63664 -5.93904 0
M  V30 3934 H 370.906 -4.24483 -6.30649 0
M  V30 3935 N 372.481 1.55866 -0.233164 0
M  V30 3936 C 373.897 1.59133 0.121988 0
M  V30 3937 C 374.097 1.25016 1.58029 0
M  V30 3938 O 373.153 0.990922 2.32243 0
M  V30 3939 C 374.466 2.99932 -0.214792 0
M  V30 3940 C 376.014 3.12601 -0.157971 0
M  V30 3941 C 376.489 4.55597 -0.46859 0
M  V30 3942 N 377.98 4.61305 -0.418585 0
M  V30 3943 C 378.715 5.69903 -0.63227 0
M  V30 3944 N 378.211 6.86819 -0.90835 0
M  V30 3945 N 380.004 5.59264 -0.563913 0
M  V30 3946 H 372.155 1.76315 -1.18434 0
M  V30 3947 H 374.418 0.820093 -0.475553 0
M  V30 3948 H 374.124 3.29588 -1.22739 0
M  V30 3949 H 373.998 3.74327 0.464691 0
M  V30 3950 H 376.385 2.82735 0.845283 0
M  V30 3951 H 376.466 2.40511 -0.871102 0
M  V30 3952 H 376.11 4.86182 -1.46934 0
M  V30 3953 H 376.04 5.25928 0.265865 0
M  V30 3954 H 378.531 3.77297 -0.213368 0
M  V30 3955 H 378.844 7.65507 -1.05919 0
M  V30 3956 H 377.189 6.88536 -0.945673 0
M  V30 3957 H 380.38 4.66802 -0.348372 0
M  V30 3958 H 380.553 6.43831 -0.733847 0
M  V30 3959 N 373.959 -0.0401083 1.57549 0
M  V30 3960 C 375.37 -0.588097 1.77196 0
M  V30 3961 C 375.721 -1.76209 0.862832 0
M  V30 3962 O 374.846 -2.16331 0.0548389 0
M  V30 3963 C 375.441 -1.07363 3.21339 0
M  V30 3964 C 374 -1.56723 3.42221 0
M  V30 3965 C 373.147 -0.50041 2.72747 0
M  V30 3966 H 376.098 0.186119 1.57605 0
M  V30 3967 H 376.119 -1.94143 3.27244 0
M  V30 3968 H 375.631 -0.218975 3.87482 0
M  V30 3969 H 373.732 -2.4441 2.81237 0
M  V30 3970 H 373.845 -1.62234 4.50796 0
M  V30 3971 H 372.209 -0.952894 2.36203 0
M  V30 3972 H 372.992 0.344599 3.41566 0
M  V30 3973 N 375.437 -1.54477 -0.31217 0
M  V30 3974 C 376.369 -1.81011 -1.40598 0
M  V30 3975 C 377.382 -0.692546 -1.47335 0
M  V30 3976 O 378.571 -0.969847 -1.49854 0
M  V30 3977 C 375.671 -1.92307 -2.79054 0
M  V30 3978 C 374.844 -3.22594 -2.95384 0
M  V30 3979 C 373.903 -3.24448 -4.1427 0
M  V30 3980 O 372.929 -3.98035 -4.06887 0
M  V30 3981 N 374.131 -2.49042 -5.24365 0
M  V30 3982 H 376.896 -2.75408 -1.18196 0
M  V30 3983 H 374.457 -1.53914 -0.502202 0
M  V30 3984 H 376.449 -1.90962 -3.56813 0
M  V30 3985 H 375.019 -1.04955 -2.94454 0
M  V30 3986 H 374.239 -3.36806 -2.04831 0
M  V30 3987 H 375.527 -4.08593 -3.03198 0
M  V30 3988 H 374.925 -1.88867 -5.33241 0
M  V30 3989 H 373.482 -2.53463 -6.005 0
M  V30 3990 N 376.915 0.57481 -1.46744 0
M  V30 3991 C 377.863 1.70435 -1.58286 0
M  V30 3992 C 378.857 1.63287 -0.450956 0
M  V30 3993 O 380.063 1.68685 -0.628121 0
M  V30 3994 H 376.438 0.56364 -0.497809 0
M  V30 3995 H 378.409 1.57833 -2.53242 0
M  V30 3996 C 377.158 3.08815 -1.59776 0
M  V30 3997 H 376.481 3.1499 -2.46214 0
M  V30 3998 H 377.921 3.87588 -1.71905 0
M  V30 3999 C 376.38 3.35301 -0.327812 0
M  V30 4000 O 376.91 3.97511 0.57861 0
M  V30 4001 N 375.116 2.89816 -0.213274 0
M  V30 4002 H 374.663 2.39371 -0.951798 0
M  V30 4003 H 374.621 3.0791 0.63553 0
M  V30 4004 N 378.394 1.34581 0.820102 0
M  V30 4005 C 379.805 1.24298 1.39309 0
M  V30 4006 C 380.156 -0.130351 1.95767 0
M  V30 4007 O 379.281 -1.0308 1.90272 0
M  V30 4008 C 379.876 2.25054 2.53251 0
M  V30 4009 C 378.435 2.18552 3.0645 0
M  V30 4010 C 377.582 2.11503 1.79337 0
M  V30 4011 H 380.533 1.45906 0.624262 0
M  V30 4012 H 380.554 1.86917 3.31425 0
M  V30 4013 H 380.066 3.24996 2.1213 0
M  V30 4014 H 378.167 1.21976 3.52069 0
M  V30 4015 H 378.28 3.0993 3.65349 0
M  V30 4016 H 376.644 1.57268 2.00347 0
M  V30 4017 H 377.427 3.13284 1.40386 0
M  V30 4018 N 379.872 -1.04064 1.18357 0
M  V30 4019 C 381.118 -1.77528 0.980397 0
M  V30 4020 C 381.451 -1.87948 -0.48879 0
M  V30 4021 O 380.726 -1.3876 -1.36293 0
M  V30 4022 C 381.009 -3.20797 1.63588 0
M  V30 4023 C 380.862 -3.1832 3.17793 0
M  V30 4024 C 382.181 -4.18911 1.34914 0
M  V30 4025 H 379.3 -0.644443 0.357578 0
M  V30 4026 H 381.942 -1.2156 1.46024 0
M  V30 4027 H 380.092 -3.68586 1.22788 0
M  V30 4028 H 381.764 -2.78521 3.67728 0
M  V30 4029 H 380.007 -2.56351 3.49952 0
M  V30 4030 H 380.678 -4.19489 3.58794 0
M  V30 4031 H 383.154 -3.7967 1.70265 0
M  V30 4032 H 382.03 -5.17374 1.83346 0
M  V30 4033 H 382.291 -4.41262 0.272027 0
M  V30 4034 N 381.35 -0.985608 -1.22978 0
M  V30 4035 C 382.761 -0.693593 -1.73338 0
M  V30 4036 C 383.112 0.789935 -1.79595 0
M  V30 4037 O 382.237 1.61771 -1.43733 0
M  V30 4038 C 382.832 -1.25235 -3.14804 0
M  V30 4039 C 381.391 -1.00987 -3.626 0
M  V30 4040 C 380.538 -1.37695 -2.40698 0
M  V30 4041 H 383.489 -1.15884 -1.08428 0
M  V30 4042 H 383.51 -0.627329 -3.75293 0
M  V30 4043 H 383.022 -2.33209 -3.10218 0
M  V30 4044 H 381.123 0.0535565 -3.72562 0
M  V30 4045 H 381.236 -1.66812 -4.49122 0
M  V30 4046 H 379.6 -0.795459 -2.4196 0
M  V30 4047 H 380.383 -2.46657 -2.38779 0
M  V30 4048 N 382.828 1.3818 -0.7579 0
M  V30 4049 C 384.074 2.00316 -0.316453 0
M  V30 4050 C 384.407 1.60026 1.10025 0
M  V30 4051 O 383.682 0.839835 1.75434 0
M  V30 4052 C 383.965 3.57349 -0.444245 0
M  V30 4053 C 383.818 4.07591 -1.90236 0
M  V30 4054 C 385.137 4.3981 0.1598 0
M  V30 4055 H 382.256 0.727741 -0.116459 0
M  V30 4056 H 384.898 1.6406 -0.958352 0
M  V30 4057 H 383.048 3.88365 0.102233 0
M  V30 4058 H 384.72 3.87199 -2.50748 0
M  V30 4059 H 382.963 3.60297 -2.41595 0
M  V30 4060 H 383.634 5.16677 -1.94291 0
M  V30 4061 H 386.11 4.14971 -0.306314 0
M  V30 4062 H 384.986 5.48885 0.0401675 0
M  V30 4063 H 385.247 4.24102 1.24859 0
M  V30 4064 N 384.306 0.507319 1.49211 0
M  V30 4065 C 385.554 -0.0348839 2.0207 0
M  V30 4066 C 385.875 -1.36898 1.38866 0
M  V30 4067 O 385.145 -1.88133 0.546151 0
M  V30 4068 H 383.725 -0.0158812 0.746831 0
M  V30 4069 H 386.387 0.665998 1.83168 0
M  V30 4070 H 385.483 -0.159917 3.1169 0
M  V30 4071 N 385.784 -1.5574 0.241426 0
M  V30 4072 C 386.732 -2.22538 -0.676718 0
M  V30 4073 C 387.726 -1.21117 -1.18436 0
M  V30 4074 O 388.932 -1.39144 -1.14188 0
M  V30 4075 H 385.307 -0.713776 -0.236701 0
M  V30 4076 H 387.278 -2.98264 -0.0901187 0
M  V30 4077 C 386.027 -2.93439 -1.86518 0
M  V30 4078 H 385.35 -3.7125 -1.4837 0
M  V30 4079 H 386.79 -3.43549 -2.48495 0
M  V30 4080 C 385.249 -1.97008 -2.73294 0
M  V30 4081 O 385.779 -1.49965 -3.72657 0
M  V30 4082 N 383.985 -1.64227 -2.39745 0
M  V30 4083 H 383.532 -2.02677 -1.58996 0
M  V30 4084 H 383.49 -0.999708 -2.98083 0
M  V30 4085 N 387.262 0.0317525 -1.57568 0
M  V30 4086 C 388.511 0.722131 -1.8833 0
M  V30 4087 C 388.824 1.76664 -0.839587 0
M  V30 4088 O 390.03 2.50942 -1.03635 0
M  V30 4089 C 388.486 1.33544 -3.34207 0
M  V30 4090 C 388.094 0.327415 -4.46802 0
M  V30 4091 C 389.838 2.00585 -3.7412 0
M  V30 4092 C 387.745 0.948915 -5.83738 0
M  V30 4093 H 386.675 0.273466 -0.702661 0
M  V30 4094 H 389.326 -0.0235811 -1.83485 0
M  V30 4095 H 387.708 2.13077 -3.33788 0
M  V30 4096 H 388.882 -0.441006 -4.58685 0
M  V30 4097 H 387.197 -0.240758 -4.15703 0
M  V30 4098 H 389.794 2.47932 -4.73744 0
M  V30 4099 H 390.137 2.82285 -3.05975 0
M  V30 4100 H 390.67 1.27831 -3.76702 0
M  V30 4101 H 387.409 0.171387 -6.55276 0
M  V30 4102 H 386.929 1.68724 -5.7558 0
M  V30 4103 H 388.608 1.45705 -6.3038 0
M  V30 4104 N 388.74 1.54641 0.303973 0
M  V30 4105 C 389.97 1.77511 1.05705 0
M  V30 4106 C 390.378 0.533228 1.81531 0
M  V30 4107 O 389.721 -0.506423 1.76582 0
M  V30 4108 C 389.783 2.92779 2.08617 0
M  V30 4109 C 389.447 4.30977 1.52013 0
M  V30 4110 C 390.444 5.11115 0.9517 0
M  V30 4111 C 388.129 4.77571 1.55665 0
M  V30 4112 C 390.123 6.35966 0.427327 0
M  V30 4113 C 387.81 6.02384 1.02841 0
M  V30 4114 C 388.808 6.81417 0.464713 0
M  V30 4115 O 388.496 8.03881 -0.0555283 0
M  V30 4116 H 388.228 0.59579 0.319391 0
M  V30 4117 H 390.782 2.02401 0.349712 0
M  V30 4118 H 389.012 2.63506 2.83022 0
M  V30 4119 H 390.701 3.03252 2.69802 0
M  V30 4120 H 391.467 4.76264 0.916407 0
M  V30 4121 H 387.346 4.16085 1.9848 0
M  V30 4122 H 390.89 6.97599 -0.0133062 0
M  V30 4123 H 386.787 6.36723 1.06084 0
M  V30 4124 H 387.555 8.18479 0.0580522 0
M  V30 4125 N 390.218 -0.567019 1.47046 0
M  V30 4126 C 391.634 -0.891975 1.32348 0
M  V30 4127 C 391.834 -1.99154 0.306616 0
M  V30 4128 O 390.89 -2.50883 -0.28532 0
M  V30 4129 C 392.203 -1.29449 2.7141 0
M  V30 4130 C 393.751 -1.40646 2.79621 0
M  V30 4131 C 394.226 -1.84257 4.19301 0
M  V30 4132 N 395.717 -1.91424 4.21795 0
M  V30 4133 C 396.452 -2.26476 5.26779 0
M  V30 4134 N 395.948 -2.60211 6.42077 0
M  V30 4135 N 397.741 -2.27166 5.14152 0
M  V30 4136 H 389.892 0.159074 2.11803 0
M  V30 4137 H 392.155 0.00849752 0.947962 0
M  V30 4138 H 391.861 -0.560448 3.47206 0
M  V30 4139 H 391.735 -2.25273 3.02542 0
M  V30 4140 H 394.122 -2.13133 2.04104 0
M  V30 4141 H 394.203 -0.430339 2.52154 0
M  V30 4142 H 393.847 -1.12343 4.95319 0
M  V30 4143 H 393.777 -2.82855 4.44185 0
M  V30 4144 H 396.268 -1.6778 3.38612 0
M  V30 4145 H 396.581 -2.85956 7.17948 0
M  V30 4146 H 394.926 -2.57813 6.45413 0
M  V30 4147 H 398.117 -2.00244 4.23107 0
M  V30 4148 H 398.29 -2.54154 5.96079 0
M  V30 4149 N 391.696 -1.35014 -0.812953 0
M  V30 4150 C 393.112 -1.14914 -1.10757 0
M  V30 4151 C 393.312 0.0426818 -2.01455 0
M  V30 4152 O 392.368 0.715212 -2.42159 0
M  V30 4153 C 393.681 -2.44911 -1.74468 0
M  V30 4154 C 395.229 -2.5106 -1.86917 0
M  V30 4155 C 395.704 -3.81085 -2.54044 0
M  V30 4156 N 397.195 -3.82301 -2.61535 0
M  V30 4157 C 397.93 -4.79634 -3.14227 0
M  V30 4158 N 397.426 -5.87353 -3.67407 0
M  V30 4159 N 399.219 -4.67078 -3.12721 0
M  V30 4160 H 391.37 -2.1136 -0.20989 0
M  V30 4161 H 393.633 -0.935128 -0.155692 0
M  V30 4162 H 393.339 -3.32267 -1.15289 0
M  V30 4163 H 393.213 -2.58989 -2.74234 0
M  V30 4164 H 395.6 -1.64137 -2.45241 0
M  V30 4165 H 395.681 -2.40901 -0.860242 0
M  V30 4166 H 395.325 -4.68402 -1.96372 0
M  V30 4167 H 395.255 -3.88529 -3.55461 0
M  V30 4168 H 397.746 -3.04465 -2.23851 0
M  V30 4169 H 398.059 -6.57624 -4.05894 0
M  V30 4170 H 396.404 -5.91054 -3.65623 0
M  V30 4171 H 399.595 -3.82067 -2.70449 0
M  V30 4172 H 399.768 -5.43098 -3.53481 0
M  V30 4173 N 393.175 1.03435 -1.18907 0
M  V30 4174 C 394.421 1.7713 -0.99982 0
M  V30 4175 C 394.776 1.86695 0.465049 0
M  V30 4176 O 394.069 1.36866 1.34083 0
M  V30 4177 C 394.263 3.19792 -1.59586 0
M  V30 4178 C 394.092 3.24134 -3.11717 0
M  V30 4179 C 392.862 3.32398 -3.80578 0
M  V30 4180 C 395.06 3.11625 -4.09138 0
M  V30 4181 N 393.042 3.26055 -5.20155 0
M  V30 4182 C 394.413 3.12855 -5.35277 0
M  V30 4183 C 396.468 2.95713 -4.00572 0
M  V30 4184 C 395.171 2.99805 -6.53842 0
M  V30 4185 C 397.197 2.84011 -5.1874 0
M  V30 4186 C 396.559 2.8589 -6.43775 0
M  V30 4187 H 392.658 0.659683 -0.419931 0
M  V30 4188 H 395.242 1.2317 -1.50789 0
M  V30 4189 H 393.413 3.72085 -1.11389 0
M  V30 4190 H 395.145 3.81819 -1.3415 0
M  V30 4191 H 391.9 3.38392 -3.31342 0
M  V30 4192 H 392.324 3.26307 -5.93172 0
M  V30 4193 H 396.966 2.93086 -3.0473 0
M  V30 4194 H 394.684 3.01184 -7.49876 0
M  V30 4195 H 398.27 2.72744 -5.13909 0
M  V30 4196 H 397.15 2.76931 -7.33675 0
M  V30 4197 N 394.653 0.992116 1.22453 0
M  V30 4198 C 395.902 0.662992 1.90492 0
M  V30 4199 C 396.215 -0.808407 1.78113 0
M  V30 4200 O 397.421 -1.24908 2.41061 0
M  V30 4201 C 395.877 1.1353 3.41524 0
M  V30 4202 C 395.485 2.63187 3.62542 0
M  V30 4203 C 397.229 0.880465 4.15269 0
M  V30 4204 C 395.136 3.04024 5.0727 0
M  V30 4205 H 394.066 0.244278 0.713333 0
M  V30 4206 H 396.717 1.20157 1.38688 0
M  V30 4207 H 395.099 0.52485 3.92506 0
M  V30 4208 H 396.273 3.2957 3.22056 0
M  V30 4209 H 394.588 2.86543 3.02129 0
M  V30 4210 H 397.185 1.16128 5.21937 0
M  V30 4211 H 397.528 -0.183408 4.15896 0
M  V30 4212 H 398.061 1.45307 3.70312 0
M  V30 4213 H 394.8 4.09584 5.11782 0
M  V30 4214 H 394.32 2.42343 5.48662 0
M  V30 4215 H 395.999 2.95282 5.75689 0
M  V30 4216 N 396.131 -1.37776 0.765217 0
M  V30 4217 C 397.063 -2.28958 0.105361 0
M  V30 4218 C 398.076 -1.48316 -0.67128 0
M  V30 4219 O 399.265 -1.71046 -0.51045 0
M  V30 4220 C 396.365 -3.27421 -0.874569 0
M  V30 4221 C 395.538 -4.37132 -0.153123 0
M  V30 4222 C 394.597 -5.1571 -1.04547 0
M  V30 4223 O 393.623 -5.66896 -0.511672 0
M  V30 4224 N 394.825 -5.29808 -2.37243 0
M  V30 4225 H 397.59 -2.86227 0.888495 0
M  V30 4226 H 395.151 -1.49682 0.617 0
M  V30 4227 H 397.143 -3.7687 -1.47483 0
M  V30 4228 H 395.713 -2.70967 -1.55871 0
M  V30 4229 H 394.933 -3.89166 0.627975 0
M  V30 4230 H 396.221 -5.07625 0.345643 0
M  V30 4231 H 395.619 -4.89793 -2.83054 0
M  V30 4232 H 394.176 -5.82589 -2.9229 0
M  V30 4233 N 397.609 -0.515225 -1.4894 0
M  V30 4234 C 398.858 0.0261361 -2.01683 0
M  V30 4235 C 399.171 1.36719 -1.39883 0
M  V30 4236 O 400.377 1.99606 -1.84037 0
M  V30 4237 C 398.833 0.0970111 -3.59769 0
M  V30 4238 C 398.441 -1.23825 -4.30548 0
M  V30 4239 C 400.185 0.587981 -4.20408 0
M  V30 4240 C 398.092 -1.12877 -5.80528 0
M  V30 4241 H 397.022 0.0135398 -0.753878 0
M  V30 4242 H 399.673 -0.656787 -1.71343 0
M  V30 4243 H 398.055 0.844694 -3.86886 0
M  V30 4244 H 399.229 -2.00034 -4.15118 0
M  V30 4245 H 397.544 -1.66379 -3.81716 0
M  V30 4246 H 400.141 0.68763 -5.3026 0
M  V30 4247 H 400.484 1.59026 -3.84729 0
M  V30 4248 H 401.017 -0.103582 -3.97665 0
M  V30 4249 H 397.756 -2.10575 -6.20756 0
M  V30 4250 H 397.276 -0.407799 -5.98412 0
M  V30 4251 H 398.955 -0.813332 -6.41868 0
M  V30 4252 N 399.087 1.5561 -0.249682 0
M  V30 4253 C 400.335 1.98618 0.373548 0
M  V30 4254 C 400.656 1.13919 1.58264 0
M  V30 4255 O 399.926 0.222637 1.94631 0
M  V30 4256 H 398.506 0.733571 0.141006 0
M  V30 4257 H 401.168 1.91748 -0.349117 0
M  V30 4258 H 400.264 3.04584 0.680796 0
M  V30 4259 N 400.565 -0.0233959 1.57583 0
M  V30 4260 C 401.495 -1.02162 2.09965 0
M  V30 4261 C 402.476 -1.3735 1.00344 0
M  V30 4262 O 403.661 -1.46135 1.27899 0
M  V30 4263 C 400.791 -2.32081 2.58371 0
M  V30 4264 C 399.745 -2.1112 3.72307 0
M  V30 4265 C 399.071 -3.46848 4.06941 0
M  V30 4266 C 400.371 -1.49276 5.00514 0
M  V30 4267 H 402.065 -0.585557 2.93618 0
M  V30 4268 H 399.611 -0.280218 1.41247 0
M  V30 4269 H 401.564 -3.02249 2.93639 0
M  V30 4270 H 400.288 -2.77758 1.71808 0
M  V30 4271 H 398.947 -1.43384 3.37397 0
M  V30 4272 H 398.595 -3.90184 3.17436 0
M  V30 4273 H 398.295 -3.33646 4.83688 0
M  V30 4274 H 399.819 -4.18369 4.44747 0
M  V30 4275 H 401.233 -2.09368 5.33702 0
M  V30 4276 H 399.63 -1.46632 5.8191 0
M  V30 4277 H 400.7 -0.459217 4.82721 0
M  V30 4278 N 402.043 -1.548 -0.295768 0
M  V30 4279 C 402.975 -1.82492 -1.3867 0
M  V30 4280 C 403.988 -0.708134 -1.46592 0
M  V30 4281 O 405.177 -0.985686 -1.48817 0
M  V30 4282 C 402.277 -1.95256 -2.76999 0
M  V30 4283 C 401.45 -3.25709 -2.91946 0
M  V30 4284 C 400.509 -3.28824 -4.10806 0
M  V30 4285 O 399.535 -4.02328 -4.02643 0
M  V30 4286 N 400.737 -2.5459 -5.21694 0
M  V30 4287 H 403.502 -2.76646 -1.15269 0
M  V30 4288 H 401.063 -1.54438 -0.485849 0
M  V30 4289 H 403.055 -1.94736 -3.54768 0
M  V30 4290 H 401.625 -1.08072 -2.93324 0
M  V30 4291 H 400.845 -3.38959 -2.01247 0
M  V30 4292 H 402.133 -4.11786 -2.98847 0
M  V30 4293 H 401.531 -1.94512 -5.31208 0
M  V30 4294 H 400.088 -2.59818 -5.97778 0
M  V30 4295 N 403.521 0.559213 -1.47345 0
M  V30 4296 C 404.468 1.66645 -1.59682 0
M  V30 4297 C 405.438 1.60168 -0.43994 0
M  V30 4298 O 406.623 1.79031 -0.659736 0
M  V30 4299 C 403.763 3.04969 -1.61518 0
M  V30 4300 C 402.876 3.21897 -2.88108 0
M  V30 4301 C 402.011 4.50608 -2.81294 0
M  V30 4302 C 401.05 4.60961 -4.02717 0
M  V30 4303 N 400.187 5.81024 -3.94151 0
M  V30 4304 H 405.027 1.55439 -2.54249 0
M  V30 4305 H 402.564 0.757219 -1.26113 0
M  V30 4306 H 404.522 3.85064 -1.60566 0
M  V30 4307 H 403.152 3.15015 -0.704645 0
M  V30 4308 H 402.204 2.35248 -2.98936 0
M  V30 4309 H 403.516 3.25412 -3.78032 0
M  V30 4310 H 402.67 5.3896 -2.7858 0
M  V30 4311 H 401.409 4.49568 -1.89049 0
M  V30 4312 H 400.414 3.71021 -4.05738 0
M  V30 4313 H 401.639 4.63761 -4.96087 0
M  V30 4314 H 399.585 5.80938 -3.04708 0
M  V30 4315 H 399.502 5.85909 -4.77752 0
M  V30 4316 H 400.77 6.71744 -3.9545 0
M  V30 4317 N 404.999 1.35443 0.805782 0
M  V30 4318 C 406.239 1.30127 1.57627 0
M  V30 4319 C 406.603 -0.122567 1.91608 0
M  V30 4320 O 407.804 -0.300107 2.67119 0
M  V30 4321 C 406.075 2.18314 2.82973 0
M  V30 4322 S 407.634 2.30521 3.7337 0
M  V30 4323 H 404.452 0.462439 0.540066 0
M  V30 4324 H 407.054 1.70843 0.95042 0
M  V30 4325 H 405.758 3.20741 2.56034 0
M  V30 4326 H 405.289 1.78558 3.50543 0
M  V30 4327 H 407.304 1.49062 4.73281 0
M  V30 4328 N 406.477 -1.02803 1.19454 0
M  V30 4329 C 407.723 -1.76478 0.999171 0
M  V30 4330 C 408.056 -1.88456 -0.468828 0
M  V30 4331 O 407.331 -1.40198 -1.34814 0
M  V30 4332 C 407.614 -3.19044 1.66981 0
M  V30 4333 C 407.467 -3.14932 3.21151 0
M  V30 4334 C 408.786 -4.17456 1.39349 0
M  V30 4335 H 405.905 -0.640614 0.364393 0
M  V30 4336 H 408.547 -1.20005 1.47305 0
M  V30 4337 H 406.697 -3.67263 1.2669 0
M  V30 4338 H 408.369 -2.74605 3.70661 0
M  V30 4339 H 406.612 -2.52625 3.52652 0
M  V30 4340 H 407.283 -4.1566 3.63223 0
M  V30 4341 H 409.759 -3.77842 1.74283 0
M  V30 4342 H 408.635 -5.154 1.88823 0
M  V30 4343 H 408.896 -4.40949 0.318813 0
M  V30 4344 N 407.956 -0.998596 -1.21925 0
M  V30 4345 C 409.372 -0.710303 -1.42923 0
M  V30 4346 C 409.572 0.716933 -1.88314 0
M  V30 4347 O 408.628 1.48712 -2.04062 0
M  V30 4348 C 409.941 -1.72072 -2.466 0
M  V30 4349 C 411.489 -1.73681 -2.60392 0
M  V30 4350 C 411.964 -2.73601 -3.67296 0
M  V30 4351 N 413.455 -2.7223 -3.7476 0
M  V30 4352 C 414.19 -3.46206 -4.57087 0
M  V30 4353 N 413.686 -4.29802 -5.43362 0
M  V30 4354 N 415.479 -3.34886 -4.51451 0
M  V30 4355 H 407.63 -1.92028 -0.9077 0
M  V30 4356 H 409.893 -0.828487 -0.460775 0
M  V30 4357 H 409.599 -2.74231 -2.20206 0
M  V30 4358 H 409.473 -1.51818 -3.45299 0
M  V30 4359 H 411.86 -0.722173 -2.86127 0
M  V30 4360 H 411.941 -1.98005 -1.61949 0
M  V30 4361 H 411.585 -3.75217 -3.42307 0
M  V30 4362 H 411.515 -2.46545 -4.65321 0
M  V30 4363 H 414.006 -2.11576 -3.1312 0
M  V30 4364 H 414.319 -4.83061 -6.03218 0
M  V30 4365 H 412.664 -4.33887 -5.42925 0
M  V30 4366 H 415.855 -2.69015 -3.83078 0
M  V30 4367 H 416.028 -3.92796 -5.15379 0
M  V30 4368 N 409.434 1.37368 -0.772513 0
M  V30 4369 C 410.367 2.27956 -0.105593 0
M  V30 4370 C 411.345 1.46362 0.708295 0
M  V30 4371 O 412.529 1.75695 0.682895 0
M  V30 4372 C 409.656 3.27687 0.856686 0
M  V30 4373 C 408.702 4.26312 0.1267 0
M  V30 4374 S 409.535 5.22206 -1.1858 0
M  V30 4375 C 410.691 6.25488 -0.227081 0
M  V30 4376 H 410.924 2.84171 -0.87372 0
M  V30 4377 H 408.457 1.43654 -0.565939 0
M  V30 4378 H 410.415 3.85653 1.40648 0
M  V30 4379 H 409.076 2.70417 1.59793 0
M  V30 4380 H 408.269 4.96674 0.856212 0
M  V30 4381 H 407.871 3.72339 -0.352117 0
M  V30 4382 H 410.163 6.74836 0.600231 0
M  V30 4383 H 411.106 7.02371 -0.898899 0
M  V30 4384 H 411.514 5.64267 0.162053 0
M  V30 4385 N 410.912 0.523116 1.48665 0
M  V30 4386 C 412.142 -0.00961724 2.06598 0
M  V30 4387 C 412.55 -1.29333 1.38093 0
M  V30 4388 O 411.893 -1.77846 0.46007 0
M  V30 4389 C 411.955 -0.311135 3.58151 0
M  V30 4390 C 411.619 0.878092 4.48485 0
M  V30 4391 C 412.616 1.77464 4.88674 0
M  V30 4392 C 410.301 1.08315 4.90483 0
M  V30 4393 C 412.295 2.86021 5.69623 0
M  V30 4394 C 409.982 2.17187 5.71203 0
M  V30 4395 C 410.98 3.05873 6.10681 0
M  V30 4396 O 410.668 4.12862 6.89783 0
M  V30 4397 H 410.4 0.0272658 0.67545 0
M  V30 4398 H 412.954 0.726156 1.92136 0
M  V30 4399 H 411.184 -1.10079 3.70701 0
M  V30 4400 H 412.873 -0.785125 3.98234 0
M  V30 4401 H 413.639 1.62813 4.56855 0
M  V30 4402 H 409.518 0.402149 4.59243 0
M  V30 4403 H 413.062 3.55272 6.00356 0
M  V30 4404 H 408.959 2.31824 6.02435 0
M  V30 4405 H 409.727 4.10487 7.08126 0
M  V30 4406 N 412.39 -1.55475 0.257931 0
M  V30 4407 C 413.338 -2.23244 -0.653076 0
M  V30 4408 C 414.332 -1.22366 -1.17144 0
M  V30 4409 O 415.538 -1.40347 -1.12706 0
M  V30 4410 H 411.913 -0.716247 -0.229117 0
M  V30 4411 H 413.884 -2.98343 -0.0584788 0
M  V30 4412 C 412.633 -2.95401 -1.83395 0
M  V30 4413 H 411.956 -3.72802 -1.44424 0
M  V30 4414 H 413.396 -3.46165 -2.44838 0
M  V30 4415 C 411.855 -1.99895 -2.71189 0
M  V30 4416 O 412.385 -1.53909 -3.71046 0
M  V30 4417 N 410.591 -1.6676 -2.3799 0
M  V30 4418 H 410.138 -2.04352 -1.56837 0
M  V30 4419 H 410.096 -1.03127 -2.97005 0
M  V30 4420 N 413.868 0.0150385 -1.57593 0
M  V30 4421 C 415.279 0.559832 -1.78109 0
M  V30 4422 C 415.63 1.74814 -0.890756 0
M  V30 4423 O 414.755 2.16216 -0.0892482 0
M  V30 4424 C 415.35 1.02238 -3.23006 0
M  V30 4425 C 413.909 1.51258 -3.44671 0
M  V30 4426 C 413.056 0.456955 -2.73509 0
M  V30 4427 H 416.007 -0.211169 -1.57289 0
M  V30 4428 H 416.028 1.88912 -3.30292 0
M  V30 4429 H 415.54 0.157302 -3.87781 0
M  V30 4430 H 413.641 2.39905 -2.8509 0
M  V30 4431 H 413.754 1.55042 -4.5332 0
M  V30 4432 H 412.118 0.915196 -2.37689 0
M  V30 4433 H 412.901 -0.398896 -3.40975 0
M  V30 4434 N 415.346 1.54954 0.287554 0
M  V30 4435 C 416.574 1.78881 1.03967 0
M  V30 4436 C 416.989 0.554894 1.80462 0
M  V30 4437 O 416.346 -0.475676 1.76192 0
M  V30 4438 C 416.397 3.00488 2.0097 0
M  V30 4439 O 416.118 4.19113 1.27577 0
M  V30 4440 C 417.619 3.36907 2.88112 0
M  V30 4441 H 414.839 0.596259 0.307761 0
M  V30 4442 H 417.383 2.01937 0.322749 0
M  V30 4443 H 415.538 2.79601 2.68145 0
M  V30 4444 H 415.952 4.87765 1.92835 0
M  V30 4445 H 417.426 4.25205 3.52001 0
M  V30 4446 H 417.903 2.55659 3.57121 0
M  V30 4447 H 418.509 3.60001 2.26449 0
M  V30 4448 N 416.824 -0.551391 1.4764 0
M  V30 4449 C 417.772 -1.67896 1.60978 0
M  V30 4450 C 418.766 -1.62549 0.476877 0
M  V30 4451 O 419.972 -1.67664 0.654878 0
M  V30 4452 H 416.347 -0.555649 0.506713 0
M  V30 4453 H 418.318 -1.53784 2.55721 0
M  V30 4454 C 417.067 -3.06234 1.64669 0
M  V30 4455 H 416.39 -3.11033 2.51194 0
M  V30 4456 H 417.83 -3.84804 1.7805 0
M  V30 4457 C 416.289 -3.34737 0.381115 0
M  V30 4458 O 416.819 -3.98381 -0.515297 0
M  V30 4459 N 415.025 -2.8944 0.259354 0
M  V30 4460 H 414.572 -2.37827 0.98976 0
M  V30 4461 H 414.53 -3.08882 -0.586464 0
M  V30 4462 N 418.302 -1.35869 -0.798587 0
M  V30 4463 C 419.551 -1.28921 -1.5512 0
M  V30 4464 C 419.864 0.13208 -1.95154 0
M  V30 4465 O 421.07 0.323879 -2.69561 0
M  V30 4466 C 419.526 -2.26141 -2.79979 0
M  V30 4467 C 419.134 -3.73658 -2.47151 0
M  V30 4468 C 420.878 -2.28152 -3.57976 0
M  V30 4469 C 418.785 -4.62679 -3.6835 0
M  V30 4470 H 417.715 -0.479031 -0.582276 0
M  V30 4471 H 420.366 -1.61179 -0.877125 0
M  V30 4472 H 418.748 -1.86865 -3.49138 0
M  V30 4473 H 419.922 -4.21616 -1.85947 0
M  V30 4474 H 418.237 -3.74333 -1.82383 0
M  V30 4475 H 420.834 -2.91875 -4.4801 0
M  V30 4476 H 421.177 -1.28748 -3.95891 0
M  V30 4477 H 421.71 -2.65998 -2.95787 0
M  V30 4478 H 418.449 -5.63111 -3.35538 0
M  V30 4479 H 417.969 -4.19442 -4.28752 0
M  V30 4480 H 419.648 -4.78498 -4.35487 0
M  V30 4481 N 419.78 1.02168 -1.19998 0
M  V30 4482 C 420.71 2.12488 -0.96804 0
M  V30 4483 C 421.691 1.69799 0.101185 0
M  V30 4484 O 422.876 1.94121 -0.0552993 0
M  V30 4485 C 420.006 3.43479 -0.513776 0
M  V30 4486 C 418.96 3.99884 -1.52566 0
M  V30 4487 C 418.286 5.26582 -0.928214 0
M  V30 4488 C 419.586 4.33861 -2.90795 0
M  V30 4489 H 421.28 2.32149 -1.89069 0
M  V30 4490 H 418.826 1.11564 -0.910468 0
M  V30 4491 H 420.779 4.20036 -0.338774 0
M  V30 4492 H 419.503 3.23561 0.444493 0
M  V30 4493 H 418.162 3.25429 -1.68794 0
M  V30 4494 H 417.81 5.02986 0.0378289 0
M  V30 4495 H 417.51 5.65284 -1.60397 0
M  V30 4496 H 419.034 6.05799 -0.764167 0
M  V30 4497 H 420.448 5.01327 -2.78109 0
M  V30 4498 H 418.845 4.83664 -3.55231 0
M  V30 4499 H 419.915 3.42848 -3.42904 0
M  V30 4500 N 421.258 1.00505 1.21394 0
M  V30 4501 C 422.535 0.603277 1.86064 0
M  V30 4502 C 422.915 -0.919095 1.90042 0
M  V30 4503 O 422.263 -1.80607 1.39977 0
M  V30 4504 C 422.473 1.23772 3.26315 0
M  V30 4505 C 423.821 1.34586 4.02705 0
M  V30 4506 O 424.845 1.19304 3.35626 0
M  V30 4507 O 423.704 1.59169 5.22807 0
M  V30 4508 H 420.798 0.206634 0.800769 0
M  V30 4509 H 423.344 1.1017 1.29076 0
M  V30 4510 H 422.116 2.27848 3.18121 0
M  V30 4511 H 421.739 0.725648 3.90922 0
M  V30 4512 N 422.737 -1.36956 0.779787 0
M  V30 4513 C 423.986 -1.98738 0.344405 0
M  V30 4514 C 424.299 -1.62596 -1.08728 0
M  V30 4515 O 425.505 -2.1754 -1.62445 0
M  V30 4516 C 423.961 -3.5544 0.564829 0
M  V30 4517 C 423.569 -4.00514 2.0073 0
M  V30 4518 C 425.313 -4.24059 0.193471 0
M  V30 4519 C 423.22 -5.49957 2.17489 0
M  V30 4520 H 422.15 -0.743561 0.12503 0
M  V30 4521 H 424.801 -1.56381 0.960057 0
M  V30 4522 H 423.183 -3.95817 -0.120397 0
M  V30 4523 H 424.357 -3.71362 2.72814 0
M  V30 4524 H 422.672 -3.44703 2.336 0
M  V30 4525 H 425.269 -5.33874 0.297097 0
M  V30 4526 H 425.612 -4.07378 -0.857263 0
M  V30 4527 H 426.145 -3.89012 0.831556 0
M  V30 4528 H 422.884 -5.71574 3.2091 0
M  V30 4529 H 422.404 -5.80767 1.49899 0
M  V30 4530 H 424.083 -6.16043 1.97738 0
M  V30 4531 N 424.215 -0.530993 -1.48385 0
M  V30 4532 C 425.162 0.231223 -2.29639 0
M  V30 4533 C 426.132 0.932864 -1.37429 0
M  V30 4534 O 427.317 0.933692 -1.66394 0
M  V30 4535 C 424.457 1.27155 -3.2082 0
M  V30 4536 C 423.57 0.578655 -4.28107 0
M  V30 4537 C 422.705 1.602 -5.06467 0
M  V30 4538 C 421.744 0.892625 -6.05556 0
M  V30 4539 N 420.881 1.86157 -6.76971 0
M  V30 4540 H 425.721 -0.467848 -2.94305 0
M  V30 4541 H 423.258 -0.242556 -1.45086 0
M  V30 4542 H 425.216 1.88703 -3.72085 0
M  V30 4543 H 423.846 1.939 -2.58075 0
M  V30 4544 H 422.898 -0.150782 -3.80101 0
M  V30 4545 H 424.21 0.0217065 -4.98795 0
M  V30 4546 H 423.364 2.29173 -5.61751 0
M  V30 4547 H 422.103 2.19285 -4.35621 0
M  V30 4548 H 421.108 0.188829 -5.49476 0
M  V30 4549 H 422.333 0.307878 -6.78402 0
M  V30 4550 H 420.279 2.44147 -6.08875 0
M  V30 4551 H 420.196 1.35608 -7.43738 0
M  V30 4552 H 421.464 2.54325 -7.36844 0
M  V30 4553 N 425.693 1.55336 -0.266172 0
M  V30 4554 C 426.625 2.19544 0.658247 0
M  V30 4555 C 427.638 1.17746 1.12427 0
M  V30 4556 O 428.827 1.44517 1.04772 0
M  V30 4557 C 425.927 2.80032 1.9088 0
M  V30 4558 C 425.1 4.07436 1.59106 0
M  V30 4559 C 424.159 4.52056 2.69317 0
M  V30 4560 O 423.185 5.18023 2.35883 0
M  V30 4561 N 424.387 4.21448 3.99201 0
M  V30 4562 H 427.152 2.99503 0.108754 0
M  V30 4563 H 424.713 1.61667 -0.0869059 0
M  V30 4564 H 426.705 3.06831 2.63888 0
M  V30 4565 H 425.275 2.04119 2.36758 0
M  V30 4566 H 424.495 3.88021 0.695243 0
M  V30 4567 H 425.783 4.90462 1.35367 0
M  V30 4568 H 425.181 3.68528 4.29189 0
M  V30 4569 H 423.738 4.53039 4.68614 0
M  V30 4570 N 427.171 -0.0066808 1.57599 0
M  V30 4571 C 428.419 -0.691552 1.899 0
M  V30 4572 C 428.74 -1.74682 0.866672 0
M  V30 4573 O 428.01 -1.95661 -0.0968189 0
M  V30 4574 H 426.59 -0.258416 0.700878 0
M  V30 4575 H 429.252 0.0326655 1.94873 0
M  V30 4576 H 428.348 -1.16702 2.8946 0
M  V30 4577 N 428.649 -1.55105 -0.279332 0
M  V30 4578 C 430.06 -1.66186 -0.850832 0
M  V30 4579 C 430.411 -0.584707 -1.87285 0
M  V30 4580 O 429.536 0.274919 -2.14647 0
M  V30 4581 C 430.131 -3.01264 -1.55001 0
M  V30 4582 C 428.69 -3.14394 -2.06963 0
M  V30 4583 C 427.837 -2.61959 -0.909536 0
M  V30 4584 H 430.788 -1.58602 -0.0558235 0
M  V30 4585 H 430.809 -2.93899 -2.41669 0
M  V30 4586 H 430.321 -3.7964 -0.805931 0
M  V30 4587 H 428.422 -2.4078 -2.84352 0
M  V30 4588 H 428.535 -4.20867 -2.28928 0
M  V30 4589 H 426.899 -2.18957 -1.30116 0
M  V30 4590 H 427.682 -3.42833 -0.179062 0
M  V30 4591 N 430.127 0.543554 -1.4793 0
M  V30 4592 C 431.074 1.64942 -1.6144 0
M  V30 4593 C 432.044 1.59692 -0.456903 0
M  V30 4594 O 433.229 1.78321 -0.678688 0
M  V30 4595 C 430.369 3.03238 -1.64744 0
M  V30 4596 C 429.482 3.18823 -2.91506 0
M  V30 4597 C 428.617 4.47599 -2.86057 0
M  V30 4598 C 427.656 4.56664 -4.07584 0
M  V30 4599 N 426.793 5.76811 -4.00292 0
M  V30 4600 H 431.633 1.52733 -2.55884 0
M  V30 4601 H 429.17 0.7438 -1.2691 0
M  V30 4602 H 431.128 3.83339 -1.64641 0
M  V30 4603 H 429.758 3.1425 -0.738017 0
M  V30 4604 H 428.81 2.32064 -3.01414 0
M  V30 4605 H 430.122 3.21384 -3.81463 0
M  V30 4606 H 429.276 5.35975 -2.84281 0
M  V30 4607 H 428.015 4.47538 -1.93807 0
M  V30 4608 H 427.02 3.66697 -4.09651 0
M  V30 4609 H 428.245 4.58474 -5.00978 0
M  V30 4610 H 426.191 5.77673 -3.10853 0
M  V30 4611 H 426.108 5.80808 -4.8394 0
M  V30 4612 H 427.376 6.67512 -4.02553 0
M  V30 4613 N 431.605 1.3629 0.791371 0
M  V30 4614 C 432.515 1.32606 1.93527 0
M  V30 4615 C 433.531 0.228541 1.72493 0
M  V30 4616 O 434.707 0.460571 1.96063 0
M  V30 4617 C 431.772 1.11271 3.28359 0
M  V30 4618 C 430.833 2.3048 3.62185 0
M  V30 4619 C 430.066 2.10154 4.90583 0
M  V30 4620 O 430.289 1.07572 5.60165 0
M  V30 4621 O 429.223 2.97884 5.23019 0
M  V30 4622 H 433.049 2.28909 1.99585 0
M  V30 4623 H 430.634 1.16818 0.931344 0
M  V30 4624 H 432.516 1.01283 4.09047 0
M  V30 4625 H 431.191 0.180292 3.23198 0
M  V30 4626 H 430.098 2.46036 2.81811 0
M  V30 4627 H 431.431 3.22221 3.72068 0
M  V30 4628 N 433.083 -1.0153 1.20538 0
M  V30 4629 C 434.494 -1.56598 1.01657 0
M  V30 4630 C 434.845 -1.91505 -0.426668 0
M  V30 4631 O 433.97 -1.72375 -1.30827 0
M  V30 4632 C 434.565 -2.84542 1.83905 0
M  V30 4633 C 433.124 -3.36133 1.69386 0
M  V30 4634 C 432.271 -2.09427 1.81757 0
M  V30 4635 H 435.222 -0.838974 1.34711 0
M  V30 4636 H 435.243 -3.56004 1.34319 0
M  V30 4637 H 434.755 -2.59105 2.8894 0
M  V30 4638 H 432.856 -3.66528 0.669933 0
M  V30 4639 H 432.969 -4.08248 2.50739 0
M  V30 4640 H 431.333 -2.21941 1.24957 0
M  V30 4641 H 432.116 -1.86414 2.88279 0
M  V30 4642 N 434.561 -1.01147 -1.20859 0
M  V30 4643 C 435.808 -0.697865 -1.90095 0
M  V30 4644 C 436.136 0.772014 -1.78522 0
M  V30 4645 O 435.391 1.57595 -1.16027 0
M  V30 4646 C 435.69 -1.0727 -3.40922 0
M  V30 4647 C 435.356 -2.53792 -3.72693 0
M  V30 4648 C 434.018 -2.93829 -3.81075 0
M  V30 4649 C 436.37 -3.48674 -3.87397 0
M  V30 4650 C 433.698 -4.27696 -4.01613 0
M  V30 4651 C 436.05 -4.82223 -4.09444 0
M  V30 4652 C 434.714 -5.21973 -4.16054 0
M  V30 4653 H 433.984 -0.255367 -0.695607 0
M  V30 4654 H 436.631 -1.27111 -1.43231 0
M  V30 4655 H 434.936 -0.417799 -3.89566 0
M  V30 4656 H 436.633 -0.807818 -3.92779 0
M  V30 4657 H 433.223 -2.21768 -3.66765 0
M  V30 4658 H 437.407 -3.18904 -3.80281 0
M  V30 4659 H 432.663 -4.58055 -4.04964 0
M  V30 4660 H 436.837 -5.55672 -4.19763 0
M  V30 4661 H 434.464 -6.25717 -4.31721 0
M  V30 4662 N 436.039 1.36541 -0.78704 0
M  V30 4663 C 436.971 2.28761 -0.141773 0
M  V30 4664 C 437.984 1.49365 0.647599 0
M  V30 4665 O 439.173 1.71836 0.483173 0
M  V30 4666 C 436.273 3.28771 0.822368 0
M  V30 4667 C 435.446 4.3732 0.0835594 0
M  V30 4668 C 434.505 5.17307 0.963296 0
M  V30 4669 O 433.531 5.67638 0.421419 0
M  V30 4670 N 434.733 5.33515 2.28784 0
M  V30 4671 H 437.498 2.84777 -0.933919 0
M  V30 4672 H 435.059 1.48682 -0.640735 0
M  V30 4673 H 437.051 3.79169 1.41468 0
M  V30 4674 H 435.621 2.73412 1.5154 0
M  V30 4675 H 434.841 3.88118 -0.689809 0
M  V30 4676 H 436.129 5.0701 -0.426358 0
M  V30 4677 H 435.527 4.94234 2.75226 0
M  V30 4678 H 434.084 5.87165 2.82985 0
M  V30 4679 N 437.518 0.538854 1.48102 0
M  V30 4680 C 438.743 0.0102694 2.07397 0
M  V30 4681 C 439.168 -1.26562 1.39153 0
M  V30 4682 O 438.526 -1.75357 0.460387 0
M  V30 4683 C 438.574 -0.187602 3.60112 0
M  V30 4684 O 437.678 -1.25432 3.92862 0
M  V30 4685 H 437.019 0.0430975 0.6626 0
M  V30 4686 H 439.549 0.749301 1.90385 0
M  V30 4687 H 439.559 -0.407517 4.0596 0
M  V30 4688 H 438.234 0.744386 4.09184 0
M  V30 4689 H 436.811 -1.01636 3.58782 0
M  V30 4690 N 438.996 -1.55193 0.274407 0
M  V30 4691 C 440.226 -2.03692 -0.345442 0
M  V30 4692 C 440.634 -1.15224 -1.50067 0
M  V30 4693 O 439.977 -0.164749 -1.8296 0
M  V30 4694 C 440.039 -3.48325 -0.88939 0
M  V30 4695 C 439.703 -4.56794 0.137115 0
M  V30 4696 C 440.7 -5.11028 0.956378 0
M  V30 4697 C 438.385 -5.01568 0.27115 0
M  V30 4698 C 440.379 -6.08552 1.89587 0
M  V30 4699 C 438.066 -5.98918 1.21412 0
M  V30 4700 C 439.064 -6.52291 2.02498 0
M  V30 4701 O 438.752 -7.47738 2.952 0
M  V30 4702 H 438.484 -0.670893 -0.0829332 0
M  V30 4703 H 441.038 -2.01387 0.404056 0
M  V30 4704 H 439.268 -3.47867 -1.68895 0
M  V30 4705 H 440.957 -3.80167 -1.42225 0
M  V30 4706 H 441.723 -4.7725 0.863559 0
M  V30 4707 H 437.602 -4.5967 -0.349987 0
M  V30 4708 H 441.146 -6.50137 2.52918 0
M  V30 4709 H 437.043 -6.32114 1.30776 0
M  V30 4710 H 437.811 -7.65451 2.89874 0
M  V30 4711 N 440.474 -0.00167713 -1.576 0
M  V30 4712 C 441.72 0.683832 -1.90923 0
M  V30 4713 C 442.053 1.7333 -0.875799 0
M  V30 4714 O 441.328 1.94215 0.10525 0
M  V30 4715 C 441.611 1.32543 -3.3482 0
M  V30 4716 C 441.464 0.287387 -4.48881 0
M  V30 4717 C 442.783 2.25114 -3.78169 0
M  V30 4718 H 439.902 0.247125 -0.694333 0
M  V30 4719 H 442.544 -0.0533149 -1.89925 0
M  V30 4720 H 440.694 1.95372 -3.35801 0
M  V30 4721 H 442.366 -0.341346 -4.60035 0
M  V30 4722 H 440.609 -0.39017 -4.32042 0
M  V30 4723 H 441.28 0.775393 -5.46527 0
M  V30 4724 H 443.756 1.723 -3.7875 0
M  V30 4725 H 442.632 2.66971 -4.79602 0
M  V30 4726 H 442.893 3.13092 -3.12131 0
M  V30 4727 N 441.952 1.55251 0.271103 0
M  V30 4728 C 443.229 1.66664 1.02384 0
M  V30 4729 C 443.609 0.534363 2.04225 0
M  V30 4730 O 442.957 -0.465337 2.23712 0
M  V30 4731 C 443.167 3.05961 1.67895 0
M  V30 4732 C 444.515 3.63772 2.18986 0
M  V30 4733 O 445.539 3.08606 1.77878 0
M  V30 4734 O 444.398 4.60429 2.94393 0
M  V30 4735 H 441.492 0.676957 0.475035 0
M  V30 4736 H 444.038 1.67589 0.26681 0
M  V30 4737 H 442.81 3.79815 0.941071 0
M  V30 4738 H 442.433 3.08943 2.5028 0
M  V30 4739 N 443.43 -0.535701 1.48216 0
M  V30 4740 C 444.846 -0.863701 1.3421 0
M  V30 4741 C 445.046 -1.98458 0.34879 0
M  V30 4742 O 444.102 -2.51432 -0.23204 0
M  V30 4743 C 445.415 -1.23662 2.74095 0
M  V30 4744 C 446.963 -1.34683 2.82541 0
M  V30 4745 C 447.438 -1.75322 4.23115 0
M  V30 4746 N 448.929 -1.82434 4.2576 0
M  V30 4747 C 449.664 -2.15252 5.31464 0
M  V30 4748 N 449.16 -2.46533 6.47452 0
M  V30 4749 N 450.953 -2.16209 5.18855 0
M  V30 4750 H 443.104 0.203965 2.11418 0
M  V30 4751 H 445.367 0.0286033 0.947568 0
M  V30 4752 H 445.073 -0.486674 3.48316 0
M  V30 4753 H 444.947 -2.18805 3.07253 0
M  V30 4754 H 447.334 -2.08756 2.08579 0
M  V30 4755 H 447.415 -0.376756 2.5301 0
M  V30 4756 H 447.059 -1.01812 4.97591 0
M  V30 4757 H 446.989 -2.7337 4.50085 0
M  V30 4758 H 449.48 -1.6056 3.42095 0
M  V30 4759 H 449.793 -2.70662 7.23852 0
M  V30 4760 H 448.138 -2.44065 6.50736 0
M  V30 4761 H 451.329 -1.91224 4.2726 0
M  V30 4762 H 451.502 -2.41453 6.01335 0
M  V30 4763 N 444.908 -1.36708 -0.784132 0
M  V30 4764 C 446.155 -1.31231 -1.54222 0
M  V30 4765 C 446.483 0.106864 -1.94206 0
M  V30 4766 O 445.738 1.07734 -1.63376 0
M  V30 4767 C 446.037 -2.18571 -2.82774 0
M  V30 4768 C 445.703 -3.67039 -2.61903 0
M  V30 4769 C 444.365 -4.07503 -2.55919 0
M  V30 4770 C 446.717 -4.61149 -2.4288 0
M  V30 4771 C 444.045 -5.40211 -2.28886 0
M  V30 4772 C 446.397 -5.94081 -2.17373 0
M  V30 4773 C 445.061 -6.33664 -2.09825 0
M  V30 4774 H 444.331 -0.48021 -0.56434 0
M  V30 4775 H 446.978 -1.68807 -0.904233 0
M  V30 4776 H 445.283 -1.73949 -3.51068 0
M  V30 4777 H 446.98 -2.11655 -3.40592 0
M  V30 4778 H 443.57 -3.34941 -2.67418 0
M  V30 4779 H 447.754 -4.30756 -2.46501 0
M  V30 4780 H 443.01 -5.69855 -2.21529 0
M  V30 4781 H 447.184 -6.66566 -2.01649 0
M  V30 4782 H 444.811 -7.36423 -1.88641 0
M  V30 4783 N 446.386 1.0089 -1.21074 0
M  V30 4784 C 447.616 1.77933 -1.04993 0
M  V30 4785 C 448.024 1.84847 0.403495 0
M  V30 4786 O 447.367 1.30606 1.29181 0
M  V30 4787 C 447.429 3.23541 -1.56722 0
M  V30 4788 C 447.093 3.40214 -3.05129 0
M  V30 4789 C 448.09 3.2881 -4.02716 0
M  V30 4790 C 445.775 3.65781 -3.44252 0
M  V30 4791 C 447.769 3.42732 -5.37414 0
M  V30 4792 C 445.456 3.79346 -4.79103 0
M  V30 4793 C 446.454 3.67827 -5.75493 0
M  V30 4794 O 446.142 3.80965 -7.07899 0
M  V30 4795 H 445.874 0.566157 -0.369381 0
M  V30 4796 H 448.428 1.27826 -1.60779 0
M  V30 4797 H 446.658 3.74766 -0.953285 0
M  V30 4798 H 448.347 3.82245 -1.36543 0
M  V30 4799 H 449.113 3.08986 -3.73835 0
M  V30 4800 H 444.992 3.73831 -2.69762 0
M  V30 4801 H 448.536 3.33658 -6.12632 0
M  V30 4802 H 444.433 3.98672 -5.07672 0
M  V30 4803 H 445.201 3.97937 -7.15254 0
M  V30 4804 N 447.864 1.01787 1.20321 0
M  V30 4805 C 448.811 0.589197 2.23153 0
M  V30 4806 C 449.781 -0.391367 1.61423 0
M  V30 4807 O 450.966 -0.290518 1.88575 0
M  V30 4808 C 448.106 -0.0650747 3.45039 0
M  V30 4809 C 447.219 0.960207 4.21194 0
M  V30 4810 C 446.354 0.276854 5.30478 0
M  V30 4811 C 445.393 1.2888 5.98378 0
M  V30 4812 N 444.53 0.632031 6.99249 0
M  V30 4813 H 449.37 1.47071 2.59179 0
M  V30 4814 H 446.907 0.736192 1.27352 0
M  V30 4815 H 448.865 -0.461552 4.14639 0
M  V30 4816 H 447.495 -0.910233 3.09701 0
M  V30 4817 H 446.547 1.47484 3.50646 0
M  V30 4818 H 447.859 1.72977 4.67847 0
M  V30 4819 H 447.013 -0.175056 6.06447 0
M  V30 4820 H 445.752 -0.525004 4.84866 0
M  V30 4821 H 444.757 1.75109 5.21169 0
M  V30 4822 H 445.982 2.09196 6.46076 0
M  V30 4823 H 443.928 -0.149935 6.55829 0
M  V30 4824 H 443.845 1.33964 7.44036 0
M  V30 4825 H 445.113 0.203755 7.79234 0
M  V30 4826 N 449.342 -1.36122 0.79427 0
M  V30 4827 C 450.567 -2.03891 0.379871 0
M  V30 4828 C 450.992 -1.59488 -0.997251 0
M  V30 4829 O 450.35 -0.765652 -1.64339 0
M  V30 4830 C 450.398 -3.57687 0.457442 0
M  V30 4831 O 449.502 -4.08931 -0.5338 0
M  V30 4832 H 448.843 -0.6443 0.160541 0
M  V30 4833 H 451.373 -1.73976 1.07673 0
M  V30 4834 H 451.383 -4.06721 0.322792 0
M  V30 4835 H 450.058 -3.89357 1.46199 0
M  V30 4836 H 448.635 -3.71154 -0.360409 0
M  V30 4837 N 450.82 -0.546701 -1.47814 0
M  V30 4838 C 451.75 0.195317 -2.32682 0
M  V30 4839 C 452.731 0.918981 -1.43139 0
M  V30 4840 O 453.916 0.901501 -1.72008 0
M  V30 4841 C 451.046 1.23237 -3.247 0
M  V30 4842 C 450 0.625818 -4.234 0
M  V30 4843 C 449.326 1.76674 -5.04669 0
M  V30 4844 C 450.626 -0.413515 -5.2066 0
M  V30 4845 H 452.32 -0.513184 -2.94969 0
M  V30 4846 H 449.866 -0.248241 -1.41844 0
M  V30 4847 H 451.819 1.75955 -3.82907 0
M  V30 4848 H 450.543 1.97067 -2.60446 0
M  V30 4849 H 449.202 0.120023 -3.66403 0
M  V30 4850 H 448.85 2.49383 -4.36826 0
M  V30 4851 H 448.55 1.36673 -5.71484 0
M  V30 4852 H 450.074 2.29738 -5.65732 0
M  V30 4853 H 451.488 0.0272042 -5.73294 0
M  V30 4854 H 449.885 -0.731825 -5.95621 0
M  V30 4855 H 450.955 -1.31325 -4.66778 0
M  V30 4856 N 452.299 1.55045 -0.282633 0
M  V30 4857 C 453.715 1.59441 0.0712997 0
M  V30 4858 C 453.915 1.2998 1.53972 0
M  V30 4859 O 452.971 1.06431 2.28973 0
M  V30 4860 C 454.284 2.99097 -0.310104 0
M  V30 4861 C 455.832 3.1194 -0.257343 0
M  V30 4862 C 456.307 4.53875 -0.613297 0
M  V30 4863 N 457.798 4.5974 -0.565134 0
M  V30 4864 C 458.533 5.67603 -0.81326 0
M  V30 4865 N 458.029 6.83582 -1.1264 0
M  V30 4866 N 459.822 5.57187 -0.741553 0
M  V30 4867 H 451.973 1.72458 -1.23984 0
M  V30 4868 H 454.236 0.804549 -0.501403 0
M  V30 4869 H 453.942 3.25516 -1.33163 0
M  V30 4870 H 453.816 3.75616 0.345366 0
M  V30 4871 H 456.203 2.85281 0.754905 0
M  V30 4872 H 456.284 2.37618 -0.947178 0
M  V30 4873 H 455.928 4.81261 -1.62327 0
M  V30 4874 H 455.858 5.26508 0.09841 0
M  V30 4875 H 458.349 3.76427 -0.333294 0
M  V30 4876 H 458.662 7.6175 -1.30219 0
M  V30 4877 H 457.007 6.85179 -1.16425 0
M  V30 4878 H 460.198 4.65457 -0.496705 0
M  V30 4879 H 460.371 6.41171 -0.938306 0
M  V30 4880 N 453.777 0.010035 1.57597 0
M  V30 4881 C 454.74 -0.963029 2.07986 0
M  V30 4882 C 455.74 -1.26619 0.991173 0
M  V30 4883 O 456.93 -1.2097 1.25347 0
M  V30 4884 C 454.062 -2.2851 2.52974 0
M  V30 4885 H 455.255 -0.526971 2.95234 0
M  V30 4886 H 452.808 -0.237639 1.54483 0
M  V30 4887 H 453.543 -2.76784 1.69 0
M  V30 4888 H 453.328 -2.07824 3.32493 0
M  V30 4889 H 454.818 -2.98294 2.9225 0
M  V30 4890 N 455.255 -1.55392 -0.262866 0
M  V30 4891 C 456.165 -1.92077 -1.34698 0
M  V30 4892 C 457.181 -0.819227 -1.53508 0
M  V30 4893 O 458.357 -1.11921 -1.67439 0
M  V30 4894 C 455.422 -2.19407 -2.68443 0
M  V30 4895 C 454.483 -3.42905 -2.58292 0
M  V30 4896 C 453.716 -3.68921 -3.85659 0
M  V30 4897 O 453.939 -2.97275 -4.8681 0
M  V30 4898 O 452.873 -4.62455 -3.85252 0
M  V30 4899 H 456.699 -2.84384 -1.06581 0
M  V30 4900 H 454.284 -1.42069 -0.462264 0
M  V30 4901 H 456.166 -2.38365 -3.47506 0
M  V30 4902 H 454.841 -1.30282 -2.96325 0
M  V30 4903 H 453.748 -3.29272 -1.7757 0
M  V30 4904 H 455.081 -4.32282 -2.35358 0
M  V30 4905 N 456.733 0.527833 -1.48498 0
M  V30 4906 C 457.665 1.6482 -1.5927 0
M  V30 4907 C 458.678 1.55659 -0.476869 0
M  V30 4908 O 459.867 1.62081 -0.747806 0
M  V30 4909 C 456.967 3.0348 -1.50842 0
M  V30 4910 C 456.14 3.381 -2.77502 0
M  V30 4911 C 455.199 4.5605 -2.62497 0
M  V30 4912 O 454.225 4.59165 -3.36387 0
M  V30 4913 N 455.427 5.54353 -1.72257 0
M  V30 4914 H 458.192 1.56015 -2.55889 0
M  V30 4915 H 455.753 0.715152 -1.45249 0
M  V30 4916 H 457.745 3.80264 -1.38496 0
M  V30 4917 H 456.315 3.06352 -0.621887 0
M  V30 4918 H 455.535 2.50473 -3.04396 0
M  V30 4919 H 456.823 3.58017 -3.61527 0
M  V30 4920 H 456.221 5.54617 -1.11431 0
M  V30 4921 H 454.778 6.30347 -1.65849 0
M  V30 4922 N 458.211 1.37122 0.776871 0
M  V30 4923 C 459.439 1.3523 1.5659 0
M  V30 4924 C 459.854 -0.0635518 1.88693 0
M  V30 4925 O 459.211 -1.02394 1.51069 0
M  V30 4926 C 459.262 2.18583 2.8793 0
M  V30 4927 O 458.983 3.5465 2.57206 0
M  V30 4928 C 460.484 2.24612 3.82183 0
M  V30 4929 H 457.704 0.4634 0.485285 0
M  V30 4930 H 460.248 1.80392 0.963266 0
M  V30 4931 H 458.403 1.76943 3.4463 0
M  V30 4932 H 458.817 3.98286 3.41275 0
M  V30 4933 H 460.291 2.87267 4.71361 0
M  V30 4934 H 460.768 1.25309 4.20944 0
M  V30 4935 H 461.374 2.66543 3.31414 0
M  V30 4936 N 459.689 -1.00246 1.21608 0
M  V30 4937 C 460.966 -1.71336 0.943568 0
M  V30 4938 C 461.346 -2.03972 -0.543943 0
M  V30 4939 O 460.694 -1.71545 -1.50946 0
M  V30 4940 C 460.904 -2.97094 1.83128 0
M  V30 4941 C 462.252 -3.70071 2.08165 0
M  V30 4942 O 463.276 -3.07081 1.80498 0
M  V30 4943 O 462.135 -4.83376 2.54971 0
M  V30 4944 H 459.229 -0.747386 0.354039 0
M  V30 4945 H 461.775 -1.05967 1.32549 0
M  V30 4946 H 460.547 -2.69407 2.83788 0
M  V30 4947 H 460.17 -3.70204 1.45034 0
M  V30 4948 N 461.167 -1.02423 -1.1978 0
M  V30 4949 C 462.578 -0.748389 -1.71044 0
M  V30 4950 C 462.929 0.732398 -1.82017 0
M  V30 4951 O 462.054 1.57116 -1.48807 0
M  V30 4952 C 462.649 -1.35187 -3.1066 0
M  V30 4953 C 461.208 -1.12472 -3.59203 0
M  V30 4954 C 460.355 -1.45283 -2.36195 0
M  V30 4955 H 463.306 -1.19275 -1.04686 0
M  V30 4956 H 463.327 -0.746408 -3.73107 0
M  V30 4957 H 462.839 -2.4296 -3.02642 0
M  V30 4958 H 460.94 -0.0649983 -3.72543 0
M  V30 4959 H 461.053 -1.81016 -4.43588 0
M  V30 4960 H 459.417 -0.872034 -2.39307 0
M  V30 4961 H 460.2 -2.54129 -2.30811 0
M  V30 4962 N 462.645 1.35699 -0.801477 0
M  V30 4963 C 463.608 2.28199 -0.213994 0
M  V30 4964 C 464.608 1.49359 0.595691 0
M  V30 4965 O 465.798 1.69186 0.414921 0
M  V30 4966 C 462.93 3.33587 0.702297 0
M  V30 4967 H 464.123 2.81666 -1.02976 0
M  V30 4968 H 461.676 1.45467 -0.571759 0
M  V30 4969 H 462.411 2.85297 1.54195 0
M  V30 4970 H 462.196 3.91906 0.123484 0
M  V30 4971 H 463.686 4.02638 1.10783 0
M  V30 4972 N 464.123 0.554532 1.47522 0
M  V30 4973 C 465.369 0.0295227 2.02779 0
M  V30 4974 C 465.702 -1.31582 1.42828 0
M  V30 4975 O 464.977 -1.85561 0.582872 0
M  V30 4976 C 465.26 -0.0664057 3.60039 0
M  V30 4977 C 465.113 1.30585 4.30427 0
M  V30 4978 C 466.432 -0.781162 4.33112 0
M  V30 4979 H 463.551 0.0122027 0.736899 0
M  V30 4980 H 466.193 0.716305 1.7598 0
M  V30 4981 H 464.343 -0.651307 3.83002 0
M  V30 4982 H 466.015 1.93374 4.18813 0
M  V30 4983 H 464.258 1.88125 3.90886 0
M  V30 4984 H 464.929 1.19147 5.38988 0
M  V30 4985 H 467.405 -0.284565 4.15126 0
M  V30 4986 H 466.281 -0.817237 5.42782 0
M  V30 4987 H 466.542 -1.83672 4.0214 0
M  V30 4988 N 465.601 -1.54893 0.290851 0
M  V30 4989 C 466.548 -2.23138 -0.58974 0
M  V30 4990 C 467.518 -1.21036 -1.13752 0
M  V30 4991 O 468.703 -1.49626 -1.18392 0
M  V30 4992 C 465.843 -2.96811 -1.76061 0
M  V30 4993 C 464.956 -4.13665 -1.24519 0
M  V30 4994 C 464.091 -4.74944 -2.3791 0
M  V30 4995 C 463.13 -5.83963 -1.83451 0
M  V30 4996 N 462.267 -6.39239 -2.90376 0
M  V30 4997 H 467.107 -2.98 -0.00114915 0
M  V30 4998 H 464.644 -1.47096 0.0112006 0
M  V30 4999 H 466.602 -3.37751 -2.44909 0
M  V30 5000 H 465.232 -2.24344 -2.32098 0
M  V30 5001 H 464.284 -3.77737 -0.449288 0
M  V30 5002 H 465.596 -4.92238 -0.806424 0
M  V30 5003 H 464.75 -5.18684 -3.14724 0
M  V30 5004 H 463.489 -3.95682 -2.85109 0
M  V30 5005 H 462.494 -5.39657 -1.05122 0
M  V30 5006 H 463.719 -6.65103 -1.37169 0
M  V30 5007 H 461.665 -5.62864 -3.36927 0
M  V30 5008 H 461.582 -7.13129 -2.50965 0
M  V30 5009 H 462.85 -6.87637 -3.67118 0
M  V30 5010 N 467.08 -0.0183926 -1.57589 0
M  V30 5011 C 468.028 0.985111 -2.10709 0
M  V30 5012 C 469.022 1.34397 -1.0312 0
M  V30 5013 O 470.228 1.32746 -1.21567 0
M  V30 5014 H 466.603 0.335418 -0.673052 0
M  V30 5015 H 468.574 0.511689 -2.9398 0
M  V30 5016 C 467.323 2.26202 -2.64061 0
M  V30 5017 H 466.646 1.9946 -3.4649 0
M  V30 5018 H 468.086 2.94652 -3.04887 0
M  V30 5019 C 466.545 2.98444 -1.5631 0
M  V30 5020 O 467.075 3.90142 -0.956674 0
M  V30 5021 N 465.281 2.6059 -1.28612 0
M  V30 5022 H 464.828 1.86101 -1.78112 0
M  V30 5023 H 464.786 3.09238 -0.567406 0
M  V30 5024 N 468.558 1.5553 0.254621 0
M  V30 5025 C 469.804 1.7818 0.980989 0
M  V30 5026 C 470.159 0.586059 1.83257 0
M  V30 5027 O 469.452 -0.420889 1.8692 0
M  V30 5028 C 469.646 3.03891 1.88109 0
M  V30 5029 C 469.475 4.35578 1.11812 0
M  V30 5030 C 468.245 4.98497 0.826343 0
M  V30 5031 C 470.443 5.11869 0.499486 0
M  V30 5032 N 468.425 6.13888 0.0385095 0
M  V30 5033 C 469.796 6.1981 -0.153292 0
M  V30 5034 C 471.851 4.96216 0.409175 0
M  V30 5035 C 470.554 7.13801 -0.8877 0
M  V30 5036 C 472.58 5.90578 -0.311683 0
M  V30 5037 C 471.942 6.97922 -0.953129 0
M  V30 5038 H 468.041 0.704057 0.340335 0
M  V30 5039 H 470.625 1.93025 0.254855 0
M  V30 5040 H 468.796 2.90389 2.57932 0
M  V30 5041 H 470.528 3.14869 2.54244 0
M  V30 5042 H 467.283 4.59769 1.13621 0
M  V30 5043 H 467.707 6.76129 -0.343275 0
M  V30 5044 H 472.349 4.1331 0.890765 0
M  V30 5045 H 470.067 7.96214 -1.38092 0
M  V30 5046 H 473.653 5.80544 -0.382125 0
M  V30 5047 H 472.533 7.69681 -1.50203 0
M  V30 5048 N 470.036 -0.519951 1.48776 0
M  V30 5049 C 470.969 -1.64053 1.58625 0
M  V30 5050 C 471.947 -1.5664 0.43618 0
M  V30 5051 O 473.131 -1.76969 0.649159 0
M  V30 5052 C 470.258 -3.02497 1.52359 0
M  V30 5053 C 469.304 -3.28235 2.72331 0
M  V30 5054 S 470.137 -3.13414 4.34203 0
M  V30 5055 C 471.293 -4.54287 4.30551 0
M  V30 5056 H 471.526 -1.5545 2.53422 0
M  V30 5057 H 469.059 -0.703681 1.37433 0
M  V30 5058 H 471.017 -3.82336 1.4943 0
M  V30 5059 H 469.678 -3.08531 0.588824 0
M  V30 5060 H 468.871 -4.29256 2.64113 0
M  V30 5061 H 468.473 -2.56085 2.72574 0
M  V30 5062 H 470.765 -5.46006 4.01103 0
M  V30 5063 H 471.708 -4.67558 5.31785 0
M  V30 5064 H 472.116 -4.34079 3.60881 0
M  V30 5065 N 471.514 -1.37532 -0.769588 0
M  V30 5066 C 472.742 -1.36059 -1.55871 0
M  V30 5067 C 473.157 0.053544 -1.88724 0
M  V30 5068 O 472.514 1.01591 -1.5161 0
M  V30 5069 C 472.565 -2.20107 -2.86767 0
M  V30 5070 O 472.286 -3.56009 -2.55321 0
M  V30 5071 C 473.787 -2.26636 -3.80987 0
M  V30 5072 H 471.007 -0.465967 -0.482821 0
M  V30 5073 H 473.551 -1.80901 -0.953686 0
M  V30 5074 H 471.706 -1.78768 -3.43687 0
M  V30 5075 H 472.12 -4.0009 -3.39158 0
M  V30 5076 H 473.594 -2.89763 -4.69831 0
M  V30 5077 H 474.071 -1.2754 -4.20274 0
M  V30 5078 H 474.677 -2.68296 -3.29996 0
M  V30 5079 N 472.992 0.995999 -1.22138 0
M  V30 5080 C 473.924 2.08745 -0.946485 0
M  V30 5081 C 474.937 1.62633 0.0737356 0
M  V30 5082 O 476.126 1.77782 -0.159886 0
M  V30 5083 C 473.226 3.36516 -0.401305 0
M  V30 5084 C 472.399 4.11672 -1.47801 0
M  V30 5085 C 471.458 5.17728 -0.940461 0
M  V30 5086 O 470.484 5.45482 -1.62596 0
M  V30 5087 N 471.686 5.80005 0.239723 0
M  V30 5088 H 474.451 2.32908 -1.88611 0
M  V30 5089 H 472.012 1.16152 -1.12785 0
M  V30 5090 H 474.004 4.04691 -0.0270837 0
M  V30 5091 H 472.574 3.0944 0.443354 0
M  V30 5092 H 471.794 3.38171 -2.02568 0
M  V30 5093 H 473.082 4.58657 -2.20253 0
M  V30 5094 H 472.48 5.5982 0.813518 0
M  V30 5095 H 471.037 6.4943 0.555361 0
M  V30 5096 N 474.47 1.03057 1.19235 0
M  V30 5097 C 475.698 0.747697 1.92917 0
M  V30 5098 C 476.113 -0.69372 1.75593 0
M  V30 5099 O 475.47 -1.47191 1.07894 0
M  V30 5100 C 475.521 1.09159 3.44625 0
M  V30 5101 O 475.242 2.47641 3.61394 0
M  V30 5102 C 476.743 0.831763 4.35427 0
M  V30 5103 H 473.963 0.273453 0.612751 0
M  V30 5104 H 476.507 1.37552 1.51327 0
M  V30 5105 H 474.662 0.508919 3.84043 0
M  V30 5106 H 475.076 2.60499 4.55237 0
M  V30 5107 H 476.55 1.12233 5.4047 0
M  V30 5108 H 477.027 -0.233769 4.38577 0
M  V30 5109 H 477.633 1.39725 4.01693 0
M  V30 5110 N 475.948 -1.35272 0.808662 0
M  V30 5111 C 476.878 -2.32315 0.234981 0
M  V30 5112 C 477.859 -1.57572 -0.64071 0
M  V30 5113 O 479.044 -1.8563 -0.570551 0
M  V30 5114 C 476.174 -3.41801 -0.615601 0
M  V30 5115 C 475.128 -4.27694 0.161767 0
M  V30 5116 C 474.454 -5.28519 -0.810649 0
M  V30 5117 C 475.754 -5.04231 1.36193 0
M  V30 5118 H 477.448 -2.80543 1.04575 0
M  V30 5119 H 474.994 -1.3488 0.504315 0
M  V30 5120 H 476.947 -4.08693 -1.02702 0
M  V30 5121 H 475.671 -2.92186 -1.45928 0
M  V30 5122 H 474.33 -3.62384 0.554382 0
M  V30 5123 H 473.978 -4.75171 -1.64988 0
M  V30 5124 H 473.678 -5.8686 -0.294822 0
M  V30 5125 H 475.202 -5.98283 -1.22023 0
M  V30 5126 H 476.616 -5.64058 1.02528 0
M  V30 5127 H 475.013 -5.72077 1.81239 0
M  V30 5128 H 476.083 -4.34753 2.14751 0
M  V30 5129 N 477.426 -0.562348 -1.47226 0
M  V30 5130 C 478.356 0.170627 -2.32876 0
M  V30 5131 C 479.337 0.903748 -1.44106 0
M  V30 5132 O 480.522 0.883206 -1.72954 0
M  V30 5133 C 477.652 1.19786 -3.25989 0
M  V30 5134 C 476.606 0.580875 -4.2404 0
M  V30 5135 C 475.932 1.71311 -5.06514 0
M  V30 5136 C 477.232 -0.468714 -5.20193 0
M  V30 5137 H 478.926 -0.544441 -2.94408 0
M  V30 5138 H 476.472 -0.263271 -1.41573 0
M  V30 5139 H 478.425 1.71884 -3.84752 0
M  V30 5140 H 477.149 1.94294 -2.62521 0
M  V30 5141 H 475.808 0.0811538 -3.6651 0
M  V30 5142 H 475.456 2.44736 -4.39447 0
M  V30 5143 H 475.156 1.30604 -5.72902 0
M  V30 5144 H 476.68 2.23725 -5.68137 0
M  V30 5145 H 478.094 -0.0336028 -5.7329 0
M  V30 5146 H 476.491 -0.794957 -5.94811 0
M  V30 5147 H 477.561 -1.36269 -4.65359 0
M  V30 5148 N 478.904 1.54736 -0.299062 0
M  V30 5149 C 480.15 2.00397 0.311244 0
M  V30 5150 C 480.483 1.18716 1.53688 0
M  V30 5151 O 479.758 0.263154 1.92712 0
M  V30 5152 C 480.041 3.53817 0.669761 0
M  V30 5153 C 479.894 4.46239 -0.564882 0
M  V30 5154 C 481.213 4.13856 1.49702 0
M  V30 5155 H 478.332 0.728493 0.111653 0
M  V30 5156 H 480.974 1.85506 -0.410774 0
M  V30 5157 H 479.124 3.66637 1.28491 0
M  V30 5158 H 480.796 4.45328 -1.20337 0
M  V30 5159 H 479.039 4.16916 -1.19849 0
M  V30 5160 H 479.71 5.5134 -0.269918 0
M  V30 5161 H 482.186 4.04461 0.977284 0
M  V30 5162 H 481.062 5.21365 1.71666 0
M  V30 5163 H 481.323 3.65608 2.48563 0
M  V30 5164 N 480.382 0.0267497 1.57577 0
M  V30 5165 C 481.314 -0.984594 2.06974 0
M  V30 5166 C 482.327 -1.29032 0.992705 0
M  V30 5167 O 483.516 -1.25539 1.26895 0
M  V30 5168 C 480.616 -2.31262 2.47732 0
M  V30 5169 C 479.789 -2.1924 3.78487 0
M  V30 5170 C 478.848 -3.34956 4.05821 0
M  V30 5171 O 477.874 -3.11948 4.76106 0
M  V30 5172 N 479.076 -4.58672 3.55809 0
M  V30 5173 H 481.841 -0.563143 2.94362 0
M  V30 5174 H 479.402 -0.160061 1.61107 0
M  V30 5175 H 481.394 -3.07496 2.63112 0
M  V30 5176 H 479.964 -2.65056 1.65723 0
M  V30 5177 H 479.184 -1.27747 3.72927 0
M  V30 5178 H 480.472 -2.08409 4.64158 0
M  V30 5179 H 479.87 -4.8026 2.98942 0
M  V30 5180 H 478.427 -5.32083 3.76472 0
M  V30 5181 N 481.861 -1.55662 -0.24637 0
M  V30 5182 C 482.809 -1.91186 -1.3248 0
M  V30 5183 C 483.803 -0.790996 -1.49799 0
M  V30 5184 O 485.009 -0.975617 -1.51267 0
M  V30 5185 H 481.384 -0.607207 -0.443626 0
M  V30 5186 H 483.355 -2.81221 -0.997853 0
M  V30 5187 C 482.104 -2.22349 -2.67313 0
M  V30 5188 H 481.427 -3.08097 -2.54786 0
M  V30 5189 H 482.867 -2.51107 -3.41645 0
M  V30 5190 C 481.326 -1.04001 -3.20446 0
M  V30 5191 O 481.856 -0.28828 -4.00664 0
M  V30 5192 N 480.062 -0.830494 -2.7848 0
M  V30 5193 H 479.609 -1.4435 -2.13356 0
M  V30 5194 H 479.567 -0.0403258 -3.14374 0
M  V30 5195 N 483.339 0.512053 -1.4905 0
M  V30 5196 C 484.302 1.59704 -1.64399 0
M  V30 5197 C 485.302 1.52285 -0.516317 0
M  V30 5198 O 486.492 1.55635 -0.782527 0
M  V30 5199 C 483.624 2.9935 -1.63102 0
M  V30 5200 H 484.817 1.47428 -2.61161 0
M  V30 5201 H 482.37 0.735469 -1.37915 0
M  V30 5202 H 483.105 3.17116 -0.678836 0
M  V30 5203 H 482.89 3.06144 -2.44986 0
M  V30 5204 H 484.38 3.782 -1.77072 0
M  V30 5205 N 484.817 1.37938 0.762283 0
M  V30 5206 C 485.765 1.34569 1.89721 0
M  V30 5207 C 486.759 0.232929 1.67791 0
M  V30 5208 O 487.965 0.401485 1.75465 0
M  V30 5209 H 484.34 0.419594 0.624055 0
M  V30 5210 H 486.311 2.30357 1.8968 0
M  V30 5211 C 485.06 1.17898 3.27101 0
M  V30 5212 H 484.383 2.02781 3.44558 0
M  V30 5213 H 485.823 1.19593 4.06784 0
M  V30 5214 C 484.282 -0.114728 3.36705 0
M  V30 5215 O 484.812 -1.0949 3.8649 0
M  V30 5216 N 483.018 -0.16863 2.9011 0
M  V30 5217 H 482.565 0.62967 2.49786 0
M  V30 5218 H 482.523 -1.03383 2.96916 0
M  V30 5219 N 486.295 -0.989507 1.22664 0
M  V30 5220 C 487.706 -1.54406 1.04955 0
M  V30 5221 C 488.057 -1.92366 -0.385951 0
M  V30 5222 O 487.182 -1.75111 -1.27142 0
M  V30 5223 C 487.777 -2.80578 1.89899 0
M  V30 5224 C 486.336 -3.32464 1.76478 0
M  V30 5225 C 485.483 -2.05524 1.86159 0
M  V30 5226 H 488.434 -0.810211 1.3646 0
M  V30 5227 H 488.455 -3.53075 1.4184 0
M  V30 5228 H 487.967 -2.52918 2.94371 0
M  V30 5229 H 486.068 -3.65024 0.747528 0
M  V30 5230 H 486.181 -4.02838 2.59342 0
M  V30 5231 H 484.545 -2.19241 1.29636 0
M  V30 5232 H 485.328 -1.80258 2.92168 0
M  V30 5233 N 487.773 -1.03688 -1.18687 0
M  V30 5234 C 489.05 -0.652397 -1.84399 0
M  V30 5235 C 489.43 0.868386 -1.92412 0
M  V30 5236 O 488.778 1.76832 -1.44716 0
M  V30 5237 C 488.988 -1.3238 -3.22919 0
M  V30 5238 C 490.336 -1.45216 -3.98996 0
M  V30 5239 O 491.36 -1.2816 -3.32345 0
M  V30 5240 O 490.219 -1.72975 -5.18403 0
M  V30 5241 H 487.313 -0.227793 -0.795009 0
M  V30 5242 H 489.859 -1.13553 -1.2611 0
M  V30 5243 H 488.631 -2.36202 -3.11968 0
M  V30 5244 H 488.254 -0.829039 -3.88861 0
M  V30 5245 N 489.251 1.34841 -0.815825 0
M  V30 5246 C 490.491 2.00321 -0.406297 0
M  V30 5247 C 490.855 1.63293 1.00992 0
M  V30 5248 O 492.056 2.21563 1.52195 0
M  V30 5249 C 490.327 3.52421 -0.594469 0
M  V30 5250 S 491.886 4.37926 -0.276735 0
M  V30 5251 H 488.704 0.694155 -0.153848 0
M  V30 5252 H 491.306 1.64263 -1.06009 0
M  V30 5253 H 490.01 3.76858 -1.625 0
M  V30 5254 H 489.541 3.9333 0.0743157 0
M  V30 5255 H 491.556 4.87743 0.912215 0
M  V30 5256 N 490.729 0.570148 1.46925 0
M  V30 5257 C 491.676 -0.170257 2.30171 0
M  V30 5258 C 492.646 -0.896099 1.39855 0
M  V30 5259 O 493.831 -0.889248 1.68811 0
M  V30 5260 C 490.971 -1.18605 3.24079 0
M  V30 5261 C 490.084 -0.464947 4.29491 0
M  V30 5262 C 489.219 -1.46716 5.10537 0
M  V30 5263 C 488.258 -0.731758 6.0771 0
M  V30 5264 N 487.395 -1.68142 6.81669 0
M  V30 5265 H 492.235 0.545713 2.92961 0
M  V30 5266 H 489.772 0.280938 1.44392 0
M  V30 5267 H 491.73 -1.78771 3.76957 0
M  V30 5268 H 490.36 -1.86989 2.63125 0
M  V30 5269 H 489.412 0.251506 3.79568 0
M  V30 5270 H 490.724 0.110548 4.98677 0
M  V30 5271 H 489.878 -2.14199 5.6763 0
M  V30 5272 H 488.617 -2.07658 4.41282 0
M  V30 5273 H 487.622 -0.0430787 5.49783 0
M  V30 5274 H 488.847 -0.127904 6.7898 0
M  V30 5275 H 486.793 -2.27918 6.15134 0
M  V30 5276 H 486.71 -1.15841 7.47072 0
M  V30 5277 H 487.978 -2.347 7.43328 0
M  V30 5278 N 492.207 -1.54576 0.307264 0
M  V30 5279 C 493.137 -2.26708 -0.55907 0
M  V30 5280 C 494.118 -1.26893 -1.1328 0
M  V30 5281 O 495.303 -1.55677 -1.16097 0
M  V30 5282 C 492.433 -3.01259 -1.72801 0
M  V30 5283 C 491.387 -4.08275 -1.28435 0
M  V30 5284 C 490.713 -4.70575 -2.53895 0
M  V30 5285 C 492.013 -5.2068 -0.411038 0
M  V30 5286 H 493.707 -2.9937 0.042576 0
M  V30 5287 H 491.253 -1.43983 0.0219173 0
M  V30 5288 H 493.206 -3.50444 -2.34023 0
M  V30 5289 H 491.93 -2.26187 -2.356 0
M  V30 5290 H 490.589 -3.59949 -0.695161 0
M  V30 5291 H 490.237 -3.92136 -3.15021 0
M  V30 5292 H 489.937 -5.42854 -2.24908 0
M  V30 5293 H 491.461 -5.22527 -3.15908 0
M  V30 5294 H 492.875 -5.65721 -0.929097 0
M  V30 5295 H 491.272 -5.99716 -0.214664 0
M  V30 5296 H 492.342 -4.81629 0.562287 0
M  V30 5297 N 493.685 -0.035106 -1.57561 0
M  V30 5298 C 494.931 0.64318 -1.92331 0
M  V30 5299 C 495.264 1.71434 -0.912368 0
M  V30 5300 O 494.539 1.94395 0.0640303 0
M  V30 5301 C 494.822 1.25411 -3.37556 0
M  V30 5302 C 494.675 0.192109 -4.4939 0
M  V30 5303 C 495.994 2.17041 -3.82859 0
M  V30 5304 H 493.113 0.232341 -0.699419 0
M  V30 5305 H 495.755 -0.0935889 -1.89769 0
M  V30 5306 H 493.905 1.88205 -3.39869 0
M  V30 5307 H 495.577 -0.438849 -4.59208 0
M  V30 5308 H 493.82 -0.481725 -4.31117 0
M  V30 5309 H 494.491 0.659292 -5.48049 0
M  V30 5310 H 496.967 1.64228 -3.8232 0
M  V30 5311 H 495.843 2.56738 -4.85157 0
M  V30 5312 H 496.104 3.06401 -3.18702 0
M  V30 5313 N 495.163 1.55791 0.238111 0
M  V30 5314 C 496.093 1.94068 1.29846 0
M  V30 5315 C 497.074 0.806726 1.49753 0
M  V30 5316 O 498.259 1.06772 1.62214 0
M  V30 5317 C 495.389 2.24302 2.65153 0
M  V30 5318 C 494.343 3.40032 2.59927 0
M  V30 5319 C 493.669 3.55829 3.99111 0
M  V30 5320 C 494.969 4.75476 2.16148 0
M  V30 5321 H 496.663 2.82887 0.980563 0
M  V30 5322 H 494.209 1.36105 0.470253 0
M  V30 5323 H 496.162 2.4967 3.39475 0
M  V30 5324 H 494.886 1.32318 2.98596 0
M  V30 5325 H 493.545 3.14687 1.88063 0
M  V30 5326 H 493.193 2.6125 4.29834 0
M  V30 5327 H 492.893 4.3366 3.96501 0
M  V30 5328 H 494.417 3.83528 4.7512 0
M  V30 5329 H 495.831 5.00158 2.80205 0
M  V30 5330 H 494.228 5.56472 2.24631 0
M  V30 5331 H 495.298 4.71946 1.11333 0
M  V30 5332 N 496.642 -0.504142 1.49319 0
M  V30 5333 C 497.589 -1.60603 1.65756 0
M  V30 5334 C 498.559 -1.58425 0.499082 0
M  V30 5335 O 499.744 -1.76459 0.725728 0
M  V30 5336 C 496.884 -2.98764 1.72726 0
M  V30 5337 C 495.997 -3.10982 2.99857 0
M  V30 5338 C 495.132 -4.39857 2.97824 0
M  V30 5339 C 494.171 -4.45697 4.19548 0
M  V30 5340 N 493.308 -5.65995 4.15444 0
M  V30 5341 H 498.148 -1.45895 2.59843 0
M  V30 5342 H 495.685 -0.709891 1.28837 0
M  V30 5343 H 497.643 -3.78839 1.74747 0
M  V30 5344 H 496.273 -3.12183 0.821075 0
M  V30 5345 H 495.325 -2.23991 3.07461 0
M  V30 5346 H 496.637 -3.11157 3.89849 0
M  V30 5347 H 495.791 -5.2825 2.98391 0
M  V30 5348 H 494.53 -4.42242 2.05604 0
M  V30 5349 H 493.535 -3.55707 4.19229 0
M  V30 5350 H 494.76 -4.4503 5.12957 0
M  V30 5351 H 492.706 -5.69229 3.26059 0
M  V30 5352 H 492.623 -5.67773 4.99169 0
M  V30 5353 H 493.891 -6.56604 4.20109 0
M  V30 5354 N 498.12 -1.38341 -0.754957 0
M  V30 5355 C 499.368 -1.34208 -1.51105 0
M  V30 5356 C 499.689 0.0677634 -1.94882 0
M  V30 5357 O 498.959 1.01517 -1.67544 0
M  V30 5358 H 497.539 -0.493819 -0.560493 0
M  V30 5359 H 500.201 -1.73005 -0.897507 0
M  V30 5360 H 499.297 -1.99203 -2.4026 0
M  V30 5361 N 499.598 0.982988 -1.23187 0
M  V30 5362 C 500.528 2.09301 -1.03515 0
M  V30 5363 C 501.509 1.70035 0.0471136 0
M  V30 5364 O 502.694 1.93847 -0.117029 0
M  V30 5365 C 499.824 3.4167 -0.622791 0
M  V30 5366 C 498.778 3.94828 -1.65211 0
M  V30 5367 C 498.104 5.23362 -1.09527 0
M  V30 5368 C 499.404 4.2439 -3.04451 0
M  V30 5369 H 501.098 2.26016 -1.96359 0
M  V30 5370 H 498.644 1.08611 -0.945501 0
M  V30 5371 H 500.597 4.18746 -0.472233 0
M  V30 5372 H 499.321 3.24811 0.341329 0
M  V30 5373 H 497.98 3.19895 -1.79061 0
M  V30 5374 H 497.628 5.02852 -0.122211 0
M  V30 5375 H 497.328 5.59895 -1.783 0
M  V30 5376 H 498.852 6.03062 -0.956511 0
M  V30 5377 H 500.266 4.92225 -2.93917 0
M  V30 5378 H 498.663 4.72118 -3.70438 0
M  V30 5379 H 499.733 3.31765 -3.53638 0
M  V30 5380 N 501.076 1.04316 1.18135 0
M  V30 5381 C 502.324 0.746542 1.87806 0
M  V30 5382 C 502.645 -0.728082 1.80898 0
M  V30 5383 O 501.915 -1.52554 1.22899 0
M  V30 5384 H 500.495 0.273157 0.695265 0
M  V30 5385 H 503.157 1.32044 1.43354 0
M  V30 5386 H 502.253 1.05362 2.93778 0
M  V30 5387 N 502.554 -1.34406 0.822964 0
M  V30 5388 C 503.487 -2.27407 0.190124 0
M  V30 5389 C 504.465 -1.4889 -0.653486 0
M  V30 5390 O 505.649 -1.78109 -0.617216 0
M  V30 5391 C 502.776 -3.3064 -0.734477 0
M  V30 5392 C 501.822 -4.26488 0.0316099 0
M  V30 5393 S 502.655 -5.17445 1.3788 0
M  V30 5394 C 503.811 -6.24214 0.45907 0
M  V30 5395 H 504.044 -2.80733 0.978586 0
M  V30 5396 H 501.577 -1.41455 0.618866 0
M  V30 5397 H 503.535 -3.90607 -1.26238 0
M  V30 5398 H 502.196 -2.76161 -1.49646 0
M  V30 5399 H 501.389 -4.9951 -0.671285 0
M  V30 5400 H 500.991 -3.70775 0.490066 0
M  V30 5401 H 503.283 -6.76599 -0.349357 0
M  V30 5402 H 504.226 -6.98551 1.15896 0
M  V30 5403 H 504.634 -5.6448 0.0474825 0
M  V30 5404 N 504.032 -0.577932 -1.46621 0
M  V30 5405 C 504.98 0.170882 -2.31971 0
M  V30 5406 C 505.974 0.889086 -1.44193 0
M  V30 5407 O 507.18 0.808017 -1.60845 0
M  V30 5408 H 503.555 0.0739763 -0.748353 0
M  V30 5409 H 505.526 -0.567856 -2.92947 0
M  V30 5410 C 504.275 1.17438 -3.27267 0
M  V30 5411 H 503.598 0.63116 -3.94787 0
M  V30 5412 H 505.038 1.66882 -3.89778 0
M  V30 5413 C 503.497 2.23292 -2.52274 0
M  V30 5414 O 504.027 3.30567 -2.28229 0
M  V30 5415 N 502.233 1.97772 -2.12919 0
M  V30 5416 H 501.78 1.10545 -2.32675 0
M  V30 5417 H 501.738 2.68809 -1.63062 0
M  V30 5418 N 505.51 1.54411 -0.315457 0
M  V30 5419 C 506.921 1.85885 0.174265 0
M  V30 5420 C 507.272 1.23723 1.52273 0
M  V30 5421 O 506.397 0.540246 2.09548 0
M  V30 5422 C 506.992 3.37257 0.322981 0
M  V30 5423 C 505.551 3.68711 0.756922 0
M  V30 5424 C 504.698 2.77013 -0.126195 0
M  V30 5425 H 507.649 1.49374 -0.536007 0
M  V30 5426 H 507.67 3.62539 1.15522 0
M  V30 5427 H 507.182 3.82471 -0.658602 0
M  V30 5428 H 505.283 3.29024 1.74854 0
M  V30 5429 H 505.396 4.75741 0.566291 0
M  V30 5430 H 503.76 2.51588 0.39692 0
M  V30 5431 H 504.543 3.25051 -1.1044 0
M  V30 5432 N 506.988 0.0434614 1.5754 0
M  V30 5433 C 508.216 -0.641835 1.96693 0
M  V30 5434 C 508.631 -1.64832 0.920652 0
M  V30 5435 O 507.988 -1.82247 -0.095993 0
M  V30 5436 C 508.039 -1.33557 3.35924 0
M  V30 5437 O 507.76 -0.369403 4.3654 0
M  V30 5438 C 509.261 -2.11135 3.89791 0
M  V30 5439 H 506.481 -0.176013 0.647503 0
M  V30 5440 H 509.025 0.107478 2.04217 0
M  V30 5441 H 507.18 -2.03617 3.29574 0
M  V30 5442 H 507.594 -0.863674 5.1734 0
M  V30 5443 H 509.068 -2.55107 4.89514 0
M  V30 5444 H 509.545 -2.95634 3.24803 0
M  V30 5445 H 510.151 -1.46002 3.99454 0
M  V30 5446 N 508.466 -1.55915 -0.229846 0
M  V30 5447 C 509.396 -1.94754 -1.28815 0
M  V30 5448 C 510.377 -0.814657 -1.49323 0
M  V30 5449 O 511.562 -1.07631 -1.61645 0
M  V30 5450 C 508.692 -2.25705 -2.63959 0
M  V30 5451 C 507.646 -3.41406 -2.5812 0
M  V30 5452 C 506.972 -3.57941 -3.97218 0
M  V30 5453 C 508.272 -4.76616 -2.13623 0
M  V30 5454 H 509.966 -2.83404 -0.965547 0
M  V30 5455 H 507.512 -1.36353 -0.463028 0
M  V30 5456 H 509.465 -2.51467 -3.38146 0
M  V30 5457 H 508.189 -1.339 -2.9789 0
M  V30 5458 H 506.848 -3.1568 -1.86391 0
M  V30 5459 H 506.496 -2.63526 -4.28443 0
M  V30 5460 H 506.196 -4.35757 -3.94195 0
M  V30 5461 H 507.72 -3.86042 -4.73079 0
M  V30 5462 H 509.134 -5.01637 -2.77549 0
M  V30 5463 H 507.531 -5.57655 -2.21677 0
M  V30 5464 H 508.601 -4.7253 -1.08829 0
M  V30 5465 N 509.944 0.496216 -1.49584 0
M  V30 5466 C 510.854 1.62352 -1.69349 0
M  V30 5467 C 511.87 1.64184 -0.576147 0
M  V30 5468 O 513.046 1.82517 -0.85144 0
M  V30 5469 C 510.111 2.98698 -1.76013 0
M  V30 5470 C 509.172 3.07454 -2.99617 0
M  V30 5471 C 508.405 4.37296 -3.05953 0
M  V30 5472 O 508.628 5.2637 -2.19752 0
M  V30 5473 O 507.562 4.51124 -3.9846 0
M  V30 5474 H 511.388 1.48606 -2.64859 0
M  V30 5475 H 508.973 0.673022 -1.33382 0
M  V30 5476 H 510.855 3.79725 -1.82721 0
M  V30 5477 H 509.53 3.12696 -0.836828 0
M  V30 5478 H 508.437 2.25597 -2.98424 0
M  V30 5479 H 509.77 2.98385 -3.91443 0
M  V30 5480 N 511.423 1.38739 0.74761 0
M  V30 5481 C 512.333 1.38696 1.89211 0
M  V30 5482 C 513.349 0.283303 1.71678 0
M  V30 5483 O 514.525 0.522713 1.94498 0
M  V30 5484 C 511.59 1.21662 3.24653 0
M  V30 5485 C 510.651 2.41886 3.54669 0
M  V30 5486 C 509.884 2.25655 4.83648 0
M  V30 5487 O 510.107 1.25339 5.56459 0
M  V30 5488 O 509.041 3.14372 5.13277 0
M  V30 5489 H 512.867 2.35143 1.92202 0
M  V30 5490 H 510.452 1.19721 0.893708 0
M  V30 5491 H 512.334 1.14246 4.05618 0
M  V30 5492 H 511.009 0.283024 3.2246 0
M  V30 5493 H 509.916 2.54877 2.73841 0
M  V30 5494 H 511.249 3.33895 3.61628 0
M  V30 5495 N 512.901 -0.976442 1.23707 0
M  V30 5496 C 513.834 -2.06793 0.964973 0
M  V30 5497 C 514.812 -1.62304 -0.0981472 0
M  V30 5498 O 515.996 -1.88464 0.0369477 0
M  V30 5499 C 513.123 -3.35636 0.454522 0
M  V30 5500 C 512.169 -3.99069 1.50485 0
M  V30 5501 S 513.002 -4.37814 3.0835 0
M  V30 5502 C 514.158 -5.69805 2.58985 0
M  V30 5503 H 514.391 -2.29556 1.88922 0
M  V30 5504 H 511.924 -1.11317 1.06995 0
M  V30 5505 H 513.882 -4.10162 0.166626 0
M  V30 5506 H 512.543 -3.10876 -0.448871 0
M  V30 5507 H 511.736 -4.91896 1.09792 0
M  V30 5508 H 511.338 -3.30938 1.7423 0
M  V30 5509 H 513.63 -6.46919 2.01252 0
M  V30 5510 H 514.573 -6.15345 3.50366 0
M  V30 5511 H 514.981 -5.27994 1.99705 0
M  V30 5512 N 514.379 -1.04941 -1.1758 0
M  V30 5513 C 515.309 -0.669172 -2.23706 0
M  V30 5514 C 516.29 0.331835 -1.66832 0
M  V30 5515 O 517.475 0.209988 -1.93061 0
M  V30 5516 C 514.605 -0.0404889 -3.47276 0
M  V30 5517 C 513.559 -0.965983 -4.16957 0
M  V30 5518 C 512.885 -0.201312 -5.34321 0
M  V30 5519 C 514.185 -2.28902 -4.69469 0
M  V30 5520 H 515.879 -1.55639 -2.55767 0
M  V30 5521 H 513.425 -0.749793 -1.22939 0
M  V30 5522 H 515.378 0.237298 -4.20731 0
M  V30 5523 H 514.102 0.881658 -3.14475 0
M  V30 5524 H 512.761 -1.22829 -3.45411 0
M  V30 5525 H 512.409 0.723519 -4.97769 0
M  V30 5526 H 512.109 -0.817968 -5.81879 0
M  V30 5527 H 513.633 0.0692499 -6.10561 0
M  V30 5528 H 515.047 -2.07132 -5.34574 0
M  V30 5529 H 513.444 -2.85942 -5.27596 0
M  V30 5530 H 514.514 -2.92937 -3.86414 0
M  V30 5531 N 515.857 1.33968 -0.830081 0
M  V30 5532 C 517.085 2.0228 -0.434773 0
M  V30 5533 C 517.5 1.62487 0.961419 0
M  V30 5534 O 516.857 0.833849 1.62337 0
M  V30 5535 C 516.908 3.5751 -0.535625 0
M  V30 5536 O 516.629 3.95864 -1.87679 0
M  V30 5537 C 518.13 4.43091 -0.136137 0
M  V30 5538 H 515.35 0.648151 -0.173613 0
M  V30 5539 H 517.894 1.71089 -1.12022 0
M  V30 5540 H 516.049 3.87266 0.101817 0
M  V30 5541 H 516.463 4.9056 -1.85609 0
M  V30 5542 H 517.937 5.51398 -0.257772 0
M  V30 5543 H 518.414 4.29433 0.921076 0
M  V30 5544 H 519.02 4.18677 -0.747662 0
M  V30 5545 N 517.335 0.585699 1.46312 0
M  V30 5546 C 518.298 -0.135673 2.28798 0
M  V30 5547 C 519.298 -0.815988 1.38558 0
M  V30 5548 O 520.488 -0.667487 1.60904 0
M  V30 5549 C 517.62 -1.20163 3.1902 0
M  V30 5550 H 518.813 0.589257 2.94054 0
M  V30 5551 H 516.366 0.343794 1.52472 0
M  V30 5552 H 517.101 -1.95804 2.58517 0
M  V30 5553 H 516.886 -0.718282 3.85465 0
M  V30 5554 H 518.376 -1.70749 3.81096 0
M  V30 5555 N 518.813 -1.54241 0.323641 0
M  V30 5556 C 520.053 -2.0248 -0.279502 0
M  V30 5557 C 520.417 -1.20672 -1.49339 0
M  V30 5558 O 521.618 -1.58715 -2.1694 0
M  V30 5559 C 519.889 -3.52238 -0.605266 0
M  V30 5560 S 521.448 -4.22411 -1.18805 0
M  V30 5561 H 518.266 -0.705957 -0.0845313 0
M  V30 5562 H 520.868 -1.90089 0.456781 0
M  V30 5563 H 519.572 -4.094 0.286339 0
M  V30 5564 H 519.103 -3.6871 -1.37174 0
M  V30 5565 H 521.118 -4.30075 -2.47487 0
M  V30 5566 N 520.291 -0.0518155 -1.57515 0
M  V30 5567 C 521.223 0.951542 -2.08515 0
M  V30 5568 C 522.236 1.27436 -1.01311 0
M  V30 5569 O 523.425 1.23504 -1.28876 0
M  V30 5570 C 520.525 2.27291 -2.5138 0
M  V30 5571 C 519.698 2.13191 -3.81927 0
M  V30 5572 C 518.757 3.28458 -4.11098 0
M  V30 5573 O 517.783 3.04334 -4.81009 0
M  V30 5574 N 518.985 4.52954 -3.63061 0
M  V30 5575 H 521.75 0.516242 -2.9522 0
M  V30 5576 H 519.311 0.13441 -1.61341 0
M  V30 5577 H 521.303 3.03272 -2.67971 0
M  V30 5578 H 519.873 2.62386 -1.69919 0
M  V30 5579 H 519.093 1.21798 -3.74912 0
M  V30 5580 H 520.381 2.00999 -4.67415 0
M  V30 5581 H 519.779 4.75444 -3.06545 0
M  V30 5582 H 518.336 5.26026 -3.84889 0
M  V30 5583 N 521.769 1.56035 0.221574 0
M  V30 5584 C 523.017 1.78693 0.944102 0
M  V30 5585 C 523.338 0.620317 1.8487 0
M  V30 5586 O 522.608 -0.362784 1.92512 0
M  V30 5587 H 521.188 0.659082 0.351597 0
M  V30 5588 H 523.85 1.93497 0.233435 0
M  V30 5589 H 522.946 2.70837 1.55093 0
M  V30 5590 N 523.247 -0.488276 1.49845 0
M  V30 5591 C 524.493 -1.24341 1.6021 0
M  V30 5592 C 524.826 -1.91967 0.293651 0
M  V30 5593 O 524.101 -1.81323 -0.703718 0
M  V30 5594 C 524.384 -2.3005 2.77036 0
M  V30 5595 C 524.237 -1.66842 4.17713 0
M  V30 5596 C 525.556 -3.31509 2.89464 0
M  V30 5597 H 522.675 -0.450704 0.583125 0
M  V30 5598 H 525.317 -0.539673 1.82174 0
M  V30 5599 H 523.467 -2.90071 2.58439 0
M  V30 5600 H 525.139 -1.1055 4.47858 0
M  V30 5601 H 523.382 -0.972079 4.22768 0
M  V30 5602 H 524.053 -2.43576 4.95353 0
M  V30 5603 H 526.529 -2.81493 3.06433 0
M  V30 5604 H 525.405 -4.02822 3.72861 0
M  V30 5605 H 525.666 -3.94603 1.99351 0
M  V30 5606 N 524.725 -1.39134 -0.740242 0
M  V30 5607 C 525.973 -1.35803 -1.49673 0
M  V30 5608 C 526.294 0.0470897 -1.94943 0
M  V30 5609 O 525.564 0.997347 -1.68611 0
M  V30 5610 H 524.144 -0.499736 -0.555224 0
M  V30 5611 H 526.806 -1.73947 -0.879107 0
M  V30 5612 H 525.902 -2.0174 -2.38133 0
M  V30 5613 N 526.204 0.969867 -1.24223 0
M  V30 5614 C 527.452 1.70918 -1.0785 0
M  V30 5615 C 527.773 1.91186 0.383763 0
M  V30 5616 O 527.043 1.48806 1.27411 0
M  V30 5617 H 525.623 0.633334 -0.396103 0
M  V30 5618 H 528.285 1.16689 -1.56108 0
M  V30 5619 H 527.381 2.69455 -1.57482 0
M  V30 5620 N 527.682 1.05563 1.17022 0
M  V30 5621 C 529.093 0.793475 1.69 0
M  V30 5622 C 529.444 -0.683882 1.83895 0
M  V30 5623 O 528.569 -1.53116 1.5292 0
M  V30 5624 C 529.164 1.43376 3.06967 0
M  V30 5625 C 527.723 1.21956 3.56095 0
M  V30 5626 C 526.87 1.51494 2.3226 0
M  V30 5627 H 529.821 1.22008 1.01487 0
M  V30 5628 H 529.842 0.845068 3.70997 0
M  V30 5629 H 529.354 2.50899 2.96093 0
M  V30 5630 H 527.455 0.163749 3.7224 0
M  V30 5631 H 527.568 1.92713 4.38633 0
M  V30 5632 H 525.932 0.935175 2.3691 0
M  V30 5633 H 526.715 2.60159 2.23992 0
M  V30 5634 N 529.16 -1.33526 0.837174 0
M  V30 5635 C 530.408 -1.97446 0.431211 0
M  V30 5636 C 530.729 -1.6665 -1.01255 0
M  V30 5637 O 529.999 -0.964559 -1.70508 0
M  V30 5638 H 528.579 -0.73043 0.156463 0
M  V30 5639 H 531.241 -1.62918 1.06976 0
M  V30 5640 H 530.337 -3.07001 0.561877 0
M  V30 5641 N 530.638 -0.59345 -1.46 0
M  V30 5642 C 531.57 0.171569 -2.28557 0
M  V30 5643 C 532.583 0.845273 -1.39137 0
M  V30 5644 O 533.772 0.713033 -1.6364 0
M  V30 5645 C 530.872 1.26311 -3.14482 0
M  V30 5646 C 530.045 0.679258 -4.32094 0
M  V30 5647 C 529.104 1.65987 -4.99334 0
M  V30 5648 O 528.13 1.19171 -5.56585 0
M  V30 5649 N 529.332 2.99414 -4.97324 0
M  V30 5650 H 532.097 -0.536771 -2.94854 0
M  V30 5651 H 529.658 -0.431954 -1.56031 0
M  V30 5652 H 531.65 1.91863 -3.5633 0
M  V30 5653 H 530.22 1.87416 -2.50188 0
M  V30 5654 H 529.44 -0.153992 -3.93899 0
M  V30 5655 H 530.728 0.26916 -5.08088 0
M  V30 5656 H 530.126 3.40064 -4.52076 0
M  V30 5657 H 528.683 3.60426 -5.4308 0
M  V30 5658 N 532.116 1.54067 -0.331816 0
M  V30 5659 C 533.063 2.24623 0.530372 0
M  V30 5660 C 534.033 1.24009 1.10503 0
M  V30 5661 O 535.218 1.52712 1.14384 0
M  V30 5662 C 532.358 3.01374 1.68129 0
M  V30 5663 C 531.471 4.16821 1.13507 0
M  V30 5664 C 530.606 4.81085 2.25234 0
M  V30 5665 C 529.645 5.88621 1.67903 0
M  V30 5666 N 528.782 6.46713 2.73326 0
M  V30 5667 H 533.622 2.97898 -0.0778607 0
M  V30 5668 H 531.159 1.47014 -0.0501965 0
M  V30 5669 H 533.117 3.44125 2.35868 0
M  V30 5670 H 531.747 2.30419 2.26069 0
M  V30 5671 H 530.799 3.78796 0.348979 0
M  V30 5672 H 532.111 4.94203 0.675633 0
M  V30 5673 H 531.265 5.26846 3.00862 0
M  V30 5674 H 530.004 4.03102 2.74518 0
M  V30 5675 H 529.009 5.42254 0.907773 0
M  V30 5676 H 530.234 6.68506 1.19487 0
M  V30 5677 H 528.18 5.71599 3.21886 0
M  V30 5678 H 528.097 7.19532 2.3197 0
M  V30 5679 H 529.365 6.97129 3.48758 0
M  V30 5680 N 533.594 0.0601682 1.57485 0
M  V30 5681 C 534.557 -0.896373 2.10945 0
M  V30 5682 C 535.557 -1.23402 1.03095 0
M  V30 5683 O 536.747 -1.16921 1.29132 0
M  V30 5684 C 533.879 -2.20346 2.60116 0
M  V30 5685 H 535.072 -0.432778 2.96761 0
M  V30 5686 H 532.625 -0.188372 1.55161 0
M  V30 5687 H 533.36 -2.71268 1.7772 0
M  V30 5688 H 533.145 -1.9714 3.38937 0
M  V30 5689 H 534.635 -2.88846 3.01592 0
M  V30 5690 N 535.072 -1.5615 -0.213296 0
M  V30 5691 C 536.488 -1.49327 -0.56336 0
M  V30 5692 C 536.688 -0.756826 -1.86747 0
M  V30 5693 O 535.744 -0.299866 -2.50713 0
M  V30 5694 C 537.057 -2.9392 -0.634944 0
M  V30 5695 C 538.605 -3.04487 -0.725013 0
M  V30 5696 C 539.08 -4.50456 -0.82787 0
M  V30 5697 N 540.571 -4.54533 -0.891876 0
M  V30 5698 C 541.306 -5.64766 -0.991315 0
M  V30 5699 N 540.802 -6.84733 -1.05419 0
M  V30 5700 N 542.595 -5.52637 -1.02709 0
M  V30 5701 H 534.746 -2.02453 0.642366 0
M  V30 5702 H 537.009 -0.920548 0.226487 0
M  V30 5703 H 536.715 -3.50783 0.253859 0
M  V30 5704 H 536.589 -3.46274 -1.49579 0
M  V30 5705 H 538.976 -2.47685 -1.60425 0
M  V30 5706 H 539.057 -2.55289 0.161669 0
M  V30 5707 H 538.701 -5.07878 0.0469464 0
M  V30 5708 H 538.631 -4.97369 -1.73009 0
M  V30 5709 H 541.122 -3.68141 -0.85327 0
M  V30 5710 H 541.435 -7.64493 -1.13007 0
M  V30 5711 H 539.78 -6.87427 -1.02318 0
M  V30 5712 H 542.971 -4.5784 -0.974687 0
M  V30 5713 H 543.144 -6.38576 -1.10113 0
M  V30 5714 N 536.55 0.480323 -1.50102 0
M  V30 5715 C 537.48 1.58769 -1.71215 0
M  V30 5716 C 538.461 1.60583 -0.560997 0
M  V30 5717 O 539.646 1.76996 -0.799127 0
M  V30 5718 C 536.776 2.97148 -1.79778 0
M  V30 5719 C 535.73 3.10201 -2.94888 0
M  V30 5720 C 535.056 4.50137 -2.88584 0
M  V30 5721 C 536.356 2.88283 -4.35534 0
M  V30 5722 H 538.05 1.41354 -2.6393 0
M  V30 5723 H 535.596 0.678591 -1.27008 0
M  V30 5724 H 537.549 3.74536 -1.93133 0
M  V30 5725 H 536.273 3.15699 -0.836772 0
M  V30 5726 H 534.932 2.35244 -2.81169 0
M  V30 5727 H 534.58 4.65593 -1.90349 0
M  V30 5728 H 534.28 4.59808 -3.65856 0
M  V30 5729 H 535.804 5.29558 -3.03976 0
M  V30 5730 H 537.218 3.55427 -4.49827 0
M  V30 5731 H 535.615 3.09408 -5.14186 0
M  V30 5732 H 536.685 1.84219 -4.48544 0
M  V30 5733 N 538.028 1.39524 0.732853 0
M  V30 5734 C 538.961 1.32806 1.85574 0
M  V30 5735 C 539.939 0.201354 1.61348 0
M  V30 5736 O 541.123 0.38216 1.84585 0
M  V30 5737 C 538.25 1.06271 3.21596 0
M  V30 5738 C 537.296 2.21161 3.64678 0
M  V30 5739 S 538.129 3.83454 3.73796 0
M  V30 5740 C 539.285 3.59149 5.12604 0
M  V30 5741 H 539.518 2.27838 1.9099 0
M  V30 5742 H 537.051 1.25605 0.897927 0
M  V30 5743 H 539.009 0.916461 4.00139 0
M  V30 5744 H 537.67 0.129223 3.13834 0
M  V30 5745 H 536.863 1.98193 4.63396 0
M  V30 5746 H 536.465 2.32 2.93346 0
M  V30 5747 H 538.757 3.16547 5.99003 0
M  V30 5748 H 539.7 4.57335 5.40602 0
M  V30 5749 H 540.108 2.93203 4.82382 0
M  V30 5750 N 539.506 -0.963266 1.24736 0
M  V30 5751 C 540.469 -2.04013 1.04457 0
M  V30 5752 C 541.469 -1.608 0.000335555 0
M  V30 5753 O 542.659 -1.72515 0.241719 0
M  V30 5754 C 539.791 -3.35858 0.584162 0
M  V30 5755 H 540.984 -2.23436 2.00041 0
M  V30 5756 H 538.537 -1.13914 1.07021 0
M  V30 5757 H 539.272 -3.22128 -0.374673 0
M  V30 5758 H 539.057 -3.68568 1.3379 0
M  V30 5759 H 540.547 -4.1502 0.463451 0
M  V30 5760 N 540.985 -1.06182 -1.16461 0
M  V30 5761 C 541.895 -0.682671 -2.24448 0
M  V30 5762 C 542.911 0.30078 -1.71381 0
M  V30 5763 O 544.087 0.150376 -2.00838 0
M  V30 5764 C 541.152 -0.0737202 -3.46622 0
M  V30 5765 C 540.213 -1.10889 -4.14731 0
M  V30 5766 C 539.446 -0.528908 -5.31073 0
M  V30 5767 O 539.669 0.65868 -5.66584 0
M  V30 5768 O 538.603 -1.26805 -5.88391 0
M  V30 5769 H 542.429 -1.58291 -2.59187 0
M  V30 5770 H 540.014 -0.834013 -1.23954 0
M  V30 5771 H 541.896 0.264192 -4.20571 0
M  V30 5772 H 540.571 0.800015 -3.13658 0
M  V30 5773 H 539.478 -1.49896 -3.42756 0
M  V30 5774 H 540.811 -1.95412 -4.51747 0
M  V30 5775 N 542.463 1.3308 -0.844243 0
M  V30 5776 C 543.426 2.27403 -0.286485 0
M  V30 5777 C 544.426 1.51179 0.547872 0
M  V30 5778 O 545.616 1.70421 0.360886 0
M  V30 5779 C 542.748 3.35653 0.595813 0
M  V30 5780 H 543.941 2.78248 -1.11885 0
M  V30 5781 H 541.494 1.43574 -0.617749 0
M  V30 5782 H 542.229 2.90058 1.4504 0
M  V30 5783 H 542.014 3.921 -0.00125994 0
M  V30 5784 H 543.504 4.05958 0.979168 0
M  V30 5785 N 543.941 0.601185 1.45683 0
M  V30 5786 C 544.871 -0.108824 2.33246 0
M  V30 5787 C 545.852 -0.865223 1.46451 0
M  V30 5788 O 547.037 -0.83704 1.75235 0
M  V30 5789 C 544.167 -1.11101 3.2905 0
M  V30 5790 C 543.121 -0.468244 4.25431 0
M  V30 5791 C 542.447 -1.57822 5.10878 0
M  V30 5792 C 543.747 0.606469 5.18767 0
M  V30 5793 H 545.441 0.622306 2.92861 0
M  V30 5794 H 542.987 0.300714 1.40825 0
M  V30 5795 H 544.94 -1.61622 3.89174 0
M  V30 5796 H 543.664 -1.87265 2.67581 0
M  V30 5797 H 542.323 0.0160484 3.66596 0
M  V30 5798 H 541.971 -2.32998 4.45781 0
M  V30 5799 H 541.671 -1.15369 5.76163 0
M  V30 5800 H 543.195 -2.08583 5.73869 0
M  V30 5801 H 544.609 0.185589 5.73 0
M  V30 5802 H 543.006 0.952381 5.92494 0
M  V30 5803 H 544.076 1.48559 4.61582 0
M  V30 5804 N 545.419 -1.53889 0.339982 0
M  V30 5805 C 546.366 -2.24902 -0.518452 0
M  V30 5806 C 547.336 -1.24593 -1.09844 0
M  V30 5807 O 548.521 -1.53317 -1.13572 0
M  V30 5808 C 545.661 -3.02262 -1.66529 0
M  V30 5809 C 544.774 -4.17418 -1.11295 0
M  V30 5810 C 543.909 -4.82273 -2.2268 0
M  V30 5811 C 542.948 -5.89503 -1.6478 0
M  V30 5812 N 542.085 -6.48153 -2.69893 0
M  V30 5813 H 546.925 -2.97853 0.0936579 0
M  V30 5814 H 544.462 -1.46986 0.0579924 0
M  V30 5815 H 546.42 -3.45371 -2.3404 0
M  V30 5816 H 545.05 -2.31614 -2.24844 0
M  V30 5817 H 544.102 -3.78976 -0.328886 0
M  V30 5818 H 545.414 -4.94554 -0.649414 0
M  V30 5819 H 544.568 -5.28435 -2.98063 0
M  V30 5820 H 543.307 -4.04552 -2.72376 0
M  V30 5821 H 542.312 -5.42728 -0.879004 0
M  V30 5822 H 543.537 -6.6913 -1.1594 0
M  V30 5823 H 541.483 -5.73298 -3.1885 0
M  V30 5824 H 541.4 -7.20752 -2.28151 0
M  V30 5825 H 542.668 -6.98968 -3.45056 0
M  V30 5826 N 546.897 -0.0685191 -1.57451 0
M  V30 5827 C 547.807 0.914677 -2.16034 0
M  V30 5828 C 548.823 1.32938 -1.12265 0
M  V30 5829 O 549.999 1.40275 -1.44516 0
M  V30 5830 C 547.064 2.16519 -2.70777 0
M  V30 5831 C 546.125 1.80721 -3.89408 0
M  V30 5832 C 545.358 2.9981 -4.41531 0
M  V30 5833 O 545.581 4.13727 -3.92666 0
M  V30 5834 O 544.515 2.79817 -5.32903 0
M  V30 5835 H 548.341 0.446364 -3.00402 0
M  V30 5836 H 545.926 0.154367 -1.486 0
M  V30 5837 H 547.808 2.89856 -3.05878 0
M  V30 5838 H 546.483 2.62454 -1.89471 0
M  V30 5839 H 545.39 1.04646 -3.59166 0
M  V30 5840 H 546.723 1.39571 -4.71997 0
M  V30 5841 N 548.375 1.56261 0.205012 0
M  V30 5842 C 549.621 1.80306 0.9283 0
M  V30 5843 C 549.954 0.640932 1.83319 0
M  V30 5844 O 549.229 -0.359032 1.91158 0
M  V30 5845 C 549.512 3.14547 1.75306 0
M  V30 5846 C 549.365 4.41236 0.873562 0
M  V30 5847 C 550.684 3.45382 2.72762 0
M  V30 5848 H 547.803 0.655929 0.336044 0
M  V30 5849 H 550.445 1.88984 0.196211 0
M  V30 5850 H 548.595 3.0728 2.37721 0
M  V30 5851 H 550.267 4.60539 0.264887 0
M  V30 5852 H 548.51 4.33427 0.179773 0
M  V30 5853 H 549.181 5.31639 1.48541 0
M  V30 5854 H 551.657 3.52884 2.20481 0
M  V30 5855 H 550.533 4.40449 3.2756 0
M  V30 5856 H 550.794 2.68377 3.51321 0
M  V30 5857 N 549.853 -0.472356 1.50355 0
M  V30 5858 C 551.102 -1.2213 1.60522 0
M  V30 5859 C 551.415 -1.9312 0.310466 0
M  V30 5860 O 552.621 -2.69936 0.291029 0
M  V30 5861 C 551.077 -2.21909 2.83345 0
M  V30 5862 C 550.685 -1.56727 4.19691 0
M  V30 5863 C 552.429 -2.97453 3.02856 0
M  V30 5864 C 550.336 -2.54785 5.33703 0
M  V30 5865 H 549.266 -0.459543 0.597776 0
M  V30 5866 H 551.917 -0.491922 1.76783 0
M  V30 5867 H 550.299 -2.98133 2.60639 0
M  V30 5868 H 551.473 -0.863007 4.52646 0
M  V30 5869 H 549.788 -0.934685 4.05774 0
M  V30 5870 H 552.385 -3.70838 3.85205 0
M  V30 5871 H 552.728 -3.56764 2.14534 0
M  V30 5872 H 553.261 -2.28342 3.25737 0
M  V30 5873 H 550 -2.00214 6.24175 0
M  V30 5874 H 549.52 -3.23367 5.05167 0
M  V30 5875 H 551.199 -3.16639 5.64224 0
M  V30 5876 N 551.331 -1.39911 -0.725443 0
M  V30 5877 C 552.579 -1.37382 -1.48224 0
M  V30 5878 C 552.9 0.0264107 -1.94982 0
M  V30 5879 O 552.17 0.979408 -1.6966 0
M  V30 5880 H 550.75 -0.505596 -0.549892 0
M  V30 5881 H 553.412 -1.7487 -0.860608 0
M  V30 5882 H 552.508 -2.04254 -2.3598 0
M  V30 5883 N 552.809 0.956637 -1.25245 0
M  V30 5884 C 554.22 1.51569 -1.09012 0
M  V30 5885 C 554.571 1.93322 0.334813 0
M  V30 5886 O 553.696 1.78421 1.22454 0
M  V30 5887 C 554.291 2.75444 -1.97271 0
M  V30 5888 C 552.85 3.27669 -1.8523 0
M  V30 5889 C 551.997 2.00517 -1.91542 0
M  V30 5890 H 554.948 0.773746 -1.3856 0
M  V30 5891 H 554.969 3.4919 -1.51151 0
M  V30 5892 H 554.481 2.45024 -3.00973 0
M  V30 5893 H 552.582 3.62914 -0.844045 0
M  V30 5894 H 552.695 3.9582 -2.69932 0
M  V30 5895 H 551.059 2.15727 -1.35404 0
M  V30 5896 H 551.842 1.72448 -2.96844 0
M  V30 5897 N 554.287 1.06798 1.15896 0
M  V30 5898 C 555.25 0.687328 2.18651 0
M  V30 5899 C 556.25 -0.269559 1.58524 0
M  V30 5900 O 557.44 -0.0512627 1.74125 0
M  V30 5901 C 554.572 0.0121642 3.40898 0
M  V30 5902 H 555.765 1.59701 2.53842 0
M  V30 5903 H 553.318 0.863828 1.3026 0
M  V30 5904 H 554.053 -0.910025 3.1127 0
M  V30 5905 H 553.838 0.700309 3.85795 0
M  V30 5906 H 555.328 -0.239703 4.16911 0
M  V30 5907 N 555.766 -1.3263 0.851289 0
M  V30 5908 C 557.177 -1.79653 0.5081 0
M  V30 5909 C 557.528 -1.70327 -0.973815 0
M  V30 5910 O 556.653 -1.25986 -1.75944 0
M  V30 5911 C 557.248 -3.26196 0.915515 0
M  V30 5912 C 555.807 -3.71187 0.624277 0
M  V30 5913 C 554.954 -2.53804 1.11709 0
M  V30 5914 H 557.905 -1.19976 1.03882 0
M  V30 5915 H 557.926 -3.79801 0.230535 0
M  V30 5916 H 557.438 -3.32952 1.99411 0
M  V30 5917 H 555.539 -3.69948 -0.443737 0
M  V30 5918 H 555.652 -4.64132 1.18821 0
M  V30 5919 H 554.016 -2.48964 0.537484 0
M  V30 5920 H 554.799 -2.63315 2.20272 0
M  V30 5921 N 557.244 -0.608902 -1.45362 0
M  V30 5922 C 558.493 -0.10218 -2.01441 0
M  V30 5923 C 558.806 1.27546 -1.48295 0
M  V30 5924 O 560.012 1.87498 -1.96359 0
M  V30 5925 C 558.468 -0.131985 -3.59658 0
M  V30 5926 C 558.076 -1.50956 -4.21801 0
M  V30 5927 C 559.82 0.319427 -4.23296 0
M  V30 5928 C 557.727 -1.49568 -5.72174 0
M  V30 5929 H 556.657 -0.0344314 -0.753213 0
M  V30 5930 H 559.308 -0.764426 -1.6682 0
M  V30 5931 H 557.69 0.596939 -3.91475 0
M  V30 5932 H 558.864 -2.26029 -4.01556 0
M  V30 5933 H 557.179 -1.90318 -3.70362 0
M  V30 5934 H 559.776 0.349013 -5.3356 0
M  V30 5935 H 560.119 1.34237 -3.94064 0
M  V30 5936 H 560.652 -0.356273 -3.96201 0
M  V30 5937 H 557.391 -2.49626 -6.06108 0
M  V30 5938 H 556.911 -0.787542 -5.94607 0
M  V30 5939 H 558.59 -1.21989 -6.35396 0
M  V30 5940 N 558.722 1.53707 -0.348139 0
M  V30 5941 C 560.133 1.86213 0.134797 0
M  V30 5942 C 560.484 1.26925 1.49614 0
M  V30 5943 O 559.609 0.584573 2.08355 0
M  V30 5944 C 560.204 3.37866 0.251371 0
M  V30 5945 C 558.763 3.70233 0.678543 0
M  V30 5946 C 557.91 2.76683 -0.184925 0
M  V30 5947 H 560.861 1.48204 -0.567571 0
M  V30 5948 H 560.882 3.64908 1.07806 0
M  V30 5949 H 560.394 3.80988 -0.739581 0
M  V30 5950 H 558.495 3.32659 1.67835 0
M  V30 5951 H 558.608 4.76836 0.465251 0
M  V30 5952 H 556.972 2.52374 0.343465 0
M  V30 5953 H 557.755 3.22635 -1.1731 0
M  V30 5954 N 560.2 0.0768682 1.57412 0
M  V30 5955 C 561.447 -0.591085 1.93681 0
M  V30 5956 C 561.775 -1.69311 0.957286 0
M  V30 5957 O 561.03 -1.95682 -0.0262428 0
M  V30 5958 C 561.329 -1.20268 3.36557 0
M  V30 5959 C 560.995 -0.226286 4.50332 0
M  V30 5960 C 559.657 0.0423142 4.81181 0
M  V30 5961 C 562.009 0.441415 5.19327 0
M  V30 5962 C 559.337 0.985616 5.78362 0
M  V30 5963 C 561.689 1.37307 6.17519 0
M  V30 5964 C 560.353 1.65009 6.46783 0
M  V30 5965 H 559.623 -0.216293 0.70873 0
M  V30 5966 H 562.27 0.148824 1.90921 0
M  V30 5967 H 560.575 -2.01844 3.35807 0
M  V30 5968 H 562.272 -1.72688 3.61911 0
M  V30 5969 H 558.862 -0.445821 4.26275 0
M  V30 5970 H 563.046 0.247023 4.95685 0
M  V30 5971 H 558.302 1.20743 5.99359 0
M  V30 5972 H 562.476 1.89637 6.70083 0
M  V30 5973 H 560.103 2.38263 7.21897 0
M  V30 5974 N 561.678 -1.56367 -0.196722 0
M  V30 5975 C 562.641 -1.93561 -1.22746 0
M  V30 5976 C 563.641 -0.816566 -1.38524 0
M  V30 5977 O 564.831 -1.084 -1.36363 0
M  V30 5978 C 561.963 -2.20823 -2.59712 0
M  V30 5979 H 563.156 -2.85774 -0.909586 0
M  V30 5980 H 560.709 -1.50032 -0.438174 0
M  V30 5981 H 561.444 -1.31243 -2.96557 0
M  V30 5982 H 561.229 -3.02368 -2.49632 0
M  V30 5983 H 562.719 -2.50608 -3.34044 0
M  V30 5984 N 563.156 0.464375 -1.50603 0
M  V30 5985 C 564.119 1.54393 -1.69397 0
M  V30 5986 C 565.119 1.50566 -0.564504 0
M  V30 5987 O 566.309 1.53066 -0.831645 0
M  V30 5988 C 563.441 2.9401 -1.72543 0
M  V30 5989 H 564.634 1.39044 -2.65719 0
M  V30 5990 H 562.187 0.69122 -1.40185 0
M  V30 5991 H 562.922 3.14795 -0.77938 0
M  V30 5992 H 562.707 2.98195 -2.54602 0
M  V30 5993 H 564.197 3.72375 -1.89015 0
M  V30 5994 N 564.634 1.40294 0.718013 0
M  V30 5995 C 565.597 1.4012 1.81381 0
M  V30 5996 C 566.597 0.295405 1.58063 0
M  V30 5997 O 567.787 0.554187 1.6515 0
M  V30 5998 C 564.919 1.19056 3.19435 0
M  V30 5999 H 566.112 2.37645 1.82933 0
M  V30 6000 H 563.665 1.26107 0.923405 0
M  V30 6001 H 564.4 0.222809 3.23534 0
M  V30 6002 H 564.185 1.99152 3.37758 0
M  V30 6003 H 565.675 1.21716 3.99468 0
M  V30 6004 N 566.112 -0.949982 1.2575 0
M  V30 6005 C 567.044 -2.05088 1.02331 0
M  V30 6006 C 568.057 -1.62795 -0.0133247 0
M  V30 6007 O 569.246 -1.77067 0.225759 0
M  V30 6008 C 566.346 -3.34794 0.525924 0
M  V30 6009 C 565.519 -4.05903 1.62978 0
M  V30 6010 C 564.578 -5.1388 1.13196 0
M  V30 6011 O 563.604 -5.39072 1.82729 0
M  V30 6012 N 564.806 -5.80495 -0.0242926 0
M  V30 6013 H 567.571 -2.25747 1.97125 0
M  V30 6014 H 565.132 -1.11886 1.17018 0
M  V30 6015 H 567.124 -4.04312 0.177263 0
M  V30 6016 H 565.694 -3.10872 -0.328202 0
M  V30 6017 H 564.914 -3.3042 2.1498 0
M  V30 6018 H 566.202 -4.50166 2.37124 0
M  V30 6019 H 565.6 -5.62454 -0.605184 0
M  V30 6020 H 564.157 -6.51043 -0.313947 0
M  V30 6021 N 567.59 -1.07411 -1.15328 0
M  V30 6022 C 568.522 -0.652924 -2.19703 0
M  V30 6023 C 569.535 0.294869 -1.60107 0
M  V30 6024 O 570.724 0.0840932 -1.78302 0
M  V30 6025 C 567.824 0.061434 -3.38844 0
M  V30 6026 C 566.997 -0.902696 -4.27984 0
M  V30 6027 C 566.056 -0.225521 -5.25717 0
M  V30 6028 O 565.082 -0.86676 -5.62562 0
M  V30 6029 N 566.284 1.02858 -5.71315 0
M  V30 6030 H 569.049 -1.55081 -2.56457 0
M  V30 6031 H 566.61 -0.958883 -1.30449 0
M  V30 6032 H 568.602 0.525145 -4.01278 0
M  V30 6033 H 567.172 0.861269 -3.00501 0
M  V30 6034 H 566.392 -1.54551 -3.6264 0
M  V30 6035 H 567.68 -1.55636 -4.84412 0
M  V30 6036 H 567.078 1.56948 -5.43492 0
M  V30 6037 H 565.635 1.43596 -6.35786 0
M  V30 6038 N 569.068 1.32177 -0.85831 0
M  V30 6039 C 570.484 1.49873 -0.548656 0
M  V30 6040 C 570.684 1.79278 0.919874 0
M  V30 6041 O 569.74 1.86451 1.70271 0
M  V30 6042 C 571.053 2.64043 -1.4388 0
M  V30 6043 C 572.601 2.77928 -1.43961 0
M  V30 6044 C 573.076 3.95182 -2.31506 0
M  V30 6045 N 574.567 4.0245 -2.29321 0
M  V30 6046 C 575.302 4.9242 -2.93786 0
M  V30 6047 N 574.798 5.87373 -3.67376 0
M  V30 6048 N 576.591 4.85572 -2.83155 0
M  V30 6049 H 568.742 1.11357 -1.80868 0
M  V30 6050 H 571.005 0.549175 -0.772729 0
M  V30 6051 H 570.711 2.49055 -2.48324 0
M  V30 6052 H 570.585 3.59912 -1.12885 0
M  V30 6053 H 572.972 2.92338 -0.402813 0
M  V30 6054 H 573.053 1.82762 -1.78974 0
M  V30 6055 H 572.697 3.81531 -3.35256 0
M  V30 6056 H 572.627 4.89633 -1.93823 0
M  V30 6057 H 575.118 3.34507 -1.75822 0
M  V30 6058 H 575.431 6.52728 -4.13722 0
M  V30 6059 H 573.776 5.87388 -3.71484 0
M  V30 6060 H 576.967 4.10363 -2.25211 0
M  V30 6061 H 577.14 5.55486 -3.33676 0
M  V30 6062 N 570.547 0.616602 1.45037 0
M  V30 6063 C 571.494 -0.0969439 2.30596 0
M  V30 6064 C 572.464 -0.851151 1.42635 0
M  V30 6065 O 573.649 -0.835092 1.71554 0
M  V30 6066 C 570.789 -1.08234 3.27688 0
M  V30 6067 C 569.902 -0.328072 4.30752 0
M  V30 6068 C 569.037 -1.30399 5.14946 0
M  V30 6069 C 568.076 -0.538049 6.09731 0
M  V30 6070 N 567.213 -1.46371 6.86673 0
M  V30 6071 H 572.053 0.63864 2.91076 0
M  V30 6072 H 569.59 0.326733 1.43425 0
M  V30 6073 H 571.548 -1.66688 3.82454 0
M  V30 6074 H 570.178 -1.78523 2.68941 0
M  V30 6075 H 569.23 0.372136 3.78575 0
M  V30 6076 H 570.542 0.269142 4.98073 0
M  V30 6077 H 569.696 -1.96032 5.74157 0
M  V30 6078 H 568.435 -1.93514 4.47665 0
M  V30 6079 H 567.44 0.131852 5.49642 0
M  V30 6080 H 568.665 0.0881732 6.79043 0
M  V30 6081 H 566.611 -2.08233 6.22073 0
M  V30 6082 H 566.528 -0.920152 7.50379 0
M  V30 6083 H 567.796 -2.10932 7.50418 0
M  V30 6084 N 572.025 -1.5352 0.356285 0
M  V30 6085 C 572.988 -2.24071 -0.482182 0
M  V30 6086 C 573.988 -1.24531 -1.01729 0
M  V30 6087 O 575.178 -1.48876 -0.904513 0
M  V30 6088 C 572.31 -2.97025 -1.67299 0
M  V30 6089 H 573.503 -2.99596 0.135031 0
M  V30 6090 H 571.056 -1.55928 0.107825 0
M  V30 6091 H 571.791 -2.25719 -2.32855 0
M  V30 6092 H 571.576 -3.7005 -1.29636 0
M  V30 6093 H 573.066 -3.50683 -2.26741 0
M  V30 6094 N 573.503 -0.0852151 -1.57369 0
M  V30 6095 C 574.75 0.580806 -1.93992 0
M  V30 6096 C 575.078 1.68801 -0.966252 0
M  V30 6097 O 574.333 1.95694 0.0158649 0
M  V30 6098 C 574.632 1.18482 -3.3719 0
M  V30 6099 C 574.298 0.2024 -4.50446 0
M  V30 6100 C 572.96 -0.0678318 -4.81152 0
M  V30 6101 C 575.312 -0.46895 -5.19086 0
M  V30 6102 C 572.64 -1.01627 -5.77831 0
M  V30 6103 C 574.992 -1.4058 -6.16782 0
M  V30 6104 C 573.656 -1.68436 -6.45899 0
M  V30 6105 H 572.926 0.212532 -0.709867 0
M  V30 6106 H 575.573 -0.158947 -1.90839 0
M  V30 6107 H 573.878 2.0006 -3.36873 0
M  V30 6108 H 575.575 1.70767 -3.62822 0
M  V30 6109 H 572.165 0.423208 -4.26505 0
M  V30 6110 H 576.349 -0.273307 -4.95547 0
M  V30 6111 H 571.605 -1.2392 -5.9871 0
M  V30 6112 H 575.779 -1.93188 -6.69068 0
M  V30 6113 H 573.406 -2.42088 -7.20623 0
M  V30 6114 N 574.981 1.5647 0.188427 0
M  V30 6115 C 575.928 1.95073 1.23349 0
M  V30 6116 C 576.898 0.812238 1.44886 0
M  V30 6117 O 578.083 1.07095 1.57909 0
M  V30 6118 C 575.223 2.30124 2.57171 0
M  V30 6119 C 574.336 3.57069 2.43157 0
M  V30 6120 C 573.471 3.81411 3.69729 0
M  V30 6121 C 572.51 5.0176 3.50575 0
M  V30 6122 N 571.647 5.22321 4.69175 0
M  V30 6123 H 576.487 2.84171 0.89728 0
M  V30 6124 H 574.024 1.40623 0.431683 0
M  V30 6125 H 575.982 2.48463 3.35145 0
M  V30 6126 H 574.612 1.44159 2.88822 0
M  V30 6127 H 573.664 3.4674 1.56447 0
M  V30 6128 H 574.976 4.452 2.24942 0
M  V30 6129 H 574.13 4.00026 4.56141 0
M  V30 6130 H 572.869 2.91624 3.90905 0
M  V30 6131 H 571.874 4.83061 2.62549 0
M  V30 6132 H 573.099 5.93063 3.30837 0
M  V30 6133 H 571.045 4.35483 4.90602 0
M  V30 6134 H 570.962 6.04643 4.53809 0
M  V30 6135 H 572.23 5.45401 5.56919 0
M  V30 6136 N 576.459 -0.456382 1.50847 0
M  V30 6137 C 577.699 -1.21704 1.64218 0
M  V30 6138 C 578.063 -1.88932 0.341859 0
M  V30 6139 O 579.264 -2.66497 0.351137 0
M  V30 6140 C 577.535 -2.22162 2.79962 0
M  V30 6141 S 579.094 -3.0697 3.13552 0
M  V30 6142 H 575.912 -0.412995 0.578754 0
M  V30 6143 H 578.514 -0.511637 1.88686 0
M  V30 6144 H 577.218 -1.71379 3.72904 0
M  V30 6145 H 576.749 -2.9731 2.57624 0
M  V30 6146 H 578.764 -4.23539 2.58513 0
M  V30 6147 N 577.937 -1.40673 -0.710563 0
M  V30 6148 C 579.183 -1.4043 -1.47142 0
M  V30 6149 C 579.538 -0.00781557 -1.92398 0
M  V30 6150 O 578.831 0.963535 -1.6561 0
M  V30 6151 C 579.025 -2.33253 -2.70791 0
M  V30 6152 C 578.854 -3.81789 -2.37629 0
M  V30 6153 C 577.624 -4.5057 -2.28724 0
M  V30 6154 C 579.822 -4.73152 -2.01572 0
M  V30 6155 N 577.804 -5.84312 -1.88289 0
M  V30 6156 C 579.175 -5.95728 -1.71778 0
M  V30 6157 C 581.23 -4.6094 -1.88252 0
M  V30 6158 C 579.933 -7.07454 -1.30003 0
M  V30 6159 C 581.959 -5.72613 -1.47881 0
M  V30 6160 C 581.321 -6.94278 -1.18987 0
M  V30 6161 H 577.42 -0.569115 -0.536314 0
M  V30 6162 H 580.004 -1.76425 -0.823547 0
M  V30 6163 H 578.175 -1.99378 -3.33321 0
M  V30 6164 H 579.907 -2.23833 -3.37166 0
M  V30 6165 H 576.662 -4.04315 -2.46629 0
M  V30 6166 H 577.086 -6.55153 -1.70596 0
M  V30 6167 H 581.728 -3.67389 -2.09249 0
M  V30 6168 H 579.446 -8.00884 -1.07749 0
M  V30 6169 H 583.032 -5.65161 -1.38145 0
M  V30 6170 H 581.912 -7.79222 -0.88219 0
M  V30 6171 N 579.415 0.9433 -1.26252 0
M  V30 6172 C 580.363 2.06302 -1.07434 0
M  V30 6173 C 581.357 1.694 -0.00189471 0
M  V30 6174 O 582.563 1.79302 -0.158408 0
M  V30 6175 H 578.938 0.675453 -0.330556 0
M  V30 6176 H 580.909 2.19326 -2.02333 0
M  V30 6177 C 579.658 3.40125 -0.721817 0
M  V30 6178 H 578.981 3.68996 -1.5389 0
M  V30 6179 H 580.421 4.19295 -0.629922 0
M  V30 6180 C 578.88 3.31993 0.572902 0
M  V30 6181 O 579.41 3.67945 1.61182 0
M  V30 6182 N 577.616 2.85099 0.562748 0
M  V30 6183 H 577.163 2.5604 -0.283092 0
M  V30 6184 H 577.121 2.80041 1.42915 0
M  V30 6185 N 580.893 1.08022 1.14757 0
M  V30 6186 C 582.133 0.816959 1.87364 0
M  V30 6187 C 582.497 -0.645407 1.80827 0
M  V30 6188 O 583.698 -1.024 2.48531 0
M  V30 6189 C 581.969 1.31961 3.32146 0
M  V30 6190 S 583.528 1.18806 4.2241 0
M  V30 6191 H 580.346 0.295862 0.646519 0
M  V30 6192 H 582.948 1.3807 1.38408 0
M  V30 6193 H 581.652 2.37847 3.3445 0
M  V30 6194 H 581.183 0.751371 3.86158 0
M  V30 6195 H 583.198 0.129865 4.9603 0
M  V30 6196 N 582.371 -1.3172 0.865308 0
M  V30 6197 C 583.619 -1.96487 0.472995 0
M  V30 6198 C 583.94 -1.68761 -0.976975 0
M  V30 6199 O 583.21 -1.00051 -1.68424 0
M  V30 6200 H 581.79 -0.726947 0.171922 0
M  V30 6201 H 584.452 -1.60612 1.10407 0
M  V30 6202 H 583.548 -3.0574 0.62687 0
M  V30 6203 N 583.85 -0.624285 -1.44708 0
M  V30 6204 C 584.797 0.0847135 -2.30644 0
M  V30 6205 C 585.767 0.843575 -1.43084 0
M  V30 6206 O 586.952 0.825982 -1.71995 0
M  V30 6207 C 584.091 1.06495 -3.28257 0
M  V30 6208 C 583.205 0.305224 -4.3092 0
M  V30 6209 C 582.34 1.27667 -5.1563 0
M  V30 6210 C 581.379 0.505706 -6.10007 0
M  V30 6211 N 580.516 1.42727 -6.8744 0
M  V30 6212 H 585.356 -0.654068 -2.90733 0
M  V30 6213 H 582.893 -0.334334 -1.4325 0
M  V30 6214 H 584.851 1.64658 -3.83332 0
M  V30 6215 H 583.481 1.77094 -2.69884 0
M  V30 6216 H 582.533 -0.392207 -3.78373 0
M  V30 6217 H 583.845 -0.295553 -4.97924 0
M  V30 6218 H 582.999 1.92984 -5.75189 0
M  V30 6219 H 581.738 1.91137 -4.48685 0
M  V30 6220 H 580.743 -0.160999 -5.49564 0
M  V30 6221 H 581.968 -0.124183 -6.78986 0
M  V30 6222 H 579.913 2.04931 -6.23169 0
M  V30 6223 H 579.831 0.880345 -7.50857 0
M  V30 6224 H 581.099 2.0695 -7.51526 0
M  V30 6225 N 585.328 1.53329 -0.364422 0
M  V30 6226 C 586.238 2.29414 0.490552 0
M  V30 6227 C 587.254 1.35335 1.09363 0
M  V30 6228 O 588.43 1.68391 1.10483 0
M  V30 6229 C 585.495 3.06772 1.61529 0
M  V30 6230 C 584.556 4.16516 1.03986 0
M  V30 6231 C 583.789 4.90176 2.111 0
M  V30 6232 O 584.012 4.63687 3.32191 0
M  V30 6233 O 582.946 5.76134 1.74222 0
M  V30 6234 H 586.772 3.03428 -0.12856 0
M  V30 6235 H 584.357 1.48843 -0.128837 0
M  V30 6236 H 586.239 3.55082 2.26924 0
M  V30 6237 H 584.914 2.35596 2.21983 0
M  V30 6238 H 583.821 3.7246 0.349856 0
M  V30 6239 H 585.154 4.89855 0.4799 0
M  V30 6240 N 586.806 0.0935595 1.57322 0
M  V30 6241 C 588.054 -0.569383 1.93913 0
M  V30 6242 C 588.375 -1.68817 0.976009 0
M  V30 6243 O 587.645 -1.9588 0.0278099 0
M  V30 6244 H 586.225 -0.21332 0.715894 0
M  V30 6245 H 588.887 0.156531 1.9427 0
M  V30 6246 H 587.983 -0.980577 2.96296 0
M  V30 6247 N 588.284 -1.56567 -0.180126 0
M  V30 6248 C 589.234 -1.92132 -1.22756 0
M  V30 6249 C 590.218 -0.788639 -1.40247 0
M  V30 6250 O 591.41 -1.05171 -1.42366 0
M  V30 6251 C 588.539 -2.27719 -2.56902 0
M  V30 6252 C 587.625 -3.47481 -2.43142 0
M  V30 6253 N 588.016 -4.64973 -1.99082 0
M  V30 6254 C 586.314 -3.51914 -2.73994 0
M  V30 6255 C 587.015 -5.47119 -1.97574 0
M  V30 6256 N 585.991 -4.87925 -2.39645 0
M  V30 6257 H 589.793 -2.80464 -0.878478 0
M  V30 6258 H 587.307 -1.57686 -0.388463 0
M  V30 6259 H 589.304 -2.51389 -3.32579 0
M  V30 6260 H 587.964 -1.40722 -2.92621 0
M  V30 6261 H 588.975 -4.89358 -1.69557 0
M  V30 6262 H 585.652 -2.75372 -3.13809 0
M  V30 6263 H 587.042 -6.51254 -1.65282 0
M  V30 6264 N 589.762 0.448376 -1.51087 0
M  V30 6265 C 590.987 1.22605 -1.6728 0
M  V30 6266 C 591.412 1.84524 -0.365045 0
M  V30 6267 O 590.77 1.6832 0.673642 0
M  V30 6268 C 590.818 2.29393 -2.78229 0
M  V30 6269 O 589.922 3.34608 -2.41063 0
M  V30 6270 H 589.263 0.359705 -0.558129 0
M  V30 6271 H 591.793 0.530903 -1.97592 0
M  V30 6272 H 591.803 2.74352 -3.01986 0
M  V30 6273 H 590.478 1.83701 -3.73131 0
M  V30 6274 H 589.055 2.95202 -2.27838 0
M  V30 6275 N 591.24 1.41047 0.703093 0
M  V30 6276 C 592.203 1.42036 1.79884 0
M  V30 6277 C 593.203 0.312153 1.57741 0
M  V30 6278 O 594.393 0.571672 1.64553 0
M  V30 6279 C 591.525 1.22437 3.18154 0
M  V30 6280 H 592.718 2.39572 1.80403 0
M  V30 6281 H 590.271 1.27079 0.909977 0
M  V30 6282 H 591.006 0.257112 3.23279 0
M  V30 6283 H 590.791 2.02723 3.35627 0
M  V30 6284 H 592.281 1.25946 3.98155 0
M  V30 6285 N 592.718 -0.936591 1.26751 0
M  V30 6286 C 594.134 -1.21095 1.03963 0
M  V30 6287 C 594.334 -2.00156 -0.232372 0
M  V30 6288 O 593.39 -2.3434 -0.940274 0
M  V30 6289 C 594.703 -1.96775 2.27377 0
M  V30 6290 C 596.251 -2.09749 2.32324 0
M  V30 6291 C 596.726 -2.88832 3.55443 0
M  V30 6292 N 598.217 -2.96404 3.55948 0
M  V30 6293 C 598.952 -3.58036 4.47881 0
M  V30 6294 N 598.448 -4.21132 5.50109 0
M  V30 6295 N 600.241 -3.55353 4.35523 0
M  V30 6296 H 592.392 -0.408173 2.08441 0
M  V30 6297 H 594.655 -0.243139 0.91629 0
M  V30 6298 H 594.361 -1.46094 3.19921 0
M  V30 6299 H 594.235 -2.97424 2.31989 0
M  V30 6300 H 596.622 -2.5962 1.40291 0
M  V30 6301 H 596.703 -1.08347 2.31721 0
M  V30 6302 H 596.347 -2.39647 4.47808 0
M  V30 6303 H 596.277 -3.90499 3.53296 0
M  V30 6304 H 598.768 -2.51552 2.82011 0
M  V30 6305 H 599.081 -4.66071 6.16439 0
M  V30 6306 H 597.426 -4.19705 5.53961 0
M  V30 6307 H 600.617 -3.05256 3.54875 0
M  V30 6308 H 600.79 -4.03097 5.07363 0
M  V30 6309 N 594.196 -1.08629 -1.14182 0
M  V30 6310 C 595.128 -0.676189 -2.18998 0
M  V30 6311 C 596.141 0.277871 -1.60411 0
M  V30 6312 O 597.33 0.0651771 -1.78381 0
M  V30 6313 C 594.43 0.0254916 -3.3889 0
M  V30 6314 C 593.603 -0.948039 -4.27002 0
M  V30 6315 C 592.662 -0.281268 -5.25448 0
M  V30 6316 O 591.688 -0.926378 -5.61611 0
M  V30 6317 N 592.89 0.967923 -5.72374 0
M  V30 6318 H 595.655 -1.57792 -2.54798 0
M  V30 6319 H 593.216 -0.972665 -1.29425 0
M  V30 6320 H 595.208 0.482554 -4.01813 0
M  V30 6321 H 593.778 0.829348 -3.01398 0
M  V30 6322 H 592.998 -1.58388 -3.6098 0
M  V30 6323 H 594.286 -1.60765 -4.82734 0
M  V30 6324 H 593.684 1.51175 -5.45126 0
M  V30 6325 H 592.241 1.36844 -6.37273 0
M  V30 6326 N 595.674 1.31259 -0.872281 0
M  V30 6327 C 596.914 1.98418 -0.490894 0
M  V30 6328 C 597.278 1.67429 0.939755 0
M  V30 6329 O 598.479 2.27818 1.42661 0
M  V30 6330 C 596.75 3.49583 -0.743408 0
M  V30 6331 S 598.309 4.36359 -0.462226 0
M  V30 6332 H 595.127 0.687005 -0.183151 0
M  V30 6333 H 597.729 1.59619 -1.12881 0
M  V30 6334 H 596.433 3.69627 -1.78338 0
M  V30 6335 H 595.964 3.93291 -0.0925758 0
M  V30 6336 H 597.979 4.91173 0.704525 0
M  V30 6337 N 597.152 0.631951 1.44375 0
M  V30 6338 C 598.568 0.297642 1.568 0
M  V30 6339 C 598.768 -1.19916 1.61934 0
M  V30 6340 O 597.824 -1.98324 1.56281 0
M  V30 6341 C 599.137 0.990286 2.83926 0
M  V30 6342 C 600.685 0.968507 2.97639 0
M  V30 6343 C 601.16 1.64163 4.27568 0
M  V30 6344 N 602.651 1.60826 4.34384 0
M  V30 6345 C 603.386 2.09802 5.33639 0
M  V30 6346 N 602.882 2.66973 6.39294 0
M  V30 6347 N 604.675 2.00426 5.25153 0
M  V30 6348 H 596.826 1.60353 1.39286 0
M  V30 6349 H 599.089 0.673142 0.667521 0
M  V30 6350 H 598.795 2.04519 2.8612 0
M  V30 6351 H 598.669 0.528563 3.73478 0
M  V30 6352 H 601.056 -0.0779247 2.94997 0
M  V30 6353 H 601.137 1.46873 2.09433 0
M  V30 6354 H 600.781 2.68752 4.3097 0
M  V30 6355 H 600.711 1.11624 5.14634 0
M  V30 6356 H 603.202 1.19087 3.58646 0
M  V30 6357 H 603.515 3.02074 7.11316 0
M  V30 6358 H 601.86 2.71024 6.39977 0
M  V30 6359 H 605.051 1.55483 4.41523 0
M  V30 6360 H 605.224 2.38906 6.02352 0
M  V30 6361 N 598.631 -1.53133 0.372548 0
M  V30 6362 C 599.594 -2.24569 -0.458389 0
M  V30 6363 C 600.594 -1.25603 -1.00402 0
M  V30 6364 O 601.784 -1.49827 -0.888672 0
M  V30 6365 C 598.916 -2.98783 -1.6414 0
M  V30 6366 H 600.109 -2.99436 0.166799 0
M  V30 6367 H 597.662 -1.55805 0.124357 0
M  V30 6368 H 598.397 -2.28176 -2.30448 0
M  V30 6369 H 598.182 -3.71404 -1.25704 0
M  V30 6370 H 599.672 -3.53068 -2.23008 0
M  V30 6371 N 600.109 -0.101901 -1.5727 0
M  V30 6372 C 601.52 0.426173 -1.81771 0
M  V30 6373 C 601.871 1.67725 -1.01797 0
M  V30 6374 O 600.996 2.14958 -0.249386 0
M  V30 6375 C 601.591 0.779962 -3.297 0
M  V30 6376 C 600.15 1.25275 -3.54941 0
M  V30 6377 C 599.297 0.252814 -2.76145 0
M  V30 6378 H 602.248 -0.32726 -1.55289 0
M  V30 6379 H 602.269 1.63891 -3.43395 0
M  V30 6380 H 601.781 -0.130778 -3.8788 0
M  V30 6381 H 599.882 2.18097 -3.021 0
M  V30 6382 H 599.995 1.20988 -4.63572 0
M  V30 6383 H 598.359 0.736362 -2.43823 0
M  V30 6384 H 599.142 -0.650724 -3.37076 0
M  V30 6385 N 601.587 1.56661 0.17182 0
M  V30 6386 C 603.003 1.50768 0.52357 0
M  V30 6387 C 603.203 0.806072 1.84675 0
M  V30 6388 O 602.259 0.366233 2.4983 0
M  V30 6389 C 603.572 2.955 0.556793 0
M  V30 6390 C 605.12 3.06303 0.644029 0
M  V30 6391 C 605.595 4.52492 0.708148 0
M  V30 6392 N 607.086 4.56737 0.771051 0
M  V30 6393 C 607.821 5.67196 0.841229 0
M  V30 6394 N 607.317 6.87287 0.872272 0
M  V30 6395 N 609.11 5.55165 0.88021 0
M  V30 6396 H 601.261 2.00679 -0.695817 0
M  V30 6397 H 603.524 0.914219 -0.250814 0
M  V30 6398 H 603.23 3.49986 -0.346774 0
M  V30 6399 H 603.104 3.50119 1.40346 0
M  V30 6400 H 605.491 2.51851 1.53802 0
M  V30 6401 H 605.572 2.5477 -0.229297 0
M  V30 6402 H 605.216 5.07575 -0.181585 0
M  V30 6403 H 605.146 5.01781 1.59761 0
M  V30 6404 H 607.637 3.70274 0.755364 0
M  V30 6405 H 607.95 7.6722 0.92698 0
M  V30 6406 H 606.295 6.89898 0.840557 0
M  V30 6407 H 609.486 4.60263 0.852956 0
M  V30 6408 H 609.659 6.41271 0.931439 0
M  V30 6409 N 603.065 -0.440357 1.51323 0
M  V30 6410 C 604.481 -0.7766 1.39431 0
M  V30 6411 C 604.681 -1.95838 0.474296 0
M  V30 6412 O 603.737 -2.52398 -0.0716692 0
M  V30 6413 C 605.05 -1.05981 2.81405 0
M  V30 6414 C 606.598 -1.16442 2.90534 0
M  V30 6415 C 607.073 -1.48058 4.33408 0
M  V30 6416 N 608.564 -1.54988 4.36501 0
M  V30 6417 C 609.299 -1.81017 5.44078 0
M  V30 6418 N 608.795 -2.04858 6.61819 0
M  V30 6419 N 610.588 -1.82774 5.31554 0
M  V30 6420 H 602.739 0.338006 2.09693 0
M  V30 6421 H 605.002 0.0888072 0.943831 0
M  V30 6422 H 604.708 -0.264173 3.50706 0
M  V30 6423 H 604.582 -1.98822 3.20546 0
M  V30 6424 H 606.969 -1.95068 2.21432 0
M  V30 6425 H 607.05 -0.215088 2.54894 0
M  V30 6426 H 606.694 -0.699605 5.03059 0
M  V30 6427 H 606.624 -2.44192 4.66559 0
M  V30 6428 H 609.115 -1.38479 3.51613 0
M  V30 6429 H 609.428 -2.2408 7.396 0
M  V30 6430 H 607.773 -2.02187 6.6494 0
M  V30 6431 H 610.964 -1.63665 4.38556 0
M  V30 6432 H 611.137 -2.02722 6.15474 0
M  V30 6433 N 604.543 -1.41418 -0.695603 0
M  V30 6434 C 605.475 -1.39195 -1.82092 0
M  V30 6435 C 606.488 -0.294132 -1.60121 0
M  V30 6436 O 607.677 -0.555854 -1.69625 0
M  V30 6437 C 604.777 -1.14828 -3.18854 0
M  V30 6438 C 603.95 -2.36649 -3.67853 0
M  V30 6439 C 603.009 -2.08139 -4.83285 0
M  V30 6440 O 602.035 -2.81177 -4.94902 0
M  V30 6441 N 603.237 -1.07162 -5.70523 0
M  V30 6442 H 606.002 -2.36185 -1.84491 0
M  V30 6443 H 603.563 -1.3603 -0.877923 0
M  V30 6444 H 605.555 -0.937075 -3.93702 0
M  V30 6445 H 604.125 -0.264358 -3.1148 0
M  V30 6446 H 603.345 -2.73472 -2.83913 0
M  V30 6447 H 604.633 -3.17816 -3.97329 0
M  V30 6448 H 604.031 -0.467124 -5.63768 0
M  V30 6449 H 602.588 -0.920311 -6.4527 0
M  V30 6450 N 606.021 0.929856 -1.27246 0
M  V30 6451 C 607.269 1.674 -1.13233 0
M  V30 6452 C 607.59 1.92311 0.322744 0
M  V30 6453 O 606.86 1.52784 1.22612 0
M  V30 6454 H 605.44 0.620411 -0.416052 0
M  V30 6455 H 608.102 1.11663 -1.59741 0
M  V30 6456 H 607.198 2.64308 -1.65975 0
M  V30 6457 N 607.499 1.09233 1.13605 0
M  V30 6458 C 608.739 0.836786 1.86487 0
M  V30 6459 C 609.103 -0.626191 1.81502 0
M  V30 6460 O 610.304 -0.99758 2.49603 0
M  V30 6461 C 608.575 1.35476 3.30728 0
M  V30 6462 S 610.134 1.2328 4.21126 0
M  V30 6463 H 606.952 0.302702 0.643345 0
M  V30 6464 H 609.554 1.3953 1.36936 0
M  V30 6465 H 608.258 2.41381 3.31909 0
M  V30 6466 H 607.789 0.792286 3.85339 0
M  V30 6467 H 609.804 0.182468 4.95864 0
M  V30 6468 N 608.977 -1.30795 0.87923 0
M  V30 6469 C 610.223 -1.97035 0.50487 0
M  V30 6470 C 610.578 -1.68182 -0.934484 0
M  V30 6471 O 609.871 -0.972953 -1.65058 0
M  V30 6472 C 610.065 -3.50287 0.709476 0
M  V30 6473 C 609.894 -3.94035 2.16717 0
M  V30 6474 C 608.664 -4.1992 2.81061 0
M  V30 6475 C 610.862 -4.07288 3.1404 0
M  V30 6476 N 608.844 -4.50088 4.17486 0
M  V30 6477 C 610.215 -4.41273 4.35521 0
M  V30 6478 C 612.27 -3.89696 3.09906 0
M  V30 6479 C 610.973 -4.59501 5.534 0
M  V30 6480 C 612.999 -4.09122 4.27052 0
M  V30 6481 C 612.361 -4.43447 5.47297 0
M  V30 6482 H 608.46 -0.746181 0.233962 0
M  V30 6483 H 611.044 -1.5814 1.13577 0
M  V30 6484 H 609.215 -3.8825 0.108108 0
M  V30 6485 H 610.947 -4.03567 0.302585 0
M  V30 6486 H 607.702 -4.12906 2.3196 0
M  V30 6487 H 608.126 -4.69316 4.87926 0
M  V30 6488 H 612.768 -3.62239 2.18043 0
M  V30 6489 H 610.486 -4.85802 6.45773 0
M  V30 6490 H 614.072 -3.96985 4.25316 0
M  V30 6491 H 612.952 -4.58171 6.36435 0
M  V30 6492 N 610.455 -0.639598 -1.44038 0
M  V30 6493 C 611.402 0.0602458 -2.30721 0
M  V30 6494 C 612.372 0.828352 -1.43971 0
M  V30 6495 O 613.557 0.807693 -1.72861 0
M  V30 6496 C 610.697 1.03008 -3.29368 0
M  V30 6497 C 609.81 0.259502 -4.3122 0
M  V30 6498 C 608.945 1.22191 -5.16955 0
M  V30 6499 C 607.984 0.440978 -6.10509 0
M  V30 6500 N 607.121 1.35428 -6.88915 0
M  V30 6501 H 611.961 -0.684867 -2.90023 0
M  V30 6502 H 609.498 -0.349509 -1.42888 0
M  V30 6503 H 611.456 1.60583 -3.85057 0
M  V30 6504 H 610.086 1.74222 -2.71747 0
M  V30 6505 H 609.138 -0.432317 -3.77935 0
M  V30 6506 H 610.45 -0.348347 -4.97582 0
M  V30 6507 H 609.604 1.86873 -5.77203 0
M  V30 6508 H 608.343 1.86367 -4.50687 0
M  V30 6509 H 607.348 -0.219279 -5.49363 0
M  V30 6510 H 608.573 -0.196192 -6.78817 0
M  V30 6511 H 606.519 1.9831 -6.25307 0
M  V30 6512 H 606.436 0.800657 -7.51748 0
M  V30 6513 H 607.704 1.98967 -7.53679 0
M  V30 6514 N 611.933 1.52934 -0.380664 0
M  V30 6515 C 613.173 2.03378 0.204161 0
M  V30 6516 C 613.537 1.26132 1.44758 0
M  V30 6517 O 614.738 1.66657 2.109 0
M  V30 6518 C 613.009 3.54241 0.474118 0
M  V30 6519 S 614.568 4.26529 1.03046 0
M  V30 6520 H 611.386 0.708608 0.0582719 0
M  V30 6521 H 613.988 1.88263 -0.527017 0
M  V30 6522 H 612.692 4.08055 -0.438088 0
M  V30 6523 H 612.223 3.73547 1.23396 0
M  V30 6524 H 614.238 4.38964 2.31354 0
M  V30 6525 N 613.412 0.11024 1.57214 0
M  V30 6526 C 614.66 -0.548783 1.94506 0
M  V30 6527 C 614.981 -1.67772 0.99386 0
M  V30 6528 O 614.251 -1.9584 0.0485841 0
M  V30 6529 H 612.831 -0.205715 0.718116 0
M  V30 6530 H 615.493 0.177127 1.94093 0
M  V30 6531 H 614.589 -0.949096 2.97319 0
M  V30 6532 N 614.89 -1.56749 -0.16351 0
M  V30 6533 C 615.837 -1.97011 -1.2023 0
M  V30 6534 C 616.807 -0.835186 -1.43575 0
M  V30 6535 O 617.992 -1.09594 -1.56185 0
M  V30 6536 C 615.132 -2.34186 -2.53478 0
M  V30 6537 C 614.245 -3.60893 -2.37446 0
M  V30 6538 C 613.38 -3.87245 -3.63614 0
M  V30 6539 C 612.419 -5.07274 -3.42548 0
M  V30 6540 N 611.556 -5.29719 -4.60806 0
M  V30 6541 H 616.396 -2.85562 -0.851958 0
M  V30 6542 H 613.933 -1.41292 -0.409257 0
M  V30 6543 H 615.891 -2.53764 -3.31149 0
M  V30 6544 H 614.521 -1.48736 -2.86492 0
M  V30 6545 H 613.573 -3.49185 -1.50911 0
M  V30 6546 H 614.885 -4.48722 -2.1783 0
M  V30 6547 H 614.039 -4.07232 -4.49719 0
M  V30 6548 H 612.778 -2.97806 -3.86216 0
M  V30 6549 H 611.783 -4.87177 -2.5483 0
M  V30 6550 H 613.008 -5.98251 -3.2136 0
M  V30 6551 H 610.954 -4.43233 -4.83612 0
M  V30 6552 H 610.871 -6.11786 -4.44132 0
M  V30 6553 H 612.139 -5.54192 -5.48171 0
M  V30 6554 N 616.368 0.432326 -1.51554 0
M  V30 6555 C 617.779 1.01202 -1.56892 0
M  V30 6556 C 618.13 1.92175 -0.395394 0
M  V30 6557 O 617.255 2.10844 0.487198 0
M  V30 6558 C 617.85 1.84217 -2.8434 0
M  V30 6559 C 616.409 2.37228 -2.92233 0
M  V30 6560 C 615.556 1.16576 -2.51606 0
M  V30 6561 H 618.507 0.213407 -1.57259 0
M  V30 6562 H 618.528 2.69721 -2.68385 0
M  V30 6563 H 618.04 1.17979 -3.69733 0
M  V30 6564 H 616.141 3.06905 -2.11282 0
M  V30 6565 H 616.254 2.69682 -3.95991 0
M  V30 6566 H 614.618 1.51263 -2.04919 0
M  V30 6567 H 615.401 0.519404 -3.39348 0
M  V30 6568 N 617.846 1.41785 0.688094 0
M  V30 6569 C 619.094 1.41264 1.4453 0
M  V30 6570 C 619.415 0.0252946 1.94984 0
M  V30 6571 O 618.685 -0.934081 1.72197 0
M  V30 6572 H 617.265 0.519998 0.536294 0
M  V30 6573 H 619.927 1.7709 0.813941 0
M  V30 6574 H 619.023 2.10439 2.30482 0
M  V30 6575 N 619.324 -0.923095 1.27737 0
M  V30 6576 C 620.274 -2.01061 1.0751 0
M  V30 6577 C 621.258 -1.609 0.00165451 0
M  V30 6578 O 622.45 -1.75618 0.220724 0
M  V30 6579 C 619.579 -3.35467 0.729162 0
M  V30 6580 C 618.665 -3.82059 1.84098 0
M  V30 6581 N 619.056 -4.01115 3.08124 0
M  V30 6582 C 617.354 -4.11135 1.7287 0
M  V30 6583 C 618.055 -4.39989 3.80506 0
M  V30 6584 N 617.031 -4.47721 3.08297 0
M  V30 6585 H 620.833 -2.13832 2.01626 0
M  V30 6586 H 618.347 -1.11027 1.18519 0
M  V30 6587 H 620.344 -4.13049 0.565355 0
M  V30 6588 H 619.004 -3.24056 -0.204334 0
M  V30 6589 H 620.015 -3.87294 3.43836 0
M  V30 6590 H 616.692 -4.08412 0.866352 0
M  V30 6591 H 618.082 -4.62773 4.87125 0
M  V30 6592 N 620.802 -1.09834 -1.13024 0
M  V30 6593 C 622.051 -0.831806 -1.83749 0
M  V30 6594 C 622.364 0.644763 -1.84668 0
M  V30 6595 O 623.57 1.02697 -2.51327 0
M  V30 6596 C 622.026 -1.43817 -3.29916 0
M  V30 6597 C 621.634 -2.94759 -3.37374 0
M  V30 6598 C 623.378 -1.25077 -4.05655 0
M  V30 6599 C 621.285 -3.48461 -4.77838 0
M  V30 6600 H 620.215 -0.30751 -0.688443 0
M  V30 6601 H 622.866 -1.32156 -1.27307 0
M  V30 6602 H 621.248 -0.876106 -3.86187 0
M  V30 6603 H 622.422 -3.57228 -2.91076 0
M  V30 6604 H 620.737 -3.12581 -2.75103 0
M  V30 6605 H 623.334 -1.62649 -5.09362 0
M  V30 6606 H 623.677 -0.191782 -4.15858 0
M  V30 6607 H 624.21 -1.78057 -3.55725 0
M  V30 6608 H 620.949 -4.53998 -4.72828 0
M  V30 6609 H 620.469 -2.90757 -5.24615 0
M  V30 6610 H 622.148 -3.45914 -5.46766 0
M  V30 6611 N 622.28 1.30327 -0.886154 0
M  V30 6612 C 623.213 2.26241 -0.298407 0
M  V30 6613 C 624.191 1.51839 0.581704 0
M  V30 6614 O 625.375 1.80851 0.531536 0
M  V30 6615 C 622.502 3.33768 0.575888 0
M  V30 6616 C 621.548 4.25852 -0.235057 0
M  V30 6617 S 622.381 5.10277 -1.62411 0
M  V30 6618 C 623.537 6.21313 -0.756368 0
M  V30 6619 H 623.77 2.75744 -1.11141 0
M  V30 6620 H 621.303 1.38341 -0.685651 0
M  V30 6621 H 623.261 3.96186 1.07458 0
M  V30 6622 H 621.922 2.82986 1.363 0
M  V30 6623 H 621.115 5.02143 0.432198 0
M  V30 6624 H 620.717 3.68015 -0.666409 0
M  V30 6625 H 623.009 6.77495 0.0261451 0
M  V30 6626 H 623.952 6.92226 -1.49093 0
M  V30 6627 H 624.36 5.63611 -0.316749 0
M  V30 6628 N 623.758 0.647228 1.43697 0
M  V30 6629 C 624.986 0.16575 2.06235 0
M  V30 6630 C 625.401 -1.1662 1.48476 0
M  V30 6631 O 624.758 -1.7187 0.613762 0
M  V30 6632 C 624.809 0.0621651 3.61447 0
M  V30 6633 O 624.53 1.34146 4.17057 0
M  V30 6634 C 626.031 -0.446102 4.4105 0
M  V30 6635 H 623.251 0.0871158 0.665321 0
M  V30 6636 H 625.795 0.886183 1.84301 0
M  V30 6637 H 623.95 -0.608794 3.82587 0
M  V30 6638 H 624.364 1.19675 5.10664 0
M  V30 6639 H 625.838 -0.46755 5.50016 0
M  V30 6640 H 626.315 -1.47627 4.13646 0
M  V30 6641 H 626.921 0.192159 4.24866 0
M  V30 6642 N 625.236 -1.5273 0.388769 0
M  V30 6643 C 626.184 -2.27975 -0.461527 0
M  V30 6644 C 627.178 -1.31854 -1.06352 0
M  V30 6645 O 628.384 -1.49394 -1.00406 0
M  V30 6646 H 624.759 -0.733088 -0.16759 0
M  V30 6647 H 626.73 -2.97765 0.194579 0
M  V30 6648 C 625.479 -3.09881 -1.577 0
M  V30 6649 H 624.802 -3.83701 -1.12309 0
M  V30 6650 H 626.242 -3.6567 -2.14619 0
M  V30 6651 C 624.701 -2.22159 -2.53272 0
M  V30 6652 O 625.231 -1.84802 -3.56667 0
M  V30 6653 N 623.437 -1.8633 -2.23001 0
M  V30 6654 H 622.984 -2.16909 -1.38954 0
M  V30 6655 H 622.942 -1.27927 -2.87197 0
M  V30 6656 N 626.714 -0.118576 -1.57153 0
M  V30 6657 C 627.954 0.542618 -1.97066 0
M  V30 6658 C 628.318 1.63874 -1.00046 0
M  V30 6659 O 629.519 2.3588 -1.28895 0
M  V30 6660 C 627.79 1.06196 -3.41258 0
M  V30 6661 S 629.349 1.73174 -4.03183 0
M  V30 6662 H 626.167 0.17638 -0.688775 0
M  V30 6663 H 628.769 -0.203556 -1.94437 0
M  V30 6664 H 627.473 0.253016 -4.09619 0
M  V30 6665 H 627.004 1.84342 -3.47536 0
M  V30 6666 H 629.019 3.01749 -3.93906 0
M  V30 6667 N 628.193 1.56834 0.155195 0
M  V30 6668 C 629.604 1.72421 0.716082 0
M  V30 6669 C 629.955 0.731685 1.82046 0
M  V30 6670 O 629.08 -0.103481 2.16152 0
M  V30 6671 C 629.675 3.12629 1.30571 0
M  V30 6672 C 628.234 3.29846 1.81325 0
M  V30 6673 C 627.381 2.68359 0.698494 0
M  V30 6674 H 630.332 1.58544 -0.0703861 0
M  V30 6675 H 630.353 3.12174 2.1755 0
M  V30 6676 H 629.865 3.84844 0.501701 0
M  V30 6677 H 627.966 2.62614 2.64319 0
M  V30 6678 H 628.079 4.37727 1.9476 0
M  V30 6679 H 626.443 2.28604 1.12305 0
M  V30 6680 H 627.226 3.43171 -0.0939366 0
M  V30 6681 N 629.671 -0.424282 1.51781 0
M  V30 6682 C 630.948 -1.18464 1.55646 0
M  V30 6683 C 631.328 -2.08529 0.328438 0
M  V30 6684 O 630.676 -2.17969 -0.685693 0
M  V30 6685 C 630.886 -1.97514 2.87731 0
M  V30 6686 C 632.234 -2.54106 3.40169 0
M  V30 6687 O 633.258 -2.07711 2.89369 0
M  V30 6688 O 632.117 -3.38759 4.28841 0
M  V30 6689 H 629.211 -0.540055 0.626314 0
M  V30 6690 H 631.757 -0.432291 1.64102 0
M  V30 6691 H 630.529 -1.31444 3.68562 0
M  V30 6692 H 630.152 -2.79787 2.82498 0
M  V30 6693 N 631.149 -1.42148 -0.680565 0
M  V30 6694 C 632.565 -1.24947 -0.992995 0
M  V30 6695 C 632.765 -0.149527 -2.00944 0
M  V30 6696 O 631.821 0.481145 -2.47873 0
M  V30 6697 C 633.134 -2.60426 -1.5033 0
M  V30 6698 C 634.682 -2.67733 -1.62137 0
M  V30 6699 C 635.157 -4.03564 -2.16565 0
M  V30 6700 N 636.648 -4.05488 -2.23905 0
M  V30 6701 C 637.383 -5.07401 -2.67081 0
M  V30 6702 N 636.879 -6.19698 -3.09751 0
M  V30 6703 N 638.672 -4.94758 -2.66778 0
M  V30 6704 H 630.823 -2.12399 -0.0074788 0
M  V30 6705 H 633.086 -0.94571 -0.0658529 0
M  V30 6706 H 632.792 -3.41743 -0.830947 0
M  V30 6707 H 632.666 -2.83949 -2.483 0
M  V30 6708 H 635.053 -1.86765 -2.2848 0
M  V30 6709 H 635.134 -2.48004 -0.626713 0
M  V30 6710 H 634.778 -4.84987 -1.50833 0
M  V30 6711 H 634.708 -4.20641 -3.1681 0
M  V30 6712 H 637.199 -3.24415 -1.93812 0
M  V30 6713 H 637.512 -6.93318 -3.41365 0
M  V30 6714 H 635.857 -6.23212 -3.07623 0
M  V30 6715 H 639.048 -4.06105 -2.32801 0
M  V30 6716 H 639.221 -5.74317 -3.00107 0
M  V30 6717 N 632.627 0.916307 -1.28225 0
M  V30 6718 C 633.559 2.02303 -1.07732 0
M  V30 6719 C 634.572 1.62773 -0.0298421 0
M  V30 6720 O 635.761 1.76406 -0.272626 0
M  V30 6721 C 632.861 3.33282 -0.614504 0
M  V30 6722 C 632.034 4.01439 -1.73682 0
M  V30 6723 C 631.093 5.10698 -1.26781 0
M  V30 6724 O 630.119 5.34038 -1.96958 0
M  V30 6725 N 631.321 5.80355 -0.129624 0
M  V30 6726 H 634.086 2.20442 -2.03041 0
M  V30 6727 H 631.647 1.08744 -1.19943 0
M  V30 6728 H 633.639 4.03699 -0.284397 0
M  V30 6729 H 632.209 3.11633 0.245664 0
M  V30 6730 H 631.429 3.24604 -2.23665 0
M  V30 6731 H 632.717 4.43721 -2.48976 0
M  V30 6732 H 632.115 5.6386 0.455847 0
M  V30 6733 H 630.672 6.51647 0.141224 0
M  V30 6734 N 634.105 1.10431 1.1244 0
M  V30 6735 C 635.068 0.756542 2.16354 0
M  V30 6736 C 636.068 -0.21899 1.59302 0
M  V30 6737 O 637.258 0.00415969 1.742 0
M  V30 6738 C 634.39 0.120612 3.40687 0
M  V30 6739 H 635.583 1.67696 2.48632 0
M  V30 6740 H 633.136 0.904832 1.27446 0
M  V30 6741 H 633.871 -0.810536 3.14008 0
M  V30 6742 H 633.656 0.822693 3.83372 0
M  V30 6743 H 635.146 -0.106945 4.17463 0
M  V30 6744 N 635.583 -1.29855 0.893053 0
M  V30 6745 C 636.831 -1.9544 0.514566 0
M  V30 6746 C 637.152 -1.70795 -0.940959 0
M  V30 6747 O 636.422 -1.03601 -1.66264 0
M  V30 6748 H 635.002 -0.723137 0.187302 0
M  V30 6749 H 637.664 -1.58234 1.13789 0
M  V30 6750 H 636.76 -3.04341 0.691581 0
M  V30 6751 N 637.061 -0.65484 -1.43351 0
M  V30 6752 C 638.308 -0.168892 -2.01794 0
M  V30 6753 C 638.636 1.2177 -1.51665 0
M  V30 6754 O 637.891 1.82717 -0.70092 0
M  V30 6755 C 638.19 -0.130424 -3.57162 0
M  V30 6756 C 637.856 -1.45898 -4.26643 0
M  V30 6757 C 636.518 -1.82279 -4.4534 0
M  V30 6758 C 638.87 -2.33485 -4.65976 0
M  V30 6759 C 636.198 -3.0591 -5.00635 0
M  V30 6760 C 638.55 -3.5641 -5.22642 0
M  V30 6761 C 637.214 -3.92985 -5.39555 0
M  V30 6762 H 636.484 -0.061802 -0.738418 0
M  V30 6763 H 639.131 -0.845869 -1.71806 0
M  V30 6764 H 637.436 0.630008 -3.86702 0
M  V30 6765 H 639.133 0.262465 -4.0014 0
M  V30 6766 H 635.723 -1.16591 -4.12437 0
M  V30 6767 H 639.907 -2.06668 -4.51223 0
M  V30 6768 H 635.163 -3.34295 -5.11915 0
M  V30 6769 H 639.337 -4.24495 -5.52066 0
M  V30 6770 H 636.964 -4.88862 -5.82167 0
M  V30 6771 N 638.539 1.52521 -0.396863 0
M  V30 6772 C 639.469 2.29582 0.425941 0
M  V30 6773 C 640.45 1.33281 1.05689 0
M  V30 6774 O 641.635 1.62181 1.06823 0
M  V30 6775 C 638.765 3.10821 1.54943 0
M  V30 6776 C 637.719 4.15069 1.04413 0
M  V30 6777 C 637.045 4.84578 2.26028 0
M  V30 6778 C 638.345 5.22191 0.106767 0
M  V30 6779 H 640.039 2.98612 -0.217045 0
M  V30 6780 H 637.585 1.43611 -0.105826 0
M  V30 6781 H 639.538 3.63492 2.13193 0
M  V30 6782 H 638.262 2.39538 2.22011 0
M  V30 6783 H 636.921 3.63389 0.484118 0
M  V30 6784 H 636.569 4.09835 2.91623 0
M  V30 6785 H 636.269 5.55043 1.92876 0
M  V30 6786 H 637.793 5.40056 2.84906 0
M  V30 6787 H 639.207 5.70176 0.597685 0
M  V30 6788 H 637.604 5.99947 -0.135352 0
M  V30 6789 H 638.674 4.77531 -0.842134 0
M  V30 6790 N 640.017 0.126909 1.57088 0
M  V30 6791 C 641.433 -0.229641 1.57939 0
M  V30 6792 C 641.633 -1.66145 1.1401 0
M  V30 6793 O 640.689 -2.3843 0.831119 0
M  V30 6794 C 642.002 0.0108648 3.00698 0
M  V30 6795 C 643.55 -0.054418 3.12953 0
M  V30 6796 C 644.025 0.158497 4.57726 0
M  V30 6797 N 645.516 0.104735 4.63082 0
M  V30 6798 C 646.251 0.24427 5.72879 0
M  V30 6799 N 645.747 0.440415 6.91399 0
M  V30 6800 N 647.54 0.183286 5.61801 0
M  V30 6801 H 639.691 1.06203 1.83942 0
M  V30 6802 H 641.954 0.418834 0.85046 0
M  V30 6803 H 641.66 1.00102 3.37154 0
M  V30 6804 H 641.534 -0.717512 3.70313 0
M  V30 6805 H 643.921 -1.0351 2.7635 0
M  V30 6806 H 644.002 0.705967 2.45865 0
M  V30 6807 H 643.646 1.13619 4.95028 0
M  V30 6808 H 643.576 -0.62197 5.22914 0
M  V30 6809 H 646.067 -0.0430298 3.77876 0
M  V30 6810 H 646.38 0.537536 7.70928 0
M  V30 6811 H 644.725 0.476488 6.93365 0
M  V30 6812 H 647.916 0.0309561 4.6809 0
M  V30 6813 H 648.089 0.295471 6.47326 0
M  V30 6814 N 641.495 -1.56914 -0.146875 0
M  V30 6815 C 642.723 -1.87515 -0.874394 0
M  V30 6816 C 643.138 -0.715116 -1.74733 0
M  V30 6817 O 642.495 0.315113 -1.79759 0
M  V30 6818 C 642.546 -3.17362 -1.731 0
M  V30 6819 O 642.267 -4.28897 -0.893245 0
M  V30 6820 C 643.768 -3.61479 -2.56609 0
M  V30 6821 H 640.988 -0.621546 -0.252827 0
M  V30 6822 H 643.532 -2.04023 -0.139627 0
M  V30 6823 H 641.687 -3.02608 -2.41883 0
M  V30 6824 H 642.101 -5.03146 -1.48137 0
M  V30 6825 H 643.575 -4.5517 -3.12289 0
M  V30 6826 H 644.052 -2.86773 -3.32653 0
M  V30 6827 H 644.658 -3.78927 -1.93117 0
M  V30 6828 N 642.974 0.416227 -1.52004 0
M  V30 6829 C 644.222 1.16153 -1.65387 0
M  V30 6830 C 644.543 1.91208 -0.382669 0
M  V30 6831 O 643.813 1.86413 0.602231 0
M  V30 6832 H 642.393 0.431765 -0.60958 0
M  V30 6833 H 645.055 0.475151 -1.89019 0
M  V30 6834 H 644.151 1.87952 -2.4916 0
M  V30 6835 N 644.452 1.42507 0.673017 0
M  V30 6836 C 645.863 1.38347 1.25367 0
M  V30 6837 C 646.214 0.0776327 1.96046 0
M  V30 6838 O 645.339 -0.823571 2.00116 0
M  V30 6839 C 645.934 2.506 2.28002 0
M  V30 6840 C 644.493 2.49767 2.81591 0
M  V30 6841 C 643.64 2.293 1.55938 0
M  V30 6842 H 646.591 1.51695 0.466288 0
M  V30 6843 H 646.612 2.20953 3.09774 0
M  V30 6844 H 646.124 3.45627 1.76532 0
M  V30 6845 H 644.225 1.58563 3.37177 0
M  V30 6846 H 644.338 3.46867 3.30485 0
M  V30 6847 H 642.702 1.77594 1.82572 0
M  V30 6848 H 643.485 3.26385 1.06431 0
M  V30 6849 N 645.93 -0.909495 1.28709 0
M  V30 6850 C 646.86 -2.0291 1.15542 0
M  V30 6851 C 647.841 -1.7002 0.0521017 0
M  V30 6852 O 649.026 -1.92835 0.229849 0
M  V30 6853 C 646.156 -3.37458 0.820935 0
M  V30 6854 C 645.11 -3.84524 1.87949 0
M  V30 6855 C 644.436 -5.16086 1.39854 0
M  V30 6856 C 645.736 -4.05918 3.28676 0
M  V30 6857 H 647.43 -2.14183 2.09203 0
M  V30 6858 H 644.976 -1.02913 1.00722 0
M  V30 6859 H 646.929 -4.1528 0.715571 0
M  V30 6860 H 645.653 -3.26249 -0.151374 0
M  V30 6861 H 644.312 -3.08911 1.97408 0
M  V30 6862 H 643.96 -5.01284 0.41518 0
M  V30 6863 H 643.66 -5.48547 2.1064 0
M  V30 6864 H 645.184 -5.96459 1.30649 0
M  V30 6865 H 646.598 -4.74252 3.22115 0
M  V30 6866 H 644.995 -4.49717 3.97334 0
M  V30 6867 H 646.065 -3.10583 3.72379 0
M  V30 6868 N 647.408 -1.11026 -1.11852 0
M  V30 6869 C 648.656 -0.854769 -1.83134 0
M  V30 6870 C 648.977 0.621375 -1.84835 0
M  V30 6871 O 648.247 1.45129 -1.31584 0
M  V30 6872 H 646.827 -0.313229 -0.678157 0
M  V30 6873 H 649.489 -1.40178 -1.35411 0
M  V30 6874 H 648.585 -1.22311 -2.87135 0
M  V30 6875 N 648.886 1.2938 -0.899927 0
M  V30 6876 C 649.833 2.27713 -0.376243 0
M  V30 6877 C 650.803 1.57016 0.541774 0
M  V30 6878 O 651.988 1.84997 0.466966 0
M  V30 6879 C 649.128 3.42889 0.39 0
M  V30 6880 C 648.241 4.28369 -0.558938 0
M  V30 6881 C 647.376 5.30726 0.224379 0
M  V30 6882 C 646.415 6.07862 -0.719068 0
M  V30 6883 N 645.552 7.02094 0.0298569 0
M  V30 6884 H 650.392 2.71888 -1.21988 0
M  V30 6885 H 647.929 1.33724 -0.612879 0
M  V30 6886 H 649.887 4.08443 0.850314 0
M  V30 6887 H 648.517 2.99743 1.19809 0
M  V30 6888 H 647.569 3.62986 -1.13777 0
M  V30 6889 H 648.881 4.82068 -1.2811 0
M  V30 6890 H 648.035 6.02098 0.745881 0
M  V30 6891 H 646.774 4.77759 0.979674 0
M  V30 6892 H 645.779 5.35353 -1.25207 0
M  V30 6893 H 647.004 6.62917 -1.4737 0
M  V30 6894 H 644.95 6.51496 0.767415 0
M  V30 6895 H 644.867 7.5335 -0.632391 0
M  V30 6896 H 646.135 7.77685 0.531615 0
M  V30 6897 N 650.364 0.662433 1.43002 0
M  V30 6898 C 651.274 -0.0239199 2.34588 0
M  V30 6899 C 652.29 -0.802255 1.54402 0
M  V30 6900 O 653.466 -0.747401 1.87018 0
M  V30 6901 C 650.531 -0.972098 3.32793 0
M  V30 6902 C 649.592 -0.189673 4.28881 0
M  V30 6903 C 648.825 -1.09269 5.22395 0
M  V30 6904 O 649.048 -2.33209 5.20547 0
M  V30 6905 O 647.982 -0.560136 5.99288 0
M  V30 6906 H 651.808 0.730171 2.94792 0
M  V30 6907 H 649.393 0.422635 1.43297 0
M  V30 6908 H 651.275 -1.51676 3.93157 0
M  V30 6909 H 649.95 -1.70626 2.75079 0
M  V30 6910 H 648.857 0.398794 3.71968 0
M  V30 6911 H 650.19 0.50511 4.89601 0
M  V30 6912 N 651.842 -1.52309 0.404946 0
M  V30 6913 C 652.805 -2.25491 -0.410651 0
M  V30 6914 C 653.805 -1.27704 -0.977154 0
M  V30 6915 O 654.995 -1.51679 -0.856691 0
M  V30 6916 C 652.127 -3.02197 -1.57765 0
M  V30 6917 H 653.32 -2.99015 0.230277 0
M  V30 6918 H 650.873 -1.55506 0.157377 0
M  V30 6919 H 651.608 -2.33013 -2.25556 0
M  V30 6920 H 651.393 -3.73987 -1.17797 0
M  V30 6921 H 652.883 -3.57719 -2.15469 0
M  V30 6922 N 653.32 -0.135238 -1.57019 0
M  V30 6923 C 654.731 0.387521 -1.82634 0
M  V30 6924 C 655.082 1.65528 -1.05332 0
M  V30 6925 O 654.207 2.14381 -0.294926 0
M  V30 6926 C 654.802 0.709852 -3.3128 0
M  V30 6927 C 653.361 1.17718 -3.57518 0
M  V30 6928 C 652.508 0.194183 -2.76619 0
M  V30 6929 H 655.459 -0.360126 -1.5456 0
M  V30 6930 H 655.48 1.5657 -3.46794 0
M  V30 6931 H 654.992 -0.213024 -3.87515 0
M  V30 6932 H 653.093 2.1164 -3.06658 0
M  V30 6933 H 653.206 1.11128 -4.66034 0
M  V30 6934 H 651.57 0.684478 -2.4533 0
M  V30 6935 H 652.353 -0.722076 -3.3562 0
M  V30 6936 N 654.798 1.5699 0.138552 0
M  V30 6937 C 655.73 1.95515 1.1961 0
M  V30 6938 C 656.743 0.852002 1.38726 0
M  V30 6939 O 657.932 1.13038 1.38147 0
M  V30 6940 C 655.032 2.2213 2.55952 0
M  V30 6941 C 654.205 3.53424 2.57702 0
M  V30 6942 C 653.264 3.6848 3.75645 0
M  V30 6943 O 652.29 4.4079 3.60129 0
M  V30 6944 N 653.492 3.05777 4.93438 0
M  V30 6945 H 656.257 2.86838 0.868557 0
M  V30 6946 H 653.818 1.58542 0.328033 0
M  V30 6947 H 655.81 2.29435 3.33379 0
M  V30 6948 H 654.38 1.3703 2.80965 0
M  V30 6949 H 653.6 3.57484 1.6613 0
M  V30 6950 H 654.888 4.39759 2.55909 0
M  V30 6951 H 654.286 2.46961 5.08947 0
M  V30 6952 H 652.843 3.18631 5.6861 0
M  V30 6953 N 656.276 -0.40816 1.52223 0
M  V30 6954 C 657.206 -1.5042 1.78595 0
M  V30 6955 C 658.187 -1.57723 0.636974 0
M  V30 6956 O 659.372 -1.72982 0.882664 0
M  V30 6957 C 656.502 -2.88232 1.93751 0
M  V30 6958 C 655.456 -2.95779 3.09352 0
M  V30 6959 C 654.782 -4.35855 3.09732 0
M  V30 6960 C 656.082 -2.67175 4.48793 0
M  V30 6961 H 657.776 -1.28601 2.70374 0
M  V30 6962 H 655.322 -0.617221 1.30101 0
M  V30 6963 H 657.275 -3.64895 2.10783 0
M  V30 6964 H 655.999 -3.11347 0.986443 0
M  V30 6965 H 654.658 -2.21561 2.92072 0
M  V30 6966 H 654.306 -4.55981 2.12346 0
M  V30 6967 H 654.006 -4.41829 3.87377 0
M  V30 6968 H 655.53 -5.14451 3.28895 0
M  V30 6969 H 656.944 -3.3356 4.66273 0
M  V30 6970 H 655.341 -2.84523 5.28362 0
M  V30 6971 H 656.411 -1.62609 4.56822 0
M  V30 6972 N 657.755 -1.42862 -0.66545 0
M  V30 6973 C 659.166 -1.3901 -1.24632 0
M  V30 6974 C 659.517 -0.0880285 -1.96002 0
M  V30 6975 O 658.642 0.812947 -2.0055 0
M  V30 6976 C 659.237 -2.51806 -2.2667 0
M  V30 6977 C 657.796 -2.51257 -2.80262 0
M  V30 6978 C 656.943 -2.30124 -1.5472 0
M  V30 6979 H 659.894 -1.5194 -0.458237 0
M  V30 6980 H 659.915 -2.22593 -3.08598 0
M  V30 6981 H 659.427 -3.46558 -1.74697 0
M  V30 6982 H 657.528 -1.60349 -3.36332 0
M  V30 6983 H 657.641 -3.48614 -3.28641 0
M  V30 6984 H 656.005 -1.7856 -1.81627 0
M  V30 6985 H 656.788 -3.26945 -1.04699 0
M  V30 6986 N 659.233 0.902656 -1.29189 0
M  V30 6987 C 660.649 1.18296 -1.07137 0
M  V30 6988 C 660.849 2.00701 0.179223 0
M  V30 6989 O 659.905 2.3675 0.877812 0
M  V30 6990 C 661.218 1.90677 -2.32514 0
M  V30 6991 C 662.766 2.03515 -2.37804 0
M  V30 6992 C 663.241 2.79307 -3.62976 0
M  V30 6993 N 664.732 2.86862 -3.63681 0
M  V30 6994 C 665.467 3.46035 -4.57217 0
M  V30 6995 N 664.963 4.06399 -5.61081 0
M  V30 6996 N 666.756 3.43681 -4.44792 0
M  V30 6997 H 658.907 0.352765 -2.0945 0
M  V30 6998 H 661.17 0.21876 -0.922414 0
M  V30 6999 H 660.876 1.3756 -3.23682 0
M  V30 7000 H 660.75 2.91169 -2.39793 0
M  V30 7001 H 663.137 2.55809 -1.47125 0
M  V30 7002 H 663.218 1.02166 -2.34512 0
M  V30 7003 H 662.862 2.2769 -4.54004 0
M  V30 7004 H 662.792 3.80995 -3.63525 0
M  V30 7005 H 665.283 2.43987 -2.88581 0
M  V30 7006 H 665.596 4.49564 -6.2858 0
M  V30 7007 H 663.941 4.0487 -5.64894 0
M  V30 7008 H 667.132 2.9574 -3.62843 0
M  V30 7009 H 667.305 3.89503 -5.17872 0
M  V30 7010 N 660.711 1.11618 1.11262 0
M  V30 7011 C 661.959 0.864469 1.82678 0
M  V30 7012 C 662.28 -0.611564 1.85162 0
M  V30 7013 O 661.55 -1.44429 1.32352 0
M  V30 7014 H 660.13 0.316821 0.676486 0
M  V30 7015 H 662.792 1.40894 1.34666 0
M  V30 7016 H 661.888 1.23832 2.86482 0
M  V30 7017 N 662.189 -1.289 0.906776 0
M  V30 7018 C 663.6 -1.77336 0.58384 0
M  V30 7019 C 663.951 -1.74304 -0.900697 0
M  V30 7020 O 663.076 -1.33335 -1.70443 0
M  V30 7021 C 663.671 -3.22019 1.05304 0
M  V30 7022 C 662.23 -3.68205 0.781148 0
M  V30 7023 C 661.377 -2.48837 1.22373 0
M  V30 7024 H 664.328 -1.15462 1.08877 0
M  V30 7025 H 664.349 -3.78481 0.391414 0
M  V30 7026 H 663.861 -3.24194 2.13353 0
M  V30 7027 H 661.962 -3.71497 -0.28643 0
M  V30 7028 H 662.075 -4.58675 1.384 0
M  V30 7029 H 660.439 -2.46461 0.642594 0
M  V30 7030 H 661.222 -2.53736 2.31242 0
M  V30 7031 N 663.667 -0.670007 -1.42649 0
M  V30 7032 C 664.892 -0.196955 -2.06463 0
M  V30 7033 C 665.317 1.1352 -1.49983 0
M  V30 7034 O 664.675 1.705 -0.616397 0
M  V30 7035 C 664.723 -0.137381 -3.60338 0
M  V30 7036 O 663.827 0.895523 -4.02559 0
M  V30 7037 H 663.168 -0.102579 -0.656029 0
M  V30 7038 H 665.698 -0.917669 -1.82866 0
M  V30 7039 H 665.708 0.0403625 -4.0798 0
M  V30 7040 H 664.383 -1.10977 -4.0082 0
M  V30 7041 H 662.96 0.689209 -3.66476 0
M  V30 7042 N 665.145 1.52092 -0.413018 0
M  V30 7043 C 666.37 2.06756 0.163338 0
M  V30 7044 C 666.795 1.28073 1.37764 0
M  V30 7045 O 666.153 0.312015 1.78595 0
M  V30 7046 C 666.201 3.57278 0.488322 0
M  V30 7047 O 665.305 3.80986 1.57871 0
M  V30 7048 H 664.646 0.663882 0.0125068 0
M  V30 7049 H 667.176 1.95988 -0.587339 0
M  V30 7050 H 667.186 4.01125 0.745836 0
M  V30 7051 H 665.861 4.13978 -0.399327 0
M  V30 7052 H 664.438 3.49017 1.31306 0
M  V30 7053 N 666.623 0.143563 1.56945 0
M  V30 7054 C 667.586 -0.783295 2.154 0
M  V30 7055 C 668.586 -1.17763 1.09492 0
M  V30 7056 O 669.776 -1.09912 1.35148 0
M  V30 7057 C 666.908 -2.06248 2.7143 0
M  V30 7058 H 668.101 -0.274863 2.98638 0
M  V30 7059 H 665.654 -0.105859 1.55941 0
M  V30 7060 H 666.389 -2.61466 1.91849 0
M  V30 7061 H 666.174 -1.78897 3.4891 0
M  V30 7062 H 667.664 -2.72453 3.16479 0
M  V30 7063 N 668.101 -1.57061 -0.130224 0
M  V30 7064 C 669.349 -1.83893 -0.838313 0
M  V30 7065 C 669.67 -0.727046 -1.80939 0
M  V30 7066 O 668.94 0.249927 -1.94299 0
M  V30 7067 H 667.52 -0.67846 -0.312573 0
M  V30 7068 H 670.182 -1.94529 -0.120224 0
M  V30 7069 H 669.278 -2.79419 -1.39038 0
M  V30 7070 N 669.579 0.400081 -1.52437 0
M  V30 7071 C 670.542 1.4707 -1.75793 0
M  V30 7072 C 671.542 1.48036 -0.627856 0
M  V30 7073 O 672.732 1.49401 -0.895817 0
M  V30 7074 C 669.864 2.86427 -1.84858 0
M  V30 7075 H 671.057 1.27649 -2.71377 0
M  V30 7076 H 668.61 0.631141 -1.42991 0
M  V30 7077 H 669.345 3.11207 -0.912194 0
M  V30 7078 H 669.13 2.87128 -2.6702 0
M  V30 7079 H 670.62 3.64023 -2.04638 0
M  V30 7080 N 671.057 1.43213 0.657864 0
M  V30 7081 C 672.334 1.35063 1.41483 0
M  V30 7082 C 672.714 -0.0038314 2.111 0
M  V30 7083 O 672.062 -1.02018 2.04462 0
M  V30 7084 C 672.272 2.53061 2.40335 0
M  V30 7085 C 673.62 2.9594 3.04474 0
M  V30 7086 O 674.644 2.53074 2.50663 0
M  V30 7087 O 673.503 3.70184 4.02027 0
M  V30 7088 H 670.597 0.533517 0.631893 0
M  V30 7089 H 673.143 1.55253 0.685162 0
M  V30 7090 H 671.915 3.43283 1.87809 0
M  V30 7091 H 671.538 2.34945 3.20759 0
M  V30 7092 N 672.536 -0.895792 1.29666 0
M  V30 7093 C 673.764 -1.68001 1.20761 0
M  V30 7094 C 674.179 -1.87379 -0.231187 0
M  V30 7095 O 673.536 -1.41359 -1.15429 0
M  V30 7096 C 673.587 -3.06236 1.92098 0
M  V30 7097 O 673.308 -2.8774 3.30359 0
M  V30 7098 C 674.809 -4.00652 1.89717 0
M  V30 7099 H 672.029 -0.524591 0.418384 0
M  V30 7100 H 674.573 -1.11995 1.71106 0
M  V30 7101 H 672.728 -3.59007 1.45578 0
M  V30 7102 H 673.142 -3.75359 3.66342 0
M  V30 7103 H 674.616 -4.95051 2.44189 0
M  V30 7104 H 675.093 -4.30424 0.873595 0
M  V30 7105 H 675.699 -3.53815 2.35998 0
M  V30 7106 N 674.014 -1.12206 -1.10668 0
M  V30 7107 C 674.962 -0.782918 -2.19028 0
M  V30 7108 C 675.956 0.229175 -1.67843 0
M  V30 7109 O 677.162 0.0876295 -1.79787 0
M  V30 7110 H 673.537 -0.235339 -0.714227 0
M  V30 7111 H 675.508 -1.70527 -2.44874 0
M  V30 7112 C 674.257 -0.25116 -3.46792 0
M  V30 7113 H 673.58 -1.02123 -3.86537 0
M  V30 7114 H 675.02 -0.0521409 -4.23968 0
M  V30 7115 C 673.479 1.02037 -3.21076 0
M  V30 7116 O 674.009 2.09862 -3.42522 0
M  V30 7117 N 672.215 0.946348 -2.74759 0
M  V30 7118 H 671.762 0.068777 -2.57508 0
M  V30 7119 H 671.72 1.79775 -2.57931 0
M  V30 7120 N 675.492 1.28418 -0.913599 0
M  V30 7121 C 676.717 1.99643 -0.561899 0
M  V30 7122 C 677.142 1.67819 0.849608 0
M  V30 7123 O 676.5 0.910503 1.56779 0
M  V30 7124 C 676.548 3.52116 -0.777622 0
M  V30 7125 O 675.652 4.12076 0.163457 0
M  V30 7126 H 674.993 0.627229 -0.217898 0
M  V30 7127 H 677.523 1.63575 -1.229 0
M  V30 7128 H 677.533 4.02163 -0.687666 0
M  V30 7129 H 676.208 3.74613 -1.8066 0
M  V30 7130 H 674.785 3.72892 0.0247827 0
M  V30 7131 N 676.97 0.677563 1.42291 0
M  V30 7132 C 678.198 0.209459 2.05837 0
M  V30 7133 C 678.613 -1.13444 1.50917 0
M  V30 7134 O 677.97 -1.70529 0.65008 0
M  V30 7135 C 678.021 0.138819 3.61233 0
M  V30 7136 O 677.742 1.42962 4.14118 0
M  V30 7137 C 679.243 -0.352449 4.41897 0
M  V30 7138 H 676.463 0.101209 0.663323 0
M  V30 7139 H 679.007 0.925077 1.8238 0
M  V30 7140 H 677.162 -0.527505 3.83792 0
M  V30 7141 H 677.576 1.3048 5.08011 0
M  V30 7142 H 679.05 -0.350778 5.50884 0
M  V30 7143 H 679.527 -1.3882 4.16684 0
M  V30 7144 H 680.133 0.282236 4.24362 0
M  V30 7145 N 678.448 -1.51871 0.421078 0
M  V30 7146 C 679.859 -1.86644 -0.0457991 0
M  V30 7147 C 680.21 -1.33919 -1.43388 0
M  V30 7148 O 679.335 -0.683316 -2.05328 0
M  V30 7149 C 679.93 -3.38681 -0.0898844 0
M  V30 7150 C 678.489 -3.73049 -0.501127 0
M  V30 7151 C 677.636 -2.75485 0.316723 0
M  V30 7152 H 680.587 -1.45327 0.637635 0
M  V30 7153 H 680.608 -3.69636 -0.902734 0
M  V30 7154 H 680.12 -3.77025 0.920513 0
M  V30 7155 H 678.221 -3.40288 -1.51773 0
M  V30 7156 H 678.334 -4.78512 -0.237217 0
M  V30 7157 H 676.698 -2.53725 -0.222663 0
M  V30 7158 H 677.481 -3.16671 1.32569 0
M  V30 7159 N 679.926 -0.151884 -1.56866 0
M  V30 7160 C 681.151 0.508044 -2.01081 0
M  V30 7161 C 681.576 1.57306 -1.03134 0
M  V30 7162 O 680.934 1.81298 -0.0078309 0
M  V30 7163 C 680.982 1.08106 -3.44014 0
M  V30 7164 O 680.086 2.19577 -3.49084 0
M  V30 7165 H 679.427 0.123757 -0.652365 0
M  V30 7166 H 681.957 -0.250055 -2.03066 0
M  V30 7167 H 681.967 1.40851 -3.82916 0
M  V30 7168 H 680.642 0.301168 -4.14808 0
M  V30 7169 H 679.219 1.88023 -3.22027 0
M  V30 7170 N 681.404 1.57128 0.121893 0
M  V30 7171 C 682.652 1.84335 0.828548 0
M  V30 7172 C 682.973 0.736632 1.80551 0
M  V30 7173 O 682.243 -0.23962 1.94429 0
M  V30 7174 H 680.823 0.680108 0.30897 0
M  V30 7175 H 683.485 1.9459 0.109906 0
M  V30 7176 H 682.581 2.80152 1.37554 0
M  V30 7177 N 682.882 -0.391992 1.52647 0
M  V30 7178 C 684.107 -1.16312 1.71716 0
M  V30 7179 C 684.532 -1.83042 0.433279 0
M  V30 7180 O 683.89 -1.70705 -0.610707 0
M  V30 7181 C 683.938 -2.18908 2.86551 0
M  V30 7182 O 683.042 -3.2543 2.53316 0
M  V30 7183 H 682.383 -0.338743 0.571095 0
M  V30 7184 H 684.913 -0.457202 1.99426 0
M  V30 7185 H 684.923 -2.62954 3.1196 0
M  V30 7186 H 683.598 -1.69726 3.79692 0
M  V30 7187 H 682.175 -2.86543 2.38637 0
M  V30 7188 N 684.36 -1.4356 -0.65026 0
M  V30 7189 C 685.585 -1.48995 -1.44275 0
M  V30 7190 C 686.01 -0.109954 -1.87778 0
M  V30 7191 O 685.368 0.896926 -1.57559 0
M  V30 7192 C 685.416 -2.44341 -2.65198 0
M  V30 7193 O 684.52 -1.93172 -3.6436 0
M  V30 7194 H 683.861 -0.503852 -0.432469 0
M  V30 7195 H 686.391 -1.88504 -0.795446 0
M  V30 7196 H 686.401 -2.61743 -3.12977 0
M  V30 7197 H 685.076 -3.44588 -2.32877 0
M  V30 7198 H 683.653 -1.85445 -3.23519 0
M  V30 7199 N 685.838 0.888903 -1.30139 0
M  V30 7200 C 687.063 1.67884 -1.21777 0
M  V30 7201 C 687.488 1.86848 0.216689 0
M  V30 7202 O 686.846 1.39659 1.15608 0
M  V30 7203 C 686.894 3.03483 -1.94757 0
M  V30 7204 O 685.998 3.92294 -1.27198 0
M  V30 7205 H 685.339 0.513144 -0.421402 0
M  V30 7206 H 687.869 1.10968 -1.71893 0
M  V30 7207 H 687.879 3.53553 -2.03627 0
M  V30 7208 H 686.554 2.89 -2.99085 0
M  V30 7209 H 685.131 3.50732 -1.26655 0
M  V30 7210 N 687.317 1.12792 1.10072 0
M  V30 7211 C 688.565 0.883796 1.81751 0
M  V30 7212 C 688.886 -0.591891 1.858 0
M  V30 7213 O 688.156 -1.43017 1.33876 0
M  V30 7214 H 686.736 0.323978 0.673088 0
M  V30 7215 H 689.398 1.42314 1.33164 0
M  V30 7216 H 688.494 1.26863 2.85153 0
M  V30 7217 N 688.795 -1.27931 0.920396 0
M  V30 7218 C 690.02 -1.99343 0.572478 0
M  V30 7219 C 690.445 -1.68267 -0.840696 0
M  V30 7220 O 689.803 -0.918805 -1.56294 0
M  V30 7221 C 689.851 -3.51698 0.796284 0
M  V30 7222 O 688.955 -4.12157 -0.141602 0
M  V30 7223 H 688.296 -0.626065 0.221221 0
M  V30 7224 H 690.826 -1.62921 1.23765 0
M  V30 7225 H 690.836 -4.01793 0.708984 0
M  V30 7226 H 689.511 -3.73649 1.82644 0
M  V30 7227 H 688.088 -3.729 -0.005007 0
M  V30 7228 N 690.273 -0.685099 -1.4193 0
M  V30 7229 C 691.501 -0.220372 -2.05723 0
M  V30 7230 C 691.916 1.12642 -1.51516 0
M  V30 7231 O 691.273 1.70182 -0.659114 0
M  V30 7232 C 691.324 -0.157974 -3.61155 0
M  V30 7233 O 691.045 -1.45156 -4.13354 0
M  V30 7234 C 692.546 0.329009 -4.42077 0
M  V30 7235 H 689.766 -0.104725 -0.662777 0
M  V30 7236 H 692.31 -0.934736 -1.81887 0
M  V30 7237 H 690.465 0.507144 -3.84066 0
M  V30 7238 H 690.879 -1.33172 -5.07312 0
M  V30 7239 H 692.353 0.321559 -5.51063 0
M  V30 7240 H 692.83 1.36608 -4.17414 0
M  V30 7241 H 693.436 -0.304737 -4.24207 0
M  V30 7242 N 691.751 1.51645 -0.429126 0
M  V30 7243 C 692.999 2.01616 0.139802 0
M  V30 7244 C 693.32 1.31568 1.43927 0
M  V30 7245 O 692.59 0.447688 1.90716 0
M  V30 7246 H 691.17 0.744998 0.054654 0
M  V30 7247 H 693.832 1.8638 -0.569952 0
M  V30 7248 H 692.928 3.10439 0.321609 0
M  V30 7249 N 693.229 0.160201 1.56784 0
M  V30 7250 C 694.139 -0.787167 2.21 0
M  V30 7251 C 695.155 -1.26167 1.19825 0
M  V30 7252 O 696.331 -1.31611 1.52448 0
M  V30 7253 C 693.396 -2.00364 2.8294 0
M  V30 7254 C 692.457 -1.5771 3.99282 0
M  V30 7255 C 691.69 -2.73558 4.58259 0
M  V30 7256 O 691.913 -3.90129 4.16119 0
M  V30 7257 O 690.847 -2.48271 5.48311 0
M  V30 7258 H 694.673 -0.270462 3.02493 0
M  V30 7259 H 692.258 -0.0674666 1.49248 0
M  V30 7260 H 694.14 -2.71529 3.22257 0
M  V30 7261 H 692.815 -2.50961 2.04451 0
M  V30 7262 H 691.722 -0.835274 3.64656 0
M  V30 7263 H 693.055 -1.11815 4.79331 0
M  V30 7264 N 694.707 -1.5719 -0.113559 0
M  V30 7265 C 695.956 -1.84325 -0.818984 0
M  V30 7266 C 696.269 -0.746685 -1.80787 0
M  V30 7267 O 697.475 -0.904596 -2.55987 0
M  V30 7268 C 695.931 -3.26818 -1.50724 0
M  V30 7269 C 695.539 -4.44498 -0.559065 0
M  V30 7270 C 697.283 -3.63196 -2.19748 0
M  V30 7271 C 695.19 -5.7802 -1.25086 0
M  V30 7272 H 694.12 -0.687507 -0.309596 0
M  V30 7273 H 696.771 -1.8336 -0.0717621 0
M  V30 7274 H 695.153 -3.22269 -2.30128 0
M  V30 7275 H 696.327 -4.60356 0.202146 0
M  V30 7276 H 694.642 -4.16393 0.024495 0
M  V30 7277 H 697.239 -4.60226 -2.72206 0
M  V30 7278 H 697.582 -2.90899 -2.97798 0
M  V30 7279 H 698.115 -3.69553 -1.47226 0
M  V30 7280 H 694.854 -6.53501 -0.511539 0
M  V30 7281 H 694.374 -5.66038 -1.98395 0
M  V30 7282 H 696.053 -6.2196 -1.78253 0
M  V30 7283 N 696.185 0.383891 -1.52853 0
M  V30 7284 C 697.415 1.14783 -1.7178 0
M  V30 7285 C 697.823 1.84055 -0.438211 0
M  V30 7286 O 697.166 1.73713 0.597465 0
M  V30 7287 C 697.228 2.23543 -2.81547 0
M  V30 7288 C 696.892 1.74195 -4.22499 0
M  V30 7289 C 697.889 1.21591 -5.05481 0
M  V30 7290 C 695.574 1.80262 -4.6884 0
M  V30 7291 C 697.568 0.757104 -6.32888 0
M  V30 7292 C 695.255 1.33993 -5.96229 0
M  V30 7293 C 696.253 0.818049 -6.78083 0
M  V30 7294 O 695.941 0.362123 -8.03084 0
M  V30 7295 H 695.673 0.349908 -0.578395 0
M  V30 7296 H 698.227 0.454377 -2.00311 0
M  V30 7297 H 696.457 2.96328 -2.48449 0
M  V30 7298 H 698.146 2.8519 -2.88828 0
M  V30 7299 H 698.912 1.16257 -4.7086 0
M  V30 7300 H 694.791 2.19825 -4.05213 0
M  V30 7301 H 698.335 0.34908 -6.96726 0
M  V30 7302 H 694.232 1.39015 -6.30353 0
M  V30 7303 H 695 0.483134 -8.17073 0
M  V30 7304 N 697.663 1.43903 0.642637 0
M  V30 7305 C 698.626 1.49538 1.73698 0
M  V30 7306 C 699.626 0.378776 1.56275 0
M  V30 7307 O 700.816 0.64095 1.6198 0
M  V30 7308 C 697.948 1.35821 3.12675 0
M  V30 7309 H 699.141 2.47008 1.70079 0
M  V30 7310 H 696.694 1.30824 0.85526 0
M  V30 7311 H 697.429 0.393994 3.21898 0
M  V30 7312 H 697.214 2.16776 3.26727 0
M  V30 7313 H 698.704 1.4272 3.92455 0
M  V30 7314 N 699.141 -0.881989 1.30609 0
M  V30 7315 C 700.104 -1.96957 1.1722 0
M  V30 7316 C 701.104 -1.60472 0.102598 0
M  V30 7317 O 702.294 -1.70628 0.350943 0
M  V30 7318 C 699.426 -3.31463 0.796572 0
M  V30 7319 H 700.619 -2.10262 2.13846 0
M  V30 7320 H 698.172 -1.06877 1.14048 0
M  V30 7321 H 698.907 -3.23859 -0.169053 0
M  V30 7322 H 698.692 -3.59314 1.56959 0
M  V30 7323 H 700.182 -4.11233 0.72645 0
M  V30 7324 N 700.619 -1.13374 -1.09472 0
M  V30 7325 C 702.035 -0.871846 -1.33682 0
M  V30 7326 C 702.235 0.492847 -1.9538 0
M  V30 7327 O 701.291 1.23946 -2.19985 0
M  V30 7328 C 702.604 -1.99608 -2.24893 0
M  V30 7329 C 704.152 -2.02812 -2.38404 0
M  V30 7330 C 704.627 -3.14497 -3.3295 0
M  V30 7331 N 706.118 -3.14004 -3.40523 0
M  V30 7332 C 706.853 -3.97061 -4.13679 0
M  V30 7333 N 706.349 -4.90131 -4.89636 0
M  V30 7334 N 708.142 -3.85162 -4.09398 0
M  V30 7335 H 700.293 -2.01288 -0.677995 0
M  V30 7336 H 702.556 -0.876492 -0.361201 0
M  V30 7337 H 702.262 -2.98 -1.86786 0
M  V30 7338 H 702.136 -1.90981 -3.25278 0
M  V30 7339 H 704.523 -1.05034 -2.75775 0
M  V30 7340 H 704.604 -2.15511 -1.37799 0
M  V30 7341 H 704.248 -4.12514 -2.96302 0
M  V30 7342 H 704.178 -2.99035 -4.33458 0
M  V30 7343 H 706.669 -2.46587 -2.86362 0
M  V30 7344 H 706.982 -5.49996 -5.42885 0
M  V30 7345 H 705.327 -4.94138 -4.88726 0
M  V30 7346 H 708.518 -3.11779 -3.49158 0
M  V30 7347 H 708.691 -4.5012 -4.6615 0
M  V30 7348 N 702.098 1.27442 -0.927168 0
M  V30 7349 C 703.008 2.30599 -0.431448 0
M  V30 7350 C 704.024 1.67028 0.48761 0
M  V30 7351 O 705.2 1.97962 0.370546 0
M  V30 7352 C 702.265 3.45327 0.308292 0
M  V30 7353 C 701.326 4.24418 -0.645615 0
M  V30 7354 C 700.559 5.33667 0.0589164 0
M  V30 7355 O 700.782 5.5589 1.27838 0
M  V30 7356 O 699.716 5.98774 -0.612638 0
M  V30 7357 H 703.542 2.75036 -1.28797 0
M  V30 7358 H 701.127 1.32382 -0.692495 0
M  V30 7359 H 703.009 4.15107 0.725555 0
M  V30 7360 H 701.684 3.02945 1.14043 0
M  V30 7361 H 700.591 3.57174 -1.11255 0
M  V30 7362 H 701.924 4.70512 -1.44496 0
M  V30 7363 N 703.576 0.692616 1.41565 0
M  V30 7364 C 704.523 0.0254264 2.30786 0
M  V30 7365 C 705.493 -0.774347 1.46946 0
M  V30 7366 O 706.678 -0.742981 1.7574 0
M  V30 7367 C 703.818 -0.907123 3.32964 0
M  V30 7368 C 702.931 -0.0992784 4.31886 0
M  V30 7369 C 702.066 -1.0292 5.21134 0
M  V30 7370 C 701.105 -0.214088 6.11725 0
M  V30 7371 N 700.242 -1.09766 6.93467 0
M  V30 7372 H 705.082 0.792036 2.87282 0
M  V30 7373 H 702.619 0.4023 1.41492 0
M  V30 7374 H 704.577 -1.46181 3.90752 0
M  V30 7375 H 703.207 -1.64016 2.78026 0
M  V30 7376 H 702.259 0.572287 3.76071 0
M  V30 7377 H 703.571 0.532782 4.95946 0
M  V30 7378 H 702.725 -1.65321 5.83741 0
M  V30 7379 H 701.464 -1.69512 4.57293 0
M  V30 7380 H 700.469 0.42302 5.4817 0
M  V30 7381 H 701.694 0.447995 6.77621 0
M  V30 7382 H 699.64 -1.74965 6.32237 0
M  V30 7383 H 699.557 -0.521099 7.54202 0
M  V30 7384 H 700.825 -1.70858 7.60544 0
M  V30 7385 N 705.054 -1.51416 0.437162 0
M  V30 7386 C 706.282 -2.06503 -0.128045 0
M  V30 7387 C 706.697 -1.30461 -1.36475 0
M  V30 7388 O 706.054 -0.364127 -1.78831 0
M  V30 7389 C 706.105 -3.58683 -0.450437 0
M  V30 7390 O 705.826 -4.31853 0.737186 0
M  V30 7391 C 707.327 -4.30284 -1.06633 0
M  V30 7392 H 704.547 -0.670952 -0.00800269 0
M  V30 7393 H 707.091 -1.94996 0.616193 0
M  V30 7394 H 705.246 -3.70106 -1.14457 0
M  V30 7395 H 705.66 -5.22467 0.461347 0
M  V30 7396 H 707.134 -5.37848 -1.24191 0
M  V30 7397 H 707.611 -3.88564 -2.0473 0
M  V30 7398 H 708.217 -4.23304 -0.411585 0
M  V30 7399 N 706.532 -0.168513 -1.56696 0
M  V30 7400 C 707.442 0.775435 -2.21414 0
M  V30 7401 C 708.458 1.25529 -1.20492 0
M  V30 7402 O 709.634 1.30801 -1.53144 0
M  V30 7403 C 706.699 1.9886 -2.83999 0
M  V30 7404 C 705.76 1.5559 -4.00113 0
M  V30 7405 C 704.993 2.71124 -4.59704 0
M  V30 7406 O 705.216 3.87917 -4.18182 0
M  V30 7407 O 704.15 2.4536 -5.4962 0
M  V30 7408 H 707.976 0.254416 -3.02632 0
M  V30 7409 H 705.561 0.0595507 -1.49281 0
M  V30 7410 H 707.443 2.69816 -3.23693 0
M  V30 7411 H 706.118 2.49874 -2.05779 0
M  V30 7412 H 705.025 0.815924 -3.65094 0
M  V30 7413 H 706.358 1.09271 -4.79917 0
M  V30 7414 N 708.01 1.57248 0.105221 0
M  V30 7415 C 709.426 1.52853 0.459153 0
M  V30 7416 C 709.626 0.883674 1.8109 0
M  V30 7417 O 708.682 0.471864 2.48052 0
M  V30 7418 C 709.995 2.97596 0.43096 0
M  V30 7419 C 711.543 3.08758 0.513536 0
M  V30 7420 C 712.018 4.55089 0.515593 0
M  V30 7421 N 713.509 4.59597 0.576639 0
M  V30 7422 C 714.244 5.70253 0.599904 0
M  V30 7423 N 713.74 6.90368 0.579985 0
M  V30 7424 N 715.533 5.58399 0.643953 0
M  V30 7425 H 707.684 1.97547 -0.780306 0
M  V30 7426 H 709.947 0.902758 -0.289363 0
M  V30 7427 H 709.653 3.48201 -0.494903 0
M  V30 7428 H 709.527 3.55756 1.2537 0
M  V30 7429 H 711.914 2.58148 1.42982 0
M  V30 7430 H 711.995 2.53568 -0.337148 0
M  V30 7431 H 711.639 5.06348 -0.396701 0
M  V30 7432 H 711.569 5.08105 1.38335 0
M  V30 7433 H 714.06 3.73144 0.597639 0
M  V30 7434 H 714.373 7.70462 0.600741 0
M  V30 7435 H 712.718 6.92843 0.547191 0
M  V30 7436 H 715.909 4.63467 0.656975 0
M  V30 7437 H 716.082 6.44644 0.658616 0
M  V30 7438 N 709.488 -0.375779 1.53054 0
M  V30 7439 C 710.451 -1.44254 1.7811 0
M  V30 7440 C 711.451 -1.47018 0.651328 0
M  V30 7441 O 712.641 -1.47957 0.919472 0
M  V30 7442 C 709.773 -2.8345 1.89391 0
M  V30 7443 H 710.966 -1.23316 2.73374 0
M  V30 7444 H 708.519 -0.608312 1.43977 0
M  V30 7445 H 709.254 -3.09716 0.961589 0
M  V30 7446 H 709.039 -2.82844 2.71555 0
M  V30 7447 H 710.529 -3.60722 2.10404 0
M  V30 7448 N 710.966 -1.44241 -0.634997 0
M  V30 7449 C 711.876 -1.53293 -1.77591 0
M  V30 7450 C 712.892 -0.418831 -1.68884 0
M  V30 7451 O 714.068 -0.675619 -1.8973 0
M  V30 7452 C 711.133 -1.47075 -3.13958 0
M  V30 7453 C 710.194 -2.69304 -3.34326 0
M  V30 7454 C 709.427 -2.63374 -4.64187 0
M  V30 7455 O 709.65 -1.69161 -5.44739 0
M  V30 7456 O 708.584 -3.54166 -4.86673 0
M  V30 7457 H 712.41 -2.49673 -1.72908 0
M  V30 7458 H 709.995 -1.26445 -0.795745 0
M  V30 7459 H 711.877 -1.46117 -3.95257 0
M  V30 7460 H 710.552 -0.538373 -3.19192 0
M  V30 7461 H 709.459 -2.75831 -2.52721 0
M  V30 7462 H 710.792 -3.61576 -3.33951 0
M  V30 7463 N 712.444 0.87505 -1.31075 0
M  V30 7464 C 713.86 1.15997 -1.09622 0
M  V30 7465 C 714.06 2.01036 0.136611 0
M  V30 7466 O 713.116 2.38559 0.827397 0
M  V30 7467 C 714.429 1.85702 -2.36506 0
M  V30 7468 C 715.977 1.98425 -2.42067 0
M  V30 7469 C 716.452 2.71544 -3.68819 0
M  V30 7470 N 717.943 2.79084 -3.69684 0
M  V30 7471 C 718.678 3.36259 -4.64454 0
M  V30 7472 N 718.174 3.94406 -5.69575 0
M  V30 7473 N 719.967 3.34169 -4.51982 0
M  V30 7474 H 712.118 0.308258 -2.10151 0
M  V30 7475 H 714.381 0.199145 -0.926847 0
M  V30 7476 H 714.087 1.30663 -3.26527 0
M  V30 7477 H 713.961 2.86017 -2.45915 0
M  V30 7478 H 716.348 2.5263 -1.52518 0
M  V30 7479 H 716.429 0.971682 -2.36626 0
M  V30 7480 H 716.073 2.18008 -4.58732 0
M  V30 7481 H 716.003 3.73198 -3.71525 0
M  V30 7482 H 718.494 2.3781 -2.93691 0
M  V30 7483 H 718.807 4.36129 -6.37974 0
M  V30 7484 H 717.152 3.92797 -5.73355 0
M  V30 7485 H 720.343 2.87977 -3.69035 0
M  V30 7486 H 720.516 3.78431 -5.26017 0
M  V30 7487 N 713.922 1.13953 1.08869 0
M  V30 7488 C 714.832 0.835666 2.19212 0
M  V30 7489 C 715.848 -0.182005 1.73045 0
M  V30 7490 O 717.024 -0.0116661 2.01397 0
M  V30 7491 C 714.089 0.312325 3.4529 0
M  V30 7492 C 713.15 1.39196 4.06107 0
M  V30 7493 C 712.383 0.893496 5.26168 0
M  V30 7494 O 712.606 -0.266807 5.69776 0
M  V30 7495 O 711.54 1.67037 5.78258 0
M  V30 7496 H 715.366 1.75769 2.47667 0
M  V30 7497 H 712.951 0.917421 1.17914 0
M  V30 7498 H 714.833 0.0261582 4.21392 0
M  V30 7499 H 713.508 -0.582042 3.18424 0
M  V30 7500 H 712.415 1.73152 3.31616 0
M  V30 7501 H 713.748 2.26068 4.37212 0
M  V30 7502 N 715.4 -1.26948 0.933913 0
M  V30 7503 C 716.628 -1.98186 0.59414 0
M  V30 7504 C 717.043 -1.69614 -0.829257 0
M  V30 7505 O 716.4 -0.960213 -1.55197 0
M  V30 7506 C 716.451 -3.52123 0.818026 0
M  V30 7507 O 716.172 -3.79698 2.18543 0
M  V30 7508 C 717.673 -4.40608 0.48781 0
M  V30 7509 H 714.893 -0.632305 0.224569 0
M  V30 7510 H 717.437 -1.61646 1.25263 0
M  V30 7511 H 715.592 -3.86851 0.206246 0
M  V30 7512 H 716.006 -4.7426 2.24005 0
M  V30 7513 H 717.48 -5.47606 0.695126 0
M  V30 7514 H 717.957 -4.35394 -0.576913 0
M  V30 7515 H 718.563 -4.11411 1.078 0
M  V30 7516 N 716.879 -0.700114 -1.41195 0
M  V30 7517 C 718.128 -0.230082 -2.00383 0
M  V30 7518 C 718.441 1.17857 -1.56106 0
M  V30 7519 O 719.647 1.74631 -2.07885 0
M  V30 7520 C 718.103 -0.360447 -3.5809 0
M  V30 7521 C 717.711 -1.77475 -4.11347 0
M  V30 7522 C 719.455 0.0495799 -4.24471 0
M  V30 7523 C 717.362 -1.85653 -5.61504 0
M  V30 7524 H 716.292 -0.0822633 -0.749499 0
M  V30 7525 H 718.943 -0.868969 -1.6162 0
M  V30 7526 H 717.325 0.346768 -3.94479 0
M  V30 7527 H 718.499 -2.51109 -3.86369 0
M  V30 7528 H 716.814 -2.13486 -3.57509 0
M  V30 7529 H 719.411 0.00898219 -5.34699 0
M  V30 7530 H 719.754 1.08904 -4.01803 0
M  V30 7531 H 720.287 -0.607521 -3.93134 0
M  V30 7532 H 717.026 -2.87667 -5.89006 0
M  V30 7533 H 716.546 -1.1641 -5.88395 0
M  V30 7534 H 718.225 -1.62151 -6.26351 0
M  V30 7535 N 718.357 1.51182 -0.445186 0
M  V30 7536 C 719.289 2.25714 0.398206 0
M  V30 7537 C 720.302 1.30032 0.979562 0
M  V30 7538 O 721.491 1.55731 0.872368 0
M  V30 7539 C 718.591 3.00348 1.56985 0
M  V30 7540 C 717.764 4.23187 1.10596 0
M  V30 7541 C 716.823 4.80334 2.14863 0
M  V30 7542 O 715.849 5.4196 1.73977 0
M  V30 7543 N 717.051 4.65053 3.47427 0
M  V30 7544 H 719.816 2.98732 -0.240629 0
M  V30 7545 H 717.377 1.59556 -0.274507 0
M  V30 7546 H 719.369 3.35464 2.26376 0
M  V30 7547 H 717.939 2.30291 2.11387 0
M  V30 7548 H 717.159 3.93476 0.238832 0
M  V30 7549 H 718.447 5.02886 0.773537 0
M  V30 7550 H 717.845 4.15984 3.83372 0
M  V30 7551 H 716.402 5.04509 4.12691 0
M  V30 7552 N 719.835 0.176821 1.56605 0
M  V30 7553 C 721.083 -0.465793 1.96659 0
M  V30 7554 C 721.404 -1.63406 1.06412 0
M  V30 7555 O 720.674 -1.95457 0.131603 0
M  V30 7556 H 719.254 -0.175072 0.726195 0
M  V30 7557 H 721.916 0.25929 1.93168 0
M  V30 7558 H 721.012 -0.822138 3.01077 0
M  V30 7559 N 721.313 -1.57302 -0.09688 0
M  V30 7560 C 722.538 -1.9058 -0.818169 0
M  V30 7561 C 722.963 -0.770921 -1.71576 0
M  V30 7562 O 722.321 0.277588 -1.79162 0
M  V30 7563 C 722.369 -3.22714 -1.60898 0
M  V30 7564 O 721.473 -3.10178 -2.71779 0
M  V30 7565 H 720.814 -0.624759 -0.224882 0
M  V30 7566 H 723.344 -2.04471 -0.07264 0
M  V30 7567 H 723.354 -3.55978 -1.99358 0
M  V30 7568 H 722.029 -4.04899 -0.950227 0
M  V30 7569 H 720.606 -2.88424 -2.3636 0
M  V30 7570 N 722.791 0.367657 -1.53252 0
M  V30 7571 C 724.068 1.12606 -1.59935 0
M  V30 7572 C 724.448 2.07167 -0.405606 0
M  V30 7573 O 723.796 2.20364 0.604323 0
M  V30 7574 C 724.006 1.86699 -2.94863 0
M  V30 7575 C 725.354 2.41306 -3.49366 0
M  V30 7576 O 726.378 1.96828 -2.96879 0
M  V30 7577 O 725.237 3.2261 -4.41118 0
M  V30 7578 H 722.331 0.516438 -0.645926 0
M  V30 7579 H 724.877 0.371088 -1.65593 0
M  V30 7580 H 723.649 1.17674 -3.73187 0
M  V30 7581 H 723.272 2.6911 -2.92687 0
M  V30 7582 N 724.269 1.44576 0.627338 0
M  V30 7583 C 725.685 1.28546 0.945938 0
M  V30 7584 C 725.885 0.224003 2.00251 0
M  V30 7585 O 724.941 -0.388817 2.49488 0
M  V30 7586 C 726.254 2.65825 1.40561 0
M  V30 7587 C 727.802 2.73566 1.52088 0
M  V30 7588 C 728.277 4.11323 2.01438 0
M  V30 7589 N 729.768 4.13519 2.08702 0
M  V30 7590 C 730.503 5.16964 2.48065 0
M  V30 7591 N 729.999 6.30768 2.86538 0
M  V30 7592 N 731.792 5.04319 2.48232 0
M  V30 7593 H 723.943 2.1228 -0.0713567 0
M  V30 7594 H 726.206 0.947503 0.0307081 0
M  V30 7595 H 725.912 3.44591 0.703539 0
M  V30 7596 H 725.786 2.92969 2.37591 0
M  V30 7597 H 728.173 1.95116 2.21391 0
M  V30 7598 H 728.254 2.50159 0.534237 0
M  V30 7599 H 727.898 4.9025 1.32729 0
M  V30 7600 H 727.828 4.32109 3.0098 0
M  V30 7601 H 730.319 3.31385 1.81638 0
M  V30 7602 H 730.632 7.0551 3.15398 0
M  V30 7603 H 728.977 6.342 2.84281 0
M  V30 7604 H 732.168 4.14465 2.17569 0
M  V30 7605 H 732.341 5.85059 2.78585 0
M  V30 7606 N 725.747 -0.868086 1.31537 0
M  V30 7607 C 726.995 -1.61807 1.21091 0
M  V30 7608 C 727.316 -1.93631 -0.230623 0
M  V30 7609 O 726.586 -1.5846 -1.15183 0
M  V30 7610 H 725.166 -0.599854 0.445178 0
M  V30 7611 H 727.828 -1.03915 1.64887 0
M  V30 7612 H 726.924 -2.56088 1.78396 0
M  V30 7613 N 727.225 -1.14528 -1.08264 0
M  V30 7614 C 728.155 -0.856356 -2.1723 0
M  V30 7615 C 729.136 0.189251 -1.69044 0
M  V30 7616 O 730.321 0.0456119 -1.94146 0
M  V30 7617 C 727.451 -0.334662 -3.45684 0
M  V30 7618 C 726.405 -1.31588 -4.0727 0
M  V30 7619 C 725.731 -0.653428 -5.30692 0
M  V30 7620 C 727.031 -2.67866 -4.48381 0
M  V30 7621 H 728.725 -1.76755 -2.41657 0
M  V30 7622 H 726.271 -0.851287 -1.16143 0
M  V30 7623 H 728.224 -0.120128 -4.21229 0
M  V30 7624 H 726.948 0.611967 -3.20815 0
M  V30 7625 H 725.607 -1.51661 -3.33758 0
M  V30 7626 H 725.255 0.299054 -5.0211 0
M  V30 7627 H 724.955 -1.30817 -5.72853 0
M  V30 7628 H 726.479 -0.448453 -6.08951 0
M  V30 7629 H 727.893 -2.51692 -5.15096 0
M  V30 7630 H 726.29 -3.29627 -5.01464 0
M  V30 7631 H 727.36 -3.24632 -3.60198 0
M  V30 7632 N 728.703 1.26451 -0.940633 0
M  V30 7633 C 729.931 1.97868 -0.604642 0
M  V30 7634 C 730.346 1.70051 0.820251 0
M  V30 7635 O 729.703 0.96843 1.54686 0
M  V30 7636 C 729.754 3.51684 -0.836689 0
M  V30 7637 O 729.475 3.78533 -2.20554 0
M  V30 7638 C 730.976 4.40343 -0.511169 0
M  V30 7639 H 728.196 0.631105 -0.227919 0
M  V30 7640 H 730.74 1.60979 -1.26119 0
M  V30 7641 H 728.895 3.86736 -0.226759 0
M  V30 7642 H 729.309 4.73065 -2.26517 0
M  V30 7643 H 730.783 5.47229 -0.724157 0
M  V30 7644 H 731.26 4.35694 0.553815 0
M  V30 7645 H 731.866 4.10834 -1.0998 0
M  V30 7646 N 730.181 0.707592 1.40822 0
M  V30 7647 C 731.144 0.0587224 2.29125 0
M  V30 7648 C 732.144 -0.695624 1.44975 0
M  V30 7649 O 733.334 -0.528718 1.65983 0
M  V30 7650 C 730.466 -0.926939 3.28056 0
M  V30 7651 H 731.659 0.836349 2.88002 0
M  V30 7652 H 729.212 0.471778 1.4901 0
M  V30 7653 H 729.947 -1.7319 2.74182 0
M  V30 7654 H 729.732 -0.389015 3.90165 0
M  V30 7655 H 731.222 -1.37837 3.94196 0
M  V30 7656 N 731.66 -1.50943 0.453197 0
M  V30 7657 C 733.071 -1.86699 -0.00619892 0
M  V30 7658 C 733.422 -1.3693 -1.40515 0
M  V30 7659 O 732.547 -0.726715 -2.03833 0
M  V30 7660 C 733.142 -3.38795 -0.018025 0
M  V30 7661 C 731.701 -3.74028 -0.421885 0
M  V30 7662 C 730.848 -2.74752 0.375087 0
M  V30 7663 H 733.799 -1.43942 0.668317 0
M  V30 7664 H 733.82 -3.71468 -0.824125 0
M  V30 7665 H 733.332 -3.74988 1.00028 0
M  V30 7666 H 731.433 -3.43431 -1.44521 0
M  V30 7667 H 731.546 -4.78908 -0.135664 0
M  V30 7668 H 729.91 -2.5414 -0.168794 0
M  V30 7669 H 730.693 -3.13787 1.39256 0
M  V30 7670 N 733.138 -0.185124 -1.56509 0
M  V30 7671 C 734.554 0.170865 -1.58683 0
M  V30 7672 C 734.754 1.61799 -1.20098 0
M  V30 7673 O 733.81 2.35181 -0.919038 0
M  V30 7674 C 735.123 -0.122459 -3.00451 0
M  V30 7675 C 736.671 -0.0617699 -3.12939 0
M  V30 7676 C 737.146 -0.328269 -4.56822 0
M  V30 7677 N 738.637 -0.276533 -4.62374 0
M  V30 7678 C 739.372 -0.456722 -5.71578 0
M  V30 7679 N 738.868 -0.69672 -6.89288 0
M  V30 7680 N 740.661 -0.391669 -5.60734 0
M  V30 7681 H 732.812 -1.12956 -1.79874 0
M  V30 7682 H 735.075 -0.45011 -0.834329 0
M  V30 7683 H 734.781 -1.12546 -3.33206 0
M  V30 7684 H 734.655 0.579578 -3.72721 0
M  V30 7685 H 737.042 0.931826 -2.80002 0
M  V30 7686 H 737.123 -0.796732 -2.43076 0
M  V30 7687 H 736.767 -1.31914 -4.9047 0
M  V30 7688 H 736.697 0.427465 -5.24862 0
M  V30 7689 H 739.188 -0.0972458 -3.77775 0
M  V30 7690 H 739.501 -0.823291 -7.68402 0
M  V30 7691 H 737.846 -0.733497 -6.91119 0
M  V30 7692 H 741.037 -0.204663 -4.67652 0
M  V30 7693 H 741.21 -0.535518 -6.45783 0
M  V30 7694 N 734.616 1.57351 0.0885366 0
M  V30 7695 C 735.579 2.01557 1.09121 0
M  V30 7696 C 736.579 0.910052 1.3257 0
M  V30 7697 O 737.769 1.17537 1.28572 0
M  V30 7698 C 734.901 2.38189 2.43883 0
M  V30 7699 H 736.094 2.91361 0.710562 0
M  V30 7700 H 733.647 1.52694 0.333779 0
M  V30 7701 H 734.382 1.5136 2.86811 0
M  V30 7702 H 734.167 3.18846 2.28209 0
M  V30 7703 H 735.657 2.73025 3.15986 0
M  V30 7704 N 736.094 -0.359525 1.53444 0
M  V30 7705 C 737.342 -1.09935 1.69584 0
M  V30 7706 C 737.663 -1.89656 0.453371 0
M  V30 7707 O 736.933 -1.8852 -0.53263 0
M  V30 7708 H 735.513 -0.408843 0.625185 0
M  V30 7709 H 738.175 -0.40467 1.90653 0
M  V30 7710 H 737.271 -1.78575 2.55964 0
M  V30 7711 N 737.572 -1.44907 -0.619662 0
M  V30 7712 C 738.82 -1.47999 -1.37625 0
M  V30 7713 C 739.141 -0.118295 -1.94641 0
M  V30 7714 O 738.411 0.85086 -1.76457 0
M  V30 7715 H 736.991 -0.544993 -0.510873 0
M  V30 7716 H 739.653 -1.80772 -0.728522 0
M  V30 7717 H 738.749 -2.21196 -2.20179 0
M  V30 7718 N 739.05 0.861098 -1.31996 0
M  V30 7719 C 740.327 1.59788 -1.12814 0
M  V30 7720 C 740.707 2.08753 0.313882 0
M  V30 7721 O 740.055 1.87258 1.30946 0
M  V30 7722 C 740.265 2.74901 -2.15012 0
M  V30 7723 C 741.613 3.44643 -2.48004 0
M  V30 7724 O 742.637 2.85119 -2.13508 0
M  V30 7725 O 741.496 4.52044 -3.07113 0
M  V30 7726 H 738.59 0.703408 -0.434909 0
M  V30 7727 H 741.136 0.905788 -1.43505 0
M  V30 7728 H 739.908 2.36198 -3.11971 0
M  V30 7729 H 739.531 3.51792 -1.85279 0
M  V30 7730 N 740.528 1.15101 1.07655 0
M  V30 7731 C 741.756 0.947731 1.83918 0
M  V30 7732 C 742.171 -0.503927 1.81951 0
M  V30 7733 O 741.528 -1.34941 1.2287 0
M  V30 7734 C 741.579 1.4503 3.31132 0
M  V30 7735 O 741.3 2.84508 3.33146 0
M  V30 7736 C 742.801 1.28806 4.24174 0
M  V30 7737 H 740.021 0.336786 0.580358 0
M  V30 7738 H 742.565 1.52799 1.35914 0
M  V30 7739 H 740.72 0.912632 3.76497 0
M  V30 7740 H 741.134 3.0723 4.251 0
M  V30 7741 H 742.608 1.6882 5.25551 0
M  V30 7742 H 743.085 0.231851 4.38588 0
M  V30 7743 H 743.691 1.81465 3.84643 0
M  V30 7744 N 742.006 -1.2595 0.947325 0
M  V30 7745 C 743.255 -1.92759 0.593887 0
M  V30 7746 C 743.568 -1.75083 -0.872093 0
M  V30 7747 O 744.774 -2.36401 -1.33518 0
M  V30 7748 C 743.23 -3.45395 1.01144 0
M  V30 7749 C 742.838 -3.71795 2.49946 0
M  V30 7750 C 744.582 -4.18173 0.730185 0
M  V30 7751 C 742.489 -5.17901 2.85539 0
M  V30 7752 H 741.419 -0.721676 0.218403 0
M  V30 7753 H 744.07 -1.4293 1.15079 0
M  V30 7754 H 742.452 -3.94143 0.383007 0
M  V30 7755 H 743.626 -3.33728 3.17746 0
M  V30 7756 H 741.941 -3.12263 2.75465 0
M  V30 7757 H 744.538 -5.25784 0.972367 0
M  V30 7758 H 744.881 -4.14964 -0.333223 0
M  V30 7759 H 745.414 -3.75309 1.31862 0
M  V30 7760 H 742.153 -5.26216 3.90867 0
M  V30 7761 H 741.673 -5.57042 2.22406 0
M  V30 7762 H 743.352 -5.8596 2.74336 0
M  V30 7763 N 743.484 -0.715051 -1.40445 0
M  V30 7764 C 744.416 -0.0227516 -2.29189 0
M  V30 7765 C 745.429 0.724313 -1.458 0
M  V30 7766 O 746.618 0.571781 -1.69094 0
M  V30 7767 C 743.718 0.992038 -3.24055 0
M  V30 7768 C 742.891 0.310613 -4.36296 0
M  V30 7769 C 741.95 1.23071 -5.11605 0
M  V30 7770 O 740.976 0.71571 -5.64682 0
M  V30 7771 N 742.178 2.56188 -5.2091 0
M  V30 7772 H 744.943 -0.78473 -2.89244 0
M  V30 7773 H 742.504 -0.562637 -1.51809 0
M  V30 7774 H 744.496 1.60973 -3.71308 0
M  V30 7775 H 743.066 1.65538 -2.65171 0
M  V30 7776 H 742.286 -0.487269 -3.91177 0
M  V30 7777 H 743.574 -0.162415 -5.08541 0
M  V30 7778 H 742.972 3.00527 -4.7927 0
M  V30 7779 H 741.529 3.13103 -5.71673 0
M  V30 7780 N 744.962 1.50701 -0.461195 0
M  V30 7781 C 746.21 2.01867 0.0970051 0
M  V30 7782 C 746.531 1.34591 1.41104 0
M  V30 7783 O 745.801 0.488041 1.89723 0
M  V30 7784 H 744.381 0.74599 0.0388392 0
M  V30 7785 H 747.043 1.85129 -0.609357 0
M  V30 7786 H 746.139 3.11051 0.255688 0
M  V30 7787 N 746.441 0.193421 1.56409 0
M  V30 7788 C 747.404 -0.714371 2.17783 0
M  V30 7789 C 748.404 -1.1422 1.13183 0
M  V30 7790 O 749.594 -1.05557 1.38576 0
M  V30 7791 C 746.726 -1.97509 2.77855 0
M  V30 7792 H 747.919 -0.179714 2.99361 0
M  V30 7793 H 745.472 -0.0561944 1.56199 0
M  V30 7794 H 746.207 -2.5523 2.0007 0
M  V30 7795 H 745.992 -1.67706 3.54425 0
M  V30 7796 H 747.482 -2.62246 3.24987 0
M  V30 7797 N 747.919 -1.57396 -0.0801906 0
M  V30 7798 C 749.147 -1.91055 -0.794075 0
M  V30 7799 C 749.562 -0.788583 -1.71542 0
M  V30 7800 O 748.919 0.238587 -1.80934 0
M  V30 7801 C 748.97 -3.24418 -1.59484 0
M  V30 7802 O 748.691 -4.323 -0.710532 0
M  V30 7803 C 750.192 -3.72037 -2.41046 0
M  V30 7804 H 747.412 -0.63171 -0.226238 0
M  V30 7805 H 749.956 -2.04431 -0.0529685 0
M  V30 7806 H 748.111 -3.12595 -2.2883 0
M  V30 7807 H 748.525 -5.08976 -1.26663 0
M  V30 7808 H 749.999 -4.68006 -2.92702 0
M  V30 7809 H 750.476 -3.00624 -3.2019 0
M  V30 7810 H 751.082 -3.86777 -1.76871 0
M  V30 7811 N 749.397 0.351382 -1.53633 0
M  V30 7812 C 750.345 1.45142 -1.8176 0
M  V30 7813 C 751.339 1.54819 -0.687571 0
M  V30 7814 O 752.545 1.57536 -0.870772 0
M  V30 7815 H 748.92 0.483789 -0.575719 0
M  V30 7816 H 750.891 1.1863 -2.73806 0
M  V30 7817 C 749.64 2.81779 -2.03706 0
M  V30 7818 H 748.963 2.75097 -2.90107 0
M  V30 7819 H 750.403 3.5789 -2.27356 0
M  V30 7820 C 748.862 3.26762 -0.820271 0
M  V30 7821 O 749.392 4.01697 -0.0158603 0
M  V30 7822 N 747.598 2.83472 -0.639699 0
M  V30 7823 H 747.145 2.22655 -1.29547 0
M  V30 7824 H 747.103 3.13924 0.172995 0
M  V30 7825 N 750.875 1.45233 0.611969 0
M  V30 7826 C 752.291 1.29542 0.932251 0
M  V30 7827 C 752.491 0.24523 2.00002 0
M  V30 7828 O 751.547 -0.362333 2.49887 0
M  V30 7829 C 752.86 2.67301 1.37733 0
M  V30 7830 C 754.408 2.75163 1.49178 0
M  V30 7831 C 754.883 4.13437 1.97064 0
M  V30 7832 N 756.374 4.15709 2.04304 0
M  V30 7833 C 757.109 5.19566 2.42568 0
M  V30 7834 N 756.605 6.33771 2.79832 0
M  V30 7835 N 758.398 5.06923 2.42869 0
M  V30 7836 H 750.549 2.12192 -0.0938679 0
M  V30 7837 H 752.812 0.947775 0.0206569 0
M  V30 7838 H 752.518 3.45318 0.666951 0
M  V30 7839 H 752.392 2.95472 2.3447 0
M  V30 7840 H 754.779 1.97453 2.19309 0
M  V30 7841 H 754.86 2.50712 0.507674 0
M  V30 7842 H 754.504 4.91631 1.27521 0
M  V30 7843 H 754.434 4.35277 2.9638 0
M  V30 7844 H 756.925 3.33293 1.78113 0
M  V30 7845 H 757.238 7.08815 3.07898 0
M  V30 7846 H 755.583 6.37179 2.77538 0
M  V30 7847 H 758.774 4.1675 2.1316 0
M  V30 7848 H 758.947 5.87981 2.72364 0
M  V30 7849 N 752.353 -0.854086 1.3245 0
M  V30 7850 C 753.601 -1.60513 1.228 0
M  V30 7851 C 753.922 -1.93865 -0.210073 0
M  V30 7852 O 753.192 -1.59673 -1.13496 0
M  V30 7853 H 751.772 -0.595099 0.451516 0
M  V30 7854 H 754.434 -1.0216 1.6598 0
M  V30 7855 H 753.53 -2.54182 1.81102 0
M  V30 7856 N 753.831 -1.1567 -1.07043 0
M  V30 7857 C 754.761 -0.879348 -2.16309 0
M  V30 7858 C 755.742 0.171311 -1.69235 0
M  V30 7859 O 756.927 0.0250175 -1.94184 0
M  V30 7860 C 754.057 -0.371307 -3.45309 0
M  V30 7861 C 753.011 -1.359 -4.05851 0
M  V30 7862 C 752.337 -0.709678 -5.29969 0
M  V30 7863 C 753.637 -2.72606 -4.45514 0
M  V30 7864 H 755.331 -1.79308 -2.39768 0
M  V30 7865 H 752.877 -0.863558 -1.15233 0
M  V30 7866 H 754.83 -0.164798 -4.21078 0
M  V30 7867 H 753.554 0.577906 -3.21446 0
M  V30 7868 H 752.213 -1.55193 -3.32131 0
M  V30 7869 H 751.861 0.245782 -5.02399 0
M  V30 7870 H 751.561 -1.36886 -5.71433 0
M  V30 7871 H 753.085 -0.513015 -6.08441 0
M  V30 7872 H 754.499 -2.57141 -5.12398 0
M  V30 7873 H 752.896 -3.34927 -4.97939 0
M  V30 7874 H 753.966 -3.28434 -3.56734 0
M  V30 7875 N 755.309 1.25446 -0.953992 0
M  V30 7876 C 756.272 2.24156 -0.478179 0
M  V30 7877 C 757.272 1.55278 0.417776 0
M  V30 7878 O 758.462 1.72866 0.215155 0
M  V30 7879 C 755.594 3.39495 0.309202 0
M  V30 7880 H 756.787 2.67764 -1.35064 0
M  V30 7881 H 754.34 1.37822 -0.737206 0
M  V30 7882 H 755.075 3.01307 1.19936 0
M  V30 7883 H 754.86 3.90679 -0.333562 0
M  V30 7884 H 756.35 4.12796 0.631594 0
M  V30 7885 N 756.787 0.722489 1.40064 0
M  V30 7886 C 757.75 0.0830209 2.2905 0
M  V30 7887 C 758.75 -0.680208 1.45705 0
M  V30 7888 O 759.94 -0.511084 1.66534 0
M  V30 7889 C 757.072 -0.892092 3.29021 0
M  V30 7890 H 758.265 0.866848 2.87099 0
M  V30 7891 H 755.818 0.487556 1.48501 0
M  V30 7892 H 756.553 -1.70273 2.76003 0
M  V30 7893 H 756.338 -0.34761 3.90556 0
M  V30 7894 H 757.828 -1.33648 3.95636 0
M  V30 7895 N 758.265 -1.50454 0.469181 0
M  V30 7896 C 759.676 -1.86695 0.0136034 0
M  V30 7897 C 760.027 -1.38413 -1.39055 0
M  V30 7898 O 759.152 -0.748294 -2.03051 0
M  V30 7899 C 759.747 -3.38795 0.0179098 0
M  V30 7900 C 758.306 -3.74455 -0.382191 0
M  V30 7901 C 757.453 -2.74338 0.404207 0
M  V30 7902 H 760.404 -1.43225 0.683547 0
M  V30 7903 H 760.425 -3.72321 -0.78468 0
M  V30 7904 H 759.937 -3.73906 1.04 0
M  V30 7905 H 758.038 -3.44944 -1.4087 0
M  V30 7906 H 758.151 -4.79025 -0.084862 0
M  V30 7907 H 756.515 -2.54305 -0.141829 0
M  V30 7908 H 757.298 -3.12293 1.42577 0
M  V30 7909 N 759.743 -0.201713 -1.56304 0
M  V30 7910 C 760.675 0.748466 -2.16635 0
M  V30 7911 C 761.688 1.172 -1.12996 0
M  V30 7912 O 762.877 1.10658 -1.40061 0
M  V30 7913 C 759.977 2.02296 -2.719 0
M  V30 7914 C 759.15 1.75818 -4.00508 0
M  V30 7915 C 758.209 2.87779 -4.40533 0
M  V30 7916 O 757.235 2.57101 -5.07826 0
M  V30 7917 N 758.437 4.16287 -4.04581 0
M  V30 7918 H 761.202 0.232505 -2.98797 0
M  V30 7919 H 758.763 -0.0199822 -1.61888 0
M  V30 7920 H 760.755 2.7635 -2.95657 0
M  V30 7921 H 759.325 2.44996 -1.94154 0
M  V30 7922 H 758.545 0.855095 -3.84814 0
M  V30 7923 H 759.833 1.55532 -4.84445 0
M  V30 7924 H 759.231 4.44061 -3.50466 0
M  V30 7925 H 757.788 4.86946 -4.33274 0
M  V30 7926 N 761.222 1.57436 0.0718424 0
M  V30 7927 C 762.469 1.87248 0.771007 0
M  V30 7928 C 762.797 0.793441 1.7758 0
M  V30 7929 O 762.052 -0.210565 1.94564 0
M  V30 7930 C 762.351 3.23723 1.51455 0
M  V30 7931 C 762.017 4.46194 0.649736 0
M  V30 7932 C 760.679 4.79438 0.411409 0
M  V30 7933 C 763.031 5.21176 0.05004 0
M  V30 7934 C 760.359 5.85077 -0.436096 0
M  V30 7935 C 762.711 6.27712 -0.784919 0
M  V30 7936 C 761.375 6.59457 -1.03312 0
M  V30 7937 H 760.645 0.685188 0.282132 0
M  V30 7938 H 763.292 1.91474 0.0317896 0
M  V30 7939 H 761.597 3.15287 2.32597 0
M  V30 7940 H 763.294 3.44023 2.06031 0
M  V30 7941 H 759.884 4.20175 0.84562 0
M  V30 7942 H 764.068 4.95806 0.221282 0
M  V30 7943 H 759.324 6.08071 -0.637136 0
M  V30 7944 H 763.498 6.84974 -1.25635 0
M  V30 7945 H 761.125 7.4114 -1.6916 0
M  V30 7946 N 762.7 -0.34323 1.53817 0
M  V30 7947 C 763.925 -1.1079 1.75329 0
M  V30 7948 C 764.35 -1.81571 0.491293 0
M  V30 7949 O 763.708 -1.72561 -0.556089 0
M  V30 7950 C 763.756 -2.09681 2.9337 0
M  V30 7951 O 762.86 -3.17207 2.63541 0
M  V30 7952 H 762.201 -0.320402 0.581583 0
M  V30 7953 H 764.731 -0.393525 2.0078 0
M  V30 7954 H 764.741 -2.52897 3.20168 0
M  V30 7955 H 763.416 -1.5756 3.84899 0
M  V30 7956 H 761.993 -2.78806 2.47632 0
M  V30 7957 N 764.178 -1.45556 -0.604258 0
M  V30 7958 C 765.108 -1.57327 -1.72541 0
M  V30 7959 C 766.089 -0.424637 -1.64714 0
M  V30 7960 O 767.274 -0.648196 -1.83063 0
M  V30 7961 C 764.404 -1.54279 -3.11152 0
M  V30 7962 C 763.358 -2.67893 -3.33792 0
M  V30 7963 C 762.684 -2.499 -4.72709 0
M  V30 7964 C 763.984 -4.0988 -3.23722 0
M  V30 7965 H 765.678 -2.51175 -1.62947 0
M  V30 7966 H 763.224 -1.20884 -0.782504 0
M  V30 7967 H 765.177 -1.6111 -3.89386 0
M  V30 7968 H 763.901 -0.569627 -3.21594 0
M  V30 7969 H 762.56 -2.60495 -2.57949 0
M  V30 7970 H 762.208 -1.50715 -4.79889 0
M  V30 7971 H 761.908 -3.26091 -4.88813 0
M  V30 7972 H 763.432 -2.5859 -5.5314 0
M  V30 7973 H 764.846 -4.18503 -3.91826 0
M  V30 7974 H 763.243 -4.86487 -3.51355 0
M  V30 7975 H 764.313 -4.31553 -2.21111 0
M  V30 7976 N 765.656 0.84705 -1.32902 0
M  V30 7977 C 766.902 1.60389 -1.25088 0
M  V30 7978 C 767.257 1.91521 0.183723 0
M  V30 7979 O 766.55 1.55197 1.12359 0
M  V30 7980 C 766.744 2.92663 -2.05142 0
M  V30 7981 C 766.573 2.74449 -3.56241 0
M  V30 7982 C 765.343 2.72434 -4.25567 0
M  V30 7983 C 767.541 2.47666 -4.5074 0
M  V30 7984 N 765.523 2.45512 -5.62669 0
M  V30 7985 C 766.894 2.30219 -5.75673 0
M  V30 7986 C 768.949 2.33196 -4.39914 0
M  V30 7987 C 767.652 1.99772 -6.91002 0
M  V30 7988 C 769.678 2.0414 -5.5505 0
M  V30 7989 C 769.04 1.875 -6.78987 0
M  V30 7990 H 765.139 0.590296 -0.512908 0
M  V30 7991 H 767.723 0.995058 -1.67352 0
M  V30 7992 H 765.894 3.51511 -1.65211 0
M  V30 7993 H 767.626 3.5777 -1.89163 0
M  V30 7994 H 764.381 2.85647 -3.7776 0
M  V30 7995 H 764.805 2.34958 -6.3492 0
M  V30 7996 H 769.447 2.44777 -3.44738 0
M  V30 7997 H 767.165 1.86928 -7.86183 0
M  V30 7998 H 770.751 1.93711 -5.48605 0
M  V30 7999 H 769.631 1.65339 -7.66572 0
M  V30 8000 N 767.134 1.16236 1.06428 0
M  V30 8001 C 768.081 0.86769 2.13869 0
M  V30 8002 C 769.051 -0.183298 1.65086 0
M  V30 8003 O 770.236 -0.0488002 1.90738 0
M  V30 8004 C 767.376 0.373427 3.43074 0
M  V30 8005 C 766.489 1.48708 4.05598 0
M  V30 8006 C 765.624 0.947977 5.22673 0
M  V30 8007 C 764.663 2.03793 5.77178 0
M  V30 8008 N 763.8 1.51451 6.85571 0
M  V30 8009 H 768.64 1.78781 2.38414 0
M  V30 8010 H 766.177 0.891892 1.16977 0
M  V30 8011 H 768.135 0.0685035 4.17144 0
M  V30 8012 H 766.765 -0.509752 3.1875 0
M  V30 8013 H 765.817 1.908 3.29089 0
M  V30 8014 H 767.129 2.30964 4.42105 0
M  V30 8015 H 766.283 0.596154 6.03764 0
M  V30 8016 H 765.022 0.0947081 4.87608 0
M  V30 8017 H 764.027 2.39847 4.94726 0
M  V30 8018 H 765.252 2.89514 6.14295 0
M  V30 8019 H 763.198 0.683755 6.52427 0
M  V30 8020 H 763.115 2.27325 7.21013 0
M  V30 8021 H 764.383 1.19123 7.70344 0
M  V30 8022 N 768.612 -1.24939 0.960631 0
M  V30 8023 C 770.028 -1.45039 0.666018 0
M  V30 8024 C 770.228 -1.86021 -0.774501 0
M  V30 8025 O 769.284 -1.99392 -1.54916 0
M  V30 8026 C 770.597 -2.51775 1.64408 0
M  V30 8027 C 772.145 -2.6561 1.65592 0
M  V30 8028 C 772.62 -3.75536 2.62177 0
M  V30 8029 N 774.111 -3.82954 2.60577 0
M  V30 8030 C 774.846 -4.67517 3.31987 0
M  V30 8031 N 774.342 -5.56321 4.1289 0
M  V30 8032 N 776.135 -4.61535 3.20845 0
M  V30 8033 H 768.286 -0.96632 1.89145 0
M  V30 8034 H 770.549 -0.486034 0.813926 0
M  V30 8035 H 770.255 -2.28534 2.67329 0
M  V30 8036 H 770.129 -3.49804 1.41128 0
M  V30 8037 H 772.516 -2.88212 0.633846 0
M  V30 8038 H 772.597 -1.67962 1.92931 0
M  V30 8039 H 772.241 -3.53684 3.64514 0
M  V30 8040 H 772.171 -4.72682 2.32119 0
M  V30 8041 H 774.662 -3.19478 2.01847 0
M  V30 8042 H 774.975 -6.17787 4.64283 0
M  V30 8043 H 773.32 -5.5601 4.16987 0
M  V30 8044 H 776.511 -3.91169 2.57108 0
M  V30 8045 H 776.684 -5.27214 3.76762 0
M  V30 8046 N 770.09 -0.729906 -1.39679 0
M  V30 8047 C 771.501 -0.346241 -1.83461 0
M  V30 8048 C 771.852 1.1215 -1.60987 0
M  V30 8049 O 770.977 1.86456 -1.09832 0
M  V30 8050 C 771.572 -0.621656 -3.33048 0
M  V30 8051 C 770.131 -0.291543 -3.75269 0
M  V30 8052 C 769.278 -0.886844 -2.62736 0
M  V30 8053 H 772.229 -0.927949 -1.28743 0
M  V30 8054 H 772.25 0.108301 -3.80346 0
M  V30 8055 H 771.762 -1.68996 -3.49373 0
M  V30 8056 H 769.863 0.771133 -3.64533 0
M  V30 8057 H 769.976 -0.770544 -4.72863 0
M  V30 8058 H 768.34 -0.313839 -2.52759 0
M  V30 8059 H 769.123 -1.95971 -2.81869 0
M  V30 8060 N 771.568 1.50203 -0.477153 0
M  V30 8061 C 772.814 2.02658 0.0758507 0
M  V30 8062 C 773.147 1.358 1.38824 0
M  V30 8063 O 772.422 0.485696 1.88338 0
M  V30 8064 C 772.705 3.59208 0.253339 0
M  V30 8065 C 772.558 4.36629 -1.0805 0
M  V30 8066 C 773.877 4.28469 1.00509 0
M  V30 8067 H 770.996 0.736538 0.0260921 0
M  V30 8068 H 773.638 1.79464 -0.623925 0
M  V30 8069 H 771.788 3.79101 0.849378 0
M  V30 8070 H 773.46 4.28292 -1.71358 0
M  V30 8071 H 771.703 4.0013 -1.67566 0
M  V30 8072 H 772.374 5.44449 -0.909883 0
M  V30 8073 H 774.85 4.13087 0.499818 0
M  V30 8074 H 773.726 5.37804 1.09808 0
M  V30 8075 H 773.987 3.92057 2.04314 0
M  V30 8076 N 773.046 0.209999 1.56195 0
M  V30 8077 C 774.292 -0.425442 1.98287 0
M  V30 8078 C 774.625 -1.60232 1.09724 0
M  V30 8079 O 773.9 -1.93902 0.152414 0
M  V30 8080 C 774.183 -0.871189 3.49403 0
M  V30 8081 C 774.036 0.308527 4.48741 0
M  V30 8082 C 775.355 -1.73146 4.04609 0
M  V30 8083 H 772.474 -0.153169 0.720908 0
M  V30 8084 H 775.116 0.303916 1.87554 0
M  V30 8085 H 773.266 -1.49266 3.58681 0
M  V30 8086 H 774.938 0.946487 4.51486 0
M  V30 8087 H 773.181 0.957878 4.23092 0
M  V30 8088 H 773.852 -0.0461143 5.51981 0
M  V30 8089 H 776.328 -1.2072 3.98203 0
M  V30 8090 H 775.204 -2.01228 5.10684 0
M  V30 8091 H 775.465 -2.69083 3.5078 0
M  V30 8092 N 774.524 -1.57472 -0.0634922 0
M  V30 8093 C 775.752 -1.91887 -0.773767 0
M  V30 8094 C 776.167 -0.806733 -1.70696 0
M  V30 8095 O 775.524 0.219383 -1.81177 0
M  V30 8096 C 775.575 -3.26092 -1.56034 0
M  V30 8097 O 775.296 -4.33029 -0.66464 0
M  V30 8098 C 776.797 -3.74573 -2.37087 0
M  V30 8099 H 774.017 -0.634074 -0.219525 0
M  V30 8100 H 776.561 -2.04476 -0.0312828 0
M  V30 8101 H 774.716 -3.15004 -2.25502 0
M  V30 8102 H 775.13 -5.10291 -1.21258 0
M  V30 8103 H 776.604 -4.71084 -2.87722 0
M  V30 8104 H 777.081 -3.04003 -3.16984 0
M  V30 8105 H 777.687 -3.88631 -1.72759 0
M  V30 8106 N 776.003 0.335068 -1.53997 0
M  V30 8107 C 776.966 1.39481 -1.81872 0
M  V30 8108 C 777.966 1.4524 -0.690078 0
M  V30 8109 O 779.156 1.45467 -0.958377 0
M  V30 8110 C 776.288 2.78329 -1.9684 0
M  V30 8111 H 777.481 1.16024 -2.76547 0
M  V30 8112 H 775.034 0.569926 -1.45539 0
M  V30 8113 H 775.769 3.07058 -1.04337 0
M  V30 8114 H 775.554 2.75544 -2.78958 0
M  V30 8115 H 777.044 3.55016 -2.19894 0
M  V30 8116 N 777.481 1.45874 0.596531 0
M  V30 8117 C 778.711 1.5379 1.37958 0
M  V30 8118 C 779.119 0.173086 1.88407 0
M  V30 8119 O 778.462 -0.837498 1.63498 0
M  V30 8120 C 778.524 2.47044 2.61169 0
M  V30 8121 C 778.188 3.93565 2.32283 0
M  V30 8122 C 779.185 4.83162 1.91965 0
M  V30 8123 C 776.87 4.38579 2.44854 0
M  V30 8124 C 778.864 6.15782 1.64593 0
M  V30 8125 C 776.551 5.71238 2.17095 0
M  V30 8126 C 777.549 6.59659 1.77028 0
M  V30 8127 O 777.237 7.89857 1.49601 0
M  V30 8128 H 776.969 0.523 0.428307 0
M  V30 8129 H 779.523 1.91855 0.733529 0
M  V30 8130 H 777.753 2.0397 3.28532 0
M  V30 8131 H 779.442 2.4552 3.23226 0
M  V30 8132 H 780.208 4.49646 1.8178 0
M  V30 8133 H 776.087 3.6999 2.75006 0
M  V30 8134 H 779.631 6.84757 1.33245 0
M  V30 8135 H 775.528 6.04306 2.26901 0
M  V30 8136 H 776.296 8.01991 1.63561 0
M  V30 8137 N 778.959 -0.83999 1.33349 0
M  V30 8138 C 780.208 -1.59011 1.2409 0
M  V30 8139 C 780.521 -1.94655 -0.192029 0
M  V30 8140 O 781.727 -2.68438 -0.406617 0
M  V30 8141 C 780.183 -2.86801 2.17425 0
M  V30 8142 C 779.791 -2.58525 3.65881 0
M  V30 8143 C 781.535 -3.64823 2.17036 0
M  V30 8144 C 779.442 -3.82404 4.51133 0
M  V30 8145 H 778.372 -0.596731 0.460899 0
M  V30 8146 H 781.023 -0.926274 1.58406 0
M  V30 8147 H 779.405 -3.54719 1.7604 0
M  V30 8148 H 780.579 -1.98824 4.15699 0
M  V30 8149 H 778.894 -1.93808 3.68548 0
M  V30 8150 H 781.491 -4.56774 2.7796 0
M  V30 8151 H 781.834 -3.99663 1.16513 0
M  V30 8152 H 782.367 -3.03826 2.56777 0
M  V30 8153 H 779.106 -3.52696 5.52527 0
M  V30 8154 H 778.626 -4.41447 4.0606 0
M  V30 8155 H 780.305 -4.49995 4.6488 0
M  V30 8156 N 780.437 -1.16799 -1.0581 0
M  V30 8157 C 781.347 -0.893492 -2.16919 0
M  V30 8158 C 782.363 0.136061 -1.73467 0
M  V30 8159 O 783.539 -0.0417348 -2.01357 0
M  V30 8160 C 780.604 -0.403763 -3.44341 0
M  V30 8161 C 779.665 -1.49914 -4.02274 0
M  V30 8162 C 778.898 -1.03269 -5.23614 0
M  V30 8163 O 779.121 0.115647 -5.70283 0
M  V30 8164 O 778.055 -1.8231 -5.73626 0
M  V30 8165 H 781.881 -1.82274 -2.42919 0
M  V30 8166 H 779.466 -0.948361 -1.1544 0
M  V30 8167 H 781.348 -0.137874 -4.21174 0
M  V30 8168 H 780.023 0.497413 -3.19855 0
M  V30 8169 H 778.93 -1.81883 -3.26909 0
M  V30 8170 H 780.263 -2.3758 -4.31064 0
M  V30 8171 N 781.915 1.24427 -0.967243 0
M  V30 8172 C 783.163 1.92107 -0.627638 0
M  V30 8173 C 783.484 1.75991 0.83978 0
M  V30 8174 O 782.754 1.13118 1.59941 0
M  V30 8175 H 781.334 0.710986 -0.229145 0
M  V30 8176 H 783.996 1.51331 -1.22821 0
M  V30 8177 H 783.092 2.99791 -0.867844 0
M  V30 8178 N 783.393 0.737304 1.3929 0
M  V30 8179 C 784.325 0.0592106 2.29124 0
M  V30 8180 C 785.338 -0.701026 1.46934 0
M  V30 8181 O 786.527 -0.544808 1.69983 0
M  V30 8182 C 783.627 -0.940358 3.25592 0
M  V30 8183 C 782.8 -0.241163 4.36735 0
M  V30 8184 C 781.859 -1.14916 5.13498 0
M  V30 8185 O 780.885 -0.625783 5.6575 0
M  V30 8186 N 782.087 -2.47869 5.2492 0
M  V30 8187 H 784.852 0.830647 2.87959 0
M  V30 8188 H 782.413 0.586718 1.50895 0
M  V30 8189 H 784.405 -1.55046 3.73822 0
M  V30 8190 H 782.975 -1.61299 2.67771 0
M  V30 8191 H 782.195 0.549441 3.90352 0
M  V30 8192 H 783.483 0.243299 5.08218 0
M  V30 8193 H 782.881 -2.92864 4.83991 0
M  V30 8194 H 781.438 -3.03969 5.76581 0
M  V30 8195 N 784.871 -1.49948 0.485112 0
M  V30 8196 C 786.282 -1.8667 0.0334041 0
M  V30 8197 C 786.633 -1.3988 -1.37579 0
M  V30 8198 O 785.758 -0.769788 -2.02245 0
M  V30 8199 C 786.353 -3.38757 0.0538426 0
M  V30 8200 C 784.912 -3.74839 -0.342453 0
M  V30 8201 C 784.059 -2.73894 0.433281 0
M  V30 8202 H 787.01 -1.42492 0.698699 0
M  V30 8203 H 787.031 -3.73132 -0.745146 0
M  V30 8204 H 786.543 -3.72782 1.07959 0
M  V30 8205 H 784.644 -3.46419 -1.37203 0
M  V30 8206 H 784.757 -4.79088 -0.0340503 0
M  V30 8207 H 783.121 -2.54441 -0.114849 0
M  V30 8208 H 783.904 -3.10763 1.45881 0
M  V30 8209 N 786.349 -0.21828 -1.56081 0
M  V30 8210 C 787.595 0.414921 -1.9851 0
M  V30 8211 C 787.928 1.59648 -1.10573 0
M  V30 8212 O 787.203 1.93818 -0.162695 0
M  V30 8213 C 787.486 0.852647 -3.4986 0
M  V30 8214 C 787.339 -0.33232 -4.48571 0
M  V30 8215 C 788.658 1.70998 -4.05521 0
M  V30 8216 H 785.777 0.149344 -0.72171 0
M  V30 8217 H 788.419 -0.313858 -1.8739 0
M  V30 8218 H 786.569 1.47362 -3.59467 0
M  V30 8219 H 788.241 -0.970418 -4.50977 0
M  V30 8220 H 786.484 -0.980302 -4.22578 0
M  V30 8221 H 787.155 0.0168407 -5.51997 0
M  V30 8222 H 789.631 1.18606 -3.98838 0
M  V30 8223 H 788.507 1.98517 -5.11744 0
M  V30 8224 H 788.768 2.67219 -3.52202 0
M  V30 8225 N 787.827 1.57504 0.0551401 0
M  V30 8226 C 788.737 2.08198 1.08124 0
M  V30 8227 C 789.753 1.01496 1.41331 0
M  V30 8228 O 790.929 1.33073 1.51174 0
M  V30 8229 C 787.994 2.52968 2.37083 0
M  V30 8230 C 787.055 3.7404 2.10696 0
M  V30 8231 C 786.288 4.16665 3.33505 0
M  V30 8232 O 786.511 3.59019 4.4324 0
M  V30 8233 O 785.445 5.09324 3.20737 0
M  V30 8234 H 789.271 2.95977 0.680518 0
M  V30 8235 H 786.856 1.46933 0.270401 0
M  V30 8236 H 788.738 2.82211 3.12946 0
M  V30 8237 H 787.413 1.6831 2.76502 0
M  V30 8238 H 786.32 3.49855 1.32484 0
M  V30 8239 H 787.653 4.59601 1.76148 0
M  V30 8240 N 789.305 -0.326896 1.54172 0
M  V30 8241 C 790.551 -1.06681 1.72473 0
M  V30 8242 C 790.884 -1.87779 0.49523 0
M  V30 8243 O 790.159 -1.87754 -0.507803 0
M  V30 8244 C 790.442 -1.99429 2.99834 0
M  V30 8245 C 790.295 -1.21682 4.33028 0
M  V30 8246 C 791.614 -2.99002 3.22933 0
M  V30 8247 H 788.733 -0.386438 0.627563 0
M  V30 8248 H 791.375 -0.343779 1.86864 0
M  V30 8249 H 789.525 -2.61081 2.87696 0
M  V30 8250 H 791.197 -0.625153 4.57044 0
M  V30 8251 H 789.44 -0.519045 4.30684 0
M  V30 8252 H 790.111 -1.89766 5.18356 0
M  V30 8253 H 792.587 -2.4747 3.34511 0
M  V30 8254 H 791.463 -3.61085 4.13412 0
M  V30 8255 H 791.724 -3.71281 2.40006 0
M  V30 8256 N 790.784 -1.46188 -0.588786 0
M  V30 8257 C 791.714 -1.59148 -1.70863 0
M  V30 8258 C 792.695 -0.442083 -1.64255 0
M  V30 8259 O 793.88 -0.667575 -1.82365 0
M  V30 8260 C 791.01 -1.5757 -3.09498 0
M  V30 8261 C 789.964 -2.71418 -3.30932 0
M  V30 8262 C 789.29 -2.549 -4.70032 0
M  V30 8263 C 790.59 -4.1329 -3.19356 0
M  V30 8264 H 792.284 -2.52889 -1.60274 0
M  V30 8265 H 789.83 -1.21707 -0.769638 0
M  V30 8266 H 791.783 -1.65231 -3.87655 0
M  V30 8267 H 790.507 -0.603705 -3.20972 0
M  V30 8268 H 789.166 -2.63216 -2.55172 0
M  V30 8269 H 788.814 -1.55797 -4.78264 0
M  V30 8270 H 788.514 -3.31257 -4.85327 0
M  V30 8271 H 790.038 -2.64443 -5.50366 0
M  V30 8272 H 791.452 -4.22636 -3.87365 0
M  V30 8273 H 789.849 -4.90187 -3.46175 0
M  V30 8274 H 790.919 -4.33874 -2.16522 0
M  V30 8275 N 792.262 0.832906 -1.33792 0
M  V30 8276 C 793.192 1.95828 -1.27176 0
M  V30 8277 C 794.173 1.69427 -0.15114 0
M  V30 8278 O 795.358 1.91167 -0.341886 0
M  V30 8279 C 792.488 3.32098 -1.01629 0
M  V30 8280 C 791.442 3.72912 -2.10049 0
M  V30 8281 C 790.768 5.07054 -1.69706 0
M  V30 8282 C 792.068 3.86064 -3.51783 0
M  V30 8283 H 793.762 2.01622 -2.21334 0
M  V30 8284 H 791.308 0.96866 -1.0655 0
M  V30 8285 H 793.261 4.10402 -0.956474 0
M  V30 8286 H 791.985 3.26577 -0.0390956 0
M  V30 8287 H 790.644 2.96876 -2.15082 0
M  V30 8288 H 790.292 4.9801 -0.706737 0
M  V30 8289 H 789.992 5.35333 -2.42264 0
M  V30 8290 H 791.516 5.87827 -1.65202 0
M  V30 8291 H 792.93 4.54665 -3.49218 0
M  V30 8292 H 791.327 4.25787 -4.22878 0
M  V30 8293 H 792.397 2.88344 -3.89854 0
M  V30 8294 N 793.74 1.17359 1.05189 0
M  V30 8295 C 795.017 0.871914 1.75091 0
M  V30 8296 C 795.397 -0.627821 2.01548 0
M  V30 8297 O 794.745 -1.5791 1.65156 0
M  V30 8298 C 794.955 1.70687 3.04413 0
M  V30 8299 C 796.303 1.92684 3.78362 0
M  V30 8300 O 797.327 1.67645 3.14282 0
M  V30 8301 O 796.186 2.34765 4.93505 0
M  V30 8302 H 793.28 0.322831 0.761386 0
M  V30 8303 H 795.826 1.28054 1.11357 0
M  V30 8304 H 794.598 2.72405 2.80911 0
M  V30 8305 H 794.221 1.29602 3.75884 0
M  V30 8306 N 795.218 -1.23913 0.973828 0
M  V30 8307 C 796.446 -1.96195 0.656891 0
M  V30 8308 C 796.861 -1.72166 -0.774876 0
M  V30 8309 O 796.218 -1.0091 -1.52064 0
M  V30 8310 C 796.269 -3.49342 0.929638 0
M  V30 8311 O 795.99 -3.72553 2.30512 0
M  V30 8312 C 797.491 -4.38833 0.627739 0
M  V30 8313 H 794.711 -0.624841 0.244572 0
M  V30 8314 H 797.255 -1.57579 1.30343 0
M  V30 8315 H 795.41 -3.85999 0.329216 0
M  V30 8316 H 795.824 -4.66893 2.3898 0
M  V30 8317 H 797.298 -5.45117 0.868991 0
M  V30 8318 H 797.775 -4.37009 -0.438104 0
M  V30 8319 H 798.381 -4.07773 1.20834 0
M  V30 8320 N 796.696 -0.74468 -1.38897 0
M  V30 8321 C 797.944 -0.296298 -1.99916 0
M  V30 8322 C 798.265 1.12325 -1.59399 0
M  V30 8323 O 797.535 1.76658 -0.846689 0
M  V30 8324 H 796.115 -0.106561 -0.73936 0
M  V30 8325 H 798.777 -0.956793 -1.69798 0
M  V30 8326 H 797.873 -0.352356 -3.10105 0
M  V30 8327 N 798.174 1.49689 -0.493057 0
M  V30 8328 C 799.137 2.27502 0.278485 0
M  V30 8329 C 800.137 1.33184 0.901037 0
M  V30 8330 O 801.327 1.56415 0.766801 0
M  V30 8331 C 798.459 3.10881 1.39878 0
M  V30 8332 H 799.652 2.97163 -0.404219 0
M  V30 8333 H 797.205 1.54324 -0.247774 0
M  V30 8334 H 797.94 2.45767 2.11587 0
M  V30 8335 H 797.725 3.80219 0.957924 0
M  V30 8336 H 799.215 3.69673 1.94247 0
M  V30 8337 N 799.652 0.226554 1.55963 0
M  V30 8338 C 800.929 -0.453058 1.90281 0
M  V30 8339 C 801.309 -1.77377 1.14458 0
M  V30 8340 O 800.657 -2.27067 0.255496 0
M  V30 8341 C 800.867 -0.641108 3.43061 0
M  V30 8342 C 802.215 -0.946265 4.13921 0
M  V30 8343 O 803.239 -0.727713 3.48687 0
M  V30 8344 O 802.098 -1.36131 5.29274 0
M  V30 8345 H 799.192 -0.240242 0.791336 0
M  V30 8346 H 801.738 0.26911 1.67553 0
M  V30 8347 H 800.51 0.290283 3.90222 0
M  V30 8348 H 800.133 -1.41458 3.71585 0
M  V30 8349 N 801.13 -1.57531 -0.0467866 0
M  V30 8350 C 802.407 -1.79568 -0.775536 0
M  V30 8351 C 802.787 -0.820322 -1.94509 0
M  V30 8352 O 802.135 0.14134 -2.28062 0
M  V30 8353 C 802.345 -3.26789 -1.22516 0
M  V30 8354 C 803.693 -3.91299 -1.64835 0
M  V30 8355 O 804.717 -3.30831 -1.3202 0
M  V30 8356 O 803.576 -4.97727 -2.25677 0
M  V30 8357 H 800.67 -0.737817 -0.373572 0
M  V30 8358 H 803.216 -1.69682 -0.0249302 0
M  V30 8359 H 801.988 -3.89357 -0.389446 0
M  V30 8360 H 801.611 -3.41496 -2.03633 0
M  V30 8361 N 802.608 0.318715 -1.54344 0
M  V30 8362 C 803.833 1.07987 -1.77069 0
M  V30 8363 C 804.258 1.80766 -0.520117 0
M  V30 8364 O 803.616 1.73424 0.528566 0
M  V30 8365 C 803.664 2.04987 -2.96669 0
M  V30 8366 O 802.768 3.12974 -2.68554 0
M  V30 8367 H 802.109 0.311109 -0.586606 0
M  V30 8368 H 804.639 0.361533 -2.0138 0
M  V30 8369 H 804.649 2.47771 -3.2415 0
M  V30 8370 H 803.324 1.51417 -3.87357 0
M  V30 8371 H 801.901 2.74831 -2.52037 0
M  V30 8372 N 804.086 1.46499 0.581025 0
M  V30 8373 C 805.335 1.51162 1.3354 0
M  V30 8374 C 805.648 0.168433 1.94873 0
M  V30 8375 O 806.854 0.092883 2.71341 0
M  V30 8376 C 805.31 2.66362 2.42032 0
M  V30 8377 C 804.918 4.07109 1.86994 0
M  V30 8378 C 806.662 2.80297 3.188 0
M  V30 8379 C 804.569 5.13645 2.93125 0
M  V30 8380 H 803.499 0.562576 0.502021 0
M  V30 8381 H 806.15 1.72713 0.619863 0
M  V30 8382 H 804.532 2.38143 3.16392 0
M  V30 8383 H 805.706 4.45125 1.19166 0
M  V30 8384 H 804.021 3.97854 1.22887 0
M  V30 8385 H 806.618 3.5706 3.9801 0
M  V30 8386 H 806.961 1.87875 3.71495 0
M  V30 8387 H 807.494 3.0817 2.51547 0
M  V30 8388 H 804.233 6.07866 2.45315 0
M  V30 8389 H 803.753 4.80172 3.59437 0
M  V30 8390 H 805.432 5.39562 3.57046 0
M  V30 8391 N 805.565 -0.825799 1.34232 0
M  V30 8392 C 806.811 -1.58419 1.26614 0
M  V30 8393 C 807.144 -1.93503 -0.164341 0
M  V30 8394 O 806.419 -1.59785 -1.109 0
M  V30 8395 C 806.702 -2.8856 2.15418 0
M  V30 8396 C 806.555 -2.60075 3.66989 0
M  V30 8397 C 807.874 -3.90107 2.03726 0
M  V30 8398 H 804.993 -0.574794 0.461282 0
M  V30 8399 H 807.635 -0.951519 1.64457 0
M  V30 8400 H 805.785 -3.42553 1.83275 0
M  V30 8401 H 807.457 -2.12414 4.09485 0
M  V30 8402 H 805.7 -1.93565 3.88221 0
M  V30 8403 H 806.371 -3.52866 4.24488 0
M  V30 8404 H 808.847 -3.45459 2.31942 0
M  V30 8405 H 807.723 -4.78976 2.68092 0
M  V30 8406 H 807.984 -4.30329 1.01337 0
M  V30 8407 N 807.043 -1.17915 -1.04565 0
M  V30 8408 C 808.006 -0.903787 -2.10628 0
M  V30 8409 C 809.006 0.10873 -1.60432 0
M  V30 8410 O 810.196 -0.124152 -1.73757 0
M  V30 8411 C 807.328 -0.355017 -3.39046 0
M  V30 8412 H 808.521 -1.84425 -2.3649 0
M  V30 8413 H 806.074 -0.990477 -1.2091 0
M  V30 8414 H 806.809 0.592297 -3.18845 0
M  V30 8415 H 806.594 -1.08484 -3.76794 0
M  V30 8416 H 808.084 -0.180891 -4.17208 0
M  V30 8417 N 808.521 1.23394 -0.980386 0
M  V30 8418 C 809.769 1.91431 -0.647978 0
M  V30 8419 C 810.09 1.76871 0.821066 0
M  V30 8420 O 809.36 1.14808 1.58732 0
M  V30 8421 H 807.94 0.708516 -0.236673 0
M  V30 8422 H 810.602 1.50019 -1.2442 0
M  V30 8423 H 809.698 2.98854 -0.899592 0
M  V30 8424 N 809.999 0.752036 1.385 0
M  V30 8425 C 811.248 0.304294 1.99391 0
M  V30 8426 C 811.561 -1.11982 1.60373 0
M  V30 8427 O 812.767 -1.66795 2.14223 0
M  V30 8428 C 811.223 0.493101 3.56506 0
M  V30 8429 C 810.831 1.9262 4.04477 0
M  V30 8430 C 812.575 0.107994 4.24363 0
M  V30 8431 C 810.482 2.06365 5.54227 0
M  V30 8432 H 809.412 0.110024 0.745929 0
M  V30 8433 H 812.063 0.928355 1.58284 0
M  V30 8434 H 810.445 -0.20012 3.95494 0
M  V30 8435 H 811.619 2.65276 3.76783 0
M  V30 8436 H 809.934 2.26608 3.49339 0
M  V30 8437 H 812.531 0.189474 5.34364 0
M  V30 8438 H 812.874 -0.939165 4.05568 0
M  V30 8439 H 813.407 0.753011 3.90608 0
M  V30 8440 H 810.146 3.0933 5.77923 0
M  V30 8441 H 809.666 1.38167 5.83669 0
M  V30 8442 H 811.345 1.85286 6.19902 0
M  V30 8443 N 811.477 -1.49425 0.500989 0
M  V30 8444 C 812.387 -2.32899 -0.282011 0
M  V30 8445 C 813.403 -1.44632 -0.967346 0
M  V30 8446 O 814.579 -1.77654 -0.94873 0
M  V30 8447 C 811.644 -3.20069 -1.33253 0
M  V30 8448 C 810.705 -4.24186 -0.660636 0
M  V30 8449 C 809.938 -5.07191 -1.6611 0
M  V30 8450 O 810.161 -4.91712 -2.89094 0
M  V30 8451 O 809.095 -5.8948 -1.21643 0
M  V30 8452 H 812.921 -3.01038 0.401224 0
M  V30 8453 H 810.506 -1.47079 0.262323 0
M  V30 8454 H 812.388 -3.74071 -1.94033 0
M  V30 8455 H 811.063 -2.54625 -1.9987 0
M  V30 8456 H 809.97 -3.74098 -0.0130959 0
M  V30 8457 H 811.303 -4.92186 -0.0369179 0
M  V30 8458 N 812.955 -0.234822 -1.55841 0
M  V30 8459 C 813.885 0.664217 -2.23854 0
M  V30 8460 C 814.866 1.19076 -1.2147 0
M  V30 8461 O 816.051 1.23232 -1.50091 0
M  V30 8462 C 813.181 1.86666 -2.9287 0
M  V30 8463 C 812.135 1.47341 -4.01839 0
M  V30 8464 C 811.461 2.75571 -4.58219 0
M  V30 8465 C 812.761 0.653479 -5.18196 0
M  V30 8466 H 814.455 0.0971213 -2.99242 0
M  V30 8467 H 812.001 0.0452724 -1.43929 0
M  V30 8468 H 813.954 2.50116 -3.39146 0
M  V30 8469 H 812.678 2.45894 -2.1495 0
M  V30 8470 H 811.337 0.862314 -3.56314 0
M  V30 8471 H 810.985 3.32971 -3.77014 0
M  V30 8472 H 810.685 2.49987 -5.31771 0
M  V30 8473 H 812.209 3.39939 -5.07221 0
M  V30 8474 H 813.623 1.19198 -5.60771 0
M  V30 8475 H 812.02 0.494188 -5.98062 0
M  V30 8476 H 813.09 -0.337004 -4.83728 0
M  V30 8477 N 814.433 1.57553 0.0384317 0
M  V30 8478 C 815.681 1.88468 0.729672 0
M  V30 8479 C 816.002 0.831302 1.76393 0
M  V30 8480 O 815.272 -0.13622 1.95426 0
M  V30 8481 H 813.852 0.695529 0.272485 0
M  V30 8482 H 816.514 1.94899 0.0066032 0
M  V30 8483 H 815.61 2.8705 1.22511 0
M  V30 8484 N 815.911 -0.310526 1.54511 0
M  V30 8485 C 816.859 -1.40272 1.85544 0
M  V30 8486 C 817.853 -1.52941 0.728377 0
M  V30 8487 O 819.059 -1.55172 0.912234 0
M  V30 8488 H 815.434 -0.468355 0.588343 0
M  V30 8489 H 817.405 -1.11329 2.76855 0
M  V30 8490 C 816.154 -2.76279 2.11105 0
M  V30 8491 H 815.477 -2.67308 2.97298 0
M  V30 8492 H 816.917 -3.51736 2.36765 0
M  V30 8493 C 815.376 -3.24472 0.906618 0
M  V30 8494 O 815.906 -4.01514 0.122358 0
M  V30 8495 N 814.112 -2.81676 0.714632 0
M  V30 8496 H 813.659 -2.19143 1.35404 0
M  V30 8497 H 813.617 -3.14272 -0.089703 0
M  V30 8498 N 817.389 -1.46805 -0.573248 0
M  V30 8499 C 818.337 -1.58468 -1.70267 0
M  V30 8500 C 819.331 -0.452694 -1.63239 0
M  V30 8501 O 820.537 -0.629915 -1.68618 0
M  V30 8502 H 816.912 -0.498408 -0.56311 0
M  V30 8503 H 818.883 -2.5341 -1.57563 0
M  V30 8504 C 817.632 -1.60104 -3.08645 0
M  V30 8505 H 816.955 -2.4655 -3.14727 0
M  V30 8506 H 818.395 -1.72318 -3.87405 0
M  V30 8507 C 816.854 -0.33138 -3.35266 0
M  V30 8508 O 817.384 0.57438 -3.97572 0
M  V30 8509 N 815.59 -0.216358 -2.89793 0
M  V30 8510 H 815.137 -0.954345 -2.3927 0
M  V30 8511 H 815.095 0.632253 -3.07977 0
M  V30 8512 N 818.867 0.818669 -1.34668 0
M  V30 8513 C 820.097 1.60441 -1.30162 0
M  V30 8514 C 820.505 1.88783 0.125579 0
M  V30 8515 O 819.848 1.48281 1.08437 0
M  V30 8516 C 819.91 2.96794 -2.02864 0
M  V30 8517 C 819.574 2.91327 -3.52105 0
M  V30 8518 C 820.571 2.65611 -4.4693 0
M  V30 8519 C 818.256 3.10825 -3.9458 0
M  V30 8520 C 820.25 2.59452 -5.82206 0
M  V30 8521 C 817.937 3.0429 -5.29954 0
M  V30 8522 C 818.935 2.78637 -6.23579 0
M  V30 8523 O 818.623 2.72042 -7.56471 0
M  V30 8524 H 818.355 0.505278 -0.449077 0
M  V30 8525 H 820.909 1.02632 -1.77921 0
M  V30 8526 H 819.139 3.56538 -1.49725 0
M  V30 8527 H 820.828 3.57837 -1.91592 0
M  V30 8528 H 821.594 2.50278 -4.15434 0
M  V30 8529 H 817.473 3.29807 -3.221 0
M  V30 8530 H 821.017 2.39349 -6.55254 0
M  V30 8531 H 816.914 3.19177 -5.61067 0
M  V30 8532 H 817.682 2.87738 -7.66257 0
M  V30 8533 N 820.346 1.18468 1.03938 0
M  V30 8534 C 821.571 1.00638 1.81347 0
M  V30 8535 C 821.996 -0.440477 1.8287 0
M  V30 8536 O 821.354 -1.31609 1.24695 0
M  V30 8537 C 821.402 1.5673 3.24759 0
M  V30 8538 O 820.506 0.789517 4.04772 0
M  V30 8539 H 819.847 0.356432 0.560225 0
M  V30 8540 H 822.377 1.57253 1.30891 0
M  V30 8541 H 822.387 1.59496 3.75533 0
M  V30 8542 H 821.062 2.62043 3.22965 0
M  V30 8543 H 819.639 0.834267 3.63448 0
M  V30 8544 N 821.824 -1.22873 0.986916 0
M  V30 8545 C 823.235 -1.73264 0.695438 0
M  V30 8546 C 823.586 -1.79679 -0.788023 0
M  V30 8547 O 822.711 -1.43905 -1.61618 0
M  V30 8548 C 823.306 -3.14671 1.2557 0
M  V30 8549 C 821.865 -3.62492 1.01373 0
M  V30 8550 C 821.012 -2.40551 1.37951 0
M  V30 8551 H 823.963 -1.08304 1.15999 0
M  V30 8552 H 823.984 -3.75226 0.631322 0
M  V30 8553 H 823.496 -3.0997 2.33539 0
M  V30 8554 H 821.597 -3.72567 -0.0495917 0
M  V30 8555 H 821.71 -4.48944 1.67289 0
M  V30 8556 H 820.074 -2.41875 0.798033 0
M  V30 8557 H 820.857 -2.38516 2.46911 0
M  V30 8558 N 823.302 -0.75937 -1.38099 0
M  V30 8559 C 824.249 -0.135508 -2.30402 0
M  V30 8560 C 825.219 0.703356 -1.50473 0
M  V30 8561 O 826.404 0.658287 -1.79084 0
M  V30 8562 C 823.544 0.747228 -3.36913 0
M  V30 8563 C 822.657 -0.106893 -4.31868 0
M  V30 8564 C 821.792 0.779388 -5.25451 0
M  V30 8565 C 820.831 -0.0780179 -6.1205 0
M  V30 8566 N 819.968 0.765545 -6.97914 0
M  V30 8567 H 824.808 -0.9282 -2.83176 0
M  V30 8568 H 822.345 -0.46935 -1.39411 0
M  V30 8569 H 824.303 1.27371 -3.97281 0
M  V30 8570 H 822.933 1.50565 -2.85535 0
M  V30 8571 H 821.985 -0.751063 -3.72912 0
M  V30 8572 H 823.297 -0.768798 -4.9284 0
M  V30 8573 H 822.451 1.37282 -5.90964 0
M  V30 8574 H 821.19 1.47501 -4.6486 0
M  V30 8575 H 820.195 -0.684078 -5.45528 0
M  V30 8576 H 821.42 -0.770786 -6.74712 0
M  V30 8577 H 819.366 1.44601 -6.39864 0
M  V30 8578 H 819.283 0.160666 -7.55829 0
M  V30 8579 H 820.551 1.34377 -7.6783 0
M  V30 8580 N 824.78 1.49157 -0.508906 0
M  V30 8581 C 826.029 2.0167 0.0346854 0
M  V30 8582 C 826.342 1.39302 1.37311 0
M  V30 8583 O 827.548 1.83189 2.00385 0
M  V30 8584 C 826.004 3.59725 0.112261 0
M  V30 8585 C 825.612 4.31069 -1.21999 0
M  V30 8586 C 827.356 4.20155 0.605798 0
M  V30 8587 C 825.263 5.81001 -1.10415 0
M  V30 8588 H 824.193 0.753814 0.0167355 0
M  V30 8589 H 826.844 1.7162 -0.649518 0
M  V30 8590 H 825.226 3.86525 0.861087 0
M  V30 8591 H 826.4 4.15962 -1.98273 0
M  V30 8592 H 824.715 3.82418 -1.64759 0
M  V30 8593 H 827.312 5.29964 0.710102 0
M  V30 8594 H 827.655 3.84051 1.60656 0
M  V30 8595 H 828.188 3.97705 -0.0867239 0
M  V30 8596 H 824.927 6.21643 -2.07941 0
M  V30 8597 H 824.447 5.9858 -0.382428 0
M  V30 8598 H 826.126 6.42207 -0.786116 0
M  V30 8599 N 826.258 0.243083 1.55714 0
M  V30 8600 C 827.504 -0.383287 1.99145 0
M  V30 8601 C 827.837 -1.57868 1.13098 0
M  V30 8602 O 827.112 -1.93535 0.193509 0
M  V30 8603 C 827.395 -0.796879 3.51172 0
M  V30 8604 C 827.248 0.403642 4.47985 0
M  V30 8605 C 828.567 -1.64525 4.08191 0
M  V30 8606 H 825.686 -0.137843 0.723995 0
M  V30 8607 H 828.328 0.343631 1.86867 0
M  V30 8608 H 826.478 -1.41625 3.61766 0
M  V30 8609 H 828.15 1.04204 4.49376 0
M  V30 8610 H 826.393 1.04741 4.20965 0
M  V30 8611 H 827.064 0.0709794 5.51954 0
M  V30 8612 H 829.54 -1.12246 4.00674 0
M  V30 8613 H 828.416 -1.9035 5.14838 0
M  V30 8614 H 828.677 -2.61582 3.56409 0
M  V30 8615 N 827.736 -1.57571 -0.0300757 0
M  V30 8616 C 828.984 -1.88852 -0.719666 0
M  V30 8617 C 829.305 -0.840645 -1.75949 0
M  V30 8618 O 828.575 0.125854 -1.95495 0
M  V30 8619 H 827.155 -0.696965 -0.268792 0
M  V30 8620 H 829.817 -1.949 0.00373285 0
M  V30 8621 H 828.913 -2.87695 -1.20987 0
M  V30 8622 N 829.214 0.302327 -1.54673 0
M  V30 8623 C 830.462 1.03565 -1.73547 0
M  V30 8624 C 830.783 1.87843 -0.523448 0
M  V30 8625 O 830.053 1.90367 0.462295 0
M  V30 8626 H 828.633 0.385358 -0.639928 0
M  V30 8627 H 831.295 0.333632 -1.92023 0
M  V30 8628 H 830.391 1.68952 -2.62415 0
M  V30 8629 N 830.692 1.47107 0.565454 0
M  V30 8630 C 831.941 1.5257 1.31929 0
M  V30 8631 C 832.254 0.189092 1.94684 0
M  V30 8632 O 833.46 0.121657 2.71227 0
M  V30 8633 C 831.916 2.68914 2.39193 0
M  V30 8634 C 831.524 4.09069 1.82665 0
M  V30 8635 C 833.268 2.83663 3.1581 0
M  V30 8636 C 831.175 5.16726 2.87661 0
M  V30 8637 H 830.105 0.567869 0.496025 0
M  V30 8638 H 832.756 1.73361 0.60151 0
M  V30 8639 H 831.138 2.41486 3.13848 0
M  V30 8640 H 832.312 4.46364 1.14438 0
M  V30 8641 H 830.627 3.99135 1.1866 0
M  V30 8642 H 833.224 3.61261 3.94201 0
M  V30 8643 H 833.567 1.91804 3.69482 0
M  V30 8644 H 834.1 3.10821 2.48265 0
M  V30 8645 H 830.839 6.10433 2.38854 0
M  V30 8646 H 830.359 4.83957 3.54324 0
M  V30 8647 H 832.038 5.43319 3.51303 0
M  V30 8648 N 832.17 -0.811516 1.35101 0
M  V30 8649 C 833.418 -1.56525 1.27845 0
M  V30 8650 C 833.739 -1.94435 -0.14829 0
M  V30 8651 O 833.009 -1.63203 -1.08359 0
M  V30 8652 H 831.589 -0.580433 0.47022 0
M  V30 8653 H 834.251 -0.968277 1.69146 0
M  V30 8654 H 833.347 -2.48291 1.89097 0
M  V30 8655 N 833.648 -1.19017 -1.03309 0
M  V30 8656 C 834.896 -0.988258 -1.76289 0
M  V30 8657 C 835.217 0.482557 -1.88935 0
M  V30 8658 O 834.487 1.34969 -1.41987 0
M  V30 8659 H 833.067 -0.36267 -0.653054 0
M  V30 8660 H 835.729 -1.49836 -1.2464 0
M  V30 8661 H 834.825 -1.43273 -2.77271 0
M  V30 8662 N 835.127 1.22348 -0.993418 0
M  V30 8663 C 836.374 1.9111 -0.669568 0
M  V30 8664 C 836.702 1.77357 0.79843 0
M  V30 8665 O 835.957 1.13675 1.593 0
M  V30 8666 C 836.256 3.42477 -1.02197 0
M  V30 8667 C 835.922 3.7642 -2.48232 0
M  V30 8668 C 834.584 3.85395 -2.88139 0
M  V30 8669 C 836.936 3.9253 -3.42884 0
M  V30 8670 C 834.264 4.07918 -4.21687 0
M  V30 8671 C 836.616 4.16557 -4.76091 0
M  V30 8672 C 835.28 4.23757 -5.15739 0
M  V30 8673 H 834.55 0.699321 -0.245012 0
M  V30 8674 H 837.197 1.45102 -1.2497 0
M  V30 8675 H 835.502 3.90143 -0.359921 0
M  V30 8676 H 837.199 3.93935 -0.74942 0
M  V30 8677 H 833.789 3.70017 -2.16299 0
M  V30 8678 H 837.973 3.84974 -3.13224 0
M  V30 8679 H 833.229 4.11719 -4.51993 0
M  V30 8680 H 837.403 4.27966 -5.4938 0
M  V30 8681 H 835.03 4.40962 -6.19239 0
M  V30 8682 N 836.605 0.766683 1.37694 0
M  V30 8683 C 837.854 0.325425 1.99057 0
M  V30 8684 C 838.167 -1.10275 1.61551 0
M  V30 8685 O 839.373 -1.64513 2.1598 0
M  V30 8686 C 837.829 0.530886 3.55963 0
M  V30 8687 C 837.437 1.96899 4.02411 0
M  V30 8688 C 839.181 0.152997 4.24224 0
M  V30 8689 C 837.088 2.12232 5.52007 0
M  V30 8690 H 836.018 0.117929 0.744721 0
M  V30 8691 H 838.669 0.945091 1.5729 0
M  V30 8692 H 837.051 -0.158162 3.95684 0
M  V30 8693 H 838.225 2.69258 3.73948 0
M  V30 8694 H 836.54 2.303 3.46916 0
M  V30 8695 H 839.137 0.24614 5.34133 0
M  V30 8696 H 839.48 -0.896096 4.06541 0
M  V30 8697 H 840.013 0.794398 3.89787 0
M  V30 8698 H 836.752 3.15442 5.7461 0
M  V30 8699 H 836.272 1.4435 5.82171 0
M  V30 8700 H 837.951 1.9185 6.17902 0
M  V30 8701 N 838.083 -1.48885 0.516809 0
M  V30 8702 C 839.031 -2.31066 -0.266656 0
M  V30 8703 C 840.025 -1.40393 -0.94795 0
M  V30 8704 O 841.231 -1.57366 -0.873836 0
M  V30 8705 H 837.606 -0.744654 -0.104858 0
M  V30 8706 H 839.577 -2.95045 0.446236 0
M  V30 8707 C 838.326 -3.22131 -1.3087 0
M  V30 8708 H 837.649 -3.91839 -0.793865 0
M  V30 8709 H 839.089 -3.82544 -1.82856 0
M  V30 8710 C 837.548 -2.42825 -2.33533 0
M  V30 8711 O 838.078 -2.14364 -3.39722 0
M  V30 8712 N 836.284 -2.04559 -2.06407 0
M  V30 8713 H 835.831 -2.27905 -1.20071 0
M  V30 8714 H 835.789 -1.51807 -2.75322 0
M  V30 8715 N 839.561 -0.251338 -1.55583 0
M  V30 8716 C 840.789 0.376187 -2.03451 0
M  V30 8717 C 841.204 1.51215 -1.13047 0
M  V30 8718 O 840.561 1.81917 -0.145769 0
M  V30 8719 C 840.612 0.879779 -3.50631 0
M  V30 8720 O 840.333 -0.210917 -4.37592 0
M  V30 8721 C 841.834 1.57754 -4.14281 0
M  V30 8722 H 839.054 0.0888722 -0.665089 0
M  V30 8723 H 841.598 -0.376497 -2.01004 0
M  V30 8724 H 839.753 1.58263 -3.53598 0
M  V30 8725 H 840.167 0.172203 -5.24217 0
M  V30 8726 H 841.641 1.88158 -5.18942 0
M  V30 8727 H 842.118 2.50103 -3.61034 0
M  V30 8728 H 842.724 0.919154 -4.15249 0
M  V30 8729 N 841.039 1.57585 0.0217189 0
M  V30 8730 C 841.986 2.07036 1.02004 0
M  V30 8731 C 842.956 0.96106 1.35473 0
M  V30 8732 O 844.141 1.23211 1.45684 0
M  V30 8733 C 841.281 2.56056 2.31364 0
M  V30 8734 C 840.394 3.80805 2.03989 0
M  V30 8735 C 839.529 4.18409 3.27272 0
M  V30 8736 C 838.568 5.36055 2.95486 0
M  V30 8737 N 837.705 5.69056 4.11242 0
M  V30 8738 H 842.545 2.92073 0.591396 0
M  V30 8739 H 840.082 1.44403 0.280384 0
M  V30 8740 H 842.04 2.82548 3.06957 0
M  V30 8741 H 840.67 1.73925 2.71937 0
M  V30 8742 H 839.722 3.61354 1.1886 0
M  V30 8743 H 841.034 4.66512 1.76546 0
M  V30 8744 H 840.188 4.46068 4.11228 0
M  V30 8745 H 838.927 3.31369 3.57835 0
M  V30 8746 H 837.932 5.08142 2.09933 0
M  V30 8747 H 839.157 6.24755 2.66193 0
M  V30 8748 H 837.103 4.84974 4.41742 0
M  V30 8749 H 837.02 6.49288 3.87247 0
M  V30 8750 H 838.288 6.01295 4.96049 0
M  V30 8751 N 842.517 -0.29412 1.54831 0
M  V30 8752 C 843.427 -1.3854 1.89325 0
M  V30 8753 C 844.443 -1.55127 0.788133 0
M  V30 8754 O 845.619 -1.6966 1.08524 0
M  V30 8755 C 842.684 -2.72809 2.13954 0
M  V30 8756 C 841.745 -2.65148 3.37631 0
M  V30 8757 C 840.978 -3.93014 3.61076 0
M  V30 8758 O 841.201 -4.927 2.87406 0
M  V30 8759 O 840.135 -3.94491 4.54599 0
M  V30 8760 H 843.961 -1.12289 2.82179 0
M  V30 8761 H 841.546 -0.490793 1.41108 0
M  V30 8762 H 843.428 -3.52238 2.31315 0
M  V30 8763 H 842.103 -2.9889 1.24285 0
M  V30 8764 H 841.01 -1.84168 3.25627 0
M  V30 8765 H 842.343 -2.4402 4.27452 0
M  V30 8766 N 843.995 -1.47404 -0.557645 0
M  V30 8767 C 845.225 -1.57393 -1.33832 0
M  V30 8768 C 845.633 -0.222978 -1.87881 0
M  V30 8769 O 844.976 0.793854 -1.65661 0
M  V30 8770 C 845.038 -2.53882 -2.54528 0
M  V30 8771 C 844.702 -3.99585 -2.21767 0
M  V30 8772 C 845.699 -4.88082 -1.79087 0
M  V30 8773 C 843.384 -4.44917 -2.3314 0
M  V30 8774 C 845.378 -6.1993 -1.48209 0
M  V30 8775 C 843.065 -5.76793 -2.01874 0
M  V30 8776 C 844.063 -6.64121 -1.59476 0
M  V30 8777 O 843.751 -7.93546 -1.28607 0
M  V30 8778 H 843.483 -0.534172 -0.41429 0
M  V30 8779 H 846.037 -1.93733 -0.682404 0
M  V30 8780 H 844.267 -2.12609 -3.23009 0
M  V30 8781 H 845.956 -2.54003 -3.16603 0
M  V30 8782 H 846.722 -4.54307 -1.69794 0
M  V30 8783 H 842.601 -3.77152 -2.65099 0
M  V30 8784 H 846.145 -6.88049 -1.15043 0
M  V30 8785 H 842.042 -6.1011 -2.10799 0
M  V30 8786 H 842.81 -8.06046 -1.42241 0
M  V30 8787 N 845.473 0.80434 -1.35529 0
M  V30 8788 C 846.42 1.91629 -1.28635 0
M  V30 8789 C 847.39 1.65348 -0.157862 0
M  V30 8790 O 848.575 1.87711 -0.341934 0
M  V30 8791 C 845.715 3.28207 -1.0665 0
M  V30 8792 C 844.828 3.66659 -2.28441 0
M  V30 8793 C 843.963 4.92279 -1.99588 0
M  V30 8794 C 843.002 5.23365 -3.1742 0
M  V30 8795 N 842.139 6.40165 -2.88328 0
M  V30 8796 H 846.979 1.96858 -2.23721 0
M  V30 8797 H 844.516 0.962871 -1.11208 0
M  V30 8798 H 846.474 4.06945 -0.919343 0
M  V30 8799 H 845.104 3.22441 -0.152253 0
M  V30 8800 H 844.156 2.83164 -2.54013 0
M  V30 8801 H 845.468 3.8559 -3.1642 0
M  V30 8802 H 844.622 5.78847 -1.81715 0
M  V30 8803 H 843.361 4.75387 -1.08896 0
M  V30 8804 H 842.366 4.35285 -3.35867 0
M  V30 8805 H 843.591 5.42185 -4.08916 0
M  V30 8806 H 841.537 6.24694 -2.00233 0
M  V30 8807 H 841.454 6.59357 -3.69843 0
M  V30 8808 H 842.722 7.29755 -2.74002 0
M  V30 8809 N 846.951 1.19563 1.02676 0
M  V30 8810 C 847.899 0.931942 2.13114 0
M  V30 8811 C 848.893 -0.113007 1.69023 0
M  V30 8812 O 850.099 0.0364298 1.79963 0
M  V30 8813 H 846.474 0.283981 0.696318 0
M  V30 8814 H 848.445 1.86991 2.32545 0
M  V30 8815 C 847.194 0.489461 3.44238 0
M  V30 8816 H 846.517 1.28508 3.78584 0
M  V30 8817 H 847.957 0.34408 4.22602 0
M  V30 8818 C 846.416 -0.796761 3.27343 0
M  V30 8819 O 846.946 -1.85767 3.56165 0
M  V30 8820 N 845.152 -0.754824 2.80626 0
M  V30 8821 H 844.699 0.108778 2.5737 0
M  V30 8822 H 844.657 -1.6158 2.69702 0
M  V30 8823 N 848.429 -1.21819 0.999893 0
M  V30 8824 C 849.675 -1.91035 0.680701 0
M  V30 8825 C 850.008 -1.77582 -0.786021 0
M  V30 8826 O 849.283 -1.14917 -1.56921 0
M  V30 8827 C 849.566 -3.43013 1.0961 0
M  V30 8828 C 849.419 -3.65481 2.6219 0
M  V30 8829 C 850.738 -4.35204 0.654616 0
M  V30 8830 H 847.857 -0.693748 0.248763 0
M  V30 8831 H 850.499 -1.43555 1.24466 0
M  V30 8832 H 848.649 -3.83581 0.616253 0
M  V30 8833 H 850.321 -3.34273 3.17899 0
M  V30 8834 H 848.564 -3.09522 3.03938 0
M  V30 8835 H 849.235 -4.71945 2.86307 0
M  V30 8836 H 851.711 -4.0219 1.06688 0
M  V30 8837 H 850.587 -5.40198 0.973492 0
M  V30 8838 H 850.848 -4.3986 -0.444458 0
M  V30 8839 N 849.908 -0.773975 -1.37286 0
M  V30 8840 C 850.818 -0.162571 -2.34036 0
M  V30 8841 C 851.834 0.677022 -1.60289 0
M  V30 8842 O 853.01 0.596423 -1.92366 0
M  V30 8843 C 850.075 0.70457 -3.39465 0
M  V30 8844 C 849.136 -0.151738 -4.29032 0
M  V30 8845 C 848.369 0.674111 -5.29426 0
M  V30 8846 O 848.592 1.91107 -5.37433 0
M  V30 8847 O 847.526 0.0821398 -6.01844 0
M  V30 8848 H 851.352 -0.962119 -2.88057 0
M  V30 8849 H 848.937 -0.53517 -1.39486 0
M  V30 8850 H 850.819 1.19954 -4.03967 0
M  V30 8851 H 849.494 1.48227 -2.87768 0
M  V30 8852 H 848.401 -0.693118 -3.67623 0
M  V30 8853 H 849.734 -0.892575 -4.84039 0
M  V30 8854 N 851.386 1.48609 -0.524698 0
M  V30 8855 C 852.635 2.01696 0.0132937 0
M  V30 8856 C 852.948 1.40751 1.35825 0
M  V30 8857 O 854.154 1.85304 1.9843 0
M  V30 8858 C 852.61 3.59824 0.0741012 0
M  V30 8859 C 852.218 4.2975 -1.26564 0
M  V30 8860 C 853.962 4.20774 0.5612 0
M  V30 8861 C 851.869 5.79798 -1.16571 0
M  V30 8862 H 850.799 0.753949 0.00873931 0
M  V30 8863 H 853.45 1.70922 -0.667684 0
M  V30 8864 H 851.832 3.87416 0.820043 0
M  V30 8865 H 853.006 4.13836 -2.02674 0
M  V30 8866 H 851.321 3.80649 -1.68806 0
M  V30 8867 H 853.918 5.30687 0.653853 0
M  V30 8868 H 854.261 3.85734 1.56573 0
M  V30 8869 H 854.794 3.97591 -0.128901 0
M  V30 8870 H 851.533 6.19403 -2.14523 0
M  V30 8871 H 851.053 5.9814 -0.445894 0
M  V30 8872 H 852.732 6.41337 -0.854186 0
M  V30 8873 N 852.864 0.259585 1.55447 0
M  V30 8874 C 853.774 -0.645026 2.25558 0
M  V30 8875 C 854.79 -1.18291 1.27606 0
M  V30 8876 O 855.966 -1.21649 1.6051 0
M  V30 8877 C 853.031 -1.81964 2.9511 0
M  V30 8878 C 852.092 -1.31997 4.08504 0
M  V30 8879 C 851.325 -2.43861 4.74729 0
M  V30 8880 O 851.548 -3.62876 4.40088 0
M  V30 8881 O 850.482 -2.12898 5.6299 0
M  V30 8882 H 854.308 -0.0775399 3.03601 0
M  V30 8883 H 851.893 0.0275859 1.49375 0
M  V30 8884 H 853.775 -2.50485 3.38873 0
M  V30 8885 H 852.45 -2.37451 2.19997 0
M  V30 8886 H 851.357 -0.601676 3.6923 0
M  V30 8887 H 852.69 -0.811045 4.85472 0
M  V30 8888 N 854.342 -1.57594 -0.0133615 0
M  V30 8889 C 855.588 -1.90262 -0.702019 0
M  V30 8890 C 855.921 -0.859219 -1.74158 0
M  V30 8891 O 855.196 0.123778 -1.94106 0
M  V30 8892 C 855.479 -3.3354 -1.35732 0
M  V30 8893 C 855.332 -4.48586 -0.330208 0
M  V30 8894 C 856.651 -3.76004 -2.28712 0
M  V30 8895 H 853.77 -0.691943 -0.253739 0
M  V30 8896 H 856.412 -1.89967 0.0351894 0
M  V30 8897 H 854.562 -3.33921 -1.98567 0
M  V30 8898 H 856.234 -4.6034 0.297433 0
M  V30 8899 H 854.477 -4.32394 0.348926 0
M  V30 8900 H 855.148 -5.45762 -0.827508 0
M  V30 8901 H 857.624 -3.77089 -1.75906 0
M  V30 8902 H 856.5 -4.77032 -2.71535 0
M  V30 8903 H 856.761 -3.09129 -3.16056 0
M  V30 8904 N 855.82 0.285905 -1.54985 0
M  V30 8905 C 856.75 1.35752 -1.89983 0
M  V30 8906 C 857.731 1.52163 -0.760295 0
M  V30 8907 O 858.916 1.65421 -1.01733 0
M  V30 8908 C 856.046 2.71925 -2.16042 0
M  V30 8909 C 855 2.70261 -3.31878 0
M  V30 8910 C 854.326 4.09864 -3.43388 0
M  V30 8911 C 855.626 2.30667 -4.68604 0
M  V30 8912 H 857.32 1.06709 -2.79738 0
M  V30 8913 H 854.866 0.511884 -1.34595 0
M  V30 8914 H 856.819 3.46992 -2.39113 0
M  V30 8915 H 855.543 3.02523 -1.23074 0
M  V30 8916 H 854.202 1.97651 -3.08755 0
M  V30 8917 H 853.85 4.37664 -2.47909 0
M  V30 8918 H 853.55 4.09648 -4.21262 0
M  V30 8919 H 855.074 4.86689 -3.68736 0
M  V30 8920 H 856.488 2.95453 -4.91305 0
M  V30 8921 H 854.885 2.41637 -5.49301 0
M  V30 8922 H 855.955 1.25793 -4.68299 0
M  V30 8923 N 857.298 1.47698 0.54982 0
M  V30 8924 C 858.246 1.61156 1.67724 0
M  V30 8925 C 859.24 0.478606 1.62498 0
M  V30 8926 O 860.446 0.656661 1.67595 0
M  V30 8927 H 856.821 0.507304 0.55511 0
M  V30 8928 H 858.792 2.55884 1.53512 0
M  V30 8929 C 857.541 1.64994 3.06059 0
M  V30 8930 H 856.864 2.51525 3.10765 0
M  V30 8931 H 858.304 1.78459 3.84615 0
M  V30 8932 C 856.763 0.384677 3.34697 0
M  V30 8933 O 857.293 -0.511057 3.98436 0
M  V30 8934 N 855.499 0.262434 2.89413 0
M  V30 8935 H 855.046 0.99229 2.37721 0
M  V30 8936 H 855.004 -0.583177 3.08944 0
M  V30 8937 N 858.776 -0.797141 1.35954 0
M  V30 8938 C 859.723 -1.90944 1.2965 0
M  V30 8939 C 860.693 -1.65262 0.166628 0
M  V30 8940 O 861.878 -1.87527 0.351883 0
M  V30 8941 C 859.018 -3.27637 1.08389 0
M  V30 8942 C 858.131 -3.65442 2.30382 0
M  V30 8943 C 857.266 -4.91213 2.02195 0
M  V30 8944 C 856.305 -5.21674 3.20191 0
M  V30 8945 N 855.442 -6.38627 2.91719 0
M  V30 8946 H 860.282 -1.95668 2.24762 0
M  V30 8947 H 857.819 -0.95696 1.11717 0
M  V30 8948 H 859.777 -4.06451 0.940912 0
M  V30 8949 H 858.407 -3.22355 0.169351 0
M  V30 8950 H 857.459 -2.81813 2.55511 0
M  V30 8951 H 858.771 -3.83907 3.18461 0
M  V30 8952 H 857.925 -5.77876 1.84783 0
M  V30 8953 H 856.664 -4.74803 1.11416 0
M  V30 8954 H 855.669 -4.33498 3.38171 0
M  V30 8955 H 856.894 -5.40009 4.11786 0
M  V30 8956 H 854.84 -6.23623 2.03543 0
M  V30 8957 H 854.757 -6.57387 3.73334 0
M  V30 8958 H 856.025 -7.28292 2.77868 0
M  V30 8959 N 860.254 -1.20106 -1.0204 0
M  V30 8960 C 861.201 -0.946468 -2.10501 0
M  V30 8961 C 862.171 0.121902 -1.65652 0
M  V30 8962 O 863.356 -0.0220244 -1.90787 0
M  V30 8963 C 860.496 -0.500499 -3.41451 0
M  V30 8964 C 859.609 -1.63659 -3.998 0
M  V30 8965 C 858.744 -1.14131 -5.18794 0
M  V30 8966 C 857.783 -2.25074 -5.69217 0
M  V30 8967 N 856.92 -1.76791 -6.79477 0
M  V30 8968 H 861.76 -1.87506 -2.31615 0
M  V30 8969 H 859.297 -0.934693 -1.13587 0
M  V30 8970 H 861.255 -0.223276 -4.16602 0
M  V30 8971 H 859.885 0.391099 -3.20422 0
M  V30 8972 H 858.937 -2.02882 -3.21781 0
M  V30 8973 H 860.249 -2.47213 -4.33229 0
M  V30 8974 H 859.403 -0.819826 -6.01135 0
M  V30 8975 H 858.142 -0.275615 -4.86921 0
M  V30 8976 H 857.147 -2.58043 -4.85483 0
M  V30 8977 H 858.372 -3.12114 -6.03127 0
M  V30 8978 H 856.318 -0.925428 -6.4944 0
M  V30 8979 H 856.235 -2.53928 -7.12079 0
M  V30 8980 H 857.503 -1.47631 -7.65392 0
M  V30 8981 N 861.732 1.21287 -1.00634 0
M  V30 8982 C 862.978 1.90671 -0.690822 0
M  V30 8983 C 863.311 1.77996 0.776592 0
M  V30 8984 O 862.586 1.15748 1.5631 0
M  V30 8985 C 862.869 3.42426 -1.11428 0
M  V30 8986 C 862.722 3.64086 -2.64124 0
M  V30 8987 C 864.041 4.34851 -0.677686 0
M  V30 8988 H 861.16 0.692419 -0.252439 0
M  V30 8989 H 863.802 1.42893 -1.25226 0
M  V30 8990 H 861.952 3.83249 -0.636586 0
M  V30 8991 H 863.624 3.32582 -3.19667 0
M  V30 8992 H 861.867 3.07906 -3.05576 0
M  V30 8993 H 862.538 4.7042 -2.88806 0
M  V30 8994 H 865.014 4.01619 -1.0882 0
M  V30 8995 H 863.89 5.39675 -1.00213 0
M  V30 8996 H 864.151 4.4009 0.421125 0
M  V30 8997 N 863.21 0.781244 1.36873 0
M  V30 8998 C 864.626 0.461968 1.52768 0
M  V30 8999 C 864.826 -1.02099 1.73719 0
M  V30 9000 O 863.882 -1.80665 1.76399 0
M  V30 9001 C 865.195 1.2853 2.71846 0
M  V30 9002 C 866.743 1.27817 2.85713 0
M  V30 9003 C 867.218 2.08506 4.07786 0
M  V30 9004 N 868.709 2.05909 4.14917 0
M  V30 9005 C 869.444 2.65118 5.08429 0
M  V30 9006 N 868.94 3.33152 6.07438 0
M  V30 9007 N 870.733 2.54896 5.00983 0
M  V30 9008 H 862.884 1.74198 1.21527 0
M  V30 9009 H 865.147 0.740027 0.592506 0
M  V30 9010 H 864.853 2.3366 2.62861 0
M  V30 9011 H 864.727 0.920981 3.65784 0
M  V30 9012 H 867.114 0.234817 2.94164 0
M  V30 9013 H 867.195 1.68219 1.92707 0
M  V30 9014 H 866.839 3.12867 4.00096 0
M  V30 9015 H 866.769 1.65479 4.99924 0
M  V30 9016 H 869.26 1.56386 3.44023 0
M  V30 9017 H 869.573 3.75681 6.75339 0
M  V30 9018 H 867.918 3.37253 6.07689 0
M  V30 9019 H 871.109 2.01352 4.22581 0
M  V30 9020 H 871.282 3.01332 5.73675 0
M  V30 9021 N 864.689 -1.48329 0.532571 0
M  V30 9022 C 865.652 -2.2816 -0.218069 0
M  V30 9023 C 866.652 -1.35526 -0.865409 0
M  V30 9024 O 867.842 -1.58394 -0.725061 0
M  V30 9025 C 864.974 -3.1448 -1.31586 0
M  V30 9026 H 866.167 -2.95987 0.482865 0
M  V30 9027 H 863.72 -1.53612 0.288603 0
M  V30 9028 H 864.455 -2.5129 -2.04997 0
M  V30 9029 H 864.24 -3.82625 -0.856779 0
M  V30 9030 H 865.73 -3.74693 -1.84377 0
M  V30 9031 N 866.167 -0.267825 -1.55308 0
M  V30 9032 C 867.395 0.354587 -2.03839 0
M  V30 9033 C 867.81 1.50007 -1.14644 0
M  V30 9034 O 867.167 1.81752 -0.165055 0
M  V30 9035 C 867.218 0.84254 -3.51544 0
M  V30 9036 O 866.939 -0.257318 -4.37344 0
M  V30 9037 C 868.44 1.53351 -4.15931 0
M  V30 9038 H 865.66 0.0818131 -0.665994 0
M  V30 9039 H 868.204 -0.397795 -2.00594 0
M  V30 9040 H 866.359 1.54503 -3.55257 0
M  V30 9041 H 866.773 0.116593 -5.2437 0
M  V30 9042 H 868.247 1.82643 -5.20908 0
M  V30 9043 H 868.724 2.4626 -3.63666 0
M  V30 9044 H 869.33 0.87506 -4.162 0
M  V30 9045 N 867.645 1.57599 0.00500368 0
M  V30 9046 C 868.894 1.89528 0.690061 0
M  V30 9047 C 869.207 0.869451 1.75214 0
M  V30 9048 O 870.413 1.07879 2.49147 0
M  V30 9049 C 868.869 3.36425 1.27852 0
M  V30 9050 C 868.477 4.47293 0.251531 0
M  V30 9051 C 870.221 3.77471 1.94206 0
M  V30 9052 C 868.128 5.85264 0.8497 0
M  V30 9053 H 867.058 0.707201 0.2615 0
M  V30 9054 H 869.709 1.83418 -0.0547209 0
M  V30 9055 H 868.091 3.37356 2.07381 0
M  V30 9056 H 869.265 4.5787 -0.518796 0
M  V30 9057 H 867.58 4.15235 -0.311281 0
M  V30 9058 H 870.177 4.77884 2.39855 0
M  V30 9059 H 870.52 3.10722 2.77051 0
M  V30 9060 H 871.053 3.78817 1.21419 0
M  V30 9061 H 867.792 6.55472 0.0601408 0
M  V30 9062 H 867.312 5.78361 1.5893 0
M  V30 9063 H 868.991 6.32762 1.34984 0
M  V30 9064 N 869.123 -0.277682 1.55134 0
M  V30 9065 C 870.056 -1.3685 1.82612 0
M  V30 9066 C 871.034 -1.47752 0.678833 0
M  V30 9067 O 872.218 -1.6445 0.921329 0
M  V30 9068 C 869.345 -2.74539 1.98359 0
M  V30 9069 C 868.391 -2.80945 3.20893 0
M  V30 9070 S 869.224 -2.40666 4.78373 0
M  V30 9071 C 870.38 -3.80338 4.97085 0
M  V30 9072 H 870.613 -1.13338 2.74849 0
M  V30 9073 H 868.146 -0.477063 1.46845 0
M  V30 9074 H 870.104 -3.53834 2.08115 0
M  V30 9075 H 868.765 -2.95306 1.07019 0
M  V30 9076 H 867.958 -3.81992 3.28783 0
M  V30 9077 H 867.56 -2.09667 3.09703 0
M  V30 9078 H 869.852 -4.75565 4.8254 0
M  V30 9079 H 870.795 -3.77403 5.99143 0
M  V30 9080 H 871.203 -3.71424 4.25094 0
M  V30 9081 N 870.601 -1.47988 -0.541979 0
M  V30 9082 C 871.829 -1.59034 -1.32347 0
M  V30 9083 C 872.244 -0.246123 -1.87189 0
M  V30 9084 O 871.601 0.762889 -1.6579 0
M  V30 9085 C 871.652 -2.62759 -2.48274 0
M  V30 9086 O 871.373 -3.91963 -1.95695 0
M  V30 9087 C 872.874 -2.84133 -3.4027 0
M  V30 9088 H 870.094 -0.536574 -0.402901 0
M  V30 9089 H 872.638 -1.93725 -0.655045 0
M  V30 9090 H 870.793 -2.3096 -3.11025 0
M  V30 9091 H 871.207 -4.48769 -2.7149 0
M  V30 9092 H 872.681 -3.60538 -4.17991 0
M  V30 9093 H 873.158 -1.92512 -3.9476 0
M  V30 9094 H 873.764 -3.17188 -2.83322 0
M  V30 9095 N 872.079 0.78992 -1.36375 0
M  V30 9096 C 873.327 1.54472 -1.30319 0
M  V30 9097 C 873.648 1.94647 0.117338 0
M  V30 9098 O 872.918 1.64906 1.05748 0
M  V30 9099 H 871.498 0.572879 -0.479394 0
M  V30 9100 H 874.16 0.941245 -1.70665 0
M  V30 9101 H 873.256 2.45252 -1.93024 0
M  V30 9102 N 873.557 1.20646 1.01402 0
M  V30 9103 C 874.834 0.927176 1.72229 0
M  V30 9104 C 875.214 -0.563382 2.03443 0
M  V30 9105 O 874.562 -1.52576 1.70096 0
M  V30 9106 C 874.772 1.80285 2.98828 0
M  V30 9107 C 876.12 2.04624 3.72041 0
M  V30 9108 O 877.144 1.77559 3.0879 0
M  V30 9109 O 876.003 2.50347 4.85787 0
M  V30 9110 H 873.097 0.346891 0.75073 0
M  V30 9111 H 875.643 1.31532 1.07227 0
M  V30 9112 H 874.415 2.81204 2.72102 0
M  V30 9113 H 874.038 1.41495 3.71571 0
M  V30 9114 N 875.035 -1.20752 1.01276 0
M  V30 9115 C 876.263 -1.94006 0.718976 0
M  V30 9116 C 876.678 -1.74544 -0.719711 0
M  V30 9117 O 876.035 -1.05697 -1.48776 0
M  V30 9118 C 876.086 -3.46208 1.04031 0
M  V30 9119 O 875.807 -3.65031 2.42248 0
M  V30 9120 C 877.308 -4.36614 0.767032 0
M  V30 9121 H 874.528 -0.616743 0.264327 0
M  V30 9122 H 877.072 -1.53352 1.3529 0
M  V30 9123 H 875.227 -3.84756 0.451852 0
M  V30 9124 H 875.641 -4.59054 2.53712 0
M  V30 9125 H 877.115 -5.42076 1.04198 0
M  V30 9126 H 877.592 -4.38182 -0.298851 0
M  V30 9127 H 878.198 -4.03723 1.33746 0
M  V30 9128 N 876.513 -0.788492 -1.36457 0
M  V30 9129 C 877.924 -0.423742 -1.81828 0
M  V30 9130 C 878.275 1.05221 -1.65599 0
M  V30 9131 O 877.4 1.8163 -1.17641 0
M  V30 9132 C 877.995 -0.762354 -3.30112 0
M  V30 9133 C 876.554 -0.450445 -3.73695 0
M  V30 9134 C 875.701 -0.997482 -2.58738 0
M  V30 9135 H 878.652 -0.981718 -1.24692 0
M  V30 9136 H 878.673 -0.0531136 -3.80463 0
M  V30 9137 H 878.185 -1.83662 -3.41891 0
M  V30 9138 H 876.286 0.615829 -3.67476 0
M  V30 9139 H 876.399 -0.970408 -4.69169 0
M  V30 9140 H 874.763 -0.420761 -2.51201 0
M  V30 9141 H 875.546 -2.07749 -2.73304 0
M  V30 9142 N 877.991 1.48044 -0.54043 0
M  V30 9143 C 879.24 2.01698 -0.00809961 0
M  V30 9144 C 879.553 1.42184 1.34325 0
M  V30 9145 O 880.759 1.87398 1.96454 0
M  V30 9146 C 879.215 3.59882 0.035933 0
M  V30 9147 C 878.823 4.28384 -1.31115 0
M  V30 9148 C 880.567 4.21346 0.51654 0
M  V30 9149 C 878.474 5.78529 -1.22714 0
M  V30 9150 H 877.404 0.754 0.000742174 0
M  V30 9151 H 880.055 1.70204 -0.685775 0
M  V30 9152 H 878.437 3.88264 0.778906 0
M  V30 9153 H 879.611 4.11663 -2.07051 0
M  V30 9154 H 877.926 3.78837 -1.72834 0
M  V30 9155 H 880.523 5.31351 0.597529 0
M  V30 9156 H 880.866 3.87373 1.52473 0
M  V30 9157 H 881.399 3.97432 -0.171064 0
M  V30 9158 H 878.138 6.17093 -2.21081 0
M  V30 9159 H 877.658 5.97634 -0.50931 0
M  V30 9160 H 879.337 6.40395 -0.92216 0
M  V30 9161 N 879.47 0.276058 1.55163 0
M  V30 9162 C 880.418 -0.626978 2.2399 0
M  V30 9163 C 881.412 -1.15708 1.23725 0
M  V30 9164 O 882.618 -1.1106 1.41653 0
M  V30 9165 H 878.993 -0.220742 0.718872 0
M  V30 9166 H 880.964 -0.0236569 2.98391 0
M  V30 9167 C 879.713 -1.79935 2.97521 0
M  V30 9168 H 879.036 -1.40064 3.74463 0
M  V30 9169 H 880.476 -2.40781 3.48999 0
M  V30 9170 C 878.935 -2.68838 2.03046 0
M  V30 9171 O 879.465 -3.69224 1.58229 0
M  V30 9172 N 877.671 -2.36028 1.69527 0
M  V30 9173 H 877.218 -1.54442 2.06169 0
M  V30 9174 H 877.176 -2.95782 1.06586 0
M  V30 9175 N 880.948 -1.576 0.00335426 0
M  V30 9176 C 882.197 -1.89892 -0.680001 0
M  V30 9177 C 882.51 -0.878731 -1.7475 0
M  V30 9178 O 883.716 -1.09199 -2.48572 0
M  V30 9179 C 882.172 -3.37098 -1.26066 0
M  V30 9180 C 881.78 -4.4742 -0.227807 0
M  V30 9181 C 883.524 -3.78495 -1.92202 0
M  V30 9182 C 881.431 -5.85706 -0.81865 0
M  V30 9183 H 880.361 -0.708578 -0.257746 0
M  V30 9184 H 883.012 -1.83387 0.0644472 0
M  V30 9185 H 881.394 -3.38451 -2.05589 0
M  V30 9186 H 882.568 -4.57589 0.54307 0
M  V30 9187 H 880.883 -4.15064 0.333297 0
M  V30 9188 H 883.48 -4.7915 -2.37318 0
M  V30 9189 H 883.823 -3.12187 -2.75399 0
M  V30 9190 H 884.356 -3.79456 -1.19408 0
M  V30 9191 H 881.095 -6.55495 -0.0253787 0
M  V30 9192 H 880.615 -5.79196 -1.55861 0
M  V30 9193 H 882.294 -6.33469 -1.31627 0
M  V30 9194 N 882.426 0.269451 -1.5528 0
M  V30 9195 C 883.673 1.00058 -1.76053 0
M  V30 9196 C 884.001 1.86156 -0.563592 0
M  V30 9197 O 883.256 1.90366 0.453806 0
M  V30 9198 C 883.555 1.91 -3.02082 0
M  V30 9199 C 883.221 1.20623 -4.34466 0
M  V30 9200 C 881.883 1.01165 -4.70446 0
M  V30 9201 C 884.235 0.705695 -5.164 0
M  V30 9202 C 881.563 0.303865 -5.85913 0
M  V30 9203 C 883.915 0.0114838 -6.32599 0
M  V30 9204 C 882.579 -0.19478 -6.67216 0
M  V30 9205 H 881.849 0.366138 -0.644223 0
M  V30 9206 H 884.496 0.272563 -1.8955 0
M  V30 9207 H 882.801 2.70435 -2.835 0
M  V30 9208 H 884.498 2.47698 -3.15352 0
M  V30 9209 H 881.088 1.36781 -4.06188 0
M  V30 9210 H 885.272 0.84364 -4.89077 0
M  V30 9211 H 880.528 0.133368 -6.11255 0
M  V30 9212 H 884.702 -0.384111 -6.9534 0
M  V30 9213 H 882.329 -0.745201 -7.56539 0
M  V30 9214 N 883.904 1.48273 0.534124 0
M  V30 9215 C 885.152 1.55771 1.28762 0
M  V30 9216 C 885.473 0.231575 1.9362 0
M  V30 9217 O 884.743 -0.746533 1.81118 0
M  V30 9218 H 883.323 0.573851 0.47823 0
M  V30 9219 H 885.985 1.84712 0.621888 0
M  V30 9220 H 885.081 2.33657 2.06908 0
M  V30 9221 N 885.382 -0.782676 1.36792 0
M  V30 9222 C 886.798 -1.08169 1.17352 0
M  V30 9223 C 886.998 -2.015 0.0022037 0
M  V30 9224 O 886.054 -2.43692 -0.661093 0
M  V30 9225 C 887.367 -1.68969 2.48737 0
M  V30 9226 C 888.915 -1.81278 2.55161 0
M  V30 9227 C 889.39 -2.45492 3.86649 0
M  V30 9228 N 890.881 -2.52954 3.88032 0
M  V30 9229 C 891.616 -3.03465 4.86515 0
M  V30 9230 N 891.112 -3.54232 5.95392 0
M  V30 9231 N 892.905 -3.02239 4.73928 0
M  V30 9232 H 885.056 -0.162757 2.11775 0
M  V30 9233 H 887.319 -0.134823 0.938364 0
M  V30 9234 H 887.025 -1.07859 3.34753 0
M  V30 9235 H 886.899 -2.68397 2.65034 0
M  V30 9236 H 889.286 -2.41524 1.69559 0
M  V30 9237 H 889.367 -0.806367 2.42758 0
M  V30 9238 H 889.011 -1.85889 4.7266 0
M  V30 9239 H 888.941 -3.46718 3.96351 0
M  V30 9240 H 891.432 -2.17014 3.09376 0
M  V30 9241 H 891.745 -3.91145 6.66503 0
M  V30 9242 H 890.09 -3.52366 5.99052 0
M  V30 9243 H 893.281 -2.61871 3.87996 0
M  V30 9244 H 893.454 -3.41295 5.50837 0
M  V30 9245 N 886.86 -1.21182 -1.00761 0
M  V30 9246 C 887.808 -0.965728 -2.11604 0
M  V30 9247 C 888.802 0.0861028 -1.69181 0
M  V30 9248 O 890.008 -0.0650558 -1.79882 0
M  V30 9249 H 886.383 -0.295023 -0.691712 0
M  V30 9250 H 888.354 -1.90667 -2.2954 0
M  V30 9251 C 887.103 -0.544164 -3.43415 0
M  V30 9252 H 886.426 -1.34515 -3.76491 0
M  V30 9253 H 887.866 -0.411268 -4.22001 0
M  V30 9254 C 886.325 0.744583 -3.28569 0
M  V30 9255 O 886.855 1.80078 -3.59075 0
M  V30 9256 N 885.061 0.710083 -2.81791 0
M  V30 9257 H 884.608 -0.14971 -2.57165 0
M  V30 9258 H 884.566 1.57268 -2.72239 0
M  V30 9259 N 888.338 1.20213 -1.01915 0
M  V30 9260 C 889.587 1.88968 -0.705261 0
M  V30 9261 C 889.9 1.79869 0.768531 0
M  V30 9262 O 891.106 2.43783 1.19508 0
M  V30 9263 C 889.562 3.38911 -1.21109 0
M  V30 9264 C 889.17 3.5659 -2.71197 0
M  V30 9265 C 890.914 4.13204 -0.97275 0
M  V30 9266 C 888.821 5.00372 -3.15248 0
M  V30 9267 H 887.751 0.707715 -0.260107 0
M  V30 9268 H 890.402 1.35977 -1.23217 0
M  V30 9269 H 888.784 3.9124 -0.612152 0
M  V30 9270 H 889.958 3.14635 -3.36662 0
M  V30 9271 H 888.273 2.95671 -2.93202 0
M  V30 9272 H 890.87 5.19221 -1.27726 0
M  V30 9273 H 891.213 4.16201 0.09072 0
M  V30 9274 H 891.746 3.66983 -1.5352 0
M  V30 9275 H 888.485 5.02532 -4.20882 0
M  V30 9276 H 888.005 5.43127 -2.54505 0
M  V30 9277 H 889.684 5.68969 -3.08032 0
M  V30 9278 N 889.816 0.795718 1.36037 0
M  V30 9279 C 890.746 0.212803 2.32528 0
M  V30 9280 C 891.727 -0.655716 1.56953 0
M  V30 9281 O 892.912 -0.588238 1.85077 0
M  V30 9282 C 890.042 -0.648189 3.41198 0
M  V30 9283 C 888.996 0.120948 4.27829 0
M  V30 9284 C 888.322 -0.861044 5.27722 0
M  V30 9285 C 889.622 1.31375 5.05508 0
M  V30 9286 H 891.316 1.01893 2.81528 0
M  V30 9287 H 888.862 0.491422 1.35355 0
M  V30 9288 H 890.815 -1.06597 4.07695 0
M  V30 9289 H 889.539 -1.48709 2.9078 0
M  V30 9290 H 888.198 0.519777 3.62897 0
M  V30 9291 H 887.846 -1.69515 4.73575 0
M  V30 9292 H 887.546 -0.350808 5.86552 0
M  V30 9293 H 889.07 -1.27726 5.97092 0
M  V30 9294 H 890.484 0.971406 5.6501 0
M  V30 9295 H 888.881 1.75772 5.73781 0
M  V30 9296 H 889.951 2.10593 4.36782 0
M  V30 9297 N 891.294 -1.47756 0.548274 0
M  V30 9298 C 892.522 -2.06884 0.0254873 0
M  V30 9299 C 892.937 -1.40225 -1.26422 0
M  V30 9300 O 892.294 -0.495776 -1.75637 0
M  V30 9301 C 892.345 -3.61036 -0.183134 0
M  V30 9302 O 892.066 -4.25195 1.05549 0
M  V30 9303 C 893.567 -4.37008 -0.744222 0
M  V30 9304 H 890.787 -0.669697 0.041789 0
M  V30 9305 H 893.331 -1.89888 0.759138 0
M  V30 9306 H 891.486 -3.77576 -0.866886 0
M  V30 9307 H 891.9 -5.17606 0.847629 0
M  V30 9308 H 893.374 -5.45579 -0.839529 0
M  V30 9309 H 893.851 -4.0268 -1.75344 0
M  V30 9310 H 894.457 -4.25191 -0.0964542 0
M  V30 9311 N 892.772 -0.284283 -1.55015 0
M  V30 9312 C 893.735 0.586182 -2.21577 0
M  V30 9313 C 894.735 1.07427 -1.1965 0
M  V30 9314 O 895.925 0.972977 -1.44495 0
M  V30 9315 C 893.057 1.80973 -2.88897 0
M  V30 9316 H 894.25 0.00487253 -2.999 0
M  V30 9317 H 891.803 -0.0349696 -1.56261 0
M  V30 9318 H 892.538 2.43131 -2.14611 0
M  V30 9319 H 892.323 1.46757 -3.636 0
M  V30 9320 H 893.813 2.42853 -3.39724 0
M  V30 9321 N 894.251 1.57596 -0.0117121 0
M  V30 9322 C 895.181 2.12188 0.9746 0
M  V30 9323 C 896.162 1.03379 1.35081 0
M  V30 9324 O 897.347 1.31123 1.4325 0
M  V30 9325 C 894.477 2.63477 2.26268 0
M  V30 9326 C 893.431 3.76917 2.02774 0
M  V30 9327 C 892.757 4.14566 3.37697 0
M  V30 9328 C 894.057 5.03715 1.38089 0
M  V30 9329 H 895.751 2.9485 0.520007 0
M  V30 9330 H 893.297 1.41836 0.248685 0
M  V30 9331 H 895.25 3.00299 2.95633 0
M  V30 9332 H 893.974 1.77953 2.73862 0
M  V30 9333 H 892.633 3.40507 1.35832 0
M  V30 9334 H 892.281 3.26048 3.83016 0
M  V30 9335 H 891.981 4.91 3.22789 0
M  V30 9336 H 893.505 4.53956 4.08358 0
M  V30 9337 H 894.919 5.38233 1.97428 0
M  V30 9338 H 893.316 5.85032 1.33634 0
M  V30 9339 H 894.386 4.83624 0.351575 0
M  V30 9340 N 895.729 -0.261212 1.5542 0
M  V30 9341 C 896.977 -0.989272 1.76232 0
M  V30 9342 C 897.298 -1.86389 0.573067 0
M  V30 9343 O 896.568 -1.91526 -0.41166 0
M  V30 9344 H 895.148 -0.368256 0.64992 0
M  V30 9345 H 897.81 -0.282603 1.9284 0
M  V30 9346 H 896.906 -1.61935 2.66802 0
M  V30 9347 N 897.207 -1.48554 -0.526253 0
M  V30 9348 C 898.14 -1.57928 -1.64724 0
M  V30 9349 C 899.118 -0.429536 -1.56824 0
M  V30 9350 O 900.302 -0.641651 -1.77243 0
M  V30 9351 C 897.429 -1.51075 -3.0314 0
M  V30 9352 C 896.475 -2.70937 -3.29386 0
M  V30 9353 S 897.308 -4.3287 -3.15251 0
M  V30 9354 C 898.464 -4.28622 -4.56108 0
M  V30 9355 H 898.697 -2.52761 -1.56523 0
M  V30 9356 H 896.23 -1.37133 -0.7095 0
M  V30 9357 H 898.188 -1.47808 -3.82966 0
M  V30 9358 H 896.849 -0.57574 -3.08778 0
M  V30 9359 H 896.042 -2.62291 -4.30371 0
M  V30 9360 H 895.644 -2.71486 -2.57238 0
M  V30 9361 H 897.936 -3.98784 -5.47702 0
M  V30 9362 H 898.879 -5.29798 -4.69808 0
M  V30 9363 H 899.287 -3.59038 -4.35605 0
M  V30 9364 N 898.685 0.775411 -1.37205 0
M  V30 9365 C 899.91 1.5696 -1.35567 0
M  V30 9366 C 900.335 1.88012 0.0575554 0
M  V30 9367 O 899.693 1.48954 1.03355 0
M  V30 9368 C 899.741 2.85886 -2.19776 0
M  V30 9369 O 898.845 3.80103 -1.59987 0
M  V30 9370 H 898.186 0.475583 -0.463375 0
M  V30 9371 H 900.716 0.96001 -1.80679 0
M  V30 9372 H 900.726 3.35024 -2.32859 0
M  V30 9373 H 899.401 2.62613 -3.22502 0
M  V30 9374 H 897.978 3.38736 -1.55924 0
M  V30 9375 N 900.163 1.21714 1.00117 0
M  V30 9376 C 901.093 1.00397 2.10815 0
M  V30 9377 C 902.074 -0.0723502 1.69946 0
M  V30 9378 O 903.259 0.0882398 1.93999 0
M  V30 9379 C 900.389 0.572001 3.42557 0
M  V30 9380 C 899.343 1.59331 3.97237 0
M  V30 9381 C 898.669 1.01746 5.2493 0
M  V30 9382 C 899.969 2.98117 4.28863 0
M  V30 9383 H 901.663 1.92983 2.28906 0
M  V30 9384 H 899.209 0.929273 1.10002 0
M  V30 9385 H 901.162 0.410018 4.19401 0
M  V30 9386 H 899.886 -0.38951 3.24269 0
M  V30 9387 H 898.545 1.74293 3.22518 0
M  V30 9388 H 898.193 0.0475491 5.02978 0
M  V30 9389 H 897.893 1.69969 5.62481 0
M  V30 9390 H 899.417 0.866881 6.04415 0
M  V30 9391 H 900.831 2.86578 4.96534 0
M  V30 9392 H 899.228 3.63389 4.77565 0
M  V30 9393 H 900.298 3.48674 3.36979 0
M  V30 9394 N 901.641 -1.19671 1.02551 0
M  V30 9395 C 902.589 -2.24812 0.596867 0
M  V30 9396 C 903.583 -1.65336 -0.368839 0
M  V30 9397 O 904.789 -1.78422 -0.237786 0
M  V30 9398 H 901.164 -0.731417 0.174739 0
M  V30 9399 H 903.135 -2.58286 1.49435 0
M  V30 9400 C 901.884 -3.47677 -0.0399514 0
M  V30 9401 H 901.207 -3.93728 0.694153 0
M  V30 9402 H 902.647 -4.22917 -0.302861 0
M  V30 9403 C 901.106 -3.11411 -1.2855 0
M  V30 9404 O 901.636 -3.23757 -2.37791 0
M  V30 9405 N 899.842 -2.65875 -1.17297 0
M  V30 9406 H 899.389 -2.56029 -0.284045 0
M  V30 9407 H 899.347 -2.41981 -2.00731 0
M  V30 9408 N 903.119 -0.802921 -1.35613 0
M  V30 9409 C 904.049 -0.225131 -2.32412 0
M  V30 9410 C 905.03 0.647383 -1.57299 0
M  V30 9411 O 906.215 0.578414 -1.85386 0
M  V30 9412 C 903.345 0.630085 -3.41537 0
M  V30 9413 C 902.299 -0.143635 -4.27759 0
M  V30 9414 C 901.625 0.833046 -5.28171 0
M  V30 9415 C 902.925 -1.34054 -5.04804 0
M  V30 9416 H 904.619 -1.03385 -2.80984 0
M  V30 9417 H 902.165 -0.498593 -1.35093 0
M  V30 9418 H 904.118 1.04433 -4.08254 0
M  V30 9419 H 902.842 1.47165 -2.91565 0
M  V30 9420 H 901.501 -0.539015 -3.62616 0
M  V30 9421 H 901.149 1.67001 -4.74468 0
M  V30 9422 H 900.849 0.319697 -5.8673 0
M  V30 9423 H 902.373 1.24558 -5.97761 0
M  V30 9424 H 903.787 -1.00136 -5.64487 0
M  V30 9425 H 902.184 -1.78812 -5.72841 0
M  V30 9426 H 903.254 -2.12906 -4.35659 0
M  V30 9427 N 904.597 1.47463 -0.556102 0
M  V30 9428 C 906.008 1.86298 -0.122429 0
M  V30 9429 C 906.359 1.46285 1.30749 0
M  V30 9430 O 905.484 0.865405 1.98342 0
M  V30 9431 C 906.079 3.38115 -0.215407 0
M  V30 9432 C 904.638 3.76046 0.163223 0
M  V30 9433 C 903.785 2.71515 -0.563466 0
M  V30 9434 H 906.736 1.38996 -0.765888 0
M  V30 9435 H 906.757 3.76263 0.566271 0
M  V30 9436 H 906.269 3.67207 -1.25622 0
M  V30 9437 H 904.37 3.5257 1.20519 0
M  V30 9438 H 904.483 4.78705 -0.194568 0
M  V30 9439 H 902.847 2.54699 -0.00667879 0
M  V30 9440 H 903.63 3.03449 -1.60542 0
M  V30 9441 N 906.075 0.2925 1.54862 0
M  V30 9442 C 907.321 -0.319736 2.00264 0
M  V30 9443 C 907.654 -1.5419 1.18064 0
M  V30 9444 O 906.929 -1.92821 0.254983 0
M  V30 9445 C 907.212 -0.684753 3.5353 0
M  V30 9446 C 907.065 0.545961 4.46474 0
M  V30 9447 C 908.384 -1.51456 4.13218 0
M  V30 9448 H 905.503 -0.11474 0.728014 0
M  V30 9449 H 908.145 0.402907 1.85679 0
M  V30 9450 H 906.295 -1.30044 3.66089 0
M  V30 9451 H 907.967 1.18448 4.45834 0
M  V30 9452 H 906.21 1.1808 4.1742 0
M  V30 9453 H 906.881 0.246544 5.51449 0
M  V30 9454 H 909.357 -0.994421 4.04043 0
M  V30 9455 H 908.233 -1.73875 5.20633 0
M  V30 9456 H 908.494 -2.5011 3.64551 0
M  V30 9457 N 907.553 -1.57587 0.0200696 0
M  V30 9458 C 908.516 -2.08595 -0.949767 0
M  V30 9459 C 909.516 -0.999215 -1.25985 0
M  V30 9460 O 910.706 -1.26115 -1.2017 0
M  V30 9461 C 907.838 -2.54424 -2.26895 0
M  V30 9462 H 909.031 -2.95563 -0.508161 0
M  V30 9463 H 906.584 -1.54631 -0.227798 0
M  V30 9464 H 907.319 -1.70758 -2.75703 0
M  V30 9465 H 907.104 -3.3381 -2.05702 0
M  V30 9466 H 908.594 -2.94144 -2.96427 0
M  V30 9467 N 909.032 0.252966 -1.55557 0
M  V30 9468 C 909.979 1.3131 -1.89806 0
M  V30 9469 C 910.949 1.48121 -0.751633 0
M  V30 9470 O 912.134 1.62202 -1.00474 0
M  V30 9471 C 909.274 2.66467 -2.19293 0
M  V30 9472 C 908.387 2.57714 -3.46709 0
M  V30 9473 C 907.522 3.85184 -3.65796 0
M  V30 9474 C 906.561 3.71023 -4.86835 0
M  V30 9475 N 905.698 4.90371 -5.02474 0
M  V30 9476 H 910.538 1.01402 -2.80217 0
M  V30 9477 H 908.075 0.489462 -1.38718 0
M  V30 9478 H 910.033 3.45132 -2.34392 0
M  V30 9479 H 908.663 2.94536 -1.32093 0
M  V30 9480 H 907.715 1.70651 -3.39974 0
M  V30 9481 H 909.027 2.43158 -4.35517 0
M  V30 9482 H 908.181 4.72292 -3.80822 0
M  V30 9483 H 906.92 4.0263 -2.7521 0
M  V30 9484 H 905.925 2.82299 -4.71792 0
M  V30 9485 H 907.15 3.55078 -5.78875 0
M  V30 9486 H 905.096 5.0819 -4.14824 0
M  V30 9487 H 905.013 4.78423 -5.85361 0
M  V30 9488 H 906.281 5.78995 -5.21905 0
M  V30 9489 N 910.51 1.48831 0.518367 0
M  V30 9490 C 911.756 1.57672 1.27543 0
M  V30 9491 C 912.089 0.254915 1.9252 0
M  V30 9492 O 911.364 -0.740107 1.79868 0
M  V30 9493 C 911.647 2.72345 2.35585 0
M  V30 9494 C 911.5 4.14267 1.75224 0
M  V30 9495 C 912.819 2.82726 3.37274 0
M  V30 9496 H 909.938 0.573926 0.462361 0
M  V30 9497 H 912.58 1.8105 0.576267 0
M  V30 9498 H 910.73 2.52543 2.95219 0
M  V30 9499 H 912.402 4.45539 1.19551 0
M  V30 9500 H 910.645 4.20724 1.05706 0
M  V30 9501 H 911.316 4.90345 2.53507 0
M  V30 9502 H 913.792 3.00699 2.8761 0
M  V30 9503 H 912.668 3.6467 4.10252 0
M  V30 9504 H 912.929 1.9136 3.9854 0
M  V30 9505 N 911.988 -0.768124 1.37614 0
M  V30 9506 C 912.898 -1.91249 1.35871 0
M  V30 9507 C 913.914 -1.7208 0.257786 0
M  V30 9508 O 915.09 -1.95253 0.493782 0
M  V30 9509 C 912.155 -3.26423 1.16829 0
M  V30 9510 C 911.216 -3.5822 2.36594 0
M  V30 9511 C 910.449 -4.86945 2.1845 0
M  V30 9512 O 910.672 -5.58258 1.17064 0
M  V30 9513 O 909.606 -5.17888 3.06718 0
M  V30 9514 H 913.432 -1.95671 2.32264 0
M  V30 9515 H 911.017 -0.911382 1.18382 0
M  V30 9516 H 912.899 -4.07269 1.08212 0
M  V30 9517 H 911.574 -3.22845 0.235123 0
M  V30 9518 H 910.481 -2.77594 2.50783 0
M  V30 9519 H 911.814 -3.66545 3.2849 0
M  V30 9520 N 913.466 -1.22244 -0.994698 0
M  V30 9521 C 914.877 -1.043 -1.5485 0
M  V30 9522 C 915.228 0.394102 -1.92201 0
M  V30 9523 O 914.353 1.27883 -1.74571 0
M  V30 9524 C 914.948 -1.88708 -2.8138 0
M  V30 9525 C 913.507 -1.75067 -3.3321 0
M  V30 9526 C 912.654 -1.85286 -2.06312 0
M  V30 9527 H 915.605 -1.36115 -0.815988 0
M  V30 9528 H 915.626 -1.40342 -3.53673 0
M  V30 9529 H 915.138 -2.93296 -2.54164 0
M  V30 9530 H 913.239 -0.732047 -3.65338 0
M  V30 9531 H 913.352 -2.57632 -4.03934 0
M  V30 9532 H 911.716 -1.28706 -2.19788 0
M  V30 9533 H 912.499 -2.91401 -1.81494 0
M  V30 9534 N 914.944 1.19125 -1.03184 0
M  V30 9535 C 916.193 1.8821 -0.725264 0
M  V30 9536 C 916.506 1.80674 0.749411 0
M  V30 9537 O 917.712 2.45037 1.16915 0
M  V30 9538 C 916.168 3.37607 -1.24697 0
M  V30 9539 C 915.776 3.53693 -2.74964 0
M  V30 9540 C 917.52 4.12149 -1.01652 0
M  V30 9541 C 915.427 4.97001 -3.20538 0
M  V30 9542 H 914.357 0.704916 -0.267599 0
M  V30 9543 H 917.008 1.34663 -1.24652 0
M  V30 9544 H 915.39 3.90569 -0.653614 0
M  V30 9545 H 916.564 3.11046 -3.39981 0
M  V30 9546 H 914.879 2.92544 -2.96322 0
M  V30 9547 H 917.476 5.17837 -1.33226 0
M  V30 9548 H 917.819 4.16274 0.0465712 0
M  V30 9549 H 918.352 3.65334 -1.57403 0
M  V30 9550 H 915.091 4.9804 -4.26189 0
M  V30 9551 H 914.611 5.40398 -2.60251 0
M  V30 9552 H 916.29 5.65669 -3.14049 0
M  V30 9553 N 916.422 0.810101 1.35185 0
M  V30 9554 C 917.369 0.220927 2.2974 0
M  V30 9555 C 918.339 -0.647024 1.5298 0
M  V30 9556 O 919.524 -0.591367 1.81404 0
M  V30 9557 C 916.664 -0.62167 3.39454 0
M  V30 9558 C 915.777 0.267104 4.31173 0
M  V30 9559 C 914.912 -0.583833 5.27982 0
M  V30 9560 C 913.951 0.305123 6.11339 0
M  V30 9561 N 913.088 -0.505992 7.00274 0
M  V30 9562 H 917.928 1.03266 2.79536 0
M  V30 9563 H 915.465 0.520768 1.37573 0
M  V30 9564 H 917.423 -1.12539 4.01735 0
M  V30 9565 H 916.053 -1.39863 2.90926 0
M  V30 9566 H 915.105 0.88895 3.69867 0
M  V30 9567 H 916.417 0.951182 4.89647 0
M  V30 9568 H 915.571 -1.15254 5.95652 0
M  V30 9569 H 914.31 -1.30146 4.70014 0
M  V30 9570 H 913.315 0.886075 5.42613 0
M  V30 9571 H 914.54 1.02067 6.71386 0
M  V30 9572 H 912.486 -1.20753 6.4479 0
M  V30 9573 H 912.403 0.119966 7.55905 0
M  V30 9574 H 913.671 -1.05787 7.72288 0
M  V30 9575 N 917.9 -1.47166 0.563914 0
M  V30 9576 C 919.149 -2.0166 0.0401871 0
M  V30 9577 C 919.462 -1.44303 -1.32046 0
M  V30 9578 O 920.668 -1.905 -1.93448 0
M  V30 9579 C 919.124 -3.59894 0.0213257 0
M  V30 9580 C 918.732 -4.26244 1.37914 0
M  V30 9581 C 920.476 -4.22114 -0.449442 0
M  V30 9582 C 918.383 -5.76503 1.31902 0
M  V30 9583 H 917.313 -0.753916 0.0112534 0
M  V30 9584 H 919.964 -1.69091 0.712766 0
M  V30 9585 H 918.346 -3.89454 -0.717038 0
M  V30 9586 H 919.52 -4.08317 2.13574 0
M  V30 9587 H 917.835 -3.76039 1.78839 0
M  V30 9588 H 920.432 -5.32234 -0.51292 0
M  V30 9589 H 920.775 -3.89749 -1.46291 0
M  V30 9590 H 921.308 -3.9711 0.23427 0
M  V30 9591 H 918.047 -6.13498 2.3087 0
M  V30 9592 H 917.567 -5.96748 0.604324 0
M  V30 9593 H 919.246 -6.38846 1.02392 0
M  V30 9594 N 919.378 -0.300708 -1.54705 0
M  V30 9595 C 920.311 0.617513 -2.19686 0
M  V30 9596 C 921.289 1.1331 -1.16617 0
M  V30 9597 O 922.473 1.20135 -1.45258 0
M  V30 9598 C 919.6 1.84486 -2.84047 0
M  V30 9599 C 918.646 1.46253 -4.0064 0
M  V30 9600 S 919.479 0.518718 -5.32982 0
M  V30 9601 C 920.635 1.75387 -6.00825 0
M  V30 9602 H 920.868 0.0654548 -2.97228 0
M  V30 9603 H 918.401 -0.0848492 -1.54167 0
M  V30 9604 H 920.359 2.54921 -3.21754 0
M  V30 9605 H 919.02 2.36808 -2.06351 0
M  V30 9606 H 918.213 2.37648 -4.44454 0
M  V30 9607 H 917.815 0.838129 -3.64488 0
M  V30 9608 H 920.107 2.69448 -6.21614 0
M  V30 9609 H 921.05 1.35829 -6.9495 0
M  V30 9610 H 921.458 1.93045 -5.30466 0
M  V30 9611 N 920.856 1.57574 -0.0284266 0
M  V30 9612 C 921.786 2.1321 0.952039 0
M  V30 9613 C 922.767 1.04806 1.33977 0
M  V30 9614 O 923.952 1.32635 1.41851 0
M  V30 9615 C 921.082 2.65862 2.23461 0
M  V30 9616 C 920.036 3.79047 1.98765 0
M  V30 9617 C 919.362 4.18124 3.33281 0
M  V30 9618 C 920.662 5.05151 1.32739 0
M  V30 9619 H 922.356 2.95385 0.488705 0
M  V30 9620 H 919.902 1.42092 0.233628 0
M  V30 9621 H 921.855 3.03417 2.92431 0
M  V30 9622 H 920.579 1.80848 2.71959 0
M  V30 9623 H 919.238 3.41929 1.32213 0
M  V30 9624 H 918.886 3.30092 3.79537 0
M  V30 9625 H 918.586 4.94396 3.17563 0
M  V30 9626 H 920.11 4.58262 4.0352 0
M  V30 9627 H 921.524 5.40297 1.91708 0
M  V30 9628 H 919.921 5.86416 1.27421 0
M  V30 9629 H 920.991 4.83969 0.300261 0
M  V30 9630 N 922.334 -0.244713 1.55689 0
M  V30 9631 C 923.281 -1.30301 1.905 0
M  V30 9632 C 924.251 -1.4772 0.759478 0
M  V30 9633 O 925.436 -1.61667 1.01333 0
M  V30 9634 C 922.576 -2.653 2.20703 0
M  V30 9635 C 921.689 -2.55872 3.48071 0
M  V30 9636 C 920.824 -3.83238 3.67834 0
M  V30 9637 C 919.863 -3.68436 4.88796 0
M  V30 9638 N 919 -4.877 5.05068 0
M  V30 9639 H 923.84 -0.999143 2.80751 0
M  V30 9640 H 921.377 -0.482099 1.38976 0
M  V30 9641 H 923.335 -3.43884 2.36219 0
M  V30 9642 H 921.965 -2.93831 1.33653 0
M  V30 9643 H 921.017 -1.68846 3.40874 0
M  V30 9644 H 922.329 -2.40845 4.36801 0
M  V30 9645 H 921.483 -4.70266 3.83321 0
M  V30 9646 H 920.222 -4.01165 2.77341 0
M  V30 9647 H 919.227 -2.79793 4.73282 0
M  V30 9648 H 920.452 -3.52003 5.8075 0
M  V30 9649 H 918.398 -5.05983 4.17513 0
M  V30 9650 H 918.315 -4.75312 5.8789 0
M  V30 9651 H 919.583 -5.76219 5.24969 0
M  V30 9652 N 923.813 -1.49104 -0.510467 0
M  V30 9653 C 925.224 -1.51423 -1.09215 0
M  V30 9654 C 925.575 -0.295035 -1.93969 0
M  V30 9655 O 924.7 0.596064 -2.08029 0
M  V30 9656 C 925.295 -2.74387 -1.98739 0
M  V30 9657 C 923.854 -2.79515 -2.52088 0
M  V30 9658 C 923.001 -2.4521 -1.29488 0
M  V30 9659 H 925.952 -1.55938 -0.294807 0
M  V30 9660 H 925.973 -2.54012 -2.83298 0
M  V30 9661 H 925.485 -3.63105 -1.37026 0
M  V30 9662 H 923.586 -1.95054 -3.17466 0
M  V30 9663 H 923.699 -3.81447 -2.89887 0
M  V30 9664 H 922.063 -1.96785 -1.61703 0
M  V30 9665 H 922.846 -3.36192 -0.694978 0
M  V30 9666 N 925.291 0.760815 -1.38019 0
M  V30 9667 C 926.539 1.51673 -1.33566 0
M  V30 9668 C 926.86 1.94852 0.076024 0
M  V30 9669 O 926.13 1.67112 1.02227 0
M  V30 9670 H 924.71 0.562581 -0.491438 0
M  V30 9671 H 927.372 0.904832 -1.72623 0
M  V30 9672 H 926.468 2.41102 -1.98182 0
M  V30 9673 N 926.769 1.22769 0.988202 0
M  V30 9674 C 927.716 1.00195 2.07917 0
M  V30 9675 C 928.686 -0.0779391 1.65917 0
M  V30 9676 O 929.871 0.0726005 1.90662 0
M  V30 9677 C 927.011 0.590853 3.40004 0
M  V30 9678 C 926.124 1.74202 3.9532 0
M  V30 9679 C 925.259 1.27846 5.15586 0
M  V30 9680 C 924.298 2.40087 5.63049 0
M  V30 9681 N 923.435 1.94744 6.74551 0
M  V30 9682 H 928.275 1.93581 2.26562 0
M  V30 9683 H 925.812 0.96448 1.11068 0
M  V30 9684 H 927.77 0.333653 4.15864 0
M  V30 9685 H 926.4 -0.306007 3.21346 0
M  V30 9686 H 925.452 2.11342 3.16289 0
M  V30 9687 H 926.764 2.58612 4.26522 0
M  V30 9688 H 925.918 0.978919 5.9875 0
M  V30 9689 H 924.657 0.404617 4.86019 0
M  V30 9690 H 923.662 2.70824 4.78471 0
M  V30 9691 H 924.887 3.27995 5.9464 0
M  V30 9692 H 922.833 1.09729 6.46758 0
M  V30 9693 H 922.75 2.72718 7.05096 0
M  V30 9694 H 924.018 1.67873 7.61209 0
M  V30 9695 N 928.247 -1.18576 1.03814 0
M  V30 9696 C 929.524 -1.8433 0.654358 0
M  V30 9697 C 929.904 -1.92504 -0.866338 0
M  V30 9698 O 929.252 -1.44904 -1.76678 0
M  V30 9699 C 929.462 -3.22778 1.32723 0
M  V30 9700 C 930.81 -3.98841 1.45641 0
M  V30 9701 O 931.834 -3.32209 1.28514 0
M  V30 9702 O 930.693 -5.18219 1.73526 0
M  V30 9703 H 927.787 -0.794766 0.228638 0
M  V30 9704 H 930.333 -1.25989 1.13687 0
M  V30 9705 H 929.105 -3.11717 2.36534 0
M  V30 9706 H 928.728 -3.88772 0.833176 0
M  V30 9707 N 929.725 -0.817259 -1.34754 0
M  V30 9708 C 930.973 -0.401852 -1.98065 0
M  V30 9709 C 931.294 1.03718 -1.65129 0
M  V30 9710 O 930.564 1.71921 -0.939141 0
M  V30 9711 H 929.144 -0.145603 -0.732672 0
M  V30 9712 H 931.806 -1.04545 -1.64488 0
M  V30 9713 H 930.902 -0.516241 -3.07801 0
M  V30 9714 N 931.203 1.46865 -0.571711 0
M  V30 9715 C 932.614 1.86158 -0.142181 0
M  V30 9716 C 932.965 1.47663 1.2919 0
M  V30 9717 O 932.09 0.886393 1.97413 0
M  V30 9718 C 932.685 3.37867 -0.251256 0
M  V30 9719 C 931.244 3.76198 0.123329 0
M  V30 9720 C 930.391 2.70902 -0.592232 0
M  V30 9721 H 933.342 1.38176 -0.780587 0
M  V30 9722 H 933.363 3.76842 0.526331 0
M  V30 9723 H 932.875 3.65853 -1.2951 0
M  V30 9724 H 930.976 3.53829 1.16773 0
M  V30 9725 H 931.089 4.78471 -0.24533 0
M  V30 9726 H 929.453 2.54678 -0.0336927 0
M  V30 9727 H 930.236 3.01729 -1.63751 0
M  V30 9728 N 932.681 0.308908 1.54543 0
M  V30 9729 C 933.628 -0.563659 2.23811 0
M  V30 9730 C 934.598 -1.12332 1.22355 0
M  V30 9731 O 935.783 -1.16638 1.50997 0
M  V30 9732 C 932.923 -1.72585 2.98845 0
M  V30 9733 C 932.036 -1.19682 4.1509 0
M  V30 9734 C 931.171 -2.32351 4.77688 0
M  V30 9735 C 930.21 -1.76623 5.86064 0
M  V30 9736 N 929.347 -2.82896 6.42584 0
M  V30 9737 H 934.187 0.0336288 2.97981 0
M  V30 9738 H 931.724 0.0283666 1.47073 0
M  V30 9739 H 933.682 -2.40951 3.40586 0
M  V30 9740 H 932.312 -2.29464 2.27037 0
M  V30 9741 H 931.364 -0.405173 3.78236 0
M  V30 9742 H 932.676 -0.748923 4.93146 0
M  V30 9743 H 931.83 -3.0865 5.22322 0
M  V30 9744 H 930.569 -2.80472 3.98982 0
M  V30 9745 H 929.574 -0.988171 5.40847 0
M  V30 9746 H 930.799 -1.29398 6.66658 0
M  V30 9747 H 928.745 -3.30336 5.66758 0
M  V30 9748 H 928.662 -2.42626 7.16009 0
M  V30 9749 H 929.93 -3.59068 6.91875 0
M  V30 9750 N 934.159 -1.57557 0.0367827 0
M  V30 9751 C 935.089 -2.13712 -0.940719 0
M  V30 9752 C 936.07 -1.05515 -1.33419 0
M  V30 9753 O 937.255 -1.33385 -1.41146 0
M  V30 9754 C 934.385 -2.67043 -2.22048 0
M  V30 9755 C 933.339 -3.80096 -1.96752 0
M  V30 9756 C 932.665 -4.19886 -3.31059 0
M  V30 9757 C 933.965 -5.05848 -1.30058 0
M  V30 9758 H 935.659 -2.9564 -0.473033 0
M  V30 9759 H 933.205 -1.42214 -0.226089 0
M  V30 9760 H 935.158 -3.04964 -2.90818 0
M  V30 9761 H 933.882 -1.82287 -2.70996 0
M  V30 9762 H 932.541 -3.42625 -1.30398 0
M  V30 9763 H 932.189 -3.32101 -3.77781 0
M  V30 9764 H 931.889 -4.96073 -3.14937 0
M  V30 9765 H 933.413 -4.60395 -4.01084 0
M  V30 9766 H 934.827 -5.41306 -1.8884 0
M  V30 9767 H 933.224 -5.87084 -1.24309 0
M  V30 9768 H 934.294 -4.84122 -0.274591 0
M  V30 9769 N 935.637 0.236453 -1.55816 0
M  V30 9770 C 937.053 0.585465 -1.48474 0
M  V30 9771 C 937.253 1.8785 -0.72902 0
M  V30 9772 O 936.309 2.51131 -0.262614 0
M  V30 9773 C 937.622 0.678506 -2.92945 0
M  V30 9774 C 939.17 0.770135 -3.03378 0
M  V30 9775 C 939.645 0.894649 -4.49177 0
M  V30 9776 N 941.136 0.959253 -4.53158 0
M  V30 9777 C 941.871 1.07505 -5.63232 0
M  V30 9778 N 941.367 1.15572 -6.83092 0
M  V30 9779 N 943.16 1.10902 -5.51051 0
M  V30 9780 H 935.311 -0.612241 -2.03385 0
M  V30 9781 H 937.574 -0.212796 -0.923808 0
M  V30 9782 H 937.28 -0.201757 -3.51121 0
M  V30 9783 H 937.154 1.54703 -3.44016 0
M  V30 9784 H 939.541 1.64085 -2.45276 0
M  V30 9785 H 939.622 -0.123753 -2.555 0
M  V30 9786 H 939.266 0.0284537 -5.07892 0
M  V30 9787 H 939.196 1.80373 -4.94745 0
M  V30 9788 H 941.687 0.907827 -3.66834 0
M  V30 9789 H 942 1.24343 -7.62731 0
M  V30 9790 H 940.345 1.12511 -6.85833 0
M  V30 9791 H 943.536 1.04255 -4.56343 0
M  V30 9792 H 943.709 1.19581 -6.36871 0
M  V30 9793 N 937.115 1.49373 0.502552 0
M  V30 9794 C 938.047 1.62045 1.62093 0
M  V30 9795 C 939.06 0.503221 1.54827 0
M  V30 9796 O 940.249 0.775208 1.60788 0
M  V30 9797 C 937.349 1.55971 3.00876 0
M  V30 9798 C 936.522 2.832 3.33341 0
M  V30 9799 C 935.581 2.702 4.51529 0
M  V30 9800 O 934.607 3.44132 4.53389 0
M  V30 9801 N 935.809 1.81642 5.5135 0
M  V30 9802 H 938.574 2.58501 1.51649 0
M  V30 9803 H 936.135 1.46442 0.690396 0
M  V30 9804 H 938.127 1.4493 3.77859 0
M  V30 9805 H 936.697 0.673795 3.05252 0
M  V30 9806 H 935.917 3.08604 2.4527 0
M  V30 9807 H 937.205 3.67551 3.51829 0
M  V30 9808 H 936.603 1.20829 5.52645 0
M  V30 9809 H 935.16 1.76524 6.27441 0
M  V30 9810 N 938.594 -0.753485 1.38421 0
M  V30 9811 C 939.84 -1.51391 1.35839 0
M  V30 9812 C 940.195 -1.92331 -0.0513518 0
M  V30 9813 O 939.488 -1.62568 -1.01401 0
M  V30 9814 C 939.682 -2.77836 2.24816 0
M  V30 9815 C 939.511 -2.49257 3.74301 0
M  V30 9816 C 938.281 -2.42471 4.43324 0
M  V30 9817 C 940.479 -2.16027 4.6673 0
M  V30 9818 N 938.461 -2.06168 5.78246 0
M  V30 9819 C 939.832 -1.90016 5.90164 0
M  V30 9820 C 941.887 -2.02337 4.54933 0
M  V30 9821 C 940.59 -1.51696 7.03122 0
M  V30 9822 C 942.616 -1.65419 5.67794 0
M  V30 9823 C 941.978 -1.40281 6.9029 0
M  V30 9824 H 938.077 -0.553561 0.552354 0
M  V30 9825 H 940.661 -0.877409 1.73809 0
M  V30 9826 H 938.832 -3.39295 1.89034 0
M  V30 9827 H 940.564 -3.43889 2.13359 0
M  V30 9828 H 937.319 -2.58946 3.9654 0
M  V30 9829 H 937.743 -1.90662 6.49598 0
M  V30 9830 H 942.385 -2.20447 3.60781 0
M  V30 9831 H 940.103 -1.32325 7.97192 0
M  V30 9832 H 943.689 -1.55459 5.60646 0
M  V30 9833 H 942.569 -1.12139 7.76141 0
M  V30 9834 N 940.072 -1.23292 -0.981677 0
M  V30 9835 C 941.483 -1.05936 -1.53735 0
M  V30 9836 C 941.834 0.373695 -1.92608 0
M  V30 9837 O 940.959 1.26024 -1.75917 0
M  V30 9838 C 941.554 -1.91682 -2.79363 0
M  V30 9839 C 940.113 -1.78591 -3.31334 0
M  V30 9840 C 939.26 -1.87463 -2.04335 0
M  V30 9841 H 942.211 -1.36973 -0.801505 0
M  V30 9842 H 942.232 -1.44085 -3.52164 0
M  V30 9843 H 941.744 -2.95975 -2.51039 0
M  V30 9844 H 939.845 -0.770755 -3.64541 0
M  V30 9845 H 939.958 -2.61902 -4.01179 0
M  V30 9846 H 938.322 -1.3103 -2.18411 0
M  V30 9847 H 939.105 -2.9331 -1.78394 0
M  V30 9848 N 941.55 1.18024 -1.04442 0
M  V30 9849 C 942.48 2.23988 -0.659683 0
M  V30 9850 C 943.461 1.6669 0.338904 0
M  V30 9851 O 944.646 1.92971 0.21817 0
M  V30 9852 C 941.776 3.4729 -0.0257672 0
M  V30 9853 C 940.73 4.17362 -0.948299 0
M  V30 9854 C 940.056 5.34401 -0.17866 0
M  V30 9855 C 941.356 4.70435 -2.26909 0
M  V30 9856 H 943.05 2.56425 -1.54553 0
M  V30 9857 H 940.596 1.23256 -0.744575 0
M  V30 9858 H 942.549 4.20627 0.255131 0
M  V30 9859 H 941.273 3.14098 0.894981 0
M  V30 9860 H 939.932 3.45928 -1.21364 0
M  V30 9861 H 939.58 4.97458 0.744614 0
M  V30 9862 H 939.28 5.8222 -0.793294 0
M  V30 9863 H 940.804 6.10526 0.0951315 0
M  V30 9864 H 942.218 5.35447 -2.04864 0
M  V30 9865 H 940.615 5.28803 -2.83703 0
M  V30 9866 H 941.685 3.87653 -2.91296 0
M  V30 9867 N 943.028 0.824394 1.34319 0
M  V30 9868 C 944.256 0.426194 2.02463 0
M  V30 9869 C 944.671 -0.968298 1.62078 0
M  V30 9870 O 944.028 -1.62689 0.82696 0
M  V30 9871 C 944.079 0.520465 3.57734 0
M  V30 9872 O 943.8 1.86 3.96656 0
M  V30 9873 C 945.301 0.117353 4.43145 0
M  V30 9874 H 942.521 0.170864 0.648881 0
M  V30 9875 H 945.065 1.11296 1.71562 0
M  V30 9876 H 943.22 -0.118233 3.8722 0
M  V30 9877 H 943.634 1.83528 4.91343 0
M  V30 9878 H 945.108 0.234395 5.51502 0
M  V30 9879 H 945.585 -0.939271 4.29039 0
M  V30 9880 H 946.191 0.729908 4.1899 0
M  V30 9881 N 944.506 -1.46559 0.579492 0
M  V30 9882 C 945.453 -2.30275 -0.155598 0
M  V30 9883 C 946.423 -1.40422 -0.887175 0
M  V30 9884 O 947.608 -1.69373 -0.878481 0
M  V30 9885 C 944.748 -3.24827 -1.16539 0
M  V30 9886 C 943.861 -4.29778 -0.43759 0
M  V30 9887 C 942.996 -5.11461 -1.43462 0
M  V30 9888 C 942.035 -6.08164 -0.693048 0
M  V30 9889 N 941.172 -6.82726 -1.63799 0
M  V30 9890 H 946.012 -2.92607 0.564356 0
M  V30 9891 H 943.549 -1.44211 0.290126 0
M  V30 9892 H 945.507 -3.78088 -1.76368 0
M  V30 9893 H 944.137 -2.64311 -1.8531 0
M  V30 9894 H 943.189 -3.794 0.27567 0
M  V30 9895 H 944.501 -4.98597 0.142298 0
M  V30 9896 H 943.655 -5.68982 -2.1058 0
M  V30 9897 H 942.394 -4.42595 -2.04844 0
M  V30 9898 H 941.399 -5.49799 -0.00807093 0
M  V30 9899 H 942.624 -6.79047 -0.0846678 0
M  V30 9900 H 940.57 -6.16572 -2.23997 0
M  V30 9901 H 940.487 -7.47795 -1.11082 0
M  V30 9902 H 941.755 -7.44807 -2.29962 0
M  V30 9903 N 945.984 -0.3171 -1.54377 0
M  V30 9904 C 946.894 0.560867 -2.27797 0
M  V30 9905 C 947.91 1.13473 -1.31908 0
M  V30 9906 O 949.086 1.15608 -1.64914 0
M  V30 9907 C 946.151 1.70886 -3.0166 0
M  V30 9908 C 945.212 1.16745 -4.13121 0
M  V30 9909 C 944.445 2.26073 -4.83453 0
M  V30 9910 O 944.668 3.46292 -4.53252 0
M  V30 9911 O 943.602 1.91856 -5.70504 0
M  V30 9912 H 947.428 -0.035193 -3.0368 0
M  V30 9913 H 945.013 -0.0830062 -1.49169 0
M  V30 9914 H 946.895 2.37736 -3.47936 0
M  V30 9915 H 945.57 2.29122 -2.28658 0
M  V30 9916 H 944.477 0.464224 -3.71209 0
M  V30 9917 H 945.81 0.630307 -4.88147 0
M  V30 9918 N 947.462 1.57535 -0.0451378 0
M  V30 9919 C 948.409 2.11176 0.931313 0
M  V30 9920 C 949.379 1.01765 1.31275 0
M  V30 9921 O 950.564 1.29279 1.40327 0
M  V30 9922 C 947.704 2.65639 2.20295 0
M  V30 9923 C 946.817 3.89114 1.87654 0
M  V30 9924 C 945.952 4.31914 3.09232 0
M  V30 9925 C 944.991 5.48105 2.72484 0
M  V30 9926 N 944.128 5.85986 3.86736 0
M  V30 9927 H 948.968 2.94318 0.466986 0
M  V30 9928 H 946.505 1.45462 0.218886 0
M  V30 9929 H 948.463 2.95312 2.94697 0
M  V30 9930 H 947.093 1.85303 2.64316 0
M  V30 9931 H 946.145 3.6607 1.03427 0
M  V30 9932 H 947.457 4.7358 1.56601 0
M  V30 9933 H 946.611 4.63108 3.91939 0
M  V30 9934 H 945.35 3.46247 3.43459 0
M  V30 9935 H 944.355 5.16589 1.88192 0
M  V30 9936 H 945.58 6.35482 2.39455 0
M  V30 9937 H 943.526 5.03273 4.20775 0
M  V30 9938 H 943.443 6.65129 3.5936 0
M  V30 9939 H 944.711 6.21793 4.701 0
M  V30 9940 N 948.94 -0.228186 1.55939 0
M  V30 9941 C 950.189 -0.951563 1.77843 0
M  V30 9942 C 950.502 -1.85763 0.612501 0
M  V30 9943 O 951.708 -2.61916 0.715006 0
M  V30 9944 C 950.164 -1.74216 3.14923 0
M  V30 9945 C 949.772 -0.882569 4.39221 0
M  V30 9946 C 951.516 -2.45715 3.46156 0
M  V30 9947 C 949.423 -1.67014 5.67327 0
M  V30 9948 H 948.353 -0.359035 0.663031 0
M  V30 9949 H 951.004 -0.205636 1.82344 0
M  V30 9950 H 949.386 -2.53075 3.0458 0
M  V30 9951 H 950.56 -0.13499 4.60602 0
M  V30 9952 H 948.875 -0.280022 4.15457 0
M  V30 9953 H 951.472 -3.05127 4.39092 0
M  V30 9954 H 951.815 -3.1827 2.68346 0
M  V30 9955 H 952.348 -1.73852 3.57799 0
M  V30 9956 H 949.087 -0.987985 6.48012 0
M  V30 9957 H 948.607 -2.3925 5.50018 0
M  V30 9958 H 950.286 -2.23252 6.07262 0
M  V30 9959 N 950.418 -1.49637 -0.494624 0
M  V30 9960 C 951.328 -1.69522 -1.62172 0
M  V30 9961 C 952.344 -0.577894 -1.64123 0
M  V30 9962 O 953.52 -0.853382 -1.82426 0
M  V30 9963 C 950.585 -1.7633 -2.9851 0
M  V30 9964 C 949.646 -2.99944 -3.07135 0
M  V30 9965 C 948.879 -3.06419 -4.36971 0
M  V30 9966 O 949.102 -2.20312 -5.26136 0
M  V30 9967 O 948.036 -3.9894 -4.507 0
M  V30 9968 H 951.862 -2.65017 -1.48324 0
M  V30 9969 H 949.447 -1.33454 -0.671603 0
M  V30 9970 H 951.329 -1.83125 -3.7953 0
M  V30 9971 H 950.004 -0.840155 -3.12607 0
M  V30 9972 H 948.911 -2.98664 -2.2528 0
M  V30 9973 H 950.244 -3.9176 -2.97968 0
M  V30 9974 N 951.896 0.746133 -1.38819 0
M  V30 9975 C 952.859 1.84167 -1.36437 0
M  V30 9976 C 953.859 1.58626 -0.263499 0
M  V30 9977 O 955.049 1.66233 -0.520801 0
M  V30 9978 C 952.181 3.21769 -1.12596 0
M  V30 9979 H 953.374 1.87684 -2.33912 0
M  V30 9980 H 950.927 0.948625 -1.24221 0
M  V30 9981 H 951.662 3.23917 -0.15758 0
M  V30 9982 H 951.447 3.41702 -1.92307 0
M  V30 9983 H 952.937 4.0184 -1.13643 0
M  V30 9984 N 953.375 1.23811 0.975125 0
M  V30 9985 C 954.305 1.04846 2.08638 0
M  V30 9986 C 955.286 -0.0362859 1.70061 0
M  V30 9987 O 956.471 0.12937 1.93769 0
M  V30 9988 C 953.601 0.644534 3.41267 0
M  V30 9989 C 952.555 1.67722 3.93768 0
M  V30 9990 C 951.881 1.12857 5.22654 0
M  V30 9991 C 953.181 3.07147 4.22443 0
M  V30 9992 H 954.875 1.97795 2.24761 0
M  V30 9993 H 952.421 0.952397 1.08006 0
M  V30 9994 H 954.374 0.498887 4.18436 0
M  V30 9995 H 953.098 -0.320641 3.25022 0
M  V30 9996 H 951.757 1.81095 3.18748 0
M  V30 9997 H 951.405 0.154227 5.02764 0
M  V30 9998 H 951.105 1.81862 5.58749 0
M  V30 9999 H 952.629 0.994891 6.0244 0
M  V30 10000 H 954.043 2.97045 4.90344 0
M  V30 10001 H 952.44 3.73437 4.6975 0
M  V30 10002 H 953.51 3.55743 3.29507 0
M  V30 10003 N 954.853 -1.17469 1.05066 0
M  V30 10004 C 955.8 -2.21443 0.650512 0
M  V30 10005 C 956.77 -1.62441 -0.346702 0
M  V30 10006 O 957.955 -1.89305 -0.238404 0
M  V30 10007 C 955.095 -3.45087 0.0301014 0
M  V30 10008 C 954.208 -4.18385 1.07599 0
M  V30 10009 C 953.343 -5.29513 0.423038 0
M  V30 10010 C 952.382 -5.94596 1.45333 0
M  V30 10011 N 951.519 -6.97241 0.824623 0
M  V30 10012 H 956.359 -2.55025 1.54163 0
M  V30 10013 H 953.896 -1.25274 0.771032 0
M  V30 10014 H 955.854 -4.15754 -0.347032 0
M  V30 10015 H 954.484 -3.12093 -0.824481 0
M  V30 10016 H 953.536 -3.46446 1.57097 0
M  V30 10017 H 954.848 -4.62899 1.85813 0
M  V30 10018 H 954.002 -6.067 -0.00774975 0
M  V30 10019 H 952.741 -4.86129 -0.391092 0
M  V30 10020 H 951.746 -5.16142 1.89415 0
M  V30 10021 H 952.971 -6.40061 2.26934 0
M  V30 10022 H 950.917 -6.55993 0.0309804 0
M  V30 10023 H 950.834 -7.40059 1.54432 0
M  V30 10024 H 952.102 -7.78375 0.418567 0
M  V30 10025 N 956.331 -0.831506 -1.3388 0
M  V30 10026 C 957.241 -0.261688 -2.33136 0
M  V30 10027 C 958.257 0.608429 -1.63016 0
M  V30 10028 O 959.433 0.514297 -1.94723 0
M  V30 10029 C 956.498 0.559957 -3.42148 0
M  V30 10030 C 955.559 -0.333569 -4.28002 0
M  V30 10031 C 954.792 0.448956 -5.31808 0
M  V30 10032 O 955.015 1.6814 -5.45055 0
M  V30 10033 O 953.949 -0.173197 -6.01651 0
M  V30 10034 H 957.775 -1.08343 -2.83717 0
M  V30 10035 H 955.36 -0.593849 -1.3709 0
M  V30 10036 H 957.242 1.02712 -4.08691 0
M  V30 10037 H 955.917 1.35888 -2.93796 0
M  V30 10038 H 954.824 -0.848416 -3.64352 0
M  V30 10039 H 956.157 -1.09707 -4.79818 0
M  V30 10040 N 957.809 1.4625 -0.587256 0
M  V30 10041 C 959.058 2.01571 -0.0722643 0
M  V30 10042 C 959.371 1.46385 1.29733 0
M  V30 10043 O 960.577 1.93554 1.90392 0
M  V30 10044 C 959.033 3.59814 -0.078579 0
M  V30 10045 C 958.641 4.23996 -1.44678 0
M  V30 10046 C 960.385 4.22776 0.382231 0
M  V30 10047 C 958.292 5.74332 -1.41057 0
M  V30 10048 H 957.222 0.753642 -0.0232461 0
M  V30 10049 H 959.873 1.67936 -0.739577 0
M  V30 10050 H 958.255 3.90546 0.654988 0
M  V30 10051 H 959.429 4.04867 -2.20043 0
M  V30 10052 H 957.744 3.73147 -1.84799 0
M  V30 10053 H 960.341 5.32983 0.428182 0
M  V30 10054 H 960.684 3.92027 1.40072 0
M  V30 10055 H 961.217 3.96687 -0.297417 0
M  V30 10056 H 957.956 6.09747 -2.40601 0
M  V30 10057 H 957.476 5.95711 -0.699185 0
M  V30 10058 H 959.155 6.37137 -1.12543 0
M  V30 10059 N 959.287 0.325282 1.54207 0
M  V30 10060 C 960.527 -0.277347 2.0251 0
M  V30 10061 C 960.891 -1.49211 1.20831 0
M  V30 10062 O 962.092 -2.16771 1.58945 0
M  V30 10063 C 960.363 -0.601517 3.52302 0
M  V30 10064 S 961.922 -1.18356 4.22537 0
M  V30 10065 H 958.74 -0.08378 0.706047 0
M  V30 10066 H 961.342 0.458804 1.9004 0
M  V30 10067 H 960.046 0.290696 4.09369 0
M  V30 10068 H 959.577 -1.36782 3.68855 0
M  V30 10069 H 961.592 -2.47029 4.30338 0
M  V30 10070 N 960.765 -1.57509 0.0534917 0
M  V30 10071 C 961.675 -2.15152 -0.935249 0
M  V30 10072 C 962.691 -1.10991 -1.34003 0
M  V30 10073 O 963.867 -1.43171 -1.41648 0
M  V30 10074 C 960.932 -2.68699 -2.19093 0
M  V30 10075 C 959.993 -3.87666 -1.84428 0
M  V30 10076 C 959.226 -4.3865 -3.0401 0
M  V30 10077 O 959.449 -3.887 -4.17455 0
M  V30 10078 O 958.383 -5.30209 -2.84889 0
M  V30 10079 H 962.209 -2.99962 -0.475009 0
M  V30 10080 H 959.794 -1.48446 -0.16854 0
M  V30 10081 H 961.676 -3.03098 -2.92762 0
M  V30 10082 H 960.351 -1.86958 -2.6425 0
M  V30 10083 H 959.258 -3.58151 -1.08068 0
M  V30 10084 H 960.591 -4.70643 -1.44068 0
M  V30 10085 N 962.243 0.219913 -1.56058 0
M  V30 10086 C 963.19 1.27254 -1.92549 0
M  V30 10087 C 964.16 1.46493 -0.782883 0
M  V30 10088 O 965.345 1.60035 -1.03892 0
M  V30 10089 C 962.485 2.61756 -2.24896 0
M  V30 10090 C 961.598 2.50302 -3.52098 0
M  V30 10091 C 960.733 3.77338 -3.73884 0
M  V30 10092 C 959.772 3.60613 -4.94595 0
M  V30 10093 N 958.909 4.79603 -5.12763 0
M  V30 10094 H 963.749 0.954352 -2.82305 0
M  V30 10095 H 961.286 0.459928 -1.39725 0
M  V30 10096 H 963.244 3.40082 -2.4166 0
M  V30 10097 H 961.874 2.91668 -1.38311 0
M  V30 10098 H 960.926 1.63401 -3.43517 0
M  V30 10099 H 962.238 2.33866 -4.40577 0
M  V30 10100 H 961.392 4.64108 -3.90754 0
M  V30 10101 H 960.131 3.96702 -2.83689 0
M  V30 10102 H 959.136 2.72228 -4.77674 0
M  V30 10103 H 960.361 3.42719 -5.86277 0
M  V30 10104 H 958.307 4.99277 -4.2551 0
M  V30 10105 H 958.224 4.65899 -5.95377 0
M  V30 10106 H 959.492 5.67794 -5.34069 0
M  V30 10107 N 963.721 1.49897 0.486681 0
M  V30 10108 C 964.654 1.6224 1.60479 0
M  V30 10109 C 965.632 0.470964 1.5563 0
M  V30 10110 O 966.816 0.688418 1.75479 0
M  V30 10111 C 963.943 1.59059 2.99028 0
M  V30 10112 C 962.989 2.79575 3.22087 0
M  V30 10113 S 963.822 4.41077 3.03664 0
M  V30 10114 C 964.978 4.40564 4.44583 0
M  V30 10115 H 965.211 2.56822 1.49766 0
M  V30 10116 H 962.744 1.38966 0.672893 0
M  V30 10117 H 964.702 1.5791 3.78913 0
M  V30 10118 H 963.363 0.657405 3.07143 0
M  V30 10119 H 962.556 2.73609 4.23266 0
M  V30 10120 H 962.158 2.78211 2.49949 0
M  V30 10121 H 964.45 4.13166 5.36936 0
M  V30 10122 H 965.393 5.42068 4.55596 0
M  V30 10123 H 965.801 3.70461 4.25933 0
M  V30 10124 N 965.199 -0.738761 1.39212 0
M  V30 10125 C 966.109 -1.88324 1.39897 0
M  V30 10126 C 967.125 -1.71494 0.294229 0
M  V30 10127 O 968.301 -1.94162 0.535087 0
M  V30 10128 C 965.366 -3.23871 1.23726 0
M  V30 10129 C 964.427 -3.53121 2.44139 0
M  V30 10130 C 963.66 -4.82202 2.2873 0
M  V30 10131 O 963.883 -5.55649 1.28879 0
M  V30 10132 O 962.817 -5.11265 3.17634 0
M  V30 10133 H 966.643 -1.90701 2.36362 0
M  V30 10134 H 964.228 -0.886067 1.20288 0
M  V30 10135 H 966.11 -4.04882 1.16826 0
M  V30 10136 H 964.785 -3.22274 0.303551 0
M  V30 10137 H 963.692 -2.72212 2.56615 0
M  V30 10138 H 965.025 -3.59495 3.36191 0
M  V30 10139 N 966.677 -1.24326 -0.968545 0
M  V30 10140 C 967.624 -1.0349 -2.06297 0
M  V30 10141 C 968.594 0.0515333 -1.6602 0
M  V30 10142 O 969.779 -0.102924 -1.90522 0
M  V30 10143 C 966.919 -0.64487 -3.39021 0
M  V30 10144 C 966.032 -1.80469 -3.92498 0
M  V30 10145 C 965.167 -1.36032 -5.13487 0
M  V30 10146 C 964.206 -2.49014 -5.59159 0
M  V30 10147 N 963.343 -2.05451 -6.71367 0
M  V30 10148 H 968.183 -1.97161 -2.23454 0
M  V30 10149 H 965.72 -0.982028 -1.0952 0
M  V30 10150 H 967.678 -0.399771 -4.1528 0
M  V30 10151 H 966.308 0.254845 -3.21792 0
M  V30 10152 H 965.36 -2.16348 -3.12886 0
M  V30 10153 H 966.672 -2.65365 -4.22354 0
M  V30 10154 H 965.826 -1.07405 -5.97117 0
M  V30 10155 H 964.565 -0.481887 -4.85313 0
M  V30 10156 H 963.57 -2.78402 -4.74102 0
M  V30 10157 H 964.795 -3.37413 -5.89346 0
M  V30 10158 H 962.741 -1.20004 -6.4493 0
M  V30 10159 H 962.658 -2.83901 -7.00668 0
M  V30 10160 H 963.926 -1.79962 -7.58442 0
M  V30 10161 N 968.156 1.1691 -1.05688 0
M  V30 10162 C 969.066 2.24735 -0.67315 0
M  V30 10163 C 970.082 1.71252 0.308043 0
M  V30 10164 O 971.258 2.00772 0.158889 0
M  V30 10165 C 968.323 3.4665 -0.059026 0
M  V30 10166 C 967.384 4.15198 -1.0913 0
M  V30 10167 C 966.617 5.31292 -0.50639 0
M  V30 10168 O 966.84 5.663 0.682692 0
M  V30 10169 O 965.774 5.88923 -1.2431 0
M  V30 10170 H 969.6 2.59855 -1.57191 0
M  V30 10171 H 967.185 1.24306 -0.828751 0
M  V30 10172 H 969.067 4.20455 0.282018 0
M  V30 10173 H 967.742 3.13316 0.813304 0
M  V30 10174 H 966.649 3.43389 -1.48442 0
M  V30 10175 H 967.982 4.52571 -1.93495 0
M  V30 10176 N 969.634 0.838594 1.33437 0
M  V30 10177 C 970.882 0.433312 1.974 0
M  V30 10178 C 971.203 -1.01078 1.66758 0
M  V30 10179 O 970.473 -1.70406 0.966373 0
M  V30 10180 H 969.053 0.15724 0.730263 0
M  V30 10181 H 971.715 1.07149 1.62804 0
M  V30 10182 H 970.811 0.565144 3.06941 0
M  V30 10183 N 971.112 -1.45937 0.595003 0
M  V30 10184 C 972.044 -2.28575 -0.169137 0
M  V30 10185 C 973.057 -1.39226 -0.843792 0
M  V30 10186 O 974.246 -1.63716 -0.711291 0
M  V30 10187 C 971.346 -3.14616 -1.25976 0
M  V30 10188 C 970.519 -4.32166 -0.67466 0
M  V30 10189 C 969.578 -4.99511 -1.65456 0
M  V30 10190 O 968.604 -5.56712 -1.18578 0
M  V30 10191 N 969.806 -4.97643 -2.98885 0
M  V30 10192 H 972.571 -2.94797 0.539908 0
M  V30 10193 H 970.132 -1.55985 0.433614 0
M  V30 10194 H 972.124 -3.56534 -1.91483 0
M  V30 10195 H 970.694 -2.50387 -1.8715 0
M  V30 10196 H 969.914 -3.93882 0.158184 0
M  V30 10197 H 971.202 -5.08116 -0.263753 0
M  V30 10198 H 970.6 -4.52438 -3.39583 0
M  V30 10199 H 969.157 -5.43463 -3.59848 0
M  V30 10200 N 972.59 -0.333456 -1.54032 0
M  V30 10201 C 973.52 0.52051 -2.27625 0
M  V30 10202 C 974.501 1.1111 -1.28797 0
M  V30 10203 O 975.686 1.13438 -1.57625 0
M  V30 10204 C 972.816 1.67663 -3.04149 0
M  V30 10205 C 971.77 1.21487 -4.10396 0
M  V30 10206 C 971.096 2.45872 -4.74817 0
M  V30 10207 C 972.396 0.322603 -5.21303 0
M  V30 10208 H 974.09 -0.0933823 -2.99254 0
M  V30 10209 H 971.636 -0.0463526 -1.43925 0
M  V30 10210 H 973.589 2.28041 -3.54366 0
M  V30 10211 H 972.313 2.31727 -2.30153 0
M  V30 10212 H 970.972 0.633966 -3.61077 0
M  V30 10213 H 970.62 3.0832 -3.97426 0
M  V30 10214 H 970.32 2.15662 -5.46593 0
M  V30 10215 H 971.844 3.06994 -5.27814 0
M  V30 10216 H 973.258 0.832942 -5.67217 0
M  V30 10217 H 971.655 0.112843 -5.99994 0
M  V30 10218 H 972.725 -0.643954 -4.80605 0
M  V30 10219 N 974.068 1.57479 -0.061844 0
M  V30 10220 C 974.978 2.15645 0.923826 0
M  V30 10221 C 975.994 1.117 1.33413 0
M  V30 10222 O 977.17 1.4392 1.40887 0
M  V30 10223 C 974.235 2.69857 2.17665 0
M  V30 10224 C 973.296 3.88638 1.8237 0
M  V30 10225 C 972.529 4.40256 3.01679 0
M  V30 10226 O 972.752 3.90908 4.15388 0
M  V30 10227 O 971.686 5.31713 2.82073 0
M  V30 10228 H 975.512 3.0021 0.459094 0
M  V30 10229 H 973.097 1.48534 0.160665 0
M  V30 10230 H 974.979 3.04647 2.9115 0
M  V30 10231 H 973.654 1.88357 2.63255 0
M  V30 10232 H 972.561 3.58719 1.06167 0
M  V30 10233 H 973.894 4.71401 1.4157 0
M  V30 10234 N 975.546 -0.211634 1.56173 0
M  V30 10235 C 976.456 -1.2831 1.96402 0
M  V30 10236 C 977.472 -1.50731 0.869254 0
M  V30 10237 O 978.648 -1.63669 1.17365 0
M  V30 10238 C 975.713 -2.61084 2.28114 0
M  V30 10239 C 974.774 -2.46879 3.51211 0
M  V30 10240 C 974.007 -3.73321 3.81401 0
M  V30 10241 O 974.23 -4.76773 3.13119 0
M  V30 10242 O 973.164 -3.69839 4.74871 0
M  V30 10243 H 976.99 -0.971733 2.87734 0
M  V30 10244 H 974.575 -0.415305 1.43512 0
M  V30 10245 H 976.457 -3.39481 2.49661 0
M  V30 10246 H 975.132 -2.91881 1.39954 0
M  V30 10247 H 974.039 -1.66648 3.34932 0
M  V30 10248 H 975.372 -2.21018 4.39786 0
M  V30 10249 N 977.024 -1.50153 -0.478725 0
M  V30 10250 C 977.987 -1.67916 -1.56003 0
M  V30 10251 C 978.987 -0.550111 -1.51097 0
M  V30 10252 O 980.177 -0.817001 -1.53853 0
M  V30 10253 C 977.309 -1.6973 -2.95643 0
M  V30 10254 H 978.502 -2.6438 -1.41573 0
M  V30 10255 H 976.055 -1.39519 -0.704565 0
M  V30 10256 H 976.79 -0.749306 -3.15525 0
M  V30 10257 H 976.575 -2.51745 -3.00611 0
M  V30 10258 H 978.065 -1.85453 -3.74162 0
M  V30 10259 N 978.502 0.731368 -1.39602 0
M  V30 10260 C 979.913 1.30981 -1.33045 0
M  V30 10261 C 980.264 1.962 0.00349918 0
M  V30 10262 O 979.389 1.96539 0.905615 0
M  V30 10263 C 979.984 2.3817 -2.40958 0
M  V30 10264 C 978.543 2.91678 -2.3791 0
M  V30 10265 C 977.69 1.65286 -2.22656 0
M  V30 10266 H 980.641 0.528615 -1.49637 0
M  V30 10267 H 980.662 3.18645 -2.07955 0
M  V30 10268 H 980.174 1.90673 -3.38032 0
M  V30 10269 H 978.275 3.43446 -1.44485 0
M  V30 10270 H 978.388 3.44545 -3.32904 0
M  V30 10271 H 976.752 1.89759 -1.69893 0
M  V30 10272 H 977.535 1.19836 -3.21705 0
M  V30 10273 N 979.98 1.24838 0.961938 0
M  V30 10274 C 981.391 1.08369 1.5203 0
M  V30 10275 C 981.742 -0.343005 1.93178 0
M  V30 10276 O 980.867 -1.2321 1.779 0
M  V30 10277 C 981.462 1.96102 2.76278 0
M  V30 10278 C 980.021 1.8384 3.28451 0
M  V30 10279 C 979.168 1.9069 2.01327 0
M  V30 10280 H 982.119 1.38231 0.779613 0
M  V30 10281 H 982.14 1.4967 3.49827 0
M  V30 10282 H 981.652 2.99931 2.46298 0
M  V30 10283 H 979.753 0.828653 3.63269 0
M  V30 10284 H 979.866 2.68251 3.96961 0
M  V30 10285 H 978.23 1.34488 2.16299 0
M  V30 10286 H 979.013 2.96111 1.73705 0
M  V30 10287 N 981.458 -1.16348 1.06306 0
M  V30 10288 C 982.686 -1.90782 0.800614 0
M  V30 10289 C 983.101 -1.77439 -0.645033 0
M  V30 10290 O 982.458 -1.11912 -1.4416 0
M  V30 10291 C 982.509 -3.41484 1.18621 0
M  V30 10292 O 982.23 -3.54428 2.57512 0
M  V30 10293 C 983.731 -4.32968 0.951525 0
M  V30 10294 H 980.951 -0.604977 0.290247 0
M  V30 10295 H 983.495 -1.47476 1.41672 0
M  V30 10296 H 981.65 -3.82493 0.614633 0
M  V30 10297 H 982.064 -4.4788 2.72954 0
M  V30 10298 H 983.538 -5.37169 1.27095 0
M  V30 10299 H 984.015 -4.39055 -0.112734 0
M  V30 10300 H 984.621 -3.97687 1.50749 0
M  V30 10301 N 982.937 -0.845659 -1.3299 0
M  V30 10302 C 983.885 -0.272412 -2.30999 0
M  V30 10303 C 984.879 0.599311 -1.58444 0
M  V30 10304 O 986.085 0.488117 -1.73255 0
M  V30 10305 H 982.46 -0.0693751 -0.748793 0
M  V30 10306 H 984.431 -1.11343 -2.76849 0
M  V30 10307 C 983.18 0.532019 -3.43606 0
M  V30 10308 H 982.503 -0.129455 -3.9959 0
M  V30 10309 H 983.943 0.898853 -4.14363 0
M  V30 10310 C 982.402 1.71364 -2.90062 0
M  V30 10311 O 982.932 2.81252 -2.8681 0
M  V30 10312 N 981.138 1.53775 -2.4658 0
M  V30 10313 H 980.685 0.643836 -2.49424 0
M  V30 10314 H 980.643 2.32982 -2.11108 0
M  V30 10315 N 984.415 1.45619 -0.602734 0
M  V30 10316 C 985.826 1.85814 -0.181636 0
M  V30 10317 C 986.177 1.5037 1.26029 0
M  V30 10318 O 985.302 0.928068 1.95489 0
M  V30 10319 C 985.897 3.37258 -0.322866 0
M  V30 10320 C 984.456 3.76375 0.043504 0
M  V30 10321 C 983.603 2.69585 -0.649561 0
M  V30 10322 H 986.554 1.36489 -0.809721 0
M  V30 10323 H 986.575 3.77874 0.446279 0
M  V30 10324 H 986.087 3.63024 -1.37241 0
M  V30 10325 H 984.188 3.56226 1.09241 0
M  V30 10326 H 984.301 4.77843 -0.346765 0
M  V30 10327 H 982.665 2.54549 -0.087706 0
M  V30 10328 H 983.448 2.98188 -1.70115 0
M  V30 10329 N 985.893 0.34162 1.53853 0
M  V30 10330 C 987.123 -0.256557 2.05001 0
M  V30 10331 C 987.531 -1.44916 1.21639 0
M  V30 10332 O 986.874 -1.8207 0.244138 0
M  V30 10333 C 986.936 -0.737109 3.51862 0
M  V30 10334 C 986.6 0.335584 4.55766 0
M  V30 10335 C 987.597 1.17765 5.06387 0
M  V30 10336 C 985.282 0.488958 4.99914 0
M  V30 10337 C 987.276 2.15865 5.99734 0
M  V30 10338 C 984.963 1.47336 5.93073 0
M  V30 10339 C 985.961 2.30666 6.4287 0
M  V30 10340 O 985.649 3.2743 7.34197 0
M  V30 10341 H 985.381 -0.0536867 0.673865 0
M  V30 10342 H 987.935 0.49123 1.99439 0
M  V30 10343 H 986.165 -1.53611 3.54881 0
M  V30 10344 H 987.854 -1.25562 3.85991 0
M  V30 10345 H 988.62 1.07023 4.73044 0
M  V30 10346 H 984.499 -0.149807 4.60757 0
M  V30 10347 H 988.043 2.80945 6.38526 0
M  V30 10348 H 983.94 1.58134 6.25831 0
M  V30 10349 H 984.708 3.22879 7.52125 0
M  V30 10350 N 987.371 -1.57444 0.0701946 0
M  V30 10351 C 988.319 -2.13834 -0.915302 0
M  V30 10352 C 989.313 -1.07483 -1.30934 0
M  V30 10353 O 990.519 -1.25865 -1.28678 0
M  V30 10354 H 986.894 -0.683716 -0.313108 0
M  V30 10355 H 988.865 -2.95503 -0.414758 0
M  V30 10356 C 987.614 -2.71355 -2.17398 0
M  V30 10357 H 986.937 -3.52861 -1.87961 0
M  V30 10358 H 988.377 -3.1441 -2.84469 0
M  V30 10359 C 986.836 -1.66038 -2.93143 0
M  V30 10360 O 987.366 -1.08443 -3.86786 0
M  V30 10361 N 985.572 -1.3711 -2.56221 0
M  V30 10362 H 985.119 -1.84135 -1.80145 0
M  V30 10363 H 985.077 -0.66877 -3.07205 0
M  V30 10364 N 988.849 0.203349 -1.56283 0
M  V30 10365 C 990.077 0.941426 -1.84241 0
M  V30 10366 C 990.492 1.77197 -0.651658 0
M  V30 10367 O 989.849 1.78506 0.379713 0
M  V30 10368 C 989.9 1.84429 -3.10915 0
M  V30 10369 O 989.621 1.04729 -4.25398 0
M  V30 10370 C 991.122 2.69474 -3.51993 0
M  V30 10371 H 988.342 0.27507 -0.612027 0
M  V30 10372 H 990.886 0.213088 -2.03387 0
M  V30 10373 H 989.041 2.52635 -2.93691 0
M  V30 10374 H 989.455 1.66179 -4.97478 0
M  V30 10375 H 990.929 3.28495 -4.43616 0
M  V30 10376 H 991.406 3.42775 -2.74594 0
M  V30 10377 H 992.012 2.06652 -3.71719 0
M  V30 10378 N 990.327 1.50405 0.470755 0
M  V30 10379 C 991.738 1.54266 1.05162 0
M  V30 10380 C 992.089 0.346359 1.93119 0
M  V30 10381 O 991.214 -0.540699 2.09536 0
M  V30 10382 C 991.809 2.7956 1.91394 0
M  V30 10383 C 990.368 2.86101 2.44588 0
M  V30 10384 C 989.515 2.48557 1.22941 0
M  V30 10385 H 992.466 1.56665 0.253359 0
M  V30 10386 H 992.487 2.61434 2.76464 0
M  V30 10387 H 991.999 3.66611 1.27351 0
M  V30 10388 H 990.1 2.03403 3.12183 0
M  V30 10389 H 990.213 3.88999 2.79672 0
M  V30 10390 H 988.577 2.01003 1.56429 0
M  V30 10391 H 989.36 3.37916 0.605598 0
M  V30 10392 N 991.805 -0.723954 1.39988 0
M  V30 10393 C 993.033 -1.51313 1.4111 0
M  V30 10394 C 993.448 -1.88798 0.00853333 0
M  V30 10395 O 992.805 -1.54868 -0.965516 0
M  V30 10396 C 992.856 -2.79375 2.29416 0
M  V30 10397 O 992.577 -2.43478 3.64211 0
M  V30 10398 C 994.078 -3.7333 2.3904 0
M  V30 10399 H 991.298 -0.46724 0.481589 0
M  V30 10400 H 993.842 -0.893694 1.83938 0
M  V30 10401 H 991.997 -3.37624 1.89971 0
M  V30 10402 H 992.411 -3.25821 4.11024 0
M  V30 10403 H 993.885 -4.60051 3.05053 0
M  V30 10404 H 994.362 -4.15854 1.41289 0
M  V30 10405 H 994.968 -3.20996 2.79001 0
M  V30 10406 N 993.283 -1.25346 -0.955304 0
M  V30 10407 C 994.53 -1.10055 -1.69983 0
M  V30 10408 C 994.858 0.358586 -1.91166 0
M  V30 10409 O 994.113 1.28071 -1.47974 0
M  V30 10410 C 994.412 -1.7993 -3.08804 0
M  V30 10411 C 994.078 -3.29851 -3.07424 0
M  V30 10412 C 992.74 -3.7075 -3.06754 0
M  V30 10413 C 995.092 -4.25636 -3.00805 0
M  V30 10414 C 992.42 -5.05847 -2.97214 0
M  V30 10415 C 994.772 -5.60756 -2.92806 0
M  V30 10416 C 993.436 -6.00984 -2.90472 0
M  V30 10417 H 992.706 -0.402718 -0.622012 0
M  V30 10418 H 995.353 -1.5561 -1.11614 0
M  V30 10419 H 993.658 -1.26803 -3.70713 0
M  V30 10420 H 995.355 -1.65551 -3.65231 0
M  V30 10421 H 991.945 -2.97308 -3.08716 0
M  V30 10422 H 996.129 -3.9503 -3.00441 0
M  V30 10423 H 991.385 -5.36196 -2.93775 0
M  V30 10424 H 995.559 -6.34671 -2.86645 0
M  V30 10425 H 993.186 -7.05626 -2.82835 0
M  V30 10426 N 994.761 1.15782 -1.06922 0
M  V30 10427 C 995.724 2.18578 -0.689654 0
M  V30 10428 C 996.724 1.58553 0.267872 0
M  V30 10429 O 997.914 1.7413 0.0494097 0
M  V30 10430 C 995.046 3.40896 -0.0157919 0
M  V30 10431 H 996.239 2.53672 -1.59971 0
M  V30 10432 H 993.792 1.30168 -0.865214 0
M  V30 10433 H 994.527 3.11367 0.906712 0
M  V30 10434 H 994.312 3.85721 -0.704415 0
M  V30 10435 H 995.802 4.16937 0.235266 0
M  V30 10436 N 996.239 0.8527 1.3254 0
M  V30 10437 C 997.488 0.45136 1.96585 0
M  V30 10438 C 997.801 -0.997773 1.68237 0
M  V30 10439 O 999.007 -1.50445 2.26006 0
M  V30 10440 C 997.463 0.75619 3.51866 0
M  V30 10441 C 997.071 2.22092 3.89075 0
M  V30 10442 C 998.815 0.422478 4.22392 0
M  V30 10443 C 996.722 2.46908 5.37392 0
M  V30 10444 H 995.652 0.165052 0.735713 0
M  V30 10445 H 998.303 1.04321 1.50962 0
M  V30 10446 H 996.685 0.0937988 3.95889 0
M  V30 10447 H 997.859 2.92494 3.56067 0
M  V30 10448 H 996.174 2.51896 3.31568 0
M  V30 10449 H 998.771 0.58533 5.31487 0
M  V30 10450 H 999.114 -0.635737 4.11417 0
M  V30 10451 H 999.647 1.04068 3.83946 0
M  V30 10452 H 996.386 3.51346 5.53386 0
M  V30 10453 H 995.906 1.81082 5.71812 0
M  V30 10454 H 997.585 2.30758 6.0445 0
M  V30 10455 N 997.718 -1.45297 0.610449 0
M  V30 10456 C 998.665 -2.30553 -0.106718 0
M  V30 10457 C 999.635 -1.42272 -0.85719 0
M  V30 10458 O 1000.82 -1.71199 -0.842357 0
M  V30 10459 C 997.96 -3.27226 -1.09623 0
M  V30 10460 C 997.073 -4.3061 -0.346329 0
M  V30 10461 C 996.208 -5.14389 -1.32581 0
M  V30 10462 C 995.247 -6.09497 -0.563892 0
M  V30 10463 N 994.384 -6.86047 -1.4928 0
M  V30 10464 H 999.224 -2.91344 0.626296 0
M  V30 10465 H 996.761 -1.43563 0.32065 0
M  V30 10466 H 998.719 -3.81744 -1.68308 0
M  V30 10467 H 997.349 -2.68182 -1.79662 0
M  V30 10468 H 996.401 -3.7873 0.356084 0
M  V30 10469 H 997.713 -4.98183 0.248026 0
M  V30 10470 H 996.867 -5.73321 -1.98464 0
M  V30 10471 H 995.606 -4.4684 -1.9541 0
M  V30 10472 H 994.611 -5.49693 0.108551 0
M  V30 10473 H 995.836 -6.79074 0.0593872 0
M  V30 10474 H 993.782 -6.21185 -2.10868 0
M  V30 10475 H 993.699 -7.49983 -0.951953 0
M  V30 10476 H 994.967 -7.49518 -2.14112 0
M  V30 10477 N 999.196 -0.349774 -1.5367 0
M  V30 10478 C 1000.14 0.504121 -2.25227 0
M  V30 10479 C 1001.11 1.09048 -1.2529 0
M  V30 10480 O 1002.3 1.12594 -1.54037 0
M  V30 10481 C 999.438 1.64601 -3.03316 0
M  V30 10482 C 998.551 1.08635 -4.18118 0
M  V30 10483 C 997.686 2.19605 -4.83681 0
M  V30 10484 C 996.725 1.61023 -5.90541 0
M  V30 10485 N 995.862 2.6576 -6.49858 0
M  V30 10486 H 1000.7 -0.112621 -2.97787 0
M  V30 10487 H 998.239 -0.0673503 -1.46946 0
M  V30 10488 H 1000.2 2.31836 -3.46854 0
M  V30 10489 H 998.827 2.23364 -2.33041 0
M  V30 10490 H 997.879 0.304748 -3.79177 0
M  V30 10491 H 999.191 0.617911 -4.94958 0
M  V30 10492 H 998.345 2.94693 -5.30322 0
M  V30 10493 H 997.084 2.69795 -4.06278 0
M  V30 10494 H 996.089 0.844428 -5.43277 0
M  V30 10495 H 997.314 1.11677 -6.69855 0
M  V30 10496 H 995.26 3.15193 -5.75317 0
M  V30 10497 H 995.177 2.23557 -7.2219 0
M  V30 10498 H 996.445 3.40598 -7.01151 0
M  V30 10499 N 1000.67 1.57404 -0.0785433 0
M  V30 10500 C 1001.62 2.13104 0.88631 0
M  V30 10501 C 1002.59 1.04527 1.29086 0
M  V30 10502 O 1003.78 1.32226 1.37553 0
M  V30 10503 C 1000.92 2.70252 2.14611 0
M  V30 10504 C 1000.03 3.93007 1.79358 0
M  V30 10505 C 999.164 4.38376 3 0
M  V30 10506 C 998.203 5.53761 2.60796 0
M  V30 10507 N 997.34 5.94058 3.74219 0
M  V30 10508 H 1002.18 2.95243 0.404452 0
M  V30 10509 H 999.717 1.45894 0.187982 0
M  V30 10510 H 1001.67 3.01497 2.88367 0
M  V30 10511 H 1000.3 1.90868 2.60326 0
M  V30 10512 H 999.357 3.68181 0.956384 0
M  V30 10513 H 1000.67 4.76795 1.4652 0
M  V30 10514 H 999.823 4.71317 3.82027 0
M  V30 10515 H 998.562 3.53455 3.36037 0
M  V30 10516 H 997.567 5.20464 1.77192 0
M  V30 10517 H 998.792 6.40419 2.25922 0
M  V30 10518 H 996.738 5.12085 4.10005 0
M  V30 10519 H 996.655 6.72602 3.45171 0
M  V30 10520 H 997.923 6.31624 4.56805 0
M  V30 10521 N 1002.15 -0.195058 1.56388 0
M  V30 10522 C 1003.43 -0.941335 1.71459 0
M  V30 10523 C 1003.81 -2.01375 0.633336 0
M  V30 10524 O 1003.16 -2.25715 -0.35567 0
M  V30 10525 C 1003.37 -1.52772 3.13786 0
M  V30 10526 C 1004.71 -2.00983 3.7402 0
M  V30 10527 O 1005.74 -1.62614 3.16915 0
M  V30 10528 O 1004.6 -2.71586 4.7424 0
M  V30 10529 H 1001.69 -0.441451 0.699321 0
M  V30 10530 H 1004.24 -0.184752 1.68691 0
M  V30 10531 H 1003.01 -0.754699 3.83953 0
M  V30 10532 H 1002.63 -2.34914 3.20782 0
M  V30 10533 N 1003.63 -1.50653 -0.462772 0
M  V30 10534 C 1004.58 -1.70122 -1.55971 0
M  V30 10535 C 1005.55 -0.542581 -1.56988 0
M  V30 10536 O 1006.73 -0.774114 -1.74391 0
M  V30 10537 C 1003.87 -1.80899 -2.93887 0
M  V30 10538 C 1002.98 -3.08318 -3.02595 0
M  V30 10539 C 1002.12 -3.09841 -4.31477 0
M  V30 10540 C 1001.16 -4.3168 -4.33957 0
M  V30 10541 N 1000.3 -4.30894 -5.54323 0
M  V30 10542 H 1005.14 -2.63768 -1.38674 0
M  V30 10543 H 1002.67 -1.30746 -0.674091 0
M  V30 10544 H 1004.63 -1.85128 -3.73876 0
M  V30 10545 H 1003.26 -0.906854 -3.098 0
M  V30 10546 H 1002.31 -3.13521 -2.15427 0
M  V30 10547 H 1003.62 -3.98282 -3.00288 0
M  V30 10548 H 1002.78 -3.12845 -5.1982 0
M  V30 10549 H 1001.52 -2.17722 -4.36404 0
M  V30 10550 H 1000.52 -4.28879 -3.4401 0
M  V30 10551 H 1001.75 -5.25035 -4.30715 0
M  V30 10552 H 999.694 -3.41633 -5.6002 0
M  V30 10553 H 999.611 -5.14636 -5.53792 0
M  V30 10554 H 1000.88 -4.38056 -6.44769 0
M  V30 10555 N 1005.11 0.71652 -1.4037 0
M  V30 10556 C 1006.06 1.85194 -1.40734 0
M  V30 10557 C 1007.05 1.66934 -0.287969 0
M  V30 10558 O 1008.26 1.74051 -0.458957 0
M  V30 10559 H 1004.63 0.609922 -0.439885 0
M  V30 10560 H 1006.6 1.82003 -2.36468 0
M  V30 10561 C 1005.35 3.23048 -1.28589 0
M  V30 10562 H 1004.67 3.37704 -2.13999 0
M  V30 10563 H 1006.11 4.02633 -1.32902 0
M  V30 10564 C 1004.57 3.369 0.00396512 0
M  V30 10565 O 1005.1 3.89881 0.967243 0
M  V30 10566 N 1003.31 2.90508 0.0731565 0
M  V30 10567 H 1002.86 2.4758 -0.711454 0
M  V30 10568 H 1002.81 3.00155 0.935652 0
M  V30 10569 N 1006.59 1.25851 0.948643 0
M  V30 10570 C 1007.53 1.06759 2.04625 0
M  V30 10571 C 1008.5 -0.0251144 1.66081 0
M  V30 10572 O 1009.69 0.133221 1.90334 0
M  V30 10573 C 1006.83 0.698724 3.37952 0
M  V30 10574 C 1005.94 1.8669 3.89578 0
M  V30 10575 C 1005.08 1.44184 5.11258 0
M  V30 10576 C 1004.12 2.57878 5.55126 0
M  V30 10577 N 1003.25 2.16106 6.68014 0
M  V30 10578 H 1008.09 2.00691 2.20289 0
M  V30 10579 H 1005.63 0.999327 1.07944 0
M  V30 10580 H 1007.59 0.465788 4.14592 0
M  V30 10581 H 1006.22 -0.203618 3.22157 0
M  V30 10582 H 1005.27 2.21298 3.09405 0
M  V30 10583 H 1006.58 2.72051 4.18079 0
M  V30 10584 H 1005.74 1.16891 5.95333 0
M  V30 10585 H 1004.47 0.559035 4.84485 0
M  V30 10586 H 1003.48 2.85909 4.69612 0
M  V30 10587 H 1004.7 3.46747 5.83904 0
M  V30 10588 H 1002.65 1.3025 6.42939 0
M  V30 10589 H 1002.57 2.95012 6.96063 0
M  V30 10590 H 1003.84 1.92005 7.55483 0
M  V30 10591 N 1008.06 -1.15214 1.07534 0
M  V30 10592 C 1009.31 -1.86548 0.810651 0
M  V30 10593 C 1009.67 -1.80863 -0.656236 0
M  V30 10594 O 1008.96 -1.22216 -1.47559 0
M  V30 10595 C 1009.15 -3.34623 1.25547 0
M  V30 10596 C 1008.98 -3.54725 2.76406 0
M  V30 10597 C 1007.75 -3.70089 3.44038 0
M  V30 10598 C 1009.95 -3.52392 3.74599 0
M  V30 10599 N 1007.93 -3.78262 4.8352 0
M  V30 10600 C 1009.3 -3.66701 4.9993 0
M  V30 10601 C 1011.36 -3.35677 3.6773 0
M  V30 10602 C 1010.06 -3.66023 6.19209 0
M  V30 10603 C 1012.09 -3.36298 4.86475 0
M  V30 10604 C 1011.45 -3.51139 6.1064 0
M  V30 10605 H 1007.55 -0.699691 0.349223 0
M  V30 10606 H 1010.13 -1.3815 1.37196 0
M  V30 10607 H 1008.3 -3.81633 0.721837 0
M  V30 10608 H 1010.03 -3.93677 0.938126 0
M  V30 10609 H 1006.79 -3.70943 2.94446 0
M  V30 10610 H 1007.21 -3.86087 5.56117 0
M  V30 10611 H 1011.86 -3.2312 2.72678 0
M  V30 10612 H 1009.57 -3.77358 7.14581 0
M  V30 10613 H 1013.16 -3.2459 4.82838 0
M  V30 10614 H 1012.04 -3.51555 7.00984 0
M  V30 10615 N 1009.54 -0.859717 -1.32086 0
M  V30 10616 C 1010.96 -0.55025 -1.49815 0
M  V30 10617 C 1011.16 0.917966 -1.79376 0
M  V30 10618 O 1010.21 1.70073 -1.86632 0
M  V30 10619 C 1011.53 -1.44161 -2.6389 0
M  V30 10620 C 1013.08 -1.44257 -2.77775 0
M  V30 10621 C 1013.55 -2.31926 -3.94936 0
M  V30 10622 N 1015.04 -2.2975 -4.02206 0
M  V30 10623 C 1015.78 -2.9431 -4.92107 0
M  V30 10624 N 1015.27 -3.68001 -5.86981 0
M  V30 10625 N 1017.07 -2.83671 -4.8527 0
M  V30 10626 H 1009.22 -1.80987 -1.11164 0
M  V30 10627 H 1011.48 -0.773313 -0.548353 0
M  V30 10628 H 1011.19 -2.48588 -2.4879 0
M  V30 10629 H 1011.06 -1.13268 -3.59792 0
M  V30 10630 H 1013.45 -0.405923 -2.92295 0
M  V30 10631 H 1013.53 -1.79169 -1.82571 0
M  V30 10632 H 1013.17 -3.35661 -3.81174 0
M  V30 10633 H 1013.1 -1.94344 -4.89426 0
M  V30 10634 H 1015.59 -1.76177 -3.3432 0
M  V30 10635 H 1015.91 -4.14417 -6.52287 0
M  V30 10636 H 1014.25 -3.72109 -5.86992 0
M  V30 10637 H 1017.44 -2.25647 -4.10123 0
M  V30 10638 H 1017.61 -3.34267 -5.5513 0
M  V30 10639 N 1011.02 1.44971 -0.618145 0
M  V30 10640 C 1011.95 2.27748 0.143561 0
M  V30 10641 C 1012.93 1.37768 0.863642 0
M  V30 10642 O 1014.12 1.67203 0.870373 0
M  V30 10643 C 1011.24 3.16394 1.20883 0
M  V30 10644 C 1010.29 4.22389 0.590724 0
M  V30 10645 S 1011.12 5.32021 -0.609406 0
M  V30 10646 C 1012.28 6.24235 0.456199 0
M  V30 10647 H 1012.51 2.92003 -0.558699 0
M  V30 10648 H 1010.04 1.48968 -0.40595 0
M  V30 10649 H 1012 3.6802 1.81855 0
M  V30 10650 H 1010.66 2.51384 1.88322 0
M  V30 10651 H 1009.86 4.84379 1.3926 0
M  V30 10652 H 1009.46 3.73958 0.055917 0
M  V30 10653 H 1011.75 6.64269 1.33238 0
M  V30 10654 H 1012.69 7.07985 -0.127794 0
M  V30 10655 H 1013.1 5.59137 0.776269 0
M  V30 10656 N 1012.5 0.357919 1.53482 0
M  V30 10657 C 1013.43 -0.484231 2.28424 0
M  V30 10658 C 1014.41 -1.09046 1.30548 0
M  V30 10659 O 1015.59 -1.10916 1.59409 0
M  V30 10660 C 1012.72 -1.62803 3.06778 0
M  V30 10661 C 1011.68 -1.14943 4.12277 0
M  V30 10662 C 1011 -2.38287 4.78669 0
M  V30 10663 C 1012.3 -0.239627 5.2175 0
M  V30 10664 H 1014 0.140979 2.99068 0
M  V30 10665 H 1011.54 0.069244 1.43833 0
M  V30 10666 H 1013.5 -2.22374 3.57949 0
M  V30 10667 H 1012.22 -2.28036 2.3381 0
M  V30 10668 H 1010.88 -0.576442 3.6204 0
M  V30 10669 H 1010.53 -3.01959 4.02281 0
M  V30 10670 H 1010.23 -2.06939 5.49955 0
M  V30 10671 H 1011.75 -2.98558 5.32631 0
M  V30 10672 H 1013.17 -0.742597 5.6847 0
M  V30 10673 H 1011.56 -0.0173747 6.00097 0
M  V30 10674 H 1012.63 0.720333 4.7952 0
M  V30 10675 N 1013.98 -1.5736 0.0868897 0
M  V30 10676 C 1015.23 -1.93229 -0.578387 0
M  V30 10677 C 1015.54 -0.970127 -1.69847 0
M  V30 10678 O 1016.74 -1.22222 -2.42434 0
M  V30 10679 C 1015.2 -3.43307 -1.0802 0
M  V30 10680 C 1014.81 -4.47999 0.00968135 0
M  V30 10681 C 1016.55 -3.88151 -1.71868 0
M  V30 10682 C 1014.46 -5.89223 -0.507029 0
M  V30 10683 H 1013.39 -0.721245 -0.219823 0
M  V30 10684 H 1016.04 -1.82787 0.161566 0
M  V30 10685 H 1014.42 -3.48873 -1.87359 0
M  V30 10686 H 1015.6 -4.54067 0.784865 0
M  V30 10687 H 1013.91 -4.12714 0.552845 0
M  V30 10688 H 1016.51 -4.91056 -2.11585 0
M  V30 10689 H 1016.85 -3.26347 -2.58464 0
M  V30 10690 H 1017.38 -3.85252 -0.991259 0
M  V30 10691 H 1014.12 -6.54708 0.322121 0
M  V30 10692 H 1013.64 -5.86643 -1.2494 0
M  V30 10693 H 1015.32 -6.39556 -0.978628 0
M  V30 10694 N 1015.45 0.186762 -1.56489 0
M  V30 10695 C 1016.73 0.932229 -1.71956 0
M  V30 10696 C 1017.11 2.01037 -0.644006 0
M  V30 10697 O 1016.46 2.259 0.343694 0
M  V30 10698 C 1016.67 1.51106 -3.14592 0
M  V30 10699 C 1018.02 1.98997 -3.75081 0
M  V30 10700 O 1019.04 1.60931 -3.17773 0
M  V30 10701 O 1017.9 2.69067 -4.75673 0
M  V30 10702 H 1014.99 0.437736 -0.701652 0
M  V30 10703 H 1017.54 0.175803 -1.68787 0
M  V30 10704 H 1016.31 0.734327 -3.84348 0
M  V30 10705 H 1015.94 2.33209 -3.22024 0
M  V30 10706 N 1016.93 1.50896 0.454776 0
M  V30 10707 C 1018.18 1.62699 1.20562 0
M  V30 10708 C 1018.51 0.334943 1.91594 0
M  V30 10709 O 1017.76 -0.680106 1.83502 0
M  V30 10710 C 1018.06 2.76839 2.26042 0
M  V30 10711 C 1017.73 4.16745 1.72147 0
M  V30 10712 C 1016.39 4.54809 1.5717 0
M  V30 10713 C 1018.74 5.04118 1.32341 0
M  V30 10714 C 1016.07 5.7797 1.00835 0
M  V30 10715 C 1018.42 6.27842 0.774419 0
M  V30 10716 C 1017.09 6.64694 0.611415 0
M  V30 10717 H 1016.36 0.595358 0.441169 0
M  V30 10718 H 1019 1.84879 0.499202 0
M  V30 10719 H 1017.31 2.48812 3.02655 0
M  V30 10720 H 1019 2.83173 2.83926 0
M  V30 10721 H 1015.59 3.86725 1.84775 0
M  V30 10722 H 1019.78 4.75331 1.42739 0
M  V30 10723 H 1015.03 6.05183 0.869669 0
M  V30 10724 H 1019.21 6.94896 0.457389 0
M  V30 10725 H 1016.84 7.60004 0.172751 0
M  V30 10726 N 1018.41 -0.709066 1.40748 0
M  V30 10727 C 1019.83 -1.01797 1.22921 0
M  V30 10728 C 1020.03 -2.01205 0.109011 0
M  V30 10729 O 1019.08 -2.46854 -0.530987 0
M  V30 10730 C 1020.4 -1.55546 2.57344 0
M  V30 10731 C 1021.94 -1.67498 2.64412 0
M  V30 10732 C 1022.42 -2.24652 3.99119 0
M  V30 10733 N 1023.91 -2.3203 4.00895 0
M  V30 10734 C 1024.64 -2.7725 5.01917 0
M  V30 10735 N 1024.14 -3.22174 6.13332 0
M  V30 10736 N 1025.93 -2.76692 4.89283 0
M  V30 10737 H 1018.08 -0.0502704 2.12341 0
M  V30 10738 H 1020.35 -0.0848933 0.944191 0
M  V30 10739 H 1020.05 -0.899631 3.39999 0
M  V30 10740 H 1019.93 -2.53971 2.78888 0
M  V30 10741 H 1022.31 -2.32196 1.82123 0
M  V30 10742 H 1022.4 -0.676553 2.46691 0
M  V30 10743 H 1022.04 -1.60573 4.81849 0
M  V30 10744 H 1021.97 -3.25221 4.14173 0
M  V30 10745 H 1024.46 -2.00309 3.20444 0
M  V30 10746 H 1024.77 -3.55265 6.86299 0
M  V30 10747 H 1023.12 -3.20116 6.16888 0
M  V30 10748 H 1026.31 -2.40936 4.01332 0
M  V30 10749 H 1026.48 -3.11617 5.68154 0
M  V30 10750 N 1019.89 -1.26353 -0.941956 0
M  V30 10751 C 1020.8 -1.09618 -2.07415 0
M  V30 10752 C 1021.82 -0.0298963 -1.73974 0
M  V30 10753 O 1022.99 -0.233466 -2.00042 0
M  V30 10754 C 1020.06 -0.73013 -3.38925 0
M  V30 10755 C 1019.12 -1.87574 -3.86153 0
M  V30 10756 C 1018.35 -1.52706 -5.11387 0
M  V30 10757 O 1018.57 -0.428438 -5.68789 0
M  V30 10758 O 1017.51 -2.36154 -5.53638 0
M  V30 10759 H 1021.33 -2.04598 -2.2444 0
M  V30 10760 H 1018.92 -1.05407 -1.05876 0
M  V30 10761 H 1020.8 -0.538684 -4.17943 0
M  V30 10762 H 1019.48 0.190282 -3.2314 0
M  V30 10763 H 1018.38 -2.12214 -3.08084 0
M  V30 10764 H 1019.72 -2.77585 -4.06457 0
M  V30 10765 N 1021.37 1.14642 -1.08144 0
M  V30 10766 C 1022.3 2.21775 -0.730609 0
M  V30 10767 C 1023.28 1.67683 0.285702 0
M  V30 10768 O 1024.46 1.93567 0.156667 0
M  V30 10769 C 1021.59 3.47033 -0.136242 0
M  V30 10770 C 1020.55 4.14134 -1.0806 0
M  V30 10771 C 1019.87 5.33563 -0.348585 0
M  V30 10772 C 1021.17 4.62978 -2.41761 0
M  V30 10773 H 1022.87 2.51378 -1.62633 0
M  V30 10774 H 1020.41 1.20825 -0.783411 0
M  V30 10775 H 1022.37 4.21226 0.121182 0
M  V30 10776 H 1021.09 3.16786 0.7946 0
M  V30 10777 H 1019.75 3.41892 -1.32308 0
M  V30 10778 H 1019.4 4.99575 0.585974 0
M  V30 10779 H 1019.1 5.79402 -0.978122 0
M  V30 10780 H 1020.62 6.10519 -0.0991508 0
M  V30 10781 H 1022.04 5.28659 -2.21795 0
M  V30 10782 H 1020.43 5.1951 -3.00383 0
M  V30 10783 H 1021.5 3.78189 -3.03482 0
M  V30 10784 N 1022.85 0.866709 1.31628 0
M  V30 10785 C 1023.79 0.309128 2.30537 0
M  V30 10786 C 1024.79 -0.574028 1.59378 0
M  V30 10787 O 1025.99 -0.460491 1.7401 0
M  V30 10788 H 1022.37 0.081279 0.747595 0
M  V30 10789 H 1024.34 1.15734 2.75042 0
M  V30 10790 C 1023.09 -0.477287 3.44409 0
M  V30 10791 H 1022.41 0.19301 3.99334 0
M  V30 10792 H 1023.85 -0.832818 4.1574 0
M  V30 10793 C 1022.31 -1.66727 2.92752 0
M  V30 10794 O 1022.84 -2.76654 2.91248 0
M  V30 10795 N 1021.05 -1.49833 2.48995 0
M  V30 10796 H 1020.59 -0.604073 2.50417 0
M  V30 10797 H 1020.55 -2.29594 2.14788 0
M  V30 10798 N 1024.32 -1.44642 0.625825 0
M  V30 10799 C 1025.27 -2.30653 -0.082259 0
M  V30 10800 C 1026.24 -1.43174 -0.842052 0
M  V30 10801 O 1027.43 -1.72082 -0.824151 0
M  V30 10802 C 1024.57 -3.2837 -1.06146 0
M  V30 10803 C 1023.68 -4.30953 -0.300638 0
M  V30 10804 C 1022.81 -5.15766 -1.27118 0
M  V30 10805 C 1021.85 -6.10061 -0.499215 0
M  V30 10806 N 1020.99 -6.87591 -1.41995 0
M  V30 10807 H 1025.83 -2.90664 0.657161 0
M  V30 10808 H 1023.37 -1.43215 0.335859 0
M  V30 10809 H 1025.32 -3.83507 -1.6425 0
M  V30 10810 H 1023.95 -2.70072 -1.76807 0
M  V30 10811 H 1023.01 -3.78331 0.396234 0
M  V30 10812 H 1024.32 -4.97892 0.300851 0
M  V30 10813 H 1023.47 -5.75394 -1.92372 0
M  V30 10814 H 1022.21 -4.48888 -1.9066 0
M  V30 10815 H 1021.22 -5.49547 0.166848 0
M  V30 10816 H 1022.44 -6.78973 0.131409 0
M  V30 10817 H 1020.39 -6.23387 -2.04267 0
M  V30 10818 H 1020.3 -7.5095 -0.872354 0
M  V30 10819 H 1021.57 -7.51746 -2.0615 0
M  V30 10820 N 1025.8 -0.366053 -1.5329 0
M  V30 10821 C 1027.05 0.223824 -2.01561 0
M  V30 10822 C 1027.38 1.48382 -1.25286 0
M  V30 10823 O 1026.66 1.91385 -0.34669 0
M  V30 10824 C 1026.94 0.5153 -3.56394 0
M  V30 10825 C 1026.79 -0.758357 -4.43361 0
M  V30 10826 C 1028.11 1.31568 -4.19974 0
M  V30 10827 H 1025.23 0.0798751 -0.732659 0
M  V30 10828 H 1027.87 -0.491038 -1.83545 0
M  V30 10829 H 1026.02 1.12429 -3.71876 0
M  V30 10830 H 1027.69 -1.39584 -4.39675 0
M  V30 10831 H 1025.94 -1.37862 -4.11311 0
M  V30 10832 H 1026.61 -0.509366 -5.49645 0
M  V30 10833 H 1029.08 0.800514 -4.08327 0
M  V30 10834 H 1027.96 1.48837 -5.28336 0
M  V30 10835 H 1028.22 2.32432 -3.76069 0
M  V30 10836 N 1027.28 1.57312 -0.0952337 0
M  V30 10837 C 1028.51 1.98697 0.57682 0
M  V30 10838 C 1028.92 0.974347 1.61716 0
M  V30 10839 O 1028.28 -0.036022 1.82464 0
M  V30 10840 C 1028.33 3.40133 1.2244 0
M  V30 10841 O 1028.05 4.37518 0.225678 0
M  V30 10842 C 1029.55 3.96522 1.98205 0
M  V30 10843 H 1026.77 0.65294 0.154629 0
M  V30 10844 H 1029.32 2.03754 -0.174562 0
M  V30 10845 H 1027.47 3.3609 1.92671 0
M  V30 10846 H 1027.89 5.199 0.693116 0
M  V30 10847 H 1029.36 4.97637 2.38875 0
M  V30 10848 H 1029.84 3.34347 2.84796 0
M  V30 10849 H 1030.44 4.04038 1.3279 0
M  V30 10850 N 1028.76 -0.17846 1.56586 0
M  V30 10851 C 1029.69 -1.24547 1.92408 0
M  V30 10852 C 1030.7 -1.40849 0.816421 0
M  V30 10853 O 1031.89 -1.40979 1.09486 0
M  V30 10854 C 1028.99 -2.61523 2.15544 0
M  V30 10855 C 1028.16 -2.66613 3.46751 0
M  V30 10856 C 1027.22 -3.84901 3.588 0
M  V30 10857 O 1026.25 -3.71231 4.31482 0
M  V30 10858 N 1027.45 -5.0106 2.9312 0
M  V30 10859 H 1030.22 -0.941275 2.84535 0
M  V30 10860 H 1027.78 -0.368275 1.57656 0
M  V30 10861 H 1029.77 -3.3911 2.20876 0
M  V30 10862 H 1028.34 -2.84362 1.29835 0
M  V30 10863 H 1027.56 -1.75174 3.5314 0
M  V30 10864 H 1028.85 -2.67018 4.33104 0
M  V30 10865 H 1028.25 -5.15067 2.33928 0
M  V30 10866 H 1026.8 -5.76535 3.04057 0
M  V30 10867 N 1030.24 -1.51135 -0.446768 0
M  V30 10868 C 1031.51 -1.5387 -1.20762 0
M  V30 10869 C 1031.89 -0.297446 -2.08994 0
M  V30 10870 O 1031.24 0.717975 -2.16927 0
M  V30 10871 C 1031.45 -2.84767 -2.01764 0
M  V30 10872 C 1032.8 -3.3636 -2.59128 0
M  V30 10873 O 1033.82 -2.86254 -2.11984 0
M  V30 10874 O 1032.68 -4.23765 -3.45088 0
M  V30 10875 H 1029.78 -0.618228 -0.549293 0
M  V30 10876 H 1032.32 -1.63442 -0.456605 0
M  V30 10877 H 1031.09 -3.6657 -1.36901 0
M  V30 10878 H 1030.72 -2.78313 -2.8395 0
M  V30 10879 N 1031.71 0.701592 -1.41122 0
M  V30 10880 C 1032.96 1.4616 -1.40155 0
M  V30 10881 C 1033.29 1.94498 -0.00861553 0
M  V30 10882 O 1032.54 1.69484 0.978452 0
M  V30 10883 C 1032.84 2.693 -2.34973 0
M  V30 10884 C 1032.51 2.39652 -3.81939 0
M  V30 10885 C 1031.17 2.31277 -4.21977 0
M  V30 10886 C 1033.52 2.15076 -4.74755 0
M  V30 10887 C 1030.85 1.96413 -5.52846 0
M  V30 10888 C 1033.2 1.81722 -6.05937 0
M  V30 10889 C 1031.87 1.71838 -6.45002 0
M  V30 10890 H 1031.14 0.534837 -0.512865 0
M  V30 10891 H 1033.78 0.802425 -1.73878 0
M  V30 10892 H 1032.09 3.40123 -1.94484 0
M  V30 10893 H 1033.79 3.27427 -2.31501 0
M  V30 10894 H 1030.38 2.47063 -3.50226 0
M  V30 10895 H 1034.56 2.20495 -4.4463 0
M  V30 10896 H 1029.82 1.87308 -5.82001 0
M  V30 10897 H 1033.99 1.61723 -6.77362 0
M  V30 10898 H 1031.62 1.44591 -7.46323 0
M  V30 10899 N 1033.19 1.2685 0.935242 0
M  V30 10900 C 1034.42 1.15538 1.71635 0
M  V30 10901 C 1034.83 -0.288698 1.8658 0
M  V30 10902 O 1034.19 -1.19721 1.37743 0
M  V30 10903 C 1034.24 1.8259 3.11999 0
M  V30 10904 O 1033.96 3.21355 2.97763 0
M  V30 10905 C 1035.46 1.77307 4.06297 0
M  V30 10906 H 1032.68 0.402055 0.537208 0
M  V30 10907 H 1035.23 1.67582 1.17203 0
M  V30 10908 H 1033.38 1.3447 3.63313 0
M  V30 10909 H 1033.8 3.54626 3.86446 0
M  V30 10910 H 1035.27 2.28851 5.02326 0
M  V30 10911 H 1035.75 0.740823 4.32907 0
M  V30 10912 H 1036.35 2.25007 3.60904 0
M  V30 10913 N 1034.67 -1.14067 1.0875 0
M  V30 10914 C 1035.58 -2.22871 0.732498 0
M  V30 10915 C 1036.6 -1.72008 -0.26253 0
M  V30 10916 O 1037.77 -2.01123 -0.105601 0
M  V30 10917 C 1034.84 -3.46371 0.150913 0
M  V30 10918 C 1033.9 -4.12158 1.201 0
M  V30 10919 C 1033.13 -5.29763 0.647075 0
M  V30 10920 O 1033.35 -5.67911 -0.532307 0
M  V30 10921 O 1032.29 -5.8542 1.3988 0
M  V30 10922 H 1036.11 -2.55596 1.64025 0
M  V30 10923 H 1033.7 -1.22065 0.861417 0
M  V30 10924 H 1035.58 -4.21055 -0.170442 0
M  V30 10925 H 1034.26 -3.15362 -0.729948 0
M  V30 10926 H 1033.16 -3.39332 1.57494 0
M  V30 10927 H 1034.5 -4.47282 2.05426 0
M  V30 10928 N 1036.15 -0.873678 -1.31166 0
M  V30 10929 C 1037.4 -0.482577 -1.95842 0
M  V30 10930 C 1037.71 0.970881 -1.69804 0
M  V30 10931 O 1038.92 1.4683 -2.28371 0
M  V30 10932 C 1037.37 -0.812074 -3.50619 0
M  V30 10933 C 1036.98 -2.28254 -3.85492 0
M  V30 10934 C 1038.72 -0.489624 -4.21667 0
M  V30 10935 C 1036.63 -2.55426 -5.33396 0
M  V30 10936 H 1035.56 -0.176736 -0.732994 0
M  V30 10937 H 1038.21 -1.06709 -1.49283 0
M  V30 10938 H 1036.59 -0.156769 -3.9569 0
M  V30 10939 H 1037.77 -2.98122 -3.51369 0
M  V30 10940 H 1036.08 -2.5714 -3.27518 0
M  V30 10941 H 1038.68 -0.669811 -5.30488 0
M  V30 10942 H 1039.02 0.570204 -4.12376 0
M  V30 10943 H 1039.56 -1.10163 -3.82242 0
M  V30 10944 H 1036.3 -3.60106 -5.47726 0
M  V30 10945 H 1035.82 -1.90156 -5.68859 0
M  V30 10946 H 1037.49 -2.40345 -6.00702 0
M  V30 10947 N 1037.63 1.44308 -0.633487 0
M  V30 10948 C 1038.56 2.28943 0.108474 0
M  V30 10949 C 1039.57 1.41415 0.806582 0
M  V30 10950 O 1040.76 1.65544 0.667634 0
M  V30 10951 C 1037.86 3.17845 1.1759 0
M  V30 10952 C 1037.03 4.33802 0.559842 0
M  V30 10953 C 1036.09 5.03722 1.52154 0
M  V30 10954 O 1035.12 5.5966 1.03776 0
M  V30 10955 N 1036.32 5.05392 2.85586 0
M  V30 10956 H 1039.09 2.93262 -0.617879 0
M  V30 10957 H 1036.65 1.54781 -0.474819 0
M  V30 10958 H 1038.64 3.61485 1.81963 0
M  V30 10959 H 1037.21 2.55261 1.80445 0
M  V30 10960 H 1036.43 3.93325 -0.262559 0
M  V30 10961 H 1037.72 5.08637 0.128942 0
M  V30 10962 H 1037.11 4.61282 3.27468 0
M  V30 10963 H 1035.67 5.52813 3.45313 0
M  V30 10964 N 1039.1 0.374177 1.53094 0
M  V30 10965 C 1040.03 -0.459976 2.28925 0
M  V30 10966 C 1041.02 -1.07656 1.31698 0
M  V30 10967 O 1042.2 -1.09219 1.60577 0
M  V30 10968 C 1039.33 -1.5954 3.08487 0
M  V30 10969 C 1038.28 -1.10563 4.13473 0
M  V30 10970 C 1037.61 -2.33196 4.81169 0
M  V30 10971 C 1038.91 -0.184275 5.21975 0
M  V30 10972 H 1040.6 0.172692 2.98902 0
M  V30 10973 H 1038.15 0.0844956 1.43752 0
M  V30 10974 H 1040.1 -2.18565 3.60288 0
M  V30 10975 H 1038.83 -2.25543 2.36216 0
M  V30 10976 H 1037.49 -0.53801 3.62631 0
M  V30 10977 H 1037.13 -2.97675 4.05461 0
M  V30 10978 H 1036.83 -2.01094 5.52119 0
M  V30 10979 H 1038.36 -2.92892 5.35767 0
M  V30 10980 H 1039.77 -0.682262 5.69226 0
M  V30 10981 H 1038.17 0.0462746 6.00082 0
M  V30 10982 H 1039.24 0.771152 4.78729 0
M  V30 10983 N 1040.58 -1.57259 0.103575 0
M  V30 10984 C 1041.83 -1.94272 -0.557024 0
M  V30 10985 C 1042.15 -0.986739 -1.68192 0
M  V30 10986 O 1041.42 -0.0402818 -1.95859 0
M  V30 10987 H 1040 -0.717237 -0.208757 0
M  V30 10988 H 1042.66 -1.94167 0.168898 0
M  V30 10989 H 1041.76 -2.96914 -0.961691 0
M  V30 10990 N 1042.06 0.170153 -1.56679 0
M  V30 10991 C 1043.31 0.884902 -1.81252 0
M  V30 10992 C 1043.62 1.83361 -0.681024 0
M  V30 10993 O 1044.83 2.59082 -0.811722 0
M  V30 10994 C 1043.28 1.62408 -3.21172 0
M  V30 10995 C 1042.89 0.718947 -4.42194 0
M  V30 10996 C 1044.64 2.32699 -3.55037 0
M  V30 10997 C 1042.54 1.45843 -5.73135 0
M  V30 10998 H 1041.47 0.33418 -0.675899 0
M  V30 10999 H 1044.12 0.137818 -1.82982 0
M  V30 11000 H 1042.51 2.41596 -3.13763 0
M  V30 11001 H 1043.68 -0.0360521 -4.60786 0
M  V30 11002 H 1042 0.125634 -4.1621 0
M  V30 11003 H 1044.59 2.88621 -4.50114 0
M  V30 11004 H 1044.94 3.08092 -2.79974 0
M  V30 11005 H 1045.47 1.60453 -3.64005 0
M  V30 11006 H 1042.21 0.746799 -6.51232 0
M  V30 11007 H 1041.73 2.18672 -5.58518 0
M  V30 11008 H 1043.41 2.0056 -6.1513 0
M  V30 11009 N 1043.54 1.5137 0.438746 0
M  V30 11010 C 1044.95 1.56462 1.01866 0
M  V30 11011 C 1045.3 0.387244 1.9234 0
M  V30 11012 O 1044.43 -0.496131 2.10636 0
M  V30 11013 C 1045.02 2.83557 1.85421 0
M  V30 11014 C 1043.58 2.91224 2.38464 0
M  V30 11015 C 1042.73 2.51109 1.17641 0
M  V30 11016 H 1045.68 1.57167 0.220072 0
M  V30 11017 H 1045.7 2.6724 2.70857 0
M  V30 11018 H 1045.21 3.69229 1.19546 0
M  V30 11019 H 1043.31 2.09979 3.07798 0
M  V30 11020 H 1043.42 3.94844 2.71358 0
M  V30 11021 H 1041.79 2.04276 1.5213 0
M  V30 11022 H 1042.57 3.39125 0.533785 0
M  V30 11023 N 1045.02 -0.694098 1.41492 0
M  V30 11024 C 1045.97 -1.80016 1.39923 0
M  V30 11025 C 1046.95 -1.58561 0.273377 0
M  V30 11026 O 1048.14 -1.69368 0.514157 0
M  V30 11027 C 1045.27 -3.18333 1.28526 0
M  V30 11028 C 1044.36 -3.45478 2.45979 0
M  V30 11029 N 1044.75 -3.43313 3.71443 0
M  V30 11030 C 1043.05 -3.76033 2.39824 0
M  V30 11031 C 1043.75 -3.69404 4.4935 0
M  V30 11032 N 1042.72 -3.89221 3.79484 0
M  V30 11033 H 1046.53 -1.76707 2.34844 0
M  V30 11034 H 1044.04 -0.894148 1.35568 0
M  V30 11035 H 1046.04 -3.97567 1.25484 0
M  V30 11036 H 1044.7 -3.22852 0.345904 0
M  V30 11037 H 1045.71 -3.2366 4.04308 0
M  V30 11038 H 1042.38 -3.87913 1.54368 0
M  V30 11039 H 1043.77 -3.73854 5.58285 0
M  V30 11040 N 1046.49 -1.27344 -0.928501 0
M  V30 11041 C 1047.91 -1.12361 -1.49103 0
M  V30 11042 C 1048.26 0.291667 -1.9402 0
M  V30 11043 O 1047.38 1.18449 -1.81104 0
M  V30 11044 C 1047.98 -2.03358 -2.70981 0
M  V30 11045 C 1046.54 -1.92483 -3.23461 0
M  V30 11046 C 1045.68 -1.95961 -1.962 0
M  V30 11047 H 1048.63 -1.40249 -0.742689 0
M  V30 11048 H 1048.65 -1.58892 -3.45736 0
M  V30 11049 H 1048.17 -3.06356 -2.38259 0
M  V30 11050 H 1046.27 -0.924676 -3.60944 0
M  V30 11051 H 1046.38 -2.78682 -3.89709 0
M  V30 11052 H 1044.74 -1.40175 -2.12657 0
M  V30 11053 H 1045.53 -3.00612 -1.65793 0
M  V30 11054 N 1047.97 1.13488 -1.09353 0
M  V30 11055 C 1048.94 2.17066 -0.735863 0
M  V30 11056 C 1049.94 1.59086 0.234181 0
M  V30 11057 O 1051.13 1.74196 0.012463 0
M  V30 11058 C 1048.26 3.40786 -0.0880975 0
M  V30 11059 H 1049.45 2.50221 -1.65316 0
M  V30 11060 H 1047 1.28304 -0.89263 0
M  V30 11061 H 1047.74 3.1322 0.840462 0
M  V30 11062 H 1047.52 3.8414 -0.786073 0
M  V30 11063 H 1049.01 4.17342 0.146775 0
M  V30 11064 N 1049.45 0.880621 1.30701 0
M  V30 11065 C 1050.7 0.495894 1.95922 0
M  V30 11066 C 1051.02 -0.957214 1.69889 0
M  V30 11067 O 1050.29 -1.67245 1.0201 0
M  V30 11068 H 1048.87 0.180394 0.724891 0
M  V30 11069 H 1051.53 1.12274 1.59313 0
M  V30 11070 H 1050.63 0.662508 3.04987 0
M  V30 11071 N 1050.93 -1.4397 0.641131 0
M  V30 11072 C 1051.86 -2.33458 -0.04446 0
M  V30 11073 C 1052.84 -1.48781 -0.824507 0
M  V30 11074 O 1054.03 -1.77477 -0.788397 0
M  V30 11075 C 1051.16 -3.31989 -1.01984 0
M  V30 11076 C 1050.11 -4.2656 -0.350745 0
M  V30 11077 C 1049.44 -5.15036 -1.43673 0
M  V30 11078 C 1050.74 -5.16897 0.749299 0
M  V30 11079 H 1052.43 -2.91034 0.702832 0
M  V30 11080 H 1049.98 -1.39942 0.339435 0
M  V30 11081 H 1051.93 -3.93483 -1.50828 0
M  V30 11082 H 1050.65 -2.72643 -1.79815 0
M  V30 11083 H 1049.31 -3.66413 0.117139 0
M  V30 11084 H 1048.96 -4.52037 -2.20617 0
M  V30 11085 H 1048.66 -5.79125 -0.994358 0
M  V30 11086 H 1050.18 -5.79403 -1.92678 0
M  V30 11087 H 1051.6 -5.7227 0.343534 0
M  V30 11088 H 1049.99 -5.89643 1.11541 0
M  V30 11089 H 1051.06 -4.5731 1.61232 0
M  V30 11090 N 1052.41 -0.382291 -1.52893 0
M  V30 11091 C 1053.37 0.44408 -2.24857 0
M  V30 11092 C 1054.37 0.996004 -1.26239 0
M  V30 11093 O 1055.56 0.879114 -1.5039 0
M  V30 11094 C 1052.69 1.62234 -2.99822 0
M  V30 11095 H 1053.89 -0.185862 -2.99324 0
M  V30 11096 H 1051.44 -0.134275 -1.55722 0
M  V30 11097 H 1052.17 2.28991 -2.29638 0
M  V30 11098 H 1051.96 1.23336 -3.72197 0
M  V30 11099 H 1053.45 2.20756 -3.54481 0
M  V30 11100 N 1053.89 1.57202 -0.111913 0
M  V30 11101 C 1054.83 2.14936 0.840908 0
M  V30 11102 C 1055.8 1.07242 1.2684 0
M  V30 11103 O 1056.99 1.35114 1.34718 0
M  V30 11104 C 1054.13 2.74743 2.0883 0
M  V30 11105 C 1053.24 3.96723 1.70982 0
M  V30 11106 C 1052.38 4.4464 2.90634 0
M  V30 11107 C 1051.41 5.59169 2.48992 0
M  V30 11108 N 1050.55 6.01862 3.61534 0
M  V30 11109 H 1055.39 2.96034 0.341735 0
M  V30 11110 H 1052.93 1.4626 0.156993 0
M  V30 11111 H 1054.89 3.07546 2.81907 0
M  V30 11112 H 1053.52 1.96346 2.56218 0
M  V30 11113 H 1052.57 3.70127 0.878072 0
M  V30 11114 H 1053.88 4.79795 1.36373 0
M  V30 11115 H 1053.03 4.79315 3.71944 0
M  V30 11116 H 1051.77 3.60503 3.28464 0
M  V30 11117 H 1050.78 5.24106 1.66113 0
M  V30 11118 H 1052 6.45067 2.12287 0
M  V30 11119 H 1049.95 5.20667 3.99051 0
M  V30 11120 H 1049.87 6.79772 3.30827 0
M  V30 11121 H 1051.13 6.41172 4.43305 0
M  V30 11122 N 1055.36 -0.161842 1.56767 0
M  V30 11123 C 1056.31 -1.2002 1.97139 0
M  V30 11124 C 1057.28 -1.43486 0.836713 0
M  V30 11125 O 1058.47 -1.56069 1.0976 0
M  V30 11126 C 1055.61 -2.53228 2.34456 0
M  V30 11127 C 1054.72 -2.37062 3.61145 0
M  V30 11128 C 1053.85 -3.63202 3.87631 0
M  V30 11129 C 1052.89 -3.42008 5.07638 0
M  V30 11130 N 1052.03 -4.60242 5.30209 0
M  V30 11131 H 1056.87 -0.848918 2.85653 0
M  V30 11132 H 1054.41 -0.407753 1.41336 0
M  V30 11133 H 1056.36 -3.30879 2.54116 0
M  V30 11134 H 1054.99 -2.86333 1.4904 0
M  V30 11135 H 1054.05 -1.50539 3.49345 0
M  V30 11136 H 1055.36 -2.17353 4.48953 0
M  V30 11137 H 1054.51 -4.49285 4.0771 0
M  V30 11138 H 1053.25 -3.85899 2.98216 0
M  V30 11139 H 1052.26 -2.54312 4.87448 0
M  V30 11140 H 1053.48 -3.20724 5.98593 0
M  V30 11141 H 1051.43 -4.8314 4.43747 0
M  V30 11142 H 1051.34 -4.43481 6.12259 0
M  V30 11143 H 1052.61 -5.47581 5.54775 0
M  V30 11144 N 1056.84 -1.516 -0.430713 0
M  V30 11145 C 1058.26 -1.39923 -0.767706 0
M  V30 11146 C 1058.46 -0.486756 -1.95532 0
M  V30 11147 O 1057.51 0.0555965 -2.52439 0
M  V30 11148 C 1058.83 -2.82074 -1.04187 0
M  V30 11149 C 1060.37 -2.9127 -1.1459 0
M  V30 11150 C 1060.85 -4.34342 -1.45295 0
M  V30 11151 N 1062.34 -4.37479 -1.52206 0
M  V30 11152 C 1063.08 -5.45219 -1.77549 0
M  V30 11153 N 1062.57 -6.6311 -2.0064 0
M  V30 11154 N 1064.36 -5.32707 -1.79386 0
M  V30 11155 H 1056.52 -2.09474 0.351351 0
M  V30 11156 H 1058.78 -0.943247 0.0948151 0
M  V30 11157 H 1058.48 -3.50868 -0.241837 0
M  V30 11158 H 1058.36 -3.21805 -1.96777 0
M  V30 11159 H 1060.75 -2.2267 -1.93655 0
M  V30 11160 H 1060.83 -2.55026 -0.198854 0
M  V30 11161 H 1060.47 -5.03494 -0.667559 0
M  V30 11162 H 1060.4 -4.68105 -2.41217 0
M  V30 11163 H 1062.89 -3.52488 -1.36237 0
M  V30 11164 H 1063.2 -7.41012 -2.19366 0
M  V30 11165 H 1061.55 -6.66214 -1.97948 0
M  V30 11166 H 1064.74 -4.39589 -1.60869 0
M  V30 11167 H 1064.91 -6.16752 -1.98799 0
M  V30 11168 N 1058.32 0.686584 -1.41858 0
M  V30 11169 C 1059.74 0.998283 -1.24525 0
M  V30 11170 C 1059.94 2.01006 -0.141007 0
M  V30 11171 O 1058.99 2.47667 0.491648 0
M  V30 11172 C 1060.3 1.51432 -2.59786 0
M  V30 11173 C 1061.85 1.6327 -2.67043 0
M  V30 11174 C 1062.33 2.18274 -4.02642 0
M  V30 11175 N 1063.82 2.25622 -4.04535 0
M  V30 11176 C 1064.55 2.69229 -5.06264 0
M  V30 11177 N 1064.05 3.12375 -6.1838 0
M  V30 11178 N 1065.84 2.68873 -4.93623 0
M  V30 11179 H 1057.99 0.0164825 -2.12394 0
M  V30 11180 H 1060.26 0.0698613 -0.945422 0
M  V30 11181 H 1059.96 0.845426 -3.41388 0
M  V30 11182 H 1059.84 2.49502 -2.82894 0
M  V30 11183 H 1062.22 2.29269 -1.85794 0
M  V30 11184 H 1062.3 0.637221 -2.47736 0
M  V30 11185 H 1061.95 1.52887 -4.84343 0
M  V30 11186 H 1061.88 3.18591 -4.19294 0
M  V30 11187 H 1064.37 1.95186 -3.23591 0
M  V30 11188 H 1064.68 3.44301 -6.91864 0
M  V30 11189 H 1063.03 3.10262 -6.21902 0
M  V30 11190 H 1066.22 2.34521 -4.05114 0
M  V30 11191 H 1066.39 3.02539 -5.7304 0
M  V30 11192 N 1059.8 1.27835 0.921735 0
M  V30 11193 C 1061.05 1.13904 1.6646 0
M  V30 11194 C 1061.36 -0.313379 1.93073 0
M  V30 11195 O 1062.57 -0.573687 2.6537 0
M  V30 11196 C 1061.02 1.99064 2.99836 0
M  V30 11197 C 1060.63 3.48998 2.80899 0
M  V30 11198 C 1062.37 1.93797 3.77681 0
M  V30 11199 C 1060.28 4.26337 4.09867 0
M  V30 11200 H 1059.21 0.422681 0.624385 0
M  V30 11201 H 1061.86 1.52303 1.02352 0
M  V30 11202 H 1060.24 1.53514 3.65034 0
M  V30 11203 H 1061.42 4.02452 2.24431 0
M  V30 11204 H 1059.73 3.55707 2.16476 0
M  V30 11205 H 1062.33 2.48852 4.73262 0
M  V30 11206 H 1062.67 0.912928 4.06167 0
M  V30 11207 H 1063.21 2.37275 3.19289 0
M  V30 11208 H 1059.94 5.2939 3.86557 0
M  V30 11209 H 1059.46 3.77659 4.65976 0
M  V30 11210 H 1061.14 4.3583 4.78185 0
M  V30 11211 N 1061.28 -1.12907 1.09954 0
M  V30 11212 C 1062.5 -1.88138 0.860905 0
M  V30 11213 C 1062.92 -1.79402 -0.588256 0
M  V30 11214 O 1062.28 -1.16442 -1.40526 0
M  V30 11215 C 1062.33 -3.37537 1.29425 0
M  V30 11216 O 1062.05 -3.46056 2.68658 0
M  V30 11217 C 1063.55 -4.29721 1.08879 0
M  V30 11218 H 1060.77 -0.595437 0.309347 0
M  V30 11219 H 1063.31 -1.42894 1.46292 0
M  V30 11220 H 1061.47 -3.80344 0.736009 0
M  V30 11221 H 1061.88 -4.38969 2.87065 0
M  V30 11222 H 1063.36 -5.32854 1.4412 0
M  V30 11223 H 1063.83 -4.39192 0.0270053 0
M  V30 11224 H 1064.44 -3.9269 1.63325 0
M  V30 11225 N 1062.75 -0.88754 -1.30232 0
M  V30 11226 C 1064 -0.508031 -1.96334 0
M  V30 11227 C 1064.33 0.940905 -1.69884 0
M  V30 11228 O 1063.61 1.66523 -1.005 0
M  V30 11229 C 1063.89 -0.786566 -3.51405 0
M  V30 11230 C 1063.74 -2.28632 -3.8736 0
M  V30 11231 C 1065.06 -0.264803 -4.39303 0
M  V30 11232 H 1062.18 -0.186051 -0.71313 0
M  V30 11233 H 1064.82 -1.112 -1.5406 0
M  V30 11234 H 1062.97 -0.272523 -3.87543 0
M  V30 11235 H 1064.65 -2.86896 -3.61231 0
M  V30 11236 H 1062.89 -2.75194 -3.35337 0
M  V30 11237 H 1063.56 -2.43181 -4.95547 0
M  V30 11238 H 1066.04 -0.704809 -4.10087 0
M  V30 11239 H 1064.91 -0.488998 -5.46717 0
M  V30 11240 H 1065.17 0.834055 -4.34161 0
M  V30 11241 N 1064.23 1.43628 -0.648757 0
M  V30 11242 C 1065.16 2.33478 0.0320785 0
M  V30 11243 C 1066.14 1.49217 0.816605 0
M  V30 11244 O 1067.33 1.77892 0.778974 0
M  V30 11245 C 1064.46 3.32525 1.00222 0
M  V30 11246 C 1063.41 4.2674 0.328119 0
M  V30 11247 C 1062.74 5.15791 1.4094 0
M  V30 11248 C 1064.04 5.16493 -0.776701 0
M  V30 11249 H 1065.73 2.90657 -0.718257 0
M  V30 11250 H 1063.28 1.3976 -0.346852 0
M  V30 11251 H 1065.23 3.94277 1.4874 0
M  V30 11252 H 1063.96 2.73593 1.78366 0
M  V30 11253 H 1062.61 3.66346 -0.136569 0
M  V30 11254 H 1062.26 4.53201 2.18216 0
M  V30 11255 H 1061.96 5.79645 0.963631 0
M  V30 11256 H 1063.49 5.80416 1.89603 0
M  V30 11257 H 1064.9 5.7208 -0.373878 0
M  V30 11258 H 1063.3 5.89043 -1.14667 0
M  V30 11259 H 1064.37 4.56448 -1.63654 0
M  V30 11260 N 1065.71 0.390394 1.52688 0
M  V30 11261 C 1066.99 -0.249068 1.94008 0
M  V30 11262 C 1067.37 -1.64263 1.32593 0
M  V30 11263 O 1066.72 -2.23086 0.494448 0
M  V30 11264 C 1066.93 -0.274318 3.4792 0
M  V30 11265 C 1068.27 -0.502743 4.21613 0
M  V30 11266 O 1069.3 -0.35448 3.54432 0
M  V30 11267 O 1068.16 -0.79334 5.40711 0
M  V30 11268 H 1065.25 -0.155116 0.812323 0
M  V30 11269 H 1067.8 0.44498 1.63762 0
M  V30 11270 H 1066.57 0.701766 3.84956 0
M  V30 11271 H 1066.19 -1.01324 3.84473 0
M  V30 11272 N 1067.19 -1.57141 0.120249 0
M  V30 11273 C 1068.43 -1.95527 -0.538245 0
M  V30 11274 C 1068.77 -1.00373 -1.6625 0
M  V30 11275 O 1068.04 -0.0411734 -1.94456 0
M  V30 11276 C 1068.33 -3.43843 -1.06976 0
M  V30 11277 C 1068.18 -4.49771 0.0511596 0
M  V30 11278 C 1069.5 -3.94035 -1.96022 0
M  V30 11279 H 1066.62 -0.710958 -0.194183 0
M  V30 11280 H 1069.26 -1.88986 0.196061 0
M  V30 11281 H 1067.41 -3.49548 -1.69553 0
M  V30 11282 H 1069.08 -4.56163 0.686503 0
M  V30 11283 H 1067.32 -4.27882 0.714127 0
M  V30 11284 H 1067.99 -5.50812 -0.361995 0
M  V30 11285 H 1070.47 -3.9064 -1.43315 0
M  V30 11286 H 1069.35 -4.98329 -2.3013 0
M  V30 11287 H 1069.61 -3.34803 -2.8872 0
M  V30 11288 N 1068.67 0.153526 -1.5685 0
M  V30 11289 C 1069.91 0.865519 -1.82629 0
M  V30 11290 C 1070.24 1.81999 -0.700105 0
M  V30 11291 O 1069.51 1.93907 0.278744 0
M  V30 11292 H 1068.09 0.32261 -0.673745 0
M  V30 11293 H 1070.75 0.149088 -1.94329 0
M  V30 11294 H 1069.84 1.43171 -2.77324 0
M  V30 11295 N 1070.14 1.51827 0.422667 0
M  V30 11296 C 1071.42 1.55772 1.18299 0
M  V30 11297 C 1071.8 0.330657 2.08494 0
M  V30 11298 O 1071.15 -0.683373 2.18042 0
M  V30 11299 C 1071.36 2.87941 1.97208 0
M  V30 11300 C 1072.71 3.4044 2.53744 0
M  V30 11301 O 1073.73 2.8959 2.07403 0
M  V30 11302 O 1072.59 4.29201 3.38303 0
M  V30 11303 H 1069.68 0.626889 0.539388 0
M  V30 11304 H 1072.23 1.64147 0.430545 0
M  V30 11305 H 1071 3.68702 1.31052 0
M  V30 11306 H 1070.63 2.82795 2.79486 0
M  V30 11307 N 1071.62 -0.679052 1.4222 0
M  V30 11308 C 1072.59 -1.77448 1.45069 0
M  V30 11309 C 1073.59 -1.57189 0.338882 0
M  V30 11310 O 1074.78 -1.63559 0.599519 0
M  V30 11311 C 1071.91 -3.1603 1.27819 0
M  V30 11312 H 1073.1 -1.7631 2.426 0
M  V30 11313 H 1070.65 -0.888277 1.28605 0
M  V30 11314 H 1071.39 -3.22796 0.311946 0
M  V30 11315 H 1071.17 -3.32138 2.08391 0
M  V30 11316 H 1072.66 -3.9596 1.32686 0
M  V30 11317 N 1073.1 -1.28322 -0.914942 0
M  V30 11318 C 1074.33 -1.18083 -1.69529 0
M  V30 11319 C 1074.74 0.263274 -1.87359 0
M  V30 11320 O 1074.08 1.18988 -1.39955 0
M  V30 11321 C 1074.14 -1.8062 -3.10832 0
M  V30 11322 C 1073.81 -3.29861 -3.16292 0
M  V30 11323 C 1074.8 -4.26313 -2.97578 0
M  V30 11324 C 1072.49 -3.70797 -3.38843 0
M  V30 11325 C 1074.48 -5.61677 -3.01326 0
M  V30 11326 C 1072.17 -5.06287 -3.42223 0
M  V30 11327 C 1073.17 -6.01537 -3.23485 0
M  V30 11328 O 1072.86 -7.34556 -3.26624 0
M  V30 11329 H 1072.59 -0.410931 -0.53676 0
M  V30 11330 H 1075.14 -1.6994 -1.15367 0
M  V30 11331 H 1073.37 -1.23255 -3.66531 0
M  V30 11332 H 1075.06 -1.64915 -3.70888 0
M  V30 11333 H 1075.83 -3.96023 -2.79984 0
M  V30 11334 H 1071.71 -2.97124 -3.52475 0
M  V30 11335 H 1075.25 -6.36 -2.86618 0
M  V30 11336 H 1071.15 -5.36228 -3.59346 0
M  V30 11337 H 1071.92 -7.43167 -3.42994 0
M  V30 11338 N 1074.58 1.12322 -1.10551 0
M  V30 11339 C 1075.83 1.83858 -0.848674 0
M  V30 11340 C 1076.15 1.84159 0.62575 0
M  V30 11341 O 1075.41 1.28341 1.4774 0
M  V30 11342 C 1075.71 3.31177 -1.34375 0
M  V30 11343 C 1075.37 3.51046 -2.8298 0
M  V30 11344 C 1074.04 3.56177 -3.23561 0
M  V30 11345 C 1076.39 3.58061 -3.78737 0
M  V30 11346 C 1073.72 3.65868 -4.58647 0
M  V30 11347 C 1076.07 3.69283 -5.13627 0
M  V30 11348 C 1074.73 3.7267 -5.53781 0
M  V30 11349 H 1074 0.672784 -0.310552 0
M  V30 11350 H 1076.65 1.3253 -1.38232 0
M  V30 11351 H 1074.95 3.84937 -0.730144 0
M  V30 11352 H 1076.65 3.84998 -1.12148 0
M  V30 11353 H 1073.24 3.47716 -2.50582 0
M  V30 11354 H 1077.42 3.53366 -3.48491 0
M  V30 11355 H 1072.68 3.66763 -4.89178 0
M  V30 11356 H 1076.85 3.73654 -5.8767 0
M  V30 11357 H 1074.48 3.79932 -6.58449 0
M  V30 11358 N 1076.06 0.894434 1.2976 0
M  V30 11359 C 1077.28 0.5322 2.00455 0
M  V30 11360 C 1077.71 -0.874427 1.66539 0
M  V30 11361 O 1077.06 -1.58113 0.887129 0
M  V30 11362 C 1077.11 0.725264 3.53231 0
M  V30 11363 O 1076.22 -0.224612 4.11788 0
M  V30 11364 H 1075.56 0.208562 0.630395 0
M  V30 11365 H 1078.09 1.20458 1.65382 0
M  V30 11366 H 1078.1 0.627889 4.0314 0
M  V30 11367 H 1076.77 1.75079 3.77253 0
M  V30 11368 H 1075.35 -0.0801361 3.72814 0
M  V30 11369 N 1077.53 -1.43282 0.656365 0
M  V30 11370 C 1078.78 -2.00996 0.168354 0
M  V30 11371 C 1079.1 -1.52408 -1.22601 0
M  V30 11372 O 1080.3 -2.02417 -1.80941 0
M  V30 11373 C 1078.76 -3.5903 0.250161 0
M  V30 11374 C 1078.37 -4.1661 1.64742 0
M  V30 11375 C 1080.11 -4.24118 -0.180084 0
M  V30 11376 C 1078.02 -5.66948 1.68299 0
M  V30 11377 H 1076.95 -0.751674 0.0591769 0
M  V30 11378 H 1079.6 -1.64216 0.818859 0
M  V30 11379 H 1077.98 -3.93226 -0.467908 0
M  V30 11380 H 1079.15 -3.93908 2.3911 0
M  V30 11381 H 1077.47 -3.63905 2.02391 0
M  V30 11382 H 1080.07 -5.34419 -0.173401 0
M  V30 11383 H 1080.41 -3.98264 -1.21208 0
M  V30 11384 H 1080.94 -3.94816 0.486343 0
M  V30 11385 H 1077.68 -5.97573 2.69419 0
M  V30 11386 H 1077.2 -5.91697 0.98261 0
M  V30 11387 H 1078.88 -6.31041 1.42813 0
M  V30 11388 N 1079.01 -0.398486 -1.52479 0
M  V30 11389 C 1080.42 0.0735015 -1.86555 0
M  V30 11390 C 1080.78 1.45361 -1.31775 0
M  V30 11391 O 1079.9 2.0632 -0.652759 0
M  V30 11392 C 1080.5 0.140152 -3.3851 0
M  V30 11393 C 1079.05 0.556451 -3.72264 0
M  V30 11394 C 1078.2 -0.275792 -2.75925 0
M  V30 11395 H 1081.15 -0.615991 -1.46257 0
M  V30 11396 H 1081.17 0.957507 -3.68255 0
M  V30 11397 H 1080.69 -0.864442 -3.7835 0
M  V30 11398 H 1078.79 1.56808 -3.37997 0
M  V30 11399 H 1078.9 0.308227 -4.78107 0
M  V30 11400 H 1077.26 0.260304 -2.53366 0
M  V30 11401 H 1078.05 -1.27854 -3.18604 0
M  V30 11402 N 1080.49 1.57075 -0.12858 0
M  V30 11403 C 1081.42 2.18833 0.814519 0
M  V30 11404 C 1082.4 1.13114 1.2704 0
M  V30 11405 O 1083.59 1.41387 1.33129 0
M  V30 11406 C 1080.72 2.79535 2.06101 0
M  V30 11407 C 1079.67 3.9092 1.74257 0
M  V30 11408 C 1079 4.38473 3.06015 0
M  V30 11409 C 1080.3 5.1257 1.00345 0
M  V30 11410 H 1081.99 2.97895 0.299862 0
M  V30 11411 H 1079.54 1.4329 0.14279 0
M  V30 11412 H 1081.49 3.21401 2.72543 0
M  V30 11413 H 1080.21 1.97777 2.59907 0
M  V30 11414 H 1078.87 3.49645 1.102 0
M  V30 11415 H 1078.52 3.53561 3.57776 0
M  V30 11416 H 1078.22 5.13591 2.85479 0
M  V30 11417 H 1079.75 4.82997 3.7356 0
M  V30 11418 H 1081.16 5.51395 1.56959 0
M  V30 11419 H 1079.56 5.93333 0.898693 0
M  V30 11420 H 1080.63 4.84899 -0.0081335 0
M  V30 11421 N 1081.97 -0.145205 1.5693 0
M  V30 11422 C 1082.92 -1.18446 1.94819 0
M  V30 11423 C 1083.9 -1.38456 0.819684 0
M  V30 11424 O 1085.1 -1.39988 1.08316 0
M  V30 11425 C 1082.22 -2.51766 2.33385 0
M  V30 11426 C 1081.31 -2.35341 3.5281 0
M  V30 11427 N 1081.7 -1.88676 4.69292 0
M  V30 11428 C 1080 -2.66087 3.5793 0
M  V30 11429 C 1080.7 -1.85337 5.51385 0
M  V30 11430 N 1079.68 -2.28717 4.93142 0
M  V30 11431 H 1083.48 -0.815785 2.82351 0
M  V30 11432 H 1080.99 -0.353242 1.58512 0
M  V30 11433 H 1082.99 -3.26897 2.58735 0
M  V30 11434 H 1081.65 -2.89414 1.47206 0
M  V30 11435 H 1082.66 -1.58614 4.93013 0
M  V30 11436 H 1079.34 -3.07597 2.82294 0
M  V30 11437 H 1080.73 -1.50734 6.54774 0
M  V30 11438 N 1083.45 -1.52049 -0.414609 0
M  V30 11439 C 1084.36 -1.7788 -1.52958 0
M  V30 11440 C 1085.37 -0.66408 -1.60829 0
M  V30 11441 O 1086.55 -0.948882 -1.77646 0
M  V30 11442 C 1083.61 -1.91906 -2.88744 0
M  V30 11443 C 1082.68 -3.15803 -2.90804 0
M  V30 11444 C 1081.91 -3.29151 -4.20114 0
M  V30 11445 O 1082.13 -2.47892 -5.13718 0
M  V30 11446 O 1081.07 -4.2227 -4.28919 0
M  V30 11447 H 1084.89 -2.72506 -1.34067 0
M  V30 11448 H 1082.48 -1.36826 -0.599918 0
M  V30 11449 H 1084.36 -2.02986 -3.6929 0
M  V30 11450 H 1083.03 -1.00468 -3.07714 0
M  V30 11451 H 1081.94 -3.10185 -2.09131 0
M  V30 11452 H 1083.27 -4.07004 -2.76783 0
M  V30 11453 N 1084.93 0.6715 -1.42579 0
M  V30 11454 C 1086.2 1.42766 -1.33706 0
M  V30 11455 C 1086.58 2.11086 0.0239748 0
M  V30 11456 O 1085.93 2.03479 1.03964 0
M  V30 11457 C 1086.14 2.42739 -2.50756 0
M  V30 11458 C 1087.49 3.07284 -2.93021 0
M  V30 11459 O 1088.51 2.53066 -2.50671 0
M  V30 11460 O 1087.37 4.05541 -3.66331 0
M  V30 11461 H 1084.47 0.636955 -0.527463 0
M  V30 11462 H 1087.01 0.699946 -1.54593 0
M  V30 11463 H 1085.78 1.91076 -3.41476 0
M  V30 11464 H 1085.41 3.22986 -2.31874 0
M  V30 11465 N 1086.4 1.28806 0.908124 0
M  V30 11466 C 1087.65 1.16287 1.65781 0
M  V30 11467 C 1087.98 -0.287389 1.92365 0
M  V30 11468 O 1087.23 -1.22491 1.52625 0
M  V30 11469 C 1087.53 1.91267 3.01914 0
M  V30 11470 C 1087.2 3.41033 2.9497 0
M  V30 11471 C 1085.86 3.81879 2.92783 0
M  V30 11472 C 1088.21 4.36507 2.848 0
M  V30 11473 C 1085.54 5.16529 2.78235 0
M  V30 11474 C 1087.89 5.71237 2.71792 0
M  V30 11475 C 1086.56 6.11351 2.67967 0
M  V30 11476 H 1085.83 0.425526 0.606637 0
M  V30 11477 H 1088.47 1.59646 1.05762 0
M  V30 11478 H 1086.78 1.40474 3.65752 0
M  V30 11479 H 1088.48 1.78992 3.58835 0
M  V30 11480 H 1085.07 3.08561 2.97469 0
M  V30 11481 H 1089.25 4.05909 2.85573 0
M  V30 11482 H 1084.51 5.4673 2.73672 0
M  V30 11483 H 1088.68 6.44872 2.62892 0
M  V30 11484 H 1086.31 7.15637 2.56451 0
M  V30 11485 N 1087.88 -1.11734 1.11145 0
M  V30 11486 C 1089.3 -1.35412 0.844736 0
M  V30 11487 C 1089.5 -1.94347 -0.532111 0
M  V30 11488 O 1088.55 -2.17443 -1.28353 0
M  V30 11489 C 1089.87 -2.28869 1.95037 0
M  V30 11490 C 1091.41 -2.42442 1.97967 0
M  V30 11491 C 1091.89 -3.39219 3.07725 0
M  V30 11492 N 1093.38 -3.4678 3.07079 0
M  V30 11493 C 1094.12 -4.21595 3.88646 0
M  V30 11494 N 1093.61 -4.99411 4.80167 0
M  V30 11495 N 1095.4 -4.17075 3.76835 0
M  V30 11496 H 1087.56 -0.718412 1.99881 0
M  V30 11497 H 1089.82 -0.378787 0.869037 0
M  V30 11498 H 1089.52 -1.92752 2.94176 0
M  V30 11499 H 1089.4 -3.2906 1.84389 0
M  V30 11500 H 1091.79 -2.77835 0.994561 0
M  V30 11501 H 1091.87 -1.42113 2.12691 0
M  V30 11502 H 1091.51 -3.04553 4.0646 0
M  V30 11503 H 1091.44 -4.39394 2.90242 0
M  V30 11504 H 1093.93 -2.91272 2.40767 0
M  V30 11505 H 1094.24 -5.53856 5.38946 0
M  V30 11506 H 1092.59 -4.98582 4.84191 0
M  V30 11507 H 1095.78 -3.55369 3.04681 0
M  V30 11508 H 1095.95 -4.75125 4.40637 0
M  V30 11509 N 1089.36 -0.901303 -1.29284 0
M  V30 11510 C 1090.77 -0.576317 -1.77582 0
M  V30 11511 C 1091.12 0.908078 -1.73921 0
M  V30 11512 O 1090.25 1.71006 -1.32611 0
M  V30 11513 C 1090.84 -1.03938 -3.22463 0
M  V30 11514 C 1089.4 -0.765533 -3.68533 0
M  V30 11515 C 1088.55 -1.21318 -2.49354 0
M  V30 11516 H 1091.5 -1.08386 -1.15923 0
M  V30 11517 H 1091.52 -0.375367 -3.78644 0
M  V30 11518 H 1091.03 -2.11977 -3.25096 0
M  V30 11519 H 1089.13 0.302176 -3.71373 0
M  V30 11520 H 1089.25 -1.36454 -4.59257 0
M  V30 11521 H 1087.61 -0.632141 -2.46731 0
M  V30 11522 H 1088.39 -2.30165 -2.54714 0
M  V30 11523 N 1090.84 1.42931 -0.663954 0
M  V30 11524 C 1092.07 2.05729 -0.189532 0
M  V30 11525 C 1092.48 1.49914 1.15423 0
M  V30 11526 O 1091.82 0.629324 1.72584 0
M  V30 11527 C 1091.88 3.59482 -0.0354748 0
M  V30 11528 C 1091.54 4.37935 -1.30622 0
M  V30 11529 C 1092.54 4.69297 -2.23733 0
M  V30 11530 C 1090.23 4.77761 -1.5508 0
M  V30 11531 C 1092.22 5.39407 -3.39586 0
M  V30 11532 C 1089.91 5.47613 -2.71224 0
M  V30 11533 C 1090.91 5.7836 -3.63302 0
M  V30 11534 O 1090.59 6.46783 -4.77417 0
M  V30 11535 H 1090.33 0.669678 -0.0922342 0
M  V30 11536 H 1092.88 1.84243 -0.907943 0
M  V30 11537 H 1091.11 3.79584 0.738412 0
M  V30 11538 H 1092.8 4.03947 0.397679 0
M  V30 11539 H 1093.56 4.39038 -2.06084 0
M  V30 11540 H 1089.44 4.53229 -0.842863 0
M  V30 11541 H 1092.99 5.63323 -4.11476 0
M  V30 11542 H 1088.88 5.77289 -2.88804 0
M  V30 11543 H 1089.65 6.6527 -4.76821 0
M  V30 11544 N 1092.32 0.406567 1.52266 0
M  V30 11545 C 1093.54 -0.169624 2.06204 0
M  V30 11546 C 1093.96 -1.39076 1.27684 0
M  V30 11547 O 1093.32 -1.79528 0.328023 0
M  V30 11548 C 1093.37 -0.522611 3.57702 0
M  V30 11549 O 1093.09 0.650028 4.33251 0
M  V30 11550 C 1094.59 -1.15281 4.28048 0
M  V30 11551 H 1091.81 -0.0215191 0.670655 0
M  V30 11552 H 1094.35 0.576781 1.96198 0
M  V30 11553 H 1092.51 -1.21891 3.67725 0
M  V30 11554 H 1092.92 0.355989 5.23291 0
M  V30 11555 H 1094.4 -1.35002 5.35237 0
M  V30 11556 H 1094.87 -2.12517 3.84361 0
M  V30 11557 H 1095.48 -0.496786 4.22389 0
M  V30 11558 N 1093.79 -1.57004 0.136909 0
M  V30 11559 C 1094.76 -2.15066 -0.792419 0
M  V30 11560 C 1095.76 -1.08991 -1.18226 0
M  V30 11561 O 1096.95 -1.34681 -1.10484 0
M  V30 11562 C 1094.08 -2.70554 -2.07397 0
M  V30 11563 H 1095.27 -2.98519 -0.28752 0
M  V30 11564 H 1092.83 -1.55895 -0.112469 0
M  V30 11565 H 1093.56 -1.90739 -2.62277 0
M  V30 11566 H 1093.35 -3.48149 -1.80374 0
M  V30 11567 H 1094.84 -3.15322 -2.73792 0
M  V30 11568 N 1095.27 0.136881 -1.57004 0
M  V30 11569 C 1096.52 0.847775 -1.83899 0
M  V30 11570 C 1096.85 1.80709 -0.719332 0
M  V30 11571 O 1096.1 1.93527 0.290838 0
M  V30 11572 C 1096.4 1.64711 -3.17183 0
M  V30 11573 C 1096.07 0.833683 -4.43126 0
M  V30 11574 C 1094.73 0.609306 -4.77327 0
M  V30 11575 C 1097.08 0.265504 -5.20523 0
M  V30 11576 C 1094.41 -0.193793 -5.8638 0
M  V30 11577 C 1096.76 -0.524688 -6.3042 0
M  V30 11578 C 1095.43 -0.759548 -6.63164 0
M  V30 11579 H 1094.7 0.310223 -0.672936 0
M  V30 11580 H 1097.34 0.110937 -1.91178 0
M  V30 11581 H 1095.65 2.45435 -3.054 0
M  V30 11582 H 1097.34 2.20081 -3.3521 0
M  V30 11583 H 1093.93 1.01864 -4.16319 0
M  V30 11584 H 1098.12 0.426109 -4.94467 0
M  V30 11585 H 1093.37 -0.385153 -6.10186 0
M  V30 11586 H 1097.55 -0.972033 -6.89583 0
M  V30 11587 H 1095.18 -1.38369 -7.47501 0
M  V30 11588 N 1096.75 1.52266 0.40654 0
M  V30 11589 C 1097.98 1.70304 1.17491 0
M  V30 11590 C 1098.39 0.413656 1.84213 0
M  V30 11591 O 1097.75 -0.610524 1.71985 0
M  V30 11592 C 1097.8 2.84045 2.23609 0
M  V30 11593 O 1097.52 4.0799 1.5961 0
M  V30 11594 C 1099.02 3.13614 3.13306 0
M  V30 11595 H 1096.24 0.570669 0.352955 0
M  V30 11596 H 1098.79 1.98836 0.477967 0
M  V30 11597 H 1096.94 2.58025 2.88967 0
M  V30 11598 H 1097.36 4.7139 2.29983 0
M  V30 11599 H 1098.83 3.96707 3.83833 0
M  V30 11600 H 1099.31 2.27272 3.75824 0
M  V30 11601 H 1099.91 3.41409 2.53614 0
M  V30 11602 N 1098.23 -0.663929 1.42933 0
M  V30 11603 C 1099.16 -1.78899 1.50058 0
M  V30 11604 C 1100.14 -1.66329 0.356164 0
M  V30 11605 O 1101.32 -1.85587 0.571944 0
M  V30 11606 C 1098.45 -3.17265 1.41281 0
M  V30 11607 C 1097.41 -3.44584 2.53861 0
M  V30 11608 C 1096.73 -4.82638 2.3014 0
M  V30 11609 C 1098.03 -3.40394 3.96143 0
M  V30 11610 H 1099.73 -1.73194 2.44222 0
M  V30 11611 H 1097.27 -0.83182 1.17545 0
M  V30 11612 H 1099.23 -3.95715 1.44872 0
M  V30 11613 H 1097.95 -3.23675 0.43616 0
M  V30 11614 H 1096.61 -2.685 2.49606 0
M  V30 11615 H 1096.26 -4.85711 1.30743 0
M  V30 11616 H 1095.96 -5.01879 3.056 0
M  V30 11617 H 1097.48 -5.63359 2.35497 0
M  V30 11618 H 1098.9 -4.08796 4.01943 0
M  V30 11619 H 1097.29 -3.7117 4.71543 0
M  V30 11620 H 1098.36 -2.38767 4.22041 0
M  V30 11621 N 1099.71 -1.29285 -0.901281 0
M  V30 11622 C 1101.12 -1.15499 -1.46686 0
M  V30 11623 C 1101.47 0.250446 -1.94595 0
M  V30 11624 O 1100.59 1.14581 -1.83576 0
M  V30 11625 C 1101.19 -2.0906 -2.66607 0
M  V30 11626 C 1099.75 -1.99301 -3.19306 0
M  V30 11627 C 1098.89 -2.00079 -1.91999 0
M  V30 11628 H 1101.85 -1.41793 -0.712773 0
M  V30 11629 H 1101.87 -1.6619 -3.42288 0
M  V30 11630 H 1101.38 -3.11341 -2.31707 0
M  V30 11631 H 1099.48 -1.00103 -3.58901 0
M  V30 11632 H 1099.59 -2.86885 -3.8371 0
M  V30 11633 H 1097.96 -1.44655 -2.09636 0
M  V30 11634 H 1098.74 -3.04061 -1.59379 0
M  V30 11635 N 1101.18 1.11143 -1.11736 0
M  V30 11636 C 1102.41 1.87285 -0.891007 0
M  V30 11637 C 1102.83 1.79758 0.553971 0
M  V30 11638 O 1102.19 1.16221 1.39149 0
M  V30 11639 C 1102.24 3.33924 -1.36114 0
M  V30 11640 O 1101.34 4.08917 -0.534851 0
M  V30 11641 H 1100.69 0.581418 -0.320701 0
M  V30 11642 H 1103.22 1.40469 -1.4876 0
M  V30 11643 H 1103.23 3.84772 -1.35701 0
M  V30 11644 H 1101.9 3.38719 -2.41334 0
M  V30 11645 H 1100.48 3.67954 -0.605355 0
M  V30 11646 N 1102.66 0.908147 1.28804 0
M  V30 11647 C 1103.91 0.539201 1.95501 0
M  V30 11648 C 1104.24 -0.913759 1.7136 0
M  V30 11649 O 1103.52 -1.64904 1.03136 0
M  V30 11650 C 1103.8 0.842372 3.50109 0
M  V30 11651 C 1103.65 2.34765 3.83673 0
M  V30 11652 C 1104.97 0.334658 4.38826 0
M  V30 11653 H 1102.09 0.197373 0.71008 0
M  V30 11654 H 1104.73 1.13637 1.52272 0
M  V30 11655 H 1102.88 0.334143 3.8706 0
M  V30 11656 H 1104.55 2.92607 3.56621 0
M  V30 11657 H 1102.8 2.80494 3.30916 0
M  V30 11658 H 1103.47 2.51034 4.91616 0
M  V30 11659 H 1105.94 0.769961 4.08914 0
M  V30 11660 H 1104.82 0.575914 5.4587 0
M  V30 11661 H 1105.08 -0.764878 4.35433 0
M  V30 11662 N 1104.14 -1.42577 0.671525 0
M  V30 11663 C 1105.09 -2.32591 -0.0205354 0
M  V30 11664 C 1106.08 -1.4964 -0.793993 0
M  V30 11665 O 1107.29 -1.65733 -0.702327 0
M  V30 11666 H 1103.66 -0.75157 -0.0254344 0
M  V30 11667 H 1105.63 -2.88662 0.756082 0
M  V30 11668 C 1104.38 -3.34175 -0.960316 0
M  V30 11669 H 1103.71 -3.98041 -0.374577 0
M  V30 11670 H 1105.15 -3.99752 -1.4133 0
M  V30 11671 C 1103.61 -2.66184 -2.06513 0
M  V30 11672 O 1104.14 -2.49125 -3.15119 0
M  V30 11673 N 1102.34 -2.25261 -1.83591 0
M  V30 11674 H 1101.89 -2.39336 -0.952689 0
M  V30 11675 H 1101.85 -1.80101 -2.57703 0
M  V30 11676 N 1105.62 -0.414636 -1.52048 0
M  V30 11677 C 1106.57 0.422766 -2.28726 0
M  V30 11678 C 1107.56 1.04099 -1.3364 0
M  V30 11679 O 1108.77 0.978559 -1.51077 0
M  V30 11680 H 1105.14 0.155123 -0.735827 0
M  V30 11681 H 1107.11 -0.245091 -2.97392 0
M  V30 11682 C 1105.86 1.52418 -3.12513 0
M  V30 11683 H 1105.18 1.05781 -3.85552 0
M  V30 11684 H 1106.62 2.08382 -3.6926 0
M  V30 11685 C 1105.08 2.49465 -2.26426 0
M  V30 11686 O 1105.61 3.53479 -1.90829 0
M  V30 11687 N 1103.82 2.19806 -1.90088 0
M  V30 11688 H 1103.37 1.35253 -2.19236 0
M  V30 11689 H 1103.32 2.84984 -1.32783 0
M  V30 11690 N 1107.1 1.56929 -0.145233 0
M  V30 11691 C 1108.06 2.15483 0.781002 0
M  V30 11692 C 1109.06 1.09617 1.17647 0
M  V30 11693 O 1110.25 1.35265 1.09768 0
M  V30 11694 C 1107.38 2.7165 2.05959 0
M  V30 11695 H 1108.57 2.98667 0.271685 0
M  V30 11696 H 1106.13 1.55952 0.1042 0
M  V30 11697 H 1106.86 1.92127 2.61262 0
M  V30 11698 H 1106.65 3.491 1.78526 0
M  V30 11699 H 1108.14 3.16769 2.72116 0
M  V30 11700 N 1108.58 -0.128553 1.57075 0
M  V30 11701 C 1109.49 -1.17718 2.02927 0
M  V30 11702 C 1110.5 -1.45912 0.947932 0
M  V30 11703 O 1111.68 -1.57217 1.25876 0
M  V30 11704 C 1108.74 -2.48625 2.41633 0
M  V30 11705 C 1107.8 -2.27914 3.63804 0
M  V30 11706 C 1107.04 -3.52579 4.00654 0
M  V30 11707 O 1107.26 -4.59505 3.37952 0
M  V30 11708 O 1106.19 -3.44147 4.93808 0
M  V30 11709 H 1110.02 -0.817846 2.92481 0
M  V30 11710 H 1107.6 -0.338649 1.45511 0
M  V30 11711 H 1109.49 -3.2577 2.67305 0
M  V30 11712 H 1108.16 -2.84052 1.55229 0
M  V30 11713 H 1107.07 -1.4866 3.43294 0
M  V30 11714 H 1108.4 -1.97395 4.50883 0
M  V30 11715 N 1110.05 -1.5248 -0.398459 0
M  V30 11716 C 1111.46 -1.59107 -0.976817 0
M  V30 11717 C 1111.82 -0.438104 -1.91246 0
M  V30 11718 O 1110.94 0.440111 -2.11877 0
M  V30 11719 C 1111.54 -2.88373 -1.77838 0
M  V30 11720 C 1110.09 -2.97445 -2.30659 0
M  V30 11721 C 1109.24 -2.5414 -1.10942 0
M  V30 11722 H 1112.19 -1.57695 -0.178324 0
M  V30 11723 H 1112.21 -2.74327 -2.63676 0
M  V30 11724 H 1111.73 -3.72269 -1.09714 0
M  V30 11725 H 1109.83 -2.18066 -3.02123 0
M  V30 11726 H 1109.94 -4.019 -2.60794 0
M  V30 11727 H 1108.3 -2.08237 -1.46661 0
M  V30 11728 H 1109.09 -3.40421 -0.443684 0
M  V30 11729 N 1111.53 0.65634 -1.43283 0
M  V30 11730 C 1112.78 1.41347 -1.44449 0
M  V30 11731 C 1113.1 1.94879 -0.0687217 0
M  V30 11732 O 1112.37 1.74235 0.895492 0
M  V30 11733 H 1110.95 0.524578 -0.531815 0
M  V30 11734 H 1113.61 0.774292 -1.7886 0
M  V30 11735 H 1112.71 2.25737 -2.15521 0
M  V30 11736 N 1113.01 1.29761 0.894412 0
M  V30 11737 C 1113.96 1.15341 1.99912 0
M  V30 11738 C 1114.93 0.0453488 1.66038 0
M  V30 11739 O 1116.11 0.213829 1.89598 0
M  V30 11740 C 1113.25 0.841432 3.34685 0
M  V30 11741 C 1112.36 2.03046 3.81309 0
M  V30 11742 C 1111.5 1.65739 5.04682 0
M  V30 11743 C 1110.54 2.81191 5.43689 0
M  V30 11744 N 1109.68 2.44244 6.58247 0
M  V30 11745 H 1114.52 2.09854 2.11578 0
M  V30 11746 H 1112.05 1.04421 1.03608 0
M  V30 11747 H 1114.01 0.641211 4.12243 0
M  V30 11748 H 1112.64 -0.066797 3.22731 0
M  V30 11749 H 1111.69 2.34222 2.9974 0
M  V30 11750 H 1113 2.89538 4.06164 0
M  V30 11751 H 1112.16 1.42036 5.8984 0
M  V30 11752 H 1110.9 0.764019 4.81678 0
M  V30 11753 H 1109.9 3.0557 4.57064 0
M  V30 11754 H 1111.13 3.712 5.68672 0
M  V30 11755 H 1109.07 1.57402 6.36837 0
M  V30 11756 H 1108.99 3.24269 6.82924 0
M  V30 11757 H 1110.26 2.23875 7.46659 0
M  V30 11758 N 1114.49 -1.10549 1.12324 0
M  V30 11759 C 1115.9 -1.34508 0.85905 0
M  V30 11760 C 1116.1 -1.94901 -0.511468 0
M  V30 11761 O 1115.16 -2.18793 -1.2604 0
M  V30 11762 C 1116.47 -2.26788 1.97453 0
M  V30 11763 C 1118.02 -2.40328 2.00528 0
M  V30 11764 C 1118.5 -3.35936 3.11305 0
M  V30 11765 N 1119.99 -3.43504 3.1074 0
M  V30 11766 C 1120.72 -4.17449 3.93096 0
M  V30 11767 N 1120.22 -4.9429 4.85437 0
M  V30 11768 N 1122.01 -4.13055 3.81237 0
M  V30 11769 H 1114.16 -0.697171 2.00632 0
M  V30 11770 H 1116.42 -0.369548 0.873005 0
M  V30 11771 H 1116.13 -1.89621 2.96204 0
M  V30 11772 H 1116 -3.27086 1.87869 0
M  V30 11773 H 1118.39 -2.76765 1.02397 0
M  V30 11774 H 1118.47 -1.39849 2.14186 0
M  V30 11775 H 1118.12 -3.00225 4.09667 0
M  V30 11776 H 1118.05 -4.36291 2.94886 0
M  V30 11777 H 1120.54 -2.88702 2.43843 0
M  V30 11778 H 1120.85 -5.48109 5.4479 0
M  V30 11779 H 1119.2 -4.93419 4.89452 0
M  V30 11780 H 1122.39 -3.52117 3.08433 0
M  V30 11781 H 1122.56 -4.70424 4.45651 0
M  V30 11782 N 1115.97 -0.914965 -1.28321 0
M  V30 11783 C 1117.2 -0.563835 -1.98757 0
M  V30 11784 C 1117.6 0.859528 -1.68549 0
M  V30 11785 O 1116.95 1.58105 -0.935336 0
M  V30 11786 C 1117.01 -0.694539 -3.52727 0
M  V30 11787 C 1116.67 -2.08767 -4.06528 0
M  V30 11788 C 1117.67 -3.06052 -4.20272 0
M  V30 11789 C 1115.35 -2.40118 -4.4119 0
M  V30 11790 C 1117.35 -4.32803 -4.67932 0
M  V30 11791 C 1115.04 -3.67108 -4.88544 0
M  V30 11792 C 1116.03 -4.63265 -5.01871 0
M  V30 11793 O 1115.72 -5.87997 -5.48192 0
M  V30 11794 H 1115.45 -0.213557 -0.641381 0
M  V30 11795 H 1118.01 -1.23062 -1.64453 0
M  V30 11796 H 1116.24 0.0293186 -3.86689 0
M  V30 11797 H 1117.93 -0.350335 -4.04385 0
M  V30 11798 H 1118.69 -2.8315 -3.93765 0
M  V30 11799 H 1114.57 -1.66025 -4.30066 0
M  V30 11800 H 1118.12 -5.07861 -4.78249 0
M  V30 11801 H 1114.01 -3.89834 -5.14489 0
M  V30 11802 H 1114.78 -5.90804 -5.66474 0
M  V30 11803 N 1117.44 1.42219 -0.679077 0
M  V30 11804 C 1118.69 2.00703 -0.200309 0
M  V30 11805 C 1119.01 1.54339 1.20161 0
M  V30 11806 O 1120.21 2.0527 1.77698 0
M  V30 11807 C 1118.67 3.58586 -0.307248 0
M  V30 11808 C 1118.28 4.13937 -1.71349 0
M  V30 11809 C 1120.02 4.24351 0.112588 0
M  V30 11810 C 1117.93 5.64198 -1.77297 0
M  V30 11811 H 1116.86 0.750638 -0.0711279 0
M  V30 11812 H 1119.51 1.62893 -0.844881 0
M  V30 11813 H 1117.89 3.93921 0.40529 0
M  V30 11814 H 1119.06 3.90054 -2.45346 0
M  V30 11815 H 1117.38 3.60639 -2.08155 0
M  V30 11816 H 1119.98 5.34627 0.0883578 0
M  V30 11817 H 1120.32 4.00142 1.14857 0
M  V30 11818 H 1120.85 3.93992 -0.549093 0
M  V30 11819 H 1117.59 5.93211 -2.78892 0
M  V30 11820 H 1117.11 5.90058 -1.07662 0
M  V30 11821 H 1118.79 6.2869 -1.52835 0
M  V30 11822 N 1118.92 0.422693 1.51826 0
M  V30 11823 C 1120.15 -0.14753 2.06073 0
M  V30 11824 C 1120.56 -1.38264 1.2915 0
M  V30 11825 O 1119.9 -1.8052 0.340306 0
M  V30 11826 C 1119.96 -0.549558 3.55275 0
M  V30 11827 C 1119.63 0.576704 4.53347 0
M  V30 11828 C 1120.63 1.44442 4.99432 0
M  V30 11829 C 1118.31 0.753264 4.9662 0
M  V30 11830 C 1120.3 2.47352 5.87448 0
M  V30 11831 C 1117.99 1.78566 5.84429 0
M  V30 11832 C 1118.99 2.64419 6.29739 0
M  V30 11833 O 1118.68 3.65888 7.15808 0
M  V30 11834 H 1118.41 -0.0178911 0.675763 0
M  V30 11835 H 1120.96 0.596258 1.96555 0
M  V30 11836 H 1119.19 -1.34583 3.62525 0
M  V30 11837 H 1120.88 -1.04925 3.92104 0
M  V30 11838 H 1121.65 1.31948 4.66706 0
M  V30 11839 H 1117.53 0.0946405 4.60903 0
M  V30 11840 H 1121.07 3.14397 6.22736 0
M  V30 11841 H 1116.97 1.91086 6.16568 0
M  V30 11842 H 1117.74 3.62294 7.33952 0
M  V30 11843 N 1120.4 -1.5685 0.153553 0
M  V30 11844 C 1121.35 -2.1709 -0.783626 0
M  V30 11845 C 1122.32 -1.10567 -1.23952 0
M  V30 11846 O 1123.5 -1.38638 -1.31088 0
M  V30 11847 C 1120.64 -2.80183 -2.01473 0
M  V30 11848 C 1119.75 -4.01117 -1.60403 0
M  V30 11849 C 1118.89 -4.5219 -2.78743 0
M  V30 11850 C 1117.93 -5.65574 -2.34079 0
M  V30 11851 N 1117.07 -6.11235 -3.4545 0
M  V30 11852 H 1121.91 -2.96836 -0.263127 0
M  V30 11853 H 1119.44 -1.46625 -0.11816 0
M  V30 11854 H 1121.4 -3.14912 -2.73654 0
M  V30 11855 H 1120.03 -2.03071 -2.50923 0
M  V30 11856 H 1119.08 -3.72325 -0.779631 0
M  V30 11857 H 1120.39 -4.83243 -1.23605 0
M  V30 11858 H 1119.55 -4.89008 -3.59105 0
M  V30 11859 H 1118.29 -3.69085 -3.18791 0
M  V30 11860 H 1117.29 -5.28326 -1.52158 0
M  V30 11861 H 1118.52 -6.50468 -1.95109 0
M  V30 11862 H 1116.46 -5.31064 -3.85106 0
M  V30 11863 H 1116.38 -6.88304 -3.12687 0
M  V30 11864 H 1117.65 -6.527 -4.26149 0
M  V30 11865 N 1121.88 0.120221 -1.57141 0
M  V30 11866 C 1123.12 0.829449 -1.85062 0
M  V30 11867 C 1123.46 1.79585 -0.739116 0
M  V30 11868 O 1122.73 1.92819 0.255147 0
M  V30 11869 C 1123.01 1.58042 -3.23566 0
M  V30 11870 C 1122.87 0.633706 -4.45314 0
M  V30 11871 C 1124.19 2.53688 -3.59625 0
M  V30 11872 H 1121.31 0.300086 -0.67314 0
M  V30 11873 H 1123.95 0.0937393 -1.89769 0
M  V30 11874 H 1122.1 2.20758 -3.19684 0
M  V30 11875 H 1123.77 0.0154836 -4.61297 0
M  V30 11876 H 1122.01 -0.054846 -4.33765 0
M  V30 11877 H 1122.68 1.19577 -5.38893 0
M  V30 11878 H 1125.16 2.01078 -3.6429 0
M  V30 11879 H 1124.04 3.03265 -4.57516 0
M  V30 11880 H 1124.3 3.36296 -2.8698 0
M  V30 11881 N 1123.36 1.52689 0.390367 0
M  V30 11882 C 1124.29 1.80338 1.48325 0
M  V30 11883 C 1125.27 0.655338 1.56969 0
M  V30 11884 O 1126.45 0.902792 1.7194 0
M  V30 11885 C 1123.58 1.97101 2.85952 0
M  V30 11886 C 1122.54 3.12783 2.92148 0
M  V30 11887 C 1121.86 3.14798 4.32211 0
M  V30 11888 C 1123.16 4.5188 2.61919 0
M  V30 11889 H 1124.86 2.71857 1.25437 0
M  V30 11890 H 1122.4 1.30813 0.601995 0
M  V30 11891 H 1124.36 2.15027 3.62411 0
M  V30 11892 H 1123.08 1.02271 3.10174 0
M  V30 11893 H 1121.74 2.94638 2.18137 0
M  V30 11894 H 1121.39 2.17653 4.53471 0
M  V30 11895 H 1121.09 3.92507 4.37278 0
M  V30 11896 H 1122.61 3.34877 5.10578 0
M  V30 11897 H 1124.02 4.70134 3.28096 0
M  V30 11898 H 1122.42 5.31647 2.78337 0
M  V30 11899 H 1123.49 4.58689 1.57266 0
M  V30 11900 N 1124.83 -0.648732 1.43629 0
M  V30 11901 C 1126.25 -1.23001 1.40455 0
M  V30 11902 C 1126.6 -1.95886 0.110897 0
M  V30 11903 O 1125.72 -2.01485 -0.789487 0
M  V30 11904 C 1126.32 -2.23716 2.54434 0
M  V30 11905 C 1124.88 -2.77311 2.54511 0
M  V30 11906 C 1124.02 -1.52024 2.31914 0
M  V30 11907 H 1126.97 -0.440473 1.52465 0
M  V30 11908 H 1126.99 -3.05979 2.26179 0
M  V30 11909 H 1126.51 -1.7064 3.48574 0
M  V30 11910 H 1124.61 -3.34437 1.64263 0
M  V30 11911 H 1124.72 -3.2455 3.52426 0
M  V30 11912 H 1123.08 -1.79531 1.80667 0
M  V30 11913 H 1123.87 -1.00876 3.28145 0
M  V30 11914 N 1126.31 -1.30234 -0.887518 0
M  V30 11915 C 1127.24 -1.12212 -1.99853 0
M  V30 11916 C 1128.26 -0.0660929 -1.62666 0
M  V30 11917 O 1129.45 -0.311853 -1.75755 0
M  V30 11918 C 1126.55 -0.688591 -3.31831 0
M  V30 11919 C 1125.72 -1.82581 -3.97471 0
M  V30 11920 C 1124.78 -1.38126 -5.07748 0
M  V30 11921 O 1123.8 -2.08805 -5.29518 0
M  V30 11922 N 1125.01 -0.258868 -5.79923 0
M  V30 11923 H 1127.77 -2.07901 -2.15864 0
M  V30 11924 H 1125.33 -1.22336 -1.06045 0
M  V30 11925 H 1127.32 -0.374252 -4.02966 0
M  V30 11926 H 1125.89 0.176185 -3.12103 0
M  V30 11927 H 1125.11 -2.3084 -3.19541 0
M  V30 11928 H 1126.4 -2.58798 -4.38065 0
M  V30 11929 H 1125.8 0.330131 -5.64736 0
M  V30 11930 H 1124.36 -0.00396813 -6.518 0
M  V30 11931 N 1127.79 1.09952 -1.12909 0
M  V30 11932 C 1129.04 1.81657 -0.885729 0
M  V30 11933 C 1129.36 1.85863 0.589913 0
M  V30 11934 O 1128.63 1.34028 1.42875 0
M  V30 11935 H 1127.21 0.672743 -0.324694 0
M  V30 11936 H 1129.87 1.33013 -1.42456 0
M  V30 11937 H 1128.97 2.85018 -1.27167 0
M  V30 11938 N 1129.27 0.921757 1.27833 0
M  V30 11939 C 1130.51 0.569378 1.95268 0
M  V30 11940 C 1130.87 -0.878685 1.71163 0
M  V30 11941 O 1130.16 -1.6177 1.02669 0
M  V30 11942 C 1130.36 0.824259 3.47765 0
M  V30 11943 C 1130.19 2.29555 3.86697 0
M  V30 11944 C 1128.96 2.94715 4.10452 0
M  V30 11945 C 1131.15 3.27261 3.96743 0
M  V30 11946 N 1129.14 4.32058 4.36118 0
M  V30 11947 C 1130.51 4.49793 4.26715 0
M  V30 11948 C 1132.56 3.2255 3.79296 0
M  V30 11949 C 1131.26 5.68208 4.41057 0
M  V30 11950 C 1133.29 4.40272 3.9486 0
M  V30 11951 C 1132.65 5.61581 4.25213 0
M  V30 11952 H 1128.75 0.258368 0.738085 0
M  V30 11953 H 1131.34 1.18715 1.54321 0
M  V30 11954 H 1129.51 0.235697 3.87684 0
M  V30 11955 H 1131.24 0.435106 4.02354 0
M  V30 11956 H 1127.99 2.4541 4.05057 0
M  V30 11957 H 1128.42 5.03092 4.5302 0
M  V30 11958 H 1133.06 2.29835 3.54875 0
M  V30 11959 H 1130.78 6.61396 4.64308 0
M  V30 11960 H 1134.36 4.38138 3.82787 0
M  V30 11961 H 1133.24 6.51154 4.36998 0
M  V30 11962 N 1130.75 -1.41857 0.686609 0
M  V30 11963 C 1131.69 -2.30795 0.015643 0
M  V30 11964 C 1132.66 -1.46616 -0.780569 0
M  V30 11965 O 1133.85 -1.75423 -0.750424 0
M  V30 11966 C 1130.99 -3.32577 -0.921229 0
M  V30 11967 C 1130.1 -4.3184 -0.117585 0
M  V30 11968 C 1129.24 -5.20693 -1.05128 0
M  V30 11969 C 1128.28 -6.11629 -0.240018 0
M  V30 11970 N 1127.41 -6.92995 -1.12704 0
M  V30 11971 H 1132.25 -2.87615 0.77985 0
M  V30 11972 H 1129.79 -1.41661 0.396298 0
M  V30 11973 H 1131.75 -3.90129 -1.47836 0
M  V30 11974 H 1130.38 -2.77328 -1.65193 0
M  V30 11975 H 1129.43 -3.7631 0.55634 0
M  V30 11976 H 1130.74 -4.96168 0.511753 0
M  V30 11977 H 1129.9 -5.83035 -1.67795 0
M  V30 11978 H 1128.63 -4.5657 -1.71449 0
M  V30 11979 H 1127.64 -5.48345 0.399779 0
M  V30 11980 H 1128.86 -6.77805 0.419266 0
M  V30 11981 H 1126.81 -6.31489 -1.77644 0
M  V30 11982 H 1126.73 -7.53974 -0.553065 0
M  V30 11983 H 1128 -7.59813 -1.7408 0
M  V30 11984 N 1132.22 -0.430739 -1.51599 0
M  V30 11985 C 1133.47 0.137657 -2.01631 0
M  V30 11986 C 1133.79 1.43787 -1.31721 0
M  V30 11987 O 1133.06 1.90668 -0.449717 0
M  V30 11988 H 1131.64 0.0538611 -0.745056 0
M  V30 11989 H 1134.31 -0.571935 -1.86319 0
M  V30 11990 H 1133.4 0.318305 -3.10473 0
M  V30 11991 N 1133.7 1.56767 -0.161869 0
M  V30 11992 C 1134.93 2.01401 0.49523 0
M  V30 11993 C 1135.35 1.04133 1.56646 0
M  V30 11994 O 1134.71 0.0193747 1.8129 0
M  V30 11995 C 1134.76 3.44695 1.05913 0
M  V30 11996 O 1133.86 3.50475 2.1735 0
M  V30 11997 H 1133.2 0.65314 0.1196 0
M  V30 11998 H 1135.73 2.02903 -0.26298 0
M  V30 11999 H 1135.74 3.83805 1.3841 0
M  V30 12000 H 1134.42 4.14991 0.274749 0
M  V30 12001 H 1133 3.23218 1.85969 0
M  V30 12002 N 1135.18 -0.111886 1.57202 0
M  V30 12003 C 1136.59 -0.668261 1.74331 0
M  V30 12004 C 1136.94 -1.79959 0.781609 0
M  V30 12005 O 1136.07 -2.16356 -0.043833 0
M  V30 12006 C 1136.66 -1.219 3.1611 0
M  V30 12007 C 1135.22 -1.7216 3.34721 0
M  V30 12008 C 1134.37 -0.624223 2.70183 0
M  V30 12009 H 1137.32 0.114081 1.58289 0
M  V30 12010 H 1137.34 -2.08858 3.18054 0
M  V30 12011 H 1136.85 -0.395381 3.86081 0
M  V30 12012 H 1134.95 -2.56976 2.69803 0
M  V30 12013 H 1135.07 -1.82615 4.42932 0
M  V30 12014 H 1133.43 -1.05958 2.31614 0
M  V30 12015 H 1134.21 0.188537 3.42782 0
M  V30 12016 N 1136.66 -1.52894 -0.382264 0
M  V30 12017 C 1137.62 -1.77497 -1.45008 0
M  V30 12018 C 1138.62 -0.64509 -1.47293 0
M  V30 12019 O 1139.81 -0.913192 -1.48346 0
M  V30 12020 C 1136.94 -1.88188 -2.8425 0
M  V30 12021 H 1138.14 -2.72849 -1.24473 0
M  V30 12022 H 1135.69 -1.43717 -0.61441 0
M  V30 12023 H 1136.42 -0.948451 -3.10121 0
M  V30 12024 H 1136.21 -2.70353 -2.83992 0
M  V30 12025 H 1137.7 -2.08873 -3.6161 0
M  V30 12026 N 1138.14 0.641106 -1.43971 0
M  V30 12027 C 1139.39 1.39676 -1.45511 0
M  V30 12028 C 1139.7 1.95403 -0.0877084 0
M  V30 12029 O 1140.91 2.71493 0.0193965 0
M  V30 12030 C 1139.36 2.52839 -2.56126 0
M  V30 12031 C 1138.97 2.03668 -3.99028 0
M  V30 12032 C 1140.71 3.30118 -2.66875 0
M  V30 12033 C 1138.62 3.14114 -5.01085 0
M  V30 12034 H 1137.55 0.524854 -0.541336 0
M  V30 12035 H 1140.2 0.69075 -1.70003 0
M  V30 12036 H 1138.58 3.25968 -2.24857 0
M  V30 12037 H 1139.76 1.3747 -4.39817 0
M  V30 12038 H 1138.07 1.39233 -3.92432 0
M  V30 12039 H 1140.67 4.12434 -3.40297 0
M  V30 12040 H 1141.01 3.78946 -1.72353 0
M  V30 12041 H 1141.55 2.64075 -2.97505 0
M  V30 12042 H 1138.28 2.70241 -5.97202 0
M  V30 12043 H 1137.8 3.78985 -4.64898 0
M  V30 12044 H 1139.48 3.79051 -5.24337 0
M  V30 12045 N 1139.62 1.30703 0.880598 0
M  V30 12046 C 1140.86 1.19778 1.63277 0
M  V30 12047 C 1141.19 -0.246521 1.92931 0
M  V30 12048 O 1140.45 -1.19226 1.55189 0
M  V30 12049 C 1140.74 1.97628 2.97789 0
M  V30 12050 C 1140.41 3.47213 2.87669 0
M  V30 12051 C 1139.07 3.88004 2.84617 0
M  V30 12052 C 1141.42 4.4245 2.75477 0
M  V30 12053 C 1138.75 5.22315 2.67216 0
M  V30 12054 C 1141.1 5.76874 2.59614 0
M  V30 12055 C 1139.77 6.16898 2.54939 0
M  V30 12056 H 1139.04 0.438298 0.597475 0
M  V30 12057 H 1141.69 1.61853 1.02352 0
M  V30 12058 H 1139.99 1.48201 3.6269 0
M  V30 12059 H 1141.69 1.86563 3.54958 0
M  V30 12060 H 1138.28 3.14802 2.90857 0
M  V30 12061 H 1142.46 4.11875 2.76899 0
M  V30 12062 H 1137.72 5.52412 2.62014 0
M  V30 12063 H 1141.89 6.50304 2.49155 0
M  V30 12064 H 1139.52 7.20916 2.41214 0
M  V30 12065 N 1141.09 -1.09351 1.1349 0
M  V30 12066 C 1142.03 -2.15852 0.770763 0
M  V30 12067 C 1143.04 -1.61468 -0.207866 0
M  V30 12068 O 1144.23 -1.78496 0.0124385 0
M  V30 12069 C 1141.33 -3.38681 0.121871 0
M  V30 12070 C 1140.5 -4.22477 1.13279 0
M  V30 12071 C 1139.56 -5.23728 0.509448 0
M  V30 12072 O 1138.59 -5.57052 1.16967 0
M  V30 12073 N 1139.79 -5.76041 -0.718159 0
M  V30 12074 H 1142.55 -2.47696 1.6872 0
M  V30 12075 H 1140.11 -1.25074 1.02801 0
M  V30 12076 H 1142.11 -4.03531 -0.307404 0
M  V30 12077 H 1140.68 -3.04718 -0.697527 0
M  V30 12078 H 1139.9 -3.53753 1.73933 0
M  V30 12079 H 1141.18 -4.75288 1.81601 0
M  V30 12080 H 1140.58 -5.51183 -1.27331 0
M  V30 12081 H 1139.14 -6.4262 -1.09008 0
M  V30 12082 N 1142.57 -0.928524 -1.27343 0
M  V30 12083 C 1143.52 -0.399267 -2.24477 0
M  V30 12084 C 1144.51 0.496927 -1.53034 0
M  V30 12085 O 1145.7 0.334237 -1.73816 0
M  V30 12086 C 1142.83 0.346059 -3.41551 0
M  V30 12087 C 1141.91 -0.566699 -4.20297 0
M  V30 12088 N 1142.3 -1.6869 -4.76841 0
M  V30 12089 C 1140.6 -0.369865 -4.44464 0
M  V30 12090 C 1141.3 -2.25466 -5.36228 0
M  V30 12091 N 1140.28 -1.54414 -5.21207 0
M  V30 12092 H 1144.08 -1.25456 -2.65778 0
M  V30 12093 H 1141.59 -0.782894 -1.42283 0
M  V30 12094 H 1143.59 0.742171 -4.10241 0
M  V30 12095 H 1142.25 1.19827 -3.01781 0
M  V30 12096 H 1143.26 -2.06926 -4.74765 0
M  V30 12097 H 1139.94 0.441619 -4.15158 0
M  V30 12098 H 1141.33 -3.19779 -5.90924 0
M  V30 12099 N 1144.05 1.41491 -0.694123 0
M  V30 12100 C 1145.28 2.05579 -0.233466 0
M  V30 12101 C 1145.69 1.5223 1.11675 0
M  V30 12102 O 1145.05 0.669937 1.69759 0
M  V30 12103 C 1145.1 3.61047 -0.180967 0
M  V30 12104 O 1144.82 4.12421 -1.47785 0
M  V30 12105 C 1146.32 4.42278 0.300853 0
M  V30 12106 H 1143.54 0.662097 -0.108943 0
M  V30 12107 H 1146.09 1.81288 -0.946299 0
M  V30 12108 H 1144.24 3.84381 0.482678 0
M  V30 12109 H 1144.66 5.06454 -1.364 0
M  V30 12110 H 1146.13 5.51256 0.286464 0
M  V30 12111 H 1146.61 4.18276 1.33948 0
M  V30 12112 H 1147.21 4.24004 -0.331741 0
M  V30 12113 N 1145.53 0.438773 1.51369 0
M  V30 12114 C 1146.46 -0.417215 2.24354 0
M  V30 12115 C 1147.44 -1.02351 1.26345 0
M  V30 12116 O 1148.62 -1.06569 1.55484 0
M  V30 12117 C 1145.75 -1.58163 2.99503 0
M  V30 12118 C 1144.8 -1.09588 4.1218 0
M  V30 12119 S 1145.63 -0.0367491 5.35487 0
M  V30 12120 C 1146.78 -1.2058 6.14175 0
M  V30 12121 H 1147.02 0.202416 2.9661 0
M  V30 12122 H 1144.55 0.223306 1.52777 0
M  V30 12123 H 1146.51 -2.24917 3.43399 0
M  V30 12124 H 1145.17 -2.17268 2.26833 0
M  V30 12125 H 1144.36 -1.96667 4.64045 0
M  V30 12126 H 1143.96 -0.506564 3.70554 0
M  V30 12127 H 1146.26 -2.12387 6.43349 0
M  V30 12128 H 1147.2 -0.727087 7.04357 0
M  V30 12129 H 1147.61 -1.44501 5.45692 0
M  V30 12130 N 1147.01 -1.56678 0.170181 0
M  V30 12131 C 1148.42 -1.58512 -0.185999 0
M  V30 12132 C 1148.62 -1.18548 -1.62937 0
M  V30 12133 O 1147.68 -0.896554 -2.36047 0
M  V30 12134 C 1148.99 -3.00554 0.0937842 0
M  V30 12135 C 1150.54 -3.12984 0.0319057 0
M  V30 12136 C 1151.01 -4.57115 0.284664 0
M  V30 12137 N 1152.5 -4.62617 0.2324 0
M  V30 12138 C 1153.24 -5.71988 0.40216 0
M  V30 12139 N 1152.74 -6.89921 0.630915 0
M  V30 12140 N 1154.53 -5.61082 0.338144 0
M  V30 12141 H 1146.68 -1.80944 1.11235 0
M  V30 12142 H 1148.94 -0.838586 0.442128 0
M  V30 12143 H 1148.65 -3.34265 1.09362 0
M  V30 12144 H 1148.52 -3.72151 -0.615118 0
M  V30 12145 H 1150.91 -2.791 -0.958502 0
M  V30 12146 H 1150.99 -2.43825 0.773501 0
M  V30 12147 H 1150.63 -4.91707 1.27227 0
M  V30 12148 H 1150.56 -5.2443 -0.477529 0
M  V30 12149 H 1153.06 -3.7785 0.0611933 0
M  V30 12150 H 1153.37 -7.69153 0.749931 0
M  V30 12151 H 1151.71 -6.91787 0.667516 0
M  V30 12152 H 1154.9 -4.67826 0.16003 0
M  V30 12153 H 1155.08 -6.46265 0.473872 0
M  V30 12154 N 1148.48 0.103547 -1.57259 0
M  V30 12155 C 1149.42 1.15225 -1.98131 0
M  V30 12156 C 1150.43 1.36793 -0.882692 0
M  V30 12157 O 1151.62 1.35595 -1.16088 0
M  V30 12158 C 1148.72 2.50941 -2.27776 0
M  V30 12159 C 1147.89 2.49765 -3.59077 0
M  V30 12160 C 1146.95 3.67344 -3.76756 0
M  V30 12161 O 1145.98 3.50221 -4.48702 0
M  V30 12162 N 1147.18 4.86504 -3.16692 0
M  V30 12163 H 1149.94 0.804448 -2.88702 0
M  V30 12164 H 1147.5 0.292636 -1.59233 0
M  V30 12165 H 1149.5 3.28186 -2.36804 0
M  V30 12166 H 1148.07 2.77843 -1.43255 0
M  V30 12167 H 1147.29 1.58125 -3.61096 0
M  V30 12168 H 1148.57 2.4605 -4.4535 0
M  V30 12169 H 1147.97 5.03319 -2.58236 0
M  V30 12170 H 1146.53 5.61371 -3.31218 0
M  V30 12171 N 1149.96 1.53094 0.37415 0
M  V30 12172 C 1151.21 1.69111 1.11934 0
M  V30 12173 C 1151.54 0.437252 1.89213 0
M  V30 12174 O 1150.82 -0.565298 1.86104 0
M  V30 12175 C 1151.1 2.93559 2.08554 0
M  V30 12176 C 1150.95 4.29082 1.3494 0
M  V30 12177 C 1152.27 3.13586 3.08791 0
M  V30 12178 H 1149.39 0.615383 0.405553 0
M  V30 12179 H 1152.03 1.85719 0.401078 0
M  V30 12180 H 1150.18 2.79531 2.69805 0
M  V30 12181 H 1151.85 4.54906 0.765402 0
M  V30 12182 H 1150.1 4.28884 0.651238 0
M  V30 12183 H 1150.77 5.12275 2.05616 0
M  V30 12184 H 1153.24 3.26743 2.57639 0
M  V30 12185 H 1152.12 4.02112 3.73627 0
M  V30 12186 H 1152.38 2.28475 3.78486 0
M  V30 12187 N 1151.44 -0.633461 1.44309 0
M  V30 12188 C 1152.37 -1.75676 1.53819 0
M  V30 12189 C 1153.35 -1.65537 0.391365 0
M  V30 12190 O 1154.54 -1.84332 0.611181 0
M  V30 12191 C 1151.67 -3.14197 1.47979 0
M  V30 12192 C 1150.62 -3.39122 2.61113 0
M  V30 12193 C 1149.95 -4.77648 2.40325 0
M  V30 12194 C 1151.25 -3.31914 4.03274 0
M  V30 12195 H 1152.94 -1.67974 2.47841 0
M  V30 12196 H 1150.49 -0.8067 1.19283 0
M  V30 12197 H 1152.44 -3.92553 1.53233 0
M  V30 12198 H 1151.16 -3.22677 0.504718 0
M  V30 12199 H 1149.82 -2.63145 2.55245 0
M  V30 12200 H 1149.47 -4.82829 1.41016 0
M  V30 12201 H 1149.17 -4.95284 3.16177 0
M  V30 12202 H 1150.69 -5.58237 2.47394 0
M  V30 12203 H 1152.11 -4.00178 4.10524 0
M  V30 12204 H 1150.5 -3.61085 4.7931 0
M  V30 12205 H 1151.57 -2.29761 4.2701 0
M  V30 12206 N 1152.92 -1.31168 -0.873655 0
M  V30 12207 C 1153.83 -1.20458 -2.01313 0
M  V30 12208 C 1154.84 -0.122074 -1.73571 0
M  V30 12209 O 1156.02 -0.339176 -1.98523 0
M  V30 12210 C 1153.09 -0.90876 -3.34578 0
M  V30 12211 C 1152.15 -2.07779 -3.75668 0
M  V30 12212 C 1151.38 -1.79599 -5.02573 0
M  V30 12213 O 1151.6 -0.729338 -5.65718 0
M  V30 12214 O 1150.54 -2.65169 -5.40341 0
M  V30 12215 H 1154.36 -2.16207 -2.13279 0
M  V30 12216 H 1151.95 -1.10871 -1.00139 0
M  V30 12217 H 1153.83 -0.759469 -4.145 0
M  V30 12218 H 1152.5 0.0187249 -3.23695 0
M  V30 12219 H 1151.41 -2.28247 -2.96402 0
M  V30 12220 H 1152.74 -2.9874 -3.91172 0
M  V30 12221 N 1154.4 1.08748 -1.14068 0
M  V30 12222 C 1155.81 1.62551 -0.918379 0
M  V30 12223 C 1156.16 1.8852 0.543583 0
M  V30 12224 O 1155.28 1.64007 1.41176 0
M  V30 12225 C 1155.88 2.95309 -1.66066 0
M  V30 12226 C 1154.44 3.4591 -1.48403 0
M  V30 12227 C 1153.58 2.20204 -1.6854 0
M  V30 12228 H 1156.54 0.920196 -1.29298 0
M  V30 12229 H 1156.56 3.63587 -1.12181 0
M  V30 12230 H 1156.07 2.76377 -2.72465 0
M  V30 12231 H 1154.17 3.69953 -0.443353 0
M  V30 12232 H 1154.28 4.2289 -2.25169 0
M  V30 12233 H 1152.65 2.29203 -1.11077 0
M  V30 12234 H 1153.43 2.03783 -2.76274 0
M  V30 12235 N 1155.87 0.935264 1.26849 0
M  V30 12236 C 1157.12 0.57969 1.94025 0
M  V30 12237 C 1157.45 -0.880295 1.73439 0
M  V30 12238 O 1156.7 -1.64429 1.0612 0
M  V30 12239 C 1157 0.861098 3.46872 0
M  V30 12240 C 1156.67 2.30402 3.87589 0
M  V30 12241 C 1155.33 2.69848 3.98417 0
M  V30 12242 C 1157.68 3.242 4.08098 0
M  V30 12243 C 1155.01 4.02199 4.27145 0
M  V30 12244 C 1157.36 4.56141 4.38313 0
M  V30 12245 C 1156.03 4.9541 4.47354 0
M  V30 12246 H 1155.3 0.212123 0.709989 0
M  V30 12247 H 1157.94 1.18066 1.50774 0
M  V30 12248 H 1156.25 0.177534 3.91398 0
M  V30 12249 H 1157.95 0.564841 3.97002 0
M  V30 12250 H 1154.54 1.98803 3.79704 0
M  V30 12251 H 1158.72 2.94924 3.99166 0
M  V30 12252 H 1153.98 4.32295 4.32355 0
M  V30 12253 H 1158.15 5.28818 4.53128 0
M  V30 12254 H 1155.78 5.97994 4.69368 0
M  V30 12255 N 1157.35 -1.41121 0.701616 0
M  V30 12256 C 1158.77 -1.55162 0.373766 0
M  V30 12257 C 1158.97 -1.6759 -1.11875 0
M  V30 12258 O 1158.02 -1.65768 -1.90465 0
M  V30 12259 C 1159.34 -2.78758 1.12759 0
M  V30 12260 C 1160.89 -2.92561 1.11253 0
M  V30 12261 C 1161.36 -4.19052 1.84822 0
M  V30 12262 N 1162.85 -4.26023 1.81821 0
M  V30 12263 C 1163.59 -5.22771 2.3558 0
M  V30 12264 N 1163.08 -6.25512 2.97836 0
M  V30 12265 N 1164.88 -5.14752 2.25802 0
M  V30 12266 H 1157.03 -1.31299 1.66956 0
M  V30 12267 H 1159.29 -0.633894 0.704898 0
M  V30 12268 H 1159 -2.75804 2.18231 0
M  V30 12269 H 1158.87 -3.70456 0.710095 0
M  V30 12270 H 1161.26 -2.95026 0.0660506 0
M  V30 12271 H 1161.34 -2.0202 1.56913 0
M  V30 12272 H 1160.98 -4.17349 2.89452 0
M  V30 12273 H 1160.91 -5.08577 1.36592 0
M  V30 12274 H 1163.4 -3.52411 1.36438 0
M  V30 12275 H 1163.72 -6.95736 3.36409 0
M  V30 12276 H 1162.06 -6.25997 3.01916 0
M  V30 12277 H 1165.25 -4.33414 1.76833 0
M  V30 12278 H 1165.42 -5.89983 2.68001 0
M  V30 12279 N 1158.83 -0.446794 -1.51134 0
M  V30 12280 C 1159.78 0.359865 -2.27977 0
M  V30 12281 C 1160.75 1.0086 -1.31972 0
M  V30 12282 O 1161.93 1.02569 -1.60886 0
M  V30 12283 C 1159.07 1.44978 -3.1317 0
M  V30 12284 C 1158.19 0.818243 -4.2418 0
M  V30 12285 C 1157.32 1.884 -4.96668 0
M  V30 12286 C 1156.36 1.2314 -5.99586 0
M  V30 12287 N 1155.5 2.23894 -6.65444 0
M  V30 12288 H 1160.34 -0.301775 -2.96468 0
M  V30 12289 H 1157.87 -0.160666 -1.4622 0
M  V30 12290 H 1159.83 2.09308 -3.60896 0
M  V30 12291 H 1158.46 2.08092 -2.46775 0
M  V30 12292 H 1157.51 0.0629889 -3.80348 0
M  V30 12293 H 1158.83 0.301885 -4.97886 0
M  V30 12294 H 1157.98 2.6037 -5.4799 0
M  V30 12295 H 1156.72 2.43411 -4.22614 0
M  V30 12296 H 1155.72 0.497215 -5.47547 0
M  V30 12297 H 1156.95 0.688505 -6.75601 0
M  V30 12298 H 1154.89 2.77967 -5.94197 0
M  V30 12299 H 1154.81 1.77176 -7.34945 0
M  V30 12300 H 1156.08 2.95318 -7.21393 0
M  V30 12301 N 1160.31 1.56586 -0.178487 0
M  V30 12302 C 1161.27 2.17091 0.73512 0
M  V30 12303 C 1162.27 1.12088 1.15295 0
M  V30 12304 O 1163.46 1.37563 1.06874 0
M  V30 12305 C 1160.59 2.75957 2.00151 0
M  V30 12306 H 1161.79 2.99176 0.208272 0
M  V30 12307 H 1159.34 1.56138 0.0710967 0
M  V30 12308 H 1160.07 1.97626 2.57127 0
M  V30 12309 H 1159.86 3.52809 1.7108 0
M  V30 12310 H 1161.35 3.2247 2.65335 0
M  V30 12311 N 1161.79 -0.095206 1.57312 0
M  V30 12312 C 1162.73 -1.13438 2.03063 0
M  V30 12313 C 1163.73 -1.41478 0.931679 0
M  V30 12314 O 1164.93 -1.41161 1.11686 0
M  V30 12315 H 1161.31 -0.383042 0.647134 0
M  V30 12316 H 1163.28 -0.722186 2.89529 0
M  V30 12317 C 1162.03 -2.44641 2.47075 0
M  V30 12318 H 1161.35 -2.23908 3.31218 0
M  V30 12319 H 1162.79 -3.15855 2.82863 0
M  V30 12320 C 1161.25 -3.08931 1.34399 0
M  V30 12321 O 1161.78 -3.96021 0.673071 0
M  V30 12322 N 1159.99 -2.6918 1.09501 0
M  V30 12323 H 1159.53 -1.98451 1.6424 0
M  V30 12324 H 1159.49 -3.12522 0.34311 0
M  V30 12325 N 1163.26 -1.53291 -0.366026 0
M  V30 12326 C 1164.21 -1.79697 -1.44836 0
M  V30 12327 C 1165.18 -0.641321 -1.5322 0
M  V30 12328 O 1166.37 -0.883453 -1.69115 0
M  V30 12329 C 1163.51 -1.99223 -2.81788 0
M  V30 12330 C 1162.62 -3.26938 -2.82375 0
M  V30 12331 C 1161.75 -3.36654 -4.10898 0
M  V30 12332 C 1160.79 -4.58404 -4.05626 0
M  V30 12333 N 1159.93 -4.65275 -5.25798 0
M  V30 12334 H 1164.77 -2.72053 -1.21619 0
M  V30 12335 H 1162.31 -1.34768 -0.589577 0
M  V30 12336 H 1164.27 -2.0853 -3.61346 0
M  V30 12337 H 1162.9 -1.10204 -3.03406 0
M  V30 12338 H 1161.95 -3.26587 -1.95052 0
M  V30 12339 H 1163.26 -4.16573 -2.74351 0
M  V30 12340 H 1162.41 -3.4527 -4.98872 0
M  V30 12341 H 1161.15 -2.45035 -4.21674 0
M  V30 12342 H 1160.16 -4.49888 -3.16039 0
M  V30 12343 H 1161.38 -5.51364 -3.96453 0
M  V30 12344 H 1159.33 -3.76557 -5.3716 0
M  V30 12345 H 1159.25 -5.48814 -5.19942 0
M  V30 12346 H 1160.51 -4.78175 -6.15605 0
M  V30 12347 N 1164.74 0.6258 -1.44643 0
M  V30 12348 C 1166.02 1.38439 -1.38181 0
M  V30 12349 C 1166.4 2.11056 -0.0431928 0
M  V30 12350 O 1165.75 2.06683 0.974383 0
M  V30 12351 C 1165.96 2.34639 -2.58352 0
M  V30 12352 C 1167.31 2.97807 -3.02649 0
M  V30 12353 O 1168.33 2.44963 -2.58595 0
M  V30 12354 O 1167.19 3.93682 -3.79048 0
M  V30 12355 H 1164.28 0.619852 -0.54746 0
M  V30 12356 H 1166.83 0.650409 -1.56741 0
M  V30 12357 H 1165.6 1.80116 -3.47382 0
M  V30 12358 H 1165.22 3.15446 -2.42032 0
M  V30 12359 N 1166.22 1.31629 0.866686 0
M  V30 12360 C 1167.47 1.21683 1.62238 0
M  V30 12361 C 1167.8 -0.223767 1.92907 0
M  V30 12362 O 1167.07 -1.15761 1.563 0
M  V30 12363 C 1167.36 2.06443 2.95048 0
M  V30 12364 C 1167.21 3.58818 2.71237 0
M  V30 12365 C 1168.53 1.91634 3.96187 0
M  V30 12366 H 1165.65 0.443389 0.588707 0
M  V30 12367 H 1168.29 1.61453 1.00164 0
M  V30 12368 H 1166.44 1.72654 3.48027 0
M  V30 12369 H 1168.11 4.0276 2.24905 0
M  V30 12370 H 1166.36 3.82085 2.05411 0
M  V30 12371 H 1167.03 4.13436 3.65752 0
M  V30 12372 H 1169.5 2.21209 3.52428 0
M  V30 12373 H 1168.38 2.53236 4.86993 0
M  V30 12374 H 1168.64 0.880564 4.33242 0
M  V30 12375 N 1167.7 -1.08142 1.14644 0
M  V30 12376 C 1168.95 -1.79959 0.910908 0
M  V30 12377 C 1169.26 -1.87296 -0.563866 0
M  V30 12378 O 1170.47 -2.55555 -0.916735 0
M  V30 12379 C 1168.92 -3.23351 1.58025 0
M  V30 12380 C 1168.53 -3.2424 3.09148 0
M  V30 12381 C 1170.28 -3.99834 1.42595 0
M  V30 12382 C 1168.18 -4.62236 3.68906 0
M  V30 12383 H 1167.11 -0.674423 0.33715 0
M  V30 12384 H 1169.76 -1.21441 1.37566 0
M  V30 12385 H 1168.15 -3.82013 1.04318 0
M  V30 12386 H 1169.32 -2.75269 3.69545 0
M  V30 12387 H 1167.63 -2.61253 3.24246 0
M  V30 12388 H 1170.23 -5.01809 1.8464 0
M  V30 12389 H 1170.57 -4.14631 0.372402 0
M  V30 12390 H 1171.11 -3.47648 1.93354 0
M  V30 12391 H 1167.85 -4.52642 4.74126 0
M  V30 12392 H 1167.37 -5.11477 3.1329 0
M  V30 12393 H 1169.05 -5.3121 3.69358 0
M  V30 12394 N 1169.18 -0.941978 -1.26351 0
M  V30 12395 C 1170.43 -0.585711 -1.93009 0
M  V30 12396 C 1170.74 0.879507 -1.74711 0
M  V30 12397 O 1171.95 1.34518 -2.35833 0
M  V30 12398 C 1170.4 -0.996787 -3.45821 0
M  V30 12399 C 1170.01 -2.48367 -3.72851 0
M  V30 12400 C 1171.75 -0.712452 -4.18479 0
M  V30 12401 C 1169.66 -2.83341 -5.19107 0
M  V30 12402 H 1168.59 -0.215342 -0.722595 0
M  V30 12403 H 1171.24 -1.14472 -1.43417 0
M  V30 12404 H 1169.62 -0.366295 -3.94302 0
M  V30 12405 H 1170.8 -3.16328 -3.35072 0
M  V30 12406 H 1169.11 -2.74139 -3.13427 0
M  V30 12407 H 1171.71 -0.95007 -5.26192 0
M  V30 12408 H 1172.05 0.350811 -4.14819 0
M  V30 12409 H 1172.59 -1.3027 -3.75865 0
M  V30 12410 H 1169.32 -3.88633 -5.27868 0
M  V30 12411 H 1168.84 -2.20043 -5.5798 0
M  V30 12412 H 1170.52 -2.71849 -5.87118 0
M  V30 12413 N 1170.66 1.40747 -0.709091 0
M  V30 12414 C 1171.9 2.00233 -0.242836 0
M  V30 12415 C 1172.22 1.56853 1.1686 0
M  V30 12416 O 1173.42 2.08993 1.73304 0
M  V30 12417 C 1171.88 3.57854 -0.383241 0
M  V30 12418 C 1171.49 4.10209 -1.80091 0
M  V30 12419 C 1173.23 4.24494 0.0225511 0
M  V30 12420 C 1171.14 5.60311 -1.89225 0
M  V30 12421 H 1170.07 0.74896 -0.087034 0
M  V30 12422 H 1172.72 1.61064 -0.879243 0
M  V30 12423 H 1171.1 3.94692 0.321642 0
M  V30 12424 H 1172.28 3.84762 -2.53564 0
M  V30 12425 H 1170.59 3.56142 -2.15758 0
M  V30 12426 H 1173.19 5.34694 -0.0250644 0
M  V30 12427 H 1173.53 4.02488 1.06344 0
M  V30 12428 H 1174.06 3.92739 -0.632541 0
M  V30 12429 H 1170.8 5.87162 -2.91412 0
M  V30 12430 H 1170.32 5.87642 -1.20154 0
M  V30 12431 H 1172 6.25306 -1.66136 0
M  V30 12432 N 1172.13 0.454803 1.50895 0
M  V30 12433 C 1173.07 -0.383826 2.25963 0
M  V30 12434 C 1174.08 -0.971263 1.30653 0
M  V30 12435 O 1175.27 -0.862434 1.56283 0
M  V30 12436 C 1172.37 -1.55069 3.01342 0
M  V30 12437 C 1171.54 -1.07899 4.23883 0
M  V30 12438 C 1170.6 -2.118 4.81692 0
M  V30 12439 O 1169.63 -1.70523 5.43057 0
M  V30 12440 N 1170.83 -3.44459 4.67256 0
M  V30 12441 H 1173.59 0.259646 2.98573 0
M  V30 12442 H 1171.15 0.284661 1.59378 0
M  V30 12443 H 1173.15 -2.24236 3.36898 0
M  V30 12444 H 1171.72 -2.09917 2.31633 0
M  V30 12445 H 1170.94 -0.213773 3.9362 0
M  V30 12446 H 1172.22 -0.741501 5.03368 0
M  V30 12447 H 1171.62 -3.80716 4.18416 0
M  V30 12448 H 1170.18 -4.0947 5.07127 0
M  V30 12449 N 1173.61 -1.56489 0.186789 0
M  V30 12450 C 1174.84 -2.01429 -0.459326 0
M  V30 12451 C 1175.25 -1.06611 -1.56303 0
M  V30 12452 O 1174.59 -0.0617053 -1.83596 0
M  V30 12453 C 1174.65 -3.42778 -1.08367 0
M  V30 12454 C 1174.32 -4.56843 -0.119719 0
M  V30 12455 C 1175.32 -5.15594 0.667782 0
M  V30 12456 C 1173 -5.02299 -0.0110494 0
M  V30 12457 C 1174.99 -6.18242 1.551 0
M  V30 12458 C 1172.68 -6.04793 0.875738 0
M  V30 12459 C 1173.68 -6.62637 1.65534 0
M  V30 12460 O 1173.37 -7.63141 2.52728 0
M  V30 12461 H 1173.1 -0.665175 -0.120492 0
M  V30 12462 H 1175.65 -2.03338 0.290283 0
M  V30 12463 H 1173.88 -3.3783 -1.8817 0
M  V30 12464 H 1175.57 -3.71577 -1.63357 0
M  V30 12465 H 1176.34 -4.81348 0.594085 0
M  V30 12466 H 1172.22 -4.56977 -0.607667 0
M  V30 12467 H 1175.76 -6.63319 2.15995 0
M  V30 12468 H 1171.66 -6.38462 0.950581 0
M  V30 12469 H 1172.43 -7.80527 2.46415 0
M  V30 12470 N 1175.09 0.086862 -1.5736 0
M  V30 12471 C 1176.02 1.13614 -1.97907 0
M  V30 12472 C 1177 1.38395 -0.853564 0
M  V30 12473 O 1178.18 1.52018 -1.11457 0
M  V30 12474 C 1175.31 2.48364 -2.30289 0
M  V30 12475 C 1174.36 2.39814 -3.52692 0
M  V30 12476 S 1175.19 1.80673 -5.04101 0
M  V30 12477 C 1176.35 3.17031 -5.39669 0
M  V30 12478 H 1176.58 0.790538 -2.86597 0
M  V30 12479 H 1174.11 0.294847 -1.51559 0
M  V30 12480 H 1176.07 3.25883 -2.49621 0
M  V30 12481 H 1174.73 2.80091 -1.42154 0
M  V30 12482 H 1173.92 3.3915 -3.72818 0
M  V30 12483 H 1173.53 1.70427 -3.32912 0
M  V30 12484 H 1175.82 4.13319 -5.36818 0
M  V30 12485 H 1176.76 3.017 -6.40611 0
M  V30 12486 H 1177.17 3.16942 -4.67128 0
M  V30 12487 N 1176.57 1.53483 0.357892 0
M  V30 12488 C 1177.84 1.60649 1.11585 0
M  V30 12489 C 1178.22 0.418789 2.06904 0
M  V30 12490 O 1177.57 -0.590279 2.20744 0
M  V30 12491 C 1177.78 2.96046 1.84818 0
M  V30 12492 C 1179.13 3.50895 2.39076 0
M  V30 12493 O 1180.15 2.98126 1.94934 0
M  V30 12494 O 1179.01 4.43163 3.19794 0
M  V30 12495 H 1176.11 0.649202 0.512315 0
M  V30 12496 H 1178.65 1.65826 0.360537 0
M  V30 12497 H 1177.43 3.73929 1.15296 0
M  V30 12498 H 1177.05 2.94395 2.6724 0
M  V30 12499 N 1178.05 -0.61812 1.44973 0
M  V30 12500 C 1179.32 -1.37705 1.38913 0
M  V30 12501 C 1179.7 -2.1103 0.054385 0
M  V30 12502 O 1179.05 -2.07197 -0.963409 0
M  V30 12503 C 1179.26 -2.33265 2.59593 0
M  V30 12504 C 1180.61 -2.96197 3.04224 0
M  V30 12505 O 1181.63 -2.43589 2.59891 0
M  V30 12506 O 1180.49 -3.91666 3.8113 0
M  V30 12507 H 1177.59 -0.61694 0.55074 0
M  V30 12508 H 1180.13 -0.642088 1.57084 0
M  V30 12509 H 1178.9 -1.78271 3.48332 0
M  V30 12510 H 1178.53 -3.14158 2.43702 0
M  V30 12511 N 1179.52 -1.32087 -0.859693 0
M  V30 12512 C 1180.77 -1.21716 -1.60836 0
M  V30 12513 C 1181.09 0.220904 -1.94349 0
M  V30 12514 O 1182.29 0.446422 -2.67805 0
M  V30 12515 C 1180.75 -2.13143 -2.89997 0
M  V30 12516 C 1180.36 -3.62003 -2.63928 0
M  V30 12517 C 1182.1 -2.11596 -3.68004 0
M  V30 12518 C 1180.01 -4.45407 -3.89059 0
M  V30 12519 H 1178.94 -0.45199 -0.603507 0
M  V30 12520 H 1181.59 -1.57013 -0.949687 0
M  V30 12521 H 1179.97 -1.70755 -3.57294 0
M  V30 12522 H 1181.14 -4.12701 -2.04974 0
M  V30 12523 H 1179.46 -3.6563 -1.99258 0
M  V30 12524 H 1182.06 -2.71149 -4.6085 0
M  V30 12525 H 1182.4 -1.10568 -4.01348 0
M  V30 12526 H 1182.93 -2.52238 -3.07605 0
M  V30 12527 H 1179.67 -5.4723 -3.60859 0
M  V30 12528 H 1179.19 -3.99462 -4.47427 0
M  V30 12529 H 1180.87 -4.58149 -4.56846 0
M  V30 12530 N 1181 1.07532 -1.15215 0
M  V30 12531 C 1181.93 2.1668 -0.870171 0
M  V30 12532 C 1182.91 1.69161 0.178483 0
M  V30 12533 O 1184.1 1.94172 0.0332489 0
M  V30 12534 C 1181.23 3.45464 -0.356666 0
M  V30 12535 C 1180.18 4.06424 -1.34179 0
M  V30 12536 C 1179.51 5.30266 -0.687206 0
M  V30 12537 C 1180.81 4.46666 -2.70715 0
M  V30 12538 H 1182.5 2.40526 -1.7829 0
M  V30 12539 H 1180.05 1.15598 -0.858665 0
M  V30 12540 H 1182 4.21144 -0.146947 0
M  V30 12541 H 1180.72 3.21199 0.591527 0
M  V30 12542 H 1179.38 3.32786 -1.53783 0
M  V30 12543 H 1179.03 5.0229 0.267077 0
M  V30 12544 H 1178.73 5.72009 -1.34462 0
M  V30 12545 H 1180.26 6.08653 -0.487218 0
M  V30 12546 H 1181.67 5.13483 -2.54966 0
M  V30 12547 H 1180.07 4.99355 -3.32813 0
M  V30 12548 H 1181.14 3.58123 -3.26919 0
M  V30 12549 N 1182.48 0.948665 1.2585 0
M  V30 12550 C 1183.73 0.595938 1.92695 0
M  V30 12551 C 1184.04 -0.870229 1.75175 0
M  V30 12552 O 1185.25 -1.33266 2.36543 0
M  V30 12553 C 1183.7 1.01511 3.45288 0
M  V30 12554 C 1183.31 2.50341 3.71528 0
M  V30 12555 C 1185.06 0.734635 4.18095 0
M  V30 12556 C 1182.96 2.8609 5.17597 0
M  V30 12557 H 1181.89 0.219171 0.721443 0
M  V30 12558 H 1184.54 1.15231 1.42807 0
M  V30 12559 H 1182.93 0.387201 3.94102 0
M  V30 12560 H 1184.1 3.18101 3.3339 0
M  V30 12561 H 1182.42 2.75797 3.11969 0
M  V30 12562 H 1185.01 0.977962 5.25681 0
M  V30 12563 H 1185.36 -0.328807 4.14999 0
M  V30 12564 H 1185.89 1.32262 3.75169 0
M  V30 12565 H 1182.63 3.91427 5.25799 0
M  V30 12566 H 1182.15 2.22999 5.56805 0
M  V30 12567 H 1183.83 2.74959 5.85668 0
M  V30 12568 N 1183.96 -1.40369 0.716545 0
M  V30 12569 C 1184.92 -2.29083 0.0733105 0
M  V30 12570 C 1185.92 -1.45415 -0.686378 0
M  V30 12571 O 1187.11 -1.66316 -0.518139 0
M  V30 12572 C 1184.24 -3.28639 -0.906032 0
M  V30 12573 H 1185.44 -2.87464 0.85467 0
M  V30 12574 H 1182.99 -1.48706 0.481256 0
M  V30 12575 H 1183.72 -2.75279 -1.71441 0
M  V30 12576 H 1183.51 -3.90405 -0.364163 0
M  V30 12577 H 1185 -3.95066 -1.35324 0
M  V30 12578 N 1185.44 -0.462799 -1.50652 0
M  V30 12579 C 1186.66 0.0952726 -2.07181 0
M  V30 12580 C 1187.09 1.33479 -1.32533 0
M  V30 12581 O 1186.44 1.77473 -0.370564 0
M  V30 12582 C 1186.49 0.370592 -3.58691 0
M  V30 12583 O 1185.6 1.4526 -3.85971 0
M  V30 12584 H 1184.94 -0.00932702 -0.663934 0
M  V30 12585 H 1187.47 -0.651458 -1.93951 0
M  V30 12586 H 1187.48 0.613551 -4.0336 0
M  V30 12587 H 1186.15 -0.535219 -4.12442 0
M  V30 12588 H 1184.73 1.1976 -3.53146 0
M  V30 12589 N 1186.91 1.56388 -0.195085 0
M  V30 12590 C 1188.19 1.89329 0.491303 0
M  V30 12591 C 1188.57 1.10861 1.79647 0
M  V30 12592 O 1187.92 0.209696 2.27536 0
M  V30 12593 C 1188.13 3.417 0.710096 0
M  V30 12594 C 1189.48 4.11931 1.02947 0
M  V30 12595 O 1190.5 3.4715 0.797817 0
M  V30 12596 O 1189.36 5.26423 1.46767 0
M  V30 12597 H 1186.45 0.786335 0.256137 0
M  V30 12598 H 1189 1.68061 -0.235298 0
M  V30 12599 H 1187.77 3.90727 -0.211604 0
M  V30 12600 H 1187.4 3.6866 1.48916 0
M  V30 12601 N 1188.39 -0.0785156 1.57404 0
M  V30 12602 C 1189.81 -0.433143 1.5361 0
M  V30 12603 C 1190.01 -1.79564 0.914283 0
M  V30 12604 O 1189.06 -2.47215 0.513899 0
M  V30 12605 C 1190.38 -0.380387 2.98284 0
M  V30 12606 C 1191.93 -0.461056 3.09586 0
M  V30 12607 C 1192.4 -0.438276 4.55898 0
M  V30 12608 N 1193.89 -0.498548 4.60509 0
M  V30 12609 C 1194.63 -0.503028 5.71189 0
M  V30 12610 N 1194.12 -0.462724 6.91253 0
M  V30 12611 N 1195.92 -0.549083 5.59412 0
M  V30 12612 H 1188.07 0.813724 1.96195 0
M  V30 12613 H 1190.33 0.304644 0.897717 0
M  V30 12614 H 1190.04 0.553932 3.4731 0
M  V30 12615 H 1189.91 -1.19313 3.57833 0
M  V30 12616 H 1192.3 -1.3858 2.60537 0
M  V30 12617 H 1192.38 0.380138 2.5296 0
M  V30 12618 H 1192.02 0.482588 5.05602 0
M  V30 12619 H 1191.95 -1.29691 5.1038 0
M  V30 12620 H 1194.44 -0.534219 3.74105 0
M  V30 12621 H 1194.76 -0.469883 7.7137 0
M  V30 12622 H 1193.1 -0.429515 6.93672 0
M  V30 12623 H 1196.29 -0.578215 4.64515 0
M  V30 12624 H 1196.46 -0.549105 6.45669 0
M  V30 12625 N 1189.87 -1.5367 -0.349747 0
M  V30 12626 C 1191.1 -1.74547 -1.11089 0
M  V30 12627 C 1191.51 -0.481741 -1.82551 0
M  V30 12628 O 1190.87 0.546272 -1.74132 0
M  V30 12629 C 1190.92 -2.92148 -2.12913 0
M  V30 12630 O 1190.64 -4.13633 -1.44358 0
M  V30 12631 C 1192.14 -3.25027 -3.01451 0
M  V30 12632 H 1189.36 -0.583376 -0.331532 0
M  V30 12633 H 1191.91 -2.00473 -0.403841 0
M  V30 12634 H 1190.06 -2.68572 -2.79192 0
M  V30 12635 H 1190.48 -4.79601 -2.12329 0
M  V30 12636 H 1191.95 -4.10679 -3.68845 0
M  V30 12637 H 1192.43 -2.41064 -3.67131 0
M  V30 12638 H 1193.03 -3.50586 -2.40768 0
M  V30 12639 N 1191.35 0.610423 -1.45298 0
M  V30 12640 C 1192.63 1.36966 -1.39641 0
M  V30 12641 C 1193.01 2.10998 -0.0655757 0
M  V30 12642 O 1192.35 2.07705 0.952407 0
M  V30 12643 C 1192.56 2.31885 -2.60826 0
M  V30 12644 C 1193.91 2.9458 -3.05791 0
M  V30 12645 O 1194.94 2.42207 -2.61179 0
M  V30 12646 O 1193.79 3.89639 -3.83202 0
M  V30 12647 H 1190.89 0.61401 -0.554004 0
M  V30 12648 H 1193.43 0.633748 -1.57422 0
M  V30 12649 H 1192.21 1.76421 -3.49272 0
M  V30 12650 H 1191.83 3.12861 -2.45364 0
M  V30 12651 N 1192.83 1.32541 0.852676 0
M  V30 12652 C 1193.76 1.24254 1.97694 0
M  V30 12653 C 1194.74 0.125971 1.69633 0
M  V30 12654 O 1195.92 0.31347 1.91653 0
M  V30 12655 C 1193.05 0.966874 3.3357 0
M  V30 12656 C 1192.01 2.0449 3.75989 0
M  V30 12657 C 1191.33 1.6216 5.09518 0
M  V30 12658 C 1192.63 3.46013 3.91244 0
M  V30 12659 H 1194.33 2.18317 2.04886 0
M  V30 12660 H 1191.87 1.05101 0.984371 0
M  V30 12661 H 1193.83 0.895444 4.11776 0
M  V30 12662 H 1192.55 -0.0093893 3.26599 0
M  V30 12663 H 1191.21 2.10651 3.00036 0
M  V30 12664 H 1190.86 0.632729 4.99005 0
M  V30 12665 H 1190.56 2.3429 5.38871 0
M  V30 12666 H 1192.08 1.56457 5.90215 0
M  V30 12667 H 1193.49 3.4243 4.59799 0
M  V30 12668 H 1191.89 4.1651 4.32017 0
M  V30 12669 H 1192.96 3.8553 2.941 0
M  V30 12670 N 1194.3 -1.0692 1.15784 0
M  V30 12671 C 1195.21 -2.17762 0.872753 0
M  V30 12672 C 1196.23 -1.73329 -0.152608 0
M  V30 12673 O 1197.41 -2.01387 0.022519 0
M  V30 12674 C 1194.47 -3.4471 0.370887 0
M  V30 12675 C 1193.53 -4.03686 1.46069 0
M  V30 12676 C 1192.77 -5.24575 0.982675 0
M  V30 12677 O 1192.99 -5.70146 -0.17006 0
M  V30 12678 O 1191.92 -5.7534 1.76828 0
M  V30 12679 H 1195.75 -2.44648 1.79948 0
M  V30 12680 H 1193.33 -1.1634 0.937303 0
M  V30 12681 H 1195.22 -4.21287 0.0976779 0
M  V30 12682 H 1193.89 -3.19366 -0.527912 0
M  V30 12683 H 1192.8 -3.28629 1.78756 0
M  V30 12684 H 1194.13 -4.33312 2.33456 0
M  V30 12685 N 1195.78 -0.955326 -1.25345 0
M  V30 12686 C 1196.73 -0.446792 -2.23579 0
M  V30 12687 C 1197.72 0.464354 -1.54054 0
M  V30 12688 O 1198.91 0.297293 -1.74485 0
M  V30 12689 C 1196.04 0.273533 -3.42209 0
M  V30 12690 C 1195.12 -0.655722 -4.19 0
M  V30 12691 N 1195.51 -1.78766 -4.73156 0
M  V30 12692 C 1193.81 -0.464059 -4.43579 0
M  V30 12693 C 1194.51 -2.36789 -5.31324 0
M  V30 12694 N 1193.49 -1.65435 -5.17815 0
M  V30 12695 H 1197.29 -1.31065 -2.63057 0
M  V30 12696 H 1194.81 -0.812899 -1.40591 0
M  V30 12697 H 1196.8 0.654986 -4.11723 0
M  V30 12698 H 1195.46 1.13399 -3.04254 0
M  V30 12699 H 1196.47 -2.1695 -4.70269 0
M  V30 12700 H 1193.15 0.353459 -4.16001 0
M  V30 12701 H 1194.54 -3.32242 -5.84008 0
M  V30 12702 N 1197.26 1.39987 -0.723979 0
M  V30 12703 C 1198.54 1.94637 -0.1939 0
M  V30 12704 C 1198.92 1.66156 1.30212 0
M  V30 12705 O 1198.27 0.983783 2.06238 0
M  V30 12706 C 1198.48 3.4517 -0.515652 0
M  V30 12707 C 1199.82 4.22113 -0.458919 0
M  V30 12708 O 1200.85 3.53318 -0.452198 0
M  V30 12709 O 1199.71 5.44695 -0.443783 0
M  V30 12710 H 1196.8 0.826394 -0.0316615 0
M  V30 12711 H 1199.35 1.49548 -0.802085 0
M  V30 12712 H 1198.12 3.5929 -1.55004 0
M  V30 12713 H 1197.74 3.97413 0.122067 0
M  V30 12714 N 1198.74 0.470782 1.50404 0
M  V30 12715 C 1200.16 0.124919 1.5911 0
M  V30 12716 C 1200.36 -1.36855 1.47895 0
M  V30 12717 O 1199.41 -2.1418 1.33728 0
M  V30 12718 C 1200.72 0.674839 2.9303 0
M  V30 12719 C 1202.27 0.638239 3.06424 0
M  V30 12720 C 1202.75 1.1657 4.42917 0
M  V30 12721 N 1204.24 1.1251 4.49328 0
M  V30 12722 C 1204.97 1.50373 5.53331 0
M  V30 12723 N 1204.47 1.95684 6.6459 0
M  V30 12724 N 1206.26 1.41978 5.43874 0
M  V30 12725 H 1198.41 1.44212 1.55938 0
M  V30 12726 H 1200.68 0.596354 0.73693 0
M  V30 12727 H 1200.38 1.72106 3.06712 0
M  V30 12728 H 1200.26 0.118234 3.77015 0
M  V30 12729 H 1202.64 -0.399075 2.92389 0
M  V30 12730 H 1202.72 1.23164 2.24197 0
M  V30 12731 H 1202.37 2.20164 4.57701 0
M  V30 12732 H 1202.3 0.548513 5.23736 0
M  V30 12733 H 1204.79 0.79276 3.69491 0
M  V30 12734 H 1205.1 2.22724 7.40009 0
M  V30 12735 H 1203.45 1.99636 6.65711 0
M  V30 12736 H 1206.64 1.0642 4.55842 0
M  V30 12737 H 1206.81 1.71812 6.24808 0
M  V30 12738 N 1200.22 -1.56282 0.203376 0
M  V30 12739 C 1201.46 -1.98105 -0.433844 0
M  V30 12740 C 1201.8 -1.09044 -1.60695 0
M  V30 12741 O 1201.07 -0.144193 -1.93965 0
M  V30 12742 C 1201.35 -3.4903 -0.885992 0
M  V30 12743 C 1201.21 -4.48867 0.289501 0
M  V30 12744 C 1202.53 -4.03871 -1.7486 0
M  V30 12745 H 1199.65 -0.720252 -0.156224 0
M  V30 12746 H 1202.29 -1.87681 0.295963 0
M  V30 12747 H 1200.44 -3.58045 -1.50785 0
M  V30 12748 H 1202.11 -4.51883 0.92734 0
M  V30 12749 H 1200.35 -4.23495 0.939934 0
M  V30 12750 H 1201.02 -5.51956 -0.0695128 0
M  V30 12751 H 1203.5 -3.97688 -1.22407 0
M  V30 12752 H 1202.38 -5.09827 -2.03391 0
M  V30 12753 H 1202.64 -3.49637 -2.70567 0
M  V30 12754 N 1201.7 0.070167 -1.57444 0
M  V30 12755 C 1202.94 0.770153 -1.87607 0
M  V30 12756 C 1203.27 1.77143 -0.795875 0
M  V30 12757 O 1202.55 1.93533 0.193674 0
M  V30 12758 C 1202.83 1.47668 -3.2843 0
M  V30 12759 C 1202.69 0.491712 -4.47104 0
M  V30 12760 C 1204 2.42118 -3.67514 0
M  V30 12761 H 1201.12 0.278519 -0.682346 0
M  V30 12762 H 1203.77 0.0333184 -1.89971 0
M  V30 12763 H 1201.92 2.10476 -3.26546 0
M  V30 12764 H 1203.59 -0.131283 -4.61113 0
M  V30 12765 H 1201.83 -0.192817 -4.33371 0
M  V30 12766 H 1202.5 1.02372 -5.42424 0
M  V30 12767 H 1204.98 1.89387 -3.70502 0
M  V30 12768 H 1203.85 2.88556 -4.66933 0
M  V30 12769 H 1204.11 3.26995 -2.97534 0
M  V30 12770 N 1203.17 1.53854 0.341593 0
M  V30 12771 C 1204.1 1.84966 1.42513 0
M  V30 12772 C 1205.08 0.704944 1.54805 0
M  V30 12773 O 1206.27 0.957036 1.68981 0
M  V30 12774 C 1203.4 2.06099 2.79536 0
M  V30 12775 C 1202.35 3.21919 2.82049 0
M  V30 12776 C 1201.68 3.28389 4.21977 0
M  V30 12777 C 1202.98 4.59984 2.4741 0
M  V30 12778 H 1204.67 2.7571 1.16724 0
M  V30 12779 H 1202.22 1.32662 0.560073 0
M  V30 12780 H 1204.17 2.26448 3.55386 0
M  V30 12781 H 1202.9 1.12087 3.06764 0
M  V30 12782 H 1201.56 3.01429 2.08653 0
M  V30 12783 H 1201.2 2.3197 4.46317 0
M  V30 12784 H 1200.9 4.0622 4.24569 0
M  V30 12785 H 1202.43 3.50951 4.99666 0
M  V30 12786 H 1203.84 4.80334 3.12973 0
M  V30 12787 H 1202.24 5.40233 2.61282 0
M  V30 12788 H 1203.31 4.6346 1.42594 0
M  V30 12789 N 1204.65 -0.602709 1.4562 0
M  V30 12790 C 1205.58 -1.7271 1.50678 0
M  V30 12791 C 1206.6 -1.57884 0.397048 0
M  V30 12792 O 1207.79 -1.65676 0.664367 0
M  V30 12793 C 1204.89 -3.10762 1.35204 0
M  V30 12794 C 1204.06 -3.51782 2.59939 0
M  V30 12795 C 1203.12 -4.68816 2.38952 0
M  V30 12796 O 1202.14 -4.75686 3.12588 0
M  V30 12797 N 1203.35 -5.624 1.43827 0
M  V30 12798 H 1206.11 -1.68833 2.47619 0
M  V30 12799 H 1203.67 -0.788131 1.41422 0
M  V30 12800 H 1205.66 -3.86819 1.18967 0
M  V30 12801 H 1204.23 -3.09119 0.465203 0
M  V30 12802 H 1203.45 -2.65637 2.91257 0
M  V30 12803 H 1204.74 -3.75948 3.42842 0
M  V30 12804 H 1204.14 -5.59568 0.830669 0
M  V30 12805 H 1202.7 -6.37969 1.33561 0
M  V30 12806 N 1206.13 -1.32992 -0.845635 0
M  V30 12807 C 1207.06 -1.25301 -1.97033 0
M  V30 12808 C 1208.04 -0.134966 -1.69564 0
M  V30 12809 O 1209.23 -0.323629 -1.91484 0
M  V30 12810 C 1206.36 -0.984551 -3.33052 0
M  V30 12811 C 1205.31 -2.06481 -3.749 0
M  V30 12812 C 1204.64 -1.6486 -5.08651 0
M  V30 12813 C 1205.94 -3.48083 -3.89404 0
M  V30 12814 H 1207.63 -2.194 -2.03725 0
M  V30 12815 H 1205.18 -1.05621 -0.978783 0
M  V30 12816 H 1207.13 -0.917269 -4.11296 0
M  V30 12817 H 1205.85 -0.00793116 -3.26599 0
M  V30 12818 H 1204.51 -2.1224 -2.98915 0
M  V30 12819 H 1204.16 -0.659183 -4.98662 0
M  V30 12820 H 1203.86 -2.37145 -5.37621 0
M  V30 12821 H 1205.38 -1.59585 -5.89377 0
M  V30 12822 H 1206.8 -3.44863 -4.57976 0
M  V30 12823 H 1205.19 -4.18796 -4.29802 0
M  V30 12824 H 1206.26 -3.87084 -2.92051 0
M  V30 12825 N 1207.61 1.06304 -1.1635 0
M  V30 12826 C 1208.55 2.13776 -0.869965 0
M  V30 12827 C 1209.52 1.65105 0.181541 0
M  V30 12828 O 1210.71 1.90743 0.0467705 0
M  V30 12829 C 1207.85 3.43034 -0.377077 0
M  V30 12830 C 1206.96 4.0544 -1.4914 0
M  V30 12831 C 1206.1 5.22572 -0.953538 0
M  V30 12832 C 1205.14 5.76961 -2.04407 0
M  V30 12833 N 1204.27 6.85409 -1.52181 0
M  V30 12834 H 1209.11 2.38224 -1.79034 0
M  V30 12835 H 1206.65 1.16882 -0.893136 0
M  V30 12836 H 1208.61 4.17136 -0.0729426 0
M  V30 12837 H 1207.24 3.18804 0.506359 0
M  V30 12838 H 1206.29 3.28886 -1.9115 0
M  V30 12839 H 1207.6 4.41859 -2.31434 0
M  V30 12840 H 1206.76 6.037 -0.602579 0
M  V30 12841 H 1205.5 4.87598 -0.099897 0
M  V30 12842 H 1204.5 4.9447 -2.40373 0
M  V30 12843 H 1205.73 6.13987 -2.90167 0
M  V30 12844 H 1203.67 6.52354 -0.690697 0
M  V30 12845 H 1203.59 7.2077 -2.28092 0
M  V30 12846 H 1204.86 7.70217 -1.19942 0
M  V30 12847 N 1209.09 0.96196 1.24836 0
M  V30 12848 C 1210 0.494876 2.29321 0
M  V30 12849 C 1211.01 -0.441363 1.68309 0
M  V30 12850 O 1212.19 -0.315814 1.98908 0
M  V30 12851 C 1209.25 -0.212944 3.46045 0
M  V30 12852 C 1208.31 0.762411 4.22476 0
M  V30 12853 C 1207.55 0.0882756 5.33627 0
M  V30 12854 O 1207.77 -1.12459 5.59204 0
M  V30 12855 O 1206.7 0.777529 5.96857 0
M  V30 12856 H 1210.53 1.36333 2.7138 0
M  V30 12857 H 1208.11 0.728738 1.30421 0
M  V30 12858 H 1210 -0.610805 4.1695 0
M  V30 12859 H 1208.67 -1.05645 3.05975 0
M  V30 12860 H 1207.58 1.21062 3.5397 0
M  V30 12861 H 1208.91 1.57416 4.66349 0
M  V30 12862 N 1210.56 -1.39601 0.731392 0
M  V30 12863 C 1211.49 -2.33268 0.1041 0
M  V30 12864 C 1212.47 -1.53724 -0.728219 0
M  V30 12865 O 1213.66 -1.82131 -0.673933 0
M  V30 12866 C 1210.79 -3.37802 -0.806646 0
M  V30 12867 C 1209.74 -4.27928 -0.0787588 0
M  V30 12868 C 1209.07 -5.23131 -1.10628 0
M  V30 12869 C 1210.37 -5.11086 1.07651 0
M  V30 12870 H 1212.06 -2.85975 0.886496 0
M  V30 12871 H 1209.61 -1.375 0.427746 0
M  V30 12872 H 1211.56 -4.02278 -1.25499 0
M  V30 12873 H 1210.29 -2.83527 -1.62112 0
M  V30 12874 H 1208.95 -3.64926 0.349926 0
M  V30 12875 H 1208.59 -4.65152 -1.91422 0
M  V30 12876 H 1208.29 -5.84277 -0.624043 0
M  V30 12877 H 1209.82 -5.90483 -1.5544 0
M  V30 12878 H 1211.23 -5.68927 0.706781 0
M  V30 12879 H 1209.63 -5.81356 1.48814 0
M  V30 12880 H 1210.7 -4.46131 1.89988 0
M  V30 12881 N 1212.04 -0.478751 -1.50152 0
M  V30 12882 C 1212.97 0.301182 -2.31549 0
M  V30 12883 C 1213.95 0.983276 -1.38801 0
M  V30 12884 O 1215.14 0.978973 -1.67719 0
M  V30 12885 C 1212.27 1.3791 -3.18745 0
M  V30 12886 C 1211.22 0.818175 -4.20107 0
M  V30 12887 C 1210.55 1.99496 -4.9609 0
M  V30 12888 C 1211.85 -0.17574 -5.22004 0
M  V30 12889 H 1213.54 -0.378188 -2.97002 0
M  V30 12890 H 1211.09 -0.183323 -1.42828 0
M  V30 12891 H 1213.04 1.93227 -3.74488 0
M  V30 12892 H 1211.77 2.08735 -2.51192 0
M  V30 12893 H 1210.42 0.286924 -3.65475 0
M  V30 12894 H 1210.07 2.69036 -4.25004 0
M  V30 12895 H 1209.77 1.62582 -5.6466 0
M  V30 12896 H 1211.3 2.55288 -5.54671 0
M  V30 12897 H 1212.71 0.288513 -5.72574 0
M  V30 12898 H 1211.11 -0.459549 -5.98338 0
M  V30 12899 H 1212.18 -1.09911 -4.72279 0
M  V30 12900 N 1213.52 1.56172 -0.211661 0
M  V30 12901 C 1214.47 2.21206 0.719063 0
M  V30 12902 C 1215.46 1.18835 1.20725 0
M  V30 12903 O 1216.67 1.36939 1.16823 0
M  V30 12904 H 1213.04 0.709129 0.250279 0
M  V30 12905 H 1215.01 2.98038 0.147022 0
M  V30 12906 C 1213.76 2.89826 1.92084 0
M  V30 12907 H 1213.09 3.68351 1.55428 0
M  V30 12908 H 1214.53 3.38744 2.55006 0
M  V30 12909 C 1212.99 1.91756 2.77004 0
M  V30 12910 O 1213.52 1.42826 3.75451 0
M  V30 12911 N 1211.72 1.59622 2.42836 0
M  V30 12912 H 1211.27 1.99606 1.62835 0
M  V30 12913 H 1211.23 0.942641 2.99936 0
M  V30 12914 N 1215 -0.0618163 1.57479 0
M  V30 12915 C 1216.25 -0.757569 1.87364 0
M  V30 12916 C 1216.57 -1.77607 0.805025 0
M  V30 12917 O 1215.84 -1.95202 -0.165216 0
M  V30 12918 H 1214.42 -0.28278 0.691408 0
M  V30 12919 H 1217.08 -0.0355354 1.94868 0
M  V30 12920 H 1216.18 -1.26758 2.85199 0
M  V30 12921 N 1216.48 -1.54033 -0.333429 0
M  V30 12922 C 1217.41 -1.85719 -1.4153 0
M  V30 12923 C 1218.39 -0.713144 -1.54429 0
M  V30 12924 O 1219.57 -0.965984 -1.68471 0
M  V30 12925 C 1216.7 -2.07578 -2.78439 0
M  V30 12926 C 1215.66 -3.23411 -2.80338 0
M  V30 12927 C 1214.98 -3.30622 -4.2023 0
M  V30 12928 C 1216.28 -4.6129 -2.44968 0
M  V30 12929 H 1217.98 -2.76325 -1.15261 0
M  V30 12930 H 1215.52 -1.32957 -0.55303 0
M  V30 12931 H 1217.48 -2.28329 -3.5418 0
M  V30 12932 H 1216.2 -1.13713 -3.06165 0
M  V30 12933 H 1214.86 -3.02531 -2.07052 0
M  V30 12934 H 1214.51 -2.34333 -4.45081 0
M  V30 12935 H 1214.21 -4.08466 -4.22409 0
M  V30 12936 H 1215.73 -3.53596 -4.97798 0
M  V30 12937 H 1217.14 -4.81987 -3.10421 0
M  V30 12938 H 1215.54 -5.41611 -2.58414 0
M  V30 12939 H 1216.61 -4.6421 -1.40134 0
M  V30 12940 N 1217.95 0.594978 -1.45938 0
M  V30 12941 C 1219.2 1.35093 -1.50314 0
M  V30 12942 C 1219.52 1.94412 -0.151315 0
M  V30 12943 O 1218.79 1.77876 0.820787 0
M  V30 12944 H 1217.37 0.501549 -0.553586 0
M  V30 12945 H 1220.04 0.697735 -1.81983 0
M  V30 12946 H 1219.13 2.16393 -2.24901 0
M  V30 12947 N 1219.43 1.33438 0.838571 0
M  V30 12948 C 1220.68 1.24912 1.59384 0
M  V30 12949 C 1221.01 -0.185017 1.93618 0
M  V30 12950 O 1220.26 -1.14229 1.58904 0
M  V30 12951 C 1220.56 2.07002 2.9135 0
M  V30 12952 C 1220.23 3.5619 2.76477 0
M  V30 12953 C 1218.89 3.96862 2.72129 0
M  V30 12954 C 1221.24 4.5099 2.61261 0
M  V30 12955 C 1218.57 5.30551 2.50464 0
M  V30 12956 C 1220.92 5.84841 2.4113 0
M  V30 12957 C 1219.59 6.24696 2.35183 0
M  V30 12958 H 1218.86 0.457084 0.583228 0
M  V30 12959 H 1221.5 1.65027 0.971506 0
M  V30 12960 H 1219.81 1.59665 3.57791 0
M  V30 12961 H 1221.5 1.97762 3.48843 0
M  V30 12962 H 1218.09 3.23896 2.80695 0
M  V30 12963 H 1222.28 4.20476 2.63655 0
M  V30 12964 H 1217.53 5.60468 2.44307 0
M  V30 12965 H 1221.71 6.57901 2.2834 0
M  V30 12966 H 1219.34 7.28225 2.18156 0
M  V30 12967 N 1220.91 -1.05686 1.16912 0
M  V30 12968 C 1222.14 -1.82821 0.979348 0
M  V30 12969 C 1222.56 -1.82196 -0.467575 0
M  V30 12970 O 1221.92 -1.22727 -1.33445 0
M  V30 12971 C 1221.97 -3.2705 1.51891 0
M  V30 12972 O 1221.07 -4.05899 0.729341 0
M  V30 12973 H 1220.41 -0.565455 0.348076 0
M  V30 12974 H 1222.94 -1.33211 1.55293 0
M  V30 12975 H 1222.95 -3.77859 1.53904 0
M  V30 12976 H 1221.63 -3.26819 2.5722 0
M  V30 12977 H 1220.2 -3.64646 0.780221 0
M  V30 12978 N 1222.39 -0.968567 -1.24324 0
M  V30 12979 C 1223.62 -0.648568 -1.96472 0
M  V30 12980 C 1224.03 0.782168 -1.71836 0
M  V30 12981 O 1223.39 1.5249 -1.00265 0
M  V30 12982 C 1223.44 -0.91482 -3.49733 0
M  V30 12983 O 1223.16 -2.28931 -3.73527 0
M  V30 12984 C 1224.66 -0.609131 -4.39095 0
M  V30 12985 H 1221.88 -0.241921 -0.625872 0
M  V30 12986 H 1224.43 -1.29673 -1.5813 0
M  V30 12987 H 1222.58 -0.31285 -3.86135 0
M  V30 12988 H 1222.99 -2.36998 -4.67902 0
M  V30 12989 H 1224.47 -0.845875 -5.4548 0
M  V30 12990 H 1224.95 0.456625 -4.3682 0
M  V30 12991 H 1225.55 -1.19105 -4.08282 0
M  V30 12992 N 1223.87 1.39211 -0.738786 0
M  V30 12993 C 1225.28 1.83237 -0.357916 0
M  V30 12994 C 1225.63 1.61698 1.11123 0
M  V30 12995 O 1224.75 1.11017 1.85753 0
M  V30 12996 C 1225.35 3.32645 -0.64285 0
M  V30 12997 C 1223.91 3.75076 -0.315432 0
M  V30 12998 C 1223.05 2.62166 -0.903556 0
M  V30 12999 H 1226.01 1.2815 -0.936127 0
M  V30 13000 H 1226.03 3.80407 0.0840812 0
M  V30 13001 H 1225.54 3.4829 -1.71218 0
M  V30 13002 H 1223.64 3.65017 0.747907 0
M  V30 13003 H 1223.75 4.72363 -0.800638 0
M  V30 13004 H 1222.12 2.52554 -0.329927 0
M  V30 13005 H 1222.9 2.80616 -1.97761 0
M  V30 13006 N 1225.34 0.486708 1.49896 0
M  V30 13007 C 1226.62 -0.125183 1.95199 0
M  V30 13008 C 1227 -1.55498 1.42771 0
M  V30 13009 O 1226.35 -2.1949 0.635322 0
M  V30 13010 C 1226.56 -0.0524982 3.48961 0
M  V30 13011 C 1227.91 -0.233595 4.23957 0
M  V30 13012 O 1228.93 -0.128357 3.55969 0
M  V30 13013 O 1227.79 -0.447862 5.44662 0
M  V30 13014 H 1224.88 -0.103141 0.820543 0
M  V30 13015 H 1227.43 0.548226 1.60601 0
M  V30 13016 H 1226.2 0.945163 3.79714 0
M  V30 13017 H 1225.83 -0.766683 3.90138 0
M  V30 13018 N 1226.82 -1.56058 0.219941 0
M  V30 13019 C 1227.73 -2.23844 -0.70222 0
M  V30 13020 C 1228.75 -1.24554 -1.215 0
M  V30 13021 O 1229.93 -1.57362 -1.25695 0
M  V30 13022 C 1226.99 -2.90384 -1.89416 0
M  V30 13023 C 1226.05 -4.05012 -1.42351 0
M  V30 13024 C 1225.28 -4.68369 -2.55863 0
M  V30 13025 O 1225.51 -4.3071 -3.73958 0
M  V30 13026 O 1224.44 -5.5739 -2.27157 0
M  V30 13027 H 1228.27 -3.03305 -0.15478 0
M  V30 13028 H 1225.85 -1.49396 -0.010438 0
M  V30 13029 H 1227.73 -3.32389 -2.59028 0
M  V30 13030 H 1226.41 -2.13883 -2.42973 0
M  V30 13031 H 1225.32 -3.67579 -0.695448 0
M  V30 13032 H 1226.65 -4.83251 -0.934332 0
M  V30 13033 N 1228.3 0.053464 -1.57509 0
M  V30 13034 C 1229.25 1.06155 -2.04939 0
M  V30 13035 C 1230.22 1.37382 -0.93357 0
M  V30 13036 O 1231.4 1.48137 -1.2025 0
M  V30 13037 C 1228.54 2.36476 -2.51343 0
M  V30 13038 C 1227.66 2.1162 -3.76618 0
M  V30 13039 C 1226.79 3.35636 -4.11731 0
M  V30 13040 C 1225.83 3.06226 -5.29993 0
M  V30 13041 N 1224.97 4.22623 -5.60655 0
M  V30 13042 H 1229.81 0.650122 -2.90822 0
M  V30 13043 H 1227.34 0.309421 -1.43809 0
M  V30 13044 H 1229.3 3.12588 -2.76306 0
M  V30 13045 H 1227.93 2.75386 -1.68411 0
M  V30 13046 H 1226.98 1.26116 -3.58886 0
M  V30 13047 H 1228.3 1.85909 -4.6286 0
M  V30 13048 H 1227.45 4.20132 -4.37692 0
M  V30 13049 H 1226.19 3.64439 -3.24092 0
M  V30 13050 H 1225.19 2.20128 -5.03809 0
M  V30 13051 H 1226.42 2.78726 -6.19265 0
M  V30 13052 H 1224.37 4.51424 -4.75976 0
M  V30 13053 H 1224.28 4.0025 -6.41355 0
M  V30 13054 H 1225.55 5.08063 -5.91178 0
M  V30 13055 N 1229.78 1.54207 0.325255 0
M  V30 13056 C 1231.03 1.72331 1.0634 0
M  V30 13057 C 1231.35 0.496115 1.88066 0
M  V30 13058 O 1230.61 -0.52214 1.88606 0
M  V30 13059 C 1230.91 2.95 2.01766 0
M  V30 13060 C 1230.57 4.29835 1.36208 0
M  V30 13061 C 1229.24 4.66493 1.18059 0
M  V30 13062 C 1231.59 5.13521 0.891404 0
M  V30 13063 C 1228.92 5.84436 0.514894 0
M  V30 13064 C 1231.27 6.32146 0.239534 0
M  V30 13065 C 1229.93 6.67484 0.0458839 0
M  V30 13066 H 1229.2 0.630605 0.389125 0
M  V30 13067 H 1231.85 1.88445 0.34072 0
M  V30 13068 H 1230.15 2.73567 2.80479 0
M  V30 13069 H 1231.85 3.06217 2.58906 0
M  V30 13070 H 1228.44 4.00993 1.51335 0
M  V30 13071 H 1232.63 4.85718 1.01941 0
M  V30 13072 H 1227.88 6.10376 0.353644 0
M  V30 13073 H 1232.06 6.96273 -0.133185 0
M  V30 13074 H 1229.68 7.58733 -0.471978 0
M  V30 13075 N 1231.26 -0.58723 1.46251 0
M  V30 13076 C 1232.19 -1.71103 1.52501 0
M  V30 13077 C 1233.2 -1.57454 0.413772 0
M  V30 13078 O 1234.39 -1.64962 0.681902 0
M  V30 13079 C 1231.49 -3.0931 1.38493 0
M  V30 13080 C 1230.66 -3.49005 2.63655 0
M  V30 13081 C 1229.72 -4.66255 2.43911 0
M  V30 13082 O 1228.75 -4.72344 3.17616 0
M  V30 13083 N 1229.95 -5.60843 1.49784 0
M  V30 13084 H 1232.72 -1.66198 2.49396 0
M  V30 13085 H 1230.28 -0.773087 1.4225 0
M  V30 13086 H 1232.27 -3.85535 1.23064 0
M  V30 13087 H 1230.84 -3.08608 0.497963 0
M  V30 13088 H 1230.06 -2.62533 2.94058 0
M  V30 13089 H 1231.35 -3.72291 3.4681 0
M  V30 13090 H 1230.75 -5.58656 0.889972 0
M  V30 13091 H 1229.3 -6.36517 1.4032 0
M  V30 13092 N 1232.74 -1.33881 -0.831482 0
M  V30 13093 C 1233.68 -1.24748 -1.94182 0
M  V30 13094 C 1234.65 -0.124516 -1.65633 0
M  V30 13095 O 1235.84 -0.304045 -1.88362 0
M  V30 13096 C 1232.98 -1.00016 -3.30289 0
M  V30 13097 C 1232.09 -2.21007 -3.71187 0
M  V30 13098 C 1231.23 -1.89629 -4.962 0
M  V30 13099 C 1230.26 -3.06811 -5.29654 0
M  V30 13100 N 1229.4 -2.75372 -6.45844 0
M  V30 13101 H 1234.24 -2.19709 -2.01325 0
M  V30 13102 H 1231.78 -1.09245 -0.985081 0
M  V30 13103 H 1233.74 -0.837167 -4.08714 0
M  V30 13104 H 1232.37 -0.0872582 -3.22682 0
M  V30 13105 H 1231.42 -2.48256 -2.88224 0
M  V30 13106 H 1232.73 -3.08587 -3.91887 0
M  V30 13107 H 1231.88 -1.70016 -5.82391 0
M  V30 13108 H 1230.62 -0.992964 -4.77485 0
M  V30 13109 H 1229.63 -3.27029 -4.41964 0
M  V30 13110 H 1230.85 -3.97909 -5.50314 0
M  V30 13111 H 1228.8 -1.87607 -6.28601 0
M  V30 13112 H 1228.72 -3.56483 -6.66675 0
M  V30 13113 H 1229.98 -2.59244 -7.35128 0
M  V30 13114 N 1234.21 1.05064 -1.1747 0
M  V30 13115 C 1235.49 1.74999 -0.873776 0
M  V30 13116 C 1235.87 2.01615 0.625676 0
M  V30 13117 O 1235.22 1.65324 1.57734 0
M  V30 13118 C 1235.43 3.04231 -1.7101 0
M  V30 13119 C 1236.78 3.78157 -1.93087 0
M  V30 13120 O 1237.8 3.14104 -1.6798 0
M  V30 13121 O 1236.66 4.93255 -2.3529 0
M  V30 13122 H 1233.75 0.761042 -0.323641 0
M  V30 13123 H 1236.3 1.1122 -1.28172 0
M  V30 13124 H 1235.07 2.80621 -2.72704 0
M  V30 13125 H 1234.69 3.75746 -1.30002 0
M  V30 13126 N 1235.69 0.975146 1.23809 0
M  V30 13127 C 1237.1 0.678873 1.7392 0
M  V30 13128 C 1237.45 -0.805133 1.78919 0
M  V30 13129 O 1236.58 -1.62984 1.42356 0
M  V30 13130 C 1237.17 1.22562 3.15854 0
M  V30 13131 C 1235.73 0.979096 3.63443 0
M  V30 13132 C 1234.88 1.35649 2.41857 0
M  V30 13133 H 1237.83 1.14961 1.09406 0
M  V30 13134 H 1237.85 0.595489 3.75811 0
M  V30 13135 H 1237.36 2.30571 3.12184 0
M  V30 13136 H 1235.46 -0.0851407 3.72503 0
M  V30 13137 H 1235.58 1.62998 4.5052 0
M  V30 13138 H 1233.94 0.774916 2.42626 0
M  V30 13139 H 1234.72 2.44624 2.40861 0
M  V30 13140 N 1237.17 -1.38817 0.746158 0
M  V30 13141 C 1238.58 -1.83045 0.367629 0
M  V30 13142 C 1238.93 -1.62285 -1.10263 0
M  V30 13143 O 1238.06 -1.12001 -1.85162 0
M  V30 13144 C 1238.65 -3.323 0.660482 0
M  V30 13145 C 1237.21 -3.74903 0.335318 0
M  V30 13146 C 1236.36 -2.61683 0.917446 0
M  V30 13147 H 1239.31 -1.27651 0.94291 0
M  V30 13148 H 1239.33 -3.80446 -0.0639061 0
M  V30 13149 H 1238.84 -3.47377 1.73062 0
M  V30 13150 H 1236.94 -3.65408 -0.728538 0
M  V30 13151 H 1237.06 -4.71932 0.825677 0
M  V30 13152 H 1235.42 -2.52376 0.343316 0
M  V30 13153 H 1236.2 -2.79563 1.99247 0
M  V30 13154 N 1238.65 -0.49465 -1.49636 0
M  V30 13155 C 1239.88 0.0490417 -2.06542 0
M  V30 13156 C 1240.29 1.31945 -1.35599 0
M  V30 13157 O 1239.63 1.78691 -0.426047 0
M  V30 13158 C 1239.69 0.379426 -3.57492 0
M  V30 13159 C 1239.35 -0.792345 -4.50079 0
M  V30 13160 C 1240.35 -1.68106 -4.91972 0
M  V30 13161 C 1238.04 -0.98935 -4.9246 0
M  V30 13162 C 1240.03 -2.75099 -5.74978 0
M  V30 13163 C 1237.72 -2.06247 -5.75244 0
M  V30 13164 C 1238.72 -2.94163 -6.16407 0
M  V30 13165 O 1238.4 -3.99623 -6.97536 0
M  V30 13166 H 1238.14 -0.0143708 -0.675847 0
M  V30 13167 H 1240.69 -0.689358 -1.93486 0
M  V30 13168 H 1238.92 1.17133 -3.68533 0
M  V30 13169 H 1240.61 0.860979 -3.96664 0
M  V30 13170 H 1241.37 -1.54065 -4.59879 0
M  V30 13171 H 1237.25 -0.314435 -4.59926 0
M  V30 13172 H 1240.8 -3.4375 -6.07027 0
M  V30 13173 H 1236.69 -2.20285 -6.06749 0
M  V30 13174 H 1237.46 -3.96899 -7.15831 0
M  V30 13175 N 1240.13 1.55939 -0.228214 0
M  V30 13176 C 1241.08 2.17223 0.692674 0
M  V30 13177 C 1242.06 1.12252 1.15275 0
M  V30 13178 O 1243.25 1.3822 1.10563 0
M  V30 13179 C 1240.38 2.86084 1.89766 0
M  V30 13180 C 1239.47 3.98288 1.45695 0
M  V30 13181 N 1239.86 5.00515 0.729258 0
M  V30 13182 C 1238.16 4.105 1.74372 0
M  V30 13183 C 1238.86 5.79516 0.503606 0
M  V30 13184 N 1237.83 5.33119 1.06229 0
M  V30 13185 H 1241.63 2.9362 0.128345 0
M  V30 13186 H 1239.15 1.62373 -0.0297445 0
M  V30 13187 H 1241.15 3.28404 2.5682 0
M  V30 13188 H 1239.81 2.11185 2.46639 0
M  V30 13189 H 1240.82 5.16495 0.381261 0
M  V30 13190 H 1237.49 3.46759 2.32518 0
M  V30 13191 H 1238.88 6.71857 -0.0760344 0
M  V30 13192 N 1241.6 -0.0451101 1.57535 0
M  V30 13193 C 1242.85 -0.734819 1.89663 0
M  V30 13194 C 1243.21 -1.73814 0.82502 0
M  V30 13195 O 1242.5 -1.90861 -0.168067 0
M  V30 13196 C 1242.69 -1.45938 3.26247 0
M  V30 13197 C 1242.52 -0.52775 4.46593 0
M  V30 13198 C 1241.29 -0.154735 5.05063 0
M  V30 13199 C 1243.49 0.187025 5.1396 0
M  V30 13200 N 1241.47 0.77983 6.08927 0
M  V30 13201 C 1242.84 0.977812 6.12241 0
M  V30 13202 C 1244.9 0.255673 4.97243 0
M  V30 13203 C 1243.6 1.83091 6.95608 0
M  V30 13204 C 1245.63 1.09584 5.81159 0
M  V30 13205 C 1244.99 1.8746 6.78998 0
M  V30 13206 H 1241.09 -0.243486 0.743128 0
M  V30 13207 H 1243.67 0.00462003 1.94699 0
M  V30 13208 H 1241.84 -2.16938 3.22169 0
M  V30 13209 H 1243.57 -2.10021 3.45938 0
M  V30 13210 H 1240.33 -0.513447 4.70809 0
M  V30 13211 H 1240.75 1.24114 6.65526 0
M  V30 13212 H 1245.4 -0.332093 4.21494 0
M  V30 13213 H 1243.11 2.42954 7.70713 0
M  V30 13214 H 1246.7 1.15228 5.70275 0
M  V30 13215 H 1245.58 2.51422 7.42803 0
M  V30 13216 N 1243.08 -1.54377 -0.317073 0
M  V30 13217 C 1244.02 -1.7907 -1.41453 0
M  V30 13218 C 1244.99 -0.641012 -1.49432 0
M  V30 13219 O 1246.18 -0.879179 -1.66741 0
M  V30 13220 C 1243.3 -1.91307 -2.79498 0
M  V30 13221 C 1242.35 -3.13639 -2.8902 0
M  V30 13222 S 1243.18 -4.72093 -2.52762 0
M  V30 13223 C 1244.34 -4.87245 -3.92866 0
M  V30 13224 H 1244.57 -2.71875 -1.20296 0
M  V30 13225 H 1242.11 -1.45583 -0.514279 0
M  V30 13226 H 1244.06 -1.99043 -3.59015 0
M  V30 13227 H 1242.72 -0.994687 -2.97934 0
M  V30 13228 H 1241.92 -3.18955 -3.90235 0
M  V30 13229 H 1241.52 -3.04266 -2.17481 0
M  V30 13230 H 1243.81 -4.7028 -4.87691 0
M  V30 13231 H 1244.75 -5.89344 -3.92529 0
M  V30 13232 H 1245.16 -4.15504 -3.82122 0
M  V30 13233 N 1244.56 0.579466 -1.4656 0
M  V30 13234 C 1245.81 1.33492 -1.51738 0
M  V30 13235 C 1246.13 1.94241 -0.171926 0
M  V30 13236 O 1245.4 1.78737 0.801875 0
M  V30 13237 H 1243.98 0.49565 -0.558874 0
M  V30 13238 H 1246.64 0.678394 -1.82712 0
M  V30 13239 H 1245.74 2.13995 -2.27183 0
M  V30 13240 N 1246.04 1.3432 0.824371 0
M  V30 13241 C 1247.27 1.29481 1.60992 0
M  V30 13242 C 1247.68 -0.133581 1.88728 0
M  V30 13243 O 1247.02 -1.09065 1.4782 0
M  V30 13244 C 1247.08 2.01604 2.97651 0
M  V30 13245 C 1246.75 3.50866 2.92817 0
M  V30 13246 C 1247.74 4.458 2.67504 0
M  V30 13247 C 1245.43 3.93258 3.12495 0
M  V30 13248 C 1247.42 5.81101 2.61918 0
M  V30 13249 C 1245.11 5.28659 3.06533 0
M  V30 13250 C 1246.11 6.22392 2.81278 0
M  V30 13251 O 1245.79 7.55311 2.75246 0
M  V30 13252 H 1245.53 0.446931 0.507177 0
M  V30 13253 H 1248.08 1.77484 1.03386 0
M  V30 13254 H 1246.31 1.48212 3.5717 0
M  V30 13255 H 1248 1.90073 3.58646 0
M  V30 13256 H 1248.77 4.1437 2.52037 0
M  V30 13257 H 1244.64 3.20699 3.31169 0
M  V30 13258 H 1248.19 6.54233 2.42125 0
M  V30 13259 H 1244.09 5.59709 3.21553 0
M  V30 13260 H 1244.85 7.6503 2.90984 0
M  V30 13261 N 1247.52 -1.0444 1.18026 0
M  V30 13262 C 1248.43 -2.15862 0.918747 0
M  V30 13263 C 1249.44 -1.73614 -0.115808 0
M  V30 13264 O 1250.62 -2.01294 0.0652312 0
M  V30 13265 C 1247.68 -3.43846 0.443922 0
M  V30 13266 C 1246.74 -4.00497 1.54599 0
M  V30 13267 C 1245.98 -5.22373 1.09372 0
M  V30 13268 O 1246.2 -5.70379 -0.049085 0
M  V30 13269 O 1245.13 -5.71459 1.88992 0
M  V30 13270 H 1248.96 -2.40776 1.85097 0
M  V30 13271 H 1246.55 -1.14326 0.961769 0
M  V30 13272 H 1248.43 -4.20985 0.187017 0
M  V30 13273 H 1247.1 -3.20414 -0.460051 0
M  V30 13274 H 1246.01 -3.24764 1.85686 0
M  V30 13275 H 1247.34 -4.28262 2.42595 0
M  V30 13276 N 1248.99 -0.981699 -1.2329 0
M  V30 13277 C 1249.92 -0.542441 -2.27112 0
M  V30 13278 C 1250.91 0.425034 -1.64704 0
M  V30 13279 O 1252.09 0.318114 -1.91577 0
M  V30 13280 C 1249.22 0.154668 -3.46955 0
M  V30 13281 C 1248.17 -0.73022 -4.21725 0
M  V30 13282 C 1247.5 0.0991766 -5.34608 0
M  V30 13283 C 1248.8 -2.02166 -4.81587 0
M  V30 13284 H 1250.49 -1.41024 -2.64107 0
M  V30 13285 H 1248.04 -0.679544 -1.26957 0
M  V30 13286 H 1249.99 0.473281 -4.18734 0
M  V30 13287 H 1248.72 1.05693 -3.09025 0
M  V30 13288 H 1247.38 -1.03231 -3.51765 0
M  V30 13289 H 1247.02 1.00201 -4.92919 0
M  V30 13290 H 1246.72 -0.489788 -5.85555 0
M  V30 13291 H 1248.25 0.412141 -6.09207 0
M  V30 13292 H 1249.66 -1.76773 -5.45366 0
M  V30 13293 H 1248.06 -2.55851 -5.42826 0
M  V30 13294 H 1249.13 -2.70766 -4.02261 0
M  V30 13295 N 1250.47 1.3842 -0.753509 0
M  V30 13296 C 1251.72 2.00882 -0.319047 0
M  V30 13297 C 1252.07 1.58741 1.08715 0
M  V30 13298 O 1251.37 0.814892 1.73407 0
M  V30 13299 C 1251.56 3.55375 -0.379937 0
M  V30 13300 C 1251.39 4.12518 -1.79051 0
M  V30 13301 C 1250.16 4.44286 -2.40703 0
M  V30 13302 C 1252.36 4.34783 -2.74716 0
M  V30 13303 N 1250.34 4.87036 -3.73723 0
M  V30 13304 C 1251.71 4.79941 -3.92501 0
M  V30 13305 C 1253.77 4.16882 -2.72239 0
M  V30 13306 C 1252.47 5.09075 -5.08169 0
M  V30 13307 C 1254.49 4.4714 -3.87065 0
M  V30 13308 C 1253.86 4.92522 -5.03588 0
M  V30 13309 H 1249.96 0.764737 -0.163404 0
M  V30 13310 H 1252.54 1.68037 -0.983445 0
M  V30 13311 H 1250.71 3.87567 0.254192 0
M  V30 13312 H 1252.44 4.04631 0.0748361 0
M  V30 13313 H 1249.2 4.32727 -1.9247 0
M  V30 13314 H 1249.62 5.12745 -4.42065 0
M  V30 13315 H 1254.26 3.80983 -1.83335 0
M  V30 13316 H 1251.98 5.4387 -5.97688 0
M  V30 13317 H 1255.57 4.34895 -3.86468 0
M  V30 13318 H 1254.45 5.15489 -5.90966 0
M  V30 13319 N 1251.95 0.502579 1.49372 0
M  V30 13320 C 1253.36 0.055187 1.86618 0
M  V30 13321 C 1253.71 -1.35938 1.41476 0
M  V30 13322 O 1252.84 -2.01333 0.793338 0
M  V30 13323 C 1253.43 0.0933734 3.38671 0
M  V30 13324 C 1251.99 -0.298685 3.75213 0
M  V30 13325 C 1251.14 0.465216 2.7337 0
M  V30 13326 H 1254.09 0.715281 1.41667 0
M  V30 13327 H 1254.11 -0.701549 3.73977 0
M  V30 13328 H 1253.62 1.12303 3.71497 0
M  V30 13329 H 1251.72 -1.33151 3.47996 0
M  V30 13330 H 1251.84 0.0218637 4.79095 0
M  V30 13331 H 1250.2 -0.0851469 2.54558 0
M  V30 13332 H 1250.98 1.49498 3.09039 0
M  V30 13333 N 1253.43 -1.55816 0.23648 0
M  V30 13334 C 1254.66 -2.03083 -0.395584 0
M  V30 13335 C 1255.07 -1.11599 -1.52286 0
M  V30 13336 O 1254.43 -0.128403 -1.82048 0
M  V30 13337 C 1254.48 -3.49776 -0.913197 0
M  V30 13338 O 1254.2 -4.37773 0.169151 0
M  V30 13339 C 1255.7 -4.12756 -1.617 0
M  V30 13340 H 1252.92 -0.66421 -0.0952146 0
M  V30 13341 H 1255.47 -2.01354 0.357299 0
M  V30 13342 H 1253.62 -3.52072 -1.6163 0
M  V30 13343 H 1254.03 -5.24029 -0.222217 0
M  V30 13344 H 1255.51 -5.17123 -1.93101 0
M  V30 13345 H 1255.99 -3.58631 -2.53537 0
M  V30 13346 H 1256.59 -4.14353 -0.958736 0
M  V30 13347 N 1254.91 0.036755 -1.57557 0
M  V30 13348 C 1255.85 1.03975 -2.06053 0
M  V30 13349 C 1256.82 1.36384 -0.948089 0
M  V30 13350 O 1258.01 1.46853 -1.21815 0
M  V30 13351 C 1255.15 2.33796 -2.53837 0
M  V30 13352 C 1254.26 2.07614 -3.78841 0
M  V30 13353 C 1253.4 3.3125 -4.15267 0
M  V30 13354 C 1252.44 3.00587 -5.33211 0
M  V30 13355 N 1251.57 4.16653 -5.65106 0
M  V30 13356 H 1256.41 0.61924 -2.91495 0
M  V30 13357 H 1253.95 0.294151 -1.44129 0
M  V30 13358 H 1255.91 3.09639 -2.79606 0
M  V30 13359 H 1254.54 2.73584 -1.71323 0
M  V30 13360 H 1253.59 1.22302 -3.60203 0
M  V30 13361 H 1254.9 1.80989 -4.64806 0
M  V30 13362 H 1254.06 4.15466 -4.42123 0
M  V30 13363 H 1252.79 3.60981 -3.27939 0
M  V30 13364 H 1251.8 2.14772 -5.06115 0
M  V30 13365 H 1253.02 2.72142 -6.22186 0
M  V30 13366 H 1250.97 4.4635 -4.80737 0
M  V30 13367 H 1250.89 3.93425 -6.45564 0
M  V30 13368 H 1252.16 5.01764 -5.96534 0
M  V30 13369 N 1256.39 1.54543 0.308881 0
M  V30 13370 C 1257.63 1.74639 1.04273 0
M  V30 13371 C 1257.99 0.521584 1.85195 0
M  V30 13372 O 1257.28 -0.486029 1.85333 0
M  V30 13373 C 1257.47 2.97124 1.98626 0
M  V30 13374 C 1257.3 4.31399 1.26983 0
M  V30 13375 C 1256.07 4.95301 1.00025 0
M  V30 13376 C 1258.27 5.09808 0.67827 0
M  V30 13377 N 1256.25 6.13377 0.253269 0
M  V30 13378 C 1257.62 6.19967 0.0636574 0
M  V30 13379 C 1259.68 4.9448 0.582538 0
M  V30 13380 C 1258.38 7.1647 -0.637416 0
M  V30 13381 C 1260.41 5.91307 -0.104864 0
M  V30 13382 C 1259.77 7.00829 -0.70836 0
M  V30 13383 H 1255.87 0.691718 0.36476 0
M  V30 13384 H 1258.45 1.92015 0.322233 0
M  V30 13385 H 1256.62 2.81187 2.67934 0
M  V30 13386 H 1258.36 3.05781 2.65104 0
M  V30 13387 H 1255.11 4.55512 1.29638 0
M  V30 13388 H 1255.53 6.76916 -0.106505 0
M  V30 13389 H 1260.18 4.0994 1.03483 0
M  V30 13390 H 1257.89 8.00558 -1.1015 0
M  V30 13391 H 1261.48 5.81525 -0.178774 0
M  V30 13392 H 1260.36 7.74465 -1.23182 0
M  V30 13393 N 1257.86 -0.571685 1.46866 0
M  V30 13394 C 1258.81 -1.67992 1.58263 0
M  V30 13395 C 1259.78 -1.60535 0.426345 0
M  V30 13396 O 1260.97 -1.79584 0.644534 0
M  V30 13397 C 1258.11 -3.06327 1.58927 0
M  V30 13398 C 1257.22 -3.24328 2.85369 0
M  V30 13399 C 1256.35 -4.52976 2.77464 0
M  V30 13400 C 1255.39 -4.64359 3.98795 0
M  V30 13401 N 1254.53 -5.84345 3.89211 0
M  V30 13402 H 1259.37 -1.57589 2.52922 0
M  V30 13403 H 1256.91 -0.767883 1.25467 0
M  V30 13404 H 1258.86 -3.86411 1.57296 0
M  V30 13405 H 1257.49 -3.15601 0.677912 0
M  V30 13406 H 1256.55 -2.37774 2.96931 0
M  V30 13407 H 1257.86 -3.28605 3.7526 0
M  V30 13408 H 1257.01 -5.41303 2.74001 0
M  V30 13409 H 1255.75 -4.51155 1.85231 0
M  V30 13410 H 1254.76 -3.74448 4.02578 0
M  V30 13411 H 1255.98 -4.6795 4.92137 0
M  V30 13412 H 1253.93 -5.835 2.99772 0
M  V30 13413 H 1253.84 -5.89938 4.72768 0
M  V30 13414 H 1255.11 -6.75072 3.89741 0
M  V30 13415 N 1259.34 -1.34755 -0.817236 0
M  V30 13416 C 1260.27 -1.29452 -1.94331 0
M  V30 13417 C 1261.25 -0.170902 -1.69239 0
M  V30 13418 O 1262.44 -0.364173 -1.90755 0
M  V30 13419 C 1259.57 -1.05497 -3.30889 0
M  V30 13420 C 1258.52 -2.14386 -3.70436 0
M  V30 13421 C 1257.85 -1.75612 -5.05039 0
M  V30 13422 C 1259.15 -3.56265 -3.81933 0
M  V30 13423 H 1260.84 -2.23672 -1.99025 0
M  V30 13424 H 1258.39 -1.07674 -0.956159 0
M  V30 13425 H 1260.34 -1.0043 -4.09257 0
M  V30 13426 H 1259.06 -0.0772059 -3.26509 0
M  V30 13427 H 1257.72 -2.18532 -2.94345 0
M  V30 13428 H 1257.37 -0.764809 -4.97152 0
M  V30 13429 H 1257.07 -2.48495 -5.3247 0
M  V30 13430 H 1258.6 -1.72051 -5.85859 0
M  V30 13431 H 1260.01 -3.545 -4.50558 0
M  V30 13432 H 1258.41 -4.27818 -4.20822 0
M  V30 13433 H 1259.48 -3.93192 -2.83775 0
M  V30 13434 N 1260.82 1.03812 -1.18578 0
M  V30 13435 C 1261.75 2.11928 -0.872871 0
M  V30 13436 C 1262.76 1.62275 0.130592 0
M  V30 13437 O 1263.95 1.78233 -0.0975869 0
M  V30 13438 C 1261.05 3.37714 -0.283321 0
M  V30 13439 C 1260.23 4.16591 -1.33307 0
M  V30 13440 C 1259.29 5.20701 -0.758746 0
M  V30 13441 O 1258.31 5.50837 -1.43412 0
M  V30 13442 N 1259.51 5.78811 0.442505 0
M  V30 13443 H 1262.28 2.39364 -1.80346 0
M  V30 13444 H 1259.84 1.20027 -1.08652 0
M  V30 13445 H 1261.83 4.04538 0.114524 0
M  V30 13446 H 1260.4 3.07699 0.551347 0
M  V30 13447 H 1259.62 3.45051 -1.90613 0
M  V30 13448 H 1260.91 4.66082 -2.04071 0
M  V30 13449 H 1260.31 5.56631 1.00889 0
M  V30 13450 H 1258.86 6.47089 0.78224 0
M  V30 13451 N 1262.3 0.988223 1.22768 0
M  V30 13452 C 1263.24 0.534605 2.24523 0
M  V30 13453 C 1264.21 -0.430615 1.60421 0
M  V30 13454 O 1265.4 -0.336417 1.87811 0
M  V30 13455 C 1262.54 -0.149195 3.44777 0
M  V30 13456 C 1261.65 0.85721 4.2341 0
M  V30 13457 C 1260.79 0.147411 5.30995 0
M  V30 13458 C 1259.83 1.1425 6.01343 0
M  V30 13459 N 1258.96 0.461327 7.00583 0
M  V30 13460 H 1263.8 1.40708 2.62689 0
M  V30 13461 H 1261.34 0.704918 1.2911 0
M  V30 13462 H 1263.3 -0.562527 4.1339 0
M  V30 13463 H 1261.93 -0.985485 3.07389 0
M  V30 13464 H 1260.98 1.38889 3.54138 0
M  V30 13465 H 1262.29 1.61517 4.71926 0
M  V30 13466 H 1261.45 -0.32289 6.0584 0
M  V30 13467 H 1260.19 -0.643085 4.83442 0
M  V30 13468 H 1259.19 1.62348 5.25284 0
M  V30 13469 H 1260.42 1.93379 6.50985 0
M  V30 13470 H 1258.36 -0.309818 6.55268 0
M  V30 13471 H 1258.28 1.15781 7.47082 0
M  V30 13472 H 1259.55 0.0136734 7.79499 0
M  V30 13473 N 1263.78 -1.38018 0.760839 0
M  V30 13474 C 1265.02 -1.99194 0.316984 0
M  V30 13475 C 1265.34 -1.61083 -1.10958 0
M  V30 13476 O 1266.54 -2.15281 -1.65428 0
M  V30 13477 C 1265 -3.56185 0.515792 0
M  V30 13478 C 1264.61 -4.03242 1.95191 0
M  V30 13479 C 1266.35 -4.24285 0.135013 0
M  V30 13480 C 1264.26 -5.52902 2.0989 0
M  V30 13481 H 1263.19 -0.745214 0.114771 0
M  V30 13482 H 1265.84 -1.5769 0.938415 0
M  V30 13483 H 1264.22 -3.95613 -0.174934 0
M  V30 13484 H 1265.4 -3.75086 2.6767 0
M  V30 13485 H 1263.71 -3.47889 2.28827 0
M  V30 13486 H 1266.31 -5.34233 0.223495 0
M  V30 13487 H 1266.65 -4.06158 -0.913322 0
M  V30 13488 H 1267.18 -3.90121 0.777868 0
M  V30 13489 H 1263.92 -5.75942 3.13003 0
M  V30 13490 H 1263.44 -5.82778 1.41881 0
M  V30 13491 H 1265.12 -6.18709 1.89229 0
M  V30 13492 N 1265.25 -0.510493 -1.49103 0
M  V30 13493 C 1266.19 0.299697 -2.27232 0
M  V30 13494 C 1267.2 0.922102 -1.34168 0
M  V30 13495 O 1268.39 0.803836 -1.59376 0
M  V30 13496 C 1265.49 1.43778 -3.06889 0
M  V30 13497 C 1264.66 0.920927 -4.27595 0
M  V30 13498 C 1263.72 1.93777 -4.89221 0
M  V30 13499 O 1262.75 1.5025 -5.49011 0
M  V30 13500 N 1263.95 3.2688 -4.79718 0
M  V30 13501 H 1266.71 -0.37028 -2.97404 0
M  V30 13502 H 1264.27 -0.343617 -1.58212 0
M  V30 13503 H 1266.27 2.11577 -3.44988 0
M  V30 13504 H 1264.84 2.01175 -2.39264 0
M  V30 13505 H 1264.06 0.0675358 -3.94142 0
M  V30 13506 H 1265.34 0.554168 -5.05773 0
M  V30 13507 H 1264.74 3.64924 -4.32258 0
M  V30 13508 H 1263.3 3.90366 -5.21974 0
M  V30 13509 N 1266.73 1.55688 -0.24474 0
M  V30 13510 C 1267.66 2.24272 0.64995 0
M  V30 13511 C 1268.64 1.22226 1.183 0
M  V30 13512 O 1269.83 1.50873 1.22274 0
M  V30 13513 C 1266.96 2.94053 1.84798 0
M  V30 13514 C 1265.91 4.02769 1.44779 0
M  V30 13515 C 1265.24 4.59965 2.72647 0
M  V30 13516 C 1266.54 5.18601 0.62047 0
M  V30 13517 H 1268.23 2.99298 0.0780654 0
M  V30 13518 H 1265.78 1.43955 0.0361069 0
M  V30 13519 H 1267.73 3.40732 2.47951 0
M  V30 13520 H 1266.45 2.16511 2.44521 0
M  V30 13521 H 1265.11 3.56856 0.839609 0
M  V30 13522 H 1264.76 3.79126 3.30564 0
M  V30 13523 H 1264.46 5.33352 2.46596 0
M  V30 13524 H 1265.99 5.09376 3.36703 0
M  V30 13525 H 1267.4 5.61519 1.15625 0
M  V30 13526 H 1265.8 5.98364 0.456097 0
M  V30 13527 H 1266.87 4.83503 -0.367798 0
M  V30 13528 N 1268.21 -0.0283989 1.57574 0
M  V30 13529 C 1269.62 -0.574912 1.77628 0
M  V30 13530 C 1269.97 -1.75563 0.875903 0
M  V30 13531 O 1269.1 -2.16284 0.0709141 0
M  V30 13532 C 1269.69 -1.04972 3.22128 0
M  V30 13533 C 1268.25 -1.54175 3.43376 0
M  V30 13534 C 1267.4 -0.480127 2.73112 0
M  V30 13535 H 1270.35 0.197826 1.57462 0
M  V30 13536 H 1270.37 -1.91705 3.28678 0
M  V30 13537 H 1269.88 -0.190173 3.87634 0
M  V30 13538 H 1267.98 -2.42313 2.83046 0
M  V30 13539 H 1268.1 -1.58879 4.51989 0
M  V30 13540 H 1266.46 -0.935314 2.36905 0
M  V30 13541 H 1267.24 0.369973 3.41301 0
M  V30 13542 N 1269.69 -1.54705 -0.300681 0
M  V30 13543 C 1270.62 -1.8205 -1.39249 0
M  V30 13544 C 1271.63 -0.703476 -1.46816 0
M  V30 13545 O 1272.82 -0.980957 -1.49129 0
M  V30 13546 C 1269.92 -1.94376 -2.77617 0
M  V30 13547 C 1269.09 -3.2478 -2.92979 0
M  V30 13548 C 1268.15 -3.27518 -4.11848 0
M  V30 13549 O 1267.18 -4.01047 -4.03918 0
M  V30 13550 N 1268.38 -2.52932 -5.22499 0
M  V30 13551 H 1271.15 -2.76279 -1.16146 0
M  V30 13552 H 1268.71 -1.54283 -0.49075 0
M  V30 13553 H 1270.7 -1.93609 -3.55384 0
M  V30 13554 H 1269.27 -1.07141 -2.93666 0
M  V30 13555 H 1268.49 -3.38319 -2.02322 0
M  V30 13556 H 1269.78 -4.10835 -3.00153 0
M  V30 13557 H 1269.18 -1.92825 -5.31822 0
M  V30 13558 H 1267.73 -2.57919 -5.98599 0
M  V30 13559 N 1271.17 0.563888 -1.47167 0
M  V30 13560 C 1272.11 1.67151 -1.59152 0
M  V30 13561 C 1273.08 1.60307 -0.434852 0
M  V30 13562 O 1274.27 1.7924 -0.654049 0
M  V30 13563 C 1271.41 3.0548 -1.60549 0
M  V30 13564 C 1270.52 3.2281 -2.87085 0
M  V30 13565 C 1269.66 4.51498 -2.79862 0
M  V30 13566 C 1268.7 4.62237 -4.01252 0
M  V30 13567 N 1267.83 5.82273 -3.92305 0
M  V30 13568 H 1272.67 1.56245 -2.53755 0
M  V30 13569 H 1270.21 0.761219 -1.25872 0
M  V30 13570 H 1272.17 3.85572 -1.59343 0
M  V30 13571 H 1270.8 3.15237 -0.69464 0
M  V30 13572 H 1269.85 2.36196 -2.98188 0
M  V30 13573 H 1271.16 3.2661 -3.76997 0
M  V30 13574 H 1270.32 5.39842 -2.76867 0
M  V30 13575 H 1269.05 4.50166 -1.87621 0
M  V30 13576 H 1268.06 3.72307 -4.04558 0
M  V30 13577 H 1269.28 4.65334 -4.94612 0
M  V30 13578 H 1267.23 5.81902 -3.02862 0
M  V30 13579 H 1267.15 5.87422 -4.7589 0
M  V30 13580 H 1268.42 6.72996 -3.93315 0
M  V30 13581 N 1272.64 1.35187 0.810078 0
M  V30 13582 C 1273.55 1.29926 1.95337 0
M  V30 13583 C 1274.57 0.204748 1.72791 0
M  V30 13584 O 1275.75 0.433507 1.96679 0
M  V30 13585 C 1272.81 1.06736 3.29861 0
M  V30 13586 C 1271.87 2.25466 3.65326 0
M  V30 13587 C 1271.11 2.03373 4.93432 0
M  V30 13588 O 1271.33 0.998419 5.61594 0
M  V30 13589 O 1270.26 2.90648 5.27075 0
M  V30 13590 H 1274.09 2.26137 2.02721 0
M  V30 13591 H 1271.67 1.15523 0.947354 0
M  V30 13592 H 1273.56 0.956367 4.10404 0
M  V30 13593 H 1272.23 0.135735 3.23415 0
M  V30 13594 H 1271.14 2.42129 2.85175 0
M  V30 13595 H 1272.47 3.17063 3.76473 0
M  V30 13596 N 1274.12 -1.03182 1.19127 0
M  V30 13597 C 1275.37 -1.75934 0.986415 0
M  V30 13598 C 1275.68 -1.89519 -0.48392 0
M  V30 13599 O 1276.89 -2.59213 -0.80752 0
M  V30 13600 C 1275.35 -3.16358 1.71597 0
M  V30 13601 C 1274.95 -3.10836 3.22622 0
M  V30 13602 C 1276.7 -3.93426 1.59425 0
M  V30 13603 C 1274.61 -4.46174 3.88179 0
M  V30 13604 H 1273.54 -0.659516 0.365451 0
M  V30 13605 H 1276.19 -1.15497 1.42593 0
M  V30 13606 H 1274.57 -3.77245 1.20426 0
M  V30 13607 H 1275.74 -2.59348 3.80887 0
M  V30 13608 H 1274.06 -2.47266 3.35035 0
M  V30 13609 H 1276.65 -4.93526 2.05757 0
M  V30 13610 H 1277 -4.12678 0.547926 0
M  V30 13611 H 1277.53 -3.39134 2.07925 0
M  V30 13612 H 1274.27 -4.32126 4.92897 0
M  V30 13613 H 1273.79 -4.97729 3.34702 0
M  V30 13614 H 1275.47 -5.15066 3.91556 0
M  V30 13615 N 1275.6 -0.99472 -1.22242 0
M  V30 13616 C 1276.85 -0.682256 -1.91616 0
M  V30 13617 C 1277.2 0.777397 -1.75995 0
M  V30 13618 O 1276.49 1.55509 -1.11926 0
M  V30 13619 C 1276.69 -1.02561 -3.42368 0
M  V30 13620 C 1276.52 -2.5171 -3.72656 0
M  V30 13621 C 1275.29 -3.18144 -3.92571 0
M  V30 13622 C 1277.49 -3.49835 -3.76988 0
M  V30 13623 N 1275.47 -4.5675 -4.10186 0
M  V30 13624 C 1276.84 -4.73907 -3.99765 0
M  V30 13625 C 1278.89 -3.44116 -3.59845 0
M  V30 13626 C 1277.6 -5.92957 -4.07179 0
M  V30 13627 C 1279.62 -4.62545 -3.68519 0
M  V30 13628 C 1278.98 -5.85417 -3.91748 0
M  V30 13629 H 1275.08 -0.300961 -0.721766 0
M  V30 13630 H 1277.67 -1.2751 -1.47137 0
M  V30 13631 H 1275.84 -0.461327 -3.85651 0
M  V30 13632 H 1277.57 -0.66895 -3.99133 0
M  V30 13633 H 1274.33 -2.68608 -3.9006 0
M  V30 13634 H 1274.75 -5.28649 -4.22917 0
M  V30 13635 H 1279.39 -2.50134 -3.40871 0
M  V30 13636 H 1277.11 -6.87341 -4.24956 0
M  V30 13637 H 1280.7 -4.59711 -3.56591 0
M  V30 13638 H 1279.58 -6.75525 -3.98291 0
M  V30 13639 N 1277.08 1.37613 -0.768148 0
M  V30 13640 C 1278.31 2.04052 -0.342111 0
M  V30 13641 C 1278.72 1.57936 1.03449 0
M  V30 13642 O 1278.08 0.758981 1.65969 0
M  V30 13643 C 1278.13 3.5958 -0.372096 0
M  V30 13644 O 1277.85 4.04008 -1.69439 0
M  V30 13645 C 1279.35 4.43251 0.0659884 0
M  V30 13646 H 1276.57 0.655391 -0.143886 0
M  V30 13647 H 1279.12 1.76017 -1.04107 0
M  V30 13648 H 1277.27 3.86399 0.278248 0
M  V30 13649 H 1277.68 4.98511 -1.63054 0
M  V30 13650 H 1279.16 5.52 -0.00614775 0
M  V30 13651 H 1279.64 4.24788 1.11588 0
M  V30 13652 H 1280.24 4.2165 -0.55603 0
M  V30 13653 N 1278.56 0.518393 1.4883 0
M  V30 13654 C 1279.8 -0.0199348 2.0279 0
M  V30 13655 C 1280.14 -1.35026 1.39576 0
M  V30 13656 O 1279.41 -1.86927 0.537449 0
M  V30 13657 C 1279.69 -0.154184 3.5977 0
M  V30 13658 C 1279.55 1.2005 4.33484 0
M  V30 13659 C 1280.87 -0.886547 4.31078 0
M  V30 13660 H 1277.98 -0.00577061 0.736977 0
M  V30 13661 H 1280.63 0.673178 1.77675 0
M  V30 13662 H 1278.78 -0.74451 3.81299 0
M  V30 13663 H 1280.45 1.83104 4.23404 0
M  V30 13664 H 1278.69 1.78537 3.95357 0
M  V30 13665 H 1279.36 1.05968 5.41733 0
M  V30 13666 H 1281.84 -0.385711 4.14308 0
M  V30 13667 H 1280.71 -0.949355 5.40628 0
M  V30 13668 H 1280.98 -1.93424 3.97542 0
M  V30 13669 N 1280.03 -1.55556 0.252993 0
M  V30 13670 C 1280.98 -2.23035 -0.660161 0
M  V30 13671 C 1281.98 -1.21994 -1.17532 0
M  V30 13672 O 1283.18 -1.39989 -1.13151 0
M  V30 13673 H 1279.56 -0.715516 -0.23139 0
M  V30 13674 H 1281.53 -2.98323 -0.0679506 0
M  V30 13675 C 1280.28 -2.94817 -1.84332 0
M  V30 13676 H 1279.6 -3.72342 -1.45607 0
M  V30 13677 H 1281.04 -3.45386 -2.45936 0
M  V30 13678 C 1279.5 -1.99033 -2.71822 0
M  V30 13679 O 1280.03 -1.5273 -3.71533 0
M  V30 13680 N 1278.24 -1.66004 -2.38518 0
M  V30 13681 H 1277.78 -2.03853 -1.57485 0
M  V30 13682 H 1277.74 -1.02183 -2.97331 0
M  V30 13683 N 1281.51 0.0200419 -1.57587 0
M  V30 13684 C 1282.79 0.744946 -1.80859 0
M  V30 13685 C 1283.17 1.93089 -0.853218 0
M  V30 13686 O 1282.52 2.28269 0.10261 0
M  V30 13687 C 1282.73 1.16952 -3.28821 0
M  V30 13688 C 1284.08 1.5817 -3.9404 0
M  V30 13689 O 1285.1 1.26385 -3.33024 0
M  V30 13690 O 1283.96 2.17197 -5.01486 0
M  V30 13691 H 1281.05 0.360995 -0.744051 0
M  V30 13692 H 1283.6 -0.00387374 -1.697 0
M  V30 13693 H 1282.37 0.323304 -3.89962 0
M  V30 13694 H 1281.99 1.97807 -3.44903 0
M  V30 13695 N 1282.99 1.54862 0.292472 0
M  V30 13696 C 1284.24 1.73756 1.02429 0
M  V30 13697 C 1284.55 0.535164 1.88137 0
M  V30 13698 O 1285.76 0.606092 2.64648 0
M  V30 13699 C 1284.21 3.0745 1.8709 0
M  V30 13700 C 1283.82 4.35195 1.06343 0
M  V30 13701 C 1285.57 3.357 2.59819 0
M  V30 13702 C 1283.47 5.59936 1.9033 0
M  V30 13703 H 1282.4 0.647617 0.386145 0
M  V30 13704 H 1285.05 1.81338 0.28086 0
M  V30 13705 H 1283.44 2.93855 2.65453 0
M  V30 13706 H 1284.61 4.5965 0.325335 0
M  V30 13707 H 1282.93 4.13944 0.451574 0
M  V30 13708 H 1285.52 4.26099 3.23023 0
M  V30 13709 H 1285.87 2.54956 3.29094 0
M  V30 13710 H 1286.4 3.50304 1.88499 0
M  V30 13711 H 1283.14 6.43372 1.25509 0
M  V30 13712 H 1282.66 5.39654 2.61789 0
M  V30 13713 H 1284.34 5.97512 2.48171 0
M  V30 13714 N 1284.47 -0.556076 1.47464 0
M  V30 13715 C 1285.4 -1.67829 1.56096 0
M  V30 13716 C 1286.41 -1.56541 0.447077 0
M  V30 13717 O 1287.6 -1.63478 0.716739 0
M  V30 13718 C 1284.7 -3.06303 1.45023 0
M  V30 13719 C 1283.88 -3.43334 2.70999 0
M  V30 13720 C 1282.93 -4.60976 2.53746 0
M  V30 13721 O 1281.96 -4.65501 3.27564 0
M  V30 13722 N 1283.16 -5.5754 1.61647 0
M  V30 13723 H 1285.93 -1.6087 2.52865 0
M  V30 13724 H 1283.49 -0.74274 1.43857 0
M  V30 13725 H 1285.48 -3.82838 1.31214 0
M  V30 13726 H 1284.05 -3.07483 0.563311 0
M  V30 13727 H 1283.27 -2.56236 2.99561 0
M  V30 13728 H 1284.56 -3.64851 3.54629 0
M  V30 13729 H 1283.96 -5.56642 1.00827 0
M  V30 13730 H 1282.51 -6.33397 1.53789 0
M  V30 13731 N 1285.95 -1.35615 -0.802897 0
M  V30 13732 C 1286.89 -1.28839 -1.91492 0
M  V30 13733 C 1287.86 -0.159621 -1.65331 0
M  V30 13734 O 1289.05 -0.343931 -1.87675 0
M  V30 13735 C 1286.19 -1.06999 -3.28093 0
M  V30 13736 C 1285.3 -2.28831 -3.66416 0
M  V30 13737 C 1284.44 -2.00111 -4.92066 0
M  V30 13738 C 1283.48 -3.17977 -5.23027 0
M  V30 13739 N 1282.61 -2.89009 -6.39858 0
M  V30 13740 H 1287.45 -2.2393 -1.96619 0
M  V30 13741 H 1284.99 -1.1131 -0.961687 0
M  V30 13742 H 1286.95 -0.923673 -4.06847 0
M  V30 13743 H 1285.58 -0.155684 -3.22424 0
M  V30 13744 H 1284.63 -2.54314 -2.82893 0
M  V30 13745 H 1285.94 -3.1683 -3.85253 0
M  V30 13746 H 1285.1 -1.82331 -5.78654 0
M  V30 13747 H 1283.84 -1.09402 -4.75271 0
M  V30 13748 H 1282.84 -3.3633 -4.34928 0
M  V30 13749 H 1284.07 -4.09493 -5.41749 0
M  V30 13750 H 1282.01 -2.00898 -6.24481 0
M  V30 13751 H 1281.93 -3.70544 -6.58964 0
M  V30 13752 H 1283.2 -2.74779 -7.29463 0
M  V30 13753 N 1287.43 1.02549 -1.19673 0
M  V30 13754 C 1288.36 2.12794 -0.961289 0
M  V30 13755 C 1289.34 1.69766 0.106575 0
M  V30 13756 O 1290.52 1.94138 -0.0491358 0
M  V30 13757 C 1287.65 3.4364 -0.502868 0
M  V30 13758 C 1286.61 4.00367 -1.51296 0
M  V30 13759 C 1285.93 5.26874 -0.911491 0
M  V30 13760 C 1287.23 4.34782 -2.89416 0
M  V30 13761 H 1288.93 2.32748 -1.88331 0
M  V30 13762 H 1286.47 1.11852 -0.906922 0
M  V30 13763 H 1288.42 4.20141 -0.325436 0
M  V30 13764 H 1287.15 3.23418 0.454764 0
M  V30 13765 H 1285.81 3.25964 -1.67759 0
M  V30 13766 H 1285.46 5.02971 0.0537982 0
M  V30 13767 H 1285.16 5.65791 -1.58602 0
M  V30 13768 H 1286.68 6.06039 -0.74493 0
M  V30 13769 H 1288.09 5.02207 -2.76516 0
M  V30 13770 H 1286.49 4.8479 -3.53693 0
M  V30 13771 H 1287.56 3.43935 -3.41814 0
M  V30 13772 N 1288.9 1.00119 1.21713 0
M  V30 13773 C 1290.15 0.682733 1.90962 0
M  V30 13774 C 1290.48 -0.784131 1.77665 0
M  V30 13775 O 1289.76 -1.56799 1.15084 0
M  V30 13776 C 1290.04 1.09975 3.42896 0
M  V30 13777 C 1289.89 2.62578 3.65202 0
M  V30 13778 C 1291.21 0.659247 4.35134 0
M  V30 13779 H 1288.33 0.249501 0.693483 0
M  V30 13780 H 1290.97 1.24619 1.43423 0
M  V30 13781 H 1289.12 0.620334 3.83515 0
M  V30 13782 H 1290.8 3.18254 3.33934 0
M  V30 13783 H 1289.04 3.04268 3.09198 0
M  V30 13784 H 1289.71 2.86809 4.7164 0
M  V30 13785 H 1292.19 1.07116 4.02076 0
M  V30 13786 H 1291.06 0.979241 5.40095 0
M  V30 13787 H 1291.32 -0.439777 4.39907 0
M  V30 13788 N 1290.38 -1.37203 0.775435 0
M  V30 13789 C 1291.63 -1.99207 0.340756 0
M  V30 13790 C 1291.95 -1.61861 -1.08747 0
M  V30 13791 O 1291.22 -0.88583 -1.74728 0
M  V30 13792 H 1289.8 -0.736803 0.123004 0
M  V30 13793 H 1292.46 -1.67625 0.994379 0
M  V30 13794 H 1291.56 -3.09243 0.421346 0
M  V30 13795 N 1291.86 -0.526279 -1.48553 0
M  V30 13796 C 1293.11 0.00918008 -2.02798 0
M  V30 13797 C 1293.44 1.34284 -1.4029 0
M  V30 13798 O 1292.71 1.86639 -0.547355 0
M  V30 13799 C 1293 0.135102 -3.59846 0
M  V30 13800 C 1292.85 -1.22347 -4.32841 0
M  V30 13801 C 1294.17 0.863673 -4.31542 0
M  V30 13802 H 1291.29 0.00186216 -0.736998 0
M  V30 13803 H 1293.93 -0.682591 -1.77315 0
M  V30 13804 H 1292.08 0.724279 -3.81689 0
M  V30 13805 H 1293.75 -1.85347 -4.22427 0
M  V30 13806 H 1291.99 -1.80631 -3.94405 0
M  V30 13807 H 1292.67 -1.08839 -5.41164 0
M  V30 13808 H 1295.14 0.363734 -4.14507 0
M  V30 13809 H 1294.02 0.92067 -5.41124 0
M  V30 13810 H 1294.28 1.91313 -3.98562 0
M  V30 13811 N 1293.34 1.5542 -0.261239 0
M  V30 13812 C 1294.27 2.24949 0.626126 0
M  V30 13813 C 1295.25 1.23474 1.16997 0
M  V30 13814 O 1296.43 1.52161 1.20667 0
M  V30 13815 C 1293.56 2.95996 1.81669 0
M  V30 13816 C 1292.52 4.04282 1.40499 0
M  V30 13817 C 1291.84 4.62831 2.67753 0
M  V30 13818 C 1293.14 5.1923 0.56543 0
M  V30 13819 H 1294.84 2.99364 0.0463164 0
M  V30 13820 H 1292.38 1.43985 0.0208366 0
M  V30 13821 H 1294.34 3.43343 2.44323 0
M  V30 13822 H 1293.06 2.19093 2.42211 0
M  V30 13823 H 1291.72 3.57726 0.801712 0
M  V30 13824 H 1291.37 3.82611 3.26524 0
M  V30 13825 H 1291.07 5.35938 2.40925 0
M  V30 13826 H 1292.59 5.12918 3.31281 0
M  V30 13827 H 1294.01 5.62714 1.09663 0
M  V30 13828 H 1292.4 5.98814 0.392607 0
M  V30 13829 H 1293.47 4.83086 -0.419059 0
M  V30 13830 N 1294.82 -0.0116844 1.57596 0
M  V30 13831 C 1295.76 -1.02514 2.08791 0
M  V30 13832 C 1296.76 -1.36341 1.00536 0
M  V30 13833 O 1297.96 -1.35042 1.19011 0
M  V30 13834 H 1294.34 -0.348201 0.666528 0
M  V30 13835 H 1296.31 -0.567698 2.9295 0
M  V30 13836 C 1295.06 -2.312 2.59696 0
M  V30 13837 H 1294.38 -2.06036 3.42621 0
M  V30 13838 H 1295.82 -3.00417 2.99208 0
M  V30 13839 C 1294.28 -3.01372 1.50586 0
M  V30 13840 O 1294.81 -3.91896 0.882046 0
M  V30 13841 N 1293.02 -2.62997 1.23616 0
M  V30 13842 H 1292.56 -1.89466 1.74529 0
M  V30 13843 H 1292.52 -3.10264 0.508289 0
M  V30 13844 N 1296.29 -1.55015 -0.284256 0
M  V30 13845 C 1297.54 -1.76276 -1.01481 0
M  V30 13846 C 1297.89 -0.550981 -1.84342 0
M  V30 13847 O 1297.19 0.456483 -1.86083 0
M  V30 13848 C 1297.38 -3.00246 -1.93874 0
M  V30 13849 C 1297.21 -4.33365 -1.20104 0
M  V30 13850 C 1295.98 -4.9683 -0.921324 0
M  V30 13851 C 1298.18 -5.10822 -0.597078 0
M  V30 13852 N 1296.16 -6.13703 -0.155654 0
M  V30 13853 C 1297.53 -6.1999 0.0349821 0
M  V30 13854 C 1299.59 -4.95345 -0.503796 0
M  V30 13855 C 1298.29 -7.15365 0.751319 0
M  V30 13856 C 1300.32 -5.91065 0.198923 0
M  V30 13857 C 1299.68 -6.99614 0.819767 0
M  V30 13858 H 1295.78 -0.697434 -0.353709 0
M  V30 13859 H 1298.36 -1.92503 -0.291645 0
M  V30 13860 H 1296.53 -2.85414 -2.63426 0
M  V30 13861 H 1298.26 -3.09959 -2.60206 0
M  V30 13862 H 1295.02 -4.57517 -1.22375 0
M  V30 13863 H 1295.44 -6.76661 0.214183 0
M  V30 13864 H 1300.08 -4.11535 -0.969477 0
M  V30 13865 H 1297.8 -7.98704 1.22872 0
M  V30 13866 H 1301.39 -5.81167 0.271267 0
M  V30 13867 H 1300.27 -7.72407 1.35487 0
M  V30 13868 N 1297.77 0.548248 -1.47757 0
M  V30 13869 C 1298.73 1.63666 -1.60456 0
M  V30 13870 C 1299.73 1.53499 -0.479028 0
M  V30 13871 O 1300.92 1.57497 -0.744342 0
M  V30 13872 C 1298.06 3.03239 -1.55754 0
M  V30 13873 H 1299.25 1.53752 -2.57488 0
M  V30 13874 H 1296.8 0.768881 -1.36081 0
M  V30 13875 H 1297.54 3.18677 -0.601303 0
M  V30 13876 H 1297.32 3.12027 -2.37448 0
M  V30 13877 H 1298.81 3.82406 -1.67797 0
M  V30 13878 N 1299.25 1.36039 0.795694 0
M  V30 13879 C 1300.21 1.29709 1.88966 0
M  V30 13880 C 1301.21 0.206142 1.59473 0
M  V30 13881 O 1302.4 0.460534 1.68002 0
M  V30 13882 C 1299.53 1.00922 3.25619 0
M  V30 13883 H 1300.73 2.26993 1.95995 0
M  V30 13884 H 1298.28 1.2072 0.992791 0
M  V30 13885 H 1299.02 0.0407027 3.24274 0
M  V30 13886 H 1298.8 1.79863 3.48413 0
M  V30 13887 H 1300.29 0.990826 4.05675 0
M  V30 13888 N 1300.73 -1.01913 1.20215 0
M  V30 13889 C 1301.66 -2.10513 0.906476 0
M  V30 13890 C 1302.67 -1.62463 -0.104758 0
M  V30 13891 O 1303.86 -1.78055 0.12593 0
M  V30 13892 C 1300.96 -3.3722 0.337012 0
M  V30 13893 C 1300.14 -4.14417 1.39917 0
M  V30 13894 C 1299.19 -5.19428 0.841489 0
M  V30 13895 O 1298.22 -5.48486 1.52157 0
M  V30 13896 N 1299.42 -5.79442 -0.350365 0
M  V30 13897 H 1302.19 -2.36465 1.84132 0
M  V30 13898 H 1299.75 -1.18283 1.10548 0
M  V30 13899 H 1301.74 -4.04669 -0.0501507 0
M  V30 13900 H 1300.31 -3.08538 -0.502325 0
M  V30 13901 H 1299.53 -3.41975 1.96078 0
M  V30 13902 H 1300.82 -4.62777 2.1146 0
M  V30 13903 H 1300.22 -5.58166 -0.920204 0
M  V30 13904 H 1298.77 -6.48252 -0.679194 0
M  V30 13905 N 1302.21 -1.00763 -1.2118 0
M  V30 13906 C 1303.14 -0.590493 -2.2591 0
M  V30 13907 C 1304.12 0.390002 -1.65569 0
M  V30 13908 O 1305.3 0.277406 -1.92208 0
M  V30 13909 C 1302.43 0.0810388 -3.47205 0
M  V30 13910 C 1301.39 -0.81951 -4.20081 0
M  V30 13911 C 1300.71 -0.014244 -5.34698 0
M  V30 13912 C 1302.01 -2.12336 -4.7719 0
M  V30 13913 H 1303.71 -1.46595 -2.61056 0
M  V30 13914 H 1301.25 -0.706321 -1.25487 0
M  V30 13915 H 1303.21 0.384355 -4.19644 0
M  V30 13916 H 1301.93 0.991145 -3.11197 0
M  V30 13917 H 1300.59 -1.10669 -3.49497 0
M  V30 13918 H 1300.24 0.897233 -4.94933 0
M  V30 13919 H 1299.94 -0.613883 -5.84384 0
M  V30 13920 H 1301.46 0.282827 -6.09945 0
M  V30 13921 H 1302.87 -1.88301 -5.41494 0
M  V30 13922 H 1301.27 -2.67308 -5.37277 0
M  V30 13923 H 1302.34 -2.79238 -3.96427 0
M  V30 13924 N 1303.68 1.3679 -0.7827 0
M  V30 13925 C 1304.91 2.03382 -0.363207 0
M  V30 13926 C 1305.32 1.59157 1.02302 0
M  V30 13927 O 1304.67 0.773325 1.66629 0
M  V30 13928 C 1304.73 3.57889 -0.34001 0
M  V30 13929 C 1304.39 4.25289 -1.67268 0
M  V30 13930 C 1305.39 4.48647 -2.62701 0
M  V30 13931 C 1303.07 4.62899 -1.95013 0
M  V30 13932 C 1305.07 5.08686 -3.8408 0
M  V30 13933 C 1302.75 5.22657 -3.16659 0
M  V30 13934 C 1303.75 5.45489 -4.11012 0
M  V30 13935 O 1303.44 6.03995 -5.30515 0
M  V30 13936 H 1303.17 0.659452 -0.148658 0
M  V30 13937 H 1305.73 1.75885 -1.06082 0
M  V30 13938 H 1303.96 3.84477 0.414055 0
M  V30 13939 H 1305.65 4.05864 0.0539009 0
M  V30 13940 H 1306.41 4.19993 -2.42551 0
M  V30 13941 H 1302.29 4.44455 -1.22395 0
M  V30 13942 H 1305.83 5.26423 -4.57738 0
M  V30 13943 H 1301.73 5.50736 -3.3669 0
M  V30 13944 H 1302.5 6.22466 -5.31487 0
M  V30 13945 N 1305.16 0.53415 1.48272 0
M  V30 13946 C 1306.57 0.0947592 1.86459 0
M  V30 13947 C 1306.92 -1.32906 1.44328 0
M  V30 13948 O 1306.05 -1.99605 0.835866 0
M  V30 13949 C 1306.64 0.16519 3.38397 0
M  V30 13950 C 1305.2 -0.219029 3.75762 0
M  V30 13951 C 1304.35 0.523097 2.72321 0
M  V30 13952 H 1307.3 0.74517 1.40117 0
M  V30 13953 H 1307.32 -0.622065 3.75381 0
M  V30 13954 H 1306.83 1.20157 3.69031 0
M  V30 13955 H 1304.94 -1.2574 3.50742 0
M  V30 13956 H 1305.05 0.123482 4.78941 0
M  V30 13957 H 1303.41 -0.0311323 2.54681 0
M  V30 13958 H 1304.2 1.56019 3.05799 0
M  V30 13959 N 1306.64 -1.55279 0.269478 0
M  V30 13960 C 1307.89 -1.99077 -0.348224 0
M  V30 13961 C 1308.21 -1.15925 -1.568 0
M  V30 13962 O 1307.48 -0.247404 -1.94331 0
M  V30 13963 H 1306.06 -0.735307 -0.131653 0
M  V30 13964 H 1308.72 -1.91288 0.373506 0
M  V30 13965 H 1307.82 -3.05427 -0.641953 0
M  V30 13966 N 1308.12 0.00332656 -1.576 0
M  V30 13967 C 1309.37 0.688044 -1.89602 0
M  V30 13968 C 1309.68 1.75121 -0.871316 0
M  V30 13969 O 1310.89 2.49032 -1.08144 0
M  V30 13970 C 1309.34 1.27494 -3.36561 0
M  V30 13971 C 1308.95 0.246771 -4.4732 0
M  V30 13972 C 1310.69 1.93804 -3.77677 0
M  V30 13973 C 1308.6 0.843471 -5.85354 0
M  V30 13974 H 1307.53 0.260747 -0.707479 0
M  V30 13975 H 1310.18 -0.0566727 -1.83412 0
M  V30 13976 H 1308.56 2.07022 -3.37577 0
M  V30 13977 H 1309.74 -0.523668 -4.57815 0
M  V30 13978 H 1308.05 -0.3157 -4.15202 0
M  V30 13979 H 1310.65 2.39347 -4.78139 0
M  V30 13980 H 1310.99 2.7672 -3.11017 0
M  V30 13981 H 1311.53 1.21015 -3.78946 0
M  V30 13982 H 1308.27 0.0531655 -6.55478 0
M  V30 13983 H 1307.79 1.58315 -5.7853 0
M  V30 13984 H 1309.46 1.34311 -6.32906 0
M  V30 13985 N 1309.6 1.55164 0.276031 0
M  V30 13986 C 1310.54 1.87836 1.34113 0
M  V30 13987 C 1311.51 0.729562 1.4922 0
M  V30 13988 O 1312.7 0.980549 1.63676 0
M  V30 13989 C 1309.84 2.15313 2.69693 0
M  V30 13990 C 1308.95 3.42845 2.62833 0
M  V30 13991 C 1308.09 3.60038 3.90572 0
M  V30 13992 C 1307.13 4.81273 3.7821 0
M  V30 13993 N 1306.26 4.95139 4.97777 0
M  V30 13994 H 1311.1 2.78681 1.0555 0
M  V30 13995 H 1308.64 1.37976 0.510001 0
M  V30 13996 H 1310.6 2.29243 3.48573 0
M  V30 13997 H 1309.23 1.27706 2.96464 0
M  V30 13998 H 1308.28 3.37403 1.75679 0
M  V30 13999 H 1309.59 4.3186 2.49597 0
M  V30 14000 H 1308.75 3.73769 4.77893 0
M  V30 14001 H 1307.48 2.69203 4.06671 0
M  V30 14002 H 1306.49 4.67549 2.89271 0
M  V30 14003 H 1307.71 5.7354 3.63632 0
M  V30 14004 H 1305.66 4.07234 5.14292 0
M  V30 14005 H 1305.58 5.78194 4.8706 0
M  V30 14006 H 1306.85 5.13253 5.86679 0
M  V30 14007 N 1311.07 -0.540404 1.48045 0
M  V30 14008 C 1312.3 -1.32177 1.59175 0
M  V30 14009 C 1312.72 -1.87163 0.248115 0
M  V30 14010 O 1312.07 -1.65871 -0.761124 0
M  V30 14011 C 1312.13 -2.47995 2.63023 0
M  V30 14012 O 1311.85 -1.95278 3.92171 0
M  V30 14013 C 1313.35 -3.39967 2.84495 0
M  V30 14014 H 1310.57 -0.40233 0.537002 0
M  V30 14015 H 1313.11 -0.652983 1.93795 0
M  V30 14016 H 1311.27 -3.10779 2.31291 0
M  V30 14017 H 1311.68 -2.71012 4.49058 0
M  V30 14018 H 1313.15 -4.17607 3.60982 0
M  V30 14019 H 1313.63 -3.94555 1.92932 0
M  V30 14020 H 1314.24 -2.82985 3.1749 0
M  V30 14021 N 1312.55 -1.36459 -0.788468 0
M  V30 14022 C 1313.5 -1.30863 -1.90115 0
M  V30 14023 C 1314.47 -0.177148 -1.65153 0
M  V30 14024 O 1315.65 -0.363817 -1.87299 0
M  V30 14025 C 1312.79 -1.10473 -3.2694 0
M  V30 14026 C 1311.91 -2.32704 -3.63968 0
M  V30 14027 C 1311.04 -2.05319 -4.89916 0
M  V30 14028 C 1310.08 -3.23506 -5.19625 0
M  V30 14029 N 1309.22 -2.9578 -6.36756 0
M  V30 14030 H 1314.06 -2.26003 -1.94233 0
M  V30 14031 H 1311.6 -1.12324 -0.949827 0
M  V30 14032 H 1313.55 -0.966773 -4.05844 0
M  V30 14033 H 1312.18 -0.189873 -3.22241 0
M  V30 14034 H 1311.24 -2.573 -2.8018 0
M  V30 14035 H 1312.55 -3.20899 -3.81871 0
M  V30 14036 H 1311.7 -1.88459 -5.76687 0
M  V30 14037 H 1310.44 -1.14437 -4.74084 0
M  V30 14038 H 1309.45 -3.40924 -4.31336 0
M  V30 14039 H 1310.67 -4.15216 -5.37376 0
M  V30 14040 H 1308.62 -2.0751 -6.22315 0
M  V30 14041 H 1308.53 -3.77513 -6.54996 0
M  V30 14042 H 1309.8 -2.825 -7.26508 0
M  V30 14043 N 1314.03 1.01274 -1.20754 0
M  V30 14044 C 1314.98 2.08285 -0.927426 0
M  V30 14045 C 1315.96 1.60494 0.114286 0
M  V30 14046 O 1317.16 1.76752 -0.0936086 0
M  V30 14047 C 1314.29 3.39849 -0.485546 0
M  V30 14048 C 1313.37 3.94331 -1.5609 0
M  V30 14049 N 1313.76 4.22274 -2.78421 0
M  V30 14050 C 1312.06 4.22522 -1.42797 0
M  V30 14051 C 1312.76 4.66262 -3.47813 0
M  V30 14052 N 1311.74 4.68771 -2.75235 0
M  V30 14053 H 1315.54 2.27804 -1.85695 0
M  V30 14054 H 1313.05 1.19278 -1.10211 0
M  V30 14055 H 1315.05 4.16049 -0.266263 0
M  V30 14056 H 1313.71 3.21742 0.437301 0
M  V30 14057 H 1314.72 4.11063 -3.15036 0
M  V30 14058 H 1311.4 4.13593 -0.569819 0
M  V30 14059 H 1312.79 4.9667 -4.52513 0
M  V30 14060 N 1315.51 1.01404 1.20644 0
M  V30 14061 C 1316.44 0.602465 2.25594 0
M  V30 14062 C 1317.42 -0.381216 1.65773 0
M  V30 14063 O 1318.61 -0.267209 1.92353 0
M  V30 14064 C 1315.74 -0.0626245 3.47244 0
M  V30 14065 C 1314.69 0.841776 4.1964 0
M  V30 14066 C 1314.02 0.0426002 5.34683 0
M  V30 14067 C 1315.32 2.14864 4.76058 0
M  V30 14068 H 1317.01 1.47977 2.60275 0
M  V30 14069 H 1314.56 0.712966 1.25111 0
M  V30 14070 H 1316.51 -0.362095 4.19841 0
M  V30 14071 H 1315.23 -0.974627 3.11719 0
M  V30 14072 H 1313.89 1.12521 3.48905 0
M  V30 14073 H 1313.54 -0.870973 4.95402 0
M  V30 14074 H 1313.24 0.644866 5.84051 0
M  V30 14075 H 1314.76 -0.250476 6.10086 0
M  V30 14076 H 1316.18 1.9117 5.40488 0
M  V30 14077 H 1314.57 2.70153 5.35852 0
M  V30 14078 H 1315.64 2.81336 3.9494 0
M  V30 14079 N 1316.99 -1.36373 0.789944 0
M  V30 14080 C 1318.23 -2.0106 0.367995 0
M  V30 14081 C 1318.59 -1.61336 -1.0409 0
M  V30 14082 O 1319.79 -2.18618 -1.56396 0
M  V30 14083 C 1318.06 -3.53492 0.527106 0
M  V30 14084 S 1319.62 -4.38375 0.193113 0
M  V30 14085 H 1316.44 -0.696965 0.140573 0
M  V30 14086 H 1319.04 -1.66256 1.02855 0
M  V30 14087 H 1317.75 -3.7989 1.55279 0
M  V30 14088 H 1317.28 -3.93116 -0.149364 0
M  V30 14089 H 1319.29 -4.85913 -1.00513 0
M  V30 14090 N 1318.47 -0.542005 -1.47987 0
M  V30 14091 C 1319.88 -0.200691 -1.58333 0
M  V30 14092 C 1320.08 1.29643 -1.54256 0
M  V30 14093 O 1319.14 2.07556 -1.43794 0
M  V30 14094 C 1320.45 -0.813878 -2.89476 0
M  V30 14095 C 1322 -0.783711 -3.0303 0
M  V30 14096 C 1322.47 -1.37569 -4.36851 0
M  V30 14097 N 1323.96 -1.33819 -4.43449 0
M  V30 14098 C 1324.7 -1.76602 -5.45527 0
M  V30 14099 N 1324.2 -2.27169 -6.54497 0
M  V30 14100 N 1325.99 -1.67765 -5.3648 0
M  V30 14101 H 1318.14 -1.51488 -1.4888 0
M  V30 14102 H 1320.4 -0.630835 -0.707638 0
M  V30 14103 H 1320.11 -1.86544 -2.98151 0
M  V30 14104 H 1319.98 -0.297978 -3.76021 0
M  V30 14105 H 1322.37 0.259118 -2.9396 0
M  V30 14106 H 1322.45 -1.33721 -2.18065 0
M  V30 14107 H 1322.09 -2.41751 -4.46675 0
M  V30 14108 H 1322.02 -0.797769 -5.20522 0
M  V30 14109 H 1324.52 -0.968147 -3.65288 0
M  V30 14110 H 1324.83 -2.57777 -7.2854 0
M  V30 14111 H 1323.17 -2.31171 -6.55427 0
M  V30 14112 H 1326.36 -1.28048 -4.50246 0
M  V30 14113 H 1326.54 -2.01426 -6.15899 0
M  V30 14114 N 1319.94 1.55134 -0.277709 0
M  V30 14115 C 1320.87 2.256 0.602232 0
M  V30 14116 C 1321.85 1.24708 1.15681 0
M  V30 14117 O 1323.04 1.53433 1.19046 0
M  V30 14118 C 1320.17 2.97907 1.78519 0
M  V30 14119 C 1319.12 4.0575 1.36203 0
M  V30 14120 C 1318.45 4.65644 2.62829 0
M  V30 14121 C 1319.75 5.19801 0.510327 0
M  V30 14122 H 1321.44 2.99396 0.0145622 0
M  V30 14123 H 1318.99 1.43999 0.00556389 0
M  V30 14124 H 1320.94 3.45915 2.40668 0
M  V30 14125 H 1319.67 2.21649 2.39873 0
M  V30 14126 H 1318.33 3.58557 0.763726 0
M  V30 14127 H 1317.97 3.86053 3.22447 0
M  V30 14128 H 1317.67 5.38463 2.35227 0
M  V30 14129 H 1319.2 5.16403 3.25823 0
M  V30 14130 H 1320.61 5.63845 1.03689 0
M  V30 14131 H 1319.01 5.99197 0.329073 0
M  V30 14132 H 1320.08 4.82614 -0.470273 0
M  V30 14133 N 1321.42 0.00503138 1.57599 0
M  V30 14134 C 1322.67 -0.677979 1.89964 0
M  V30 14135 C 1322.98 -1.74657 0.88059 0
M  V30 14136 O 1324.19 -2.48455 1.09463 0
M  V30 14137 C 1322.65 -1.25708 3.37232 0
M  V30 14138 C 1322.25 -0.223045 4.47444 0
M  V30 14139 C 1324 -1.91799 3.787 0
M  V30 14140 C 1321.9 -0.812416 5.85793 0
M  V30 14141 H 1320.83 -0.256991 0.708852 0
M  V30 14142 H 1323.49 0.0663988 1.8338 0
M  V30 14143 H 1321.87 -2.05228 3.3867 0
M  V30 14144 H 1323.04 0.54794 4.57531 0
M  V30 14145 H 1321.36 0.337714 4.15028 0
M  V30 14146 H 1323.95 -2.36808 4.79402 0
M  V30 14147 H 1324.3 -2.75067 3.1248 0
M  V30 14148 H 1324.83 -1.19004 3.79583 0
M  V30 14149 H 1321.57 -0.0184031 6.55497 0
M  V30 14150 H 1321.09 -1.55244 5.79361 0
M  V30 14151 H 1322.77 -1.30952 6.33609 0
M  V30 14152 N 1322.9 -1.55308 -0.267798 0
M  V30 14153 C 1324.32 -1.47264 -0.61526 0
M  V30 14154 C 1324.52 -0.691025 -1.8928 0
M  V30 14155 O 1323.57 -0.211964 -2.51609 0
M  V30 14156 C 1324.88 -2.91519 -0.73739 0
M  V30 14157 C 1326.43 -3.01764 -0.831102 0
M  V30 14158 C 1326.91 -4.47283 -0.984965 0
M  V30 14159 N 1328.4 -4.51134 -1.05036 0
M  V30 14160 C 1329.13 -5.60952 -1.1883 0
M  V30 14161 N 1328.63 -6.80625 -1.29311 0
M  V30 14162 N 1330.42 -5.48705 -1.21982 0
M  V30 14163 H 1322.57 -2.04577 0.57114 0
M  V30 14164 H 1324.84 -0.927908 0.194141 0
M  V30 14165 H 1324.54 -3.51456 0.130974 0
M  V30 14166 H 1324.42 -3.40829 -1.61603 0
M  V30 14167 H 1326.8 -2.4192 -1.68993 0
M  V30 14168 H 1326.88 -2.55698 0.0722509 0
M  V30 14169 H 1326.53 -5.07732 -0.130776 0
M  V30 14170 H 1326.46 -4.91011 -1.90305 0
M  V30 14171 H 1328.95 -3.6493 -0.981551 0
M  V30 14172 H 1329.26 -7.60071 -1.39685 0
M  V30 14173 H 1327.61 -6.83426 -1.26306 0
M  V30 14174 H 1330.8 -4.5415 -1.13428 0
M  V30 14175 H 1330.97 -6.34332 -1.32388 0
M  V30 14176 N 1324.38 0.532545 -1.4833 0
M  V30 14177 C 1325.63 1.28597 -1.55908 0
M  V30 14178 C 1325.95 1.93595 -0.233635 0
M  V30 14179 O 1325.22 1.81197 0.744605 0
M  V30 14180 H 1323.8 0.477619 -0.57436 0
M  V30 14181 H 1326.46 0.619922 -1.84778 0
M  V30 14182 H 1325.55 2.0666 -2.33877 0
M  V30 14183 N 1325.86 1.36875 0.78122 0
M  V30 14184 C 1326.8 1.31869 1.89418 0
M  V30 14185 C 1327.77 0.185904 1.65056 0
M  V30 14186 O 1328.96 0.373745 1.87104 0
M  V30 14187 C 1326.1 1.12205 3.2635 0
M  V30 14188 C 1325.21 2.34631 3.62729 0
M  V30 14189 C 1324.35 2.07914 4.8882 0
M  V30 14190 C 1323.38 3.26257 5.17902 0
M  V30 14191 N 1322.52 2.99152 6.35179 0
M  V30 14192 H 1327.36 2.2703 1.93032 0
M  V30 14193 H 1324.9 1.12826 0.943857 0
M  V30 14194 H 1326.86 0.988282 4.05326 0
M  V30 14195 H 1325.49 0.206959 3.22136 0
M  V30 14196 H 1324.54 2.58782 2.78812 0
M  V30 14197 H 1325.85 3.22919 3.80164 0
M  V30 14198 H 1325 1.91514 5.7568 0
M  V30 14199 H 1323.74 1.1695 4.7347 0
M  V30 14200 H 1322.75 3.43207 4.29522 0
M  V30 14201 H 1323.97 4.1806 5.35166 0
M  V30 14202 H 1321.92 2.10807 6.21205 0
M  V30 14203 H 1321.84 3.80981 6.52985 0
M  V30 14204 H 1323.1 2.86349 7.25 0
M  V30 14205 N 1327.33 -1.00632 1.21289 0
M  V30 14206 C 1328.27 -2.09085 0.914258 0
M  V30 14207 C 1329.24 -1.62016 -0.137697 0
M  V30 14208 O 1330.43 -1.88498 -0.00902131 0
M  V30 14209 C 1327.56 -3.36645 0.37254 0
M  V30 14210 C 1326.6 -4.0262 1.40709 0
M  V30 14211 S 1327.43 -4.45203 2.97582 0
M  V30 14212 C 1328.59 -5.75951 2.45013 0
M  V30 14213 H 1328.82 -2.34094 1.83268 0
M  V30 14214 H 1326.36 -1.13893 1.04248 0
M  V30 14215 H 1328.31 -4.10446 0.0665561 0
M  V30 14216 H 1326.98 -3.09689 -0.524546 0
M  V30 14217 H 1326.17 -4.94427 0.977642 0
M  V30 14218 H 1325.77 -3.35088 1.66108 0
M  V30 14219 H 1328.06 -6.51634 1.85416 0
M  V30 14220 H 1329.01 -6.23706 3.35257 0
M  V30 14221 H 1329.41 -5.32707 1.8677 0
M  V30 14222 N 1328.81 -1.02043 -1.20104 0
M  V30 14223 C 1330.04 -0.731315 -1.93544 0
M  V30 14224 C 1330.45 0.708582 -1.74999 0
M  V30 14225 O 1329.81 1.481 -1.06642 0
M  V30 14226 C 1329.86 -1.06233 -3.45538 0
M  V30 14227 O 1329.58 -2.44568 -3.63481 0
M  V30 14228 C 1331.08 -0.794818 -4.36116 0
M  V30 14229 H 1328.3 -0.268248 -0.615048 0
M  V30 14230 H 1330.85 -1.36264 -1.52488 0
M  V30 14231 H 1329 -0.476341 -3.8446 0
M  V30 14232 H 1329.42 -2.5663 -4.57429 0
M  V30 14233 H 1330.89 -1.07647 -5.41402 0
M  V30 14234 H 1331.37 0.270944 -4.38363 0
M  V30 14235 H 1331.97 -1.36314 -4.02863 0
M  V30 14236 N 1330.29 1.35952 -0.797165 0
M  V30 14237 C 1331.22 2.32506 -0.215277 0
M  V30 14238 C 1332.2 1.57023 0.654046 0
M  V30 14239 O 1333.39 1.85139 0.586268 0
M  V30 14240 C 1330.52 3.41266 0.644557 0
M  V30 14241 C 1329.47 4.27816 -0.125501 0
M  V30 14242 C 1328.8 5.27813 0.855428 0
M  V30 14243 C 1330.1 5.05367 -1.31913 0
M  V30 14244 H 1331.79 2.8142 -1.02193 0
M  V30 14245 H 1329.34 1.35303 -0.492862 0
M  V30 14246 H 1331.29 4.07808 1.06163 0
M  V30 14247 H 1330.01 2.90938 1.484 0
M  V30 14248 H 1328.67 3.62841 -0.523639 0
M  V30 14249 H 1328.32 4.73755 1.69011 0
M  V30 14250 H 1328.02 5.86589 0.344566 0
M  V30 14251 H 1329.54 5.97227 1.2709 0
M  V30 14252 H 1330.96 5.64907 -0.977418 0
M  V30 14253 H 1329.36 5.73593 -1.76382 0
M  V30 14254 H 1330.43 4.36558 -2.11057 0
M  V30 14255 N 1331.77 0.549846 1.47697 0
M  V30 14256 C 1333 0.0276889 2.06881 0
M  V30 14257 C 1333.41 -1.26273 1.40359 0
M  V30 14258 O 1332.77 -1.75584 0.497644 0
M  V30 14259 C 1332.82 -0.179291 3.61055 0
M  V30 14260 O 1332.54 1.06002 4.25083 0
M  V30 14261 C 1334.04 -0.739571 4.37087 0
M  V30 14262 H 1331.26 0.0425016 0.669653 0
M  V30 14263 H 1333.81 0.761158 1.89807 0
M  V30 14264 H 1331.96 -0.862867 3.77668 0
M  V30 14265 H 1332.37 0.853137 5.17515 0
M  V30 14266 H 1333.85 -0.833722 5.45668 0
M  V30 14267 H 1334.33 -1.74915 4.02867 0
M  V30 14268 H 1334.93 -0.0919294 4.25201 0
M  V30 14269 N 1333.25 -1.54984 0.285932 0
M  V30 14270 C 1334.16 -2.26621 -0.606648 0
M  V30 14271 C 1335.17 -1.29595 -1.16108 0
M  V30 14272 O 1336.35 -1.62551 -1.18908 0
M  V30 14273 C 1333.41 -2.98156 -1.76929 0
M  V30 14274 C 1332.47 -4.10685 -1.25045 0
M  V30 14275 C 1331.71 -4.788 -2.35768 0
M  V30 14276 O 1331.93 -4.46183 -3.55354 0
M  V30 14277 O 1330.86 -5.66523 -2.03312 0
M  V30 14278 H 1334.69 -3.03689 -0.0259981 0
M  V30 14279 H 1332.28 -1.49306 0.0529355 0
M  V30 14280 H 1334.16 -3.43076 -2.44697 0
M  V30 14281 H 1332.83 -2.23996 -2.33683 0
M  V30 14282 H 1331.74 -3.70198 -0.538919 0
M  V30 14283 H 1333.07 -4.86778 -0.728528 0
M  V30 14284 N 1334.72 -0.0133892 -1.57594 0
M  V30 14285 C 1335.63 0.989701 -2.12702 0
M  V30 14286 C 1336.65 1.36785 -1.07545 0
M  V30 14287 O 1337.83 1.45246 -1.39519 0
M  V30 14288 C 1334.89 2.2586 -2.63036 0
M  V30 14289 C 1333.95 1.94234 -3.82847 0
M  V30 14290 C 1333.19 3.15075 -4.30771 0
M  V30 14291 O 1333.41 4.27212 -3.7795 0
M  V30 14292 O 1332.34 2.98291 -5.22787 0
M  V30 14293 H 1336.17 0.551194 -2.98656 0
M  V30 14294 H 1333.75 0.206264 -1.47969 0
M  V30 14295 H 1335.64 3.0038 -2.9555 0
M  V30 14296 H 1334.31 2.68923 -1.80173 0
M  V30 14297 H 1333.22 1.17148 -3.55285 0
M  V30 14298 H 1334.55 1.55999 -4.66824 0
M  V30 14299 N 1336.2 1.55448 0.259558 0
M  V30 14300 C 1337.45 1.76948 0.990816 0
M  V30 14301 C 1337.78 0.576401 1.85449 0
M  V30 14302 O 1337.06 -0.425693 1.89784 0
M  V30 14303 C 1337.34 3.08221 1.86204 0
M  V30 14304 C 1337.19 4.37909 1.0274 0
M  V30 14305 C 1338.51 3.35627 2.84679 0
M  V30 14306 H 1335.63 0.64377 0.358788 0
M  V30 14307 H 1338.27 1.88182 0.262211 0
M  V30 14308 H 1336.42 2.98775 2.48326 0
M  V30 14309 H 1338.09 4.5933 0.425855 0
M  V30 14310 H 1336.34 4.32533 0.331308 0
M  V30 14311 H 1337.01 5.26116 1.6705 0
M  V30 14312 H 1339.48 3.44954 2.32693 0
M  V30 14313 H 1338.36 4.28719 3.42769 0
M  V30 14314 H 1338.62 2.55921 3.60496 0
M  V30 14315 N 1337.68 -0.524672 1.4861 0
M  V30 14316 C 1338.61 -1.64481 1.59621 0
M  V30 14317 C 1339.63 -1.55557 0.480181 0
M  V30 14318 O 1340.81 -1.61921 0.751254 0
M  V30 14319 C 1337.91 -3.03158 1.51487 0
M  V30 14320 C 1337.09 -3.37509 2.78221 0
M  V30 14321 C 1336.15 -4.5549 2.63467 0
M  V30 14322 O 1335.17 -4.58448 3.37364 0
M  V30 14323 N 1336.37 -5.53986 1.73437 0
M  V30 14324 H 1339.14 -1.5547 2.56221 0
M  V30 14325 H 1336.7 -0.712059 1.45401 0
M  V30 14326 H 1338.69 -3.79969 1.39305 0
M  V30 14327 H 1337.26 -3.06219 0.628406 0
M  V30 14328 H 1336.48 -2.49824 3.04929 0
M  V30 14329 H 1337.77 -3.57246 3.62288 0
M  V30 14330 H 1337.17 -5.54378 1.12612 0
M  V30 14331 H 1335.73 -6.29993 1.6719 0
M  V30 14332 N 1339.16 -1.37287 -0.77395 0
M  V30 14333 C 1340.4 -1.33577 -1.53391 0
M  V30 14334 C 1340.76 0.0798979 -1.92234 0
M  V30 14335 O 1340.05 1.03803 -1.61045 0
M  V30 14336 C 1340.25 -2.20667 -2.81142 0
M  V30 14337 C 1340.08 -3.70559 -2.54786 0
M  V30 14338 C 1338.85 -4.39675 -2.49025 0
M  V30 14339 C 1341.04 -4.63472 -2.22932 0
M  V30 14340 N 1339.03 -5.75121 -2.14729 0
M  V30 14341 C 1340.4 -5.87279 -1.98756 0
M  V30 14342 C 1342.45 -4.51879 -2.09068 0
M  V30 14343 C 1341.15 -7.00793 -1.62117 0
M  V30 14344 C 1343.18 -5.65276 -1.7383 0
M  V30 14345 C 1342.54 -6.88132 -1.50513 0
M  V30 14346 H 1338.64 -0.544075 -0.561699 0
M  V30 14347 H 1341.23 -1.72487 -0.903115 0
M  V30 14348 H 1339.4 -1.83976 -3.42063 0
M  V30 14349 H 1341.13 -2.08231 -3.47019 0
M  V30 14350 H 1337.88 -3.92653 -2.64804 0
M  V30 14351 H 1338.31 -6.46696 -2.00284 0
M  V30 14352 H 1342.95 -3.57468 -2.25779 0
M  V30 14353 H 1340.67 -7.9514 -1.44145 0
M  V30 14354 H 1344.25 -5.58276 -1.63765 0
M  V30 14355 H 1343.13 -7.74391 -1.23648 0
M  V30 14356 N 1340.64 0.999871 -1.21821 0
M  V30 14357 C 1341.86 1.77405 -1.06467 0
M  V30 14358 C 1342.28 1.84828 0.385227 0
M  V30 14359 O 1341.64 1.31338 1.26714 0
M  V30 14360 C 1341.69 3.21062 -1.66137 0
M  V30 14361 O 1341.41 3.14054 -3.05454 0
M  V30 14362 C 1342.91 4.14958 -1.55963 0
M  V30 14363 H 1340.13 0.557368 -0.373607 0
M  V30 14364 H 1342.67 1.2575 -1.61267 0
M  V30 14365 H 1340.83 3.69808 -1.15416 0
M  V30 14366 H 1341.24 4.04346 -3.34073 0
M  V30 14367 H 1342.72 5.13536 -2.02448 0
M  V30 14368 H 1343.19 4.36171 -0.514949 0
M  V30 14369 H 1343.8 3.72105 -2.05956 0
M  V30 14370 N 1342.11 1.02678 1.19562 0
M  V30 14371 C 1343.02 0.615738 2.26375 0
M  V30 14372 C 1344.04 -0.351525 1.70412 0
M  V30 14373 O 1345.22 -0.209932 2.00303 0
M  V30 14374 C 1342.28 -0.0292135 3.46688 0
M  V30 14375 C 1341.34 0.985284 4.1784 0
M  V30 14376 C 1340.58 0.371016 5.32409 0
M  V30 14377 O 1340.8 -0.826591 5.64379 0
M  V30 14378 O 1339.73 1.09282 5.91896 0
M  V30 14379 H 1343.56 1.50526 2.63772 0
M  V30 14380 H 1341.14 0.796847 1.26375 0
M  V30 14381 H 1343.03 -0.38893 4.19601 0
M  V30 14382 H 1341.7 -0.892778 3.11145 0
M  V30 14383 H 1340.61 1.39655 3.47055 0
M  V30 14384 H 1341.94 1.81915 4.57349 0
M  V30 14385 N 1343.59 -1.35528 0.804364 0
M  V30 14386 C 1344.52 -2.32388 0.227604 0
M  V30 14387 C 1345.5 -1.57368 -0.645709 0
M  V30 14388 O 1346.69 -1.85448 -0.576441 0
M  V30 14389 C 1343.82 -3.41603 -0.62645 0
M  V30 14390 C 1342.77 -4.27743 0.148187 0
M  V30 14391 C 1342.1 -5.28259 -0.827425 0
M  V30 14392 C 1343.4 -5.04661 1.34591 0
M  V30 14393 H 1345.09 -2.80874 1.03684 0
M  V30 14394 H 1342.64 -1.3504 0.500031 0
M  V30 14395 H 1344.59 -4.08365 -1.03999 0
M  V30 14396 H 1343.32 -2.91721 -1.46855 0
M  V30 14397 H 1341.97 -3.62558 0.542874 0
M  V30 14398 H 1341.62 -4.74645 -1.66496 0
M  V30 14399 H 1341.32 -5.86763 -0.313453 0
M  V30 14400 H 1342.85 -5.97893 -1.23921 0
M  V30 14401 H 1344.26 -5.6438 1.00736 0
M  V30 14402 H 1342.66 -5.7265 1.79422 0
M  V30 14403 H 1343.73 -4.35432 2.1337 0
M  V30 14404 N 1345.07 -0.557671 -1.47404 0
M  V30 14405 C 1346.03 0.179311 -2.28498 0
M  V30 14406 C 1347.03 0.842281 -1.36975 0
M  V30 14407 O 1348.22 0.698072 -1.59601 0
M  V30 14408 C 1345.36 1.26229 -3.16668 0
M  V30 14409 H 1346.55 -0.533033 -2.95125 0
M  V30 14410 H 1344.1 -0.314634 -1.531 0
M  V30 14411 H 1344.84 2.00702 -2.54733 0
M  V30 14412 H 1344.62 0.791712 -3.84024 0
M  V30 14413 H 1346.11 1.77991 -3.77768 0
M  V30 14414 N 1346.55 1.54831 -0.294147 0
M  V30 14415 C 1347.46 2.26939 0.594621 0
M  V30 14416 C 1348.48 1.30209 1.15419 0
M  V30 14417 O 1349.65 1.6318 1.18044 0
M  V30 14418 C 1346.72 2.9909 1.75345 0
M  V30 14419 C 1345.78 4.11342 1.22865 0
M  V30 14420 C 1345.01 4.80043 2.33225 0
M  V30 14421 O 1345.23 4.48062 3.52983 0
M  V30 14422 O 1344.17 5.67593 2.00304 0
M  V30 14423 H 1347.99 3.03698 0.00989235 0
M  V30 14424 H 1345.58 1.49276 -0.0608528 0
M  V30 14425 H 1347.46 3.44369 2.42875 0
M  V30 14426 H 1346.14 2.25232 2.32492 0
M  V30 14427 H 1345.04 3.70478 0.519279 0
M  V30 14428 H 1346.38 4.87158 0.702703 0
M  V30 14429 N 1348.03 0.0217466 1.57585 0
M  V30 14430 C 1348.99 -0.947546 2.08696 0
M  V30 14431 C 1349.99 -1.25879 1.00055 0
M  V30 14432 O 1351.18 -1.20035 1.26242 0
M  V30 14433 C 1348.31 -2.26624 2.54665 0
M  V30 14434 H 1349.51 -0.505016 2.95617 0
M  V30 14435 H 1347.06 -0.226152 1.54655 0
M  V30 14436 H 1347.79 -2.75521 1.71052 0
M  V30 14437 H 1347.58 -2.05347 3.34028 0
M  V30 14438 H 1349.07 -2.96114 2.94459 0
M  V30 14439 N 1349.51 -1.55583 -0.251311 0
M  V30 14440 C 1350.42 -1.93073 -1.33266 0
M  V30 14441 C 1351.43 -0.830612 -1.52895 0
M  V30 14442 O 1352.61 -1.13162 -1.66602 0
M  V30 14443 C 1349.67 -2.21396 -2.66805 0
M  V30 14444 C 1348.73 -3.44815 -2.55737 0
M  V30 14445 C 1347.97 -3.71777 -3.82907 0
M  V30 14446 O 1348.19 -3.00884 -4.84587 0
M  V30 14447 O 1347.12 -4.65305 -3.81805 0
M  V30 14448 H 1350.95 -2.85168 -1.04465 0
M  V30 14449 H 1348.53 -1.42408 -0.451693 0
M  V30 14450 H 1350.42 -2.4094 -3.45725 0
M  V30 14451 H 1349.09 -1.3248 -2.95348 0
M  V30 14452 H 1348 -3.30582 -1.75118 0
M  V30 14453 H 1349.33 -4.34019 -2.32139 0
M  V30 14454 N 1350.98 0.516783 -1.48886 0
M  V30 14455 C 1351.91 1.62897 -1.67292 0
M  V30 14456 C 1352.89 1.61903 -0.521671 0
M  V30 14457 O 1354.08 1.78892 -0.755728 0
M  V30 14458 C 1351.21 3.01444 -1.72478 0
M  V30 14459 C 1350.16 3.173 -2.87236 0
M  V30 14460 C 1349.49 4.5704 -2.77522 0
M  V30 14461 C 1350.79 2.98818 -4.28375 0
M  V30 14462 H 1352.48 1.47748 -2.60405 0
M  V30 14463 H 1350.03 0.709361 -1.25316 0
M  V30 14464 H 1351.98 3.79135 -1.83942 0
M  V30 14465 H 1350.71 3.17645 -0.759538 0
M  V30 14466 H 1349.37 2.4203 -2.75349 0
M  V30 14467 H 1349.01 4.70096 -1.78938 0
M  V30 14468 H 1348.71 4.68593 -3.54534 0
M  V30 14469 H 1350.24 5.36813 -2.90972 0
M  V30 14470 H 1351.65 3.66291 -4.41026 0
M  V30 14471 H 1350.05 3.21854 -5.06488 0
M  V30 14472 H 1351.12 1.95102 -4.43918 0
M  V30 14473 N 1352.46 1.37696 0.766659 0
M  V30 14474 C 1353.37 1.36075 1.91104 0
M  V30 14475 C 1354.39 0.259617 1.72052 0
M  V30 14476 O 1355.56 0.49586 1.952 0
M  V30 14477 C 1352.63 1.17176 3.26298 0
M  V30 14478 C 1351.69 2.36975 3.57968 0
M  V30 14479 C 1350.92 2.18968 4.86712 0
M  V30 14480 O 1351.15 1.17658 5.58133 0
M  V30 14481 O 1350.08 3.07269 5.17561 0
M  V30 14482 H 1353.91 2.32472 1.95424 0
M  V30 14483 H 1351.49 1.18478 0.910122 0
M  V30 14484 H 1353.37 1.08645 4.07154 0
M  V30 14485 H 1352.05 0.238559 3.2282 0
M  V30 14486 H 1350.95 2.51079 2.77327 0
M  V30 14487 H 1352.29 3.2888 3.66195 0
M  V30 14488 N 1353.94 -0.993397 1.22349 0
M  V30 14489 C 1354.85 -2.11771 1.00947 0
M  V30 14490 C 1355.87 -1.73949 -0.0420679 0
M  V30 14491 O 1357.04 -2.00837 0.150548 0
M  V30 14492 C 1354.11 -3.41654 0.589359 0
M  V30 14493 C 1353.17 -3.93579 1.71446 0
M  V30 14494 C 1352.4 -5.17264 1.3143 0
M  V30 14495 O 1352.62 -5.70074 0.192876 0
M  V30 14496 O 1351.56 -5.62929 2.13059 0
M  V30 14497 H 1355.38 -2.32708 1.95142 0
M  V30 14498 H 1352.97 -1.10144 1.00939 0
M  V30 14499 H 1354.85 -4.19813 0.365403 0
M  V30 14500 H 1353.53 -3.22077 -0.323738 0
M  V30 14501 H 1352.43 -3.16596 1.99294 0
M  V30 14502 H 1353.77 -4.17588 2.6054 0
M  V30 14503 N 1355.42 -1.03311 -1.19015 0
M  V30 14504 C 1356.37 -0.611169 -2.24427 0
M  V30 14505 C 1357.36 0.358303 -1.65567 0
M  V30 14506 O 1358.57 0.22642 -1.7857 0
M  V30 14507 H 1354.94 -0.179393 -0.730289 0
M  V30 14508 H 1356.91 -1.51077 -2.57329 0
M  V30 14509 C 1355.66 0.0178126 -3.47695 0
M  V30 14510 H 1354.98 -0.71921 -3.93278 0
M  V30 14511 H 1356.42 0.275926 -4.23101 0
M  V30 14512 C 1354.88 1.26564 -3.12223 0
M  V30 14513 O 1355.41 2.35725 -3.25264 0
M  V30 14514 N 1353.62 1.15602 -2.66617 0
M  V30 14515 H 1353.17 0.267736 -2.56205 0
M  V30 14516 H 1353.12 1.99186 -2.43254 0
M  V30 14517 N 1356.9 1.35099 -0.81154 0
M  V30 14518 C 1358.31 1.51701 -0.495883 0
M  V30 14519 C 1358.51 1.7595 0.982035 0
M  V30 14520 O 1357.57 1.8038 1.7669 0
M  V30 14521 C 1358.88 2.68916 -1.34554 0
M  V30 14522 C 1360.43 2.82795 -1.34149 0
M  V30 14523 C 1360.9 4.0304 -2.17538 0
M  V30 14524 N 1362.39 4.10227 -2.151 0
M  V30 14525 C 1363.13 5.02397 -2.76377 0
M  V30 14526 N 1362.63 5.99866 -3.46601 0
M  V30 14527 N 1364.42 4.95181 -2.65992 0
M  V30 14528 H 1356.57 1.17617 -1.76862 0
M  V30 14529 H 1358.83 0.575875 -0.753042 0
M  V30 14530 H 1358.54 2.57591 -2.39458 0
M  V30 14531 H 1358.41 3.63641 -1.00223 0
M  V30 14532 H 1360.8 2.93568 -0.300285 0
M  V30 14533 H 1360.88 1.88912 -1.7247 0
M  V30 14534 H 1360.52 3.93027 -3.21702 0
M  V30 14535 H 1360.45 4.96114 -1.76574 0
M  V30 14536 H 1362.95 3.40454 -1.6401 0
M  V30 14537 H 1363.26 6.66803 -3.90632 0
M  V30 14538 H 1361.6 6.00025 -3.50706 0
M  V30 14539 H 1364.79 4.17991 -2.10715 0
M  V30 14540 H 1364.97 5.6682 -3.14036 0
M  V30 14541 N 1358.37 0.56548 1.47106 0
M  V30 14542 C 1359.62 0.042333 2.01656 0
M  V30 14543 C 1359.94 -1.31892 1.44443 0
M  V30 14544 O 1361.14 -1.93245 1.90706 0
M  V30 14545 C 1359.6 0.0251556 3.59891 0
M  V30 14546 C 1359.21 1.38367 4.26097 0
M  V30 14547 C 1360.95 -0.44495 4.22162 0
M  V30 14548 C 1358.86 1.32516 5.76362 0
M  V30 14549 H 1357.79 0.0120557 0.753904 0
M  V30 14550 H 1360.44 0.714565 1.69015 0
M  V30 14551 H 1358.82 -0.712893 3.8953 0
M  V30 14552 H 1359.99 2.14009 4.08089 0
M  V30 14553 H 1358.31 1.79239 3.75849 0
M  V30 14554 H 1360.91 -0.507256 5.32288 0
M  V30 14555 H 1361.25 -1.45876 3.89905 0
M  V30 14556 H 1361.78 0.238496 3.97084 0
M  V30 14557 H 1358.52 2.31523 6.13252 0
M  V30 14558 H 1358.04 0.610674 5.96683 0
M  V30 14559 H 1359.72 1.03072 6.38737 0
M  V30 14560 N 1359.85 -1.54672 0.302354 0
M  V30 14561 C 1361.1 -1.99345 -0.307307 0
M  V30 14562 C 1361.41 -1.19437 -1.549 0
M  V30 14563 O 1362.62 -1.54384 -2.23334 0
M  V30 14564 C 1361.08 -3.54896 -0.59808 0
M  V30 14565 C 1360.68 -4.43614 0.625357 0
M  V30 14566 C 1362.43 -4.08091 -1.16886 0
M  V30 14567 C 1360.34 -5.90599 0.307661 0
M  V30 14568 H 1359.27 -0.744614 -0.118603 0
M  V30 14569 H 1361.92 -1.78832 0.411271 0
M  V30 14570 H 1360.3 -3.71314 -1.37629 0
M  V30 14571 H 1361.47 -4.38969 1.40152 0
M  V30 14572 H 1359.79 -4.01198 1.11487 0
M  V30 14573 H 1362.38 -5.15477 -1.42082 0
M  V30 14574 H 1362.73 -3.58775 -2.11155 0
M  V30 14575 H 1363.26 -3.9522 -0.452329 0
M  V30 14576 H 1360 -6.44067 1.21895 0
M  V30 14577 H 1359.52 -5.98248 -0.431208 0
M  V30 14578 H 1361.2 -6.46937 -0.0902796 0
M  V30 14579 N 1361.33 -0.0301034 -1.57571 0
M  V30 14580 C 1362.26 0.94977 -2.13311 0
M  V30 14581 C 1363.24 1.33865 -1.04948 0
M  V30 14582 O 1364.43 1.4171 -1.32786 0
M  V30 14583 C 1361.56 2.23178 -2.66099 0
M  V30 14584 C 1360.51 1.98362 -3.79258 0
M  V30 14585 C 1359.84 3.32836 -4.18479 0
M  V30 14586 C 1361.14 1.32201 -5.05292 0
M  V30 14587 H 1362.83 0.485562 -2.95436 0
M  V30 14588 H 1360.38 0.232116 -1.42117 0
M  V30 14589 H 1362.33 2.92108 -3.03728 0
M  V30 14590 H 1361.05 2.71766 -1.81137 0
M  V30 14591 H 1359.71 1.31849 -3.42069 0
M  V30 14592 H 1359.36 3.79185 -3.30496 0
M  V30 14593 H 1359.06 3.17037 -4.94733 0
M  V30 14594 H 1360.58 4.03032 -4.58691 0
M  V30 14595 H 1362 1.91133 -5.40501 0
M  V30 14596 H 1360.4 1.26797 -5.86551 0
M  V30 14597 H 1361.47 0.29511 -4.84001 0
M  V30 14598 N 1362.81 1.55714 0.243056 0
M  V30 14599 C 1364.03 1.82126 0.992219 0
M  V30 14600 C 1364.46 0.607665 1.78014 0
M  V30 14601 O 1363.82 -0.443351 1.75796 0
M  V30 14602 C 1363.86 3.06314 1.90274 0
M  V30 14603 O 1362.97 2.83499 2.99503 0
M  V30 14604 H 1362.31 0.601082 0.282128 0
M  V30 14605 H 1364.84 2.02904 0.262881 0
M  V30 14606 H 1364.85 3.35849 2.31666 0
M  V30 14607 H 1363.52 3.94282 1.32344 0
M  V30 14608 H 1362.1 2.65141 2.62211 0
M  V30 14609 N 1364.29 -0.50888 1.49158 0
M  V30 14610 C 1365.22 -1.62778 1.61356 0
M  V30 14611 C 1366.23 -1.55039 0.496653 0
M  V30 14612 O 1367.42 -1.61115 0.768386 0
M  V30 14613 C 1364.52 -3.01534 1.54694 0
M  V30 14614 C 1363.69 -3.34539 2.81785 0
M  V30 14615 C 1362.75 -4.5267 2.68283 0
M  V30 14616 O 1361.78 -4.54844 3.42207 0
M  V30 14617 N 1362.98 -5.52115 1.79303 0
M  V30 14618 H 1365.75 -1.52744 2.57855 0
M  V30 14619 H 1363.31 -0.696597 1.46148 0
M  V30 14620 H 1365.3 -3.7847 1.43327 0
M  V30 14621 H 1363.87 -3.05535 0.660849 0
M  V30 14622 H 1363.09 -2.46576 3.07561 0
M  V30 14623 H 1364.38 -3.53384 3.66057 0
M  V30 14624 H 1363.77 -5.53153 1.18485 0
M  V30 14625 H 1362.33 -6.28184 1.73863 0
M  V30 14626 N 1365.76 -1.381 -0.759346 0
M  V30 14627 C 1366.67 -1.37086 -1.9038 0
M  V30 14628 C 1367.69 -0.268738 -1.71912 0
M  V30 14629 O 1368.87 -0.506205 -1.94935 0
M  V30 14630 C 1365.93 -1.18905 -3.25672 0
M  V30 14631 C 1364.99 -2.3887 -3.56707 0
M  V30 14632 C 1364.23 -2.21546 -4.85544 0
M  V30 14633 O 1364.45 -1.20616 -5.57501 0
M  V30 14634 O 1363.38 -3.10009 -5.15924 0
M  V30 14635 H 1367.21 -2.33505 -1.94188 0
M  V30 14636 H 1364.79 -1.18959 -0.903826 0
M  V30 14637 H 1366.68 -1.10803 -4.06572 0
M  V30 14638 H 1365.35 -0.255675 -3.22689 0
M  V30 14639 H 1364.26 -2.52546 -2.75992 0
M  V30 14640 H 1365.59 -3.30817 -3.64446 0
M  V30 14641 N 1367.24 0.986894 -1.22875 0
M  V30 14642 C 1368.17 2.08035 -0.961971 0
M  V30 14643 C 1369.19 1.62683 0.0616475 0
M  V30 14644 O 1370.38 1.77659 -0.173094 0
M  V30 14645 C 1367.48 3.36208 -0.426302 0
M  V30 14646 C 1366.65 4.10562 -1.50856 0
M  V30 14647 C 1365.71 5.17014 -0.97891 0
M  V30 14648 O 1364.73 5.44259 -1.66645 0
M  V30 14649 N 1365.94 5.80167 0.196613 0
M  V30 14650 H 1368.7 2.315 -1.90336 0
M  V30 14651 H 1366.26 1.1531 -1.13645 0
M  V30 14652 H 1368.25 4.0466 -0.0571577 0
M  V30 14653 H 1366.82 3.09761 0.420345 0
M  V30 14654 H 1366.04 3.36656 -2.05076 0
M  V30 14655 H 1367.33 4.57007 -2.23655 0
M  V30 14656 H 1366.73 5.60409 0.771892 0
M  V30 14657 H 1365.29 6.49825 0.507083 0
M  V30 14658 N 1368.72 1.0394 1.18466 0
M  V30 14659 C 1369.63 0.639714 2.2571 0
M  V30 14660 C 1370.65 -0.333431 1.70775 0
M  V30 14661 O 1371.82 -0.188676 2.00514 0
M  V30 14662 C 1368.89 0.007559 3.46699 0
M  V30 14663 C 1367.95 1.02955 4.16772 0
M  V30 14664 C 1367.18 0.427464 5.31985 0
M  V30 14665 O 1367.4 -0.766684 5.65224 0
M  V30 14666 O 1366.34 1.15553 5.90704 0
M  V30 14667 H 1370.16 1.53316 2.6216 0
M  V30 14668 H 1367.75 0.810206 1.25523 0
M  V30 14669 H 1369.63 -0.344404 4.1999 0
M  V30 14670 H 1368.31 -0.859727 3.12074 0
M  V30 14671 H 1367.21 1.43328 3.45554 0
M  V30 14672 H 1368.55 1.86756 4.55393 0
M  V30 14673 N 1370.2 -1.34667 0.818693 0
M  V30 14674 C 1371.45 -1.98022 0.40396 0
M  V30 14675 C 1371.77 -1.65239 -1.03542 0
M  V30 14676 O 1371.04 -0.94097 -1.71821 0
M  V30 14677 H 1369.62 -0.732517 0.146382 0
M  V30 14678 H 1372.28 -1.64377 1.0472 0
M  V30 14679 H 1371.38 -3.07746 0.519516 0
M  V30 14680 N 1371.68 -0.573274 -1.46804 0
M  V30 14681 C 1372.63 0.186085 -2.27239 0
M  V30 14682 C 1373.61 0.870579 -1.35313 0
M  V30 14683 O 1374.8 0.766233 -1.59555 0
M  V30 14684 C 1371.93 1.2052 -3.21449 0
M  V30 14685 C 1371.02 0.523305 -4.20859 0
M  V30 14686 N 1371.41 -0.415768 -5.04088 0
M  V30 14687 C 1369.71 0.775236 -4.39211 0
M  V30 14688 C 1370.41 -0.81341 -5.75985 0
M  V30 14689 N 1369.38 -0.164647 -5.43351 0
M  V30 14690 H 1373.19 -0.535687 -2.88977 0
M  V30 14691 H 1370.7 -0.394373 -1.57539 0
M  V30 14692 H 1372.7 1.76331 -3.77774 0
M  V30 14693 H 1371.36 1.9279 -2.61271 0
M  V30 14694 H 1372.37 -0.790798 -5.11827 0
M  V30 14695 H 1369.04 1.48522 -3.90189 0
M  V30 14696 H 1370.43 -1.58598 -6.52914 0
M  V30 14697 N 1373.15 1.5451 -0.310553 0
M  V30 14698 C 1374.38 2.04442 0.297807 0
M  V30 14699 C 1374.79 1.18695 1.47337 0
M  V30 14700 O 1374.14 0.207405 1.82525 0
M  V30 14701 C 1374.2 3.50306 0.807851 0
M  V30 14702 C 1373.86 4.5635 -0.24369 0
M  V30 14703 C 1374.86 5.08656 -1.07539 0
M  V30 14704 C 1372.54 5.00798 -0.388138 0
M  V30 14705 C 1374.54 6.03961 -2.03738 0
M  V30 14706 C 1372.22 5.95921 -1.35357 0
M  V30 14707 C 1373.22 6.47387 -2.17667 0
M  V30 14708 O 1372.91 7.40644 -3.12571 0
M  V30 14709 H 1372.64 0.672646 0.0672525 0
M  V30 14710 H 1375.2 2.00389 -0.450948 0
M  V30 14711 H 1373.43 3.51714 1.6073 0
M  V30 14712 H 1375.12 3.83383 1.33314 0
M  V30 14713 H 1375.88 4.75105 -0.97471 0
M  V30 14714 H 1371.76 4.60361 0.242608 0
M  V30 14715 H 1375.3 6.44057 -2.68023 0
M  V30 14716 H 1371.2 6.2889 -1.45493 0
M  V30 14717 H 1371.97 7.58477 -3.0766 0
M  V30 14718 N 1374.63 0.0384594 1.57553 0
M  V30 14719 C 1375.86 -0.647137 1.96203 0
M  V30 14720 C 1376.27 -1.65656 0.914042 0
M  V30 14721 O 1375.61 -1.83361 -0.111617 0
M  V30 14722 C 1375.68 -1.40193 3.31038 0
M  V30 14723 C 1375.34 -0.549782 4.53681 0
M  V30 14724 C 1376.34 0.178839 5.19592 0
M  V30 14725 C 1374.02 -0.48444 4.99958 0
M  V30 14726 C 1376.02 0.961376 6.30108 0
M  V30 14727 C 1373.7 0.301795 6.10354 0
M  V30 14728 C 1374.7 1.0234 6.75289 0
M  V30 14729 O 1374.39 1.79673 7.83564 0
M  V30 14730 H 1374.12 -0.182651 0.650857 0
M  V30 14731 H 1376.68 0.0973346 2.05169 0
M  V30 14732 H 1374.91 -2.19175 3.1859 0
M  V30 14733 H 1376.59 -1.97653 3.54525 0
M  V30 14734 H 1377.36 0.137749 4.84804 0
M  V30 14735 H 1373.24 -1.03568 4.49216 0
M  V30 14736 H 1376.78 1.52513 6.80724 0
M  V30 14737 H 1372.68 0.344569 6.4458 0
M  V30 14738 H 1373.45 1.71749 8.00278 0
M  V30 14739 N 1376.11 -1.55841 -0.234795 0
M  V30 14740 C 1377.04 -1.87793 -1.31402 0
M  V30 14741 C 1378.06 -0.765113 -1.43701 0
M  V30 14742 O 1379.25 -1.04332 -1.44834 0
M  V30 14743 C 1376.35 -2.05976 -2.69123 0
M  V30 14744 C 1375.52 -3.36914 -2.7894 0
M  V30 14745 C 1374.58 -3.44691 -3.97586 0
M  V30 14746 O 1373.6 -4.17818 -3.86545 0
M  V30 14747 N 1374.81 -2.74866 -5.11301 0
M  V30 14748 H 1377.57 -2.80957 -1.04324 0
M  V30 14749 H 1375.13 -1.56226 -0.424872 0
M  V30 14750 H 1377.12 -2.08507 -3.46853 0
M  V30 14751 H 1375.69 -1.195 -2.88857 0
M  V30 14752 H 1374.91 -3.46595 -1.87791 0
M  V30 14753 H 1376.2 -4.23196 -2.82458 0
M  V30 14754 H 1375.6 -2.15208 -5.23165 0
M  V30 14755 H 1374.16 -2.83075 -5.87122 0
M  V30 14756 N 1377.59 0.500963 -1.49426 0
M  V30 14757 C 1378.5 1.62889 -1.68833 0
M  V30 14758 C 1379.52 1.64367 -0.570932 0
M  V30 14759 O 1380.69 1.82786 -0.845641 0
M  V30 14760 C 1377.76 2.99255 -1.75063 0
M  V30 14761 C 1376.82 3.08404 -2.9864 0
M  V30 14762 C 1376.05 4.38266 -3.04564 0
M  V30 14763 O 1376.27 5.27065 -2.1808 0
M  V30 14764 O 1375.21 4.52387 -3.97026 0
M  V30 14765 H 1379.03 1.49446 -2.64385 0
M  V30 14766 H 1376.62 0.677254 -1.33168 0
M  V30 14767 H 1378.5 3.80303 -1.81515 0
M  V30 14768 H 1377.18 3.1296 -0.826896 0
M  V30 14769 H 1376.08 2.26544 -2.97706 0
M  V30 14770 H 1377.42 2.99626 -3.90494 0
M  V30 14771 N 1379.07 1.38501 0.752011 0
M  V30 14772 C 1379.98 1.38094 1.8965 0
M  V30 14773 C 1380.99 0.277851 1.71767 0
M  V30 14774 O 1382.17 0.516536 1.94663 0
M  V30 14775 C 1379.23 1.2063 3.25037 0
M  V30 14776 C 1378.3 2.40758 3.55435 0
M  V30 14777 C 1377.53 2.24118 4.84362 0
M  V30 14778 O 1377.75 1.23571 5.56854 0
M  V30 14779 O 1376.69 3.12741 5.14273 0
M  V30 14780 H 1380.51 2.34532 1.92947 0
M  V30 14781 H 1378.1 1.19437 0.897504 0
M  V30 14782 H 1379.98 1.12957 4.05979 0
M  V30 14783 H 1378.65 0.272785 3.22549 0
M  V30 14784 H 1377.56 2.54006 2.74648 0
M  V30 14785 H 1378.89 3.32745 3.62686 0
M  V30 14786 N 1380.55 -0.980364 1.23396 0
M  V30 14787 C 1381.49 -2.07275 1.01516 0
M  V30 14788 C 1382.46 -1.65963 -0.0673729 0
M  V30 14789 O 1383.65 -1.90612 0.0847392 0
M  V30 14790 C 1380.79 -3.39621 0.61249 0
M  V30 14791 C 1379.9 -3.94203 1.76715 0
M  V30 14792 C 1379.04 -5.14761 1.31126 0
M  V30 14793 C 1378.07 -5.61509 2.43667 0
M  V30 14794 N 1377.21 -6.73297 1.99035 0
M  V30 14795 H 1382.05 -2.25325 1.9502 0
M  V30 14796 H 1379.59 -1.10452 0.971532 0
M  V30 14797 H 1381.55 -4.15643 0.360126 0
M  V30 14798 H 1380.18 -3.21535 -0.285539 0
M  V30 14799 H 1379.23 -3.14937 2.13352 0
M  V30 14800 H 1380.54 -4.24867 2.61323 0
M  V30 14801 H 1379.69 -5.98115 1.01702 0
M  V30 14802 H 1378.43 -4.85751 0.435555 0
M  V30 14803 H 1377.44 -4.76737 2.73865 0
M  V30 14804 H 1378.66 -5.92539 3.31774 0
M  V30 14805 H 1376.61 -6.46046 1.13845 0
M  V30 14806 H 1376.53 -7.03345 2.77203 0
M  V30 14807 H 1377.79 -7.60125 1.72716 0
M  V30 14808 N 1382.02 -1.04567 -1.17913 0
M  V30 14809 C 1382.93 -0.651674 -2.25367 0
M  V30 14810 C 1383.95 0.32437 -1.7095 0
M  V30 14811 O 1385.13 0.178039 -2.00612 0
M  V30 14812 C 1382.19 -0.0259452 -3.4669 0
M  V30 14813 C 1381.25 -1.05163 -4.1622 0
M  V30 14814 C 1380.48 -0.45567 -5.31751 0
M  V30 14815 O 1380.71 0.736698 -5.65623 0
M  V30 14816 O 1379.64 -1.18684 -5.90083 0
M  V30 14817 H 1383.47 -1.54704 -2.61344 0
M  V30 14818 H 1381.05 -0.816852 -1.25092 0
M  V30 14819 H 1382.93 0.322126 -4.20167 0
M  V30 14820 H 1381.61 0.843165 -3.12526 0
M  V30 14821 H 1380.52 -1.45159 -3.44789 0
M  V30 14822 H 1381.85 -1.89168 -4.54397 0
M  V30 14823 N 1383.5 1.34231 -0.825823 0
M  V30 14824 C 1384.43 2.31997 -0.264546 0
M  V30 14825 C 1385.41 1.58375 0.620592 0
M  V30 14826 O 1386.6 1.86341 0.546865 0
M  V30 14827 C 1383.73 3.42557 0.572025 0
M  V30 14828 C 1382.68 4.27454 -0.216219 0
M  V30 14829 C 1382.01 5.29509 0.743279 0
M  V30 14830 C 1383.31 5.02456 -1.42603 0
M  V30 14831 H 1385 2.79189 -1.08139 0
M  V30 14832 H 1382.55 1.34227 -0.521451 0
M  V30 14833 H 1384.5 4.09968 0.974889 0
M  V30 14834 H 1383.22 2.94021 1.42195 0
M  V30 14835 H 1381.88 3.61649 -0.600485 0
M  V30 14836 H 1381.53 4.77234 1.58924 0
M  V30 14837 H 1381.23 5.87188 0.220064 0
M  V30 14838 H 1382.76 5.99789 1.14394 0
M  V30 14839 H 1384.17 5.62706 -1.09702 0
M  V30 14840 H 1382.57 5.69723 -1.88509 0
M  V30 14841 H 1383.64 4.31983 -2.2027 0
M  V30 14842 N 1384.98 0.581051 1.46498 0
M  V30 14843 C 1385.89 -0.155669 2.34083 0
M  V30 14844 C 1386.91 -0.887728 1.49651 0
M  V30 14845 O 1388.08 -0.851284 1.82524 0
M  V30 14846 C 1385.15 -1.15752 3.26806 0
M  V30 14847 C 1384.21 -0.43031 4.27138 0
M  V30 14848 C 1383.44 -1.38443 5.15431 0
M  V30 14849 O 1383.66 -2.62084 5.06624 0
M  V30 14850 O 1382.6 -0.89592 5.95195 0
M  V30 14851 H 1386.42 0.56341 2.98428 0
M  V30 14852 H 1384.01 0.341466 1.45445 0
M  V30 14853 H 1385.89 -1.73523 3.84015 0
M  V30 14854 H 1384.57 -1.85809 2.65059 0
M  V30 14855 H 1383.47 0.1892 3.73621 0
M  V30 14856 H 1384.81 0.229263 4.91666 0
M  V30 14857 N 1386.46 -1.54343 0.318742 0
M  V30 14858 C 1387.42 -2.22828 -0.536679 0
M  V30 14859 C 1388.42 -1.22013 -1.04735 0
M  V30 14860 O 1389.61 -1.46626 -0.940549 0
M  V30 14861 C 1386.74 -2.92857 -1.74493 0
M  V30 14862 H 1387.94 -2.99836 0.0619325 0
M  V30 14863 H 1385.49 -1.56144 0.0697687 0
M  V30 14864 H 1386.22 -2.19973 -2.3829 0
M  V30 14865 H 1386.01 -3.66779 -1.38621 0
M  V30 14866 H 1387.5 -3.45049 -2.35225 0
M  V30 14867 N 1387.94 -0.0468143 -1.5753 0
M  V30 14868 C 1389.16 0.637648 -1.96829 0
M  V30 14869 C 1389.58 1.64635 -0.924158 0
M  V30 14870 O 1388.94 1.82267 0.0921139 0
M  V30 14871 C 1388.99 1.32842 -3.36207 0
M  V30 14872 O 1388.71 0.360111 -4.36617 0
M  V30 14873 C 1390.21 2.10305 -3.90239 0
M  V30 14874 H 1387.43 0.174634 -0.647876 0
M  V30 14875 H 1389.97 -0.111824 -2.04194 0
M  V30 14876 H 1388.13 2.02915 -3.30006 0
M  V30 14877 H 1388.54 0.852661 -5.17523 0
M  V30 14878 H 1390.02 2.54065 -4.90056 0
M  V30 14879 H 1390.49 2.94942 -3.25432 0
M  V30 14880 H 1391.1 1.45152 -3.99764 0
M  V30 14881 N 1389.41 1.55964 0.226527 0
M  V30 14882 C 1390.66 1.7901 0.95306 0
M  V30 14883 C 1390.99 0.615608 1.84184 0
M  V30 14884 O 1390.27 -0.385341 1.90645 0
M  V30 14885 C 1390.55 3.12101 1.79624 0
M  V30 14886 C 1390.4 4.3999 0.934286 0
M  V30 14887 C 1391.72 3.4159 2.77496 0
M  V30 14888 H 1388.84 0.651236 0.345052 0
M  V30 14889 H 1391.48 1.88696 0.222236 0
M  V30 14890 H 1389.63 3.03975 2.41933 0
M  V30 14891 H 1391.31 4.6013 0.328328 0
M  V30 14892 H 1389.55 4.33138 0.239487 0
M  V30 14893 H 1390.22 5.29541 1.55853 0
M  V30 14894 H 1392.7 3.49812 2.25323 0
M  V30 14895 H 1391.57 4.35894 3.33599 0
M  V30 14896 H 1391.83 2.6351 3.54986 0
M  V30 14897 N 1390.89 -0.493031 1.4969 0
M  V30 14898 C 1391.82 -1.61058 1.63074 0
M  V30 14899 C 1392.84 -1.54504 0.513069 0
M  V30 14900 O 1394.03 -1.60291 0.785431 0
M  V30 14901 C 1391.13 -2.99877 1.57883 0
M  V30 14902 C 1390.3 -3.31531 2.85317 0
M  V30 14903 C 1389.36 -4.49799 2.7307 0
M  V30 14904 O 1388.38 -4.51189 3.47012 0
M  V30 14905 N 1389.59 -5.50182 1.85148 0
M  V30 14906 H 1392.35 -1.5 2.59461 0
M  V30 14907 H 1389.91 -0.681057 1.46878 0
M  V30 14908 H 1391.9 -3.76928 1.47333 0
M  V30 14909 H 1390.47 -3.04817 0.693218 0
M  V30 14910 H 1389.69 -2.433 3.10159 0
M  V30 14911 H 1390.98 -3.49481 3.69784 0
M  V30 14912 H 1390.38 -5.51865 1.24345 0
M  V30 14913 H 1388.94 -6.26305 1.80516 0
M  V30 14914 N 1392.37 -1.38898 -0.744656 0
M  V30 14915 C 1393.32 -1.36845 -1.85855 0
M  V30 14916 C 1394.29 -0.2296 -1.64505 0
M  V30 14917 O 1395.47 -0.423221 -1.86047 0
M  V30 14918 C 1392.61 -1.20818 -3.2326 0
M  V30 14919 C 1391.73 -2.44166 -3.5638 0
M  V30 14920 C 1390.86 -2.20801 -4.83136 0
M  V30 14921 C 1389.9 -3.39874 -5.0907 0
M  V30 14922 N 1389.04 -3.15888 -6.27024 0
M  V30 14923 H 1393.88 -2.32068 -1.86945 0
M  V30 14924 H 1391.41 -1.15289 -0.913611 0
M  V30 14925 H 1393.37 -1.0954 -4.02563 0
M  V30 14926 H 1392 -0.292295 -3.21474 0
M  V30 14927 H 1391.05 -2.66083 -2.71852 0
M  V30 14928 H 1392.37 -3.32885 -3.71469 0
M  V30 14929 H 1391.52 -2.0671 -5.704 0
M  V30 14930 H 1390.26 -1.29462 -4.70203 0
M  V30 14931 H 1389.26 -3.54474 -4.20271 0
M  V30 14932 H 1390.49 -4.32102 -5.23894 0
M  V30 14933 H 1388.43 -2.27204 -6.15398 0
M  V30 14934 H 1388.35 -3.9816 -6.42655 0
M  V30 14935 H 1389.62 -3.0547 -7.17153 0
M  V30 14936 N 1393.85 0.973806 -1.23914 0
M  V30 14937 C 1395.13 1.69087 -0.9833 0
M  V30 14938 C 1395.51 2.05186 0.49619 0
M  V30 14939 O 1394.85 1.75021 1.46901 0
M  V30 14940 C 1395.06 2.92739 -1.90012 0
M  V30 14941 C 1396.41 3.65112 -2.16745 0
M  V30 14942 O 1397.44 3.02785 -1.87616 0
M  V30 14943 O 1396.29 4.77293 -2.66183 0
M  V30 14944 H 1393.39 0.738919 -0.371386 0
M  V30 14945 H 1395.93 1.02844 -1.34986 0
M  V30 14946 H 1394.71 2.6271 -2.89999 0
M  V30 14947 H 1394.33 3.66718 -1.53635 0
M  V30 14948 N 1395.33 1.05191 1.17357 0
M  V30 14949 C 1396.26 0.610878 2.20909 0
M  V30 14950 C 1397.27 -0.325369 1.59515 0
M  V30 14951 O 1398.46 -0.118104 1.78109 0
M  V30 14952 C 1395.56 -0.126086 3.38665 0
M  V30 14953 C 1394.73 0.820857 4.29629 0
M  V30 14954 C 1393.79 0.125154 5.26051 0
M  V30 14955 O 1392.82 0.759245 5.64114 0
M  V30 14956 N 1394.02 -1.13742 5.69248 0
M  V30 14957 H 1396.79 1.50158 2.5937 0
M  V30 14958 H 1394.35 0.933814 1.32256 0
M  V30 14959 H 1396.34 -0.601627 4.00203 0
M  V30 14960 H 1394.91 -0.918459 2.98803 0
M  V30 14961 H 1394.13 1.47602 3.65523 0
M  V30 14962 H 1395.42 1.46363 4.87294 0
M  V30 14963 H 1394.81 -1.67291 5.40398 0
M  V30 14964 H 1393.37 -1.55703 6.3293 0
M  V30 14965 N 1396.8 -1.33791 0.83293 0
M  V30 14966 C 1397.71 -2.33108 0.264169 0
M  V30 14967 C 1398.73 -1.6308 -0.606694 0
M  V30 14968 O 1399.91 -1.94777 -0.512225 0
M  V30 14969 C 1396.97 -3.42208 -0.556315 0
M  V30 14970 C 1396.03 -4.27966 0.338123 0
M  V30 14971 C 1395.27 -5.31856 -0.443297 0
M  V30 14972 O 1395.49 -5.45234 -1.6756 0
M  V30 14973 O 1394.42 -6.01632 0.179599 0
M  V30 14974 H 1398.25 -2.83602 1.08645 0
M  V30 14975 H 1395.83 -1.37027 0.595307 0
M  V30 14976 H 1397.72 -4.088 -1.02277 0
M  V30 14977 H 1396.39 -2.9394 -1.35575 0
M  V30 14978 H 1395.3 -3.64262 0.852293 0
M  V30 14979 H 1396.63 -4.79701 1.10217 0
M  V30 14980 N 1398.28 -0.588812 -1.46187 0
M  V30 14981 C 1399.23 0.153638 -2.32092 0
M  V30 14982 C 1400.22 0.878346 -1.4485 0
M  V30 14983 O 1401.43 0.796042 -1.61441 0
M  V30 14984 H 1397.81 0.0684129 -0.748882 0
M  V30 14985 H 1399.78 -0.58961 -2.92517 0
M  V30 14986 C 1398.53 1.15003 -3.28131 0
M  V30 14987 H 1397.85 0.601804 -3.95245 0
M  V30 14988 H 1399.29 1.6398 -3.91007 0
M  V30 14989 C 1397.75 2.21411 -2.53926 0
M  V30 14990 O 1398.28 3.28862 -2.30679 0
M  V30 14991 N 1396.48 1.96184 -2.14383 0
M  V30 14992 H 1396.03 1.08812 -2.3349 0
M  V30 14993 H 1395.99 2.6759 -1.65055 0
M  V30 14994 N 1399.76 1.54172 -0.326923 0
M  V30 14995 C 1400.69 2.21958 0.571588 0
M  V30 14996 C 1401.71 1.22067 1.0772 0
M  V30 14997 O 1402.89 1.48517 0.990202 0
M  V30 14998 C 1399.99 2.87307 1.79744 0
M  V30 14999 C 1399.17 4.13366 1.42995 0
M  V30 15000 C 1398.23 4.62276 2.5137 0
M  V30 15001 O 1397.25 5.2688 2.15373 0
M  V30 15002 N 1398.45 4.36789 3.82355 0
M  V30 15003 H 1401.22 2.99699 -0.00885848 0
M  V30 15004 H 1398.78 1.61201 -0.150279 0
M  V30 15005 H 1400.77 3.1695 2.51644 0
M  V30 15006 H 1399.34 2.13252 2.28566 0
M  V30 15007 H 1398.56 3.9045 0.542444 0
M  V30 15008 H 1399.85 4.95396 1.16017 0
M  V30 15009 H 1399.25 3.85086 4.14397 0
M  V30 15010 H 1397.81 4.71079 4.50475 0
M  V30 15011 N 1401.24 0.0551678 1.57503 0
M  V30 15012 C 1402.48 -0.612713 1.93952 0
M  V30 15013 C 1402.84 -1.68215 0.933889 0
M  V30 15014 O 1402.13 -1.91544 -0.0463465 0
M  V30 15015 C 1402.33 -1.24895 3.34867 0
M  V30 15016 C 1402.16 -0.242666 4.49045 0
M  V30 15017 C 1400.93 0.16678 5.05025 0
M  V30 15018 C 1403.12 0.513505 5.1173 0
M  V30 15019 N 1401.11 1.16551 6.02735 0
M  V30 15020 C 1402.48 1.3652 6.04783 0
M  V30 15021 C 1404.53 0.571384 4.94611 0
M  V30 15022 C 1403.23 2.26959 6.82556 0
M  V30 15023 C 1405.26 1.46322 5.73013 0
M  V30 15024 C 1404.62 2.30262 6.65702 0
M  V30 15025 H 1400.72 -0.195733 0.757108 0
M  V30 15026 H 1403.31 0.128432 1.94276 0
M  V30 15027 H 1401.48 -1.9601 3.35313 0
M  V30 15028 H 1403.21 -1.87595 3.58595 0
M  V30 15029 H 1399.96 -0.212991 4.73121 0
M  V30 15030 H 1400.39 1.66188 6.56285 0
M  V30 15031 H 1405.03 -0.0633664 4.22753 0
M  V30 15032 H 1402.75 2.91477 7.53702 0
M  V30 15033 H 1406.33 1.51262 5.61793 0
M  V30 15034 H 1405.21 2.98153 7.2531 0
M  V30 15035 N 1402.72 -1.56081 -0.218252 0
M  V30 15036 C 1403.94 -1.83334 -0.958964 0
M  V30 15037 C 1404.36 -0.63472 -1.77811 0
M  V30 15038 O 1403.72 0.396729 -1.78136 0
M  V30 15039 C 1403.77 -3.09141 -1.87387 0
M  V30 15040 O 1403.49 -4.24379 -1.08783 0
M  V30 15041 C 1404.99 -3.49405 -2.7282 0
M  V30 15042 H 1402.21 -0.609375 -0.280898 0
M  V30 15043 H 1404.75 -2.03174 -0.232486 0
M  V30 15044 H 1402.91 -2.91267 -2.55426 0
M  V30 15045 H 1403.32 -4.9587 -1.70919 0
M  V30 15046 H 1404.8 -4.40461 -3.32713 0
M  V30 15047 H 1405.27 -2.71311 -3.45379 0
M  V30 15048 H 1405.88 -3.6973 -2.1019 0
M  V30 15049 N 1404.2 0.485086 -1.49949 0
M  V30 15050 C 1405.43 1.25996 -1.63733 0
M  V30 15051 C 1405.83 1.8657 -0.31435 0
M  V30 15052 O 1405.18 1.69336 0.71211 0
M  V30 15053 C 1405.24 2.41842 -2.65994 0
M  V30 15054 C 1404.9 2.02014 -4.09926 0
M  V30 15055 C 1405.9 1.55068 -4.96236 0
M  V30 15056 C 1403.58 2.11162 -4.55759 0
M  V30 15057 C 1405.58 1.17796 -6.26421 0
M  V30 15058 C 1403.27 1.73501 -5.85953 0
M  V30 15059 C 1404.26 1.26894 -6.71109 0
M  V30 15060 O 1403.95 0.89749 -7.98874 0
M  V30 15061 H 1403.68 0.387743 -0.553743 0
M  V30 15062 H 1406.24 0.5871 -1.96831 0
M  V30 15063 H 1404.47 3.12254 -2.2811 0
M  V30 15064 H 1406.16 3.03837 -2.69143 0
M  V30 15065 H 1406.92 1.47434 -4.62048 0
M  V30 15066 H 1402.8 2.46389 -3.89633 0
M  V30 15067 H 1406.35 0.813467 -6.92841 0
M  V30 15068 H 1402.24 1.8079 -6.19665 0
M  V30 15069 H 1403.01 1.02757 -8.12024 0
M  V30 15070 N 1405.67 1.39291 0.737279 0
M  V30 15071 C 1406.62 1.37829 1.85127 0
M  V30 15072 C 1407.59 0.238321 1.64381 0
M  V30 15073 O 1408.78 0.433081 1.8582 0
M  V30 15074 C 1405.92 1.22531 3.22615 0
M  V30 15075 C 1405.03 2.46052 3.55081 0
M  V30 15076 C 1404.16 2.2336 4.81958 0
M  V30 15077 C 1403.2 3.42569 5.0726 0
M  V30 15078 N 1402.34 3.19209 6.2534 0
M  V30 15079 H 1407.18 2.33056 1.85712 0
M  V30 15080 H 1404.72 1.15772 0.907484 0
M  V30 15081 H 1406.67 1.11673 4.01976 0
M  V30 15082 H 1405.3 0.30934 3.21314 0
M  V30 15083 H 1404.36 2.67521 2.70438 0
M  V30 15084 H 1405.67 3.3485 3.69698 0
M  V30 15085 H 1404.82 2.09732 5.69295 0
M  V30 15086 H 1403.56 1.31953 4.6951 0
M  V30 15087 H 1402.57 3.56698 4.18386 0
M  V30 15088 H 1403.79 4.34874 5.21595 0
M  V30 15089 H 1401.74 2.30464 6.14184 0
M  V30 15090 H 1401.65 4.01562 6.40534 0
M  V30 15091 H 1402.92 3.09269 7.15523 0
M  V30 15092 N 1407.15 -0.967221 1.24429 0
M  V30 15093 C 1408.4 -1.70458 1.07829 0
M  V30 15094 C 1408.71 -1.91818 -0.38278 0
M  V30 15095 O 1409.92 -2.63129 -0.668982 0
M  V30 15096 C 1408.38 -3.06817 1.88125 0
M  V30 15097 C 1407.98 -2.93298 3.38645 0
M  V30 15098 C 1409.73 -3.84422 1.80056 0
M  V30 15099 C 1407.63 -4.2497 4.11284 0
M  V30 15100 H 1406.56 -0.639217 0.399897 0
M  V30 15101 H 1409.22 -1.07776 1.48515 0
M  V30 15102 H 1407.6 -3.70331 1.40254 0
M  V30 15103 H 1408.77 -2.38793 3.94099 0
M  V30 15104 H 1407.09 -2.29159 3.47671 0
M  V30 15105 H 1409.68 -4.81925 2.31629 0
M  V30 15106 H 1410.03 -4.09194 0.765908 0
M  V30 15107 H 1410.56 -3.27636 2.2561 0
M  V30 15108 H 1407.3 -4.05391 5.1511 0
M  V30 15109 H 1406.82 -4.79288 3.60615 0
M  V30 15110 H 1408.5 -4.93586 4.18308 0
M  V30 15111 N 1408.63 -1.05812 -1.16797 0
M  V30 15112 C 1409.58 -0.634669 -2.18988 0
M  V30 15113 C 1410.56 0.332122 -1.57435 0
M  V30 15114 O 1411.76 0.148346 -1.76377 0
M  V30 15115 C 1408.88 -0.0174742 -3.43296 0
M  V30 15116 C 1407.97 -1.00847 -4.11935 0
M  V30 15117 N 1408.36 -2.18223 -4.56303 0
M  V30 15118 C 1406.66 -0.838325 -4.3805 0
M  V30 15119 C 1407.36 -2.80967 -5.09345 0
M  V30 15120 N 1406.34 -2.08725 -5.01931 0
M  V30 15121 H 1410.14 -1.52888 -2.51003 0
M  V30 15122 H 1407.65 -0.929125 -1.33195 0
M  V30 15123 H 1409.65 0.303692 -4.15792 0
M  V30 15124 H 1408.31 0.872052 -3.1277 0
M  V30 15125 H 1409.32 -2.56025 -4.5019 0
M  V30 15126 H 1406 -0.000376066 -4.175 0
M  V30 15127 H 1407.39 -3.80541 -5.53749 0
M  V30 15128 N 1410.11 1.33347 -0.840014 0
M  V30 15129 C 1411.04 2.28029 -0.231432 0
M  V30 15130 C 1412.05 1.51792 0.588488 0
M  V30 15131 O 1413.24 1.736 0.415371 0
M  V30 15132 C 1410.34 3.31745 0.692721 0
M  V30 15133 C 1409.51 4.37311 -0.0881144 0
M  V30 15134 C 1408.57 5.20689 0.759557 0
M  V30 15135 O 1407.6 5.68854 0.198347 0
M  V30 15136 N 1408.8 5.42082 2.07672 0
M  V30 15137 H 1411.57 2.80893 -1.04495 0
M  V30 15138 H 1409.13 1.46053 -0.698586 0
M  V30 15139 H 1411.12 3.84428 1.2648 0
M  V30 15140 H 1409.69 2.79148 1.40695 0
M  V30 15141 H 1408.91 3.85112 -0.841579 0
M  V30 15142 H 1410.2 5.04947 -0.624986 0
M  V30 15143 H 1409.6 5.04654 2.55619 0
M  V30 15144 H 1408.15 5.97817 2.59726 0
M  V30 15145 N 1411.59 0.596556 1.45873 0
M  V30 15146 C 1412.5 -0.130832 2.34235 0
M  V30 15147 C 1413.51 -0.871805 1.50584 0
M  V30 15148 O 1414.69 -0.831877 1.83417 0
M  V30 15149 C 1411.75 -1.12279 3.28016 0
M  V30 15150 C 1410.81 -0.384982 4.2757 0
M  V30 15151 C 1410.05 -1.32969 5.1687 0
M  V30 15152 O 1410.27 -2.56696 5.09375 0
M  V30 15153 O 1409.2 -0.832741 5.96112 0
M  V30 15154 H 1413.03 0.59503 2.97814 0
M  V30 15155 H 1410.61 0.356873 1.45075 0
M  V30 15156 H 1412.5 -1.6944 3.85834 0
M  V30 15157 H 1411.17 -1.82988 2.67015 0
M  V30 15158 H 1410.08 0.228816 3.734 0
M  V30 15159 H 1411.41 0.281398 4.91395 0
M  V30 15160 N 1413.06 -1.53996 0.335095 0
M  V30 15161 C 1413.97 -2.28436 -0.534244 0
M  V30 15162 C 1414.99 -1.33224 -1.11926 0
M  V30 15163 O 1416.17 -1.66252 -1.13676 0
M  V30 15164 C 1413.23 -3.03634 -1.67354 0
M  V30 15165 C 1412.29 -4.14455 -1.11916 0
M  V30 15166 C 1411.52 -4.86058 -2.20416 0
M  V30 15167 O 1411.75 -4.57263 -3.40979 0
M  V30 15168 O 1410.68 -5.72704 -1.85185 0
M  V30 15169 H 1414.51 -3.03618 0.0706314 0
M  V30 15170 H 1412.09 -1.49062 0.100409 0
M  V30 15171 H 1413.97 -3.50687 -2.33659 0
M  V30 15172 H 1412.65 -2.31317 -2.26438 0
M  V30 15173 H 1411.56 -3.71725 -0.420871 0
M  V30 15174 H 1412.89 -4.8885 -0.573295 0
M  V30 15175 N 1414.54 -0.0635198 -1.57472 0
M  V30 15176 C 1415.49 0.906604 -2.12248 0
M  V30 15177 C 1416.46 1.30078 -1.0329 0
M  V30 15178 O 1417.64 1.38809 -1.30907 0
M  V30 15179 C 1414.78 2.1718 -2.68192 0
M  V30 15180 C 1413.9 1.831 -3.91278 0
M  V30 15181 C 1413.03 3.0417 -4.35493 0
M  V30 15182 C 1412.07 2.66069 -5.51248 0
M  V30 15183 N 1411.21 3.79871 -5.9046 0
M  V30 15184 H 1416.05 0.432606 -2.94843 0
M  V30 15185 H 1413.58 0.201895 -1.45708 0
M  V30 15186 H 1415.54 2.91231 -2.98732 0
M  V30 15187 H 1414.17 2.62135 -1.88375 0
M  V30 15188 H 1413.22 0.991473 -3.67252 0
M  V30 15189 H 1414.54 1.51063 -4.75375 0
M  V30 15190 H 1413.69 3.86507 -4.6765 0
M  V30 15191 H 1412.43 3.39395 -3.50232 0
M  V30 15192 H 1411.43 1.82151 -5.1875 0
M  V30 15193 H 1412.66 2.32023 -6.38234 0
M  V30 15194 H 1410.61 4.14873 -5.0815 0
M  V30 15195 H 1410.52 3.51573 -6.69277 0
M  V30 15196 H 1411.79 4.62811 -6.27237 0
M  V30 15197 N 1416.02 1.56195 0.209972 0
M  V30 15198 C 1417.27 1.78941 0.930744 0
M  V30 15199 C 1417.58 0.634139 1.85035 0
M  V30 15200 O 1418.79 0.745524 2.61064 0
M  V30 15201 C 1417.24 3.16935 1.70529 0
M  V30 15202 C 1416.85 4.40221 0.83125 0
M  V30 15203 C 1418.6 3.49 2.41659 0
M  V30 15204 C 1416.5 5.69238 1.60381 0
M  V30 15205 H 1415.43 0.667176 0.351273 0
M  V30 15206 H 1418.08 1.82572 0.184341 0
M  V30 15207 H 1416.47 3.07513 2.49503 0
M  V30 15208 H 1417.64 4.60728 0.081227 0
M  V30 15209 H 1415.95 4.15756 0.231517 0
M  V30 15210 H 1418.55 4.42623 2.99982 0
M  V30 15211 H 1418.89 2.72042 3.15117 0
M  V30 15212 H 1419.43 3.59804 1.69665 0
M  V30 15213 H 1416.17 6.49121 0.912292 0
M  V30 15214 H 1415.69 5.52772 2.32815 0
M  V30 15215 H 1417.37 6.09827 2.16149 0
M  V30 15216 N 1417.5 -0.477127 1.50204 0
M  V30 15217 C 1418.43 -1.58405 1.71552 0
M  V30 15218 C 1419.41 -1.60463 0.564413 0
M  V30 15219 O 1420.59 -1.76826 0.802893 0
M  V30 15220 C 1417.72 -2.96765 1.8041 0
M  V30 15221 C 1416.68 -3.09573 2.95548 0
M  V30 15222 C 1416 -4.49522 2.89542 0
M  V30 15223 C 1417.3 -2.87356 4.36147 0
M  V30 15224 H 1419 -1.40792 2.64231 0
M  V30 15225 H 1416.54 -0.675886 1.27153 0
M  V30 15226 H 1418.5 -3.74125 1.9393 0
M  V30 15227 H 1417.22 -3.1552 0.843489 0
M  V30 15228 H 1415.88 -2.34645 2.81669 0
M  V30 15229 H 1415.53 -4.65186 1.91339 0
M  V30 15230 H 1415.23 -4.59028 3.66834 0
M  V30 15231 H 1416.75 -5.28909 3.05102 0
M  V30 15232 H 1418.17 -3.54469 4.50583 0
M  V30 15233 H 1416.56 -3.08313 5.14843 0
M  V30 15234 H 1417.63 -1.83264 4.48935 0
M  V30 15235 N 1418.98 -1.3968 -0.729882 0
M  V30 15236 C 1419.92 -1.38808 -1.84393 0
M  V30 15237 C 1420.89 -0.247035 -1.64253 0
M  V30 15238 O 1422.08 -0.44293 -1.85588 0
M  V30 15239 C 1419.22 -1.2424 -3.2196 0
M  V30 15240 C 1418.33 -2.47932 -3.53771 0
M  V30 15241 C 1417.47 -2.25913 -4.80767 0
M  V30 15242 C 1416.51 -3.45254 -5.05436 0
M  V30 15243 N 1415.64 -3.2252 -6.23638 0
M  V30 15244 H 1420.48 -2.34038 -1.84473 0
M  V30 15245 H 1418.02 -1.16252 -0.901332 0
M  V30 15246 H 1419.98 -1.13804 -4.01378 0
M  V30 15247 H 1418.61 -0.326375 -3.21146 0
M  V30 15248 H 1417.66 -2.68952 -2.69015 0
M  V30 15249 H 1418.97 -3.36806 -3.67917 0
M  V30 15250 H 1418.13 -2.12748 -5.68175 0
M  V30 15251 H 1416.86 -1.34441 -4.68804 0
M  V30 15252 H 1415.87 -3.58912 -4.16488 0
M  V30 15253 H 1417.09 -4.37634 -5.19282 0
M  V30 15254 H 1415.04 -2.33718 -6.12953 0
M  V30 15255 H 1414.96 -4.04954 -6.38395 0
M  V30 15256 H 1416.23 -3.1306 -7.13872 0
M  V30 15257 N 1420.45 0.960609 -1.2494 0
M  V30 15258 C 1421.7 1.70701 -1.09495 0
M  V30 15259 C 1422.03 1.90754 0.364214 0
M  V30 15260 O 1421.31 1.47417 1.26879 0
M  V30 15261 C 1421.59 3.09353 -1.84317 0
M  V30 15262 C 1421.44 2.96747 -3.38026 0
M  V30 15263 C 1422.76 4.09139 -1.62153 0
M  V30 15264 H 1419.88 0.61955 -0.399158 0
M  V30 15265 H 1422.52 1.11701 -1.53698 0
M  V30 15266 H 1420.67 3.59719 -1.46746 0
M  V30 15267 H 1422.35 2.53752 -3.85237 0
M  V30 15268 H 1420.59 2.32798 -3.66043 0
M  V30 15269 H 1421.26 3.95002 -3.85587 0
M  V30 15270 H 1423.74 3.67659 -1.94849 0
M  V30 15271 H 1422.61 5.04206 -2.16951 0
M  V30 15272 H 1422.87 4.38521 -0.561437 0
M  V30 15273 N 1421.93 1.0643 1.16234 0
M  V30 15274 C 1423.18 0.780296 1.86429 0
M  V30 15275 C 1423.5 -0.695335 1.82181 0
M  V30 15276 O 1422.77 -1.50312 1.2563 0
M  V30 15277 H 1421.35 0.285654 0.690225 0
M  V30 15278 H 1424.01 1.34609 1.40949 0
M  V30 15279 H 1423.11 1.10644 2.91829 0
M  V30 15280 N 1423.41 -1.329 0.847073 0
M  V30 15281 C 1424.36 -2.29044 0.284199 0
M  V30 15282 C 1425.33 -1.54706 -0.604591 0
M  V30 15283 O 1426.51 -1.82966 -0.541116 0
M  V30 15284 C 1423.65 -3.4104 -0.527822 0
M  V30 15285 C 1422.77 -4.30273 0.385907 0
M  V30 15286 C 1421.9 -5.29391 -0.438009 0
M  V30 15287 C 1420.94 -6.10265 0.473596 0
M  V30 15288 N 1420.08 -7.01403 -0.312684 0
M  V30 15289 H 1424.92 -2.76582 1.10935 0
M  V30 15290 H 1422.45 -1.36085 0.558508 0
M  V30 15291 H 1424.41 -4.04686 -1.01417 0
M  V30 15292 H 1423.04 -2.94673 -1.31787 0
M  V30 15293 H 1422.09 -3.67275 0.99061 0
M  V30 15294 H 1423.41 -4.86837 1.08585 0
M  V30 15295 H 1422.56 -5.98604 -0.987842 0
M  V30 15296 H 1421.3 -4.73424 -1.17135 0
M  V30 15297 H 1420.3 -5.39963 1.03537 0
M  V30 15298 H 1421.53 -6.68316 1.20543 0
M  V30 15299 H 1419.47 -6.47875 -1.02926 0
M  V30 15300 H 1419.39 -7.55286 0.328376 0
M  V30 15301 H 1420.66 -7.74912 -0.844489 0
M  V30 15302 N 1424.89 -0.604284 -1.45555 0
M  V30 15303 C 1426.12 -0.104301 -2.06337 0
M  V30 15304 C 1426.53 1.21523 -1.45013 0
M  V30 15305 O 1425.87 1.75039 -0.557422 0
M  V30 15306 C 1425.93 0.113202 -3.59322 0
M  V30 15307 C 1425.6 -1.12402 -4.42961 0
M  V30 15308 C 1426.59 -2.04136 -4.78147 0
M  V30 15309 C 1424.28 -1.35192 -4.83765 0
M  V30 15310 C 1426.27 -3.16991 -5.52988 0
M  V30 15311 C 1423.96 -2.48348 -5.5836 0
M  V30 15312 C 1424.96 -3.39076 -5.92888 0
M  V30 15313 O 1424.64 -4.50264 -6.65971 0
M  V30 15314 H 1424.38 -0.0644639 -0.672919 0
M  V30 15315 H 1426.93 -0.830982 -1.8784 0
M  V30 15316 H 1425.16 0.894739 -3.76206 0
M  V30 15317 H 1426.85 0.564372 -4.01957 0
M  V30 15318 H 1427.62 -1.87753 -4.47184 0
M  V30 15319 H 1423.49 -0.654731 -4.56327 0
M  V30 15320 H 1427.04 -3.87831 -5.79856 0
M  V30 15321 H 1422.94 -2.64686 -5.88737 0
M  V30 15322 H 1423.7 -4.48904 -6.84418 0
M  V30 15323 N 1426.37 1.53816 -0.343257 0
M  V30 15324 C 1427.33 2.23654 0.501161 0
M  V30 15325 C 1428.33 1.23664 1.02781 0
M  V30 15326 O 1429.52 1.48104 0.917103 0
M  V30 15327 C 1426.65 2.95596 1.69812 0
M  V30 15328 H 1427.84 2.997 -0.109626 0
M  V30 15329 H 1425.4 1.56013 -0.0946011 0
M  V30 15330 H 1426.13 2.23736 2.34761 0
M  V30 15331 H 1425.92 3.68938 1.32768 0
M  V30 15332 H 1427.41 3.48748 2.29706 0
M  V30 15333 N 1427.84 0.0718701 1.57436 0
M  V30 15334 C 1428.79 -0.895335 2.12726 0
M  V30 15335 C 1429.76 -1.29528 1.03979 0
M  V30 15336 O 1430.95 -1.38113 1.31642 0
M  V30 15337 C 1428.09 -2.15755 2.6934 0
M  V30 15338 C 1427.2 -1.81023 3.92243 0
M  V30 15339 C 1426.33 -3.01856 4.371 0
M  V30 15340 C 1425.37 -2.63141 5.52651 0
M  V30 15341 N 1424.51 -3.76734 5.92466 0
M  V30 15342 H 1429.35 -0.416964 2.95068 0
M  V30 15343 H 1426.89 -0.194165 1.45813 0
M  V30 15344 H 1428.85 -2.89642 3.00272 0
M  V30 15345 H 1427.48 -2.61132 1.89762 0
M  V30 15346 H 1426.53 -0.971983 3.67773 0
M  V30 15347 H 1427.84 -1.4854 4.76169 0
M  V30 15348 H 1426.99 -3.84022 4.69694 0
M  V30 15349 H 1425.73 -3.37533 3.52027 0
M  V30 15350 H 1424.74 -1.79397 5.19708 0
M  V30 15351 H 1425.96 -2.28635 6.39455 0
M  V30 15352 H 1423.91 -4.12173 5.10343 0
M  V30 15353 H 1423.83 -3.48019 6.71132 0
M  V30 15354 H 1425.09 -4.59479 6.29682 0
M  V30 15355 N 1429.32 -1.56304 -0.201686 0
M  V30 15356 C 1430.57 -1.80504 -0.92446 0
M  V30 15357 C 1430.9 -0.644832 -1.83182 0
M  V30 15358 O 1430.18 0.354963 -1.91234 0
M  V30 15359 C 1430.46 -3.14919 -1.74636 0
M  V30 15360 C 1430.31 -4.41421 -0.864169 0
M  V30 15361 C 1431.63 -3.45962 -2.72026 0
M  V30 15362 H 1428.75 -0.656643 -0.334648 0
M  V30 15363 H 1431.39 -1.89025 -0.192188 0
M  V30 15364 H 1429.54 -3.07785 -2.37066 0
M  V30 15365 H 1431.21 -4.60594 -0.255084 0
M  V30 15366 H 1429.46 -4.33465 -0.170548 0
M  V30 15367 H 1430.13 -5.31954 -1.47409 0
M  V30 15368 H 1432.6 -3.53353 -2.1973 0
M  V30 15369 H 1431.48 -4.41146 -3.26622 0
M  V30 15370 H 1431.74 -2.69124 -3.50749 0
M  V30 15371 N 1430.8 0.469154 -1.50455 0
M  V30 15372 C 1431.75 1.56691 -1.6946 0
M  V30 15373 C 1432.72 1.57217 -0.535921 0
M  V30 15374 O 1433.9 1.74717 -0.766715 0
M  V30 15375 C 1431.04 2.94651 -1.79651 0
M  V30 15376 C 1430.16 3.03899 -3.07033 0
M  V30 15377 C 1429.29 4.32786 -3.08009 0
M  V30 15378 C 1428.33 4.35784 -4.29836 0
M  V30 15379 N 1427.47 5.56145 -4.28541 0
M  V30 15380 H 1432.31 1.39791 -2.63178 0
M  V30 15381 H 1429.84 0.679628 -1.30459 0
M  V30 15382 H 1431.8 3.74658 -1.83541 0
M  V30 15383 H 1430.43 3.10182 -0.893713 0
M  V30 15384 H 1429.48 2.16754 -3.12605 0
M  V30 15385 H 1430.8 3.01974 -3.97005 0
M  V30 15386 H 1429.95 5.21141 -3.10639 0
M  V30 15387 H 1428.69 4.37323 -2.1587 0
M  V30 15388 H 1427.69 3.45825 -4.27417 0
M  V30 15389 H 1428.92 4.32937 -5.23204 0
M  V30 15390 H 1426.86 5.61464 -3.39256 0
M  V30 15391 H 1426.78 5.55969 -5.12284 0
M  V30 15392 H 1428.05 6.4662 -4.35319 0
M  V30 15393 N 1432.28 1.40065 0.722464 0
M  V30 15394 C 1433.23 1.39947 1.85789 0
M  V30 15395 C 1434.22 0.28089 1.67055 0
M  V30 15396 O 1435.43 0.451575 1.74244 0
M  V30 15397 H 1431.8 0.437296 0.611781 0
M  V30 15398 H 1433.77 2.35695 1.83004 0
M  V30 15399 C 1432.52 1.27218 3.2359 0
M  V30 15400 H 1431.84 2.12566 3.38609 0
M  V30 15401 H 1433.28 1.31194 4.03192 0
M  V30 15402 C 1431.74 -0.0182466 3.36895 0
M  V30 15403 O 1432.27 -0.983761 3.89468 0
M  V30 15404 N 1430.48 -0.0854707 2.90474 0
M  V30 15405 H 1430.03 0.700953 2.4788 0
M  V30 15406 H 1429.98 -0.948367 2.99755 0
M  V30 15407 N 1433.76 -0.95397 1.25448 0
M  V30 15408 C 1434.99 -1.73331 1.12977 0
M  V30 15409 C 1435.4 -1.86131 -0.316364 0
M  V30 15410 O 1434.76 -1.35951 -1.21753 0
M  V30 15411 C 1434.81 -3.14675 1.77938 0
M  V30 15412 O 1434.53 -3.025 3.16899 0
M  V30 15413 C 1436.03 -4.08884 1.71256 0
M  V30 15414 H 1433.25 -0.543118 0.394036 0
M  V30 15415 H 1435.79 -1.19678 1.65823 0
M  V30 15416 H 1433.95 -3.6527 1.29062 0
M  V30 15417 H 1434.36 -3.91668 3.4885 0
M  V30 15418 H 1435.84 -5.05668 2.21368 0
M  V30 15419 H 1436.31 -4.33959 0.676476 0
M  V30 15420 H 1436.92 -3.64205 2.19624 0
M  V30 15421 N 1435.24 -1.07045 -1.15668 0
M  V30 15422 C 1436.19 -0.65786 -2.18303 0
M  V30 15423 C 1437.17 0.315405 -1.57778 0
M  V30 15424 O 1438.36 0.129631 -1.76525 0
M  V30 15425 C 1435.49 -0.0538843 -3.43258 0
M  V30 15426 C 1434.58 -1.0521 -4.10843 0
M  V30 15427 N 1434.97 -2.23051 -4.53963 0
M  V30 15428 C 1433.27 -0.884739 -4.37137 0
M  V30 15429 C 1433.97 -2.86354 -5.06336 0
M  V30 15430 N 1432.94 -2.14037 -4.99689 0
M  V30 15431 H 1436.74 -1.55542 -2.49367 0
M  V30 15432 H 1434.26 -0.9432 -1.32202 0
M  V30 15433 H 1436.26 0.259575 -4.16091 0
M  V30 15434 H 1434.92 0.83883 -3.13678 0
M  V30 15435 H 1435.93 -2.60786 -4.4745 0
M  V30 15436 H 1432.6 -0.0446575 -4.17476 0
M  V30 15437 H 1433.99 -3.86393 -5.49682 0
M  V30 15438 N 1436.71 1.32449 -0.85411 0
M  V30 15439 C 1437.94 2.01463 -0.471188 0
M  V30 15440 C 1438.36 1.64195 0.931954 0
M  V30 15441 O 1437.71 0.862994 1.60806 0
M  V30 15442 C 1437.76 3.56486 -0.600022 0
M  V30 15443 O 1437.49 3.92414 -1.94789 0
M  V30 15444 C 1438.99 4.42773 -0.216036 0
M  V30 15445 H 1436.21 0.644914 -0.185275 0
M  V30 15446 H 1438.75 1.6904 -1.1509 0
M  V30 15447 H 1436.91 3.87387 0.0319488 0
M  V30 15448 H 1437.32 4.87133 -1.94427 0
M  V30 15449 H 1438.79 5.50843 -0.357186 0
M  V30 15450 H 1439.27 4.31025 0.843468 0
M  V30 15451 H 1439.88 4.1726 -0.823058 0
M  V30 15452 N 1438.19 0.611994 1.45232 0
M  V30 15453 C 1439.14 -0.116695 2.32307 0
M  V30 15454 C 1440.13 -0.85519 1.46229 0
M  V30 15455 O 1441.34 -0.770257 1.62687 0
M  V30 15456 H 1437.71 -0.0564902 0.749875 0
M  V30 15457 H 1439.69 0.636073 2.91542 0
M  V30 15458 C 1438.43 -1.09768 3.29919 0
M  V30 15459 H 1437.76 -0.538848 3.96152 0
M  V30 15460 H 1439.2 -1.57739 3.93566 0
M  V30 15461 C 1437.66 -2.17344 2.57417 0
M  V30 15462 O 1438.19 -3.2515 2.35882 0
M  V30 15463 N 1436.39 -1.92749 2.17477 0
M  V30 15464 H 1435.94 -1.05084 2.35192 0
M  V30 15465 H 1435.9 -2.6493 1.69291 0
M  V30 15466 N 1439.67 -1.53632 0.351409 0
M  V30 15467 C 1440.92 -2.00643 -0.242208 0
M  V30 15468 C 1441.24 -1.24074 -1.50435 0
M  V30 15469 O 1440.51 -0.350067 -1.92747 0
M  V30 15470 H 1439.09 -0.741252 -0.0924904 0
M  V30 15471 H 1441.75 -1.89039 0.474379 0
M  V30 15472 H 1440.85 -3.084 -0.479151 0
M  V30 15473 N 1441.15 -0.0802183 -1.57396 0
M  V30 15474 C 1442.4 0.586573 -1.92982 0
M  V30 15475 C 1442.71 1.70256 -0.962918 0
M  V30 15476 O 1443.92 2.4295 -1.21193 0
M  V30 15477 C 1442.37 1.09475 -3.42846 0
M  V30 15478 C 1441.98 0.0093098 -4.47999 0
M  V30 15479 C 1443.72 1.73512 -3.87419 0
M  V30 15480 C 1441.63 0.532002 -5.89002 0
M  V30 15481 H 1440.56 0.222878 -0.720306 0
M  V30 15482 H 1443.21 -0.153816 -1.82854 0
M  V30 15483 H 1441.59 1.88836 -3.48076 0
M  V30 15484 H 1442.77 -0.765609 -4.54395 0
M  V30 15485 H 1441.08 -0.535345 -4.12944 0
M  V30 15486 H 1443.68 2.13665 -4.90154 0
M  V30 15487 H 1444.02 2.59845 -3.25248 0
M  V30 15488 H 1444.56 1.00758 -3.84828 0
M  V30 15489 H 1441.29 -0.294364 -6.54839 0
M  V30 15490 H 1440.81 1.27425 -5.86108 0
M  V30 15491 H 1442.49 1.00573 -6.39135 0
M  V30 15492 N 1442.63 1.56409 0.193394 0
M  V30 15493 C 1444.04 1.50032 0.544298 0
M  V30 15494 C 1444.24 0.780546 1.85768 0
M  V30 15495 O 1443.3 0.331769 2.50311 0
M  V30 15496 C 1444.61 2.94705 0.597463 0
M  V30 15497 C 1446.16 3.05386 0.686179 0
M  V30 15498 C 1446.63 4.51473 0.770439 0
M  V30 15499 N 1448.12 4.55631 0.833921 0
M  V30 15500 C 1448.86 5.65982 0.919314 0
M  V30 15501 N 1448.36 6.8602 0.966904 0
M  V30 15502 N 1450.15 5.539 0.956634 0
M  V30 15503 H 1442.3 2.01619 -0.668096 0
M  V30 15504 H 1444.56 0.917589 -0.238191 0
M  V30 15505 H 1444.27 3.50431 -0.298509 0
M  V30 15506 H 1444.14 3.48151 1.45157 0
M  V30 15507 H 1446.53 2.49708 1.57258 0
M  V30 15508 H 1446.61 2.55062 -0.194165 0
M  V30 15509 H 1446.25 5.07777 -0.111619 0
M  V30 15510 H 1446.18 4.99531 1.66661 0
M  V30 15511 H 1448.68 3.69198 0.80632 0
M  V30 15512 H 1448.99 7.6587 1.03262 0
M  V30 15513 H 1447.33 6.88674 0.935552 0
M  V30 15514 H 1450.52 4.59044 0.916304 0
M  V30 15515 H 1450.7 6.39926 1.01972 0
M  V30 15516 N 1444.1 -0.461169 1.50702 0
M  V30 15517 C 1445.03 -1.56576 1.73223 0
M  V30 15518 C 1446.01 -1.59855 0.581401 0
M  V30 15519 O 1447.2 -1.75964 0.821602 0
M  V30 15520 C 1444.33 -2.94835 1.83548 0
M  V30 15521 C 1443.28 -3.06421 2.98815 0
M  V30 15522 C 1442.61 -4.46425 2.94293 0
M  V30 15523 C 1443.91 -2.82714 4.3917 0
M  V30 15524 H 1445.6 -1.37982 2.65709 0
M  V30 15525 H 1443.15 -0.662362 1.27862 0
M  V30 15526 H 1445.1 -3.72047 1.97887 0
M  V30 15527 H 1443.83 -3.14608 0.876906 0
M  V30 15528 H 1442.49 -2.31644 2.84142 0
M  V30 15529 H 1442.13 -4.63131 1.96262 0
M  V30 15530 H 1441.83 -4.55111 3.71682 0
M  V30 15531 H 1443.36 -5.25644 3.10695 0
M  V30 15532 H 1444.77 -3.4967 4.54317 0
M  V30 15533 H 1443.17 -3.02835 5.18084 0
M  V30 15534 H 1444.24 -1.78492 4.50853 0
M  V30 15535 N 1445.58 -1.40446 -0.715026 0
M  V30 15536 C 1446.51 -1.43511 -1.84193 0
M  V30 15537 C 1447.49 -0.295969 -1.67505 0
M  V30 15538 O 1448.68 -0.504667 -1.87528 0
M  V30 15539 C 1445.81 -1.29751 -3.22152 0
M  V30 15540 C 1444.76 -2.41274 -3.53512 0
M  V30 15541 C 1444.09 -2.12591 -4.90621 0
M  V30 15542 C 1445.39 -3.83614 -3.54454 0
M  V30 15543 H 1447.08 -2.37819 -1.81885 0
M  V30 15544 H 1444.63 -1.14469 -0.873655 0
M  V30 15545 H 1446.58 -1.30511 -4.0068 0
M  V30 15546 H 1445.3 -0.319189 -3.25037 0
M  V30 15547 H 1443.96 -2.39764 -2.77324 0
M  V30 15548 H 1443.61 -1.13148 -4.90109 0
M  V30 15549 H 1443.31 -2.87308 -5.1257 0
M  V30 15550 H 1444.84 -2.15034 -5.71483 0
M  V30 15551 H 1446.25 -3.86945 -4.23021 0
M  V30 15552 H 1444.65 -4.57855 -3.87929 0
M  V30 15553 H 1445.72 -4.13159 -2.53827 0
M  V30 15554 N 1447.06 0.947303 -1.25952 0
M  V30 15555 C 1448.02 2.02667 -1.07046 0
M  V30 15556 C 1449.02 1.60787 -0.0208127 0
M  V30 15557 O 1450.21 1.72193 -0.263668 0
M  V30 15558 C 1447.34 3.35087 -0.626885 0
M  V30 15559 H 1448.54 2.20871 -2.0287 0
M  V30 15560 H 1446.09 1.12541 -1.08462 0
M  V30 15561 H 1446.83 3.22579 0.333621 0
M  V30 15562 H 1446.61 3.66835 -1.38473 0
M  V30 15563 H 1448.1 4.14397 -0.516264 0
M  V30 15564 N 1448.54 1.07657 1.15099 0
M  V30 15565 C 1449.47 0.657598 2.19564 0
M  V30 15566 C 1450.48 -0.29146 1.6017 0
M  V30 15567 O 1451.67 -0.0802981 1.78319 0
M  V30 15568 C 1448.77 -0.0542221 3.38857 0
M  V30 15569 C 1447.95 0.911803 4.27791 0
M  V30 15570 C 1447 0.236709 5.25667 0
M  V30 15571 O 1446.03 0.878731 5.62376 0
M  V30 15572 N 1447.23 -1.01641 5.71532 0
M  V30 15573 H 1450 1.55626 2.56126 0
M  V30 15574 H 1447.56 0.961657 1.30245 0
M  V30 15575 H 1449.55 -0.516603 4.01389 0
M  V30 15576 H 1448.12 -0.854871 3.00684 0
M  V30 15577 H 1447.34 1.55322 3.6231 0
M  V30 15578 H 1448.63 1.56667 4.8408 0
M  V30 15579 H 1448.03 -1.55791 5.43825 0
M  V30 15580 H 1446.58 -1.42242 6.3609 0
M  V30 15581 N 1450.02 -1.31994 0.861122 0
M  V30 15582 C 1451.26 -1.97317 0.468371 0
M  V30 15583 C 1451.6 -1.67954 -0.974941 0
M  V30 15584 O 1450.87 -0.971243 -1.68514 0
M  V30 15585 C 1451.15 -3.52918 0.715607 0
M  V30 15586 C 1451.01 -3.91888 2.20781 0
M  V30 15587 C 1452.33 -4.39747 0.17624 0
M  V30 15588 H 1449.44 -0.716733 0.171646 0
M  V30 15589 H 1452.09 -1.56269 1.08074 0
M  V30 15590 H 1450.24 -3.88013 0.194387 0
M  V30 15591 H 1451.91 -3.66938 2.7956 0
M  V30 15592 H 1450.15 -3.40813 2.68382 0
M  V30 15593 H 1450.82 -5.00346 2.33147 0
M  V30 15594 H 1453.3 -4.11424 0.622043 0
M  V30 15595 H 1452.17 -5.47592 0.378748 0
M  V30 15596 H 1452.44 -4.32393 -0.921358 0
M  V30 15597 N 1451.49 -0.619688 -1.44906 0
M  V30 15598 C 1452.74 -0.11981 -2.02446 0
M  V30 15599 C 1453.07 1.2509 -1.48546 0
M  V30 15600 O 1452.35 1.82781 -0.664942 0
M  V30 15601 C 1452.63 -0.0940205 -3.59977 0
M  V30 15602 C 1452.48 -1.49626 -4.24184 0
M  V30 15603 C 1453.8 0.58748 -4.36161 0
M  V30 15604 H 1450.92 -0.0450119 -0.735624 0
M  V30 15605 H 1453.56 -0.793975 -1.72615 0
M  V30 15606 H 1451.71 0.480073 -3.85522 0
M  V30 15607 H 1453.39 -2.11836 -4.09784 0
M  V30 15608 H 1451.63 -2.05348 -3.82119 0
M  V30 15609 H 1452.3 -1.43035 -5.33146 0
M  V30 15610 H 1454.78 0.0993863 -4.15981 0
M  V30 15611 H 1453.65 0.574672 -5.45883 0
M  V30 15612 H 1453.91 1.65579 -4.09922 0
M  V30 15613 N 1452.97 1.53444 -0.359552 0
M  V30 15614 C 1453.9 2.23121 0.524379 0
M  V30 15615 C 1454.92 1.24324 1.05106 0
M  V30 15616 O 1456.11 1.50584 0.958476 0
M  V30 15617 C 1453.21 2.91055 1.7361 0
M  V30 15618 C 1452.38 4.16306 1.34195 0
M  V30 15619 C 1451.44 4.67504 2.41508 0
M  V30 15620 O 1450.46 5.3133 2.04149 0
M  V30 15621 N 1451.67 4.44801 3.73005 0
M  V30 15622 H 1454.43 2.99612 -0.072427 0
M  V30 15623 H 1451.99 1.60846 -0.184438 0
M  V30 15624 H 1453.98 3.22216 2.44865 0
M  V30 15625 H 1452.55 2.18052 2.23991 0
M  V30 15626 H 1451.77 3.91513 0.459501 0
M  V30 15627 H 1453.06 4.97746 1.05483 0
M  V30 15628 H 1452.46 3.9379 4.06136 0
M  V30 15629 H 1451.02 4.80528 4.40382 0
M  V30 15630 N 1454.45 0.0885642 1.57351 0
M  V30 15631 C 1455.4 -0.872723 2.13664 0
M  V30 15632 C 1456.37 -1.28418 1.05347 0
M  V30 15633 O 1457.55 -1.36709 1.33099 0
M  V30 15634 C 1454.69 -2.12886 2.71613 0
M  V30 15635 C 1453.81 -1.76852 3.94141 0
M  V30 15636 C 1452.94 -2.97203 4.40277 0
M  V30 15637 C 1451.98 -2.57265 5.55411 0
M  V30 15638 N 1451.12 -3.70429 5.96428 0
M  V30 15639 H 1455.96 -0.385644 2.95494 0
M  V30 15640 H 1453.49 -0.178688 1.46011 0
M  V30 15641 H 1455.45 -2.86441 3.03327 0
M  V30 15642 H 1454.08 -2.59105 1.92521 0
M  V30 15643 H 1453.13 -0.932921 3.68783 0
M  V30 15644 H 1454.45 -1.43481 4.77718 0
M  V30 15645 H 1453.6 -3.79019 4.7374 0
M  V30 15646 H 1452.34 -3.3378 3.55587 0
M  V30 15647 H 1451.34 -1.73875 5.21582 0
M  V30 15648 H 1452.57 -2.21839 6.41844 0
M  V30 15649 H 1450.51 -4.06737 5.14686 0
M  V30 15650 H 1450.43 -3.40881 6.74786 0
M  V30 15651 H 1451.7 -4.52774 6.3452 0
M  V30 15652 N 1455.93 -1.56509 -0.185096 0
M  V30 15653 C 1457.18 -1.804 -0.902158 0
M  V30 15654 C 1457.49 -0.663496 -1.84003 0
M  V30 15655 O 1458.7 -0.786963 -2.59844 0
M  V30 15656 C 1457.15 -3.19608 -1.65466 0
M  V30 15657 C 1456.76 -4.41487 -0.761109 0
M  V30 15658 C 1458.5 -3.52801 -2.36076 0
M  V30 15659 C 1456.41 -5.71717 -1.51305 0
M  V30 15660 H 1455.34 -0.67268 -0.340614 0
M  V30 15661 H 1457.99 -1.82842 -0.155273 0
M  V30 15662 H 1456.37 -3.11443 -2.44579 0
M  V30 15663 H 1457.55 -4.60799 -0.00791878 0
M  V30 15664 H 1455.86 -4.16072 -0.165344 0
M  V30 15665 H 1458.46 -4.47339 -2.92902 0
M  V30 15666 H 1458.8 -2.77021 -3.10749 0
M  V30 15667 H 1459.34 -3.62457 -1.63919 0
M  V30 15668 H 1456.08 -6.5049 -0.808907 0
M  V30 15669 H 1455.6 -5.56406 -2.23992 0
M  V30 15670 H 1457.27 -6.13188 -2.0642 0
M  V30 15671 N 1457.41 0.45317 -1.50944 0
M  V30 15672 C 1458.65 1.20151 -1.62506 0
M  V30 15673 C 1458.98 1.92085 -0.335927 0
M  V30 15674 O 1458.25 1.84889 0.64751 0
M  V30 15675 H 1456.83 0.446502 -0.59887 0
M  V30 15676 H 1459.49 0.521103 -1.87804 0
M  V30 15677 H 1458.58 1.93972 -2.44502 0
M  V30 15678 N 1458.88 1.40823 0.707568 0
M  V30 15679 C 1459.83 1.41724 1.82162 0
M  V30 15680 C 1460.8 0.273135 1.63839 0
M  V30 15681 O 1461.99 0.472399 1.84859 0
M  V30 15682 C 1459.13 1.29347 3.19943 0
M  V30 15683 C 1458.24 2.53529 3.49782 0
M  V30 15684 C 1457.37 2.33533 4.77112 0
M  V30 15685 C 1456.41 3.53252 4.9988 0
M  V30 15686 N 1455.55 3.32401 6.18429 0
M  V30 15687 H 1460.39 2.36943 1.80726 0
M  V30 15688 H 1457.93 1.17671 0.882723 0
M  V30 15689 H 1459.89 1.20175 3.99517 0
M  V30 15690 H 1458.52 0.377426 3.20586 0
M  V30 15691 H 1457.57 2.73198 2.64702 0
M  V30 15692 H 1458.88 3.42617 3.62512 0
M  V30 15693 H 1458.03 2.2176 5.64719 0
M  V30 15694 H 1456.77 1.41883 4.66605 0
M  V30 15695 H 1455.78 3.65492 4.10725 0
M  V30 15696 H 1457 4.4584 5.12253 0
M  V30 15697 H 1454.95 2.4344 6.09158 0
M  V30 15698 H 1454.87 4.15059 6.31872 0
M  V30 15699 H 1456.13 3.24377 7.08802 0
M  V30 15700 N 1460.36 -0.94061 1.26453 0
M  V30 15701 C 1461.27 -2.07298 1.09839 0
M  V30 15702 C 1462.29 -1.73971 0.0317477 0
M  V30 15703 O 1463.46 -2.00017 0.235594 0
M  V30 15704 C 1460.53 -3.38847 0.733736 0
M  V30 15705 C 1459.59 -3.85954 1.87985 0
M  V30 15706 C 1458.82 -5.11224 1.5325 0
M  V30 15707 O 1459.05 -5.68743 0.434491 0
M  V30 15708 O 1457.98 -5.53386 2.36743 0
M  V30 15709 H 1461.81 -2.24222 2.04837 0
M  V30 15710 H 1459.39 -1.05763 1.0552 0
M  V30 15711 H 1461.27 -4.17885 0.543131 0
M  V30 15712 H 1459.95 -3.2316 -0.186843 0
M  V30 15713 H 1458.86 -3.07858 2.12542 0
M  V30 15714 H 1460.19 -4.06162 2.78017 0
M  V30 15715 N 1461.84 -1.08266 -1.14527 0
M  V30 15716 C 1462.8 -0.715117 -2.17758 0
M  V30 15717 C 1463.8 0.24935 -1.58855 0
M  V30 15718 O 1464.99 0.0290846 -1.74176 0
M  V30 15719 C 1462.13 -0.055575 -3.40855 0
M  V30 15720 H 1463.32 -1.62921 -2.51787 0
M  V30 15721 H 1460.87 -0.880346 -1.2915 0
M  V30 15722 H 1461.61 0.870312 -3.12404 0
M  V30 15723 H 1461.39 -0.749382 -3.84872 0
M  V30 15724 H 1462.88 0.186592 -4.17183 0
M  V30 15725 N 1463.32 1.31536 -0.86811 0
M  V30 15726 C 1464.25 2.31037 -0.33822 0
M  V30 15727 C 1465.23 1.60269 0.569892 0
M  V30 15728 O 1466.42 1.87987 0.487305 0
M  V30 15729 C 1463.55 3.44203 0.462753 0
M  V30 15730 C 1462.5 4.26549 -0.3521 0
M  V30 15731 C 1461.83 5.31605 0.574443 0
M  V30 15732 C 1463.13 4.97665 -1.58516 0
M  V30 15733 H 1464.82 2.75607 -1.16967 0
M  V30 15734 H 1462.37 1.325 -0.56389 0
M  V30 15735 H 1464.32 4.12862 0.843967 0
M  V30 15736 H 1463.04 2.98396 1.32769 0
M  V30 15737 H 1461.7 3.59555 -0.715237 0
M  V30 15738 H 1461.35 4.82048 1.43661 0
M  V30 15739 H 1461.05 5.87591 0.0331436 0
M  V30 15740 H 1462.57 6.03124 0.952541 0
M  V30 15741 H 1463.99 5.58931 -1.27549 0
M  V30 15742 H 1462.38 5.63437 -2.06539 0
M  V30 15743 H 1463.45 4.24756 -2.33902 0
M  V30 15744 N 1464.8 0.627364 1.44575 0
M  V30 15745 C 1466.04 0.130545 2.02379 0
M  V30 15746 C 1466.38 -1.24301 1.49208 0
M  V30 15747 O 1465.65 -1.82425 0.674626 0
M  V30 15748 C 1465.93 0.11311 3.59922 0
M  V30 15749 C 1465.79 1.51874 4.23385 0
M  V30 15750 C 1467.11 -0.564341 4.36467 0
M  V30 15751 H 1464.23 0.0489125 0.735375 0
M  V30 15752 H 1466.87 0.803118 1.72192 0
M  V30 15753 H 1465.02 -0.459621 3.85772 0
M  V30 15754 H 1466.69 2.14007 4.08655 0
M  V30 15755 H 1464.93 2.07371 3.81024 0
M  V30 15756 H 1465.6 1.4586 5.3238 0
M  V30 15757 H 1468.08 -0.0773244 4.16028 0
M  V30 15758 H 1466.96 -0.545715 5.46181 0
M  V30 15759 H 1467.22 -1.63403 4.10794 0
M  V30 15760 N 1466.28 -1.53251 0.367684 0
M  V30 15761 C 1467.52 -2.00469 -0.222481 0
M  V30 15762 C 1467.84 -1.259 -1.49695 0
M  V30 15763 O 1469.04 -1.63717 -2.16585 0
M  V30 15764 C 1467.5 -3.57113 -0.447018 0
M  V30 15765 C 1467.11 -4.40562 0.812946 0
M  V30 15766 C 1468.85 -4.12681 -0.994725 0
M  V30 15767 C 1466.76 -5.88763 0.557877 0
M  V30 15768 H 1465.69 -0.748974 -0.0869144 0
M  V30 15769 H 1468.34 -1.76927 0.48675 0
M  V30 15770 H 1466.72 -3.76818 -1.21756 0
M  V30 15771 H 1467.9 -4.3263 1.58644 0
M  V30 15772 H 1466.21 -3.96108 1.28403 0
M  V30 15773 H 1468.81 -5.2104 -1.20091 0
M  V30 15774 H 1469.15 -3.67408 -1.95748 0
M  V30 15775 H 1469.68 -3.96783 -0.284295 0
M  V30 15776 H 1466.42 -6.38317 1.49102 0
M  V30 15777 H 1465.94 -5.99539 -0.177082 0
M  V30 15778 H 1467.62 -6.46738 0.18419 0
M  V30 15779 N 1467.75 -0.0969077 -1.57302 0
M  V30 15780 C 1469 0.561074 -1.95508 0
M  V30 15781 C 1469.35 1.6568 -0.97816 0
M  V30 15782 O 1468.65 1.91599 -0.00445428 0
M  V30 15783 C 1468.84 1.15972 -3.38061 0
M  V30 15784 C 1468.67 0.123524 -4.4953 0
M  V30 15785 C 1467.44 -0.30062 -5.04405 0
M  V30 15786 C 1469.64 -0.649001 -5.10189 0
M  V30 15787 N 1467.62 -1.3249 -5.99433 0
M  V30 15788 C 1468.99 -1.52506 -6.00951 0
M  V30 15789 C 1471.05 -0.70232 -4.92922 0
M  V30 15790 C 1469.75 -2.44976 -6.76298 0
M  V30 15791 C 1471.78 -1.61463 -5.68932 0
M  V30 15792 C 1471.14 -2.47831 -6.59363 0
M  V30 15793 H 1467.24 0.175591 -0.762031 0
M  V30 15794 H 1469.82 -0.179896 -1.93867 0
M  V30 15795 H 1467.99 1.87051 -3.40392 0
M  V30 15796 H 1469.72 1.78022 -3.63442 0
M  V30 15797 H 1466.48 0.0874763 -4.73519 0
M  V30 15798 H 1466.9 -1.8353 -6.51648 0
M  V30 15799 H 1471.54 -0.0487412 -4.22772 0
M  V30 15800 H 1469.26 -3.11358 -7.45709 0
M  V30 15801 H 1472.85 -1.66104 -5.57585 0
M  V30 15802 H 1471.73 -3.17278 -7.1715 0
M  V30 15803 N 1469.23 1.56605 0.176793 0
M  V30 15804 C 1470.48 1.81324 0.892535 0
M  V30 15805 C 1470.8 0.67301 1.83018 0
M  V30 15806 O 1470.07 -0.307498 1.93472 0
M  V30 15807 H 1468.65 0.668881 0.332576 0
M  V30 15808 H 1471.31 1.94086 0.17792 0
M  V30 15809 H 1470.41 2.75168 1.47272 0
M  V30 15810 N 1470.71 -0.445159 1.51182 0
M  V30 15811 C 1472.13 -0.781023 1.39184 0
M  V30 15812 C 1472.33 -1.95988 0.468076 0
M  V30 15813 O 1471.38 -2.52374 -0.0796822 0
M  V30 15814 C 1472.69 -1.06874 2.81067 0
M  V30 15815 C 1474.24 -1.17364 2.90163 0
M  V30 15816 C 1474.72 -1.49433 4.32936 0
M  V30 15817 N 1476.21 -1.56373 4.36006 0
M  V30 15818 C 1476.94 -1.82743 5.435 0
M  V30 15819 N 1476.44 -2.06958 6.61166 0
M  V30 15820 N 1478.23 -1.84461 5.30971 0
M  V30 15821 H 1470.38 0.331347 2.098 0
M  V30 15822 H 1472.65 0.0858102 0.944108 0
M  V30 15823 H 1472.35 -0.275306 3.50621 0
M  V30 15824 H 1472.23 -1.99839 3.19913 0
M  V30 15825 H 1474.61 -1.95771 2.20812 0
M  V30 15826 H 1474.69 -0.22318 2.54825 0
M  V30 15827 H 1474.34 -0.715573 5.02834 0
M  V30 15828 H 1474.27 -2.45673 4.65782 0
M  V30 15829 H 1476.76 -1.39595 3.51172 0
M  V30 15830 H 1477.07 -2.26427 7.38885 0
M  V30 15831 H 1475.42 -2.04297 6.64295 0
M  V30 15832 H 1478.61 -1.65057 4.38034 0
M  V30 15833 H 1478.78 -2.04675 6.14827 0
M  V30 15834 N 1472.19 -1.41197 -0.700089 0
M  V30 15835 C 1473.44 -1.39611 -1.45574 0
M  V30 15836 C 1473.75 -0.00683378 -1.95599 0
M  V30 15837 O 1474.96 0.131643 -2.71181 0
M  V30 15838 C 1473.41 -2.45452 -2.63214 0
M  V30 15839 C 1473.02 -3.90265 -2.19993 0
M  V30 15840 C 1474.76 -2.52996 -3.40871 0
M  V30 15841 C 1472.67 -4.87668 -3.34565 0
M  V30 15842 H 1471.6 -0.51917 -0.546789 0
M  V30 15843 H 1474.25 -1.67001 -0.760456 0
M  V30 15844 H 1472.63 -2.11186 -3.34987 0
M  V30 15845 H 1473.81 -4.33756 -1.55539 0
M  V30 15846 H 1472.12 -3.86339 -1.55341 0
M  V30 15847 H 1474.72 -3.22952 -4.26153 0
M  V30 15848 H 1475.06 -1.56536 -3.85749 0
M  V30 15849 H 1475.6 -2.86331 -2.76151 0
M  V30 15850 H 1472.33 -5.85517 -2.94704 0
M  V30 15851 H 1471.85 -4.4883 -3.97884 0
M  V30 15852 H 1473.53 -5.08215 -4.00409 0
M  V30 15853 N 1473.67 0.933891 -1.2695 0
M  V30 15854 C 1475.08 1.49578 -1.11728 0
M  V30 15855 C 1475.43 1.93895 0.299889 0
M  V30 15856 O 1474.55 1.806 1.19216 0
M  V30 15857 C 1475.15 2.71841 -2.02208 0
M  V30 15858 C 1473.71 3.24274 -1.9111 0
M  V30 15859 C 1472.85 1.97029 -1.95128 0
M  V30 15860 H 1475.8 0.748628 -1.39933 0
M  V30 15861 H 1475.83 3.46407 -1.57425 0
M  V30 15862 H 1475.34 2.39556 -3.05343 0
M  V30 15863 H 1473.44 3.61333 -0.909367 0
M  V30 15864 H 1473.55 3.90887 -2.77027 0
M  V30 15865 H 1471.92 2.13249 -1.39273 0
M  V30 15866 H 1472.7 1.67066 -2.99907 0
M  V30 15867 N 1475.14 1.08871 1.13951 0
M  V30 15868 C 1476.09 0.722966 2.19184 0
M  V30 15869 C 1477.06 -0.293108 1.63493 0
M  V30 15870 O 1478.25 -0.176036 1.89986 0
M  V30 15871 C 1475.39 0.143542 3.44801 0
M  V30 15872 C 1474.5 1.21297 4.14622 0
M  V30 15873 C 1473.63 0.596902 5.27836 0
M  V30 15874 C 1472.67 1.64803 5.89497 0
M  V30 15875 N 1471.81 1.05341 6.94152 0
M  V30 15876 H 1476.65 1.62464 2.49819 0
M  V30 15877 H 1474.19 0.811803 1.22671 0
M  V30 15878 H 1476.14 -0.210153 4.1667 0
M  V30 15879 H 1474.77 -0.721426 3.14635 0
M  V30 15880 H 1473.83 1.68403 3.41093 0
M  V30 15881 H 1475.14 2.00931 4.56539 0
M  V30 15882 H 1474.29 0.191724 6.06397 0
M  V30 15883 H 1473.03 -0.231052 4.87152 0
M  V30 15884 H 1472.04 2.06282 5.09635 0
M  V30 15885 H 1473.26 2.47855 6.32254 0
M  V30 15886 H 1471.21 0.24664 6.55536 0
M  V30 15887 H 1471.12 1.7868 7.34581 0
M  V30 15888 H 1472.39 0.674253 7.76578 0
M  V30 15889 N 1476.62 -1.31073 0.875073 0
M  V30 15890 C 1477.87 -1.96518 0.488549 0
M  V30 15891 C 1478.2 -1.69144 -0.960243 0
M  V30 15892 O 1477.45 -0.983344 -1.69201 0
M  V30 15893 C 1477.75 -3.50511 0.698351 0
M  V30 15894 C 1477.42 -3.97915 2.12071 0
M  V30 15895 C 1476.08 -4.10571 2.50968 0
M  V30 15896 C 1478.43 -4.22777 3.0481 0
M  V30 15897 C 1475.76 -4.45442 3.81836 0
M  V30 15898 C 1478.11 -4.59114 4.35198 0
M  V30 15899 C 1476.77 -4.69977 4.74002 0
M  V30 15900 H 1476.04 -0.719111 0.178773 0
M  V30 15901 H 1478.69 -1.56117 1.10904 0
M  V30 15902 H 1477 -3.918 -0.00523937 0
M  V30 15903 H 1478.69 -3.99205 0.379031 0
M  V30 15904 H 1475.28 -3.88565 1.80874 0
M  V30 15905 H 1479.47 -4.12489 2.75983 0
M  V30 15906 H 1474.72 -4.52051 4.11655 0
M  V30 15907 H 1478.9 -4.77303 5.07105 0
M  V30 15908 H 1476.52 -4.96753 5.75448 0
M  V30 15909 N 1478.1 -0.635022 -1.4424 0
M  V30 15910 C 1479.05 0.0895375 -2.27824 0
M  V30 15911 C 1480.03 0.812405 -1.38884 0
M  V30 15912 O 1481.23 0.69787 -1.62662 0
M  V30 15913 C 1478.36 1.06778 -3.26272 0
M  V30 15914 C 1477.44 0.344333 -4.227 0
M  V30 15915 N 1477.83 -0.629195 -5.01871 0
M  V30 15916 C 1476.13 0.588254 -4.42104 0
M  V30 15917 C 1476.83 -1.05697 -5.72017 0
M  V30 15918 N 1475.81 -0.394953 -5.42163 0
M  V30 15919 H 1479.61 -0.65777 -2.86445 0
M  V30 15920 H 1477.12 -0.460836 -1.55724 0
M  V30 15921 H 1479.12 1.6015 -3.84913 0
M  V30 15922 H 1477.78 1.81535 -2.69212 0
M  V30 15923 H 1478.79 -1.00717 -5.08012 0
M  V30 15924 H 1475.47 1.31839 -3.96137 0
M  V30 15925 H 1476.86 -1.86148 -6.45599 0
M  V30 15926 N 1479.58 1.53054 -0.375806 0
M  V30 15927 C 1480.51 2.28973 0.45754 0
M  V30 15928 C 1481.49 1.31812 1.07516 0
M  V30 15929 O 1482.67 1.60693 1.09048 0
M  V30 15930 C 1479.8 3.08657 1.59212 0
M  V30 15931 C 1478.76 4.1359 1.10123 0
M  V30 15932 C 1478.08 4.81417 2.32684 0
M  V30 15933 C 1479.38 5.21994 0.17872 0
M  V30 15934 H 1481.08 2.98883 -0.175872 0
M  V30 15935 H 1478.62 1.43743 -0.0860253 0
M  V30 15936 H 1480.58 3.6052 2.18182 0
M  V30 15937 H 1479.3 2.36456 2.25291 0
M  V30 15938 H 1477.96 3.62688 0.534151 0
M  V30 15939 H 1477.61 4.05778 2.97243 0
M  V30 15940 H 1477.31 5.52332 2.00506 0
M  V30 15941 H 1478.83 5.36079 2.92322 0
M  V30 15942 H 1480.25 5.69298 0.676204 0
M  V30 15943 H 1478.64 6.00077 -0.0526605 0
M  V30 15944 H 1479.71 4.78646 -0.776246 0
M  V30 15945 N 1481.06 0.105248 1.57248 0
M  V30 15946 C 1482.47 -0.422304 1.81861 0
M  V30 15947 C 1482.82 -1.67508 1.02154 0
M  V30 15948 O 1481.94 -2.14905 0.253961 0
M  V30 15949 C 1482.54 -0.772943 3.29865 0
M  V30 15950 C 1481.1 -1.24519 3.55207 0
M  V30 15951 C 1480.24 -0.246936 2.76198 0
M  V30 15952 H 1483.2 0.330565 1.55219 0
M  V30 15953 H 1483.22 -1.6316 3.43743 0
M  V30 15954 H 1482.73 0.139033 3.87851 0
M  V30 15955 H 1480.83 -2.17453 3.02564 0
M  V30 15956 H 1480.94 -1.20001 4.63828 0
M  V30 15957 H 1479.31 -0.731171 2.43979 0
M  V30 15958 H 1480.09 0.657896 3.36937 0
M  V30 15959 N 1482.53 -1.56697 -0.168486 0
M  V30 15960 C 1483.78 -1.82424 -0.885965 0
M  V30 15961 C 1484.11 -0.683543 -1.81773 0
M  V30 15962 O 1483.39 0.314319 -1.91943 0
M  V30 15963 C 1483.67 -3.18553 -1.67917 0
M  V30 15964 C 1483.52 -4.43154 -0.770343 0
M  V30 15965 C 1484.84 -3.51654 -2.64627 0
M  V30 15966 H 1481.96 -0.663594 -0.320644 0
M  V30 15967 H 1484.6 -1.89391 -0.15205 0
M  V30 15968 H 1482.75 -3.12745 -2.30484 0
M  V30 15969 H 1484.43 -4.61032 -0.157328 0
M  V30 15970 H 1482.67 -4.33729 -0.0785653 0
M  V30 15971 H 1483.34 -5.34961 -1.36092 0
M  V30 15972 H 1485.82 -3.57934 -2.12185 0
M  V30 15973 H 1484.69 -4.47975 -3.17191 0
M  V30 15974 H 1484.95 -2.76503 -3.44961 0
M  V30 15975 N 1484.01 0.437135 -1.51416 0
M  V30 15976 C 1484.92 1.55581 -1.75589 0
M  V30 15977 C 1485.94 1.61797 -0.640132 0
M  V30 15978 O 1487.11 1.79035 -0.922406 0
M  V30 15979 C 1484.18 2.91561 -1.87598 0
M  V30 15980 C 1483.24 2.9546 -3.11451 0
M  V30 15981 C 1482.47 4.24954 -3.22878 0
M  V30 15982 O 1482.7 5.17341 -2.40238 0
M  V30 15983 O 1481.63 4.35141 -4.15856 0
M  V30 15984 H 1485.46 1.38098 -2.70486 0
M  V30 15985 H 1483.04 0.620163 -1.3592 0
M  V30 15986 H 1484.92 3.72262 -1.97481 0
M  V30 15987 H 1483.6 3.09171 -0.958889 0
M  V30 15988 H 1482.51 2.13713 -3.07046 0
M  V30 15989 H 1483.84 2.82794 -4.0285 0
M  V30 15990 N 1485.49 1.41566 0.692592 0
M  V30 15991 C 1486.91 1.24101 1.00355 0
M  V30 15992 C 1487.11 0.132485 2.01064 0
M  V30 15993 O 1486.16 -0.502142 2.47457 0
M  V30 15994 C 1487.48 2.59142 1.52532 0
M  V30 15995 C 1489.02 2.66348 1.64401 0
M  V30 15996 C 1489.5 4.01713 2.19978 0
M  V30 15997 N 1490.99 4.03575 2.27335 0
M  V30 15998 C 1491.72 5.05118 2.71373 0
M  V30 15999 N 1491.22 6.1705 3.14994 0
M  V30 16000 N 1493.01 4.92479 2.70963 0
M  V30 16001 H 1485.16 2.12385 0.0254859 0
M  V30 16002 H 1487.43 0.945118 0.0738684 0
M  V30 16003 H 1487.13 3.41026 0.85989 0
M  V30 16004 H 1487.01 2.81833 2.50699 0
M  V30 16005 H 1489.39 1.84821 2.30055 0
M  V30 16006 H 1489.48 2.47464 0.647717 0
M  V30 16007 H 1489.12 4.8369 1.54939 0
M  V30 16008 H 1489.05 4.1794 3.20365 0
M  V30 16009 H 1491.54 3.2276 1.96556 0
M  V30 16010 H 1491.85 6.90399 3.47231 0
M  V30 16011 H 1490.2 6.20582 3.12895 0
M  V30 16012 H 1493.39 4.04117 2.36236 0
M  V30 16013 H 1493.56 5.71752 3.04965 0
M  V30 16014 N 1486.97 -0.927146 1.27443 0
M  V30 16015 C 1487.88 -2.06122 1.12031 0
M  V30 16016 C 1488.89 -1.73928 0.0501979 0
M  V30 16017 O 1490.07 -1.99756 0.256796 0
M  V30 16018 C 1487.14 -3.3805 0.769634 0
M  V30 16019 C 1486.2 -3.83938 1.92068 0
M  V30 16020 C 1485.43 -5.0957 1.58664 0
M  V30 16021 O 1485.65 -5.6825 0.494789 0
M  V30 16022 O 1484.59 -5.50844 2.42599 0
M  V30 16023 H 1488.41 -2.22037 2.07203 0
M  V30 16024 H 1486 -1.04638 1.06636 0
M  V30 16025 H 1487.88 -4.17286 0.587423 0
M  V30 16026 H 1486.55 -3.2334 -0.152557 0
M  V30 16027 H 1485.46 -3.05587 2.15795 0
M  V30 16028 H 1486.79 -4.0319 2.8231 0
M  V30 16029 N 1488.45 -1.09474 -1.13372 0
M  V30 16030 C 1489.7 -0.825968 -1.84013 0
M  V30 16031 C 1490.01 0.650623 -1.84462 0
M  V30 16032 O 1491.21 1.03495 -2.51 0
M  V30 16033 C 1489.67 -1.42769 -3.30371 0
M  V30 16034 C 1489.28 -2.93686 -3.38308 0
M  V30 16035 C 1491.02 -1.23788 -4.0605 0
M  V30 16036 C 1488.93 -3.46942 -4.78942 0
M  V30 16037 H 1487.86 -0.305322 -0.689416 0
M  V30 16038 H 1490.51 -1.31751 -1.27726 0
M  V30 16039 H 1488.89 -0.86384 -3.86463 0
M  V30 16040 H 1490.07 -3.56302 -2.92208 0
M  V30 16041 H 1488.38 -3.11706 -2.76094 0
M  V30 16042 H 1490.98 -1.61031 -5.09876 0
M  V30 16043 H 1491.32 -0.178578 -4.15917 0
M  V30 16044 H 1491.85 -1.76927 -3.56289 0
M  V30 16045 H 1488.59 -4.52495 -4.74267 0
M  V30 16046 H 1488.11 -2.8909 -5.25535 0
M  V30 16047 H 1489.79 -3.44176 -5.47861 0
M  V30 16048 N 1489.92 1.30607 -0.882012 0
M  V30 16049 C 1491.17 1.96927 -0.509063 0
M  V30 16050 C 1491.53 1.6838 0.930903 0
M  V30 16051 O 1490.82 0.976464 1.64851 0
M  V30 16052 C 1491.01 3.50136 -0.716929 0
M  V30 16053 C 1490.84 3.93573 -2.17555 0
M  V30 16054 C 1489.61 4.19321 -2.81954 0
M  V30 16055 C 1491.81 4.06619 -3.14906 0
M  V30 16056 N 1489.79 4.49198 -4.18443 0
M  V30 16057 C 1491.16 4.40345 -4.36459 0
M  V30 16058 C 1493.22 3.89035 -3.10734 0
M  V30 16059 C 1491.92 4.58322 -5.54377 0
M  V30 16060 C 1493.95 4.08212 -4.27922 0
M  V30 16061 C 1493.31 4.42281 -5.4824 0
M  V30 16062 H 1489.41 0.745681 -0.23555 0
M  V30 16063 H 1491.99 1.57898 -1.13913 0
M  V30 16064 H 1490.16 3.88226 -0.116371 0
M  V30 16065 H 1491.89 4.03502 -0.311174 0
M  V30 16066 H 1488.65 4.12412 -2.32838 0
M  V30 16067 H 1489.07 4.68276 -4.88924 0
M  V30 16068 H 1493.72 3.61774 -2.18813 0
M  V30 16069 H 1491.43 4.84426 -6.46805 0
M  V30 16070 H 1495.02 3.96079 -4.2616 0
M  V30 16071 H 1493.9 4.56815 -6.37408 0
M  V30 16072 N 1491.4 0.642663 1.43901 0
M  V30 16073 C 1492.31 -0.0562462 2.34533 0
M  V30 16074 C 1493.33 -0.823457 1.53281 0
M  V30 16075 O 1494.5 -0.773103 1.85971 0
M  V30 16076 C 1491.57 -1.01787 3.31422 0
M  V30 16077 C 1490.63 -0.248759 4.28579 0
M  V30 16078 C 1489.86 -1.16458 5.20839 0
M  V30 16079 O 1490.09 -2.40361 5.17284 0
M  V30 16080 O 1489.02 -0.642671 5.98459 0
M  V30 16081 H 1492.85 0.689476 2.9577 0
M  V30 16082 H 1490.43 0.402847 1.43866 0
M  V30 16083 H 1492.31 -1.5708 3.91029 0
M  V30 16084 H 1490.99 -1.744 2.72702 0
M  V30 16085 H 1489.9 0.347495 3.72483 0
M  V30 16086 H 1491.23 0.437589 4.90251 0
M  V30 16087 N 1492.88 -1.52852 0.383918 0
M  V30 16088 C 1493.81 -2.23927 -0.488816 0
M  V30 16089 C 1494.83 -1.2598 -1.03115 0
M  V30 16090 O 1496.02 -1.5209 -0.934398 0
M  V30 16091 C 1493.12 -2.9378 -1.68957 0
M  V30 16092 C 1492.29 -4.18388 -1.27555 0
M  V30 16093 C 1491.35 -4.71287 -2.3404 0
M  V30 16094 O 1490.37 -5.34511 -1.9567 0
M  V30 16095 N 1491.58 -4.50679 -3.65881 0
M  V30 16096 H 1494.34 -2.99459 0.120084 0
M  V30 16097 H 1491.9 -1.60532 0.210004 0
M  V30 16098 H 1493.89 -3.26071 -2.39707 0
M  V30 16099 H 1492.46 -2.21588 -2.20493 0
M  V30 16100 H 1491.68 -3.92194 -0.397157 0
M  V30 16101 H 1492.97 -4.99361 -0.975506 0
M  V30 16102 H 1492.37 -4.00201 -3.9982 0
M  V30 16103 H 1490.93 -4.87473 -4.32681 0
M  V30 16104 N 1494.36 -0.113586 -1.5719 0
M  V30 16105 C 1495.61 0.540306 -1.96092 0
M  V30 16106 C 1495.96 1.64633 -0.995678 0
M  V30 16107 O 1495.25 1.91584 -0.0247757 0
M  V30 16108 C 1495.45 1.1238 -3.39272 0
M  V30 16109 C 1495.28 0.0758384 -4.49636 0
M  V30 16110 C 1494.05 -0.354102 -5.04058 0
M  V30 16111 C 1496.24 -0.703077 -5.09472 0
M  V30 16112 N 1494.23 -1.3884 -5.97994 0
M  V30 16113 C 1495.6 -1.58872 -5.99299 0
M  V30 16114 C 1497.65 -0.754562 -4.92149 0
M  V30 16115 C 1496.36 -2.52135 -6.73662 0
M  V30 16116 C 1498.38 -1.67488 -5.67188 0
M  V30 16117 C 1497.74 -2.54811 -6.56697 0
M  V30 16118 H 1493.84 0.167498 -0.763851 0
M  V30 16119 H 1496.43 -0.200448 -1.93665 0
M  V30 16120 H 1494.6 1.8343 -3.42357 0
M  V30 16121 H 1496.33 1.74157 -3.6531 0
M  V30 16122 H 1493.08 0.0372483 -4.73585 0
M  V30 16123 H 1493.51 -1.90431 -6.49665 0
M  V30 16124 H 1498.15 -0.0935791 -4.22696 0
M  V30 16125 H 1495.87 -3.19249 -7.42365 0
M  V30 16126 H 1499.45 -1.72009 -5.55792 0
M  V30 16127 H 1498.33 -3.24867 -7.13745 0
M  V30 16128 N 1495.84 1.56784 0.160173 0
M  V30 16129 C 1497.08 1.83782 0.871526 0
M  V30 16130 C 1497.44 0.695726 1.79381 0
M  V30 16131 O 1496.73 -0.307168 1.89122 0
M  V30 16132 C 1496.93 3.14703 1.69402 0
M  V30 16133 C 1496.75 4.41538 0.852869 0
M  V30 16134 C 1495.52 5.0258 0.523604 0
M  V30 16135 C 1497.72 5.13952 0.189264 0
M  V30 16136 N 1495.7 6.12999 -0.332518 0
M  V30 16137 C 1497.08 6.17752 -0.527548 0
M  V30 16138 C 1499.13 4.97782 0.108577 0
M  V30 16139 C 1497.83 7.07133 -1.31741 0
M  V30 16140 C 1499.86 5.87615 -0.667985 0
M  V30 16141 C 1499.22 6.90887 -1.37312 0
M  V30 16142 H 1495.32 0.723336 0.297169 0
M  V30 16143 H 1497.9 1.94212 0.137749 0
M  V30 16144 H 1496.08 3.05445 2.39913 0
M  V30 16145 H 1497.81 3.29657 2.34752 0
M  V30 16146 H 1494.56 4.65794 0.85631 0
M  V30 16147 H 1494.99 6.72819 -0.751215 0
M  V30 16148 H 1499.63 4.17937 0.639385 0
M  V30 16149 H 1497.35 7.86414 -1.85952 0
M  V30 16150 H 1500.93 5.77174 -0.732234 0
M  V30 16151 H 1499.81 7.59198 -1.96438 0
M  V30 16152 N 1497.32 -0.429099 1.51646 0
M  V30 16153 C 1498.59 -1.18958 1.55269 0
M  V30 16154 C 1498.97 -2.08633 0.321816 0
M  V30 16155 O 1498.32 -2.1775 -0.69261 0
M  V30 16156 C 1498.53 -1.98427 2.87102 0
M  V30 16157 C 1499.88 -2.55185 3.39361 0
M  V30 16158 O 1500.9 -2.08629 2.88708 0
M  V30 16159 O 1499.76 -3.40119 4.27763 0
M  V30 16160 H 1496.86 -0.542041 0.624596 0
M  V30 16161 H 1499.4 -0.437499 1.63964 0
M  V30 16162 H 1498.17 -1.32613 3.68143 0
M  V30 16163 H 1497.8 -2.80683 2.81608 0
M  V30 16164 N 1498.79 -1.41931 -0.685074 0
M  V30 16165 C 1499.74 -1.44824 -1.82013 0
M  V30 16166 C 1500.74 -0.325083 -1.66252 0
M  V30 16167 O 1501.94 -0.497614 -1.72985 0
M  V30 16168 H 1498.32 -0.453362 -0.599972 0
M  V30 16169 H 1500.29 -2.40464 -1.76691 0
M  V30 16170 C 1499.04 -1.35753 -3.20104 0
M  V30 16171 H 1498.36 -2.21469 -3.32854 0
M  V30 16172 H 1499.8 -1.41838 -3.99572 0
M  V30 16173 C 1498.26 -0.0710816 -3.36825 0
M  V30 16174 O 1498.79 0.880155 -3.91939 0
M  V30 16175 N 1496.99 0.00842652 -2.90599 0
M  V30 16176 H 1496.54 -0.766427 -2.45934 0
M  V30 16177 H 1496.5 0.868559 -3.02165 0
M  V30 16178 N 1500.27 0.920374 -1.27933 0
M  V30 16179 C 1501.5 1.70028 -1.17363 0
M  V30 16180 C 1501.91 1.87246 0.271214 0
M  V30 16181 O 1501.25 1.39449 1.19581 0
M  V30 16182 C 1501.31 3.11595 -1.79301 0
M  V30 16183 C 1500.98 3.17687 -3.28518 0
M  V30 16184 C 1501.98 2.99383 -4.25048 0
M  V30 16185 C 1499.66 3.40412 -3.69357 0
M  V30 16186 C 1501.65 3.03704 -5.60395 0
M  V30 16187 C 1499.34 3.44367 -5.04832 0
M  V30 16188 C 1500.34 3.26032 -6.0016 0
M  V30 16189 O 1500.03 3.29735 -7.33164 0
M  V30 16190 H 1499.76 0.538497 -0.408652 0
M  V30 16191 H 1502.31 1.16086 -1.6945 0
M  V30 16192 H 1500.54 3.6705 -1.217 0
M  V30 16193 H 1502.23 3.71584 -1.63341 0
M  V30 16194 H 1503 2.8166 -3.94833 0
M  V30 16195 H 1498.88 3.53731 -2.95627 0
M  V30 16196 H 1502.42 2.89312 -6.34779 0
M  V30 16197 H 1498.32 3.61616 -5.347 0
M  V30 16198 H 1499.09 3.46141 -7.41707 0
M  V30 16199 N 1501.75 1.10074 1.1279 0
M  V30 16200 C 1503 0.852005 1.84696 0
M  V30 16201 C 1503.35 -0.615785 1.8228 0
M  V30 16202 O 1502.64 -1.448 1.25473 0
M  V30 16203 C 1502.84 1.32969 3.31744 0
M  V30 16204 C 1502.67 2.84239 3.4848 0
M  V30 16205 C 1501.44 3.52197 3.62333 0
M  V30 16206 C 1503.63 3.82356 3.4396 0
M  V30 16207 N 1501.62 4.91825 3.67397 0
M  V30 16208 C 1502.99 5.07974 3.55474 0
M  V30 16209 C 1505.04 3.75116 3.27402 0
M  V30 16210 C 1503.75 6.27208 3.52139 0
M  V30 16211 C 1505.77 4.93845 3.25378 0
M  V30 16212 C 1505.13 6.1831 3.3745 0
M  V30 16213 H 1501.23 0.364722 0.691738 0
M  V30 16214 H 1503.82 1.40239 1.35059 0
M  V30 16215 H 1501.99 0.806668 3.79931 0
M  V30 16216 H 1503.72 1.02559 3.91489 0
M  V30 16217 H 1500.47 3.02636 3.64292 0
M  V30 16218 H 1500.9 5.64579 3.73604 0
M  V30 16219 H 1505.54 2.79808 3.16966 0
M  V30 16220 H 1503.26 7.2281 3.61347 0
M  V30 16221 H 1506.84 4.89949 3.13754 0
M  V30 16222 H 1505.72 7.08641 3.35854 0
M  V30 16223 N 1503.23 -1.30138 0.888926 0
M  V30 16224 C 1504.16 -2.27013 0.315904 0
M  V30 16225 C 1505.17 -1.53871 -0.531746 0
M  V30 16226 O 1506.36 -1.75022 -0.350654 0
M  V30 16227 C 1503.46 -3.34087 -0.569119 0
M  V30 16228 C 1502.63 -4.36683 0.250359 0
M  V30 16229 C 1501.69 -5.23149 -0.565783 0
M  V30 16230 O 1500.72 -5.69199 0.0129167 0
M  V30 16231 N 1501.92 -5.49416 -1.8741 0
M  V30 16232 H 1504.69 -2.76821 1.14848 0
M  V30 16233 H 1502.25 -1.43359 0.752311 0
M  V30 16234 H 1504.24 -3.88857 -1.12125 0
M  V30 16235 H 1502.81 -2.84178 -1.30237 0
M  V30 16236 H 1502.03 -3.81723 0.983931 0
M  V30 16237 H 1503.32 -5.02279 0.811964 0
M  V30 16238 H 1502.72 -5.13793 -2.36713 0
M  V30 16239 H 1501.27 -6.07045 -2.37359 0
M  V30 16240 N 1504.71 -0.650285 -1.43559 0
M  V30 16241 C 1505.95 -0.162725 -2.02146 0
M  V30 16242 C 1506.28 1.21911 -1.51166 0
M  V30 16243 O 1505.56 1.81329 -0.703563 0
M  V30 16244 C 1505.84 -0.170356 -3.59697 0
M  V30 16245 C 1505.7 -1.5859 -4.20915 0
M  V30 16246 C 1507.01 0.494831 -4.37309 0
M  V30 16247 H 1504.13 -0.0606055 -0.734504 0
M  V30 16248 H 1506.78 -0.830411 -1.70892 0
M  V30 16249 H 1504.93 0.39819 -3.86454 0
M  V30 16250 H 1506.6 -2.20481 -4.05199 0
M  V30 16251 H 1504.84 -2.13407 -3.77677 0
M  V30 16252 H 1505.51 -1.54312 -5.29992 0
M  V30 16253 H 1507.99 0.0111281 -4.16099 0
M  V30 16254 H 1506.86 0.458753 -5.4698 0
M  V30 16255 H 1507.12 1.56846 -4.13342 0
M  V30 16256 N 1506.18 1.52647 -0.392018 0
M  V30 16257 C 1507.41 2.06032 0.189293 0
M  V30 16258 C 1507.83 1.26351 1.40288 0
M  V30 16259 O 1507.18 0.310877 1.79833 0
M  V30 16260 C 1507.23 3.57187 0.55672 0
M  V30 16261 O 1506.96 4.33851 -0.608657 0
M  V30 16262 C 1508.46 4.26929 1.1936 0
M  V30 16263 H 1505.68 0.670419 0.0279177 0
M  V30 16264 H 1508.22 1.96739 -0.558033 0
M  V30 16265 H 1506.38 3.66545 1.25394 0
M  V30 16266 H 1506.79 5.23606 -0.306039 0
M  V30 16267 H 1508.26 5.33924 1.40104 0
M  V30 16268 H 1508.74 3.82315 2.16175 0
M  V30 16269 H 1509.35 4.21895 0.537069 0
M  V30 16270 N 1507.66 0.121921 1.57128 0
M  V30 16271 C 1508.91 -0.5299 1.96376 0
M  V30 16272 C 1509.26 -1.64103 1.00439 0
M  V30 16273 O 1508.56 -1.91568 0.0349355 0
M  V30 16274 C 1508.75 -1.10579 3.39863 0
M  V30 16275 C 1508.58 -0.051992 4.4967 0
M  V30 16276 C 1507.35 0.380828 5.03863 0
M  V30 16277 C 1509.55 0.730085 5.09092 0
M  V30 16278 N 1507.53 1.4201 5.97249 0
M  V30 16279 C 1508.9 1.62048 5.98448 0
M  V30 16280 C 1510.96 0.780651 4.91742 0
M  V30 16281 C 1509.66 2.55704 6.72315 0
M  V30 16282 C 1511.68 1.70493 5.66291 0
M  V30 16283 C 1511.05 2.5829 6.55336 0
M  V30 16284 H 1507.15 -0.163445 0.764728 0
M  V30 16285 H 1509.73 0.210716 1.93556 0
M  V30 16286 H 1507.9 -1.81612 3.43325 0
M  V30 16287 H 1509.63 -1.72217 3.66229 0
M  V30 16288 H 1506.39 -0.0121324 4.73598 0
M  V30 16289 H 1506.81 1.93874 6.48646 0
M  V30 16290 H 1511.45 0.115994 4.22641 0
M  V30 16291 H 1509.17 3.23182 7.40661 0
M  V30 16292 H 1512.76 1.74954 5.54872 0
M  V30 16293 H 1511.64 3.28647 7.12012 0
M  V30 16294 N 1509.14 -1.56867 -0.151857 0
M  V30 16295 C 1510.39 -1.82273 -0.863689 0
M  V30 16296 C 1510.7 -0.702377 -1.82554 0
M  V30 16297 O 1511.91 -0.841903 -2.58117 0
M  V30 16298 C 1510.36 -3.23046 -1.58649 0
M  V30 16299 C 1509.97 -4.43003 -0.667292 0
M  V30 16300 C 1511.72 -3.57729 -2.28539 0
M  V30 16301 C 1509.62 -5.74798 -1.39144 0
M  V30 16302 H 1508.55 -0.679753 -0.326269 0
M  V30 16303 H 1511.2 -1.8313 -0.116454 0
M  V30 16304 H 1509.59 -3.16561 -2.37918 0
M  V30 16305 H 1510.76 -4.60712 0.0898254 0
M  V30 16306 H 1509.08 -4.16329 -0.0770521 0
M  V30 16307 H 1511.67 -4.53451 -2.83348 0
M  V30 16308 H 1512.02 -2.8355 -3.04803 0
M  V30 16309 H 1512.55 -3.65853 -1.56194 0
M  V30 16310 H 1509.29 -6.52059 -0.670747 0
M  V30 16311 H 1508.81 -5.61032 -2.12139 0
M  V30 16312 H 1510.49 -6.17429 -1.93367 0
M  V30 16313 N 1510.62 0.421051 -1.51871 0
M  V30 16314 C 1512.03 1.00033 -1.5764 0
M  V30 16315 C 1512.38 1.91875 -0.409665 0
M  V30 16316 O 1511.51 2.11201 0.471516 0
M  V30 16317 C 1512.1 1.82099 -2.85701 0
M  V30 16318 C 1510.66 2.35049 -2.93988 0
M  V30 16319 C 1509.81 1.14703 -2.52465 0
M  V30 16320 H 1512.76 0.201715 -1.57413 0
M  V30 16321 H 1512.78 2.67719 -2.70382 0
M  V30 16322 H 1512.29 1.15229 -3.706 0
M  V30 16323 H 1510.39 3.05327 -2.13556 0
M  V30 16324 H 1510.5 2.66731 -3.97984 0
M  V30 16325 H 1508.87 1.49736 -2.06037 0
M  V30 16326 H 1509.65 0.494171 -3.39725 0
M  V30 16327 N 1512.1 1.42293 0.677538 0
M  V30 16328 C 1513.37 1.331 1.43331 0
M  V30 16329 C 1513.75 -0.0329227 2.11074 0
M  V30 16330 O 1513.1 -1.04826 2.03036 0
M  V30 16331 C 1513.31 2.49725 2.438 0
M  V30 16332 C 1514.66 2.91716 3.08524 0
M  V30 16333 O 1515.68 2.49596 2.54127 0
M  V30 16334 O 1514.54 3.64609 4.07091 0
M  V30 16335 H 1511.64 0.524758 0.639185 0
M  V30 16336 H 1514.18 1.54294 0.706493 0
M  V30 16337 H 1512.95 3.40663 1.92522 0
M  V30 16338 H 1512.58 2.30503 3.23966 0
M  V30 16339 N 1513.57 -0.913576 1.28419 0
M  V30 16340 C 1514.82 -1.66546 1.16765 0
M  V30 16341 C 1515.18 -1.90338 -0.280935 0
M  V30 16342 O 1514.47 -1.49279 -1.2011 0
M  V30 16343 C 1514.66 -3.02722 1.89985 0
M  V30 16344 C 1514.49 -2.9222 3.41815 0
M  V30 16345 C 1513.26 -2.93735 4.11154 0
M  V30 16346 C 1515.46 -2.70279 4.37554 0
M  V30 16347 N 1513.44 -2.73824 5.49448 0
M  V30 16348 C 1514.81 -2.59213 5.63213 0
M  V30 16349 C 1516.87 -2.55278 4.27478 0
M  V30 16350 C 1515.57 -2.34673 6.79942 0
M  V30 16351 C 1517.6 -2.32118 5.43944 0
M  V30 16352 C 1516.96 -2.21806 6.68567 0
M  V30 16353 H 1513.06 -0.615629 0.482208 0
M  V30 16354 H 1515.64 -1.07892 1.62072 0
M  V30 16355 H 1513.81 -3.59462 1.47112 0
M  V30 16356 H 1515.54 -3.66932 1.70714 0
M  V30 16357 H 1512.3 -3.04498 3.62736 0
M  V30 16358 H 1512.72 -2.6696 6.22143 0
M  V30 16359 H 1517.37 -2.62001 3.31836 0
M  V30 16360 H 1515.08 -2.26689 7.75653 0
M  V30 16361 H 1518.67 -2.21375 5.38038 0
M  V30 16362 H 1517.55 -2.0413 7.57166 0
M  V30 16363 N 1515.05 -1.1067 -1.12204 0
M  V30 16364 C 1516.33 -0.762632 -1.8012 0
M  V30 16365 C 1516.71 0.750529 -1.97308 0
M  V30 16366 O 1516.06 1.67764 -1.55137 0
M  V30 16367 C 1516.27 -1.51651 -3.14329 0
M  V30 16368 C 1517.62 -1.69061 -3.89491 0
M  V30 16369 O 1518.64 -1.48009 -3.23994 0
M  V30 16370 O 1517.5 -2.03984 -5.07004 0
M  V30 16371 H 1514.59 -0.275417 -0.779791 0
M  V30 16372 H 1517.14 -1.20966 -1.19018 0
M  V30 16373 H 1515.91 -2.54622 -2.97125 0
M  V30 16374 H 1515.53 -1.0625 -3.83141 0
M  V30 16375 N 1516.53 1.29665 -0.895815 0
M  V30 16376 C 1517.78 1.95716 -0.519752 0
M  V30 16377 C 1518.11 1.7065 0.933212 0
M  V30 16378 O 1517.36 1.01014 1.67615 0
M  V30 16379 C 1517.66 3.49355 -0.754025 0
M  V30 16380 C 1517.33 3.94491 -2.18375 0
M  V30 16381 C 1515.99 4.06526 -2.57468 0
M  V30 16382 C 1518.34 4.17874 -3.11498 0
M  V30 16383 C 1515.67 4.39311 -3.88874 0
M  V30 16384 C 1518.02 4.52132 -4.42447 0
M  V30 16385 C 1516.68 4.62376 -4.81419 0
M  V30 16386 H 1515.95 0.716176 -0.190191 0
M  V30 16387 H 1518.6 1.54333 -1.13373 0
M  V30 16388 H 1516.91 3.91758 -0.0570932 0
M  V30 16389 H 1518.6 3.98551 -0.442493 0
M  V30 16390 H 1515.19 3.85638 -1.87033 0
M  V30 16391 H 1519.38 4.08046 -2.8251 0
M  V30 16392 H 1514.63 4.45444 -4.18795 0
M  V30 16393 H 1518.81 4.69175 -5.14634 0
M  V30 16394 H 1516.43 4.87535 -5.83278 0
M  V30 16395 N 1518.01 0.657889 1.43212 0
M  V30 16396 C 1519.25 0.173443 2.02057 0
M  V30 16397 C 1519.59 -1.21108 1.51811 0
M  V30 16398 O 1518.86 -1.80953 0.71317 0
M  V30 16399 C 1519.15 0.189429 3.59601 0
M  V30 16400 C 1519 1.6082 4.20068 0
M  V30 16401 C 1520.32 -0.471633 4.37566 0
M  V30 16402 H 1517.44 0.0644999 0.734172 0
M  V30 16403 H 1520.08 0.839462 1.7045 0
M  V30 16404 H 1518.23 -0.377689 3.8666 0
M  V30 16405 H 1519.9 2.22627 4.04024 0
M  V30 16406 H 1518.14 2.15407 3.7654 0
M  V30 16407 H 1518.81 1.5712 5.29167 0
M  V30 16408 H 1521.29 0.0109387 4.16099 0
M  V30 16409 H 1520.17 -0.429739 5.47215 0
M  V30 16410 H 1520.43 -1.54652 4.14168 0
M  V30 16411 N 1519.49 -1.52437 0.400108 0
M  V30 16412 C 1520.71 -2.0661 -0.180861 0
M  V30 16413 C 1521.14 -1.269 -1.38845 0
M  V30 16414 O 1520.49 -0.296862 -1.78853 0
M  V30 16415 C 1520.54 -3.56851 -0.518595 0
M  V30 16416 O 1519.65 -3.79634 -1.61095 0
M  V30 16417 H 1518.99 -0.663752 -0.0181348 0
M  V30 16418 H 1521.52 -1.96479 0.570702 0
M  V30 16419 H 1521.53 -4.00478 -0.779817 0
M  V30 16420 H 1520.2 -4.14302 0.364216 0
M  V30 16421 H 1518.78 -3.47892 -1.3426 0
M  V30 16422 N 1520.96 -0.130252 -1.57061 0
M  V30 16423 C 1522.19 0.532416 -1.99932 0
M  V30 16424 C 1522.61 1.59505 -1.01013 0
M  V30 16425 O 1521.96 1.82499 -0.00463158 0
M  V30 16426 C 1522.02 1.14833 -3.42776 0
M  V30 16427 O 1521.74 0.128163 -4.37912 0
M  V30 16428 C 1523.24 1.89324 -4.00838 0
M  V30 16429 H 1520.46 0.140046 -0.656223 0
M  V30 16430 H 1523 -0.219905 -2.03314 0
M  V30 16431 H 1521.16 1.85137 -3.40298 0
M  V30 16432 H 1521.57 0.577135 -5.21315 0
M  V30 16433 H 1523.04 2.27731 -5.02835 0
M  V30 16434 H 1523.52 2.77277 -3.40608 0
M  V30 16435 H 1524.13 1.23757 -4.06896 0
M  V30 16436 N 1522.44 1.56945 0.143535 0
M  V30 16437 C 1523.85 1.72949 0.703249 0
M  V30 16438 C 1524.21 0.745193 1.81497 0
M  V30 16439 O 1523.33 -0.0874144 2.16223 0
M  V30 16440 C 1523.93 3.1359 1.28244 0
M  V30 16441 C 1522.48 3.31184 1.78869 0
M  V30 16442 C 1521.63 2.6887 0.678531 0
M  V30 16443 H 1524.58 1.58487 -0.0821664 0
M  V30 16444 H 1524.6 3.13782 2.15224 0
M  V30 16445 H 1524.12 3.85206 0.473087 0
M  V30 16446 H 1522.22 2.64571 2.6236 0
M  V30 16447 H 1522.33 4.39163 1.91502 0
M  V30 16448 H 1520.69 2.29432 1.10603 0
M  V30 16449 H 1521.48 3.43092 -0.119437 0
M  V30 16450 N 1523.92 -0.412991 1.52093 0
M  V30 16451 C 1525.33 -0.991955 1.58168 0
M  V30 16452 C 1525.68 -1.91655 0.419834 0
M  V30 16453 O 1524.81 -2.11448 -0.460308 0
M  V30 16454 C 1525.4 -1.80581 2.86663 0
M  V30 16455 C 1523.96 -2.33487 2.9523 0
M  V30 16456 C 1523.11 -1.13362 2.5307 0
M  V30 16457 H 1526.06 -0.193364 1.57518 0
M  V30 16458 H 1526.08 -2.66282 2.71798 0
M  V30 16459 H 1525.59 -1.13262 3.71205 0
M  V30 16460 H 1523.69 -3.0419 2.15173 0
M  V30 16461 H 1523.81 -2.64617 3.99393 0
M  V30 16462 H 1522.17 -1.48641 2.06828 0
M  V30 16463 H 1522.95 -0.476148 3.39982 0
M  V30 16464 N 1525.4 -1.4265 -0.669982 0
M  V30 16465 C 1526.33 -1.49298 -1.79534 0
M  V30 16466 C 1527.31 -0.34911 -1.66479 0
M  V30 16467 O 1528.5 -0.564072 -1.85828 0
M  V30 16468 C 1525.63 -1.39935 -3.17861 0
M  V30 16469 C 1524.58 -2.52398 -3.45657 0
M  V30 16470 C 1523.91 -2.28092 -4.8361 0
M  V30 16471 C 1525.21 -3.94697 -3.4207 0
M  V30 16472 H 1526.9 -2.43486 -1.74227 0
M  V30 16473 H 1524.45 -1.17191 -0.836796 0
M  V30 16474 H 1526.4 -1.43193 -3.96325 0
M  V30 16475 H 1525.12 -0.422436 -3.23857 0
M  V30 16476 H 1523.78 -2.48465 -2.69556 0
M  V30 16477 H 1523.43 -1.28683 -4.86261 0
M  V30 16478 H 1523.13 -3.03469 -5.0317 0
M  V30 16479 H 1524.65 -2.33107 -5.64352 0
M  V30 16480 H 1526.07 -4.00207 -4.10496 0
M  V30 16481 H 1524.46 -4.69965 -3.73166 0
M  V30 16482 H 1525.53 -4.21025 -2.40554 0
M  V30 16483 N 1526.88 0.906753 -1.28902 0
M  V30 16484 C 1528.12 1.65903 -1.16636 0
M  V30 16485 C 1528.46 1.92127 0.282981 0
M  V30 16486 O 1527.73 1.52666 1.20513 0
M  V30 16487 C 1528.01 3.01257 -1.97272 0
M  V30 16488 C 1527.87 2.82143 -3.50308 0
M  V30 16489 C 1529.19 4.01893 -1.7936 0
M  V30 16490 H 1526.31 0.602063 -0.425076 0
M  V30 16491 H 1528.95 1.05081 -1.58297 0
M  V30 16492 H 1527.1 3.53172 -1.61871 0
M  V30 16493 H 1528.77 2.37184 -3.95653 0
M  V30 16494 H 1527.01 2.17063 -3.75588 0
M  V30 16495 H 1527.68 3.78293 -4.01993 0
M  V30 16496 H 1530.16 3.59064 -2.10267 0
M  V30 16497 H 1529.04 4.9455 -2.38141 0
M  V30 16498 H 1529.3 4.35745 -0.746923 0
M  V30 16499 N 1528.36 1.11264 1.11616 0
M  V30 16500 C 1529.77 0.846176 1.35322 0
M  V30 16501 C 1529.97 -0.530043 1.94404 0
M  V30 16502 O 1529.03 -1.28122 2.1758 0
M  V30 16503 C 1530.34 1.9528 2.28662 0
M  V30 16504 C 1531.89 1.98225 2.42231 0
M  V30 16505 C 1532.36 3.08086 3.38891 0
M  V30 16506 N 1533.85 3.07448 3.46453 0
M  V30 16507 C 1534.59 3.89094 4.21181 0
M  V30 16508 N 1534.09 4.80698 4.989 0
M  V30 16509 N 1535.88 3.77279 4.16674 0
M  V30 16510 H 1528.03 1.99958 0.716284 0
M  V30 16511 H 1530.29 0.869439 0.377862 0
M  V30 16512 H 1530 2.94381 1.92439 0
M  V30 16513 H 1529.87 1.84739 3.28864 0
M  V30 16514 H 1532.26 0.997517 2.77729 0
M  V30 16515 H 1532.34 2.12842 1.41887 0
M  V30 16516 H 1531.98 4.06784 3.0412 0
M  V30 16517 H 1531.91 2.90709 4.39085 0
M  V30 16518 H 1534.41 2.41077 2.91016 0
M  V30 16519 H 1534.72 5.39535 5.53282 0
M  V30 16520 H 1533.06 4.84721 4.98067 0
M  V30 16521 H 1536.25 3.05059 3.55044 0
M  V30 16522 H 1536.43 4.41142 4.74655 0
M  V30 16523 N 1529.83 -1.29188 0.902679 0
M  V30 16524 C 1530.76 -2.3006 0.399357 0
M  V30 16525 C 1531.74 -1.61724 -0.527199 0
M  V30 16526 O 1532.93 -1.89213 -0.437293 0
M  V30 16527 C 1530.06 -3.45309 -0.371331 0
M  V30 16528 C 1529.01 -4.25466 0.465068 0
M  V30 16529 C 1528.34 -5.32941 -0.433295 0
M  V30 16530 C 1529.64 -4.93287 1.71655 0
M  V30 16531 H 1531.33 -2.72409 1.24233 0
M  V30 16532 H 1528.88 -1.30958 0.598822 0
M  V30 16533 H 1530.83 -4.14955 -0.734207 0
M  V30 16534 H 1529.56 -3.01811 -1.24811 0
M  V30 16535 H 1528.22 -3.57532 0.810315 0
M  V30 16536 H 1527.86 -4.85688 -1.3083 0
M  V30 16537 H 1527.56 -5.87472 0.122657 0
M  V30 16538 H 1529.09 -6.05438 -0.792298 0
M  V30 16539 H 1530.5 -5.55353 1.42323 0
M  V30 16540 H 1528.9 -5.57763 2.21405 0
M  V30 16541 H 1529.97 -4.18406 2.45081 0
M  V30 16542 N 1531.31 -0.665475 -1.42861 0
M  V30 16543 C 1532.27 0.00932351 -2.29198 0
M  V30 16544 C 1533.27 0.738356 -1.42846 0
M  V30 16545 O 1534.46 0.57776 -1.6434 0
M  V30 16546 C 1531.6 1.02392 -3.25159 0
M  V30 16547 H 1532.79 -0.750481 -2.90358 0
M  V30 16548 H 1530.34 -0.427334 -1.50345 0
M  V30 16549 H 1531.08 1.81254 -2.68919 0
M  V30 16550 H 1530.86 0.504671 -3.88839 0
M  V30 16551 H 1532.35 1.49479 -3.89931 0
M  V30 16552 N 1532.79 1.52222 -0.408187 0
M  V30 16553 C 1534.04 2.01803 0.167905 0
M  V30 16554 C 1534.36 1.29385 1.45223 0
M  V30 16555 O 1533.62 0.388383 1.91807 0
M  V30 16556 C 1533.92 3.54384 0.463353 0
M  V30 16557 C 1533.58 4.44924 -0.731665 0
M  V30 16558 C 1532.25 4.69392 -1.05946 0
M  V30 16559 C 1534.6 4.9823 -1.53023 0
M  V30 16560 C 1531.93 5.44414 -2.18702 0
M  V30 16561 C 1534.28 5.74486 -2.64855 0
M  V30 16562 C 1532.94 5.97227 -2.98121 0
M  V30 16563 H 1532.21 0.738448 0.0614409 0
M  V30 16564 H 1534.86 1.83449 -0.549412 0
M  V30 16565 H 1533.16 3.70911 1.26223 0
M  V30 16566 H 1534.86 3.90256 0.922042 0
M  V30 16567 H 1531.45 4.26057 -0.4662 0
M  V30 16568 H 1535.64 4.79236 -1.29022 0
M  V30 16569 H 1530.89 5.60242 -2.44824 0
M  V30 16570 H 1535.07 6.14788 -3.27122 0
M  V30 16571 H 1532.69 6.5514 -3.8561 0
M  V30 16572 N 1534.27 0.138579 1.5699 0
M  V30 16573 C 1535.22 -0.821469 2.17611 0
M  V30 16574 C 1536.21 -1.26137 1.13074 0
M  V30 16575 O 1537.42 -1.23084 1.31341 0
M  V30 16576 H 1533.79 -0.283086 0.696682 0
M  V30 16577 H 1535.76 -0.285891 2.97027 0
M  V30 16578 C 1534.51 -2.05395 2.8055 0
M  V30 16579 H 1533.83 -1.72442 3.60699 0
M  V30 16580 H 1535.27 -2.70531 3.2648 0
M  V30 16581 C 1533.73 -2.85647 1.78626 0
M  V30 16582 O 1534.26 -3.81705 1.25156 0
M  V30 16583 N 1532.47 -2.50018 1.4812 0
M  V30 16584 H 1532.02 -1.71969 1.91793 0
M  V30 16585 H 1531.97 -3.04007 0.8017 0
M  V30 16586 N 1535.75 -1.57019 -0.13521 0
M  V30 16587 C 1536.68 -2.02182 -1.16811 0
M  V30 16588 C 1537.66 -0.9034 -1.44127 0
M  V30 16589 O 1538.84 -1.17202 -1.54846 0
M  V30 16590 C 1535.97 -2.41243 -2.49838 0
M  V30 16591 C 1534.93 -3.56379 -2.37018 0
M  V30 16592 C 1534.25 -3.8129 -3.74863 0
M  V30 16593 C 1535.55 -4.88653 -1.84432 0
M  V30 16594 H 1537.25 -2.8872 -0.792529 0
M  V30 16595 H 1534.79 -1.38901 -0.379788 0
M  V30 16596 H 1536.74 -2.7144 -3.22332 0
M  V30 16597 H 1535.47 -1.51656 -2.89254 0
M  V30 16598 H 1534.13 -3.26366 -1.66975 0
M  V30 16599 H 1533.78 -2.88934 -4.11735 0
M  V30 16600 H 1533.48 -4.58781 -3.67143 0
M  V30 16601 H 1535 -4.13924 -4.48887 0
M  V30 16602 H 1536.41 -5.17492 -2.46729 0
M  V30 16603 H 1534.81 -5.70032 -1.87574 0
M  V30 16604 H 1535.88 -4.78242 -0.800759 0
M  V30 16605 N 1537.22 0.404919 -1.52309 0
M  V30 16606 C 1538.47 1.15319 -1.66822 0
M  V30 16607 C 1538.8 1.90056 -0.399041 0
M  V30 16608 O 1538.08 1.84927 0.602679 0
M  V30 16609 C 1538.36 2.14426 -2.89298 0
M  V30 16610 C 1538.21 1.43558 -4.26276 0
M  V30 16611 C 1539.53 3.15046 -3.07301 0
M  V30 16612 H 1536.65 0.417869 -0.607087 0
M  V30 16613 H 1539.29 0.438414 -1.84873 0
M  V30 16614 H 1537.44 2.75382 -2.74039 0
M  V30 16615 H 1539.12 0.856899 -4.53271 0
M  V30 16616 H 1537.36 0.737515 -4.27485 0
M  V30 16617 H 1538.03 2.15895 -5.08029 0
M  V30 16618 H 1540.51 2.6417 -3.21486 0
M  V30 16619 H 1539.38 3.81652 -3.94503 0
M  V30 16620 H 1539.64 3.83012 -2.20803 0
M  V30 16621 N 1538.7 1.43003 0.662408 0
M  V30 16622 C 1539.95 1.43848 1.41958 0
M  V30 16623 C 1540.27 0.06046 1.94906 0
M  V30 16624 O 1539.54 -0.90287 1.73854 0
M  V30 16625 H 1538.12 0.529587 0.526827 0
M  V30 16626 H 1540.78 1.7853 0.781867 0
M  V30 16627 H 1539.88 2.14562 2.26649 0
M  V30 16628 N 1540.18 -0.899904 1.29381 0
M  V30 16629 C 1541.46 -1.63067 1.08021 0
M  V30 16630 C 1541.84 -2.0773 -0.375716 0
M  V30 16631 O 1541.19 -1.83288 -1.36447 0
M  V30 16632 C 1541.4 -2.81163 2.06757 0
M  V30 16633 C 1542.74 -3.51854 2.37664 0
M  V30 16634 O 1543.77 -2.91332 2.0495 0
M  V30 16635 O 1542.63 -4.60962 2.93558 0
M  V30 16636 H 1539.72 -0.71601 0.413835 0
M  V30 16637 H 1542.27 -0.947991 1.40752 0
M  V30 16638 H 1541.04 -2.45355 3.04822 0
M  V30 16639 H 1540.66 -3.57137 1.74754 0
M  V30 16640 N 1541.66 -1.11854 -1.11024 0
M  V30 16641 C 1543.07 -0.885443 -1.64368 0
M  V30 16642 C 1543.42 0.581455 -1.87386 0
M  V30 16643 O 1542.55 1.44452 -1.61129 0
M  V30 16644 C 1543.14 -1.60082 -2.98595 0
M  V30 16645 C 1541.7 -1.41403 -3.4883 0
M  V30 16646 C 1540.85 -1.64069 -2.23555 0
M  V30 16647 H 1543.8 -1.27418 -0.94606 0
M  V30 16648 H 1543.82 -1.04832 -3.65774 0
M  V30 16649 H 1543.33 -2.66842 -2.8181 0
M  V30 16650 H 1541.43 -0.368727 -3.70771 0
M  V30 16651 H 1541.54 -2.16603 -4.27341 0
M  V30 16652 H 1539.91 -1.06437 -2.31394 0
M  V30 16653 H 1540.69 -2.72112 -2.09308 0
M  V30 16654 N 1543.14 1.28707 -0.909517 0
M  V30 16655 C 1544.39 1.94437 -0.536401 0
M  V30 16656 C 1544.7 1.72416 0.923685 0
M  V30 16657 O 1545.9 2.32333 1.40477 0
M  V30 16658 C 1544.36 3.48246 -0.908455 0
M  V30 16659 C 1543.97 3.79051 -2.38798 0
M  V30 16660 C 1545.71 4.20156 -0.605721 0
M  V30 16661 C 1543.62 5.2615 -2.70038 0
M  V30 16662 H 1542.55 0.727842 -0.196882 0
M  V30 16663 H 1545.2 1.46283 -1.10786 0
M  V30 16664 H 1543.58 3.95107 -0.265829 0
M  V30 16665 H 1544.76 3.43014 -3.07698 0
M  V30 16666 H 1543.07 3.20303 -2.66074 0
M  V30 16667 H 1545.67 5.28439 -0.815849 0
M  V30 16668 H 1546.01 4.13792 0.456266 0
M  V30 16669 H 1546.54 3.79059 -1.20662 0
M  V30 16670 H 1543.28 5.37587 -3.75073 0
M  V30 16671 H 1542.8 5.63399 -2.05771 0
M  V30 16672 H 1544.48 5.93846 -2.56819 0
M  V30 16673 N 1544.61 0.673042 1.42506 0
M  V30 16674 C 1546.03 0.272049 1.84707 0
M  V30 16675 C 1546.38 -1.18545 1.56338 0
M  V30 16676 O 1545.5 -1.9073 1.02231 0
M  V30 16677 C 1546.1 0.486977 3.35282 0
M  V30 16678 C 1544.66 0.140122 3.76139 0
M  V30 16679 C 1543.8 0.780276 2.66096 0
M  V30 16680 H 1546.75 0.875329 1.32377 0
M  V30 16681 H 1546.77 -0.261443 3.79601 0
M  V30 16682 H 1546.29 1.54784 3.55898 0
M  V30 16683 H 1544.39 -0.917366 3.6113 0
M  V30 16684 H 1544.5 0.579417 4.75583 0
M  V30 16685 H 1542.86 0.211756 2.53818 0
M  V30 16686 H 1543.65 1.84456 2.89536 0
M  V30 16687 N 1546.09 -1.52004 0.416254 0
M  V30 16688 C 1547.34 -2.0149 -0.15689 0
M  V30 16689 C 1547.66 -1.30343 -1.45037 0
M  V30 16690 O 1546.93 -0.431503 -1.91089 0
M  V30 16691 H 1545.51 -0.744508 -0.0609682 0
M  V30 16692 H 1548.17 -1.86857 0.55413 0
M  V30 16693 H 1547.27 -3.10155 -0.347917 0
M  V30 16694 N 1547.57 -0.146903 -1.56914 0
M  V30 16695 C 1548.53 0.778709 -2.15566 0
M  V30 16696 C 1549.53 1.1753 -1.09742 0
M  V30 16697 O 1550.72 1.09624 -1.35382 0
M  V30 16698 C 1547.86 2.0567 -2.71869 0
M  V30 16699 H 1549.05 0.268506 -2.98696 0
M  V30 16700 H 1546.6 0.10254 -1.55963 0
M  V30 16701 H 1547.34 2.61057 -1.92405 0
M  V30 16702 H 1547.12 1.78154 -3.4929 0
M  V30 16703 H 1548.61 2.71779 -3.17059 0
M  V30 16704 N 1549.05 1.57088 0.126881 0
M  V30 16705 C 1549.96 2.03053 1.17502 0
M  V30 16706 C 1550.97 0.949484 1.45811 0
M  V30 16707 O 1552.15 1.26043 1.57083 0
M  V30 16708 C 1549.22 2.41897 2.48368 0
M  V30 16709 C 1548.28 3.64047 2.27527 0
M  V30 16710 C 1547.51 4.01029 3.52153 0
M  V30 16711 O 1547.73 3.38441 4.59145 0
M  V30 16712 O 1546.67 4.94174 3.43622 0
M  V30 16713 H 1550.49 2.92568 0.814733 0
M  V30 16714 H 1548.08 1.45547 0.3371 0
M  V30 16715 H 1549.96 2.67652 3.25485 0
M  V30 16716 H 1548.63 1.55531 2.83887 0
M  V30 16717 H 1547.54 3.43452 1.48294 0
M  V30 16718 H 1548.87 4.51093 1.96916 0
M  V30 16719 N 1550.53 -0.396836 1.52522 0
M  V30 16720 C 1551.75 -1.16404 1.71049 0
M  V30 16721 C 1552.17 -1.83946 0.425378 0
M  V30 16722 O 1551.53 -1.7237 -0.599561 0
M  V30 16723 C 1551.58 -2.21796 2.85463 0
M  V30 16724 O 1551.3 -1.57009 4.08998 0
M  V30 16725 C 1552.8 -3.11303 3.15603 0
M  V30 16726 H 1550.02 -0.349314 0.572905 0
M  V30 16727 H 1552.56 -0.465297 1.99136 0
M  V30 16728 H 1550.72 -2.87318 2.59859 0
M  V30 16729 H 1551.13 -2.26977 4.72844 0
M  V30 16730 H 1552.61 -3.81299 3.99143 0
M  V30 16731 H 1553.08 -3.7437 2.2966 0
M  V30 16732 H 1553.69 -2.51435 3.43017 0
M  V30 16733 N 1552.01 -1.43353 -0.654814 0
M  V30 16734 C 1553.25 -1.44885 -1.41473 0
M  V30 16735 C 1553.58 -0.0725577 -1.94365 0
M  V30 16736 O 1552.84 0.9222 -1.72609 0
M  V30 16737 C 1553.13 -2.437 -2.61429 0
M  V30 16738 C 1552.8 -3.89612 -2.26965 0
M  V30 16739 C 1551.46 -4.29353 -2.17278 0
M  V30 16740 C 1553.81 -4.81569 -1.99351 0
M  V30 16741 C 1551.14 -5.59005 -1.7813 0
M  V30 16742 C 1553.49 -6.11584 -1.61702 0
M  V30 16743 C 1552.16 -6.50303 -1.50539 0
M  V30 16744 H 1551.43 -0.530172 -0.517686 0
M  V30 16745 H 1554.08 -1.76422 -0.744824 0
M  V30 16746 H 1552.38 -2.05561 -3.33544 0
M  V30 16747 H 1554.08 -2.42141 -3.19638 0
M  V30 16748 H 1550.67 -3.58159 -2.35414 0
M  V30 16749 H 1554.85 -4.51639 -2.05757 0
M  V30 16750 H 1550.11 -5.87845 -1.68072 0
M  V30 16751 H 1554.28 -6.82312 -1.39365 0
M  V30 16752 H 1551.91 -7.50673 -1.19975 0
M  V30 16753 N 1553.48 0.89303 -1.29857 0
M  V30 16754 C 1554.71 1.675 -1.20943 0
M  V30 16755 C 1555.12 1.87779 0.231435 0
M  V30 16756 O 1554.46 1.41955 1.16596 0
M  V30 16757 C 1554.53 3.07722 -1.8587 0
M  V30 16758 C 1554.19 3.10647 -3.35182 0
M  V30 16759 C 1555.19 2.903 -4.31303 0
M  V30 16760 C 1552.87 3.32501 -3.76495 0
M  V30 16761 C 1554.87 2.91749 -5.66711 0
M  V30 16762 C 1552.55 3.33581 -5.12022 0
M  V30 16763 C 1553.55 3.13228 -6.06941 0
M  V30 16764 O 1553.24 3.14109 -7.39994 0
M  V30 16765 H 1552.97 0.529708 -0.419982 0
M  V30 16766 H 1555.53 1.12466 -1.71874 0
M  V30 16767 H 1553.76 3.64386 -1.29459 0
M  V30 16768 H 1555.44 3.68035 -1.71187 0
M  V30 16769 H 1556.21 2.73221 -4.00718 0
M  V30 16770 H 1552.09 3.47381 -3.03064 0
M  V30 16771 H 1555.63 2.75782 -6.40773 0
M  V30 16772 H 1551.53 3.50193 -5.4225 0
M  V30 16773 H 1552.3 3.3033 -7.48882 0
M  V30 16774 N 1554.96 1.12442 1.10429 0
M  V30 16775 C 1556.19 0.902599 1.86174 0
M  V30 16776 C 1556.6 -0.548147 1.80668 0
M  V30 16777 O 1555.96 -1.37898 1.19543 0
M  V30 16778 C 1556.01 1.36912 3.34571 0
M  V30 16779 O 1555.73 2.763 3.39985 0
M  V30 16780 C 1557.23 1.18424 4.27189 0
M  V30 16781 H 1554.45 0.322534 0.588399 0
M  V30 16782 H 1557 1.49439 1.396 0
M  V30 16783 H 1555.15 0.82055 3.7861 0
M  V30 16784 H 1555.57 2.96772 4.32466 0
M  V30 16785 H 1557.04 1.55954 5.29511 0
M  V30 16786 H 1557.52 0.12483 4.39023 0
M  V30 16787 H 1558.12 1.72032 3.88954 0
M  V30 16788 N 1556.44 -1.28223 0.91633 0
M  V30 16789 C 1557.72 -1.89878 0.469661 0
M  V30 16790 C 1558.1 -1.83037 -1.05169 0
M  V30 16791 O 1557.44 -1.26801 -1.90088 0
M  V30 16792 C 1557.65 -3.34279 1.00293 0
M  V30 16793 C 1559 -4.11244 1.05657 0
M  V30 16794 O 1560.03 -3.43249 0.951753 0
M  V30 16795 O 1558.89 -5.32788 1.21652 0
M  V30 16796 H 1555.98 -0.813418 0.149263 0
M  V30 16797 H 1558.53 -1.36572 1.00728 0
M  V30 16798 H 1557.3 -3.33494 2.04688 0
M  V30 16799 H 1556.92 -3.95087 0.446287 0
M  V30 16800 N 1557.92 -0.68059 -1.42147 0
M  V30 16801 C 1559.17 -0.204857 -2.01059 0
M  V30 16802 C 1559.49 1.19475 -1.54113 0
M  V30 16803 O 1558.76 1.80334 -0.765279 0
M  V30 16804 H 1557.34 -0.0727459 -0.743449 0
M  V30 16805 H 1560 -0.878396 -1.73983 0
M  V30 16806 H 1559.09 -0.210628 -3.11388 0
M  V30 16807 N 1559.4 1.51781 -0.424309 0
M  V30 16808 C 1560.62 2.06871 0.147968 0
M  V30 16809 C 1561.05 1.29093 1.36808 0
M  V30 16810 O 1560.4 0.325279 1.78358 0
M  V30 16811 C 1560.45 3.57631 0.461757 0
M  V30 16812 O 1559.56 3.82149 1.55035 0
M  V30 16813 H 1558.9 0.663957 0.00757275 0
M  V30 16814 H 1561.43 1.95547 -0.601888 0
M  V30 16815 H 1561.44 4.01668 0.716005 0
M  V30 16816 H 1560.11 4.1367 -0.430081 0
M  V30 16817 H 1558.69 3.49984 1.28709 0
M  V30 16818 N 1560.87 0.155222 1.56834 0
M  V30 16819 C 1562.11 -0.496476 1.98279 0
M  V30 16820 C 1562.48 -1.61495 1.03843 0
M  V30 16821 O 1563.68 -2.32808 1.34365 0
M  V30 16822 C 1561.95 -0.982022 3.43644 0
M  V30 16823 S 1563.51 -1.63717 4.07115 0
M  V30 16824 H 1560.33 -0.160256 0.692704 0
M  V30 16825 H 1562.93 0.248881 1.93909 0
M  V30 16826 H 1561.63 -0.157344 4.10098 0
M  V30 16827 H 1561.16 -1.7618 3.51744 0
M  V30 16828 H 1563.18 -2.92473 4.00841 0
M  V30 16829 N 1562.35 -1.57153 -0.118549 0
M  V30 16830 C 1563.3 -2.01357 -1.1644 0
M  V30 16831 C 1564.29 -0.910574 -1.42846 0
M  V30 16832 O 1565.5 -1.09578 -1.42803 0
M  V30 16833 H 1561.87 -0.641376 -0.392607 0
M  V30 16834 H 1563.85 -2.88425 -0.765087 0
M  V30 16835 C 1562.59 -2.43416 -2.48282 0
M  V30 16836 H 1561.92 -3.27857 -2.288 0
M  V30 16837 H 1563.36 -2.78143 -3.20019 0
M  V30 16838 C 1561.82 -1.29799 -3.10892 0
M  V30 16839 O 1562.35 -0.614207 -3.96977 0
M  V30 16840 N 1560.55 -1.05493 -2.70776 0
M  V30 16841 H 1560.1 -1.61276 -2.00868 0
M  V30 16842 H 1560.06 -0.296678 -3.12997 0
M  V30 16843 N 1563.83 0.388742 -1.5273 0
M  V30 16844 C 1565.25 0.728828 -1.41987 0
M  V30 16845 C 1565.45 1.94116 -0.540493 0
M  V30 16846 O 1564.5 2.52496 -0.0140397 0
M  V30 16847 C 1565.81 0.963683 -2.8484 0
M  V30 16848 C 1567.36 1.06514 -2.94319 0
M  V30 16849 C 1567.84 1.33262 -4.38184 0
M  V30 16850 N 1569.33 1.40083 -4.4151 0
M  V30 16851 C 1570.06 1.62446 -5.49908 0
M  V30 16852 N 1569.56 1.82277 -6.68391 0
M  V30 16853 N 1571.35 1.64627 -5.37452 0
M  V30 16854 H 1563.5 -0.408984 -2.08425 0
M  V30 16855 H 1565.77 -0.120791 -0.940273 0
M  V30 16856 H 1565.47 0.144986 -3.51401 0
M  V30 16857 H 1565.35 1.87828 -3.27109 0
M  V30 16858 H 1567.73 1.8744 -2.27926 0
M  V30 16859 H 1567.81 0.12845 -2.55477 0
M  V30 16860 H 1567.46 0.528457 -5.05143 0
M  V30 16861 H 1567.39 2.28216 -4.74579 0
M  V30 16862 H 1569.88 1.26465 -3.56111 0
M  V30 16863 H 1570.19 1.98848 -7.46779 0
M  V30 16864 H 1568.54 1.79501 -6.7142 0
M  V30 16865 H 1571.73 1.48686 -4.43858 0
M  V30 16866 H 1571.9 1.81715 -6.22 0
M  V30 16867 N 1565.31 1.43698 0.647203 0
M  V30 16868 C 1566.24 1.45295 1.77262 0
M  V30 16869 C 1567.25 0.34831 1.5903 0
M  V30 16870 O 1568.44 0.613106 1.6764 0
M  V30 16871 C 1565.54 1.25584 3.14773 0
M  V30 16872 C 1564.71 2.48998 3.59609 0
M  V30 16873 C 1563.77 2.24423 4.75942 0
M  V30 16874 O 1562.8 2.97813 4.85073 0
M  V30 16875 N 1564 1.26465 5.66557 0
M  V30 16876 H 1566.77 2.42311 1.76368 0
M  V30 16877 H 1564.33 1.38931 0.831247 0
M  V30 16878 H 1566.32 1.07016 3.90294 0
M  V30 16879 H 1564.89 0.369927 3.10403 0
M  V30 16880 H 1564.11 2.82951 2.74467 0
M  V30 16881 H 1565.4 3.31119 3.86313 0
M  V30 16882 H 1564.8 0.658206 5.61858 0
M  V30 16883 H 1563.35 1.13879 6.41775 0
M  V30 16884 N 1566.79 -0.886131 1.30328 0
M  V30 16885 C 1568.01 -1.67625 1.22134 0
M  V30 16886 C 1568.44 -1.86893 -0.212712 0
M  V30 16887 O 1567.79 -1.39905 -1.1531 0
M  V30 16888 C 1567.84 -3.03068 1.95402 0
M  V30 16889 O 1566.95 -3.92022 1.28032 0
M  V30 16890 H 1566.29 -0.512246 0.422493 0
M  V30 16891 H 1568.82 -1.10602 1.72129 0
M  V30 16892 H 1568.83 -3.53119 2.04379 0
M  V30 16893 H 1567.5 -2.88363 2.99699 0
M  V30 16894 H 1566.08 -3.50461 1.27402 0
M  V30 16895 N 1568.26 -1.13026 -1.09832 0
M  V30 16896 C 1569.21 -0.803817 -2.1635 0
M  V30 16897 C 1570.18 0.232226 -1.64469 0
M  V30 16898 O 1571.37 0.105403 -1.90509 0
M  V30 16899 C 1568.51 -0.271414 -3.44031 0
M  V30 16900 C 1567.62 -1.36602 -4.09834 0
M  V30 16901 C 1566.75 -0.792393 -5.25257 0
M  V30 16902 C 1565.79 -1.86569 -5.82974 0
M  V30 16903 N 1564.93 -1.31032 -6.89764 0
M  V30 16904 H 1569.77 -1.71624 -2.43617 0
M  V30 16905 H 1567.31 -0.856772 -1.19574 0
M  V30 16906 H 1569.27 0.0553638 -4.17163 0
M  V30 16907 H 1567.9 0.604154 -3.17096 0
M  V30 16908 H 1566.95 -1.80946 -3.34608 0
M  V30 16909 H 1568.26 -2.17737 -4.48767 0
M  V30 16910 H 1567.41 -0.416652 -6.05268 0
M  V30 16911 H 1566.15 0.0500894 -4.87674 0
M  V30 16912 H 1565.16 -2.25054 -5.01628 0
M  V30 16913 H 1566.38 -2.7115 -6.22619 0
M  V30 16914 H 1564.33 -0.489768 -6.54169 0
M  V30 16915 H 1564.25 -2.0582 -7.27444 0
M  V30 16916 H 1565.51 -0.962011 -7.73541 0
M  V30 16917 N 1569.74 1.27735 -0.923117 0
M  V30 16918 C 1570.65 2.30734 -0.424124 0
M  V30 16919 C 1571.67 1.66872 0.49291 0
M  V30 16920 O 1572.84 1.97843 0.37683 0
M  V30 16921 C 1569.91 3.45227 0.319254 0
M  V30 16922 C 1568.97 4.2462 -0.632137 0
M  V30 16923 C 1568.2 5.33646 0.0758596 0
M  V30 16924 O 1568.43 5.55481 1.29602 0
M  V30 16925 O 1567.36 5.98966 -0.593624 0
M  V30 16926 H 1571.19 2.75444 -1.27923 0
M  V30 16927 H 1568.77 1.32601 -0.688288 0
M  V30 16928 H 1570.65 4.14874 0.73873 0
M  V30 16929 H 1569.33 3.02582 1.15004 0
M  V30 16930 H 1568.24 3.57525 -1.1012 0
M  V30 16931 H 1569.57 4.70969 -1.43001 0
M  V30 16932 N 1571.22 0.688118 1.41784 0
M  V30 16933 C 1572.47 0.215517 2.00948 0
M  V30 16934 C 1572.79 -1.18656 1.54744 0
M  V30 16935 O 1572.06 -1.79925 0.774831 0
M  V30 16936 H 1570.64 0.0766876 0.743053 0
M  V30 16937 H 1573.3 0.88761 1.73515 0
M  V30 16938 H 1572.4 0.227139 3.11272 0
M  V30 16939 N 1572.7 -1.51554 0.432352 0
M  V30 16940 C 1573.65 -2.27623 -0.381602 0
M  V30 16941 C 1574.62 -1.31003 -1.02114 0
M  V30 16942 O 1575.8 -1.59899 -1.041 0
M  V30 16943 C 1572.94 -3.11772 -1.47959 0
M  V30 16944 C 1572.05 -4.2338 -0.858682 0
M  V30 16945 C 1571.19 -4.94847 -1.93131 0
M  V30 16946 C 1570.23 -5.98383 -1.28856 0
M  V30 16947 N 1569.36 -6.63278 -2.30233 0
M  V30 16948 H 1574.2 -2.96743 0.273472 0
M  V30 16949 H 1571.74 -1.46367 0.146706 0
M  V30 16950 H 1573.7 -3.58882 -2.12742 0
M  V30 16951 H 1572.33 -2.44778 -2.10437 0
M  V30 16952 H 1571.38 -3.8027 -0.0992797 0
M  V30 16953 H 1572.69 -4.97575 -0.349381 0
M  V30 16954 H 1571.85 -5.4548 -2.65587 0
M  V30 16955 H 1570.59 -4.20272 -2.47432 0
M  V30 16956 H 1569.59 -5.47048 -0.549441 0
M  V30 16957 H 1570.82 -6.74913 -0.752941 0
M  V30 16958 H 1568.76 -5.91518 -2.83624 0
M  V30 16959 H 1568.68 -7.33221 -1.84181 0
M  V30 16960 H 1569.95 -7.18542 -3.02188 0
M  V30 16961 N 1574.18 -0.163538 -1.56749 0
M  V30 16962 C 1575.14 0.755801 -2.1638 0
M  V30 16963 C 1576.14 1.16359 -1.10982 0
M  V30 16964 O 1577.33 1.08182 -1.36537 0
M  V30 16965 C 1574.46 2.02775 -2.74035 0
M  V30 16966 H 1575.65 0.23681 -2.98964 0
M  V30 16967 H 1573.21 0.0859925 -1.56063 0
M  V30 16968 H 1573.94 2.59002 -1.95163 0
M  V30 16969 H 1573.73 1.74439 -3.5116 0
M  V30 16970 H 1575.22 2.684 -3.19923 0
M  V30 16971 N 1575.65 1.57214 0.110213 0
M  V30 16972 C 1576.9 1.84946 0.814827 0
M  V30 16973 C 1577.22 0.750029 1.79999 0
M  V30 16974 O 1576.49 -0.225164 1.94602 0
M  V30 16975 H 1575.07 0.682385 0.303907 0
M  V30 16976 H 1577.74 1.94666 0.0954415 0
M  V30 16977 H 1576.83 2.81167 1.35469 0
M  V30 16978 N 1577.13 -0.380637 1.52934 0
M  V30 16979 C 1578.36 -1.14417 1.72024 0
M  V30 16980 C 1578.77 -1.83962 0.442128 0
M  V30 16981 O 1578.11 -1.73839 -0.593766 0
M  V30 16982 C 1578.18 -2.22944 2.82022 0
M  V30 16983 C 1577.84 -1.73295 4.22869 0
M  V30 16984 C 1578.84 -1.20515 5.05739 0
M  V30 16985 C 1576.52 -1.79264 4.69222 0
M  V30 16986 C 1578.52 -0.743632 6.33047 0
M  V30 16987 C 1576.2 -1.32724 5.96513 0
M  V30 16988 C 1577.2 -0.803615 6.78256 0
M  V30 16989 O 1576.89 -0.34503 8.03159 0
M  V30 16990 H 1576.62 -0.348676 0.579138 0
M  V30 16991 H 1579.17 -0.450113 2.00407 0
M  V30 16992 H 1577.4 -2.95798 2.49079 0
M  V30 16993 H 1579.09 -2.84575 2.89434 0
M  V30 16994 H 1579.86 -1.15254 4.71107 0
M  V30 16995 H 1575.74 -2.18962 4.0568 0
M  V30 16996 H 1579.28 -0.334251 6.96799 0
M  V30 16997 H 1575.18 -1.37673 6.30648 0
M  V30 16998 H 1575.95 -0.465743 8.17174 0
M  V30 16999 N 1578.61 -1.44039 -0.639573 0
M  V30 17000 C 1579.86 -1.46594 -1.40136 0
M  V30 17001 C 1580.19 -0.0949646 -1.93968 0
M  V30 17002 O 1579.46 0.886201 -1.73138 0
M  V30 17003 C 1579.75 -2.51947 -2.57283 0
M  V30 17004 C 1579.6 -3.98371 -2.08855 0
M  V30 17005 C 1580.92 -2.53891 -3.59482 0
M  V30 17006 H 1578.04 -0.533759 -0.508203 0
M  V30 17007 H 1580.68 -1.75669 -0.723898 0
M  V30 17008 H 1578.83 -2.27285 -3.15077 0
M  V30 17009 H 1580.5 -4.34137 -1.55956 0
M  V30 17010 H 1578.75 -4.10551 -1.40109 0
M  V30 17011 H 1579.42 -4.67721 -2.93157 0
M  V30 17012 H 1581.89 -2.75906 -3.11473 0
M  V30 17013 H 1580.77 -3.29524 -4.38982 0
M  V30 17014 H 1581.03 -1.57774 -4.12989 0
M  V30 17015 N 1580.09 0.879207 -1.30796 0
M  V30 17016 C 1581.32 1.66449 -1.22891 0
M  V30 17017 C 1581.73 1.87658 0.207306 0
M  V30 17018 O 1581.09 1.42818 1.13619 0
M  V30 17019 C 1581.14 3.03765 -1.95982 0
M  V30 17020 O 1580.86 2.8351 -3.33997 0
M  V30 17021 C 1582.36 3.98204 -1.94804 0
M  V30 17022 H 1579.58 0.51922 -0.425031 0
M  V30 17023 H 1582.13 1.09807 -1.72519 0
M  V30 17024 H 1580.28 3.57124 -1.50138 0
M  V30 17025 H 1580.69 3.70663 -3.71092 0
M  V30 17026 H 1582.17 4.91901 -2.50474 0
M  V30 17027 H 1582.65 4.29277 -0.928336 0
M  V30 17028 H 1583.25 3.50781 -2.40485 0
M  V30 17029 N 1581.57 1.13606 1.09231 0
M  V30 17030 C 1582.84 0.81012 1.78035 0
M  V30 17031 C 1583.22 -0.697953 1.99228 0
M  V30 17032 O 1582.57 -1.63592 1.5953 0
M  V30 17033 C 1582.78 1.59932 3.10198 0
M  V30 17034 C 1584.13 1.79328 3.84872 0
M  V30 17035 O 1585.15 1.56547 3.19955 0
M  V30 17036 O 1584.01 2.17355 5.01417 0
M  V30 17037 H 1581.11 0.295995 0.772215 0
M  V30 17038 H 1583.65 1.24079 1.15769 0
M  V30 17039 H 1582.43 2.6241 2.9027 0
M  V30 17040 H 1582.05 1.16371 3.80189 0
M  V30 17041 N 1583.05 -1.27244 0.929878 0
M  V30 17042 C 1584.46 -1.4662 0.630451 0
M  V30 17043 C 1584.66 -1.84077 -0.819633 0
M  V30 17044 O 1583.72 -1.95555 -1.59733 0
M  V30 17045 C 1585.03 -2.55709 1.58219 0
M  V30 17046 C 1586.58 -2.69569 1.59065 0
M  V30 17047 C 1587.05 -3.81818 2.52941 0
M  V30 17048 N 1588.54 -3.89195 2.51161 0
M  V30 17049 C 1589.28 -4.75474 3.20488 0
M  V30 17050 N 1588.78 -5.66225 3.99201 0
M  V30 17051 N 1590.57 -4.69222 3.09495 0
M  V30 17052 H 1582.72 -1.01216 1.86733 0
M  V30 17053 H 1584.98 -0.505737 0.801832 0
M  V30 17054 H 1584.69 -2.34985 2.61677 0
M  V30 17055 H 1584.56 -3.53141 1.32556 0
M  V30 17056 H 1586.95 -2.89672 0.563375 0
M  V30 17057 H 1587.03 -1.72616 1.88778 0
M  V30 17058 H 1586.67 -3.62467 3.55781 0
M  V30 17059 H 1586.6 -4.78202 2.20524 0
M  V30 17060 H 1589.1 -3.24305 1.93997 0
M  V30 17061 H 1589.41 -6.28925 4.4908 0
M  V30 17062 H 1587.75 -5.66013 4.03304 0
M  V30 17063 H 1590.94 -3.97322 2.47493 0
M  V30 17064 H 1591.12 -5.36244 3.63794 0
M  V30 17065 N 1584.52 -0.695628 -1.41417 0
M  V30 17066 C 1585.77 -0.226171 -2.0083 0
M  V30 17067 C 1586.09 1.17833 -1.55371 0
M  V30 17068 O 1585.36 1.79512 -0.784362 0
M  V30 17069 H 1583.94 -0.0806271 -0.742636 0
M  V30 17070 H 1586.6 -0.8968 -1.73042 0
M  V30 17071 H 1585.7 -0.243643 -3.11148 0
M  V30 17072 N 1586 1.51322 -0.440383 0
M  V30 17073 C 1586.95 2.27823 0.369526 0
M  V30 17074 C 1587.92 1.31543 1.01418 0
M  V30 17075 O 1589.1 1.60449 1.03251 0
M  V30 17076 C 1586.24 3.12553 1.46304 0
M  V30 17077 C 1585.36 4.23829 0.836217 0
M  V30 17078 C 1584.49 4.95865 1.90504 0
M  V30 17079 C 1583.53 5.99058 1.25681 0
M  V30 17080 N 1582.67 6.64489 2.26712 0
M  V30 17081 H 1587.51 2.96593 -0.289205 0
M  V30 17082 H 1585.04 1.46287 -0.154466 0
M  V30 17083 H 1587 3.60006 2.10836 0
M  V30 17084 H 1585.63 2.4589 2.09136 0
M  V30 17085 H 1584.68 3.80318 0.0791116 0
M  V30 17086 H 1586 4.97753 0.322989 0
M  V30 17087 H 1585.15 5.46881 2.6269 0
M  V30 17088 H 1583.89 4.21578 2.452 0
M  V30 17089 H 1582.89 5.47331 0.520422 0
M  V30 17090 H 1584.12 6.75303 0.717138 0
M  V30 17091 H 1582.07 5.93014 2.80483 0
M  V30 17092 H 1581.98 7.34188 1.80289 0
M  V30 17093 H 1583.25 7.20134 2.98373 0
M  V30 17094 N 1587.48 0.171848 1.5666 0
M  V30 17095 C 1588.76 -0.519355 1.88579 0
M  V30 17096 C 1589.14 -1.81273 1.08182 0
M  V30 17097 O 1588.48 -2.27822 0.175895 0
M  V30 17098 C 1588.69 -0.760743 3.40608 0
M  V30 17099 C 1590.04 -1.09051 4.10357 0
M  V30 17100 O 1591.07 -0.849264 3.45928 0
M  V30 17101 O 1589.93 -1.54566 5.24187 0
M  V30 17102 H 1587.02 -0.267782 0.782446 0
M  V30 17103 H 1589.57 0.210323 1.68392 0
M  V30 17104 H 1588.34 0.153577 3.90999 0
M  V30 17105 H 1587.96 -1.54372 3.66408 0
M  V30 17106 N 1588.96 -1.5727 -0.101874 0
M  V30 17107 C 1589.9 -2.01577 -1.12406 0
M  V30 17108 C 1590.87 -0.890883 -1.40187 0
M  V30 17109 O 1592.06 -1.15638 -1.51764 0
M  V30 17110 C 1589.2 -2.43952 -2.44093 0
M  V30 17111 C 1588.31 -3.69932 -2.23101 0
M  V30 17112 C 1587.45 -4.01215 -3.48138 0
M  V30 17113 C 1586.49 -5.20325 -3.22379 0
M  V30 17114 N 1585.62 -5.47394 -4.39664 0
M  V30 17115 H 1590.46 -2.88685 -0.739244 0
M  V30 17116 H 1588 -1.42789 -0.353497 0
M  V30 17117 H 1589.96 -2.66563 -3.20936 0
M  V30 17118 H 1588.59 -1.59863 -2.80435 0
M  V30 17119 H 1587.64 -3.54838 -1.37092 0
M  V30 17120 H 1588.95 -4.56924 -2.00054 0
M  V30 17121 H 1588.11 -4.24566 -4.33392 0
M  V30 17122 H 1586.85 -3.12732 -3.74233 0
M  V30 17123 H 1585.85 -4.96802 -2.35517 0
M  V30 17124 H 1587.08 -6.10401 -2.97637 0
M  V30 17125 H 1585.02 -4.61869 -4.65847 0
M  V30 17126 H 1584.94 -6.28743 -4.19783 0
M  V30 17127 H 1586.21 -5.75276 -5.26002 0
M  V30 17128 N 1590.44 0.372521 -1.53134 0
M  V30 17129 C 1591.68 1.11754 -1.6923 0
M  V30 17130 C 1592.01 1.89167 -0.439265 0
M  V30 17131 O 1591.29 1.86164 0.563317 0
M  V30 17132 C 1591.57 2.08242 -2.93781 0
M  V30 17133 C 1591.43 1.34484 -4.29225 0
M  V30 17134 C 1592.74 3.08457 -3.13914 0
M  V30 17135 H 1589.86 0.404898 -0.615814 0
M  V30 17136 H 1592.51 0.399101 -1.85761 0
M  V30 17137 H 1590.66 2.69507 -2.79818 0
M  V30 17138 H 1592.33 0.76056 -4.54987 0
M  V30 17139 H 1590.57 0.646673 -4.28953 0
M  V30 17140 H 1591.24 2.05071 -5.12494 0
M  V30 17141 H 1593.72 2.57292 -3.27017 0
M  V30 17142 H 1592.59 3.73198 -4.0251 0
M  V30 17143 H 1592.85 3.78243 -2.28878 0
M  V30 17144 N 1591.91 1.44376 0.631925 0
M  V30 17145 C 1592.86 1.51181 1.74393 0
M  V30 17146 C 1593.83 0.359599 1.62161 0
M  V30 17147 O 1595.02 0.569725 1.82096 0
M  V30 17148 C 1592.16 1.46124 3.12637 0
M  V30 17149 C 1591.27 2.71714 3.35851 0
M  V30 17150 C 1590.4 2.58496 4.64062 0
M  V30 17151 C 1589.44 3.79252 4.80452 0
M  V30 17152 N 1588.58 3.64715 5.99939 0
M  V30 17153 H 1593.42 2.4619 1.67912 0
M  V30 17154 H 1590.96 1.22184 0.819108 0
M  V30 17155 H 1592.91 1.41183 3.92585 0
M  V30 17156 H 1591.54 0.546831 3.18135 0
M  V30 17157 H 1590.6 2.86845 2.49848 0
M  V30 17158 H 1591.91 3.61351 3.43841 0
M  V30 17159 H 1591.06 2.51383 5.5217 0
M  V30 17160 H 1589.8 1.66417 4.58428 0
M  V30 17161 H 1588.81 3.8675 3.90774 0
M  V30 17162 H 1590.03 4.72367 4.879 0
M  V30 17163 H 1587.98 2.75388 5.95397 0
M  V30 17164 H 1587.89 4.47969 6.08982 0
M  V30 17165 H 1589.16 3.61493 6.90611 0
M  V30 17166 N 1593.39 -0.872258 1.31261 0
M  V30 17167 C 1594.34 -1.97926 1.18718 0
M  V30 17168 C 1595.31 -1.65937 0.0735242 0
M  V30 17169 O 1596.49 -1.89208 0.245979 0
M  V30 17170 C 1593.63 -3.33208 0.898117 0
M  V30 17171 C 1592.75 -3.77808 2.09488 0
M  V30 17172 C 1591.88 -5.01796 1.74281 0
M  V30 17173 C 1590.92 -5.38838 2.90379 0
M  V30 17174 N 1590.06 -6.54007 2.55382 0
M  V30 17175 H 1594.9 -2.07986 2.13415 0
M  V30 17176 H 1592.43 -1.01821 1.06165 0
M  V30 17177 H 1594.39 -4.11095 0.711089 0
M  V30 17178 H 1593.02 -3.22798 -0.0120097 0
M  V30 17179 H 1592.07 -2.95722 2.39276 0
M  V30 17180 H 1593.39 -4.01191 2.96391 0
M  V30 17181 H 1592.54 -5.87344 1.52027 0
M  V30 17182 H 1591.28 -4.80312 0.845665 0
M  V30 17183 H 1590.28 -4.51811 3.13284 0
M  V30 17184 H 1591.51 -5.62289 3.80799 0
M  V30 17185 H 1589.46 -6.34073 1.68188 0
M  V30 17186 H 1589.37 -6.77322 3.35814 0
M  V30 17187 H 1590.64 -7.42752 2.36516 0
M  V30 17188 N 1594.87 -1.14184 -1.08627 0
M  V30 17189 C 1595.8 -0.849455 -2.17501 0
M  V30 17190 C 1596.78 0.194617 -1.68983 0
M  V30 17191 O 1597.97 0.0517757 -1.94131 0
M  V30 17192 C 1595.1 -0.323685 -3.45788 0
M  V30 17193 C 1594.05 -1.30294 -4.07685 0
M  V30 17194 C 1593.38 -0.636575 -5.30897 0
M  V30 17195 C 1594.68 -2.66441 -4.49229 0
M  V30 17196 H 1596.37 -1.75987 -2.42217 0
M  V30 17197 H 1593.92 -0.847595 -1.16412 0
M  V30 17198 H 1595.87 -0.106754 -4.21265 0
M  V30 17199 H 1594.59 0.62215 -3.20619 0
M  V30 17200 H 1593.25 -1.50601 -3.34238 0
M  V30 17201 H 1592.9 0.314995 -5.02013 0
M  V30 17202 H 1592.6 -1.28998 -5.73266 0
M  V30 17203 H 1594.12 -0.429117 -6.0909 0
M  V30 17204 H 1595.54 -2.50055 -5.15893 0
M  V30 17205 H 1593.93 -3.28033 -5.02508 0
M  V30 17206 H 1595 -3.23486 -3.61226 0
M  V30 17207 N 1596.35 1.26749 -0.936613 0
M  V30 17208 C 1597.26 2.30272 -0.448573 0
M  V30 17209 C 1598.27 1.67386 0.475184 0
M  V30 17210 O 1599.45 1.98232 0.355825 0
M  V30 17211 C 1596.52 3.45546 0.28262 0
M  V30 17212 C 1595.58 4.23926 -0.677138 0
M  V30 17213 C 1594.81 5.33697 0.019255 0
M  V30 17214 O 1595.03 5.56825 1.23703 0
M  V30 17215 O 1593.97 5.98302 -0.657119 0
M  V30 17216 H 1597.79 2.74072 -1.30838 0
M  V30 17217 H 1595.38 1.31863 -0.702314 0
M  V30 17218 H 1597.26 4.15635 0.694686 0
M  V30 17219 H 1595.93 3.03784 1.11789 0
M  V30 17220 H 1594.84 3.56337 -1.13906 0
M  V30 17221 H 1596.17 4.69425 -1.47988 0
M  V30 17222 N 1597.83 0.703118 1.41046 0
M  V30 17223 C 1598.76 0.00331992 2.292 0
M  V30 17224 C 1599.77 -0.736648 1.4518 0
M  V30 17225 O 1600.96 -0.586097 1.68604 0
M  V30 17226 C 1598.06 -1.01948 3.23203 0
M  V30 17227 C 1597.23 -0.347591 4.36017 0
M  V30 17228 C 1596.29 -1.27404 5.10543 0
M  V30 17229 O 1595.32 -0.763558 5.64055 0
M  V30 17230 N 1596.52 -2.60596 5.1872 0
M  V30 17231 H 1599.29 0.760179 2.89899 0
M  V30 17232 H 1596.85 0.549747 1.52281 0
M  V30 17233 H 1598.84 -1.64115 3.6993 0
M  V30 17234 H 1597.41 -1.6778 2.63758 0
M  V30 17235 H 1596.63 0.454088 3.91576 0
M  V30 17236 H 1597.92 0.119295 5.0866 0
M  V30 17237 H 1597.31 -3.0458 4.76705 0
M  V30 17238 H 1595.87 -3.17939 5.68998 0
M  V30 17239 N 1599.3 -1.51086 0.448402 0
M  V30 17240 C 1600.53 -2.06593 -0.112695 0
M  V30 17241 C 1600.95 -1.31471 -1.35502 0
M  V30 17242 O 1600.3 -0.377406 -1.78555 0
M  V30 17243 C 1600.36 -3.59008 -0.423769 0
M  V30 17244 O 1600.08 -4.31293 0.769259 0
M  V30 17245 C 1601.58 -4.31064 -1.03433 0
M  V30 17246 H 1598.8 -0.670993 -0.00301626 0
M  V30 17247 H 1601.34 -1.94532 0.630667 0
M  V30 17248 H 1599.5 -3.70946 -1.11704 0
M  V30 17249 H 1599.91 -5.2211 0.500162 0
M  V30 17250 H 1601.38 -5.38756 -1.20191 0
M  V30 17251 H 1601.86 -3.90075 -2.01837 0
M  V30 17252 H 1602.47 -4.23598 -0.380115 0
M  V30 17253 N 1600.78 -0.180154 -1.56567 0
M  V30 17254 C 1602.01 0.46854 -2.01525 0
M  V30 17255 C 1602.43 1.56211 -1.06036 0
M  V30 17256 O 1601.78 1.82392 -0.06269 0
M  V30 17257 C 1601.83 1.0387 -3.46256 0
M  V30 17258 O 1601.55 -0.0112203 -4.38099 0
M  V30 17259 C 1603.06 1.76475 -4.06659 0
M  V30 17260 H 1600.28 0.119098 -0.660346 0
M  V30 17261 H 1602.82 -0.284477 -2.02512 0
M  V30 17262 H 1600.97 1.74217 -3.46016 0
M  V30 17263 H 1601.39 0.41099 -5.22887 0
M  V30 17264 H 1602.86 2.11618 -5.09825 0
M  V30 17265 H 1603.34 2.66301 -3.49257 0
M  V30 17266 H 1603.95 1.10749 -4.10627 0
M  V30 17267 N 1602.26 1.57322 0.0935319 0
M  V30 17268 C 1603.21 2.03184 1.13222 0
M  V30 17269 C 1604.2 0.933184 1.41379 0
M  V30 17270 O 1605.41 1.11836 1.41042 0
M  V30 17271 H 1601.78 0.647541 0.382354 0
M  V30 17272 H 1603.75 2.89606 0.719105 0
M  V30 17273 C 1602.5 2.47336 2.44378 0
M  V30 17274 H 1601.83 3.31456 2.23556 0
M  V30 17275 H 1603.27 2.83199 3.15554 0
M  V30 17276 C 1601.73 1.34728 3.08788 0
M  V30 17277 O 1602.26 0.677285 3.95949 0
M  V30 17278 N 1600.46 1.09787 2.69063 0
M  V30 17279 H 1600.01 1.64451 1.98277 0
M  V30 17280 H 1599.97 0.346436 3.12485 0
M  V30 17281 N 1603.74 -0.364395 1.53329 0
M  V30 17282 C 1604.67 -1.46658 1.76137 0
M  V30 17283 C 1605.68 -1.496 0.642166 0
M  V30 17284 O 1606.87 -1.53058 0.918452 0
M  V30 17285 C 1603.97 -2.85417 1.8273 0
M  V30 17286 C 1603.15 -3.06158 3.12388 0
M  V30 17287 C 1602.2 -4.25038 3.10208 0
M  V30 17288 O 1601.23 -4.20156 3.84002 0
M  V30 17289 N 1602.43 -5.32511 2.31111 0
M  V30 17290 H 1605.2 -1.27471 2.7124 0
M  V30 17291 H 1602.76 -0.554127 1.52122 0
M  V30 17292 H 1604.75 -3.63086 1.78748 0
M  V30 17293 H 1603.32 -2.97845 0.949058 0
M  V30 17294 H 1602.54 -2.16139 3.29663 0
M  V30 17295 H 1603.83 -3.16885 3.98072 0
M  V30 17296 H 1603.23 -5.39341 1.70669 0
M  V30 17297 H 1601.78 -6.08752 2.32946 0
M  V30 17298 N 1605.22 -1.44709 -0.62426 0
M  V30 17299 C 1606.15 -1.48097 -1.74928 0
M  V30 17300 C 1607.16 -0.373567 -1.58456 0
M  V30 17301 O 1608.35 -0.639699 -1.66644 0
M  V30 17302 C 1605.45 -1.30576 -3.12735 0
M  V30 17303 C 1604.62 -2.54688 -3.55602 0
M  V30 17304 C 1603.68 -2.31966 -4.72311 0
M  V30 17305 O 1602.71 -3.05492 -4.80274 0
M  V30 17306 N 1603.91 -1.35463 -5.64473 0
M  V30 17307 H 1606.68 -2.45086 -1.72491 0
M  V30 17308 H 1604.24 -1.40236 -0.809039 0
M  V30 17309 H 1606.23 -1.13212 -3.88542 0
M  V30 17310 H 1604.8 -0.419262 -3.09776 0
M  V30 17311 H 1604.02 -2.87282 -2.69931 0
M  V30 17312 H 1605.31 -3.37223 -3.80996 0
M  V30 17313 H 1604.7 -0.747509 -5.60739 0
M  V30 17314 H 1603.26 -1.24075 -6.39882 0
M  V30 17315 N 1606.69 0.865285 -1.31722 0
M  V30 17316 C 1607.66 1.95449 -1.19718 0
M  V30 17317 C 1608.66 1.60329 -0.123025 0
M  V30 17318 O 1609.85 1.70168 -0.372643 0
M  V30 17319 C 1606.98 3.30421 -0.838718 0
M  V30 17320 H 1608.17 2.07522 -2.16506 0
M  V30 17321 H 1605.73 1.05416 -1.154 0
M  V30 17322 H 1606.46 3.24048 0.127797 0
M  V30 17323 H 1606.25 3.57286 -1.61522 0
M  V30 17324 H 1607.74 4.10274 -0.77876 0
M  V30 17325 N 1608.17 1.14759 1.0802 0
M  V30 17326 C 1609.08 0.851934 2.18585 0
M  V30 17327 C 1610.1 -0.16914 1.73176 0
M  V30 17328 O 1611.27 0.00330114 2.014 0
M  V30 17329 C 1608.34 0.337977 3.45049 0
M  V30 17330 C 1607.4 1.4221 4.05061 0
M  V30 17331 C 1606.63 0.932574 5.25489 0
M  V30 17332 O 1606.86 -0.224457 5.69958 0
M  V30 17333 O 1605.79 1.7133 5.77001 0
M  V30 17334 H 1609.62 1.77605 2.46354 0
M  V30 17335 H 1607.2 0.926159 1.17229 0
M  V30 17336 H 1609.08 0.0574734 4.21361 0
M  V30 17337 H 1607.76 -0.558363 3.18848 0
M  V30 17338 H 1606.67 1.75612 3.3032 0
M  V30 17339 H 1608 2.29311 4.3552 0
M  V30 17340 N 1609.65 -1.26251 0.943322 0
M  V30 17341 C 1610.58 -2.28673 0.472347 0
M  V30 17342 C 1611.56 -1.63319 -0.475481 0
M  V30 17343 O 1612.75 -1.90508 -0.376875 0
M  V30 17344 C 1609.88 -3.46316 -0.261286 0
M  V30 17345 C 1608.83 -4.23771 0.600192 0
M  V30 17346 C 1608.16 -5.3405 -0.263525 0
M  V30 17347 C 1609.46 -4.87576 1.87262 0
M  V30 17348 H 1611.15 -2.68319 1.32836 0
M  V30 17349 H 1608.7 -1.28987 0.640182 0
M  V30 17350 H 1610.65 -4.1708 -0.601821 0
M  V30 17351 H 1609.37 -3.05629 -1.15146 0
M  V30 17352 H 1608.03 -3.54774 0.923651 0
M  V30 17353 H 1607.68 -4.89604 -1.15312 0
M  V30 17354 H 1607.38 -5.86784 0.309495 0
M  V30 17355 H 1608.9 -6.07652 -0.599281 0
M  V30 17356 H 1610.32 -5.50544 1.59919 0
M  V30 17357 H 1608.72 -5.50437 2.39038 0
M  V30 17358 H 1609.79 -4.10397 2.58268 0
M  V30 17359 N 1611.13 -0.710588 -1.40671 0
M  V30 17360 C 1612.04 -0.0557164 -2.34534 0
M  V30 17361 C 1613.06 0.749387 -1.57036 0
M  V30 17362 O 1614.23 0.683493 -1.89447 0
M  V30 17363 C 1611.3 0.858583 -3.35901 0
M  V30 17364 C 1610.36 0.043995 -4.29277 0
M  V30 17365 C 1609.59 0.91475 -5.25802 0
M  V30 17366 O 1609.81 2.15407 -5.28163 0
M  V30 17367 O 1608.75 0.356407 -6.00844 0
M  V30 17368 H 1612.57 -0.829807 -2.92144 0
M  V30 17369 H 1610.16 -0.471028 -1.4178 0
M  V30 17370 H 1612.04 1.38244 -3.98079 0
M  V30 17371 H 1610.72 1.61191 -2.80712 0
M  V30 17372 H 1609.62 -0.524815 -3.704 0
M  V30 17373 H 1610.96 -0.670996 -4.87605 0
M  V30 17374 N 1612.61 1.50847 -0.456408 0
M  V30 17375 C 1613.57 2.26755 0.33388 0
M  V30 17376 C 1614.57 1.30947 0.933247 0
M  V30 17377 O 1615.76 1.54499 0.804716 0
M  V30 17378 C 1612.89 3.07378 1.47417 0
M  V30 17379 H 1614.09 2.98061 -0.331634 0
M  V30 17380 H 1611.64 1.54882 -0.210067 0
M  V30 17381 H 1612.37 2.40534 2.17518 0
M  V30 17382 H 1612.16 3.7777 1.05036 0
M  V30 17383 H 1613.65 3.64826 2.03204 0
M  V30 17384 N 1614.09 0.188454 1.56469 0
M  V30 17385 C 1615.33 -0.452058 1.9739 0
M  V30 17386 C 1615.66 -1.62086 1.0751 0
M  V30 17387 O 1614.92 -1.95375 0.11278 0
M  V30 17388 C 1615.21 -0.960652 3.44247 0
M  V30 17389 C 1614.88 0.0940708 4.50802 0
M  V30 17390 C 1613.54 0.383899 4.79666 0
M  V30 17391 C 1615.89 0.80908 5.14882 0
M  V30 17392 C 1613.22 1.39383 5.69903 0
M  V30 17393 C 1615.57 1.80811 6.0621 0
M  V30 17394 C 1614.24 2.10521 6.33433 0
M  V30 17395 H 1613.51 -0.16542 0.7223 0
M  V30 17396 H 1616.16 0.284024 1.89382 0
M  V30 17397 H 1614.46 -1.77488 3.49292 0
M  V30 17398 H 1616.16 -1.46553 3.7326 0
M  V30 17399 H 1612.75 -0.141993 4.28365 0
M  V30 17400 H 1616.93 0.598391 4.92679 0
M  V30 17401 H 1612.19 1.63 5.89272 0
M  V30 17402 H 1616.36 2.36742 6.54925 0
M  V30 17403 H 1613.99 2.88924 7.03155 0
M  V30 17404 N 1615.56 -1.5737 -0.0851874 0
M  V30 17405 C 1616.53 -2.01789 -1.08692 0
M  V30 17406 C 1617.53 -0.912872 -1.32376 0
M  V30 17407 O 1618.72 -1.1781 -1.28322 0
M  V30 17408 C 1615.85 -2.38708 -2.43375 0
M  V30 17409 H 1617.04 -2.91511 -0.704359 0
M  V30 17410 H 1614.59 -1.52765 -0.330528 0
M  V30 17411 H 1615.33 -1.5197 -2.86488 0
M  V30 17412 H 1615.11 -3.19331 -2.2753 0
M  V30 17413 H 1616.6 -2.73697 -3.15404 0
M  V30 17414 N 1617.04 0.356258 -1.53521 0
M  V30 17415 C 1617.97 1.45965 -1.75413 0
M  V30 17416 C 1618.95 1.51015 -0.602774 0
M  V30 17417 O 1620.14 1.68925 -0.836459 0
M  V30 17418 C 1617.26 2.84276 -1.84132 0
M  V30 17419 C 1616.31 2.96909 -3.06182 0
M  V30 17420 S 1617.14 2.64695 -4.65507 0
M  V30 17421 C 1618.3 4.05138 -4.77089 0
M  V30 17422 H 1618.53 1.27176 -2.68726 0
M  V30 17423 H 1616.06 0.551163 -1.44227 0
M  V30 17424 H 1618.02 3.63965 -1.89842 0
M  V30 17425 H 1616.68 3.00369 -0.918542 0
M  V30 17426 H 1615.88 3.98226 -3.08921 0
M  V30 17427 H 1615.48 2.25154 -2.98633 0
M  V30 17428 H 1617.77 4.99502 -4.57717 0
M  V30 17429 H 1618.71 4.074 -5.79164 0
M  V30 17430 H 1619.12 3.92572 -4.05644 0
M  V30 17431 N 1618.52 1.45038 0.616577 0
M  V30 17432 C 1619.48 1.52647 1.70973 0
M  V30 17433 C 1620.48 0.406902 1.55567 0
M  V30 17434 O 1621.67 0.670062 1.60797 0
M  V30 17435 C 1618.8 1.41438 3.10174 0
M  V30 17436 H 1620 2.50036 1.65596 0
M  V30 17437 H 1617.55 1.32346 0.831524 0
M  V30 17438 H 1618.29 0.451991 3.21135 0
M  V30 17439 H 1618.07 2.22634 3.22764 0
M  V30 17440 H 1619.56 1.49776 3.89817 0
M  V30 17441 N 1620 -0.858287 1.32179 0
M  V30 17442 C 1620.93 -1.98219 1.23415 0
M  V30 17443 C 1621.91 -1.69685 0.118779 0
M  V30 17444 O 1623.09 -1.91785 0.305342 0
M  V30 17445 C 1620.22 -3.33977 0.952725 0
M  V30 17446 C 1619.18 -3.76853 2.02894 0
M  V30 17447 C 1618.5 -5.10201 1.59999 0
M  V30 17448 C 1619.8 -3.92707 3.44352 0
M  V30 17449 H 1621.5 -2.05809 2.17446 0
M  V30 17450 H 1619.04 -0.988817 1.04682 0
M  V30 17451 H 1621 -4.12152 0.87798 0
M  V30 17452 H 1619.72 -3.26592 -0.023234 0
M  V30 17453 H 1618.38 -3.00926 2.09378 0
M  V30 17454 H 1618.03 -4.99268 0.61157 0
M  V30 17455 H 1617.73 -5.39859 2.32004 0
M  V30 17456 H 1619.25 -5.90873 1.53954 0
M  V30 17457 H 1620.67 -4.61246 3.40477 0
M  V30 17458 H 1619.06 -4.33779 4.14675 0
M  V30 17459 H 1620.13 -2.95731 3.8428 0
M  V30 17460 N 1621.48 -1.1533 -1.07409 0
M  V30 17461 C 1622.7 -0.951643 -1.83715 0
M  V30 17462 C 1623.12 0.500054 -1.82057 0
M  V30 17463 O 1622.48 1.3468 -1.23157 0
M  V30 17464 C 1622.53 -1.45734 -3.30823 0
M  V30 17465 O 1622.25 -2.85217 -3.3254 0
M  V30 17466 C 1623.75 -1.29709 -4.23899 0
M  V30 17467 H 1620.97 -0.338021 -0.57964 0
M  V30 17468 H 1623.51 -1.53088 -1.35589 0
M  V30 17469 H 1621.67 -0.920643 -3.76302 0
M  V30 17470 H 1622.08 -3.08134 -4.24445 0
M  V30 17471 H 1623.56 -1.69938 -5.2519 0
M  V30 17472 H 1624.03 -0.241185 -4.38537 0
M  V30 17473 H 1624.64 -1.82283 -3.84256 0
M  V30 17474 N 1622.95 1.25748 -0.950004 0
M  V30 17475 C 1624.23 1.88566 -0.519839 0
M  V30 17476 C 1624.61 1.85761 1.00279 0
M  V30 17477 O 1623.96 1.31797 1.8666 0
M  V30 17478 C 1624.17 3.31502 -1.09121 0
M  V30 17479 C 1625.52 4.08298 -1.16524 0
M  V30 17480 O 1626.54 3.40605 -1.04243 0
M  V30 17481 O 1625.4 5.29375 -1.35735 0
M  V30 17482 H 1622.49 0.809175 -0.170777 0
M  V30 17483 H 1625.04 1.33853 -1.04314 0
M  V30 17484 H 1623.81 3.2795 -2.13458 0
M  V30 17485 H 1623.43 3.93765 -0.550881 0
M  V30 17486 N 1624.43 0.718038 1.40292 0
M  V30 17487 C 1625.66 0.266918 2.05675 0
M  V30 17488 C 1626.08 -1.08364 1.53749 0
M  V30 17489 O 1625.44 -1.6831 0.673912 0
M  V30 17490 C 1625.49 0.259606 3.59664 0
M  V30 17491 O 1624.59 -0.758372 4.05367 0
M  V30 17492 H 1623.93 0.124786 0.652169 0
M  V30 17493 H 1626.46 0.979207 1.79646 0
M  V30 17494 H 1626.47 0.098135 4.07882 0
M  V30 17495 H 1625.15 1.24517 3.96823 0
M  V30 17496 H 1623.72 -0.564425 3.68604 0
M  V30 17497 N 1625.91 -1.50602 0.464402 0
M  V30 17498 C 1627.16 -2.01887 -0.0927084 0
M  V30 17499 C 1627.48 -1.34891 -1.40817 0
M  V30 17500 O 1626.75 -0.492078 -1.89619 0
M  V30 17501 H 1625.33 -0.746071 -0.0372514 0
M  V30 17502 H 1627.99 -1.84999 0.613296 0
M  V30 17503 H 1627.09 -3.11105 -0.249067 0
M  V30 17504 N 1627.39 -0.19675 -1.56367 0
M  V30 17505 C 1628.8 0.315555 -1.84014 0
M  V30 17506 C 1629.15 1.61267 -1.11747 0
M  V30 17507 O 1628.28 2.13058 -0.378824 0
M  V30 17508 C 1628.87 0.579307 -3.33811 0
M  V30 17509 C 1627.43 1.03598 -3.61862 0
M  V30 17510 C 1626.58 0.0854845 -2.77168 0
M  V30 17511 H 1629.53 -0.4205 -1.53028 0
M  V30 17512 H 1629.55 1.42841 -3.52671 0
M  V30 17513 H 1629.06 -0.364925 -3.86381 0
M  V30 17514 H 1627.16 1.99443 -3.14727 0
M  V30 17515 H 1627.27 0.927547 -4.70035 0
M  V30 17516 H 1625.64 0.58768 -2.47827 0
M  V30 17517 H 1626.42 -0.853221 -3.32528 0
M  V30 17518 N 1628.87 1.57413 0.0768405 0
M  V30 17519 C 1629.81 2.0334 1.09185 0
M  V30 17520 C 1630.78 0.913073 1.38752 0
M  V30 17521 O 1631.97 1.18038 1.49906 0
M  V30 17522 C 1629.11 2.47805 2.40181 0
M  V30 17523 C 1628.22 3.73435 2.17188 0
M  V30 17524 C 1627.36 4.06703 3.41711 0
M  V30 17525 C 1626.4 5.25388 3.1406 0
M  V30 17526 N 1625.53 5.54319 4.309 0
M  V30 17527 H 1630.37 2.89825 0.693223 0
M  V30 17528 H 1627.91 1.43334 0.330736 0
M  V30 17529 H 1629.87 2.71635 3.16655 0
M  V30 17530 H 1628.5 1.64305 2.77856 0
M  V30 17531 H 1627.55 3.56974 1.3143 0
M  V30 17532 H 1628.86 4.60049 1.9276 0
M  V30 17533 H 1628.02 4.31407 4.26583 0
M  V30 17534 H 1626.75 3.18646 3.6921 0
M  V30 17535 H 1625.76 5.00486 2.27583 0
M  V30 17536 H 1626.98 6.15059 2.87888 0
M  V30 17537 H 1624.93 4.69222 4.5844 0
M  V30 17538 H 1624.85 6.35342 4.09727 0
M  V30 17539 H 1626.12 5.83571 5.16783 0
M  V30 17540 N 1630.34 -0.348112 1.53707 0
M  V30 17541 C 1631.59 -1.09048 1.70987 0
M  V30 17542 C 1631.92 -1.88444 0.469305 0
M  V30 17543 O 1631.2 -1.87037 -0.533629 0
M  V30 17544 C 1631.48 -2.03542 2.97057 0
M  V30 17545 C 1631.33 -1.27638 4.3131 0
M  V30 17546 C 1632.65 -3.03424 3.18782 0
M  V30 17547 H 1629.77 -0.395049 0.622178 0
M  V30 17548 H 1632.41 -0.369498 1.86373 0
M  V30 17549 H 1630.56 -2.65021 2.8407 0
M  V30 17550 H 1632.24 -0.688079 4.56139 0
M  V30 17551 H 1630.48 -0.578349 4.29927 0
M  V30 17552 H 1631.15 -1.96891 5.15692 0
M  V30 17553 H 1633.63 -2.52056 3.31069 0
M  V30 17554 H 1632.5 -3.66748 4.08396 0
M  V30 17555 H 1632.76 -3.74553 2.34866 0
M  V30 17556 N 1631.82 -1.45363 -0.608876 0
M  V30 17557 C 1632.77 -1.54268 -1.7408 0
M  V30 17558 C 1633.76 -0.412752 -1.64295 0
M  V30 17559 O 1634.97 -0.58861 -1.70104 0
M  V30 17560 H 1631.35 -0.484528 -0.575097 0
M  V30 17561 H 1633.32 -2.49492 -1.63696 0
M  V30 17562 C 1632.07 -1.5253 -3.12458 0
M  V30 17563 H 1631.39 -2.38801 -3.20646 0
M  V30 17564 H 1632.83 -1.62819 -3.91492 0
M  V30 17565 C 1631.29 -0.249525 -3.35975 0
M  V30 17566 O 1631.82 0.671159 -3.96053 0
M  V30 17567 N 1630.02 -0.145625 -2.90235 0
M  V30 17568 H 1629.57 -0.895714 -2.41526 0
M  V30 17569 H 1629.53 0.707167 -3.06344 0
M  V30 17570 N 1633.3 0.851265 -1.32632 0
M  V30 17571 C 1634.55 1.60057 -1.22738 0
M  V30 17572 C 1634.86 1.94485 0.208525 0
M  V30 17573 O 1636.07 2.68083 0.429361 0
M  V30 17574 C 1634.52 2.88634 -2.14985 0
M  V30 17575 C 1634.13 2.61617 -3.63676 0
M  V30 17576 C 1635.88 3.6665 -2.13935 0
M  V30 17577 C 1633.78 3.86215 -4.47875 0
M  V30 17578 H 1632.71 0.600617 -0.455824 0
M  V30 17579 H 1635.36 0.939671 -1.57615 0
M  V30 17580 H 1633.75 3.56199 -1.73027 0
M  V30 17581 H 1634.92 2.02342 -4.13998 0
M  V30 17582 H 1633.24 1.96926 -3.66891 0
M  V30 17583 H 1635.83 4.59114 -2.74078 0
M  V30 17584 H 1636.18 4.00636 -1.13121 0
M  V30 17585 H 1636.71 3.05993 -2.54192 0
M  V30 17586 H 1633.45 3.57367 -5.49517 0
M  V30 17587 H 1632.97 4.44874 -4.02302 0
M  V30 17588 H 1634.65 4.5392 -4.61049 0
M  V30 17589 N 1634.78 1.15898 1.06796 0
M  V30 17590 C 1636.03 0.931848 1.78884 0
M  V30 17591 C 1636.34 -0.54197 1.87942 0
M  V30 17592 O 1637.55 -0.886848 2.56607 0
M  V30 17593 C 1636 1.61788 3.21485 0
M  V30 17594 C 1635.61 3.12911 3.2061 0
M  V30 17595 C 1637.35 1.47252 3.98142 0
M  V30 17596 C 1635.26 3.74275 4.579 0
M  V30 17597 H 1634.19 0.344998 0.670442 0
M  V30 17598 H 1636.84 1.38974 1.19827 0
M  V30 17599 H 1635.22 1.08769 3.80769 0
M  V30 17600 H 1636.4 3.72732 2.70938 0
M  V30 17601 H 1634.71 3.27273 2.57451 0
M  V30 17602 H 1637.31 1.90484 4.9962 0
M  V30 17603 H 1637.65 0.420766 4.14168 0
M  V30 17604 H 1638.19 1.97398 3.45367 0
M  V30 17605 H 1634.93 4.79376 4.47078 0
M  V30 17606 H 1634.45 3.19238 5.07786 0
M  V30 17607 H 1636.12 3.75532 5.26863 0
M  V30 17608 N 1636.26 -1.25243 0.956659 0
M  V30 17609 C 1637.5 -1.93299 0.613446 0
M  V30 17610 C 1637.84 -1.74723 -0.847671 0
M  V30 17611 O 1637.11 -1.09357 -1.60846 0
M  V30 17612 C 1637.39 -3.46637 0.975421 0
M  V30 17613 C 1637.25 -3.74431 2.49242 0
M  V30 17614 C 1638.57 -4.37228 0.501948 0
M  V30 17615 H 1635.68 -0.702027 0.224338 0
M  V30 17616 H 1638.33 -1.47822 1.19368 0
M  V30 17617 H 1636.48 -3.85503 0.48167 0
M  V30 17618 H 1638.15 -3.4519 3.06009 0
M  V30 17619 H 1636.39 -3.19967 2.92923 0
M  V30 17620 H 1637.06 -4.81674 2.69619 0
M  V30 17621 H 1639.54 -4.05677 0.925514 0
M  V30 17622 H 1638.41 -5.43274 0.783895 0
M  V30 17623 H 1638.68 -4.38036 -0.598082 0
M  V30 17624 N 1637.73 -0.725468 -1.3991 0
M  V30 17625 C 1639.01 -0.195971 -1.94616 0
M  V30 17626 C 1639.39 1.30035 -1.66295 0
M  V30 17627 O 1638.74 2.06133 -0.985977 0
M  V30 17628 C 1638.95 -0.519325 -3.45115 0
M  V30 17629 C 1640.3 -0.46341 -4.22064 0
M  V30 17630 O 1641.32 -0.455958 -3.5327 0
M  V30 17631 O 1640.18 -0.449579 -5.44648 0
M  V30 17632 H 1637.27 -0.0325409 -0.82636 0
M  V30 17633 H 1639.82 -0.803676 -1.49463 0
M  V30 17634 H 1638.59 -1.55386 -3.59125 0
M  V30 17635 H 1638.22 0.117838 -3.97425 0
M  V30 17636 N 1639.21 1.50354 -0.472382 0
M  V30 17637 C 1640.44 2.07238 0.0820787 0
M  V30 17638 C 1640.86 1.3338 1.32632 0
M  V30 17639 O 1640.22 0.381857 1.77233 0
M  V30 17640 C 1640.27 3.58919 0.347746 0
M  V30 17641 O 1639.37 3.86888 1.42799 0
M  V30 17642 H 1638.71 0.663862 -0.0135544 0
M  V30 17643 H 1641.24 1.93533 -0.663795 0
M  V30 17644 H 1641.25 4.03743 0.587855 0
M  V30 17645 H 1639.93 4.12093 -0.56147 0
M  V30 17646 H 1638.51 3.53901 1.17509 0
M  V30 17647 N 1640.69 0.205039 1.56261 0
M  V30 17648 C 1641.62 -0.743854 2.16794 0
M  V30 17649 C 1642.64 -1.16959 1.13245 0
M  V30 17650 O 1643.83 -1.1036 1.40296 0
M  V30 17651 C 1640.93 -2.01717 2.7233 0
M  V30 17652 C 1640.1 -1.74965 4.00882 0
M  V30 17653 C 1639.16 -2.86841 4.41145 0
M  V30 17654 O 1638.18 -2.5602 5.08372 0
M  V30 17655 N 1639.39 -4.15425 4.05466 0
M  V30 17656 H 1642.15 -0.226145 2.98846 0
M  V30 17657 H 1639.71 0.0234276 1.61883 0
M  V30 17658 H 1641.7 -2.7572 2.96244 0
M  V30 17659 H 1640.27 -2.44582 1.94675 0
M  V30 17660 H 1639.49 -0.846903 3.84995 0
M  V30 17661 H 1640.78 -1.54501 4.84775 0
M  V30 17662 H 1640.18 -4.43314 3.5141 0
M  V30 17663 H 1638.74 -4.86023 4.3431 0
M  V30 17664 N 1642.17 -1.57451 -0.0684915 0
M  V30 17665 C 1643.4 -1.91362 -0.778724 0
M  V30 17666 C 1643.81 -0.799579 -1.71474 0
M  V30 17667 O 1643.15 0.235727 -1.82181 0
M  V30 17668 C 1643.21 -3.20767 -1.62323 0
M  V30 17669 C 1642.88 -4.48907 -0.85623 0
M  V30 17670 C 1643.87 -5.19609 -0.173992 0
M  V30 17671 C 1641.56 -4.95521 -0.822427 0
M  V30 17672 C 1643.55 -6.35178 0.531784 0
M  V30 17673 C 1641.24 -6.10996 -0.11288 0
M  V30 17674 C 1642.24 -6.80675 0.563022 0
M  V30 17675 O 1641.93 -7.93946 1.26113 0
M  V30 17676 H 1641.66 -0.636969 -0.226376 0
M  V30 17677 H 1644.21 -2.05357 -0.0420481 0
M  V30 17678 H 1642.44 -3.0299 -2.40279 0
M  V30 17679 H 1644.13 -3.40303 -2.21244 0
M  V30 17680 H 1644.9 -4.84622 -0.191393 0
M  V30 17681 H 1640.78 -4.41156 -1.33798 0
M  V30 17682 H 1644.32 -6.89501 1.05991 0
M  V30 17683 H 1640.22 -6.45432 -0.0934182 0
M  V30 17684 H 1640.98 -8.10084 1.17074 0
M  V30 17685 N 1643.65 0.339955 -1.5389 0
M  V30 17686 C 1644.89 1.08139 -1.71563 0
M  V30 17687 C 1645.23 1.88193 -0.479292 0
M  V30 17688 O 1644.5 1.87317 0.523702 0
M  V30 17689 C 1644.78 2.01963 -2.98132 0
M  V30 17690 C 1644.64 1.25349 -4.31981 0
M  V30 17691 C 1645.96 3.01729 -3.20387 0
M  V30 17692 H 1643.08 0.391744 -0.624264 0
M  V30 17693 H 1645.72 0.359609 -1.86566 0
M  V30 17694 H 1643.87 2.63511 -2.85472 0
M  V30 17695 H 1645.54 0.66388 -4.56498 0
M  V30 17696 H 1643.78 0.555541 -4.30228 0
M  V30 17697 H 1644.45 1.94154 -5.16728 0
M  V30 17698 H 1646.93 2.50297 -3.32401 0
M  V30 17699 H 1645.81 3.64577 -4.10335 0
M  V30 17700 H 1646.07 3.73303 -2.36849 0
M  V30 17701 N 1645.13 1.45684 0.601159 0
M  V30 17702 C 1646.06 1.49342 1.72546 0
M  V30 17703 C 1647.04 0.349184 1.58806 0
M  V30 17704 O 1648.22 0.550634 1.80278 0
M  V30 17705 C 1645.35 1.35455 3.10435 0
M  V30 17706 C 1644.39 2.53826 3.42746 0
M  V30 17707 S 1645.23 4.16269 3.36869 0
M  V30 17708 C 1646.38 4.04858 4.77326 0
M  V30 17709 H 1646.62 2.44469 1.69181 0
M  V30 17710 H 1644.15 1.33345 0.778358 0
M  V30 17711 H 1646.11 1.2813 3.89991 0
M  V30 17712 H 1644.77 0.417881 3.11308 0
M  V30 17713 H 1643.96 2.40053 4.4316 0
M  V30 17714 H 1643.56 2.58046 2.70718 0
M  V30 17715 H 1645.85 3.704 5.67283 0
M  V30 17716 H 1646.8 5.05207 4.96157 0
M  V30 17717 H 1647.21 3.36408 4.5331 0
M  V30 17718 N 1646.6 -0.84422 1.33082 0
M  V30 17719 C 1647.85 -1.59596 1.2399 0
M  V30 17720 C 1648.17 -1.94016 -0.19566 0
M  V30 17721 O 1647.44 -1.60512 -1.12306 0
M  V30 17722 H 1646.02 -0.591727 0.455926 0
M  V30 17723 H 1648.68 -1.00924 1.66735 0
M  V30 17724 H 1647.78 -2.52829 1.82986 0
M  V30 17725 N 1648.08 -1.16463 -1.0618 0
M  V30 17726 C 1649.33 -0.941322 -1.78387 0
M  V30 17727 C 1649.64 0.531995 -1.88226 0
M  V30 17728 O 1650.85 0.873227 -2.57074 0
M  V30 17729 C 1649.31 -1.63491 -3.20623 0
M  V30 17730 C 1648.91 -3.14607 -3.18946 0
M  V30 17731 C 1650.66 -1.49361 -3.97356 0
M  V30 17732 C 1648.56 -3.76698 -4.55908 0
M  V30 17733 H 1647.49 -0.348549 -0.668603 0
M  V30 17734 H 1650.15 -1.39607 -1.19088 0
M  V30 17735 H 1648.53 -1.10787 -3.80187 0
M  V30 17736 H 1649.7 -3.74164 -2.68957 0
M  V30 17737 H 1648.02 -3.28634 -2.55712 0
M  V30 17738 H 1650.61 -1.93131 -4.98603 0
M  V30 17739 H 1650.96 -0.442724 -4.13939 0
M  V30 17740 H 1651.49 -1.99227 -3.44316 0
M  V30 17741 H 1648.23 -4.8174 -4.4453 0
M  V30 17742 H 1647.75 -3.21927 -5.06086 0
M  V30 17743 H 1649.43 -3.78321 -5.24864 0
M  V30 17744 N 1649.56 1.24734 -0.963288 0
M  V30 17745 C 1650.78 1.97285 -0.639808 0
M  V30 17746 C 1651.21 1.71024 0.783099 0
M  V30 17747 O 1650.57 0.971324 1.53085 0
M  V30 17748 C 1650.62 3.48793 -0.915197 0
M  V30 17749 O 1649.72 4.124 0.00162805 0
M  V30 17750 H 1649.06 0.618196 -0.242343 0
M  V30 17751 H 1651.59 1.58627 -1.29224 0
M  V30 17752 H 1651.6 3.99155 -0.84495 0
M  V30 17753 H 1650.28 3.67235 -1.95221 0
M  V30 17754 H 1648.85 3.72702 -0.121563 0
M  V30 17755 N 1651.04 0.732878 1.39523 0
M  V30 17756 C 1652 0.10004 2.28982 0
M  V30 17757 C 1653 -0.669361 1.46206 0
M  V30 17758 O 1654.19 -0.498694 1.66909 0
M  V30 17759 C 1651.32 -0.867616 3.29674 0
M  V30 17760 H 1652.52 0.88816 2.86447 0
M  V30 17761 H 1650.07 0.498578 1.48135 0
M  V30 17762 H 1650.8 -1.68217 2.77261 0
M  V30 17763 H 1650.59 -0.318577 3.90804 0
M  V30 17764 H 1652.08 -1.30704 3.96618 0
M  V30 17765 N 1652.52 -1.50101 0.480349 0
M  V30 17766 C 1653.74 -2.07278 -0.0710872 0
M  V30 17767 C 1654.17 -1.34082 -1.31923 0
M  V30 17768 O 1653.52 -0.391251 -1.77028 0
M  V30 17769 C 1653.57 -3.59099 -0.328706 0
M  V30 17770 O 1652.68 -3.8764 -1.40745 0
M  V30 17771 H 1652.02 -0.66378 0.0170748 0
M  V30 17772 H 1654.55 -1.93178 0.674049 0
M  V30 17773 H 1654.56 -4.04049 -0.566435 0
M  V30 17774 H 1653.23 -4.11789 0.583316 0
M  V30 17775 H 1651.81 -3.54519 -1.15631 0
M  V30 17776 N 1653.99 -0.213323 -1.5615 0
M  V30 17777 C 1654.93 0.732346 -2.17185 0
M  V30 17778 C 1655.94 1.16357 -1.13864 0
M  V30 17779 O 1657.13 1.09614 -1.40879 0
M  V30 17780 C 1654.23 2.0027 -2.73395 0
M  V30 17781 C 1653.4 1.72836 -4.01804 0
M  V30 17782 C 1652.46 2.84497 -4.4266 0
M  V30 17783 O 1651.49 2.5332 -5.09723 0
M  V30 17784 N 1652.69 4.13268 -4.07663 0
M  V30 17785 H 1655.45 0.210294 -2.98961 0
M  V30 17786 H 1653.01 -0.0320124 -1.61868 0
M  V30 17787 H 1655.01 2.74145 -2.97702 0
M  V30 17788 H 1653.58 2.43546 -1.9597 0
M  V30 17789 H 1652.8 0.826474 -3.85439 0
M  V30 17790 H 1654.08 1.51928 -4.85588 0
M  V30 17791 H 1653.48 4.41444 -3.53756 0
M  V30 17792 H 1652.04 4.83713 -4.36881 0
M  V30 17793 N 1655.47 1.57485 0.0601405 0
M  V30 17794 C 1656.88 1.76433 0.610583 0
M  V30 17795 C 1657.23 0.840353 1.77292 0
M  V30 17796 O 1656.36 0.0273238 2.16383 0
M  V30 17797 C 1656.95 3.19947 1.11441 0
M  V30 17798 C 1655.51 3.402 1.61062 0
M  V30 17799 C 1654.66 2.72089 0.535055 0
M  V30 17800 H 1657.61 1.57829 -0.166062 0
M  V30 17801 H 1657.63 3.24749 1.98288 0
M  V30 17802 H 1657.14 3.87172 0.268233 0
M  V30 17803 H 1655.25 2.78106 2.47967 0
M  V30 17804 H 1655.36 4.48696 1.67954 0
M  V30 17805 H 1653.72 2.34972 0.982855 0
M  V30 17806 H 1654.51 3.41977 -0.301135 0
M  V30 17807 N 1656.95 -0.331789 1.54068 0
M  V30 17808 C 1658.18 -1.09044 1.75832 0
M  V30 17809 C 1658.59 -1.81976 0.503012 0
M  V30 17810 O 1657.95 -1.74758 -0.525913 0
M  V30 17811 C 1658 -2.09489 2.94613 0
M  V30 17812 O 1657.72 -1.39521 4.1529 0
M  V30 17813 C 1659.22 -2.97637 3.28522 0
M  V30 17814 H 1656.44 -0.324701 0.587205 0
M  V30 17815 H 1658.99 -0.380417 2.00931 0
M  V30 17816 H 1657.14 -2.76038 2.71812 0
M  V30 17817 H 1657.56 -2.06717 4.82046 0
M  V30 17818 H 1659.03 -3.64027 4.14956 0
M  V30 17819 H 1659.51 -3.64292 2.45332 0
M  V30 17820 H 1660.11 -2.3666 3.53372 0
M  V30 17821 N 1658.43 -1.46001 -0.593424 0
M  V30 17822 C 1659.34 -1.58316 -1.73128 0
M  V30 17823 C 1660.35 -0.467029 -1.67615 0
M  V30 17824 O 1661.53 -0.729682 -1.87717 0
M  V30 17825 C 1658.6 -1.56007 -3.09617 0
M  V30 17826 C 1657.66 -2.78769 -3.26475 0
M  V30 17827 C 1656.89 -2.76561 -4.56453 0
M  V30 17828 O 1657.11 -1.84694 -5.39671 0
M  V30 17829 O 1656.05 -3.67959 -4.76329 0
M  V30 17830 H 1659.87 -2.54522 -1.65686 0
M  V30 17831 H 1657.46 -1.28672 -0.759204 0
M  V30 17832 H 1659.34 -1.57377 -3.9091 0
M  V30 17833 H 1658.01 -0.629571 -3.17519 0
M  V30 17834 H 1656.92 -2.82956 -2.44717 0
M  V30 17835 H 1658.25 -3.70992 -3.23459 0
M  V30 17836 N 1659.91 0.83715 -1.33527 0
M  V30 17837 C 1661.13 1.62976 -1.28271 0
M  V30 17838 C 1661.56 1.87554 0.143201 0
M  V30 17839 O 1660.91 1.44088 1.10038 0
M  V30 17840 C 1660.96 2.95607 -2.06516 0
M  V30 17841 O 1660.07 3.87 -1.42494 0
M  V30 17842 H 1659.41 0.496212 -0.441214 0
M  V30 17843 H 1661.94 1.04137 -1.76115 0
M  V30 17844 H 1661.95 3.4529 -2.17344 0
M  V30 17845 H 1660.62 2.77041 -3.10195 0
M  V30 17846 H 1659.2 3.45492 -1.40321 0
M  V30 17847 N 1661.38 1.17024 1.05561 0
M  V30 17848 C 1662.29 0.898107 2.16728 0
M  V30 17849 C 1663.31 -0.132369 1.73496 0
M  V30 17850 O 1664.49 0.0460203 2.01347 0
M  V30 17851 C 1661.55 0.411091 3.44254 0
M  V30 17852 C 1660.61 1.5077 4.01954 0
M  V30 17853 C 1659.85 1.04383 5.23393 0
M  V30 17854 O 1660.07 -0.10351 5.70306 0
M  V30 17855 O 1659 1.8353 5.73237 0
M  V30 17856 H 1662.83 1.82791 2.42531 0
M  V30 17857 H 1660.41 0.950816 1.15238 0
M  V30 17858 H 1662.3 0.146837 4.21144 0
M  V30 17859 H 1660.97 -0.490605 3.19961 0
M  V30 17860 H 1659.88 1.82579 3.26521 0
M  V30 17861 H 1661.21 2.38497 4.30558 0
M  V30 17862 N 1662.86 -1.24221 0.969889 0
M  V30 17863 C 1664.09 -1.96943 0.650262 0
M  V30 17864 C 1664.51 -1.71437 -0.774018 0
M  V30 17865 O 1663.87 -0.979428 -1.52568 0
M  V30 17866 C 1663.92 -3.48303 0.933682 0
M  V30 17867 O 1663.02 -4.12395 0.0202425 0
M  V30 17868 H 1662.36 -0.616902 0.245618 0
M  V30 17869 H 1664.89 -1.57939 1.30063 0
M  V30 17870 H 1664.9 -3.98701 0.866106 0
M  V30 17871 H 1663.58 -3.66194 1.97166 0
M  V30 17872 H 1662.16 -3.72632 0.141327 0
M  V30 17873 N 1664.34 -0.740267 -1.39132 0
M  V30 17874 C 1665.29 -0.103744 -2.30567 0
M  V30 17875 C 1666.26 0.724026 -1.49489 0
M  V30 17876 O 1667.44 0.682904 -1.7816 0
M  V30 17877 C 1664.58 0.793587 -3.35851 0
M  V30 17878 C 1663.7 -0.0473671 -4.31974 0
M  V30 17879 C 1662.83 0.851726 -5.24327 0
M  V30 17880 C 1661.87 0.00633633 -6.121 0
M  V30 17881 N 1661.01 0.861652 -6.96793 0
M  V30 17882 H 1665.85 -0.889087 -2.84428 0
M  V30 17883 H 1663.38 -0.450093 -1.40045 0
M  V30 17884 H 1665.34 1.32834 -3.95488 0
M  V30 17885 H 1663.97 1.54485 -2.83433 0
M  V30 17886 H 1663.02 -0.699601 -3.73911 0
M  V30 17887 H 1664.34 -0.700806 -4.93852 0
M  V30 17888 H 1663.49 1.45413 -5.89016 0
M  V30 17889 H 1662.23 1.53893 -4.62783 0
M  V30 17890 H 1661.23 -0.608833 -5.46419 0
M  V30 17891 H 1662.46 -0.677731 -6.7571 0
M  V30 17892 H 1660.4 1.53405 -6.37811 0
M  V30 17893 H 1660.32 0.264812 -7.55536 0
M  V30 17894 H 1661.59 1.44945 -7.65905 0
M  V30 17895 N 1665.82 1.49844 -0.488302 0
M  V30 17896 C 1667.07 2.01603 0.0624744 0
M  V30 17897 C 1667.38 1.37397 1.39217 0
M  V30 17898 O 1668.59 1.8041 2.0289 0
M  V30 17899 C 1667.04 3.59536 0.161824 0
M  V30 17900 C 1666.65 4.32709 -1.16047 0
M  V30 17901 C 1668.39 4.1928 0.663642 0
M  V30 17902 C 1666.3 5.82468 -1.02397 0
M  V30 17903 H 1665.23 0.753512 0.0271222 0
M  V30 17904 H 1667.88 1.72499 -0.625805 0
M  V30 17905 H 1666.26 3.85301 0.914273 0
M  V30 17906 H 1667.44 4.18655 -1.92522 0
M  V30 17907 H 1665.75 3.84652 -1.59473 0
M  V30 17908 H 1668.35 5.28935 0.783069 0
M  V30 17909 H 1668.69 3.81801 1.65933 0
M  V30 17910 H 1669.23 3.97787 -0.0319078 0
M  V30 17911 H 1665.97 6.2445 -1.99355 0
M  V30 17912 H 1665.49 5.9905 -0.299902 0
M  V30 17913 H 1667.16 6.43229 -0.697538 0
M  V30 17914 N 1667.3 0.221601 1.56034 0
M  V30 17915 C 1668.54 -0.410695 1.98598 0
M  V30 17916 C 1668.88 -1.59412 1.10912 0
M  V30 17917 O 1668.15 -1.93783 0.166819 0
M  V30 17918 C 1668.43 -0.845199 3.50041 0
M  V30 17919 C 1668.29 0.341866 4.48499 0
M  V30 17920 C 1669.61 -1.70135 4.05884 0
M  V30 17921 H 1666.72 -0.147808 0.722026 0
M  V30 17922 H 1669.37 0.317846 1.87323 0
M  V30 17923 H 1667.52 -1.46597 3.5978 0
M  V30 17924 H 1669.19 0.980014 4.5077 0
M  V30 17925 H 1667.43 0.989294 4.22369 0
M  V30 17926 H 1668.1 -0.00509234 5.52 0
M  V30 17927 H 1670.58 -1.17757 3.9909 0
M  V30 17928 H 1669.45 -1.97427 5.12166 0
M  V30 17929 H 1669.72 -2.66469 3.5277 0
M  V30 17930 N 1668.77 -1.57515 -0.0517878 0
M  V30 17931 C 1669.72 -2.06114 -1.07795 0
M  V30 17932 C 1670.72 -0.97034 -1.38855 0
M  V30 17933 O 1671.92 -1.15536 -1.38027 0
M  V30 17934 H 1668.3 -0.657451 -0.365051 0
M  V30 17935 H 1670.27 -2.9141 -0.642068 0
M  V30 17936 C 1669.02 -2.53728 -2.37734 0
M  V30 17937 H 1668.34 -3.37266 -2.14689 0
M  V30 17938 H 1669.78 -2.91466 -3.07934 0
M  V30 17939 C 1668.24 -1.42868 -3.05107 0
M  V30 17940 O 1668.77 -0.782025 -3.94014 0
M  V30 17941 N 1666.98 -1.16882 -2.66058 0
M  V30 17942 H 1666.52 -1.6965 -1.93847 0
M  V30 17943 H 1666.48 -0.429164 -3.11457 0
M  V30 17944 N 1670.25 0.323614 -1.54242 0
M  V30 17945 C 1671.19 1.41936 -1.79963 0
M  V30 17946 C 1672.2 1.47845 -0.681604 0
M  V30 17947 O 1673.39 1.50569 -0.95871 0
M  V30 17948 C 1670.49 2.80472 -1.90233 0
M  V30 17949 C 1669.66 2.97768 -3.20395 0
M  V30 17950 C 1668.72 4.16664 -3.21368 0
M  V30 17951 O 1667.75 4.09827 -3.95007 0
M  V30 17952 N 1668.95 5.26196 -2.45148 0
M  V30 17953 H 1671.71 1.20235 -2.74524 0
M  V30 17954 H 1669.27 0.513599 -1.53538 0
M  V30 17955 H 1671.27 3.58219 -1.88312 0
M  V30 17956 H 1669.84 2.95224 -1.02769 0
M  V30 17957 H 1669.06 2.07322 -3.35278 0
M  V30 17958 H 1670.34 3.06219 -4.06334 0
M  V30 17959 H 1669.74 5.34626 -1.84909 0
M  V30 17960 H 1668.3 6.02362 -2.49004 0
M  V30 17961 N 1671.73 1.46313 0.585673 0
M  V30 17962 C 1672.98 1.50738 1.34019 0
M  V30 17963 C 1673.29 0.162245 1.94926 0
M  V30 17964 O 1674.5 0.0842676 2.71369 0
M  V30 17965 C 1672.96 2.65592 2.42876 0
M  V30 17966 C 1672.56 4.06513 1.88285 0
M  V30 17967 C 1674.31 2.79284 3.19689 0
M  V30 17968 C 1672.21 5.12712 2.94754 0
M  V30 17969 H 1671.14 0.560979 0.503804 0
M  V30 17970 H 1673.8 1.72516 0.625344 0
M  V30 17971 H 1672.18 2.37138 3.17146 0
M  V30 17972 H 1673.35 4.44744 1.20578 0
M  V30 17973 H 1671.67 3.97462 1.2415 0
M  V30 17974 H 1674.26 3.55795 3.99142 0
M  V30 17975 H 1674.61 1.86694 3.7209 0
M  V30 17976 H 1675.14 3.0737 2.52525 0
M  V30 17977 H 1671.88 6.07084 2.47244 0
M  V30 17978 H 1671.4 4.79028 3.6096 0
M  V30 17979 H 1673.08 5.38426 3.58757 0
M  V30 17980 N 1673.21 -0.830057 1.33969 0
M  V30 17981 C 1674.46 -1.58084 1.25269 0
M  V30 17982 C 1674.77 -1.94792 -0.177557 0
M  V30 17983 O 1675.98 -2.68733 -0.386657 0
M  V30 17984 C 1674.43 -2.85177 2.1955 0
M  V30 17985 C 1674.04 -2.55798 3.67792 0
M  V30 17986 C 1675.79 -3.632 2.19741 0
M  V30 17987 C 1673.69 -3.79041 4.53963 0
M  V30 17988 H 1672.62 -0.593289 0.465321 0
M  V30 17989 H 1675.27 -0.914476 1.5909 0
M  V30 17990 H 1673.66 -3.53401 1.78672 0
M  V30 17991 H 1674.83 -1.9573 4.17165 0
M  V30 17992 H 1673.14 -1.91064 3.69978 0
M  V30 17993 H 1675.74 -4.54695 2.81347 0
M  V30 17994 H 1676.08 -3.98786 1.1948 0
M  V30 17995 H 1676.62 -3.0191 2.59028 0
M  V30 17996 H 1673.36 -3.4858 5.55133 0
M  V30 17997 H 1672.88 -4.38417 4.09329 0
M  V30 17998 H 1674.56 -4.46527 4.68212 0
M  V30 17999 N 1674.69 -1.17582 -1.04939 0
M  V30 18000 C 1675.6 -0.909588 -2.16249 0
M  V30 18001 C 1676.61 0.123166 -1.73564 0
M  V30 18002 O 1677.79 -0.0566976 -2.0132 0
M  V30 18003 C 1674.85 -0.429342 -3.44031 0
M  V30 18004 C 1673.92 -1.529 -4.01149 0
M  V30 18005 C 1673.15 -1.07157 -5.22832 0
M  V30 18006 O 1673.37 0.0732634 -5.70353 0
M  V30 18007 O 1672.31 -1.86567 -5.72255 0
M  V30 18008 H 1676.13 -1.84074 -2.41558 0
M  V30 18009 H 1673.72 -0.956914 -1.14732 0
M  V30 18010 H 1675.6 -0.16917 -4.2106 0
M  V30 18011 H 1674.27 0.473629 -3.20216 0
M  V30 18012 H 1673.18 -1.84308 -3.25548 0
M  V30 18013 H 1674.51 -2.40777 -4.29287 0
M  V30 18014 N 1676.17 1.23705 -0.976463 0
M  V30 18015 C 1677.08 2.28728 -0.521605 0
M  V30 18016 C 1678.09 1.68813 0.421691 0
M  V30 18017 O 1679.27 1.99263 0.292579 0
M  V30 18018 C 1676.33 3.4627 0.172545 0
M  V30 18019 C 1675.39 4.21557 -0.811664 0
M  V30 18020 C 1674.63 5.33488 -0.150546 0
M  V30 18021 O 1674.85 5.60478 1.05926 0
M  V30 18022 O 1673.78 5.95909 -0.847132 0
M  V30 18023 H 1677.61 2.6977 -1.39491 0
M  V30 18024 H 1675.19 1.29562 -0.743909 0
M  V30 18025 H 1677.08 4.17634 0.562103 0
M  V30 18026 H 1675.75 3.07187 1.02067 0
M  V30 18027 H 1674.66 3.52533 -1.25185 0
M  V30 18028 H 1675.99 4.6448 -1.62848 0
M  V30 18029 N 1677.64 0.747635 1.38738 0
M  V30 18030 C 1678.58 0.0644992 2.28109 0
M  V30 18031 C 1679.55 -0.734554 1.45062 0
M  V30 18032 O 1680.74 -0.714444 1.74436 0
M  V30 18033 C 1677.87 -0.915595 3.2609 0
M  V30 18034 C 1676.91 -0.203499 4.26014 0
M  V30 18035 S 1677.74 1.09151 5.24258 0
M  V30 18036 C 1678.9 0.114334 6.25796 0
M  V30 18037 H 1679.13 0.822371 2.857 0
M  V30 18038 H 1676.67 0.539962 1.44651 0
M  V30 18039 H 1678.62 -1.47575 3.83056 0
M  V30 18040 H 1677.29 -1.6464 2.67493 0
M  V30 18041 H 1676.48 -0.945572 4.9505 0
M  V30 18042 H 1676.08 0.284966 3.72913 0
M  V30 18043 H 1678.37 -0.721737 6.73645 0
M  V30 18044 H 1679.32 0.772189 7.03877 0
M  V30 18045 H 1679.72 -0.263706 5.63884 0
M  V30 18046 N 1679.12 -1.49583 0.496242 0
M  V30 18047 C 1680.37 -2.01634 -0.051782 0
M  V30 18048 C 1680.68 -1.38133 -1.38487 0
M  V30 18049 O 1681.89 -1.81484 -2.0193 0
M  V30 18050 C 1680.35 -3.59617 -0.142755 0
M  V30 18051 C 1679.95 -4.32088 1.1834 0
M  V30 18052 C 1681.7 -4.19626 -0.641397 0
M  V30 18053 C 1679.6 -5.81917 1.05485 0
M  V30 18054 H 1678.53 -0.753645 -0.0231258 0
M  V30 18055 H 1681.19 -1.72165 0.634944 0
M  V30 18056 H 1679.57 -3.85781 -0.893826 0
M  V30 18057 H 1680.74 -4.17628 1.94739 0
M  V30 18058 H 1679.06 -3.83801 1.61511 0
M  V30 18059 H 1681.65 -5.29343 -0.755008 0
M  V30 18060 H 1682 -3.82676 -1.63906 0
M  V30 18061 H 1682.53 -3.97765 0.053003 0
M  V30 18062 H 1679.27 -6.23384 2.02664 0
M  V30 18063 H 1678.79 -5.98882 0.331667 0
M  V30 18064 H 1680.47 -6.4285 0.731641 0
M  V30 18065 N 1680.6 -0.229873 -1.55915 0
M  V30 18066 C 1681.55 0.676809 -2.20653 0
M  V30 18067 C 1682.52 1.18412 -1.16481 0
M  V30 18068 O 1683.7 1.2417 -1.44867 0
M  V30 18069 C 1680.84 1.87567 -2.89677 0
M  V30 18070 C 1679.95 1.40648 -4.08463 0
M  V30 18071 C 1679.09 2.56356 -4.65247 0
M  V30 18072 C 1678.13 2.06215 -5.76318 0
M  V30 18073 N 1677.27 3.15226 -6.27357 0
M  V30 18074 H 1682.11 0.118035 -2.97766 0
M  V30 18075 H 1679.64 0.0465042 -1.47026 0
M  V30 18076 H 1681.6 2.57968 -3.27884 0
M  V30 18077 H 1680.23 2.40719 -2.15067 0
M  V30 18078 H 1679.28 0.597104 -3.75684 0
M  V30 18079 H 1680.59 0.998877 -4.88696 0
M  V30 18080 H 1679.75 3.34827 -5.05941 0
M  V30 18081 H 1678.49 3.0041 -3.84194 0
M  V30 18082 H 1677.49 1.26209 -5.35118 0
M  V30 18083 H 1678.72 1.63151 -6.59211 0
M  V30 18084 H 1676.66 3.58746 -5.49215 0
M  V30 18085 H 1676.58 2.78744 -7.02736 0
M  V30 18086 H 1677.85 3.93807 -6.72708 0
M  V30 18087 N 1682.08 1.5754 0.0434337 0
M  V30 18088 C 1683.02 2.0561 1.04848 0
M  V30 18089 C 1683.99 0.942299 1.36784 0
M  V30 18090 O 1685.18 1.21191 1.47368 0
M  V30 18091 C 1682.32 2.52844 2.3487 0
M  V30 18092 C 1681.43 3.77958 2.09218 0
M  V30 18093 C 1680.57 4.13859 3.33007 0
M  V30 18094 C 1679.61 5.31932 3.02845 0
M  V30 18095 N 1678.74 5.63335 4.19045 0
M  V30 18096 H 1683.58 2.9123 0.631591 0
M  V30 18097 H 1681.12 1.44003 0.300258 0
M  V30 18098 H 1683.08 2.78291 3.10822 0
M  V30 18099 H 1681.71 1.70161 2.74308 0
M  V30 18100 H 1680.76 3.59681 1.23828 0
M  V30 18101 H 1682.07 4.64034 1.82958 0
M  V30 18102 H 1681.23 4.40358 4.17336 0
M  V30 18103 H 1679.97 3.26406 3.62368 0
M  V30 18104 H 1678.97 5.052 2.16916 0
M  V30 18105 H 1680.2 6.21027 2.74777 0
M  V30 18106 H 1678.14 4.7884 4.48384 0
M  V30 18107 H 1678.06 6.4389 3.96158 0
M  V30 18108 H 1679.33 5.94402 5.04289 0
M  V30 18109 N 1683.56 -0.31543 1.54411 0
M  V30 18110 C 1684.47 -1.41136 1.87397 0
M  V30 18111 C 1685.48 -1.56199 0.76668 0
M  V30 18112 O 1686.66 -1.71139 1.06176 0
M  V30 18113 C 1683.72 -2.75731 2.10174 0
M  V30 18114 C 1682.78 -2.69776 3.33945 0
M  V30 18115 C 1682.02 -3.97952 3.55626 0
M  V30 18116 O 1682.24 -4.96614 2.80589 0
M  V30 18117 O 1681.17 -4.00719 4.49119 0
M  V30 18118 H 1685 -1.16167 2.80605 0
M  V30 18119 H 1682.58 -0.510193 1.40419 0
M  V30 18120 H 1684.47 -3.55392 2.26439 0
M  V30 18121 H 1683.14 -3.00574 1.20154 0
M  V30 18122 H 1682.05 -1.88638 3.23058 0
M  V30 18123 H 1683.38 -2.49887 4.24049 0
M  V30 18124 N 1685.03 -1.46622 -0.577906 0
M  V30 18125 C 1686 -1.57126 -1.66865 0
M  V30 18126 C 1687 -0.448004 -1.54433 0
M  V30 18127 O 1688.19 -0.712459 -1.58964 0
M  V30 18128 C 1685.32 -1.49612 -3.06315 0
M  V30 18129 H 1686.51 -2.54338 -1.58909 0
M  V30 18130 H 1684.07 -1.34504 -0.796142 0
M  V30 18131 H 1684.8 -0.536976 -3.19823 0
M  V30 18132 H 1684.59 -2.31113 -3.16748 0
M  V30 18133 H 1686.08 -1.60058 -3.85709 0
M  V30 18134 N 1686.51 0.822941 -1.34408 0
M  V30 18135 C 1687.76 1.57418 -1.26105 0
M  V30 18136 C 1688.07 1.94884 0.167225 0
M  V30 18137 O 1689.28 2.68934 0.3724 0
M  V30 18138 C 1687.74 2.84008 -2.21059 0
M  V30 18139 C 1687.34 2.53844 -3.69144 0
M  V30 18140 C 1689.09 3.62029 -2.21664 0
M  V30 18141 C 1687 3.76628 -4.55967 0
M  V30 18142 H 1685.93 0.590813 -0.468461 0
M  V30 18143 H 1688.58 0.906027 -1.59573 0
M  V30 18144 H 1686.96 3.52449 -1.80543 0
M  V30 18145 H 1688.13 1.93515 -4.18197 0
M  V30 18146 H 1686.45 1.89099 -3.70986 0
M  V30 18147 H 1689.04 4.53197 -2.83754 0
M  V30 18148 H 1689.39 3.98147 -1.21593 0
M  V30 18149 H 1689.92 3.00532 -2.60625 0
M  V30 18150 H 1686.66 3.45631 -5.56974 0
M  V30 18151 H 1686.18 4.3624 -4.11648 0
M  V30 18152 H 1687.86 4.44038 -4.70573 0
M  V30 18153 N 1687.99 1.18137 1.04314 0
M  V30 18154 C 1689.22 0.998567 1.80865 0
M  V30 18155 C 1689.63 -0.456239 1.83617 0
M  V30 18156 O 1688.97 -1.32867 1.26855 0
M  V30 18157 C 1689.03 1.47397 3.27894 0
M  V30 18158 C 1688.7 2.95266 3.48808 0
M  V30 18159 C 1689.69 3.93139 3.40202 0
M  V30 18160 C 1687.38 3.33641 3.75485 0
M  V30 18161 C 1689.37 5.27383 3.57974 0
M  V30 18162 C 1687.06 4.68049 3.92904 0
M  V30 18163 C 1688.06 5.64729 3.84149 0
M  V30 18164 O 1687.75 6.96704 4.01072 0
M  V30 18165 H 1687.48 0.353025 0.576498 0
M  V30 18166 H 1690.03 1.57054 1.32375 0
M  V30 18167 H 1688.26 0.845625 3.77341 0
M  V30 18168 H 1689.95 1.25546 3.85996 0
M  V30 18169 H 1690.72 3.64838 3.1956 0
M  V30 18170 H 1686.6 2.58951 3.81399 0
M  V30 18171 H 1690.14 6.02831 3.51056 0
M  V30 18172 H 1686.04 4.96052 4.1304 0
M  V30 18173 H 1686.81 7.03571 4.18246 0
M  V30 18174 N 1689.47 -1.23186 0.98301 0
M  V30 18175 C 1690.71 -1.91955 0.65431 0
M  V30 18176 C 1691.05 -1.76482 -0.810419 0
M  V30 18177 O 1690.32 -1.12744 -1.5849 0
M  V30 18178 C 1690.61 -3.4449 1.04873 0
M  V30 18179 C 1690.46 -3.6906 2.57128 0
M  V30 18180 C 1691.78 -4.36065 0.594578 0
M  V30 18181 H 1688.9 -0.69711 0.239179 0
M  V30 18182 H 1691.54 -1.45257 1.22476 0
M  V30 18183 H 1689.69 -3.84394 0.563333 0
M  V30 18184 H 1691.36 -3.38622 3.13262 0
M  V30 18185 H 1689.6 -3.13681 2.99644 0
M  V30 18186 H 1690.27 -4.75846 2.79776 0
M  V30 18187 H 1692.75 -4.03622 1.01136 0
M  V30 18188 H 1691.63 -5.41489 0.898955 0
M  V30 18189 H 1691.89 -4.39206 -0.505033 0
M  V30 18190 N 1690.95 -0.754982 -1.38339 0
M  V30 18191 C 1691.91 -0.136457 -2.28793 0
M  V30 18192 C 1692.91 0.646016 -1.47252 0
M  V30 18193 O 1694.1 0.472077 -1.67681 0
M  V30 18194 C 1691.23 0.815058 -3.31013 0
M  V30 18195 H 1692.42 -0.933619 -2.84997 0
M  V30 18196 H 1689.98 -0.522082 -1.47323 0
M  V30 18197 H 1690.71 1.63785 -2.79902 0
M  V30 18198 H 1690.5 0.256363 -3.91261 0
M  V30 18199 H 1691.99 1.24378 -3.98648 0
M  V30 18200 N 1692.42 1.49318 -0.504168 0
M  V30 18201 C 1693.67 2.03376 0.0312661 0
M  V30 18202 C 1694.03 1.37674 1.34401 0
M  V30 18203 O 1693.32 0.504451 1.8484 0
M  V30 18204 C 1693.51 3.56613 0.237041 0
M  V30 18205 C 1693.34 4.37169 -1.05421 0
M  V30 18206 C 1692.11 4.79069 -1.60689 0
M  V30 18207 C 1694.31 4.75558 -1.95829 0
M  V30 18208 N 1692.29 5.44064 -2.84372 0
M  V30 18209 C 1693.66 5.40304 -3.04091 0
M  V30 18210 C 1695.72 4.57498 -1.96469 0
M  V30 18211 C 1694.42 5.88901 -4.13023 0
M  V30 18212 C 1696.45 5.07058 -3.04378 0
M  V30 18213 C 1695.81 5.71807 -4.11358 0
M  V30 18214 H 1691.91 0.781446 -0.0294179 0
M  V30 18215 H 1694.49 1.82449 -0.679729 0
M  V30 18216 H 1692.66 3.77417 0.917095 0
M  V30 18217 H 1694.39 3.97312 0.769765 0
M  V30 18218 H 1691.15 4.59385 -1.15163 0
M  V30 18219 H 1691.57 5.81146 -3.47273 0
M  V30 18220 H 1696.22 4.06841 -1.15065 0
M  V30 18221 H 1693.93 6.38577 -4.95222 0
M  V30 18222 H 1697.52 4.94892 -3.05897 0
M  V30 18223 H 1696.4 6.09463 -4.93482 0
M  V30 18224 N 1693.9 0.238138 1.5579 0
M  V30 18225 C 1695.15 -0.389608 1.99022 0
M  V30 18226 C 1695.48 -1.58226 1.12597 0
M  V30 18227 O 1694.76 -1.93595 0.187363 0
M  V30 18228 C 1695.04 -0.808025 3.50917 0
M  V30 18229 C 1694.89 0.389417 4.48111 0
M  V30 18230 C 1696.21 -1.6582 4.07666 0
M  V30 18231 H 1693.33 -0.140141 0.723553 0
M  V30 18232 H 1695.97 0.337696 1.86975 0
M  V30 18233 H 1694.12 -1.42772 3.61315 0
M  V30 18234 H 1695.79 1.02777 4.49705 0
M  V30 18235 H 1694.04 1.03404 4.21296 0
M  V30 18236 H 1694.71 0.0534549 5.51974 0
M  V30 18237 H 1697.18 -1.13518 4.00316 0
M  V30 18238 H 1696.06 -1.91984 5.14231 0
M  V30 18239 H 1696.32 -2.62712 3.55577 0
M  V30 18240 N 1695.38 -1.57561 -0.0350783 0
M  V30 18241 C 1696.79 -1.77383 -0.582437 0
M  V30 18242 C 1697.14 -0.868453 -1.75933 0
M  V30 18243 O 1696.27 -0.061745 -2.16312 0
M  V30 18244 C 1696.86 -3.2168 -1.06337 0
M  V30 18245 C 1695.42 -3.42719 -1.55629 0
M  V30 18246 C 1694.57 -2.72906 -0.4917 0
M  V30 18247 H 1697.52 -1.57545 0.19115 0
M  V30 18248 H 1697.54 -3.27863 -1.93097 0
M  V30 18249 H 1697.05 -3.8755 -0.206603 0
M  V30 18250 H 1695.15 -2.82016 -2.43511 0
M  V30 18251 H 1695.27 -4.51312 -1.60794 0
M  V30 18252 H 1693.63 -2.36506 -0.945349 0
M  V30 18253 H 1694.41 -3.41454 0.355502 0
M  V30 18254 N 1696.86 0.307236 -1.54576 0
M  V30 18255 C 1697.82 1.36178 -1.84359 0
M  V30 18256 C 1698.82 1.43971 -0.716163 0
M  V30 18257 O 1700.01 1.43715 -0.98446 0
M  V30 18258 C 1697.14 2.74733 -2.01828 0
M  V30 18259 H 1698.34 1.11017 -2.78595 0
M  V30 18260 H 1695.89 0.543582 -1.46543 0
M  V30 18261 H 1696.62 3.05126 -1.09858 0
M  V30 18262 H 1696.41 2.70468 -2.83883 0
M  V30 18263 H 1697.9 3.50992 -2.26261 0
M  V30 18264 N 1698.34 1.46926 0.570122 0
M  V30 18265 C 1699.29 1.54854 1.67345 0
M  V30 18266 C 1700.27 0.40843 1.5563 0
M  V30 18267 O 1701.46 0.657596 1.64331 0
M  V30 18268 C 1698.59 1.55369 3.0613 0
M  V30 18269 C 1697.68 2.74718 3.23096 0
M  V30 18270 N 1698.07 3.99532 3.10173 0
M  V30 18271 C 1696.37 2.71207 3.54066 0
M  V30 18272 C 1697.07 4.79391 3.29483 0
M  V30 18273 N 1696.04 4.11484 3.55221 0
M  V30 18274 H 1699.85 2.49141 1.55903 0
M  V30 18275 H 1697.36 1.42741 0.774518 0
M  V30 18276 H 1699.36 1.59136 3.85333 0
M  V30 18277 H 1698.02 0.62167 3.18693 0
M  V30 18278 H 1699.03 4.3059 2.87772 0
M  V30 18279 H 1695.7 1.87086 3.73236 0
M  V30 18280 H 1697.09 5.88307 3.24569 0
M  V30 18281 N 1699.82 -0.815801 1.34842 0
M  V30 18282 C 1700.76 -1.92713 1.27006 0
M  V30 18283 C 1701.73 -1.65476 0.143838 0
M  V30 18284 O 1702.92 -1.87994 0.326007 0
M  V30 18285 C 1700.06 -3.29099 1.03863 0
M  V30 18286 C 1699.17 -3.68583 2.25324 0
M  V30 18287 C 1698.31 -4.93953 1.95407 0
M  V30 18288 C 1697.34 -5.26037 3.12971 0
M  V30 18289 N 1696.48 -6.42586 2.82891 0
M  V30 18290 H 1701.32 -1.98747 2.22044 0
M  V30 18291 H 1698.86 -0.972265 1.10388 0
M  V30 18292 H 1700.82 -4.07709 0.884809 0
M  V30 18293 H 1699.45 -3.22558 0.124911 0
M  V30 18294 H 1698.5 -2.85307 2.51603 0
M  V30 18295 H 1699.81 -3.88259 3.1314 0
M  V30 18296 H 1698.96 -5.80367 1.76801 0
M  V30 18297 H 1697.7 -4.76293 1.04862 0
M  V30 18298 H 1696.71 -4.38117 3.32165 0
M  V30 18299 H 1697.93 -5.45632 4.04305 0
M  V30 18300 H 1695.88 -6.26369 1.9493 0
M  V30 18301 H 1695.8 -6.62469 3.64239 0
M  V30 18302 H 1697.06 -7.32052 2.67805 0
M  V30 18303 N 1701.29 -1.18689 -1.03686 0
M  V30 18304 C 1702.54 -0.982656 -1.76602 0
M  V30 18305 C 1702.86 0.488553 -1.88781 0
M  V30 18306 O 1702.13 1.35419 -1.41558 0
M  V30 18307 H 1700.71 -0.360595 -0.654202 0
M  V30 18308 H 1703.37 -1.49439 -1.25115 0
M  V30 18309 H 1702.47 -1.42392 -2.77725 0
M  V30 18310 N 1702.77 1.22662 -0.989529 0
M  V30 18311 C 1704.02 1.90632 -0.65897 0
M  V30 18312 C 1704.33 1.77942 0.812165 0
M  V30 18313 O 1705.54 2.40796 1.25417 0
M  V30 18314 C 1704 3.41763 -1.12809 0
M  V30 18315 C 1703.6 3.63097 -2.62421 0
M  V30 18316 C 1705.35 4.15454 -0.871698 0
M  V30 18317 C 1703.25 5.07911 -3.02953 0
M  V30 18318 H 1702.18 0.713847 -0.242772 0
M  V30 18319 H 1704.84 1.38942 -1.19864 0
M  V30 18320 H 1703.22 3.92616 -0.516564 0
M  V30 18321 H 1704.39 3.22751 -3.2889 0
M  V30 18322 H 1702.71 3.02733 -2.85905 0
M  V30 18323 H 1705.3 5.22181 -1.15027 0
M  V30 18324 H 1705.65 4.15856 0.192186 0
M  V30 18325 H 1706.18 3.70618 -1.44525 0
M  V30 18326 H 1702.92 5.12646 -4.08503 0
M  V30 18327 H 1702.44 5.49172 -2.41185 0
M  V30 18328 H 1704.12 5.76311 -2.94066 0
M  V30 18329 N 1704.25 0.762308 1.37937 0
M  V30 18330 C 1705.5 0.321732 1.99523 0
M  V30 18331 C 1705.82 -1.10286 1.60816 0
M  V30 18332 O 1705.09 -1.75565 0.869117 0
M  V30 18333 H 1703.67 0.115967 0.737943 0
M  V30 18334 H 1706.33 0.978339 1.68566 0
M  V30 18335 H 1705.43 0.391818 3.09631 0
M  V30 18336 N 1705.73 -1.49049 0.51208 0
M  V30 18337 C 1706.98 -2.0208 -0.0284326 0
M  V30 18338 C 1707.3 -1.39303 -1.36454 0
M  V30 18339 O 1706.57 -0.552155 -1.87958 0
M  V30 18340 H 1705.15 -0.746878 -0.0134968 0
M  V30 18341 H 1707.81 -1.82954 0.671842 0
M  V30 18342 H 1706.9 -3.11739 -0.149966 0
M  V30 18343 N 1707.21 -0.246397 -1.55662 0
M  V30 18344 C 1708.15 0.66961 -2.22753 0
M  V30 18345 C 1709.15 1.18048 -1.21495 0
M  V30 18346 O 1710.35 1.13743 -1.39508 0
M  V30 18347 H 1706.73 0.234421 -0.714529 0
M  V30 18348 H 1708.7 0.0805962 -2.98291 0
M  V30 18349 C 1707.45 1.8558 -2.94033 0
M  V30 18350 H 1706.77 1.47184 -3.71721 0
M  V30 18351 H 1708.21 2.47397 -3.44341 0
M  V30 18352 C 1706.67 2.72664 -1.97879 0
M  V30 18353 O 1707.2 3.72177 -1.51154 0
M  V30 18354 N 1705.41 2.3922 -1.64991 0
M  V30 18355 H 1704.95 1.58348 -2.03184 0
M  V30 18356 H 1704.91 2.97762 -1.00922 0
M  V30 18357 N 1708.68 1.57577 0.026722 0
M  V30 18358 C 1709.62 2.03515 1.05424 0
M  V30 18359 C 1710.63 0.948362 1.32325 0
M  V30 18360 O 1711.82 1.22563 1.29771 0
M  V30 18361 C 1708.92 2.39744 2.39533 0
M  V30 18362 C 1708.09 3.70832 2.31954 0
M  V30 18363 C 1707.15 3.94224 3.48531 0
M  V30 18364 O 1706.18 4.6525 3.27919 0
M  V30 18365 N 1707.38 3.40044 4.70479 0
M  V30 18366 H 1710.14 2.92282 0.662678 0
M  V30 18367 H 1707.7 1.60471 0.214623 0
M  V30 18368 H 1709.7 2.52529 3.16245 0
M  V30 18369 H 1708.27 1.56636 2.70525 0
M  V30 18370 H 1707.49 3.68378 1.40325 0
M  V30 18371 H 1708.77 4.56821 2.24035 0
M  V30 18372 H 1708.17 2.82478 4.90125 0
M  V30 18373 H 1706.73 3.58205 5.44548 0
M  V30 18374 N 1710.16 -0.299034 1.54737 0
M  V30 18375 C 1711.07 -1.39141 1.88884 0
M  V30 18376 C 1712.09 -1.55377 0.783203 0
M  V30 18377 O 1713.26 -1.70003 1.07985 0
M  V30 18378 C 1710.33 -2.73487 2.13087 0
M  V30 18379 C 1709.39 -2.66219 3.36788 0
M  V30 18380 C 1708.62 -3.94158 3.59827 0
M  V30 18381 O 1708.85 -4.9361 2.85841 0
M  V30 18382 O 1707.78 -3.95933 4.53344 0
M  V30 18383 H 1711.61 -1.13184 2.81821 0
M  V30 18384 H 1709.19 -0.495271 1.40952 0
M  V30 18385 H 1711.07 -3.5297 2.30195 0
M  V30 18386 H 1709.75 -2.99283 1.23335 0
M  V30 18387 H 1708.65 -1.85201 3.25041 0
M  V30 18388 H 1709.99 -2.45376 4.26675 0
M  V30 18389 N 1711.64 -1.47227 -0.562322 0
M  V30 18390 C 1712.89 -1.53816 -1.32168 0
M  V30 18391 C 1713.22 -0.197649 -1.93192 0
M  V30 18392 O 1712.49 0.793178 -1.77592 0
M  V30 18393 C 1712.78 -2.65231 -2.43566 0
M  V30 18394 C 1712.63 -4.08882 -1.87445 0
M  V30 18395 C 1713.95 -2.72589 -3.45519 0
M  V30 18396 H 1711.07 -0.559947 -0.479195 0
M  V30 18397 H 1713.71 -1.7926 -0.629762 0
M  V30 18398 H 1711.86 -2.43667 -3.02587 0
M  V30 18399 H 1713.53 -4.41794 -1.32725 0
M  V30 18400 H 1711.77 -4.17401 -1.18149 0
M  V30 18401 H 1712.45 -4.82603 -2.67952 0
M  V30 18402 H 1714.92 -2.92028 -2.9641 0
M  V30 18403 H 1713.8 -3.5233 -4.20898 0
M  V30 18404 H 1714.06 -1.79444 -4.04045 0
M  V30 18405 N 1713.12 0.808639 -1.35273 0
M  V30 18406 C 1714.39 1.55238 -1.18998 0
M  V30 18407 C 1714.77 2.09824 0.231723 0
M  V30 18408 O 1714.12 1.92252 1.23497 0
M  V30 18409 C 1714.33 2.66252 -2.25634 0
M  V30 18410 C 1715.68 3.34646 -2.61338 0
M  V30 18411 O 1716.7 2.76521 -2.24532 0
M  V30 18412 O 1715.56 4.39644 -3.24615 0
M  V30 18413 H 1712.66 0.6858 -0.462176 0
M  V30 18414 H 1715.2 0.848777 -1.46949 0
M  V30 18415 H 1713.98 2.23774 -3.21 0
M  V30 18416 H 1713.6 3.4425 -1.98941 0
M  V30 18417 N 1714.6 1.19237 1.03055 0
M  V30 18418 C 1715.55 0.896404 2.09639 0
M  V30 18419 C 1716.53 -0.138099 1.60306 0
M  V30 18420 O 1717.72 0.0673592 1.76872 0
M  V30 18421 C 1714.85 0.435042 3.40532 0
M  V30 18422 C 1713.94 1.50219 3.96604 0
M  V30 18423 N 1714.33 2.72121 4.26361 0
M  V30 18424 C 1712.63 1.36509 4.24596 0
M  V30 18425 C 1713.33 3.40853 4.71374 0
M  V30 18426 N 1712.3 2.68246 4.72806 0
M  V30 18427 H 1716.11 1.82292 2.30536 0
M  V30 18428 H 1713.62 1.08428 1.20901 0
M  V30 18429 H 1715.62 0.204471 4.16398 0
M  V30 18430 H 1714.28 -0.485016 3.21057 0
M  V30 18431 H 1715.29 3.08899 4.15694 0
M  V30 18432 H 1711.96 0.508358 4.14394 0
M  V30 18433 H 1713.35 4.4509 5.03333 0
M  V30 18434 N 1716.07 -1.22136 0.99602 0
M  V30 18435 C 1717 -2.26463 0.568909 0
M  V30 18436 C 1717.99 -1.65189 -0.405783 0
M  V30 18437 O 1719.17 -1.91935 -0.295735 0
M  V30 18438 C 1716.3 -3.47112 -0.114166 0
M  V30 18439 C 1715.25 -4.20844 0.779387 0
M  V30 18440 C 1714.58 -5.34687 -0.0367787 0
M  V30 18441 C 1715.88 -4.79195 2.07773 0
M  V30 18442 H 1717.57 -2.62443 1.44097 0
M  V30 18443 H 1715.12 -1.26156 0.694314 0
M  V30 18444 H 1717.07 -4.19258 -0.424381 0
M  V30 18445 H 1715.8 -3.10238 -1.02079 0
M  V30 18446 H 1714.46 -3.50537 1.07329 0
M  V30 18447 H 1714.1 -4.94054 -0.94442 0
M  V30 18448 H 1713.8 -5.84944 0.558092 0
M  V30 18449 H 1715.33 -6.09647 -0.341016 0
M  V30 18450 H 1716.74 -5.43266 1.83126 0
M  V30 18451 H 1715.14 -5.39803 2.62169 0
M  V30 18452 H 1716.21 -3.99073 2.75442 0
M  V30 18453 N 1717.55 -0.769612 -1.37531 0
M  V30 18454 C 1718.8 -0.33346 -2.0004 0
M  V30 18455 C 1719.13 1.08661 -1.60955 0
M  V30 18456 O 1718.41 1.74714 -0.854709 0
M  V30 18457 C 1718.69 -0.474588 -3.56959 0
M  V30 18458 C 1718.54 -1.93692 -4.0596 0
M  V30 18459 C 1719.86 0.122429 -4.3993 0
M  V30 18460 H 1716.98 -0.122637 -0.726725 0
M  V30 18461 H 1719.62 -0.972255 -1.6324 0
M  V30 18462 H 1717.77 0.0692352 -3.88438 0
M  V30 18463 H 1719.44 -2.54028 -3.85055 0
M  V30 18464 H 1717.69 -2.44647 -3.58232 0
M  V30 18465 H 1718.36 -1.98674 -5.15008 0
M  V30 18466 H 1720.83 -0.341557 -4.14696 0
M  V30 18467 H 1719.71 -0.00646545 -5.489 0
M  V30 18468 H 1719.97 1.21251 -4.25148 0
M  V30 18469 N 1719.03 1.48775 -0.519977 0
M  V30 18470 C 1720.26 2.07394 0.0161061 0
M  V30 18471 C 1720.68 1.37532 1.28322 0
M  V30 18472 O 1720.04 0.438049 1.75928 0
M  V30 18473 C 1720.09 3.59844 0.233382 0
M  V30 18474 O 1719.19 3.91235 1.30418 0
M  V30 18475 H 1718.53 0.663094 -0.0346678 0
M  V30 18476 H 1721.06 1.91323 -0.725029 0
M  V30 18477 H 1721.07 4.05409 0.45911 0
M  V30 18478 H 1719.75 4.10098 -0.69229 0
M  V30 18479 H 1718.32 3.5746 1.0619 0
M  V30 18480 N 1720.51 0.254649 1.55529 0
M  V30 18481 C 1721.44 -0.674506 2.1905 0
M  V30 18482 C 1722.45 -1.13297 1.16909 0
M  V30 18483 O 1723.64 -1.0584 1.43736 0
M  V30 18484 C 1720.74 -1.92951 2.78609 0
M  V30 18485 C 1719.92 -1.62123 4.06245 0
M  V30 18486 C 1718.97 -2.72661 4.50047 0
M  V30 18487 O 1718 -2.39717 5.1626 0
M  V30 18488 N 1719.2 -4.02315 4.18477 0
M  V30 18489 H 1721.97 -0.130956 2.99414 0
M  V30 18490 H 1719.53 0.0749176 1.61727 0
M  V30 18491 H 1721.52 -2.66155 3.04866 0
M  V30 18492 H 1720.09 -2.38265 2.02358 0
M  V30 18493 H 1719.31 -0.723991 3.87495 0
M  V30 18494 H 1720.6 -1.39 4.89445 0
M  V30 18495 H 1720 -4.3191 3.65336 0
M  V30 18496 H 1718.55 -4.7196 4.49552 0
M  V30 18497 N 1721.99 -1.57589 -0.0183649 0
M  V30 18498 C 1723.23 -1.89382 -0.705612 0
M  V30 18499 C 1723.56 -0.853698 -1.7532 0
M  V30 18500 O 1722.83 0.111322 -1.95583 0
M  V30 18501 H 1721.41 -0.698943 -0.263605 0
M  V30 18502 H 1724.07 -1.94891 0.0182168 0
M  V30 18503 H 1723.16 -2.88587 -1.18845 0
M  V30 18504 N 1723.46 0.290824 -1.54893 0
M  V30 18505 C 1724.71 1.02244 -1.73865 0
M  V30 18506 C 1725.03 1.88079 -0.537166 0
M  V30 18507 O 1726.23 2.64584 -0.608908 0
M  V30 18508 C 1724.69 1.86762 -3.07649 0
M  V30 18509 C 1724.3 1.0588 -4.35308 0
M  V30 18510 C 1726.04 2.59461 -3.35976 0
M  V30 18511 C 1723.95 1.89734 -5.60138 0
M  V30 18512 H 1722.88 0.385455 -0.648028 0
M  V30 18513 H 1725.53 0.27893 -1.81368 0
M  V30 18514 H 1723.91 2.6514 -2.94137 0
M  V30 18515 H 1725.08 0.320443 -4.59684 0
M  V30 18516 H 1723.4 0.447169 -4.13992 0
M  V30 18517 H 1726 3.22569 -4.26442 0
M  V30 18518 H 1726.34 3.28823 -2.55306 0
M  V30 18519 H 1726.87 1.88126 -3.50505 0
M  V30 18520 H 1723.61 1.24825 -6.43505 0
M  V30 18521 H 1723.13 2.61215 -5.39932 0
M  V30 18522 H 1724.81 2.47535 -5.97775 0
M  V30 18523 N 1724.94 1.47523 0.554506 0
M  V30 18524 C 1726.36 1.33101 0.880699 0
M  V30 18525 C 1726.56 0.323524 1.98886 0
M  V30 18526 O 1725.61 -0.263996 2.51116 0
M  V30 18527 C 1726.93 2.725 1.27138 0
M  V30 18528 C 1728.48 2.80805 1.38266 0
M  V30 18529 C 1728.95 4.20851 1.80688 0
M  V30 18530 N 1730.44 4.23406 1.87834 0
M  V30 18531 C 1731.18 5.28684 2.21993 0
M  V30 18532 N 1730.67 6.44264 2.54746 0
M  V30 18533 N 1732.47 5.16063 2.2279 0
M  V30 18534 H 1724.62 2.11661 -0.177062 0
M  V30 18535 H 1726.88 0.947856 -0.0165508 0
M  V30 18536 H 1726.59 3.47669 0.53093 0
M  V30 18537 H 1726.46 3.04445 2.22695 0
M  V30 18538 H 1728.85 2.05907 2.11391 0
M  V30 18539 H 1728.93 2.52511 0.408901 0
M  V30 18540 H 1728.57 4.96256 1.08131 0
M  V30 18541 H 1728.5 4.46572 2.79071 0
M  V30 18542 H 1730.99 3.40025 1.64897 0
M  V30 18543 H 1731.31 7.20351 2.79846 0
M  V30 18544 H 1729.65 6.4758 2.52321 0
M  V30 18545 H 1732.84 4.24793 1.96642 0
M  V30 18546 H 1733.01 5.98216 2.49081 0
M  V30 18547 N 1726.42 -0.801453 1.357 0
M  V30 18548 C 1727.35 -1.92179 1.24899 0
M  V30 18549 C 1728.37 -1.61898 0.171131 0
M  V30 18550 O 1729.55 -1.73371 0.42484 0
M  V30 18551 C 1726.65 -3.26684 0.901706 0
M  V30 18552 C 1725.83 -3.84833 2.07899 0
M  V30 18553 C 1724.89 -4.97754 1.70667 0
M  V30 18554 O 1723.91 -5.14909 2.42605 0
M  V30 18555 N 1725.11 -5.77035 0.633294 0
M  V30 18556 H 1727.88 -2.0197 2.21423 0
M  V30 18557 H 1725.44 -0.979132 1.28936 0
M  V30 18558 H 1727.43 -3.99703 0.63402 0
M  V30 18559 H 1726 -3.12589 0.0259836 0
M  V30 18560 H 1725.22 -3.03947 2.51018 0
M  V30 18561 H 1726.51 -4.20415 2.86581 0
M  V30 18562 H 1725.91 -5.65689 0.0357078 0
M  V30 18563 H 1724.47 -6.5041 0.425402 0
M  V30 18564 N 1727.9 -1.19782 -1.02421 0
M  V30 18565 C 1729.14 -1.0048 -1.76158 0
M  V30 18566 C 1729.48 0.46281 -1.88605 0
M  V30 18567 O 1728.75 1.34366 -1.40628 0
M  V30 18568 C 1729.04 -1.67999 -3.1851 0
M  V30 18569 C 1728.89 -3.22155 -3.13905 0
M  V30 18570 C 1730.21 -1.40681 -4.17009 0
M  V30 18571 H 1727.33 -0.366436 -0.639448 0
M  V30 18572 H 1729.97 -1.47688 -1.19534 0
M  V30 18573 H 1728.12 -1.27862 -3.66856 0
M  V30 18574 H 1729.79 -3.71536 -2.7342 0
M  V30 18575 H 1728.03 -3.53456 -2.51498 0
M  V30 18576 H 1728.7 -3.64548 -4.14498 0
M  V30 18577 H 1731.18 -1.75488 -3.77284 0
M  V30 18578 H 1730.06 -1.90467 -5.14795 0
M  V30 18579 H 1730.32 -0.332889 -4.40845 0
M  V30 18580 N 1729.38 1.21606 -1.00248 0
M  V30 18581 C 1730.31 2.26159 -0.580911 0
M  V30 18582 C 1731.29 1.65402 0.397017 0
M  V30 18583 O 1732.47 1.92089 0.285552 0
M  V30 18584 C 1729.6 3.47168 0.0957564 0
M  V30 18585 C 1728.56 4.20425 -0.801695 0
M  V30 18586 C 1727.88 5.34699 0.00842241 0
M  V30 18587 C 1729.18 4.78086 -2.10311 0
M  V30 18588 H 1730.88 2.61675 -1.45487 0
M  V30 18589 H 1728.42 1.25786 -0.700995 0
M  V30 18590 H 1730.38 4.19477 0.402141 0
M  V30 18591 H 1729.1 3.10775 1.00433 0
M  V30 18592 H 1727.76 3.49963 -1.09187 0
M  V30 18593 H 1727.41 4.94548 0.918206 0
M  V30 18594 H 1727.11 5.84639 -0.589105 0
M  V30 18595 H 1728.63 6.09819 0.30868 0
M  V30 18596 H 1730.05 5.42287 -1.86004 0
M  V30 18597 H 1728.44 5.38405 -2.65028 0
M  V30 18598 H 1729.51 3.97607 -2.77555 0
M  V30 18599 N 1730.86 0.776895 1.37121 0
M  V30 18600 C 1732.1 0.343555 1.99564 0
M  V30 18601 C 1732.43 -1.08134 1.6167 0
M  V30 18602 O 1731.69 -1.75938 0.856998 0
M  V30 18603 C 1731.98 0.440201 3.54679 0
M  V30 18604 C 1731.65 1.82409 4.12356 0
M  V30 18605 C 1730.31 2.20277 4.27822 0
M  V30 18606 C 1732.66 2.73082 4.43932 0
M  V30 18607 C 1729.99 3.48244 4.72168 0
M  V30 18608 C 1732.34 4.00465 4.89705 0
M  V30 18609 C 1731.01 4.38371 5.03376 0
M  V30 18610 H 1730.28 0.125716 0.730258 0
M  V30 18611 H 1732.93 0.991921 1.63808 0
M  V30 18612 H 1731.23 -0.291695 3.90713 0
M  V30 18613 H 1732.93 0.0861328 4.00907 0
M  V30 18614 H 1729.52 1.5198 4.0075 0
M  V30 18615 H 1733.7 2.45085 4.31564 0
M  V30 18616 H 1728.96 3.77501 4.80939 0
M  V30 18617 H 1733.13 4.70849 5.13103 0
M  V30 18618 H 1730.76 5.37587 5.37498 0
M  V30 18619 N 1732.33 -1.48497 0.527859 0
M  V30 18620 C 1733.26 -2.32414 -0.224891 0
M  V30 18621 C 1734.24 -1.41959 -0.93711 0
M  V30 18622 O 1735.43 -1.70847 -0.923302 0
M  V30 18623 C 1732.56 -3.23106 -1.27356 0
M  V30 18624 C 1731.51 -4.2257 -0.679611 0
M  V30 18625 C 1730.84 -5.02381 -1.83077 0
M  V30 18626 C 1732.14 -5.21144 0.347269 0
M  V30 18627 H 1733.83 -2.95598 0.475632 0
M  V30 18628 H 1731.38 -1.42148 0.230182 0
M  V30 18629 H 1733.33 -3.80639 -1.8081 0
M  V30 18630 H 1732.06 -2.57919 -2.00363 0
M  V30 18631 H 1730.72 -3.66221 -0.166608 0
M  V30 18632 H 1730.36 -4.3362 -2.54918 0
M  V30 18633 H 1730.06 -5.697 -1.43929 0
M  V30 18634 H 1731.59 -5.62765 -2.36914 0
M  V30 18635 H 1733 -5.73213 -0.100107 0
M  V30 18636 H 1731.4 -5.96503 0.656021 0
M  V30 18637 H 1732.47 -4.6841 1.25379 0
M  V30 18638 N 1733.81 -0.262893 -1.55392 0
M  V30 18639 C 1734.72 0.640223 -2.25695 0
M  V30 18640 C 1735.74 1.18019 -1.27857 0
M  V30 18641 O 1736.91 1.21308 -1.60768 0
M  V30 18642 C 1733.98 1.81336 -2.95497 0
M  V30 18643 C 1733.04 1.31128 -4.08784 0
M  V30 18644 C 1732.27 2.4285 -4.75247 0
M  V30 18645 O 1732.5 3.61939 -4.40859 0
M  V30 18646 O 1731.43 2.11699 -5.63442 0
M  V30 18647 H 1735.26 0.0710781 -3.03617 0
M  V30 18648 H 1732.84 -0.030765 -1.49368 0
M  V30 18649 H 1734.72 2.49764 -3.39406 0
M  V30 18650 H 1733.4 2.36982 -2.20502 0
M  V30 18651 H 1732.3 0.593816 -3.69357 0
M  V30 18652 H 1733.64 0.800711 -4.85643 0
M  V30 18653 N 1735.29 1.57597 0.0100073 0
M  V30 18654 C 1736.24 2.07788 1.00463 0
M  V30 18655 C 1737.21 0.971101 1.34755 0
M  V30 18656 O 1738.39 1.2429 1.44764 0
M  V30 18657 C 1735.53 2.57769 2.29454 0
M  V30 18658 C 1734.64 3.8231 2.01153 0
M  V30 18659 C 1733.78 4.2083 3.24154 0
M  V30 18660 C 1732.82 5.38236 2.91494 0
M  V30 18661 N 1731.96 5.72096 4.07001 0
M  V30 18662 H 1736.8 2.92504 0.569675 0
M  V30 18663 H 1734.33 1.44607 0.269645 0
M  V30 18664 H 1736.29 2.84821 3.04849 0
M  V30 18665 H 1734.92 1.75942 2.70637 0
M  V30 18666 H 1733.97 3.62227 1.16171 0
M  V30 18667 H 1735.28 4.67811 1.73074 0
M  V30 18668 H 1734.44 4.49111 4.07902 0
M  V30 18669 H 1733.18 3.34019 3.55363 0
M  V30 18670 H 1732.18 5.09688 2.06151 0
M  V30 18671 H 1733.41 6.26716 2.61543 0
M  V30 18672 H 1731.35 4.88243 4.38126 0
M  V30 18673 H 1731.27 6.52148 3.82411 0
M  V30 18674 H 1732.54 6.04964 4.91567 0
M  V30 18675 N 1736.77 -0.282606 1.55045 0
M  V30 18676 C 1738.02 -1.0132 1.74405 0
M  V30 18677 C 1738.33 -1.87792 0.547133 0
M  V30 18678 O 1739.54 -2.64257 0.622931 0
M  V30 18679 C 1737.99 -1.85128 3.08635 0
M  V30 18680 C 1737.6 -1.0357 4.35864 0
M  V30 18681 C 1739.34 -2.57676 3.37347 0
M  V30 18682 C 1737.25 -1.86761 5.61137 0
M  V30 18683 H 1736.18 -0.382013 0.650063 0
M  V30 18684 H 1738.83 -0.269307 1.81513 0
M  V30 18685 H 1737.21 -2.63576 2.95539 0
M  V30 18686 H 1738.39 -0.296061 4.59848 0
M  V30 18687 H 1736.7 -0.425208 4.14223 0
M  V30 18688 H 1739.3 -3.20303 4.28147 0
M  V30 18689 H 1739.64 -3.27464 2.57046 0
M  V30 18690 H 1740.18 -1.86264 3.51497 0
M  V30 18691 H 1736.91 -1.2141 6.44158 0
M  V30 18692 H 1736.43 -2.58348 5.4131 0
M  V30 18693 H 1738.11 -2.44361 5.9908 0
M  V30 18694 N 1738.25 -1.47815 -0.546675 0
M  V30 18695 C 1739.16 -1.63744 -1.68003 0
M  V30 18696 C 1740.17 -0.520118 -1.66044 0
M  V30 18697 O 1741.35 -0.789033 -1.853 0
M  V30 18698 C 1738.41 -1.65778 -3.04497 0
M  V30 18699 C 1737.47 -2.89015 -3.17441 0
M  V30 18700 C 1736.71 -2.90943 -4.47424 0
M  V30 18701 O 1736.93 -2.01769 -5.33522 0
M  V30 18702 O 1735.86 -3.82927 -4.64382 0
M  V30 18703 H 1739.69 -2.59665 -1.57505 0
M  V30 18704 H 1737.27 -1.31022 -0.717883 0
M  V30 18705 H 1739.16 -1.69734 -3.85705 0
M  V30 18706 H 1737.83 -0.730268 -3.15355 0
M  V30 18707 H 1736.74 -2.90599 -2.35591 0
M  V30 18708 H 1738.07 -3.81095 -3.11492 0
M  V30 18709 N 1739.72 0.794246 -1.36123 0
M  V30 18710 C 1741.13 1.36909 -1.26936 0
M  V30 18711 C 1741.49 1.9598 0.0929337 0
M  V30 18712 O 1740.61 1.92206 0.994266 0
M  V30 18713 C 1741.21 2.48906 -2.2985 0
M  V30 18714 C 1739.76 3.0222 -2.24366 0
M  V30 18715 C 1738.91 1.75264 -2.1489 0
M  V30 18716 H 1741.86 0.596278 -1.47072 0
M  V30 18717 H 1741.88 3.27794 -1.93213 0
M  V30 18718 H 1741.4 2.05884 -3.28988 0
M  V30 18719 H 1739.5 3.49675 -1.28679 0
M  V30 18720 H 1739.61 3.59363 -3.16852 0
M  V30 18721 H 1737.97 1.97306 -1.61066 0
M  V30 18722 H 1738.76 1.34377 -3.15908 0
M  V30 18723 N 1741.2 1.20323 1.01785 0
M  V30 18724 C 1742.16 0.9527 2.08462 0
M  V30 18725 C 1743.16 -0.0712564 1.60642 0
M  V30 18726 O 1744.35 0.164672 1.7342 0
M  V30 18727 C 1741.49 0.434052 3.38125 0
M  V30 18728 H 1742.68 1.89895 2.32121 0
M  V30 18729 H 1740.23 1.01843 1.18565 0
M  V30 18730 H 1740.97 -0.51772 3.20141 0
M  V30 18731 H 1740.75 1.17248 3.74159 0
M  V30 18732 H 1742.24 0.278215 4.16672 0
M  V30 18733 N 1742.68 -1.21073 1.00892 0
M  V30 18734 C 1743.61 -2.22968 0.530841 0
M  V30 18735 C 1744.62 -1.58239 -0.382664 0
M  V30 18736 O 1745.81 -1.77567 -0.182237 0
M  V30 18737 C 1742.91 -3.37991 -0.248096 0
M  V30 18738 C 1742.09 -4.32309 0.665439 0
M  V30 18739 C 1741.15 -5.2616 -0.0645731 0
M  V30 18740 O 1740.17 -5.66484 0.555383 0
M  V30 18741 N 1741.37 -5.64777 -1.3419 0
M  V30 18742 H 1744.14 -2.64614 1.4071 0
M  V30 18743 H 1741.7 -1.35536 0.885528 0
M  V30 18744 H 1743.69 -3.97774 -0.745513 0
M  V30 18745 H 1742.26 -2.95297 -1.02558 0
M  V30 18746 H 1741.48 -3.70607 1.34329 0
M  V30 18747 H 1742.77 -4.92254 1.28701 0
M  V30 18748 H 1742.17 -5.34016 -1.86664 0
M  V30 18749 H 1740.72 -6.26905 -1.78419 0
M  V30 18750 N 1744.16 -0.784156 -1.36707 0
M  V30 18751 C 1745.07 -0.179959 -2.33909 0
M  V30 18752 C 1746.08 0.665092 -1.60787 0
M  V30 18753 O 1747.26 0.582111 -1.92804 0
M  V30 18754 C 1744.33 0.679323 -3.3998 0
M  V30 18755 C 1743.39 -0.183618 -4.28907 0
M  V30 18756 C 1742.62 0.634747 -5.29912 0
M  V30 18757 O 1742.84 1.87107 -5.38839 0
M  V30 18758 O 1741.78 0.0374113 -6.01888 0
M  V30 18759 H 1745.6 -0.983499 -2.87334 0
M  V30 18760 H 1743.19 -0.545521 -1.39084 0
M  V30 18761 H 1745.07 1.16948 -4.04847 0
M  V30 18762 H 1743.74 1.46084 -2.88862 0
M  V30 18763 H 1742.65 -0.720419 -3.67098 0
M  V30 18764 H 1743.98 -0.928522 -4.83363 0
M  V30 18765 N 1745.64 1.48215 -0.535727 0
M  V30 18766 C 1746.55 2.33494 0.227577 0
M  V30 18767 C 1747.56 1.4685 0.933327 0
M  V30 18768 O 1748.74 1.7982 0.907008 0
M  V30 18769 C 1745.8 3.23092 1.25747 0
M  V30 18770 C 1744.86 4.25613 0.561454 0
M  V30 18771 C 1744.1 5.1093 1.54228 0
M  V30 18772 O 1744.32 4.98325 2.77539 0
M  V30 18773 O 1743.25 5.92158 1.07852 0
M  V30 18774 H 1747.08 3.0002 -0.471375 0
M  V30 18775 H 1744.67 1.46427 -0.296579 0
M  V30 18776 H 1746.55 3.78498 1.8525 0
M  V30 18777 H 1745.22 2.5922 1.93872 0
M  V30 18778 H 1744.13 3.74026 -0.0742194 0
M  V30 18779 H 1745.46 4.92138 -0.0779649 0
M  V30 18780 N 1747.11 0.27113 1.5525 0
M  V30 18781 C 1748.06 -0.632507 2.19051 0
M  V30 18782 C 1749.05 -1.12135 1.15388 0
M  V30 18783 O 1750.24 -1.06709 1.41217 0
M  V30 18784 C 1747.37 -1.81804 2.91208 0
M  V30 18785 C 1746.46 -1.34656 4.02155 0
M  V30 18786 N 1746.85 -0.590954 5.02336 0
M  V30 18787 C 1745.14 -1.62985 4.15153 0
M  V30 18788 C 1745.85 -0.343602 5.80684 0
M  V30 18789 N 1744.82 -0.914869 5.35846 0
M  V30 18790 H 1748.62 -0.0473244 2.93862 0
M  V30 18791 H 1746.14 0.0745107 1.62229 0
M  V30 18792 H 1748.13 -2.47666 3.35361 0
M  V30 18793 H 1746.79 -2.40721 2.17907 0
M  V30 18794 H 1747.81 -0.238682 5.1735 0
M  V30 18795 H 1744.48 -2.22867 3.53039 0
M  V30 18796 H 1745.87 0.261284 6.71392 0
M  V30 18797 N 1748.59 -1.576 -0.00164943 0
M  V30 18798 C 1749.5 -2.11748 -1.00995 0
M  V30 18799 C 1750.52 -1.06235 -1.37805 0
M  V30 18800 O 1751.69 -1.38127 -1.4657 0
M  V30 18801 C 1748.76 -2.60869 -2.2836 0
M  V30 18802 C 1747.82 -3.80976 -1.97879 0
M  V30 18803 C 1747.05 -4.27745 -3.19171 0
M  V30 18804 O 1747.28 -3.73856 -4.30799 0
M  V30 18805 O 1746.21 -5.19917 -3.03265 0
M  V30 18806 H 1750.04 -2.98117 -0.579667 0
M  V30 18807 H 1747.62 -1.47766 -0.220375 0
M  V30 18808 H 1749.5 -2.9267 -3.03187 0
M  V30 18809 H 1748.18 -1.77598 -2.7063 0
M  V30 18810 H 1747.09 -3.54151 -1.20533 0
M  V30 18811 H 1748.42 -4.65315 -1.60447 0
M  V30 18812 N 1750.07 0.274379 -1.55193 0
M  V30 18813 C 1751.02 1.33913 -1.87978 0
M  V30 18814 C 1751.99 1.49142 -0.731149 0
M  V30 18815 O 1753.17 1.63572 -0.98229 0
M  V30 18816 C 1750.31 2.69464 -2.156 0
M  V30 18817 C 1749.43 2.62468 -3.43125 0
M  V30 18818 C 1748.56 3.90188 -3.60453 0
M  V30 18819 C 1747.6 3.77697 -4.81675 0
M  V30 18820 N 1746.74 4.97249 -4.95669 0
M  V30 18821 H 1751.58 1.05254 -2.78793 0
M  V30 18822 H 1749.11 0.508532 -1.3803 0
M  V30 18823 H 1751.07 3.48329 -2.29614 0
M  V30 18824 H 1749.7 2.96328 -1.28021 0
M  V30 18825 H 1748.75 1.7532 -3.3759 0
M  V30 18826 H 1750.07 2.49137 -4.32125 0
M  V30 18827 H 1749.22 4.77495 -3.74277 0
M  V30 18828 H 1747.96 4.06384 -2.69635 0
M  V30 18829 H 1746.96 2.88774 -4.67857 0
M  V30 18830 H 1748.19 3.63022 -5.73927 0
M  V30 18831 H 1746.13 5.13858 -4.07781 0
M  V30 18832 H 1746.05 4.86444 -5.78712 0
M  V30 18833 H 1747.32 5.86132 -5.13877 0
M  V30 18834 N 1751.55 1.48103 0.538828 0
M  V30 18835 C 1752.78 1.59085 1.31816 0
M  V30 18836 C 1753.19 0.246886 1.87582 0
M  V30 18837 O 1752.53 -0.772694 1.66659 0
M  V30 18838 C 1752.59 2.57102 2.51274 0
M  V30 18839 C 1752.26 4.02377 2.16661 0
M  V30 18840 C 1753.25 4.90323 1.72857 0
M  V30 18841 C 1750.94 4.4785 2.27455 0
M  V30 18842 C 1752.93 6.21767 1.40302 0
M  V30 18843 C 1750.62 5.79317 1.94512 0
M  V30 18844 C 1751.62 6.66098 1.51006 0
M  V30 18845 O 1751.3 7.9512 1.18491 0
M  V30 18846 H 1751.04 0.539404 0.407454 0
M  V30 18847 H 1753.59 1.94586 0.657678 0
M  V30 18848 H 1751.82 2.16705 3.20275 0
M  V30 18849 H 1753.51 2.58014 3.13342 0
M  V30 18850 H 1754.28 4.56432 1.63995 0
M  V30 18851 H 1750.15 3.80497 2.60275 0
M  V30 18852 H 1753.7 6.89458 1.06271 0
M  V30 18853 H 1749.6 6.12745 2.03012 0
M  V30 18854 H 1750.36 8.07792 1.31964 0
M  V30 18855 N 1753.03 -0.787016 1.36542 0
M  V30 18856 C 1753.98 -1.88956 1.27592 0
M  V30 18857 C 1754.96 -1.60032 0.166904 0
M  V30 18858 O 1756.15 -1.72423 0.399932 0
M  V30 18859 C 1753.28 -3.26204 1.06986 0
M  V30 18860 C 1752.37 -3.6113 2.22365 0
M  V30 18861 N 1752.76 -3.67346 3.47693 0
M  V30 18862 C 1751.06 -3.91205 2.14183 0
M  V30 18863 C 1751.76 -3.98581 4.23684 0
M  V30 18864 N 1750.73 -4.13688 3.52651 0
M  V30 18865 H 1754.54 -1.91992 2.22522 0
M  V30 18866 H 1752.05 -0.982664 1.29296 0
M  V30 18867 H 1754.05 -4.05058 0.986603 0
M  V30 18868 H 1752.71 -3.24441 0.129582 0
M  V30 18869 H 1753.72 -3.49931 3.81797 0
M  V30 18870 H 1750.39 -3.97354 1.28125 0
M  V30 18871 H 1751.78 -4.10294 5.32079 0
M  V30 18872 N 1754.5 -1.20861 -1.01145 0
M  V30 18873 C 1755.73 -1.04843 -1.78949 0
M  V30 18874 C 1756.15 0.397676 -1.83848 0
M  V30 18875 O 1755.51 1.28663 -1.27733 0
M  V30 18876 C 1755.56 -1.64267 -3.21012 0
M  V30 18877 O 1754.66 -0.883773 -4.02819 0
M  V30 18878 H 1754.01 -0.36941 -0.551754 0
M  V30 18879 H 1756.54 -1.60266 -1.27185 0
M  V30 18880 H 1756.55 -1.68218 -3.71708 0
M  V30 18881 H 1755.22 -2.69509 -3.16761 0
M  V30 18882 H 1753.8 -0.918866 -3.61402 0
M  V30 18883 N 1755.98 1.20536 -1.01532 0
M  V30 18884 C 1756.93 2.2531 -0.577786 0
M  V30 18885 C 1757.92 1.65017 0.382843 0
M  V30 18886 O 1759.13 1.78214 0.252904 0
M  V30 18887 H 1755.51 0.732872 -0.168532 0
M  V30 18888 H 1757.48 2.59544 -1.4724 0
M  V30 18889 C 1756.23 3.47631 0.0694263 0
M  V30 18890 H 1755.55 3.94302 -0.660748 0
M  V30 18891 H 1756.99 4.22645 0.338706 0
M  V30 18892 C 1755.45 3.1031 1.31185 0
M  V30 18893 O 1755.98 3.21729 2.40527 0
M  V30 18894 N 1754.18 2.64871 1.19547 0
M  V30 18895 H 1753.73 2.55779 0.305741 0
M  V30 18896 H 1753.69 2.4027 2.02775 0
M  V30 18897 N 1757.46 0.791395 1.36289 0
M  V30 18898 C 1758.71 0.365242 1.99484 0
M  V30 18899 C 1759.04 -1.06087 1.62663 0
M  V30 18900 O 1758.31 -1.73332 0.882396 0
M  V30 18901 C 1758.6 0.531317 3.56159 0
M  V30 18902 C 1758.45 2.00126 4.02827 0
M  V30 18903 C 1759.77 -0.0524248 4.40069 0
M  V30 18904 H 1756.89 0.134183 0.724682 0
M  V30 18905 H 1759.53 0.998102 1.61672 0
M  V30 18906 H 1757.68 -0.0074293 3.88499 0
M  V30 18907 H 1759.35 2.60122 3.80965 0
M  V30 18908 H 1757.6 2.50316 3.54294 0
M  V30 18909 H 1758.27 2.06842 5.11782 0
M  V30 18910 H 1760.74 0.407489 4.141 0
M  V30 18911 H 1759.62 0.0937898 5.4882 0
M  V30 18912 H 1759.88 -1.14472 4.27023 0
M  V30 18913 N 1758.94 -1.47929 0.54358 0
M  V30 18914 C 1759.89 -2.29827 -0.211706 0
M  V30 18915 C 1760.86 -1.38217 -0.921154 0
M  V30 18916 O 1762.04 -1.67181 -0.919522 0
M  V30 18917 C 1759.18 -3.21889 -1.24425 0
M  V30 18918 C 1758.29 -4.28583 -0.542264 0
M  V30 18919 C 1757.43 -5.0781 -1.55892 0
M  V30 18920 C 1756.47 -6.06293 -0.841146 0
M  V30 18921 N 1755.61 -6.78528 -1.80399 0
M  V30 18922 H 1760.45 -2.93896 0.492835 0
M  V30 18923 H 1757.98 -1.44875 0.254873 0
M  V30 18924 H 1759.94 -3.73674 -1.85535 0
M  V30 18925 H 1758.57 -2.59713 -1.917 0
M  V30 18926 H 1757.62 -3.79959 0.183069 0
M  V30 18927 H 1758.93 -4.98796 0.0206703 0
M  V30 18928 H 1758.09 -5.63678 -2.24393 0
M  V30 18929 H 1756.83 -4.37468 -2.15576 0
M  V30 18930 H 1755.83 -5.49616 -0.14214 0
M  V30 18931 H 1757.06 -6.78639 -0.250232 0
M  V30 18932 H 1755 -6.10927 -2.38965 0
M  V30 18933 H 1754.92 -7.44863 -1.29285 0
M  V30 18934 H 1756.19 -7.38978 -2.48056 0
M  V30 18935 N 1760.42 -0.27936 -1.55104 0
M  V30 18936 C 1761.33 0.616249 -2.26361 0
M  V30 18937 C 1762.34 1.16656 -1.29102 0
M  V30 18938 O 1763.52 1.19596 -1.62046 0
M  V30 18939 C 1760.58 1.78191 -2.97403 0
M  V30 18940 C 1759.65 1.26785 -4.10151 0
M  V30 18941 C 1758.88 2.37795 -4.77796 0
M  V30 18942 O 1759.1 3.57242 -4.44673 0
M  V30 18943 O 1758.04 2.05711 -5.65656 0
M  V30 18944 H 1761.86 0.0388715 -3.03675 0
M  V30 18945 H 1759.45 -0.0466058 -1.49327 0
M  V30 18946 H 1761.33 2.4615 -3.42036 0
M  V30 18947 H 1760 2.3463 -2.23003 0
M  V30 18948 H 1758.91 0.554608 -3.69966 0
M  V30 18949 H 1760.24 0.749157 -4.86465 0
M  V30 18950 N 1761.9 1.57599 -0.0067085 0
M  V30 18951 C 1762.83 2.11878 0.981331 0
M  V30 18952 C 1763.81 1.02949 1.35408 0
M  V30 18953 O 1764.99 1.30667 1.43665 0
M  V30 18954 C 1762.12 2.62757 2.27104 0
M  V30 18955 C 1761.08 3.76272 2.0397 0
M  V30 18956 C 1760.4 4.13491 3.39012 0
M  V30 18957 C 1761.7 5.03274 1.39688 0
M  V30 18958 H 1763.4 2.94683 0.529366 0
M  V30 18959 H 1760.94 1.41757 0.253187 0
M  V30 18960 H 1762.89 2.99359 2.96585 0
M  V30 18961 H 1761.62 1.77082 2.74426 0
M  V30 18962 H 1760.28 3.40074 1.36913 0
M  V30 18963 H 1759.93 3.24831 3.8405 0
M  V30 18964 H 1759.63 4.89972 3.24347 0
M  V30 18965 H 1761.15 4.52657 4.09797 0
M  V30 18966 H 1762.56 5.37604 1.99136 0
M  V30 18967 H 1760.96 5.84604 1.3549 0
M  V30 18968 H 1762.03 4.8351 0.366928 0
M  V30 18969 N 1763.37 -0.266145 1.55336 0
M  V30 18970 C 1764.6 -1.01915 1.80633 0
M  V30 18971 C 1765.02 -1.78897 0.581172 0
M  V30 18972 O 1764.38 -1.75118 -0.469399 0
M  V30 18973 C 1764.43 -1.948 3.03456 0
M  V30 18974 O 1763.53 -3.03678 2.79022 0
M  V30 18975 H 1762.87 -0.29102 0.596828 0
M  V30 18976 H 1765.4 -0.292973 2.02492 0
M  V30 18977 H 1765.41 -2.36626 3.32373 0
M  V30 18978 H 1764.09 -1.38182 3.92273 0
M  V30 18979 H 1762.67 -2.66118 2.61219 0
M  V30 18980 N 1764.85 -1.48386 -0.530967 0
M  V30 18981 C 1765.8 -1.59236 -1.6318 0
M  V30 18982 C 1766.79 -0.449549 -1.54492 0
M  V30 18983 O 1767.98 -0.700935 -1.6253 0
M  V30 18984 C 1765.11 -1.6343 -3.01903 0
M  V30 18985 C 1764.19 -2.83188 -3.15699 0
M  V30 18986 N 1764.58 -4.07616 -2.99471 0
M  V30 18987 C 1762.88 -2.80499 -3.46751 0
M  V30 18988 C 1763.58 -4.87959 -3.16657 0
M  V30 18989 N 1762.56 -4.20757 -3.44186 0
M  V30 18990 H 1766.36 -2.53187 -1.49243 0
M  V30 18991 H 1763.87 -1.44744 -0.7364 0
M  V30 18992 H 1765.87 -1.69297 -3.80978 0
M  V30 18993 H 1764.53 -0.705948 -3.16933 0
M  V30 18994 H 1765.54 -4.38068 -2.76255 0
M  V30 18995 H 1762.22 -1.96916 -3.68145 0
M  V30 18996 H 1763.61 -5.96705 -3.08857 0
M  V30 18997 N 1766.33 0.779763 -1.36958 0
M  V30 18998 C 1767.28 1.89278 -1.32071 0
M  V30 18999 C 1768.25 1.65037 -0.18766 0
M  V30 19000 O 1769.43 1.87064 -0.375736 0
M  V30 19001 C 1766.57 3.2623 -1.12552 0
M  V30 19002 C 1765.68 3.62479 -2.35017 0
M  V30 19003 C 1764.82 4.88599 -2.08434 0
M  V30 19004 C 1763.86 5.17555 -3.26808 0
M  V30 19005 N 1763 6.3486 -2.99828 0
M  V30 19006 H 1767.84 1.9279 -2.27235 0
M  V30 19007 H 1765.37 0.942656 -1.12927 0
M  V30 19008 H 1767.33 4.0522 -0.992595 0
M  V30 19009 H 1765.96 3.22114 -0.210387 0
M  V30 19010 H 1765.01 2.78536 -2.59079 0
M  V30 19011 H 1766.32 3.7982 -3.23324 0
M  V30 19012 H 1765.48 5.75476 -1.92127 0
M  V30 19013 H 1764.22 4.73346 -1.17453 0
M  V30 19014 H 1763.22 4.29156 -3.43664 0
M  V30 19015 H 1764.45 5.34721 -4.18629 0
M  V30 19016 H 1762.39 6.20981 -2.11468 0
M  V30 19017 H 1762.31 6.52579 -3.81676 0
M  V30 19018 H 1763.58 7.24695 -2.8712 0
M  V30 19019 N 1767.81 1.21396 1.00503 0
M  V30 19020 C 1769.05 1.03117 1.74279 0
M  V30 19021 C 1769.38 -0.43531 1.89566 0
M  V30 19022 O 1768.64 -1.33929 1.42694 0
M  V30 19023 C 1768.94 1.67343 3.15802 0
M  V30 19024 C 1768.6 3.17198 3.20463 0
M  V30 19025 C 1767.26 3.5809 3.21442 0
M  V30 19026 C 1769.62 4.13172 3.17708 0
M  V30 19027 C 1766.94 4.93462 3.17352 0
M  V30 19028 C 1769.3 5.48505 3.15159 0
M  V30 19029 C 1767.96 5.88794 3.14448 0
M  V30 19030 H 1767.23 0.377332 0.637732 0
M  V30 19031 H 1769.88 1.50987 1.17792 0
M  V30 19032 H 1768.18 1.11765 3.75521 0
M  V30 19033 H 1769.88 1.50703 3.71604 0
M  V30 19034 H 1766.47 2.8463 3.20443 0
M  V30 19035 H 1770.65 3.82606 3.16112 0
M  V30 19036 H 1765.91 5.23925 3.15138 0
M  V30 19037 H 1770.08 6.22608 3.11982 0
M  V30 19038 H 1767.71 6.93659 3.11033 0
M  V30 19039 N 1769.29 -1.19996 1.0217 0
M  V30 19040 C 1770.53 -1.89121 0.712579 0
M  V30 19041 C 1770.85 -1.79556 -0.760561 0
M  V30 19042 O 1770.12 -1.2013 -1.54744 0
M  V30 19043 H 1768.7 -0.700075 0.260585 0
M  V30 19044 H 1771.37 -1.4571 1.2944 0
M  V30 19045 H 1770.46 -2.95629 1.00051 0
M  V30 19046 N 1770.76 -0.798611 -1.35867 0
M  V30 19047 C 1772.01 -0.371795 -1.98244 0
M  V30 19048 C 1772.33 1.06474 -1.64081 0
M  V30 19049 O 1773.53 1.59428 -2.19761 0
M  V30 19050 C 1771.99 -0.613821 -3.54627 0
M  V30 19051 C 1771.6 -2.06237 -3.97706 0
M  V30 19052 C 1773.34 -0.251966 -4.23752 0
M  V30 19053 C 1771.25 -2.25057 -5.46903 0
M  V30 19054 H 1770.18 -0.135278 -0.741765 0
M  V30 19055 H 1772.83 -0.981544 -1.55042 0
M  V30 19056 H 1771.21 0.0657688 -3.95945 0
M  V30 19057 H 1772.38 -2.77912 -3.67562 0
M  V30 19058 H 1770.7 -2.38334 -3.41447 0
M  V30 19059 H 1773.3 -0.370736 -5.33413 0
M  V30 19060 H 1773.64 0.800968 -4.08522 0
M  V30 19061 H 1774.17 -0.885155 -3.87827 0
M  V30 19062 H 1770.91 -3.28767 -5.67091 0
M  V30 19063 H 1770.43 -1.57898 -5.78643 0
M  V30 19064 H 1772.11 -2.06219 -6.13256 0
M  V30 19065 N 1772.24 1.47639 -0.551417 0
M  V30 19066 C 1773.65 1.86336 -0.116513 0
M  V30 19067 C 1774 1.45869 1.31213 0
M  V30 19068 O 1773.13 0.859103 1.98616 0
M  V30 19069 C 1773.72 3.38181 -0.204671 0
M  V30 19070 C 1772.28 3.75992 0.175161 0
M  V30 19071 C 1771.43 2.71692 -0.554843 0
M  V30 19072 H 1774.38 1.39238 -0.761471 0
M  V30 19073 H 1774.4 3.76081 0.578214 0
M  V30 19074 H 1773.91 3.67604 -1.24456 0
M  V30 19075 H 1772.01 3.52186 1.21638 0
M  V30 19076 H 1772.13 4.78764 -0.179368 0
M  V30 19077 H 1770.49 2.547 0.00140775 0
M  V30 19078 H 1771.27 3.03957 -1.59578 0
M  V30 19079 N 1773.72 0.287581 1.54954 0
M  V30 19080 C 1774.67 -0.610315 2.2445 0
M  V30 19081 C 1775.66 -1.14786 1.24582 0
M  V30 19082 O 1776.87 -1.10005 1.42474 0
M  V30 19083 H 1773.24 -0.215394 0.720493 0
M  V30 19084 H 1775.21 -0.00148121 2.984 0
M  V30 19085 C 1773.96 -1.77719 2.9885 0
M  V30 19086 H 1773.29 -1.37277 3.75493 0
M  V30 19087 H 1774.73 -2.38181 3.50779 0
M  V30 19088 C 1773.19 -2.67321 2.05039 0
M  V30 19089 O 1773.72 -3.68038 1.60968 0
M  V30 19090 N 1771.92 -2.34761 1.71276 0
M  V30 19091 H 1771.47 -1.52905 2.07311 0
M  V30 19092 H 1771.43 -2.94981 1.08781 0
M  V30 19093 N 1775.2 -1.57593 0.0150662 0
M  V30 19094 C 1776.13 -2.12395 -0.970081 0
M  V30 19095 C 1777.11 -1.03666 -1.34861 0
M  V30 19096 O 1778.29 -1.31427 -1.4297 0
M  V30 19097 C 1775.42 -2.63958 -2.25707 0
M  V30 19098 C 1774.38 -3.77348 -2.01971 0
M  V30 19099 C 1773.7 -4.15284 -3.36814 0
M  V30 19100 C 1775 -5.04008 -1.37017 0
M  V30 19101 H 1776.7 -2.9496 -0.513731 0
M  V30 19102 H 1774.24 -1.41889 -0.245666 0
M  V30 19103 H 1776.2 -3.00927 -2.94993 0
M  V30 19104 H 1774.92 -1.78535 -2.73483 0
M  V30 19105 H 1773.58 -3.40795 -1.35107 0
M  V30 19106 H 1773.23 -3.26863 -3.82321 0
M  V30 19107 H 1772.93 -4.91686 -3.21744 0
M  V30 19108 H 1774.45 -4.54824 -4.07391 0
M  V30 19109 H 1775.87 -5.38652 -1.96282 0
M  V30 19110 H 1774.26 -5.85315 -1.32388 0
M  V30 19111 H 1775.33 -4.83698 -0.341281 0
M  V30 19112 N 1776.68 0.257904 -1.55475 0
M  V30 19113 C 1777.92 0.988933 -1.77054 0
M  V30 19114 C 1778.26 1.85387 -0.578375 0
M  V30 19115 O 1777.53 1.8983 0.423673 0
M  V30 19116 C 1777.81 1.85876 -3.08419 0
M  V30 19117 C 1777.67 1.02274 -4.38018 0
M  V30 19118 C 1778.99 2.84322 -3.3593 0
M  V30 19119 H 1776.1 0.358103 -0.644152 0
M  V30 19120 H 1778.75 0.260209 -1.8821 0
M  V30 19121 H 1776.9 2.48008 -2.99039 0
M  V30 19122 H 1778.57 0.420967 -4.59375 0
M  V30 19123 H 1776.81 0.326705 -4.32568 0
M  V30 19124 H 1777.48 1.6649 -5.26294 0
M  V30 19125 H 1779.96 2.32325 -3.45202 0
M  V30 19126 H 1778.83 3.42313 -4.29084 0
M  V30 19127 H 1779.1 3.60223 -2.56304 0
M  V30 19128 N 1778.15 1.48666 0.52309 0
M  V30 19129 C 1779.12 1.63211 1.60919 0
M  V30 19130 C 1780.12 0.505012 1.52664 0
M  V30 19131 O 1781.31 0.770967 1.56211 0
M  V30 19132 C 1778.44 1.60878 3.00551 0
M  V30 19133 H 1779.63 2.60061 1.4936 0
M  V30 19134 H 1777.19 1.37366 0.745674 0
M  V30 19135 H 1777.92 0.655306 3.1761 0
M  V30 19136 H 1777.71 2.4271 3.07952 0
M  V30 19137 H 1779.2 1.74263 3.79502 0
M  V30 19138 N 1779.63 -0.772489 1.37369 0
M  V30 19139 C 1781.05 -1.07294 1.18153 0
M  V30 19140 C 1781.25 -2.01493 0.0171782 0
M  V30 19141 O 1780.3 -2.44177 -0.642964 0
M  V30 19142 C 1781.62 -1.67116 2.49986 0
M  V30 19143 C 1783.17 -1.79377 2.56501 0
M  V30 19144 C 1783.64 -2.42612 3.88463 0
M  V30 19145 N 1785.13 -2.50063 3.89901 0
M  V30 19146 C 1785.87 -2.99841 4.88756 0
M  V30 19147 N 1785.36 -3.49798 5.98008 0
M  V30 19148 N 1787.16 -2.98709 4.76161 0
M  V30 19149 H 1779.31 -0.147014 2.11891 0
M  V30 19150 H 1781.57 -0.127846 0.93934 0
M  V30 19151 H 1781.28 -1.05369 3.35545 0
M  V30 19152 H 1781.15 -2.6642 2.67021 0
M  V30 19153 H 1783.54 -2.40257 1.71349 0
M  V30 19154 H 1783.62 -0.788304 2.4335 0
M  V30 19155 H 1783.26 -1.82372 4.74029 0
M  V30 19156 H 1783.19 -3.43763 3.98917 0
M  V30 19157 H 1785.68 -2.14709 3.1098 0
M  V30 19158 H 1786 -3.86181 6.69391 0
M  V30 19159 H 1784.34 -3.47905 6.01654 0
M  V30 19160 H 1787.53 -2.5898 3.89932 0
M  V30 19161 H 1787.7 -3.37193 5.53358 0
M  V30 19162 N 1781.11 -1.21927 -0.998575 0
M  V30 19163 C 1782.04 -0.942076 -2.08944 0
M  V30 19164 C 1783.06 0.0771683 -1.62617 0
M  V30 19165 O 1784.24 -0.156133 -1.77816 0
M  V30 19166 C 1781.34 -0.394201 -3.366 0
M  V30 19167 C 1780.52 -1.46931 -4.11983 0
M  V30 19168 C 1779.58 -0.929531 -5.17925 0
M  V30 19169 O 1778.6 -1.61444 -5.45824 0
M  V30 19170 N 1779.8 0.251965 -5.79953 0
M  V30 19171 H 1782.57 -1.88119 -2.33306 0
M  V30 19172 H 1780.13 -1.12539 -1.16389 0
M  V30 19173 H 1782.12 -0.0185416 -4.04696 0
M  V30 19174 H 1780.69 0.449884 -3.09346 0
M  V30 19175 H 1779.91 -2.01854 -3.38598 0
M  V30 19176 H 1781.2 -2.19284 -4.59121 0
M  V30 19177 H 1780.6 0.825333 -5.59647 0
M  V30 19178 H 1779.16 0.569068 -6.49311 0
M  V30 19179 N 1782.59 1.19452 -1.02805 0
M  V30 19180 C 1783.84 1.88439 -0.719284 0
M  V30 19181 C 1784.15 1.80435 0.755143 0
M  V30 19182 O 1785.36 2.44664 1.17693 0
M  V30 19183 C 1783.81 3.38001 -1.23625 0
M  V30 19184 C 1783.42 3.54564 -2.7384 0
M  V30 19185 C 1785.16 4.1247 -1.00343 0
M  V30 19186 C 1783.07 4.98016 -3.18958 0
M  V30 19187 H 1782 0.705762 -0.265359 0
M  V30 19188 H 1784.65 1.35058 -1.24224 0
M  V30 19189 H 1783.03 3.90774 -0.641211 0
M  V30 19190 H 1784.21 3.12124 -3.38991 0
M  V30 19191 H 1782.52 2.93484 -2.95392 0
M  V30 19192 H 1785.12 5.18257 -1.31581 0
M  V30 19193 H 1785.46 4.16257 0.0597873 0
M  V30 19194 H 1786 3.65832 -1.56243 0
M  V30 19195 H 1782.74 4.9939 -4.24605 0
M  V30 19196 H 1782.26 5.41221 -2.58534 0
M  V30 19197 H 1783.93 5.66664 -3.12252 0
M  V30 19198 N 1784.07 0.805805 1.35442 0
M  V30 19199 C 1785.31 0.386379 1.99085 0
M  V30 19200 C 1785.65 -1.04356 1.63779 0
M  V30 19201 O 1784.92 -1.72386 0.900731 0
M  V30 19202 C 1785.2 0.569062 3.55575 0
M  V30 19203 C 1785.06 2.04387 4.00682 0
M  V30 19204 C 1786.38 -0.00574668 4.401 0
M  V30 19205 H 1783.49 0.141862 0.723218 0
M  V30 19206 H 1786.14 1.01519 1.60605 0
M  V30 19207 H 1784.29 0.0337767 3.88485 0
M  V30 19208 H 1785.96 2.64148 3.78184 0
M  V30 19209 H 1784.2 2.54059 3.5162 0
M  V30 19210 H 1784.87 2.12258 5.09559 0
M  V30 19211 H 1787.35 0.451387 4.13644 0
M  V30 19212 H 1786.22 0.151994 5.4869 0
M  V30 19213 H 1786.49 -1.09937 4.28213 0
M  V30 19214 N 1785.54 -1.47344 0.559239 0
M  V30 19215 C 1786.49 -2.31735 -0.200368 0
M  V30 19216 C 1787.49 -1.43051 -0.907351 0
M  V30 19217 O 1788.69 -1.59804 -0.828406 0
M  V30 19218 H 1785.07 -0.747351 -0.0834871 0
M  V30 19219 H 1787.04 -2.93645 0.530556 0
M  V30 19220 C 1785.79 -3.25747 -1.2159 0
M  V30 19221 H 1785.11 -3.93952 -0.681314 0
M  V30 19222 H 1786.55 -3.87624 -1.71825 0
M  V30 19223 C 1785.01 -2.49414 -2.26482 0
M  V30 19224 O 1785.54 -2.24006 -3.33443 0
M  V30 19225 N 1783.75 -2.10387 -2.00464 0
M  V30 19226 H 1783.29 -2.3125 -1.13495 0
M  V30 19227 H 1783.25 -1.5963 -2.70861 0
M  V30 19228 N 1787.02 -0.295795 -1.54799 0
M  V30 19229 C 1788.25 0.32058 -2.04907 0
M  V30 19230 C 1788.67 1.47132 -1.17191 0
M  V30 19231 O 1788.03 1.80455 -0.174869 0
M  V30 19232 C 1788.08 0.759439 -3.52512 0
M  V30 19233 O 1787.18 1.86474 -3.67833 0
M  V30 19234 H 1786.52 0.0631128 -0.660994 0
M  V30 19235 H 1789.05 -0.436123 -1.99898 0
M  V30 19236 H 1789.06 1.04965 -3.94267 0
M  V30 19237 H 1787.74 -0.0823715 -4.15818 0
M  V30 19238 H 1786.32 1.57547 -3.37984 0
M  V30 19239 N 1788.5 1.57583 -0.0234236 0
M  V30 19240 C 1789.74 1.93428 0.660675 0
M  V30 19241 C 1790.11 0.899634 1.69619 0
M  V30 19242 O 1791.31 1.1441 2.43236 0
M  V30 19243 C 1789.58 3.3422 1.26617 0
M  V30 19244 S 1791.14 3.91985 1.97214 0
M  V30 19245 H 1787.95 0.676862 0.217666 0
M  V30 19246 H 1790.56 1.95312 -0.0857251 0
M  V30 19247 H 1789.26 4.07343 0.500004 0
M  V30 19248 H 1788.79 3.35766 2.05 0
M  V30 19249 H 1790.81 3.74958 3.24994 0
M  V30 19250 N 1789.98 -0.249655 1.5561 0
M  V30 19251 C 1790.94 -1.29242 1.89286 0
M  V30 19252 C 1791.94 -1.41214 0.769104 0
M  V30 19253 O 1793.13 -1.39962 1.03712 0
M  V30 19254 C 1790.26 -2.67053 2.11885 0
M  V30 19255 H 1791.46 -1.00601 2.82523 0
M  V30 19256 H 1789.01 -0.488819 1.4846 0
M  V30 19257 H 1789.75 -3.00838 1.21107 0
M  V30 19258 H 1789.53 -2.59745 2.93726 0
M  V30 19259 H 1791.02 -3.42353 2.39132 0
M  V30 19260 N 1791.46 -1.48941 -0.515198 0
M  V30 19261 C 1792.39 -1.60665 -1.63461 0
M  V30 19262 C 1793.4 -0.490076 -1.55248 0
M  V30 19263 O 1794.59 -0.761549 -1.61439 0
M  V30 19264 C 1791.69 -1.53414 -3.02187 0
M  V30 19265 C 1790.86 -2.80364 -3.3573 0
M  V30 19266 C 1789.92 -2.66362 -4.53804 0
M  V30 19267 O 1788.95 -3.40276 -4.5629 0
M  V30 19268 N 1790.15 -1.76961 -5.5287 0
M  V30 19269 H 1792.92 -2.57206 -1.53836 0
M  V30 19270 H 1790.48 -1.45851 -0.702786 0
M  V30 19271 H 1792.47 -1.41721 -3.79074 0
M  V30 19272 H 1791.04 -0.647891 -3.05812 0
M  V30 19273 H 1790.26 -3.06513 -2.47878 0
M  V30 19274 H 1791.55 -3.64555 -3.54932 0
M  V30 19275 H 1790.95 -1.16139 -5.5365 0
M  V30 19276 H 1789.5 -1.71198 -6.28915 0
M  V30 19277 N 1792.94 0.765193 -1.37777 0
M  V30 19278 C 1794.18 1.53692 -1.34752 0
M  V30 19279 C 1794.54 1.91888 0.0655965 0
M  V30 19280 O 1795.74 2.67893 0.220628 0
M  V30 19281 C 1794.01 2.76363 -2.26623 0
M  V30 19282 S 1795.57 3.66358 -2.4151 0
M  V30 19283 H 1792.39 0.526091 -0.478277 0
M  V30 19284 H 1794.99 0.899252 -1.73591 0
M  V30 19285 H 1793.69 2.46393 -3.28205 0
M  V30 19286 H 1793.23 3.45085 -1.88892 0
M  V30 19287 H 1795.24 4.68644 -1.63055 0
M  V30 19288 N 1794.41 1.22455 0.992094 0
M  V30 19289 C 1795.35 0.953144 2.08441 0
M  V30 19290 C 1796.36 -0.0685432 1.62656 0
M  V30 19291 O 1797.55 0.165561 1.77731 0
M  V30 19292 C 1794.65 0.412046 3.36386 0
M  V30 19293 C 1793.82 1.49114 4.11198 0
M  V30 19294 C 1792.88 0.956984 5.17425 0
M  V30 19295 O 1791.91 1.64337 5.44961 0
M  V30 19296 N 1793.11 -0.221205 5.80078 0
M  V30 19297 H 1795.87 1.89353 2.32305 0
M  V30 19298 H 1793.43 1.13155 1.15791 0
M  V30 19299 H 1795.43 0.0400033 4.0468 0
M  V30 19300 H 1794 -0.433473 3.0958 0
M  V30 19301 H 1793.22 2.03647 3.37523 0
M  V30 19302 H 1794.5 2.21716 4.57951 0
M  V30 19303 H 1793.9 -0.795642 5.60077 0
M  V30 19304 H 1792.46 -0.534625 6.49604 0
M  V30 19305 N 1795.89 -1.18905 1.03437 0
M  V30 19306 C 1796.82 -2.21792 0.578016 0
M  V30 19307 C 1797.84 -1.59015 -0.349014 0
M  V30 19308 O 1799.03 -1.77914 -0.144532 0
M  V30 19309 C 1796.13 -3.38441 -0.176348 0
M  V30 19310 C 1795.3 -4.308 0.756988 0
M  V30 19311 C 1794.36 -5.26179 0.0470478 0
M  V30 19312 O 1793.38 -5.65179 0.675418 0
M  V30 19313 N 1794.59 -5.67497 -1.2218 0
M  V30 19314 H 1797.35 -2.6157 1.46291 0
M  V30 19315 H 1794.91 -1.33627 0.914078 0
M  V30 19316 H 1796.9 -3.99266 -0.660972 0
M  V30 19317 H 1795.47 -2.97406 -0.962715 0
M  V30 19318 H 1794.69 -3.67674 1.4216 0
M  V30 19319 H 1795.98 -4.89413 1.39113 0
M  V30 19320 H 1795.38 -5.37855 -1.75295 0
M  V30 19321 H 1793.94 -6.30548 -1.65081 0
M  V30 19322 N 1797.37 -0.812977 -1.35013 0
M  V30 19323 C 1798.32 -0.225816 -2.29693 0
M  V30 19324 C 1799.29 0.643767 -1.53117 0
M  V30 19325 O 1800.47 0.587505 -1.8153 0
M  V30 19326 C 1797.61 0.614444 -3.39586 0
M  V30 19327 C 1796.72 -0.276281 -4.31116 0
M  V30 19328 C 1795.86 0.572595 -5.28105 0
M  V30 19329 C 1794.9 -0.318133 -6.11273 0
M  V30 19330 N 1794.04 0.491086 -7.0038 0
M  V30 19331 H 1798.88 -1.03861 -2.79315 0
M  V30 19332 H 1796.41 -0.523695 -1.37462 0
M  V30 19333 H 1798.37 1.11683 -4.01973 0
M  V30 19334 H 1797 1.39244 -2.91223 0
M  V30 19335 H 1796.05 -0.89682 -3.69677 0
M  V30 19336 H 1797.36 -0.961601 -4.89443 0
M  V30 19337 H 1796.52 1.13986 -5.95896 0
M  V30 19338 H 1795.26 1.29146 -4.7029 0
M  V30 19339 H 1794.26 -0.897622 -5.42423 0
M  V30 19340 H 1795.49 -1.03496 -6.71167 0
M  V30 19341 H 1793.43 1.19381 -6.45046 0
M  V30 19342 H 1793.35 -0.136054 -7.55878 0
M  V30 19343 H 1794.62 1.04143 -7.72512 0
M  V30 19344 N 1798.85 1.47045 -0.567045 0
M  V30 19345 C 1800.1 2.02046 -0.0465877 0
M  V30 19346 C 1800.42 1.44271 1.3119 0
M  V30 19347 O 1799.69 0.621533 1.85779 0
M  V30 19348 H 1798.27 0.746864 -0.0142323 0
M  V30 19349 H 1800.93 1.80335 -0.739281 0
M  V30 19350 H 1800.02 3.12081 0.0341623 0
M  V30 19351 N 1800.33 0.304 1.5464 0
M  V30 19352 C 1801.24 -0.580159 2.27313 0
M  V30 19353 C 1802.25 -1.14588 1.30941 0
M  V30 19354 O 1803.43 -1.17002 1.63928 0
M  V30 19355 C 1800.49 -1.73437 3.00201 0
M  V30 19356 C 1799.55 -1.20243 4.12116 0
M  V30 19357 C 1798.79 -2.30164 4.81519 0
M  V30 19358 O 1799.01 -3.50123 4.503 0
M  V30 19359 O 1797.94 -1.96686 5.68857 0
M  V30 19360 H 1801.77 0.00944552 3.03699 0
M  V30 19361 H 1799.35 0.0703565 1.49234 0
M  V30 19362 H 1801.24 -2.40677 3.45908 0
M  V30 19363 H 1799.91 -2.31053 2.26708 0
M  V30 19364 H 1798.82 -0.495679 3.70802 0
M  V30 19365 H 1800.15 -0.67167 4.87596 0
M  V30 19366 N 1801.8 -1.57568 0.0317802 0
M  V30 19367 C 1802.77 -2.09296 -0.934239 0
M  V30 19368 C 1803.77 -1.00855 -1.25239 0
M  V30 19369 O 1804.96 -1.27004 -1.19229 0
M  V30 19370 C 1802.09 -2.56103 -2.24998 0
M  V30 19371 H 1803.28 -2.95933 -0.486183 0
M  V30 19372 H 1800.83 -1.54796 -0.2163 0
M  V30 19373 H 1801.57 -1.72803 -2.74426 0
M  V30 19374 H 1801.35 -3.35329 -2.03216 0
M  V30 19375 H 1802.84 -2.96339 -2.94233 0
M  V30 19376 N 1803.28 0.241399 -1.5574 0
M  V30 19377 C 1804.53 0.966607 -1.7703 0
M  V30 19378 C 1804.84 1.86275 -0.59673 0
M  V30 19379 O 1806.05 2.62513 -0.692775 0
M  V30 19380 C 1804.51 1.7688 -3.13435 0
M  V30 19381 C 1804.11 0.919775 -4.38457 0
M  V30 19382 C 1805.86 2.48641 -3.44061 0
M  V30 19383 C 1803.77 1.71817 -5.65891 0
M  V30 19384 H 1802.7 0.364644 -0.659963 0
M  V30 19385 H 1805.35 0.221088 -1.82163 0
M  V30 19386 H 1803.73 2.55648 -3.02424 0
M  V30 19387 H 1804.9 0.174036 -4.60471 0
M  V30 19388 H 1803.22 0.315234 -4.15205 0
M  V30 19389 H 1805.81 3.08839 -4.36489 0
M  V30 19390 H 1806.16 3.20534 -2.65638 0
M  V30 19391 H 1806.69 1.7688 -3.56312 0
M  V30 19392 H 1803.43 1.04289 -6.47151 0
M  V30 19393 H 1802.95 2.43905 -5.47969 0
M  V30 19394 H 1804.63 2.28392 -6.05348 0
M  V30 19395 N 1804.76 1.49212 0.507292 0
M  V30 19396 C 1805.71 1.61812 1.60626 0
M  V30 19397 C 1806.69 0.474071 1.53758 0
M  V30 19398 O 1807.89 0.726703 1.61394 0
M  V30 19399 C 1805.02 1.68213 2.99265 0
M  V30 19400 C 1804.1 2.88174 3.11153 0
M  V30 19401 N 1804.49 4.12328 2.92949 0
M  V30 19402 C 1802.79 2.8598 3.42245 0
M  V30 19403 C 1803.49 4.92935 3.08853 0
M  V30 19404 N 1802.47 4.2618 3.37449 0
M  V30 19405 H 1806.27 2.5553 1.45196 0
M  V30 19406 H 1803.78 1.45898 0.71328 0
M  V30 19407 H 1805.78 1.75336 3.78236 0
M  V30 19408 H 1804.44 0.756279 3.1577 0
M  V30 19409 H 1805.45 4.42408 2.6925 0
M  V30 19410 H 1802.13 2.02748 3.64965 0
M  V30 19411 H 1803.52 6.01543 2.99324 0
M  V30 19412 N 1806.24 -0.757876 1.38181 0
M  V30 19413 C 1807.49 -1.51388 1.33888 0
M  V30 19414 C 1807.81 -1.94867 -0.0718767 0
M  V30 19415 O 1807.08 -1.67329 -1.01871 0
M  V30 19416 H 1805.66 -0.561534 0.492634 0
M  V30 19417 H 1808.32 -0.901156 1.72815 0
M  V30 19418 H 1807.42 -2.4068 1.98695 0
M  V30 19419 N 1807.72 -1.22979 -0.985586 0
M  V30 19420 C 1808.65 -0.964185 -2.07933 0
M  V30 19421 C 1809.66 0.0599162 -1.6269 0
M  V30 19422 O 1810.85 -0.174984 -1.7764 0
M  V30 19423 C 1807.95 -0.429879 -3.36163 0
M  V30 19424 C 1807.12 -1.51293 -4.10401 0
M  V30 19425 C 1806.18 -0.984411 -5.1691 0
M  V30 19426 O 1805.21 -1.67225 -5.44081 0
M  V30 19427 N 1806.41 0.190439 -5.80188 0
M  V30 19428 H 1809.18 -1.90582 -2.31297 0
M  V30 19429 H 1806.74 -1.13767 -1.15189 0
M  V30 19430 H 1808.73 -0.0614639 -4.04653 0
M  V30 19431 H 1807.3 0.417049 -3.09806 0
M  V30 19432 H 1806.52 -2.05434 -3.36438 0
M  V30 19433 H 1807.81 -2.24141 -4.56769 0
M  V30 19434 H 1807.2 0.765928 -5.60491 0
M  V30 19435 H 1805.76 0.500168 -6.49878 0
M  V30 19436 N 1809.19 1.18355 -1.04066 0
M  V30 19437 C 1810.44 1.88614 -0.745148 0
M  V30 19438 C 1810.77 1.80147 0.725294 0
M  V30 19439 O 1810.05 1.20177 1.5293 0
M  V30 19440 C 1810.33 3.39095 -1.2119 0
M  V30 19441 C 1810.18 3.56372 -2.74444 0
M  V30 19442 C 1811.5 4.32732 -0.801953 0
M  V30 19443 H 1808.62 0.684905 -0.272166 0
M  V30 19444 H 1811.26 1.39248 -1.29267 0
M  V30 19445 H 1809.41 3.81269 -0.746091 0
M  V30 19446 H 1811.09 3.2329 -3.29061 0
M  V30 19447 H 1809.33 2.99028 -3.14269 0
M  V30 19448 H 1810 4.61956 -3.0216 0
M  V30 19449 H 1812.48 3.98337 -1.20278 0
M  V30 19450 H 1811.35 5.36583 -1.15628 0
M  V30 19451 H 1811.61 4.41115 0.294907 0
M  V30 19452 N 1810.67 0.820125 1.3458 0
M  V30 19453 C 1811.62 0.22828 2.31477 0
M  V30 19454 C 1812.61 -0.629439 1.57272 0
M  V30 19455 O 1813.82 -0.521091 1.72292 0
M  V30 19456 H 1810.2 0.0550728 0.749981 0
M  V30 19457 H 1812.17 1.0604 2.78923 0
M  V30 19458 C 1810.92 -0.597495 3.42528 0
M  V30 19459 H 1810.24 0.0531749 3.99765 0
M  V30 19460 H 1811.68 -0.977765 4.12572 0
M  V30 19461 C 1810.14 -1.76868 2.86739 0
M  V30 19462 O 1810.67 -2.86674 2.81391 0
M  V30 19463 N 1808.87 -1.58453 2.436 0
M  V30 19464 H 1808.42 -0.691318 2.4815 0
M  V30 19465 H 1808.38 -2.36969 2.06624 0
M  V30 19466 N 1812.15 -1.46743 0.574835 0
M  V30 19467 C 1813.11 -2.28691 -0.152633 0
M  V30 19468 C 1814.11 -1.37949 -0.826238 0
M  V30 19469 O 1815.3 -1.60405 -0.679398 0
M  V30 19470 C 1812.44 -3.1812 -1.22525 0
M  V30 19471 H 1813.63 -2.94483 0.567439 0
M  V30 19472 H 1811.18 -1.52723 0.33248 0
M  V30 19473 H 1811.92 -2.57058 -1.97716 0
M  V30 19474 H 1811.7 -3.84922 -0.746841 0
M  V30 19475 H 1813.19 -3.7982 -1.7357 0
M  V30 19476 N 1813.63 -0.312197 -1.54477 0
M  V30 19477 C 1814.54 0.568096 -2.27618 0
M  V30 19478 C 1815.55 1.13892 -1.31547 0
M  V30 19479 O 1816.73 1.16131 -1.64546 0
M  V30 19480 C 1813.8 1.71843 -3.01116 0
M  V30 19481 C 1812.86 1.18056 -4.12748 0
M  V30 19482 C 1812.09 2.27607 -4.82733 0
M  V30 19483 O 1812.31 3.4773 -4.52151 0
M  V30 19484 O 1811.25 1.93667 -5.69892 0
M  V30 19485 H 1815.07 -0.0255513 -3.03689 0
M  V30 19486 H 1812.66 -0.0782698 -1.49195 0
M  V30 19487 H 1814.54 2.38839 -3.4718 0
M  V30 19488 H 1813.21 2.29847 -2.2793 0
M  V30 19489 H 1812.12 0.476007 -3.71059 0
M  V30 19490 H 1813.45 0.645802 -4.87945 0
M  V30 19491 N 1815.11 1.57549 -0.040136 0
M  V30 19492 C 1816.04 2.13912 0.936168 0
M  V30 19493 C 1817.02 1.05798 1.33194 0
M  V30 19494 O 1818.2 1.33685 1.40861 0
M  V30 19495 C 1815.33 2.67515 2.21479 0
M  V30 19496 C 1814.29 3.80513 1.95943 0
M  V30 19497 C 1813.61 4.20589 3.30165 0
M  V30 19498 C 1814.91 5.06124 1.28981 0
M  V30 19499 H 1816.61 2.9574 0.46674 0
M  V30 19500 H 1814.15 1.42262 0.223062 0
M  V30 19501 H 1816.11 3.05582 2.90168 0
M  V30 19502 H 1814.83 1.82864 2.70608 0
M  V30 19503 H 1813.49 3.42902 1.29669 0
M  V30 19504 H 1813.14 3.32904 3.77073 0
M  V30 19505 H 1812.84 4.96742 3.13881 0
M  V30 19506 H 1814.36 4.61248 4.00103 0
M  V30 19507 H 1815.77 5.41707 1.87687 0
M  V30 19508 H 1814.17 5.87347 1.2306 0
M  V30 19509 H 1815.24 4.84179 0.264286 0
M  V30 19510 N 1816.58 -0.233136 1.55866 0
M  V30 19511 C 1817.83 -0.957324 1.77988 0
M  V30 19512 C 1818.15 -1.85325 0.606593 0
M  V30 19513 O 1817.42 -1.92237 -0.377047 0
M  V30 19514 H 1816 -0.356474 0.656457 0
M  V30 19515 H 1818.67 -0.247774 1.93319 0
M  V30 19516 H 1817.76 -1.57096 2.6968 0
M  V30 19517 N 1818.06 -1.49479 -0.499372 0
M  V30 19518 C 1819.29 -1.6276 -1.27738 0
M  V30 19519 C 1819.71 -0.299635 -1.86407 0
M  V30 19520 O 1819.06 0.715092 -1.67907 0
M  V30 19521 C 1819.11 -2.69762 -2.40647 0
M  V30 19522 O 1818.84 -3.97407 -1.84388 0
M  V30 19523 C 1820.34 -2.93762 -3.31992 0
M  V30 19524 H 1817.56 -0.547893 -0.387368 0
M  V30 19525 H 1820.1 -1.95522 -0.599292 0
M  V30 19526 H 1818.26 -2.39773 -3.04282 0
M  V30 19527 H 1818.67 -4.56361 -2.58525 0
M  V30 19528 H 1820.14 -3.72361 -4.07494 0
M  V30 19529 H 1820.62 -2.0374 -3.89085 0
M  V30 19530 H 1821.23 -3.25173 -2.74122 0
M  V30 19531 N 1819.54 0.750537 -1.38581 0
M  V30 19532 C 1820.79 1.51102 -1.36161 0
M  V30 19533 C 1821.14 1.92342 0.0472582 0
M  V30 19534 O 1820.44 1.62784 1.01054 0
M  V30 19535 C 1820.63 2.77356 -2.25407 0
M  V30 19536 C 1820.46 2.48459 -3.74831 0
M  V30 19537 C 1819.23 2.41527 -4.43839 0
M  V30 19538 C 1821.43 2.15033 -4.67189 0
M  V30 19539 N 1819.41 2.04937 -5.78683 0
M  V30 19540 C 1820.78 1.88759 -5.90567 0
M  V30 19541 C 1822.83 2.01368 -4.55363 0
M  V30 19542 C 1821.54 1.50199 -7.03443 0
M  V30 19543 C 1823.56 1.6421 -5.68145 0
M  V30 19544 C 1822.93 1.38811 -6.90587 0
M  V30 19545 H 1819.02 0.552384 -0.553531 0
M  V30 19546 H 1821.61 0.873708 -1.73996 0
M  V30 19547 H 1819.78 3.38891 -1.89755 0
M  V30 19548 H 1821.51 3.43434 -2.14091 0
M  V30 19549 H 1818.27 2.58101 -3.9709 0
M  V30 19550 H 1818.69 1.89279 -6.50002 0
M  V30 19551 H 1823.33 2.19679 -3.61249 0
M  V30 19552 H 1821.05 1.30628 -7.97472 0
M  V30 19553 H 1824.64 1.54265 -5.60975 0
M  V30 19554 H 1823.52 1.10487 -7.76378 0
M  V30 19555 N 1821.02 1.235 0.979051 0
M  V30 19556 C 1821.95 0.975198 2.07419 0
M  V30 19557 C 1822.96 -0.0512875 1.62719 0
M  V30 19558 O 1824.15 0.184403 1.77545 0
M  V30 19559 C 1821.25 0.447701 3.3593 0
M  V30 19560 C 1820.43 1.53467 4.09593 0
M  V30 19561 C 1819.49 1.01181 5.16381 0
M  V30 19562 O 1818.51 1.70108 5.43187 0
M  V30 19563 N 1819.71 -0.159667 5.8028 0
M  V30 19564 H 1822.48 1.91806 2.30283 0
M  V30 19565 H 1820.04 1.14377 1.14584 0
M  V30 19566 H 1822.03 0.0829228 4.04615 0
M  V30 19567 H 1820.6 -0.400613 3.10022 0
M  V30 19568 H 1819.82 2.07215 3.35344 0
M  V30 19569 H 1821.11 2.2656 4.55574 0
M  V30 19570 H 1820.51 -0.736193 5.60889 0
M  V30 19571 H 1819.06 -0.465696 6.50134 0
M  V30 19572 N 1822.5 -1.17802 1.04693 0
M  V30 19573 C 1823.43 -2.20498 0.587866 0
M  V30 19574 C 1824.41 -1.58076 -0.380899 0
M  V30 19575 O 1825.59 -1.86198 -0.293711 0
M  V30 19576 C 1822.72 -3.38409 -0.140359 0
M  V30 19577 C 1821.77 -4.19258 0.782636 0
M  V30 19578 S 1822.6 -4.85052 2.26902 0
M  V30 19579 C 1823.75 -6.06357 1.55182 0
M  V30 19580 H 1823.99 -2.59096 1.45796 0
M  V30 19581 H 1821.52 -1.28336 0.858441 0
M  V30 19582 H 1823.48 -4.0674 -0.554333 0
M  V30 19583 H 1822.14 -2.98209 -0.98642 0
M  V30 19584 H 1821.33 -5.03522 0.219411 0
M  V30 19585 H 1820.93 -3.56338 1.13575 0
M  V30 19586 H 1823.23 -6.72168 0.848353 0
M  V30 19587 H 1824.17 -6.67198 2.37175 0
M  V30 19588 H 1824.58 -5.54811 1.04142 0
M  V30 19589 N 1823.98 -0.827251 -1.34143 0
M  V30 19590 C 1825.25 -0.339793 -1.92626 0
M  V30 19591 C 1825.63 1.17342 -1.75482 0
M  V30 19592 O 1824.98 1.98251 -1.13616 0
M  V30 19593 C 1825.19 -0.773891 -3.40312 0
M  V30 19594 C 1826.54 -0.77521 -4.17463 0
M  V30 19595 O 1827.56 -0.716748 -3.48914 0
M  V30 19596 O 1826.42 -0.852347 -5.39812 0
M  V30 19597 H 1823.52 -0.0937486 -0.821669 0
M  V30 19598 H 1826.06 -0.91233 -1.4309 0
M  V30 19599 H 1824.83 -1.81597 -3.46609 0
M  V30 19600 H 1824.46 -0.177287 -3.97205 0
M  V30 19601 N 1825.45 1.46436 -0.582609 0
M  V30 19602 C 1826.69 2.04277 -0.0708316 0
M  V30 19603 C 1827.06 1.4443 1.26507 0
M  V30 19604 O 1828.26 1.93472 1.86607 0
M  V30 19605 C 1826.53 3.574 -0.00593413 0
M  V30 19606 S 1828.09 4.36504 0.448283 0
M  V30 19607 H 1824.91 0.710014 -0.0374242 0
M  V30 19608 H 1827.51 1.79479 -0.775084 0
M  V30 19609 H 1826.21 3.98475 -0.982149 0
M  V30 19610 H 1825.74 3.86735 0.721092 0
M  V30 19611 H 1827.76 4.66059 1.70304 0
M  V30 19612 N 1826.93 0.320385 1.54309 0
M  V30 19613 C 1828.16 -0.285197 2.04925 0
M  V30 19614 C 1828.57 -1.46029 1.1967 0
M  V30 19615 O 1827.93 -1.81087 0.22665 0
M  V30 19616 C 1827.98 -0.722736 3.54202 0
M  V30 19617 O 1827.7 0.40561 4.36218 0
M  V30 19618 C 1829.2 -1.39146 4.20896 0
M  V30 19619 H 1826.42 -0.0591612 0.668387 0
M  V30 19620 H 1828.97 0.46565 1.99128 0
M  V30 19621 H 1827.12 -1.42356 3.60296 0
M  V30 19622 H 1827.54 0.0614526 5.24464 0
M  V30 19623 H 1829.01 -1.64858 5.26807 0
M  V30 19624 H 1829.49 -2.33774 3.71815 0
M  V30 19625 H 1830.09 -0.733291 4.18931 0
M  V30 19626 N 1828.41 -1.57525 0.0484906 0
M  V30 19627 C 1829.36 -2.07883 -0.936407 0
M  V30 19628 C 1830.34 -0.983413 -1.27349 0
M  V30 19629 O 1831.54 -1.24678 -1.25636 0
M  V30 19630 C 1828.66 -2.6252 -2.2122 0
M  V30 19631 C 1827.75 -3.79027 -1.90262 0
M  V30 19632 N 1828.14 -4.889 -1.29653 0
M  V30 19633 C 1826.44 -3.87881 -2.20147 0
M  V30 19634 C 1827.14 -5.69963 -1.16265 0
M  V30 19635 N 1826.12 -5.17485 -1.66465 0
M  V30 19636 H 1829.92 -2.90229 -0.463091 0
M  V30 19637 H 1827.43 -1.61649 -0.156032 0
M  V30 19638 H 1829.43 -2.96899 -2.92671 0
M  V30 19639 H 1828.09 -1.81612 -2.6916 0
M  V30 19640 H 1829.1 -5.08753 -0.969081 0
M  V30 19641 H 1825.78 -3.17911 -2.70626 0
M  V30 19642 H 1827.17 -6.68323 -0.692351 0
M  V30 19643 N 1829.89 0.224867 -1.55988 0
M  V30 19644 C 1830.82 1.28192 -1.95164 0
M  V30 19645 C 1831.8 1.49062 -0.81942 0
M  V30 19646 O 1832.98 1.61301 -1.08146 0
M  V30 19647 C 1830.11 2.63237 -2.26547 0
M  V30 19648 C 1829.07 2.57029 -3.42228 0
M  V30 19649 C 1828.39 3.96073 -3.59207 0
M  V30 19650 C 1829.69 2.12101 -4.77295 0
M  V30 19651 H 1831.39 0.956495 -2.8371 0
M  V30 19652 H 1828.93 0.458673 -1.365 0
M  V30 19653 H 1830.89 3.37341 -2.52545 0
M  V30 19654 H 1829.61 2.97461 -1.3485 0
M  V30 19655 H 1828.27 1.85382 -3.16273 0
M  V30 19656 H 1827.92 4.27599 -2.64892 0
M  V30 19657 H 1827.62 3.92802 -4.37013 0
M  V30 19658 H 1829.14 4.71844 -3.8755 0
M  V30 19659 H 1830.56 2.75946 -5.0252 0
M  V30 19660 H 1828.95 2.19895 -5.5836 0
M  V30 19661 H 1830.02 1.07319 -4.72875 0
M  V30 19662 N 1831.37 1.49742 0.491438 0
M  V30 19663 C 1832.28 1.69866 1.6181 0
M  V30 19664 C 1833.29 0.581386 1.64 0
M  V30 19665 O 1834.47 0.857263 1.82244 0
M  V30 19666 C 1831.53 1.76965 2.98135 0
M  V30 19667 C 1830.59 3.00597 3.06496 0
M  V30 19668 C 1829.83 3.07348 4.36317 0
M  V30 19669 O 1830.05 2.21432 5.25665 0
M  V30 19670 O 1828.98 3.99898 4.4985 0
M  V30 19671 H 1832.81 2.65332 1.47759 0
M  V30 19672 H 1830.39 1.33596 0.668761 0
M  V30 19673 H 1832.28 1.83932 3.7914 0
M  V30 19674 H 1830.95 0.846807 3.12427 0
M  V30 19675 H 1829.86 2.99142 2.24643 0
M  V30 19676 H 1831.19 3.92393 2.97133 0
M  V30 19677 N 1832.84 -0.743177 1.38977 0
M  V30 19678 C 1834.09 -1.49959 1.35486 0
M  V30 19679 C 1834.41 -1.94933 -0.0512044 0
M  V30 19680 O 1833.68 -1.684 -1.0009 0
M  V30 19681 H 1832.26 -0.556277 0.498562 0
M  V30 19682 H 1834.93 -0.882776 1.73762 0
M  V30 19683 H 1834.02 -2.38559 2.01237 0
M  V30 19684 N 1834.32 -1.24018 -0.972487 0
M  V30 19685 C 1835.27 -1.02834 -2.06625 0
M  V30 19686 C 1836.24 0.056804 -1.66003 0
M  V30 19687 O 1837.42 -0.0968745 -1.90554 0
M  V30 19688 C 1834.56 -0.634103 -3.39224 0
M  V30 19689 C 1833.68 -1.79222 -3.93069 0
M  V30 19690 C 1832.81 -1.34401 -5.13916 0
M  V30 19691 C 1831.85 -2.47238 -5.59946 0
M  V30 19692 N 1830.99 -2.03319 -6.72016 0
M  V30 19693 H 1835.83 -1.96451 -2.24078 0
M  V30 19694 H 1833.37 -0.978545 -1.09831 0
M  V30 19695 H 1835.32 -0.386584 -4.15405 0
M  V30 19696 H 1833.95 0.26506 -3.2171 0
M  V30 19697 H 1833.01 -2.15353 -3.13572 0
M  V30 19698 H 1834.32 -2.64023 -4.23194 0
M  V30 19699 H 1833.47 -1.05509 -5.97455 0
M  V30 19700 H 1832.21 -0.466476 -4.85464 0
M  V30 19701 H 1831.22 -2.76895 -4.74983 0
M  V30 19702 H 1832.44 -3.35541 -5.90415 0
M  V30 19703 H 1830.39 -1.17956 -6.45308 0
M  V30 19704 H 1830.3 -2.81675 -7.01566 0
M  V30 19705 H 1831.57 -1.77553 -7.59009 0
M  V30 19706 N 1835.8 1.17245 -1.05316 0
M  V30 19707 C 1837.05 1.86871 -0.759093 0
M  V30 19708 C 1837.36 1.81997 0.7167 0
M  V30 19709 O 1838.57 2.47106 1.12476 0
M  V30 19710 C 1837.02 3.35303 -1.30766 0
M  V30 19711 C 1836.63 3.48676 -2.81299 0
M  V30 19712 C 1838.38 4.10249 -1.0907 0
M  V30 19713 C 1836.28 4.91138 -3.2945 0
M  V30 19714 H 1835.21 0.699975 -0.28027 0
M  V30 19715 H 1837.86 1.32393 -1.27061 0
M  V30 19716 H 1836.25 3.89326 -0.723955 0
M  V30 19717 H 1837.42 3.04864 -3.45536 0
M  V30 19718 H 1835.74 2.87152 -3.0155 0
M  V30 19719 H 1838.33 5.1535 -1.42545 0
M  V30 19720 H 1838.68 4.1629 -0.0285204 0
M  V30 19721 H 1839.21 3.62436 -1.63967 0
M  V30 19722 H 1835.95 4.90271 -4.35103 0
M  V30 19723 H 1835.47 5.35615 -2.69956 0
M  V30 19724 H 1837.15 5.59913 -3.24201 0
M  V30 19725 N 1837.28 0.834353 1.33702 0
M  V30 19726 C 1838.53 0.424225 1.97188 0
M  V30 19727 C 1838.84 -1.02086 1.66846 0
M  V30 19728 O 1840.05 -1.53545 2.23911 0
M  V30 19729 C 1838.5 0.707628 3.52875 0
M  V30 19730 C 1838.11 2.16709 3.92098 0
M  V30 19731 C 1839.85 0.364228 4.22935 0
M  V30 19732 C 1837.76 2.39478 5.40744 0
M  V30 19733 H 1836.69 0.154897 0.737918 0
M  V30 19734 H 1839.34 1.02231 1.52385 0
M  V30 19735 H 1837.72 0.0392323 3.95981 0
M  V30 19736 H 1838.9 2.87559 3.60064 0
M  V30 19737 H 1837.21 2.47303 3.35008 0
M  V30 19738 H 1839.81 0.512031 5.32243 0
M  V30 19739 H 1840.15 -0.692375 4.10502 0
M  V30 19740 H 1840.69 0.98767 3.85344 0
M  V30 19741 H 1837.43 3.43687 5.58175 0
M  V30 19742 H 1836.95 1.73184 5.74254 0
M  V30 19743 H 1838.62 2.22406 6.07573 0
M  V30 19744 N 1838.76 -1.46125 0.590367 0
M  V30 19745 C 1840.01 -2.01555 0.0765543 0
M  V30 19746 C 1840.32 -1.46661 -1.29422 0
M  V30 19747 O 1841.52 -1.93958 -1.8998 0
M  V30 19748 C 1839.98 -3.59797 0.0862369 0
M  V30 19749 C 1839.59 -4.23687 1.4558 0
M  V30 19750 C 1841.33 -4.22856 -0.373232 0
M  V30 19751 C 1839.24 -5.7403 1.42279 0
M  V30 19752 H 1838.17 -0.75359 0.0248501 0
M  V30 19753 H 1840.82 -1.67778 0.743149 0
M  V30 19754 H 1839.2 -3.90684 -0.646675 0
M  V30 19755 H 1840.38 -4.04398 2.20905 0
M  V30 19756 H 1838.69 -3.72753 1.85592 0
M  V30 19757 H 1841.29 -5.33073 -0.416837 0
M  V30 19758 H 1841.63 -3.92325 -1.39237 0
M  V30 19759 H 1842.16 -3.96622 0.305859 0
M  V30 19760 H 1838.9 -6.09234 2.41898 0
M  V30 19761 H 1838.42 -5.95561 0.711862 0
M  V30 19762 H 1840.1 -6.36896 1.13899 0
M  V30 19763 N 1840.23 -0.328564 -1.54137 0
M  V30 19764 C 1841.48 0.272909 -2.00955 0
M  V30 19765 C 1841.81 1.51393 -1.2163 0
M  V30 19766 O 1841.09 1.92174 -0.299916 0
M  V30 19767 C 1841.37 0.602055 -3.55031 0
M  V30 19768 C 1841.22 -0.650016 -4.45078 0
M  V30 19769 C 1842.54 1.4177 -4.1664 0
M  V30 19770 H 1839.66 0.0977177 -0.730493 0
M  V30 19771 H 1842.3 -0.446133 -1.84688 0
M  V30 19772 H 1840.45 1.21464 -3.69024 0
M  V30 19773 H 1842.13 -1.28821 -4.42948 0
M  V30 19774 H 1840.37 -1.2779 -4.1455 0
M  V30 19775 H 1841.04 -0.375181 -5.50724 0
M  V30 19776 H 1843.52 0.899849 -4.06254 0
M  V30 19777 H 1842.39 1.61676 -5.24549 0
M  V30 19778 H 1842.65 2.41534 -3.70289 0
M  V30 19779 N 1841.71 1.57497 -0.0568439 0
M  V30 19780 C 1842.68 2.10755 0.900823 0
M  V30 19781 C 1843.68 1.02835 1.23619 0
M  V30 19782 O 1844.87 1.28885 1.17194 0
M  V30 19783 C 1842 2.5965 2.20895 0
M  V30 19784 H 1843.19 2.96669 0.439041 0
M  V30 19785 H 1840.74 1.55121 0.191646 0
M  V30 19786 H 1841.48 1.77147 2.71642 0
M  V30 19787 H 1841.26 3.3852 1.97855 0
M  V30 19788 H 1842.75 3.00982 2.89482 0
M  V30 19789 N 1843.19 -0.216591 1.56105 0
M  V30 19790 C 1844.44 -0.941642 1.79613 0
M  V30 19791 C 1844.77 -1.83789 0.627323 0
M  V30 19792 O 1844.04 -1.90886 -0.373195 0
M  V30 19793 C 1844.33 -1.77634 3.13238 0
M  V30 19794 C 1844.18 -0.906251 4.40576 0
M  V30 19795 C 1845.5 -2.75315 3.4335 0
M  V30 19796 H 1842.62 -0.340898 0.65342 0
M  V30 19797 H 1845.26 -0.210217 1.88833 0
M  V30 19798 H 1843.41 -2.39993 3.05509 0
M  V30 19799 H 1845.08 -0.299023 4.6033 0
M  V30 19800 H 1843.33 -0.211902 4.33282 0
M  V30 19801 H 1844 -1.52478 5.30523 0
M  V30 19802 H 1846.47 -2.23091 3.5124 0
M  V30 19803 H 1845.35 -3.30816 4.38009 0
M  V30 19804 H 1845.61 -3.53301 2.65765 0
M  V30 19805 N 1844.67 -1.5 -0.48349 0
M  V30 19806 C 1845.62 -1.64347 -1.58032 0
M  V30 19807 C 1846.6 -0.498472 -1.52984 0
M  V30 19808 O 1847.79 -0.752287 -1.60217 0
M  V30 19809 C 1844.92 -1.72952 -2.96551 0
M  V30 19810 C 1844.01 -2.93088 -3.06529 0
M  V30 19811 N 1844.4 -4.16937 -2.86352 0
M  V30 19812 C 1842.7 -2.91389 -3.37652 0
M  V30 19813 C 1843.4 -4.97786 -3.00972 0
M  V30 19814 N 1842.38 -4.31494 -3.30626 0
M  V30 19815 H 1846.18 -2.57807 -1.41112 0
M  V30 19816 H 1843.69 -1.47014 -0.689978 0
M  V30 19817 H 1845.69 -1.81332 -3.75399 0
M  V30 19818 H 1844.35 -0.80642 -3.14527 0
M  V30 19819 H 1845.36 -4.46635 -2.62178 0
M  V30 19820 H 1842.04 -2.08528 -3.61694 0
M  V30 19821 H 1843.43 -6.06229 -2.89716 0
M  V30 19822 N 1846.15 0.735796 -1.39369 0
M  V30 19823 C 1847.39 1.49756 -1.36752 0
M  V30 19824 C 1847.73 1.94165 0.036815 0
M  V30 19825 O 1847 1.66728 1.00159 0
M  V30 19826 C 1847.28 2.73779 -2.33916 0
M  V30 19827 C 1847.14 2.35394 -3.83288 0
M  V30 19828 C 1848.46 3.75875 -2.28924 0
M  V30 19829 H 1845.57 0.543236 -0.49806 0
M  V30 19830 H 1848.22 0.841381 -1.70355 0
M  V30 19831 H 1846.37 3.29768 -2.05391 0
M  V30 19832 H 1848.04 1.85043 -4.2256 0
M  V30 19833 H 1846.28 1.67632 -4.00102 0
M  V30 19834 H 1846.95 3.24206 -4.4676 0
M  V30 19835 H 1849.43 3.29469 -2.54144 0
M  V30 19836 H 1848.3 4.60321 -2.98991 0
M  V30 19837 H 1848.57 4.22739 -1.29399 0
M  V30 19838 N 1847.63 1.24532 0.965897 0
M  V30 19839 C 1848.59 1.04026 2.04233 0
M  V30 19840 C 1849.59 -0.00305855 1.608 0
M  V30 19841 O 1850.78 0.238077 1.72565 0
M  V30 19842 C 1847.91 0.577072 3.3598 0
M  V30 19843 H 1849.1 1.99569 2.23858 0
M  V30 19844 H 1846.66 1.0678 1.14139 0
M  V30 19845 H 1847.39 -0.381471 3.22049 0
M  V30 19846 H 1847.18 1.33012 3.6885 0
M  V30 19847 H 1848.67 0.45469 4.15117 0
M  V30 19848 N 1849.1 -1.16685 1.05936 0
M  V30 19849 C 1850.33 -1.91576 0.794558 0
M  V30 19850 C 1850.75 -1.76706 -0.644718 0
M  V30 19851 O 1850.11 -1.0899 -1.44882 0
M  V30 19852 C 1850.16 -3.40417 1.18947 0
M  V30 19853 O 1849.26 -4.11109 0.326091 0
M  V30 19854 H 1848.6 -0.596983 0.290702 0
M  V30 19855 H 1851.13 -1.47856 1.4142 0
M  V30 19856 H 1851.14 -3.91178 1.15947 0
M  V30 19857 H 1849.82 -3.5056 2.23786 0
M  V30 19858 H 1848.4 -3.70557 0.417347 0
M  V30 19859 N 1850.58 -0.841432 -1.33258 0
M  V30 19860 C 1851.83 -0.437512 -1.97307 0
M  V30 19861 C 1852.15 1.00723 -1.66973 0
M  V30 19862 O 1851.42 1.70199 -0.969998 0
M  V30 19863 H 1850 -0.158794 -0.729927 0
M  V30 19864 H 1852.66 -1.07495 -1.62575 0
M  V30 19865 H 1851.76 -0.571675 -3.0682 0
M  V30 19866 N 1852.06 1.4581 -0.598108 0
M  V30 19867 C 1853.31 2.02302 -0.0896112 0
M  V30 19868 C 1853.63 1.46772 1.27625 0
M  V30 19869 O 1852.89 0.628712 1.85326 0
M  V30 19870 C 1853.19 3.57399 0.00976809 0
M  V30 19871 C 1852.85 4.32038 -1.29051 0
M  V30 19872 C 1851.52 4.52147 -1.64671 0
M  V30 19873 C 1853.87 4.74776 -2.15028 0
M  V30 19874 C 1851.2 5.12249 -2.86038 0
M  V30 19875 C 1853.55 5.3622 -3.35635 0
M  V30 19876 C 1852.21 5.54554 -3.71519 0
M  V30 19877 H 1851.48 0.740274 -0.0327911 0
M  V30 19878 H 1854.13 1.74992 -0.77783 0
M  V30 19879 H 1852.43 3.83933 0.781201 0
M  V30 19880 H 1854.13 3.98803 0.419212 0
M  V30 19881 H 1850.72 4.16693 -1.00324 0
M  V30 19882 H 1854.91 4.58982 -1.8881 0
M  V30 19883 H 1850.16 5.24633 -3.13958 0
M  V30 19884 H 1854.34 5.68292 -4.02514 0
M  V30 19885 H 1851.96 6.00894 -4.65651 0
M  V30 19886 N 1853.54 0.336733 1.53961 0
M  V30 19887 C 1854.79 -0.262826 1.9998 0
M  V30 19888 C 1855.1 -1.52201 1.22858 0
M  V30 19889 O 1856.31 -2.19839 1.5932 0
M  V30 19890 C 1854.76 -0.518877 3.5614 0
M  V30 19891 C 1854.37 0.724019 4.42111 0
M  V30 19892 C 1856.11 -1.07767 4.10593 0
M  V30 19893 C 1854.02 0.439143 5.89767 0
M  V30 19894 H 1852.95 -0.101987 0.747071 0
M  V30 19895 H 1855.6 0.451004 1.77871 0
M  V30 19896 H 1853.98 -1.29323 3.74288 0
M  V30 19897 H 1855.16 1.49896 4.35738 0
M  V30 19898 H 1853.47 1.20396 3.98615 0
M  V30 19899 H 1856.07 -1.30564 5.18514 0
M  V30 19900 H 1856.41 -2.03111 3.63389 0
M  V30 19901 H 1856.95 -0.36418 3.96129 0
M  V30 19902 H 1853.68 1.36212 6.41192 0
M  V30 19903 H 1853.2 -0.297839 5.9906 0
M  V30 19904 H 1854.88 0.0538506 6.46978 0
M  V30 19905 N 1855.02 -1.57465 0.0651956 0
M  V30 19906 C 1855.93 -2.15841 -0.919235 0
M  V30 19907 C 1856.94 -1.11984 -1.33175 0
M  V30 19908 O 1858.12 -1.44219 -1.4058 0
M  V30 19909 C 1855.18 -2.7032 -2.1709 0
M  V30 19910 C 1854.24 -3.89026 -1.81542 0
M  V30 19911 C 1853.48 -4.40897 -3.00742 0
M  V30 19912 O 1853.7 -3.91792 -4.14555 0
M  V30 19913 O 1852.63 -5.32312 -2.80941 0
M  V30 19914 H 1856.46 -3.00307 -0.452704 0
M  V30 19915 H 1854.04 -1.48567 -0.157504 0
M  V30 19916 H 1855.93 -3.05266 -2.90501 0
M  V30 19917 H 1854.6 -1.88917 -2.62854 0
M  V30 19918 H 1853.51 -3.58944 -1.05404 0
M  V30 19919 H 1854.84 -4.71701 -1.40567 0
M  V30 19920 N 1856.49 0.20831 -1.56217 0
M  V30 19921 C 1857.46 1.24178 -1.92646 0
M  V30 19922 C 1858.46 1.39125 -0.806274 0
M  V30 19923 O 1859.65 1.37163 -1.07386 0
M  V30 19924 C 1856.78 2.61342 -2.18891 0
M  V30 19925 H 1857.97 0.930748 -2.85091 0
M  V30 19926 H 1855.52 0.449285 -1.49703 0
M  V30 19927 H 1856.26 2.97521 -1.29041 0
M  V30 19928 H 1856.04 2.51866 -3.00509 0
M  V30 19929 H 1857.53 3.35892 -2.48125 0
M  V30 19930 N 1857.97 1.50255 0.475528 0
M  V30 19931 C 1858.88 1.71573 1.6 0
M  V30 19932 C 1859.9 0.598748 1.63374 0
M  V30 19933 O 1861.07 0.876544 1.81325 0
M  V30 19934 C 1858.14 1.80117 2.96241 0
M  V30 19935 C 1857.2 3.03831 3.03291 0
M  V30 19936 C 1856.43 3.11958 4.33033 0
M  V30 19937 O 1856.66 2.26995 5.23287 0
M  V30 19938 O 1855.59 4.04647 4.45583 0
M  V30 19939 H 1859.42 2.66884 1.44937 0
M  V30 19940 H 1857 1.34298 0.654553 0
M  V30 19941 H 1858.88 1.87943 3.77167 0
M  V30 19942 H 1857.56 0.879896 3.11512 0
M  V30 19943 H 1856.46 3.01508 2.21458 0
M  V30 19944 H 1857.8 3.95523 2.92955 0
M  V30 19945 N 1859.45 -0.728395 1.39758 0
M  V30 19946 C 1860.7 -1.49028 1.37544 0
M  V30 19947 C 1861.03 -1.94182 -0.0265175 0
M  V30 19948 O 1860.3 -1.67257 -0.992737 0
M  V30 19949 C 1860.59 -2.72535 2.35365 0
M  V30 19950 C 1860.44 -2.33358 3.84531 0
M  V30 19951 C 1861.76 -3.74656 2.30914 0
M  V30 19952 H 1858.88 -0.540587 0.500934 0
M  V30 19953 H 1861.52 -0.832335 1.70799 0
M  V30 19954 H 1859.67 -3.28674 2.07137 0
M  V30 19955 H 1861.34 -1.828 4.23535 0
M  V30 19956 H 1859.58 -1.65508 4.00986 0
M  V30 19957 H 1860.26 -3.21832 4.48473 0
M  V30 19958 H 1862.73 -3.28117 2.55888 0
M  V30 19959 H 1861.61 -4.58729 3.01428 0
M  V30 19960 H 1861.87 -4.22047 1.31639 0
M  V30 19961 N 1860.93 -1.25042 -0.959279 0
M  V30 19962 C 1862.18 -1.08912 -1.69768 0
M  V30 19963 C 1862.49 0.370558 -1.92058 0
M  V30 19964 O 1863.7 0.652214 -2.6355 0
M  V30 19965 C 1862.15 -1.90075 -3.05613 0
M  V30 19966 C 1861.76 -3.40506 -2.91136 0
M  V30 19967 C 1863.5 -1.825 -3.83268 0
M  V30 19968 C 1861.41 -4.13982 -4.22343 0
M  V30 19969 H 1860.34 -0.403959 -0.636658 0
M  V30 19970 H 1862.99 -1.49198 -1.06828 0
M  V30 19971 H 1861.37 -1.42609 -3.6943 0
M  V30 19972 H 1862.55 -3.95612 -2.36279 0
M  V30 19973 H 1860.86 -3.49123 -2.2694 0
M  V30 19974 H 1863.46 -2.34693 -4.80441 0
M  V30 19975 H 1863.8 -0.791947 -4.08698 0
M  V30 19976 H 1864.34 -2.27691 -3.26192 0
M  V30 19977 H 1861.07 -5.17681 -4.02103 0
M  V30 19978 H 1860.59 -3.6366 -4.76982 0
M  V30 19979 H 1862.27 -4.21443 -4.90913 0
M  V30 19980 N 1862.41 1.16121 -1.06553 0
M  V30 19981 C 1863.82 1.68319 -0.807804 0
M  V30 19982 C 1864.17 1.8447 0.668234 0
M  V30 19983 O 1863.29 1.54215 1.51811 0
M  V30 19984 C 1863.89 3.05738 -1.45979 0
M  V30 19985 C 1862.45 3.55046 -1.24977 0
M  V30 19986 C 1861.59 2.30965 -1.53462 0
M  V30 19987 H 1864.55 1.00447 -1.22866 0
M  V30 19988 H 1864.57 3.70266 -0.876556 0
M  V30 19989 H 1864.08 2.93951 -2.53405 0
M  V30 19990 H 1862.18 3.72087 -0.195367 0
M  V30 19991 H 1862.29 4.36979 -1.96433 0
M  V30 19992 H 1860.66 2.36107 -0.955268 0
M  V30 19993 H 1861.44 2.21773 -2.62052 0
M  V30 19994 N 1863.88 0.848487 1.3281 0
M  V30 19995 C 1864.82 0.245947 2.27877 0
M  V30 19996 C 1865.83 -0.578811 1.52163 0
M  V30 19997 O 1867.02 -0.404308 1.73861 0
M  V30 19998 C 1864.12 -0.671584 3.32179 0
M  V30 19999 C 1863.29 0.115958 4.37246 0
M  V30 20000 C 1862.35 -0.726387 5.21162 0
M  V30 20001 O 1861.38 -0.162121 5.68969 0
M  V30 20002 N 1862.58 -2.04216 5.43393 0
M  V30 20003 H 1865.34 1.06281 2.80222 0
M  V30 20004 H 1862.9 0.707872 1.45605 0
M  V30 20005 H 1864.9 -1.2403 3.85225 0
M  V30 20006 H 1863.47 -1.38914 2.80039 0
M  V30 20007 H 1862.69 0.866084 3.84568 0
M  V30 20008 H 1863.97 0.657126 5.04539 0
M  V30 20009 H 1863.37 -2.52401 5.06271 0
M  V30 20010 H 1861.93 -2.55914 5.99459 0
M  V30 20011 N 1865.36 -1.4549 0.605832 0
M  V30 20012 C 1866.27 -2.34313 -0.115915 0
M  V30 20013 C 1867.29 -1.51136 -0.862199 0
M  V30 20014 O 1868.46 -1.83943 -0.820181 0
M  V30 20015 C 1865.53 -3.28724 -1.10188 0
M  V30 20016 C 1864.59 -4.27807 -0.357749 0
M  V30 20017 C 1863.82 -5.17707 -1.29675 0
M  V30 20018 O 1864.05 -5.10999 -2.53448 0
M  V30 20019 O 1862.98 -5.9663 -0.794767 0
M  V30 20020 H 1866.81 -2.97429 0.613981 0
M  V30 20021 H 1864.39 -1.44845 0.366103 0
M  V30 20022 H 1866.27 -3.86905 -1.6698 0
M  V30 20023 H 1864.95 -2.68175 -1.81284 0
M  V30 20024 H 1863.86 -3.73246 0.252588 0
M  V30 20025 H 1865.19 -4.91206 0.312682 0
M  V30 20026 N 1866.84 -0.344893 -1.5378 0
M  V30 20027 C 1868.07 0.255228 -2.05824 0
M  V30 20028 C 1868.49 1.43329 -1.21812 0
M  V30 20029 O 1867.85 1.79807 -0.232191 0
M  V30 20030 C 1867.9 0.646906 -3.5475 0
M  V30 20031 O 1867 1.74677 -3.7358 0
M  V30 20032 H 1866.34 0.0420518 -0.662667 0
M  V30 20033 H 1868.87 -0.499498 -1.98409 0
M  V30 20034 H 1868.88 0.923686 -3.97407 0
M  V30 20035 H 1867.56 -0.214619 -4.15346 0
M  V30 20036 H 1866.13 1.46715 -3.42825 0
M  V30 20037 N 1868.32 1.57428 -0.0735454 0
M  V30 20038 C 1869.57 1.93174 0.593996 0
M  V30 20039 C 1869.89 0.954462 1.70044 0
M  V30 20040 O 1869.16 0.00289765 1.959 0
M  V30 20041 H 1867.74 0.713123 0.222407 0
M  V30 20042 H 1870.4 1.94454 -0.131813 0
M  V30 20043 H 1869.5 2.95025 1.01818 0
M  V30 20044 N 1869.8 -0.200022 1.56326 0
M  V30 20045 C 1871.21 -0.550653 1.498 0
M  V30 20046 C 1871.41 -1.86097 0.772664 0
M  V30 20047 O 1870.47 -2.50449 0.321155 0
M  V30 20048 C 1871.78 -0.60995 2.94449 0
M  V30 20049 C 1873.33 -0.699119 3.05092 0
M  V30 20050 C 1873.8 -0.78957 4.51143 0
M  V30 20051 N 1875.3 -0.853228 4.55274 0
M  V30 20052 C 1876.03 -0.943298 5.65588 0
M  V30 20053 N 1875.53 -0.995976 6.85603 0
M  V30 20054 N 1877.32 -0.980106 5.53489 0
M  V30 20055 H 1869.47 0.659543 2.019 0
M  V30 20056 H 1871.73 0.234299 0.91859 0
M  V30 20057 H 1871.44 0.283651 3.50554 0
M  V30 20058 H 1871.31 -1.46632 3.47533 0
M  V30 20059 H 1873.7 -1.58315 2.49039 0
M  V30 20060 H 1873.78 0.183351 2.55142 0
M  V30 20061 H 1873.43 0.0900924 5.0782 0
M  V30 20062 H 1873.36 -1.68777 4.9882 0
M  V30 20063 H 1875.85 -0.821964 3.68853 0
M  V30 20064 H 1876.16 -1.06508 7.65425 0
M  V30 20065 H 1874.5 -0.964738 6.88272 0
M  V30 20066 H 1877.7 -0.935755 4.58652 0
M  V30 20067 H 1877.87 -1.04684 6.39488 0
M  V30 20068 N 1871.27 -1.50505 -0.467553 0
M  V30 20069 C 1872.21 -1.65784 -1.58267 0
M  V30 20070 C 1873.22 -0.539219 -1.53611 0
M  V30 20071 O 1874.41 -0.812524 -1.58935 0
M  V30 20072 C 1871.51 -1.62951 -2.97154 0
M  V30 20073 C 1870.68 -2.90903 -3.26641 0
M  V30 20074 C 1869.74 -2.80665 -4.451 0
M  V30 20075 O 1868.77 -3.5462 -4.45234 0
M  V30 20076 N 1869.97 -1.9446 -5.4696 0
M  V30 20077 H 1872.73 -2.6197 -1.45575 0
M  V30 20078 H 1870.29 -1.48013 -0.656029 0
M  V30 20079 H 1872.29 -1.53709 -3.74373 0
M  V30 20080 H 1870.86 -0.744855 -3.03596 0
M  V30 20081 H 1870.08 -3.14244 -2.38001 0
M  V30 20082 H 1871.36 -3.75663 -3.43155 0
M  V30 20083 H 1870.76 -1.33694 -5.49675 0
M  V30 20084 H 1869.32 -1.9112 -6.2315 0
M  V30 20085 N 1872.75 0.720973 -1.40142 0
M  V30 20086 C 1873.98 1.51012 -1.41431 0
M  V30 20087 C 1874.4 1.88796 -0.0125516 0
M  V30 20088 O 1873.75 1.55073 0.962217 0
M  V30 20089 C 1873.8 2.78886 -2.3001 0
M  V30 20090 O 1873.52 2.42703 -3.64729 0
M  V30 20091 C 1875.03 3.7282 -2.39834 0
M  V30 20092 H 1872.25 0.466214 -0.482582 0
M  V30 20093 H 1874.79 0.889777 -1.84128 0
M  V30 20094 H 1872.94 3.37219 -1.90689 0
M  V30 20095 H 1873.36 3.24945 -4.11717 0
M  V30 20096 H 1874.83 4.594 -3.06032 0
M  V30 20097 H 1875.31 4.15552 -1.42173 0
M  V30 20098 H 1875.92 3.20402 -2.79684 0
M  V30 20099 N 1874.23 1.25549 0.952634 0
M  V30 20100 C 1875.19 1.06186 2.03119 0
M  V30 20101 C 1876.19 0.0139966 1.60794 0
M  V30 20102 O 1877.38 0.256367 1.72303 0
M  V30 20103 C 1874.52 0.612674 3.35349 0
M  V30 20104 H 1875.71 2.01932 2.21729 0
M  V30 20105 H 1873.26 1.07984 1.13 0
M  V30 20106 H 1874 -0.347292 3.22435 0
M  V30 20107 H 1873.78 1.36917 3.67418 0
M  V30 20108 H 1875.27 0.498693 4.14612 0
M  V30 20109 N 1875.71 -1.15554 1.07168 0
M  V30 20110 C 1876.64 -2.22387 0.71178 0
M  V30 20111 C 1877.62 -1.67435 -0.299908 0
M  V30 20112 O 1878.8 -1.93427 -0.173073 0
M  V30 20113 C 1875.93 -3.47136 0.106815 0
M  V30 20114 C 1874.89 -4.15035 1.04545 0
M  V30 20115 C 1874.21 -5.33839 0.303337 0
M  V30 20116 C 1875.51 -4.65011 2.37827 0
M  V30 20117 H 1877.21 -2.52748 1.60496 0
M  V30 20118 H 1874.75 -1.21485 0.773139 0
M  V30 20119 H 1876.71 -4.21108 -0.15689 0
M  V30 20120 H 1875.43 -3.16101 -0.821429 0
M  V30 20121 H 1874.09 -3.43001 1.29405 0
M  V30 20122 H 1873.74 -4.9906 -0.628308 0
M  V30 20123 H 1873.44 -5.8021 0.928964 0
M  V30 20124 H 1874.96 -6.10582 0.0473869 0
M  V30 20125 H 1876.38 -5.3052 2.17305 0
M  V30 20126 H 1874.77 -5.22038 2.95967 0
M  V30 20127 H 1875.84 -3.80748 3.00264 0
M  V30 20128 N 1877.19 -0.855519 -1.32358 0
M  V30 20129 C 1878.43 -0.459322 -1.97222 0
M  V30 20130 C 1878.76 0.985247 -1.677 0
M  V30 20131 O 1878.02 1.70642 -0.958117 0
M  V30 20132 C 1878.32 -0.64624 -3.51509 0
M  V30 20133 C 1877.98 -2.06141 -4.0102 0
M  V30 20134 C 1876.64 -2.44846 -4.14251 0
M  V30 20135 C 1879 -2.985 -4.27255 0
M  V30 20136 C 1876.32 -3.75181 -4.51061 0
M  V30 20137 C 1878.68 -4.28335 -4.65524 0
M  V30 20138 C 1877.34 -4.66973 -4.76961 0
M  V30 20139 H 1876.61 -0.168078 -0.721686 0
M  V30 20140 H 1879.26 -1.08574 -1.57747 0
M  V30 20141 H 1877.56 0.0634018 -3.91749 0
M  V30 20142 H 1879.26 -0.319727 -3.99723 0
M  V30 20143 H 1875.85 -1.75086 -3.91207 0
M  V30 20144 H 1880.03 -2.69829 -4.1654 0
M  V30 20145 H 1875.29 -4.04899 -4.58112 0
M  V30 20146 H 1879.46 -4.99963 -4.84778 0
M  V30 20147 H 1877.09 -5.6801 -5.05241 0
M  V30 20148 N 1878.67 1.45167 -0.61354 0
M  V30 20149 C 1879.6 2.3333 0.089004 0
M  V30 20150 C 1880.58 1.47181 0.85275 0
M  V30 20151 O 1881.76 1.7594 0.822122 0
M  V30 20152 C 1878.89 3.29982 1.08301 0
M  V30 20153 C 1877.85 4.25813 0.432084 0
M  V30 20154 C 1877.17 5.122 1.53476 0
M  V30 20155 C 1878.47 5.18233 -0.65052 0
M  V30 20156 H 1880.17 2.92322 -0.647165 0
M  V30 20157 H 1877.71 1.40565 -0.312667 0
M  V30 20158 H 1879.66 3.90533 1.5831 0
M  V30 20159 H 1878.39 2.69162 1.84985 0
M  V30 20160 H 1877.05 3.6657 -0.0471927 0
M  V30 20161 H 1876.7 4.47744 2.29203 0
M  V30 20162 H 1876.4 5.77122 1.10469 0
M  V30 20163 H 1877.92 5.7562 2.037 0
M  V30 20164 H 1879.33 5.72821 -0.234262 0
M  V30 20165 H 1877.73 5.91664 -1.00268 0
M  V30 20166 H 1878.8 4.60304 -1.52475 0
M  V30 20167 N 1880.14 0.353044 1.53595 0
M  V30 20168 C 1881.07 -0.491481 2.28269 0
M  V30 20169 C 1882.05 -1.0946 1.30201 0
M  V30 20170 O 1883.24 -1.11421 1.59056 0
M  V30 20171 C 1880.37 -1.63776 3.06259 0
M  V30 20172 C 1879.32 -1.16251 4.1191 0
M  V30 20173 C 1878.65 -2.39805 4.7791 0
M  V30 20174 C 1879.95 -0.256191 5.21671 0
M  V30 20175 H 1881.64 0.131483 2.99111 0
M  V30 20176 H 1879.19 0.0646771 1.43855 0
M  V30 20177 H 1881.14 -2.2351 3.57241 0
M  V30 20178 H 1879.87 -2.28777 2.33085 0
M  V30 20179 H 1878.53 -0.587934 3.61855 0
M  V30 20180 H 1878.17 -3.03234 4.0132 0
M  V30 20181 H 1877.87 -2.08684 5.49295 0
M  V30 20182 H 1879.4 -3.00248 5.3168 0
M  V30 20183 H 1880.81 -0.760642 5.68232 0
M  V30 20184 H 1879.21 -0.0364273 6.00089 0
M  V30 20185 H 1880.28 0.705105 4.79746 0
M  V30 20186 N 1881.62 -1.57387 0.0818932 0
M  V30 20187 C 1882.57 -2.13292 -0.881772 0
M  V30 20188 C 1883.54 -1.04801 -1.28864 0
M  V30 20189 O 1884.72 -1.32519 -1.37272 0
M  V30 20190 C 1881.86 -2.70708 -2.14035 0
M  V30 20191 C 1880.98 -3.93388 -1.78522 0
M  V30 20192 C 1880.11 -4.39013 -2.99067 0
M  V30 20193 C 1879.15 -5.54315 -2.59617 0
M  V30 20194 N 1878.29 -5.94853 -3.72954 0
M  V30 20195 H 1883.13 -2.95328 -0.398167 0
M  V30 20196 H 1880.66 -1.45934 -0.184876 0
M  V30 20197 H 1882.62 -3.0211 -2.87724 0
M  V30 20198 H 1881.25 -1.91421 -2.59919 0
M  V30 20199 H 1880.3 -3.68384 -0.948546 0
M  V30 20200 H 1881.62 -4.77106 -1.45505 0
M  V30 20201 H 1880.77 -4.72129 -3.81023 0
M  V30 20202 H 1879.51 -3.54169 -3.35284 0
M  V30 20203 H 1878.51 -5.2084 -1.76084 0
M  V30 20204 H 1879.74 -6.40898 -2.24558 0
M  V30 20205 H 1877.69 -5.12957 -4.08915 0
M  V30 20206 H 1877.6 -6.73335 -3.43739 0
M  V30 20207 H 1878.87 -6.32595 -4.5546 0
M  V30 20208 N 1883.1 0.191729 -1.56429 0
M  V30 20209 C 1884.03 1.24024 -1.97839 0
M  V30 20210 C 1885.01 1.47291 -0.850853 0
M  V30 20211 O 1886.2 1.58971 -1.11543 0
M  V30 20212 C 1883.33 2.58373 -2.32079 0
M  V30 20213 C 1882.28 2.49712 -3.47603 0
M  V30 20214 C 1881.61 3.88365 -3.67528 0
M  V30 20215 C 1882.91 2.01929 -4.81687 0
M  V30 20216 H 1884.6 0.8961 -2.85675 0
M  V30 20217 H 1882.15 0.429616 -1.37442 0
M  V30 20218 H 1884.1 3.31908 -2.59643 0
M  V30 20219 H 1882.82 2.94534 -1.41129 0
M  V30 20220 H 1881.48 1.78632 -3.20135 0
M  V30 20221 H 1881.13 4.21884 -2.73903 0
M  V30 20222 H 1880.83 3.83444 -4.45246 0
M  V30 20223 H 1882.35 4.63518 -3.97472 0
M  V30 20224 H 1883.77 2.65225 -5.0826 0
M  V30 20225 H 1882.16 2.08002 -5.62899 0
M  V30 20226 H 1883.23 0.972649 -4.75045 0
M  V30 20227 N 1884.58 1.50751 0.459565 0
M  V30 20228 C 1885.54 1.69889 1.53852 0
M  V30 20229 C 1886.54 0.569308 1.50385 0
M  V30 20230 O 1887.73 0.836527 1.528 0
M  V30 20231 C 1884.86 1.73481 2.93457 0
M  V30 20232 H 1886.06 2.66162 1.38195 0
M  V30 20233 H 1883.61 1.40405 0.686741 0
M  V30 20234 H 1884.34 0.789426 3.14545 0
M  V30 20235 H 1884.13 2.55553 2.97381 0
M  V30 20236 H 1885.62 1.90202 3.7177 0
M  V30 20237 N 1886.06 -0.713531 1.40522 0
M  V30 20238 C 1887.28 -1.50766 1.42423 0
M  V30 20239 C 1887.71 -1.88082 0.0262417 0
M  V30 20240 O 1887.06 -1.5341 -0.966185 0
M  V30 20241 C 1887.11 -2.75813 2.32291 0
M  V30 20242 O 1886.22 -3.726 1.76758 0
M  V30 20243 H 1885.56 -0.454473 0.484098 0
M  V30 20244 H 1888.09 -0.878583 1.84776 0
M  V30 20245 H 1888.1 -3.2432 2.47549 0
M  V30 20246 H 1886.77 -2.47988 3.33878 0
M  V30 20247 H 1885.35 -3.31455 1.70857 0
M  V30 20248 N 1887.53 -1.26053 -0.945962 0
M  V30 20249 C 1888.95 -1.03062 -1.21862 0
M  V30 20250 C 1889.15 0.247205 -1.99978 0
M  V30 20251 O 1888.21 0.957622 -2.33636 0
M  V30 20252 C 1889.52 -2.25912 -1.98455 0
M  V30 20253 C 1891.07 -2.30763 -2.11465 0
M  V30 20254 C 1891.54 -3.53292 -2.91459 0
M  V30 20255 N 1893.03 -3.53741 -2.99035 0
M  V30 20256 C 1893.77 -4.45215 -3.61347 0
M  V30 20257 N 1893.26 -5.46971 -4.25199 0
M  V30 20258 N 1895.06 -4.32877 -3.58572 0
M  V30 20259 H 1887.21 -2.08133 -0.423615 0
M  V30 20260 H 1889.47 -0.914462 -0.249926 0
M  V30 20261 H 1889.18 -3.18829 -1.48462 0
M  V30 20262 H 1889.05 -2.29777 -2.99136 0
M  V30 20263 H 1891.44 -1.38363 -2.60653 0
M  V30 20264 H 1891.52 -2.30911 -1.10062 0
M  V30 20265 H 1891.16 -4.46019 -2.4296 0
M  V30 20266 H 1891.09 -3.50391 -3.93108 0
M  V30 20267 H 1893.58 -2.80138 -2.53636 0
M  V30 20268 H 1893.9 -6.12967 -4.70629 0
M  V30 20269 H 1892.24 -5.50834 -4.238 0
M  V30 20270 H 1895.43 -3.52602 -3.07879 0
M  V30 20271 H 1895.61 -5.0436 -4.06847 0
M  V30 20272 N 1889.01 1.14984 -1.07779 0
M  V30 20273 C 1890.26 1.86375 -0.81462 0
M  V30 20274 C 1890.61 1.81002 0.652385 0
M  V30 20275 O 1889.91 1.2253 1.47299 0
M  V30 20276 C 1890.1 3.34355 -1.26259 0
M  V30 20277 C 1889.93 3.54136 -2.7716 0
M  V30 20278 C 1888.7 3.69356 -3.44825 0
M  V30 20279 C 1890.9 3.51594 -3.75348 0
M  V30 20280 N 1888.88 3.77232 -4.84323 0
M  V30 20281 C 1890.25 3.65637 -5.00709 0
M  V30 20282 C 1892.3 3.34893 -3.68444 0
M  V30 20283 C 1891.01 3.64705 -6.19986 0
M  V30 20284 C 1893.03 3.35262 -4.87189 0
M  V30 20285 C 1892.4 3.49839 -6.11386 0
M  V30 20286 H 1888.49 0.698946 -0.350711 0
M  V30 20287 H 1891.08 1.37857 -1.3749 0
M  V30 20288 H 1889.25 3.81479 -0.729958 0
M  V30 20289 H 1890.98 3.93476 -0.946503 0
M  V30 20290 H 1887.74 3.70315 -2.95235 0
M  V30 20291 H 1888.16 3.84903 -5.56937 0
M  V30 20292 H 1892.8 3.22539 -2.73365 0
M  V30 20293 H 1890.52 3.75836 -7.15383 0
M  V30 20294 H 1894.11 3.23561 -4.83528 0
M  V30 20295 H 1892.99 3.50063 -7.01731 0
M  V30 20296 N 1890.49 0.862526 1.31902 0
M  V30 20297 C 1891.9 0.523345 1.79215 0
M  V30 20298 C 1892.25 -0.95931 1.71148 0
M  V30 20299 O 1891.38 -1.74868 1.27476 0
M  V30 20300 C 1891.97 0.943195 3.25406 0
M  V30 20301 C 1890.53 0.655789 3.70643 0
M  V30 20302 C 1889.68 1.13861 2.52846 0
M  V30 20303 H 1892.63 1.04897 1.19089 0
M  V30 20304 H 1892.65 0.262794 3.79591 0
M  V30 20305 H 1892.16 2.02233 3.31245 0
M  V30 20306 H 1890.26 -0.412291 3.70312 0
M  V30 20307 H 1890.38 1.2276 4.63106 0
M  V30 20308 H 1888.74 0.558615 2.48499 0
M  V30 20309 H 1889.52 2.22501 2.61434 0
M  V30 20310 N 1891.97 -1.4484 0.62123 0
M  V30 20311 C 1893.22 -2.01347 0.11929 0
M  V30 20312 C 1893.53 -1.49373 -1.26282 0
M  V30 20313 O 1894.74 -1.97945 -1.85823 0
M  V30 20314 C 1893.19 -3.59533 0.162536 0
M  V30 20315 C 1892.8 -4.20504 1.54534 0
M  V30 20316 C 1894.54 -4.23553 -0.283454 0
M  V30 20317 C 1892.45 -5.70883 1.54423 0
M  V30 20318 H 1891.38 -0.752894 0.0408293 0
M  V30 20319 H 1894.03 -1.66164 0.778571 0
M  V30 20320 H 1892.41 -3.91968 -0.563659 0
M  V30 20321 H 1893.59 -3.99621 2.29433 0
M  V30 20322 H 1891.9 -3.68732 1.93457 0
M  V30 20323 H 1894.5 -5.33837 -0.303671 0
M  V30 20324 H 1894.84 -3.9519 -1.30884 0
M  V30 20325 H 1895.38 -3.95884 0.38992 0
M  V30 20326 H 1892.12 -6.03965 2.54767 0
M  V30 20327 H 1891.64 -5.93917 0.838029 0
M  V30 20328 H 1893.31 -6.34336 1.27383 0
M  V30 20329 N 1893.45 -0.361184 -1.53405 0
M  V30 20330 C 1894.67 0.230765 -2.05609 0
M  V30 20331 C 1895.09 1.42805 -1.23499 0
M  V30 20332 O 1894.45 1.80423 -0.274582 0
M  V30 20333 C 1894.5 0.628571 -3.55993 0
M  V30 20334 O 1894.22 -0.521123 -4.3499 0
M  V30 20335 C 1895.72 1.27938 -4.24437 0
M  V30 20336 H 1892.94 0.0414193 -0.66972 0
M  V30 20337 H 1895.48 -0.518281 -1.97823 0
M  V30 20338 H 1893.64 1.32754 -3.63944 0
M  V30 20339 H 1894.05 -0.200483 -5.24117 0
M  V30 20340 H 1895.53 1.50832 -5.30993 0
M  V30 20341 H 1896 2.23834 -3.77882 0
M  V30 20342 H 1896.61 0.621961 -4.20728 0
M  V30 20343 N 1894.92 1.57341 -0.0902386 0
M  V30 20344 C 1895.87 2.10293 0.880961 0
M  V30 20345 C 1896.86 1.01683 1.24697 0
M  V30 20346 O 1898.05 1.27965 1.22286 0
M  V30 20347 C 1895.18 2.68293 2.14182 0
M  V30 20348 C 1894.27 3.83938 1.80146 0
M  V30 20349 N 1894.66 4.92166 1.16646 0
M  V30 20350 C 1892.95 3.93581 2.09785 0
M  V30 20351 C 1893.66 5.72845 1.01113 0
M  V30 20352 N 1892.63 5.21716 1.52686 0
M  V30 20353 H 1896.43 2.91354 0.385979 0
M  V30 20354 H 1893.95 1.62006 0.113118 0
M  V30 20355 H 1895.94 3.04555 2.84697 0
M  V30 20356 H 1894.6 1.88685 2.6425 0
M  V30 20357 H 1895.62 5.11143 0.833854 0
M  V30 20358 H 1892.29 3.24975 2.62102 0
M  V30 20359 H 1893.68 6.69924 0.514913 0
M  V30 20360 N 1896.4 -0.183431 1.56529 0
M  V30 20361 C 1897.33 -1.22973 1.98494 0
M  V30 20362 C 1898.31 -1.46837 0.858653 0
M  V30 20363 O 1899.5 -1.58377 1.12385 0
M  V30 20364 C 1896.63 -2.57138 2.33446 0
M  V30 20365 C 1895.58 -2.47865 3.48922 0
M  V30 20366 C 1894.91 -3.8641 3.69582 0
M  V30 20367 C 1896.21 -1.99371 4.82751 0
M  V30 20368 H 1897.9 -0.880938 2.86147 0
M  V30 20369 H 1895.45 -0.422321 1.37668 0
M  V30 20370 H 1897.4 -3.30527 2.614 0
M  V30 20371 H 1896.13 -2.93781 1.42689 0
M  V30 20372 H 1894.78 -1.76932 3.21077 0
M  V30 20373 H 1894.43 -4.20426 2.76136 0
M  V30 20374 H 1894.13 -3.81077 4.47274 0
M  V30 20375 H 1895.66 -4.61403 3.99924 0
M  V30 20376 H 1897.07 -2.62526 5.0966 0
M  V30 20377 H 1895.47 -2.05014 5.63994 0
M  V30 20378 H 1896.54 -0.947442 4.75554 0
M  V30 20379 N 1897.88 -1.50992 -0.451564 0
M  V30 20380 C 1898.83 -1.67662 -1.5451 0
M  V30 20381 C 1899.81 -0.53081 -1.51892 0
M  V30 20382 O 1901.01 -0.786103 -1.58586 0
M  V30 20383 C 1898.14 -1.79204 -2.92815 0
M  V30 20384 C 1897.22 -2.99524 -3.00244 0
M  V30 20385 N 1897.61 -4.22917 -2.77443 0
M  V30 20386 C 1895.91 -2.98485 -3.31395 0
M  V30 20387 C 1896.61 -5.04058 -2.90346 0
M  V30 20388 N 1895.59 -4.3841 -3.21399 0
M  V30 20389 H 1899.39 -2.60742 -1.35612 0
M  V30 20390 H 1896.9 -1.48444 -0.658639 0
M  V30 20391 H 1898.9 -1.89254 -3.71468 0
M  V30 20392 H 1897.56 -0.872954 -3.12745 0
M  V30 20393 H 1898.57 -4.52096 -2.52645 0
M  V30 20394 H 1895.25 -2.16153 -3.57189 0
M  V30 20395 H 1896.64 -6.12238 -2.76792 0
M  V30 20396 N 1899.36 0.706069 -1.40899 0
M  V30 20397 C 1900.59 1.49504 -1.43025 0
M  V30 20398 C 1901 1.88772 -0.0325752 0
M  V30 20399 O 1900.36 1.56085 0.945716 0
M  V30 20400 C 1900.41 2.76431 -2.32955 0
M  V30 20401 O 1900.13 2.38821 -3.67282 0
M  V30 20402 C 1901.63 3.70255 -2.43774 0
M  V30 20403 H 1898.85 0.461069 -0.4875 0
M  V30 20404 H 1901.4 0.870198 -1.85062 0
M  V30 20405 H 1899.55 3.35177 -1.94255 0
M  V30 20406 H 1899.96 3.2056 -4.1514 0
M  V30 20407 H 1901.44 4.56129 -3.10887 0
M  V30 20408 H 1901.92 4.14021 -1.46573 0
M  V30 20409 H 1902.52 3.17417 -2.83066 0
M  V30 20410 N 1900.84 1.26553 0.939264 0
M  V30 20411 C 1902.11 1.02956 1.66312 0
M  V30 20412 C 1902.49 -0.439417 2.06476 0
M  V30 20413 O 1901.84 -1.42019 1.79005 0
M  V30 20414 C 1902.05 1.98013 2.87388 0
M  V30 20415 C 1903.4 2.26732 3.58996 0
M  V30 20416 O 1904.42 1.95894 2.97496 0
M  V30 20417 O 1903.28 2.79244 4.69771 0
M  V30 20418 H 1900.38 0.391621 0.728397 0
M  V30 20419 H 1902.92 1.37771 0.990824 0
M  V30 20420 H 1901.69 2.97133 2.54613 0
M  V30 20421 H 1901.32 1.63689 3.62342 0
M  V30 20422 N 1902.31 -1.14411 1.08387 0
M  V30 20423 C 1903.26 -2.21558 0.708165 0
M  V30 20424 C 1904.26 -1.66969 -0.285982 0
M  V30 20425 O 1905.46 -1.79386 -0.14857 0
M  V30 20426 H 1901.84 -0.721799 0.210974 0
M  V30 20427 H 1903.81 -2.50518 1.62122 0
M  V30 20428 C 1902.56 -3.47444 0.13337 0
M  V30 20429 H 1901.88 -3.89779 0.889513 0
M  V30 20430 H 1903.32 -4.23901 -0.0917154 0
M  V30 20431 C 1901.78 -3.1743 -1.1287 0
M  V30 20432 O 1902.31 -3.35205 -2.2136 0
M  V30 20433 N 1900.52 -2.71391 -1.03901 0
M  V30 20434 H 1900.06 -2.57127 -0.156094 0
M  V30 20435 H 1900.02 -2.51684 -1.88422 0
M  V30 20436 N 1903.79 -0.869509 -1.31443 0
M  V30 20437 C 1905.04 -0.479265 -1.96335 0
M  V30 20438 C 1905.36 0.971583 -1.69072 0
M  V30 20439 O 1904.63 1.68104 -1.00588 0
M  V30 20440 H 1903.21 -0.174241 -0.726394 0
M  V30 20441 H 1905.87 -1.1092 -1.60259 0
M  V30 20442 H 1904.97 -0.636628 -3.05538 0
M  V30 20443 N 1905.27 1.44508 -0.628902 0
M  V30 20444 C 1906.23 2.291 0.0676501 0
M  V30 20445 C 1907.23 1.40921 0.77447 0
M  V30 20446 O 1908.42 1.62816 0.619397 0
M  V30 20447 C 1905.56 3.22448 1.10634 0
M  V30 20448 H 1906.75 2.92174 -0.676344 0
M  V30 20449 H 1904.3 1.51384 -0.388933 0
M  V30 20450 H 1905.04 2.64219 1.88039 0
M  V30 20451 H 1904.82 3.87428 0.603465 0
M  V30 20452 H 1906.31 3.86 1.59354 0
M  V30 20453 N 1906.75 0.369315 1.53212 0
M  V30 20454 C 1907.7 -0.490481 2.2737 0
M  V30 20455 C 1908.69 -1.08021 1.30491 0
M  V30 20456 O 1909.9 -1.02298 1.48105 0
M  V30 20457 H 1906.27 -0.176899 0.730897 0
M  V30 20458 H 1908.24 0.156696 2.97988 0
M  V30 20459 C 1906.99 -1.61628 3.0785 0
M  V30 20460 H 1906.32 -1.1718 3.82242 0
M  V30 20461 H 1907.76 -2.19252 3.62911 0
M  V30 20462 C 1906.21 -2.56077 2.18921 0
M  V30 20463 O 1906.74 -3.58988 1.80251 0
M  V30 20464 N 1904.95 -2.25352 1.83479 0
M  V30 20465 H 1904.5 -1.41701 2.15124 0
M  V30 20466 H 1904.46 -2.888 1.24264 0
M  V30 20467 N 1908.23 -1.57291 0.0985816 0
M  V30 20468 C 1909.47 -1.94478 -0.564304 0
M  V30 20469 C 1909.8 -0.980557 -1.67974 0
M  V30 20470 O 1909.06 -0.000761176 -1.957 0
M  V30 20471 C 1909.36 -3.38184 -1.15613 0
M  V30 20472 C 1909.02 -4.50601 -0.164125 0
M  V30 20473 C 1907.68 -4.81077 0.108706 0
M  V30 20474 C 1910.04 -5.18669 0.513033 0
M  V30 20475 C 1907.36 -5.76947 1.06533 0
M  V30 20476 C 1909.72 -6.15565 1.45815 0
M  V30 20477 C 1908.38 -6.44445 1.73918 0
M  V30 20478 H 1907.65 -0.711647 -0.206493 0
M  V30 20479 H 1910.3 -1.90697 0.175155 0
M  V30 20480 H 1908.6 -3.3856 -1.97191 0
M  V30 20481 H 1910.3 -3.6426 -1.67678 0
M  V30 20482 H 1906.89 -4.2685 -0.386958 0
M  V30 20483 H 1911.07 -4.95297 0.315398 0
M  V30 20484 H 1906.33 -5.97636 1.29002 0
M  V30 20485 H 1910.5 -6.67402 1.98865 0
M  V30 20486 H 1908.13 -7.1854 2.48201 0
M  V30 20487 N 1909.71 0.175127 -1.56624 0
M  V30 20488 C 1910.93 0.908041 -1.85909 0
M  V30 20489 C 1911.35 1.75993 -0.683514 0
M  V30 20490 O 1910.71 1.79162 0.347453 0
M  V30 20491 C 1910.76 1.78791 -3.14191 0
M  V30 20492 O 1910.48 0.970386 -4.27218 0
M  V30 20493 C 1911.98 2.63081 -3.56796 0
M  V30 20494 H 1909.2 0.263986 -0.616889 0
M  V30 20495 H 1911.74 0.176369 -2.03738 0
M  V30 20496 H 1909.9 2.47296 -2.982 0
M  V30 20497 H 1910.31 1.57179 -5.00395 0
M  V30 20498 H 1911.79 3.2044 -4.49469 0
M  V30 20499 H 1912.26 3.37766 -2.80732 0
M  V30 20500 H 1912.87 1.99914 -3.75386 0
M  V30 20501 N 1911.18 1.5123 0.44355 0
M  V30 20502 C 1912.41 1.67671 1.2207 0
M  V30 20503 C 1912.83 0.370934 1.84406 0
M  V30 20504 O 1912.19 -0.668265 1.68535 0
M  V30 20505 C 1912.24 2.7896 2.28503 0
M  V30 20506 O 1911.34 2.4213 3.33837 0
M  V30 20507 H 1910.68 0.559275 0.357921 0
M  V30 20508 H 1913.21 1.9776 0.524592 0
M  V30 20509 H 1913.22 3.0286 2.73386 0
M  V30 20510 H 1911.9 3.73716 1.82509 0
M  V30 20511 H 1910.48 2.28779 2.94473 0
M  V30 20512 N 1912.66 -0.698586 1.41271 0
M  V30 20513 C 1913.59 -1.82385 1.38811 0
M  V30 20514 C 1914.61 -1.60183 0.290752 0
M  V30 20515 O 1915.8 -1.69742 0.552272 0
M  V30 20516 C 1912.9 -3.19095 1.14155 0
M  V30 20517 C 1912.07 -3.68352 2.35872 0
M  V30 20518 C 1911.13 -4.83723 2.07119 0
M  V30 20519 O 1910.15 -4.95495 2.80132 0
M  V30 20520 N 1911.36 -5.70748 1.05958 0
M  V30 20521 H 1914.12 -1.84989 2.35795 0
M  V30 20522 H 1911.68 -0.880792 1.35844 0
M  V30 20523 H 1913.67 -3.93899 0.928763 0
M  V30 20524 H 1912.24 -3.11535 0.257783 0
M  V30 20525 H 1911.46 -2.8449 2.72872 0
M  V30 20526 H 1912.75 -3.97999 3.16977 0
M  V30 20527 H 1912.15 -5.63865 0.455223 0
M  V30 20528 H 1910.71 -6.45463 0.906689 0
M  V30 20529 N 1914.14 -1.27049 -0.93254 0
M  V30 20530 C 1915.05 -1.11156 -2.06595 0
M  V30 20531 C 1916.07 -0.0428245 -1.73947 0
M  V30 20532 O 1917.24 -0.248326 -1.99863 0
M  V30 20533 C 1914.31 -0.755297 -3.38373 0
M  V30 20534 C 1913.37 -1.90439 -3.84749 0
M  V30 20535 C 1912.6 -1.56502 -5.10238 0
M  V30 20536 O 1912.82 -0.470696 -5.68455 0
M  V30 20537 O 1911.76 -2.40262 -5.51868 0
M  V30 20538 H 1915.58 -2.0626 -2.22914 0
M  V30 20539 H 1913.17 -1.06191 -1.05089 0
M  V30 20540 H 1915.05 -0.569728 -4.17531 0
M  V30 20541 H 1913.73 0.166262 -3.23273 0
M  V30 20542 H 1912.63 -2.14498 -3.06499 0
M  V30 20543 H 1913.97 -2.80598 -4.04383 0
M  V30 20544 N 1915.62 1.13835 -1.08993 0
M  V30 20545 C 1916.86 1.85284 -0.824476 0
M  V30 20546 C 1917.2 1.83062 0.648235 0
M  V30 20547 O 1916.47 1.26555 1.47696 0
M  V30 20548 C 1916.75 3.33649 -1.35463 0
M  V30 20549 C 1916.61 3.44411 -2.89312 0
M  V30 20550 C 1917.93 4.28941 -0.984768 0
M  V30 20551 H 1915.05 0.672745 -0.300971 0
M  V30 20552 H 1917.69 1.3364 -1.35057 0
M  V30 20553 H 1915.84 3.77761 -0.907128 0
M  V30 20554 H 1917.51 3.09043 -3.42477 0
M  V30 20555 H 1915.75 2.85429 -3.26669 0
M  V30 20556 H 1916.42 4.48724 -3.21481 0
M  V30 20557 H 1918.9 3.92877 -1.37064 0
M  V30 20558 H 1917.78 5.31196 -1.38283 0
M  V30 20559 H 1918.04 4.41969 0.10755 0
M  V30 20560 N 1917.1 0.876467 1.3098 0
M  V30 20561 C 1918.04 0.335149 2.28354 0
M  V30 20562 C 1919.01 -0.569979 1.56014 0
M  V30 20563 O 1920.2 -0.500226 1.84126 0
M  V30 20564 C 1917.34 -0.451723 3.42131 0
M  V30 20565 C 1916.45 0.481657 4.29306 0
M  V30 20566 C 1915.59 -0.319977 5.30235 0
M  V30 20567 C 1914.62 0.609417 6.09059 0
M  V30 20568 N 1913.76 -0.156366 7.01926 0
M  V30 20569 H 1918.6 1.17069 2.74042 0
M  V30 20570 H 1916.14 0.588683 1.34807 0
M  V30 20571 H 1918.1 -0.923775 4.06844 0
M  V30 20572 H 1916.73 -1.25191 2.97535 0
M  V30 20573 H 1915.78 1.07218 3.64977 0
M  V30 20574 H 1917.09 1.19403 4.84298 0
M  V30 20575 H 1916.24 -0.854256 6.00656 0
M  V30 20576 H 1914.98 -1.06561 4.75916 0
M  V30 20577 H 1913.99 1.1554 5.37523 0
M  V30 20578 H 1915.21 1.354 6.65465 0
M  V30 20579 H 1913.16 -0.884688 6.50007 0
M  V30 20580 H 1913.08 0.496538 7.54368 0
M  V30 20581 H 1914.34 -0.671665 7.76601 0
M  V30 20582 N 1918.57 -1.44173 0.636557 0
M  V30 20583 C 1919.51 -2.27912 -0.114546 0
M  V30 20584 C 1920.48 -1.38856 -0.846028 0
M  V30 20585 O 1921.67 -1.68298 -0.84901 0
M  V30 20586 C 1918.8 -3.17907 -1.16844 0
M  V30 20587 C 1917.84 -4.23107 -0.536886 0
M  V30 20588 S 1918.67 -5.31202 0.677107 0
M  V30 20589 C 1919.83 -6.24766 -0.376669 0
M  V30 20590 H 1920.06 -2.91268 0.595839 0
M  V30 20591 H 1917.6 -1.48439 0.424887 0
M  V30 20592 H 1919.55 -3.70306 -1.77154 0
M  V30 20593 H 1918.22 -2.53761 -1.85105 0
M  V30 20594 H 1917.41 -4.86113 -1.3308 0
M  V30 20595 H 1917.01 -3.73999 -0.00829068 0
M  V30 20596 H 1919.3 -6.65912 -1.24768 0
M  V30 20597 H 1920.25 -7.07765 0.217942 0
M  V30 20598 H 1920.65 -5.6008 -0.705003 0
M  V30 20599 N 1920.05 -0.377435 -1.53014 0
M  V30 20600 C 1921.3 0.208838 -2.01722 0
M  V30 20601 C 1921.63 1.47446 -1.26385 0
M  V30 20602 O 1920.91 1.91122 -0.360903 0
M  V30 20603 C 1921.19 0.4888 -3.56767 0
M  V30 20604 C 1921.04 -0.791285 -4.42785 0
M  V30 20605 C 1922.36 1.28443 -4.2094 0
M  V30 20606 H 1919.48 0.0744281 -0.733232 0
M  V30 20607 H 1922.12 -0.504664 -1.83175 0
M  V30 20608 H 1920.27 1.09662 -3.72702 0
M  V30 20609 H 1921.94 -1.42848 -4.38625 0
M  V30 20610 H 1920.19 -1.40914 -4.10275 0
M  V30 20611 H 1920.86 -0.550199 -5.49251 0
M  V30 20612 H 1923.33 0.770147 -4.08911 0
M  V30 20613 H 1922.21 1.44906 -5.29427 0
M  V30 20614 H 1922.47 2.29631 -3.77786 0
M  V30 20615 N 1921.53 1.57237 -0.106922 0
M  V30 20616 C 1922.49 2.13515 0.833317 0
M  V30 20617 C 1923.49 1.06715 1.20285 0
M  V30 20618 O 1924.68 1.32548 1.13034 0
M  V30 20619 C 1921.82 2.66546 2.12523 0
M  V30 20620 H 1923.01 2.97916 0.344435 0
M  V30 20621 H 1920.56 1.55652 0.142199 0
M  V30 20622 H 1921.3 1.85699 2.65869 0
M  V30 20623 H 1921.08 3.44643 1.86985 0
M  V30 20624 H 1922.57 3.10039 2.7976 0
M  V30 20625 N 1923.01 -0.166818 1.56715 0
M  V30 20626 C 1924.25 -0.879309 1.83411 0
M  V30 20627 C 1924.61 -1.79674 0.688116 0
M  V30 20628 O 1923.9 -1.8899 -0.315183 0
M  V30 20629 C 1924.1 -1.70734 3.13982 0
M  V30 20630 C 1923.93 -0.871579 4.41173 0
M  V30 20631 C 1922.7 -0.544904 5.02353 0
M  V30 20632 C 1924.89 -0.211049 5.13867 0
M  V30 20633 N 1922.88 0.306529 6.13134 0
M  V30 20634 C 1924.25 0.501356 6.1797 0
M  V30 20635 C 1926.3 -0.129677 4.97731 0
M  V30 20636 C 1925 1.28742 7.07685 0
M  V30 20637 C 1927.03 0.643069 5.87893 0
M  V30 20638 C 1926.39 1.34382 6.91463 0
M  V30 20639 H 1922.49 -0.300233 0.72207 0
M  V30 20640 H 1925.08 -0.145981 1.94152 0
M  V30 20641 H 1923.25 -2.41206 3.04425 0
M  V30 20642 H 1924.98 -2.36148 3.28658 0
M  V30 20643 H 1921.73 -0.876048 4.65427 0
M  V30 20644 H 1922.16 0.722687 6.73132 0
M  V30 20645 H 1926.8 -0.657096 4.17663 0
M  V30 20646 H 1924.52 1.82617 7.87195 0
M  V30 20647 H 1928.1 0.707761 5.77479 0
M  V30 20648 H 1926.98 1.93218 7.60024 0
M  V30 20649 N 1924.49 -1.51463 -0.435524 0
M  V30 20650 C 1925.73 -1.65426 -1.18347 0
M  V30 20651 C 1926.09 -0.366774 -1.88872 0
M  V30 20652 O 1925.38 0.637507 -1.80683 0
M  V30 20653 C 1925.57 -2.79695 -2.22498 0
M  V30 20654 C 1925.4 -4.19431 -1.62196 0
M  V30 20655 C 1924.17 -4.85342 -1.40609 0
M  V30 20656 C 1926.37 -5.0246 -1.0972 0
M  V30 20657 N 1924.35 -6.09187 -0.759235 0
M  V30 20658 C 1925.72 -6.17321 -0.575716 0
M  V30 20659 C 1927.78 -4.87976 -0.989133 0
M  V30 20660 C 1926.48 -7.19287 0.0432192 0
M  V30 20661 C 1928.51 -5.90151 -0.384089 0
M  V30 20662 C 1927.87 -7.04286 0.126845 0
M  V30 20663 H 1923.97 -0.659213 -0.420669 0
M  V30 20664 H 1926.55 -1.88696 -0.479793 0
M  V30 20665 H 1924.72 -2.58086 -2.90252 0
M  V30 20666 H 1926.46 -2.82829 -2.89464 0
M  V30 20667 H 1923.21 -4.43242 -1.66833 0
M  V30 20668 H 1923.64 -6.75481 -0.453193 0
M  V30 20669 H 1928.28 -3.99988 -1.37002 0
M  V30 20670 H 1926 -8.06922 0.436231 0
M  V30 20671 H 1929.58 -5.81014 -0.30235 0
M  V30 20672 H 1928.46 -7.81995 0.587666 0
M  V30 20673 N 1925.96 0.691085 -1.4164 0
M  V30 20674 C 1927.21 1.44682 -1.40535 0
M  V30 20675 C 1927.53 1.9559 -0.0192882 0
M  V30 20676 O 1928.73 2.71259 0.114373 0
M  V30 20677 C 1927.19 2.61645 -2.47123 0
M  V30 20678 C 1926.8 2.17504 -3.91658 0
M  V30 20679 C 1928.54 3.39253 -2.55162 0
M  V30 20680 C 1926.45 3.31453 -4.89789 0
M  V30 20681 H 1925.38 0.543472 -0.522641 0
M  V30 20682 H 1928.03 0.749807 -1.67482 0
M  V30 20683 H 1926.41 3.33636 -2.13314 0
M  V30 20684 H 1927.58 1.52774 -4.34738 0
M  V30 20685 H 1925.9 1.52878 -3.87321 0
M  V30 20686 H 1928.5 4.24088 -3.25659 0
M  V30 20687 H 1928.84 3.84744 -1.58989 0
M  V30 20688 H 1929.37 2.74322 -2.88083 0
M  V30 20689 H 1926.11 2.9097 -5.87381 0
M  V30 20690 H 1925.63 3.95019 -4.51354 0
M  V30 20691 H 1927.31 3.97164 -5.10754 0
M  V30 20692 N 1927.44 1.27542 0.925789 0
M  V30 20693 C 1928.69 1.13767 1.67038 0
M  V30 20694 C 1929.01 -0.316603 1.92413 0
M  V30 20695 O 1928.28 -1.22124 1.53175 0
M  V30 20696 H 1926.86 0.41803 0.61908 0
M  V30 20697 H 1929.52 1.60097 1.11153 0
M  V30 20698 H 1928.62 1.66818 2.63777 0
M  V30 20699 N 1928.92 -1.13255 1.09595 0
M  V30 20700 C 1930.17 -1.83925 0.827926 0
M  V30 20701 C 1930.48 -1.84531 -0.64866 0
M  V30 20702 O 1931.69 -2.5111 -1.03228 0
M  V30 20703 C 1930.14 -3.30219 1.43121 0
M  V30 20704 C 1929.75 -3.37996 2.94046 0
M  V30 20705 C 1931.5 -4.05918 1.24221 0
M  V30 20706 C 1929.4 -4.78572 3.47451 0
M  V30 20707 H 1928.33 -0.689091 0.306056 0
M  V30 20708 H 1930.98 -1.27586 1.31887 0
M  V30 20709 H 1929.37 -3.86371 0.867952 0
M  V30 20710 H 1930.54 -2.91829 3.56612 0
M  V30 20711 H 1928.86 -2.75762 3.12 0
M  V30 20712 H 1931.45 -5.09704 1.61573 0
M  V30 20713 H 1931.8 -4.15898 0.183004 0
M  V30 20714 H 1932.33 -3.561 1.77306 0
M  V30 20715 H 1929.07 -4.73785 4.52999 0
M  V30 20716 H 1928.59 -5.25227 2.89649 0
M  V30 20717 H 1930.27 -5.47495 3.44759 0
M  V30 20718 N 1930.4 -0.883401 -1.30514 0
M  V30 20719 C 1931.31 -0.352971 -2.31929 0
M  V30 20720 C 1932.32 0.543992 -1.65278 0
M  V30 20721 O 1933.5 0.437489 -1.96591 0
M  V30 20722 C 1930.57 0.425263 -3.44082 0
M  V30 20723 C 1929.63 -0.501265 -4.26363 0
M  V30 20724 C 1928.86 0.239923 -5.3316 0
M  V30 20725 O 1929.08 1.46622 -5.51233 0
M  V30 20726 O 1928.02 -0.409158 -6.00508 0
M  V30 20727 H 1931.84 -1.19393 -2.79247 0
M  V30 20728 H 1929.43 -0.647187 -1.34655 0
M  V30 20729 H 1931.31 0.865957 -4.12407 0
M  V30 20730 H 1929.98 1.24255 -2.98902 0
M  V30 20731 H 1928.89 -0.990738 -3.60743 0
M  V30 20732 H 1930.22 -1.28451 -4.75143 0
M  V30 20733 N 1931.88 1.43833 -0.644194 0
M  V30 20734 C 1932.81 2.29017 0.0914574 0
M  V30 20735 C 1933.82 1.4201 0.79605 0
M  V30 20736 O 1935.01 1.66036 0.655313 0
M  V30 20737 C 1932.11 3.18711 1.15225 0
M  V30 20738 C 1931.28 4.34206 0.527588 0
M  V30 20739 C 1930.34 5.04839 1.48406 0
M  V30 20740 O 1929.37 5.60416 0.996143 0
M  V30 20741 N 1930.57 5.075 2.81822 0
M  V30 20742 H 1933.34 2.92794 -0.639656 0
M  V30 20743 H 1930.9 1.54424 -0.486308 0
M  V30 20744 H 1932.89 3.62827 1.79272 0
M  V30 20745 H 1931.46 2.56595 1.78543 0
M  V30 20746 H 1930.68 3.93119 -0.291782 0
M  V30 20747 H 1931.97 5.08718 0.091139 0
M  V30 20748 H 1931.36 4.63703 3.24031 0
M  V30 20749 H 1929.92 5.55364 3.41195 0
M  V30 20750 N 1933.35 0.385544 1.52811 0
M  V30 20751 C 1934.58 -0.200568 2.06428 0
M  V30 20752 C 1935 -1.40049 1.2557 0
M  V30 20753 O 1934.36 -1.79128 0.279782 0
M  V30 20754 C 1934.41 -0.552623 3.5634 0
M  V30 20755 O 1933.51 -1.64711 3.7808 0
M  V30 20756 H 1932.86 -0.0244676 0.663549 0
M  V30 20757 H 1935.39 0.551927 1.97015 0
M  V30 20758 H 1935.4 -0.817996 3.99716 0
M  V30 20759 H 1934.07 0.324665 4.14631 0
M  V30 20760 H 1932.65 -1.37574 3.46595 0
M  V30 20761 N 1934.83 -1.57178 0.115259 0
M  V30 20762 C 1936.08 -1.95066 -0.543645 0
M  V30 20763 C 1936.41 -0.998318 -1.66925 0
M  V30 20764 O 1935.66 -0.0215177 -1.95688 0
M  V30 20765 C 1935.96 -3.39391 -1.12019 0
M  V30 20766 C 1935.63 -4.5075 -0.116323 0
M  V30 20767 C 1934.29 -4.80935 0.159725 0
M  V30 20768 C 1936.64 -5.18096 0.568016 0
M  V30 20769 C 1933.97 -5.75784 1.12646 0
M  V30 20770 C 1936.32 -6.13984 1.52336 0
M  V30 20771 C 1934.99 -6.42564 1.80743 0
M  V30 20772 H 1934.26 -0.713797 -0.198934 0
M  V30 20773 H 1936.9 -1.90501 0.195371 0
M  V30 20774 H 1935.21 -3.40633 -1.93589 0
M  V30 20775 H 1936.9 -3.66018 -1.63805 0
M  V30 20776 H 1933.49 -4.27236 -0.341664 0
M  V30 20777 H 1937.68 -4.94934 0.367913 0
M  V30 20778 H 1932.93 -5.96234 1.35334 0
M  V30 20779 H 1937.11 -6.65255 2.05933 0
M  V30 20780 H 1934.74 -7.15867 2.55808 0
M  V30 20781 N 1936.31 0.158505 -1.56801 0
M  V30 20782 C 1937.56 0.871313 -1.82353 0
M  V30 20783 C 1937.88 1.8222 -0.694324 0
M  V30 20784 O 1937.15 1.93817 0.284899 0
M  V30 20785 H 1935.73 0.324747 -0.672717 0
M  V30 20786 H 1938.39 0.155257 -1.94281 0
M  V30 20787 H 1937.49 1.44051 -2.76868 0
M  V30 20788 N 1937.79 1.51692 0.427485 0
M  V30 20789 C 1939.04 1.65091 1.17782 0
M  V30 20790 C 1939.37 0.370783 1.90627 0
M  V30 20791 O 1938.64 -0.630065 1.84012 0
M  V30 20792 C 1938.93 2.86083 2.18697 0
M  V30 20793 C 1938.78 4.24098 1.4987 0
M  V30 20794 C 1940.1 3.0259 3.19573 0
M  V30 20795 H 1937.22 0.600817 0.426835 0
M  V30 20796 H 1939.86 1.84202 0.46581 0
M  V30 20797 H 1938.01 2.6992 2.79419 0
M  V30 20798 H 1939.68 4.51949 0.924093 0
M  V30 20799 H 1937.92 4.26343 0.800894 0
M  V30 20800 H 1938.6 5.04768 2.23413 0
M  V30 20801 H 1941.07 3.17529 2.68914 0
M  V30 20802 H 1939.95 3.88794 3.87467 0
M  V30 20803 H 1940.21 2.15093 3.86248 0
M  V30 20804 N 1939.27 -0.683564 1.42004 0
M  V30 20805 C 1940.68 -1.26389 1.37414 0
M  V30 20806 C 1941.03 -1.96099 0.0630958 0
M  V30 20807 O 1940.15 -1.995 -0.838385 0
M  V30 20808 C 1940.75 -2.29854 2.48903 0
M  V30 20809 C 1939.31 -2.83435 2.47673 0
M  V30 20810 C 1938.46 -1.57634 2.28138 0
M  V30 20811 H 1941.41 -0.477522 1.51345 0
M  V30 20812 H 1941.43 -3.11404 2.18651 0
M  V30 20813 H 1940.94 -1.7909 3.44309 0
M  V30 20814 H 1939.04 -3.38344 1.56059 0
M  V30 20815 H 1939.15 -3.33048 3.44407 0
M  V30 20816 H 1937.52 -1.83883 1.76236 0
M  V30 20817 H 1938.3 -1.08848 3.25587 0
M  V30 20818 N 1940.75 -1.28031 -0.919012 0
M  V30 20819 C 1941.98 -1.17544 -1.69903 0
M  V30 20820 C 1942.38 0.269221 -1.87275 0
M  V30 20821 O 1941.73 1.19432 -1.39577 0
M  V30 20822 C 1941.79 -1.79632 -3.11404 0
M  V30 20823 C 1941.45 -3.28856 -3.17337 0
M  V30 20824 C 1942.45 -4.25367 -2.9893 0
M  V30 20825 C 1940.13 -3.69719 -3.40019 0
M  V30 20826 C 1942.13 -5.60718 -3.03108 0
M  V30 20827 C 1939.82 -5.05198 -3.43829 0
M  V30 20828 C 1940.81 -6.00507 -3.25393 0
M  V30 20829 O 1940.5 -7.33515 -3.28955 0
M  V30 20830 H 1940.23 -0.409225 -0.538062 0
M  V30 20831 H 1942.79 -1.69573 -1.15906 0
M  V30 20832 H 1941.02 -1.22091 -3.66921 0
M  V30 20833 H 1942.71 -1.63737 -3.7141 0
M  V30 20834 H 1943.47 -3.95132 -2.81239 0
M  V30 20835 H 1939.35 -2.96003 -3.53416 0
M  V30 20836 H 1942.9 -6.35087 -2.88636 0
M  V30 20837 H 1938.79 -5.35085 -3.61047 0
M  V30 20838 H 1939.56 -7.42074 -3.45352 0
M  V30 20839 N 1942.22 1.12672 -1.10194 0
M  V30 20840 C 1943.17 2.20403 -0.743323 0
M  V30 20841 C 1944.17 1.67402 0.259382 0
M  V30 20842 O 1945.37 1.79599 0.120012 0
M  V30 20843 H 1941.75 0.718351 -0.22243 0
M  V30 20844 H 1943.72 2.47907 -1.66087 0
M  V30 20845 C 1942.47 3.47188 -0.188629 0
M  V30 20846 H 1941.79 3.88315 -0.951411 0
M  V30 20847 H 1943.23 4.23993 0.0242649 0
M  V30 20848 C 1941.69 3.19186 1.07806 0
M  V30 20849 O 1942.22 3.38684 2.16 0
M  V30 20850 N 1940.42 2.73009 0.995705 0
M  V30 20851 H 1939.97 2.57342 0.115168 0
M  V30 20852 H 1939.93 2.54649 1.84394 0
M  V30 20853 N 1943.7 0.89031 1.30043 0
M  V30 20854 C 1945.11 0.561241 1.78065 0
M  V30 20855 C 1945.46 -0.922791 1.73144 0
M  V30 20856 O 1944.59 -1.72124 1.31157 0
M  V30 20857 C 1945.18 1.01201 3.23332 0
M  V30 20858 C 1943.74 0.734261 3.69169 0
M  V30 20859 C 1942.89 1.19199 2.50373 0
M  V30 20860 H 1945.84 1.074 1.16838 0
M  V30 20861 H 1945.86 0.343251 3.78949 0
M  V30 20862 H 1945.37 2.09213 3.26881 0
M  V30 20863 H 1943.47 -0.33365 3.71103 0
M  V30 20864 H 1943.59 1.32556 4.60397 0
M  V30 20865 H 1941.95 0.6112 2.47258 0
M  V30 20866 H 1942.73 2.27997 2.56656 0
M  V30 20867 N 1945.18 -1.43489 0.651812 0
M  V30 20868 C 1946.11 -2.29063 -0.0793108 0
M  V30 20869 C 1947.12 -1.4243 -0.788508 0
M  V30 20870 O 1948.31 -1.66381 -0.646499 0
M  V30 20871 C 1945.41 -3.19317 -1.13533 0
M  V30 20872 C 1944.59 -4.3448 -0.504553 0
M  V30 20873 C 1943.65 -5.05619 -1.45727 0
M  V30 20874 O 1942.67 -5.60936 -0.966409 0
M  V30 20875 N 1943.87 -5.08988 -2.79126 0
M  V30 20876 H 1946.64 -2.92451 0.655174 0
M  V30 20877 H 1944.2 -1.54164 0.494491 0
M  V30 20878 H 1946.19 -3.63773 -1.77345 0
M  V30 20879 H 1944.76 -2.57538 -1.7718 0
M  V30 20880 H 1943.98 -3.92958 0.312626 0
M  V30 20881 H 1945.27 -5.0876 -0.0641591 0
M  V30 20882 H 1944.67 -4.65415 -3.21567 0
M  V30 20883 H 1943.22 -5.57166 -3.38245 0
M  V30 20884 N 1946.66 -0.393643 -1.52605 0
M  V30 20885 C 1947.88 0.189618 -2.06531 0
M  V30 20886 C 1948.31 1.39382 -1.26311 0
M  V30 20887 O 1947.67 1.78977 -0.289278 0
M  V30 20888 C 1947.71 0.533717 -3.56628 0
M  V30 20889 O 1946.82 1.62703 -3.78948 0
M  V30 20890 H 1946.16 0.0209483 -0.663669 0
M  V30 20891 H 1948.69 -0.562368 -1.9672 0
M  V30 20892 H 1948.7 0.796786 -4.00144 0
M  V30 20893 H 1947.37 -0.34665 -4.14453 0
M  V30 20894 H 1945.95 1.35734 -3.47319 0
M  V30 20895 N 1948.14 1.57115 -0.123593 0
M  V30 20896 C 1949.07 2.12637 0.855463 0
M  V30 20897 C 1950.08 1.07017 1.22683 0
M  V30 20898 O 1951.27 1.34374 1.17498 0
M  V30 20899 C 1948.37 2.61484 2.15591 0
M  V30 20900 C 1947.54 3.91252 1.95553 0
M  V30 20901 C 1946.6 4.25649 3.09369 0
M  V30 20902 O 1945.63 4.94387 2.82082 0
M  V30 20903 N 1946.83 3.83339 4.35926 0
M  V30 20904 H 1949.59 2.97267 0.381076 0
M  V30 20905 H 1947.16 1.61786 0.0606943 0
M  V30 20906 H 1949.15 2.81522 2.90736 0
M  V30 20907 H 1947.72 1.81708 2.54364 0
M  V30 20908 H 1946.94 3.80076 1.04575 0
M  V30 20909 H 1948.23 4.76095 1.79474 0
M  V30 20910 H 1947.62 3.27908 4.6097 0
M  V30 20911 H 1946.18 4.08477 5.07927 0
M  V30 20912 N 1949.61 -0.150187 1.56883 0
M  V30 20913 C 1950.86 -0.86163 1.82812 0
M  V30 20914 C 1951.18 -1.81849 0.703977 0
M  V30 20915 O 1950.45 -1.93966 -0.274616 0
M  V30 20916 H 1949.03 -0.321175 0.67443 0
M  V30 20917 H 1951.69 -0.144952 1.9436 0
M  V30 20918 H 1950.79 -1.4258 2.77628 0
M  V30 20919 N 1951.09 -1.51916 -0.419434 0
M  V30 20920 C 1952.34 -1.65714 -1.16905 0
M  V30 20921 C 1952.67 -0.380888 -1.90428 0
M  V30 20922 O 1951.95 0.620297 -1.84344 0
M  V30 20923 C 1952.23 -2.87239 -2.17177 0
M  V30 20924 C 1952.08 -4.24887 -1.47619 0
M  V30 20925 C 1953.4 -3.04281 -3.17964 0
M  V30 20926 H 1950.52 -0.603072 -0.423643 0
M  V30 20927 H 1953.16 -1.84446 -0.456035 0
M  V30 20928 H 1951.31 -2.71398 -2.77984 0
M  V30 20929 H 1952.98 -4.52433 -0.900112 0
M  V30 20930 H 1951.23 -4.26761 -0.778273 0
M  V30 20931 H 1951.9 -5.05945 -2.20733 0
M  V30 20932 H 1954.37 -3.18951 -2.67226 0
M  V30 20933 H 1953.25 -3.90843 -3.85399 0
M  V30 20934 H 1953.51 -2.17138 -3.85102 0
M  V30 20935 N 1952.57 0.676023 -1.42365 0
M  V30 20936 C 1953.82 1.43821 -1.4298 0
M  V30 20937 C 1954.15 1.94147 -0.0455702 0
M  V30 20938 O 1953.42 1.70826 0.929976 0
M  V30 20939 C 1953.71 2.63612 -2.45318 0
M  V30 20940 C 1953.56 2.18926 -3.92927 0
M  V30 20941 C 1954.88 3.65827 -2.4466 0
M  V30 20942 H 1952 0.521622 -0.520653 0
M  V30 20943 H 1954.64 0.76837 -1.7377 0
M  V30 20944 H 1952.79 3.2076 -2.19193 0
M  V30 20945 H 1954.46 1.66955 -4.30028 0
M  V30 20946 H 1952.71 1.50512 -4.06852 0
M  V30 20947 H 1953.38 3.04965 -4.60109 0
M  V30 20948 H 1955.85 3.18393 -2.6789 0
M  V30 20949 H 1954.73 4.47226 -3.18245 0
M  V30 20950 H 1954.99 4.1687 -1.47213 0
M  V30 20951 N 1954.05 1.28517 0.912209 0
M  V30 20952 C 1954.96 1.14429 2.048 0
M  V30 20953 C 1955.97 0.0704926 1.73857 0
M  V30 20954 O 1957.15 0.280091 1.99443 0
M  V30 20955 C 1954.22 0.809034 3.37128 0
M  V30 20956 C 1953.28 1.96535 3.8167 0
M  V30 20957 C 1952.51 1.646 5.07684 0
M  V30 20958 O 1952.73 0.561072 5.67634 0
M  V30 20959 O 1951.67 2.49011 5.47975 0
M  V30 20960 H 1955.49 2.0978 2.19604 0
M  V30 20961 H 1953.08 1.0785 1.03387 0
M  V30 20962 H 1954.96 0.636082 4.16572 0
M  V30 20963 H 1953.63 -0.114812 3.23496 0
M  V30 20964 H 1952.54 2.19347 3.03047 0
M  V30 20965 H 1953.87 2.86996 3.99868 0
M  V30 20966 N 1955.53 -1.12086 1.1079 0
M  V30 20967 C 1956.49 -2.16111 0.763446 0
M  V30 20968 C 1957.49 -1.59371 -0.213903 0
M  V30 20969 O 1958.68 -1.74197 0.00972099 0
M  V30 20970 C 1955.81 -3.40646 0.131488 0
M  V30 20971 H 1957 -2.48096 1.68489 0
M  V30 20972 H 1954.56 -1.27156 0.908896 0
M  V30 20973 H 1955.29 -3.14265 -0.800507 0
M  V30 20974 H 1955.08 -3.83108 0.834928 0
M  V30 20975 H 1956.57 -4.17495 -0.0936165 0
M  V30 20976 N 1957 -0.897194 -1.29569 0
M  V30 20977 C 1957.94 -0.317616 -2.25979 0
M  V30 20978 C 1958.92 0.568783 -1.52327 0
M  V30 20979 O 1960.1 0.516152 -1.81296 0
M  V30 20980 C 1957.23 0.547511 -3.34245 0
M  V30 20981 C 1956.27 -0.271227 -4.25637 0
M  V30 20982 S 1957.11 -1.6674 -5.08879 0
M  V30 20983 C 1958.26 -0.809125 -6.20648 0
M  V30 20984 H 1958.49 -1.1348 -2.7479 0
M  V30 20985 H 1956.03 -0.697379 -1.37753 0
M  V30 20986 H 1957.99 1.04088 -3.97084 0
M  V30 20987 H 1956.65 1.33891 -2.84134 0
M  V30 20988 H 1955.84 0.389522 -5.02493 0
M  V30 20989 H 1955.44 -0.697651 -3.67435 0
M  V30 20990 H 1957.73 -0.0314136 -6.77493 0
M  V30 20991 H 1958.68 -1.54968 -6.90934 0
M  V30 20992 H 1959.08 -0.36462 -5.63321 0
M  V30 20993 N 1958.48 1.43142 -0.659413 0
M  V30 20994 C 1959.43 2.32565 0.040254 0
M  V30 20995 C 1960.42 1.48961 0.806651 0
M  V30 20996 O 1961.63 1.65131 0.716353 0
M  V30 20997 H 1958.01 0.751327 0.0318053 0
M  V30 20998 H 1959.98 2.89293 -0.731581 0
M  V30 20999 C 1958.73 3.33349 0.988614 0
M  V30 21000 H 1958.05 3.9771 0.40831 0
M  V30 21001 H 1959.49 3.9854 1.44714 0
M  V30 21002 C 1957.95 2.64423 2.08763 0
M  V30 21003 O 1958.48 2.46444 3.17219 0
M  V30 21004 N 1956.68 2.23697 1.85494 0
M  V30 21005 H 1956.23 2.38519 0.972945 0
M  V30 21006 H 1956.19 1.7791 2.59221 0
M  V30 21007 N 1959.96 0.40173 1.52394 0
M  V30 21008 C 1960.91 -0.444585 2.23623 0
M  V30 21009 C 1961.89 -1.01953 1.24477 0
M  V30 21010 O 1963.09 -0.943572 1.49752 0
M  V30 21011 C 1960.22 -1.5647 3.05568 0
M  V30 21012 C 1959.3 -1.00089 4.1212 0
M  V30 21013 N 1959.69 -0.163095 5.05537 0
M  V30 21014 C 1957.99 -1.27214 4.27472 0
M  V30 21015 C 1958.69 0.149768 5.81507 0
M  V30 21016 N 1957.67 -0.457445 5.41672 0
M  V30 21017 H 1961.47 0.201895 2.93206 0
M  V30 21018 H 1958.98 0.211732 1.61014 0
M  V30 21019 H 1960.98 -2.18353 3.55145 0
M  V30 21020 H 1959.64 -2.21388 2.37524 0
M  V30 21021 H 1960.65 0.200633 5.17511 0
M  V30 21022 H 1957.33 -1.92145 3.70657 0
M  V30 21023 H 1958.72 0.829351 6.66762 0
M  V30 21024 N 1961.44 -1.57047 0.131923 0
M  V30 21025 C 1962.39 -2.12555 -0.824896 0
M  V30 21026 C 1963.37 -1.04953 -1.21957 0
M  V30 21027 O 1964.56 -1.31162 -1.18851 0
M  V30 21028 C 1961.69 -2.73877 -2.06993 0
M  V30 21029 C 1960.78 -3.88579 -1.69903 0
M  V30 21030 N 1961.17 -4.95086 -1.03556 0
M  V30 21031 C 1959.47 -3.99005 -1.99276 0
M  V30 21032 C 1960.17 -5.75324 -0.858894 0
M  V30 21033 N 1959.15 -5.25581 -1.388 0
M  V30 21034 H 1962.95 -2.92275 -0.308596 0
M  V30 21035 H 1960.46 -1.62249 -0.0701257 0
M  V30 21036 H 1962.46 -3.11996 -2.76522 0
M  V30 21037 H 1961.12 -1.95625 -2.59155 0
M  V30 21038 H 1962.13 -5.13174 -0.69804 0
M  V30 21039 H 1958.81 -3.3181 -2.53394 0
M  V30 21040 H 1960.2 -6.71054 -0.337114 0
M  V30 21041 N 1962.92 0.141865 -1.5696 0
M  V30 21042 C 1963.85 1.17667 -2.01685 0
M  V30 21043 C 1964.83 1.44509 -0.897282 0
M  V30 21044 O 1966.01 1.55342 -1.16544 0
M  V30 21045 C 1963.14 2.50859 -2.40182 0
M  V30 21046 C 1962.1 2.38527 -3.55371 0
M  V30 21047 C 1961.42 3.76476 -3.79697 0
M  V30 21048 C 1962.72 1.86502 -4.87867 0
M  V30 21049 H 1964.42 0.804761 -2.88382 0
M  V30 21050 H 1961.96 0.385672 -1.38739 0
M  V30 21051 H 1963.92 3.2348 -2.70071 0
M  V30 21052 H 1962.64 2.89895 -1.50428 0
M  V30 21053 H 1961.3 1.68357 -3.25656 0
M  V30 21054 H 1960.95 4.12957 -2.87186 0
M  V30 21055 H 1960.65 3.69085 -4.5722 0
M  V30 21056 H 1962.17 4.50638 -4.12017 0
M  V30 21057 H 1963.58 2.48921 -5.16441 0
M  V30 21058 H 1961.98 1.89989 -5.69231 0
M  V30 21059 H 1963.05 0.821025 -4.77899 0
M  V30 21060 N 1964.39 1.52136 0.411372 0
M  V30 21061 C 1965.34 1.75318 1.50107 0
M  V30 21062 C 1966.31 0.595552 1.55056 0
M  V30 21063 O 1967.5 0.832859 1.71663 0
M  V30 21064 C 1964.64 1.9077 2.87578 0
M  V30 21065 C 1963.75 3.18411 2.91956 0
M  V30 21066 C 1962.88 3.24307 4.20712 0
M  V30 21067 C 1961.92 4.4616 4.19056 0
M  V30 21068 N 1961.06 4.49461 5.39379 0
M  V30 21069 H 1965.9 2.68323 1.29642 0
M  V30 21070 H 1963.44 1.32958 0.629326 0
M  V30 21071 H 1965.4 1.97711 3.67377 0
M  V30 21072 H 1964.03 1.01148 3.06543 0
M  V30 21073 H 1963.08 3.20652 2.04661 0
M  V30 21074 H 1964.39 4.08245 2.86597 0
M  V30 21075 H 1963.54 3.30308 5.08902 0
M  V30 21076 H 1962.28 2.32408 4.28763 0
M  V30 21077 H 1961.29 4.40308 3.29255 0
M  V30 21078 H 1962.51 5.39351 4.12646 0
M  V30 21079 H 1960.46 3.60444 5.48102 0
M  V30 21080 H 1960.38 5.33136 5.36005 0
M  V30 21081 H 1961.64 4.59688 6.29529 0
M  V30 21082 N 1965.87 -0.668464 1.42721 0
M  V30 21083 C 1966.82 -1.80311 1.46938 0
M  V30 21084 C 1967.82 -1.65861 0.344463 0
M  V30 21085 O 1969.02 -1.72392 0.517768 0
M  V30 21086 H 1965.4 -0.59464 0.460333 0
M  V30 21087 H 1967.37 -1.73872 2.4251 0
M  V30 21088 C 1966.12 -3.18498 1.3948 0
M  V30 21089 H 1965.44 -3.30246 2.25338 0
M  V30 21090 H 1966.88 -3.9789 1.46492 0
M  V30 21091 C 1965.34 -3.36719 0.110386 0
M  V30 21092 O 1965.87 -3.92939 -0.834354 0
M  V30 21093 N 1964.07 -2.90589 0.0254882 0
M  V30 21094 H 1963.62 -2.45023 0.795077 0
M  V30 21095 H 1963.58 -3.03158 -0.833236 0
M  V30 21096 N 1967.35 -1.28999 -0.905381 0
M  V30 21097 C 1968.28 -1.09447 -2.0138 0
M  V30 21098 C 1969.3 -0.0436697 -1.62741 0
M  V30 21099 O 1970.49 -0.287603 -1.76168 0
M  V30 21100 C 1967.59 -0.642796 -3.32748 0
M  V30 21101 C 1966.76 -1.77086 -3.99949 0
M  V30 21102 C 1965.82 -1.31115 -5.09603 0
M  V30 21103 O 1964.84 -2.01488 -5.32345 0
M  V30 21104 N 1966.05 -0.178924 -5.80224 0
M  V30 21105 H 1968.81 -2.04906 -2.18709 0
M  V30 21106 H 1966.37 -1.20863 -1.07721 0
M  V30 21107 H 1968.36 -0.318684 -4.03443 0
M  V30 21108 H 1966.93 0.21918 -3.11831 0
M  V30 21109 H 1966.15 -2.26414 -3.22692 0
M  V30 21110 H 1967.44 -2.52736 -4.4159 0
M  V30 21111 H 1966.84 0.407926 -5.64227 0
M  V30 21112 H 1965.4 0.085857 -6.51743 0
M  V30 21113 N 1968.83 1.11497 -1.11383 0
M  V30 21114 C 1970.08 1.82584 -0.857082 0
M  V30 21115 C 1970.39 1.8554 0.61922 0
M  V30 21116 O 1971.6 2.52721 0.992197 0
M  V30 21117 C 1970.05 3.279 -1.48356 0
M  V30 21118 C 1969.66 3.33275 -2.99386 0
M  V30 21119 C 1971.41 4.0389 -1.30663 0
M  V30 21120 C 1969.31 4.72984 -3.55021 0
M  V30 21121 H 1968.24 0.684134 -0.31698 0
M  V30 21122 H 1970.89 1.25471 -1.339 0
M  V30 21123 H 1969.28 3.84941 -0.929311 0
M  V30 21124 H 1970.45 2.86119 -3.6121 0
M  V30 21125 H 1968.76 2.70764 -3.16348 0
M  V30 21126 H 1971.36 5.07069 -1.69662 0
M  V30 21127 H 1971.7 4.15554 -0.249147 0
M  V30 21128 H 1972.24 3.53235 -1.82949 0
M  V30 21129 H 1968.98 4.66518 -4.60479 0
M  V30 21130 H 1968.5 5.20553 -2.97968 0
M  V30 21131 H 1970.18 5.41941 -3.53425 0
M  V30 21132 N 1970.31 0.904053 1.29092 0
M  V30 21133 C 1971.53 0.547082 2.00054 0
M  V30 21134 C 1971.96 -0.862026 1.67185 0
M  V30 21135 O 1971.32 -1.57449 0.898855 0
M  V30 21136 C 1971.36 0.751495 3.52682 0
M  V30 21137 O 1970.47 -0.194004 4.11943 0
M  V30 21138 H 1969.81 0.213241 0.628828 0
M  V30 21139 H 1972.34 1.21683 1.64482 0
M  V30 21140 H 1972.35 0.657831 4.02662 0
M  V30 21141 H 1971.02 1.77878 3.75942 0
M  V30 21142 H 1969.6 -0.0524281 3.72863 0
M  V30 21143 N 1971.79 -1.4279 0.666995 0
M  V30 21144 C 1973.2 -1.56027 0.335817 0
M  V30 21145 C 1973.4 -1.64812 -1.15928 0
M  V30 21146 O 1972.46 -1.61074 -1.94451 0
M  V30 21147 C 1973.77 -2.81425 1.05928 0
M  V30 21148 C 1975.32 -2.95187 1.04085 0
M  V30 21149 C 1975.79 -4.23435 1.74548 0
M  V30 21150 N 1977.28 -4.3033 1.71379 0
M  V30 21151 C 1978.02 -5.2836 2.22762 0
M  V30 21152 N 1977.52 -6.32589 2.82494 0
M  V30 21153 N 1979.31 -5.20106 2.13182 0
M  V30 21154 H 1971.46 -1.35332 1.63704 0
M  V30 21155 H 1973.72 -0.650895 0.689231 0
M  V30 21156 H 1973.43 -2.81044 2.1144 0
M  V30 21157 H 1973.3 -3.72077 0.619546 0
M  V30 21158 H 1975.69 -2.95099 -0.00591289 0
M  V30 21159 H 1975.77 -2.05786 1.5194 0
M  V30 21160 H 1975.41 -4.24283 2.79189 0
M  V30 21161 H 1975.34 -5.11756 1.24149 0
M  V30 21162 H 1977.84 -3.55633 1.27803 0
M  V30 21163 H 1978.15 -7.03733 3.19343 0
M  V30 21164 H 1976.49 -6.33173 2.86561 0
M  V30 21165 H 1979.68 -4.37597 1.66211 0
M  V30 21166 H 1979.86 -5.96343 2.53534 0
M  V30 21167 N 1973.26 -0.409806 -1.52179 0
M  V30 21168 C 1974.51 0.167113 -2.01007 0
M  V30 21169 C 1974.83 1.46166 -1.2998 0
M  V30 21170 O 1976.03 2.11988 -1.69628 0
M  V30 21171 C 1974.49 0.348367 -3.5821 0
M  V30 21172 C 1974.1 -0.934131 -4.38153 0
M  V30 21173 C 1975.84 0.880542 -4.15267 0
M  V30 21174 C 1973.75 -0.720028 -5.87 0
M  V30 21175 H 1972.68 0.0662269 -0.751086 0
M  V30 21176 H 1975.33 -0.535355 -1.75517 0
M  V30 21177 H 1973.71 1.11318 -3.80032 0
M  V30 21178 H 1974.88 -1.70515 -4.2809 0
M  V30 21179 H 1973.2 -1.39277 -3.92417 0
M  V30 21180 H 1975.8 1.05677 -5.24153 0
M  V30 21181 H 1976.14 1.85542 -3.72666 0
M  V30 21182 H 1976.67 0.174766 -3.97416 0
M  V30 21183 H 1973.41 -1.66649 -6.33963 0
M  V30 21184 H 1972.93 0.0116803 -5.99799 0
M  V30 21185 H 1974.61 -0.362471 -6.45984 0
M  V30 21186 N 1974.74 1.56975 -0.14025 0
M  V30 21187 C 1976.16 1.58129 0.216215 0
M  V30 21188 C 1976.36 1.15417 1.6517 0
M  V30 21189 O 1975.41 0.851345 2.37715 0
M  V30 21190 C 1976.73 3.00678 -0.0364108 0
M  V30 21191 C 1978.27 3.12988 0.0278286 0
M  V30 21192 C 1978.75 4.57574 -0.197378 0
M  V30 21193 N 1980.24 4.62976 -0.144073 0
M  V30 21194 C 1980.98 5.72651 -0.292931 0
M  V30 21195 N 1980.47 6.91 -0.499138 0
M  V30 21196 N 1982.26 5.61625 -0.231008 0
M  V30 21197 H 1974.42 1.83033 -1.07762 0
M  V30 21198 H 1976.68 0.846871 -0.426044 0
M  V30 21199 H 1976.38 3.36291 -1.02963 0
M  V30 21200 H 1976.26 3.70909 0.686026 0
M  V30 21201 H 1978.65 2.7722 1.01159 0
M  V30 21202 H 1978.73 2.45257 -0.726829 0
M  V30 21203 H 1978.37 4.94045 -1.17821 0
M  V30 21204 H 1978.3 5.23424 0.577522 0
M  V30 21205 H 1980.79 3.77898 0.0109252 0
M  V30 21206 H 1981.1 7.70444 -0.603012 0
M  V30 21207 H 1979.45 6.92935 -0.535376 0
M  V30 21208 H 1982.64 4.68047 -0.0707224 0
M  V30 21209 H 1982.81 6.47052 -0.350455 0
M  V30 21210 N 1976.22 -0.133539 1.57033 0
M  V30 21211 C 1977.13 -1.18362 2.02553 0
M  V30 21212 C 1978.15 -1.46212 0.943294 0
M  V30 21213 O 1979.32 -1.57616 1.25376 0
M  V30 21214 C 1976.39 -2.49391 2.40842 0
M  V30 21215 C 1975.45 -2.29068 3.63079 0
M  V30 21216 C 1974.68 -3.53849 3.99533 0
M  V30 21217 O 1974.9 -4.60576 3.36491 0
M  V30 21218 O 1973.84 -3.45713 4.92713 0
M  V30 21219 H 1977.66 -0.827128 2.9222 0
M  V30 21220 H 1975.25 -0.343267 1.45403 0
M  V30 21221 H 1977.13 -3.26617 2.66269 0
M  V30 21222 H 1975.81 -2.84544 1.54326 0
M  V30 21223 H 1974.71 -1.49749 3.42821 0
M  V30 21224 H 1976.05 -1.98826 4.50254 0
M  V30 21225 N 1977.7 -1.52352 -0.403298 0
M  V30 21226 C 1978.63 -1.72347 -1.51093 0
M  V30 21227 C 1979.64 -0.603886 -1.51186 0
M  V30 21228 O 1980.83 -0.879203 -1.55346 0
M  V30 21229 C 1977.93 -1.75407 -2.89975 0
M  V30 21230 C 1977.1 -3.04495 -3.14009 0
M  V30 21231 C 1976.16 -2.9929 -4.32795 0
M  V30 21232 O 1975.19 -3.73185 -4.29792 0
M  V30 21233 N 1976.39 -2.17484 -5.3822 0
M  V30 21234 H 1979.16 -2.67908 -1.34333 0
M  V30 21235 H 1976.72 -1.50662 -0.592661 0
M  V30 21236 H 1978.71 -1.6945 -3.67517 0
M  V30 21237 H 1977.28 -0.87295 -3.00164 0
M  V30 21238 H 1976.5 -3.24056 -2.24458 0
M  V30 21239 H 1977.79 -3.89879 -3.26913 0
M  V30 21240 H 1977.19 -1.56888 -5.4351 0
M  V30 21241 H 1975.74 -2.17378 -6.14484 0
M  V30 21242 N 1979.18 0.660885 -1.43074 0
M  V30 21243 C 1980.14 1.75586 -1.47317 0
M  V30 21244 C 1981.14 1.56744 -0.358871 0
M  V30 21245 O 1982.33 1.62782 -0.620299 0
M  V30 21246 C 1979.46 3.14377 -1.31833 0
M  V30 21247 H 1980.65 1.73207 -2.44825 0
M  V30 21248 H 1978.21 0.871828 -1.29726 0
M  V30 21249 H 1978.94 3.22373 -0.353027 0
M  V30 21250 H 1978.73 3.29457 -2.12604 0
M  V30 21251 H 1980.22 3.94238 -1.37718 0
M  V30 21252 N 1980.65 1.29477 0.898527 0
M  V30 21253 C 1981.6 1.1459 2.02415 0
M  V30 21254 C 1982.6 0.0611919 1.69289 0
M  V30 21255 O 1983.8 0.221075 1.78637 0
M  V30 21256 H 1980.18 0.353997 0.663468 0
M  V30 21257 H 1982.15 2.09886 2.12109 0
M  V30 21258 C 1980.9 0.840435 3.3739 0
M  V30 21259 H 1980.22 1.66712 3.63383 0
M  V30 21260 H 1981.66 0.77631 4.16833 0
M  V30 21261 C 1980.12 -0.456337 3.33795 0
M  V30 21262 O 1980.65 -1.48204 3.73361 0
M  V30 21263 N 1978.86 -0.462604 2.86894 0
M  V30 21264 H 1978.4 0.372545 2.54892 0
M  V30 21265 H 1978.36 -1.33024 2.84872 0
M  V30 21266 N 1982.13 -1.10905 1.11972 0
M  V30 21267 C 1983.36 -1.86555 0.894699 0
M  V30 21268 C 1983.78 -1.80434 -0.555801 0
M  V30 21269 O 1983.13 -1.18957 -1.38403 0
M  V30 21270 C 1983.18 -3.35148 1.35492 0
M  V30 21271 O 1982.9 -3.41154 2.74856 0
M  V30 21272 C 1984.41 -4.27687 1.16612 0
M  V30 21273 H 1981.63 -0.589761 0.320037 0
M  V30 21274 H 1984.17 -1.40232 1.48846 0
M  V30 21275 H 1982.32 -3.78955 0.804493 0
M  V30 21276 H 1982.74 -4.3372 2.94936 0
M  V30 21277 H 1984.21 -5.30168 1.53708 0
M  V30 21278 H 1984.69 -4.39072 0.106219 0
M  V30 21279 H 1985.3 -3.8968 1.70381 0
M  V30 21280 N 1983.61 -0.910886 -1.2861 0
M  V30 21281 C 1984.86 -0.53847 -1.94379 0
M  V30 21282 C 1985.17 0.92185 -1.72515 0
M  V30 21283 O 1986.38 1.40229 -2.32482 0
M  V30 21284 C 1984.83 -0.91216 -3.48149 0
M  V30 21285 C 1984.44 -2.39201 -3.78796 0
M  V30 21286 C 1986.19 -0.610192 -4.20092 0
M  V30 21287 C 1984.09 -2.70598 -5.25862 0
M  V30 21288 H 1983.02 -0.197657 -0.727632 0
M  V30 21289 H 1985.67 -1.10941 -1.46165 0
M  V30 21290 H 1984.06 -0.270034 -3.95078 0
M  V30 21291 H 1985.23 -3.08063 -3.42686 0
M  V30 21292 H 1983.55 -2.66414 -3.20019 0
M  V30 21293 H 1986.14 -0.821472 -5.28352 0
M  V30 21294 H 1986.49 0.451862 -4.1384 0
M  V30 21295 H 1987.02 -1.21066 -3.7893 0
M  V30 21296 H 1983.76 -3.75645 -5.37188 0
M  V30 21297 H 1983.28 -2.0637 -5.6318 0
M  V30 21298 H 1984.96 -2.57451 -5.93572 0
M  V30 21299 N 1985.09 1.42434 -0.674558 0
M  V30 21300 C 1986 2.346 0.00398919 0
M  V30 21301 C 1987.01 1.55078 0.789109 0
M  V30 21302 O 1988.19 1.87647 0.731485 0
M  V30 21303 C 1985.26 3.33607 0.94379 0
M  V30 21304 C 1984.32 4.29026 0.153229 0
M  V30 21305 C 1983.55 5.23304 1.04827 0
M  V30 21306 O 1983.77 5.2251 2.28779 0
M  V30 21307 O 1982.71 5.99742 0.509202 0
M  V30 21308 H 1986.53 2.94161 -0.755189 0
M  V30 21309 H 1984.12 1.42933 -0.434794 0
M  V30 21310 H 1986 3.94431 1.4833 0
M  V30 21311 H 1984.67 2.76519 1.68282 0
M  V30 21312 H 1983.58 3.71616 -0.430381 0
M  V30 21313 H 1984.91 4.89155 -0.546686 0
M  V30 21314 N 1986.57 0.417871 1.51959 0
M  V30 21315 C 1987.79 -0.154295 2.06324 0
M  V30 21316 C 1988.21 -1.38123 1.28714 0
M  V30 21317 O 1987.57 -1.79279 0.341355 0
M  V30 21318 C 1987.62 -0.496014 3.58081 0
M  V30 21319 O 1987.34 0.682208 4.32756 0
M  V30 21320 C 1988.84 -1.12097 4.28893 0
M  V30 21321 H 1986.06 -0.0165345 0.670796 0
M  V30 21322 H 1988.6 0.591345 1.95764 0
M  V30 21323 H 1986.76 -1.19155 3.6862 0
M  V30 21324 H 1987.17 0.394868 5.23012 0
M  V30 21325 H 1988.65 -1.31021 5.36225 0
M  V30 21326 H 1989.12 -2.09655 3.85929 0
M  V30 21327 H 1989.73 -0.465383 4.22746 0
M  V30 21328 N 1988.04 -1.56898 0.148573 0
M  V30 21329 C 1989.29 -1.9535 -0.502116 0
M  V30 21330 C 1989.61 -1.03603 -1.65909 0
M  V30 21331 O 1990.81 -1.31641 -2.37451 0
M  V30 21332 C 1989.27 -3.47281 -0.944653 0
M  V30 21333 C 1988.88 -4.47616 0.185474 0
M  V30 21334 C 1990.62 -3.94597 -1.56504 0
M  V30 21335 C 1988.53 -5.90758 -0.27542 0
M  V30 21336 H 1987.46 -0.729315 -0.191351 0
M  V30 21337 H 1990.11 -1.82013 0.233169 0
M  V30 21338 H 1988.49 -3.55957 -1.73525 0
M  V30 21339 H 1989.66 -4.50637 0.962441 0
M  V30 21340 H 1987.98 -4.10226 0.714373 0
M  V30 21341 H 1990.58 -4.9898 -1.92153 0
M  V30 21342 H 1990.92 -3.36238 -2.45459 0
M  V30 21343 H 1991.45 -3.88845 -0.839319 0
M  V30 21344 H 1988.19 -6.5294 0.578787 0
M  V30 21345 H 1987.71 -5.91094 -1.01823 0
M  V30 21346 H 1989.39 -6.42904 -0.726905 0
M  V30 21347 N 1989.52 0.125209 -1.57102 0
M  V30 21348 C 1990.77 0.835321 -1.84798 0
M  V30 21349 C 1991.1 1.79819 -0.73341 0
M  V30 21350 O 1990.38 1.92737 0.261268 0
M  V30 21351 C 1990.66 1.59069 -3.23062 0
M  V30 21352 C 1990.51 0.647841 -4.4511 0
M  V30 21353 C 1991.83 2.54829 -3.58818 0
M  V30 21354 H 1988.95 0.302222 -0.672184 0
M  V30 21355 H 1991.59 0.0997638 -1.89738 0
M  V30 21356 H 1989.74 2.21772 -3.18982 0
M  V30 21357 H 1991.41 0.0301293 -4.6129 0
M  V30 21358 H 1989.66 -0.041074 -4.33781 0
M  V30 21359 H 1990.33 1.21288 -5.3851 0
M  V30 21360 H 1992.8 2.02233 -3.63649 0
M  V30 21361 H 1991.68 3.04716 -4.56551 0
M  V30 21362 H 1991.94 3.37205 -2.85911 0
M  V30 21363 N 1991 1.52564 0.395213 0
M  V30 21364 C 1991.93 1.79867 1.48897 0
M  V30 21365 C 1992.91 0.650351 1.57176 0
M  V30 21366 O 1994.1 0.897328 1.72226 0
M  V30 21367 C 1991.23 1.96192 2.86576 0
M  V30 21368 C 1990.18 3.11854 2.9314 0
M  V30 21369 C 1989.51 3.13424 4.33208 0
M  V30 21370 C 1990.81 4.51046 2.63353 0
M  V30 21371 H 1992.5 2.71457 1.26299 0
M  V30 21372 H 1990.05 1.30621 0.606145 0
M  V30 21373 H 1992 2.13875 3.63091 0
M  V30 21374 H 1990.72 1.01286 3.10498 0
M  V30 21375 H 1989.38 2.93944 2.19072 0
M  V30 21376 H 1989.03 2.16212 4.5416 0
M  V30 21377 H 1988.73 3.91117 4.38522 0
M  V30 21378 H 1990.25 3.33254 5.11639 0
M  V30 21379 H 1991.67 4.6909 3.29587 0
M  V30 21380 H 1990.07 5.3076 2.80024 0
M  V30 21381 H 1991.14 4.58187 1.58722 0
M  V30 21382 N 1992.48 -0.653289 1.43422 0
M  V30 21383 C 1993.41 -1.77818 1.43025 0
M  V30 21384 C 1994.39 -1.59962 0.291706 0
M  V30 21385 O 1995.57 -1.82146 0.485285 0
M  V30 21386 C 1992.7 -3.15116 1.24175 0
M  V30 21387 C 1991.75 -3.51674 2.41305 0
M  V30 21388 S 1992.58 -3.51656 4.03854 0
M  V30 21389 C 1993.74 -4.91612 3.87387 0
M  V30 21390 H 1993.97 -1.77884 2.38211 0
M  V30 21391 H 1991.5 -0.825924 1.30453 0
M  V30 21392 H 1993.46 -3.94357 1.13987 0
M  V30 21393 H 1992.12 -3.12612 0.30538 0
M  V30 21394 H 1991.31 -4.51526 2.2392 0
M  V30 21395 H 1990.92 -2.79845 2.48118 0
M  V30 21396 H 1993.21 -5.80268 3.49708 0
M  V30 21397 H 1994.15 -5.14047 4.86992 0
M  V30 21398 H 1994.56 -4.65143 3.19847 0
M  V30 21399 N 1993.96 -1.29952 -0.891648 0
M  V30 21400 C 1994.92 -1.15756 -1.97821 0
M  V30 21401 C 1995.92 -0.0906975 -1.60544 0
M  V30 21402 O 1997.11 -0.338283 -1.70884 0
M  V30 21403 C 1994.24 -0.771976 -3.32044 0
M  V30 21404 H 1995.43 -2.12281 -2.11842 0
M  V30 21405 H 1992.99 -1.13253 -1.07719 0
M  V30 21406 H 1993.72 0.193059 -3.23725 0
M  V30 21407 H 1993.51 -1.54291 -3.60467 0
M  V30 21408 H 1995 -0.695941 -4.1176 0
M  V30 21409 N 1995.44 1.1031 -1.12559 0
M  V30 21410 C 1996.68 1.81665 -0.876399 0
M  V30 21411 C 1997 1.86186 0.599506 0
M  V30 21412 O 1998.2 2.53759 0.965337 0
M  V30 21413 C 1996.66 3.26308 -1.51826 0
M  V30 21414 C 1996.27 3.30081 -3.02904 0
M  V30 21415 C 1998.01 4.02482 -1.34939 0
M  V30 21416 C 1995.92 4.69192 -3.60018 0
M  V30 21417 H 1994.85 0.680734 -0.324218 0
M  V30 21418 H 1997.5 1.24044 -1.35223 0
M  V30 21419 H 1995.88 3.83934 -0.970087 0
M  V30 21420 H 1997.06 2.82272 -3.64224 0
M  V30 21421 H 1995.37 2.67393 -3.19202 0
M  V30 21422 H 1997.97 5.05241 -1.7503 0
M  V30 21423 H 1998.31 4.15266 -0.293208 0
M  V30 21424 H 1998.84 3.51274 -1.86685 0
M  V30 21425 H 1995.58 4.61608 -4.65401 0
M  V30 21426 H 1995.1 5.17363 -3.03473 0
M  V30 21427 H 1996.78 5.38161 -3.59153 0
M  V30 21428 N 1996.91 0.917694 1.28125 0
M  V30 21429 C 1997.86 0.380221 2.24807 0
M  V30 21430 C 1998.85 -0.509883 1.52607 0
M  V30 21431 O 2000.04 -0.348962 1.73526 0
M  V30 21432 C 1997.17 -0.375004 3.41246 0
M  V30 21433 C 1996.25 0.531045 4.20762 0
M  V30 21434 N 1996.65 1.64641 4.78254 0
M  V30 21435 C 1994.94 0.33217 4.44761 0
M  V30 21436 C 1995.64 2.20912 5.3812 0
M  V30 21437 N 1994.62 1.4999 5.22498 0
M  V30 21438 H 1998.42 1.23198 2.66832 0
M  V30 21439 H 1995.94 0.770803 1.42942 0
M  V30 21440 H 1997.93 -0.776925 4.09597 0
M  V30 21441 H 1996.59 -1.22381 3.00754 0
M  V30 21442 H 1997.6 2.02894 4.76502 0
M  V30 21443 H 1994.28 -0.476801 4.14768 0
M  V30 21444 H 1995.67 3.14758 5.93613 0
M  V30 21445 N 1998.39 -1.42074 0.682102 0
M  V30 21446 C 1999.63 -2.03304 0.211386 0
M  V30 21447 C 2000 -1.52802 -1.16256 0
M  V30 21448 O 2001.2 -2.05867 -1.72836 0
M  V30 21449 C 1999.47 -3.5651 0.252125 0
M  V30 21450 S 2001.03 -4.38555 -0.146519 0
M  V30 21451 H 1997.84 -0.70575 0.0862467 0
M  V30 21452 H 2000.45 -1.73713 0.896882 0
M  V30 21453 H 1999.15 -3.90762 1.25432 0
M  V30 21454 H 1998.68 -3.90784 -0.452966 0
M  V30 21455 H 2000.7 -4.76684 -1.37794 0
M  V30 21456 N 1999.87 -0.425924 -1.51735 0
M  V30 21457 C 2000.8 0.43622 -2.23992 0
M  V30 21458 C 2001.78 1.03418 -1.25473 0
M  V30 21459 O 2002.96 1.07884 -1.54575 0
M  V30 21460 C 2000.09 1.60697 -2.98151 0
M  V30 21461 C 1999.14 1.13079 -4.11236 0
M  V30 21462 S 1999.97 0.0821469 -5.35437 0
M  V30 21463 C 2001.13 1.25783 -6.13131 0
M  V30 21464 H 2001.36 -0.177262 -2.96771 0
M  V30 21465 H 1998.89 -0.210346 -1.5296 0
M  V30 21466 H 2000.85 2.2782 -3.4148 0
M  V30 21467 H 1999.51 2.19183 -2.24983 0
M  V30 21468 H 1998.7 2.00594 -4.62361 0
M  V30 21469 H 1998.31 0.537962 -3.70111 0
M  V30 21470 H 2000.6 2.17834 -6.41525 0
M  V30 21471 H 2001.54 0.786776 -7.03715 0
M  V30 21472 H 2001.95 1.49123 -5.44447 0
M  V30 21473 N 2001.35 1.56817 -0.156891 0
M  V30 21474 C 2002.3 2.18555 0.796017 0
M  V30 21475 C 2003.29 1.14538 1.24809 0
M  V30 21476 O 2004.5 1.32768 1.21542 0
M  V30 21477 H 2000.87 0.699939 0.274936 0
M  V30 21478 H 2002.84 2.97341 0.251207 0
M  V30 21479 C 2001.59 2.82928 2.02106 0
M  V30 21480 H 2000.91 3.62687 1.6822 0
M  V30 21481 H 2002.35 3.29615 2.66702 0
M  V30 21482 C 2000.81 1.81947 2.83543 0
M  V30 21483 O 2001.34 1.29602 3.80219 0
M  V30 21484 N 1999.55 1.51028 2.48272 0
M  V30 21485 H 1999.1 1.93787 1.69719 0
M  V30 21486 H 1999.05 0.837124 3.0305 0
M  V30 21487 N 2002.83 -0.116876 1.57166 0
M  V30 21488 C 2004.07 -0.824288 1.84964 0
M  V30 21489 C 2004.4 -1.79779 0.742287 0
M  V30 21490 O 2003.66 -1.93881 -0.26617 0
M  V30 21491 C 2003.95 -1.60659 3.19255 0
M  V30 21492 C 2003.62 -0.777185 4.44152 0
M  V30 21493 C 2002.28 -0.548471 4.78064 0
M  V30 21494 C 2004.63 -0.199197 5.20819 0
M  V30 21495 C 2001.96 0.26845 5.86086 0
M  V30 21496 C 2004.31 0.604927 6.29701 0
M  V30 21497 C 2002.98 0.843937 6.62143 0
M  V30 21498 H 2002.25 -0.301628 0.676832 0
M  V30 21499 H 2004.9 -0.0865824 1.91304 0
M  V30 21500 H 2003.2 -2.41526 3.08501 0
M  V30 21501 H 2004.9 -2.15794 3.37985 0
M  V30 21502 H 2001.49 -0.965541 4.17583 0
M  V30 21503 H 2005.67 -0.363107 4.9497 0
M  V30 21504 H 2000.93 0.462826 6.09646 0
M  V30 21505 H 2005.1 1.05977 6.88289 0
M  V30 21506 H 2002.73 1.47877 7.45679 0
M  V30 21507 N 2004.3 -1.52772 -0.387116 0
M  V30 21508 C 2005.25 -1.77684 -1.47299 0
M  V30 21509 C 2006.22 -0.620145 -1.54089 0
M  V30 21510 O 2007.41 -0.860064 -1.70316 0
M  V30 21511 C 2004.55 -1.95321 -2.84506 0
M  V30 21512 C 2003.66 -3.23016 -2.86853 0
M  V30 21513 C 2002.79 -3.30959 -4.15499 0
M  V30 21514 C 2001.83 -4.5277 -4.11905 0
M  V30 21515 N 2000.97 -4.57985 -5.3216 0
M  V30 21516 H 2005.81 -2.70351 -1.25356 0
M  V30 21517 H 2003.35 -1.33943 -0.608094 0
M  V30 21518 H 2005.3 -2.03531 -3.64185 0
M  V30 21519 H 2003.93 -1.06012 -3.04895 0
M  V30 21520 H 2002.99 -3.23868 -1.99534 0
M  V30 21521 H 2004.3 -4.12753 -2.80066 0
M  V30 21522 H 2003.45 -3.38363 -5.03583 0
M  V30 21523 H 2002.19 -2.392 -4.25011 0
M  V30 21524 H 2001.2 -4.4549 -3.22209 0
M  V30 21525 H 2002.42 -5.45848 -4.04013 0
M  V30 21526 H 2000.37 -3.69118 -5.42299 0
M  V30 21527 H 2000.28 -5.41596 -5.27456 0
M  V30 21528 H 2001.55 -4.69645 -6.22136 0
M  V30 21529 N 2005.78 0.645673 -1.43767 0
M  V30 21530 C 2007.2 0.962209 -1.27333 0
M  V30 21531 C 2007.4 2.0052 -0.198519 0
M  V30 21532 O 2006.45 2.48974 0.420512 0
M  V30 21533 C 2007.77 1.4393 -2.64016 0
M  V30 21534 C 2009.31 1.55555 -2.71609 0
M  V30 21535 C 2009.79 2.06652 -4.08728 0
M  V30 21536 N 2011.28 2.13944 -4.10831 0
M  V30 21537 C 2012.02 2.54619 -5.13767 0
M  V30 21538 N 2011.51 2.94536 -6.27073 0
M  V30 21539 N 2013.3 2.54625 -5.01121 0
M  V30 21540 H 2005.46 -0.0443554 -2.12354 0
M  V30 21541 H 2007.72 0.042755 -0.947035 0
M  V30 21542 H 2007.42 0.747304 -3.43669 0
M  V30 21543 H 2007.3 2.41297 -2.89923 0
M  V30 21544 H 2009.69 2.23854 -1.92285 0
M  V30 21545 H 2009.77 0.566006 -2.49459 0
M  V30 21546 H 2009.41 1.38952 -4.88523 0
M  V30 21547 H 2009.34 3.06451 -4.28247 0
M  V30 21548 H 2011.83 1.85838 -3.29048 0
M  V30 21549 H 2012.14 3.24345 -7.01442 0
M  V30 21550 H 2010.49 2.92323 -6.30533 0
M  V30 21551 H 2013.68 2.22822 -4.11665 0
M  V30 21552 H 2013.85 2.86002 -5.81469 0
M  V30 21553 N 2007.26 1.30423 0.884744 0
M  V30 21554 C 2008.68 1.08759 1.16806 0
M  V30 21555 C 2008.88 -0.151512 2.0093 0
M  V30 21556 O 2007.93 -0.84506 2.37939 0
M  V30 21557 C 2009.24 2.35123 1.87451 0
M  V30 21558 C 2010.79 2.40589 2.00214 0
M  V30 21559 C 2011.27 3.66796 2.74271 0
M  V30 21560 N 2012.76 3.67605 2.81817 0
M  V30 21561 C 2013.49 4.61948 3.39694 0
M  V30 21562 N 2012.99 5.66635 3.98618 0
M  V30 21563 N 2014.78 4.49492 3.37511 0
M  V30 21564 H 2006.93 2.09917 0.32383 0
M  V30 21565 H 2009.2 0.925345 0.206011 0
M  V30 21566 H 2008.9 3.25549 1.33081 0
M  V30 21567 H 2008.78 2.43788 2.87832 0
M  V30 21568 H 2011.16 1.50641 2.53754 0
M  V30 21569 H 2011.24 2.35899 0.989199 0
M  V30 21570 H 2010.89 4.57103 2.21403 0
M  V30 21571 H 2010.82 3.68748 3.75942 0
M  V30 21572 H 2013.31 2.9192 2.39981 0
M  V30 21573 H 2013.62 6.34723 4.40847 0
M  V30 21574 H 2011.97 5.70427 3.97037 0
M  V30 21575 H 2015.16 3.6689 2.90705 0
M  V30 21576 H 2015.33 5.23197 3.8232 0
M  V30 21577 N 2008.74 -1.09711 1.13142 0
M  V30 21578 C 2009.99 -1.81468 0.889593 0
M  V30 21579 C 2010.31 -1.85988 -0.585956 0
M  V30 21580 O 2009.58 -1.34332 -1.42589 0
M  V30 21581 H 2008.16 -0.67205 0.326125 0
M  V30 21582 H 2010.82 -1.32709 1.42739 0
M  V30 21583 H 2009.91 -2.84746 1.27773 0
M  V30 21584 N 2010.22 -0.924476 -1.27637 0
M  V30 21585 C 2011.46 -0.562107 -1.94126 0
M  V30 21586 C 2011.79 0.898999 -1.7304 0
M  V30 21587 O 2011.06 1.63686 -1.07627 0
M  V30 21588 H 2009.64 -0.204894 -0.718351 0
M  V30 21589 H 2012.3 -1.17617 -1.5541 0
M  V30 21590 H 2011.39 -0.765644 -3.02563 0
M  V30 21591 N 2011.69 1.41711 -0.689627 0
M  V30 21592 C 2012.94 2.00548 -0.215219 0
M  V30 21593 C 2013.26 1.55228 1.19011 0
M  V30 21594 O 2014.46 2.06585 1.76167 0
M  V30 21595 C 2012.92 3.58348 -0.333888 0
M  V30 21596 C 2012.53 4.12652 -1.74421 0
M  V30 21597 C 2014.27 4.24423 0.0810486 0
M  V30 21598 C 2012.18 5.62865 -1.81485 0
M  V30 21599 H 2011.11 0.750088 -0.0767043 0
M  V30 21600 H 2013.76 1.6226 -0.856963 0
M  V30 21601 H 2012.14 3.94211 0.376004 0
M  V30 21602 H 2013.31 3.8822 -2.48238 0
M  V30 21603 H 2011.63 3.59082 -2.1083 0
M  V30 21604 H 2014.23 5.34678 0.0486243 0
M  V30 21605 H 2014.57 4.00984 1.1188 0
M  V30 21606 H 2015.1 3.93573 -0.578357 0
M  V30 21607 H 2011.84 5.91122 -2.83292 0
M  V30 21608 H 2011.36 5.89242 -1.12044 0
M  V30 21609 H 2013.04 6.27536 -1.57503 0
M  V30 21610 N 2013.17 0.433965 1.51507 0
M  V30 21611 C 2014.42 -0.133365 2.01659 0
M  V30 21612 C 2014.74 -1.43506 1.32026 0
M  V30 21613 O 2014.01 -1.90572 0.453774 0
M  V30 21614 H 2012.59 -0.0522753 0.745169 0
M  V30 21615 H 2015.25 0.575899 1.86197 0
M  V30 21616 H 2014.35 -0.311697 3.1054 0
M  V30 21617 N 2014.65 -1.56732 0.165206 0
M  V30 21618 C 2015.93 -1.88357 -0.527344 0
M  V30 21619 C 2016.31 -1.07412 -1.8173 0
M  V30 21620 O 2015.66 -0.166236 -2.27895 0
M  V30 21621 C 2015.87 -3.40282 -0.775175 0
M  V30 21622 C 2017.21 -4.09891 -1.10789 0
M  V30 21623 O 2018.24 -3.45565 -0.863921 0
M  V30 21624 O 2017.1 -5.23527 -1.56787 0
M  V30 21625 H 2014.19 -0.781304 -0.271096 0
M  V30 21626 H 2016.74 -1.68479 0.203183 0
M  V30 21627 H 2015.51 -3.9106 0.137 0
M  V30 21628 H 2015.13 -3.65751 -1.55924 0
M  V30 21629 N 2016.13 0.10854 -1.57226 0
M  V30 21630 C 2017.06 1.16331 -1.96322 0
M  V30 21631 C 2018.04 1.39558 -0.834411 0
M  V30 21632 O 2019.22 1.5354 -1.09352 0
M  V30 21633 C 2016.35 2.51514 -2.26844 0
M  V30 21634 C 2015.4 2.44651 -3.49354 0
M  V30 21635 S 2016.23 1.87602 -5.01563 0
M  V30 21636 C 2017.39 3.24438 -5.35249 0
M  V30 21637 H 2017.62 0.829959 -2.8548 0
M  V30 21638 H 2015.15 0.315706 -1.51138 0
M  V30 21639 H 2017.11 3.29292 -2.45106 0
M  V30 21640 H 2015.77 2.82023 -1.38281 0
M  V30 21641 H 2014.96 3.44255 -3.68109 0
M  V30 21642 H 2014.57 1.74998 -3.30532 0
M  V30 21643 H 2016.86 4.20678 -5.31071 0
M  V30 21644 H 2017.8 3.10499 -6.36393 0
M  V30 21645 H 2018.21 3.23349 -4.62716 0
M  V30 21646 N 2017.61 1.52975 0.379009 0
M  V30 21647 C 2018.83 1.72396 1.144 0
M  V30 21648 C 2019.25 0.446816 1.83437 0
M  V30 21649 O 2018.61 -0.579403 1.73058 0
M  V30 21650 C 2018.66 2.88032 2.18449 0
M  V30 21651 O 2018.38 4.10803 1.52225 0
M  V30 21652 C 2019.88 3.19215 3.07599 0
M  V30 21653 H 2017.1 0.576943 0.342605 0
M  V30 21654 H 2019.64 1.99666 0.442025 0
M  V30 21655 H 2017.8 2.63195 2.84266 0
M  V30 21656 H 2018.21 4.75461 2.21443 0
M  V30 21657 H 2019.69 4.03565 3.76615 0
M  V30 21658 H 2020.16 2.34014 3.71664 0
M  V30 21659 H 2020.77 3.45928 2.47415 0
M  V30 21660 N 2019.08 -0.63804 1.44107 0
M  V30 21661 C 2020.5 -1.21954 1.41365 0
M  V30 21662 C 2020.85 -1.95799 0.125451 0
M  V30 21663 O 2019.97 -2.02066 -0.774492 0
M  V30 21664 C 2020.57 -2.21819 2.56089 0
M  V30 21665 C 2019.13 -2.75412 2.56564 0
M  V30 21666 C 2018.27 -1.50296 2.33037 0
M  V30 21667 H 2021.22 -0.429131 1.52788 0
M  V30 21668 H 2021.24 -3.0429 2.28447 0
M  V30 21669 H 2020.76 -1.68045 3.49832 0
M  V30 21670 H 2018.86 -3.33207 1.66744 0
M  V30 21671 H 2018.97 -3.21922 3.54828 0
M  V30 21672 H 2017.33 -1.78184 1.81996 0
M  V30 21673 H 2018.12 -0.984346 3.28885 0
M  V30 21674 N 2020.56 -1.3089 -0.877815 0
M  V30 21675 C 2021.79 -1.23199 -1.66844 0
M  V30 21676 C 2022.21 0.200808 -1.87025 0
M  V30 21677 O 2021.57 1.14417 -1.40636 0
M  V30 21678 C 2021.62 -1.97328 -3.01818 0
M  V30 21679 O 2020.72 -1.30526 -3.91199 0
M  V30 21680 H 2020.06 -0.425746 -0.509545 0
M  V30 21681 H 2022.59 -1.7283 -1.09504 0
M  V30 21682 H 2022.6 -2.06624 -3.51811 0
M  V30 21683 H 2021.28 -3.01529 -2.86449 0
M  V30 21684 H 2019.86 -1.29631 -3.49643 0
M  V30 21685 N 2022.04 1.0911 -1.13723 0
M  V30 21686 C 2022.95 2.19388 -0.831037 0
M  V30 21687 C 2023.97 1.73007 0.185658 0
M  V30 21688 O 2025.14 2.01394 0.015917 0
M  V30 21689 C 2022.21 3.45355 -0.305036 0
M  V30 21690 C 2021.27 4.064 -1.38338 0
M  V30 21691 C 2020.5 5.26355 -0.882388 0
M  V30 21692 O 2020.72 5.69718 0.278833 0
M  V30 21693 O 2019.66 5.78609 -1.65816 0
M  V30 21694 H 2023.48 2.48037 -1.75246 0
M  V30 21695 H 2021.07 1.18108 -0.91493 0
M  V30 21696 H 2022.95 4.21396 -0.0172636 0
M  V30 21697 H 2021.63 3.18301 0.588762 0
M  V30 21698 H 2020.53 3.31981 -1.72452 0
M  V30 21699 H 2021.87 4.37688 -2.25144 0
M  V30 21700 N 2023.52 0.931232 1.27145 0
M  V30 21701 C 2024.93 0.632011 1.46553 0
M  V30 21702 C 2025.13 -0.817674 1.84164 0
M  V30 21703 O 2024.19 -1.59524 1.95725 0
M  V30 21704 C 2025.5 1.58491 2.55541 0
M  V30 21705 C 2027.05 1.59352 2.69399 0
M  V30 21706 C 2027.53 2.53347 3.81548 0
M  V30 21707 N 2029.02 2.51575 3.88927 0
M  V30 21708 C 2029.75 3.20993 4.75132 0
M  V30 21709 N 2029.25 3.99803 5.65799 0
M  V30 21710 N 2031.04 3.09994 4.68892 0
M  V30 21711 H 2023.19 1.8684 1.01017 0
M  V30 21712 H 2025.46 0.802369 0.504884 0
M  V30 21713 H 2025.16 2.61927 2.34707 0
M  V30 21714 H 2025.04 1.32932 3.53 0
M  V30 21715 H 2027.42 0.566457 2.89612 0
M  V30 21716 H 2027.5 1.88962 1.72415 0
M  V30 21717 H 2027.15 3.56166 3.62088 0
M  V30 21718 H 2027.08 2.21032 4.77967 0
M  V30 21719 H 2029.57 1.94342 3.24098 0
M  V30 21720 H 2029.88 4.49749 6.28447 0
M  V30 21721 H 2028.23 4.03906 5.65584 0
M  V30 21722 H 2031.42 2.47915 3.97059 0
M  V30 21723 H 2031.59 3.64364 5.35857 0
M  V30 21724 N 2025 -1.41343 0.697132 0
M  V30 21725 C 2025.93 -2.33452 0.0471857 0
M  V30 21726 C 2026.91 -1.51902 -0.765488 0
M  V30 21727 O 2028.09 -1.80434 -0.718146 0
M  V30 21728 C 2025.22 -3.35735 -0.888781 0
M  V30 21729 C 2024.18 -4.27608 -0.183088 0
M  V30 21730 C 2023.5 -5.20277 -1.23352 0
M  V30 21731 C 2024.8 -5.13559 0.951558 0
M  V30 21732 H 2026.5 -2.88052 0.816496 0
M  V30 21733 H 2024.04 -1.38502 0.394089 0
M  V30 21734 H 2026 -3.99098 -1.35272 0
M  V30 21735 H 2024.72 -2.79489 -1.68977 0
M  V30 21736 H 2023.38 -3.65671 0.260833 0
M  V30 21737 H 2023.03 -4.60346 -2.02708 0
M  V30 21738 H 2022.73 -5.82581 -0.766336 0
M  V30 21739 H 2024.25 -5.86517 -1.69793 0
M  V30 21740 H 2025.67 -5.70481 0.567835 0
M  V30 21741 H 2024.06 -5.84812 1.34593 0
M  V30 21742 H 2025.13 -4.50631 1.79053 0
M  V30 21743 N 2026.48 -0.441993 -1.51275 0
M  V30 21744 C 2027.72 0.124439 -2.01316 0
M  V30 21745 C 2028.04 1.43376 -1.33051 0
M  V30 21746 O 2029.24 2.08342 -1.74086 0
M  V30 21747 C 2027.7 0.272307 -3.58868 0
M  V30 21748 C 2027.31 -1.02686 -4.36073 0
M  V30 21749 C 2029.05 0.792259 -4.17041 0
M  V30 21750 C 2026.96 -0.844378 -5.85341 0
M  V30 21751 H 2025.89 0.0502803 -0.752322 0
M  V30 21752 H 2028.54 -0.572465 -1.74342 0
M  V30 21753 H 2026.92 1.03232 -3.82308 0
M  V30 21754 H 2028.1 -1.79557 -4.24377 0
M  V30 21755 H 2026.41 -1.4757 -3.89374 0
M  V30 21756 H 2029.01 0.94535 -5.26277 0
M  V30 21757 H 2029.35 1.77595 -3.76518 0
M  V30 21758 H 2029.88 0.0904292 -3.97697 0
M  V30 21759 H 2026.62 -1.80058 -6.30285 0
M  V30 21760 H 2026.14 -0.115549 -5.99689 0
M  V30 21761 H 2027.82 -0.499412 -6.4507 0
M  V30 21762 N 2027.95 1.56642 -0.173515 0
M  V30 21763 C 2028.9 2.19387 0.772791 0
M  V30 21764 C 2029.9 1.15856 1.23587 0
M  V30 21765 O 2031.1 1.3405 1.20127 0
M  V30 21766 H 2027.48 0.702815 0.267497 0
M  V30 21767 H 2029.45 2.9759 0.219656 0
M  V30 21768 C 2028.2 2.85056 1.99094 0
M  V30 21769 H 2027.52 3.64451 1.64364 0
M  V30 21770 H 2028.96 3.32425 2.63191 0
M  V30 21771 C 2027.42 1.84944 2.81598 0
M  V30 21772 O 2027.95 1.33628 3.78823 0
M  V30 21773 N 2026.15 1.53653 2.46656 0
M  V30 21774 H 2025.7 1.95576 1.67654 0
M  V30 21775 H 2025.66 0.86922 3.02146 0
M  V30 21776 N 2029.43 -0.1002 1.57281 0
M  V30 21777 C 2030.36 -1.15288 1.96936 0
M  V30 21778 C 2031.34 -1.39113 0.8418 0
M  V30 21779 O 2032.53 -1.52958 1.10165 0
M  V30 21780 C 2029.65 -2.50308 2.28175 0
M  V30 21781 C 2028.7 -2.42795 3.50646 0
M  V30 21782 S 2029.53 -1.8494 5.02551 0
M  V30 21783 C 2030.69 -3.21595 5.36962 0
M  V30 21784 H 2030.92 -0.814808 2.85916 0
M  V30 21785 H 2028.45 -0.307686 1.51303 0
M  V30 21786 H 2030.41 -3.27987 2.46849 0
M  V30 21787 H 2029.07 -2.81286 1.39775 0
M  V30 21788 H 2028.27 -3.42298 3.6993 0
M  V30 21789 H 2027.87 -1.73243 3.31456 0
M  V30 21790 H 2030.16 -4.17856 5.33294 0
M  V30 21791 H 2031.1 -3.0712 6.38031 0
M  V30 21792 H 2031.51 -3.2089 4.64424 0
M  V30 21793 N 2030.91 -1.53174 -0.370891 0
M  V30 21794 C 2032.16 -1.68319 -1.11137 0
M  V30 21795 C 2032.47 -0.438743 -1.90616 0
M  V30 21796 O 2033.68 -0.470648 -2.6739 0
M  V30 21797 C 2032.13 -2.97532 -2.02491 0
M  V30 21798 C 2031.74 -4.29221 -1.28349 0
M  V30 21799 C 2033.49 -3.22045 -2.76563 0
M  V30 21800 C 2031.39 -5.49526 -2.18574 0
M  V30 21801 H 2030.32 -0.62713 -0.418597 0
M  V30 21802 H 2032.97 -1.79674 -0.372765 0
M  V30 21803 H 2031.36 -2.79967 -2.80061 0
M  V30 21804 H 2032.53 -4.57399 -0.558794 0
M  V30 21805 H 2030.84 -4.1111 -0.661614 0
M  V30 21806 H 2033.44 -4.09111 -3.44285 0
M  V30 21807 H 2033.78 -2.37881 -3.41641 0
M  V30 21808 H 2034.32 -3.40259 -2.06079 0
M  V30 21809 H 2031.06 -6.36152 -1.58083 0
M  V30 21810 H 2030.58 -5.25635 -2.88909 0
M  V30 21811 H 2032.26 -5.8411 -2.78252 0
M  V30 21812 N 2032.39 0.630389 -1.44443 0
M  V30 21813 C 2033.62 1.41712 -1.50749 0
M  V30 21814 C 2034.03 1.88334 -0.132593 0
M  V30 21815 O 2033.39 1.60878 0.861649 0
M  V30 21816 C 2033.44 2.63694 -2.47281 0
M  V30 21817 O 2033.16 2.19016 -3.79425 0
M  V30 21818 C 2034.66 3.56813 -2.63058 0
M  V30 21819 H 2031.88 0.43458 -0.511255 0
M  V30 21820 H 2034.42 0.770878 -1.89414 0
M  V30 21821 H 2032.58 3.24409 -2.11749 0
M  V30 21822 H 2032.99 2.98104 -4.31549 0
M  V30 21823 H 2034.47 4.39008 -3.34628 0
M  V30 21824 H 2034.94 4.05669 -1.68313 0
M  V30 21825 H 2035.55 3.01966 -2.99494 0
M  V30 21826 N 2033.87 1.31354 0.870861 0
M  V30 21827 C 2035.09 1.23948 1.65664 0
M  V30 21828 C 2035.51 -0.195353 1.87787 0
M  V30 21829 O 2034.87 -1.12708 1.43538 0
M  V30 21830 C 2034.92 1.97912 3.02511 0
M  V30 21831 O 2034.64 3.35795 2.81377 0
M  V30 21832 C 2036.14 1.97336 3.96955 0
M  V30 21833 H 2033.36 0.428328 0.516504 0
M  V30 21834 H 2035.9 1.73214 1.08706 0
M  V30 21835 H 2034.06 1.52409 3.5616 0
M  V30 21836 H 2034.47 3.73444 3.68293 0
M  V30 21837 H 2035.95 2.53601 4.90297 0
M  V30 21838 H 2036.42 0.955651 4.28677 0
M  V30 21839 H 2037.03 2.42714 3.49242 0
M  V30 21840 N 2035.34 -1.08505 1.143 0
M  V30 21841 C 2036.25 -2.18944 0.84266 0
M  V30 21842 C 2037.27 -1.73103 -0.17648 0
M  V30 21843 O 2038.45 -2.01399 -0.0052364 0
M  V30 21844 C 2035.51 -3.45189 0.323347 0
M  V30 21845 C 2034.57 -4.05661 1.40492 0
M  V30 21846 C 2033.8 -5.2588 0.910289 0
M  V30 21847 O 2034.03 -5.69858 -0.248616 0
M  V30 21848 O 2032.96 -5.77722 1.68882 0
M  V30 21849 H 2036.79 -2.47104 1.76559 0
M  V30 21850 H 2034.37 -1.17621 0.921181 0
M  V30 21851 H 2036.25 -4.21381 0.039611 0
M  V30 21852 H 2034.93 -3.18608 -0.571874 0
M  V30 21853 H 2033.84 -3.31061 1.7421 0
M  V30 21854 H 2035.17 -4.36488 2.27462 0
M  V30 21855 N 2036.82 -0.937962 -1.26649 0
M  V30 21856 C 2037.75 -0.402342 -2.25641 0
M  V30 21857 C 2038.77 0.472614 -1.55789 0
M  V30 21858 O 2039.96 0.283579 -1.76233 0
M  V30 21859 C 2037.06 0.441157 -3.36016 0
M  V30 21860 C 2036.23 -0.416892 -4.35409 0
M  V30 21861 C 2035.29 0.365644 -5.24928 0
M  V30 21862 O 2034.31 -0.230215 -5.68734 0
M  V30 21863 N 2035.52 1.66298 -5.5617 0
M  V30 21864 H 2038.28 -1.25333 -2.72235 0
M  V30 21865 H 2035.84 -0.806494 -1.40383 0
M  V30 21866 H 2037.83 0.971979 -3.92855 0
M  V30 21867 H 2036.4 1.19293 -2.88943 0
M  V30 21868 H 2035.62 -1.12895 -3.77688 0
M  V30 21869 H 2036.91 -1.00313 -4.98813 0
M  V30 21870 H 2036.31 2.16925 -5.22456 0
M  V30 21871 H 2034.87 2.14011 -6.15664 0
M  V30 21872 N 2038.3 1.40971 -0.704618 0
M  V30 21873 C 2039.21 2.34555 -0.0457738 0
M  V30 21874 C 2040.23 1.56717 0.756037 0
M  V30 21875 O 2041.4 1.89156 0.691518 0
M  V30 21876 C 2038.47 3.35534 0.872815 0
M  V30 21877 C 2037.53 4.29255 0.062192 0
M  V30 21878 C 2036.76 5.2541 0.937031 0
M  V30 21879 O 2036.98 5.27245 2.17644 0
M  V30 21880 O 2035.92 6.00687 0.381874 0
M  V30 21881 H 2039.74 2.92493 -0.817415 0
M  V30 21882 H 2037.33 1.41979 -0.465014 0
M  V30 21883 H 2039.21 3.97489 1.3993 0
M  V30 21884 H 2037.89 2.80026 1.62379 0
M  V30 21885 H 2036.79 3.7062 -0.509109 0
M  V30 21886 H 2038.13 4.87885 -0.65032 0
M  V30 21887 N 2039.78 0.45001 1.51039 0
M  V30 21888 C 2041.03 -0.113761 2.01379 0
M  V30 21889 C 2041.34 -1.42669 1.33809 0
M  V30 21890 O 2042.55 -2.07416 1.75188 0
M  V30 21891 C 2041 -0.253272 3.59008 0
M  V30 21892 C 2040.61 1.04997 4.35522 0
M  V30 21893 C 2042.35 -0.770131 4.17456 0
M  V30 21894 C 2040.26 0.875408 5.84885 0
M  V30 21895 H 2039.19 -0.0462899 0.752578 0
M  V30 21896 H 2041.84 0.581702 1.74036 0
M  V30 21897 H 2040.22 -1.01203 3.8285 0
M  V30 21898 H 2041.4 1.81805 4.23419 0
M  V30 21899 H 2039.71 1.49632 3.88586 0
M  V30 21900 H 2042.31 -0.917427 5.26771 0
M  V30 21901 H 2042.65 -1.75596 3.77454 0
M  V30 21902 H 2043.19 -0.0693371 3.9774 0
M  V30 21903 H 2039.93 1.83398 6.29321 0
M  V30 21904 H 2039.45 0.14735 5.99619 0
M  V30 21905 H 2041.12 0.533614 6.44796 0
M  V30 21906 N 2041.26 -1.56548 0.18182 0
M  V30 21907 C 2042.19 -2.15665 -0.775955 0
M  V30 21908 C 2043.2 -1.11496 -1.18627 0
M  V30 21909 O 2044.39 -1.38642 -1.1243 0
M  V30 21910 C 2041.49 -2.69305 -2.05738 0
M  V30 21911 C 2040.66 -3.9824 -1.80897 0
M  V30 21912 C 2039.72 -4.36838 -2.93358 0
M  V30 21913 O 2038.75 -5.04516 -2.63539 0
M  V30 21914 N 2039.95 -3.99254 -4.21398 0
M  V30 21915 H 2042.72 -2.98477 -0.270484 0
M  V30 21916 H 2040.28 -1.619 -0.000606634 0
M  V30 21917 H 2042.27 -2.92119 -2.80087 0
M  V30 21918 H 2040.84 -1.91023 -2.47445 0
M  V30 21919 H 2040.06 -3.83695 -0.903963 0
M  V30 21920 H 2041.35 -4.82428 -1.6168 0
M  V30 21921 H 2040.74 -3.44791 -4.48482 0
M  V30 21922 H 2039.3 -4.27047 -4.92417 0
M  V30 21923 N 2042.73 0.0918577 -1.57332 0
M  V30 21924 C 2043.98 0.794757 -1.86252 0
M  V30 21925 C 2044.31 1.78575 -0.770794 0
M  V30 21926 O 2043.56 1.9428 0.235291 0
M  V30 21927 C 2043.86 1.55559 -3.2177 0
M  V30 21928 C 2043.53 0.706426 -4.45332 0
M  V30 21929 C 2042.19 0.472346 -4.78876 0
M  V30 21930 C 2044.54 0.116314 -5.2107 0
M  V30 21931 C 2041.87 -0.361657 -5.85584 0
M  V30 21932 C 2044.22 -0.70503 -6.28659 0
M  V30 21933 C 2042.89 -0.949172 -6.60717 0
M  V30 21934 H 2042.16 0.290822 -0.681545 0
M  V30 21935 H 2044.8 0.0561366 -1.91418 0
M  V30 21936 H 2043.11 2.36587 -3.12304 0
M  V30 21937 H 2044.81 2.1039 -3.41375 0
M  V30 21938 H 2041.4 0.898985 -4.19066 0
M  V30 21939 H 2045.58 0.284315 -4.95485 0
M  V30 21940 H 2040.84 -0.559757 -6.08832 0
M  V30 21941 H 2045.01 -1.16914 -6.86516 0
M  V30 21942 H 2042.64 -1.59721 -7.43232 0
M  V30 21943 N 2044.21 1.53368 0.362763 0
M  V30 21944 C 2045.14 1.82984 1.45048 0
M  V30 21945 C 2046.12 0.683544 1.55762 0
M  V30 21946 O 2047.31 0.933658 1.70283 0
M  V30 21947 C 2044.44 2.02227 2.8235 0
M  V30 21948 C 2043.39 3.18002 2.86459 0
M  V30 21949 C 2042.72 3.22543 4.26463 0
M  V30 21950 C 2044.02 4.56531 2.53726 0
M  V30 21951 H 2045.71 2.74075 1.20513 0
M  V30 21952 H 2043.26 1.31877 0.578302 0
M  V30 21953 H 2045.21 2.21529 3.58473 0
M  V30 21954 H 2043.94 1.07849 3.08279 0
M  V30 21955 H 2042.59 2.98525 2.12787 0
M  V30 21956 H 2042.24 2.25797 4.49472 0
M  V30 21957 H 2041.94 4.00331 4.30127 0
M  V30 21958 H 2043.47 3.44032 5.04455 0
M  V30 21959 H 2044.88 4.75975 3.19563 0
M  V30 21960 H 2043.28 5.36581 2.68703 0
M  V30 21961 H 2044.35 4.61451 1.48967 0
M  V30 21962 N 2045.69 -0.62272 1.44776 0
M  V30 21963 C 2046.62 -1.74771 1.48283 0
M  V30 21964 C 2047.64 -1.58416 0.375253 0
M  V30 21965 O 2048.82 -1.66575 0.641472 0
M  V30 21966 C 2045.92 -3.12596 1.30909 0
M  V30 21967 C 2045.1 -3.55331 2.55066 0
M  V30 21968 C 2044.16 -4.72064 2.32469 0
M  V30 21969 O 2043.18 -4.79949 3.06003 0
M  V30 21970 N 2044.38 -5.64329 1.36063 0
M  V30 21971 H 2047.15 -1.7223 2.45269 0
M  V30 21972 H 2044.71 -0.807546 1.40322 0
M  V30 21973 H 2046.7 -3.88422 1.13625 0
M  V30 21974 H 2045.27 -3.09731 0.422559 0
M  V30 21975 H 2044.49 -2.69625 2.87569 0
M  V30 21976 H 2045.78 -3.80637 3.37628 0
M  V30 21977 H 2045.18 -5.6066 0.753476 0
M  V30 21978 H 2043.74 -6.39749 1.24756 0
M  V30 21979 N 2047.17 -1.31814 -0.863883 0
M  V30 21980 C 2048.13 -1.19926 -1.95321 0
M  V30 21981 C 2049.13 -0.124731 -1.60316 0
M  V30 21982 O 2050.32 -0.374454 -1.70128 0
M  V30 21983 C 2047.45 -0.842234 -3.30332 0
M  V30 21984 H 2048.65 -2.16727 -2.07291 0
M  V30 21985 H 2046.2 -1.15512 -1.05293 0
M  V30 21986 H 2046.93 0.124348 -3.24062 0
M  V30 21987 H 2046.72 -1.61902 -3.57114 0
M  V30 21988 H 2048.21 -0.783125 -4.10191 0
M  V30 21989 N 2048.65 1.07897 -1.14873 0
M  V30 21990 C 2049.59 2.14955 -0.840422 0
M  V30 21991 C 2050.56 1.64839 0.204277 0
M  V30 21992 O 2051.75 1.9066 0.0730523 0
M  V30 21993 C 2048.89 3.43521 -0.329768 0
M  V30 21994 C 2048 4.07456 -1.43538 0
M  V30 21995 C 2047.14 5.23836 -0.881432 0
M  V30 21996 C 2046.18 5.79723 -1.96437 0
M  V30 21997 N 2045.31 6.87441 -1.42721 0
M  V30 21998 H 2050.15 2.40669 -1.75734 0
M  V30 21999 H 2047.69 1.18102 -0.876944 0
M  V30 22000 H 2049.65 4.17197 -0.01545 0
M  V30 22001 H 2048.28 3.18076 0.550246 0
M  V30 22002 H 2047.33 3.31489 -1.86599 0
M  V30 22003 H 2048.64 4.45007 -2.25323 0
M  V30 22004 H 2047.8 6.04473 -0.519325 0
M  V30 22005 H 2046.53 4.87689 -0.0326916 0
M  V30 22006 H 2045.54 4.97736 -2.33536 0
M  V30 22007 H 2046.76 6.17927 -2.81678 0
M  V30 22008 H 2044.71 6.53244 -0.600731 0
M  V30 22009 H 2044.63 7.23845 -2.18137 0
M  V30 22010 H 2045.9 7.71797 -1.09317 0
M  V30 22011 N 2050.12 0.944665 1.2615 0
M  V30 22012 C 2051.07 0.44787 2.28247 0
M  V30 22013 C 2052.07 -0.476672 1.62555 0
M  V30 22014 O 2053.27 -0.3545 1.76475 0
M  V30 22015 H 2049.65 0.126306 0.741317 0
M  V30 22016 H 2051.62 1.32142 2.67546 0
M  V30 22017 C 2050.37 -0.268298 3.46663 0
M  V30 22018 H 2049.69 0.433964 3.97438 0
M  V30 22019 H 2051.13 -0.580074 4.20013 0
M  V30 22020 C 2049.59 -1.48732 3.02292 0
M  V30 22021 O 2050.12 -2.58549 3.07434 0
M  V30 22022 N 2048.33 -1.34513 2.57594 0
M  V30 22023 H 2047.87 -0.451649 2.5361 0
M  V30 22024 H 2047.83 -2.16196 2.28269 0
M  V30 22025 N 2051.6 -1.40596 0.712085 0
M  V30 22026 C 2052.83 -2.05787 0.258197 0
M  V30 22027 C 2053.25 -1.53289 -1.09015 0
M  V30 22028 O 2052.61 -0.666771 -1.68594 0
M  V30 22029 C 2052.66 -3.59771 0.244357 0
M  V30 22030 O 2051.76 -4.05042 -0.77555 0
M  V30 22031 H 2051.1 -0.652692 0.12202 0
M  V30 22032 H 2053.63 -1.80059 0.971583 0
M  V30 22033 H 2053.64 -4.0792 0.0808437 0
M  V30 22034 H 2052.32 -3.97347 1.22834 0
M  V30 22035 H 2050.9 -3.68361 -0.580045 0
M  V30 22036 N 2053.08 -0.458013 -1.50798 0
M  V30 22037 C 2054.03 0.342913 -2.28238 0
M  V30 22038 C 2055 0.99876 -1.32718 0
M  V30 22039 O 2056.18 1.01371 -1.61643 0
M  V30 22040 C 2053.32 1.42646 -3.14239 0
M  V30 22041 C 2052.44 0.786698 -4.24776 0
M  V30 22042 C 2051.57 1.84704 -4.98054 0
M  V30 22043 C 2050.61 1.18681 -6.00484 0
M  V30 22044 N 2049.75 2.18942 -6.6709 0
M  V30 22045 H 2054.59 -0.323799 -2.96236 0
M  V30 22046 H 2052.12 -0.171528 -1.46097 0
M  V30 22047 H 2054.08 2.0662 -3.62442 0
M  V30 22048 H 2052.71 2.06252 -2.48314 0
M  V30 22049 H 2051.76 0.0347215 -3.80384 0
M  V30 22050 H 2053.08 0.264877 -4.98096 0
M  V30 22051 H 2052.23 2.5629 -5.49909 0
M  V30 22052 H 2050.97 2.40263 -4.24411 0
M  V30 22053 H 2049.97 0.45651 -5.47901 0
M  V30 22054 H 2051.2 0.638278 -6.76094 0
M  V30 22055 H 2049.14 2.73543 -5.96247 0
M  V30 22056 H 2049.06 1.71709 -7.36242 0
M  V30 22057 H 2050.33 2.89949 -7.23568 0
M  V30 22058 N 2054.56 1.56449 -0.190119 0
M  V30 22059 C 2055.49 2.21861 0.728019 0
M  V30 22060 C 2056.47 1.18012 1.22504 0
M  V30 22061 O 2057.66 1.46503 1.27478 0
M  V30 22062 C 2054.79 2.87407 1.94973 0
M  V30 22063 C 2053.74 3.97457 1.58782 0
M  V30 22064 C 2053.07 4.50144 2.88573 0
M  V30 22065 C 2054.37 5.16113 0.801535 0
M  V30 22066 H 2056.06 2.98842 0.182734 0
M  V30 22067 H 2053.61 1.4374 0.0864508 0
M  V30 22068 H 2055.56 3.31848 2.59721 0
M  V30 22069 H 2054.28 2.07824 2.51946 0
M  V30 22070 H 2052.94 3.537 0.96395 0
M  V30 22071 H 2052.59 3.67328 3.43626 0
M  V30 22072 H 2052.29 5.24398 2.65105 0
M  V30 22073 H 2053.81 4.97283 3.54318 0
M  V30 22074 H 2055.23 5.5713 1.35201 0
M  V30 22075 H 2053.62 5.96402 0.66517 0
M  V30 22076 H 2054.69 4.84494 -0.198407 0
M  V30 22077 N 2056.04 -0.0835127 1.57379 0
M  V30 22078 C 2056.98 -1.10046 2.02875 0
M  V30 22079 C 2057.95 -1.39138 0.907183 0
M  V30 22080 O 2059.14 -1.50405 1.17401 0
M  V30 22081 C 2056.28 -2.41229 2.46784 0
M  V30 22082 C 2055.39 -2.18769 3.72511 0
M  V30 22083 C 2054.53 -3.43432 4.05251 0
M  V30 22084 C 2053.57 -3.16284 5.24052 0
M  V30 22085 N 2052.7 -4.33246 5.52488 0
M  V30 22086 H 2057.54 -0.705503 2.89528 0
M  V30 22087 H 2055.08 -0.336809 1.43192 0
M  V30 22088 H 2057.04 -3.17803 2.7029 0
M  V30 22089 H 2055.67 -2.7855 1.63125 0
M  V30 22090 H 2054.72 -1.32942 3.56414 0
M  V30 22091 H 2056.03 -1.94708 4.59228 0
M  V30 22092 H 2055.19 -4.28408 4.29595 0
M  V30 22093 H 2053.93 -3.70558 3.17078 0
M  V30 22094 H 2052.93 -2.29703 4.99516 0
M  V30 22095 H 2054.16 -2.90493 6.13833 0
M  V30 22096 H 2052.1 -4.60425 4.67274 0
M  V30 22097 H 2052.02 -4.12417 6.336 0
M  V30 22098 H 2053.29 -5.19253 5.81375 0
M  V30 22099 N 2057.52 -1.53558 -0.354624 0
M  V30 22100 C 2058.79 -1.60886 -1.11243 0
M  V30 22101 C 2059.17 -0.423192 -2.06815 0
M  V30 22102 O 2058.52 0.585579 -2.20869 0
M  V30 22103 C 2058.73 -2.96439 -1.84188 0
M  V30 22104 C 2060.08 -3.51404 -2.38329 0
M  V30 22105 O 2061.1 -2.9854 -1.94299 0
M  V30 22106 O 2059.96 -4.43843 -3.1885 0
M  V30 22107 H 2057.06 -0.650291 -0.510932 0
M  V30 22108 H 2059.6 -1.65902 -0.357007 0
M  V30 22109 H 2058.37 -3.74173 -1.145 0
M  V30 22110 H 2058 -2.94963 -2.66613 0
M  V30 22111 N 2058.99 0.615033 -1.45104 0
M  V30 22112 C 2060.24 1.37424 -1.48731 0
M  V30 22113 C 2060.57 1.94091 -0.12613 0
M  V30 22114 O 2059.82 1.75087 0.874249 0
M  V30 22115 C 2060.12 2.54609 -2.50816 0
M  V30 22116 C 2059.79 2.16134 -3.95723 0
M  V30 22117 C 2058.45 2.05355 -4.35181 0
M  V30 22118 C 2060.8 1.85994 -4.86883 0
M  V30 22119 C 2058.13 1.62647 -5.63705 0
M  V30 22120 C 2060.48 1.44774 -6.15811 0
M  V30 22121 C 2059.15 1.32548 -6.54207 0
M  V30 22122 H 2058.42 0.502868 -0.544247 0
M  V30 22123 H 2061.06 0.695889 -1.78409 0
M  V30 22124 H 2059.37 3.27749 -2.14681 0
M  V30 22125 H 2061.07 3.12839 -2.50864 0
M  V30 22126 H 2057.66 2.25448 -3.64515 0
M  V30 22127 H 2061.84 1.93224 -4.57141 0
M  V30 22128 H 2057.1 1.51797 -5.92256 0
M  V30 22129 H 2061.27 1.20496 -6.85896 0
M  V30 22130 H 2058.9 0.992281 -7.53696 0
M  V30 22131 N 2060.47 1.3227 0.85688 0
M  V30 22132 C 2061.89 1.11212 1.14473 0
M  V30 22133 C 2062.09 -0.108857 2.01206 0
M  V30 22134 O 2061.14 -0.7944 2.39678 0
M  V30 22135 C 2062.46 2.39046 1.82421 0
M  V30 22136 C 2064 2.44782 1.95066 0
M  V30 22137 C 2064.48 3.72531 2.66429 0
M  V30 22138 N 2065.97 3.735 2.73956 0
M  V30 22139 C 2066.71 4.69049 3.29819 0
M  V30 22140 N 2066.2 5.74963 3.86509 0
M  V30 22141 N 2067.99 4.5655 3.27901 0
M  V30 22142 H 2060.15 2.10557 0.279231 0
M  V30 22143 H 2062.41 0.929507 0.186337 0
M  V30 22144 H 2062.11 3.28299 1.26145 0
M  V30 22145 H 2061.99 2.49838 2.82596 0
M  V30 22146 H 2064.38 1.5599 2.50502 0
M  V30 22147 H 2064.46 2.37944 0.938939 0
M  V30 22148 H 2064.1 4.61696 2.11658 0
M  V30 22149 H 2064.03 3.76639 3.68036 0
M  V30 22150 H 2066.52 2.96945 2.33735 0
M  V30 22151 H 2066.83 6.43931 4.27285 0
M  V30 22152 H 2065.18 5.7872 3.84848 0
M  V30 22153 H 2068.37 3.72973 2.82858 0
M  V30 22154 H 2068.54 5.31189 3.71136 0
M  V30 22155 N 2061.95 -1.07287 1.15444 0
M  V30 22156 C 2063.2 -1.80162 0.931099 0
M  V30 22157 C 2063.53 -1.8653 -0.540402 0
M  V30 22158 O 2062.8 -1.34951 -1.40066 0
M  V30 22159 C 2063.09 -3.25184 1.54685 0
M  V30 22160 C 2062.94 -3.26957 3.089 0
M  V30 22161 C 2064.26 -4.2247 1.23318 0
M  V30 22162 H 2061.38 -0.654053 0.339682 0
M  V30 22163 H 2064.02 -1.25539 1.42619 0
M  V30 22164 H 2062.17 -3.7183 1.12583 0
M  V30 22165 H 2063.84 -2.88549 3.59912 0
M  V30 22166 H 2062.08 -2.65898 3.42755 0
M  V30 22167 H 2062.76 -4.29218 3.47097 0
M  V30 22168 H 2065.23 -3.84218 1.59737 0
M  V30 22169 H 2064.11 -5.2223 1.69018 0
M  V30 22170 H 2064.37 -4.41844 0.150314 0
M  V30 22171 N 2063.43 -0.951342 -1.25647 0
M  V30 22172 C 2064.66 -0.62053 -1.97061 0
M  V30 22173 C 2065.07 0.810902 -1.70942 0
M  V30 22174 O 2064.41 1.55361 -0.980235 0
M  V30 22175 C 2064.47 -0.795277 -3.50593 0
M  V30 22176 C 2064.13 -2.20325 -4.00382 0
M  V30 22177 C 2065.13 -3.17963 -4.11334 0
M  V30 22178 C 2062.82 -2.52655 -4.34132 0
M  V30 22179 C 2064.81 -4.46028 -4.55344 0
M  V30 22180 C 2062.5 -3.8095 -4.77829 0
M  V30 22181 C 2063.5 -4.77449 -4.88397 0
M  V30 22182 O 2063.18 -6.03457 -5.31126 0
M  V30 22183 H 2062.92 -0.231839 -0.635001 0
M  V30 22184 H 2065.47 -1.27722 -1.60861 0
M  V30 22185 H 2063.7 -0.0814441 -3.86614 0
M  V30 22186 H 2065.39 -0.46601 -4.03216 0
M  V30 22187 H 2066.15 -2.94311 -3.85494 0
M  V30 22188 H 2062.03 -1.78274 -4.25135 0
M  V30 22189 H 2065.58 -5.21351 -4.63508 0
M  V30 22190 H 2061.47 -4.0441 -5.03113 0
M  V30 22191 H 2062.24 -6.06786 -5.49321 0
M  V30 22192 N 2064.91 1.40216 -0.719531 0
M  V30 22193 C 2066.15 2.00814 -0.26074 0
M  V30 22194 C 2066.48 1.5706 1.14727 0
M  V30 22195 O 2065.74 0.783515 1.79331 0
M  V30 22196 C 2066.03 3.56196 -0.293164 0
M  V30 22197 C 2065.7 4.19546 -1.65202 0
M  V30 22198 C 2064.36 4.36564 -2.02398 0
M  V30 22199 C 2066.71 4.54844 -2.54492 0
M  V30 22200 C 2064.04 4.86164 -3.28422 0
M  V30 22201 C 2066.39 5.05845 -3.79873 0
M  V30 22202 C 2065.06 5.21072 -4.17181 0
M  V30 22203 H 2064.33 0.734832 -0.0954117 0
M  V30 22204 H 2066.98 1.6777 -0.923337 0
M  V30 22205 H 2065.28 3.89172 0.453006 0
M  V30 22206 H 2066.98 4.00921 0.0797168 0
M  V30 22207 H 2063.57 4.06691 -1.35278 0
M  V30 22208 H 2067.75 4.41329 -2.2703 0
M  V30 22209 H 2063.01 4.96138 -3.57292 0
M  V30 22210 H 2067.18 5.32134 -4.49229 0
M  V30 22211 H 2064.81 5.59268 -5.14902 0
M  V30 22212 N 2066.38 0.466004 1.50553 0
M  V30 22213 C 2067.8 0.119867 1.59149 0
M  V30 22214 C 2068 -1.37324 1.47459 0
M  V30 22215 O 2067.06 -2.14604 1.33047 0
M  V30 22216 C 2068.37 0.665532 2.93243 0
M  V30 22217 C 2069.92 0.628507 3.06625 0
M  V30 22218 C 2070.39 1.15163 4.43285 0
M  V30 22219 N 2071.88 1.11082 4.49683 0
M  V30 22220 C 2072.62 1.48615 5.53806 0
M  V30 22221 N 2072.11 1.93573 6.65208 0
M  V30 22222 N 2073.91 1.4025 5.44322 0
M  V30 22223 H 2066.06 1.43716 1.56395 0
M  V30 22224 H 2068.32 0.594011 0.73882 0
M  V30 22225 H 2068.03 1.71132 3.07257 0
M  V30 22226 H 2067.9 0.106264 3.7705 0
M  V30 22227 H 2070.29 -0.408356 2.92261 0
M  V30 22228 H 2070.37 1.22452 2.24587 0
M  V30 22229 H 2070.01 2.1871 4.58398 0
M  V30 22230 H 2069.94 0.531882 5.23907 0
M  V30 22231 H 2072.43 0.781025 3.69741 0
M  V30 22232 H 2072.75 2.20373 7.40713 0
M  V30 22233 H 2071.09 1.97521 6.66341 0
M  V30 22234 H 2074.28 1.04972 4.56178 0
M  V30 22235 H 2074.46 1.69827 6.2535 0
M  V30 22236 N 2067.86 -1.56346 0.198413 0
M  V30 22237 C 2068.77 -2.22855 -0.733001 0
M  V30 22238 C 2069.79 -1.22868 -1.23205 0
M  V30 22239 O 2070.96 -1.55615 -1.27852 0
M  V30 22240 C 2068.03 -2.87746 -1.93399 0
M  V30 22241 C 2067.09 -4.03012 -1.47919 0
M  V30 22242 C 2066.32 -4.64799 -2.62293 0
M  V30 22243 O 2066.55 -4.25516 -3.79859 0
M  V30 22244 O 2065.48 -5.54206 -2.34817 0
M  V30 22245 H 2069.31 -3.03063 -0.196563 0
M  V30 22246 H 2066.89 -1.49368 -0.0310254 0
M  V30 22247 H 2068.77 -3.28788 -2.63584 0
M  V30 22248 H 2067.45 -2.10514 -2.45897 0
M  V30 22249 H 2066.35 -3.66586 -0.746038 0
M  V30 22250 H 2067.69 -4.81917 -1.00084 0
M  V30 22251 N 2069.34 0.0751653 -1.57421 0
M  V30 22252 C 2070.59 0.773427 -1.86715 0
M  V30 22253 C 2070.91 1.78283 -0.789938 0
M  V30 22254 O 2070.18 1.95055 0.18176 0
M  V30 22255 H 2068.76 0.288632 -0.688985 0
M  V30 22256 H 2071.42 0.0520552 -1.9483 0
M  V30 22257 H 2070.52 1.29172 -2.84114 0
M  V30 22258 N 2070.82 1.53744 0.346476 0
M  V30 22259 C 2072.23 1.43943 0.689395 0
M  V30 22260 C 2072.43 0.593819 1.92551 0
M  V30 22261 O 2071.49 0.0836653 2.52361 0
M  V30 22262 C 2072.8 2.87389 0.884766 0
M  V30 22263 C 2074.35 2.97145 0.98357 0
M  V30 22264 C 2074.83 4.41692 1.21128 0
M  V30 22265 N 2076.32 4.45205 1.27855 0
M  V30 22266 C 2077.05 5.54179 1.47219 0
M  V30 22267 N 2076.55 6.73164 1.63775 0
M  V30 22268 N 2078.34 5.41787 1.49743 0
M  V30 22269 H 2070.49 2.07218 -0.466306 0
M  V30 22270 H 2072.76 0.936584 -0.146675 0
M  V30 22271 H 2072.46 3.51667 0.0480249 0
M  V30 22272 H 2072.34 3.32165 1.78736 0
M  V30 22273 H 2074.72 2.33008 1.81084 0
M  V30 22274 H 2074.8 2.55734 0.0579478 0
M  V30 22275 H 2074.45 5.06409 0.388952 0
M  V30 22276 H 2074.38 4.80692 2.15042 0
M  V30 22277 H 2076.87 3.59463 1.16596 0
M  V30 22278 H 2077.18 7.51979 1.78179 0
M  V30 22279 H 2075.53 6.76114 1.60917 0
M  V30 22280 H 2078.72 4.4779 1.36389 0
M  V30 22281 H 2078.89 6.26774 1.64493 0
M  V30 22282 N 2072.3 -0.607329 1.45428 0
M  V30 22283 C 2073.57 -1.36669 1.39932 0
M  V30 22284 C 2073.95 -2.10984 0.0700663 0
M  V30 22285 O 2073.3 -2.07907 -0.947984 0
M  V30 22286 C 2073.51 -2.3133 2.61319 0
M  V30 22287 C 2074.86 -2.93928 3.06417 0
M  V30 22288 O 2075.88 -2.4165 2.61694 0
M  V30 22289 O 2074.74 -3.88823 3.8403 0
M  V30 22290 H 2071.84 -0.61283 0.55531 0
M  V30 22291 H 2074.38 -0.630396 1.57557 0
M  V30 22292 H 2073.15 -1.75677 3.49647 0
M  V30 22293 H 2072.78 -3.12338 2.4603 0
M  V30 22294 N 2073.77 -1.32722 -0.849853 0
M  V30 22295 C 2074.71 -1.1789 -1.96557 0
M  V30 22296 C 2075.72 -0.112655 -1.6241 0
M  V30 22297 O 2076.91 -0.362063 -1.74789 0
M  V30 22298 C 2074.01 -0.783347 -3.29722 0
M  V30 22299 C 2073.18 -1.9389 -3.92078 0
M  V30 22300 C 2072.24 -1.52611 -5.03583 0
M  V30 22301 O 2071.27 -2.23885 -5.2332 0
M  V30 22302 N 2072.47 -0.424856 -5.78943 0
M  V30 22303 H 2075.23 -2.13998 -2.09821 0
M  V30 22304 H 2072.79 -1.25323 -1.02498 0
M  V30 22305 H 2074.79 -0.489511 -4.01729 0
M  V30 22306 H 2073.36 0.0867245 -3.1248 0
M  V30 22307 H 2072.58 -2.39897 -3.12799 0
M  V30 22308 H 2073.86 -2.71238 -4.30473 0
M  V30 22309 H 2073.26 0.168251 -5.6545 0
M  V30 22310 H 2071.82 -0.190647 -6.51521 0
M  V30 22311 N 2075.25 1.06673 -1.16011 0
M  V30 22312 C 2076.18 2.16027 -0.886249 0
M  V30 22313 C 2077.16 1.69289 0.165907 0
M  V30 22314 O 2078.35 1.94191 0.0188181 0
M  V30 22315 C 2075.48 3.45189 -0.382329 0
M  V30 22316 C 2074.43 4.05415 -1.37195 0
M  V30 22317 C 2073.76 5.2974 -0.726594 0
M  V30 22318 C 2075.06 4.44642 -2.74027 0
M  V30 22319 H 2076.75 2.39195 -1.80073 0
M  V30 22320 H 2074.3 1.14957 -0.867232 0
M  V30 22321 H 2076.25 4.21023 -0.17824 0
M  V30 22322 H 2074.98 3.21629 0.567641 0
M  V30 22323 H 2073.63 3.31634 -1.56252 0
M  V30 22324 H 2073.28 5.02475 0.229742 0
M  V30 22325 H 2072.98 5.70993 -1.38709 0
M  V30 22326 H 2074.51 6.08274 -0.532437 0
M  V30 22327 H 2075.92 5.11574 -2.58775 0
M  V30 22328 H 2074.32 4.96868 -3.36515 0
M  V30 22329 H 2075.39 3.55684 -3.29571 0
M  V30 22330 N 2076.73 0.957992 1.25141 0
M  V30 22331 C 2077.98 0.625071 1.93557 0
M  V30 22332 C 2078.33 -0.829302 1.7361 0
M  V30 22333 O 2077.62 -1.58763 1.07261 0
M  V30 22334 C 2077.82 0.923523 3.45262 0
M  V30 22335 C 2077.65 2.40536 3.79964 0
M  V30 22336 C 2076.42 3.0635 4.01843 0
M  V30 22337 C 2078.62 3.38489 3.87207 0
M  V30 22338 N 2076.6 4.44371 4.23565 0
M  V30 22339 C 2077.97 4.6183 4.13658 0
M  V30 22340 C 2080.02 3.33281 3.69903 0
M  V30 22341 C 2078.73 5.80608 4.24603 0
M  V30 22342 C 2080.75 4.514 3.82088 0
M  V30 22343 C 2080.11 5.73529 4.08954 0
M  V30 22344 H 2076.21 0.279402 0.730383 0
M  V30 22345 H 2078.8 1.23086 1.50857 0
M  V30 22346 H 2076.97 0.346636 3.8685 0
M  V30 22347 H 2078.7 0.550165 4.00943 0
M  V30 22348 H 2075.46 2.5691 3.97862 0
M  V30 22349 H 2075.88 5.15861 4.38425 0
M  V30 22350 H 2080.52 2.39904 3.48146 0
M  V30 22351 H 2078.24 6.74422 4.45174 0
M  V30 22352 H 2081.83 4.48922 3.70082 0
M  V30 22353 H 2080.71 6.63403 4.1817 0
M  V30 22354 N 2078.21 -1.39832 0.726957 0
M  V30 22355 C 2079.16 -2.30655 0.0817379 0
M  V30 22356 C 2080.13 -1.48792 -0.738257 0
M  V30 22357 O 2081.31 -1.775 -0.699873 0
M  V30 22358 C 2078.45 -3.35079 -0.825599 0
M  V30 22359 C 2077.56 -4.32 0.006145 0
M  V30 22360 C 2076.7 -5.23491 -0.90172 0
M  V30 22361 C 2075.74 -6.12066 -0.064744 0
M  V30 22362 N 2074.87 -6.95939 -0.928103 0
M  V30 22363 H 2079.71 -2.85263 0.861906 0
M  V30 22364 H 2077.25 -1.40468 0.436709 0
M  V30 22365 H 2079.21 -3.94203 -1.36602 0
M  V30 22366 H 2077.84 -2.81946 -1.57183 0
M  V30 22367 H 2076.89 -3.74562 0.66389 0
M  V30 22368 H 2078.2 -4.94499 0.65365 0
M  V30 22369 H 2077.36 -5.87602 -1.51027 0
M  V30 22370 H 2076.1 -4.61294 -1.58302 0
M  V30 22371 H 2075.1 -5.46975 0.556665 0
M  V30 22372 H 2076.33 -6.76326 0.613222 0
M  V30 22373 H 2074.27 -6.36318 -1.59484 0
M  V30 22374 H 2074.19 -7.55249 -0.336895 0
M  V30 22375 H 2075.46 -7.64487 -1.52247 0
M  V30 22376 N 2079.69 -0.473982 -1.50304 0
M  V30 22377 C 2080.93 0.0798516 -2.01942 0
M  V30 22378 C 2081.26 1.39955 -1.35785 0
M  V30 22379 O 2080.53 1.89302 -0.504142 0
M  V30 22380 H 2079.11 0.0325001 -0.746293 0
M  V30 22381 H 2081.77 -0.625063 -1.84605 0
M  V30 22382 H 2080.86 0.229253 -3.11257 0
M  V30 22383 N 2081.16 1.56239 -0.206702 0
M  V30 22384 C 2082.58 1.84211 0.303832 0
M  V30 22385 C 2082.93 1.12771 1.60552 0
M  V30 22386 O 2082.05 0.392383 2.12813 0
M  V30 22387 C 2082.65 3.34173 0.558041 0
M  V30 22388 C 2081.21 3.62515 1.01292 0
M  V30 22389 C 2080.35 2.77217 0.0678344 0
M  V30 22390 H 2083.3 1.52757 -0.430235 0
M  V30 22391 H 2083.32 3.53573 1.40593 0
M  V30 22392 H 2082.84 3.8614 -0.38952 0
M  V30 22393 H 2080.94 3.15991 1.97435 0
M  V30 22394 H 2081.05 4.70617 0.8976 0
M  V30 22395 H 2079.41 2.48197 0.571888 0
M  V30 22396 H 2080.2 3.31978 -0.874377 0
M  V30 22397 N 2082.64 -0.0668159 1.57458 0
M  V30 22398 C 2083.89 -0.763514 1.87123 0
M  V30 22399 C 2084.21 -1.77862 0.799382 0
M  V30 22400 O 2083.48 -1.95149 -0.171413 0
M  V30 22401 H 2082.06 -0.284974 0.690506 0
M  V30 22402 H 2084.72 -0.0417221 1.94855 0
M  V30 22403 H 2083.82 -1.27663 2.84796 0
M  V30 22404 N 2084.12 -1.53926 -0.338317 0
M  V30 22405 C 2085.03 -1.85282 -1.43902 0
M  V30 22406 C 2086.05 -0.743407 -1.5732 0
M  V30 22407 O 2087.22 -1.03624 -1.72697 0
M  V30 22408 C 2084.29 -2.06058 -2.78821 0
M  V30 22409 C 2083.35 -3.29903 -2.74704 0
M  V30 22410 C 2082.58 -3.49679 -4.03188 0
M  V30 22411 O 2082.81 -2.73186 -5.00725 0
M  V30 22412 O 2081.74 -4.43121 -4.07342 0
M  V30 22413 H 2085.57 -2.78849 -1.2032 0
M  V30 22414 H 2083.15 -1.39646 -0.530982 0
M  V30 22415 H 2085.03 -2.21138 -3.58714 0
M  V30 22416 H 2083.71 -1.15679 -3.02325 0
M  V30 22417 H 2082.61 -3.20222 -1.93413 0
M  V30 22418 H 2083.95 -4.20292 -2.56155 0
M  V30 22419 N 2085.6 0.599608 -1.45748 0
M  V30 22420 C 2086.53 1.72038 -1.57877 0
M  V30 22421 C 2087.51 1.64578 -0.429893 0
M  V30 22422 O 2088.7 1.82855 -0.654037 0
M  V30 22423 C 2085.83 3.10657 -1.55272 0
M  V30 22424 C 2084.78 3.32936 -2.68957 0
M  V30 22425 C 2084.11 4.71909 -2.51408 0
M  V30 22426 C 2085.41 3.22412 -4.10911 0
M  V30 22427 H 2087.1 1.62144 -2.51694 0
M  V30 22428 H 2084.65 0.778641 -1.21133 0
M  V30 22429 H 2086.6 3.8887 -1.62353 0
M  V30 22430 H 2085.32 3.21411 -0.579891 0
M  V30 22431 H 2083.98 2.57117 -2.61317 0
M  V30 22432 H 2083.63 4.79406 -1.52247 0
M  V30 22433 H 2083.33 4.8777 -3.2765 0
M  V30 22434 H 2084.85 5.52311 -2.60355 0
M  V30 22435 H 2086.27 3.90488 -4.19752 0
M  V30 22436 H 2084.66 3.498 -4.87607 0
M  V30 22437 H 2085.73 2.19732 -4.32256 0
M  V30 22438 N 2087.08 1.33171 0.842803 0
M  V30 22439 C 2088.01 1.2572 1.96766 0
M  V30 22440 C 2088.99 0.138574 1.69535 0
M  V30 22441 O 2090.17 0.327704 1.91415 0
M  V30 22442 C 2087.3 0.991637 3.32842 0
M  V30 22443 C 2086.26 2.07278 3.74459 0
M  V30 22444 C 2085.58 1.65942 5.08299 0
M  V30 22445 C 2086.88 3.48911 3.88662 0
M  V30 22446 H 2088.58 2.19834 2.03257 0
M  V30 22447 H 2086.12 1.05829 0.976533 0
M  V30 22448 H 2088.08 0.926021 4.111 0
M  V30 22449 H 2086.8 0.0148823 3.26597 0
M  V30 22450 H 2085.46 2.12875 2.98462 0
M  V30 22451 H 2085.11 0.669795 4.98521 0
M  V30 22452 H 2084.81 2.38288 5.37115 0
M  V30 22453 H 2086.33 1.60839 5.89036 0
M  V30 22454 H 2087.75 3.45837 4.57241 0
M  V30 22455 H 2086.14 4.1971 4.2891 0
M  V30 22456 H 2087.21 3.87705 2.91226 0
M  V30 22457 N 2088.56 -1.06056 1.16576 0
M  V30 22458 C 2089.8 -1.79312 0.960147 0
M  V30 22459 C 2090.16 -1.85614 -0.506488 0
M  V30 22460 O 2089.45 -1.33848 -1.37096 0
M  V30 22461 C 2089.64 -3.23265 1.52429 0
M  V30 22462 C 2089.47 -3.30992 3.04425 0
M  V30 22463 C 2088.24 -3.40786 3.73086 0
M  V30 22464 C 2090.44 -3.20655 4.02101 0
M  V30 22465 N 2088.42 -3.37552 5.12769 0
M  V30 22466 C 2089.79 -3.24691 5.28181 0
M  V30 22467 C 2091.85 -3.04556 3.93891 0
M  V30 22468 C 2090.55 -3.14284 6.47007 0
M  V30 22469 C 2092.58 -2.95487 5.1229 0
M  V30 22470 C 2091.94 -3.00149 6.37252 0
M  V30 22471 H 2088.04 -0.668866 0.405144 0
M  V30 22472 H 2090.62 -1.26496 1.4801 0
M  V30 22473 H 2088.79 -3.74472 1.03079 0
M  V30 22474 H 2090.53 -3.8471 1.25619 0
M  V30 22475 H 2087.28 -3.45683 3.23729 0
M  V30 22476 H 2087.7 -3.39429 5.85762 0
M  V30 22477 H 2092.35 -2.99796 2.98131 0
M  V30 22478 H 2090.06 -3.178 7.42986 0
M  V30 22479 H 2093.65 -2.84115 5.07711 0
M  V30 22480 H 2092.53 -2.93193 7.27329 0
M  V30 22481 N 2090.03 -0.964615 -1.24631 0
M  V30 22482 C 2090.98 -0.49166 -2.25502 0
M  V30 22483 C 2091.95 0.46115 -1.5957 0
M  V30 22484 O 2093.14 0.372197 -1.87135 0
M  V30 22485 C 2090.28 0.214964 -3.4443 0
M  V30 22486 C 2089.39 -0.776253 -4.24969 0
M  V30 22487 C 2088.52 -0.0460512 -5.3118 0
M  V30 22488 C 2087.56 -1.02754 -6.03414 0
M  V30 22489 N 2086.7 -0.327547 -7.01336 0
M  V30 22490 H 2091.54 -1.35669 -2.65326 0
M  V30 22491 H 2089.08 -0.68015 -1.30431 0
M  V30 22492 H 2091.03 0.641314 -4.12241 0
M  V30 22493 H 2089.66 1.04397 -3.05452 0
M  V30 22494 H 2088.72 -1.32105 -3.56724 0
M  V30 22495 H 2090.03 -1.52481 -4.74922 0
M  V30 22496 H 2089.18 0.438447 -6.05114 0
M  V30 22497 H 2087.92 0.735226 -4.82126 0
M  V30 22498 H 2086.93 -1.52294 -5.28286 0
M  V30 22499 H 2088.15 -1.80921 -6.54557 0
M  V30 22500 H 2086.1 0.43481 -6.54557 0
M  V30 22501 H 2086.01 -1.01503 -7.49155 0
M  V30 22502 H 2087.28 0.135085 -7.79383 0
M  V30 22503 N 2091.51 1.39445 -0.734362 0
M  V30 22504 C 2092.76 2.0013 -0.281468 0
M  V30 22505 C 2093.08 1.58562 1.13504 0
M  V30 22506 O 2092.35 0.833568 1.77281 0
M  V30 22507 H 2090.93 0.74013 -0.101076 0
M  V30 22508 H 2093.59 1.70503 -0.944178 0
M  V30 22509 H 2092.69 3.10357 -0.329356 0
M  V30 22510 N 2092.99 0.481946 1.5005 0
M  V30 22511 C 2093.9 -0.311606 2.32521 0
M  V30 22512 C 2094.92 -0.985661 1.4339 0
M  V30 22513 O 2096.09 -0.971246 1.76433 0
M  V30 22514 C 2093.16 -1.37313 3.18349 0
M  V30 22515 C 2092.22 -0.714526 4.23312 0
M  V30 22516 C 2091.45 -1.72547 5.05038 0
M  V30 22517 O 2091.67 -2.95324 4.87996 0
M  V30 22518 O 2090.61 -1.2913 5.87885 0
M  V30 22519 H 2094.43 0.362909 3.01524 0
M  V30 22520 H 2092.02 0.243598 1.47401 0
M  V30 22521 H 2093.9 -1.98774 3.71573 0
M  V30 22522 H 2092.58 -2.03091 2.52063 0
M  V30 22523 H 2091.48 -0.0606687 3.74051 0
M  V30 22524 H 2092.82 -0.099506 4.92099 0
M  V30 22525 N 2094.47 -1.56127 0.214985 0
M  V30 22526 C 2095.72 -1.97737 -0.417663 0
M  V30 22527 C 2096.04 -1.10368 -1.6076 0
M  V30 22528 O 2095.31 -0.179261 -1.95078 0
M  V30 22529 H 2093.89 -0.730251 -0.157298 0
M  V30 22530 H 2096.55 -1.92477 0.306351 0
M  V30 22531 H 2095.64 -3.02994 -0.748421 0
M  V30 22532 N 2095.95 0.0584645 -1.57492 0
M  V30 22533 C 2096.91 1.05251 -2.03605 0
M  V30 22534 C 2097.91 1.30807 -0.935209 0
M  V30 22535 O 2099.1 1.26304 -1.19971 0
M  V30 22536 C 2096.23 2.39288 -2.42804 0
M  V30 22537 H 2097.42 0.654779 -2.92665 0
M  V30 22538 H 2094.98 0.304552 -1.53304 0
M  V30 22539 H 2095.71 2.83868 -1.56811 0
M  V30 22540 H 2095.5 2.22077 -3.23147 0
M  V30 22541 H 2096.99 3.10713 -2.79011 0
M  V30 22542 N 2097.42 1.54103 0.330149 0
M  V30 22543 C 2098.67 1.72248 1.07045 0
M  V30 22544 C 2099 0.491265 1.87884 0
M  V30 22545 O 2098.28 -0.511764 1.87647 0
M  V30 22546 C 2098.56 2.99412 2.00061 0
M  V30 22547 C 2098.41 4.3277 1.22596 0
M  V30 22548 C 2099.73 3.22301 2.99683 0
M  V30 22549 H 2096.85 0.626746 0.387761 0
M  V30 22550 H 2099.49 1.86791 0.347722 0
M  V30 22551 H 2097.64 2.87144 2.61688 0
M  V30 22552 H 2099.32 4.56911 0.634799 0
M  V30 22553 H 2097.56 4.30573 0.528135 0
M  V30 22554 H 2098.23 5.17954 1.9086 0
M  V30 22555 H 2100.71 3.33988 2.48176 0
M  V30 22556 H 2099.58 4.12648 3.61956 0
M  V30 22557 H 2099.84 2.39221 3.71787 0
M  V30 22558 N 2098.9 -0.59187 1.46064 0
M  V30 22559 C 2099.83 -1.71199 1.58787 0
M  V30 22560 C 2100.81 -1.64348 0.438615 0
M  V30 22561 O 2102 -1.82506 0.663725 0
M  V30 22562 C 2099.13 -3.0983 1.56917 0
M  V30 22563 C 2098.08 -3.31505 2.70719 0
M  V30 22564 C 2097.41 -4.70569 2.53907 0
M  V30 22565 C 2098.71 -3.20228 4.12615 0
M  V30 22566 H 2100.4 -1.60807 2.5255 0
M  V30 22567 H 2097.95 -0.772206 1.21544 0
M  V30 22568 H 2099.9 -3.88003 1.64413 0
M  V30 22569 H 2098.63 -3.21099 0.596928 0
M  V30 22570 H 2097.28 -2.55727 2.62677 0
M  V30 22571 H 2096.93 -4.78592 1.54787 0
M  V30 22572 H 2096.63 -4.86025 3.30232 0
M  V30 22573 H 2098.16 -5.50923 2.6328 0
M  V30 22574 H 2099.57 -3.88257 4.21817 0
M  V30 22575 H 2097.97 -3.47209 4.89455 0
M  V30 22576 H 2099.04 -2.17437 4.33416 0
M  V30 22577 N 2100.38 -1.33616 -0.835729 0
M  V30 22578 C 2101.63 -1.25436 -1.59354 0
M  V30 22579 C 2101.96 0.178683 -1.93376 0
M  V30 22580 O 2101.23 1.12082 -1.58959 0
M  V30 22581 C 2101.52 -2.13273 -2.9015 0
M  V30 22582 C 2101.37 -3.65051 -2.62789 0
M  V30 22583 C 2102.69 -2.00828 -3.91607 0
M  V30 22584 H 2099.81 -0.457008 -0.578198 0
M  V30 22585 H 2102.45 -1.63747 -0.963686 0
M  V30 22586 H 2100.6 -1.8073 -3.43902 0
M  V30 22587 H 2102.27 -4.07899 -2.15444 0
M  V30 22588 H 2100.52 -3.86775 -1.96437 0
M  V30 22589 H 2101.19 -4.2186 -3.56003 0
M  V30 22590 H 2103.66 -2.29375 -3.47169 0
M  V30 22591 H 2102.54 -2.64533 -4.8095 0
M  V30 22592 H 2102.8 -0.98144 -4.31069 0
M  V30 22593 N 2101.86 1.05436 -1.17136 0
M  V30 22594 C 2102.81 2.13124 -0.885828 0
M  V30 22595 C 2103.78 1.65235 0.169267 0
M  V30 22596 O 2104.96 1.90772 0.032594 0
M  V30 22597 C 2102.1 3.42744 -0.40256 0
M  V30 22598 C 2101.21 4.0432 -1.52149 0
M  V30 22599 C 2100.35 5.21849 -0.992347 0
M  V30 22600 C 2099.39 5.75426 -2.08689 0
M  V30 22601 N 2098.52 6.84259 -1.5727 0
M  V30 22602 H 2103.36 2.36887 -1.808 0
M  V30 22603 H 2100.9 1.16215 -0.901798 0
M  V30 22604 H 2102.86 4.17071 -0.10394 0
M  V30 22605 H 2101.49 3.19171 0.482653 0
M  V30 22606 H 2100.54 3.27456 -1.93589 0
M  V30 22607 H 2101.85 4.40127 -2.34711 0
M  V30 22608 H 2101.01 6.03236 -0.647426 0
M  V30 22609 H 2099.75 4.8751 -0.13613 0
M  V30 22610 H 2098.75 4.9267 -2.44041 0
M  V30 22611 H 2099.98 6.11813 -2.94722 0
M  V30 22612 H 2097.92 6.51822 -0.739158 0
M  V30 22613 H 2097.84 7.19055 -2.33442 0
M  V30 22614 H 2099.11 7.69304 -1.25663 0
M  V30 22615 N 2103.34 0.971211 1.24118 0
M  V30 22616 C 2104.58 0.635963 1.9257 0
M  V30 22617 C 2104.92 -0.827222 1.75701 0
M  V30 22618 O 2104.19 -1.59559 1.11226 0
M  V30 22619 C 2104.47 1.01581 3.45476 0
M  V30 22620 C 2104.33 2.53595 3.71497 0
M  V30 22621 C 2105.65 0.552941 4.36613 0
M  V30 22622 H 2102.76 0.232516 0.699361 0
M  V30 22623 H 2105.41 1.21085 1.46419 0
M  V30 22624 H 2103.56 0.526628 3.84914 0
M  V30 22625 H 2105.23 3.10016 3.41596 0
M  V30 22626 H 2103.47 2.96637 3.16526 0
M  V30 22627 H 2104.14 2.75222 4.78494 0
M  V30 22628 H 2106.62 0.972795 4.04569 0
M  V30 22629 H 2105.49 0.847244 5.42322 0
M  V30 22630 H 2105.76 -0.54692 4.38704 0
M  V30 22631 N 2104.81 -1.39054 0.741747 0
M  V30 22632 C 2106.06 -1.99978 0.292077 0
M  V30 22633 C 2106.38 -1.59162 -1.12662 0
M  V30 22634 O 2105.65 -0.842958 -1.76836 0
M  V30 22635 H 2104.23 -0.739584 0.105 0
M  V30 22636 H 2106.9 -1.7 0.953207 0
M  V30 22637 H 2105.99 -3.10178 0.34581 0
M  V30 22638 N 2106.29 -0.489897 -1.49792 0
M  V30 22639 C 2107.52 0.0556798 -2.06825 0
M  V30 22640 C 2107.94 1.31825 -1.35158 0
M  V30 22641 O 2107.29 1.77446 -0.426503 0
M  V30 22642 C 2107.34 0.324604 -3.6004 0
M  V30 22643 O 2107.06 -0.887904 -4.29008 0
M  V30 22644 C 2108.57 0.91506 -4.33753 0
M  V30 22645 H 2105.79 -0.0154889 -0.670821 0
M  V30 22646 H 2108.33 -0.684073 -1.92719 0
M  V30 22647 H 2106.48 1.01432 -3.73885 0
M  V30 22648 H 2106.9 -0.643954 -5.20532 0
M  V30 22649 H 2108.37 1.05288 -5.41866 0
M  V30 22650 H 2108.85 1.91003 -3.95493 0
M  V30 22651 H 2109.46 0.263155 -4.24485 0
M  V30 22652 N 2107.77 1.56011 -0.223262 0
M  V30 22653 C 2109.05 1.90185 0.457074 0
M  V30 22654 C 2109.43 1.14083 1.77618 0
M  V30 22655 O 2108.78 0.250703 2.27121 0
M  V30 22656 C 2108.99 3.42925 0.648347 0
M  V30 22657 C 2110.33 4.13721 0.955 0
M  V30 22658 O 2111.36 3.48533 0.735072 0
M  V30 22659 O 2110.22 5.28985 1.37248 0
M  V30 22660 H 2107.31 0.790827 0.241912 0
M  V30 22661 H 2109.86 1.67609 -0.265573 0
M  V30 22662 H 2108.63 3.90282 -0.282045 0
M  V30 22663 H 2108.25 3.71286 1.42242 0
M  V30 22664 N 2109.25 -0.0501116 1.5752 0
M  V30 22665 C 2110.5 -0.744028 1.87476 0
M  V30 22666 C 2110.81 -1.77631 0.818943 0
M  V30 22667 O 2112.02 -2.52133 1.00703 0
M  V30 22668 C 2110.47 -1.37429 3.32628 0
M  V30 22669 C 2110.08 -0.379458 4.4639 0
M  V30 22670 C 2111.82 -2.04931 3.71757 0
M  V30 22671 C 2109.73 -1.01687 5.82592 0
M  V30 22672 H 2108.66 -0.281635 0.699427 0
M  V30 22673 H 2111.31 0.00219827 1.835 0
M  V30 22674 H 2109.69 -2.16952 3.31282 0
M  V30 22675 H 2110.87 0.387526 4.59168 0
M  V30 22676 H 2109.18 0.1923 4.15956 0
M  V30 22677 H 2111.78 -2.53436 4.70823 0
M  V30 22678 H 2112.12 -2.85832 3.02665 0
M  V30 22679 H 2112.66 -1.32212 3.75186 0
M  V30 22680 H 2109.4 -0.247733 6.55032 0
M  V30 22681 H 2108.92 -1.7542 5.73575 0
M  V30 22682 H 2110.59 -1.53041 6.28639 0
M  V30 22683 N 2110.73 -1.54276 -0.321972 0
M  V30 22684 C 2111.67 -1.83772 -1.3963 0
M  V30 22685 C 2112.64 -0.684941 -1.5132 0
M  V30 22686 O 2113.83 -0.931526 -1.66515 0
M  V30 22687 C 2110.97 -2.07212 -2.75966 0
M  V30 22688 C 2110.08 -3.34892 -2.72895 0
M  V30 22689 C 2109.22 -3.48284 -4.01088 0
M  V30 22690 C 2108.26 -4.69833 -3.9233 0
M  V30 22691 N 2107.39 -4.80144 -5.12256 0
M  V30 22692 H 2112.23 -2.75425 -1.13777 0
M  V30 22693 H 2109.77 -1.36401 -0.550737 0
M  V30 22694 H 2111.73 -2.18794 -3.55225 0
M  V30 22695 H 2110.36 -1.18848 -3.00125 0
M  V30 22696 H 2109.41 -3.32039 -1.85618 0
M  V30 22697 H 2110.72 -4.2426 -2.62307 0
M  V30 22698 H 2109.88 -3.59417 -4.88778 0
M  V30 22699 H 2108.61 -2.57011 -4.14483 0
M  V30 22700 H 2107.62 -4.58755 -3.03024 0
M  V30 22701 H 2108.84 -5.62492 -3.80498 0
M  V30 22702 H 2106.79 -3.91787 -5.26155 0
M  V30 22703 H 2106.71 -5.6348 -5.0401 0
M  V30 22704 H 2107.98 -4.9561 -6.01657 0
M  V30 22705 N 2112.2 0.584116 -1.46376 0
M  V30 22706 C 2113.45 1.33858 -1.5088 0
M  V30 22707 C 2113.77 1.94909 -0.164319 0
M  V30 22708 O 2114.97 2.7136 -0.0871554 0
M  V30 22709 C 2113.43 2.42594 -2.6585 0
M  V30 22710 C 2113.04 1.87853 -4.06713 0
M  V30 22711 C 2114.78 3.19391 -2.79624 0
M  V30 22712 C 2112.69 2.94209 -5.13026 0
M  V30 22713 H 2111.62 0.503207 -0.561515 0
M  V30 22714 H 2114.27 0.623507 -1.72582 0
M  V30 22715 H 2112.65 3.16894 -2.37475 0
M  V30 22716 H 2113.82 1.20105 -4.44872 0
M  V30 22717 H 2112.14 1.23726 -3.97594 0
M  V30 22718 H 2114.74 3.98763 -3.56219 0
M  V30 22719 H 2115.08 3.71891 -1.8709 0
M  V30 22720 H 2115.61 2.52197 -3.07638 0
M  V30 22721 H 2112.35 2.46598 -6.07347 0
M  V30 22722 H 2111.87 3.6045 -4.79412 0
M  V30 22723 H 2113.55 3.58184 -5.38807 0
M  V30 22724 N 2113.68 1.34058 0.828631 0
M  V30 22725 C 2114.93 1.25437 1.57951 0
M  V30 22726 C 2115.25 -0.175484 1.94811 0
M  V30 22727 O 2116.45 -0.383797 2.68774 0
M  V30 22728 C 2114.91 2.19853 2.84943 0
M  V30 22729 C 2114.52 3.68064 2.55407 0
M  V30 22730 C 2116.26 2.20128 3.62966 0
M  V30 22731 C 2114.17 4.54366 3.78557 0
M  V30 22732 H 2113.1 0.465952 0.592794 0
M  V30 22733 H 2115.75 1.59187 0.912783 0
M  V30 22734 H 2114.13 1.79047 3.53211 0
M  V30 22735 H 2115.3 4.17373 1.95286 0
M  V30 22736 H 2113.62 3.70181 1.9067 0
M  V30 22737 H 2116.22 2.81831 4.54396 0
M  V30 22738 H 2116.56 1.19905 3.98658 0
M  V30 22739 H 2117.09 2.59349 3.01634 0
M  V30 22740 H 2113.83 5.55503 3.47989 0
M  V30 22741 H 2113.35 4.09795 4.37982 0
M  V30 22742 H 2115.03 4.68687 4.46029 0
M  V30 22743 N 2115.16 -1.04814 1.17694 0
M  V30 22744 C 2116.57 -1.5934 0.973022 0
M  V30 22745 C 2116.92 -1.90256 -0.479284 0
M  V30 22746 O 2116.05 -1.68704 -1.35528 0
M  V30 22747 C 2116.64 -2.89503 1.75993 0
M  V30 22748 C 2115.2 -3.40674 1.60058 0
M  V30 22749 C 2114.35 -2.14356 1.75916 0
M  V30 22750 H 2117.3 -0.87578 1.32347 0
M  V30 22751 H 2117.32 -3.5957 1.24457 0
M  V30 22752 H 2116.83 -2.6697 2.81689 0
M  V30 22753 H 2114.93 -3.68235 0.568665 0
M  V30 22754 H 2115.05 -4.15004 2.39393 0
M  V30 22755 H 2113.41 -2.25301 1.18793 0
M  V30 22756 H 2114.19 -1.94288 2.83032 0
M  V30 22757 N 2116.64 -0.977779 -1.23601 0
M  V30 22758 C 2118.06 -0.685968 -1.44106 0
M  V30 22759 C 2118.26 0.748759 -1.87072 0
M  V30 22760 O 2117.31 1.5215 -2.01511 0
M  V30 22761 C 2118.62 -1.67866 -2.49482 0
M  V30 22762 C 2120.17 -1.69241 -2.63299 0
M  V30 22763 C 2120.65 -2.67334 -3.71883 0
M  V30 22764 N 2122.14 -2.65836 -3.79322 0
M  V30 22765 C 2122.87 -3.38406 -4.62892 0
M  V30 22766 N 2122.37 -4.20527 -5.50571 0
M  V30 22767 N 2124.16 -3.27183 -4.57064 0
M  V30 22768 H 2116.31 -1.90461 -0.940129 0
M  V30 22769 H 2118.58 -0.820555 -0.474756 0
M  V30 22770 H 2118.28 -2.70457 -2.24824 0
M  V30 22771 H 2118.16 -1.45942 -3.47823 0
M  V30 22772 H 2120.54 -0.673554 -2.8731 0
M  V30 22773 H 2120.62 -1.95231 -1.65283 0
M  V30 22774 H 2120.27 -3.6936 -3.4862 0
M  V30 22775 H 2120.2 -2.38619 -4.69434 0
M  V30 22776 H 2122.69 -2.06236 -3.16662 0
M  V30 22777 H 2123 -4.72763 -6.11322 0
M  V30 22778 H 2121.35 -4.24619 -5.50203 0
M  V30 22779 H 2124.54 -2.62481 -3.87584 0
M  V30 22780 H 2124.71 -3.84001 -5.21965 0
M  V30 22781 N 2118.12 1.38658 -0.749111 0
M  V30 22782 C 2119.53 1.53804 -0.426214 0
M  V30 22783 C 2119.73 1.7129 1.06122 0
M  V30 22784 O 2118.79 1.72138 1.84729 0
M  V30 22785 C 2120.1 2.7477 -1.22155 0
M  V30 22786 C 2121.65 2.88616 -1.21118 0
M  V30 22787 C 2122.13 4.12538 -1.98939 0
M  V30 22788 N 2123.62 4.19606 -1.96176 0
M  V30 22789 C 2124.35 5.14474 -2.53188 0
M  V30 22790 N 2123.85 6.15043 -3.18895 0
M  V30 22791 N 2125.64 5.06792 -2.43143 0
M  V30 22792 H 2117.79 1.25557 -1.71316 0
M  V30 22793 H 2120.05 0.609604 -0.726008 0
M  V30 22794 H 2119.76 2.68239 -2.27466 0
M  V30 22795 H 2119.63 3.67832 -0.835424 0
M  V30 22796 H 2122.02 2.94632 -0.166149 0
M  V30 22797 H 2122.1 1.96577 -1.63679 0
M  V30 22798 H 2121.75 4.07284 -3.03451 0
M  V30 22799 H 2121.68 5.03648 -1.53775 0
M  V30 22800 H 2124.17 3.47577 -1.4832 0
M  V30 22801 H 2124.48 6.83917 -3.59829 0
M  V30 22802 H 2122.83 6.15389 -3.22989 0
M  V30 22803 H 2126.02 4.27162 -1.91442 0
M  V30 22804 H 2126.19 5.80546 -2.87871 0
M  V30 22805 N 2119.6 0.497834 1.49531 0
M  V30 22806 C 2120.54 -0.282279 2.29067 0
M  V30 22807 C 2121.51 -0.963221 1.35319 0
M  V30 22808 O 2122.7 -0.970497 1.64274 0
M  V30 22809 C 2119.84 -1.34265 3.1791 0
M  V30 22810 C 2118.95 -0.673799 4.26713 0
M  V30 22811 C 2118.09 -1.71434 5.02776 0
M  V30 22812 C 2117.12 -1.02719 6.0342 0
M  V30 22813 N 2116.26 -2.01178 6.7266 0
M  V30 22814 H 2121.1 0.402227 2.95273 0
M  V30 22815 H 2118.64 0.210203 1.4559 0
M  V30 22816 H 2120.6 -1.96938 3.67792 0
M  V30 22817 H 2119.23 -1.99596 2.53695 0
M  V30 22818 H 2118.28 0.0661428 3.80342 0
M  V30 22819 H 2119.59 -0.132722 4.98623 0
M  V30 22820 H 2118.74 -2.4162 5.56511 0
M  V30 22821 H 2117.48 -2.28926 4.30632 0
M  V30 22822 H 2116.49 -0.311083 5.48919 0
M  V30 22823 H 2117.71 -0.458799 6.77548 0
M  V30 22824 H 2115.66 -2.57639 6.0329 0
M  V30 22825 H 2115.58 -1.52128 7.40536 0
M  V30 22826 H 2116.84 -2.70663 7.31001 0
M  V30 22827 N 2121.07 -1.5589 0.231532 0
M  V30 22828 C 2122.04 -2.19461 -0.661012 0
M  V30 22829 C 2123.04 -1.15936 -1.11424 0
M  V30 22830 O 2124.23 -1.41111 -1.02144 0
M  V30 22831 C 2121.36 -2.82592 -1.90669 0
M  V30 22832 H 2122.55 -2.9971 -0.106607 0
M  V30 22833 H 2120.1 -1.5629 -0.0180602 0
M  V30 22834 H 2120.84 -2.06239 -2.50272 0
M  V30 22835 H 2120.62 -3.58412 -1.59007 0
M  V30 22836 H 2122.11 -3.3129 -2.54238 0
M  V30 22837 N 2122.55 0.0417572 -1.57545 0
M  V30 22838 C 2123.5 1.04629 -2.05722 0
M  V30 22839 C 2124.47 1.36684 -0.943754 0
M  V30 22840 O 2125.65 1.47239 -1.21348 0
M  V30 22841 C 2122.79 2.34601 -2.53093 0
M  V30 22842 C 2121.91 2.08815 -3.7818 0
M  V30 22843 C 2121.04 3.32567 -4.14214 0
M  V30 22844 C 2120.08 3.02279 -5.32254 0
M  V30 22845 N 2119.22 4.18445 -5.6378 0
M  V30 22846 H 2124.06 0.628491 -2.91297 0
M  V30 22847 H 2121.59 0.298725 -1.44035 0
M  V30 22848 H 2123.55 3.10525 -2.78621 0
M  V30 22849 H 2122.18 2.74127 -1.70453 0
M  V30 22850 H 2121.23 1.23445 -3.59813 0
M  V30 22851 H 2122.55 1.82464 -4.64229 0
M  V30 22852 H 2121.7 4.16867 -4.40802 0
M  V30 22853 H 2120.44 3.6202 -3.26791 0
M  V30 22854 H 2119.44 2.16378 -5.05431 0
M  V30 22855 H 2120.67 2.74116 -6.21319 0
M  V30 22856 H 2118.62 4.47874 -4.79317 0
M  V30 22857 H 2118.53 3.95473 -6.44311 0
M  V30 22858 H 2119.8 5.03656 -5.94938 0
M  V30 22859 N 2124.03 1.54445 0.313786 0
M  V30 22860 C 2125.28 1.72328 1.04814 0
M  V30 22861 C 2125.59 0.509186 1.88856 0
M  V30 22862 O 2126.8 0.569563 2.65459 0
M  V30 22863 C 2125.25 3.04843 1.91309 0
M  V30 22864 C 2124.86 4.33689 1.12331 0
M  V30 22865 C 2126.61 3.32087 2.6442 0
M  V30 22866 C 2124.51 5.5726 1.98028 0
M  V30 22867 H 2123.44 0.642234 0.395033 0
M  V30 22868 H 2126.09 1.80934 0.305823 0
M  V30 22869 H 2124.48 2.90169 2.69477 0
M  V30 22870 H 2125.65 4.59158 0.388648 0
M  V30 22871 H 2123.96 4.13283 0.508577 0
M  V30 22872 H 2126.56 4.21607 3.28864 0
M  V30 22873 H 2126.9 2.50397 3.32577 0
M  V30 22874 H 2127.44 3.47673 1.93308 0
M  V30 22875 H 2124.18 6.41581 1.34364 0
M  V30 22876 H 2123.7 5.35995 2.69201 0
M  V30 22877 H 2125.38 5.94035 2.56382 0
M  V30 22878 N 2125.51 -0.576345 1.46683 0
M  V30 22879 C 2126.76 -1.33056 1.51588 0
M  V30 22880 C 2127.07 -1.94819 0.174653 0
M  V30 22881 O 2128.28 -2.7131 0.101545 0
M  V30 22882 C 2126.73 -2.4118 2.67133 0
M  V30 22883 C 2126.34 -1.85693 4.07703 0
M  V30 22884 C 2128.08 -3.17904 2.81314 0
M  V30 22885 C 2125.99 -2.91484 5.14579 0
M  V30 22886 H 2124.92 -0.500222 0.564175 0
M  V30 22887 H 2127.57 -0.614346 1.7291 0
M  V30 22888 H 2125.95 -3.1563 2.39152 0
M  V30 22889 H 2127.13 -1.17744 4.45503 0
M  V30 22890 H 2125.44 -1.21616 3.98244 0
M  V30 22891 H 2128.04 -3.96868 3.58329 0
M  V30 22892 H 2128.38 -3.70894 1.8906 0
M  V30 22893 H 2128.92 -2.50562 3.08971 0
M  V30 22894 H 2125.65 -2.43373 6.08646 0
M  V30 22895 H 2125.17 -3.57902 4.81317 0
M  V30 22896 H 2126.85 -3.55321 5.40699 0
M  V30 22897 N 2126.99 -1.34495 -0.82151 0
M  V30 22898 C 2128.4 -1.14208 -1.11484 0
M  V30 22899 C 2128.6 0.0554729 -2.01424 0
M  V30 22900 O 2127.66 0.730574 -2.417 0
M  V30 22901 C 2128.97 -2.43799 -1.76019 0
M  V30 22902 C 2130.52 -2.49868 -1.88508 0
M  V30 22903 C 2130.99 -3.79464 -2.56459 0
M  V30 22904 N 2132.48 -3.80632 -2.63957 0
M  V30 22905 C 2133.22 -4.77629 -3.17267 0
M  V30 22906 N 2132.72 -5.85009 -3.71129 0
M  V30 22907 N 2134.51 -4.65083 -3.15681 0
M  V30 22908 H 2126.66 -2.11223 -0.223307 0
M  V30 22909 H 2128.92 -0.93412 -0.161627 0
M  V30 22910 H 2128.63 -3.31528 -1.17397 0
M  V30 22911 H 2128.5 -2.57243 -2.75873 0
M  V30 22912 H 2130.89 -1.62577 -2.46278 0
M  V30 22913 H 2130.97 -2.4035 -0.875522 0
M  V30 22914 H 2130.61 -4.67146 -1.99342 0
M  V30 22915 H 2130.54 -3.86264 -3.57921 0
M  V30 22916 H 2133.04 -3.03038 -2.2578 0
M  V30 22917 H 2133.35 -6.55034 -4.10062 0
M  V30 22918 H 2131.69 -5.88721 -3.69369 0
M  V30 22919 H 2134.88 -3.80342 -2.72869 0
M  V30 22920 H 2135.06 -5.40842 -3.56922 0
M  V30 22921 N 2128.46 1.04188 -1.18248 0
M  V30 22922 C 2129.74 1.74344 -0.886757 0
M  V30 22923 C 2130.12 2.02074 0.610675 0
M  V30 22924 O 2129.47 1.66492 1.56501 0
M  V30 22925 C 2129.68 3.02952 -1.73267 0
M  V30 22926 C 2131.03 3.76712 -1.95892 0
M  V30 22927 O 2132.05 3.12847 -1.70309 0
M  V30 22928 O 2130.91 4.91493 -2.38949 0
M  V30 22929 H 2128 0.758616 -0.329288 0
M  V30 22930 H 2130.55 1.10265 -1.28995 0
M  V30 22931 H 2129.32 2.78587 -2.74782 0
M  V30 22932 H 2128.95 3.7477 -1.3279 0
M  V30 22933 N 2129.94 0.98432 1.23081 0
M  V30 22934 C 2131.17 0.672559 1.95346 0
M  V30 22935 C 2131.58 -0.765295 1.73031 0
M  V30 22936 O 2130.92 -1.52708 1.02108 0
M  V30 22937 C 2130.99 0.887951 3.48361 0
M  V30 22938 C 2130.65 2.30863 3.944 0
M  V30 22939 C 2131.65 3.28757 4.02759 0
M  V30 22940 C 2129.33 2.64077 4.27281 0
M  V30 22941 C 2131.33 4.57943 4.43358 0
M  V30 22942 C 2129.01 3.93485 4.67561 0
M  V30 22943 C 2130.01 4.9023 4.75567 0
M  V30 22944 O 2129.7 6.17327 5.1494 0
M  V30 22945 H 2129.43 0.248593 0.628631 0
M  V30 22946 H 2131.98 1.31942 1.57418 0
M  V30 22947 H 2130.21 0.183919 3.86262 0
M  V30 22948 H 2131.9 0.572752 4.01839 0
M  V30 22949 H 2132.67 3.04428 3.77556 0
M  V30 22950 H 2128.55 1.89483 4.20258 0
M  V30 22951 H 2132.09 5.33456 4.49522 0
M  V30 22952 H 2127.99 4.17607 4.92214 0
M  V30 22953 H 2128.76 6.21137 5.3304 0
M  V30 22954 N 2131.42 -1.38259 0.756453 0
M  V30 22955 C 2132.67 -1.99657 0.313271 0
M  V30 22956 C 2132.99 -1.60347 -1.10967 0
M  V30 22957 O 2132.26 -0.861667 -1.75932 0
M  V30 22958 H 2130.84 -0.738428 0.112838 0
M  V30 22959 H 2133.5 -1.68979 0.971184 0
M  V30 22960 H 2132.6 -3.09794 0.378689 0
M  V30 22961 N 2132.9 -0.505757 -1.49264 0
M  V30 22962 C 2134.15 0.0369987 -2.02066 0
M  V30 22963 C 2134.47 1.37044 -1.38723 0
M  V30 22964 O 2133.74 1.8819 -0.544182 0
M  V30 22965 H 2132.32 0.0166628 -0.746814 0
M  V30 22966 H 2134.98 -0.66408 -1.83238 0
M  V30 22967 H 2134.08 0.163179 -3.11673 0
M  V30 22968 N 2134.38 1.55765 -0.239796 0
M  V30 22969 C 2135.79 1.59184 0.115214 0
M  V30 22970 C 2135.99 1.25688 1.57496 0
M  V30 22971 O 2135.05 1.0008 2.31819 0
M  V30 22972 C 2136.36 2.99838 -0.227557 0
M  V30 22973 C 2137.91 3.12531 -0.171276 0
M  V30 22974 C 2138.38 4.55393 -0.487979 0
M  V30 22975 N 2139.88 4.61122 -0.438217 0
M  V30 22976 C 2140.61 5.69629 -0.656523 0
M  V30 22977 N 2140.11 6.86426 -0.937578 0
M  V30 22978 N 2141.9 5.59019 -0.587713 0
M  V30 22979 H 2134.05 1.7581 -1.19184 0
M  V30 22980 H 2136.31 0.818062 -0.47904 0
M  V30 22981 H 2136.02 3.29062 -1.24141 0
M  V30 22982 H 2135.89 3.74521 0.448752 0
M  V30 22983 H 2138.28 2.83092 0.83324 0
M  V30 22984 H 2138.36 2.40138 -0.881332 0
M  V30 22985 H 2138.01 4.85552 -1.49002 0
M  V30 22986 H 2137.94 5.26037 0.243475 0
M  V30 22987 H 2140.43 3.77203 -0.229426 0
M  V30 22988 H 2140.74 7.65049 -1.09177 0
M  V30 22989 H 2139.08 6.88127 -0.974973 0
M  V30 22990 H 2142.28 4.66649 -0.368239 0
M  V30 22991 H 2142.45 6.43513 -0.761246 0
M  V30 22992 N 2135.85 -0.0334016 1.57565 0
M  V30 22993 C 2136.79 -1.06286 2.03066 0
M  V30 22994 C 2137.8 -1.32726 0.942744 0
M  V30 22995 O 2138.99 -1.3029 1.22012 0
M  V30 22996 C 2136.09 -2.40547 2.38727 0
M  V30 22997 C 2135.26 -2.33524 3.69845 0
M  V30 22998 C 2134.32 -3.50199 3.92743 0
M  V30 22999 O 2133.35 -3.29889 4.63856 0
M  V30 23000 N 2134.55 -4.71916 3.38047 0
M  V30 23001 H 2137.31 -0.675062 2.91998 0
M  V30 23002 H 2134.87 -0.221423 1.60379 0
M  V30 23003 H 2136.87 -3.17313 2.51186 0
M  V30 23004 H 2135.44 -2.71187 1.55488 0
M  V30 23005 H 2134.66 -1.41885 3.6778 0
M  V30 23006 H 2135.94 -2.2597 4.55867 0
M  V30 23007 H 2135.34 -4.91318 2.80398 0
M  V30 23008 H 2133.9 -5.46062 3.55893 0
M  V30 23009 N 2137.33 -1.54609 -0.305591 0
M  V30 23010 C 2138.24 -1.88292 -1.3994 0
M  V30 23011 C 2139.26 -0.77661 -1.55707 0
M  V30 23012 O 2140.43 -1.07264 -1.7046 0
M  V30 23013 C 2137.5 -2.11925 -2.74388 0
M  V30 23014 C 2136.56 -3.35656 -2.67644 0
M  V30 23015 C 2135.79 -3.58152 -3.9568 0
M  V30 23016 O 2136.02 -2.83746 -4.94818 0
M  V30 23017 O 2134.95 -4.51662 -3.97851 0
M  V30 23018 H 2138.78 -2.81339 -1.14378 0
M  V30 23019 H 2136.36 -1.40741 -0.501242 0
M  V30 23020 H 2138.24 -2.28697 -3.53943 0
M  V30 23021 H 2136.92 -1.22065 -2.99803 0
M  V30 23022 H 2135.83 -3.24253 -1.86577 0
M  V30 23023 H 2137.16 -4.25631 -2.47182 0
M  V30 23024 N 2138.81 0.568558 -1.46987 0
M  V30 23025 C 2139.74 1.69177 -1.53149 0
M  V30 23026 C 2140.72 1.57989 -0.384472 0
M  V30 23027 O 2141.91 1.79007 -0.590656 0
M  V30 23028 C 2139.03 3.0734 -1.42336 0
M  V30 23029 C 2138.08 3.37007 -2.61398 0
M  V30 23030 S 2138.91 3.27512 -4.2367 0
M  V30 23031 C 2140.07 4.6819 -4.15391 0
M  V30 23032 H 2140.3 1.63693 -2.48177 0
M  V30 23033 H 2137.83 0.748461 -1.35046 0
M  V30 23034 H 2139.79 3.8704 -1.36786 0
M  V30 23035 H 2138.45 3.103 -0.487122 0
M  V30 23036 H 2137.65 4.37703 -2.49865 0
M  V30 23037 H 2137.25 2.64903 -2.64012 0
M  V30 23038 H 2139.54 5.58892 -3.82944 0
M  V30 23039 H 2140.48 4.8478 -5.16134 0
M  V30 23040 H 2140.89 4.45704 -3.46423 0
M  V30 23041 N 2140.29 1.34929 0.814366 0
M  V30 23042 C 2141.57 1.18339 1.55741 0
M  V30 23043 C 2141.95 -0.240616 2.09724 0
M  V30 23044 O 2141.29 -1.2431 1.91727 0
M  V30 23045 C 2141.5 2.24503 2.67206 0
M  V30 23046 C 2142.85 2.59917 3.35751 0
M  V30 23047 O 2143.88 2.23358 2.7747 0
M  V30 23048 O 2142.73 3.22749 4.41017 0
M  V30 23049 H 2139.83 0.459265 0.687753 0
M  V30 23050 H 2142.37 1.46587 0.854999 0
M  V30 23051 H 2141.15 3.20048 2.25133 0
M  V30 23052 H 2140.77 1.9748 3.4509 0
M  V30 23053 N 2141.77 -1.0356 1.18799 0
M  V30 23054 C 2142.99 -1.81025 1.01216 0
M  V30 23055 C 2143.42 -1.8301 -0.434636 0
M  V30 23056 O 2142.77 -1.25115 -1.3121 0
M  V30 23057 C 2142.82 -3.24257 1.57766 0
M  V30 23058 O 2141.93 -4.04518 0.802435 0
M  V30 23059 H 2141.27 -0.559085 0.358218 0
M  V30 23060 H 2143.8 -1.30389 1.57671 0
M  V30 23061 H 2143.81 -3.75022 1.60694 0
M  V30 23062 H 2142.48 -3.22127 2.63073 0
M  V30 23063 H 2141.06 -3.6318 0.845866 0
M  V30 23064 N 2143.25 -0.990834 -1.22557 0
M  V30 23065 C 2144.49 -0.664218 -1.90873 0
M  V30 23066 C 2144.81 0.80601 -1.77563 0
M  V30 23067 O 2144.08 1.57751 -1.16153 0
M  V30 23068 H 2142.66 -0.242684 -0.70648 0
M  V30 23069 H 2145.33 -1.2569 -1.48957 0
M  V30 23070 H 2144.42 -0.924949 -2.98079 0
M  V30 23071 N 2144.72 1.37856 -0.763775 0
M  V30 23072 C 2145.95 2.04686 -0.334395 0
M  V30 23073 C 2146.37 1.57229 1.0325 0
M  V30 23074 O 2145.73 0.728884 1.66003 0
M  V30 23075 C 2145.78 3.58616 -0.377715 0
M  V30 23076 O 2144.88 4.07641 0.624687 0
M  V30 23077 H 2144.22 0.647714 -0.146161 0
M  V30 23078 H 2146.75 1.76329 -1.03774 0
M  V30 23079 H 2146.76 4.07339 -0.232185 0
M  V30 23080 H 2145.44 3.92514 -1.37496 0
M  V30 23081 H 2144.02 3.7026 0.442931 0
M  V30 23082 N 2146.2 0.513665 1.48994 0
M  V30 23083 C 2147.15 -0.277482 2.26305 0
M  V30 23084 C 2148.14 -0.924386 1.31696 0
M  V30 23085 O 2149.33 -0.82989 1.56339 0
M  V30 23086 C 2146.46 -1.33373 3.16333 0
M  V30 23087 C 2145.54 -0.692431 4.18409 0
M  V30 23088 N 2145.93 0.212349 5.05354 0
M  V30 23089 C 2144.23 -0.951551 4.35731 0
M  V30 23090 C 2144.93 0.580703 5.78794 0
M  V30 23091 N 2143.91 -0.0543856 5.43573 0
M  V30 23092 H 2147.71 0.418832 2.909 0
M  V30 23093 H 2145.22 0.330585 1.59 0
M  V30 23094 H 2147.22 -1.91407 3.70363 0
M  V30 23095 H 2145.88 -2.03159 2.53292 0
M  V30 23096 H 2146.89 0.583957 5.14597 0
M  V30 23097 H 2143.57 -1.64121 3.83889 0
M  V30 23098 H 2144.96 1.32165 6.58773 0
M  V30 23099 N 2147.68 -1.55636 0.248053 0
M  V30 23100 C 2148.61 -2.2441 -0.645175 0
M  V30 23101 C 2149.59 -1.22477 -1.18039 0
M  V30 23102 O 2150.78 -1.51133 -1.21953 0
M  V30 23103 C 2147.91 -2.94446 -1.84171 0
M  V30 23104 C 2146.86 -4.03076 -1.43922 0
M  V30 23105 C 2146.19 -4.60544 -2.71668 0
M  V30 23106 C 2147.49 -5.18732 -0.609431 0
M  V30 23107 H 2149.18 -2.99314 -0.0716951 0
M  V30 23108 H 2146.73 -1.43962 -0.033043 0
M  V30 23109 H 2148.68 -3.41259 -2.47225 0
M  V30 23110 H 2147.4 -2.17031 -2.44059 0
M  V30 23111 H 2146.06 -3.57034 -0.832012 0
M  V30 23112 H 2145.71 -3.79829 -3.29756 0
M  V30 23113 H 2145.41 -5.33876 -2.4546 0
M  V30 23114 H 2146.93 -5.10091 -3.35618 0
M  V30 23115 H 2148.35 -5.61764 -1.1443 0
M  V30 23116 H 2146.74 -5.9846 -0.443361 0
M  V30 23117 H 2147.81 -4.83424 0.378087 0
M  V30 23118 N 2149.16 0.0250451 -1.5758 0
M  V30 23119 C 2150.07 1.04128 -2.10225 0
M  V30 23120 C 2151.08 1.39367 -1.04178 0
M  V30 23121 O 2152.26 1.48605 -1.35936 0
M  V30 23122 C 2149.32 2.32208 -2.5745 0
M  V30 23123 C 2148.39 2.03512 -3.77996 0
M  V30 23124 C 2147.62 3.25486 -4.22959 0
M  V30 23125 O 2147.84 4.36301 -3.6742 0
M  V30 23126 O 2146.78 3.1095 -5.15358 0
M  V30 23127 H 2150.6 0.623859 -2.97223 0
M  V30 23128 H 2148.19 0.242286 -1.47422 0
M  V30 23129 H 2150.07 3.07498 -2.88137 0
M  V30 23130 H 2148.74 2.73237 -1.73561 0
M  V30 23131 H 2147.65 1.25777 -3.52322 0
M  V30 23132 H 2148.98 1.67337 -4.62882 0
M  V30 23133 N 2150.64 1.54769 0.297388 0
M  V30 23134 C 2151.88 1.73877 1.0301 0
M  V30 23135 C 2152.2 0.529442 1.87675 0
M  V30 23136 O 2151.47 -0.456215 1.90514 0
M  V30 23137 H 2150.05 0.641155 0.383313 0
M  V30 23138 H 2152.72 1.92129 0.3275 0
M  V30 23139 H 2151.81 2.62953 1.68113 0
M  V30 23140 N 2152.11 -0.560755 1.47286 0
M  V30 23141 C 2153.08 -1.6502 1.59063 0
M  V30 23142 C 2154.08 -1.539 0.465997 0
M  V30 23143 O 2155.27 -1.58122 0.730962 0
M  V30 23144 C 2152.4 -3.04548 1.53177 0
M  V30 23145 H 2153.59 -1.5593 2.56176 0
M  V30 23146 H 2151.14 -0.780391 1.35424 0
M  V30 23147 H 2151.88 -3.19175 0.574264 0
M  V30 23148 H 2151.66 -3.14029 2.34794 0
M  V30 23149 H 2153.15 -3.83814 1.64549 0
M  V30 23150 N 2153.59 -1.35359 -0.807199 0
M  V30 23151 C 2155.01 -1.15384 -1.10266 0
M  V30 23152 C 2155.21 0.0341061 -2.01471 0
M  V30 23153 O 2154.26 0.704898 -2.42461 0
M  V30 23154 C 2155.58 -2.45652 -1.73423 0
M  V30 23155 C 2157.12 -2.51853 -1.85847 0
M  V30 23156 C 2157.6 -3.82163 -2.5242 0
M  V30 23157 N 2159.09 -3.83411 -2.59905 0
M  V30 23158 C 2159.83 -4.80967 -3.12183 0
M  V30 23159 N 2159.32 -5.88912 -3.64903 0
M  V30 23160 N 2161.11 -4.68405 -3.1073 0
M  V30 23161 H 2153.27 -2.11448 -0.200891 0
M  V30 23162 H 2155.53 -0.935782 -0.151711 0
M  V30 23163 H 2155.23 -3.32755 -1.13874 0
M  V30 23164 H 2155.11 -2.60154 -2.73129 0
M  V30 23165 H 2157.5 -1.6518 -2.4454 0
M  V30 23166 H 2157.58 -2.41265 -0.84998 0
M  V30 23167 H 2157.22 -4.69234 -1.94376 0
M  V30 23168 H 2157.15 -3.90039 -3.53804 0
M  V30 23169 H 2159.64 -3.05415 -2.22553 0
M  V30 23170 H 2159.95 -6.59346 -4.03091 0
M  V30 23171 H 2158.3 -5.92605 -3.63104 0
M  V30 23172 H 2161.49 -3.83215 -2.6882 0
M  V30 23173 H 2161.66 -5.44598 -3.51166 0
M  V30 23174 N 2155.07 1.02928 -1.19346 0
M  V30 23175 C 2155.98 2.14674 -0.946161 0
M  V30 23176 C 2157 1.73748 0.0936895 0
M  V30 23177 O 2158.17 2.01195 -0.0908598 0
M  V30 23178 C 2155.24 3.43253 -0.487673 0
M  V30 23179 C 2154.3 3.98496 -1.59686 0
M  V30 23180 C 2153.53 5.20938 -1.16016 0
M  V30 23181 O 2153.75 5.70395 -0.0235541 0
M  V30 23182 O 2152.69 5.69006 -1.96254 0
M  V30 23183 H 2156.51 2.38399 -1.88148 0
M  V30 23184 H 2154.1 1.13092 -0.97625 0
M  V30 23185 H 2155.98 4.20713 -0.240612 0
M  V30 23186 H 2154.66 3.20974 0.41921 0
M  V30 23187 H 2153.56 3.22373 -1.89807 0
M  V30 23188 H 2154.9 4.25138 -2.48029 0
M  V30 23189 N 2156.55 0.997319 1.2203 0
M  V30 23190 C 2157.82 0.59145 1.86444 0
M  V30 23191 C 2158.2 -0.931144 1.89454 0
M  V30 23192 O 2157.55 -1.81492 1.38827 0
M  V30 23193 C 2157.76 1.21697 3.27095 0
M  V30 23194 C 2159.11 1.32027 4.03552 0
M  V30 23195 O 2160.13 1.1717 3.36377 0
M  V30 23196 O 2158.99 1.55846 5.23807 0
M  V30 23197 H 2156.09 0.201545 0.802065 0
M  V30 23198 H 2158.63 1.09348 1.29773 0
M  V30 23199 H 2157.41 2.25823 3.19562 0
M  V30 23200 H 2157.03 0.70081 3.91375 0
M  V30 23201 N 2158.03 -1.37449 0.771075 0
M  V30 23202 C 2159.27 -1.99314 0.33443 0
M  V30 23203 C 2159.6 -1.61515 -1.0926 0
M  V30 23204 O 2158.87 -0.880278 -1.75008 0
M  V30 23205 H 2157.45 -0.73719 0.120664 0
M  V30 23206 H 2160.11 -1.6794 0.989052 0
M  V30 23207 H 2159.2 -3.09375 0.411526 0
M  V30 23208 N 2159.5 -0.52156 -1.4872 0
M  V30 23209 C 2160.41 0.249847 -2.33266 0
M  V30 23210 C 2161.43 0.947297 -1.45953 0
M  V30 23211 O 2162.61 0.924126 -1.78947 0
M  V30 23212 C 2159.67 1.28824 -3.21878 0
M  V30 23213 C 2158.73 0.602041 -4.25058 0
M  V30 23214 C 2157.97 1.59096 -5.09435 0
M  V30 23215 O 2158.19 2.82282 -4.95654 0
M  V30 23216 O 2157.12 1.13498 -5.91102 0
M  V30 23217 H 2160.95 -0.442725 -3.00456 0
M  V30 23218 H 2158.53 -0.282593 -1.46703 0
M  V30 23219 H 2160.42 1.88853 -3.76713 0
M  V30 23220 H 2159.09 1.96337 -2.57359 0
M  V30 23221 H 2158 -0.0385256 -3.7408 0
M  V30 23222 H 2159.33 -0.0310005 -4.9219 0
M  V30 23223 N 2160.98 1.55502 -0.256304 0
M  V30 23224 C 2161.92 2.17829 0.680142 0
M  V30 23225 C 2162.89 1.13326 1.16602 0
M  V30 23226 O 2164.08 1.41759 1.24244 0
M  V30 23227 C 2161.2 2.7865 1.92541 0
M  V30 23228 C 2160.25 3.96289 1.57661 0
M  V30 23229 S 2161.08 5.31279 0.671062 0
M  V30 23230 C 2162.24 5.95558 1.92512 0
M  V30 23231 H 2162.47 2.96919 0.150504 0
M  V30 23232 H 2160.01 1.54346 -0.040687 0
M  V30 23233 H 2161.96 3.14326 2.64026 0
M  V30 23234 H 2160.62 1.99488 2.42618 0
M  V30 23235 H 2159.82 4.3747 2.50272 0
M  V30 23236 H 2159.42 3.6194 0.942114 0
M  V30 23237 H 2161.71 6.13647 2.8713 0
M  V30 23238 H 2162.65 6.90778 1.55665 0
M  V30 23239 H 2163.06 5.24723 2.0815 0
M  V30 23240 N 2162.46 -0.0166879 1.57591 0
M  V30 23241 C 2163.42 -0.998156 2.06324 0
M  V30 23242 C 2164.42 -1.28282 0.969561 0
M  V30 23243 O 2165.61 -1.23078 1.23278 0
M  V30 23244 C 2162.75 -2.32767 2.49063 0
M  V30 23245 H 2163.94 -0.576954 2.94298 0
M  V30 23246 H 2161.49 -0.263799 1.54058 0
M  V30 23247 H 2162.23 -2.7961 1.64282 0
M  V30 23248 H 2162.01 -2.13431 3.28922 0
M  V30 23249 H 2163.5 -3.03207 2.87151 0
M  V30 23250 O 2163.98 -1.60713 -0.159291 0
M  V30 23251 H 2164.67 -1.76644 -0.794768 0
M  V30 END ATOM
M  V30 BEGIN BOND
M  V30 END BOND
M  V30 END CTAB
M  END
$$$$
