drugbank_target|P04632 Calpain small subunit 1 (DB02570)
 OpenBabel12092120473D

  0  0  0     0  0            999 V3000
M  V30 BEGIN CTAB
M  V30 COUNTS 3896 3933 0 0 0
M  V30 BEGIN ATOM
M  V30 1 H -0.908 1.98254 -0.117106 0
M  V30 2 N 0 1.576 0 0
M  V30 3 C 0.933 2.03868 1.02534 0
M  V30 4 C 1.911 0.928543 1.3348 0
M  V30 5 O 3.095 1.19667 1.45644 0
M  V30 6 C 0.222 2.43627 2.35294 0
M  V30 7 C -0.732 3.65373 2.2001 0
M  V30 8 S 0.101 5.13292 1.52614 0
M  V30 9 C 1.257 5.56322 2.86805 0
M  V30 10 H 1.49 2.90518 0.631377 0
M  V30 11 H -0.977 1.52953 0.210867 0
M  V30 12 H 0.981 2.67203 3.11629 0
M  V30 13 H -0.358 1.57376 2.7183 0
M  V30 14 H -1.165 3.90944 3.18086 0
M  V30 15 H -1.563 3.418 1.51819 0
M  V30 16 H 0.729 5.58782 3.83104 0
M  V30 17 H 1.672 6.56266 2.65933 0
M  V30 18 H 2.08 4.83886 2.90714 0
M  V30 19 N 1.4781 -0.272755 1.55222 0
M  V30 20 C 2.7251 -1.00433 1.7584 0
M  V30 21 C 3.0531 -1.86275 0.559629 0
M  V30 22 O 2.3081 -1.90269 -0.457857 0
M  V30 23 C 2.6071 -1.91642 3.01675 0
M  V30 24 C 2.2731 -1.21548 4.34208 0
M  V30 25 C 0.9351 -1.02166 4.70229 0
M  V30 26 C 3.2871 -0.716684 5.16249 0
M  V30 27 C 0.6151 -0.316334 5.85847 0
M  V30 28 C 2.9671 -0.0249476 6.32595 0
M  V30 29 C 1.6311 0.180579 6.67256 0
M  V30 30 H 0.9011 -0.367509 0.643443 0
M  V30 31 H 3.5481 -0.276596 1.89492 0
M  V30 32 H 1.8531 -2.71037 2.82924 0
M  V30 33 H 3.5501 -2.48369 3.14824 0
M  V30 34 H 0.1401 -1.37645 4.05896 0
M  V30 35 H 4.3241 -0.854047 4.88896 0
M  V30 36 H -0.4199 -0.146378 6.11225 0
M  V30 37 H 3.7541 0.369311 6.9542 0
M  V30 38 H 1.3811 0.729098 7.56696 0
M  V30 39 N 2.9562 -1.48159 -0.537278 0
M  V30 40 C 3.8862 -1.65029 -1.6519 0
M  V30 41 C 4.8672 -0.499281 -1.62607 0
M  V30 42 O 6.0522 -0.730972 -1.79918 0
M  V30 43 C 3.1822 -1.68303 -3.03795 0
M  V30 44 C 2.1362 -2.8283 -3.21234 0
M  V30 45 C 1.4622 -2.71189 -4.60826 0
M  V30 46 C 2.7622 -4.24211 -3.04701 0
M  V30 47 H 4.4562 -2.58341 -1.51328 0
M  V30 48 H 2.0022 -1.24325 -0.726585 0
M  V30 49 H 3.9552 -1.78693 -3.81637 0
M  V30 50 H 2.6792 -0.715635 -3.18663 0
M  V30 51 H 1.3382 -2.71983 -2.45807 0
M  V30 52 H 0.9862 -1.72435 -4.7252 0
M  V30 53 H 0.6862 -3.48035 -4.7344 0
M  V30 54 H 2.2102 -2.83537 -5.40777 0
M  V30 55 H 3.6242 -4.3593 -3.72341 0
M  V30 56 H 2.0212 -5.01998 -3.28813 0
M  V30 57 H 3.0912 -4.41184 -2.01209 0
M  V30 58 N 4.4343 0.785586 -1.36625 0
M  V30 59 C 5.6803 1.54591 -1.31261 0
M  V30 60 C 6.0133 1.93906 0.106823 0
M  V30 61 O 5.2883 1.63007 1.06108 0
M  V30 62 C 5.5713 2.82038 -2.23889 0
M  V30 63 C 5.4243 2.49066 -3.74548 0
M  V30 64 C 6.7433 3.83887 -2.15217 0
M  V30 65 H 3.8623 0.560846 -0.478143 0
M  V30 66 H 6.5043 0.902278 -1.67209 0
M  V30 67 H 4.6543 3.36961 -1.93363 0
M  V30 68 H 6.3263 2.00164 -4.15611 0
M  V30 69 H 4.5693 1.81954 -3.93796 0
M  V30 70 H 5.2403 3.40109 -4.34776 0
M  V30 71 H 7.7163 3.38421 -2.42096 0
M  V30 72 H 6.5923 4.70806 -2.82193 0
M  V30 73 H 6.8533 4.27131 -1.14068 0
M  V30 74 N 5.9124 1.20967 1.01018 0
M  V30 75 C 6.8604 0.961223 2.1181 0
M  V30 76 C 7.8544 -0.0897034 1.69162 0
M  V30 77 O 9.0604 0.0612271 1.79896 0
M  V30 78 H 5.4354 0.29355 0.692338 0
M  V30 79 H 7.4064 1.90178 2.29946 0
M  V30 80 C 6.1554 0.536854 3.4353 0
M  V30 81 H 5.4784 1.33713 3.76777 0
M  V30 82 H 6.9184 0.402286 4.22087 0
M  V30 83 C 5.3774 -0.751574 3.2841 0
M  V30 84 O 5.9074 -1.80841 3.58691 0
M  V30 85 N 4.1134 -0.716079 2.81639 0
M  V30 86 H 3.6604 0.144236 2.57196 0
M  V30 87 H 3.6184 -1.57847 2.71904 0
M  V30 88 N 7.3905 -1.2043 1.01659 0
M  V30 89 C 8.6155 -1.94318 0.724942 0
M  V30 90 C 9.0405 -1.74266 -0.708034 0
M  V30 91 O 8.3985 -1.03694 -1.48719 0
M  V30 92 C 8.4465 -3.44486 1.06591 0
M  V30 93 O 7.5505 -4.12017 0.177599 0
M  V30 94 H 6.8915 -0.60708 0.26898 0
M  V30 95 H 9.4215 -1.52861 1.35995 0
M  V30 96 H 9.4315 -3.95106 1.01762 0
M  V30 97 H 8.1065 -3.58404 2.10997 0
M  V30 98 H 6.6835 -3.71821 0.283421 0
M  V30 99 N 8.8686 -0.792821 -1.36206 0
M  V30 100 C 10.1156 -0.366786 -1.99151 0
M  V30 101 C 10.4436 1.06243 -1.62919 0
M  V30 102 O 9.6986 1.74927 -0.877442 0
M  V30 103 C 9.9976 -0.481501 -3.54142 0
M  V30 104 C 9.6636 -1.87202 -4.10203 0
M  V30 105 C 8.3256 -2.25248 -4.25226 0
M  V30 106 C 10.6776 -2.78237 -4.40719 0
M  V30 107 C 8.0056 -3.53723 -4.68078 0
M  V30 108 C 10.3576 -4.06144 -4.85005 0
M  V30 109 C 9.0216 -4.44207 -4.98234 0
M  V30 110 H 8.2916 -0.134217 -0.728743 0
M  V30 111 H 10.9386 -1.01094 -1.62641 0
M  V30 112 H 9.2436 0.246146 -3.91026 0
M  V30 113 H 10.9406 -0.132844 -4.0078 0
M  V30 114 H 7.5306 -1.56639 -3.98951 0
M  V30 115 H 11.7146 -2.50097 -4.28679 0
M  V30 116 H 6.9706 -3.8308 -4.76508 0
M  V30 117 H 11.1446 -4.76796 -5.07581 0
M  V30 118 H 8.7716 -5.43814 -5.31197 0
M  V30 119 N 10.3467 1.47872 -0.545128 0
M  V30 120 C 11.2767 2.32661 0.197793 0
M  V30 121 C 12.2577 1.43041 0.920504 0
M  V30 122 O 13.4427 1.71912 0.90333 0
M  V30 123 C 10.5727 3.24569 1.23582 0
M  V30 124 C 9.5267 4.23333 0.630323 0
M  V30 125 C 8.8527 5.0448 1.77211 0
M  V30 126 C 10.1527 5.20704 -0.407974 0
M  V30 127 H 11.8467 2.95024 -0.510045 0
M  V30 128 H 9.3927 1.4187 -0.246731 0
M  V30 129 H 11.3457 3.8272 1.76362 0
M  V30 130 H 10.0697 2.60236 1.97344 0
M  V30 131 H 8.7287 3.6639 0.123922 0
M  V30 132 H 8.3767 4.36561 2.49847 0
M  V30 133 H 8.0767 5.71339 1.37281 0
M  V30 134 H 9.6007 5.65487 2.3034 0
M  V30 135 H 11.0147 5.7329 0.033305 0
M  V30 136 H 9.4117 5.95699 -0.725486 0
M  V30 137 H 10.4817 4.66917 -1.30828 0
M  V30 138 N 11.8248 0.280983 1.55075 0
M  V30 139 C 12.7718 -0.603937 2.22758 0
M  V30 140 C 13.7418 -1.1452 1.20309 0
M  V30 141 O 14.9268 -1.19343 1.48869 0
M  V30 142 C 12.0668 -1.77947 2.95684 0
M  V30 143 C 11.1798 -1.2715 4.12864 0
M  V30 144 C 10.3148 -2.4093 4.7342 0
M  V30 145 C 9.3538 -1.87165 5.82783 0
M  V30 146 N 8.4908 -2.94441 6.37377 0
M  V30 147 H 13.3308 -0.020124 2.97993 0
M  V30 148 H 10.8678 0.00183425 1.471 0
M  V30 149 H 12.8258 -2.47055 3.36184 0
M  V30 150 H 11.4558 -2.33522 2.22861 0
M  V30 151 H 10.5078 -0.473331 3.77444 0
M  V30 152 H 11.8198 -0.837751 4.91715 0
M  V30 153 H 10.9738 -3.18021 5.1667 0
M  V30 154 H 9.7128 -2.87623 3.93859 0
M  V30 155 H 8.7178 -1.08556 5.38976 0
M  V30 156 H 9.9428 -1.41401 6.64216 0
M  V30 157 H 7.8888 -3.40505 5.60707 0
M  V30 158 H 7.8058 -2.55501 7.11516 0
M  V30 159 H 9.0738 -3.71489 6.85285 0
M  V30 160 N 13.3029 -1.57598 0.00835791 0
M  V30 161 C 14.5509 -1.90551 -0.6734 0
M  V30 162 C 14.8719 -0.883301 -1.73847 0
M  V30 163 O 14.1419 0.0781442 -1.95744 0
M  V30 164 H 12.7219 -0.703312 -0.251717 0
M  V30 165 H 15.3839 -1.94833 0.0512592 0
M  V30 166 H 14.4799 -2.9056 -1.13935 0
M  V30 167 N 14.781 0.264519 -1.55364 0
M  V30 168 C 16.029 0.993021 -1.76021 0
M  V30 169 C 16.35 1.86511 -0.569099 0
M  V30 170 O 15.62 1.91438 0.415735 0
M  V30 171 H 14.2 0.369639 -0.649135 0
M  V30 172 H 16.862 0.286707 -1.9278 0
M  V30 173 H 15.958 1.62502 -2.66457 0
M  V30 174 N 16.2591 1.48442 0.529413 0
M  V30 175 C 17.5071 1.56179 1.28267 0
M  V30 176 C 17.8281 0.237721 1.93546 0
M  V30 177 O 17.0981 -0.740779 1.81354 0
M  V30 178 H 15.6781 0.575367 0.476405 0
M  V30 179 H 18.3401 1.84909 0.61602 0
M  V30 180 H 17.4361 2.34312 2.06165 0
M  V30 181 N 17.7372 -0.778329 1.37039 0
M  V30 182 C 18.9852 -1.53361 1.31623 0
M  V30 183 C 19.3062 -1.94739 -0.100831 0
M  V30 184 O 18.5762 -1.65797 -1.04347 0
M  V30 185 H 17.1562 -0.568794 0.484234 0
M  V30 186 H 19.8182 -0.926742 1.71457 0
M  V30 187 H 18.9142 -2.43606 1.95096 0
M  V30 188 N 19.2153 -1.21501 -1.00376 0
M  V30 189 C 20.4633 -1.03095 -1.73827 0
M  V30 190 C 20.7843 0.436341 -1.90055 0
M  V30 191 O 20.0543 1.31466 -1.45236 0
M  V30 192 H 18.6343 -0.378487 -0.644016 0
M  V30 193 H 21.2963 -1.52831 -1.20949 0
M  V30 194 H 20.3923 -1.49991 -2.73695 0
M  V30 195 N 20.6934 1.19889 -1.02296 0
M  V30 196 C 21.9414 1.89046 -0.714558 0
M  V30 197 C 22.2624 1.79636 0.758681 0
M  V30 198 O 21.5324 1.20292 1.54618 0
M  V30 199 H 20.1124 0.699802 -0.261317 0
M  V30 200 H 22.7744 1.45574 -1.29592 0
M  V30 201 H 21.8704 2.95524 -1.0036 0
M  V30 202 N 22.1715 0.800033 1.35784 0
M  V30 203 C 23.4195 0.376597 1.9856 0
M  V30 204 C 23.7405 -1.05812 1.63795 0
M  V30 205 O 23.0105 -1.73103 0.917171 0
M  V30 206 H 21.5905 0.136261 0.734467 0
M  V30 207 H 24.2525 1.02442 1.65806 0
M  V30 208 H 23.3485 0.477002 3.08433 0
M  V30 209 N 23.6496 -1.47581 0.552962 0
M  V30 210 C 24.8976 -2.02082 0.0272703 0
M  V30 211 C 25.2186 -1.4301 -1.32563 0
M  V30 212 O 24.4886 -0.603745 -1.86365 0
M  V30 213 H 23.0686 -0.746966 0.00709182 0
M  V30 214 H 25.7306 -1.81033 0.722008 0
M  V30 215 H 24.8266 -3.12034 -0.0639951 0
M  V30 216 N 25.1277 -0.289203 -1.54924 0
M  V30 217 C 26.3757 0.322879 -1.99504 0
M  V30 218 C 26.6967 1.55313 -1.1791 0
M  V30 219 O 25.9667 1.94001 -0.272097 0
M  V30 220 H 24.5467 0.122291 -0.736922 0
M  V30 221 H 27.2087 -0.397802 -1.90797 0
M  V30 222 H 26.3047 0.603061 -3.06218 0
M  V30 223 N 26.6058 1.57591 -0.0167156 0
M  V30 224 C 27.8538 1.90906 0.663285 0
M  V30 225 C 28.1748 0.892509 1.73376 0
M  V30 226 O 27.4448 -0.0677623 1.95783 0
M  V30 227 H 26.0248 0.704637 0.247983 0
M  V30 228 H 28.6868 1.94803 -0.0615909 0
M  V30 229 H 27.7828 2.9116 1.12393 0
M  V30 230 N 28.0839 -0.256276 1.55502 0
M  V30 231 C 29.3319 -0.983672 1.76545 0
M  V30 232 C 29.6529 -1.86206 0.578982 0
M  V30 233 O 28.9229 -1.91656 -0.405577 0
M  V30 234 H 27.5029 -0.366191 0.651086 0
M  V30 235 H 30.1649 -0.276479 1.92929 0
M  V30 236 H 29.2609 -1.61087 2.67315 0
M  V30 237 N 29.562 -1.4872 -0.521534 0
M  V30 238 C 30.492 -1.66771 -1.63431 0
M  V30 239 C 31.473 -0.516499 -1.62069 0
M  V30 240 O 32.658 -0.750013 -1.79132 0
M  V30 241 C 29.788 -1.71515 -3.01993 0
M  V30 242 C 28.742 -2.86222 -3.18216 0
M  V30 243 C 28.068 -2.76061 -4.57924 0
M  V30 244 C 29.368 -4.27419 -3.00184 0
M  V30 245 H 31.062 -2.59932 -1.48579 0
M  V30 246 H 28.608 -1.25089 -0.713358 0
M  V30 247 H 30.561 -1.82731 -3.7972 0
M  V30 248 H 29.285 -0.749393 -3.17886 0
M  V30 249 H 27.944 -2.74575 -2.42908 0
M  V30 250 H 27.592 -1.77437 -4.70665 0
M  V30 251 H 27.292 -3.53037 -4.69722 0
M  V30 252 H 28.816 -2.89256 -5.37739 0
M  V30 253 H 30.23 -4.39855 -3.67697 0
M  V30 254 H 28.627 -5.05458 -3.2347 0
M  V30 255 H 29.697 -4.43293 -1.96518 0
M  V30 256 N 31.0401 0.771051 -1.3745 0
M  V30 257 C 32.2881 1.52661 -1.32435 0
M  V30 258 C 32.6091 1.9479 0.0905024 0
M  V30 259 O 31.8791 1.66348 1.03466 0
M  V30 260 H 30.4591 0.566218 -0.487244 0
M  V30 261 H 33.1211 0.917636 -1.71946 0
M  V30 262 H 32.2171 2.42568 -1.96385 0
M  V30 263 N 32.5182 1.22032 0.997298 0
M  V30 264 C 33.7662 1.04016 1.73278 0
M  V30 265 C 34.0872 -0.426255 1.90284 0
M  V30 266 O 33.3572 -1.30694 1.45931 0
M  V30 267 H 31.9372 0.381897 0.642 0
M  V30 268 H 34.5992 1.5347 1.20137 0
M  V30 269 H 33.6952 1.51441 2.72896 0
M  V30 270 N 33.9963 -1.19345 1.0293 0
M  V30 271 C 35.2443 -1.88665 0.724574 0
M  V30 272 C 35.5653 -1.80036 -0.749144 0
M  V30 273 O 34.8353 -1.2111 -1.53978 0
M  V30 274 H 33.4153 -0.698406 0.265025 0
M  V30 275 H 36.0773 -1.44885 1.30362 0
M  V30 276 H 35.1733 -2.94987 1.01926 0
M  V30 277 N 35.4744 -0.807222 -1.35358 0
M  V30 278 C 36.4044 -0.232509 -2.3234 0
M  V30 279 C 37.3854 0.642386 -1.57504 0
M  V30 280 O 38.5704 0.572526 -1.85569 0
M  V30 281 C 35.7004 0.619238 -3.41735 0
M  V30 282 C 34.6544 -0.157215 -4.27711 0
M  V30 283 C 33.9804 0.816273 -5.28433 0
M  V30 284 C 35.2804 -1.35656 -5.04376 0
M  V30 285 H 36.9744 -1.04276 -2.80654 0
M  V30 286 H 34.5204 -0.50288 -1.34934 0
M  V30 287 H 36.4734 1.03137 -4.08584 0
M  V30 288 H 35.1974 1.46239 -2.92031 0
M  V30 289 H 33.8564 -0.550525 -3.62443 0
M  V30 290 H 33.5044 1.65494 -4.74996 0
M  V30 291 H 33.2044 0.301067 -5.86828 0
M  V30 292 H 34.7284 1.22659 -5.98153 0
M  V30 293 H 36.1424 -1.01927 -5.64166 0
M  V30 294 H 34.5394 -1.8063 -5.7227 0
M  V30 295 H 35.6094 -2.14288 -4.34981 0
M  V30 296 N 36.9525 1.47285 -0.560781 0
M  V30 297 C 38.2005 2.02064 -0.0379868 0
M  V30 298 C 38.5215 1.43711 1.31803 0
M  V30 299 O 37.7915 0.61362 1.86042 0
M  V30 300 H 36.3715 0.746918 -0.0110531 0
M  V30 301 H 39.0335 1.80648 -0.731598 0
M  V30 302 H 38.1295 3.12064 0.0474463 0
M  V30 303 N 38.4306 0.297415 1.54768 0
M  V30 304 C 39.3786 -0.596051 2.24833 0
M  V30 305 C 40.3726 -1.13992 1.25308 0
M  V30 306 O 41.5786 -1.09098 1.4317 0
M  V30 307 H 37.9536 -0.210814 0.721846 0
M  V30 308 H 39.9246 0.0174667 2.98395 0
M  V30 309 C 38.6736 -1.75818 2.99972 0
M  V30 310 H 37.9966 -1.3489 3.76357 0
M  V30 311 H 39.4366 -2.35949 3.52284 0
M  V30 312 C 37.8956 -2.66014 2.06732 0
M  V30 313 O 38.4256 -3.67009 1.63302 0
M  V30 314 N 36.6316 -2.33669 1.72763 0
M  V30 315 H 36.1786 -1.51586 2.08277 0
M  V30 316 H 36.1366 -2.94285 1.10652 0
M  V30 317 N 39.9087 -1.5758 0.0250728 0
M  V30 318 C 41.1547 -1.91917 -0.655413 0
M  V30 319 C 41.4877 -0.901433 -1.72011 0
M  V30 320 O 40.7627 0.0764069 -1.9435 0
M  V30 321 C 41.0457 -3.36751 -1.27558 0
M  V30 322 C 40.8987 -4.49258 -0.220719 0
M  V30 323 C 42.2177 -3.81469 -2.19475 0
M  V30 324 H 39.3367 -0.697925 -0.23679 0
M  V30 325 H 41.9787 -1.89825 0.0815036 0
M  V30 326 H 40.1287 -3.38664 -1.90365 0
M  V30 327 H 41.8007 -4.59478 0.409601 0
M  V30 328 H 40.0437 -4.31415 0.454264 0
M  V30 329 H 40.7147 -5.47618 -0.694175 0
M  V30 330 H 43.1907 -3.81266 -1.66659 0
M  V30 331 H 42.0667 -4.83512 -2.59822 0
M  V30 332 H 42.3277 -3.16744 -3.08424 0
M  V30 333 N 41.3868 0.248026 -1.55636 0
M  V30 334 C 42.3168 1.31079 -1.93237 0
M  V30 335 C 43.2978 1.50264 -0.797174 0
M  V30 336 O 44.4828 1.62891 -1.05737 0
M  V30 337 C 41.6128 2.66575 -2.22609 0
M  V30 338 C 40.5668 2.62087 -3.3837 0
M  V30 339 C 39.8928 4.01369 -3.53281 0
M  V30 340 C 41.1928 2.19171 -4.7409 0
M  V30 341 H 42.8868 0.998556 -2.82257 0
M  V30 342 H 40.4328 0.47891 -1.35803 0
M  V30 343 H 42.3858 3.41057 -2.47503 0
M  V30 344 H 41.1098 2.99432 -1.30414 0
M  V30 345 H 39.7688 1.90063 -3.13483 0
M  V30 346 H 39.4168 4.31489 -2.58508 0
M  V30 347 H 39.1168 3.99254 -4.31127 0
M  V30 348 H 40.6408 4.77552 -3.80495 0
M  V30 349 H 42.0548 2.83384 -4.98363 0
M  V30 350 H 40.4518 2.2817 -5.5503 0
M  V30 351 H 41.5218 1.14336 -4.71227 0
M  V30 352 N 42.8649 1.48995 0.513639 0
M  V30 353 C 44.1129 1.57531 1.26604 0
M  V30 354 C 44.4339 0.258236 1.93283 0
M  V30 355 O 43.7039 -0.721502 1.8213 0
M  V30 356 H 42.2839 0.580387 0.470276 0
M  V30 357 H 44.9459 1.85552 0.596373 0
M  V30 358 H 44.0419 2.36486 2.03669 0
M  V30 359 N 44.343 -0.763751 1.37857 0
M  V30 360 C 45.591 -1.51957 1.33243 0
M  V30 361 C 45.912 -1.94835 -0.0801709 0
M  V30 362 O 45.182 -1.66894 -1.02582 0
M  V30 363 H 43.762 -0.563626 0.49024 0
M  V30 364 H 46.424 -0.908504 1.7243 0
M  V30 365 H 45.52 -2.41523 1.97669 0
M  V30 366 N 45.8211 -1.22559 -0.990812 0
M  V30 367 C 46.7511 -1.0218 -2.09956 0
M  V30 368 C 47.7321 0.0579394 -1.70001 0
M  V30 369 O 48.9171 -0.104684 -1.93918 0
M  V30 370 C 46.0471 -0.601023 -3.4206 0
M  V30 371 C 45.0011 -1.62694 -3.95872 0
M  V30 372 C 44.3271 -1.06193 -5.24049 0
M  V30 373 C 45.6271 -3.01743 -4.2632 0
M  V30 374 H 47.3211 -1.94916 -2.27262 0
M  V30 375 H 44.8671 -0.938566 -1.09211 0
M  V30 376 H 46.8201 -0.445561 -4.19038 0
M  V30 377 H 45.5441 0.362005 -3.24588 0
M  V30 378 H 44.2031 -1.77021 -3.21028 0
M  V30 379 H 43.8511 -0.0901903 -5.02919 0
M  V30 380 H 43.5511 -1.74732 -5.61019 0
M  V30 381 H 45.0751 -0.918092 -6.03658 0
M  V30 382 H 46.4891 -2.90777 -4.94087 0
M  V30 383 H 44.8861 -3.67425 -4.74467 0
M  V30 384 H 45.9561 -3.51518 -3.34011 0
M  V30 385 N 47.2992 1.18797 -1.03562 0
M  V30 386 C 48.5482 1.87978 -0.731235 0
M  V30 387 C 48.8612 1.80911 0.743671 0
M  V30 388 O 50.0672 2.45407 1.16137 0
M  V30 389 C 48.5232 3.3721 -1.25768 0
M  V30 390 C 48.1312 3.52818 -2.76085 0
M  V30 391 C 49.8752 4.11825 -1.0296 0
M  V30 392 C 47.7822 4.9598 -3.22114 0
M  V30 393 H 46.7122 0.704063 -0.269835 0
M  V30 394 H 49.3632 1.34266 -1.25079 0
M  V30 395 H 47.7452 3.90359 -0.666011 0
M  V30 396 H 48.9192 3.09965 -3.40966 0
M  V30 397 H 47.2342 2.91602 -2.97249 0
M  V30 398 H 49.8312 5.17411 -1.34869 0
M  V30 399 H 50.1742 4.16287 0.0333546 0
M  V30 400 H 50.7072 3.64833 -1.58562 0
M  V30 401 H 47.4462 4.96684 -4.27768 0
M  V30 402 H 46.9662 5.39569 -2.61965 0
M  V30 403 H 48.6452 5.6467 -3.15844 0
M  V30 404 N 48.7773 0.814389 1.34928 0
M  V30 405 C 50.0023 0.410097 2.03305 0
M  V30 406 C 50.4273 -0.973464 1.60951 0
M  V30 407 O 49.7853 -1.63185 0.789964 0
M  V30 408 C 49.8333 0.51049 3.56968 0
M  V30 409 O 48.9373 -0.473035 4.09678 0
M  V30 410 H 48.2783 0.170088 0.641846 0
M  V30 411 H 50.8083 1.10244 1.72358 0
M  V30 412 H 50.8183 0.383135 4.06197 0
M  V30 413 H 49.4933 1.51963 3.87144 0
M  V30 414 H 48.0703 -0.305272 3.71648 0
M  V30 415 N 50.2554 -1.46986 0.568584 0
M  V30 416 C 51.5034 -2.02041 0.0487022 0
M  V30 417 C 51.8244 -1.44408 -1.31039 0
M  V30 418 O 51.0944 -0.623477 -1.85714 0
M  V30 419 H 49.6744 -0.746849 0.015014 0
M  V30 420 H 52.3364 -1.80257 0.741168 0
M  V30 421 H 51.4324 -3.12085 -0.0308961 0
M  V30 422 N 51.7335 -0.305618 -1.54608 0
M  V30 423 C 52.6965 0.555591 -2.22364 0
M  V30 424 C 53.6965 1.05768 -1.21119 0
M  V30 425 O 54.8865 0.952972 -1.45822 0
M  V30 426 C 52.0185 1.76974 -2.91364 0
M  V30 427 H 53.2115 -0.0364572 -2.99878 0
M  V30 428 H 50.7645 -0.0565007 -1.56198 0
M  V30 429 H 51.4995 2.40151 -2.17941 0
M  V30 430 H 51.2845 1.41732 -3.65588 0
M  V30 431 H 52.7745 2.38148 -3.43038 0
M  V30 432 N 53.2116 1.57565 -0.0334293 0
M  V30 433 C 54.4596 1.91598 0.642999 0
M  V30 434 C 54.7806 0.910847 1.7242 0
M  V30 435 O 54.0506 -0.0469931 1.95844 0
M  V30 436 H 52.6306 0.707228 0.240496 0
M  V30 437 H 55.2926 1.94726 -0.0822488 0
M  V30 438 H 54.3886 2.92336 1.09298 0
M  V30 439 N 54.6897 -0.239769 1.55765 0
M  V30 440 C 55.9377 -0.964892 1.77579 0
M  V30 441 C 56.2587 -1.85582 0.598699 0
M  V30 442 O 55.5287 -1.92075 -0.385226 0
M  V30 443 H 54.1087 -0.359265 0.654933 0
M  V30 444 H 56.7707 -0.256001 1.93211 0
M  V30 445 H 55.8667 -1.58243 2.69009 0
M  V30 446 N 56.1678 -1.49265 -0.50573 0
M  V30 447 C 57.4158 -1.582 -1.25766 0
M  V30 448 C 57.7368 -0.268482 -1.93143 0
M  V30 449 O 57.0068 0.711833 -1.8251 0
M  V30 450 H 55.5868 -0.582873 -0.467191 0
M  V30 451 H 58.2488 -1.85865 -0.586525 0
M  V30 452 H 57.3448 -2.37563 -2.02412 0
M  V30 453 N 57.6459 0.756429 -1.3826 0
M  V30 454 C 58.8939 1.51248 -1.34047 0
M  V30 455 C 59.2149 1.94875 0.0698372 0
M  V30 456 O 58.4849 1.67436 1.01696 0
M  V30 457 H 57.0649 0.561018 -0.493222 0
M  V30 458 H 59.7269 0.899347 -1.7291 0
M  V30 459 H 58.8229 2.40472 -1.98947 0
M  V30 460 N 59.124 1.23083 0.984299 0
M  V30 461 C 60.372 1.05848 1.72165 0
M  V30 462 C 60.693 -0.406049 1.90726 0
M  V30 463 O 59.963 -1.29139 1.47309 0
M  V30 464 H 58.543 0.388685 0.637913 0
M  V30 465 H 61.205 1.54736 1.18503 0
M  V30 466 H 60.301 1.54327 2.71274 0
M  V30 467 N 60.6021 -1.18246 1.0419 0
M  V30 468 C 61.8501 -1.87886 0.744543 0
M  V30 469 C 62.1711 -1.8082 -0.730006 0
M  V30 470 O 61.4411 -1.22736 -1.52685 0
M  V30 471 H 60.0211 -0.695556 0.272417 0
M  V30 472 H 62.6831 -1.43494 1.31892 0
M  V30 473 H 61.7791 -2.9389 1.05049 0
M  V30 474 N 62.0802 -0.821533 -1.34494 0
M  V30 475 C 63.3282 -0.408139 -1.97936 0
M  V30 476 C 63.6492 1.03193 -1.65457 0
M  V30 477 O 62.9192 1.71622 -0.944595 0
M  V30 478 H 61.4992 -0.147928 -0.732206 0
M  V30 479 H 64.1612 -1.05067 -1.64155 0
M  V30 480 H 63.2572 -0.52601 -3.07635 0
M  V30 481 N 63.5583 1.46682 -0.576371 0
M  V30 482 C 64.8063 2.02013 -0.0594163 0
M  V30 483 C 65.1273 1.45101 1.30271 0
M  V30 484 O 64.3973 0.633317 1.8538 0
M  V30 485 H 62.9773 0.746759 -0.0189745 0
M  V30 486 H 65.6393 1.79862 -0.750717 0
M  V30 487 H 64.7353 3.12097 0.014345 0
M  V30 488 N 65.0364 0.313813 1.54444 0
M  V30 489 C 66.2844 -0.291099 1.99993 0
M  V30 490 C 66.6054 -1.53418 1.20366 0
M  V30 491 O 65.8754 -1.93544 0.302927 0
M  V30 492 H 64.4554 -0.110552 0.738774 0
M  V30 493 H 67.1174 0.428106 1.9014 0
M  V30 494 H 66.2134 -0.554268 3.07139 0
M  V30 495 N 66.5145 -1.57545 0.0417849 0
M  V30 496 C 67.7625 -1.91937 -0.632829 0
M  V30 497 C 68.0835 -0.919978 -1.71934 0
M  V30 498 O 67.3535 0.0366064 -1.95866 0
M  V30 499 H 65.9335 -0.708493 -0.236742 0
M  V30 500 H 68.5955 -1.9468 0.0925745 0
M  V30 501 H 67.6915 -2.92912 -1.07746 0
M  V30 502 N 67.9926 0.231505 -1.5589 0
M  V30 503 C 69.2406 0.955461 -1.78088 0
M  V30 504 C 69.5616 1.85262 -0.608533 0
M  V30 505 O 68.8316 1.92277 0.375035 0
M  V30 506 H 67.4116 0.355787 -0.656829 0
M  V30 507 H 70.0736 0.245751 -1.93344 0
M  V30 508 H 69.1696 1.56814 -2.69844 0
M  V30 509 N 69.4707 1.49531 0.497807 0
M  V30 510 C 70.7187 1.58865 1.24926 0
M  V30 511 C 71.0397 0.278721 1.92998 0
M  V30 512 O 70.3097 -0.702144 1.82885 0
M  V30 513 H 68.8897 0.585343 0.464094 0
M  V30 514 H 71.5517 1.86174 0.57666 0
M  V30 515 H 70.6477 2.38633 2.01149 0
M  V30 516 N 70.9488 -0.749086 1.3866 0
M  V30 517 C 72.1968 -1.50535 1.34847 0
M  V30 518 C 72.5178 -1.94909 -0.0595016 0
M  V30 519 O 71.7878 -1.67973 -1.00806 0
M  V30 520 H 70.3678 -0.558395 0.49619 0
M  V30 521 H 73.0298 -0.890165 1.73384 0
M  V30 522 H 72.1258 -2.39413 2.00219 0
M  V30 523 N 72.4269 -1.23603 -0.977757 0
M  V30 524 C 73.6749 -1.06759 -1.71601 0
M  V30 525 C 73.9959 0.395929 -1.90938 0
M  V30 526 O 73.2659 1.28356 -1.47992 0
M  V30 527 H 71.8459 -0.392062 -0.635843 0
M  V30 528 H 74.5079 -1.55362 -1.1768 0
M  V30 529 H 73.6039 -1.55763 -2.70452 0
M  V30 530 N 73.905 1.17692 -1.04816 0
M  V30 531 C 75.153 1.87488 -0.754497 0
M  V30 532 C 75.474 1.81205 0.720407 0
M  V30 533 O 74.744 1.23544 1.52032 0
M  V30 534 H 73.324 0.694101 -0.276102 0
M  V30 535 H 75.986 1.42793 -1.32651 0
M  V30 536 H 75.082 2.93328 -1.06606 0
M  V30 537 N 75.3831 0.828654 1.34056 0
M  V30 538 C 76.6311 0.41863 1.97717 0
M  V30 539 C 76.9521 -1.02314 1.66002 0
M  V30 540 O 76.2221 -1.71119 0.953683 0
M  V30 541 H 74.8021 0.151809 0.731412 0
M  V30 542 H 77.4641 1.05936 1.63596 0
M  V30 543 H 76.5601 0.542318 3.07352 0
M  V30 544 N 76.8612 -1.46375 0.584142 0
M  V30 545 C 78.1092 -2.01978 0.0701287 0
M  V30 546 C 78.4302 -1.4579 -1.295 0
M  V30 547 O 77.7002 -0.64314 -1.85042 0
M  V30 548 H 76.2802 -0.746648 0.0229345 0
M  V30 549 H 78.9422 -1.79461 0.760245 0
M  V30 550 H 78.0382 -3.121 0.0022064 0
M  V30 551 N 78.3393 -0.321999 -1.54275 0
M  V30 552 C 79.5873 0.280489 -2.00144 0
M  V30 553 C 79.9083 1.52777 -1.21178 0
M  V30 554 O 79.1783 1.9338 -0.313187 0
M  V30 555 H 77.7583 0.106632 -0.73935 0
M  V30 556 H 80.4203 -0.438184 -1.8991 0
M  V30 557 H 79.5163 0.537972 -3.07428 0
M  V30 558 N 79.8174 1.5752 -0.0501392 0
M  V30 559 C 81.0654 1.9227 0.622642 0
M  V30 560 C 81.3864 0.929083 1.71444 0
M  V30 561 O 80.6564 -0.0262186 1.95882 0
M  V30 562 H 79.2364 0.709739 0.232981 0
M  V30 563 H 81.8984 1.94628 -0.102898 0
M  V30 564 H 80.9944 2.93479 1.06191 0
M  V30 565 N 81.2955 -0.223234 1.56011 0
M  V30 566 C 82.5435 -0.946003 1.78592 0
M  V30 567 C 82.8645 -1.84936 0.618349 0
M  V30 568 O 82.1345 -1.92473 -0.364833 0
M  V30 569 H 80.7145 -0.352298 0.658707 0
M  V30 570 H 83.3765 -0.235494 1.93472 0
M  V30 571 H 82.4725 -1.55381 2.70672 0
M  V30 572 N 82.7736 -1.49793 -0.48987 0
M  V30 573 C 84.0016 -1.63568 -1.26701 0
M  V30 574 C 84.4166 -0.311465 -1.86213 0
M  V30 575 O 83.7736 0.704416 -1.68357 0
M  V30 576 C 83.8246 -2.71284 -2.38929 0
M  V30 577 O 83.5456 -3.9857 -1.81861 0
M  V30 578 C 85.0466 -2.95864 -3.3012 0
M  V30 579 H 82.2666 -0.550342 -0.383881 0
M  V30 580 H 84.8106 -1.95898 -0.586864 0
M  V30 581 H 82.9656 -2.417 -3.02753 0
M  V30 582 H 83.3796 -4.57993 -2.55622 0
M  V30 583 H 84.8536 -3.74941 -4.05121 0
M  V30 584 H 85.3306 -2.06206 -3.87783 0
M  V30 585 H 85.9366 -3.26907 -2.72051 0
M  V30 586 N 84.2517 0.741722 -1.39055 0
M  V30 587 C 85.2147 1.83733 -1.37021 0
M  V30 588 C 86.2147 1.58542 -0.268534 0
M  V30 589 O 87.4047 1.66067 -0.526076 0
M  V30 590 C 84.5367 3.2141 -1.13617 0
M  V30 591 H 85.7297 1.86941 -2.34506 0
M  V30 592 H 83.2827 0.944676 -1.24521 0
M  V30 593 H 84.0177 3.23865 -0.167863 0
M  V30 594 H 83.8027 3.4109 -1.93391 0
M  V30 595 H 85.2927 4.01477 -1.14918 0
M  V30 596 N 85.7298 1.2412 0.971189 0
M  V30 597 C 86.6628 0.97373 2.06382 0
M  V30 598 C 87.6408 -0.0912662 1.62344 0
M  V30 599 O 88.8248 0.0449365 1.88446 0
M  V30 600 C 85.9518 0.468746 3.35441 0
M  V30 601 C 84.9978 1.52176 3.98428 0
M  V30 602 S 85.8308 3.10203 4.36503 0
M  V30 603 C 86.9868 2.61398 5.68702 0
M  V30 604 H 87.2198 1.89893 2.28753 0
M  V30 605 H 84.7528 1.07466 1.10862 0
M  V30 606 H 86.7108 0.184012 4.10087 0
M  V30 607 H 85.3718 -0.435688 3.11064 0
M  V30 608 H 84.5648 1.11876 4.91426 0
M  V30 609 H 84.1668 1.75632 3.30196 0
M  V30 610 H 86.4588 2.03992 6.4606 0
M  V30 611 H 87.4018 3.52972 6.13854 0
M  V30 612 H 87.8098 2.01941 5.27143 0
M  V30 613 N 87.2079 -1.17134 1.05439 0
M  V30 614 C 88.6239 -1.39454 0.776201 0
M  V30 615 C 88.8239 -1.91454 -0.628307 0
M  V30 616 O 87.8799 -2.10777 -1.39031 0
M  V30 617 C 89.1929 -2.38305 1.83388 0
M  V30 618 C 90.7409 -2.52006 1.85639 0
M  V30 619 C 91.2159 -3.54133 2.90437 0
M  V30 620 N 92.7069 -3.61653 2.89415 0
M  V30 621 C 93.4419 -4.4044 3.67152 0
M  V30 622 N 92.9379 -5.22721 4.54681 0
M  V30 623 N 94.7309 -4.35337 3.55581 0
M  V30 624 H 86.8819 -0.817134 1.96053 0
M  V30 625 H 89.1449 -0.421626 0.849079 0
M  V30 626 H 88.8509 -2.07173 2.84204 0
M  V30 627 H 88.7249 -3.37841 1.67761 0
M  V30 628 H 91.1119 -2.82447 0.85486 0
M  V30 629 H 91.1929 -1.52537 2.05344 0
M  V30 630 H 90.8369 -3.24431 3.90777 0
M  V30 631 H 90.7669 -4.53313 2.67983 0
M  V30 632 H 93.2579 -3.02909 2.25952 0
M  V30 633 H 93.5709 -5.80027 5.10674 0
M  V30 634 H 91.9159 -5.22093 4.58741 0
M  V30 635 H 95.1069 -3.70112 2.86592 0
M  V30 636 H 95.2799 -4.96494 4.1641 0
M  V30 637 N 88.686 -0.835752 -1.33615 0
M  V30 638 C 89.935 -0.426289 -1.97144 0
M  V30 639 C 90.248 1.01912 -1.66953 0
M  V30 640 O 91.454 1.53311 -2.24072 0
M  V30 641 C 89.91 -0.711321 -3.52801 0
M  V30 642 C 89.518 -2.1712 -3.91871 0
M  V30 643 C 91.262 -0.368654 -4.22896 0
M  V30 644 C 89.169 -2.40044 -5.40493 0
M  V30 645 H 88.099 -0.15567 -0.737755 0
M  V30 646 H 90.75 -1.0239 -1.52278 0
M  V30 647 H 89.132 -0.0433766 -3.95976 0
M  V30 648 H 90.306 -2.87936 -3.59763 0
M  V30 649 H 88.621 -2.47654 -3.34749 0
M  V30 650 H 91.218 -0.517601 -5.32189 0
M  V30 651 H 91.561 0.688078 -4.10574 0
M  V30 652 H 92.094 -0.991702 -3.8524 0
M  V30 653 H 88.833 -3.44271 -5.57815 0
M  V30 654 H 88.353 -1.73785 -5.74072 0
M  V30 655 H 90.032 -2.23042 -6.0734 0
M  V30 656 N 90.1641 1.46063 -0.591896 0
M  V30 657 C 91.0941 2.33172 0.123673 0
M  V30 658 C 92.0751 1.45897 0.87453 0
M  V30 659 O 93.2601 1.74698 0.848181 0
M  V30 660 C 90.3901 3.28336 1.13194 0
M  V30 661 C 89.3441 4.25124 0.495324 0
M  V30 662 C 88.6701 5.09863 1.61071 0
M  V30 663 C 89.9701 5.19143 -0.573425 0
M  V30 664 H 91.6641 2.93252 -0.603646 0
M  V30 665 H 89.2101 1.41014 -0.291741 0
M  V30 666 H 91.1631 3.88137 1.64097 0
M  V30 667 H 89.8871 2.66383 1.88965 0
M  V30 668 H 88.5461 3.66599 0.00729452 0
M  V30 669 H 88.1941 4.44288 2.35832 0
M  V30 670 H 87.8941 5.75417 1.19035 0
M  V30 671 H 89.4181 5.72529 2.12233 0
M  V30 672 H 90.8321 5.73106 -0.1491 0
M  V30 673 H 89.2291 5.93089 -0.914636 0
M  V30 674 H 90.2991 4.62519 -1.45617 0
M  V30 675 N 91.6422 0.330177 1.54103 0
M  V30 676 C 92.8902 -0.269871 2.0029 0
M  V30 677 C 93.2112 -1.52133 1.21986 0
M  V30 678 O 92.4812 -1.93212 0.323438 0
M  V30 679 H 91.0612 -0.10271 0.739905 0
M  V30 680 H 93.7232 0.448249 1.89675 0
M  V30 681 H 92.8192 -0.52166 3.07709 0
M  V30 682 N 93.1203 -1.57491 0.0584922 0
M  V30 683 C 94.3683 -1.92597 -0.612436 0
M  V30 684 C 94.6893 -0.938162 -1.70949 0
M  V30 685 O 93.9593 0.0158301 -1.95894 0
M  V30 686 H 92.5393 -0.710964 -0.229214 0
M  V30 687 H 95.2013 -1.94571 0.113218 0
M  V30 688 H 94.2973 -2.94038 -1.04633 0
M  V30 689 N 94.5984 0.214957 -1.56127 0
M  V30 690 C 95.8444 0.939762 -1.79712 0
M  V30 691 C 96.1774 1.83723 -0.629247 0
M  V30 692 O 95.4524 1.90925 0.371197 0
M  V30 693 C 95.7354 1.77306 -3.13424 0
M  V30 694 C 95.5884 0.90164 -4.40671 0
M  V30 695 C 96.9074 2.74956 -3.43638 0
M  V30 696 H 94.0264 0.340214 -0.653776 0
M  V30 697 H 96.6684 0.20824 -1.88855 0
M  V30 698 H 94.8184 2.39673 -3.0576 0
M  V30 699 H 96.4904 0.294206 -4.60361 0
M  V30 700 H 94.7334 0.207368 -4.33304 0
M  V30 701 H 95.4044 1.51923 -5.30682 0
M  V30 702 H 97.8804 2.22724 -3.51473 0
M  V30 703 H 96.7564 3.30358 -4.38355 0
M  V30 704 H 97.0174 3.53023 -2.66134 0
M  V30 705 N 96.0765 1.50051 0.48192 0
M  V30 706 C 97.3255 1.59741 1.23149 0
M  V30 707 C 97.6385 0.298163 1.93314 0
M  V30 708 O 98.8445 0.273835 2.70116 0
M  V30 709 C 97.3005 2.81926 2.23708 0
M  V30 710 C 96.9085 4.18685 1.59396 0
M  V30 711 C 98.6525 3.00956 2.99375 0
M  V30 712 C 96.5595 5.3207 2.58178 0
M  V30 713 H 95.4895 0.594838 0.46334 0
M  V30 714 H 98.1405 1.76467 0.503169 0
M  V30 715 H 96.5225 2.58736 2.99786 0
M  V30 716 H 97.6965 4.52088 0.891811 0
M  V30 717 H 96.0115 4.05171 0.960503 0
M  V30 718 H 98.6085 3.82836 3.73283 0
M  V30 719 H 98.9515 2.12258 3.58123 0
M  V30 720 H 99.4845 3.24277 2.30411 0
M  V30 721 H 96.2235 6.22888 2.04184 0
M  V30 722 H 95.7435 5.03098 3.26577 0
M  V30 723 H 97.4225 5.62196 3.20225 0
M  V30 724 N 97.5546 -0.734337 1.39446 0
M  V30 725 C 98.7796 -1.52866 1.40167 0
M  V30 726 C 99.2046 -1.881 -0.00171513 0
M  V30 727 O 98.5626 -1.51957 -0.988879 0
M  V30 728 C 98.6106 -2.79235 2.28167 0
M  V30 729 O 97.7146 -3.75185 1.71201 0
M  V30 730 H 97.0556 -0.461618 0.477289 0
M  V30 731 H 99.5856 -0.905949 1.8345 0
M  V30 732 H 99.5956 -3.27963 2.42702 0
M  V30 733 H 98.2706 -2.52923 3.30156 0
M  V30 734 H 96.8476 -3.33958 1.65912 0
M  V30 735 N 99.0327 -1.24633 -0.964593 0
M  V30 736 C 99.9957 -1.0424 -2.04124 0
M  V30 737 C 100.996 0.00137563 -1.608 0
M  V30 738 O 102.186 -0.239883 -1.7254 0
M  V30 739 C 99.3177 -0.580588 -3.3592 0
M  V30 740 H 100.511 -1.99803 -2.23649 0
M  V30 741 H 98.0637 -1.06899 -1.14027 0
M  V30 742 H 98.7987 0.3781 -3.22088 0
M  V30 743 H 98.5837 -1.33398 -3.6871 0
M  V30 744 H 100.074 -0.459034 -4.15069 0
M  V30 745 N 100.511 1.16574 -1.06058 0
M  V30 746 C 101.76 1.86385 -0.770944 0
M  V30 747 C 102.073 1.82448 0.705129 0
M  V30 748 O 103.279 2.47815 1.10905 0
M  V30 749 C 101.735 3.34466 -1.32893 0
M  V30 750 C 101.343 3.46883 -2.83507 0
M  V30 751 C 103.087 4.09548 -1.11672 0
M  V30 752 C 100.994 4.89036 -3.32562 0
M  V30 753 H 99.9238 0.698181 -0.284709 0
M  V30 754 H 102.575 1.31583 -1.27899 0
M  V30 755 H 100.957 3.88859 -0.748662 0
M  V30 756 H 102.131 3.02663 -3.47465 0
M  V30 757 H 100.446 2.85232 -3.03368 0
M  V30 758 H 103.043 5.14434 -1.45814 0
M  V30 759 H 103.386 4.16264 -0.0549535 0
M  V30 760 H 103.919 3.61387 -1.66265 0
M  V30 761 H 100.658 4.87499 -4.38207 0
M  V30 762 H 100.178 5.3389 -2.73351 0
M  V30 763 H 101.857 5.57843 -3.2775 0
M  V30 764 N 101.989 0.842826 1.3317 0
M  V30 765 C 103.214 0.453129 2.02389 0
M  V30 766 C 103.639 -0.939105 1.6298 0
M  V30 767 O 102.997 -1.61472 0.8244 0
M  V30 768 C 103.045 0.586094 3.55805 0
M  V30 769 O 102.149 -0.386029 4.10589 0
M  V30 770 H 101.49 0.183664 0.638094 0
M  V30 771 H 104.02 1.13875 1.69981 0
M  V30 772 H 104.03 0.469209 4.05293 0
M  V30 773 H 102.705 1.6014 3.83833 0
M  V30 774 H 101.282 -0.226371 3.72212 0
M  V30 775 N 103.467 -1.45747 0.599634 0
M  V30 776 C 104.377 -2.34262 -0.125888 0
M  V30 777 C 105.393 -1.50768 -0.868625 0
M  V30 778 O 106.569 -1.83592 -0.828003 0
M  V30 779 C 103.634 -3.28252 -1.11587 0
M  V30 780 C 102.695 -4.27651 -0.375956 0
M  V30 781 C 101.928 -5.1715 -1.31877 0
M  V30 782 O 102.151 -5.09916 -2.55621 0
M  V30 783 O 101.085 -5.96286 -0.820157 0
M  V30 784 H 104.911 -2.97688 0.601315 0
M  V30 785 H 102.496 -1.44999 0.359934 0
M  V30 786 H 104.378 -3.86191 -1.68626 0
M  V30 787 H 103.053 -2.67401 -1.82424 0
M  V30 788 H 101.96 -3.7335 0.236698 0
M  V30 789 H 103.293 -4.91334 0.29177 0
M  V30 790 N 104.945 -0.338344 -1.53925 0
M  V30 791 C 105.908 0.508299 -2.23493 0
M  V30 792 C 106.908 1.03175 -1.23335 0
M  V30 793 O 108.098 0.921826 -1.47811 0
M  V30 794 C 105.23 1.70754 -2.95052 0
M  V30 795 H 106.423 -0.100058 -2.99733 0
M  V30 796 H 103.976 -0.0896198 -1.56043 0
M  V30 797 H 104.711 2.35474 -2.22986 0
M  V30 798 H 104.496 1.33946 -3.68512 0
M  V30 799 H 105.986 2.30818 -3.48013 0
M  V30 800 N 106.423 1.57458 -0.0668435 0
M  V30 801 C 107.386 2.11323 0.887422 0
M  V30 802 C 108.386 1.03618 1.22964 0
M  V30 803 O 109.576 1.29626 1.16373 0
M  V30 804 C 106.708 2.61048 2.19242 0
M  V30 805 H 107.901 2.96942 0.420194 0
M  V30 806 H 105.454 1.55239 0.181793 0
M  V30 807 H 106.189 1.78868 2.70512 0
M  V30 808 H 105.974 3.39769 1.95702 0
M  V30 809 H 107.464 3.02814 2.87565 0
M  V30 810 N 107.901 -0.206675 1.56239 0
M  V30 811 C 108.864 -1.23976 1.92776 0
M  V30 812 C 109.864 -1.39041 0.807729 0
M  V30 813 O 111.054 -1.37051 1.0753 0
M  V30 814 C 108.186 -2.61112 2.19165 0
M  V30 815 H 109.379 -0.927764 2.85189 0
M  V30 816 H 106.932 -0.447718 1.4975 0
M  V30 817 H 107.667 -2.97386 1.29352 0
M  V30 818 H 107.452 -2.51552 3.00772 0
M  V30 819 H 108.942 -3.35633 2.48476 0
M  V30 820 N 109.379 -1.50304 -0.473955 0
M  V30 821 C 110.311 -1.65109 -1.58971 0
M  V30 822 C 111.324 -0.532676 -1.53839 0
M  V30 823 O 112.513 -0.805751 -1.59279 0
M  V30 824 C 109.613 -1.61684 -2.97845 0
M  V30 825 C 108.786 -2.8951 -3.27876 0
M  V30 826 C 107.845 -2.78768 -4.4629 0
M  V30 827 O 106.871 -3.52722 -4.46739 0
M  V30 828 N 108.073 -1.9213 -5.47783 0
M  V30 829 H 110.838 -2.61347 -1.46689 0
M  V30 830 H 108.399 -1.47732 -0.662324 0
M  V30 831 H 110.391 -1.52114 -3.75024 0
M  V30 832 H 108.961 -0.731925 -3.03911 0
M  V30 833 H 108.181 -3.13228 -2.39336 0
M  V30 834 H 109.469 -3.74199 -3.4475 0
M  V30 835 H 108.867 -1.31353 -5.50239 0
M  V30 836 H 107.424 -1.88466 -6.23958 0
M  V30 837 N 110.857 0.726932 -1.39834 0
M  V30 838 C 112.087 1.51393 -1.40583 0
M  V30 839 C 112.495 1.892 -0.000740625 0
M  V30 840 O 111.838 1.55189 0.982951 0
M  V30 841 C 111.9 2.82588 -2.22226 0
M  V30 842 C 111.564 2.67169 -3.70769 0
M  V30 843 C 112.561 2.3518 -4.63666 0
M  V30 844 C 110.246 2.83788 -4.14451 0
M  V30 845 C 112.24 2.20002 -5.98229 0
M  V30 846 C 109.927 2.68229 -5.49087 0
M  V30 847 C 110.925 2.36382 -6.4079 0
M  V30 848 O 110.613 2.2093 -7.72946 0
M  V30 849 H 110.345 0.474168 -0.48181 0
M  V30 850 H 112.899 0.905247 -1.84376 0
M  V30 851 H 111.129 3.45746 -1.73195 0
M  V30 852 H 112.818 3.44247 -2.15055 0
M  V30 853 H 113.584 2.21984 -4.31217 0
M  V30 854 H 109.463 3.07566 -3.43401 0
M  V30 855 H 113.007 1.95067 -6.69772 0
M  V30 856 H 108.904 2.81006 -5.81125 0
M  V30 857 H 109.672 2.35937 -7.83757 0
M  V30 858 N 112.336 1.25143 0.95797 0
M  V30 859 C 113.284 1.05019 2.07542 0
M  V30 860 C 114.278 -0.0178751 1.69391 0
M  V30 861 O 115.484 0.137472 1.79474 0
M  V30 862 H 111.859 0.32265 0.679265 0
M  V30 863 H 113.83 1.99759 2.21673 0
M  V30 864 C 112.579 0.682074 3.40944 0
M  V30 865 H 111.902 1.49573 3.70767 0
M  V30 866 H 113.342 0.580945 4.20001 0
M  V30 867 C 111.801 -0.611608 3.31302 0
M  V30 868 O 112.331 -1.65465 3.66038 0
M  V30 869 N 110.537 -0.595982 2.84423 0
M  V30 870 H 110.084 0.253192 2.56353 0
M  V30 871 H 110.042 -1.46173 2.78354 0
M  V30 872 N 113.814 -1.1601 1.06675 0
M  V30 873 C 115.225 -1.68235 0.809565 0
M  V30 874 C 115.576 -1.8454 -0.666303 0
M  V30 875 O 114.701 -1.54374 -1.5165 0
M  V30 876 C 115.296 -3.05585 1.46299 0
M  V30 877 C 113.855 -3.54915 1.25349 0
M  V30 878 C 113.002 -2.30804 1.53703 0
M  V30 879 H 115.953 -1.00318 1.22971 0
M  V30 880 H 115.974 -3.70174 0.880431 0
M  V30 881 H 115.486 -2.93686 2.53713 0
M  V30 882 H 113.587 -3.72067 0.199261 0
M  V30 883 H 113.7 -4.36774 1.9689 0
M  V30 884 H 112.064 -2.36007 0.957739 0
M  V30 885 H 112.847 -2.21499 2.62284 0
M  V30 886 N 115.292 -0.849877 -1.32721 0
M  V30 887 C 116.202 -0.293791 -2.32753 0
M  V30 888 C 117.218 0.585906 -1.63839 0
M  V30 889 O 118.394 0.487413 -1.95413 0
M  V30 890 C 115.459 0.512752 -3.42887 0
M  V30 891 C 114.52 -0.39252 -4.27502 0
M  V30 892 C 113.753 0.375625 -5.32377 0
M  V30 893 O 113.976 1.60613 -5.4732 0
M  V30 894 O 112.91 -0.256094 -6.01355 0
M  V30 895 H 116.736 -1.12242 -2.82197 0
M  V30 896 H 114.321 -0.612685 -1.36259 0
M  V30 897 H 116.203 0.970704 -4.10067 0
M  V30 898 H 114.878 1.31826 -2.95641 0
M  V30 899 H 113.785 -0.898547 -3.63149 0
M  V30 900 H 115.118 -1.16309 -4.7826 0
M  V30 901 N 116.77 1.45427 -0.607355 0
M  V30 902 C 118.181 1.85756 -0.187535 0
M  V30 903 C 118.532 1.5077 1.25551 0
M  V30 904 O 117.657 0.93427 1.95193 0
M  V30 905 C 118.252 3.37154 -0.333572 0
M  V30 906 C 116.811 3.76387 0.0315542 0
M  V30 907 C 115.958 2.69377 -0.658117 0
M  V30 908 H 118.909 1.36231 -0.81405 0
M  V30 909 H 118.93 3.78014 0.43428 0
M  V30 910 H 118.442 3.62586 -1.38393 0
M  V30 911 H 116.543 3.56571 1.0811 0
M  V30 912 H 116.656 4.77731 -0.361935 0
M  V30 913 H 115.02 2.5452 -0.0957873 0
M  V30 914 H 115.803 2.97646 -1.7106 0
M  V30 915 N 118.248 0.346503 1.53744 0
M  V30 916 C 119.659 -0.136779 1.86198 0
M  V30 917 C 120.01 -1.49749 1.26766 0
M  V30 918 O 119.135 -2.08417 0.582355 0
M  V30 919 C 119.73 -0.254966 3.37839 0
M  V30 920 C 118.289 -0.682482 3.70161 0
M  V30 921 C 117.436 0.181981 2.76702 0
M  V30 922 H 120.387 0.565994 1.48264 0
M  V30 923 H 120.408 -1.08195 3.64793 0
M  V30 924 H 119.92 0.735526 3.81066 0
M  V30 925 H 118.021 -1.68189 3.3248 0
M  V30 926 H 118.134 -0.470326 4.76786 0
M  V30 927 H 116.498 -0.34615 2.52337 0
M  V30 928 H 117.281 1.16966 3.2276 0
M  V30 929 N 119.726 -1.57421 0.075193 0
M  V30 930 C 121.137 -1.81021 -0.456964 0
M  V30 931 C 121.488 -0.98936 -1.69429 0
M  V30 932 O 120.613 -0.212865 -2.15351 0
M  V30 933 C 121.208 -3.28329 -0.83581 0
M  V30 934 C 119.767 -3.52764 -1.31281 0
M  V30 935 C 118.914 -2.75676 -0.299648 0
M  V30 936 H 121.865 -1.55822 0.300856 0
M  V30 937 H 121.886 -3.40564 -1.69696 0
M  V30 938 H 121.398 -3.88046 0.0649238 0
M  V30 939 H 119.499 -2.98355 -2.23193 0
M  V30 940 H 119.612 -4.61451 -1.28839 0
M  V30 941 H 117.976 -2.42538 -0.777641 0
M  V30 942 H 118.759 -3.38132 0.593417 0
M  V30 943 N 121.204 0.198386 -1.56346 0
M  V30 944 C 122.615 0.763358 -1.70381 0
M  V30 945 C 122.966 1.83995 -0.681203 0
M  V30 946 O 122.091 2.15785 0.16305 0
M  V30 947 C 122.686 1.39143 -3.08909 0
M  V30 948 C 121.245 1.90352 -3.2472 0
M  V30 949 C 120.392 0.772233 -2.6633 0
M  V30 950 H 123.343 -0.0266377 -1.58678 0
M  V30 951 H 123.364 2.26076 -3.06055 0
M  V30 952 H 122.876 0.607638 -3.83314 0
M  V30 953 H 120.977 2.71461 -2.55225 0
M  V30 954 H 121.09 2.06757 -4.3219 0
M  V30 955 H 119.454 1.18566 -2.2542 0
M  V30 956 H 120.237 0.00073556 -3.433 0
M  V30 957 N 122.682 1.50554 0.465978 0
M  V30 958 C 124.098 1.38093 0.800154 0
M  V30 959 C 124.298 0.440988 1.96615 0
M  V30 960 O 123.354 -0.114499 2.5224 0
M  V30 961 C 124.667 2.79565 1.10742 0
M  V30 962 C 126.215 2.88516 1.21357 0
M  V30 963 C 126.69 4.30833 1.55393 0
M  V30 964 N 128.181 4.33807 1.62375 0
M  V30 965 C 128.916 5.40927 1.90225 0
M  V30 966 N 128.412 6.58247 2.16062 0
M  V30 967 N 130.205 5.28376 1.9177 0
M  V30 968 H 122.356 2.10237 -0.302366 0
M  V30 969 H 124.619 0.945203 -0.0727746 0
M  V30 970 H 124.325 3.50208 0.323661 0
M  V30 971 H 124.199 3.17125 2.04234 0
M  V30 972 H 126.586 2.1809 1.98799 0
M  V30 973 H 126.667 2.54492 0.258321 0
M  V30 974 H 126.311 5.01799 0.784889 0
M  V30 975 H 126.241 4.62347 2.52076 0
M  V30 976 H 128.732 3.49212 1.44427 0
M  V30 977 H 129.045 7.3569 2.36601 0
M  V30 978 H 127.39 6.61413 2.13444 0
M  V30 979 H 130.581 4.35715 1.71085 0
M  V30 980 H 130.754 6.11944 2.13139 0
M  V30 981 N 124.16 -0.719506 1.40217 0
M  V30 982 C 125.388 -1.50864 1.41589 0
M  V30 983 C 125.803 -1.88794 0.0145275 0
M  V30 984 O 125.16 -1.55174 -0.960594 0
M  V30 985 C 125.211 -2.78646 2.30302 0
M  V30 986 O 124.932 -2.42321 3.64983 0
M  V30 987 C 126.433 -3.72569 2.40224 0
M  V30 988 H 123.653 -0.465709 0.48307 0
M  V30 989 H 126.197 -0.88785 1.84221 0
M  V30 990 H 124.352 -3.37019 1.91042 0
M  V30 991 H 124.766 -3.24514 4.12057 0
M  V30 992 H 126.24 -4.5908 3.06512 0
M  V30 993 H 126.717 -4.15403 1.42608 0
M  V30 994 H 127.323 -3.20109 2.80019 0
M  V30 995 N 125.638 -1.25649 -0.95132 0
M  V30 996 C 126.588 -1.03004 -2.03406 0
M  V30 997 C 127.572 0.034187 -1.60864 0
M  V30 998 O 128.764 -0.181549 -1.76066 0
M  V30 999 C 125.893 -0.654255 -3.37008 0
M  V30 1000 C 124.979 -1.75542 -3.86065 0
M  V30 1001 N 125.37 -2.99113 -4.07879 0
M  V30 1002 C 123.668 -1.63669 -4.14884 0
M  V30 1003 C 124.369 -3.70611 -4.48356 0
M  V30 1004 N 123.345 -2.98247 -4.54477 0
M  V30 1005 H 127.147 -1.96813 -2.1827 0
M  V30 1006 H 124.661 -1.16017 -1.13639 0
M  V30 1007 H 126.658 -0.473206 -4.14206 0
M  V30 1008 H 125.318 0.276468 -3.23521 0
M  V30 1009 H 126.329 -3.35124 -3.94857 0
M  V30 1010 H 123.006 -0.775161 -4.10241 0
M  V30 1011 H 124.396 -4.76695 -4.73509 0
M  V30 1012 N 127.117 1.15442 -1.07289 0
M  V30 1013 C 128.347 1.89821 -0.815576 0
M  V30 1014 C 128.755 1.7823 0.634867 0
M  V30 1015 O 128.098 1.13152 1.44715 0
M  V30 1016 C 128.16 3.40817 -1.14385 0
M  V30 1017 C 127.824 3.76193 -2.59476 0
M  V30 1018 C 128.821 3.77269 -3.57721 0
M  V30 1019 C 126.506 4.0652 -2.95037 0
M  V30 1020 C 128.5 4.08176 -4.89562 0
M  V30 1021 C 126.187 4.37092 -4.27076 0
M  V30 1022 C 127.185 4.37902 -5.24148 0
M  V30 1023 O 126.873 4.67741 -6.53815 0
M  V30 1024 H 126.605 0.608465 -0.294528 0
M  V30 1025 H 129.159 1.472 -1.43252 0
M  V30 1026 H 127.389 3.83835 -0.469865 0
M  V30 1027 H 129.078 3.96485 -0.869179 0
M  V30 1028 H 129.844 3.5394 -3.3159 0
M  V30 1029 H 125.723 4.05049 -2.20128 0
M  V30 1030 H 129.267 4.08723 -5.65324 0
M  V30 1031 H 125.164 4.59889 -4.5296 0
M  V30 1032 H 125.932 4.85509 -6.58957 0
M  V30 1033 N 128.595 0.856903 1.32268 0
M  V30 1034 C 129.82 0.474569 2.01897 0
M  V30 1035 C 130.245 -0.921766 1.63967 0
M  V30 1036 O 129.603 -1.60589 0.84148 0
M  V30 1037 C 129.651 0.623799 3.55164 0
M  V30 1038 O 128.755 -0.342459 4.10976 0
M  V30 1039 H 128.096 0.190422 0.63611 0
M  V30 1040 H 130.626 1.15672 1.68764 0
M  V30 1041 H 130.636 0.512169 4.04773 0
M  V30 1042 H 129.311 1.64202 3.82113 0
M  V30 1043 H 127.888 -0.18688 3.72431 0
M  V30 1044 N 130.073 -1.45103 0.615059 0
M  V30 1045 C 131.021 -2.32331 -0.111791 0
M  V30 1046 C 132.015 -1.46409 -0.852102 0
M  V30 1047 O 133.221 -1.62849 -0.766821 0
M  V30 1048 H 129.596 -0.749993 -0.0549072 0
M  V30 1049 H 131.567 -2.91407 0.642225 0
M  V30 1050 C 130.316 -3.3015 -1.09071 0
M  V30 1051 H 129.639 -3.96265 -0.530485 0
M  V30 1052 H 131.079 -3.93898 -1.56908 0
M  V30 1053 C 129.538 -2.57875 -2.168 0
M  V30 1054 O 130.068 -2.36567 -3.24652 0
M  V30 1055 N 128.274 -2.17884 -1.92289 0
M  V30 1056 H 127.821 -2.35413 -1.04587 0
M  V30 1057 H 127.779 -1.6985 -2.64572 0
M  V30 1058 N 131.551 -0.354651 -1.53558 0
M  V30 1059 C 132.8 0.239504 -2.00273 0
M  V30 1060 C 133.113 1.50759 -1.24623 0
M  V30 1061 O 134.319 2.17968 -1.61871 0
M  V30 1062 C 132.775 0.477341 -3.5672 0
M  V30 1063 C 132.383 -0.775488 -4.41237 0
M  V30 1064 C 134.127 1.02975 -4.11821 0
M  V30 1065 C 132.034 -0.507838 -5.89216 0
M  V30 1066 H 130.964 0.0932743 -0.748208 0
M  V30 1067 H 133.615 -0.471701 -1.77334 0
M  V30 1068 H 131.997 1.24953 -3.7577 0
M  V30 1069 H 133.171 -1.54963 -4.33962 0
M  V30 1070 H 131.486 -1.25033 -3.97185 0
M  V30 1071 H 134.083 1.24513 -5.2 0
M  V30 1072 H 134.426 1.98862 -3.65731 0
M  V30 1073 H 134.959 0.317994 -3.96527 0
M  V30 1074 H 131.698 -1.43674 -6.39561 0
M  V30 1075 H 131.218 0.228011 -5.99366 0
M  V30 1076 H 132.897 -0.129238 -6.46871 0
M  V30 1077 N 133.029 1.57378 -0.0835403 0
M  V30 1078 C 133.939 2.16897 0.894021 0
M  V30 1079 C 134.955 1.13528 1.31861 0
M  V30 1080 O 136.131 1.45848 1.3889 0
M  V30 1081 C 133.196 2.72831 2.13925 0
M  V30 1082 C 132.257 3.91115 1.76997 0
M  V30 1083 C 131.49 4.44371 2.95584 0
M  V30 1084 O 131.713 3.96596 4.09961 0
M  V30 1085 O 130.647 5.35549 2.74719 0
M  V30 1086 H 134.473 3.00814 0.417679 0
M  V30 1087 H 132.058 1.48741 0.140181 0
M  V30 1088 H 133.94 3.0863 2.86924 0
M  V30 1089 H 132.615 1.91967 2.60635 0
M  V30 1090 H 131.522 3.60148 1.01214 0
M  V30 1091 H 132.855 4.73307 1.3506 0
M  V30 1092 N 134.507 -0.190092 1.56449 0
M  V30 1093 C 135.47 -1.21925 1.9408 0
M  V30 1094 C 136.47 -1.38176 0.822431 0
M  V30 1095 O 137.66 -1.35903 1.08977 0
M  V30 1096 C 134.792 -2.58773 2.21922 0
M  V30 1097 H 135.985 -0.897464 2.86157 0
M  V30 1098 H 133.538 -0.43181 1.50217 0
M  V30 1099 H 134.273 -2.95998 1.32499 0
M  V30 1100 H 134.058 -2.48348 3.03424 0
M  V30 1101 H 135.548 -3.32978 2.52022 0
M  V30 1102 N 135.985 -1.50799 -0.457987 0
M  V30 1103 C 136.933 -1.71162 -1.575 0
M  V30 1104 C 137.927 -0.577592 -1.59249 0
M  V30 1105 O 139.133 -0.758443 -1.63241 0
M  V30 1106 H 135.508 -0.540468 -0.522875 0
M  V30 1107 H 137.479 -2.64837 -1.37492 0
M  V30 1108 C 136.228 -1.83496 -2.95338 0
M  V30 1109 H 135.551 -2.70153 -2.94716 0
M  V30 1110 H 136.991 -2.01765 -3.72917 0
M  V30 1111 C 135.45 -0.589694 -3.31699 0
M  V30 1112 O 135.98 0.265163 -4.00824 0
M  V30 1113 N 134.186 -0.439845 -2.87252 0
M  V30 1114 H 133.733 -1.13655 -2.31172 0
M  V30 1115 H 133.691 0.392159 -3.11945 0
M  V30 1116 N 137.463 0.71206 -1.40597 0
M  V30 1117 C 138.373 1.8562 -1.43466 0
M  V30 1118 C 139.389 1.70902 -0.326902 0
M  V30 1119 O 140.565 1.93105 -0.572043 0
M  V30 1120 C 137.63 3.21451 -1.29884 0
M  V30 1121 C 136.691 3.48398 -2.50833 0
M  V30 1122 C 135.924 4.77749 -2.3789 0
M  V30 1123 O 136.147 5.53089 -1.39459 0
M  V30 1124 O 135.081 5.05111 -3.27333 0
M  V30 1125 H 138.907 1.86155 -2.39958 0
M  V30 1126 H 136.492 0.86295 -1.21957 0
M  V30 1127 H 138.374 4.02579 -1.24531 0
M  V30 1128 H 137.049 3.21636 -0.364997 0
M  V30 1129 H 135.956 2.67265 -2.61763 0
M  V30 1130 H 137.289 3.53014 -3.4299 0
M  V30 1131 N 138.941 1.26152 0.944643 0
M  V30 1132 C 140.166 1.14363 1.7302 0
M  V30 1133 C 140.591 -0.29772 1.85729 0
M  V30 1134 O 139.949 -1.2157 1.34501 0
M  V30 1135 C 139.997 1.81378 3.11664 0
M  V30 1136 O 139.101 1.10022 3.97453 0
M  V30 1137 H 138.442 0.398694 0.53098 0
M  V30 1138 H 140.972 1.66906 1.18337 0
M  V30 1139 H 140.982 1.88064 3.62072 0
M  V30 1140 H 139.657 2.86237 3.0173 0
M  V30 1141 H 138.234 1.11287 3.55907 0
M  V30 1142 N 140.419 -1.14872 1.07899 0
M  V30 1143 C 141.329 -2.2341 0.715915 0
M  V30 1144 C 142.345 -1.71808 -0.275306 0
M  V30 1145 O 143.521 -2.01039 -0.120545 0
M  V30 1146 C 140.586 -3.46474 0.125168 0
M  V30 1147 C 139.647 -4.13039 1.17034 0
M  V30 1148 C 138.88 -5.30229 0.607688 0
M  V30 1149 O 139.103 -5.675 -0.574497 0
M  V30 1150 O 138.037 -5.86444 1.35526 0
M  V30 1151 H 141.863 -2.56808 1.62121 0
M  V30 1152 H 139.448 -1.22702 0.852322 0
M  V30 1153 H 141.33 -4.20917 -0.201729 0
M  V30 1154 H 140.005 -3.14811 -0.753364 0
M  V30 1155 H 138.912 -3.40493 1.54968 0
M  V30 1156 H 140.245 -4.48796 2.02097 0
M  V30 1157 N 141.898 -0.863906 -1.31812 0
M  V30 1158 C 142.808 -0.318461 -2.32428 0
M  V30 1159 C 143.824 0.568496 -1.64451 0
M  V30 1160 O 145 0.46666 -1.95919 0
M  V30 1161 C 142.065 0.476355 -3.43412 0
M  V30 1162 C 141.126 -0.43784 -4.27061 0
M  V30 1163 C 140.359 0.319138 -5.32745 0
M  V30 1164 O 140.582 1.54799 -5.48993 0
M  V30 1165 O 139.516 -0.319861 -6.01049 0
M  V30 1166 H 143.342 -1.15229 -2.80991 0
M  V30 1167 H 140.927 -0.627103 -1.35602 0
M  V30 1168 H 142.809 0.927156 -4.11074 0
M  V30 1169 H 141.484 1.28683 -2.97022 0
M  V30 1170 H 140.391 -0.937013 -3.62175 0
M  V30 1171 H 141.724 -1.21375 -4.77 0
M  V30 1172 N 143.376 1.44774 -0.622745 0
M  V30 1173 C 144.622 2.0242 -0.124083 0
M  V30 1174 C 144.955 1.4881 1.24777 0
M  V30 1175 O 144.23 0.668799 1.8264 0
M  V30 1176 C 144.513 3.59957 -0.101619 0
M  V30 1177 C 144.366 4.23867 -1.50521 0
M  V30 1178 C 145.685 4.36284 0.578272 0
M  V30 1179 H 142.804 0.735528 -0.0465645 0
M  V30 1180 H 145.446 1.72447 -0.797617 0
M  V30 1181 H 143.596 3.85623 0.471934 0
M  V30 1182 H 145.268 4.09336 -2.12701 0
M  V30 1183 H 143.511 3.81684 -2.06154 0
M  V30 1184 H 144.182 5.32843 -1.4416 0
M  V30 1185 H 146.658 4.16001 0.0906057 0
M  V30 1186 H 145.534 5.46004 0.563149 0
M  V30 1187 H 145.795 4.10271 1.64713 0
M  V30 1188 N 144.854 0.36279 1.53368 0
M  V30 1189 C 146.27 0.0116182 1.59596 0
M  V30 1190 C 146.47 -1.47012 1.37803 0
M  V30 1191 O 145.526 -2.23136 1.18181 0
M  V30 1192 C 146.839 0.465052 2.97082 0
M  V30 1193 C 148.387 0.419033 3.10182 0
M  V30 1194 C 148.862 0.848235 4.50077 0
M  V30 1195 N 150.353 0.803183 4.56183 0
M  V30 1196 C 151.088 1.107 5.62613 0
M  V30 1197 N 150.584 1.47996 6.76808 0
M  V30 1198 N 152.377 1.02998 5.52583 0
M  V30 1199 H 144.528 1.32775 1.65785 0
M  V30 1200 H 146.791 0.542518 0.777417 0
M  V30 1201 H 146.497 1.49892 3.18159 0
M  V30 1202 H 146.371 -0.149786 3.76902 0
M  V30 1203 H 148.758 -0.605696 2.88817 0
M  V30 1204 H 148.839 1.06933 2.32377 0
M  V30 1205 H 148.483 1.87107 4.7218 0
M  V30 1206 H 148.413 0.175218 5.26308 0
M  V30 1207 H 150.904 0.52838 3.74188 0
M  V30 1208 H 151.217 1.69613 7.53957 0
M  V30 1209 H 149.562 1.51859 6.78206 0
M  V30 1210 H 152.753 0.737817 4.62249 0
M  V30 1211 H 152.926 1.2701 6.35431 0
M  V30 1212 N 146.332 -1.57332 0.0918853 0
M  V30 1213 C 147.264 -2.10869 -0.898168 0
M  V30 1214 C 148.277 -1.04521 -1.24817 0
M  V30 1215 O 149.466 -1.31977 -1.20184 0
M  V30 1216 C 146.566 -2.57083 -2.2082 0
M  V30 1217 C 145.739 -3.87229 -2.03402 0
M  V30 1218 C 144.798 -4.19324 -3.17889 0
M  V30 1219 O 143.824 -4.88598 -2.91994 0
M  V30 1220 N 145.026 -3.74471 -4.43567 0
M  V30 1221 H 147.791 -2.96439 -0.440943 0
M  V30 1222 H 145.352 -1.61631 -0.0933064 0
M  V30 1223 H 147.344 -2.75602 -2.96354 0
M  V30 1224 H 145.914 -1.76541 -2.57977 0
M  V30 1225 H 145.134 -3.7789 -1.12218 0
M  V30 1226 H 146.422 -4.72379 -1.89038 0
M  V30 1227 H 145.82 -3.18546 -4.67488 0
M  V30 1228 H 144.377 -3.98151 -5.16061 0
M  V30 1229 N 147.81 0.181792 -1.56548 0
M  V30 1230 C 149.057 0.900097 -1.81396 0
M  V30 1231 C 149.385 1.82695 -0.667281 0
M  V30 1232 O 148.64 1.92614 0.346146 0
M  V30 1233 C 148.939 1.73728 -3.12335 0
M  V30 1234 C 148.605 0.960255 -4.40556 0
M  V30 1235 C 147.267 0.745766 -4.75386 0
M  V30 1236 C 149.619 0.414477 -5.19549 0
M  V30 1237 C 146.947 -0.0257694 -5.86694 0
M  V30 1238 C 149.299 -0.343916 -6.31664 0
M  V30 1239 C 147.963 -0.569301 -6.65068 0
M  V30 1240 H 147.233 0.329369 -0.663775 0
M  V30 1241 H 149.88 0.165647 -1.90782 0
M  V30 1242 H 148.185 2.54081 -2.98245 0
M  V30 1243 H 149.882 2.29591 -3.28769 0
M  V30 1244 H 146.472 1.13746 -4.13231 0
M  V30 1245 H 150.656 0.567554 -4.93044 0
M  V30 1246 H 145.912 -0.210233 -6.11038 0
M  V30 1247 H 150.086 -0.774133 -6.92084 0
M  V30 1248 H 147.713 -1.16903 -7.51158 0
M  V30 1249 N 149.288 1.51039 0.449983 0
M  V30 1250 C 150.704 1.38934 0.785462 0
M  V30 1251 C 150.904 0.461817 1.96136 0
M  V30 1252 O 149.96 -0.0877389 2.52348 0
M  V30 1253 C 151.273 2.80724 1.0777 0
M  V30 1254 C 152.821 2.89787 1.1829 0
M  V30 1255 C 153.296 4.32457 1.50815 0
M  V30 1256 N 154.787 4.35505 1.57764 0
M  V30 1257 C 155.522 5.42914 1.84477 0
M  V30 1258 N 155.018 6.60502 2.09068 0
M  V30 1259 N 156.811 5.3038 1.86155 0
M  V30 1260 H 148.962 2.09904 -0.324647 0
M  V30 1261 H 151.225 0.944378 -0.0827957 0
M  V30 1262 H 150.931 3.50531 0.286498 0
M  V30 1263 H 150.805 3.19273 2.00859 0
M  V30 1264 H 153.192 2.20186 1.96474 0
M  V30 1265 H 153.273 2.54752 0.231314 0
M  V30 1266 H 152.917 5.02603 0.731622 0
M  V30 1267 H 152.847 4.64995 2.47158 0
M  V30 1268 H 155.338 3.50724 1.40715 0
M  V30 1269 H 155.651 7.38158 2.28785 0
M  V30 1270 H 153.996 6.63639 2.06416 0
M  V30 1271 H 157.187 4.37505 1.66454 0
M  V30 1272 H 157.36 6.1417 2.06637 0
M  V30 1273 N 150.766 -0.704594 1.40972 0
M  V30 1274 C 152.182 -1.01406 1.23244 0
M  V30 1275 C 152.382 -2.01169 0.115399 0
M  V30 1276 O 151.438 -2.47021 -0.523147 0
M  V30 1277 C 152.751 -1.54728 2.57836 0
M  V30 1278 C 154.299 -1.66658 2.64942 0
M  V30 1279 C 154.774 -2.23383 3.9983 0
M  V30 1280 N 156.265 -2.30756 4.01629 0
M  V30 1281 C 157 -2.75655 5.02794 0
M  V30 1282 N 156.496 -3.20225 6.14352 0
M  V30 1283 N 158.289 -2.75138 4.90159 0
M  V30 1284 H 150.44 -0.0435285 2.12355 0
M  V30 1285 H 152.703 -0.0818951 0.944456 0
M  V30 1286 H 152.409 -0.888832 3.40283 0
M  V30 1287 H 152.283 -2.53084 2.79693 0
M  V30 1288 H 154.67 -2.31617 1.8286 0
M  V30 1289 H 154.751 -0.668717 2.46904 0
M  V30 1290 H 154.395 -1.59043 4.82357 0
M  V30 1291 H 154.325 -3.23904 4.15203 0
M  V30 1292 H 156.816 -1.99291 3.21079 0
M  V30 1293 H 157.129 -3.53084 6.87424 0
M  V30 1294 H 155.474 -3.18156 6.17901 0
M  V30 1295 H 158.665 -2.39661 4.02095 0
M  V30 1296 H 158.838 -3.09812 5.6914 0
M  V30 1297 N 152.244 -1.26651 -0.937939 0
M  V30 1298 C 153.174 -1.10993 -2.05433 0
M  V30 1299 C 154.155 -0.0142161 -1.70094 0
M  V30 1300 O 155.34 -0.186837 -1.93299 0
M  V30 1301 C 152.47 -0.745561 -3.39203 0
M  V30 1302 C 151.424 -1.79337 -3.88616 0
M  V30 1303 C 150.75 -1.28324 -5.19073 0
M  V30 1304 C 152.05 -3.19553 -4.13138 0
M  V30 1305 H 153.744 -2.0438 -2.1879 0
M  V30 1306 H 151.29 -0.984041 -1.05131 0
M  V30 1307 H 153.243 -0.622888 -4.16771 0
M  V30 1308 H 151.967 0.22401 -3.25831 0
M  V30 1309 H 150.626 -1.90477 -3.13231 0
M  V30 1310 H 150.274 -0.303414 -5.02084 0
M  V30 1311 H 149.974 -1.98369 -5.53103 0
M  V30 1312 H 151.498 -1.1733 -5.99221 0
M  V30 1313 H 152.912 -3.11471 -4.81309 0
M  V30 1314 H 151.309 -3.87218 -4.58457 0
M  V30 1315 H 152.379 -3.65368 -3.18801 0
M  V30 1316 N 153.722 1.14298 -1.08507 0
M  V30 1317 C 154.969 1.85359 -0.815373 0
M  V30 1318 C 155.297 1.83001 0.658865 0
M  V30 1319 O 154.552 1.25655 1.50031 0
M  V30 1320 C 154.851 3.33547 -1.28379 0
M  V30 1321 C 154.517 3.56093 -2.76602 0
M  V30 1322 C 153.179 3.61955 -3.17084 0
M  V30 1323 C 155.531 3.64834 -3.72217 0
M  V30 1324 C 152.859 3.74082 -4.51973 0
M  V30 1325 C 155.211 3.78487 -5.06883 0
M  V30 1326 C 153.875 3.82598 -5.46969 0
M  V30 1327 H 153.145 0.678276 -0.298366 0
M  V30 1328 H 155.792 1.35002 -1.35819 0
M  V30 1329 H 154.097 3.86191 -0.660593 0
M  V30 1330 H 155.794 3.86959 -1.05186 0
M  V30 1331 H 152.384 3.52179 -2.4427 0
M  V30 1332 H 156.568 3.59595 -3.42061 0
M  V30 1333 H 151.824 3.75527 -4.82483 0
M  V30 1334 H 155.998 3.84193 -5.80834 0
M  V30 1335 H 153.625 3.91747 -6.51489 0
M  V30 1336 N 155.201 0.870884 1.31352 0
M  V30 1337 C 156.164 0.332243 2.26779 0
M  V30 1338 C 157.164 -0.517302 1.52252 0
M  V30 1339 O 158.354 -0.326477 1.71113 0
M  V30 1340 C 155.486 -0.528066 3.36785 0
M  V30 1341 H 156.679 1.17469 2.75937 0
M  V30 1342 H 154.232 0.64655 1.423 0
M  V30 1343 H 154.967 -1.39167 2.92922 0
M  V30 1344 H 154.752 0.0802582 3.92018 0
M  V30 1345 H 156.242 -0.897179 4.07849 0
M  V30 1346 N 156.679 -1.44442 0.630414 0
M  V30 1347 C 157.611 -2.2892 -0.113347 0
M  V30 1348 C 158.624 -1.41243 -0.80959 0
M  V30 1349 O 159.813 -1.65402 -0.671156 0
M  V30 1350 C 156.913 -3.17594 -1.18266 0
M  V30 1351 C 156.086 -4.33682 -0.569073 0
M  V30 1352 C 155.145 -5.03397 -1.53226 0
M  V30 1353 O 154.171 -5.59438 -1.04967 0
M  V30 1354 N 155.373 -5.04783 -2.86661 0
M  V30 1355 H 158.138 -2.93392 0.611636 0
M  V30 1356 H 155.699 -1.54881 0.471523 0
M  V30 1357 H 157.691 -3.61097 -1.82732 0
M  V30 1358 H 156.261 -2.54876 -1.80988 0
M  V30 1359 H 155.481 -3.9338 0.254187 0
M  V30 1360 H 156.769 -5.08608 -0.139767 0
M  V30 1361 H 156.167 -4.60584 -3.28449 0
M  V30 1362 H 154.724 -5.52077 -3.46489 0
M  V30 1363 N 158.157 -0.370918 -1.53173 0
M  V30 1364 C 159.087 0.464847 -2.28826 0
M  V30 1365 C 160.068 1.07936 -1.31468 0
M  V30 1366 O 161.253 1.0956 -1.60344 0
M  V30 1367 C 158.383 1.60196 -3.08147 0
M  V30 1368 C 157.337 1.11443 -4.13237 0
M  V30 1369 C 156.663 2.3422 -4.80672 0
M  V30 1370 C 157.963 0.195384 -5.21934 0
M  V30 1371 H 159.657 -0.166329 -2.98938 0
M  V30 1372 H 157.203 -0.0814359 -1.4377 0
M  V30 1373 H 159.156 2.19332 -3.59822 0
M  V30 1374 H 157.88 2.26045 -2.35735 0
M  V30 1375 H 156.539 0.545727 -3.62515 0
M  V30 1376 H 156.187 2.98537 -4.04827 0
M  V30 1377 H 155.887 2.02269 -5.51689 0
M  V30 1378 H 157.411 2.94032 -5.35143 0
M  V30 1379 H 158.825 0.694375 -5.69079 0
M  V30 1380 H 157.222 -0.0335027 -6.00091 0
M  V30 1381 H 158.292 -0.760961 -4.78892 0
M  V30 1382 N 159.635 1.57281 -0.100228 0
M  V30 1383 C 160.598 2.13158 0.842398 0
M  V30 1384 C 161.598 1.06202 1.20738 0
M  V30 1385 O 162.788 1.32066 1.13597 0
M  V30 1386 C 159.92 2.65639 2.13655 0
M  V30 1387 H 161.113 2.97766 0.357114 0
M  V30 1388 H 158.666 1.5559 0.148823 0
M  V30 1389 H 159.401 1.84566 2.66657 0
M  V30 1390 H 159.186 3.43844 1.88451 0
M  V30 1391 H 160.676 3.08846 2.81077 0
M  V30 1392 N 161.113 -0.173488 1.56642 0
M  V30 1393 C 162.361 -0.888706 1.81512 0
M  V30 1394 C 162.682 -1.82875 0.676872 0
M  V30 1395 O 161.952 -1.93536 -0.303414 0
M  V30 1396 H 160.532 -0.331164 0.669582 0
M  V30 1397 H 163.194 -0.173823 1.94123 0
M  V30 1398 H 162.29 -1.46691 2.75478 0
M  V30 1399 N 162.591 -1.51276 -0.441967 0
M  V30 1400 C 163.868 -1.54252 -1.20273 0
M  V30 1401 C 164.248 -0.30408 -2.08898 0
M  V30 1402 O 163.596 0.711084 -2.17154 0
M  V30 1403 C 163.806 -2.85406 -2.00859 0
M  V30 1404 C 165.154 -3.37181 -2.58059 0
M  V30 1405 O 166.178 -2.86925 -2.11074 0
M  V30 1406 O 165.037 -4.24858 -3.43741 0
M  V30 1407 H 162.131 -0.619969 -0.547328 0
M  V30 1408 H 164.677 -1.63586 -0.451413 0
M  V30 1409 H 163.449 -3.67003 -1.35736 0
M  V30 1410 H 163.072 -2.79213 -2.83065 0
M  V30 1411 N 164.069 0.697108 -1.41344 0
M  V30 1412 C 165.346 1.45154 -1.31109 0
M  V30 1413 C 165.726 2.11009 0.0620449 0
M  V30 1414 O 165.074 2.01571 1.07618 0
M  V30 1415 C 165.284 2.47223 -2.46337 0
M  V30 1416 C 166.632 3.1252 -2.87431 0
M  V30 1417 O 167.656 2.57547 -2.46065 0
M  V30 1418 O 166.515 4.12083 -3.58957 0
M  V30 1419 H 163.609 0.646365 -0.515889 0
M  V30 1420 H 166.155 0.727716 -1.53305 0
M  V30 1421 H 164.927 1.97204 -3.37974 0
M  V30 1422 H 164.55 3.27116 -2.2601 0
M  V30 1423 N 165.547 1.27147 0.931209 0
M  V30 1424 C 166.48 1.0389 2.0318 0
M  V30 1425 C 167.458 -0.0395716 1.62552 0
M  V30 1426 O 168.642 0.104867 1.88208 0
M  V30 1427 C 165.769 0.575227 3.3378 0
M  V30 1428 C 164.815 1.64774 3.93385 0
M  V30 1429 S 165.648 3.23933 4.26413 0
M  V30 1430 C 166.804 2.79358 5.60098 0
M  V30 1431 H 167.037 1.97075 2.22596 0
M  V30 1432 H 164.57 1.10938 1.07387 0
M  V30 1433 H 166.528 0.314385 4.09294 0
M  V30 1434 H 165.189 -0.336505 3.12292 0
M  V30 1435 H 164.382 1.27454 4.87618 0
M  V30 1436 H 163.984 1.86048 3.24441 0
M  V30 1437 H 166.276 2.24443 6.39243 0
M  V30 1438 H 167.219 3.72322 6.02314 0
M  V30 1439 H 167.627 2.1861 5.20452 0
M  V30 1440 N 167.025 -1.13721 1.09112 0
M  V30 1441 C 167.935 -2.22638 0.73957 0
M  V30 1442 C 168.951 -1.72091 -0.257068 0
M  V30 1443 O 170.127 -2.01155 -0.0992154 0
M  V30 1444 C 167.192 -3.46322 0.16191 0
M  V30 1445 C 166.253 -4.11775 1.21408 0
M  V30 1446 C 165.486 -5.29555 0.663891 0
M  V30 1447 O 165.709 -5.68077 -0.514274 0
M  V30 1448 O 164.643 -5.84973 1.41738 0
M  V30 1449 H 168.469 -2.55074 1.64836 0
M  V30 1450 H 166.054 -1.21791 0.865289 0
M  V30 1451 H 167.936 -4.21107 -0.157073 0
M  V30 1452 H 166.611 -3.15593 -0.719932 0
M  V30 1453 H 165.518 -3.3883 1.58571 0
M  V30 1454 H 166.851 -4.46627 2.06845 0
M  V30 1455 N 168.503 -0.877838 -1.30888 0
M  V30 1456 C 169.749 -0.493426 -1.96706 0
M  V30 1457 C 170.082 0.953504 -1.6918 0
M  V30 1458 O 169.357 1.67266 -0.992594 0
M  V30 1459 C 169.64 -0.760429 -3.51979 0
M  V30 1460 C 169.493 -2.25747 -3.89048 0
M  V30 1461 C 170.812 -0.232148 -4.39487 0
M  V30 1462 H 167.931 -0.180746 -0.714493 0
M  V30 1463 H 170.573 -1.10052 -1.54882 0
M  V30 1464 H 168.723 -0.243715 -3.87735 0
M  V30 1465 H 170.395 -2.84204 -3.63354 0
M  V30 1466 H 168.638 -2.72694 -3.37373 0
M  V30 1467 H 169.309 -2.39491 -4.97341 0
M  V30 1468 H 171.785 -0.674314 -4.106 0
M  V30 1469 H 170.661 -0.448355 -5.47066 0
M  V30 1470 H 170.922 0.866297 -4.33529 0
M  V30 1471 N 169.982 1.44106 -0.638065 0
M  V30 1472 C 171.207 2.0685 -0.150916 0
M  V30 1473 C 171.632 1.47417 1.16833 0
M  V30 1474 O 170.99 0.578264 1.71831 0
M  V30 1475 C 171.038 3.60555 -0.05708 0
M  V30 1476 O 170.142 4.00465 0.984972 0
M  V30 1477 H 169.483 0.658151 -0.0879399 0
M  V30 1478 H 172.013 1.84865 -0.876707 0
M  V30 1479 H 172.023 4.07789 0.131232 0
M  V30 1480 H 170.698 4.03193 -1.02021 0
M  V30 1481 H 169.275 3.64849 0.770672 0
M  V30 1482 N 171.46 0.379036 1.52974 0
M  V30 1483 C 172.423 -0.448865 2.24762 0
M  V30 1484 C 173.423 -0.998689 1.26027 0
M  V30 1485 O 174.613 -0.882313 1.50203 0
M  V30 1486 C 171.745 -1.62872 2.99476 0
M  V30 1487 H 172.938 0.179491 2.99362 0
M  V30 1488 H 170.491 0.13096 1.5575 0
M  V30 1489 H 171.226 -2.29479 2.29151 0
M  V30 1490 H 171.011 -1.24128 3.71934 0
M  V30 1491 H 172.501 -2.2151 3.5401 0
M  V30 1492 N 172.938 -1.57226 0.108567 0
M  V30 1493 C 174.166 -1.99179 -0.559954 0
M  V30 1494 C 174.581 -0.988022 -1.60884 0
M  V30 1495 O 173.938 0.0205512 -1.82488 0
M  V30 1496 C 173.989 -3.41159 -1.19552 0
M  V30 1497 O 173.71 -4.37694 -0.188577 0
M  V30 1498 C 175.211 -3.98188 -1.94837 0
M  V30 1499 H 172.431 -0.654228 -0.149088 0
M  V30 1500 H 174.975 -2.03598 0.19183 0
M  V30 1501 H 173.13 -3.37711 -1.89815 0
M  V30 1502 H 173.544 -5.20469 -0.649014 0
M  V30 1503 H 175.018 -4.99644 -2.34648 0
M  V30 1504 H 175.495 -3.3675 -2.81951 0
M  V30 1505 H 176.101 -4.0515 -1.2936 0
M  V30 1506 N 174.416 0.165178 -1.56732 0
M  V30 1507 C 175.326 1.22423 -2.00125 0
M  V30 1508 C 176.342 1.48084 -0.913619 0
M  V30 1509 O 177.518 1.60112 -1.22172 0
M  V30 1510 C 174.583 2.54197 -2.35764 0
M  V30 1511 C 173.644 2.36343 -3.58386 0
M  V30 1512 C 172.877 3.61834 -3.92316 0
M  V30 1513 O 173.1 4.67267 -3.27135 0
M  V30 1514 O 172.034 3.55579 -4.85641 0
M  V30 1515 H 175.86 0.885886 -2.90492 0
M  V30 1516 H 173.445 0.372518 -1.44681 0
M  V30 1517 H 175.327 3.3192 -2.59629 0
M  V30 1518 H 174.002 2.87598 -1.48557 0
M  V30 1519 H 172.909 1.56632 -3.39731 0
M  V30 1520 H 174.242 2.07865 -4.46154 0
M  V30 1521 N 175.894 1.51508 0.433938 0
M  V30 1522 C 176.824 1.76016 1.53429 0
M  V30 1523 C 177.805 0.610112 1.58782 0
M  V30 1524 O 178.99 0.853177 1.74455 0
M  V30 1525 C 176.12 1.88831 2.9148 0
M  V30 1526 C 175.074 3.04288 3.00987 0
M  V30 1527 C 174.4 3.0229 4.4105 0
M  V30 1528 C 175.7 4.44193 2.74754 0
M  V30 1529 H 177.394 2.68152 1.33171 0
M  V30 1530 H 174.94 1.29035 0.639214 0
M  V30 1531 H 176.893 2.04559 3.6842 0
M  V30 1532 H 175.617 0.933455 3.12976 0
M  V30 1533 H 174.276 2.8827 2.26486 0
M  V30 1534 H 173.924 2.04576 4.59519 0
M  V30 1535 H 173.624 3.79822 4.4834 0
M  V30 1536 H 175.148 3.20116 5.1996 0
M  V30 1537 H 176.562 4.60544 3.41426 0
M  V30 1538 H 174.959 5.23457 2.9345 0
M  V30 1539 H 176.029 4.53996 1.70339 0
M  V30 1540 N 177.372 -0.689602 1.41712 0
M  V30 1541 C 178.305 -1.81403 1.3845 0
M  V30 1542 C 179.283 -1.60653 0.250874 0
M  V30 1543 O 180.467 -1.83323 0.43874 0
M  V30 1544 C 177.594 -3.18176 1.1611 0
M  V30 1545 C 176.64 -3.57705 2.3227 0
M  V30 1546 S 177.473 -3.61827 3.94767 0
M  V30 1547 C 178.629 -5.01318 3.74742 0
M  V30 1548 H 178.862 -1.83893 2.33603 0
M  V30 1549 H 176.395 -0.858878 1.28307 0
M  V30 1550 H 178.353 -3.97132 1.03907 0
M  V30 1551 H 177.014 -3.13288 0.225668 0
M  V30 1552 H 176.207 -4.57082 2.12349 0
M  V30 1553 H 175.809 -2.86073 2.40911 0
M  V30 1554 H 178.101 -5.88986 3.34817 0
M  V30 1555 H 179.044 -5.26283 4.73743 0
M  V30 1556 H 179.452 -4.73138 3.07898 0
M  V30 1557 N 178.85 -1.27639 -0.924453 0
M  V30 1558 C 179.798 -1.10485 -2.04685 0
M  V30 1559 C 180.792 -0.0270421 -1.69378 0
M  V30 1560 O 181.998 -0.185008 -1.79047 0
M  V30 1561 H 178.373 -0.340546 -0.670472 0
M  V30 1562 H 180.344 -2.05566 -2.16298 0
M  V30 1563 C 179.093 -0.772229 -3.39016 0
M  V30 1564 H 178.416 -1.59351 -3.66671 0
M  V30 1565 H 179.856 -0.692097 -4.18313 0
M  V30 1566 C 178.315 0.523554 -3.32807 0
M  V30 1567 O 178.845 1.55702 -3.70297 0
M  V30 1568 N 177.051 0.520363 -2.85903 0
M  V30 1569 H 176.598 -0.32107 -2.55591 0
M  V30 1570 H 176.556 1.38742 -2.82131 0
M  V30 1571 N 180.328 1.1314 -1.09713 0
M  V30 1572 C 181.577 1.83838 -0.829851 0
M  V30 1573 C 181.89 1.84599 0.646728 0
M  V30 1574 O 183.096 2.51218 1.02965 0
M  V30 1575 C 181.552 3.30069 -1.43466 0
M  V30 1576 C 181.16 3.37688 -2.94399 0
M  V30 1577 C 182.904 4.05788 -1.24645 0
M  V30 1578 C 180.811 4.78209 -3.47952 0
M  V30 1579 H 179.741 0.68877 -0.306777 0
M  V30 1580 H 182.392 1.27448 -1.3202 0
M  V30 1581 H 180.774 3.8628 -0.871996 0
M  V30 1582 H 181.948 2.91456 -3.56918 0
M  V30 1583 H 180.263 2.75436 -3.12289 0
M  V30 1584 H 182.86 5.09535 -1.62107 0
M  V30 1585 H 183.203 4.15878 -0.187357 0
M  V30 1586 H 183.736 3.55915 -1.77678 0
M  V30 1587 H 180.475 4.73311 -4.53495 0
M  V30 1588 H 179.995 5.24924 -2.90198 0
M  V30 1589 H 181.674 5.47133 -3.45332 0
M  V30 1590 N 181.806 0.884767 1.30421 0
M  V30 1591 C 182.736 0.367574 2.30589 0
M  V30 1592 C 183.717 -0.549464 1.60981 0
M  V30 1593 O 184.902 -0.46336 1.88591 0
M  V30 1594 C 182.032 -0.418944 3.44764 0
M  V30 1595 C 180.986 0.406316 4.26067 0
M  V30 1596 C 180.312 -0.506793 5.32293 0
M  V30 1597 C 181.612 1.64832 4.95608 0
M  V30 1598 H 183.306 1.20462 2.74097 0
M  V30 1599 H 180.852 0.580695 1.31772 0
M  V30 1600 H 182.805 -0.791395 4.13902 0
M  V30 1601 H 181.529 -1.28964 3.0006 0
M  V30 1602 H 180.188 0.760903 3.58617 0
M  V30 1603 H 179.836 -1.37519 4.83836 0
M  V30 1604 H 179.536 0.0415828 5.87585 0
M  V30 1605 H 181.06 -0.875764 6.04287 0
M  V30 1606 H 182.474 1.34646 5.57264 0
M  V30 1607 H 180.871 2.13688 5.60765 0
M  V30 1608 H 181.941 2.39284 4.21748 0
M  V30 1609 N 183.284 -1.43765 0.645699 0
M  V30 1610 C 184.232 -2.32516 -0.0624849 0
M  V30 1611 C 185.226 -1.48183 -0.820855 0
M  V30 1612 O 186.432 -1.64439 -0.732106 0
M  V30 1613 H 182.807 -0.750989 -0.0389864 0
M  V30 1614 H 184.778 -2.89979 0.703892 0
M  V30 1615 C 183.527 -3.32389 -1.02044 0
M  V30 1616 H 182.85 -3.97301 -0.446312 0
M  V30 1617 H 184.29 -3.97138 -1.48517 0
M  V30 1618 C 182.749 -2.62416 -2.11281 0
M  V30 1619 O 183.279 -2.434 -3.19561 0
M  V30 1620 N 181.485 -2.21913 -1.87624 0
M  V30 1621 H 181.032 -2.37578 -0.995703 0
M  V30 1622 H 180.99 -1.75424 -2.6091 0
M  V30 1623 N 184.763 -0.387143 -1.52771 0
M  V30 1624 C 185.71 0.449048 -2.26389 0
M  V30 1625 C 186.68 1.05961 -1.27912 0
M  V30 1626 O 187.865 1.08804 -1.56737 0
M  V30 1627 C 185.005 1.57155 -3.0724 0
M  V30 1628 C 184.118 0.984066 -4.20643 0
M  V30 1629 C 183.253 2.07745 -4.88892 0
M  V30 1630 C 182.292 1.46574 -5.94292 0
M  V30 1631 N 181.429 2.49834 -6.56146 0
M  V30 1632 H 186.269 -0.185205 -2.97424 0
M  V30 1633 H 183.806 -0.103164 -1.46738 0
M  V30 1634 H 185.764 2.23309 -3.52405 0
M  V30 1635 H 184.394 2.17615 -2.38419 0
M  V30 1636 H 183.446 0.212193 -3.79808 0
M  V30 1637 H 184.758 0.497029 -4.96318 0
M  V30 1638 H 183.912 2.81673 -5.3735 0
M  V30 1639 H 182.651 2.59807 -4.12737 0
M  V30 1640 H 181.656 0.711696 -5.45174 0
M  V30 1641 H 182.881 0.953088 -6.72379 0
M  V30 1642 H 180.827 3.0107 -5.82832 0
M  V30 1643 H 180.744 2.05879 -7.27427 0
M  V30 1644 H 182.012 3.23399 -7.09249 0
M  V30 1645 N 186.241 1.57166 -0.116904 0
M  V30 1646 C 187.487 1.95412 0.542405 0
M  V30 1647 C 187.82 1.00019 1.66463 0
M  V30 1648 O 187.095 0.0370346 1.94465 0
M  V30 1649 C 187.378 3.43615 1.07708 0
M  V30 1650 C 187.231 4.49781 -0.0415868 0
M  V30 1651 C 188.55 3.93616 1.96861 0
M  V30 1652 H 185.669 0.710543 0.195696 0
M  V30 1653 H 188.311 1.89027 -0.192038 0
M  V30 1654 H 186.461 3.49187 1.70296 0
M  V30 1655 H 188.133 4.56308 -0.676793 0
M  V30 1656 H 186.376 4.28033 -0.705019 0
M  V30 1657 H 187.047 5.50733 0.373717 0
M  V30 1658 H 189.523 3.90335 1.44146 0
M  V30 1659 H 188.399 4.97838 2.3119 0
M  V30 1660 H 188.66 3.34188 2.89432 0
M  V30 1661 N 187.719 -0.156864 1.56817 0
M  V30 1662 C 188.965 -0.872416 1.83076 0
M  V30 1663 C 189.298 -1.81261 0.697001 0
M  V30 1664 O 188.573 -1.92171 -0.30008 0
M  V30 1665 C 188.856 -1.65551 3.19789 0
M  V30 1666 C 188.709 -0.737467 4.43713 0
M  V30 1667 C 190.028 -2.62012 3.53606 0
M  V30 1668 H 187.147 -0.315715 0.665953 0
M  V30 1669 H 189.789 -0.138004 1.89498 0
M  V30 1670 H 187.939 -2.28159 3.14445 0
M  V30 1671 H 189.611 -0.123143 4.61136 0
M  V30 1672 H 187.854 -0.0464067 4.33775 0
M  V30 1673 H 188.525 -1.32122 5.35955 0
M  V30 1674 H 191.001 -2.09525 3.59497 0
M  V30 1675 H 189.877 -3.13861 4.50314 0
M  V30 1676 H 190.138 -3.42902 2.79053 0
M  V30 1677 N 189.197 -1.51736 -0.425897 0
M  V30 1678 C 190.425 -1.68794 -1.1965 0
M  V30 1679 C 190.84 -0.390164 -1.84725 0
M  V30 1680 O 190.197 0.632376 -1.71194 0
M  V30 1681 C 190.248 -2.81174 -2.27208 0
M  V30 1682 O 189.969 -4.05925 -1.64793 0
M  V30 1683 C 191.47 -3.09599 -3.17275 0
M  V30 1684 H 188.69 -0.566128 -0.360194 0
M  V30 1685 H 191.234 -1.98211 -0.503249 0
M  V30 1686 H 189.389 -2.54324 -2.9223 0
M  V30 1687 H 189.803 -4.68423 -2.35967 0
M  V30 1688 H 191.277 -3.91786 -3.88854 0
M  V30 1689 H 191.754 -2.22468 -3.78688 0
M  V30 1690 H 192.36 -3.38151 -2.57941 0
M  V30 1691 N 190.675 0.682077 -1.42076 0
M  V30 1692 C 192.091 0.994324 -1.24841 0
M  V30 1693 C 192.291 2.0096 -0.147389 0
M  V30 1694 O 191.347 2.47822 0.483782 0
M  V30 1695 C 192.66 1.50607 -2.60265 0
M  V30 1696 C 194.208 1.62421 -2.6756 0
M  V30 1697 C 194.683 2.16994 -4.03333 0
M  V30 1698 N 196.174 2.24337 -4.0525 0
M  V30 1699 C 196.909 2.67621 -5.07116 0
M  V30 1700 N 196.405 3.1041 -6.19368 0
M  V30 1701 N 198.198 2.67305 -4.94474 0
M  V30 1702 H 190.349 0.00973908 -2.12398 0
M  V30 1703 H 192.612 0.0668593 -0.945639 0
M  V30 1704 H 192.318 0.834583 -3.41654 0
M  V30 1705 H 192.192 2.48602 -2.83684 0
M  V30 1706 H 194.579 2.28678 -1.86521 0
M  V30 1707 H 194.66 0.629352 -2.47937 0
M  V30 1708 H 194.304 1.51349 -4.84826 0
M  V30 1709 H 194.234 3.17258 -4.20304 0
M  V30 1710 H 196.725 1.94158 -3.24209 0
M  V30 1711 H 197.038 3.42103 -6.92954 0
M  V30 1712 H 195.383 3.08286 -6.22884 0
M  V30 1713 H 198.574 2.33233 -4.05857 0
M  V30 1714 H 198.747 3.00718 -5.73997 0
M  V30 1715 N 192.153 1.28127 0.917671 0
M  V30 1716 C 193.103 1.08361 2.00604 0
M  V30 1717 C 194.087 0.00847518 1.60898 0
M  V30 1718 O 195.279 0.228167 1.75523 0
M  V30 1719 C 192.408 0.743376 3.35155 0
M  V30 1720 C 191.494 1.85716 3.81275 0
M  V30 1721 N 191.885 3.09822 3.99805 0
M  V30 1722 C 190.183 1.74612 4.10398 0
M  V30 1723 C 190.884 3.82368 4.38372 0
M  V30 1724 N 189.86 3.10192 4.4641 0
M  V30 1725 H 193.662 2.02531 2.12975 0
M  V30 1726 H 191.176 1.18989 1.10523 0
M  V30 1727 H 193.173 0.582859 4.12805 0
M  V30 1728 H 191.833 -0.190595 3.2414 0
M  V30 1729 H 192.844 3.45475 3.85833 0
M  V30 1730 H 189.521 0.883657 4.08041 0
M  V30 1731 H 190.911 4.89082 4.60704 0
M  V30 1732 N 193.631 -1.12557 1.10312 0
M  V30 1733 C 195.042 -1.65574 0.862678 0
M  V30 1734 C 195.393 -1.86566 -0.607256 0
M  V30 1735 O 194.518 -1.59121 -1.46662 0
M  V30 1736 C 195.113 -3.00776 1.55947 0
M  V30 1737 C 193.672 -3.50748 1.36576 0
M  V30 1738 C 192.819 -2.25797 1.60968 0
M  V30 1739 H 195.77 -0.963552 1.26101 0
M  V30 1740 H 195.791 -3.67185 0.997753 0
M  V30 1741 H 195.303 -2.85465 2.62928 0
M  V30 1742 H 193.404 -3.71245 0.317531 0
M  V30 1743 H 193.517 -4.30289 2.10686 0
M  V30 1744 H 191.881 -2.32841 1.03234 0
M  V30 1745 H 192.664 -2.13043 2.69198 0
M  V30 1746 N 195.109 -0.891671 -1.2995 0
M  V30 1747 C 196.386 -0.433307 -1.9074 0
M  V30 1748 C 196.766 1.08646 -1.80995 0
M  V30 1749 O 196.114 1.92476 -1.23147 0
M  V30 1750 C 196.324 -0.938895 -3.36134 0
M  V30 1751 C 197.672 -0.977829 -4.13187 0
M  V30 1752 O 198.696 -0.886015 -3.45005 0
M  V30 1753 O 197.555 -1.11453 -5.35015 0
M  V30 1754 H 194.649 -0.133699 -0.816121 0
M  V30 1755 H 197.195 -0.981011 -1.38471 0
M  V30 1756 H 195.967 -1.98281 -3.37343 0
M  V30 1757 H 195.59 -0.37074 -3.95868 0
M  V30 1758 N 196.587 1.43421 -0.653314 0
M  V30 1759 C 197.517 2.33487 0.0246656 0
M  V30 1760 C 198.498 1.49475 0.811863 0
M  V30 1761 O 199.683 1.78139 0.773322 0
M  V30 1762 C 196.813 3.32841 0.99166 0
M  V30 1763 C 195.767 4.26842 0.314568 0
M  V30 1764 C 195.093 5.16236 1.39302 0
M  V30 1765 C 196.393 5.16243 -0.793095 0
M  V30 1766 H 198.087 2.90427 -0.727481 0
M  V30 1767 H 195.633 1.39649 -0.351287 0
M  V30 1768 H 197.586 3.94747 1.47487 0
M  V30 1769 H 196.31 2.74158 1.77497 0
M  V30 1770 H 194.969 3.663 -0.148199 0
M  V30 1771 H 194.617 4.53891 2.16776 0
M  V30 1772 H 194.317 5.79948 0.945223 0
M  V30 1773 H 195.841 5.81015 1.87759 0
M  V30 1774 H 197.255 5.71958 -0.392039 0
M  V30 1775 H 195.652 5.88676 -1.16536 0
M  V30 1776 H 196.722 4.55927 -1.65103 0
M  V30 1777 N 198.065 0.39524 1.52563 0
M  V30 1778 C 199.012 -0.437036 2.26624 0
M  V30 1779 C 199.982 -1.05281 1.28472 0
M  V30 1780 O 201.167 -1.07971 1.57311 0
M  V30 1781 C 198.307 -1.55524 3.08069 0
M  V30 1782 C 197.42 -0.961745 4.21158 0
M  V30 1783 C 196.555 -2.05149 4.89987 0
M  V30 1784 C 195.594 -1.4342 5.95061 0
M  V30 1785 N 194.731 -2.46351 6.57462 0
M  V30 1786 H 199.571 0.200976 2.97322 0
M  V30 1787 H 197.108 0.110944 1.46681 0
M  V30 1788 H 199.066 -2.21437 3.53584 0
M  V30 1789 H 197.696 -2.16348 2.3957 0
M  V30 1790 H 196.748 -0.192048 3.79915 0
M  V30 1791 H 198.06 -0.470701 4.96574 0
M  V30 1792 H 197.214 -2.78819 5.38837 0
M  V30 1793 H 195.953 -2.57615 4.14109 0
M  V30 1794 H 194.958 -0.682774 5.45544 0
M  V30 1795 H 196.183 -0.917416 6.72875 0
M  V30 1796 H 194.129 -2.97975 5.8442 0
M  V30 1797 H 194.046 -2.02019 7.28508 0
M  V30 1798 H 195.314 -3.19633 7.10954 0
M  V30 1799 N 199.544 -1.57102 0.125237 0
M  V30 1800 C 200.772 -1.99761 -0.538797 0
M  V30 1801 C 201.187 -1.00503 -1.59827 0
M  V30 1802 O 200.544 0.00119474 -1.825 0
M  V30 1803 C 200.595 -3.42408 -1.15927 0
M  V30 1804 O 200.316 -4.37869 -0.142143 0
M  V30 1805 C 201.817 -4.00232 -1.90602 0
M  V30 1806 H 199.037 -0.655772 -0.14214 0
M  V30 1807 H 201.581 -2.03383 0.213413 0
M  V30 1808 H 199.736 -3.39706 -1.86223 0
M  V30 1809 H 200.15 -5.21128 -0.593775 0
M  V30 1810 H 201.624 -5.02105 -2.29335 0
M  V30 1811 H 202.101 -3.39721 -2.78363 0
M  V30 1812 H 202.707 -4.06499 -1.25055 0
M  V30 1813 N 201.022 0.148545 -1.56898 0
M  V30 1814 C 202.299 0.890019 -1.74178 0
M  V30 1815 C 202.679 1.99407 -0.692839 0
M  V30 1816 O 202.027 2.26671 0.288505 0
M  V30 1817 C 202.237 1.43389 -3.18183 0
M  V30 1818 C 203.585 1.89791 -3.79822 0
M  V30 1819 O 204.609 1.53134 -3.21603 0
M  V30 1820 O 203.468 2.57387 -4.82093 0
M  V30 1821 H 200.562 0.420496 -0.712118 0
M  V30 1822 H 203.108 0.134591 -1.69165 0
M  V30 1823 H 201.88 0.640383 -3.86024 0
M  V30 1824 H 201.503 2.25287 -3.27615 0
M  V30 1825 N 202.5 1.5196 0.417844 0
M  V30 1826 C 203.748 1.65263 1.16329 0
M  V30 1827 C 204.069 0.380634 1.91249 0
M  V30 1828 O 203.339 -0.604214 1.86349 0
M  V30 1829 H 201.919 0.60912 0.432414 0
M  V30 1830 H 204.581 1.88969 0.477162 0
M  V30 1831 H 203.677 2.4896 1.88217 0
M  V30 1832 N 203.978 -0.674533 1.42435 0
M  V30 1833 C 205.225 -1.43459 1.42919 0
M  V30 1834 C 205.553 -1.94446 0.0457312 0
M  V30 1835 O 204.808 -1.7132 -0.94593 0
M  V30 1836 C 205.107 -2.64767 2.40069 0
M  V30 1837 C 204.773 -2.3232 3.86443 0
M  V30 1838 C 203.435 -2.23182 4.26314 0
M  V30 1839 C 205.787 -2.05977 4.78773 0
M  V30 1840 C 203.115 -1.85827 5.56494 0
M  V30 1841 C 205.467 -1.70125 6.09295 0
M  V30 1842 C 204.131 -1.59498 6.48164 0
M  V30 1843 H 203.401 -0.524952 0.522978 0
M  V30 1844 H 206.048 -0.769097 1.75377 0
M  V30 1845 H 204.353 -3.36349 2.00939 0
M  V30 1846 H 206.05 -3.22949 2.37707 0
M  V30 1847 H 202.64 -2.40334 3.54877 0
M  V30 1848 H 206.824 -2.11969 4.48757 0
M  V30 1849 H 202.08 -1.76168 5.8547 0
M  V30 1850 H 206.254 -1.48767 6.80324 0
M  V30 1851 H 203.881 -1.30322 7.48946 0
M  V30 1852 N 205.456 -1.28612 -0.910864 0
M  V30 1853 C 206.704 -1.15705 -1.65701 0
M  V30 1854 C 207.025 0.29416 -1.92769 0
M  V30 1855 O 206.295 1.20331 -1.54588 0
M  V30 1856 H 204.875 -0.425216 -0.614167 0
M  V30 1857 H 207.537 -1.61381 -1.0928 0
M  V30 1858 H 206.633 -1.6988 -2.61815 0
M  V30 1859 N 206.934 1.1197 -1.10907 0
M  V30 1860 C 208.183 1.82947 -0.849302 0
M  V30 1861 C 208.496 1.85275 0.627112 0
M  V30 1862 O 209.702 2.52296 1.00295 0
M  V30 1863 C 208.158 3.28529 -1.46959 0
M  V30 1864 C 207.766 3.34546 -2.97965 0
M  V30 1865 C 209.51 4.04443 -1.28942 0
M  V30 1866 C 207.417 4.74491 -3.53004 0
M  V30 1867 H 206.347 0.685477 -0.314065 0
M  V30 1868 H 208.998 1.2604 -1.33365 0
M  V30 1869 H 207.38 3.85333 -0.912917 0
M  V30 1870 H 208.554 2.87654 -3.59989 0
M  V30 1871 H 206.869 2.72108 -3.15192 0
M  V30 1872 H 209.466 5.07787 -1.67502 0
M  V30 1873 H 209.809 4.15656 -0.231456 0
M  V30 1874 H 210.342 3.5401 -1.81443 0
M  V30 1875 H 207.081 4.68474 -4.58489 0
M  V30 1876 H 206.601 5.21816 -2.9575 0
M  V30 1877 H 208.28 5.4344 -3.51115 0
M  V30 1878 N 208.412 0.89855 1.29475 0
M  V30 1879 C 209.689 0.443416 1.90508 0
M  V30 1880 C 210.069 -1.07685 1.81569 0
M  V30 1881 O 209.417 -1.9182 1.24166 0
M  V30 1882 C 209.627 0.956708 3.35631 0
M  V30 1883 C 210.975 0.999728 4.12663 0
M  V30 1884 O 211.999 0.904299 3.4453 0
M  V30 1885 O 210.858 1.14289 5.34416 0
M  V30 1886 H 207.952 0.138025 0.815401 0
M  V30 1887 H 210.498 0.98834 1.37949 0
M  V30 1888 H 209.27 2.00067 3.36287 0
M  V30 1889 H 208.893 0.391728 3.95666 0
M  V30 1890 N 209.89 -1.43072 0.660911 0
M  V30 1891 C 211.118 -2.06067 0.185422 0
M  V30 1892 C 211.533 -1.49582 -1.15198 0
M  V30 1893 O 210.89 -0.630134 -1.71276 0
M  V30 1894 C 210.941 -3.61371 0.0966523 0
M  V30 1895 O 210.662 -4.15758 1.38119 0
M  V30 1896 C 212.163 -4.41455 -0.403996 0
M  V30 1897 H 209.383 -0.664459 0.0934604 0
M  V30 1898 H 211.927 -1.83447 0.90373 0
M  V30 1899 H 210.082 -3.8315 -0.572259 0
M  V30 1900 H 210.496 -5.09499 1.24542 0
M  V30 1901 H 211.97 -5.50437 -0.415045 0
M  V30 1902 H 212.447 -4.15036 -1.43674 0
M  V30 1903 H 213.053 -4.24663 0.232691 0
M  V30 1904 N 211.368 -0.403325 -1.52352 0
M  V30 1905 C 212.608 0.173946 -2.03659 0
M  V30 1906 C 212.972 1.42869 -1.28267 0
M  V30 1907 O 214.173 2.08403 -1.69769 0
M  V30 1908 C 212.444 0.421478 -3.54906 0
M  V30 1909 S 214.003 0.967027 -4.28012 0
M  V30 1910 H 210.821 0.0477461 -0.709395 0
M  V30 1911 H 213.423 -0.554906 -1.87459 0
M  V30 1912 H 212.127 -0.498616 -4.0736 0
M  V30 1913 H 211.658 1.17837 -3.75337 0
M  V30 1914 H 213.673 2.24812 -4.4235 0
M  V30 1915 N 212.846 1.57033 -0.133567 0
M  V30 1916 C 214.262 1.58035 0.222944 0
M  V30 1917 C 214.462 1.14713 1.6566 0
M  V30 1918 O 213.518 0.841218 2.38075 0
M  V30 1919 C 214.831 3.00691 -0.0236116 0
M  V30 1920 C 216.379 3.12973 0.0411512 0
M  V30 1921 C 216.854 4.57654 -0.177899 0
M  V30 1922 N 218.345 4.63033 -0.124365 0
M  V30 1923 C 219.08 5.72771 -0.268553 0
M  V30 1924 N 218.576 6.91206 -0.46972 0
M  V30 1925 N 220.369 5.61718 -0.2071 0
M  V30 1926 H 212.52 1.8349 -1.06981 0
M  V30 1927 H 214.783 0.848677 -0.422436 0
M  V30 1928 H 214.489 3.36726 -1.0153 0
M  V30 1929 H 214.363 3.70614 0.701808 0
M  V30 1930 H 216.75 2.76787 1.02338 0
M  V30 1931 H 216.831 2.45564 -0.716383 0
M  V30 1932 H 216.475 4.94542 -1.15717 0
M  V30 1933 H 216.405 5.23173 0.599797 0
M  V30 1934 H 218.896 3.7789 0.027011 0
M  V30 1935 H 219.209 7.70693 -0.570212 0
M  V30 1936 H 217.554 6.93156 -0.505876 0
M  V30 1937 H 220.745 4.68072 -0.0507986 0
M  V30 1938 H 220.918 6.47195 -0.322909 0
M  V30 1939 N 214.325 -0.140222 1.56975 0
M  V30 1940 C 215.55 -0.870414 1.88251 0
M  V30 1941 C 215.975 -1.73637 0.723312 0
M  V30 1942 O 215.333 -1.78329 -0.32689 0
M  V30 1943 C 215.381 -1.69737 3.18154 0
M  V30 1944 O 214.485 -2.80229 3.02565 0
M  V30 1945 H 213.826 -0.242025 0.61832 0
M  V30 1946 H 216.356 -0.128999 2.04193 0
M  V30 1947 H 216.366 -2.09099 3.50345 0
M  V30 1948 H 215.041 -1.06152 4.02125 0
M  V30 1949 H 213.618 -2.44224 2.81796 0
M  V30 1950 N 215.803 -1.52179 -0.40978 0
M  V30 1951 C 216.736 -1.70196 -1.52015 0
M  V30 1952 C 217.714 -0.549542 -1.53032 0
M  V30 1953 O 218.898 -0.776815 -1.71749 0
M  V30 1954 C 216.025 -1.74069 -2.90547 0
M  V30 1955 C 215.071 -2.95601 -3.07445 0
M  V30 1956 S 215.904 -4.55956 -2.80827 0
M  V30 1957 C 217.06 -4.62614 -4.21591 0
M  V30 1958 H 217.293 -2.64109 -1.36504 0
M  V30 1959 H 214.826 -1.4221 -0.601312 0
M  V30 1960 H 216.784 -1.76985 -3.70387 0
M  V30 1961 H 215.445 -0.812835 -3.034 0
M  V30 1962 H 214.638 -2.94791 -4.08796 0
M  V30 1963 H 214.24 -2.90569 -2.35469 0
M  V30 1964 H 216.532 -4.39951 -5.15218 0
M  V30 1965 H 217.475 -5.64548 -4.27424 0
M  V30 1966 H 217.883 -3.91654 -4.06531 0
M  V30 1967 N 217.281 0.66697 -1.42791 0
M  V30 1968 C 218.527 1.4291 -1.43891 0
M  V30 1969 C 218.86 1.94114 -0.0578972 0
M  V30 1970 O 218.135 1.71414 0.91911 0
M  V30 1971 C 218.418 2.62049 -2.46987 0
M  V30 1972 C 218.271 2.16426 -3.94309 0
M  V30 1973 C 219.59 3.64266 -2.46978 0
M  V30 1974 H 216.709 0.518306 -0.523954 0
M  V30 1975 H 219.351 0.757321 -1.74255 0
M  V30 1976 H 217.501 3.19361 -2.21225 0
M  V30 1977 H 219.173 1.64221 -4.31079 0
M  V30 1978 H 217.416 1.47925 -4.078 0
M  V30 1979 H 218.087 3.02038 -4.62036 0
M  V30 1980 H 220.563 3.16686 -2.69906 0
M  V30 1981 H 219.439 4.45196 -3.21079 0
M  V30 1982 H 219.7 4.15927 -1.49857 0
M  V30 1983 N 218.759 1.29093 0.90403 0
M  V30 1984 C 219.722 1.1386 1.98919 0
M  V30 1985 C 220.722 0.0753457 1.60623 0
M  V30 1986 O 221.912 0.321931 1.71199 0
M  V30 1987 C 219.044 0.740198 3.32767 0
M  V30 1988 H 220.237 2.10246 2.13861 0
M  V30 1989 H 217.79 1.12218 1.08797 0
M  V30 1990 H 218.525 -0.223997 3.23525 0
M  V30 1991 H 218.31 1.50838 3.61926 0
M  V30 1992 H 219.8 0.656546 4.12407 0
M  V30 1993 N 220.237 -1.11381 1.11499 0
M  V30 1994 C 221.483 -1.83403 0.865512 0
M  V30 1995 C 221.816 -1.84459 -0.607329 0
M  V30 1996 O 221.091 -1.29811 -1.44842 0
M  V30 1997 C 221.374 -3.30552 1.42855 0
M  V30 1998 C 221.227 -3.37886 2.96906 0
M  V30 1999 C 222.546 -4.26643 1.08 0
M  V30 2000 H 219.665 -0.665879 0.31587 0
M  V30 2001 H 222.307 -1.30601 1.37998 0
M  V30 2002 H 220.457 -3.75648 0.990985 0
M  V30 2003 H 222.129 -3.01343 3.49271 0
M  V30 2004 H 220.372 -2.78088 3.32941 0
M  V30 2005 H 221.043 -4.41458 3.31389 0
M  V30 2006 H 223.519 -3.89729 1.45775 0
M  V30 2007 H 222.395 -5.27986 1.50072 0
M  V30 2008 H 222.656 -4.42099 -0.00915037 0
M  V30 2009 N 221.715 -0.905404 -1.28997 0
M  V30 2010 C 222.648 -0.331959 -2.25773 0
M  V30 2011 C 223.626 0.559099 -1.52685 0
M  V30 2012 O 224.81 0.50463 -1.8162 0
M  V30 2013 C 221.937 0.526276 -3.34586 0
M  V30 2014 C 220.983 -0.298249 -4.25456 0
M  V30 2015 S 221.816 -1.69968 -5.0781 0
M  V30 2016 C 222.972 -0.848519 -6.20122 0
M  V30 2017 H 223.205 -1.15222 -2.74064 0
M  V30 2018 H 220.738 -0.706112 -1.37308 0
M  V30 2019 H 222.696 1.01565 -3.97737 0
M  V30 2020 H 221.357 1.32084 -2.84978 0
M  V30 2021 H 220.55 0.357607 -5.0273 0
M  V30 2022 H 220.152 -0.720968 -3.66985 0
M  V30 2023 H 222.444 -0.0744325 -6.77459 0
M  V30 2024 H 223.387 -1.59353 -6.89937 0
M  V30 2025 H 223.795 -0.400383 -5.63078 0
M  V30 2026 N 223.193 1.4272 -0.668489 0
M  V30 2027 C 224.47 1.95248 -0.117373 0
M  V30 2028 C 224.85 1.60919 1.36632 0
M  V30 2029 O 224.198 0.902095 2.09939 0
M  V30 2030 C 224.408 3.46927 -0.379806 0
M  V30 2031 C 225.756 4.23588 -0.292923 0
M  V30 2032 O 226.78 3.5482 -0.313204 0
M  V30 2033 O 225.639 5.46017 -0.229697 0
M  V30 2034 H 222.733 0.827 0.00079152 0
M  V30 2035 H 225.279 1.52581 -0.742783 0
M  V30 2036 H 224.051 3.65096 -1.40786 0
M  V30 2037 H 223.674 3.96627 0.277923 0
M  V30 2038 N 224.671 0.411399 1.52136 0
M  V30 2039 C 225.896 -0.165538 2.06738 0
M  V30 2040 C 226.321 -1.379 1.27926 0
M  V30 2041 O 225.679 -1.78628 0.310114 0
M  V30 2042 C 225.727 -0.492124 3.57226 0
M  V30 2043 O 224.831 -1.58276 3.80818 0
M  V30 2044 H 224.172 -0.0132132 0.663869 0
M  V30 2045 H 226.702 0.585253 1.96051 0
M  V30 2046 H 226.712 -0.750104 4.01045 0
M  V30 2047 H 225.387 0.394922 4.14021 0
M  V30 2048 H 223.964 -1.31677 3.48877 0
M  V30 2049 N 226.149 -1.5696 0.141893 0
M  V30 2050 C 227.426 -1.87553 -0.555281 0
M  V30 2051 C 227.806 -1.04699 -1.83306 0
M  V30 2052 O 227.154 -0.132346 -2.28116 0
M  V30 2053 C 227.364 -3.39093 -0.825664 0
M  V30 2054 C 228.712 -4.08199 -1.16869 0
M  V30 2055 O 229.736 -3.44242 -0.915185 0
M  V30 2056 O 228.595 -5.21139 -1.6455 0
M  V30 2057 H 225.689 -0.777188 -0.282679 0
M  V30 2058 H 228.235 -1.68763 0.17812 0
M  V30 2059 H 227.007 -3.91221 0.0788633 0
M  V30 2060 H 226.63 -3.63393 -1.61343 0
M  V30 2061 N 227.627 0.131896 -1.57047 0
M  V30 2062 C 228.855 0.856461 -1.88341 0
M  V30 2063 C 229.27 1.74042 -0.731757 0
M  V30 2064 O 228.627 1.80051 0.297945 0
M  V30 2065 C 228.678 1.70064 -3.18999 0
M  V30 2066 O 228.399 0.852278 -4.2973 0
M  V30 2067 C 229.9 2.53148 -3.63911 0
M  V30 2068 H 227.12 0.246885 -0.62393 0
M  V30 2069 H 229.664 0.120152 -2.04147 0
M  V30 2070 H 227.819 2.38984 -3.04902 0
M  V30 2071 H 228.233 1.43329 -5.04537 0
M  V30 2072 H 229.707 3.07931 -4.58129 0
M  V30 2073 H 230.184 3.29901 -2.89935 0
M  V30 2074 H 230.79 1.89492 -3.80753 0
M  V30 2075 N 229.106 1.52395 0.401703 0
M  V30 2076 C 230.334 1.70676 1.16949 0
M  V30 2077 C 230.749 0.419503 1.8408 0
M  V30 2078 O 230.106 -0.605061 1.72178 0
M  V30 2079 C 230.157 2.84753 2.22706 0
M  V30 2080 O 229.878 4.08495 1.58314 0
M  V30 2081 C 231.379 3.14608 3.12309 0
M  V30 2082 H 228.599 0.571787 0.351142 0
M  V30 2083 H 231.143 1.98987 0.471652 0
M  V30 2084 H 229.298 2.58941 2.88147 0
M  V30 2085 H 229.712 4.72117 2.28485 0
M  V30 2086 H 231.186 3.97923 3.82572 0
M  V30 2087 H 231.663 2.28464 3.75101 0
M  V30 2088 H 232.269 3.42212 2.52529 0
M  V30 2089 N 230.584 -0.659388 1.43143 0
M  V30 2090 C 231.832 -1.41654 1.44147 0
M  V30 2091 C 232.153 -1.94893 0.0645739 0
M  V30 2092 O 231.423 -1.74044 -0.899198 0
M  V30 2093 H 230.003 -0.525708 0.530697 0
M  V30 2094 H 232.665 -0.778097 1.78694 0
M  V30 2095 H 231.761 -2.26195 2.1504 0
M  V30 2096 N 232.062 -1.29571 -0.897171 0
M  V30 2097 C 233.009 -1.14916 -2.00158 0
M  V30 2098 C 233.979 -0.0418149 -1.66047 0
M  V30 2099 O 235.164 -0.209793 -1.89643 0
M  V30 2100 C 232.304 -0.834307 -3.34863 0
M  V30 2101 C 231.417 -2.02234 -3.8174 0
M  V30 2102 C 230.552 -1.64664 -5.05034 0
M  V30 2103 C 229.591 -2.80033 -5.44286 0
M  V30 2104 N 228.728 -2.42843 -6.58765 0
M  V30 2105 H 233.568 -2.09403 -2.12025 0
M  V30 2106 H 231.105 -1.042 -1.0383 0
M  V30 2107 H 233.063 -0.632436 -4.12379 0
M  V30 2108 H 231.693 0.0736656 -3.22716 0
M  V30 2109 H 230.745 -2.33583 -3.00238 0
M  V30 2110 H 232.057 -2.88673 -4.06779 0
M  V30 2111 H 231.211 -1.4078 -5.9014 0
M  V30 2112 H 229.95 -0.753766 -4.8184 0
M  V30 2113 H 228.955 -3.04596 -4.57713 0
M  V30 2114 H 230.18 -3.69989 -5.6946 0
M  V30 2115 H 228.126 -1.56046 -6.3717 0
M  V30 2116 H 228.043 -3.22815 -6.83613 0
M  V30 2117 H 229.311 -2.22285 -7.47134 0
M  V30 2118 N 233.54 1.10788 -1.12088 0
M  V30 2119 C 234.47 2.19083 -0.807755 0
M  V30 2120 C 235.451 1.6858 0.226859 0
M  V30 2121 O 236.636 1.93997 0.0888475 0
M  V30 2122 C 233.766 3.46344 -0.257576 0
M  V30 2123 C 232.72 4.101 -1.22483 0
M  V30 2124 C 232.046 5.32016 -0.535052 0
M  V30 2125 C 233.346 4.54236 -2.57811 0
M  V30 2126 H 235.04 2.45534 -1.71328 0
M  V30 2127 H 232.586 1.1801 -0.825205 0
M  V30 2128 H 234.539 4.21392 -0.0262679 0
M  V30 2129 H 233.263 3.19373 0.683278 0
M  V30 2130 H 231.922 3.37054 -1.44189 0
M  V30 2131 H 231.57 5.01319 0.410827 0
M  V30 2132 H 231.27 5.75625 -1.18024 0
M  V30 2133 H 232.794 6.09799 -0.312695 0
M  V30 2134 H 234.208 5.20575 -2.40155 0
M  V30 2135 H 232.605 5.08682 -3.18375 0
M  V30 2136 H 233.675 3.6734 -3.16528 0
M  V30 2137 N 235.018 0.912232 1.28515 0
M  V30 2138 C 236.266 0.543523 1.94654 0
M  V30 2139 C 236.587 -0.9155 1.72173 0
M  V30 2140 O 235.857 -1.64708 1.06058 0
M  V30 2141 H 234.437 0.198017 0.720277 0
M  V30 2142 H 237.099 1.16126 1.56527 0
M  V30 2143 H 236.195 0.736684 3.03281 0
M  V30 2144 N 236.496 -1.42363 0.676048 0
M  V30 2145 C 237.743 -2.01522 0.19883 0
M  V30 2146 C 238.071 -1.53456 -1.19505 0
M  V30 2147 O 237.326 -0.727967 -1.81657 0
M  V30 2148 C 237.625 -3.56929 0.183431 0
M  V30 2149 C 237.291 -4.24431 1.52215 0
M  V30 2150 C 235.953 -4.42585 1.8887 0
M  V30 2151 C 238.305 -4.62459 2.40377 0
M  V30 2152 C 235.633 -4.96039 3.13309 0
M  V30 2153 C 237.985 -5.17294 3.64129 0
M  V30 2154 C 236.649 -5.33661 4.00951 0
M  V30 2155 H 235.919 -0.737419 0.0727571 0
M  V30 2156 H 238.566 -1.70531 0.871281 0
M  V30 2157 H 236.871 -3.87594 -0.572532 0
M  V30 2158 H 238.568 -4.00486 -0.203035 0
M  V30 2159 H 235.158 -4.10661 1.22701 0
M  V30 2160 H 239.342 -4.48105 2.13343 0
M  V30 2161 H 234.598 -5.06896 3.41857 0
M  V30 2162 H 238.772 -5.45704 4.32644 0
M  V30 2163 H 236.399 -5.74845 4.9745 0
M  V30 2164 N 237.974 -0.419461 -1.51915 0
M  V30 2165 C 238.884 0.407528 -2.31033 0
M  V30 2166 C 239.9 1.04413 -1.3919 0
M  V30 2167 O 241.076 1.0434 -1.72265 0
M  V30 2168 C 238.141 1.50365 -3.12396 0
M  V30 2169 C 237.202 0.889029 -4.19994 0
M  V30 2170 C 236.435 1.93291 -4.97468 0
M  V30 2171 O 236.658 3.15259 -4.75361 0
M  V30 2172 O 235.592 1.53339 -5.8204 0
M  V30 2173 H 239.418 -0.237865 -3.02767 0
M  V30 2174 H 237.003 -0.182413 -1.48282 0
M  V30 2175 H 238.885 2.13975 -3.63032 0
M  V30 2176 H 237.56 2.13345 -2.43445 0
M  V30 2177 H 236.467 0.215353 -3.7348 0
M  V30 2178 H 237.8 0.302991 -4.91267 0
M  V30 2179 N 239.452 1.56882 -0.150215 0
M  V30 2180 C 240.362 2.20494 0.801222 0
M  V30 2181 C 241.378 1.19019 1.26927 0
M  V30 2182 O 242.554 1.51607 1.32579 0
M  V30 2183 C 239.619 2.81659 2.02161 0
M  V30 2184 C 238.68 3.9827 1.60249 0
M  V30 2185 C 237.913 4.56508 2.7647 0
M  V30 2186 O 238.136 4.13627 3.92771 0
M  V30 2187 O 237.07 5.46719 2.51757 0
M  V30 2188 H 240.896 3.02315 0.289717 0
M  V30 2189 H 238.481 1.49202 0.0769684 0
M  V30 2190 H 240.363 3.20522 2.73576 0
M  V30 2191 H 239.038 2.02849 2.52258 0
M  V30 2192 H 237.945 3.64117 0.858477 0
M  V30 2193 H 239.278 4.78609 1.14864 0
M  V30 2194 N 240.93 -0.123565 1.57115 0
M  V30 2195 C 242.177 -0.832153 1.84612 0
M  V30 2196 C 242.505 -1.80093 0.734627 0
M  V30 2197 O 241.76 -1.93766 -0.27442 0
M  V30 2198 C 242.059 -1.62016 3.18568 0
M  V30 2199 C 241.725 -0.796084 4.43817 0
M  V30 2200 C 240.387 -0.568816 4.77826 0
M  V30 2201 C 242.739 -0.221364 5.2073 0
M  V30 2202 C 240.067 0.243499 5.86194 0
M  V30 2203 C 242.419 0.578117 6.29953 0
M  V30 2204 C 241.083 0.815744 6.62497 0
M  V30 2205 H 240.353 -0.304507 0.675542 0
M  V30 2206 H 243 -0.0947248 1.91266 0
M  V30 2207 H 241.305 -2.42837 3.0747 0
M  V30 2208 H 243.002 -2.17231 3.37064 0
M  V30 2209 H 239.592 -0.983307 4.17168 0
M  V30 2210 H 243.776 -0.384173 4.94811 0
M  V30 2211 H 239.032 0.436871 6.09837 0
M  V30 2212 H 243.206 1.03046 6.88734 0
M  V30 2213 H 240.833 1.44701 7.46301 0
M  V30 2214 N 242.408 -1.52605 -0.393616 0
M  V30 2215 C 243.355 -1.77055 -1.48054 0
M  V30 2216 C 244.325 -0.61358 -1.54352 0
M  V30 2217 O 245.51 -0.852806 -1.70681 0
M  V30 2218 C 242.65 -1.94108 -2.85335 0
M  V30 2219 C 241.763 -3.21792 -2.88226 0
M  V30 2220 C 240.898 -3.29188 -4.16904 0
M  V30 2221 C 239.937 -4.51013 -4.13828 0
M  V30 2222 N 239.074 -4.55716 -5.34105 0
M  V30 2223 H 243.914 -2.69815 -1.26506 0
M  V30 2224 H 241.451 -1.33683 -0.61379 0
M  V30 2225 H 243.409 -2.01979 -3.65049 0
M  V30 2226 H 242.039 -1.04713 -3.05344 0
M  V30 2227 H 241.091 -3.23015 -2.00911 0
M  V30 2228 H 242.403 -4.11557 -2.8182 0
M  V30 2229 H 241.557 -3.36216 -5.05018 0
M  V30 2230 H 240.296 -2.37389 -4.26026 0
M  V30 2231 H 239.301 -4.44115 -3.24102 0
M  V30 2232 H 240.526 -5.44123 -4.06333 0
M  V30 2233 H 238.472 -3.66807 -5.43865 0
M  V30 2234 H 238.389 -5.39346 -5.29756 0
M  V30 2235 H 239.657 -4.66993 -6.2413 0
M  V30 2236 N 243.887 0.651787 -1.4349 0
M  V30 2237 C 245.117 1.43728 -1.48411 0
M  V30 2238 C 245.525 1.8893 -0.10103 0
M  V30 2239 O 244.868 1.60182 0.899307 0
M  V30 2240 C 244.93 2.70411 -2.36893 0
M  V30 2241 C 244.594 2.4714 -3.8441 0
M  V30 2242 C 245.591 2.10271 -4.75481 0
M  V30 2243 C 243.276 2.6142 -4.28912 0
M  V30 2244 C 245.27 1.87982 -6.0905 0
M  V30 2245 C 242.957 2.38746 -5.62533 0
M  V30 2246 C 243.955 2.02083 -6.5242 0
M  V30 2247 O 243.643 1.79647 -7.8357 0
M  V30 2248 H 243.375 0.447962 -0.506267 0
M  V30 2249 H 245.929 0.80624 -1.88915 0
M  V30 2250 H 244.159 3.36079 -1.91278 0
M  V30 2251 H 245.848 3.32364 -2.33 0
M  V30 2252 H 246.614 1.98814 -4.42378 0
M  V30 2253 H 242.493 2.88931 -3.59222 0
M  V30 2254 H 246.037 1.5929 -6.7917 0
M  V30 2255 H 241.934 2.49806 -5.95203 0
M  V30 2256 H 242.702 1.9406 -7.95162 0
M  V30 2257 N 245.365 1.30045 0.890287 0
M  V30 2258 C 246.295 1.18541 2.01172 0
M  V30 2259 C 247.276 0.0773356 1.69924 0
M  V30 2260 O 248.461 0.25845 1.92473 0
M  V30 2261 C 245.591 0.870941 3.36202 0
M  V30 2262 C 244.545 1.93637 3.81692 0
M  V30 2263 C 243.871 1.475 5.13953 0
M  V30 2264 C 245.171 3.34666 4.00994 0
M  V30 2265 H 246.865 2.12359 2.11054 0
M  V30 2266 H 244.411 1.02238 1.01407 0
M  V30 2267 H 246.364 0.777141 4.14172 0
M  V30 2268 H 245.088 -0.102926 3.26438 0
M  V30 2269 H 243.747 2.01972 3.05946 0
M  V30 2270 H 243.395 0.489551 5.00612 0
M  V30 2271 H 243.095 2.1876 5.4536 0
M  V30 2272 H 244.619 1.39489 5.94454 0
M  V30 2273 H 246.033 3.2912 4.69417 0
M  V30 2274 H 244.43 4.03966 4.43769 0
M  V30 2275 H 245.5 3.76949 3.05021 0
M  V30 2276 N 246.843 -1.10192 1.12674 0
M  V30 2277 C 248.089 -1.82658 0.894847 0
M  V30 2278 C 248.444 -1.83666 -0.573107 0
M  V30 2279 O 247.737 -1.28816 -1.41835 0
M  V30 2280 C 247.931 -3.28552 1.4067 0
M  V30 2281 C 247.76 -3.41756 2.92289 0
M  V30 2282 C 246.53 -3.54021 3.60551 0
M  V30 2283 C 248.728 -3.34949 3.90274 0
M  V30 2284 N 246.71 -3.55827 5.0026 0
M  V30 2285 C 248.081 -3.43531 5.16127 0
M  V30 2286 C 250.136 -3.18565 3.8265 0
M  V30 2287 C 248.839 -3.37416 6.3525 0
M  V30 2288 C 250.865 -3.13772 5.01299 0
M  V30 2289 C 250.227 -3.22938 6.26012 0
M  V30 2290 H 246.326 -0.683044 0.380756 0
M  V30 2291 H 248.91 -1.31752 1.43351 0
M  V30 2292 H 247.081 -3.77946 0.895055 0
M  V30 2293 H 248.813 -3.88991 1.11661 0
M  V30 2294 H 245.568 -3.57135 3.1105 0
M  V30 2295 H 245.992 -3.60335 5.73138 0
M  V30 2296 H 250.634 -3.10354 2.87124 0
M  V30 2297 H 248.352 -3.44391 7.3104 0
M  V30 2298 H 251.938 -3.02242 4.97133 0
M  V30 2299 H 250.818 -3.19235 7.16281 0
M  V30 2300 N 248.321 -0.919034 -1.28029 0
M  V30 2301 C 249.269 -0.401753 -2.29104 0
M  V30 2302 C 250.263 0.509354 -1.61561 0
M  V30 2303 O 251.469 0.390014 -1.75724 0
M  V30 2304 H 247.844 -0.111331 -0.743713 0
M  V30 2305 H 249.815 -1.2672 -2.70156 0
M  V30 2306 C 248.564 0.338148 -3.46052 0
M  V30 2307 H 247.887 -0.353732 -3.98232 0
M  V30 2308 H 249.327 0.664653 -4.18758 0
M  V30 2309 C 247.786 1.54798 -2.99231 0
M  V30 2310 O 248.316 2.64696 -3.02157 0
M  V30 2311 N 246.522 1.3968 -2.54829 0
M  V30 2312 H 246.069 0.502698 -2.52647 0
M  V30 2313 H 246.027 2.20755 -2.23863 0
M  V30 2314 N 249.799 1.42003 -0.683588 0
M  V30 2315 C 250.747 2.326 0.000815408 0
M  V30 2316 C 251.741 1.50308 0.781278 0
M  V30 2317 O 252.947 1.66322 0.688251 0
M  V30 2318 H 249.322 0.751758 0.0190616 0
M  V30 2319 H 251.293 2.88011 -0.780528 0
M  V30 2320 C 250.042 3.34978 0.93195 0
M  V30 2321 H 249.365 3.98345 0.340817 0
M  V30 2322 H 250.805 4.00936 1.37936 0
M  V30 2323 C 249.264 2.67925 2.04249 0
M  V30 2324 O 249.794 2.51788 3.12995 0
M  V30 2325 N 248 2.2681 1.81675 0
M  V30 2326 H 247.547 2.40135 0.932363 0
M  V30 2327 H 247.505 1.8228 2.56167 0
M  V30 2328 N 251.277 0.427512 1.51691 0
M  V30 2329 C 252.526 -0.143679 2.01188 0
M  V30 2330 C 252.839 -1.44642 1.31674 0
M  V30 2331 O 254.045 -2.09997 1.72086 0
M  V30 2332 C 252.501 -0.306602 3.58592 0
M  V30 2333 C 252.109 0.985125 4.37035 0
M  V30 2334 C 253.853 -0.832091 4.16265 0
M  V30 2335 C 251.76 0.788382 5.86122 0
M  V30 2336 H 250.69 -0.0574701 0.751807 0
M  V30 2337 H 253.341 0.555772 1.74881 0
M  V30 2338 H 251.723 -1.06882 3.81303 0
M  V30 2339 H 252.897 1.75492 4.26074 0
M  V30 2340 H 251.212 1.4384 3.90767 0
M  V30 2341 H 253.809 -0.995617 5.25349 0
M  V30 2342 H 254.152 -1.81186 3.74803 0
M  V30 2343 H 254.685 -0.128444 3.97593 0
M  V30 2344 H 251.424 1.74025 6.31978 0
M  V30 2345 H 250.944 0.0582143 5.99772 0
M  V30 2346 H 252.623 0.437722 6.45518 0
M  V30 2347 N 252.755 -1.56801 0.158532 0
M  V30 2348 C 253.702 -2.17337 -0.776729 0
M  V30 2349 C 254.672 -1.1096 -1.23601 0
M  V30 2350 O 255.857 -1.39054 -1.30647 0
M  V30 2351 C 252.997 -2.80822 -2.00582 0
M  V30 2352 C 252.11 -4.01624 -1.59129 0
M  V30 2353 C 251.245 -4.53072 -2.77306 0
M  V30 2354 C 250.284 -5.66314 -2.32282 0
M  V30 2355 N 249.421 -6.12329 -3.43508 0
M  V30 2356 H 254.261 -2.96918 -0.253701 0
M  V30 2357 H 251.798 -1.46661 -0.113504 0
M  V30 2358 H 253.756 -3.15779 -2.72652 0
M  V30 2359 H 252.386 -2.03866 -2.50277 0
M  V30 2360 H 251.438 -3.72571 -0.767806 0
M  V30 2361 H 252.75 -4.83633 -1.2207 0
M  V30 2362 H 251.904 -4.90145 -3.57551 0
M  V30 2363 H 250.643 -3.70095 -3.17617 0
M  V30 2364 H 249.648 -5.28806 -1.5048 0
M  V30 2365 H 250.873 -6.51085 -1.93043 0
M  V30 2366 H 248.819 -5.32284 -3.83418 0
M  V30 2367 H 248.736 -6.89293 -3.105 0
M  V30 2368 H 250.004 -6.5405 -4.24075 0
M  V30 2369 N 254.233 0.115231 -1.57178 0
M  V30 2370 C 255.649 0.468877 -1.52557 0
M  V30 2371 C 255.849 1.81649 -0.872125 0
M  V30 2372 O 254.905 2.48347 -0.45606 0
M  V30 2373 C 256.218 0.4499 -2.97315 0
M  V30 2374 C 257.766 0.533185 -3.08425 0
M  V30 2375 C 258.241 0.54456 -4.54751 0
M  V30 2376 N 259.732 0.605892 -4.5922 0
M  V30 2377 C 260.467 0.636203 -5.6986 0
M  V30 2378 N 259.963 0.623931 -6.89985 0
M  V30 2379 N 261.756 0.679496 -5.57978 0
M  V30 2380 H 253.907 -0.767712 -1.9804 0
M  V30 2381 H 256.17 -0.283609 -0.904583 0
M  V30 2382 H 255.876 -0.472721 -3.48509 0
M  V30 2383 H 255.75 1.27632 -3.5495 0
M  V30 2384 H 258.137 1.44623 -2.57232 0
M  V30 2385 H 258.218 -0.320995 -2.53778 0
M  V30 2386 H 257.862 -0.364452 -5.06591 0
M  V30 2387 H 257.792 1.41568 -5.07214 0
M  V30 2388 H 260.283 0.621386 -3.72756 0
M  V30 2389 H 260.596 0.649787 -7.70063 0
M  V30 2390 H 258.941 0.591296 -6.9248 0
M  V30 2391 H 262.132 0.686472 -4.63039 0
M  V30 2392 H 262.305 0.69965 -6.44212 0
M  V30 2393 N 255.711 1.52812 0.385517 0
M  V30 2394 C 256.957 1.69225 1.12847 0
M  V30 2395 C 257.312 0.42864 1.87564 0
M  V30 2396 O 256.605 -0.57779 1.8268 0
M  V30 2397 C 256.799 2.86856 2.13187 0
M  V30 2398 C 256.628 4.24535 1.48325 0
M  V30 2399 C 255.398 4.89701 1.24585 0
M  V30 2400 C 257.596 5.05794 0.931501 0
M  V30 2401 N 255.578 6.11353 0.558644 0
M  V30 2402 C 256.949 6.1888 0.372552 0
M  V30 2403 C 259.004 4.90963 0.828248 0
M  V30 2404 C 257.707 7.18757 -0.279556 0
M  V30 2405 C 259.733 5.91095 0.189956 0
M  V30 2406 C 259.095 7.03489 -0.358207 0
M  V30 2407 H 255.194 0.67268 0.39878 0
M  V30 2408 H 257.778 1.9017 0.417528 0
M  V30 2409 H 255.949 2.67484 2.81614 0
M  V30 2410 H 257.681 2.92188 2.80014 0
M  V30 2411 H 254.436 4.48485 1.52178 0
M  V30 2412 H 254.86 6.76606 0.230983 0
M  V30 2413 H 259.502 4.04274 1.23784 0
M  V30 2414 H 257.22 8.05052 -0.701152 0
M  V30 2415 H 260.806 5.81694 0.111264 0
M  V30 2416 H 259.686 7.79642 -0.844314 0
M  V30 2417 N 257.189 -0.644168 1.43834 0
M  V30 2418 C 258.121 -1.76955 1.45669 0
M  V30 2419 C 259.134 -1.58956 0.351666 0
M  V30 2420 O 260.323 -1.6751 0.616644 0
M  V30 2421 C 257.423 -3.14507 1.26248 0
M  V30 2422 C 256.596 -3.59083 2.49757 0
M  V30 2423 C 255.655 -4.75467 2.25427 0
M  V30 2424 O 254.681 -4.84444 2.98836 0
M  V30 2425 N 255.883 -5.66289 1.27661 0
M  V30 2426 H 258.648 -1.75856 2.42682 0
M  V30 2427 H 256.209 -0.828312 1.39106 0
M  V30 2428 H 258.201 -3.90067 1.0784 0
M  V30 2429 H 256.771 -3.10325 0.376478 0
M  V30 2430 H 255.991 -2.7387 2.8353 0
M  V30 2431 H 257.279 -3.85613 3.31934 0
M  V30 2432 H 256.677 -5.61718 0.670064 0
M  V30 2433 H 255.234 -6.41533 1.15234 0
M  V30 2434 N 258.668 -1.30515 -0.883378 0
M  V30 2435 C 259.631 -1.1701 -1.97082 0
M  V30 2436 C 260.631 -0.10089 -1.60483 0
M  V30 2437 O 261.821 -0.349127 -1.70666 0
M  V30 2438 C 258.953 -0.793045 -3.31547 0
M  V30 2439 H 260.146 -2.13622 -2.10489 0
M  V30 2440 H 257.699 -1.13935 -1.06998 0
M  V30 2441 H 258.434 0.172499 -3.23841 0
M  V30 2442 H 258.219 -1.56576 -3.5948 0
M  V30 2443 H 259.709 -0.722073 -4.1131 0
M  V30 2444 N 260.146 1.09593 -1.13257 0
M  V30 2445 C 261.395 1.81105 -0.887917 0
M  V30 2446 C 261.708 1.86563 0.587672 0
M  V30 2447 O 262.914 2.54367 0.949204 0
M  V30 2448 C 261.37 3.25338 -1.53895 0
M  V30 2449 C 260.978 3.28151 -3.04994 0
M  V30 2450 C 262.722 4.01617 -1.37492 0
M  V30 2451 C 260.629 4.66897 -3.6299 0
M  V30 2452 H 259.559 0.678661 -0.328534 0
M  V30 2453 H 262.21 1.23183 -1.36008 0
M  V30 2454 H 260.592 3.8331 -0.994446 0
M  V30 2455 H 261.766 2.79953 -3.66009 0
M  V30 2456 H 260.081 2.65361 -3.20893 0
M  V30 2457 H 262.678 5.04119 -1.78235 0
M  V30 2458 H 263.021 4.15072 -0.31957 0
M  V30 2459 H 263.554 3.50082 -1.88912 0
M  V30 2460 H 260.293 4.58643 -4.68323 0
M  V30 2461 H 259.813 5.15426 -3.06752 0
M  V30 2462 H 261.492 5.3587 -3.62563 0
M  V30 2463 N 261.624 0.925811 1.2754 0
M  V30 2464 C 262.854 0.580666 1.98272 0
M  V30 2465 C 263.262 -0.845207 1.69272 0
M  V30 2466 O 262.605 -1.57306 0.948707 0
M  V30 2467 C 262.667 0.724418 3.52126 0
M  V30 2468 C 262.331 2.12206 4.04744 0
M  V30 2469 C 263.328 3.09604 4.17662 0
M  V30 2470 C 261.013 2.4385 4.39138 0
M  V30 2471 C 263.007 4.36755 4.64246 0
M  V30 2472 C 260.694 3.71237 4.85414 0
M  V30 2473 C 261.692 4.67503 4.97926 0
M  V30 2474 O 261.38 5.92624 5.43187 0
M  V30 2475 H 261.112 0.218987 0.639547 0
M  V30 2476 H 263.666 1.24452 1.63404 0
M  V30 2477 H 261.896 0.0034663 3.867 0
M  V30 2478 H 263.585 0.384607 4.04074 0
M  V30 2479 H 264.351 2.86478 3.91351 0
M  V30 2480 H 260.23 1.69665 4.28643 0
M  V30 2481 H 263.774 5.11898 4.73927 0
M  V30 2482 H 259.671 3.94182 5.11166 0
M  V30 2483 H 260.439 5.95585 5.61445 0
M  V30 2484 N 263.102 -1.41638 0.69111 0
M  V30 2485 C 264.049 -2.30789 0.0229705 0
M  V30 2486 C 265.019 -1.46863 -0.775911 0
M  V30 2487 O 266.204 -1.75661 -0.74485 0
M  V30 2488 C 263.344 -3.32868 -0.910666 0
M  V30 2489 C 262.457 -4.31875 -0.103874 0
M  V30 2490 C 261.592 -5.21024 -1.03475 0
M  V30 2491 C 260.631 -6.11702 -0.220598 0
M  V30 2492 N 259.768 -6.93349 -1.10504 0
M  V30 2493 H 264.608 -2.87366 0.788978 0
M  V30 2494 H 262.145 -1.41535 0.400794 0
M  V30 2495 H 264.103 -3.90596 -1.46597 0
M  V30 2496 H 262.733 -2.77851 -1.64312 0
M  V30 2497 H 261.785 -3.76131 0.568285 0
M  V30 2498 H 263.097 -4.96003 0.527504 0
M  V30 2499 H 262.251 -5.83565 -1.65943 0
M  V30 2500 H 260.99 -4.57112 -1.69999 0
M  V30 2501 H 259.995 -5.48215 0.417187 0
M  V30 2502 H 261.22 -6.77668 0.440784 0
M  V30 2503 H 259.166 -6.3205 -1.75638 0
M  V30 2504 H 259.083 -7.54146 -0.529125 0
M  V30 2505 H 260.351 -7.60362 -1.71667 0
M  V30 2506 N 264.58 -0.43555 -1.51462 0
M  V30 2507 C 265.512 0.41257 -2.25456 0
M  V30 2508 C 266.525 0.987822 -1.29406 0
M  V30 2509 O 267.714 0.882266 -1.55172 0
M  V30 2510 C 264.814 1.58894 -2.99342 0
M  V30 2511 C 263.987 1.13288 -4.22474 0
M  V30 2512 C 263.046 2.17917 -4.78956 0
M  V30 2513 O 262.072 1.77425 -5.40841 0
M  V30 2514 N 263.274 3.50382 -4.62832 0
M  V30 2515 H 266.039 -0.221603 -2.9888 0
M  V30 2516 H 263.6 -0.264342 -1.59727 0
M  V30 2517 H 265.592 2.28508 -3.34015 0
M  V30 2518 H 264.162 2.12849 -2.28941 0
M  V30 2519 H 263.382 0.263881 -3.93316 0
M  V30 2520 H 264.67 0.805542 -5.02383 0
M  V30 2521 H 264.068 3.86013 -4.13534 0
M  V30 2522 H 262.625 4.15895 -5.01871 0
M  V30 2523 N 266.058 1.56714 -0.166846 0
M  V30 2524 C 267.305 1.96747 0.479252 0
M  V30 2525 C 267.633 1.05263 1.63554 0
M  V30 2526 O 266.888 0.0858098 1.95512 0
M  V30 2527 C 267.187 3.42889 1.00806 0
M  V30 2528 C 266.853 4.50889 -0.0318574 0
M  V30 2529 C 265.515 4.8015 -0.317675 0
M  V30 2530 C 267.867 5.15949 -0.737956 0
M  V30 2531 C 265.195 5.71772 -1.31506 0
M  V30 2532 C 267.547 6.08647 -1.72429 0
M  V30 2533 C 266.211 6.36277 -2.0176 0
M  V30 2534 H 265.481 0.719949 0.175371 0
M  V30 2535 H 268.128 1.89756 -0.257864 0
M  V30 2536 H 266.433 3.4681 1.82291 0
M  V30 2537 H 268.13 3.71203 1.51689 0
M  V30 2538 H 264.72 4.28128 0.201088 0
M  V30 2539 H 268.904 4.93458 -0.530351 0
M  V30 2540 H 264.16 5.91465 -1.54853 0
M  V30 2541 H 268.334 6.58129 -2.27682 0
M  V30 2542 H 265.961 7.07075 -2.79194 0
M  V30 2543 N 267.536 -0.106894 1.57237 0
M  V30 2544 C 268.813 -0.843526 1.76477 0
M  V30 2545 C 269.193 -1.97499 0.745464 0
M  V30 2546 O 268.541 -2.27357 -0.228306 0
M  V30 2547 C 268.751 -1.34903 3.21873 0
M  V30 2548 C 270.099 -1.79654 3.8472 0
M  V30 2549 O 271.123 -1.44554 3.2555 0
M  V30 2550 O 269.982 -2.44515 4.88748 0
M  V30 2551 H 267.076 -0.401468 0.723016 0
M  V30 2552 H 269.622 -0.0896927 1.69463 0
M  V30 2553 H 268.394 -0.53781 3.87586 0
M  V30 2554 H 268.017 -2.16522 3.33473 0
M  V30 2555 N 269.014 -1.53014 -0.377408 0
M  V30 2556 C 270.242 -1.72515 -1.14219 0
M  V30 2557 C 270.657 -0.448735 -1.8339 0
M  V30 2558 O 270.014 0.577592 -1.73119 0
M  V30 2559 C 270.065 -2.8826 -2.18148 0
M  V30 2560 O 269.786 -4.10962 -1.51795 0
M  V30 2561 C 271.287 -3.19536 -3.07264 0
M  V30 2562 H 268.507 -0.577301 -0.342001 0
M  V30 2563 H 271.051 -1.99712 -0.439935 0
M  V30 2564 H 269.206 -2.63492 -2.83991 0
M  V30 2565 H 269.62 -4.75693 -2.20945 0
M  V30 2566 H 271.094 -4.03959 -3.76193 0
M  V30 2567 H 271.571 -2.34403 -3.71419 0
M  V30 2568 H 272.177 -3.46186 -2.47053 0
M  V30 2569 N 270.492 0.636531 -1.44174 0
M  V30 2570 C 271.769 1.39463 -1.37148 0
M  V30 2571 C 272.149 2.11082 -0.027507 0
M  V30 2572 O 271.497 2.05954 0.989716 0
M  V30 2573 C 271.707 2.36552 -2.56601 0
M  V30 2574 C 273.055 3.00048 -3.00427 0
M  V30 2575 O 274.079 2.46878 -2.56767 0
M  V30 2576 O 272.938 3.96488 -3.76111 0
M  V30 2577 H 270.032 0.623903 -0.542839 0
M  V30 2578 H 272.578 0.662039 -1.56253 0
M  V30 2579 H 271.35 1.82692 -3.46034 0
M  V30 2580 H 270.973 3.17236 -2.39681 0
M  V30 2581 N 271.97 1.30982 0.876444 0
M  V30 2582 C 273.386 1.09498 1.16113 0
M  V30 2583 C 273.586 -0.13875 2.01022 0
M  V30 2584 O 272.642 -0.829935 2.38471 0
M  V30 2585 C 273.955 2.36308 1.85954 0
M  V30 2586 C 275.503 2.41856 1.98683 0
M  V30 2587 C 275.978 3.6853 2.71937 0
M  V30 2588 N 277.469 3.69387 2.79477 0
M  V30 2589 C 278.204 4.64096 3.36753 0
M  V30 2590 N 277.7 5.69155 3.95012 0
M  V30 2591 N 279.493 4.51626 3.3465 0
M  V30 2592 H 271.644 2.10118 0.310494 0
M  V30 2593 H 273.907 0.926634 0.200131 0
M  V30 2594 H 273.613 3.26388 1.31011 0
M  V30 2595 H 273.487 2.4561 2.86278 0
M  V30 2596 H 275.874 1.52249 2.52793 0
M  V30 2597 H 275.955 2.36523 0.9742 0
M  V30 2598 H 275.599 4.58499 2.18496 0
M  V30 2599 H 275.529 3.71127 3.73593 0
M  V30 2600 H 278.02 2.93438 2.38123 0
M  V30 2601 H 278.333 6.3751 4.36808 0
M  V30 2602 H 276.678 5.72937 3.93406 0
M  V30 2603 H 279.869 3.68728 2.8837 0
M  V30 2604 H 280.042 5.25614 3.7899 0
M  V30 2605 N 273.449 -1.08991 1.13837 0
M  V30 2606 C 274.674 -1.85551 0.926585 0
M  V30 2607 C 275.099 -1.80782 -0.519566 0
M  V30 2608 O 274.457 -1.18855 -1.36906 0
M  V30 2609 C 274.505 -3.31266 1.42462 0
M  V30 2610 O 273.609 -4.07822 0.612789 0
M  V30 2611 H 272.95 -0.575192 0.331738 0
M  V30 2612 H 275.48 -1.37604 1.51414 0
M  V30 2613 H 275.49 -3.82112 1.43019 0
M  V30 2614 H 274.165 -3.34052 2.47754 0
M  V30 2615 H 272.742 -3.66731 0.675463 0
M  V30 2616 N 274.927 -0.932562 -1.27047 0
M  V30 2617 C 276.175 -0.574422 -1.93765 0
M  V30 2618 C 276.496 0.887993 -1.73608 0
M  V30 2619 O 275.766 1.62999 -1.08665 0
M  V30 2620 H 274.346 -0.209451 -0.717035 0
M  V30 2621 H 277.008 -1.18601 -1.5466 0
M  V30 2622 H 276.104 -0.784841 -3.02071 0
M  V30 2623 N 276.405 1.4127 -0.698611 0
M  V30 2624 C 277.633 2.05503 -0.239992 0
M  V30 2625 C 278.048 1.52584 1.11191 0
M  V30 2626 O 277.405 0.675323 1.69545 0
M  V30 2627 C 277.456 3.60987 -0.192429 0
M  V30 2628 O 277.177 4.1195 -1.49094 0
M  V30 2629 C 278.678 4.42371 0.28681 0
M  V30 2630 H 275.898 0.661748 -0.111045 0
M  V30 2631 H 278.442 1.80987 -0.95205 0
M  V30 2632 H 276.597 3.84533 0.470472 0
M  V30 2633 H 277.011 5.06018 -1.38007 0
M  V30 2634 H 278.485 5.51344 0.26896 0
M  V30 2635 H 278.962 4.18699 1.32619 0
M  V30 2636 H 279.568 4.23897 -0.345201 0
M  V30 2637 N 277.883 0.443576 1.51229 0
M  V30 2638 C 279.132 -0.122332 2.01329 0
M  V30 2639 C 279.445 -1.43237 1.33201 0
M  V30 2640 O 280.651 -2.0816 1.74304 0
M  V30 2641 C 279.107 -0.268551 3.58897 0
M  V30 2642 C 278.715 1.03142 4.35965 0
M  V30 2643 C 280.459 -0.787894 4.17124 0
M  V30 2644 C 278.366 0.850504 5.85252 0
M  V30 2645 H 277.296 -0.0494929 0.752374 0
M  V30 2646 H 279.947 0.574289 1.74282 0
M  V30 2647 H 278.329 -1.02832 3.82415 0
M  V30 2648 H 279.503 1.80001 4.24189 0
M  V30 2649 H 277.818 1.47977 3.89219 0
M  V30 2650 H 280.415 -0.939841 5.26375 0
M  V30 2651 H 280.758 -1.77201 3.76703 0
M  V30 2652 H 281.291 -0.0862669 3.97706 0
M  V30 2653 H 278.03 1.80718 6.30096 0
M  V30 2654 H 277.55 0.121825 5.99676 0
M  V30 2655 H 279.229 0.506163 6.45017 0
M  V30 2656 N 279.361 -1.56624 0.175154 0
M  V30 2657 C 280.601 -1.98894 -0.471221 0
M  V30 2658 C 280.965 -1.05889 -1.60161 0
M  V30 2659 O 282.166 -1.37315 -2.3108 0
M  V30 2660 C 280.437 -3.44865 -0.938241 0
M  V30 2661 S 281.996 -4.09164 -1.58526 0
M  V30 2662 H 278.814 -0.694686 -0.151434 0
M  V30 2663 H 281.416 -1.93577 0.27352 0
M  V30 2664 H 280.12 -4.10265 -0.10518 0
M  V30 2665 H 279.651 -3.53956 -1.71693 0
M  V30 2666 H 281.666 -4.04528 -2.87352 0
M  V30 2667 N 280.839 0.0985539 -1.57292 0
M  V30 2668 C 282.064 0.820196 -1.90493 0
M  V30 2669 C 282.489 1.71658 -0.769094 0
M  V30 2670 O 281.847 1.79133 0.279495 0
M  V30 2671 C 281.895 1.61242 -3.22542 0
M  V30 2672 O 280.999 2.72108 -3.09888 0
M  V30 2673 H 280.34 0.225547 -0.62452 0
M  V30 2674 H 282.87 0.0748159 -2.04463 0
M  V30 2675 H 282.88 1.99737 -3.55766 0
M  V30 2676 H 281.555 0.954535 -4.04798 0
M  V30 2677 H 280.132 2.36667 -2.88172 0
M  V30 2678 N 282.317 1.53212 0.369288 0
M  V30 2679 C 283.542 1.73423 1.1375 0
M  V30 2680 C 283.967 0.460404 1.82378 0
M  V30 2681 O 283.325 -0.585298 1.71592 0
M  V30 2682 C 283.373 2.89769 2.1463 0
M  V30 2683 O 282.477 2.58119 3.21634 0
M  V30 2684 H 281.818 0.576061 0.330227 0
M  V30 2685 H 284.348 2.00083 0.427547 0
M  V30 2686 H 284.358 3.15829 2.58294 0
M  V30 2687 H 283.033 3.8217 1.64071 0
M  V30 2688 H 281.61 2.42864 2.82969 0
M  V30 2689 N 283.795 -0.628877 1.44509 0
M  V30 2690 C 284.705 -1.7694 1.54044 0
M  V30 2691 C 285.721 -1.68705 0.425987 0
M  V30 2692 O 286.897 -1.89442 0.683656 0
M  V30 2693 C 283.962 -3.13332 1.48405 0
M  V30 2694 C 283.023 -3.33181 2.70719 0
M  V30 2695 C 282.256 -4.63067 2.6534 0
M  V30 2696 O 282.479 -5.44017 1.71469 0
M  V30 2697 O 281.413 -4.85167 3.56226 0
M  V30 2698 H 285.239 -1.71848 2.50403 0
M  V30 2699 H 282.824 -0.790378 1.26781 0
M  V30 2700 H 284.706 -3.94634 1.47791 0
M  V30 2701 H 283.381 -3.1896 0.551898 0
M  V30 2702 H 282.288 -2.51549 2.769 0
M  V30 2703 H 283.621 -3.32416 3.62988 0
M  V30 2704 N 285.273 -1.31445 -0.869486 0
M  V30 2705 C 286.203 -1.21727 -1.99261 0
M  V30 2706 C 287.184 -0.104359 -1.6978 0
M  V30 2707 O 288.369 -0.289038 -1.92037 0
M  V30 2708 C 285.499 -0.924317 -3.34774 0
M  V30 2709 C 284.453 -1.99685 -3.78563 0
M  V30 2710 C 283.779 -1.55658 -5.11541 0
M  V30 2711 C 285.079 -3.41003 -3.95619 0
M  V30 2712 H 286.773 -2.1569 -2.07649 0
M  V30 2713 H 284.319 -1.03839 -0.997675 0
M  V30 2714 H 286.272 -0.842934 -4.12883 0
M  V30 2715 H 284.996 0.0509793 -3.2656 0
M  V30 2716 H 283.655 -2.06813 -3.02694 0
M  V30 2717 H 283.303 -0.569132 -4.9977 0
M  V30 2718 H 283.003 -2.27409 -5.41811 0
M  V30 2719 H 284.527 -1.48928 -5.92159 0
M  V30 2720 H 285.941 -3.36547 -4.64122 0
M  V30 2721 H 284.338 -4.10975 -4.37286 0
M  V30 2722 H 285.408 -3.81754 -2.98985 0
M  V30 2723 N 286.751 1.08385 -1.14413 0
M  V30 2724 C 288.162 1.62258 -0.923535 0
M  V30 2725 C 288.513 1.88691 0.537595 0
M  V30 2726 O 287.638 1.64454 1.40655 0
M  V30 2727 C 288.233 2.94781 -1.67002 0
M  V30 2728 C 286.792 3.45437 -1.495 0
M  V30 2729 C 285.939 2.19668 -1.69238 0
M  V30 2730 H 288.89 0.916086 -1.2959 0
M  V30 2731 H 288.911 3.63229 -1.13334 0
M  V30 2732 H 288.423 2.7551 -2.73342 0
M  V30 2733 H 286.524 3.6981 -0.455097 0
M  V30 2734 H 286.637 4.22173 -2.2651 0
M  V30 2735 H 285.001 2.28849 -1.11804 0
M  V30 2736 H 285.784 2.02905 -2.7692 0
M  V30 2737 N 288.23 0.939286 1.26551 0
M  V30 2738 C 289.478 0.58469 1.93457 0
M  V30 2739 C 289.799 -0.878774 1.74076 0
M  V30 2740 O 289.069 -1.62421 1.09528 0
M  V30 2741 H 287.649 0.21325 0.715914 0
M  V30 2742 H 290.311 1.1942 1.54029 0
M  V30 2743 H 289.407 0.800849 3.0165 0
M  V30 2744 N 289.708 -1.40897 0.706093 0
M  V30 2745 C 290.671 -2.29131 0.0562841 0
M  V30 2746 C 291.671 -1.44901 -0.697166 0
M  V30 2747 O 292.861 -1.65926 -0.530484 0
M  V30 2748 C 289.993 -3.27957 -0.93043 0
M  V30 2749 H 291.186 -2.88091 0.833284 0
M  V30 2750 H 288.739 -1.4906 0.470192 0
M  V30 2751 H 289.474 -2.73997 -1.73482 0
M  V30 2752 H 289.259 -3.90124 -0.393166 0
M  V30 2753 H 290.749 -3.94049 -1.38256 0
M  V30 2754 N 291.186 -0.45159 -1.50991 0
M  V30 2755 C 292.433 0.110074 -2.02201 0
M  V30 2756 C 292.761 1.4146 -1.33489 0
M  V30 2757 O 292.016 1.90617 -0.443125 0
M  V30 2758 C 292.315 0.361728 -3.55565 0
M  V30 2759 C 291.981 -0.858717 -4.42648 0
M  V30 2760 C 290.643 -1.19338 -4.66167 0
M  V30 2761 C 292.995 -1.67221 -4.93646 0
M  V30 2762 C 290.323 -2.34195 -5.37931 0
M  V30 2763 C 292.675 -2.8119 -5.6667 0
M  V30 2764 C 291.339 -3.15094 -5.88449 0
M  V30 2765 H 290.609 0.040279 -0.739904 0
M  V30 2766 H 293.256 -0.601696 -1.81802 0
M  V30 2767 H 291.561 1.15554 -3.74372 0
M  V30 2768 H 293.258 0.80996 -3.92735 0
M  V30 2769 H 289.848 -0.58796 -4.24548 0
M  V30 2770 H 294.032 -1.42686 -4.75347 0
M  V30 2771 H 289.288 -2.6076 -5.53005 0
M  V30 2772 H 293.462 -3.44585 -6.05173 0
M  V30 2773 H 291.089 -4.04204 -6.43835 0
M  V30 2774 N 292.664 1.56529 -0.183458 0
M  V30 2775 C 293.574 2.22144 0.754272 0
M  V30 2776 C 294.59 1.21684 1.24374 0
M  V30 2777 O 295.766 1.54385 1.29333 0
M  V30 2778 C 292.831 2.85884 1.96141 0
M  V30 2779 C 291.892 4.01579 1.51765 0
M  V30 2780 C 291.125 4.6227 2.66725 0
M  V30 2781 O 291.348 4.21865 3.83909 0
M  V30 2782 O 290.282 5.51936 2.40104 0
M  V30 2783 H 294.108 3.02861 0.225527 0
M  V30 2784 H 291.693 1.49331 0.0453032 0
M  V30 2785 H 293.575 3.26253 2.66715 0
M  V30 2786 H 292.25 2.08154 2.47899 0
M  V30 2787 H 291.157 3.65856 0.781049 0
M  V30 2788 H 292.49 4.80938 1.04686 0
M  V30 2789 N 294.142 -0.090211 1.57342 0
M  V30 2790 C 295.105 -1.09335 2.01441 0
M  V30 2791 C 296.105 -1.32666 0.908641 0
M  V30 2792 O 297.295 -1.28697 1.174 0
M  V30 2793 C 294.427 -2.44136 2.3793 0
M  V30 2794 H 295.62 -0.713662 2.91285 0
M  V30 2795 H 293.173 -0.335404 1.52659 0
M  V30 2796 H 293.908 -2.86972 1.51055 0
M  V30 2797 H 293.693 -2.28548 3.18603 0
M  V30 2798 H 295.183 -3.16277 2.72688 0
M  V30 2799 N 295.62 -1.53406 -0.361157 0
M  V30 2800 C 296.583 -1.79479 -1.42548 0
M  V30 2801 C 297.583 -0.665327 -1.4639 0
M  V30 2802 O 298.773 -0.933549 -1.47073 0
M  V30 2803 C 295.905 -1.92087 -2.8163 0
M  V30 2804 H 297.098 -2.74538 -1.20701 0
M  V30 2805 H 294.651 -1.4455 -0.594546 0
M  V30 2806 H 295.386 -0.991099 -3.08784 0
M  V30 2807 H 295.171 -2.74241 -2.80239 0
M  V30 2808 H 296.661 -2.13836 -3.58697 0
M  V30 2809 N 297.098 0.621204 -1.44841 0
M  V30 2810 C 298.346 1.37783 -1.47852 0
M  V30 2811 C 298.667 1.94653 -0.116224 0
M  V30 2812 O 297.937 1.76367 0.852737 0
M  V30 2813 H 296.517 0.511453 -0.544449 0
M  V30 2814 H 299.179 0.730446 -1.80694 0
M  V30 2815 H 298.275 2.20414 -2.20961 0
M  V30 2816 N 298.576 1.31904 0.862503 0
M  V30 2817 C 299.823 1.22017 1.61611 0
M  V30 2818 C 300.151 -0.21991 1.93253 0
M  V30 2819 O 299.406 -1.17076 1.56817 0
M  V30 2820 C 299.705 2.01713 2.95037 0
M  V30 2821 C 299.371 3.51145 2.82857 0
M  V30 2822 C 298.033 3.91889 2.79243 0
M  V30 2823 C 300.385 4.46204 2.69353 0
M  V30 2824 C 297.713 5.25947 2.59993 0
M  V30 2825 C 300.065 5.80397 2.5164 0
M  V30 2826 C 298.729 6.20352 2.46413 0
M  V30 2827 H 297.999 0.44649 0.591378 0
M  V30 2828 H 300.646 1.63248 1.00111 0
M  V30 2829 H 298.951 1.53185 3.60613 0
M  V30 2830 H 300.648 1.91437 3.52353 0
M  V30 2831 H 297.238 3.1878 2.86491 0
M  V30 2832 H 301.422 4.15652 2.71196 0
M  V30 2833 H 296.678 5.5597 2.54376 0
M  V30 2834 H 300.852 6.53676 2.40169 0
M  V30 2835 H 298.479 7.24172 2.31256 0
M  V30 2836 N 300.054 -1.07777 1.14986 0
M  V30 2837 C 301.004 -2.13082 0.811181 0
M  V30 2838 C 301.988 -1.59619 -0.202597 0
M  V30 2839 O 303.18 -1.77 -0.00398275 0
M  V30 2840 C 300.309 -3.42009 0.297439 0
M  V30 2841 C 299.395 -4.02337 1.34112 0
M  V30 2842 N 299.786 -4.36982 2.54716 0
M  V30 2843 C 298.084 -4.29752 1.19285 0
M  V30 2844 C 298.785 -4.84729 3.21578 0
M  V30 2845 N 297.761 -4.83233 2.48972 0
M  V30 2846 H 301.563 -2.37696 1.72853 0
M  V30 2847 H 299.077 -1.25173 1.03468 0
M  V30 2848 H 301.074 -4.16884 0.0364777 0
M  V30 2849 H 299.734 -3.18841 -0.614022 0
M  V30 2850 H 300.745 -4.27807 2.91894 0
M  V30 2851 H 297.422 -4.16106 0.340926 0
M  V30 2852 H 298.812 -5.20863 4.24442 0
M  V30 2853 N 301.532 -0.945985 -1.26051 0
M  V30 2854 C 302.462 -0.477172 -2.28572 0
M  V30 2855 C 303.443 0.472032 -1.63419 0
M  V30 2856 O 304.628 0.372853 -1.90587 0
M  V30 2857 C 301.758 0.253975 -3.4637 0
M  V30 2858 C 300.712 -0.609135 -4.23643 0
M  V30 2859 C 300.038 0.252252 -5.34105 0
M  V30 2860 C 301.338 -1.8829 -4.8718 0
M  V30 2861 H 303.032 -1.33402 -2.68038 0
M  V30 2862 H 300.578 -0.642904 -1.28852 0
M  V30 2863 H 302.531 0.593016 -4.17207 0
M  V30 2864 H 301.255 1.145 -3.05871 0
M  V30 2865 H 299.914 -0.931138 -3.54578 0
M  V30 2866 H 299.562 1.14278 -4.89846 0
M  V30 2867 H 299.262 -0.32188 -5.86718 0
M  V30 2868 H 300.786 0.586454 -6.07777 0
M  V30 2869 H 302.2 -1.61081 -5.50205 0
M  V30 2870 H 300.597 -2.40199 -5.49931 0
M  V30 2871 H 301.667 -2.59134 -4.09851 0
M  V30 2872 N 303.011 1.40521 -0.713556 0
M  V30 2873 C 303.959 2.32549 -0.0485227 0
M  V30 2874 C 304.953 1.51931 0.74922 0
M  V30 2875 O 306.159 1.67745 0.652816 0
M  V30 2876 H 302.534 0.751994 0.00311138 0
M  V30 2877 H 304.505 2.86291 -0.841443 0
M  V30 2878 C 303.254 3.36879 0.860687 0
M  V30 2879 H 302.577 3.98978 0.256246 0
M  V30 2880 H 304.017 4.03772 1.294 0
M  V30 2881 C 302.476 2.72197 1.9852 0
M  V30 2882 O 303.006 2.5837 3.07584 0
M  V30 2883 N 301.212 2.30612 1.76823 0
M  V30 2884 H 300.759 2.42059 0.881217 0
M  V30 2885 H 300.717 1.87672 2.52243 0
M  V30 2886 N 304.489 0.459591 1.5075 0
M  V30 2887 C 305.399 -0.34613 2.32033 0
M  V30 2888 C 306.415 -1.00686 1.41909 0
M  V30 2889 O 307.591 -0.997361 1.7497 0
M  V30 2890 C 304.656 -1.42029 3.16273 0
M  V30 2891 C 303.717 -0.777362 4.22203 0
M  V30 2892 C 302.95 -1.80034 5.02418 0
M  V30 2893 O 303.173 -3.02544 4.83553 0
M  V30 2894 O 302.107 -1.37853 5.85901 0
M  V30 2895 H 305.933 0.318054 3.0203 0
M  V30 2896 H 303.518 0.221663 1.47746 0
M  V30 2897 H 305.4 -2.04275 3.68578 0
M  V30 2898 H 304.075 -2.06815 2.49016 0
M  V30 2899 H 302.982 -0.116256 3.73919 0
M  V30 2900 H 304.315 -0.172634 4.91897 0
M  V30 2901 N 305.967 -1.56429 0.191757 0
M  V30 2902 C 306.917 -2.15548 -0.743184 0
M  V30 2903 C 307.901 -1.09531 -1.17863 0
M  V30 2904 O 309.093 -1.35602 -1.13759 0
M  V30 2905 C 306.222 -2.81577 -1.96391 0
M  V30 2906 C 305.308 -3.9478 -1.54951 0
M  V30 2907 N 305.699 -4.98677 -0.845876 0
M  V30 2908 C 303.997 -4.06319 -1.83905 0
M  V30 2909 C 304.698 -5.78183 -0.638724 0
M  V30 2910 N 303.674 -5.30495 -1.18643 0
M  V30 2911 H 307.476 -2.9324 -0.196839 0
M  V30 2912 H 304.99 -1.62398 -0.0081603 0
M  V30 2913 H 306.987 -3.22321 -2.64415 0
M  V30 2914 H 305.647 -2.05371 -2.51501 0
M  V30 2915 H 306.658 -5.15464 -0.501704 0
M  V30 2916 H 303.335 -3.41238 -2.40548 0
M  V30 2917 H 304.725 -6.71851 -0.0807929 0
M  V30 2918 N 307.445 0.0818655 -1.57387 0
M  V30 2919 C 308.375 1.09885 -2.06028 0
M  V30 2920 C 309.356 1.4098 -0.951774 0
M  V30 2921 O 310.541 1.50781 -1.22387 0
M  V30 2922 C 307.671 2.4151 -2.4958 0
M  V30 2923 C 306.625 2.24792 -3.64215 0
M  V30 2924 C 305.951 3.61712 -3.93787 0
M  V30 2925 C 307.251 1.67749 -4.94629 0
M  V30 2926 H 308.945 0.694128 -2.91243 0
M  V30 2927 H 306.491 0.332448 -1.4011 0
M  V30 2928 H 308.444 3.12939 -2.82219 0
M  V30 2929 H 307.168 2.83943 -1.61381 0
M  V30 2930 H 305.827 1.55807 -3.31843 0
M  V30 2931 H 305.475 4.01697 -3.02735 0
M  V30 2932 H 305.175 3.51368 -4.70971 0
M  V30 2933 H 306.699 4.34587 -4.28913 0
M  V30 2934 H 308.113 2.29032 -5.25564 0
M  V30 2935 H 306.51 1.68128 -5.76067 0
M  V30 2936 H 307.58 0.638059 -4.80684 0
M  V30 2937 N 308.923 1.53595 0.353017 0
M  V30 2938 C 310.153 1.74058 1.11299 0
M  V30 2939 C 310.561 0.475205 1.83135 0
M  V30 2940 O 309.904 -0.562344 1.74881 0
M  V30 2941 C 309.966 2.85994 2.17825 0
M  V30 2942 C 309.63 4.25923 1.65647 0
M  V30 2943 C 310.627 5.07829 1.11383 0
M  V30 2944 C 308.312 4.72377 1.7078 0
M  V30 2945 C 310.306 6.34285 0.629439 0
M  V30 2946 C 307.993 5.98808 1.21953 0
M  V30 2947 C 308.991 6.79594 0.681265 0
M  V30 2948 O 308.679 8.03651 0.200248 0
M  V30 2949 H 308.411 0.585327 0.338183 0
M  V30 2950 H 310.965 2.01186 0.413927 0
M  V30 2951 H 309.195 2.54368 2.91262 0
M  V30 2952 H 310.884 2.94515 2.79313 0
M  V30 2953 H 311.65 4.73107 1.06746 0
M  V30 2954 H 307.529 4.0956 2.11617 0
M  V30 2955 H 311.073 6.97288 0.208636 0
M  V30 2956 H 306.97 6.33026 1.26287 0
M  V30 2957 H 307.738 8.1788 0.318416 0
M  V30 2958 N 310.401 -0.613514 1.45168 0
M  V30 2959 C 311.349 -1.74572 1.53712 0
M  V30 2960 C 312.343 -1.64426 0.407505 0
M  V30 2961 O 313.549 -1.70291 0.583176 0
M  V30 2962 H 309.924 -0.576641 0.48269 0
M  V30 2963 H 311.895 -1.64492 2.48968 0
M  V30 2964 C 310.644 -3.12943 1.51532 0
M  V30 2965 H 309.967 -3.21407 2.37776 0
M  V30 2966 H 311.407 -3.9201 1.61569 0
M  V30 2967 C 309.866 -3.36053 0.238798 0
M  V30 2968 O 310.396 -3.95837 -0.6838 0
M  V30 2969 N 308.602 -2.9028 0.136359 0
M  V30 2970 H 308.149 -2.41811 0.887999 0
M  V30 2971 H 308.107 -3.06116 -0.716944 0
M  V30 2972 N 311.879 -1.3236 -0.855495 0
M  V30 2973 C 312.812 -1.15559 -1.96777 0
M  V30 2974 C 313.79 -0.0552681 -1.62506 0
M  V30 2975 O 314.974 -0.214419 -1.87277 0
M  V30 2976 C 312.101 -0.768851 -3.29858 0
M  V30 2977 C 311.147 -1.87429 -3.83109 0
M  V30 2978 S 311.98 -3.48243 -4.06801 0
M  V30 2979 C 313.136 -3.11539 -5.42858 0
M  V30 2980 H 313.369 -2.09717 -2.10727 0
M  V30 2981 H 310.902 -1.17011 -1.00737 0
M  V30 2982 H 312.86 -0.55248 -4.06765 0
M  V30 2983 H 311.521 0.153857 -3.13723 0
M  V30 2984 H 310.714 -1.55667 -4.79358 0
M  V30 2985 H 310.316 -2.04647 -3.13042 0
M  V30 2986 H 312.608 -2.61331 -6.2507 0
M  V30 2987 H 313.551 -4.06806 -5.79582 0
M  V30 2988 H 313.959 -2.48582 -5.06821 0
M  V30 2989 N 313.357 1.07166 -1.15556 0
M  V30 2990 C 314.606 1.79181 -0.926132 0
M  V30 2991 C 314.919 1.87768 0.547967 0
M  V30 2992 O 316.125 2.56323 0.895036 0
M  V30 2993 C 314.581 3.22 -1.60761 0
M  V30 2994 C 314.189 3.21607 -3.11886 0
M  V30 2995 C 315.933 3.9861 -1.4598 0
M  V30 2996 C 313.84 4.59092 -3.72812 0
M  V30 2997 H 312.77 0.67154 -0.342856 0
M  V30 2998 H 315.421 1.2027 -1.3859 0
M  V30 2999 H 313.803 3.81115 -1.07553 0
M  V30 3000 H 314.977 2.72127 -3.71865 0
M  V30 3001 H 313.292 2.58495 -3.2645 0
M  V30 3002 H 315.889 5.00225 -1.88888 0
M  V30 3003 H 316.232 4.143 -0.407541 0
M  V30 3004 H 316.765 3.45996 -1.96295 0
M  V30 3005 H 313.504 4.48606 -4.77946 0
M  V30 3006 H 313.024 5.08803 -3.17616 0
M  V30 3007 H 314.703 5.28059 -3.73848 0
M  V30 3008 N 314.835 0.952656 1.25548 0
M  V30 3009 C 316.084 0.602053 1.92505 0
M  V30 3010 C 316.397 -0.864663 1.75451 0
M  V30 3011 O 317.603 -1.32514 2.36965 0
M  V30 3012 C 316.059 1.02607 3.44963 0
M  V30 3013 C 315.667 2.51519 3.70732 0
M  V30 3014 C 317.411 0.747905 4.1786 0
M  V30 3015 C 315.318 2.87732 5.16686 0
M  V30 3016 H 314.248 0.22146 0.720744 0
M  V30 3017 H 316.899 1.15684 1.42441 0
M  V30 3018 H 315.281 0.399712 3.93978 0
M  V30 3019 H 316.455 3.19157 3.32378 0
M  V30 3020 H 314.77 2.76786 3.11092 0
M  V30 3021 H 317.367 0.994647 5.25367 0
M  V30 3022 H 317.71 -0.315629 4.15102 0
M  V30 3023 H 318.243 1.33452 3.74747 0
M  V30 3024 H 314.982 3.93095 5.24554 0
M  V30 3025 H 314.502 2.24765 5.56094 0
M  V30 3026 H 316.181 2.76817 5.84792 0
M  V30 3027 N 316.313 -1.40141 0.720998 0
M  V30 3028 C 317.729 -1.54632 0.395113 0
M  V30 3029 C 317.929 -1.69115 -1.09555 0
M  V30 3030 O 316.985 -1.68377 -1.88163 0
M  V30 3031 C 318.298 -2.77177 1.1659 0
M  V30 3032 C 319.846 -2.91 1.15274 0
M  V30 3033 C 320.321 -4.16465 1.90579 0
M  V30 3034 N 321.812 -4.23476 1.87675 0
M  V30 3035 C 322.547 -5.19475 2.42762 0
M  V30 3036 N 322.043 -6.21348 3.06428 0
M  V30 3037 N 323.836 -5.11592 2.32874 0
M  V30 3038 H 315.987 -1.28986 1.68749 0
M  V30 3039 H 318.25 -0.62412 0.713567 0
M  V30 3040 H 317.956 -2.72771 2.22011 0
M  V30 3041 H 317.83 -3.69442 0.76108 0
M  V30 3042 H 320.217 -2.94907 0.106702 0
M  V30 3043 H 320.298 -1.99838 1.59682 0
M  V30 3044 H 319.942 -4.1332 2.95176 0
M  V30 3045 H 319.872 -5.06646 1.43587 0
M  V30 3046 H 322.363 -3.50497 1.41281 0
M  V30 3047 H 322.676 -6.91034 3.45965 0
M  V30 3048 H 321.021 -6.21777 3.10514 0
M  V30 3049 H 324.212 -4.30936 1.82789 0
M  V30 3050 H 324.385 -5.86233 2.76106 0
M  V30 3051 N 317.792 -0.46758 -1.50504 0
M  V30 3052 C 319.208 -0.121533 -1.59137 0
M  V30 3053 C 319.408 1.3717 -1.47603 0
M  V30 3054 O 318.464 2.14464 -1.33272 0
M  V30 3055 C 319.777 -0.6686 -2.93173 0
M  V30 3056 C 321.325 -0.631716 -3.06559 0
M  V30 3057 C 321.8 -1.15627 -4.43164 0
M  V30 3058 N 323.291 -1.11553 -4.49567 0
M  V30 3059 C 324.026 -1.49195 -5.5365 0
M  V30 3060 N 323.522 -1.94269 -6.65005 0
M  V30 3061 N 325.315 -1.4082 -5.44175 0
M  V30 3062 H 317.466 -1.4388 -1.56245 0
M  V30 3063 H 319.729 -0.594784 -0.738198 0
M  V30 3064 H 319.435 -1.71453 -3.07078 0
M  V30 3065 H 319.309 -0.11021 -3.77039 0
M  V30 3066 H 321.696 0.405297 -2.92304 0
M  V30 3067 H 321.777 -1.22687 -2.24458 0
M  V30 3068 H 321.421 -2.1919 -4.58168 0
M  V30 3069 H 321.351 -0.537365 -5.23851 0
M  V30 3070 H 323.842 -0.784895 -3.69659 0
M  V30 3071 H 324.155 -2.21148 -7.40482 0
M  V30 3072 H 322.5 -1.98219 -6.66134 0
M  V30 3073 H 325.691 -1.0545 -4.56068 0
M  V30 3074 H 325.864 -1.70481 -6.25172 0
M  V30 3075 N 319.27 1.56325 -0.20005 0
M  V30 3076 C 320.5 2.01811 0.442232 0
M  V30 3077 C 320.908 1.07932 1.55394 0
M  V30 3078 O 320.251 0.0772685 1.83537 0
M  V30 3079 C 320.313 3.43685 1.05457 0
M  V30 3080 C 319.977 4.56928 0.0809833 0
M  V30 3081 C 320.974 5.15009 -0.711471 0
M  V30 3082 C 318.659 5.0229 -0.0315364 0
M  V30 3083 C 320.653 6.16904 -1.60336 0
M  V30 3084 C 318.34 6.04028 -0.926981 0
M  V30 3085 C 319.338 6.6121 -1.71146 0
M  V30 3086 O 319.026 7.60971 -2.59189 0
M  V30 3087 H 318.758 0.666173 0.114848 0
M  V30 3088 H 321.312 2.03085 -0.307511 0
M  V30 3089 H 319.542 3.39413 1.85299 0
M  V30 3090 H 321.231 3.72948 1.60201 0
M  V30 3091 H 321.997 4.80827 -0.634873 0
M  V30 3092 H 317.876 4.57476 0.568902 0
M  V30 3093 H 321.42 6.61464 -2.21611 0
M  V30 3094 H 317.317 6.37634 -1.00468 0
M  V30 3095 H 318.085 7.7841 -2.53023 0
M  V30 3096 N 320.748 -0.0735177 1.57428 0
M  V30 3097 C 321.973 -0.789787 1.91774 0
M  V30 3098 C 322.398 -1.70413 0.796306 0
M  V30 3099 O 321.756 -1.79555 -0.250961 0
M  V30 3100 C 321.804 -1.5609 3.25067 0
M  V30 3101 O 320.908 -2.67144 3.14178 0
M  V30 3102 H 320.249 -0.215582 0.628029 0
M  V30 3103 H 322.779 -0.0422781 2.04556 0
M  V30 3104 H 322.789 -1.94052 3.58898 0
M  V30 3105 H 321.464 -0.890015 4.06265 0
M  V30 3106 H 320.041 -2.32052 2.91901 0
M  V30 3107 N 322.226 -1.5378 -0.344866 0
M  V30 3108 C 323.503 -1.61589 -1.10219 0
M  V30 3109 C 323.883 -0.436316 -2.06542 0
M  V30 3110 O 323.231 0.571543 -2.21237 0
M  V30 3111 C 323.441 -2.97602 -1.82301 0
M  V30 3112 C 324.789 -3.5291 -2.36093 0
M  V30 3113 O 325.813 -2.99768 -1.924 0
M  V30 3114 O 324.672 -4.45859 -3.16026 0
M  V30 3115 H 321.766 -0.653522 -0.506792 0
M  V30 3116 H 324.312 -1.66126 -0.346465 0
M  V30 3117 H 323.084 -3.74893 -1.12121 0
M  V30 3118 H 322.707 -2.9665 -2.64735 0
M  V30 3119 N 323.704 0.605807 -1.45491 0
M  V30 3120 C 324.614 1.74466 -1.56839 0
M  V30 3121 C 325.63 1.68006 -0.452772 0
M  V30 3122 O 326.806 1.8833 -0.713708 0
M  V30 3123 C 323.871 3.10931 -1.53371 0
M  V30 3124 C 322.932 3.28832 -2.75986 0
M  V30 3125 C 322.165 4.58787 -2.72673 0
M  V30 3126 O 322.388 5.4122 -1.80102 0
M  V30 3127 O 321.322 4.79438 -3.63899 0
M  V30 3128 H 325.148 1.67843 -2.53106 0
M  V30 3129 H 322.733 0.770108 -1.28022 0
M  V30 3130 H 324.615 3.92233 -1.54051 0
M  V30 3131 H 323.29 3.18042 -0.602572 0
M  V30 3132 H 322.197 2.47112 -2.80867 0
M  V30 3133 H 323.53 3.26599 -3.68231 0
M  V30 3134 N 325.182 1.32811 0.848464 0
M  V30 3135 C 326.407 1.26882 1.6406 0
M  V30 3136 C 326.832 -0.15913 1.87426 0
M  V30 3137 O 326.19 -1.11258 1.43148 0
M  V30 3138 C 326.238 2.03997 2.97351 0
M  V30 3139 O 325.342 1.39201 3.88197 0
M  V30 3140 H 324.683 0.436982 0.499943 0
M  V30 3141 H 327.213 1.75224 1.0563 0
M  V30 3142 H 327.223 2.14403 3.47124 0
M  V30 3143 H 325.898 3.0783 2.79666 0
M  V30 3144 H 324.475 1.37381 3.46671 0
M  V30 3145 N 326.66 -1.06551 1.16123 0
M  V30 3146 C 327.908 -1.78947 0.939267 0
M  V30 3147 C 328.229 -1.87532 -0.534476 0
M  V30 3148 O 327.499 -1.38211 -1.38833 0
M  V30 3149 H 326.079 -0.662807 0.344523 0
M  V30 3150 H 328.741 -1.28725 1.46342 0
M  V30 3151 H 327.837 -2.81117 1.35572 0
M  V30 3152 N 328.138 -0.959301 -1.25041 0
M  V30 3153 C 329.086 -0.474437 -2.2771 0
M  V30 3154 C 330.08 0.457697 -1.631 0
M  V30 3155 O 331.286 0.333912 -1.76876 0
M  V30 3156 H 327.661 -0.134936 -0.739795 0
M  V30 3157 H 329.632 -1.35251 -2.65988 0
M  V30 3158 C 328.381 0.227884 -3.46952 0
M  V30 3159 H 327.704 -0.480248 -3.96905 0
M  V30 3160 H 329.144 0.531091 -4.20661 0
M  V30 3161 C 327.603 1.452 -3.04004 0
M  V30 3162 O 328.133 2.54949 -3.10426 0
M  V30 3163 N 326.339 1.31502 -2.59144 0
M  V30 3164 H 325.886 0.422065 -2.54119 0
M  V30 3165 H 325.844 2.13521 -2.30773 0
M  V30 3166 N 329.616 1.39756 -0.72842 0
M  V30 3167 C 330.549 2.28176 -0.0330172 0
M  V30 3168 C 331.527 1.44035 0.754501 0
M  V30 3169 O 332.711 1.73434 0.738445 0
M  V30 3170 C 329.838 3.24795 0.960504 0
M  V30 3171 C 328.884 4.25693 0.262264 0
M  V30 3172 S 329.717 5.25714 -1.01906 0
M  V30 3173 C 330.873 6.25894 -0.0279717 0
M  V30 3174 H 331.106 2.86807 -0.78287 0
M  V30 3175 H 328.639 1.45382 -0.519951 0
M  V30 3176 H 330.597 3.80983 1.52846 0
M  V30 3177 H 329.258 2.65196 1.68315 0
M  V30 3178 H 328.451 4.93699 1.01379 0
M  V30 3179 H 328.053 3.7327 -0.233482 0
M  V30 3180 H 330.345 6.72585 0.814621 0
M  V30 3181 H 331.288 7.04876 -0.67499 0
M  V30 3182 H 331.696 5.63466 0.341489 0
M  V30 3183 N 331.094 0.475555 1.50254 0
M  V30 3184 C 332.371 -0.139685 1.95101 0
M  V30 3185 C 332.751 -1.56555 1.41611 0
M  V30 3186 O 332.099 -2.19956 0.618993 0
M  V30 3187 C 332.309 -0.0784298 3.48912 0
M  V30 3188 C 333.657 -0.265095 4.23772 0
M  V30 3189 O 334.681 -0.154808 3.55863 0
M  V30 3190 O 333.54 -0.488327 5.44314 0
M  V30 3191 H 330.634 -0.109236 0.819754 0
M  V30 3192 H 333.18 0.536276 1.61004 0
M  V30 3193 H 331.952 0.916918 3.80405 0
M  V30 3194 H 331.575 -0.795655 3.89558 0
M  V30 3195 N 332.573 -1.56217 0.208337 0
M  V30 3196 C 333.82 -1.97949 -0.42692 0
M  V30 3197 C 334.148 -1.09562 -1.60706 0
M  V30 3198 O 333.403 -0.137616 -1.95216 0
M  V30 3199 C 333.702 -3.45441 -0.916797 0
M  V30 3200 C 333.368 -4.50646 0.151391 0
M  V30 3201 C 332.03 -4.79139 0.444867 0
M  V30 3202 C 334.382 -5.13811 0.874492 0
M  V30 3203 C 331.71 -5.68084 1.46619 0
M  V30 3204 C 334.062 -6.03861 1.88506 0
M  V30 3205 C 332.726 -6.30704 2.18559 0
M  V30 3206 H 331.996 -0.724345 -0.156221 0
M  V30 3207 H 334.643 -1.89006 0.308084 0
M  V30 3208 H 332.948 -3.51521 -1.73032 0
M  V30 3209 H 334.645 -3.75094 -1.41794 0
M  V30 3210 H 331.235 -4.28511 -0.0875068 0
M  V30 3211 H 335.419 -4.91879 0.660996 0
M  V30 3212 H 330.675 -5.87151 1.7048 0
M  V30 3213 H 334.849 -6.51861 2.45051 0
M  V30 3214 H 332.476 -6.99424 2.97843 0
M  V30 3215 N 334.051 0.0651679 -1.57465 0
M  V30 3216 C 335.328 0.79644 -1.78651 0
M  V30 3217 C 335.708 1.95454 -0.797566 0
M  V30 3218 O 335.056 2.27882 0.167946 0
M  V30 3219 C 335.266 1.26322 -3.25337 0
M  V30 3220 C 336.614 1.6939 -3.89348 0
M  V30 3221 O 337.638 1.35872 -3.29268 0
M  V30 3222 O 336.497 2.31471 -4.95059 0
M  V30 3223 H 333.591 0.382157 -0.733407 0
M  V30 3224 H 336.137 0.0447311 -1.69641 0
M  V30 3225 H 334.909 0.434859 -3.88876 0
M  V30 3226 H 334.532 2.07604 -3.39096 0
M  V30 3227 N 335.529 1.53961 0.336706 0
M  V30 3228 C 336.477 1.83136 1.43401 0
M  V30 3229 C 337.471 0.702313 1.54156 0
M  V30 3230 O 338.677 0.885765 1.56698 0
M  V30 3231 H 335.052 0.580309 0.478273 0
M  V30 3232 H 337.023 2.74925 1.16012 0
M  V30 3233 C 335.772 2.06385 2.79822 0
M  V30 3234 H 335.095 2.92718 2.72316 0
M  V30 3235 H 336.535 2.30761 3.55704 0
M  V30 3236 C 334.994 0.851414 3.25964 0
M  V30 3237 O 335.524 0.0541904 4.01663 0
M  V30 3238 N 333.73 0.66672 2.82848 0
M  V30 3239 H 333.277 1.31665 2.21409 0
M  V30 3240 H 333.235 -0.143032 3.14074 0
M  V30 3241 N 337.007 -0.598083 1.45811 0
M  V30 3242 C 338.254 -1.35681 1.50323 0
M  V30 3243 C 338.582 -1.9393 0.148739 0
M  V30 3244 O 337.837 -1.76094 -0.853787 0
M  V30 3245 C 338.136 -2.51669 2.53766 0
M  V30 3246 C 337.802 -2.11508 3.98215 0
M  V30 3247 C 336.464 -2.0027 4.37545 0
M  V30 3248 C 338.816 -1.80308 4.89018 0
M  V30 3249 C 336.144 -1.56067 5.65562 0
M  V30 3250 C 338.496 -1.37589 6.17456 0
M  V30 3251 C 337.16 -1.24916 6.55708 0
M  V30 3252 H 336.43 -0.496492 0.550069 0
M  V30 3253 H 339.077 -0.675052 1.79207 0
M  V30 3254 H 337.382 -3.25225 2.18486 0
M  V30 3255 H 339.079 -3.09895 2.54492 0
M  V30 3256 H 335.669 -2.21185 3.67117 0
M  V30 3257 H 339.853 -1.87884 4.59362 0
M  V30 3258 H 335.109 -1.44886 5.93985 0
M  V30 3259 H 339.283 -1.12495 6.87254 0
M  V30 3260 H 336.91 -0.904386 7.54801 0
M  V30 3261 N 338.485 -1.33259 -0.841409 0
M  V30 3262 C 339.734 -1.23921 -1.59143 0
M  V30 3263 C 340.047 0.1941 -1.94635 0
M  V30 3264 O 341.253 0.409474 -2.68394 0
M  V30 3265 C 339.709 -2.17119 -2.87032 0
M  V30 3266 C 339.317 -3.65606 -2.58914 0
M  V30 3267 C 341.061 -2.16648 -3.65053 0
M  V30 3268 C 338.968 -4.50726 -3.82884 0
M  V30 3269 H 337.898 -0.460264 -0.597221 0
M  V30 3270 H 340.549 -1.58307 -0.927959 0
M  V30 3271 H 338.931 -1.75663 -3.54906 0
M  V30 3272 H 340.105 -4.15487 -1.99267 0
M  V30 3273 H 338.42 -3.68341 -1.942 0
M  V30 3274 H 341.017 -2.77474 -4.57069 0
M  V30 3275 H 341.36 -1.16088 -3.99787 0
M  V30 3276 H 341.893 -2.56453 -3.041 0
M  V30 3277 H 338.632 -5.52151 -3.53283 0
M  V30 3278 H 338.152 -4.0559 -4.41879 0
M  V30 3279 H 339.831 -4.64401 -4.50489 0
M  V30 3280 N 339.963 1.05934 -1.16686 0
M  V30 3281 C 341.188 1.83029 -0.975455 0
M  V30 3282 C 341.613 1.82096 0.471452 0
M  V30 3283 O 340.971 1.22443 1.33706 0
M  V30 3284 C 341.019 3.27372 -1.51195 0
M  V30 3285 O 340.123 4.06054 -0.720701 0
M  V30 3286 H 339.464 0.566194 -0.346872 0
M  V30 3287 H 341.994 1.33541 -1.55009 0
M  V30 3288 H 342.004 3.78186 -1.53099 0
M  V30 3289 H 340.679 3.27366 -2.56523 0
M  V30 3290 H 339.256 3.64812 -0.772458 0
M  V30 3291 N 341.441 0.965919 1.2453 0
M  V30 3292 C 342.681 0.634656 1.94297 0
M  V30 3293 C 343.045 -0.814822 1.73852 0
M  V30 3294 O 344.246 -1.25622 2.3764 0
M  V30 3295 C 342.517 0.99702 3.43212 0
M  V30 3296 S 344.076 0.780038 4.31811 0
M  V30 3297 H 340.894 0.232893 0.671775 0
M  V30 3298 H 343.496 1.24249 1.50938 0
M  V30 3299 H 342.2 2.04886 3.55598 0
M  V30 3300 H 341.731 0.379888 3.91562 0
M  V30 3301 H 343.746 -0.343512 4.9501 0
M  V30 3302 N 342.919 -1.39368 0.735821 0
M  V30 3303 C 343.849 -2.33234 0.111506 0
M  V30 3304 C 344.83 -1.53954 -0.723334 0
M  V30 3305 O 346.015 -1.82344 -0.668147 0
M  V30 3306 C 343.145 -3.38057 -0.795917 0
M  V30 3307 C 342.099 -4.2795 -0.065172 0
M  V30 3308 C 341.425 -5.23479 -1.08967 0
M  V30 3309 C 342.725 -5.10741 1.09273 0
M  V30 3310 H 344.419 -2.85692 0.895571 0
M  V30 3311 H 341.965 -1.37364 0.432109 0
M  V30 3312 H 343.918 -4.02675 -1.24221 0
M  V30 3313 H 342.642 -2.8404 -1.61211 0
M  V30 3314 H 341.301 -3.64813 0.361511 0
M  V30 3315 H 340.949 -4.65758 -1.89944 0
M  V30 3316 H 340.649 -5.84472 -0.605489 0
M  V30 3317 H 342.173 -5.90974 -1.53565 0
M  V30 3318 H 343.587 -5.68699 0.724841 0
M  V30 3319 H 341.984 -5.8088 1.50659 0
M  V30 3320 H 343.054 -4.45525 1.91404 0
M  V30 3321 N 344.397 -0.483516 -1.5 0
M  V30 3322 C 345.643 0.0672592 -2.02688 0
M  V30 3323 C 345.976 1.38247 -1.36387 0
M  V30 3324 O 345.251 1.88131 -0.493675 0
M  V30 3325 C 345.534 0.238109 -3.59312 0
M  V30 3326 C 345.387 -1.099 -4.36168 0
M  V30 3327 C 346.706 0.986916 -4.28892 0
M  V30 3328 H 343.825 0.0229696 -0.736642 0
M  V30 3329 H 346.467 -0.631527 -1.79197 0
M  V30 3330 H 344.617 0.8333 -3.79458 0
M  V30 3331 H 346.289 -1.73172 -4.27562 0
M  V30 3332 H 344.532 -1.69261 -3.99416 0
M  V30 3333 H 345.203 -0.932954 -5.44059 0
M  V30 3334 H 347.679 0.482302 -4.13295 0
M  V30 3335 H 346.555 1.07527 -5.38265 0
M  V30 3336 H 346.816 2.0265 -3.92919 0
M  V30 3337 N 345.875 1.56104 -0.216619 0
M  V30 3338 C 347.291 1.58995 0.13886 0
M  V30 3339 C 347.491 1.23333 1.59346 0
M  V30 3340 O 346.547 0.966234 2.33281 0
M  V30 3341 C 347.86 3.00143 -0.182968 0
M  V30 3342 C 349.408 3.12751 -0.124807 0
M  V30 3343 C 349.883 4.56068 -0.420241 0
M  V30 3344 N 351.374 4.61723 -0.369634 0
M  V30 3345 C 352.109 5.70542 -0.571789 0
M  V30 3346 N 351.605 6.87744 -0.835453 0
M  V30 3347 N 353.398 5.59831 -0.504563 0
M  V30 3348 H 345.549 1.77562 -1.16557 0
M  V30 3349 H 347.812 0.825091 -0.466828 0
M  V30 3350 H 347.518 3.30871 -1.19237 0
M  V30 3351 H 347.392 3.73813 0.504367 0
M  V30 3352 H 349.779 2.81822 0.875223 0
M  V30 3353 H 349.86 2.41421 -0.845544 0
M  V30 3354 H 349.504 4.87713 -1.41769 0
M  V30 3355 H 349.434 5.25617 0.321631 0
M  V30 3356 H 351.925 3.77502 -0.173338 0
M  V30 3357 H 352.238 7.66587 -0.977938 0
M  V30 3358 H 350.583 6.895 -0.872592 0
M  V30 3359 H 353.774 4.67145 -0.298842 0
M  V30 3360 H 353.947 6.44573 -0.665519 0
M  V30 3361 N 347.353 -0.0568162 1.57498 0
M  V30 3362 C 348.283 -1.06593 2.0775 0
M  V30 3363 C 349.264 -1.39448 0.974082 0
M  V30 3364 O 350.449 -1.48815 1.24771 0
M  V30 3365 C 347.579 -2.37509 2.5339 0
M  V30 3366 C 346.533 -2.1897 3.67745 0
M  V30 3367 C 345.859 -3.55402 3.99492 0
M  V30 3368 C 347.159 -1.59859 4.97235 0
M  V30 3369 H 348.853 -0.647706 2.9231 0
M  V30 3370 H 346.399 -0.310116 1.40621 0
M  V30 3371 H 348.352 -3.08409 2.87162 0
M  V30 3372 H 347.076 -2.8134 1.65878 0
M  V30 3373 H 345.735 -1.50508 3.3428 0
M  V30 3374 H 345.383 -3.9683 3.09088 0
M  V30 3375 H 345.083 -3.43831 4.76502 0
M  V30 3376 H 346.607 -4.27708 4.35773 0
M  V30 3377 H 348.021 -2.20642 5.29141 0
M  V30 3378 H 346.418 -1.58942 5.78669 0
M  V30 3379 H 347.488 -0.561506 4.81638 0
M  V30 3380 N 348.832 -1.54138 -0.328536 0
M  V30 3381 C 350.109 -1.62749 -1.08499 0
M  V30 3382 C 350.489 -0.458198 -2.06067 0
M  V30 3383 O 349.837 0.548046 -2.2183 0
M  V30 3384 C 350.047 -2.99519 -1.79135 0
M  V30 3385 C 351.395 -3.55394 -2.32337 0
M  V30 3386 O 352.419 -3.01792 -1.89209 0
M  V30 3387 O 351.278 -4.49186 -3.11279 0
M  V30 3388 H 348.372 -0.65886 -0.499832 0
M  V30 3389 H 350.918 -1.66484 -0.328826 0
M  V30 3390 H 349.69 -3.76061 -1.08139 0
M  V30 3391 H 349.313 -2.99441 -2.61574 0
M  V30 3392 N 350.31 0.590341 -1.46126 0
M  V30 3393 C 351.273 1.68194 -1.55703 0
M  V30 3394 C 352.273 1.54808 -0.434868 0
M  V30 3395 O 353.463 1.59564 -0.698928 0
M  V30 3396 C 350.595 3.07575 -1.47005 0
M  V30 3397 H 351.788 1.61064 -2.52979 0
M  V30 3398 H 349.341 0.807541 -1.33823 0
M  V30 3399 H 350.076 3.20268 -0.509785 0
M  V30 3400 H 349.861 3.187 -2.28414 0
M  V30 3401 H 351.351 3.87055 -1.56776 0
M  V30 3402 N 351.788 1.33704 0.83433 0
M  V30 3403 C 352.721 1.18675 1.94914 0
M  V30 3404 C 353.699 0.0811145 1.62398 0
M  V30 3405 O 354.883 0.244186 1.86912 0
M  V30 3406 C 352.01 0.821231 3.28593 0
M  V30 3407 C 351.056 1.93501 3.80079 0
M  V30 3408 S 351.889 3.54671 4.01209 0
M  V30 3409 C 353.045 3.20136 5.37833 0
M  V30 3410 H 353.278 2.13043 2.07364 0
M  V30 3411 H 350.811 1.18598 0.988624 0
M  V30 3412 H 352.769 0.617123 4.05835 0
M  V30 3413 H 351.43 -0.103927 3.13928 0
M  V30 3414 H 350.623 1.63273 4.76821 0
M  V30 3415 H 350.225 2.09601 3.09747 0
M  V30 3416 H 352.517 2.71242 6.20833 0
M  V30 3417 H 353.46 4.15975 5.73036 0
M  V30 3418 H 353.868 2.56613 5.02802 0
M  V30 3419 N 353.266 -1.05314 1.17247 0
M  V30 3420 C 354.513 -1.78293 0.960091 0
M  V30 3421 C 354.841 -1.87658 -0.51136 0
M  V30 3422 O 354.096 -1.3718 -1.39571 0
M  V30 3423 C 354.395 -3.2229 1.54479 0
M  V30 3424 C 354.061 -3.32987 3.04024 0
M  V30 3425 C 352.723 -3.35613 3.44844 0
M  V30 3426 C 355.075 -3.34102 4.00031 0
M  V30 3427 C 352.403 -3.36982 4.8027 0
M  V30 3428 C 354.755 -3.3701 5.35357 0
M  V30 3429 C 353.419 -3.37923 5.75642 0
M  V30 3430 H 352.689 -0.652422 0.351322 0
M  V30 3431 H 355.336 -1.23782 1.46117 0
M  V30 3432 H 353.641 -3.7972 0.965391 0
M  V30 3433 H 355.338 -3.77376 1.35603 0
M  V30 3434 H 351.928 -3.31655 2.71483 0
M  V30 3435 H 356.112 -3.31276 3.69554 0
M  V30 3436 H 351.368 -3.35999 5.10798 0
M  V30 3437 H 355.542 -3.36822 6.09528 0
M  V30 3438 H 353.169 -3.38738 6.80559 0
M  V30 3439 N 354.744 -0.972509 -1.24016 0
M  V30 3440 C 356.16 -0.679827 -1.44397 0
M  V30 3441 C 356.36 0.756716 -1.86751 0
M  V30 3442 O 355.416 1.53007 -2.00861 0
M  V30 3443 C 356.729 -1.66803 -2.50195 0
M  V30 3444 C 358.277 -1.68119 -2.64017 0
M  V30 3445 C 358.752 -2.65748 -3.73017 0
M  V30 3446 N 360.243 -2.64219 -3.8045 0
M  V30 3447 C 360.978 -3.36433 -4.64328 0
M  V30 3448 N 360.474 -4.1818 -5.52356 0
M  V30 3449 N 362.267 -3.25235 -4.58453 0
M  V30 3450 H 354.418 -1.90059 -0.948228 0
M  V30 3451 H 356.681 -0.818527 -0.478245 0
M  V30 3452 H 356.387 -2.69498 -2.25973 0
M  V30 3453 H 356.261 -1.4446 -3.48441 0
M  V30 3454 H 358.648 -0.661319 -2.87594 0
M  V30 3455 H 358.729 -1.94525 -1.66113 0
M  V30 3456 H 358.373 -3.67872 -3.50189 0
M  V30 3457 H 358.303 -2.36619 -4.70446 0
M  V30 3458 H 360.794 -2.04887 -3.17537 0
M  V30 3459 H 361.107 -4.70157 -6.13329 0
M  V30 3460 H 359.452 -4.22273 -5.52006 0
M  V30 3461 H 362.643 -2.60829 -3.88698 0
M  V30 3462 H 362.816 -3.81776 -5.23594 0
M  V30 3463 N 356.222 1.38976 -0.743202 0
M  V30 3464 C 357.185 2.28901 -0.117014 0
M  V30 3465 C 358.185 1.46698 0.658503 0
M  V30 3466 O 359.375 1.67274 0.486305 0
M  V30 3467 C 356.507 3.30309 0.84315 0
M  V30 3468 H 357.7 2.8578 -0.909373 0
M  V30 3469 H 355.253 1.47761 -0.509547 0
M  V30 3470 H 355.988 2.785 1.66157 0
M  V30 3471 H 355.773 3.91029 0.289594 0
M  V30 3472 H 357.263 3.97577 1.2776 0
M  V30 3473 N 357.7 0.491464 1.49741 0
M  V30 3474 C 358.947 -0.0564256 2.02421 0
M  V30 3475 C 359.275 -1.37872 1.37192 0
M  V30 3476 O 358.53 -1.89375 0.493508 0
M  V30 3477 C 358.829 -0.267329 3.56399 0
M  V30 3478 C 358.495 0.975775 4.40215 0
M  V30 3479 C 357.157 1.31655 4.62839 0
M  V30 3480 C 359.509 1.80251 4.89039 0
M  V30 3481 C 356.837 2.48375 5.31532 0
M  V30 3482 C 359.189 2.96116 5.59015 0
M  V30 3483 C 357.853 3.30585 5.79888 0
M  V30 3484 H 357.123 -0.0206476 0.740712 0
M  V30 3485 H 359.77 0.649686 1.80143 0
M  V30 3486 H 358.075 -1.05588 3.77304 0
M  V30 3487 H 359.772 -0.705549 3.94744 0
M  V30 3488 H 356.362 0.700315 4.2284 0
M  V30 3489 H 360.546 1.55239 4.71396 0
M  V30 3490 H 355.802 2.7533 5.45897 0
M  V30 3491 H 359.976 3.60509 5.95824 0
M  V30 3492 H 357.603 4.21132 6.32892 0
M  V30 3493 N 359.178 -1.55987 0.224894 0
M  V30 3494 C 360.125 -2.20436 -0.68385 0
M  V30 3495 C 361.095 -1.16102 -1.18783 0
M  V30 3496 O 362.28 -1.4447 -1.24632 0
M  V30 3497 C 359.42 -2.89076 -1.88491 0
M  V30 3498 C 358.533 -4.08012 -1.41951 0
M  V30 3499 C 357.668 -4.64426 -2.5784 0
M  V30 3500 C 356.707 -5.75656 -2.08053 0
M  V30 3501 N 355.844 -6.26347 -3.17227 0
M  V30 3502 H 360.684 -2.97727 -0.12754 0
M  V30 3503 H 358.221 -1.47011 -0.0511978 0
M  V30 3504 H 360.179 -3.27059 -2.59014 0
M  V30 3505 H 358.809 -2.14298 -2.41405 0
M  V30 3506 H 357.861 -3.75492 -0.609095 0
M  V30 3507 H 359.173 -4.88375 -1.01447 0
M  V30 3508 H 358.327 -5.04869 -3.3644 0
M  V30 3509 H 357.066 -3.83233 -3.01635 0
M  V30 3510 H 356.071 -5.34712 -1.27916 0
M  V30 3511 H 357.296 -6.58686 -1.65255 0
M  V30 3512 H 355.242 -5.48067 -3.60497 0
M  V30 3513 H 355.159 -7.01843 -2.80986 0
M  V30 3514 H 356.427 -6.71447 -3.95953 0
M  V30 3515 N 360.656 0.0484629 -1.57525 0
M  V30 3516 C 361.881 0.759177 -1.93006 0
M  V30 3517 C 362.306 1.69125 -0.823317 0
M  V30 3518 O 361.664 1.79931 0.222364 0
M  V30 3519 C 361.712 1.50899 -3.27509 0
M  V30 3520 O 360.816 2.62112 -3.18388 0
M  V30 3521 H 360.157 0.205564 -0.631379 0
M  V30 3522 H 362.687 0.00972959 -2.04598 0
M  V30 3523 H 362.697 1.88317 -3.6194 0
M  V30 3524 H 361.372 0.825269 -4.0763 0
M  V30 3525 H 359.949 2.27379 -2.95556 0
M  V30 3526 N 362.134 1.5431 0.320358 0
M  V30 3527 C 363.064 1.86912 1.3995 0
M  V30 3528 C 364.045 0.726211 1.53819 0
M  V30 3529 O 365.23 0.980233 1.67646 0
M  V30 3530 C 362.36 2.09932 2.7667 0
M  V30 3531 C 361.314 3.25776 2.77586 0
M  V30 3532 C 360.64 3.34173 4.17412 0
M  V30 3533 C 361.94 4.6335 2.41048 0
M  V30 3534 H 363.634 2.77292 1.12914 0
M  V30 3535 H 361.18 1.33421 0.541738 0
M  V30 3536 H 363.133 2.31324 3.52232 0
M  V30 3537 H 361.857 1.16304 3.0519 0
M  V30 3538 H 360.516 3.04276 2.04479 0
M  V30 3539 H 360.164 2.38098 4.43078 0
M  V30 3540 H 359.864 4.12033 4.18931 0
M  V30 3541 H 361.388 3.57803 4.94782 0
M  V30 3542 H 362.802 4.84602 3.06324 0
M  V30 3543 H 361.199 5.43782 2.53813 0
M  V30 3544 H 362.269 4.65381 1.36193 0
M  V30 3545 N 363.613 -0.582584 1.46437 0
M  V30 3546 C 364.89 -1.34276 1.4223 0
M  V30 3547 C 365.27 -2.10835 0.10583 0
M  V30 3548 O 364.618 -2.09485 -0.912596 0
M  V30 3549 C 364.828 -2.26865 2.65204 0
M  V30 3550 C 366.176 -2.88691 3.11356 0
M  V30 3551 O 367.2 -2.37178 2.65753 0
M  V30 3552 O 366.059 -3.82255 3.90568 0
M  V30 3553 H 363.153 -0.603326 0.565621 0
M  V30 3554 H 365.699 -0.603591 1.58603 0
M  V30 3555 H 364.471 -1.69724 3.52576 0
M  V30 3556 H 364.094 -3.08122 2.5129 0
M  V30 3557 N 365.091 -1.34144 -0.827227 0
M  V30 3558 C 366.038 -1.25364 -1.93785 0
M  V30 3559 C 367.008 -0.129774 -1.65592 0
M  V30 3560 O 368.193 -0.310024 -1.88264 0
M  V30 3561 C 365.333 -1.01064 -3.2997 0
M  V30 3562 C 364.446 -2.22185 -3.70484 0
M  V30 3563 C 363.581 -1.91203 -4.95595 0
M  V30 3564 C 362.62 -3.08491 -5.28677 0
M  V30 3565 N 361.757 -2.77421 -6.44967 0
M  V30 3566 H 366.597 -2.20347 -2.00627 0
M  V30 3567 H 364.134 -1.09558 -0.981608 0
M  V30 3568 H 366.092 -0.850139 -4.08446 0
M  V30 3569 H 364.722 -0.0975026 -3.22653 0
M  V30 3570 H 363.774 -2.4917 -2.87434 0
M  V30 3571 H 365.086 -3.0983 -3.90905 0
M  V30 3572 H 364.24 -1.71864 -5.81848 0
M  V30 3573 H 362.979 -1.00812 -4.77167 0
M  V30 3574 H 361.984 -3.28431 -4.40923 0
M  V30 3575 H 363.209 -3.99655 -5.49047 0
M  V30 3576 H 361.155 -1.89601 -6.28003 0
M  V30 3577 H 361.072 -3.58598 -6.6554 0
M  V30 3578 H 362.34 -2.61577 -7.34301 0
M  V30 3579 N 366.569 1.04691 -1.17803 0
M  V30 3580 C 367.846 1.7472 -0.879328 0
M  V30 3581 C 368.226 2.01812 0.619271 0
M  V30 3582 O 367.574 1.65824 1.57209 0
M  V30 3583 C 367.784 3.03686 -1.71976 0
M  V30 3584 C 369.132 3.77542 -1.94286 0
M  V30 3585 O 370.156 3.13569 -1.68976 0
M  V30 3586 O 369.015 4.92506 -2.36855 0
M  V30 3587 H 366.109 0.760011 -0.326056 0
M  V30 3588 H 368.655 1.10813 -1.28525 0
M  V30 3589 H 367.427 2.79754 -2.73594 0
M  V30 3590 H 367.05 3.75332 -1.31194 0
M  V30 3591 N 368.047 0.979072 1.23499 0
M  V30 3592 C 369.295 0.645941 1.91499 0
M  V30 3593 C 369.616 -0.822948 1.76784 0
M  V30 3594 O 368.886 -1.58854 1.14639 0
M  V30 3595 H 367.466 0.235919 0.708767 0
M  V30 3596 H 370.128 1.2426 1.50152 0
M  V30 3597 H 369.224 0.896411 2.9895 0
M  V30 3598 N 369.525 -1.3858 0.750561 0
M  V30 3599 C 370.753 -2.04471 0.316098 0
M  V30 3600 C 371.168 -1.56606 -1.05452 0
M  V30 3601 O 370.525 -0.737784 -1.66922 0
M  V30 3602 C 370.576 -3.60025 0.326275 0
M  V30 3603 O 370.297 -4.06133 1.6428 0
M  V30 3604 C 371.798 -4.43131 -0.122429 0
M  V30 3605 H 369.018 -0.65717 0.135528 0
M  V30 3606 H 371.562 -1.77329 1.01857 0
M  V30 3607 H 369.717 -3.86014 -0.327431 0
M  V30 3608 H 370.131 -5.00547 1.56693 0
M  V30 3609 H 371.605 -5.51963 -0.0641473 0
M  V30 3610 H 372.082 -4.23333 -1.16988 0
M  V30 3611 H 372.688 -4.22323 0.50229 0
M  V30 3612 N 371.003 -0.499398 -1.49478 0
M  V30 3613 C 372.251 0.0455996 -2.02049 0
M  V30 3614 C 372.572 1.37633 -1.38138 0
M  V30 3615 O 371.842 1.8842 -0.536166 0
M  V30 3616 H 370.422 0.0198416 -0.746736 0
M  V30 3617 H 373.084 -0.656274 -1.83519 0
M  V30 3618 H 372.18 0.176445 -3.11601 0
M  V30 3619 N 372.481 1.55866 -0.233164 0
M  V30 3620 C 373.413 2.18099 0.704668 0
M  V30 3621 C 374.426 1.15334 1.14899 0
M  V30 3622 O 375.615 1.42262 1.07814 0
M  V30 3623 C 372.715 2.7592 1.96777 0
M  V30 3624 C 371.888 4.03969 1.67713 0
M  V30 3625 C 370.947 4.46242 2.78845 0
M  V30 3626 O 369.973 5.12903 2.46818 0
M  V30 3627 N 371.175 4.12886 4.08051 0
M  V30 3628 H 373.94 2.99205 0.172258 0
M  V30 3629 H 371.501 1.61815 -0.0525945 0
M  V30 3630 H 373.493 3.01165 2.70337 0
M  V30 3631 H 372.063 1.99051 2.41034 0
M  V30 3632 H 371.283 3.86459 0.777391 0
M  V30 3633 H 372.571 4.8748 1.4574 0
M  V30 3634 H 371.969 3.59342 4.3691 0
M  V30 3635 H 370.526 4.42997 4.78118 0
M  V30 3636 N 373.959 -0.0401083 1.57549 0
M  V30 3637 C 375.208 -0.732108 1.87944 0
M  V30 3638 C 375.521 -1.77107 0.830206 0
M  V30 3639 O 376.727 -2.51488 1.02302 0
M  V30 3640 C 375.183 -1.35315 3.33494 0
M  V30 3641 C 374.791 -0.351105 4.46622 0
M  V30 3642 C 376.535 -2.02566 3.73051 0
M  V30 3643 C 374.442 -0.979859 5.83226 0
M  V30 3644 H 373.372 -0.277188 0.701201 0
M  V30 3645 H 376.023 0.0138501 1.83495 0
M  V30 3646 H 374.405 -2.14844 3.32653 0
M  V30 3647 H 375.579 0.416674 4.58912 0
M  V30 3648 H 373.894 0.218708 4.15825 0
M  V30 3649 H 376.491 -2.50441 4.72423 0
M  V30 3650 H 376.834 -2.83904 3.04474 0
M  V30 3651 H 377.367 -1.29827 3.76018 0
M  V30 3652 H 374.106 -0.206135 6.55176 0
M  V30 3653 H 373.626 -1.71774 5.74677 0
M  V30 3654 H 375.305 -1.49046 6.29599 0
M  V30 3655 N 375.437 -1.54477 -0.31217 0
M  V30 3656 C 376.369 -1.81011 -1.40598 0
M  V30 3657 C 377.382 -0.692546 -1.47335 0
M  V30 3658 O 378.571 -0.969847 -1.49854 0
M  V30 3659 C 375.671 -1.92307 -2.79054 0
M  V30 3660 C 374.844 -3.22594 -2.95384 0
M  V30 3661 C 373.903 -3.24448 -4.1427 0
M  V30 3662 O 372.929 -3.98035 -4.06887 0
M  V30 3663 N 374.131 -2.49042 -5.24365 0
M  V30 3664 H 376.896 -2.75408 -1.18196 0
M  V30 3665 H 374.457 -1.53914 -0.502202 0
M  V30 3666 H 376.449 -1.90962 -3.56813 0
M  V30 3667 H 375.019 -1.04955 -2.94454 0
M  V30 3668 H 374.239 -3.36806 -2.04831 0
M  V30 3669 H 375.527 -4.08593 -3.03198 0
M  V30 3670 H 374.925 -1.88867 -5.33241 0
M  V30 3671 H 373.482 -2.53463 -6.005 0
M  V30 3672 N 376.915 0.57481 -1.46744 0
M  V30 3673 C 378.161 1.3347 -1.52688 0
M  V30 3674 C 378.494 1.93353 -0.181229 0
M  V30 3675 O 377.769 1.76912 0.808237 0
M  V30 3676 C 378.052 2.45811 -2.63152 0
M  V30 3677 C 377.905 1.90912 -4.07275 0
M  V30 3678 C 379.224 3.47822 -2.69644 0
M  V30 3679 H 376.343 0.483935 -0.555856 0
M  V30 3680 H 378.985 0.644968 -1.78718 0
M  V30 3681 H 377.135 3.04646 -2.41088 0
M  V30 3682 H 378.807 1.36473 -4.4065 0
M  V30 3683 H 377.05 1.21691 -4.16382 0
M  V30 3684 H 377.721 2.72042 -4.80309 0
M  V30 3685 H 380.197 2.9888 -2.895 0
M  V30 3686 H 379.073 4.23876 -3.48742 0
M  V30 3687 H 379.334 4.05555 -1.76005 0
M  V30 3688 N 378.394 1.34581 0.820102 0
M  V30 3689 C 379.342 1.26401 1.95258 0
M  V30 3690 C 380.336 0.161553 1.68628 0
M  V30 3691 O 381.542 0.326703 1.7701 0
M  V30 3692 H 377.917 0.392749 0.64129 0
M  V30 3693 H 379.888 2.22105 1.99279 0
M  V30 3694 C 378.637 1.03919 3.31807 0
M  V30 3695 H 377.96 1.87984 3.52848 0
M  V30 3696 H 379.4 1.02232 4.11491 0
M  V30 3697 C 377.859 -0.257433 3.35915 0
M  V30 3698 O 378.389 -1.25784 3.81499 0
M  V30 3699 N 376.595 -0.291524 2.89134 0
M  V30 3700 H 376.142 0.523161 2.52232 0
M  V30 3701 H 376.1 -1.15883 2.92264 0
M  V30 3702 N 379.872 -1.04064 1.18357 0
M  V30 3703 C 381.121 -1.76662 0.973313 0
M  V30 3704 C 381.434 -1.89154 -0.497991 0
M  V30 3705 O 382.64 -2.58606 -0.826762 0
M  V30 3706 C 381.096 -3.17624 1.69242 0
M  V30 3707 C 380.704 -3.13225 3.20303 0
M  V30 3708 C 382.448 -3.946 1.56497 0
M  V30 3709 C 380.355 -4.49046 3.84853 0
M  V30 3710 H 379.285 -0.662214 0.36054 0
M  V30 3711 H 381.936 -1.16553 1.41731 0
M  V30 3712 H 380.318 -3.78129 1.1762 0
M  V30 3713 H 381.492 -2.62172 3.78949 0
M  V30 3714 H 379.807 -2.49749 3.33189 0
M  V30 3715 H 382.404 -4.95042 2.02084 0
M  V30 3716 H 382.747 -4.13074 0.517243 0
M  V30 3717 H 383.28 -3.4067 2.05399 0
M  V30 3718 H 380.019 -4.35777 4.89672 0
M  V30 3719 H 379.539 -5.00203 3.30994 0
M  V30 3720 H 381.218 -5.17961 3.87718 0
M  V30 3721 N 381.35 -0.985608 -1.22978 0
M  V30 3722 C 382.282 -0.488154 -2.23941 0
M  V30 3723 C 383.295 0.41282 -1.57479 0
M  V30 3724 O 384.484 0.216121 -1.77187 0
M  V30 3725 C 381.584 0.312611 -3.37455 0
M  V30 3726 C 380.757 -0.582741 -4.33501 0
M  V30 3727 C 379.816 0.165064 -5.25941 0
M  V30 3728 O 378.842 -0.447077 -5.67442 0
M  V30 3729 N 380.044 1.44953 -5.62111 0
M  V30 3730 H 382.809 -1.3563 -2.67254 0
M  V30 3731 H 380.37 -0.859477 -1.37203 0
M  V30 3732 H 382.362 0.821357 -3.96277 0
M  V30 3733 H 380.932 1.0818 -2.93285 0
M  V30 3734 H 380.152 -1.27225 -3.73105 0
M  V30 3735 H 381.44 -1.19275 -4.94622 0
M  V30 3736 H 380.838 1.9683 -5.30353 0
M  V30 3737 H 379.395 1.90361 -6.23383 0
M  V30 3738 N 382.828 1.3818 -0.7579 0
M  V30 3739 C 383.738 2.3421 -0.135247 0
M  V30 3740 C 384.754 1.59487 0.695683 0
M  V30 3741 O 385.93 1.91657 0.618832 0
M  V30 3742 C 382.995 3.3862 0.744139 0
M  V30 3743 C 382.056 4.2918 -0.101658 0
M  V30 3744 C 381.289 5.28603 0.735851 0
M  V30 3745 O 381.512 5.35166 1.97366 0
M  V30 3746 O 380.446 6.01707 0.152372 0
M  V30 3747 H 384.272 2.8916 -0.928436 0
M  V30 3748 H 381.857 1.40101 -0.518855 0
M  V30 3749 H 383.739 4.02539 1.2466 0
M  V30 3750 H 382.414 2.86019 1.51575 0
M  V30 3751 H 381.321 3.68407 -0.650167 0
M  V30 3752 H 382.654 4.85048 -0.836024 0
M  V30 3753 N 384.306 0.507319 1.49211 0
M  V30 3754 C 385.552 -0.0269732 2.03382 0
M  V30 3755 C 385.907 -1.34111 1.37957 0
M  V30 3756 O 385.2 -1.84733 0.508351 0
M  V30 3757 C 385.394 -0.229513 3.56662 0
M  V30 3758 C 385.223 1.06344 4.36945 0
M  V30 3759 C 383.993 1.617 4.78729 0
M  V30 3760 C 386.191 1.96833 4.75143 0
M  V30 3761 N 384.173 2.8552 5.43463 0
M  V30 3762 C 385.544 3.0523 5.39661 0
M  V30 3763 C 387.599 1.97434 4.57082 0
M  V30 3764 C 386.302 4.14265 5.88028 0
M  V30 3765 C 388.328 3.05448 5.06414 0
M  V30 3766 C 387.69 4.12564 5.70938 0
M  V30 3767 H 383.789 0.0310673 0.781383 0
M  V30 3768 H 386.373 0.683579 1.82305 0
M  V30 3769 H 384.544 -0.909127 3.7761 0
M  V30 3770 H 386.276 -0.761377 3.97473 0
M  V30 3771 H 383.031 1.16132 4.59141 0
M  V30 3772 H 383.455 3.48499 5.80412 0
M  V30 3773 H 388.097 1.15924 4.06597 0
M  V30 3774 H 385.815 4.96569 6.3753 0
M  V30 3775 H 389.401 3.06941 4.94246 0
M  V30 3776 H 388.281 4.94767 6.0842 0
M  V30 3777 N 385.784 -1.5574 0.241426 0
M  V30 3778 C 386.714 -2.24133 -0.654722 0
M  V30 3779 C 387.695 -1.21974 -1.1856 0
M  V30 3780 O 388.88 -1.50612 -1.22595 0
M  V30 3781 C 386.01 -2.93659 -1.85423 0
M  V30 3782 C 384.964 -4.0246 -1.45636 0
M  V30 3783 C 384.29 -4.59383 -2.73626 0
M  V30 3784 C 385.59 -5.18468 -0.631506 0
M  V30 3785 H 387.284 -2.99281 -0.0844353 0
M  V30 3786 H 384.83 -1.43947 -0.0391707 0
M  V30 3787 H 386.783 -3.40203 -2.48676 0
M  V30 3788 H 385.507 -2.15991 -2.44981 0
M  V30 3789 H 384.166 -3.56676 -0.847202 0
M  V30 3790 H 383.814 -3.78422 -3.3137 0
M  V30 3791 H 383.514 -5.32826 -2.4773 0
M  V30 3792 H 385.038 -5.08658 -3.37786 0
M  V30 3793 H 386.452 -5.61272 -1.1682 0
M  V30 3794 H 384.849 -5.98266 -0.468831 0
M  V30 3795 H 385.919 -4.8358 0.357506 0
M  V30 3796 N 387.262 0.0317525 -1.57568 0
M  V30 3797 C 388.194 1.06073 -2.03178 0
M  V30 3798 C 389.207 1.32627 -0.944132 0
M  V30 3799 O 390.396 1.30162 -1.22148 0
M  V30 3800 C 387.496 2.40297 -2.38978 0
M  V30 3801 C 386.669 2.33137 -3.70089 0
M  V30 3802 C 385.728 3.49787 -3.9311 0
M  V30 3803 O 384.754 3.29403 -4.64201 0
M  V30 3804 N 385.956 4.71562 -3.38541 0
M  V30 3805 H 388.721 0.672006 -2.92069 0
M  V30 3806 H 386.282 0.219745 -1.60402 0
M  V30 3807 H 388.274 3.1705 -2.51518 0
M  V30 3808 H 386.844 2.71024 -1.55771 0
M  V30 3809 H 386.064 1.415 -3.67928 0
M  V30 3810 H 387.352 2.25493 -4.56104 0
M  V30 3811 H 386.75 4.91024 -2.80912 0
M  V30 3812 H 385.307 5.45689 -3.56464 0
M  V30 3813 N 388.74 1.54641 0.303973 0
M  V30 3814 C 389.67 1.88386 1.3796 0
M  V30 3815 C 390.651 0.742485 1.5304 0
M  V30 3816 O 391.836 0.997959 1.66597 0
M  V30 3817 C 388.966 2.12854 2.74427 0
M  V30 3818 C 387.92 3.28702 2.74115 0
M  V30 3819 C 387.246 3.38582 4.13844 0
M  V30 3820 C 388.546 4.65881 2.3612 0
M  V30 3821 H 390.24 2.78474 1.09966 0
M  V30 3822 H 387.786 1.33988 0.527556 0
M  V30 3823 H 389.739 2.35047 3.49758 0
M  V30 3824 H 388.463 1.19535 3.03939 0
M  V30 3825 H 387.122 3.06428 2.0124 0
M  V30 3826 H 386.77 2.42784 4.40528 0
M  V30 3827 H 386.47 4.16453 4.14537 0
M  V30 3828 H 387.994 3.63031 4.90959 0
M  V30 3829 H 389.408 4.87823 3.01167 0
M  V30 3830 H 387.805 5.46444 2.48031 0
M  V30 3831 H 388.875 4.66799 1.3125 0
M  V30 3832 N 390.218 -0.567019 1.47046 0
M  V30 3833 C 391.446 -1.35027 1.56765 0
M  V30 3834 C 391.861 -1.8758 0.214316 0
M  V30 3835 O 391.218 -1.64471 -0.790919 0
M  V30 3836 C 391.269 -2.52698 2.58507 0
M  V30 3837 O 390.99 -2.0232 3.88585 0
M  V30 3838 C 392.491 -3.45043 2.78316 0
M  V30 3839 H 389.711 -0.41195 0.529658 0
M  V30 3840 H 392.255 -0.687832 1.92585 0
M  V30 3841 H 390.41 -3.149 2.25648 0
M  V30 3842 H 390.824 -2.79068 4.44096 0
M  V30 3843 H 392.298 -4.2405 3.53391 0
M  V30 3844 H 392.775 -3.97971 1.85784 0
M  V30 3845 H 393.381 -2.88665 3.12334 0
M  V30 3846 N 391.696 -1.35014 -0.812953 0
M  V30 3847 C 392.629 -1.21761 -1.93001 0
M  V30 3848 C 393.607 -0.10694 -1.62248 0
M  V30 3849 O 394.791 -0.273891 -1.865 0
M  V30 3850 C 391.918 -0.873404 -3.27245 0
M  V30 3851 C 390.964 -1.99523 -3.76952 0
M  V30 3852 S 391.797 -3.61009 -3.95516 0
M  V30 3853 C 392.953 -3.28651 -5.32672 0
M  V30 3854 H 393.186 -2.16315 -2.03948 0
M  V30 3855 H 390.719 -1.20156 -0.969631 0
M  V30 3856 H 392.677 -0.68161 -4.04802 0
M  V30 3857 H 391.338 0.053971 -3.14054 0
M  V30 3858 H 390.531 -1.70838 -4.74163 0
M  V30 3859 H 390.133 -2.14503 -3.06373 0
M  V30 3860 H 392.425 -2.81085 -6.1644 0
M  V30 3861 H 393.368 -4.25039 -5.66346 0
M  V30 3862 H 393.776 -2.6458 -4.98656 0
M  V30 3863 N 393.175 1.03435 -1.18907 0
M  V30 3864 C 394.405 1.8012 -1.01195 0
M  V30 3865 C 394.813 1.8395 0.442613 0
M  V30 3866 O 394.156 1.27836 1.31923 0
M  V30 3867 C 394.218 3.26792 -1.49823 0
M  V30 3868 C 393.882 3.46609 -2.97844 0
M  V30 3869 C 394.879 3.37278 -3.95651 0
M  V30 3870 C 392.564 3.73001 -3.36416 0
M  V30 3871 C 394.558 3.54054 -5.30023 0
M  V30 3872 C 392.245 3.89423 -4.70949 0
M  V30 3873 C 393.243 3.79951 -5.67562 0
M  V30 3874 O 392.931 3.95895 -6.99659 0
M  V30 3875 H 392.663 0.573865 -0.357289 0
M  V30 3876 H 395.217 1.31207 -1.58031 0
M  V30 3877 H 393.447 3.76703 -0.873578 0
M  V30 3878 H 395.136 3.85055 -1.28404 0
M  V30 3879 H 395.902 3.16846 -3.67197 0
M  V30 3880 H 391.781 3.79469 -2.61772 0
M  V30 3881 H 395.325 3.46577 -6.05417 0
M  V30 3882 H 391.222 4.09351 -4.99101 0
M  V30 3883 H 391.99 4.13019 -7.06653 0
M  V30 3884 N 394.653 0.992116 1.22453 0
M  V30 3885 C 395.878 0.685644 1.95739 0
M  V30 3886 C 396.303 -0.743 1.72804 0
M  V30 3887 O 395.661 -1.50778 1.00676 0
M  V30 3888 C 395.709 0.996293 3.46564 0
M  V30 3889 O 394.813 0.0945512 4.12292 0
M  V30 3890 H 394.154 0.256694 0.612376 0
M  V30 3891 H 396.684 1.32888 1.5557 0
M  V30 3892 H 396.694 0.93781 3.97076 0
M  V30 3893 H 395.369 2.03733 3.62582 0
M  V30 3894 H 393.946 0.208451 3.72317 0
M  V30 3895 O 396.17 -1.33952 0.902177 0
M  V30 3896 H 396.861 -1.86748 0.514279 0
M  V30 END ATOM
M  V30 BEGIN BOND
M  V30 END BOND
M  V30 END CTAB
M  END
$$$$
