drugbank_target|P04792 Heat shock protein beta-1 (DB06094; DB11638; DB12695)
 OpenBabel12092120323D

  0  0  0     0  0            999 V3000
M  V30 BEGIN CTAB
M  V30 COUNTS 3175 3224 0 0 0
M  V30 BEGIN ATOM
M  V30 1 H -0.908 1.98254 -0.117106 0
M  V30 2 N 0 1.576 0 0
M  V30 3 C 0.933 2.03868 1.02534 0
M  V30 4 C 1.911 0.928543 1.3348 0
M  V30 5 O 3.095 1.19667 1.45644 0
M  V30 6 C 0.222 2.43627 2.35294 0
M  V30 7 C -0.732 3.65373 2.2001 0
M  V30 8 S 0.101 5.13292 1.52614 0
M  V30 9 C 1.257 5.56322 2.86805 0
M  V30 10 H 1.49 2.90518 0.631377 0
M  V30 11 H -0.977 1.52953 0.210867 0
M  V30 12 H 0.981 2.67203 3.11629 0
M  V30 13 H -0.358 1.57376 2.7183 0
M  V30 14 H -1.165 3.90944 3.18086 0
M  V30 15 H -1.563 3.418 1.51819 0
M  V30 16 H 0.729 5.58782 3.83104 0
M  V30 17 H 1.672 6.56266 2.65933 0
M  V30 18 H 2.08 4.83886 2.90714 0
M  V30 19 N 1.4781 -0.272755 1.55222 0
M  V30 20 C 2.7061 -1.02255 1.79865 0
M  V30 21 C 3.1211 -1.79924 0.572088 0
M  V30 22 O 2.4781 -1.76638 -0.458842 0
M  V30 23 C 2.5291 -1.98094 3.02392 0
M  V30 24 O 2.2501 -1.23572 4.20311 0
M  V30 25 C 3.7511 -2.84884 3.39641 0
M  V30 26 H 0.9711 -0.302057 0.599168 0
M  V30 27 H 3.5151 -0.303465 2.02236 0
M  V30 28 H 1.6701 -2.65465 2.82147 0
M  V30 29 H 2.0841 -1.88172 4.89583 0
M  V30 30 H 3.5581 -3.47927 4.28545 0
M  V30 31 H 4.0351 -3.54665 2.59055 0
M  V30 32 H 4.6411 -2.23003 3.62146 0
M  V30 33 N 2.9562 -1.48159 -0.537278 0
M  V30 34 C 3.8662 -1.64807 -1.6696 0
M  V30 35 C 4.8822 -0.530651 -1.65711 0
M  V30 36 O 6.0582 -0.800784 -1.84796 0
M  V30 37 C 3.1232 -1.67708 -3.03438 0
M  V30 38 C 2.1842 -2.91025 -3.156 0
M  V30 39 C 1.4172 -2.93778 -4.45567 0
M  V30 40 O 1.6402 -2.05153 -5.3223 0
M  V30 41 O 0.5742 -3.85868 -4.61941 0
M  V30 42 H 4.4002 -2.6066 -1.55853 0
M  V30 43 H 1.9852 -1.31475 -0.709549 0
M  V30 44 H 3.8672 -1.7218 -3.84619 0
M  V30 45 H 2.5422 -0.750278 -3.14885 0
M  V30 46 H 1.4492 -2.92089 -2.33741 0
M  V30 47 H 2.7822 -3.83065 -3.09066 0
M  V30 48 N 4.4343 0.785586 -1.36625 0
M  V30 49 C 5.8503 1.08419 -1.17122 0
M  V30 50 C 6.0503 2.015 0.00208491 0
M  V30 51 O 5.1063 2.43551 0.666278 0
M  V30 52 C 6.4193 1.69498 -2.48377 0
M  V30 53 C 7.9673 1.81821 -2.54775 0
M  V30 54 C 8.4423 2.46315 -3.86126 0
M  V30 55 N 9.9333 2.53779 -3.87492 0
M  V30 56 C 10.6683 3.045 -4.85868 0
M  V30 57 N 10.1643 3.55499 -5.94637 0
M  V30 58 N 11.9573 3.03247 -4.73284 0
M  V30 59 H 4.1083 0.167264 -2.1174 0
M  V30 60 H 6.3713 0.13682 -0.938075 0
M  V30 61 H 6.0773 1.08571 -3.34522 0
M  V30 62 H 5.9513 2.6896 -2.64462 0
M  V30 63 H 8.3383 2.41884 -1.69045 0
M  V30 64 H 8.4193 0.811532 -2.42586 0
M  V30 65 H 8.0633 1.86895 -4.72263 0
M  V30 66 H 7.9933 3.47561 -3.95612 0
M  V30 67 H 10.4843 2.17672 -3.08913 0
M  V30 68 H 10.7973 3.92562 -6.65669 0
M  V30 69 H 9.1423 3.5364 -5.98301 0
M  V30 70 H 12.3333 2.62696 -3.87438 0
M  V30 71 H 12.5063 3.42467 -5.50109 0
M  V30 72 N 5.9124 1.20967 1.01018 0
M  V30 73 C 7.3284 0.965905 1.27053 0
M  V30 74 C 7.5284 -0.350785 1.98423 0
M  V30 75 O 6.5844 -1.07773 2.28344 0
M  V30 76 C 7.8974 2.15294 2.09926 0
M  V30 77 C 9.4454 2.19463 2.23171 0
M  V30 78 C 9.9204 3.3767 3.09424 0
M  V30 79 N 11.4114 3.37724 3.17012 0
M  V30 80 C 12.1464 4.25837 3.83993 0
M  V30 81 N 11.6424 5.24138 4.53047 0
M  V30 82 N 13.4354 4.1366 3.80581 0
M  V30 83 H 5.5864 2.0565 0.531194 0
M  V30 84 H 7.8494 0.90024 0.297106 0
M  V30 85 H 7.5554 3.10684 1.64828 0
M  V30 86 H 7.4294 2.13923 3.10672 0
M  V30 87 H 9.8164 1.24632 2.6749 0
M  V30 88 H 9.8974 2.2488 1.21912 0
M  V30 89 H 9.5414 4.32791 2.65808 0
M  V30 90 H 9.4714 3.29491 4.10784 0
M  V30 91 H 11.9624 2.6658 2.6785 0
M  V30 92 H 12.2754 5.87684 5.01844 0
M  V30 93 H 10.6204 5.28068 4.5185 0
M  V30 94 H 13.8114 3.36127 3.25785 0
M  V30 95 H 13.9844 4.82538 4.32505 0
M  V30 96 N 7.3905 -1.2043 1.01659 0
M  V30 97 C 8.6365 -1.90079 0.706963 0
M  V30 98 C 8.9695 -1.78648 -0.761474 0
M  V30 99 O 8.2445 -1.17069 -1.55323 0
M  V30 100 C 8.5275 -3.41469 1.14327 0
M  V30 101 C 8.3805 -3.61833 2.67201 0
M  V30 102 C 9.6995 -4.34261 0.714529 0
M  V30 103 H 6.8185 -0.690254 0.2583 0
M  V30 104 H 9.4605 -1.41826 1.26433 0
M  V30 105 H 7.6105 -3.82696 0.669056 0
M  V30 106 H 9.2825 -3.2986 3.22475 0
M  V30 107 H 7.5255 -3.05304 3.08175 0
M  V30 108 H 8.1965 -4.67955 2.92783 0
M  V30 109 H 10.6725 -4.00682 1.12221 0
M  V30 110 H 9.5485 -5.38806 1.04784 0
M  V30 111 H 9.8095 -4.40431 -0.383799 0
M  V30 112 N 8.8686 -0.792821 -1.36206 0
M  V30 113 C 10.2796 -0.429513 -1.81692 0
M  V30 114 C 10.6306 1.04695 -1.65932 0
M  V30 115 O 9.7556 1.81256 -1.18218 0
M  V30 116 C 10.3506 -0.772831 -3.29868 0
M  V30 117 C 8.9096 -0.462307 -3.7355 0
M  V30 118 C 8.0566 -1.00569 -2.5842 0
M  V30 119 H 11.0076 -0.985672 -1.24379 0
M  V30 120 H 11.0286 -0.0651928 -3.80444 0
M  V30 121 H 10.5406 -1.84747 -3.41307 0
M  V30 122 H 8.6416 0.604158 -3.67669 0
M  V30 123 H 8.7546 -0.985299 -4.68859 0
M  V30 124 H 7.1186 -0.428734 -2.51066 0
M  V30 125 H 7.9016 -2.08616 -2.72643 0
M  V30 126 N 10.3467 1.47872 -0.545128 0
M  V30 127 C 11.5937 2.02493 -0.0165858 0
M  V30 128 C 11.9217 1.42073 1.32836 0
M  V30 129 O 11.1767 0.561459 1.87473 0
M  V30 130 C 11.4757 3.57131 0.13867 0
M  V30 131 C 11.1417 4.36411 -1.13384 0
M  V30 132 C 9.8037 4.57792 -1.48256 0
M  V30 133 C 12.1557 4.82223 -1.97764 0
M  V30 134 C 9.4837 5.22233 -2.67376 0
M  V30 135 C 11.8357 5.47977 -3.16076 0
M  V30 136 C 10.4997 5.67593 -3.51275 0
M  V30 137 H 9.7697 0.740975 -0.00606918 0
M  V30 138 H 12.4167 1.77683 -0.714207 0
M  V30 139 H 10.7217 3.80865 0.919172 0
M  V30 140 H 12.4187 3.97031 0.562782 0
M  V30 141 H 9.0087 4.2004 -0.852297 0
M  V30 142 H 13.1927 4.65493 -1.72132 0
M  V30 143 H 8.4487 5.35616 -2.94831 0
M  V30 144 H 12.6227 5.8244 -3.81755 0
M  V30 145 H 10.2497 6.17298 -4.43675 0
M  V30 146 N 11.8248 0.280983 1.55075 0
M  V30 147 C 13.0498 -0.340154 2.04592 0
M  V30 148 C 13.4748 -1.48246 1.15779 0
M  V30 149 O 12.8328 -1.80614 0.15761 0
M  V30 150 C 12.8808 -0.793104 3.5177 0
M  V30 151 O 11.9848 -1.89981 3.66034 0
M  V30 152 H 11.3258 -0.0694289 0.66036 0
M  V30 153 H 13.8558 0.416993 2.00306 0
M  V30 154 H 13.8658 -1.08729 3.93245 0
M  V30 155 H 12.5408 0.0426163 4.15878 0
M  V30 156 H 11.1178 -1.60771 3.36463 0
M  V30 157 N 13.3029 -1.57598 0.00835791 0
M  V30 158 C 14.2329 -2.1198 -0.979113 0
M  V30 159 C 15.2139 -1.03091 -1.35301 0
M  V30 160 O 16.3989 -1.30818 -1.43528 0
M  V30 161 C 13.5289 -2.62995 -2.26828 0
M  V30 162 C 12.4829 -3.76485 -2.03576 0
M  V30 163 C 11.8089 -4.13846 -3.38579 0
M  V30 164 C 13.1089 -5.0342 -1.39161 0
M  V30 165 H 14.8029 -2.94738 -0.526281 0
M  V30 166 H 12.3489 -1.41783 -0.251704 0
M  V30 167 H 14.3019 -2.99669 -2.96271 0
M  V30 168 H 13.0259 -1.7737 -2.7424 0
M  V30 169 H 11.6849 -3.40217 -1.36557 0
M  V30 170 H 11.3329 -3.25232 -3.83709 0
M  V30 171 H 11.0329 -4.90312 -3.23834 0
M  V30 172 H 12.5569 -4.53086 -4.09323 0
M  V30 173 H 13.9709 -5.37812 -1.98573 0
M  V30 174 H 12.3679 -5.84746 -1.34878 0
M  V30 175 H 13.4379 -4.83548 -0.361868 0
M  V30 176 N 14.781 0.264519 -1.55364 0
M  V30 177 C 15.711 1.33121 -1.91836 0
M  V30 178 C 16.692 1.51101 -0.781192 0
M  V30 179 O 17.877 1.64003 -1.04003 0
M  V30 180 C 15.007 2.68921 -2.19769 0
M  V30 181 C 13.961 2.65661 -3.35571 0
M  V30 182 C 13.287 4.05093 -3.49004 0
M  V30 183 C 14.587 2.24187 -4.71739 0
M  V30 184 H 16.281 1.02844 -2.81182 0
M  V30 185 H 13.827 0.493286 -1.35287 0
M  V30 186 H 15.78 3.43663 -2.43872 0
M  V30 187 H 14.504 3.00799 -1.27231 0
M  V30 188 H 13.163 1.93377 -3.1145 0
M  V30 189 H 12.811 4.34206 -2.53917 0
M  V30 190 H 12.511 4.03804 -4.26868 0
M  V30 191 H 14.035 4.81561 -3.75408 0
M  V30 192 H 15.449 2.88654 -4.9533 0
M  V30 193 H 13.846 2.34044 -5.52579 0
M  V30 194 H 14.916 1.19327 -4.69988 0
M  V30 195 N 16.2591 1.48442 0.529413 0
M  V30 196 C 17.6751 1.34575 0.858004 0
M  V30 197 C 17.8751 0.3572 1.98309 0
M  V30 198 O 16.9311 -0.221379 2.51528 0
M  V30 199 C 18.2441 2.74617 1.22499 0
M  V30 200 C 19.7921 2.83109 1.33484 0
M  V30 201 C 20.2671 4.23854 1.73526 0
M  V30 202 N 21.7581 4.2653 1.80628 0
M  V30 203 C 22.4931 5.32372 2.12997 0
M  V30 204 N 21.9891 6.48491 2.43786 0
M  V30 205 N 23.7821 5.19766 2.14008 0
M  V30 206 H 15.9331 2.1133 -0.212925 0
M  V30 207 H 18.1961 0.947439 -0.0326199 0
M  V30 208 H 17.9021 3.4852 0.471905 0
M  V30 209 H 17.7761 3.08177 2.17501 0
M  V30 210 H 20.1631 2.09462 2.0787 0
M  V30 211 H 20.2441 2.53168 0.366027 0
M  V30 212 H 19.8881 4.98018 0.997013 0
M  V30 213 H 19.8181 4.5124 2.71459 0
M  V30 214 H 22.3091 3.42772 1.59108 0
M  V30 215 H 22.6221 7.24993 2.67592 0
M  V30 216 H 20.9671 6.51765 2.41304 0
M  V30 217 H 24.1581 4.28066 1.89412 0
M  V30 218 H 24.3311 6.02354 2.38902 0
M  V30 219 N 17.7372 -0.778329 1.37039 0
M  V30 220 C 18.9852 -1.53361 1.31623 0
M  V30 221 C 19.3062 -1.94739 -0.100831 0
M  V30 222 O 18.5762 -1.65797 -1.04347 0
M  V30 223 H 17.1562 -0.568794 0.484234 0
M  V30 224 H 19.8182 -0.926742 1.71457 0
M  V30 225 H 18.9142 -2.43606 1.95096 0
M  V30 226 N 19.2153 -1.21501 -1.00376 0
M  V30 227 C 20.6263 -1.03146 -1.55621 0
M  V30 228 C 20.9773 0.408375 -1.91903 0
M  V30 229 O 20.1023 1.29177 -1.73616 0
M  V30 230 C 20.6973 -1.86612 -2.82775 0
M  V30 231 C 19.2563 -1.72586 -3.34501 0
M  V30 232 C 18.4033 -1.83747 -2.07683 0
M  V30 233 H 21.3543 -1.35505 -0.826081 0
M  V30 234 H 21.3753 -1.3771 -3.54706 0
M  V30 235 H 20.8873 -2.91399 -2.56336 0
M  V30 236 H 18.9883 -0.704877 -3.65872 0
M  V30 237 H 19.1013 -2.54623 -4.05837 0
M  V30 238 H 17.4653 -1.27069 -2.20739 0
M  V30 239 H 18.2483 -2.90044 -1.83655 0
M  V30 240 N 20.6934 1.19889 -1.02296 0
M  V30 241 C 21.9184 1.9393 -0.735237 0
M  V30 242 C 22.3434 1.74639 0.698782 0
M  V30 243 O 21.7014 1.04481 1.48167 0
M  V30 244 C 21.7494 3.43916 -1.08417 0
M  V30 245 O 20.8534 4.11917 -0.199446 0
M  V30 246 H 20.1944 0.605645 -0.272196 0
M  V30 247 H 22.7244 1.52137 -1.36804 0
M  V30 248 H 22.7344 3.9456 -1.03856 0
M  V30 249 H 21.4094 3.5728 -2.12894 0
M  V30 250 H 19.9864 3.71666 -0.303136 0
M  V30 251 N 22.1715 0.800033 1.35784 0
M  V30 252 C 23.4175 0.38701 1.99684 0
M  V30 253 C 23.7725 -1.03268 1.62338 0
M  V30 254 O 23.0655 -1.70543 0.87325 0
M  V30 255 C 23.2595 0.500276 3.53881 0
M  V30 256 C 23.0885 1.92942 4.06206 0
M  V30 257 C 21.8585 2.55637 4.35865 0
M  V30 258 C 24.0565 2.89307 4.25213 0
M  V30 259 N 22.0385 3.9003 4.74078 0
M  V30 260 C 23.4095 4.08556 4.66349 0
M  V30 261 C 25.4645 2.86225 4.07406 0
M  V30 262 C 24.1675 5.25146 4.91543 0
M  V30 263 C 26.1935 4.02011 4.33752 0
M  V30 264 C 25.5555 5.20007 4.75155 0
M  V30 265 H 21.6545 0.189252 0.758754 0
M  V30 266 H 24.2385 1.03988 1.64604 0
M  V30 267 H 22.4095 -0.122568 3.88207 0
M  V30 268 H 24.1415 0.0624733 4.04652 0
M  V30 269 H 20.8965 2.07039 4.25948 0
M  V30 270 H 21.3205 4.59205 4.97454 0
M  V30 271 H 25.9625 1.96154 3.74544 0
M  V30 272 H 23.6805 6.15794 5.23281 0
M  V30 273 H 27.2665 4.00999 4.21534 0
M  V30 274 H 26.1465 6.08113 4.95145 0
M  V30 275 N 23.6496 -1.47581 0.552962 0
M  V30 276 C 24.9266 -1.95563 -0.0381515 0
M  V30 277 C 25.3066 -1.49552 -1.48988 0
M  V30 278 O 24.6546 -0.732414 -2.16444 0
M  V30 279 C 24.8646 -3.48848 0.102919 0
M  V30 280 C 26.2126 -4.24577 -0.0446082 0
M  V30 281 O 27.2366 -3.56187 0.0302548 0
M  V30 282 O 26.0956 -5.46116 -0.204923 0
M  V30 283 H 23.1896 -0.824321 -0.0665067 0
M  V30 284 H 25.7356 -1.58001 0.619186 0
M  V30 285 H 24.5076 -3.75129 1.11328 0
M  V30 286 H 24.1306 -3.93165 -0.592224 0
M  V30 287 N 25.1277 -0.289203 -1.54924 0
M  V30 288 C 26.5387 0.205791 -1.85562 0
M  V30 289 C 26.8897 1.54351 -1.2112 0
M  V30 290 O 26.0147 2.10435 -0.504601 0
M  V30 291 C 26.6097 0.380177 -3.3666 0
M  V30 292 C 25.1687 0.819395 -3.67373 0
M  V30 293 C 24.3157 -0.079159 -2.77187 0
M  V30 294 H 27.2667 -0.510577 -1.50262 0
M  V30 295 H 27.2877 1.21659 -3.60526 0
M  V30 296 H 26.7997 -0.593589 -3.83534 0
M  V30 297 H 24.9007 1.80413 -3.26009 0
M  V30 298 H 25.0137 0.646957 -4.74712 0
M  V30 299 H 23.3777 0.439565 -2.50878 0
M  V30 300 H 24.1607 -1.04906 -3.26878 0
M  V30 301 N 26.6058 1.57591 -0.0167156 0
M  V30 302 C 27.8528 1.91283 0.664597 0
M  V30 303 C 28.1808 0.891949 1.72842 0
M  V30 304 O 27.4358 -0.100931 1.9544 0
M  V30 305 C 27.7348 3.3172 1.33029 0
M  V30 306 C 27.4008 4.4914 0.398047 0
M  V30 307 C 26.0628 4.80992 0.141421 0
M  V30 308 C 28.4148 5.20634 -0.242825 0
M  V30 309 C 25.7428 5.81703 -0.764092 0
M  V30 310 C 28.0948 6.22311 -1.13632 0
M  V30 311 C 26.7588 6.52611 -1.40196 0
M  V30 312 H 26.0288 0.699956 0.243193 0
M  V30 313 H 28.6758 1.9135 -0.0758267 0
M  V30 314 H 26.9808 3.27856 2.14517 0
M  V30 315 H 28.6778 3.55055 1.86379 0
M  V30 316 H 25.2678 4.24262 0.608238 0
M  V30 317 H 29.4518 4.96267 -0.0576019 0
M  V30 318 H 24.7078 6.03532 -0.977732 0
M  V30 319 H 28.8818 6.76834 -1.63917 0
M  V30 320 H 26.5088 7.30467 -2.10529 0
M  V30 321 N 28.0839 -0.256276 1.55502 0
M  V30 322 C 29.4999 -0.604325 1.47716 0
M  V30 323 C 29.6999 -1.88763 0.705039 0
M  V30 324 O 28.7559 -2.51445 0.230613 0
M  V30 325 C 30.0689 -0.715756 2.92057 0
M  V30 326 C 31.6169 -0.808706 3.02372 0
M  V30 327 C 32.0919 -0.951777 4.48001 0
M  V30 328 N 33.5829 -1.01688 4.519 0
M  V30 329 C 34.3179 -1.14668 5.61817 0
M  V30 330 N 33.8139 -1.24261 6.81565 0
M  V30 331 N 35.6069 -1.1791 5.49594 0
M  V30 332 H 27.7579 0.586291 2.04148 0
M  V30 333 H 30.0209 0.201015 0.926443 0
M  V30 334 H 29.7269 0.157027 3.51349 0
M  V30 335 H 29.6009 -1.59071 3.42018 0
M  V30 336 H 31.9879 -1.67195 2.43166 0
M  V30 337 H 32.0689 0.0912063 2.55637 0
M  V30 338 H 31.7129 -0.0931291 5.07815 0
M  V30 339 H 31.6429 -1.86659 4.92408 0
M  V30 340 H 34.1339 -0.954468 3.65648 0
M  V30 341 H 34.4469 -1.34046 7.61086 0
M  V30 342 H 32.7919 -1.21236 6.84344 0
M  V30 343 H 35.9829 -1.10057 4.54978 0
M  V30 344 H 36.1559 -1.27681 6.35296 0
M  V30 345 N 29.562 -1.4872 -0.521534 0
M  V30 346 C 30.839 -1.4766 -1.2828 0
M  V30 347 C 31.219 -0.19292 -2.10217 0
M  V30 348 O 30.567 0.825193 -2.13079 0
M  V30 349 C 30.777 -2.74358 -2.15705 0
M  V30 350 C 32.125 -3.23028 -2.75569 0
M  V30 351 O 33.149 -2.75333 -2.25987 0
M  V30 352 O 32.008 -4.0604 -3.65778 0
M  V30 353 H 29.102 -0.590085 -0.579421 0
M  V30 354 H 31.648 -1.60963 -0.537492 0
M  V30 355 H 30.42 -3.59292 -1.54999 0
M  V30 356 H 30.043 -2.63816 -2.97467 0
M  V30 357 N 31.0401 0.771051 -1.3745 0
M  V30 358 C 32.2861 1.53109 -1.339 0
M  V30 359 C 32.6411 1.9225 0.0758401 0
M  V30 360 O 31.9341 1.61264 1.03463 0
M  V30 361 C 32.1281 2.80676 -2.2126 0
M  V30 362 C 31.9571 2.54003 -3.71096 0
M  V30 363 C 30.7271 2.48097 -4.402 0
M  V30 364 C 32.9251 2.21953 -4.63941 0
M  V30 365 N 30.9071 2.13515 -5.75573 0
M  V30 366 C 32.2781 1.97516 -5.87697 0
M  V30 367 C 34.3331 2.08114 -4.5232 0
M  V30 368 C 33.0361 1.60638 -7.01133 0
M  V30 369 C 35.0621 1.72636 -5.65642 0
M  V30 370 C 34.4241 1.4906 -6.88448 0
M  V30 371 H 30.5231 0.56055 -0.54526 0
M  V30 372 H 33.1071 0.899472 -1.72678 0
M  V30 373 H 31.2781 3.41674 -1.84698 0
M  V30 374 H 33.0101 3.46578 -2.08963 0
M  V30 375 H 29.7651 2.63974 -3.93211 0
M  V30 376 H 30.1891 1.98919 -6.47117 0
M  V30 377 H 34.8311 2.25024 -3.57944 0
M  V30 378 H 32.5491 1.42467 -7.95443 0
M  V30 379 H 36.1351 1.62586 -5.58621 0
M  V30 380 H 35.0151 1.22014 -7.7465 0
M  V30 381 N 32.5182 1.22032 0.997298 0
M  V30 382 C 33.7482 1.06686 1.76923 0
M  V30 383 C 34.1562 -0.385838 1.85224 0
M  V30 384 O 33.4992 -1.27929 1.31833 0
M  V30 385 C 33.5612 1.59802 3.22031 0
M  V30 386 C 33.2252 3.08362 3.37286 0
M  V30 387 C 34.2222 4.05835 3.24952 0
M  V30 388 C 31.9072 3.47727 3.6248 0
M  V30 389 C 33.9012 5.4066 3.37588 0
M  V30 390 C 31.5882 4.82701 3.74757 0
M  V30 391 C 32.5862 5.78977 3.62319 0
M  V30 392 O 32.2742 7.11502 3.74193 0
M  V30 393 H 32.0062 0.374767 0.562606 0
M  V30 394 H 34.5602 1.61991 1.26286 0
M  V30 395 H 32.7902 0.989003 3.73839 0
M  V30 396 H 34.4792 1.40184 3.80924 0
M  V30 397 H 35.2452 3.76766 3.05405 0
M  V30 398 H 31.1242 2.73317 3.7124 0
M  V30 399 H 34.6682 6.15788 3.27796 0
M  V30 400 H 30.5652 5.11453 3.9381 0
M  V30 401 H 31.3332 7.19019 3.91093 0
M  V30 402 N 33.9963 -1.19345 1.0293 0
M  V30 403 C 35.4073 -1.70725 0.755633 0
M  V30 404 C 35.7583 -1.82326 -0.724676 0
M  V30 405 O 34.8833 -1.49471 -1.56484 0
M  V30 406 C 35.4783 -3.10084 1.36503 0
M  V30 407 C 34.0373 -3.58723 1.13994 0
M  V30 408 C 33.1843 -2.35577 1.46283 0
M  V30 409 H 36.1353 -1.0418 1.19718 0
M  V30 410 H 36.1563 -3.72787 0.762217 0
M  V30 411 H 35.6683 -3.01609 2.44241 0
M  V30 412 H 33.7693 -3.72512 0.0807901 0
M  V30 413 H 33.8823 -4.42816 1.82894 0
M  V30 414 H 32.2463 -2.38935 0.88217 0
M  V30 415 H 33.0293 -2.29731 2.55105 0
M  V30 416 N 35.4744 -0.807222 -1.35358 0
M  V30 417 C 36.4244 -0.190706 -2.27201 0
M  V30 418 C 37.4084 0.635838 -1.47804 0
M  V30 419 O 38.6004 0.492991 -1.69996 0
M  V30 420 C 35.7294 0.659337 -3.36909 0
M  V30 421 C 34.8154 -0.176971 -4.23731 0
M  V30 422 N 35.2064 -1.24029 -4.90357 0
M  V30 423 C 33.5044 0.0412953 -4.45981 0
M  V30 424 C 34.2054 -1.75092 -5.54723 0
M  V30 425 N 33.1814 -1.05727 -5.33219 0
M  V30 426 H 36.9834 -1.0043 -2.76208 0
M  V30 427 H 34.4974 -0.648445 -1.48892 0
M  V30 428 H 36.4944 1.11706 -4.01656 0
M  V30 429 H 35.1544 1.47127 -2.89454 0
M  V30 430 H 36.1654 -1.62295 -4.91814 0
M  V30 431 H 32.8424 0.82232 -4.09322 0
M  V30 432 H 34.2324 -2.63963 -6.17878 0
M  V30 433 N 36.9525 1.47285 -0.560781 0
M  V30 434 C 38.1775 2.07359 -0.0410566 0
M  V30 435 C 38.6025 1.41017 1.24483 0
M  V30 436 O 37.9605 0.486368 1.74654 0
M  V30 437 C 38.0085 3.6035 0.134123 0
M  V30 438 O 37.1125 3.94681 1.19587 0
M  V30 439 H 36.4535 0.661887 -0.0529291 0
M  V30 440 H 38.9835 1.89252 -0.777482 0
M  V30 441 H 38.9935 4.0652 0.347207 0
M  V30 442 H 37.6685 4.08034 -0.805047 0
M  V30 443 H 36.2455 3.60251 0.962987 0
M  V30 444 N 38.4306 0.297415 1.54768 0
M  V30 445 C 39.8466 -0.0560823 1.59501 0
M  V30 446 C 40.0466 -1.52725 1.31444 0
M  V30 447 O 39.1026 -2.27947 1.08611 0
M  V30 448 C 40.4156 0.338631 2.98787 0
M  V30 449 C 41.9636 0.287097 3.11681 0
M  V30 450 C 42.4386 0.656579 4.53269 0
M  V30 451 N 43.9296 0.608977 4.59179 0
M  V30 452 C 44.6646 0.867385 5.66802 0
M  V30 453 N 44.1606 1.19157 6.82476 0
M  V30 454 N 45.9536 0.794687 5.56454 0
M  V30 455 H 38.1046 1.25624 1.71267 0
M  V30 456 H 40.3676 0.509057 0.799728 0
M  V30 457 H 40.0736 1.36263 3.2423 0
M  V30 458 H 39.9476 -0.309508 3.75928 0
M  V30 459 H 42.3346 -0.727649 2.85988 0
M  V30 460 H 42.4156 0.969809 2.36703 0
M  V30 461 H 42.0596 1.66912 4.7969 0
M  V30 462 H 41.9896 -0.0481649 5.26578 0
M  V30 463 H 44.4806 0.369198 3.76092 0
M  V30 464 H 44.7936 1.37482 7.60473 0
M  V30 465 H 43.1386 1.22958 6.84037 0
M  V30 466 H 46.3296 0.541098 4.64962 0
M  V30 467 H 46.5026 0.999445 6.40246 0
M  V30 468 N 39.9087 -1.5758 0.0250728 0
M  V30 469 C 40.8387 -2.13007 -0.956575 0
M  V30 470 C 41.8197 -1.0452 -1.342 0
M  V30 471 O 43.0047 -1.32332 -1.42133 0
M  V30 472 C 40.1347 -2.65386 -2.24026 0
M  V30 473 C 39.0887 -3.78623 -1.99571 0
M  V30 474 C 38.4147 -4.17414 -3.3417 0
M  V30 475 C 39.7147 -5.04867 -1.33814 0
M  V30 476 H 41.4087 -2.9528 -0.494991 0
M  V30 477 H 38.9547 -1.42042 -0.236651 0
M  V30 478 H 40.9077 -3.02794 -2.93076 0
M  V30 479 H 39.6317 -1.80268 -2.72343 0
M  V30 480 H 38.2907 -3.41646 -1.32941 0
M  V30 481 H 37.9387 -3.29284 -3.80238 0
M  V30 482 H 37.6387 -4.93719 -3.18615 0
M  V30 483 H 39.1627 -4.57402 -4.04495 0
M  V30 484 H 40.5767 -5.39888 -1.92857 0
M  V30 485 H 38.9737 -5.86144 -1.28669 0
M  V30 486 H 40.0437 -4.83904 -0.310561 0
M  V30 487 N 41.3868 0.248026 -1.55636 0
M  V30 488 C 42.6338 0.976224 -1.77415 0
M  V30 489 C 42.9618 1.85361 -0.589193 0
M  V30 490 O 42.2168 1.90973 0.427529 0
M  V30 491 C 42.5158 1.86819 -3.04686 0
M  V30 492 C 42.1818 1.14625 -4.36087 0
M  V30 493 C 40.8438 0.946723 -4.71795 0
M  V30 494 C 43.1958 0.634463 -5.17324 0
M  V30 495 C 40.5238 0.223091 -5.86276 0
M  V30 496 C 42.8758 -0.0756959 -6.32555 0
M  V30 497 C 41.5398 -0.286711 -6.66884 0
M  V30 498 H 40.8098 0.357226 -0.649208 0
M  V30 499 H 43.4568 0.246415 -1.89908 0
M  V30 500 H 41.7618 2.66502 -2.872 0
M  V30 501 H 43.4588 2.43329 -3.18735 0
M  V30 502 H 40.0488 1.3117 -4.08035 0
M  V30 503 H 44.2328 0.77616 -4.90193 0
M  V30 504 H 39.4888 0.0491185 -6.1138 0
M  V30 505 H 43.6628 -0.479899 -6.94745 0
M  V30 506 H 41.2898 -0.849389 -7.5544 0
M  V30 507 N 42.8649 1.48995 0.513639 0
M  V30 508 C 44.1419 1.48338 1.27495 0
M  V30 509 C 44.5219 0.204065 2.10111 0
M  V30 510 O 43.8699 -0.813881 2.13514 0
M  V30 511 C 44.0799 2.75498 2.14247 0
M  V30 512 C 45.4279 3.24484 2.73852 0
M  V30 513 O 46.4519 2.76528 2.24523 0
M  V30 514 O 45.3109 4.07974 3.6362 0
M  V30 515 H 42.4049 0.593149 0.576284 0
M  V30 516 H 44.9509 1.61246 0.528948 0
M  V30 517 H 43.7229 3.60109 1.53092 0
M  V30 518 H 43.3459 2.6539 2.96064 0
M  V30 519 N 44.343 -0.763751 1.37857 0
M  V30 520 C 45.275 -1.88664 1.30148 0
M  V30 521 C 46.288 -1.61365 0.215685 0
M  V30 522 O 47.477 -1.72134 0.472459 0
M  V30 523 C 44.577 -3.24075 0.991396 0
M  V30 524 C 43.75 -3.78958 2.18426 0
M  V30 525 C 42.809 -4.92862 1.8432 0
M  V30 526 O 41.835 -5.08027 2.56704 0
M  V30 527 N 43.037 -5.75071 0.792081 0
M  V30 528 H 45.802 -1.95791 2.26905 0
M  V30 529 H 43.363 -0.943226 1.31586 0
M  V30 530 H 45.355 -3.97804 0.743935 0
M  V30 531 H 43.925 -3.12399 0.112122 0
M  V30 532 H 43.145 -2.96913 2.59299 0
M  V30 533 H 44.433 -4.12357 2.98058 0
M  V30 534 H 43.831 -5.65375 0.191595 0
M  V30 535 H 42.388 -6.48991 0.60449 0
M  V30 536 N 45.8211 -1.22559 -0.990812 0
M  V30 537 C 46.7841 -0.998863 -2.0629 0
M  V30 538 C 47.7841 0.0354834 -1.60761 0
M  V30 539 O 48.9741 -0.203231 -1.7301 0
M  V30 540 C 46.1061 -0.509203 -3.37076 0
M  V30 541 H 47.2991 -1.95014 -2.27837 0
M  V30 542 H 44.8521 -1.04456 -1.16269 0
M  V30 543 H 45.5871 0.446335 -3.21214 0
M  V30 544 H 45.3721 -1.25547 -3.71457 0
M  V30 545 H 46.8621 -0.370888 -4.1595 0
M  V30 546 N 47.2992 1.18797 -1.03562 0
M  V30 547 C 48.5462 1.8865 -0.736023 0
M  V30 548 C 48.8742 1.80041 0.735889 0
M  V30 549 O 48.1292 1.19179 1.55225 0
M  V30 550 C 48.4282 3.38692 -1.14117 0
M  V30 551 C 48.0942 3.67504 -2.6125 0
M  V30 552 C 46.7562 3.75078 -3.01447 0
M  V30 553 C 49.1082 3.80293 -3.56408 0
M  V30 554 C 46.4362 3.92915 -4.35701 0
M  V30 555 C 48.7882 3.99645 -4.90374 0
M  V30 556 C 47.4522 4.05453 -5.30249 0
M  V30 557 H 46.7222 0.690321 -0.26933 0
M  V30 558 H 49.3692 1.40641 -1.29971 0
M  V30 559 H 47.6742 3.88645 -0.496202 0
M  V30 560 H 49.3712 3.91072 -0.886789 0
M  V30 561 H 45.9612 3.62223 -2.29113 0
M  V30 562 H 50.1452 3.73779 -3.26501 0
M  V30 563 H 45.4012 3.95653 -4.66121 0
M  V30 564 H 49.5752 4.08482 -5.64017 0
M  V30 565 H 47.2022 4.19027 -6.34288 0
M  V30 566 N 48.7773 0.814389 1.34928 0
M  V30 567 C 50.0253 0.397636 1.9815 0
M  V30 568 C 50.3463 -1.04069 1.64908 0
M  V30 569 O 49.6163 -1.72121 0.93548 0
M  V30 570 H 48.1963 0.144043 0.732981 0
M  V30 571 H 50.8583 1.04195 1.6471 0
M  V30 572 H 49.9543 0.509688 3.0791 0
M  V30 573 N 50.2554 -1.46986 0.568584 0
M  V30 574 C 51.1854 -2.32946 -0.160753 0
M  V30 575 C 52.1664 -1.44487 -0.897631 0
M  V30 576 O 53.3514 -1.73327 -0.875867 0
M  V30 577 C 50.4814 -3.26494 -1.18403 0
M  V30 578 C 49.4354 -4.24282 -0.562895 0
M  V30 579 C 48.7614 -5.07236 -1.69163 0
M  V30 580 C 50.0614 -5.19989 0.490761 0
M  V30 581 H 51.7554 -2.94175 0.556916 0
M  V30 582 H 49.3014 -1.4146 0.26927 0
M  V30 583 H 51.2544 -3.85477 -1.70251 0
M  V30 584 H 49.9784 -2.63343 -1.93179 0
M  V30 585 H 48.6374 -3.66541 -0.0656164 0
M  V30 586 H 48.2854 -4.4048 -2.42871 0
M  V30 587 H 47.9854 -5.7345 -1.28174 0
M  V30 588 H 49.5094 -5.6908 -2.21314 0
M  V30 589 H 50.9234 -5.73271 0.0579047 0
M  V30 590 H 49.3204 -5.94469 0.820165 0
M  V30 591 H 50.3904 -4.64777 1.3824 0
M  V30 592 N 51.7335 -0.305618 -1.54608 0
M  V30 593 C 53.1445 0.186098 -1.8577 0
M  V30 594 C 53.4955 1.53058 -1.22751 0
M  V30 595 O 52.6205 2.09888 -0.526893 0
M  V30 596 C 53.2155 0.344449 -3.37044 0
M  V30 597 C 51.7745 0.780384 -3.68221 0
M  V30 598 C 50.9215 -0.108554 -2.77087 0
M  V30 599 H 53.8725 -0.526485 -1.49712 0
M  V30 600 H 53.8935 1.17828 -3.61796 0
M  V30 601 H 53.4055 -0.634235 -3.82883 0
M  V30 602 H 51.5065 1.76945 -3.27904 0
M  V30 603 H 51.6195 0.596572 -4.75371 0
M  V30 604 H 49.9835 0.412931 -2.5133 0
M  V30 605 H 50.7665 -1.08368 -3.25747 0
M  V30 606 N 53.2116 1.57565 -0.0334293 0
M  V30 607 C 54.6276 1.56297 0.322997 0
M  V30 608 C 54.8276 1.03945 1.7262 0
M  V30 609 O 53.8836 0.688109 2.42943 0
M  V30 610 C 55.1966 3.00232 0.167664 0
M  V30 611 C 56.7446 3.12078 0.240107 0
M  V30 612 C 57.2196 4.57859 0.113513 0
M  V30 613 N 58.7106 4.62887 0.170359 0
M  V30 614 C 59.4456 5.73319 0.0962517 0
M  V30 615 N 58.9416 6.92794 -0.0291881 0
M  V30 616 N 60.7346 5.61898 0.150551 0
M  V30 617 H 52.8856 1.89923 -0.950956 0
M  V30 618 H 55.1486 0.873824 -0.367608 0
M  V30 619 H 54.8546 3.42501 -0.799102 0
M  V30 620 H 54.7286 3.654 0.936083 0
M  V30 621 H 57.1156 2.69718 1.19733 0
M  V30 622 H 57.1966 2.49623 -0.558763 0
M  V30 623 H 56.8406 5.009 -0.840314 0
M  V30 624 H 56.7706 5.18299 0.931302 0
M  V30 625 H 59.2616 3.76954 0.26728 0
M  V30 626 H 59.5746 7.7276 -0.0789252 0
M  V30 627 H 57.9196 6.94971 -0.0640299 0
M  V30 628 H 61.1106 4.67448 0.246981 0
M  V30 629 H 61.2836 6.47938 0.0893365 0
M  V30 630 N 54.6897 -0.239769 1.55765 0
M  V30 631 C 55.6197 -1.30052 1.9393 0
M  V30 632 C 56.6007 -1.49839 0.805132 0
M  V30 633 O 57.7857 -1.62328 1.06599 0
M  V30 634 C 54.9157 -2.65391 2.2402 0
M  V30 635 C 53.8697 -2.60289 3.39755 0
M  V30 636 C 53.1957 -3.99489 3.55405 0
M  V30 637 C 54.4957 -2.16654 4.75246 0
M  V30 638 H 56.1897 -0.983573 2.82783 0
M  V30 639 H 53.7357 -0.471701 1.36055 0
M  V30 640 H 55.6887 -3.3974 2.49308 0
M  V30 641 H 54.4127 -2.98736 1.32 0
M  V30 642 H 53.0717 -1.88398 3.14487 0
M  V30 643 H 52.7197 -4.30112 2.60793 0
M  V30 644 H 52.4197 -3.96962 4.33238 0
M  V30 645 H 53.9437 -4.75528 3.83022 0
M  V30 646 H 55.3577 -2.80737 4.99859 0
M  V30 647 H 53.7547 -2.25223 5.56232 0
M  V30 648 H 54.8247 -1.11835 4.71827 0
M  V30 649 N 56.1678 -1.49265 -0.50573 0
M  V30 650 C 57.5788 -1.51769 -1.08734 0
M  V30 651 C 57.9298 -0.301192 -1.93874 0
M  V30 652 O 57.0548 0.589456 -2.08217 0
M  V30 653 C 57.6498 -2.75017 -1.97867 0
M  V30 654 C 56.2088 -2.80314 -2.51199 0
M  V30 655 C 55.3558 -2.4562 -1.28709 0
M  V30 656 H 58.3068 -1.56031 -0.289855 0
M  V30 657 H 58.3278 -2.5491 -2.82491 0
M  V30 658 H 57.8398 -3.63539 -1.35873 0
M  V30 659 H 55.9408 -1.96061 -3.16845 0
M  V30 660 H 56.0538 -3.82366 -2.88675 0
M  V30 661 H 54.4178 -1.97297 -1.61078 0
M  V30 662 H 55.2008 -3.36411 -0.6843 0
M  V30 663 N 57.6459 0.756429 -1.3826 0
M  V30 664 C 58.5559 1.9009 -1.37488 0
M  V30 665 C 59.5719 1.71855 -0.272366 0
M  V30 666 O 60.7479 1.94827 -0.510318 0
M  V30 667 C 57.8129 3.25421 -1.19592 0
M  V30 668 C 56.8739 3.56202 -2.39622 0
M  V30 669 C 56.1069 4.85075 -2.2257 0
M  V30 670 O 56.3299 5.57246 -1.21793 0
M  V30 671 O 55.2639 5.15269 -3.11098 0
M  V30 672 H 59.0899 1.93695 -2.33914 0
M  V30 673 H 56.6749 0.901313 -1.1915 0
M  V30 674 H 58.5569 4.06337 -1.11661 0
M  V30 675 H 57.2319 3.22634 -0.262486 0
M  V30 676 H 56.1389 2.75458 -2.53128 0
M  V30 677 H 57.4719 3.63747 -3.31586 0
M  V30 678 N 59.124 1.23083 0.984299 0
M  V30 679 C 60.034 1.02515 2.11016 0
M  V30 680 C 61.05 -0.0291702 1.73976 0
M  V30 681 O 62.226 0.165434 2.00719 0
M  V30 682 C 59.291 0.614673 3.41208 0
M  V30 683 C 58.352 1.74359 3.92297 0
M  V30 684 C 57.585 1.35261 5.16275 0
M  V30 685 O 57.808 0.235136 5.69915 0
M  V30 686 O 56.742 2.17227 5.61334 0
M  V30 687 H 60.568 1.96862 2.31255 0
M  V30 688 H 58.153 1.01753 1.09392 0
M  V30 689 H 60.035 0.396518 4.1953 0
M  V30 690 H 58.71 -0.299851 3.22308 0
M  V30 691 H 57.617 2.01635 3.1511 0
M  V30 692 H 58.95 2.63629 4.15645 0
M  V30 693 N 60.6021 -1.18246 1.0419 0
M  V30 694 C 61.8481 -1.88793 0.75689 0
M  V30 695 C 62.2031 -1.78909 -0.707767 0
M  V30 696 O 61.4961 -1.1794 -1.50999 0
M  V30 697 C 61.6901 -3.38082 1.15911 0
M  V30 698 C 61.5191 -3.62496 2.66133 0
M  V30 699 C 60.2891 -3.7979 3.33298 0
M  V30 700 C 62.4871 -3.62976 3.64353 0
M  V30 701 N 60.4691 -3.91955 4.72487 0
M  V30 702 C 61.8401 -3.80869 4.89222 0
M  V30 703 C 63.8951 -3.46071 3.57965 0
M  V30 704 C 62.5981 -3.83608 6.08471 0
M  V30 705 C 64.6241 -3.50093 4.76643 0
M  V30 706 C 63.9861 -3.68484 6.00332 0
M  V30 707 H 60.0851 -0.709406 0.32904 0
M  V30 708 H 62.6691 -1.42022 1.33183 0
M  V30 709 H 60.8401 -3.83544 0.612238 0
M  V30 710 H 62.5721 -3.96202 0.824989 0
M  V30 711 H 59.3271 -3.79224 2.83701 0
M  V30 712 H 59.7511 -4.01857 5.44831 0
M  V30 713 H 64.3931 -3.30797 2.63311 0
M  V30 714 H 62.1111 -3.97669 7.0348 0
M  V30 715 H 65.6971 -3.38285 4.73344 0
M  V30 716 H 64.5771 -3.71488 6.90627 0
M  V30 717 N 62.0802 -0.821533 -1.34494 0
M  V30 718 C 63.3052 -0.420873 -2.03085 0
M  V30 719 C 63.7302 0.964915 -1.61465 0
M  V30 720 O 63.0882 1.62763 -0.798607 0
M  V30 721 C 63.1362 -0.529414 -3.56693 0
M  V30 722 O 62.2402 0.451302 -4.09923 0
M  V30 723 H 61.5812 -0.173489 -0.640935 0
M  V30 724 H 64.1112 -1.11157 -1.71771 0
M  V30 725 H 64.1212 -0.404671 -4.05988 0
M  V30 726 H 62.7962 -1.54014 -3.86332 0
M  V30 727 H 61.3732 0.285558 -3.71805 0
M  V30 728 N 63.5583 1.46682 -0.576371 0
M  V30 729 C 64.4903 2.28341 0.198231 0
M  V30 730 C 65.5033 1.38141 0.861453 0
M  V30 731 O 66.6923 1.62797 0.732082 0
M  V30 732 C 63.7923 3.12986 1.29972 0
M  V30 733 C 62.9653 4.31271 0.729639 0
M  V30 734 C 62.0243 4.97363 1.71803 0
M  V30 735 O 61.0503 5.55156 1.25658 0
M  V30 736 N 62.2523 4.93796 3.05198 0
M  V30 737 H 65.0173 2.9546 -0.502324 0
M  V30 738 H 62.5783 1.56525 -0.413715 0
M  V30 739 H 64.5703 3.54066 1.96008 0
M  V30 740 H 63.1403 2.47984 1.90323 0
M  V30 741 H 62.3603 3.94052 -0.108012 0
M  V30 742 H 63.6483 5.07739 0.328438 0
M  V30 743 H 63.0463 4.48077 3.45317 0
M  V30 744 H 61.6033 5.38837 3.6674 0
M  V30 745 N 65.0364 0.313813 1.54444 0
M  V30 746 C 66.2824 -0.284918 2.01395 0
M  V30 747 C 66.6374 -1.50537 1.19818 0
M  V30 748 O 65.9304 -1.89692 0.269748 0
M  V30 749 C 66.1244 -0.680386 3.50864 0
M  V30 750 C 65.9534 0.500198 4.4691 0
M  V30 751 C 64.7234 0.996248 4.95382 0
M  V30 752 C 66.9214 1.34928 4.96285 0
M  V30 753 N 64.9034 2.14226 5.75309 0
M  V30 754 C 66.2744 2.3426 5.7404 0
M  V30 755 C 68.3294 1.37818 4.78446 0
M  V30 756 C 67.0324 3.36272 6.35856 0
M  V30 757 C 69.0584 2.38695 5.4109 0
M  V30 758 C 68.4204 3.36755 6.18688 0
M  V30 759 H 64.5194 -0.0683689 0.779006 0
M  V30 760 H 67.1034 0.44664 1.89508 0
M  V30 761 H 65.2744 -1.38109 3.63016 0
M  V30 762 H 67.0064 -1.25975 3.84594 0
M  V30 763 H 63.7614 0.56912 4.70168 0
M  V30 764 H 64.1854 2.72005 6.19953 0
M  V30 765 H 68.8274 0.633747 4.18023 0
M  V30 766 H 66.5454 4.11627 6.95405 0
M  V30 767 H 70.1314 2.41721 5.29209 0
M  V30 768 H 69.0114 4.13535 6.66302 0
M  V30 769 N 66.5145 -1.57545 0.0417849 0
M  V30 770 C 67.4445 -2.14009 -0.933929 0
M  V30 771 C 68.4255 -1.05938 -1.33083 0
M  V30 772 O 69.6105 -1.33833 -1.40721 0
M  V30 773 C 66.7405 -2.67747 -2.21199 0
M  V30 774 C 65.6945 -3.80718 -1.95544 0
M  V30 775 C 65.0205 -4.20935 -3.29724 0
M  V30 776 C 66.3205 -5.06258 -1.28452 0
M  V30 777 H 68.0145 -2.95788 -0.463645 0
M  V30 778 H 65.5605 -1.42285 -0.221573 0
M  V30 779 H 67.5135 -3.05886 -2.89848 0
M  V30 780 H 66.2375 -1.83147 -2.70416 0
M  V30 781 H 64.8965 -3.43037 -1.2931 0
M  V30 782 H 64.5445 -3.33298 -3.76724 0
M  V30 783 H 64.2445 -4.9707 -3.13361 0
M  V30 784 H 65.7685 -4.61666 -3.9962 0
M  V30 785 H 67.1825 -5.41903 -1.8712 0
M  V30 786 H 65.5795 -5.87475 -1.22445 0
M  V30 787 H 66.6495 -4.84207 -0.259219 0
M  V30 788 N 67.9926 0.231505 -1.5589 0
M  V30 789 C 69.2406 0.955461 -1.78088 0
M  V30 790 C 69.5616 1.85262 -0.608533 0
M  V30 791 O 68.8316 1.92277 0.375035 0
M  V30 792 H 67.4116 0.355787 -0.656829 0
M  V30 793 H 70.0736 0.245751 -1.93344 0
M  V30 794 H 69.1696 1.56814 -2.69844 0
M  V30 795 N 69.4707 1.49531 0.497807 0
M  V30 796 C 70.7187 1.58865 1.24926 0
M  V30 797 C 71.0397 0.278721 1.92998 0
M  V30 798 O 70.3097 -0.702144 1.82885 0
M  V30 799 H 68.8897 0.585343 0.464094 0
M  V30 800 H 71.5517 1.86174 0.57666 0
M  V30 801 H 70.6477 2.38633 2.01149 0
M  V30 802 N 70.9488 -0.749086 1.3866 0
M  V30 803 C 72.1738 -1.54344 1.38538 0
M  V30 804 C 72.5988 -1.88088 -0.0216655 0
M  V30 805 O 71.9568 -1.50899 -1.00494 0
M  V30 806 C 72.0048 -2.8164 2.25192 0
M  V30 807 O 71.1088 -3.7698 1.67212 0
M  V30 808 H 70.4498 -0.466654 0.472367 0
M  V30 809 H 72.9798 -0.925355 1.82478 0
M  V30 810 H 72.9898 -3.30519 2.3921 0
M  V30 811 H 71.6648 -2.56411 3.27454 0
M  V30 812 H 70.2418 -3.35699 1.6236 0
M  V30 813 N 72.4269 -1.23603 -0.977757 0
M  V30 814 C 73.6519 -1.09735 -1.75991 0
M  V30 815 C 74.0769 0.346858 -1.84874 0
M  V30 816 O 73.4349 1.25093 -1.3123 0
M  V30 817 C 73.4829 -1.73051 -3.16363 0
M  V30 818 O 72.5869 -0.994452 -4.0023 0
M  V30 819 H 71.9279 -0.384476 -0.541364 0
M  V30 820 H 74.4579 -1.6371 -1.2272 0
M  V30 821 H 74.4679 -1.78398 -3.66931 0
M  V30 822 H 73.1429 -2.78137 -3.09213 0
M  V30 823 H 71.7199 -1.01812 -3.58732 0
M  V30 824 N 73.905 1.17692 -1.04816 0
M  V30 825 C 75.151 1.88389 -0.766892 0
M  V30 826 C 75.506 1.79282 0.698269 0
M  V30 827 O 74.799 1.18739 1.50372 0
M  V30 828 C 74.993 3.37462 -1.17703 0
M  V30 829 C 74.822 3.6108 -2.68051 0
M  V30 830 C 73.592 3.78018 -3.35307 0
M  V30 831 C 75.79 3.61039 -3.66273 0
M  V30 832 N 73.772 3.89444 -4.74559 0
M  V30 833 C 75.143 3.78269 -4.91235 0
M  V30 834 C 77.198 3.44168 -3.59796 0
M  V30 835 C 75.901 3.80376 -6.10497 0
M  V30 836 C 77.927 3.4756 -4.78493 0
M  V30 837 C 77.289 3.65295 -6.02278 0
M  V30 838 H 73.388 0.707651 -0.332798 0
M  V30 839 H 75.972 1.41314 -1.33934 0
M  V30 840 H 74.143 3.83214 -0.63257 0
M  V30 841 H 75.875 3.95759 -0.845989 0
M  V30 842 H 72.63 3.77714 -2.85708 0
M  V30 843 H 73.054 3.98962 -5.46954 0
M  V30 844 H 77.696 3.29396 -2.65062 0
M  V30 845 H 75.414 3.93933 -7.05579 0
M  V30 846 H 79 3.3577 -4.75131 0
M  V30 847 H 77.88 3.6782 -6.92588 0
M  V30 848 N 75.3831 0.828654 1.34056 0
M  V30 849 C 76.7941 0.477534 1.8049 0
M  V30 850 C 77.1451 -1.00258 1.6865 0
M  V30 851 O 76.2701 -1.78057 1.22982 0
M  V30 852 C 76.8651 0.860018 3.27703 0
M  V30 853 C 75.4241 0.561185 3.72193 0
M  V30 854 C 74.5711 1.07385 2.55663 0
M  V30 855 H 77.5221 1.0183 1.21722 0
M  V30 856 H 77.5431 0.166038 3.80138 0
M  V30 857 H 77.0551 1.93731 3.36288 0
M  V30 858 H 75.1561 -0.506465 3.69142 0
M  V30 859 H 75.2691 1.10926 4.66082 0
M  V30 860 H 73.6331 0.495149 2.49841 0
M  V30 861 H 74.4161 2.15771 2.67016 0
M  V30 862 N 76.8612 -1.46375 0.584142 0
M  V30 863 C 78.1092 -2.01978 0.0701287 0
M  V30 864 C 78.4302 -1.4579 -1.295 0
M  V30 865 O 77.7002 -0.64314 -1.85042 0
M  V30 866 H 76.2802 -0.746648 0.0229345 0
M  V30 867 H 78.9422 -1.79461 0.760245 0
M  V30 868 H 78.0382 -3.121 0.0022064 0
M  V30 869 N 78.3393 -0.321999 -1.54275 0
M  V30 870 C 79.5693 0.282642 -2.04658 0
M  V30 871 C 79.9773 1.46453 -1.19784 0
M  V30 872 O 79.3203 1.82367 -0.220932 0
M  V30 873 C 79.3823 0.781857 -3.50895 0
M  V30 874 C 79.0463 -0.277517 -4.56157 0
M  V30 875 C 80.0433 -1.11307 -5.07845 0
M  V30 876 C 77.7283 -0.425256 -5.00497 0
M  V30 877 C 79.7223 -2.08211 -6.02434 0
M  V30 878 C 77.4093 -1.39771 -5.94901 0
M  V30 879 C 78.4073 -2.2246 -6.45756 0
M  V30 880 O 78.0953 -3.18054 -7.38307 0
M  V30 881 H 77.8273 0.0622636 -0.673126 0
M  V30 882 H 80.3813 -0.465792 -2.00049 0
M  V30 883 H 78.6113 1.58118 -3.52896 0
M  V30 884 H 80.3003 1.30467 -3.84361 0
M  V30 885 H 81.0663 -1.00991 -4.74369 0
M  V30 886 H 76.9453 0.20847 -4.60528 0
M  V30 887 H 80.4893 -2.72791 -6.42052 0
M  V30 888 H 76.3863 -1.50152 -6.27794 0
M  V30 889 H 77.1543 -3.13275 -7.56175 0
M  V30 890 N 79.8174 1.5752 -0.0501392 0
M  V30 891 C 81.0634 1.92936 0.624798 0
M  V30 892 C 81.3964 0.928685 1.70555 0
M  V30 893 O 80.6714 -0.0454779 1.94447 0
M  V30 894 C 80.9544 3.38737 1.22185 0
M  V30 895 C 80.8074 4.49552 0.149218 0
M  V30 896 C 82.1264 3.84913 2.13378 0
M  V30 897 H 79.2454 0.701604 0.225657 0
M  V30 898 H 81.8874 1.89671 -0.111693 0
M  V30 899 H 80.0374 3.4165 1.84953 0
M  V30 900 H 81.7094 4.58768 -0.482648 0
M  V30 901 H 79.9524 4.30638 -0.522841 0
M  V30 902 H 80.6234 5.48653 0.606966 0
M  V30 903 H 83.0994 3.8387 1.60572 0
M  V30 904 H 81.9754 4.87584 2.52097 0
M  V30 905 H 82.2364 3.21611 3.03346 0
M  V30 906 N 81.2955 -0.223234 1.56011 0
M  V30 907 C 82.7115 -0.572856 1.48965 0
M  V30 908 C 82.9115 -1.87225 0.74492 0
M  V30 909 O 81.9675 -2.50899 0.283896 0
M  V30 910 C 83.2805 -0.653646 2.9351 0
M  V30 911 C 84.8285 -0.744386 3.0402 0
M  V30 912 C 85.3035 -0.856535 4.49919 0
M  V30 913 N 86.7945 -0.9208 4.53955 0
M  V30 914 C 87.5295 -1.02726 5.64123 0
M  V30 915 N 87.0255 -1.09777 6.84047 0
M  V30 916 N 88.8185 -1.06226 5.51971 0
M  V30 917 H 80.9695 0.629462 2.02858 0
M  V30 918 H 83.2325 0.220621 0.921971 0
M  V30 919 H 82.9385 0.231518 3.50937 0
M  V30 920 H 82.8125 -1.51781 3.45315 0
M  V30 921 H 85.1995 -1.61999 2.46658 0
M  V30 922 H 85.2805 0.14541 2.55386 0
M  V30 923 H 84.9245 0.0146069 5.07898 0
M  V30 924 H 84.8545 -1.76172 4.96257 0
M  V30 925 H 87.3455 -0.876694 3.6759 0
M  V30 926 H 87.6585 -1.17872 7.63758 0
M  V30 927 H 86.0035 -1.06693 6.86762 0
M  V30 928 H 89.1945 -1.00382 4.5721 0
M  V30 929 H 89.3675 -1.14177 6.37862 0
M  V30 930 N 82.7736 -1.49793 -0.48987 0
M  V30 931 C 84.1846 -1.52914 -1.07118 0
M  V30 932 C 84.5356 -0.321738 -1.93544 0
M  V30 933 O 83.6606 0.567338 -2.08831 0
M  V30 934 C 84.2556 -2.771 -1.94938 0
M  V30 935 C 82.8146 -2.82963 -2.48212 0
M  V30 936 C 81.9616 -2.46972 -1.26096 0
M  V30 937 H 84.9126 -1.56329 -0.273289 0
M  V30 938 H 84.9336 -2.57892 -2.79771 0
M  V30 939 H 84.4456 -3.64959 -1.32009 0
M  V30 940 H 82.5466 -1.99411 -3.14748 0
M  V30 941 H 82.6596 -3.85406 -2.84603 0
M  V30 942 H 81.0236 -1.98994 -1.58976 0
M  V30 943 H 81.8066 -3.37118 -0.648581 0
M  V30 944 N 84.2517 0.741722 -1.39055 0
M  V30 945 C 85.1817 1.869 -1.39966 0
M  V30 946 C 86.1627 1.6804 -0.26392 0
M  V30 947 O 87.3477 1.88458 -0.468755 0
M  V30 948 C 84.4777 3.24572 -1.23574 0
M  V30 949 C 83.4317 3.58056 -2.34477 0
M  V30 950 C 82.7577 4.94593 -2.0318 0
M  V30 951 C 84.0577 3.61716 -3.76774 0
M  V30 952 H 85.7517 1.86395 -2.34302 0
M  V30 953 H 83.2977 0.895361 -1.1278 0
M  V30 954 H 85.2507 4.031 -1.22834 0
M  V30 955 H 83.9747 3.25587 -0.257045 0
M  V30 956 H 82.6337 2.81854 -2.34423 0
M  V30 957 H 82.2817 4.92181 -1.03765 0
M  V30 958 H 81.9817 5.17964 -2.77465 0
M  V30 959 H 83.5057 5.75486 -2.04079 0
M  V30 960 H 84.9197 4.30335 -3.78794 0
M  V30 961 H 83.3167 3.96603 -4.50362 0
M  V30 962 H 84.3867 2.61672 -4.08235 0
M  V30 963 N 85.7298 1.2412 0.971189 0
M  V30 964 C 87.1408 1.07236 1.52831 0
M  V30 965 C 87.4918 -0.357352 1.92918 0
M  V30 966 O 86.6168 -1.24528 1.76979 0
M  V30 967 C 87.2118 1.94043 2.77728 0
M  V30 968 C 85.7708 1.81394 3.29808 0
M  V30 969 C 84.9178 1.89189 2.02738 0
M  V30 970 H 87.8688 1.37648 0.789864 0
M  V30 971 H 87.8898 1.47066 3.5093 0
M  V30 972 H 87.4018 2.98093 2.4852 0
M  V30 973 H 85.5028 0.801634 3.63874 0
M  V30 974 H 85.6158 2.65294 3.98944 0
M  V30 975 H 83.9798 1.32877 2.17292 0
M  V30 976 H 84.7628 2.94812 1.759 0
M  V30 977 N 87.2079 -1.17134 1.05439 0
M  V30 978 C 88.6189 -1.69084 0.791676 0
M  V30 979 C 88.9699 -1.83822 -0.685839 0
M  V30 980 O 88.0949 -1.52757 -1.53278 0
M  V30 981 C 88.6899 -3.07119 1.4305 0
M  V30 982 C 87.2489 -3.56225 1.21577 0
M  V30 983 C 86.3959 -2.32421 1.51247 0
M  V30 984 H 89.3469 -1.01617 1.219 0
M  V30 985 H 89.3679 -3.71087 0.84112 0
M  V30 986 H 88.8799 -2.9636 2.50584 0
M  V30 987 H 86.9809 -3.72257 0.159787 0
M  V30 988 H 87.0939 -4.38837 1.92246 0
M  V30 989 H 85.4579 -2.3701 0.932653 0
M  V30 990 H 86.2409 -2.24268 2.5992 0
M  V30 991 N 88.686 -0.835752 -1.33615 0
M  V30 992 C 89.649 -0.272 -2.2758 0
M  V30 993 C 90.649 0.557487 -1.50827 0
M  V30 994 O 91.839 0.37173 -1.70188 0
M  V30 995 C 88.971 0.617173 -3.35267 0
M  V30 996 H 90.164 -1.10111 -2.78954 0
M  V30 997 H 87.717 -0.608594 -1.43965 0
M  V30 998 H 88.452 1.46884 -2.89129 0
M  V30 999 H 88.237 0.0237066 -3.92093 0
M  V30 1000 H 89.727 1.005 -4.05326 0
M  V30 1001 N 90.1641 1.46063 -0.591896 0
M  V30 1002 C 91.1271 2.28854 0.125973 0
M  V30 1003 C 92.1271 1.38903 0.810107 0
M  V30 1004 O 93.3171 1.61186 0.66066 0
M  V30 1005 C 90.4491 3.19526 1.1881 0
M  V30 1006 H 91.6421 2.93802 -0.601717 0
M  V30 1007 H 89.1951 1.52325 -0.350254 0
M  V30 1008 H 89.9301 2.59345 1.94707 0
M  V30 1009 H 89.7151 3.85766 0.701936 0
M  V30 1010 H 91.2051 3.81817 1.69132 0
M  V30 1011 N 91.6422 0.330177 1.54103 0
M  V30 1012 C 92.8912 -0.271336 1.99867 0
M  V30 1013 C 93.2042 -1.52723 1.22209 0
M  V30 1014 O 94.4102 -2.20515 1.58383 0
M  V30 1015 C 92.8662 -0.534032 3.55916 0
M  V30 1016 C 92.4742 0.705193 4.42415 0
M  V30 1017 C 94.2182 -1.09514 4.1013 0
M  V30 1018 C 92.1252 0.414035 5.89949 0
M  V30 1019 H 91.0552 -0.105166 0.74663 0
M  V30 1020 H 93.7062 0.443429 1.78062 0
M  V30 1021 H 92.0882 -1.30915 3.73734 0
M  V30 1022 H 93.2622 1.4804 4.36372 0
M  V30 1023 H 91.5772 1.18698 3.99124 0
M  V30 1024 H 94.1742 -1.3277 5.17954 0
M  V30 1025 H 94.5172 -2.04656 3.62521 0
M  V30 1026 H 95.0502 -0.381038 3.95971 0
M  V30 1027 H 91.7892 1.33481 6.41766 0
M  V30 1028 H 91.3092 -0.323336 5.98928 0
M  V30 1029 H 92.9882 0.0263105 6.46995 0
M  V30 1030 N 93.1203 -1.57491 0.0584922 0
M  V30 1031 C 94.0303 -2.15448 -0.928414 0
M  V30 1032 C 95.0463 -1.11416 -1.3365 0
M  V30 1033 O 96.2223 -1.4362 -1.41193 0
M  V30 1034 C 93.2873 -2.69393 -2.18239 0
M  V30 1035 C 92.3483 -3.88249 -1.83196 0
M  V30 1036 C 91.5813 -4.39613 -3.02616 0
M  V30 1037 O 91.8043 -3.90023 -4.16219 0
M  V30 1038 O 90.7383 -5.31111 -2.83204 0
M  V30 1039 H 94.5643 -3.00112 -0.465483 0
M  V30 1040 H 92.1493 -1.48499 -0.163826 0
M  V30 1041 H 94.0313 -3.04026 -2.91798 0
M  V30 1042 H 92.7063 -1.87796 -2.63656 0
M  V30 1043 H 91.6133 -3.58492 -1.06931 0
M  V30 1044 H 92.9463 -4.71098 -1.42573 0
M  V30 1045 N 94.5984 0.214957 -1.56127 0
M  V30 1046 C 95.8234 0.95924 -1.83884 0
M  V30 1047 C 96.2484 1.7689 -0.639644 0
M  V30 1048 O 95.6064 1.76566 0.411601 0
M  V30 1049 C 95.6544 1.84723 -3.09693 0
M  V30 1050 O 94.7584 2.94346 -2.8885 0
M  V30 1051 H 94.0994 0.27125 -0.606069 0
M  V30 1052 H 96.6294 0.226276 -2.03345 0
M  V30 1053 H 96.6394 2.25576 -3.39969 0
M  V30 1054 H 95.3144 1.25218 -3.96602 0
M  V30 1055 H 93.8914 2.57391 -2.69823 0
M  V30 1056 N 96.0765 1.50051 0.48192 0
M  V30 1057 C 97.4875 1.5348 1.06305 0
M  V30 1058 C 97.8385 0.331997 1.93371 0
M  V30 1059 O 96.9635 -0.556256 2.09129 0
M  V30 1060 C 97.5585 2.7813 1.93466 0
M  V30 1061 C 96.1175 2.84275 2.46707 0
M  V30 1062 C 95.2645 2.47637 1.24785 0
M  V30 1063 H 98.2155 1.56472 0.264995 0
M  V30 1064 H 98.2365 2.59372 2.78399 0
M  V30 1065 H 97.7485 3.65654 1.30072 0
M  V30 1066 H 95.8495 2.01077 3.13686 0
M  V30 1067 H 95.9625 3.8691 2.82555 0
M  V30 1068 H 94.3265 1.99835 1.57918 0
M  V30 1069 H 95.1095 3.37457 0.630694 0
M  V30 1070 N 97.5546 -0.734337 1.39446 0
M  V30 1071 C 98.5176 -1.83004 1.37994 0
M  V30 1072 C 99.5176 -1.58397 0.276938 0
M  V30 1073 O 100.708 -1.65785 0.534875 0
M  V30 1074 C 97.8396 -3.20802 1.1532 0
M  V30 1075 H 99.0326 -1.85694 2.35494 0
M  V30 1076 H 96.5856 -0.938059 1.25021 0
M  V30 1077 H 97.3206 -3.23772 0.185036 0
M  V30 1078 H 97.1056 -3.4006 1.95197 0
M  V30 1079 H 98.5956 -4.00862 1.17046 0
M  V30 1080 N 99.0327 -1.24633 -0.964593 0
M  V30 1081 C 100.279 -1.08949 -1.71049 0
M  V30 1082 C 100.612 0.370302 -1.90637 0
M  V30 1083 O 99.8867 1.27349 -1.47011 0
M  V30 1084 C 100.17 -1.83329 -3.0994 0
M  V30 1085 C 100.023 -3.37077 -2.97824 0
M  V30 1086 C 101.342 -1.60846 -4.09654 0
M  V30 1087 H 98.4607 -0.397178 -0.620821 0
M  V30 1088 H 101.103 -1.5334 -1.12191 0
M  V30 1089 H 99.2527 -1.45597 -3.60186 0
M  V30 1090 H 100.925 -3.84425 -2.5498 0
M  V30 1091 H 99.1677 -3.65298 -2.33965 0
M  V30 1092 H 99.8387 -3.84324 -3.96231 0
M  V30 1093 H 102.315 -1.93674 -3.68279 0
M  V30 1094 H 101.191 -2.1534 -5.04896 0
M  V30 1095 H 101.452 -0.547434 -4.38698 0
M  V30 1096 N 100.511 1.16574 -1.06058 0
M  V30 1097 C 101.474 2.19085 -0.673392 0
M  V30 1098 C 102.474 1.5835 0.279648 0
M  V30 1099 O 103.664 1.74088 0.0623488 0
M  V30 1100 C 100.796 3.40899 0.00954234 0
M  V30 1101 H 101.989 2.54853 -1.58081 0
M  V30 1102 H 99.5418 1.30808 -0.855516 0
M  V30 1103 H 100.277 3.10684 0.929826 0
M  V30 1104 H 100.062 3.86233 -0.67573 0
M  V30 1105 H 101.552 4.1675 0.266245 0
M  V30 1106 N 101.989 0.842826 1.3317 0
M  V30 1107 C 102.952 0.284065 2.27433 0
M  V30 1108 C 103.952 -0.54948 1.5112 0
M  V30 1109 O 105.142 -0.362699 1.70382 0
M  V30 1110 C 102.274 -0.599384 3.35589 0
M  V30 1111 H 103.467 1.11589 2.78366 0
M  V30 1112 H 101.02 0.616221 1.4364 0
M  V30 1113 H 101.755 -1.45349 2.89904 0
M  V30 1114 H 101.54 -0.00291266 3.921 0
M  V30 1115 H 103.03 -0.983488 4.05854 0
M  V30 1116 N 103.467 -1.45747 0.599634 0
M  V30 1117 C 104.878 -1.85853 0.177681 0
M  V30 1118 C 105.229 -1.50102 -1.26348 0
M  V30 1119 O 104.354 -0.923905 -1.95686 0
M  V30 1120 C 104.949 -3.37326 0.315688 0
M  V30 1121 C 103.508 -3.76365 -0.0515144 0
M  V30 1122 C 102.655 -2.69722 0.643822 0
M  V30 1123 H 105.606 -1.36661 0.806814 0
M  V30 1124 H 105.627 -3.77778 -0.454321 0
M  V30 1125 H 105.139 -3.63315 1.36468 0
M  V30 1126 H 103.24 -3.55993 -1.09999 0
M  V30 1127 H 103.353 -4.77916 0.336594 0
M  V30 1128 H 101.717 -2.54567 0.0822881 0
M  V30 1129 H 102.5 -2.98549 1.6948 0
M  V30 1130 N 104.945 -0.338344 -1.53925 0
M  V30 1131 C 105.908 0.508299 -2.23493 0
M  V30 1132 C 106.908 1.03175 -1.23335 0
M  V30 1133 O 108.098 0.921826 -1.47811 0
M  V30 1134 C 105.23 1.70754 -2.95052 0
M  V30 1135 H 106.423 -0.100058 -2.99733 0
M  V30 1136 H 103.976 -0.0896198 -1.56043 0
M  V30 1137 H 104.711 2.35474 -2.22986 0
M  V30 1138 H 104.496 1.33946 -3.68512 0
M  V30 1139 H 105.986 2.30818 -3.48013 0
M  V30 1140 N 106.423 1.57458 -0.0668435 0
M  V30 1141 C 107.653 1.97337 0.611677 0
M  V30 1142 C 108.061 0.943744 1.63982 0
M  V30 1143 O 107.404 -0.0785584 1.83532 0
M  V30 1144 C 107.466 3.33511 1.34205 0
M  V30 1145 C 107.13 4.54598 0.467941 0
M  V30 1146 C 108.127 5.19186 -0.272439 0
M  V30 1147 C 105.812 5.0075 0.39427 0
M  V30 1148 C 107.806 6.28274 -1.07476 0
M  V30 1149 C 105.493 6.09711 -0.411729 0
M  V30 1150 C 106.491 6.73335 -1.14492 0
M  V30 1151 O 106.179 7.80199 -1.93763 0
M  V30 1152 H 105.911 0.654042 0.170893 0
M  V30 1153 H 108.465 2.04961 -0.134289 0
M  V30 1154 H 106.695 3.22487 2.13398 0
M  V30 1155 H 108.384 3.58029 1.91233 0
M  V30 1156 H 109.15 4.84477 -0.225086 0
M  V30 1157 H 105.029 4.51009 0.954569 0
M  V30 1158 H 108.573 6.77866 -1.64755 0
M  V30 1159 H 104.47 6.43854 -0.460664 0
M  V30 1160 H 105.238 7.97053 -1.86142 0
M  V30 1161 N 107.901 -0.206675 1.56239 0
M  V30 1162 C 109.126 -0.949474 1.8439 0
M  V30 1163 C 109.551 -1.76549 0.649016 0
M  V30 1164 O 108.909 -1.76782 -0.402231 0
M  V30 1165 C 108.957 -1.83078 3.10668 0
M  V30 1166 O 108.061 -2.9281 2.90407 0
M  V30 1167 H 107.402 -0.268033 0.607499 0
M  V30 1168 H 109.932 -0.215488 2.03462 0
M  V30 1169 H 109.942 -2.2377 3.41161 0
M  V30 1170 H 108.617 -1.23112 3.97261 0
M  V30 1171 H 107.194 -2.55956 2.71184 0
M  V30 1172 N 109.379 -1.50304 -0.473955 0
M  V30 1173 C 110.795 -1.37667 -0.807466 0
M  V30 1174 C 110.995 -0.430555 -1.96846 0
M  V30 1175 O 110.051 0.127874 -2.52176 0
M  V30 1176 C 111.364 -2.78974 -1.12223 0
M  V30 1177 C 112.912 -2.87868 -1.22885 0
M  V30 1178 C 113.387 -4.30003 -1.57676 0
M  V30 1179 N 114.878 -4.3294 -1.64673 0
M  V30 1180 C 115.613 -5.3991 -1.93091 0
M  V30 1181 N 115.109 -6.57092 -2.1955 0
M  V30 1182 N 116.902 -5.27351 -1.94569 0
M  V30 1183 H 109.053 -2.10394 0.291212 0
M  V30 1184 H 111.316 -0.945575 0.0677609 0
M  V30 1185 H 111.022 -3.50031 -0.342229 0
M  V30 1186 H 110.896 -3.16038 -2.05913 0
M  V30 1187 H 113.283 -2.17032 -1.99953 0
M  V30 1188 H 113.364 -2.54352 -0.271814 0
M  V30 1189 H 113.008 -5.01375 -0.81149 0
M  V30 1190 H 112.938 -4.61004 -2.54525 0
M  V30 1191 H 115.429 -3.48441 -1.46277 0
M  V30 1192 H 115.742 -7.34425 -2.405 0
M  V30 1193 H 114.087 -6.60272 -2.16948 0
M  V30 1194 H 117.278 -4.34801 -1.73394 0
M  V30 1195 H 117.451 -6.10805 -2.16381 0
M  V30 1196 N 110.857 0.726932 -1.39834 0
M  V30 1197 C 111.82 1.82269 -1.38962 0
M  V30 1198 C 112.82 1.58248 -0.285334 0
M  V30 1199 O 114.01 1.65499 -0.54366 0
M  V30 1200 C 111.142 3.20186 -1.17019 0
M  V30 1201 H 112.335 1.84443 -2.36476 0
M  V30 1202 H 109.888 0.931416 -1.25516 0
M  V30 1203 H 110.623 3.23669 -0.202204 0
M  V30 1204 H 110.408 3.3902 -1.96998 0
M  V30 1205 H 111.898 4.00235 -1.1917 0
M  V30 1206 N 112.336 1.25143 0.95797 0
M  V30 1207 C 113.266 1.07711 2.07173 0
M  V30 1208 C 114.247 -0.0128462 1.70095 0
M  V30 1209 O 115.432 0.156061 1.93572 0
M  V30 1210 C 112.562 0.691503 3.40346 0
M  V30 1211 C 111.516 1.73132 3.9142 0
M  V30 1212 C 110.842 1.20049 5.21049 0
M  V30 1213 C 112.142 3.1294 4.1817 0
M  V30 1214 H 113.836 2.00873 2.22014 0
M  V30 1215 H 111.382 0.967191 1.06684 0
M  V30 1216 H 113.335 0.556505 4.17709 0
M  V30 1217 H 112.059 -0.275819 3.25433 0
M  V30 1218 H 110.718 1.8547 3.16222 0
M  V30 1219 H 110.366 0.223499 5.02503 0
M  V30 1220 H 110.066 1.89545 5.56189 0
M  V30 1221 H 111.59 1.07782 6.01012 0
M  V30 1222 H 113.004 3.03775 4.86203 0
M  V30 1223 H 111.401 3.79875 4.64559 0
M  V30 1224 H 112.471 3.6025 3.24573 0
M  V30 1225 N 113.814 -1.1601 1.06675 0
M  V30 1226 C 115.039 -1.91068 0.806706 0
M  V30 1227 C 115.464 -1.77112 -0.633485 0
M  V30 1228 O 114.822 -1.09908 -1.44187 0
M  V30 1229 C 114.87 -3.39655 1.21106 0
M  V30 1230 O 113.974 -4.10893 0.352189 0
M  V30 1231 H 113.315 -0.595125 0.294486 0
M  V30 1232 H 115.845 -1.46955 1.42356 0
M  V30 1233 H 115.855 -3.90434 1.18428 0
M  V30 1234 H 114.53 -3.49132 2.26008 0
M  V30 1235 H 113.107 -3.70285 0.440868 0
M  V30 1236 N 115.292 -0.849877 -1.32721 0
M  V30 1237 C 116.708 -0.539102 -1.50219 0
M  V30 1238 C 116.908 0.931271 -1.78689 0
M  V30 1239 O 115.964 1.71455 -1.85363 0
M  V30 1240 C 117.277 -1.42196 -2.64954 0
M  V30 1241 C 118.825 -1.42189 -2.78839 0
M  V30 1242 C 119.3 -2.28985 -3.96648 0
M  V30 1243 N 120.791 -2.26754 -4.03902 0
M  V30 1244 C 121.526 -2.90644 -4.94281 0
M  V30 1245 N 121.022 -3.63629 -5.897 0
M  V30 1246 N 122.815 -2.80057 -4.87365 0
M  V30 1247 H 114.966 -1.80156 -1.12506 0
M  V30 1248 H 117.229 -0.769217 -0.554085 0
M  V30 1249 H 116.935 -2.46733 -2.50631 0
M  V30 1250 H 116.809 -1.10591 -3.60624 0
M  V30 1251 H 119.196 -0.38419 -2.92588 0
M  V30 1252 H 119.277 -1.77807 -1.83898 0
M  V30 1253 H 118.921 -3.32819 -3.83658 0
M  V30 1254 H 118.851 -1.90702 -4.90857 0
M  V30 1255 H 121.342 -1.73688 -3.3562 0
M  V30 1256 H 121.655 -4.09558 -6.55349 0
M  V30 1257 H 120 -3.67737 -5.89741 0
M  V30 1258 H 123.191 -2.22593 -4.11789 0
M  V30 1259 H 123.364 -3.30132 -5.57599 0
M  V30 1260 N 116.77 1.45427 -0.607355 0
M  V30 1261 C 117.702 2.2871 0.149752 0
M  V30 1262 C 118.715 1.39937 0.831958 0
M  V30 1263 O 119.904 1.64313 0.697385 0
M  V30 1264 C 117.004 3.15673 1.23304 0
M  V30 1265 C 116.177 4.32722 0.637996 0
M  V30 1266 C 115.236 5.00895 1.61215 0
M  V30 1267 O 114.262 5.57697 1.13854 0
M  V30 1268 N 115.464 5.00159 2.94655 0
M  V30 1269 H 118.229 2.94328 -0.564882 0
M  V30 1270 H 115.79 1.55612 -0.446823 0
M  V30 1271 H 117.782 3.58144 1.88454 0
M  V30 1272 H 116.352 2.51965 1.8502 0
M  V30 1273 H 115.572 3.93734 -0.191572 0
M  V30 1274 H 116.86 5.08321 0.220665 0
M  V30 1275 H 116.258 4.553 3.35735 0
M  V30 1276 H 114.815 5.46495 3.55228 0
M  V30 1277 N 118.248 0.346503 1.53744 0
M  V30 1278 C 119.178 -0.501193 2.28058 0
M  V30 1279 C 120.159 -1.10014 1.29734 0
M  V30 1280 O 121.344 -1.12097 1.58581 0
M  V30 1281 C 118.474 -1.65078 3.05559 0
M  V30 1282 C 117.428 -1.18003 4.11411 0
M  V30 1283 C 116.754 -2.41837 4.76884 0
M  V30 1284 C 118.054 -0.278394 5.21558 0
M  V30 1285 H 119.748 0.11875 2.99164 0
M  V30 1286 H 117.294 0.0585531 1.43881 0
M  V30 1287 H 119.247 -2.25028 3.56287 0
M  V30 1288 H 117.971 -2.29767 2.32109 0
M  V30 1289 H 116.63 -0.603331 3.61601 0
M  V30 1290 H 116.278 -3.0494 4.00026 0
M  V30 1291 H 115.978 -2.1102 5.48402 0
M  V30 1292 H 117.502 -3.02508 5.30397 0
M  V30 1293 H 118.916 -0.784823 5.67903 0
M  V30 1294 H 117.313 -0.0619707 6.00068 0
M  V30 1295 H 118.383 0.684677 4.80042 0
M  V30 1296 N 119.726 -1.57421 0.075193 0
M  V30 1297 C 120.951 -1.98364 -0.605515 0
M  V30 1298 C 121.376 -0.953383 -1.62149 0
M  V30 1299 O 120.734 0.0806053 -1.81121 0
M  V30 1300 C 120.782 -3.38332 -1.24756 0
M  V30 1301 O 119.886 -3.37959 -2.36342 0
M  V30 1302 H 119.227 -0.645553 -0.155428 0
M  V30 1303 H 121.757 -2.04044 0.150714 0
M  V30 1304 H 121.767 -3.75591 -1.5936 0
M  V30 1305 H 120.442 -4.12846 -0.503129 0
M  V30 1306 H 119.019 -3.12474 -2.03506 0
M  V30 1307 N 121.204 0.198386 -1.56346 0
M  V30 1308 C 122.429 0.939682 -1.84891 0
M  V30 1309 C 122.854 1.76202 -0.658369 0
M  V30 1310 O 122.212 1.76993 0.392851 0
M  V30 1311 C 122.26 1.81428 -3.11635 0
M  V30 1312 O 121.364 2.91265 -2.91956 0
M  V30 1313 H 120.705 0.264807 -0.608912 0
M  V30 1314 H 123.235 0.204695 -2.03573 0
M  V30 1315 H 123.245 2.21958 -3.42343 0
M  V30 1316 H 121.92 1.21004 -3.97908 0
M  V30 1317 H 120.497 2.54514 -2.72538 0
M  V30 1318 N 122.682 1.50554 0.465978 0
M  V30 1319 C 123.93 1.61479 1.21528 0
M  V30 1320 C 124.251 0.319596 1.92363 0
M  V30 1321 O 123.521 -0.663194 1.84333 0
M  V30 1322 H 122.101 0.595055 0.451573 0
M  V30 1323 H 124.763 1.87355 0.53704 0
M  V30 1324 H 123.859 2.42846 1.96042 0
M  V30 1325 N 124.16 -0.719506 1.40217 0
M  V30 1326 C 125.406 -1.48152 1.38488 0
M  V30 1327 C 125.739 -1.94195 -0.0141867 0
M  V30 1328 O 125.014 -1.67884 -0.982096 0
M  V30 1329 C 125.297 -2.71035 2.37091 0
M  V30 1330 C 125.15 -2.30912 3.86005 0
M  V30 1331 C 126.469 -3.73182 2.33288 0
M  V30 1332 H 123.588 -0.537395 0.504357 0
M  V30 1333 H 126.23 -0.821472 1.71324 0
M  V30 1334 H 124.38 -3.27352 2.0922 0
M  V30 1335 H 126.052 -1.80107 4.24687 0
M  V30 1336 H 124.295 -1.62958 4.02029 0
M  V30 1337 H 124.966 -3.18978 4.50508 0
M  V30 1338 H 127.442 -3.26485 2.57966 0
M  V30 1339 H 126.318 -4.56806 3.04334 0
M  V30 1340 H 126.579 -4.21202 1.34317 0
M  V30 1341 N 125.638 -1.25649 -0.95132 0
M  V30 1342 C 126.863 -1.13443 -1.73624 0
M  V30 1343 C 127.288 0.307565 -1.85568 0
M  V30 1344 O 126.646 1.22282 -1.33854 0
M  V30 1345 C 126.694 -1.79723 -3.12621 0
M  V30 1346 O 125.798 -1.07912 -3.98031 0
M  V30 1347 H 125.139 -0.395872 -0.533086 0
M  V30 1348 H 127.669 -1.66276 -1.1922 0
M  V30 1349 H 127.679 -1.86141 -3.63064 0
M  V30 1350 H 126.354 -2.84633 -3.03244 0
M  V30 1351 H 124.931 -1.09398 -3.56492 0
M  V30 1352 N 127.117 1.15442 -1.07289 0
M  V30 1353 C 128.027 2.23786 -0.704057 0
M  V30 1354 C 129.043 1.7166 0.284413 0
M  V30 1355 O 130.219 2.00972 0.131205 0
M  V30 1356 C 127.284 3.46535 -0.106792 0
M  V30 1357 C 126.345 4.13654 -1.14842 0
M  V30 1358 C 125.578 5.30544 -0.57956 0
M  V30 1359 O 125.801 5.67187 0.604585 0
M  V30 1360 O 124.735 5.87154 -1.32414 0
M  V30 1361 H 128.561 2.57664 -1.60757 0
M  V30 1362 H 126.146 1.23152 -0.845803 0
M  V30 1363 H 128.028 4.20804 0.224048 0
M  V30 1364 H 126.703 3.14407 0.770049 0
M  V30 1365 H 125.61 3.4131 -1.5316 0
M  V30 1366 H 126.943 4.49861 -1.99714 0
M  V30 1367 N 128.595 0.856903 1.32268 0
M  V30 1368 C 129.844 0.457599 1.96441 0
M  V30 1369 C 130.157 -0.992426 1.68553 0
M  V30 1370 O 131.363 -1.49727 2.26482 0
M  V30 1371 C 129.819 0.767358 3.51624 0
M  V30 1372 C 129.427 2.23326 3.88367 0
M  V30 1373 C 131.171 0.435887 4.22256 0
M  V30 1374 C 129.078 2.48613 5.36606 0
M  V30 1375 H 128.008 0.167387 0.735185 0
M  V30 1376 H 130.659 1.048 1.5063 0
M  V30 1377 H 129.041 0.106367 3.95857 0
M  V30 1378 H 130.215 2.93623 3.55137 0
M  V30 1379 H 128.53 2.52948 3.30766 0
M  V30 1380 H 131.127 0.602202 5.31298 0
M  V30 1381 H 131.47 -0.622672 4.11617 0
M  V30 1382 H 132.003 1.05286 3.83614 0
M  V30 1383 H 128.742 3.53101 5.52268 0
M  V30 1384 H 128.262 1.82896 5.71235 0
M  V30 1385 H 129.941 2.32676 6.03714 0
M  V30 1386 N 130.073 -1.45103 0.615059 0
M  V30 1387 C 131.489 -1.57137 0.279322 0
M  V30 1388 C 131.689 -1.60523 -1.21797 0
M  V30 1389 O 130.745 -1.53956 -2.00134 0
M  V30 1390 C 132.058 -2.85062 0.957083 0
M  V30 1391 C 133.606 -2.98749 0.933706 0
M  V30 1392 C 134.081 -4.29455 1.59162 0
M  V30 1393 N 135.572 -4.36231 1.55746 0
M  V30 1394 C 136.307 -5.36051 2.0356 0
M  V30 1395 N 135.803 -6.42367 2.59494 0
M  V30 1396 N 137.596 -5.27456 1.94284 0
M  V30 1397 H 129.747 -1.41148 1.58717 0
M  V30 1398 H 132.01 -0.675331 0.665306 0
M  V30 1399 H 131.716 -2.88488 2.01166 0
M  V30 1400 H 131.59 -3.7407 0.48494 0
M  V30 1401 H 133.977 -2.94886 -0.112347 0
M  V30 1402 H 134.058 -2.11132 1.44419 0
M  V30 1403 H 133.702 -4.34077 2.63704 0
M  V30 1404 H 133.632 -5.15901 1.0561 0
M  V30 1405 H 136.123 -3.60011 1.14893 0
M  V30 1406 H 136.436 -7.14793 2.93752 0
M  V30 1407 H 134.781 -6.43097 2.63537 0
M  V30 1408 H 137.972 -4.43308 1.5032 0
M  V30 1409 H 138.145 -6.05099 2.3186 0
M  V30 1410 N 131.551 -0.354651 -1.53558 0
M  V30 1411 C 132.501 0.513179 -2.2215 0
M  V30 1412 C 133.485 1.05734 -1.21281 0
M  V30 1413 O 134.677 0.989202 -1.46778 0
M  V30 1414 C 131.806 1.65798 -3.00609 0
M  V30 1415 C 130.892 1.12722 -4.08845 0
M  V30 1416 N 131.283 0.318563 -5.04796 0
M  V30 1417 C 129.581 1.40307 -4.23356 0
M  V30 1418 C 130.282 0.0292224 -5.81693 0
M  V30 1419 N 129.258 0.623891 -5.40008 0
M  V30 1420 H 133.06 -0.111586 -2.93688 0
M  V30 1421 H 130.574 -0.162091 -1.61589 0
M  V30 1422 H 132.571 2.29176 -3.48258 0
M  V30 1423 H 131.231 2.28591 -2.306 0
M  V30 1424 H 132.242 -0.0413091 -5.17884 0
M  V30 1425 H 128.919 2.03458 -3.6457 0
M  V30 1426 H 130.309 -0.623808 -6.68998 0
M  V30 1427 N 133.029 1.57378 -0.0835403 0
M  V30 1428 C 134.257 1.98263 0.59157 0
M  V30 1429 C 134.672 0.962302 1.62435 0
M  V30 1430 O 134.029 -0.049581 1.82433 0
M  V30 1431 C 134.08 3.39214 1.24965 0
M  V30 1432 O 133.801 4.37339 0.258186 0
M  V30 1433 C 135.302 3.95038 2.01147 0
M  V30 1434 H 132.522 0.651773 0.159477 0
M  V30 1435 H 135.066 2.03878 -0.159415 0
M  V30 1436 H 133.221 3.34649 1.95164 0
M  V30 1437 H 133.635 5.19371 0.731734 0
M  V30 1438 H 135.109 4.95848 2.42567 0
M  V30 1439 H 135.586 3.32222 2.87272 0
M  V30 1440 H 136.192 4.0304 1.35789 0
M  V30 1441 N 134.507 -0.190092 1.56449 0
M  V30 1442 C 135.47 -1.21925 1.9408 0
M  V30 1443 C 136.47 -1.38176 0.822431 0
M  V30 1444 O 137.66 -1.35903 1.08977 0
M  V30 1445 C 134.792 -2.58773 2.21922 0
M  V30 1446 H 135.985 -0.897464 2.86157 0
M  V30 1447 H 133.538 -0.43181 1.50217 0
M  V30 1448 H 134.273 -2.95998 1.32499 0
M  V30 1449 H 134.058 -2.48348 3.03424 0
M  V30 1450 H 135.548 -3.32978 2.52022 0
M  V30 1451 N 135.985 -1.50799 -0.457987 0
M  V30 1452 C 137.262 -1.52968 -1.21902 0
M  V30 1453 C 137.642 -0.281906 -2.09209 0
M  V30 1454 O 136.99 0.734076 -2.16388 0
M  V30 1455 C 137.2 -2.8326 -2.03875 0
M  V30 1456 C 138.548 -3.34425 -2.6162 0
M  V30 1457 O 139.572 -2.8467 -2.14106 0
M  V30 1458 O 138.431 -4.21188 -3.48228 0
M  V30 1459 H 135.525 -0.614129 -0.553873 0
M  V30 1460 H 138.071 -1.63098 -0.468739 0
M  V30 1461 H 136.843 -3.65543 -1.39621 0
M  V30 1462 H 136.466 -2.76195 -2.8601 0
M  V30 1463 N 137.463 0.71206 -1.40597 0
M  V30 1464 C 138.879 1.02058 -1.22704 0
M  V30 1465 C 139.079 2.01228 -0.104729 0
M  V30 1466 O 138.135 2.4674 0.53624 0
M  V30 1467 C 139.448 1.56094 -2.57012 0
M  V30 1468 C 140.996 1.6806 -2.64054 0
M  V30 1469 C 141.471 2.25501 -3.9864 0
M  V30 1470 N 142.962 2.32882 -4.004 0
M  V30 1471 C 143.697 2.78317 -5.01325 0
M  V30 1472 N 143.193 3.23478 -6.12645 0
M  V30 1473 N 144.986 2.77733 -4.88693 0
M  V30 1474 H 137.137 0.0547896 -2.12329 0
M  V30 1475 H 139.4 0.0869027 -0.944008 0
M  V30 1476 H 139.106 0.906865 -3.39807 0
M  V30 1477 H 138.98 2.54564 -2.78347 0
M  V30 1478 H 141.367 2.32583 -1.81629 0
M  V30 1479 H 141.448 0.681802 -2.46546 0
M  V30 1480 H 141.092 1.61598 -4.81506 0
M  V30 1481 H 141.022 3.26102 -4.13479 0
M  V30 1482 H 143.513 2.00991 -3.20017 0
M  V30 1483 H 143.826 3.56725 -6.85542 0
M  V30 1484 H 142.171 3.21429 -6.16205 0
M  V30 1485 H 145.362 2.4179 -4.00818 0
M  V30 1486 H 145.535 3.12826 -5.67489 0
M  V30 1487 N 138.941 1.26152 0.944643 0
M  V30 1488 C 140.187 1.12665 1.69346 0
M  V30 1489 C 140.542 -0.3273 1.89596 0
M  V30 1490 O 139.835 -1.23717 1.46303 0
M  V30 1491 C 140.029 1.82541 3.07268 0
M  V30 1492 C 139.858 3.34582 3.00475 0
M  V30 1493 C 138.628 4.03863 3.03681 0
M  V30 1494 C 140.826 4.30828 2.80877 0
M  V30 1495 N 138.808 5.42603 2.87151 0
M  V30 1496 C 140.179 5.5672 2.7288 0
M  V30 1497 C 142.234 4.21122 2.65633 0
M  V30 1498 C 140.937 6.74013 2.51196 0
M  V30 1499 C 142.963 5.38118 2.45323 0
M  V30 1500 C 142.325 6.62955 2.38055 0
M  V30 1501 H 138.424 0.467041 0.627214 0
M  V30 1502 H 141.008 1.59391 1.11815 0
M  V30 1503 H 139.179 1.38296 3.62945 0
M  V30 1504 H 140.911 1.61708 3.70989 0
M  V30 1505 H 137.666 3.55198 3.1326 0
M  V30 1506 H 138.09 6.15443 2.82063 0
M  V30 1507 H 142.732 3.25344 2.70021 0
M  V30 1508 H 140.45 7.6989 2.4555 0
M  V30 1509 H 144.036 5.32475 2.34439 0
M  V30 1510 H 142.916 7.51959 2.22546 0
M  V30 1511 N 140.419 -1.14872 1.07899 0
M  V30 1512 C 141.835 -1.37776 0.805606 0
M  V30 1513 C 142.035 -1.92743 -0.587555 0
M  V30 1514 O 141.091 -2.13678 -1.34528 0
M  V30 1515 C 142.404 -2.34361 1.88402 0
M  V30 1516 C 143.952 -2.48012 1.90942 0
M  V30 1517 C 144.427 -3.47893 2.97883 0
M  V30 1518 N 145.918 -3.55433 2.97021 0
M  V30 1519 C 146.653 -4.32553 3.76412 0
M  V30 1520 N 146.149 -5.12959 4.65666 0
M  V30 1521 N 147.942 -4.27697 3.64735 0
M  V30 1522 H 140.093 -0.775365 1.97742 0
M  V30 1523 H 142.356 -0.403521 0.857831 0
M  V30 1524 H 142.062 -2.01098 2.88535 0
M  V30 1525 H 141.936 -3.34206 1.74889 0
M  V30 1526 H 144.323 -2.8057 0.914579 0
M  V30 1527 H 144.404 -1.48147 2.08534 0
M  V30 1528 H 144.048 -3.16069 3.97571 0
M  V30 1529 H 143.978 -4.47527 2.77538 0
M  V30 1530 H 146.469 -2.98048 2.32326 0
M  V30 1531 H 146.782 -5.69065 5.22862 0
M  V30 1532 H 145.127 -5.12245 4.69712 0
M  V30 1533 H 148.318 -3.63949 2.94378 0
M  V30 1534 H 148.491 -4.8755 4.26848 0
M  V30 1535 N 141.898 -0.863906 -1.31812 0
M  V30 1536 C 143.144 -0.472535 -1.97218 0
M  V30 1537 C 143.477 0.971394 -1.68159 0
M  V30 1538 O 142.752 1.68309 -0.974798 0
M  V30 1539 C 143.035 -0.723054 -3.52766 0
M  V30 1540 C 142.888 -2.21608 -3.91421 0
M  V30 1541 C 144.207 -0.185522 -4.39709 0
M  V30 1542 H 141.326 -0.173158 -0.71637 0
M  V30 1543 H 143.968 -1.08403 -1.56041 0
M  V30 1544 H 142.118 -0.202577 -3.87971 0
M  V30 1545 H 143.79 -2.80334 -3.66347 0
M  V30 1546 H 142.033 -2.691 -3.40246 0
M  V30 1547 H 142.704 -2.34203 -4.99853 0
M  V30 1548 H 145.18 -0.630726 -4.11292 0
M  V30 1549 H 144.056 -0.390306 -5.47511 0
M  V30 1550 H 144.317 0.912229 -4.32586 0
M  V30 1551 N 143.376 1.44774 -0.622745 0
M  V30 1552 C 144.601 2.06999 -0.128968 0
M  V30 1553 C 145.026 1.4617 1.1839 0
M  V30 1554 O 144.384 0.560007 1.72434 0
M  V30 1555 C 144.432 3.60595 -0.0188351 0
M  V30 1556 O 143.536 3.99398 1.02739 0
M  V30 1557 H 142.877 0.659047 -0.0809544 0
M  V30 1558 H 145.407 1.85784 -0.85705 0
M  V30 1559 H 145.417 4.07627 0.174476 0
M  V30 1560 H 144.092 4.04252 -0.977384 0
M  V30 1561 H 142.669 3.64011 0.809326 0
M  V30 1562 N 144.854 0.36279 1.53368 0
M  V30 1563 C 145.784 -0.476976 2.28576 0
M  V30 1564 C 146.765 -1.08631 1.30894 0
M  V30 1565 O 147.95 -1.10409 1.59761 0
M  V30 1566 C 145.08 -1.61828 3.07293 0
M  V30 1567 C 144.034 -1.13633 4.1264 0
M  V30 1568 C 143.36 -2.36766 4.79423 0
M  V30 1569 C 144.66 -0.223061 5.21823 0
M  V30 1570 H 146.354 0.150474 2.99022 0
M  V30 1571 H 143.9 0.0738103 1.43811 0
M  V30 1572 H 145.853 -2.21237 3.58653 0
M  V30 1573 H 144.577 -2.27292 2.34533 0
M  V30 1574 H 143.236 -0.564945 3.62221 0
M  V30 1575 H 142.884 -3.0068 4.03238 0
M  V30 1576 H 142.584 -2.05192 5.50609 0
M  V30 1577 H 144.108 -2.96865 5.33576 0
M  V30 1578 H 145.522 -0.724545 5.68703 0
M  V30 1579 H 143.919 0.001678 6.001 0
M  V30 1580 H 144.989 0.735553 4.79289 0
M  V30 1581 N 146.332 -1.57332 0.0918853 0
M  V30 1582 C 147.609 -1.85691 -0.614668 0
M  V30 1583 C 147.989 -0.988146 -1.86545 0
M  V30 1584 O 147.337 -0.0597055 -2.28422 0
M  V30 1585 C 147.547 -3.36294 -0.933126 0
M  V30 1586 C 148.895 -4.04275 -1.29796 0
M  V30 1587 O 149.919 -3.41157 -1.02424 0
M  V30 1588 O 148.778 -5.1564 -1.81047 0
M  V30 1589 H 145.872 -0.767802 -0.307261 0
M  V30 1590 H 148.418 -1.69244 0.12434 0
M  V30 1591 H 147.19 -3.91273 -0.0456404 0
M  V30 1592 H 146.813 -3.58076 -1.72822 0
M  V30 1593 N 147.81 0.181792 -1.56548 0
M  V30 1594 C 149.056 0.901431 -1.81665 0
M  V30 1595 C 149.389 1.82347 -0.668075 0
M  V30 1596 O 148.664 1.91669 0.330615 0
M  V30 1597 C 148.947 1.70618 -3.17115 0
M  V30 1598 C 148.8 0.807964 -4.42484 0
M  V30 1599 C 150.119 2.67605 -3.49393 0
M  V30 1600 H 147.238 0.32627 -0.660846 0
M  V30 1601 H 149.88 0.168134 -1.89255 0
M  V30 1602 H 148.03 2.33133 -3.10775 0
M  V30 1603 H 149.702 0.19649 -4.60881 0
M  V30 1604 H 147.945 0.115411 -4.33646 0
M  V30 1605 H 148.616 1.40632 -5.33785 0
M  V30 1606 H 151.092 2.15218 -3.56118 0
M  V30 1607 H 149.968 3.20985 -4.45264 0
M  V30 1608 H 150.229 3.47298 -2.73563 0
M  V30 1609 N 149.288 1.51039 0.449983 0
M  V30 1610 C 150.236 1.71995 1.5659 0
M  V30 1611 C 151.23 0.586029 1.5894 0
M  V30 1612 O 152.436 0.76709 1.62837 0
M  V30 1613 H 148.811 0.543233 0.520001 0
M  V30 1614 H 150.782 2.65562 1.36085 0
M  V30 1615 C 149.531 1.8506 2.9436 0
M  V30 1616 H 148.854 2.71712 2.93279 0
M  V30 1617 H 150.294 2.0374 3.71842 0
M  V30 1618 C 148.753 0.607277 3.31382 0
M  V30 1619 O 149.283 -0.243903 4.00959 0
M  V30 1620 N 147.489 0.455073 2.87015 0
M  V30 1621 H 147.036 1.14879 2.30566 0
M  V30 1622 H 146.994 -0.375611 3.12148 0
M  V30 1623 N 150.766 -0.704594 1.40972 0
M  V30 1624 C 151.716 -1.81051 1.38581 0
M  V30 1625 C 152.7 -1.58759 0.261585 0
M  V30 1626 O 153.892 -1.69745 0.501556 0
M  V30 1627 C 151.021 -3.19279 1.26157 0
M  V30 1628 C 150.107 -3.47296 2.43405 0
M  V30 1629 N 150.498 -3.46064 3.68881 0
M  V30 1630 C 148.796 -3.77804 2.37023 0
M  V30 1631 C 149.497 -3.72733 4.46592 0
M  V30 1632 N 148.473 -3.9203 3.76581 0
M  V30 1633 H 152.275 -1.78448 2.33525 0
M  V30 1634 H 149.789 -0.904198 1.349 0
M  V30 1635 H 151.786 -3.98488 1.22526 0
M  V30 1636 H 150.446 -3.231 0.321902 0
M  V30 1637 H 151.457 -3.26656 4.01891 0
M  V30 1638 H 148.134 -3.8905 1.51481 0
M  V30 1639 H 149.524 -3.77993 5.55492 0
M  V30 1640 N 152.244 -1.26651 -0.937939 0
M  V30 1641 C 153.491 -1.12387 -1.6845 0
M  V30 1642 C 153.819 0.332208 -1.91642 0
M  V30 1643 O 153.074 1.2602 -1.49725 0
M  V30 1644 C 153.373 -1.84168 -3.06295 0
M  V30 1645 C 153.039 -3.34056 -3.02849 0
M  V30 1646 C 151.701 -3.74942 -3.01616 0
M  V30 1647 C 154.053 -4.29741 -2.9491 0
M  V30 1648 C 151.381 -5.09894 -2.90215 0
M  V30 1649 C 153.733 -5.64738 -2.8505 0
M  V30 1650 C 152.397 -6.0493 -2.82162 0
M  V30 1651 H 151.667 -0.411252 -0.616403 0
M  V30 1652 H 154.314 -1.57134 -1.09459 0
M  V30 1653 H 152.619 -1.319 -3.6893 0
M  V30 1654 H 154.316 -1.70569 -3.62915 0
M  V30 1655 H 150.906 -3.01534 -3.0459 0
M  V30 1656 H 155.09 -3.99133 -2.94969 0
M  V30 1657 H 150.346 -5.40194 -2.86358 0
M  V30 1658 H 154.52 -6.38561 -2.77872 0
M  V30 1659 H 152.147 -7.09457 -2.73084 0
M  V30 1660 N 153.722 1.14298 -1.08507 0
M  V30 1661 C 154.685 2.17607 -0.719711 0
M  V30 1662 C 155.685 1.58907 0.245997 0
M  V30 1663 O 156.875 1.74181 0.0254081 0
M  V30 1664 C 154.007 3.40842 -0.0627695 0
M  V30 1665 H 155.2 2.51443 -1.63452 0
M  V30 1666 H 152.753 1.28963 -0.88307 0
M  V30 1667 H 153.488 3.12587 0.863716 0
M  V30 1668 H 153.273 3.84713 -0.757504 0
M  V30 1669 H 154.763 4.17221 0.177786 0
M  V30 1670 N 155.201 0.870884 1.31352 0
M  V30 1671 C 156.612 0.534714 1.78879 0
M  V30 1672 C 156.963 -0.948423 1.71754 0
M  V30 1673 O 156.088 -1.74055 1.28584 0
M  V30 1674 C 156.683 0.963839 3.24801 0
M  V30 1675 C 155.242 0.679311 3.70219 0
M  V30 1676 C 154.389 1.15465 2.52117 0
M  V30 1677 H 157.34 1.05651 1.18421 0
M  V30 1678 H 157.361 0.286892 3.79417 0
M  V30 1679 H 156.873 2.04332 3.29955 0
M  V30 1680 H 154.974 -0.388769 3.70566 0
M  V30 1681 H 155.087 1.25698 4.62317 0
M  V30 1682 H 153.451 0.574383 2.48139 0
M  V30 1683 H 154.234 2.24157 2.60016 0
M  V30 1684 N 156.679 -1.44442 0.630414 0
M  V30 1685 C 157.956 -1.9549 0.0655657 0
M  V30 1686 C 158.336 -1.5724 -1.40851 0
M  V30 1687 O 157.684 -0.846116 -2.12257 0
M  V30 1688 C 157.894 -3.47812 0.287691 0
M  V30 1689 C 159.242 -4.24216 0.180513 0
M  V30 1690 O 160.266 -3.55526 0.219019 0
M  V30 1691 O 159.125 -5.46434 0.0848493 0
M  V30 1692 H 156.219 -0.826688 -0.0227177 0
M  V30 1693 H 158.765 -1.54496 0.702068 0
M  V30 1694 H 157.537 -3.687 1.31056 0
M  V30 1695 H 157.16 -3.95751 -0.382984 0
M  V30 1696 N 158.157 -0.370918 -1.53173 0
M  V30 1697 C 159.067 0.480823 -2.2962 0
M  V30 1698 C 160.083 1.08789 -1.35798 0
M  V30 1699 O 161.259 1.09768 -1.68858 0
M  V30 1700 C 158.324 1.60227 -3.07454 0
M  V30 1701 C 157.385 1.0222 -4.16953 0
M  V30 1702 C 156.618 2.0902 -4.91066 0
M  V30 1703 O 156.841 3.30222 -4.65091 0
M  V30 1704 O 155.775 1.71778 -5.76867 0
M  V30 1705 H 159.601 -0.141421 -3.03371 0
M  V30 1706 H 157.186 -0.135146 -1.48787 0
M  V30 1707 H 159.068 2.25417 -3.56041 0
M  V30 1708 H 157.743 2.20982 -2.36535 0
M  V30 1709 H 156.65 0.334064 -3.72605 0
M  V30 1710 H 157.983 0.459131 -4.90054 0
M  V30 1711 N 159.635 1.57281 -0.100228 0
M  V30 1712 C 160.565 2.17328 0.853857 0
M  V30 1713 C 161.546 1.10804 1.2906 0
M  V30 1714 O 162.731 1.38963 1.35657 0
M  V30 1715 C 159.861 2.75772 2.11109 0
M  V30 1716 C 158.815 3.87713 1.81279 0
M  V30 1717 C 158.141 4.32882 3.13874 0
M  V30 1718 C 159.441 5.10677 1.09574 0
M  V30 1719 H 161.135 2.97305 0.353545 0
M  V30 1720 H 158.681 1.43009 0.168612 0
M  V30 1721 H 160.634 3.16433 2.78296 0
M  V30 1722 H 159.358 1.93057 2.63432 0
M  V30 1723 H 158.017 3.476 1.16489 0
M  V30 1724 H 157.665 3.47051 3.64095 0
M  V30 1725 H 157.365 5.08358 2.94696 0
M  V30 1726 H 158.889 4.7618 3.82211 0
M  V30 1727 H 160.303 5.48474 1.66879 0
M  V30 1728 H 158.7 5.91615 1.00557 0
M  V30 1729 H 159.77 4.84835 0.0793299 0
M  V30 1730 N 161.113 -0.173488 1.56642 0
M  V30 1731 C 162.341 -0.906095 1.86004 0
M  V30 1732 C 162.756 -1.75921 0.685355 0
M  V30 1733 O 162.113 -1.79198 -0.345578 0
M  V30 1734 C 162.164 -1.78462 3.14378 0
M  V30 1735 O 161.885 -0.965914 4.27319 0
M  V30 1736 C 163.386 -2.62707 3.57071 0
M  V30 1737 H 160.606 -0.263341 0.617165 0
M  V30 1738 H 163.15 -0.174236 2.03756 0
M  V30 1739 H 161.305 -2.46984 2.98459 0
M  V30 1740 H 161.719 -1.56655 5.00559 0
M  V30 1741 H 163.193 -3.19969 4.49804 0
M  V30 1742 H 163.67 -3.37472 2.81086 0
M  V30 1743 H 164.276 -1.99521 3.75595 0
M  V30 1744 N 162.591 -1.51276 -0.441967 0
M  V30 1745 C 163.837 -1.63958 -1.19355 0
M  V30 1746 C 164.17 -0.352543 -1.90973 0
M  V30 1747 O 163.445 0.647627 -1.83401 0
M  V30 1748 C 163.728 -2.83979 -2.21422 0
M  V30 1749 C 163.581 -4.22646 -1.53918 0
M  V30 1750 C 164.9 -2.99521 -3.22451 0
M  V30 1751 H 162.019 -0.596709 -0.432559 0
M  V30 1752 H 164.661 -1.83748 -0.483398 0
M  V30 1753 H 162.811 -2.67237 -2.81987 0
M  V30 1754 H 164.483 -4.51045 -0.967256 0
M  V30 1755 H 162.726 -4.25558 -0.841615 0
M  V30 1756 H 163.397 -5.02609 -2.28229 0
M  V30 1757 H 165.873 -3.14944 -2.71937 0
M  V30 1758 H 164.749 -3.85072 -3.91166 0
M  V30 1759 H 165.01 -2.11391 -3.88287 0
M  V30 1760 N 164.069 0.697108 -1.41344 0
M  V30 1761 C 165.016 1.81106 -1.43071 0
M  V30 1762 C 165.986 1.63632 -0.285275 0
M  V30 1763 O 167.171 1.84504 -0.486091 0
M  V30 1764 C 164.311 3.18975 -1.31715 0
M  V30 1765 C 163.424 3.47892 -2.56115 0
M  V30 1766 C 162.559 4.75367 -2.37064 0
M  V30 1767 C 161.598 4.97247 -3.56948 0
M  V30 1768 N 160.735 6.15947 -3.36977 0
M  V30 1769 H 165.575 1.78965 -2.38276 0
M  V30 1770 H 163.112 0.873975 -1.18322 0
M  V30 1771 H 165.07 3.98615 -1.23133 0
M  V30 1772 H 163.7 3.20297 -0.401183 0
M  V30 1773 H 162.752 2.62669 -2.75153 0
M  V30 1774 H 164.064 3.59962 -3.45295 0
M  V30 1775 H 163.218 5.63059 -2.25941 0
M  V30 1776 H 161.957 4.65541 -1.45338 0
M  V30 1777 H 160.962 4.08004 -3.68527 0
M  V30 1778 H 162.187 5.08934 -4.49626 0
M  V30 1779 H 160.133 6.07336 -2.47949 0
M  V30 1780 H 160.05 6.28777 -4.19732 0
M  V30 1781 H 161.318 7.06377 -3.29623 0
M  V30 1782 N 165.547 1.27147 0.931209 0
M  V30 1783 C 166.775 1.16082 1.71267 0
M  V30 1784 C 167.19 -0.282772 1.8667 0
M  V30 1785 O 166.547 -1.19283 1.38122 0
M  V30 1786 C 166.598 1.8358 3.11417 0
M  V30 1787 O 166.319 3.22299 2.96741 0
M  V30 1788 C 167.82 1.78597 4.05732 0
M  V30 1789 H 165.04 0.403758 0.535929 0
M  V30 1790 H 167.584 1.67953 1.16671 0
M  V30 1791 H 165.739 1.35623 3.62885 0
M  V30 1792 H 166.153 3.55851 3.85319 0
M  V30 1793 H 167.627 2.30444 5.01597 0
M  V30 1794 H 168.104 0.754564 4.3267 0
M  V30 1795 H 168.71 2.26152 3.60188 0
M  V30 1796 N 167.025 -1.13721 1.09112 0
M  V30 1797 C 167.972 -2.19031 0.727591 0
M  V30 1798 C 168.942 -1.63555 -0.289656 0
M  V30 1799 O 170.127 -1.90023 -0.172026 0
M  V30 1800 C 167.267 -3.4477 0.15082 0
M  V30 1801 C 166.38 -4.14365 1.22172 0
M  V30 1802 C 165.515 -5.27709 0.608042 0
M  V30 1803 C 164.554 -5.89147 1.66047 0
M  V30 1804 N 163.691 -6.93929 1.06806 0
M  V30 1805 H 168.531 -2.49475 1.62991 0
M  V30 1806 H 166.068 -1.22499 0.81439 0
M  V30 1807 H 168.026 -4.16714 -0.201358 0
M  V30 1808 H 166.656 -3.14787 -0.714783 0
M  V30 1809 H 165.708 -3.40737 1.69122 0
M  V30 1810 H 167.02 -4.56114 2.01895 0
M  V30 1811 H 166.174 -6.06355 0.204523 0
M  V30 1812 H 164.913 -4.872 -0.220769 0
M  V30 1813 H 163.918 -5.09198 2.07357 0
M  V30 1814 H 165.143 -6.31729 2.49189 0
M  V30 1815 H 163.089 -6.55483 0.260476 0
M  V30 1816 H 163.006 -7.34202 1.8023 0
M  V30 1817 H 164.274 -7.76434 0.690644 0
M  V30 1818 N 168.503 -0.877838 -1.30888 0
M  V30 1819 C 169.78 -0.413052 -1.91189 0
M  V30 1820 C 170.16 1.1056 -1.79832 0
M  V30 1821 O 169.508 1.93771 -1.21099 0
M  V30 1822 C 169.718 -0.903191 -3.3711 0
M  V30 1823 C 171.066 -0.93395 -4.14201 0
M  V30 1824 O 172.09 -0.849373 -3.45925 0
M  V30 1825 O 170.949 -1.05772 -5.36167 0
M  V30 1826 H 168.043 -0.125035 -0.817493 0
M  V30 1827 H 170.589 -0.966269 -1.39504 0
M  V30 1828 H 169.361 -1.94692 -3.39427 0
M  V30 1829 H 168.984 -0.328732 -3.96239 0
M  V30 1830 N 169.982 1.44106 -0.638065 0
M  V30 1831 C 171.23 2.01579 -0.145043 0
M  V30 1832 C 171.551 1.50496 1.24 0
M  V30 1833 O 170.821 0.711374 1.82527 0
M  V30 1834 H 169.401 0.745282 -0.05063 0
M  V30 1835 H 172.063 1.76516 -0.826327 0
M  V30 1836 H 171.159 3.11877 -0.118039 0
M  V30 1837 N 171.46 0.379036 1.52974 0
M  V30 1838 C 172.706 -0.206727 2.01744 0
M  V30 1839 C 173.039 -1.47314 1.26539 0
M  V30 1840 O 172.314 -1.91084 0.362903 0
M  V30 1841 C 172.597 -0.485066 3.56818 0
M  V30 1842 C 172.45 0.795919 4.42702 0
M  V30 1843 C 173.769 -1.28003 4.21074 0
M  V30 1844 H 170.888 -0.0736607 0.73331 0
M  V30 1845 H 173.53 0.506581 1.83122 0
M  V30 1846 H 171.68 -1.09272 3.72816 0
M  V30 1847 H 173.352 1.43307 4.38476 0
M  V30 1848 H 171.595 1.41344 4.10127 0
M  V30 1849 H 172.266 0.555947 5.49193 0
M  V30 1850 H 174.742 -0.765867 4.08991 0
M  V30 1851 H 173.618 -1.44352 5.29579 0
M  V30 1852 H 173.879 -2.29236 3.78026 0
M  V30 1853 N 172.938 -1.57226 0.108567 0
M  V30 1854 C 174.184 -1.95121 -0.552761 0
M  V30 1855 C 174.517 -0.991345 -1.66991 0
M  V30 1856 O 173.792 -0.0267211 -1.94482 0
M  V30 1857 C 174.075 -3.43039 -1.09528 0
M  V30 1858 C 173.928 -4.49797 0.0177332 0
M  V30 1859 C 175.247 -3.92567 -1.98945 0
M  V30 1860 H 172.366 -0.709496 -0.199461 0
M  V30 1861 H 175.008 -1.89126 0.182011 0
M  V30 1862 H 173.158 -3.48279 -1.72146 0
M  V30 1863 H 174.83 -4.56661 0.652584 0
M  V30 1864 H 173.073 -4.284 0.682309 0
M  V30 1865 H 173.744 -5.50528 -0.402919 0
M  V30 1866 H 176.22 -3.89565 -1.46214 0
M  V30 1867 H 175.096 -4.96605 -2.33827 0
M  V30 1868 H 175.357 -3.32648 -2.91201 0
M  V30 1869 N 174.416 0.165178 -1.56732 0
M  V30 1870 C 175.326 1.22423 -2.00125 0
M  V30 1871 C 176.342 1.48084 -0.913619 0
M  V30 1872 O 177.518 1.60112 -1.22172 0
M  V30 1873 C 174.583 2.54197 -2.35764 0
M  V30 1874 C 173.644 2.36343 -3.58386 0
M  V30 1875 C 172.877 3.61834 -3.92316 0
M  V30 1876 O 173.1 4.67267 -3.27135 0
M  V30 1877 O 172.034 3.55579 -4.85641 0
M  V30 1878 H 175.86 0.885886 -2.90492 0
M  V30 1879 H 173.445 0.372518 -1.44681 0
M  V30 1880 H 175.327 3.3192 -2.59629 0
M  V30 1881 H 174.002 2.87598 -1.48557 0
M  V30 1882 H 172.909 1.56632 -3.39731 0
M  V30 1883 H 174.242 2.07865 -4.46154 0
M  V30 1884 N 175.894 1.51508 0.433938 0
M  V30 1885 C 177.143 1.63578 1.18005 0
M  V30 1886 C 177.456 0.359514 1.92268 0
M  V30 1887 O 178.662 0.359632 2.69108 0
M  V30 1888 C 177.118 2.88901 2.14626 0
M  V30 1889 C 176.726 4.23544 1.45995 0
M  V30 1890 C 178.47 3.10328 2.89649 0
M  V30 1891 C 176.377 5.40014 2.4112 0
M  V30 1892 H 175.307 0.609277 0.444182 0
M  V30 1893 H 177.958 1.77978 0.446773 0
M  V30 1894 H 176.34 2.68142 2.91403 0
M  V30 1895 H 177.514 4.54696 0.747532 0
M  V30 1896 H 175.829 4.08021 0.831115 0
M  V30 1897 H 178.426 3.94518 3.60915 0
M  V30 1898 H 178.769 2.23544 3.51189 0
M  V30 1899 H 179.302 3.31443 2.19978 0
M  V30 1900 H 176.041 6.29068 1.84264 0
M  V30 1901 H 175.561 5.13233 3.10406 0
M  V30 1902 H 177.24 5.72099 3.02177 0
M  V30 1903 N 177.372 -0.689602 1.41712 0
M  V30 1904 C 178.6 -1.47827 1.44758 0
M  V30 1905 C 179.015 -1.88721 0.0545703 0
M  V30 1906 O 178.372 -1.57176 -0.927463 0
M  V30 1907 C 178.423 -2.73698 2.3616 0
M  V30 1908 O 178.144 -2.34524 3.7004 0
M  V30 1909 C 179.645 -3.67389 2.48072 0
M  V30 1910 H 176.865 -0.455357 0.49284 0
M  V30 1911 H 179.409 -0.848574 1.86063 0
M  V30 1912 H 177.564 -3.32891 1.98148 0
M  V30 1913 H 177.978 -3.15701 4.18847 0
M  V30 1914 H 179.452 -4.52475 3.16181 0
M  V30 1915 H 179.929 -4.12284 1.51388 0
M  V30 1916 H 180.535 -3.14097 2.86746 0
M  V30 1917 N 178.85 -1.27639 -0.924453 0
M  V30 1918 C 180.098 -1.13941 -1.66918 0
M  V30 1919 C 180.419 0.314589 -1.92446 0
M  V30 1920 O 179.689 1.21964 -1.53303 0
M  V30 1921 H 178.269 -0.418678 -0.618642 0
M  V30 1922 H 180.931 -1.60213 -1.10985 0
M  V30 1923 H 180.027 -1.67094 -2.63602 0
M  V30 1924 N 180.328 1.1314 -1.09713 0
M  V30 1925 C 181.275 2.18642 -0.739196 0
M  V30 1926 C 182.245 1.63706 0.280978 0
M  V30 1927 O 183.43 1.90111 0.161946 0
M  V30 1928 C 180.57 3.44685 -0.169102 0
M  V30 1929 C 179.683 4.13711 -1.24367 0
M  V30 1930 C 178.818 5.27379 -0.636019 0
M  V30 1931 C 177.857 5.88259 -1.69169 0
M  V30 1932 N 176.994 6.93352 -1.10485 0
M  V30 1933 H 181.834 2.48607 -1.64312 0
M  V30 1934 H 179.371 1.22066 -0.820875 0
M  V30 1935 H 181.329 4.16815 0.179256 0
M  V30 1936 H 179.959 3.15161 0.698079 0
M  V30 1937 H 179.011 3.39835 -1.70927 0
M  V30 1938 H 180.323 4.55037 -2.04311 0
M  V30 1939 H 179.477 6.06238 -0.236677 0
M  V30 1940 H 178.216 4.8731 0.194928 0
M  V30 1941 H 177.221 5.08092 -2.10055 0
M  V30 1942 H 178.446 6.30399 -2.52536 0
M  V30 1943 H 176.392 6.55335 -0.295234 0
M  V30 1944 H 176.309 7.33236 -1.84121 0
M  V30 1945 H 177.577 7.76057 -0.73181 0
M  V30 1946 N 181.806 0.884767 1.30421 0
M  V30 1947 C 182.756 0.322846 2.25703 0
M  V30 1948 C 183.74 -0.548582 1.51259 0
M  V30 1949 O 184.932 -0.39304 1.72581 0
M  V30 1950 C 182.061 -0.461787 3.4018 0
M  V30 1951 C 181.147 0.423717 4.21978 0
M  V30 1952 N 181.538 1.52408 4.82292 0
M  V30 1953 C 179.836 0.218795 4.45463 0
M  V30 1954 C 180.537 2.07136 5.43571 0
M  V30 1955 N 179.513 1.36635 5.26148 0
M  V30 1956 H 183.315 1.16363 2.69883 0
M  V30 1957 H 180.829 0.73415 1.44859 0
M  V30 1958 H 182.826 -0.880985 4.07485 0
M  V30 1959 H 181.486 -1.30001 2.9754 0
M  V30 1960 H 182.497 1.90693 4.81515 0
M  V30 1961 H 179.174 -0.582275 4.1342 0
M  V30 1962 H 180.564 2.99538 6.01437 0
M  V30 1963 N 183.284 -1.43765 0.645699 0
M  V30 1964 C 184.194 -2.34544 -0.0512957 0
M  V30 1965 C 185.21 -1.53455 -0.82022 0
M  V30 1966 O 186.386 -1.86133 -0.769176 0
M  V30 1967 C 183.451 -3.31636 -1.01087 0
M  V30 1968 C 182.512 -4.2863 -0.239712 0
M  V30 1969 C 181.745 -5.21084 -1.15358 0
M  V30 1970 O 181.968 -5.1779 -2.39269 0
M  V30 1971 O 180.902 -5.98593 -0.630038 0
M  V30 1972 H 184.728 -2.95624 0.695718 0
M  V30 1973 H 182.313 -1.43781 0.405882 0
M  V30 1974 H 184.195 -3.9136 -1.56254 0
M  V30 1975 H 182.87 -2.73069 -1.73824 0
M  V30 1976 H 181.777 -3.72408 0.355356 0
M  V30 1977 H 183.11 -4.90157 0.447936 0
M  V30 1978 N 184.763 -0.387143 -1.52771 0
M  V30 1979 C 185.673 0.456442 -2.30117 0
M  V30 1980 C 186.689 1.07342 -1.36944 0
M  V30 1981 O 187.865 1.07971 -1.70013 0
M  V30 1982 C 184.93 1.56957 -3.09136 0
M  V30 1983 C 183.991 0.977916 -4.18014 0
M  V30 1984 C 183.224 2.038 -4.93256 0
M  V30 1985 O 183.447 3.25271 -4.68567 0
M  V30 1986 O 182.381 1.6565 -5.78657 0
M  V30 1987 H 186.207 -0.17359 -3.03203 0
M  V30 1988 H 183.792 -0.150919 -1.48636 0
M  V30 1989 H 185.674 2.21628 -3.58412 0
M  V30 1990 H 184.349 2.18461 -2.38865 0
M  V30 1991 H 183.256 0.294525 -3.72939 0
M  V30 1992 H 184.589 0.407128 -4.90513 0
M  V30 1993 N 186.241 1.57166 -0.116904 0
M  V30 1994 C 187.657 1.5779 0.239693 0
M  V30 1995 C 187.857 1.1295 1.66867 0
M  V30 1996 O 186.913 0.81592 2.38954 0
M  V30 1997 C 188.226 3.00699 0.00828202 0
M  V30 1998 C 189.774 3.12912 0.0743438 0
M  V30 1999 C 190.249 4.57817 -0.129348 0
M  V30 2000 N 191.74 4.63139 -0.075247 0
M  V30 2001 C 192.475 5.73023 -0.207788 0
M  V30 2002 N 191.971 6.91665 -0.396382 0
M  V30 2003 N 193.764 5.61906 -0.14751 0
M  V30 2004 H 185.915 1.84615 -1.05029 0
M  V30 2005 H 188.178 0.85311 -0.41341 0
M  V30 2006 H 187.884 3.37784 -0.979531 0
M  V30 2007 H 187.758 3.69848 0.741077 0
M  V30 2008 H 190.145 2.75686 1.05268 0
M  V30 2009 H 190.226 2.4631 -0.690297 0
M  V30 2010 H 189.87 4.95742 -1.10465 0
M  V30 2011 H 189.8 5.22507 0.655253 0
M  V30 2012 H 192.291 3.7784 0.0670898 0
M  V30 2013 H 192.604 7.71255 -0.488437 0
M  V30 2014 H 190.949 6.93654 -0.432329 0
M  V30 2015 H 194.14 4.681 -0.00115036 0
M  V30 2016 H 194.313 6.47501 -0.254247 0
M  V30 2017 N 187.719 -0.156864 1.56817 0
M  V30 2018 C 188.651 -1.21883 1.94106 0
M  V30 2019 C 189.664 -1.3971 0.835754 0
M  V30 2020 O 190.853 -1.39457 1.11418 0
M  V30 2021 C 187.953 -2.58527 2.19127 0
M  V30 2022 C 187.126 -2.61809 3.50393 0
M  V30 2023 C 186.185 -3.7992 3.64071 0
M  V30 2024 O 185.211 -3.65249 4.36557 0
M  V30 2025 N 186.413 -4.96973 2.99997 0
M  V30 2026 H 189.178 -0.901974 2.85805 0
M  V30 2027 H 186.739 -0.346513 1.58148 0
M  V30 2028 H 188.731 -3.36034 2.25529 0
M  V30 2029 H 187.301 -2.82545 1.33742 0
M  V30 2030 H 186.521 -1.7029 3.5552 0
M  V30 2031 H 187.809 -2.61024 4.36742 0
M  V30 2032 H 187.207 -5.11794 2.41004 0
M  V30 2033 H 185.764 -5.7229 3.11974 0
M  V30 2034 N 189.197 -1.51736 -0.425897 0
M  V30 2035 C 190.474 -1.55519 -1.1863 0
M  V30 2036 C 190.854 -0.326219 -2.08564 0
M  V30 2037 O 190.202 0.688012 -2.17896 0
M  V30 2038 C 190.412 -2.87521 -1.9782 0
M  V30 2039 C 191.76 -3.39899 -2.54468 0
M  V30 2040 O 192.784 -2.89148 -2.08019 0
M  V30 2041 O 191.643 -4.2848 -3.39215 0
M  V30 2042 H 188.737 -0.625739 -0.540721 0
M  V30 2043 H 191.283 -1.64055 -0.434038 0
M  V30 2044 H 190.055 -3.68422 -1.31836 0
M  V30 2045 H 189.678 -2.822 -2.80088 0
M  V30 2046 N 190.675 0.682077 -1.42076 0
M  V30 2047 C 191.585 1.82535 -1.47371 0
M  V30 2048 C 192.601 1.7017 -0.363079 0
M  V30 2049 O 193.777 1.91848 -0.612875 0
M  V30 2050 C 190.842 3.18624 -1.36674 0
M  V30 2051 C 189.903 3.42999 -2.58167 0
M  V30 2052 C 189.136 4.72595 -2.4797 0
M  V30 2053 O 189.359 5.50006 -1.5116 0
M  V30 2054 O 188.293 4.98054 -3.37974 0
M  V30 2055 H 192.119 1.81023 -2.43853 0
M  V30 2056 H 189.704 0.836887 -1.2376 0
M  V30 2057 H 191.586 3.99847 -1.33043 0
M  V30 2058 H 190.261 3.20789 -0.433138 0
M  V30 2059 H 189.168 2.61653 -2.67373 0
M  V30 2060 H 190.501 3.45659 -3.50401 0
M  V30 2061 N 192.153 1.28127 0.917671 0
M  V30 2062 C 193.103 1.08361 2.00604 0
M  V30 2063 C 194.087 0.00847518 1.60898 0
M  V30 2064 O 195.279 0.228167 1.75523 0
M  V30 2065 C 192.408 0.743376 3.35155 0
M  V30 2066 C 191.494 1.85716 3.81275 0
M  V30 2067 N 191.885 3.09822 3.99805 0
M  V30 2068 C 190.183 1.74612 4.10398 0
M  V30 2069 C 190.884 3.82368 4.38372 0
M  V30 2070 N 189.86 3.10192 4.4641 0
M  V30 2071 H 193.662 2.02531 2.12975 0
M  V30 2072 H 191.176 1.18989 1.10523 0
M  V30 2073 H 193.173 0.582859 4.12805 0
M  V30 2074 H 191.833 -0.190595 3.2414 0
M  V30 2075 H 192.844 3.45475 3.85833 0
M  V30 2076 H 189.521 0.883657 4.08041 0
M  V30 2077 H 190.911 4.89082 4.60704 0
M  V30 2078 N 193.631 -1.12557 1.10312 0
M  V30 2079 C 194.879 -1.83675 0.843091 0
M  V30 2080 C 195.2 -1.84435 -0.633131 0
M  V30 2081 O 194.47 -1.30657 -1.45964 0
M  V30 2082 H 193.05 -0.680138 0.308904 0
M  V30 2083 H 195.712 -1.36301 1.39313 0
M  V30 2084 H 194.808 -2.87908 1.2048 0
M  V30 2085 N 195.109 -0.891671 -1.2995 0
M  V30 2086 C 196.339 -0.527893 -1.99742 0
M  V30 2087 C 196.747 0.88979 -1.66971 0
M  V30 2088 O 196.09 1.59766 -0.906667 0
M  V30 2089 C 196.152 -0.630804 -3.53922 0
M  V30 2090 C 195.816 -2.01401 -4.10228 0
M  V30 2091 C 196.813 -2.98422 -4.25724 0
M  V30 2092 C 194.498 -2.32121 -4.45449 0
M  V30 2093 C 196.492 -4.24293 -4.75662 0
M  V30 2094 C 194.179 -3.58237 -4.95086 0
M  V30 2095 C 195.177 -4.54137 -5.10146 0
M  V30 2096 O 194.865 -5.78014 -5.58708 0
M  V30 2097 H 194.597 -0.201953 -0.645129 0
M  V30 2098 H 197.151 -1.20076 -1.66646 0
M  V30 2099 H 195.381 0.0990616 -3.86573 0
M  V30 2100 H 197.07 -0.277338 -4.04951 0
M  V30 2101 H 197.836 -2.76001 -3.98809 0
M  V30 2102 H 193.715 -1.5824 -4.32991 0
M  V30 2103 H 197.259 -4.99153 -4.87332 0
M  V30 2104 H 193.156 -3.80491 -5.21437 0
M  V30 2105 H 193.924 -5.8049 -5.77039 0
M  V30 2106 N 196.587 1.43421 -0.653314 0
M  V30 2107 C 197.836 2.01032 -0.164076 0
M  V30 2108 C 198.149 1.52147 1.22926 0
M  V30 2109 O 199.355 2.02031 1.81371 0
M  V30 2110 C 197.811 3.59082 -0.24252 0
M  V30 2111 C 197.419 4.1696 -1.63855 0
M  V30 2112 C 199.163 4.24079 0.18911 0
M  V30 2113 C 197.07 5.67304 -1.67092 0
M  V30 2114 H 196 0.751798 -0.0575769 0
M  V30 2115 H 198.651 1.6439 -0.815362 0
M  V30 2116 H 197.033 3.93125 0.476276 0
M  V30 2117 H 198.207 3.94416 -2.38271 0
M  V30 2118 H 196.522 3.64335 -2.01616 0
M  V30 2119 H 199.119 5.34381 0.184775 0
M  V30 2120 H 199.462 3.98005 1.22056 0
M  V30 2121 H 199.995 3.94918 -0.477938 0
M  V30 2122 H 196.734 5.98145 -2.68146 0
M  V30 2123 H 196.254 5.91904 -0.970014 0
M  V30 2124 H 197.933 6.31344 -1.4147 0
M  V30 2125 N 198.065 0.39524 1.52563 0
M  V30 2126 C 199.29 -0.187456 2.06551 0
M  V30 2127 C 199.715 -1.39249 1.26457 0
M  V30 2128 O 199.073 -1.78947 0.291151 0
M  V30 2129 C 199.121 -0.529985 3.56684 0
M  V30 2130 O 198.225 -1.62307 3.79118 0
M  V30 2131 H 197.566 -0.0202537 0.663691 0
M  V30 2132 H 200.096 0.564426 1.96661 0
M  V30 2133 H 200.106 -0.792598 4.00227 0
M  V30 2134 H 198.781 0.350987 4.14416 0
M  V30 2135 H 197.358 -1.3537 3.47461 0
M  V30 2136 N 199.544 -1.57102 0.125237 0
M  V30 2137 C 200.96 -1.57915 -0.231322 0
M  V30 2138 C 201.16 -1.13833 -1.66266 0
M  V30 2139 O 200.216 -0.828581 -2.38518 0
M  V30 2140 C 201.529 -3.00699 0.00766489 0
M  V30 2141 C 203.077 -3.12947 -0.0577483 0
M  V30 2142 C 203.552 -4.57742 0.153626 0
M  V30 2143 N 205.043 -4.63092 0.0998073 0
M  V30 2144 C 205.778 -5.72905 0.238174 0
M  V30 2145 N 205.274 -6.91445 0.433057 0
M  V30 2146 N 207.067 -5.6182 0.177308 0
M  V30 2147 H 199.218 -1.84055 1.06007 0
M  V30 2148 H 201.481 -0.850905 0.417929 0
M  V30 2149 H 201.187 -3.3726 0.997431 0
M  V30 2150 H 201.061 -3.70236 -0.721452 0
M  V30 2151 H 203.448 -2.7624 -1.03804 0
M  V30 2152 H 203.529 -2.4594 0.70335 0
M  V30 2153 H 203.173 -4.95149 1.13092 0
M  V30 2154 H 203.103 -5.22848 -0.627534 0
M  V30 2155 H 205.594 -3.77871 -0.047051 0
M  V30 2156 H 205.907 -7.70985 0.529332 0
M  V30 2157 H 204.252 -6.93415 0.469109 0
M  V30 2158 H 207.443 -4.68093 0.0259748 0
M  V30 2159 H 207.616 -6.47357 0.288582 0
M  V30 2160 N 201.022 0.148545 -1.56898 0
M  V30 2161 C 202.262 0.86765 -1.85071 0
M  V30 2162 C 202.626 1.78417 -0.709317 0
M  V30 2163 O 203.827 2.54261 -0.872049 0
M  V30 2164 C 202.098 1.62306 -3.1842 0
M  V30 2165 S 203.657 2.3878 -3.68143 0
M  V30 2166 H 200.475 0.290174 -0.649092 0
M  V30 2167 H 203.077 0.127755 -1.95082 0
M  V30 2168 H 201.781 0.941192 -3.99462 0
M  V30 2169 H 201.312 2.4039 -3.1141 0
M  V30 2170 H 203.327 3.63942 -3.37285 0
M  V30 2171 N 202.5 1.5196 0.417844 0
M  V30 2172 C 203.747 1.65591 1.16559 0
M  V30 2173 C 204.075 0.381565 1.90721 0
M  V30 2174 O 203.33 -0.635156 1.85106 0
M  V30 2175 C 203.629 2.82269 2.19223 0
M  V30 2176 C 203.295 4.20819 1.61933 0
M  V30 2177 C 201.957 4.58506 1.46033 0
M  V30 2178 C 204.309 5.07196 1.20008 0
M  V30 2179 C 201.637 5.80257 0.867113 0
M  V30 2180 C 203.989 6.29544 0.621086 0
M  V30 2181 C 202.653 6.65987 0.449144 0
M  V30 2182 H 201.923 0.605939 0.42652 0
M  V30 2183 H 204.57 1.86041 0.45397 0
M  V30 2184 H 202.875 2.56118 2.96498 0
M  V30 2185 H 204.572 2.90012 2.76936 0
M  V30 2186 H 201.162 3.91116 1.7529 0
M  V30 2187 H 205.346 4.7867 1.31105 0
M  V30 2188 H 200.602 6.07124 0.721833 0
M  V30 2189 H 204.776 6.95805 0.287798 0
M  V30 2190 H 202.403 7.60199 -0.012632 0
M  V30 2191 N 203.978 -0.674533 1.42435 0
M  V30 2192 C 205.206 -1.46283 1.46317 0
M  V30 2193 C 205.621 -1.88653 0.0745836 0
M  V30 2194 O 204.978 -1.58151 -0.91074 0
M  V30 2195 C 205.029 -2.71178 2.3905 0
M  V30 2196 O 204.75 -2.30586 3.72507 0
M  V30 2197 C 206.251 -3.64738 2.51955 0
M  V30 2198 H 203.471 -0.450104 0.497642 0
M  V30 2199 H 206.015 -0.828792 1.86953 0
M  V30 2200 H 204.17 -3.3077 2.01667 0
M  V30 2201 H 204.584 -3.11241 4.22172 0
M  V30 2202 H 206.058 -4.49096 3.20962 0
M  V30 2203 H 206.535 -4.10656 1.55752 0
M  V30 2204 H 207.141 -3.11038 2.90061 0
M  V30 2205 N 205.456 -1.28612 -0.910864 0
M  V30 2206 C 206.872 -1.06381 -1.18976 0
M  V30 2207 C 207.072 0.191998 -2.00583 0
M  V30 2208 O 206.128 0.892869 -2.36187 0
M  V30 2209 C 207.441 -2.31295 -1.92154 0
M  V30 2210 C 208.989 -2.36503 -2.05025 0
M  V30 2211 C 209.464 -3.61191 -2.81612 0
M  V30 2212 N 210.955 -3.61847 -2.89172 0
M  V30 2213 C 211.69 -4.55004 -3.4894 0
M  V30 2214 N 211.186 -5.58482 -4.09963 0
M  V30 2215 N 212.979 -4.42594 -3.46506 0
M  V30 2216 H 205.13 -2.09221 -0.366094 0
M  V30 2217 H 207.393 -0.921003 -0.224629 0
M  V30 2218 H 207.099 -3.228 -1.39618 0
M  V30 2219 H 206.973 -2.37934 -2.9269 0
M  V30 2220 H 209.36 -1.45494 -2.5674 0
M  V30 2221 H 209.441 -2.33857 -1.03657 0
M  V30 2222 H 209.085 -4.52545 -2.30576 0
M  V30 2223 H 209.015 -3.61092 -3.83302 0
M  V30 2224 H 211.506 -2.87022 -2.45819 0
M  V30 2225 H 211.819 -6.25704 -4.53557 0
M  V30 2226 H 210.164 -5.62305 -4.08459 0
M  V30 2227 H 213.355 -3.60953 -2.98045 0
M  V30 2228 H 213.528 -5.15381 -3.92793 0
M  V30 2229 N 206.934 1.1197 -1.10907 0
M  V30 2230 C 207.881 2.17846 -0.762345 0
M  V30 2231 C 208.851 1.63995 0.263599 0
M  V30 2232 O 210.036 1.90273 0.141773 0
M  V30 2233 C 207.176 3.44487 -0.205651 0
M  V30 2234 C 206.289 4.12369 -1.28748 0
M  V30 2235 C 205.424 5.26674 -0.691919 0
M  V30 2236 C 204.463 5.86431 -1.75399 0
M  V30 2237 N 203.6 6.92142 -1.17833 0
M  V30 2238 H 208.44 2.46851 -1.6694 0
M  V30 2239 H 205.977 1.21188 -0.833776 0
M  V30 2240 H 207.935 4.16981 0.135037 0
M  V30 2241 H 206.565 3.15884 0.664613 0
M  V30 2242 H 205.617 3.38003 -1.74522 0
M  V30 2243 H 206.929 4.52844 -2.09125 0
M  V30 2244 H 206.083 6.05953 -0.300963 0
M  V30 2245 H 204.822 4.8749 0.143232 0
M  V30 2246 H 203.827 5.05835 -2.15432 0
M  V30 2247 H 205.052 6.27685 -2.59208 0
M  V30 2248 H 202.998 6.54985 -0.364725 0
M  V30 2249 H 202.915 7.31242 -1.91887 0
M  V30 2250 H 204.183 7.75237 -0.81408 0
M  V30 2251 N 208.412 0.89855 1.29475 0
M  V30 2252 C 209.642 0.538479 1.99459 0
M  V30 2253 C 210.05 -0.880922 1.67441 0
M  V30 2254 O 209.393 -1.59283 0.915127 0
M  V30 2255 C 209.455 0.649564 3.53583 0
M  V30 2256 C 209.119 2.03573 4.09154 0
M  V30 2257 C 210.116 3.00675 4.24135 0
M  V30 2258 C 207.801 2.3448 4.44212 0
M  V30 2259 C 209.795 4.26809 4.73405 0
M  V30 2260 C 207.482 3.60857 4.93179 0
M  V30 2261 C 208.48 4.56836 5.0773 0
M  V30 2262 O 208.168 5.80969 5.55635 0
M  V30 2263 H 207.9 0.205372 0.644048 0
M  V30 2264 H 210.454 1.20958 1.66007 0
M  V30 2265 H 208.684 -0.0785592 3.8662 0
M  V30 2266 H 210.373 0.29881 4.04799 0
M  V30 2267 H 211.139 2.78112 3.97339 0
M  V30 2268 H 207.018 1.60534 4.32145 0
M  V30 2269 H 210.562 5.0173 4.84678 0
M  V30 2270 H 206.459 3.83251 5.19412 0
M  V30 2271 H 207.227 5.83542 5.73952 0
M  V30 2272 N 209.89 -1.43072 0.660911 0
M  V30 2273 C 211.118 -2.06067 0.185422 0
M  V30 2274 C 211.533 -1.49582 -1.15198 0
M  V30 2275 O 210.89 -0.630134 -1.71276 0
M  V30 2276 C 210.941 -3.61371 0.0966523 0
M  V30 2277 O 210.662 -4.15758 1.38119 0
M  V30 2278 C 212.163 -4.41455 -0.403996 0
M  V30 2279 H 209.383 -0.664459 0.0934604 0
M  V30 2280 H 211.927 -1.83447 0.90373 0
M  V30 2281 H 210.082 -3.8315 -0.572259 0
M  V30 2282 H 210.496 -5.09499 1.24542 0
M  V30 2283 H 211.97 -5.50437 -0.415045 0
M  V30 2284 H 212.447 -4.15036 -1.43674 0
M  V30 2285 H 213.053 -4.24663 0.232691 0
M  V30 2286 N 211.368 -0.403325 -1.52352 0
M  V30 2287 C 212.298 0.416205 -2.29761 0
M  V30 2288 C 213.279 1.05123 -1.33728 0
M  V30 2289 O 214.464 1.06134 -1.62632 0
M  V30 2290 C 211.594 1.53624 -3.11475 0
M  V30 2291 C 210.548 1.02653 -4.15507 0
M  V30 2292 C 209.874 2.23971 -4.85532 0
M  V30 2293 C 211.174 0.08463 -5.22231 0
M  V30 2294 H 212.868 -0.229701 -2.98518 0
M  V30 2295 H 210.414 -0.111913 -1.43564 0
M  V30 2296 H 212.367 2.1165 -3.64393 0
M  V30 2297 H 211.091 2.20994 -2.40477 0
M  V30 2298 H 209.75 0.46871 -3.63591 0
M  V30 2299 H 209.398 2.89883 -4.11068 0
M  V30 2300 H 209.098 1.90521 -5.55856 0
M  V30 2301 H 210.622 2.82614 -5.41259 0
M  V30 2302 H 212.036 0.573509 -5.70424 0
M  V30 2303 H 210.433 -0.160783 -5.99885 0
M  V30 2304 H 211.503 -0.86237 -4.7717 0
M  V30 2305 N 212.846 1.57033 -0.133567 0
M  V30 2306 C 214.257 1.82593 0.389464 0
M  V30 2307 C 214.608 1.05156 1.6564 0
M  V30 2308 O 213.733 0.292644 2.14412 0
M  V30 2309 C 214.328 3.31204 0.713377 0
M  V30 2310 C 212.887 3.57393 1.18098 0
M  V30 2311 C 212.034 2.76598 0.197126 0
M  V30 2312 H 214.985 1.54598 -0.358481 0
M  V30 2313 H 215.006 3.46627 1.56939 0
M  V30 2314 H 214.518 3.87537 -0.2089 0
M  V30 2315 H 212.619 3.06433 2.11966 0
M  V30 2316 H 212.732 4.65915 1.11624 0
M  V30 2317 H 211.096 2.45257 0.687088 0
M  V30 2318 H 211.879 3.35697 -0.718504 0
M  V30 2319 N 214.325 -0.140222 1.56975 0
M  V30 2320 C 215.736 -0.699596 1.73097 0
M  V30 2321 C 216.087 -1.8134 0.749022 0
M  V30 2322 O 215.212 -2.16241 -0.0828503 0
M  V30 2323 C 215.807 -1.27582 3.1386 0
M  V30 2324 C 214.366 -1.78169 3.31561 0
M  V30 2325 C 213.513 -0.672855 2.69013 0
M  V30 2326 H 216.464 0.0855115 1.58469 0
M  V30 2327 H 216.485 -2.14561 3.14235 0
M  V30 2328 H 215.997 -0.464955 3.85305 0
M  V30 2329 H 214.098 -2.61801 2.65124 0
M  V30 2330 H 214.211 -1.90574 4.39566 0
M  V30 2331 H 212.575 -1.10118 2.29665 0
M  V30 2332 H 213.358 0.126679 3.43066 0
M  V30 2333 N 215.803 -1.52179 -0.40978 0
M  V30 2334 C 217.051 -1.65878 -1.15451 0
M  V30 2335 C 217.372 -0.390771 -1.91044 0
M  V30 2336 O 216.642 0.594323 -1.86667 0
M  V30 2337 H 215.222 -0.611405 -0.429177 0
M  V30 2338 H 217.884 -1.89219 -0.467134 0
M  V30 2339 H 216.98 -2.49954 -1.86894 0
M  V30 2340 N 217.281 0.66697 -1.42791 0
M  V30 2341 C 218.527 1.4291 -1.43891 0
M  V30 2342 C 218.86 1.94114 -0.0578972 0
M  V30 2343 O 218.135 1.71414 0.91911 0
M  V30 2344 C 218.418 2.62049 -2.46987 0
M  V30 2345 C 218.271 2.16426 -3.94309 0
M  V30 2346 C 219.59 3.64266 -2.46978 0
M  V30 2347 H 216.709 0.518306 -0.523954 0
M  V30 2348 H 219.351 0.757321 -1.74255 0
M  V30 2349 H 217.501 3.19361 -2.21225 0
M  V30 2350 H 219.173 1.64221 -4.31079 0
M  V30 2351 H 217.416 1.47925 -4.078 0
M  V30 2352 H 218.087 3.02038 -4.62036 0
M  V30 2353 H 220.563 3.16686 -2.69906 0
M  V30 2354 H 219.439 4.45196 -3.21079 0
M  V30 2355 H 219.7 4.15927 -1.49857 0
M  V30 2356 N 218.759 1.29093 0.90403 0
M  V30 2357 C 220.036 1.075 1.63411 0
M  V30 2358 C 220.416 -0.382346 2.07609 0
M  V30 2359 O 219.764 -1.37031 1.82851 0
M  V30 2360 C 219.974 2.05858 2.81822 0
M  V30 2361 C 221.322 2.36539 3.52611 0
M  V30 2362 O 222.346 2.04019 2.91984 0
M  V30 2363 O 221.205 2.92085 4.61897 0
M  V30 2364 H 218.299 0.411547 0.717327 0
M  V30 2365 H 220.845 1.40449 0.952479 0
M  V30 2366 H 219.617 3.04037 2.46327 0
M  V30 2367 H 219.24 1.73613 3.57693 0
M  V30 2368 N 220.237 -1.11381 1.11499 0
M  V30 2369 C 221.648 -1.6465 0.880191 0
M  V30 2370 C 221.999 -1.87199 -0.587434 0
M  V30 2371 O 221.124 -1.60667 -1.44966 0
M  V30 2372 C 221.719 -2.99105 1.59128 0
M  V30 2373 C 220.278 -3.49279 1.40289 0
M  V30 2374 C 219.425 -2.24077 1.63354 0
M  V30 2375 H 222.376 -0.950123 1.27116 0
M  V30 2376 H 222.397 -3.66107 1.03664 0
M  V30 2377 H 221.909 -2.82661 2.65941 0
M  V30 2378 H 220.01 -3.70887 0.356888 0
M  V30 2379 H 220.123 -4.2803 2.15238 0
M  V30 2380 H 218.487 -2.31733 1.05698 0
M  V30 2381 H 219.27 -2.10175 2.71443 0
M  V30 2382 N 221.715 -0.905404 -1.28997 0
M  V30 2383 C 222.943 -0.549846 -1.9946 0
M  V30 2384 C 223.358 0.866834 -1.67724 0
M  V30 2385 O 222.715 1.57298 -0.925404 0
M  V30 2386 C 222.766 -0.739387 -3.53858 0
M  V30 2387 O 222.487 -2.10031 -3.84472 0
M  V30 2388 C 223.988 -0.389541 -4.41585 0
M  V30 2389 H 221.208 -0.210429 -0.637151 0
M  V30 2390 H 223.752 -1.21632 -1.64396 0
M  V30 2391 H 221.907 -0.120023 -3.87214 0
M  V30 2392 H 222.321 -2.13385 -4.79132 0
M  V30 2393 H 223.795 -0.572972 -5.49018 0
M  V30 2394 H 224.272 0.673756 -4.34001 0
M  V30 2395 H 224.878 -0.986089 -4.1371 0
M  V30 2396 N 223.193 1.4272 -0.668489 0
M  V30 2397 C 224.125 2.2914 0.052613 0
M  V30 2398 C 225.138 1.43339 0.771857 0
M  V30 2399 O 226.327 1.67123 0.627067 0
M  V30 2400 C 223.427 3.20618 1.09804 0
M  V30 2401 C 222.6 4.35039 0.45389 0
M  V30 2402 C 221.659 5.07282 1.39825 0
M  V30 2403 O 220.685 5.62024 0.900978 0
M  V30 2404 N 221.887 5.12206 2.73176 0
M  V30 2405 H 224.652 2.91668 -0.689209 0
M  V30 2406 H 222.213 1.53577 -0.512422 0
M  V30 2407 H 224.205 3.65815 1.73094 0
M  V30 2408 H 222.775 2.59585 1.74167 0
M  V30 2409 H 221.995 3.92567 -0.358396 0
M  V30 2410 H 223.283 5.088 0.00486972 0
M  V30 2411 H 222.681 4.6913 3.16122 0
M  V30 2412 H 221.238 5.61069 3.31729 0
M  V30 2413 N 224.671 0.411399 1.52136 0
M  V30 2414 C 225.917 -0.163888 2.02137 0
M  V30 2415 C 226.25 -1.44597 1.29636 0
M  V30 2416 O 225.525 -1.90272 0.403353 0
M  V30 2417 C 225.808 -0.40927 3.57767 0
M  V30 2418 C 225.661 0.889643 4.40914 0
M  V30 2419 C 226.98 -1.19042 4.23694 0
M  V30 2420 H 224.099 -0.0580896 0.734707 0
M  V30 2421 H 226.741 0.54531 1.82007 0
M  V30 2422 H 224.891 -1.0134 3.7505 0
M  V30 2423 H 226.563 1.52575 4.35337 0
M  V30 2424 H 224.806 1.50011 4.07037 0
M  V30 2425 H 225.477 0.672314 5.4789 0
M  V30 2426 H 227.953 -0.678942 4.10524 0
M  V30 2427 H 226.829 -1.33086 5.32522 0
M  V30 2428 H 227.09 -2.21166 3.82803 0
M  V30 2429 N 226.149 -1.5696 0.141893 0
M  V30 2430 C 227.374 -2.00754 -0.520838 0
M  V30 2431 C 227.799 -1.0213 -1.57959 0
M  V30 2432 O 227.157 0.00371324 -1.813 0
M  V30 2433 C 227.205 -3.43318 -1.10294 0
M  V30 2434 O 226.309 -3.47679 -2.21795 0
M  V30 2435 H 225.65 -0.651564 -0.127908 0
M  V30 2436 H 228.18 -2.03221 0.23712 0
M  V30 2437 H 228.19 -3.82012 -1.43287 0
M  V30 2438 H 226.865 -4.14608 -0.327574 0
M  V30 2439 H 225.442 -3.20824 -1.9007 0
M  V30 2440 N 227.627 0.131896 -1.57047 0
M  V30 2441 C 228.852 0.860418 -1.8871 0
M  V30 2442 C 229.277 1.73251 -0.73251 0
M  V30 2443 O 228.635 1.785 0.317429 0
M  V30 2444 C 228.683 1.68047 -3.19049 0
M  V30 2445 O 227.787 2.7862 -3.04047 0
M  V30 2446 H 227.128 0.238743 -0.619595 0
M  V30 2447 H 229.658 0.118169 -2.04258 0
M  V30 2448 H 229.668 2.07238 -3.51449 0
M  V30 2449 H 228.343 1.04018 -4.02682 0
M  V30 2450 H 226.92 2.42726 -2.83088 0
M  V30 2451 N 229.106 1.52395 0.401703 0
M  V30 2452 C 230.331 1.70972 1.17403 0
M  V30 2453 C 230.756 0.421615 1.83314 0
M  V30 2454 O 230.114 -0.621564 1.70312 0
M  V30 2455 C 230.162 2.85151 2.20728 0
M  V30 2456 O 229.266 2.51238 3.27037 0
M  V30 2457 H 228.607 0.568927 0.342372 0
M  V30 2458 H 231.137 1.99131 0.469891 0
M  V30 2459 H 231.147 3.10279 2.64936 0
M  V30 2460 H 229.822 3.78603 1.7214 0
M  V30 2461 H 228.399 2.36808 2.88057 0
M  V30 2462 N 230.584 -0.659388 1.43143 0
M  V30 2463 C 231.514 -1.78422 1.50625 0
M  V30 2464 C 232.495 -1.66216 0.361443 0
M  V30 2465 O 233.68 -1.85404 0.577834 0
M  V30 2466 C 230.81 -3.16815 1.42287 0
M  V30 2467 C 229.764 -3.43777 2.54954 0
M  V30 2468 C 229.09 -4.81905 2.31671 0
M  V30 2469 C 230.39 -3.39134 3.97222 0
M  V30 2470 H 232.084 -1.72417 2.44771 0
M  V30 2471 H 229.63 -0.828084 1.17808 0
M  V30 2472 H 231.583 -3.95253 1.46127 0
M  V30 2473 H 230.307 -3.23534 0.446435 0
M  V30 2474 H 228.966 -2.67707 2.50457 0
M  V30 2475 H 228.614 -4.85294 1.32284 0
M  V30 2476 H 228.314 -5.00906 3.07192 0
M  V30 2477 H 229.838 -5.62609 2.37284 0
M  V30 2478 H 231.252 -4.07518 4.03239 0
M  V30 2479 H 229.649 -3.69671 4.72719 0
M  V30 2480 H 230.719 -2.37426 4.22797 0
M  V30 2481 N 232.062 -1.29571 -0.897171 0
M  V30 2482 C 233.287 -1.20705 -1.68656 0
M  V30 2483 C 233.712 0.228582 -1.86706 0
M  V30 2484 O 233.07 1.16494 -1.3892 0
M  V30 2485 C 233.118 -1.9282 -3.04717 0
M  V30 2486 O 232.222 -1.24697 -3.93096 0
M  V30 2487 H 231.563 -0.418126 -0.515816 0
M  V30 2488 H 234.093 -1.71183 -1.12061 0
M  V30 2489 H 234.103 -2.01372 -3.54843 0
M  V30 2490 H 232.778 -2.97239 -2.90899 0
M  V30 2491 H 231.355 -1.2442 -3.51531 0
M  V30 2492 N 233.54 1.10788 -1.12088 0
M  V30 2493 C 234.951 1.64181 -0.88891 0
M  V30 2494 C 235.302 1.87508 0.577498 0
M  V30 2495 O 234.427 1.61434 1.44112 0
M  V30 2496 C 235.022 2.98257 -1.60712 0
M  V30 2497 C 233.581 3.4853 -1.42139 0
M  V30 2498 C 232.728 2.23208 -1.6454 0
M  V30 2499 H 235.679 0.943368 -1.27618 0
M  V30 2500 H 235.7 3.65552 -1.05604 0
M  V30 2501 H 235.212 2.81246 -2.67436 0
M  V30 2502 H 233.313 3.70692 -0.376552 0
M  V30 2503 H 233.426 4.26882 -2.17505 0
M  V30 2504 H 231.79 2.31169 -1.06925 0
M  V30 2505 H 232.573 2.08733 -2.72554 0
M  V30 2506 N 235.018 0.912232 1.28515 0
M  V30 2507 C 235.928 0.404506 2.31086 0
M  V30 2508 C 236.944 -0.50707 1.66448 0
M  V30 2509 O 238.12 -0.393624 1.97516 0
M  V30 2510 C 235.185 -0.348572 3.44943 0
M  V30 2511 C 234.246 0.59604 4.25142 0
M  V30 2512 C 233.479 -0.121194 5.33562 0
M  V30 2513 O 233.702 -1.34317 5.5436 0
M  V30 2514 O 232.636 0.542716 5.99448 0
M  V30 2515 H 236.462 1.25579 2.76521 0
M  V30 2516 H 234.047 0.676998 1.33181 0
M  V30 2517 H 235.929 -0.77395 4.14232 0
M  V30 2518 H 234.604 -1.17571 3.01594 0
M  V30 2519 H 233.511 1.07079 3.58448 0
M  V30 2520 H 234.844 1.38995 4.72167 0
M  V30 2521 N 236.496 -1.42363 0.676048 0
M  V30 2522 C 237.744 -2.01123 0.198437 0
M  V30 2523 C 238.065 -1.53731 -1.19966 0
M  V30 2524 O 237.335 -0.759518 -1.80577 0
M  V30 2525 H 235.915 -0.743678 0.0703721 0
M  V30 2526 H 238.577 -1.74263 0.872837 0
M  V30 2527 H 237.673 -3.11454 0.200686 0
M  V30 2528 N 237.974 -0.419461 -1.51915 0
M  V30 2529 C 239.202 0.152136 -2.0634 0
M  V30 2530 C 239.617 1.37988 -1.28859 0
M  V30 2531 O 238.974 1.79243 -0.343232 0
M  V30 2532 C 239.025 0.492266 -3.58133 0
M  V30 2533 O 238.746 -0.686736 -4.32684 0
M  V30 2534 C 240.247 1.11648 -4.2901 0
M  V30 2535 H 237.467 0.0158325 -0.670813 0
M  V30 2536 H 240.011 -0.593394 -1.95702 0
M  V30 2537 H 238.166 1.18769 -3.68745 0
M  V30 2538 H 238.58 -0.400341 -5.2297 0
M  V30 2539 H 240.054 1.3046 -5.36362 0
M  V30 2540 H 240.531 2.09251 -3.86148 0
M  V30 2541 H 241.137 0.460958 -4.22795 0
M  V30 2542 N 239.452 1.56882 -0.150215 0
M  V30 2543 C 240.382 2.19935 0.784284 0
M  V30 2544 C 241.363 1.14854 1.25469 0
M  V30 2545 O 242.548 1.43209 1.31168 0
M  V30 2546 C 239.678 2.82349 2.02229 0
M  V30 2547 C 238.632 3.93285 1.68853 0
M  V30 2548 C 237.958 4.42649 2.99944 0
M  V30 2549 C 239.258 5.13904 0.932714 0
M  V30 2550 H 240.952 2.9828 0.258781 0
M  V30 2551 H 238.498 1.43473 0.123029 0
M  V30 2552 H 240.451 3.25126 2.68088 0
M  V30 2553 H 239.175 2.0134 2.57157 0
M  V30 2554 H 237.834 3.5113 1.05371 0
M  V30 2555 H 237.482 3.58458 3.52869 0
M  V30 2556 H 237.182 5.17476 2.78374 0
M  V30 2557 H 238.706 4.88099 3.66868 0
M  V30 2558 H 240.12 5.53506 1.49345 0
M  V30 2559 H 238.517 5.94515 0.81684 0
M  V30 2560 H 239.587 4.84842 -0.0749568 0
M  V30 2561 N 240.93 -0.123565 1.57115 0
M  V30 2562 C 242.158 -0.846461 1.88793 0
M  V30 2563 C 242.573 -1.73652 0.740976 0
M  V30 2564 O 241.93 -1.80207 -0.288393 0
M  V30 2565 C 241.981 -1.6837 3.19897 0
M  V30 2566 O 241.702 -0.829477 4.30176 0
M  V30 2567 C 243.203 -2.51214 3.65248 0
M  V30 2568 H 240.423 -0.243573 0.625231 0
M  V30 2569 H 242.967 -0.109324 2.04208 0
M  V30 2570 H 241.122 -2.37364 3.06165 0
M  V30 2571 H 241.536 -1.40651 5.0529 0
M  V30 2572 H 243.01 -3.05497 4.59756 0
M  V30 2573 H 243.487 -3.28359 2.9168 0
M  V30 2574 H 244.093 -1.8747 3.81752 0
M  V30 2575 N 242.408 -1.52605 -0.393616 0
M  V30 2576 C 243.654 -1.67672 -1.14079 0
M  V30 2577 C 243.987 -0.413121 -1.89755 0
M  V30 2578 O 243.262 0.588952 -1.85369 0
M  V30 2579 C 243.545 -2.9088 -2.12276 0
M  V30 2580 C 243.398 -4.27329 -1.40394 0
M  V30 2581 C 244.717 -3.09628 -3.12759 0
M  V30 2582 H 241.836 -0.610168 -0.413356 0
M  V30 2583 H 244.478 -1.85193 -0.424696 0
M  V30 2584 H 242.628 -2.76073 -2.73342 0
M  V30 2585 H 244.3 -4.53894 -0.82327 0
M  V30 2586 H 242.543 -4.2802 -0.705801 0
M  V30 2587 H 243.214 -5.09615 -2.12123 0
M  V30 2588 H 245.69 -3.23436 -2.61779 0
M  V30 2589 H 244.566 -3.97322 -3.78717 0
M  V30 2590 H 244.827 -2.23637 -3.81365 0
M  V30 2591 N 243.887 0.651787 -1.4349 0
M  V30 2592 C 244.797 1.79368 -1.5121 0
M  V30 2593 C 245.813 1.69361 -0.399093 0
M  V30 2594 O 246.989 1.90505 -0.653431 0
M  V30 2595 C 244.054 3.15653 -1.43401 0
M  V30 2596 C 243.115 3.37446 -2.65384 0
M  V30 2597 C 242.348 4.67229 -2.57939 0
M  V30 2598 O 242.571 5.46676 -1.62792 0
M  V30 2599 O 241.505 4.90773 -3.48462 0
M  V30 2600 H 245.331 1.7581 -2.47638 0
M  V30 2601 H 242.916 0.810447 -1.25507 0
M  V30 2602 H 244.798 3.96935 -1.41494 0
M  V30 2603 H 243.473 3.19798 -0.501085 0
M  V30 2604 H 242.38 2.55923 -2.72863 0
M  V30 2605 H 243.713 3.38148 -3.57654 0
M  V30 2606 N 245.365 1.30045 0.890287 0
M  V30 2607 C 246.328 1.15963 1.977 0
M  V30 2608 C 247.328 0.0923777 1.60534 0
M  V30 2609 O 248.518 0.340071 1.70848 0
M  V30 2610 C 245.65 0.775451 3.31963 0
M  V30 2611 H 246.843 2.12502 2.11619 0
M  V30 2612 H 244.396 1.13366 1.07601 0
M  V30 2613 H 245.131 -0.189671 3.23745 0
M  V30 2614 H 244.916 1.54668 3.60306 0
M  V30 2615 H 246.406 0.700251 4.11687 0
M  V30 2616 N 246.843 -1.10192 1.12674 0
M  V30 2617 C 248.254 -1.63707 0.897604 0
M  V30 2618 C 248.605 -1.87812 -0.567546 0
M  V30 2619 O 247.73 -1.62196 -1.43253 0
M  V30 2620 C 248.325 -2.974 1.62292 0
M  V30 2621 C 246.884 -3.47772 1.43986 0
M  V30 2622 C 246.031 -2.22332 1.65722 0
M  V30 2623 H 248.982 -0.936587 1.28116 0
M  V30 2624 H 249.003 -3.64986 1.07541 0
M  V30 2625 H 248.515 -2.79824 2.68924 0
M  V30 2626 H 246.616 -3.70487 0.396206 0
M  V30 2627 H 246.729 -4.25723 2.19765 0
M  V30 2628 H 245.093 -2.30599 1.08149 0
M  V30 2629 H 245.876 -2.07285 2.73657 0
M  V30 2630 N 248.321 -0.919034 -1.28029 0
M  V30 2631 C 249.254 -0.355887 -2.25408 0
M  V30 2632 C 250.232 0.542874 -1.5327 0
M  V30 2633 O 251.416 0.485338 -1.82145 0
M  V30 2634 C 248.543 0.490759 -3.35126 0
M  V30 2635 C 247.589 -0.343358 -4.25116 0
M  V30 2636 S 248.422 -1.75344 -5.05979 0
M  V30 2637 C 249.578 -0.914244 -6.19187 0
M  V30 2638 H 249.811 -1.18123 -2.72826 0
M  V30 2639 H 247.344 -0.720636 -1.36551 0
M  V30 2640 H 249.302 0.973404 -3.98792 0
M  V30 2641 H 247.963 1.29054 -2.86363 0
M  V30 2642 H 247.156 0.304266 -5.03081 0
M  V30 2643 H 246.758 -0.759851 -3.662 0
M  V30 2644 H 249.05 -0.146282 -6.77342 0
M  V30 2645 H 249.993 -1.66661 -6.88208 0
M  V30 2646 H 250.401 -0.460082 -5.62622 0
M  V30 2647 N 249.799 1.42003 -0.683588 0
M  V30 2648 C 251.21 1.84501 -0.285736 0
M  V30 2649 C 251.561 1.57213 1.17382 0
M  V30 2650 O 250.686 1.03642 1.89966 0
M  V30 2651 C 251.281 3.34912 -0.511821 0
M  V30 2652 C 249.84 3.76025 -0.168005 0
M  V30 2653 C 248.987 2.6551 -0.799983 0
M  V30 2654 H 251.938 1.31724 -0.885119 0
M  V30 2655 H 251.959 3.79784 0.233292 0
M  V30 2656 H 251.471 3.54741 -1.57418 0
M  V30 2657 H 249.572 3.61801 0.890567 0
M  V30 2658 H 249.685 4.75141 -0.614661 0
M  V30 2659 H 248.049 2.53654 -0.230568 0
M  V30 2660 H 248.832 2.8816 -1.86597 0
M  V30 2661 N 251.277 0.427512 1.51691 0
M  V30 2662 C 252.224 -0.388867 2.275 0
M  V30 2663 C 253.194 -1.02532 1.30677 0
M  V30 2664 O 254.379 -1.0461 1.59566 0
M  V30 2665 C 251.519 -1.48954 3.11298 0
M  V30 2666 C 250.632 -0.872194 4.23104 0
M  V30 2667 C 249.767 -1.94709 4.94228 0
M  V30 2668 C 248.806 -1.30766 5.97969 0
M  V30 2669 N 247.943 -2.32349 6.62539 0
M  V30 2670 H 252.783 0.263997 2.96828 0
M  V30 2671 H 250.32 0.142033 1.46413 0
M  V30 2672 H 252.278 -2.13887 3.58201 0
M  V30 2673 H 250.908 -2.11217 2.44105 0
M  V30 2674 H 249.96 -0.111419 3.80237 0
M  V30 2675 H 251.272 -0.365264 4.97461 0
M  V30 2676 H 250.426 -2.67327 5.44629 0
M  V30 2677 H 249.165 -2.48773 4.1948 0
M  V30 2678 H 248.17 -0.566902 5.4687 0
M  V30 2679 H 249.395 -0.774483 6.74669 0
M  V30 2680 H 247.341 -2.85511 5.90609 0
M  V30 2681 H 247.258 -1.8652 7.3263 0
M  V30 2682 H 248.526 -3.04481 7.17574 0
M  V30 2683 N 252.755 -1.56801 0.158532 0
M  V30 2684 C 253.685 -2.20347 -0.772609 0
M  V30 2685 C 254.666 -1.15518 -1.24859 0
M  V30 2686 O 255.851 -1.43902 -1.30406 0
M  V30 2687 C 252.981 -2.83417 -2.00729 0
M  V30 2688 C 251.935 -3.94174 -1.66765 0
M  V30 2689 C 251.261 -4.44233 -2.97592 0
M  V30 2690 C 252.561 -5.14392 -0.905447 0
M  V30 2691 H 254.255 -2.98413 -0.242959 0
M  V30 2692 H 251.801 -1.43537 -0.115419 0
M  V30 2693 H 253.754 -3.26543 -2.6636 0
M  V30 2694 H 252.478 -2.02701 -2.56086 0
M  V30 2695 H 251.137 -3.51684 -1.03508 0
M  V30 2696 H 250.785 -3.60325 -3.50963 0
M  V30 2697 H 250.485 -5.18945 -2.75626 0
M  V30 2698 H 252.009 -4.90037 -3.64274 0
M  V30 2699 H 253.423 -5.5429 -1.46408 0
M  V30 2700 H 251.82 -5.9494 -0.7853 0
M  V30 2701 H 252.89 -4.84795 0.100668 0
M  V30 2702 N 254.233 0.115231 -1.57178 0
M  V30 2703 C 255.196 1.12526 -1.99676 0
M  V30 2704 C 256.196 1.34095 -0.88742 0
M  V30 2705 O 257.386 1.30548 -1.15337 0
M  V30 2706 C 254.518 2.4789 -2.34015 0
M  V30 2707 H 255.711 0.759912 -2.90113 0
M  V30 2708 H 253.264 0.359648 -1.52106 0
M  V30 2709 H 253.999 2.89339 -1.4647 0
M  V30 2710 H 253.784 2.33588 -3.14927 0
M  V30 2711 H 255.274 3.20575 -2.67622 0
M  V30 2712 N 255.711 1.52812 0.385517 0
M  V30 2713 C 256.939 1.71907 1.15133 0
M  V30 2714 C 257.354 0.439004 1.83625 0
M  V30 2715 O 256.711 -0.586765 1.7281 0
M  V30 2716 C 256.762 2.87099 2.19673 0
M  V30 2717 O 256.483 4.10151 1.53973 0
M  V30 2718 C 257.984 3.17902 3.08955 0
M  V30 2719 H 255.204 0.575479 0.345057 0
M  V30 2720 H 257.748 1.99476 0.45052 0
M  V30 2721 H 255.903 2.61982 2.85384 0
M  V30 2722 H 256.317 4.74514 2.23465 0
M  V30 2723 H 257.791 4.01959 3.7833 0
M  V30 2724 H 258.268 2.3243 3.72657 0
M  V30 2725 H 258.874 3.44871 2.48885 0
M  V30 2726 N 257.189 -0.644168 1.43834 0
M  V30 2727 C 258.121 -1.76955 1.45669 0
M  V30 2728 C 259.134 -1.58956 0.351666 0
M  V30 2729 O 260.323 -1.6751 0.616644 0
M  V30 2730 C 257.423 -3.14507 1.26248 0
M  V30 2731 C 256.596 -3.59083 2.49757 0
M  V30 2732 C 255.655 -4.75467 2.25427 0
M  V30 2733 O 254.681 -4.84444 2.98836 0
M  V30 2734 N 255.883 -5.66289 1.27661 0
M  V30 2735 H 258.648 -1.75856 2.42682 0
M  V30 2736 H 256.209 -0.828312 1.39106 0
M  V30 2737 H 258.201 -3.90067 1.0784 0
M  V30 2738 H 256.771 -3.10325 0.376478 0
M  V30 2739 H 255.991 -2.7387 2.8353 0
M  V30 2740 H 257.279 -3.85613 3.31934 0
M  V30 2741 H 256.677 -5.61718 0.670064 0
M  V30 2742 H 255.234 -6.41533 1.15234 0
M  V30 2743 N 258.668 -1.30515 -0.883378 0
M  V30 2744 C 259.893 -1.22487 -1.67367 0
M  V30 2745 C 260.318 0.208767 -1.86938 0
M  V30 2746 O 259.676 1.15015 -1.40148 0
M  V30 2747 C 259.724 -1.96041 -3.02655 0
M  V30 2748 O 258.828 -1.28859 -3.91751 0
M  V30 2749 H 258.169 -0.423573 -0.511353 0
M  V30 2750 H 260.699 -1.72362 -1.10239 0
M  V30 2751 H 260.709 -2.05124 -3.52687 0
M  V30 2752 H 259.384 -3.00307 -2.8773 0
M  V30 2753 H 257.961 -1.28141 -3.50192 0
M  V30 2754 N 260.146 1.09593 -1.13257 0
M  V30 2755 C 261.094 2.18271 -0.803783 0
M  V30 2756 C 262.088 1.68054 0.213148 0
M  V30 2757 O 263.294 1.79862 0.0704699 0
M  V30 2758 H 259.669 0.711949 -0.242143 0
M  V30 2759 H 261.64 2.43235 -1.72856 0
M  V30 2760 C 260.389 3.46536 -0.28424 0
M  V30 2761 H 259.712 3.85545 -1.05807 0
M  V30 2762 H 261.152 4.23899 -0.0925945 0
M  V30 2763 C 259.611 3.22036 0.989684 0
M  V30 2764 O 260.141 3.44509 2.06584 0
M  V30 2765 N 258.347 2.7565 0.920086 0
M  V30 2766 H 257.894 2.57562 0.0442019 0
M  V30 2767 H 257.852 2.59635 1.77306 0
M  V30 2768 N 261.624 0.925811 1.2754 0
M  V30 2769 C 262.534 0.428993 2.30644 0
M  V30 2770 C 263.55 -0.489387 1.66976 0
M  V30 2771 O 264.726 -0.372653 1.97922 0
M  V30 2772 C 261.791 -0.311967 3.45294 0
M  V30 2773 C 260.852 0.641098 4.24486 0
M  V30 2774 C 260.085 -0.0645955 5.33661 0
M  V30 2775 O 260.308 -1.28429 5.55754 0
M  V30 2776 O 259.242 0.606265 5.98839 0
M  V30 2777 H 263.068 1.28504 2.75173 0
M  V30 2778 H 260.653 0.691086 1.32455 0
M  V30 2779 H 262.535 -0.729972 4.15029 0
M  V30 2780 H 261.21 -1.14365 3.02824 0
M  V30 2781 H 260.117 1.10874 3.57292 0
M  V30 2782 H 261.45 1.43995 4.70666 0
M  V30 2783 N 263.102 -1.41638 0.69111 0
M  V30 2784 C 264.351 -2.00526 0.217318 0
M  V30 2785 C 264.664 -1.55353 -1.18848 0
M  V30 2786 O 265.87 -2.06769 -1.75951 0
M  V30 2787 C 264.326 -3.58313 0.337639 0
M  V30 2788 C 263.934 -4.12469 1.74852 0
M  V30 2789 C 265.678 -4.24431 -0.0766066 0
M  V30 2790 C 263.585 -5.62675 1.82074 0
M  V30 2791 H 262.515 -0.750008 0.0774893 0
M  V30 2792 H 265.166 -1.6217 0.858661 0
M  V30 2793 H 263.548 -3.9425 -0.371879 0
M  V30 2794 H 264.722 -3.8796 2.48644 0
M  V30 2795 H 263.037 -3.58861 2.11205 0
M  V30 2796 H 265.634 -5.34683 -0.0430284 0
M  V30 2797 H 265.977 -4.01101 -1.1146 0
M  V30 2798 H 266.51 -3.93512 0.582476 0
M  V30 2799 H 263.249 -5.90826 2.83911 0
M  V30 2800 H 262.769 -5.89124 1.12661 0
M  V30 2801 H 264.448 -6.27371 1.58159 0
M  V30 2802 N 264.58 -0.43555 -1.51462 0
M  V30 2803 C 265.808 0.130242 -2.0649 0
M  V30 2804 C 266.223 1.36614 -1.30315 0
M  V30 2805 O 265.58 1.78869 -0.362223 0
M  V30 2806 C 265.631 0.454253 -3.58635 0
M  V30 2807 O 265.352 -0.73259 -4.31931 0
M  V30 2808 C 266.853 1.07091 -4.3017 0
M  V30 2809 H 264.073 0.00871669 -0.670943 0
M  V30 2810 H 266.617 -0.614117 -1.95061 0
M  V30 2811 H 264.772 1.14851 -3.69984 0
M  V30 2812 H 265.186 -0.455787 -5.22516 0
M  V30 2813 H 266.66 1.24764 -5.37716 0
M  V30 2814 H 267.137 2.05144 -3.88346 0
M  V30 2815 H 267.743 0.416089 -4.2326 0
M  V30 2816 N 266.058 1.56714 -0.166846 0
M  V30 2817 C 267.307 1.95922 0.479318 0
M  V30 2818 C 267.62 1.05529 1.6469 0
M  V30 2819 O 268.826 1.34399 2.35901 0
M  V30 2820 C 267.282 3.48359 0.90412 0
M  V30 2821 C 266.89 4.47369 -0.237621 0
M  V30 2822 C 268.634 3.96394 1.51896 0
M  V30 2823 C 266.541 5.91039 0.206561 0
M  V30 2824 H 265.471 0.731495 0.18284 0
M  V30 2825 H 268.122 1.81728 -0.254363 0
M  V30 2826 H 266.504 3.57955 1.69365 0
M  V30 2827 H 267.678 4.49485 -1.01489 0
M  V30 2828 H 265.993 4.09366 -0.762128 0
M  V30 2829 H 268.59 5.01186 1.86325 0
M  V30 2830 H 268.933 3.39075 2.41524 0
M  V30 2831 H 269.466 3.89796 0.79395 0
M  V30 2832 H 266.205 6.52221 -0.654834 0
M  V30 2833 H 265.725 5.9224 0.949282 0
M  V30 2834 H 267.404 6.43707 0.651939 0
M  V30 2835 N 267.536 -0.106894 1.57237 0
M  V30 2836 C 268.947 -0.662723 1.74542 0
M  V30 2837 C 269.298 -1.7971 0.787319 0
M  V30 2838 O 268.423 -2.16368 -0.0369636 0
M  V30 2839 C 269.018 -1.20896 3.16496 0
M  V30 2840 C 267.577 -1.71096 3.35266 0
M  V30 2841 C 266.724 -0.615642 2.7038 0
M  V30 2842 H 269.675 0.119106 1.58252 0
M  V30 2843 H 269.696 -2.07847 3.18716 0
M  V30 2844 H 269.208 -0.383122 3.86204 0
M  V30 2845 H 267.309 -2.56119 2.70618 0
M  V30 2846 H 267.422 -1.81208 4.43509 0
M  V30 2847 H 265.786 -1.05222 2.31949 0
M  V30 2848 H 266.569 0.199419 3.4272 0
M  V30 2849 N 269.014 -1.53014 -0.377408 0
M  V30 2850 C 270.26 -1.68872 -1.12294 0
M  V30 2851 C 270.593 -0.433224 -1.89306 0
M  V30 2852 O 269.868 0.569258 -1.85983 0
M  V30 2853 C 270.151 -2.93115 -2.09179 0
M  V30 2854 C 270.004 -4.28794 -1.35853 0
M  V30 2855 C 271.323 -3.12928 -3.09458 0
M  V30 2856 H 268.442 -0.614518 -0.406862 0
M  V30 2857 H 271.084 -1.85633 -0.40503 0
M  V30 2858 H 269.234 -2.78956 -2.70399 0
M  V30 2859 H 270.906 -4.54742 -0.775082 0
M  V30 2860 H 269.149 -4.28744 -0.660364 0
M  V30 2861 H 269.82 -5.11837 -2.06706 0
M  V30 2862 H 272.296 -3.26194 -2.58334 0
M  V30 2863 H 271.172 -4.01316 -3.74482 0
M  V30 2864 H 271.433 -2.27669 -3.78971 0
M  V30 2865 N 270.492 0.636531 -1.44174 0
M  V30 2866 C 271.72 1.42353 -1.50144 0
M  V30 2867 C 272.135 1.88389 -0.124575 0
M  V30 2868 O 271.492 1.6051 0.868489 0
M  V30 2869 C 271.543 2.64744 -2.46156 0
M  V30 2870 O 271.264 2.20629 -3.7849 0
M  V30 2871 C 272.765 3.57929 -2.61537 0
M  V30 2872 H 269.985 0.436752 -0.5094 0
M  V30 2873 H 272.529 0.778933 -1.89084 0
M  V30 2874 H 270.684 3.25307 -2.10366 0
M  V30 2875 H 271.098 2.99938 -4.30276 0
M  V30 2876 H 272.572 4.40428 -3.32757 0
M  V30 2877 H 273.049 4.06382 -1.66585 0
M  V30 2878 H 273.655 3.03238 -2.98206 0
M  V30 2879 N 271.97 1.30982 0.876444 0
M  V30 2880 C 273.217 1.20296 1.62896 0
M  V30 2881 C 273.545 -0.240395 1.93009 0
M  V30 2882 O 272.8 -1.18733 1.55567 0
M  V30 2883 C 273.099 1.98572 2.9716 0
M  V30 2884 C 272.765 3.48125 2.86566 0
M  V30 2885 C 271.427 3.88905 2.83383 0
M  V30 2886 C 273.779 4.43322 2.74071 0
M  V30 2887 C 271.107 5.2316 2.65556 0
M  V30 2888 C 273.459 5.77695 2.57781 0
M  V30 2889 C 272.123 6.17704 2.52979 0
M  V30 2890 H 271.393 0.440193 0.59608 0
M  V30 2891 H 274.04 1.62177 1.01837 0
M  V30 2892 H 272.345 1.49352 3.62217 0
M  V30 2893 H 274.042 1.8769 3.54364 0
M  V30 2894 H 270.632 3.15723 2.89856 0
M  V30 2895 H 274.816 4.12752 2.75589 0
M  V30 2896 H 270.072 5.53241 2.60259 0
M  V30 2897 H 274.246 6.51091 2.47089 0
M  V30 2898 H 271.873 7.21678 2.38924 0
M  V30 2899 N 273.449 -1.08991 1.13837 0
M  V30 2900 C 274.359 -2.19301 0.833333 0
M  V30 2901 C 275.375 -1.73026 -0.183847 0
M  V30 2902 O 276.551 -2.01395 -0.0138092 0
M  V30 2903 C 273.616 -3.45323 0.308651 0
M  V30 2904 C 272.677 -4.06255 1.38764 0
M  V30 2905 C 271.91 -5.26262 0.887896 0
M  V30 2906 O 272.133 -5.69747 -0.27287 0
M  V30 2907 O 271.067 -5.78435 1.66421 0
M  V30 2908 H 274.893 -2.47854 1.75506 0
M  V30 2909 H 272.478 -1.18012 0.916166 0
M  V30 2910 H 274.36 -4.21394 0.0216739 0
M  V30 2911 H 273.035 -3.18362 -0.585431 0
M  V30 2912 H 271.942 -3.318 1.72799 0
M  V30 2913 H 273.275 -4.37452 2.25602 0
M  V30 2914 N 274.927 -0.932562 -1.27047 0
M  V30 2915 C 276.152 -0.591474 -1.98787 0
M  V30 2916 C 276.577 0.824601 -1.69062 0
M  V30 2917 O 275.935 1.5541 -0.933677 0
M  V30 2918 C 275.983 -0.829808 -3.50922 0
M  V30 2919 O 275.087 0.102266 -4.12273 0
M  V30 2920 H 274.428 -0.227185 -0.623926 0
M  V30 2921 H 276.958 -1.25314 -1.61733 0
M  V30 2922 H 276.968 -0.747292 -4.01098 0
M  V30 2923 H 275.643 -1.86201 -3.7189 0
M  V30 2924 H 274.22 -0.0305761 -3.72887 0
M  V30 2925 N 276.405 1.4127 -0.698611 0
M  V30 2926 C 277.821 1.55241 -0.370462 0
M  V30 2927 C 278.021 1.67351 1.12231 0
M  V30 2928 O 277.077 1.65363 1.90818 0
M  V30 2929 C 278.39 2.78997 -1.12165 0
M  V30 2930 C 279.938 2.92797 -1.1063 0
M  V30 2931 C 280.413 4.19445 -1.8393 0
M  V30 2932 N 281.904 4.26409 -1.80914 0
M  V30 2933 C 282.639 5.23271 -2.34467 0
M  V30 2934 N 282.135 6.26145 -2.96504 0
M  V30 2935 N 283.928 5.15232 -2.24706 0
M  V30 2936 H 276.079 1.31654 -1.66676 0
M  V30 2937 H 278.342 0.635393 -0.703548 0
M  V30 2938 H 278.048 2.76268 -2.17644 0
M  V30 2939 H 277.922 3.70606 -0.702209 0
M  V30 2940 H 280.309 2.95039 -0.0597713 0
M  V30 2941 H 280.39 2.02353 -1.56483 0
M  V30 2942 H 280.034 4.17964 -2.88563 0
M  V30 2943 H 279.964 5.08866 -1.35509 0
M  V30 2944 H 282.455 3.527 -1.35687 0
M  V30 2945 H 282.768 6.96451 -3.34927 0
M  V30 2946 H 281.113 6.26638 -3.00583 0
M  V30 2947 H 284.304 4.33789 -1.7591 0
M  V30 2948 H 284.477 5.90552 -2.66745 0
M  V30 2949 N 277.883 0.443576 1.51229 0
M  V30 2950 C 278.846 -0.353132 2.26463 0
M  V30 2951 C 279.846 -0.944338 1.3015 0
M  V30 2952 O 281.036 -0.817813 1.5381 0
M  V30 2953 C 278.168 -1.50023 3.06114 0
M  V30 2954 H 279.361 0.3063 2.98332 0
M  V30 2955 H 276.914 0.196902 1.55055 0
M  V30 2956 H 277.649 -2.19553 2.38677 0
M  V30 2957 H 277.434 -1.08241 3.76864 0
M  V30 2958 H 278.924 -2.06296 3.63087 0
M  V30 2959 N 279.361 -1.56624 0.175154 0
M  V30 2960 C 280.293 -2.15333 -0.785128 0
M  V30 2961 C 281.306 -1.1099 -1.19101 0
M  V30 2962 O 282.495 -1.38162 -1.13019 0
M  V30 2963 C 279.595 -2.68427 -2.06882 0
M  V30 2964 C 278.768 -3.97466 -1.8259 0
M  V30 2965 C 277.827 -4.35585 -2.95215 0
M  V30 2966 O 276.853 -5.03389 -2.65684 0
M  V30 2967 N 278.055 -3.97457 -4.23094 0
M  V30 2968 H 280.82 -2.98359 -0.283187 0
M  V30 2969 H 278.381 -1.61898 -0.00749817 0
M  V30 2970 H 280.373 -2.90924 -2.81328 0
M  V30 2971 H 278.943 -1.89968 -2.48256 0
M  V30 2972 H 278.163 -3.83307 -0.920287 0
M  V30 2973 H 279.451 -4.81736 -1.63733 0
M  V30 2974 H 278.849 -3.42878 -4.49945 0
M  V30 2975 H 277.406 -4.24947 -4.9423 0
M  V30 2976 N 280.839 0.0985539 -1.57292 0
M  V30 2977 C 281.769 1.12064 -2.04851 0
M  V30 2978 C 282.75 1.41981 -0.936767 0
M  V30 2979 O 283.935 1.52071 -1.20781 0
M  V30 2980 C 281.065 2.44144 -2.47004 0
M  V30 2981 C 280.019 2.28643 -3.6181 0
M  V30 2982 C 279.345 3.65869 -3.89929 0
M  V30 2983 C 280.645 1.72986 -4.92822 0
M  V30 2984 H 282.339 0.724979 -2.9049 0
M  V30 2985 H 279.885 0.34729 -1.39749 0
M  V30 2986 H 281.838 3.15914 -2.78884 0
M  V30 2987 H 280.562 2.85639 -1.5836 0
M  V30 2988 H 279.221 1.59318 -3.30172 0
M  V30 2989 H 278.869 4.04885 -2.98458 0
M  V30 2990 H 278.569 3.56344 -4.67218 0
M  V30 2991 H 280.093 4.39112 -4.2428 0
M  V30 2992 H 281.507 2.34593 -5.23105 0
M  V30 2993 H 279.904 1.74229 -5.74251 0
M  V30 2994 H 280.974 0.689007 -4.7998 0
M  V30 2995 N 282.317 1.53212 0.369288 0
M  V30 2996 C 283.565 1.68881 1.11012 0
M  V30 2997 C 283.886 0.441285 1.89941 0
M  V30 2998 O 283.156 -0.544623 1.88177 0
M  V30 2999 H 281.736 0.622569 0.412816 0
M  V30 3000 H 284.398 1.90391 0.416802 0
M  V30 3001 H 283.494 2.54822 1.80201 0
M  V30 3002 N 283.795 -0.628877 1.44509 0
M  V30 3003 C 285.043 -1.38565 1.4712 0
M  V30 3004 C 285.364 -1.94712 0.105899 0
M  V30 3005 O 284.634 -1.75912 -0.862079 0
M  V30 3006 H 283.214 -0.514333 0.541729 0
M  V30 3007 H 285.876 -0.740018 1.80305 0
M  V30 3008 H 284.972 -2.21583 2.19789 0
M  V30 3009 N 285.273 -1.31445 -0.869486 0
M  V30 3010 C 286.684 -1.19042 -1.43826 0
M  V30 3011 C 287.035 0.202919 -1.95148 0
M  V30 3012 O 286.16 1.10071 -1.86315 0
M  V30 3013 C 286.755 -2.15499 -2.6143 0
M  V30 3014 C 285.314 -2.07028 -3.14351 0
M  V30 3015 C 284.461 -2.04701 -1.87063 0
M  V30 3016 H 287.412 -1.43489 -0.677984 0
M  V30 3017 H 287.433 -1.74488 -3.38134 0
M  V30 3018 H 286.945 -3.16899 -2.24046 0
M  V30 3019 H 285.046 -1.08825 -3.56354 0
M  V30 3020 H 285.159 -2.96157 -3.766 0
M  V30 3021 H 283.523 -1.49724 -2.06046 0
M  V30 3022 H 284.306 -3.07857 -1.51917 0
M  V30 3023 N 286.751 1.08385 -1.14413 0
M  V30 3024 C 287.661 2.18856 -0.844951 0
M  V30 3025 C 288.677 1.73121 0.174668 0
M  V30 3026 O 289.853 2.014 0.00312857 0
M  V30 3027 C 286.918 3.45155 -0.32696 0
M  V30 3028 C 285.979 4.05513 -1.40916 0
M  V30 3029 C 285.212 5.25784 -0.915793 0
M  V30 3030 O 285.435 5.69884 0.242651 0
M  V30 3031 O 284.369 5.77545 -1.69487 0
M  V30 3032 H 288.195 2.46919 -1.76818 0
M  V30 3033 H 285.78 1.17524 -0.922411 0
M  V30 3034 H 287.662 4.21377 -0.0440211 0
M  V30 3035 H 286.337 3.18668 0.568539 0
M  V30 3036 H 285.244 3.30879 -1.74556 0
M  V30 3037 H 286.577 4.3625 -2.27919 0
M  V30 3038 N 288.23 0.939286 1.26551 0
M  V30 3039 C 289.193 0.451987 2.24699 0
M  V30 3040 C 290.193 -0.435869 1.5478 0
M  V30 3041 O 291.383 -0.235314 1.72603 0
M  V30 3042 C 288.515 -0.348801 3.39111 0
M  V30 3043 H 289.708 1.3193 2.69322 0
M  V30 3044 H 287.261 0.721072 1.38673 0
M  V30 3045 H 287.996 -1.23444 2.99887 0
M  V30 3046 H 287.781 0.287945 3.91041 0
M  V30 3047 H 289.271 -0.679726 4.12031 0
M  V30 3048 N 289.708 -1.40897 0.706093 0
M  V30 3049 C 290.671 -2.29131 0.0562841 0
M  V30 3050 C 291.671 -1.44901 -0.697166 0
M  V30 3051 O 292.861 -1.65926 -0.530484 0
M  V30 3052 C 289.993 -3.27957 -0.93043 0
M  V30 3053 H 291.186 -2.88091 0.833284 0
M  V30 3054 H 288.739 -1.4906 0.470192 0
M  V30 3055 H 289.474 -2.73997 -1.73482 0
M  V30 3056 H 289.259 -3.90124 -0.393166 0
M  V30 3057 H 290.749 -3.94049 -1.38256 0
M  V30 3058 N 291.186 -0.45159 -1.50991 0
M  V30 3059 C 292.133 0.352625 -2.2809 0
M  V30 3060 C 293.103 1.0044 -1.32291 0
M  V30 3061 O 294.288 1.02058 -1.6121 0
M  V30 3062 C 291.428 1.43983 -3.13629 0
M  V30 3063 C 290.541 0.804772 -4.24438 0
M  V30 3064 C 289.676 1.86822 -4.97263 0
M  V30 3065 C 288.715 1.21236 -5.99973 0
M  V30 3066 N 287.852 2.2178 -6.66152 0
M  V30 3067 H 292.692 -0.311186 -2.96371 0
M  V30 3068 H 290.229 -0.165308 -1.46168 0
M  V30 3069 H 292.187 2.08161 -3.61559 0
M  V30 3070 H 290.817 2.07307 -2.47434 0
M  V30 3071 H 289.869 0.0509129 -3.80366 0
M  V30 3072 H 291.181 0.286076 -4.97979 0
M  V30 3073 H 290.335 2.58628 -5.48813 0
M  V30 3074 H 289.074 2.42068 -4.23385 0
M  V30 3075 H 288.079 0.479828 -5.47702 0
M  V30 3076 H 289.304 0.667051 -6.75816 0
M  V30 3077 H 287.25 2.76079 -5.95077 0
M  V30 3078 H 287.167 1.74841 -7.35504 0
M  V30 3079 H 288.435 2.93026 -7.22327 0
M  V30 3080 N 292.664 1.56529 -0.183458 0
M  V30 3081 C 293.889 2.02064 0.467428 0
M  V30 3082 C 294.314 1.06282 1.55196 0
M  V30 3083 O 293.672 0.0443565 1.81246 0
M  V30 3084 C 293.72 3.46122 1.01153 0
M  V30 3085 O 292.824 3.53437 2.12499 0
M  V30 3086 H 292.165 0.654726 0.110588 0
M  V30 3087 H 294.695 2.02521 -0.290917 0
M  V30 3088 H 294.705 3.85676 1.33108 0
M  V30 3089 H 293.38 4.15331 0.217533 0
M  V30 3090 H 291.957 3.2575 1.81497 0
M  V30 3091 N 294.142 -0.090211 1.57342 0
M  V30 3092 C 295.419 -0.824761 1.77361 0
M  V30 3093 C 295.799 -1.96698 0.76637 0
M  V30 3094 O 295.147 -2.27586 -0.204179 0
M  V30 3095 C 295.357 -1.31481 3.23286 0
M  V30 3096 C 296.705 -1.75563 3.86604 0
M  V30 3097 O 297.729 -1.41093 3.27065 0
M  V30 3098 O 296.588 -2.39317 4.91314 0
M  V30 3099 H 293.682 -0.393776 0.727234 0
M  V30 3100 H 296.228 -0.0717138 1.69548 0
M  V30 3101 H 295 -0.496671 3.88135 0
M  V30 3102 H 294.623 -2.12973 3.35751 0
M  V30 3103 N 295.62 -1.53406 -0.361157 0
M  V30 3104 C 296.53 -1.83122 -1.4664 0
M  V30 3105 C 297.546 -0.719943 -1.58407 0
M  V30 3106 O 298.722 -1.01046 -1.74218 0
M  V30 3107 C 295.787 -2.01891 -2.81853 0
M  V30 3108 C 294.848 -3.25784 -2.79577 0
M  V30 3109 C 294.081 -3.43648 -4.0834 0
M  V30 3110 O 294.304 -2.65714 -5.0473 0
M  V30 3111 O 293.238 -4.37018 -4.13883 0
M  V30 3112 H 297.064 -2.7703 -1.24451 0
M  V30 3113 H 294.649 -1.38841 -0.551678 0
M  V30 3114 H 296.531 -2.15782 -3.61962 0
M  V30 3115 H 295.206 -1.11173 -3.0401 0
M  V30 3116 H 294.113 -3.17312 -1.98151 0
M  V30 3117 H 295.446 -4.16439 -2.62373 0
M  V30 3118 N 297.098 0.621204 -1.44841 0
M  V30 3119 C 298.326 1.40752 -1.51646 0
M  V30 3120 C 298.741 1.88246 -0.144549 0
M  V30 3121 O 298.098 1.61422 0.851416 0
M  V30 3122 C 298.149 2.62119 -2.4895 0
M  V30 3123 O 297.87 2.16602 -3.80808 0
M  V30 3124 C 299.371 3.55135 -2.65319 0
M  V30 3125 H 296.591 0.431325 -0.514004 0
M  V30 3126 H 299.135 0.758835 -1.899 0
M  V30 3127 H 297.29 3.23058 -2.13805 0
M  V30 3128 H 297.704 2.95358 -4.33433 0
M  V30 3129 H 299.178 4.36874 -3.37409 0
M  V30 3130 H 299.655 4.04592 -1.70886 0
M  V30 3131 H 300.261 3.00058 -3.01405 0
M  V30 3132 N 298.576 1.31904 0.862503 0
M  V30 3133 C 299.539 1.20131 1.95195 0
M  V30 3134 C 300.539 0.126409 1.60302 0
M  V30 3135 O 301.729 0.376234 1.70089 0
M  V30 3136 C 298.861 0.845691 3.30244 0
M  V30 3137 H 300.054 2.16943 2.07064 0
M  V30 3138 H 297.607 1.15622 1.05172 0
M  V30 3139 H 298.342 -0.120957 3.24074 0
M  V30 3140 H 298.127 1.62276 3.56944 0
M  V30 3141 H 299.617 0.787418 4.10109 0
M  V30 3142 N 300.054 -1.07777 1.14986 0
M  V30 3143 C 301.017 -2.13041 0.845358 0
M  V30 3144 C 302.017 -1.60071 -0.152931 0
M  V30 3145 O 303.207 -1.74033 0.0761879 0
M  V30 3146 C 300.339 -3.39896 0.261383 0
M  V30 3147 H 301.532 -2.41485 1.77834 0
M  V30 3148 H 299.085 -1.23595 0.956757 0
M  V30 3149 H 299.82 -3.17091 -0.68 0
M  V30 3150 H 299.605 -3.79642 0.980514 0
M  V30 3151 H 301.095 -4.17548 0.0657687 0
M  V30 3152 N 301.532 -0.945985 -1.26051 0
M  V30 3153 C 302.479 -0.45809 -2.26208 0
M  V30 3154 C 303.449 0.484816 -1.58867 0
M  V30 3155 O 304.634 0.399969 -1.86561 0
M  V30 3156 C 301.774 0.266131 -3.44072 0
M  V30 3157 C 300.887 -0.713005 -4.26075 0
M  V30 3158 C 300.022 0.0329013 -5.3119 0
M  V30 3159 C 299.061 -0.93774 -6.04874 0
M  V30 3160 N 298.198 -0.223274 -7.01745 0
M  V30 3161 H 303.038 -1.3171 -2.67313 0
M  V30 3162 H 300.575 -0.66069 -1.31428 0
M  V30 3163 H 302.533 0.702514 -4.11243 0
M  V30 3164 H 301.163 1.08925 -3.03867 0
M  V30 3165 H 300.215 -1.26789 -3.58648 0
M  V30 3166 H 301.527 -1.45406 -4.77136 0
M  V30 3167 H 300.681 0.528335 -6.04395 0
M  V30 3168 H 299.42 0.806801 -4.8098 0
M  V30 3169 H 298.425 -1.44425 -5.30492 0
M  V30 3170 H 299.65 -1.71172 -6.57173 0
M  V30 3171 H 297.596 0.532046 -6.53839 0
M  V30 3172 H 297.513 -0.90357 -7.50581 0
M  V30 3173 H 298.781 0.250907 -7.79096 0
M  V30 3174 O 303.049 1.37208 -0.85184 0
M  V30 3175 H 303.74 1.88528 -0.444614 0
M  V30 END ATOM
M  V30 BEGIN BOND
M  V30 END BOND
M  V30 END CTAB
M  END
$$$$
