drugbank_target|P04746 Pancreatic alpha-amylase (DB00284; DB01922; DB02218; DB02379; DB02889; DB03088; DB03092; DB03439; DB03495; DB03773; DB03971; DB04453; DB04618)
 OpenBabel12092120233D

  0  0  0     0  0            999 V3000
M  V30 BEGIN CTAB
M  V30 COUNTS 7940 8060 0 0 0
M  V30 BEGIN ATOM
M  V30 1 H -0.908 1.98254 -0.117106 0
M  V30 2 N 0 1.576 0 0
M  V30 3 C 0.933 2.03868 1.02534 0
M  V30 4 C 1.911 0.928543 1.3348 0
M  V30 5 O 3.095 1.19667 1.45644 0
M  V30 6 C 0.222 2.43627 2.35294 0
M  V30 7 C -0.732 3.65373 2.2001 0
M  V30 8 S 0.101 5.13292 1.52614 0
M  V30 9 C 1.257 5.56322 2.86805 0
M  V30 10 H 1.49 2.90518 0.631377 0
M  V30 11 H -0.977 1.52953 0.210867 0
M  V30 12 H 0.981 2.67203 3.11629 0
M  V30 13 H -0.358 1.57376 2.7183 0
M  V30 14 H -1.165 3.90944 3.18086 0
M  V30 15 H -1.563 3.418 1.51819 0
M  V30 16 H 0.729 5.58782 3.83104 0
M  V30 17 H 1.672 6.56266 2.65933 0
M  V30 18 H 2.08 4.83886 2.90714 0
M  V30 19 N 1.4781 -0.272755 1.55222 0
M  V30 20 C 2.4251 -1.33716 1.88119 0
M  V30 21 C 3.3951 -1.49066 0.73271 0
M  V30 22 O 4.5801 -1.63469 0.984002 0
M  V30 23 C 1.7201 -2.69238 2.15882 0
M  V30 24 C 0.8331 -2.62108 3.43399 0
M  V30 25 C -0.0319 -3.89811 3.60861 0
M  V30 26 C -0.9929 -3.77193 4.8207 0
M  V30 27 N -1.8559 -4.9673 4.96189 0
M  V30 28 H 2.9841 -1.04962 2.78903 0
M  V30 29 H 0.5211 -0.507088 1.38083 0
M  V30 30 H 2.4791 -3.48089 2.29978 0
M  V30 31 H 1.1091 -2.96194 1.28331 0
M  V30 32 H 0.1611 -1.74967 3.37773 0
M  V30 33 H 1.4731 -2.48685 4.32386 0
M  V30 34 H 0.6271 -4.77103 3.74777 0
M  V30 35 H -0.6339 -4.06102 2.7006 0
M  V30 36 H -1.6289 -2.88284 4.68159 0
M  V30 37 H -0.4039 -3.62421 5.74307 0
M  V30 38 H -2.4579 -5.13431 4.08319 0
M  V30 39 H -2.5409 -4.85839 5.79221 0
M  V30 40 H -1.2729 -5.85594 5.1449 0
M  V30 41 N 2.9562 -1.48159 -0.537278 0
M  V30 42 C 4.2032 -1.55804 -1.29349 0
M  V30 43 C 4.5312 -0.228802 -1.9315 0
M  V30 44 O 3.7862 0.780242 -1.79473 0
M  V30 45 C 4.0852 -2.63956 -2.40961 0
M  V30 46 C 3.7512 -4.0662 -1.94861 0
M  V30 47 C 2.4132 -4.45452 -1.82006 0
M  V30 48 C 4.7652 -4.96055 -1.59933 0
M  V30 49 C 2.0932 -5.71531 -1.32547 0
M  V30 50 C 4.4452 -6.22617 -1.11939 0
M  V30 51 C 3.1092 -6.60312 -0.976951 0
M  V30 52 H 2.3792 -0.570129 -0.473322 0
M  V30 53 H 5.0262 -1.81845 -0.600372 0
M  V30 54 H 3.3312 -2.31747 -3.15912 0
M  V30 55 H 5.0282 -2.67089 -2.99107 0
M  V30 56 H 1.6182 -3.75949 -2.05815 0
M  V30 57 H 5.8022 -4.66738 -1.68728 0
M  V30 58 H 1.0582 -5.99468 -1.202 0
M  V30 59 H 5.2322 -6.91318 -0.839811 0
M  V30 60 H 2.8592 -7.57895 -0.591501 0
M  V30 61 N 4.4343 0.785586 -1.36625 0
M  V30 62 C 5.6813 1.54362 -1.31067 0
M  V30 63 C 6.0093 1.94195 0.10893 0
M  V30 64 O 5.2643 1.63262 1.07908 0
M  V30 65 C 5.5633 2.83007 -2.1827 0
M  V30 66 C 5.2293 2.62294 -3.6676 0
M  V30 67 C 3.8913 2.56353 -4.0723 0
M  V30 68 C 6.2433 2.43371 -4.6089 0
M  V30 69 C 3.5713 2.29461 -5.39967 0
M  V30 70 C 5.9233 2.18005 -5.93849 0
M  V30 71 C 4.5873 2.105 -6.3344 0
M  V30 72 H 3.8573 0.564851 -0.479609 0
M  V30 73 H 6.5043 0.906028 -1.68711 0
M  V30 74 H 4.8093 3.51253 -1.73576 0
M  V30 75 H 6.5063 3.40817 -2.11292 0
M  V30 76 H 3.0963 2.67774 -3.34656 0
M  V30 77 H 7.2803 2.46959 -4.30494 0
M  V30 78 H 2.5363 2.22135 -5.69619 0
M  V30 79 H 6.7103 2.02359 -6.66351 0
M  V30 80 H 4.3373 1.89425 -7.36222 0
M  V30 81 N 5.9124 1.20967 1.01018 0
M  V30 82 C 6.8424 0.988272 2.11555 0
M  V30 83 C 7.8234 -0.0849778 1.69888 0
M  V30 84 O 9.0084 0.0738202 1.9406 0
M  V30 85 C 6.1384 0.546528 3.42973 0
M  V30 86 C 5.0924 1.56375 3.9841 0
M  V30 87 C 4.4184 0.97842 5.25672 0
M  V30 88 C 5.7184 2.94922 4.31066 0
M  V30 89 H 7.4124 1.91276 2.30334 0
M  V30 90 H 4.9584 0.921073 1.1069 0
M  V30 91 H 6.9114 0.378839 4.19694 0
M  V30 92 H 5.6354 -0.413598 3.23971 0
M  V30 93 H 4.2944 1.71891 3.23804 0
M  V30 94 H 3.9424 0.0101688 5.02999 0
M  V30 95 H 3.6424 1.65784 5.63728 0
M  V30 96 H 5.1664 0.821939 6.05043 0
M  V30 97 H 6.5804 2.8288 4.9865 0
M  V30 98 H 4.9774 3.5983 4.80253 0
M  V30 99 H 6.0474 3.4616 3.39561 0
M  V30 100 N 7.3905 -1.2043 1.01659 0
M  V30 101 C 8.3205 -2.25466 0.607226 0
M  V30 102 C 9.3015 -1.65853 -0.377716 0
M  V30 103 O 10.4865 -1.92409 -0.263149 0
M  V30 104 C 7.6165 -3.47256 -0.0552949 0
M  V30 105 C 6.5705 -4.19462 0.850632 0
M  V30 106 C 5.8965 -5.34673 0.0538859 0
M  V30 107 C 7.1965 -4.75603 2.15868 0
M  V30 108 H 8.8905 -2.59962 1.48526 0
M  V30 109 H 6.4365 -1.2496 0.715605 0
M  V30 110 H 8.3895 -4.19917 -0.353233 0
M  V30 111 H 7.1135 -3.11924 -0.968045 0
M  V30 112 H 5.7725 -3.48667 1.13257 0
M  V30 113 H 5.4205 -4.95585 -0.860514 0
M  V30 114 H 5.1205 -5.83913 0.657192 0
M  V30 115 H 6.6445 -6.10138 -0.237598 0
M  V30 116 H 8.0585 -5.40083 1.92311 0
M  V30 117 H 6.4555 -5.3528 2.71284 0
M  V30 118 H 7.5255 -3.94346 2.82169 0
M  V30 119 N 8.8686 -0.792821 -1.36206 0
M  V30 120 C 9.7986 -0.207853 -2.32573 0
M  V30 121 C 10.7796 0.659055 -1.56813 0
M  V30 122 O 11.9646 0.592176 -1.84951 0
M  V30 123 C 9.0946 0.655449 -3.41059 0
M  V30 124 C 8.0486 -0.111842 -4.27854 0
M  V30 125 C 7.3746 0.872274 -5.27537 0
M  V30 126 C 8.6746 -1.30299 -5.05786 0
M  V30 127 H 10.3686 -1.01294 -2.81744 0
M  V30 128 H 7.9146 -0.48854 -1.3546 0
M  V30 129 H 9.8676 1.07464 -4.07467 0
M  V30 130 H 8.5916 1.49328 -2.90463 0
M  V30 131 H 7.2506 -0.512053 -3.63006 0
M  V30 132 H 6.8986 1.70523 -4.73214 0
M  V30 133 H 6.5986 0.363291 -5.86476 0
M  V30 134 H 8.1226 1.28996 -5.96818 0
M  V30 135 H 9.5366 -0.959379 -5.65216 0
M  V30 136 H 7.9336 -1.7455 -5.74154 0
M  V30 137 H 9.0036 -2.09663 -4.37229 0
M  V30 138 N 10.3467 1.47872 -0.545128 0
M  V30 139 C 11.5937 2.02493 -0.0165858 0
M  V30 140 C 11.9217 1.42073 1.32836 0
M  V30 141 O 11.1767 0.561459 1.87473 0
M  V30 142 C 11.4757 3.57131 0.13867 0
M  V30 143 C 11.1417 4.36411 -1.13384 0
M  V30 144 C 9.8037 4.57792 -1.48256 0
M  V30 145 C 12.1557 4.82223 -1.97764 0
M  V30 146 C 9.4837 5.22233 -2.67376 0
M  V30 147 C 11.8357 5.47977 -3.16076 0
M  V30 148 C 10.4997 5.67593 -3.51275 0
M  V30 149 H 9.7697 0.740975 -0.00606918 0
M  V30 150 H 12.4167 1.77683 -0.714207 0
M  V30 151 H 10.7217 3.80865 0.919172 0
M  V30 152 H 12.4187 3.97031 0.562782 0
M  V30 153 H 9.0087 4.2004 -0.852297 0
M  V30 154 H 13.1927 4.65493 -1.72132 0
M  V30 155 H 8.4487 5.35616 -2.94831 0
M  V30 156 H 12.6227 5.8244 -3.81755 0
M  V30 157 H 10.2497 6.17298 -4.43675 0
M  V30 158 N 11.8248 0.280983 1.55075 0
M  V30 159 C 13.0528 -0.337293 2.04132 0
M  V30 160 C 13.4678 -1.4903 1.15912 0
M  V30 161 O 12.8248 -1.81606 0.180459 0
M  V30 162 C 12.8758 -0.812706 3.52246 0
M  V30 163 O 12.5968 0.294387 4.3711 0
M  V30 164 C 14.0978 -1.4982 4.17216 0
M  V30 165 H 11.3178 -0.0761638 0.666663 0
M  V30 166 H 13.8618 0.414787 2.00249 0
M  V30 167 H 12.0168 -1.51486 3.56554 0
M  V30 168 H 12.4308 -0.0721325 5.2445 0
M  V30 169 H 13.9048 -1.7822 5.22438 0
M  V30 170 H 14.3818 -2.43168 3.65741 0
M  V30 171 H 14.9878 -0.839742 4.16927 0
M  V30 172 N 13.3029 -1.57598 0.00835791 0
M  V30 173 C 14.5519 -1.90107 -0.673968 0
M  V30 174 C 14.8649 -0.884275 -1.7447 0
M  V30 175 O 16.0709 -1.09987 -2.48224 0
M  V30 176 C 14.5269 -3.37497 -1.24995 0
M  V30 177 C 14.1349 -4.47491 -0.2136 0
M  V30 178 C 15.8789 -3.79104 -1.90999 0
M  V30 179 C 13.7859 -5.85963 -0.80005 0
M  V30 180 H 12.7159 -0.709393 -0.255495 0
M  V30 181 H 15.3669 -1.83365 0.0702693 0
M  V30 182 H 13.7489 -3.39102 -2.04513 0
M  V30 183 H 14.9229 -4.57414 0.557596 0
M  V30 184 H 13.2379 -4.14956 0.346474 0
M  V30 185 H 15.8349 -4.79901 -2.35795 0
M  V30 186 H 16.1779 -3.1306 -2.74407 0
M  V30 187 H 16.7109 -3.79833 -1.18203 0
M  V30 188 H 13.4499 -6.555 -0.00456708 0
M  V30 189 H 12.9699 -5.79687 -1.54021 0
M  V30 190 H 14.6489 -6.33884 -1.29615 0
M  V30 191 N 14.781 0.264519 -1.55364 0
M  V30 192 C 16.029 0.993021 -1.76021 0
M  V30 193 C 16.35 1.86511 -0.569099 0
M  V30 194 O 15.62 1.91438 0.415735 0
M  V30 195 H 14.2 0.369639 -0.649135 0
M  V30 196 H 16.862 0.286707 -1.9278 0
M  V30 197 H 15.958 1.62502 -2.66457 0
M  V30 198 N 16.2591 1.48442 0.529413 0
M  V30 199 C 17.5061 1.56488 1.28521 0
M  V30 200 C 17.8341 0.239042 1.93025 0
M  V30 201 O 17.0891 -0.770713 1.79885 0
M  V30 202 C 17.3881 2.6523 2.39558 0
M  V30 203 C 17.0541 4.07648 1.92702 0
M  V30 204 C 15.7161 4.46411 1.79641 0
M  V30 205 C 18.0681 4.96896 1.573 0
M  V30 206 C 15.3961 5.72226 1.29514 0
M  V30 207 C 17.7481 6.23202 1.08636 0
M  V30 208 C 16.4121 6.60821 0.941919 0
M  V30 209 H 15.6821 0.572631 0.470292 0
M  V30 210 H 18.3291 1.82161 0.59072 0
M  V30 211 H 16.6341 2.33419 3.14679 0
M  V30 212 H 18.3311 2.68671 2.97686 0
M  V30 213 H 14.9211 3.77036 2.03819 0
M  V30 214 H 19.1051 4.67626 1.66251 0
M  V30 215 H 14.3611 6.00097 1.17019 0
M  V30 216 H 18.5351 6.91753 0.803136 0
M  V30 217 H 16.1621 7.58198 0.5513 0
M  V30 218 N 17.7372 -0.778329 1.37039 0
M  V30 219 C 18.9772 -1.54973 1.33276 0
M  V30 220 C 19.3412 -1.91816 -0.0839376 0
M  V30 221 O 20.5422 -2.6767 -0.246228 0
M  V30 222 C 18.8132 -2.78517 2.23971 0
M  V30 223 S 20.3722 -3.6865 2.37997 0
M  V30 224 H 17.1902 -0.530639 0.473226 0
M  V30 225 H 19.7922 -0.915806 1.72723 0
M  V30 226 H 18.4962 -2.4952 3.25835 0
M  V30 227 H 18.0272 -3.46875 1.85584 0
M  V30 228 H 20.0422 -4.70182 1.58567 0
M  V30 229 N 19.2153 -1.21501 -1.00376 0
M  V30 230 C 20.4613 -1.04457 -1.74529 0
M  V30 231 C 20.8163 0.417386 -1.87818 0
M  V30 232 O 20.1093 1.30556 -1.40234 0
M  V30 233 C 20.3033 -1.67673 -3.15627 0
M  V30 234 C 20.1323 -3.19865 -3.16096 0
M  V30 235 C 18.9023 -3.88915 -3.22604 0
M  V30 236 C 21.1003 -4.16936 -3.01112 0
M  V30 237 N 19.0823 -5.28284 -3.12712 0
M  V30 238 C 20.4533 -5.43066 -2.99131 0
M  V30 239 C 22.5083 -4.07968 -2.85423 0
M  V30 240 C 21.2113 -6.6126 -2.83068 0
M  V30 241 C 23.2373 -5.258 -2.70718 0
M  V30 242 C 22.5993 -6.50842 -2.69414 0
M  V30 243 H 18.6983 -0.436584 -0.648782 0
M  V30 244 H 21.2823 -1.53875 -1.19293 0
M  V30 245 H 19.4533 -1.20822 -3.6913 0
M  V30 246 H 21.1853 -1.43824 -3.78281 0
M  V30 247 H 17.9403 -3.39847 -3.2985 0
M  V30 248 H 18.3643 -6.01284 -3.11105 0
M  V30 249 H 23.0063 -3.1209 -2.85236 0
M  V30 250 H 20.7243 -7.57298 -2.82002 0
M  V30 251 H 24.3103 -5.20683 -2.59577 0
M  V30 252 H 23.1903 -7.40485 -2.5817 0
M  V30 253 N 20.6934 1.19889 -1.02296 0
M  V30 254 C 21.6564 2.21116 -0.603351 0
M  V30 255 C 22.6564 1.5738 0.329884 0
M  V30 256 O 23.8464 1.73802 0.117702 0
M  V30 257 C 20.9784 3.40696 0.117992 0
M  V30 258 H 22.1714 2.59754 -1.49893 0
M  V30 259 H 19.7244 1.33463 -0.813468 0
M  V30 260 H 20.4594 3.07569 1.0282 0
M  V30 261 H 20.2444 3.88188 -0.552511 0
M  V30 262 H 21.7344 4.15692 0.398696 0
M  V30 263 N 22.1715 0.800033 1.35784 0
M  V30 264 C 23.1035 0.163596 2.28615 0
M  V30 265 C 24.1165 -0.633317 1.49976 0
M  V30 266 O 25.3055 -0.466754 1.72289 0
M  V30 267 C 22.4055 -0.790958 3.29541 0
M  V30 268 C 21.5785 -0.0418255 4.3738 0
M  V30 269 C 20.6375 -0.91389 5.18203 0
M  V30 270 O 19.6635 -0.367234 5.68014 0
M  V30 271 N 20.8655 -2.23682 5.35674 0
M  V30 272 H 23.6305 0.96105 2.83873 0
M  V30 273 H 21.1915 0.654894 1.48063 0
M  V30 274 H 23.1835 -1.37844 3.80501 0
M  V30 275 H 21.7535 -1.48925 2.74846 0
M  V30 276 H 20.9735 0.726813 3.87442 0
M  V30 277 H 22.2615 0.474719 5.06581 0
M  V30 278 H 21.6595 -2.70497 4.96838 0
M  V30 279 H 20.2165 -2.77369 5.89839 0
M  V30 280 N 23.6496 -1.47581 0.552962 0
M  V30 281 C 24.8796 -2.06575 0.0320091 0
M  V30 282 C 25.2876 -1.4067 -1.26525 0
M  V30 283 O 24.6306 -0.495808 -1.76883 0
M  V30 284 C 24.6926 -3.58705 -0.238913 0
M  V30 285 C 24.3566 -4.46625 0.968272 0
M  V30 286 C 25.3536 -4.85 1.87274 0
M  V30 287 C 23.0386 -4.88201 1.18175 0
M  V30 288 C 25.0326 -5.63745 2.9744 0
M  V30 289 C 22.7196 -5.66712 2.28651 0
M  V30 290 C 23.7176 -6.04394 3.18114 0
M  V30 291 O 23.4056 -6.81324 4.26676 0
M  V30 292 H 23.1376 -0.674763 0.0408689 0
M  V30 293 H 25.6916 -1.90634 0.764719 0
M  V30 294 H 23.9216 -3.72844 -1.02588 0
M  V30 295 H 25.6106 -3.99735 -0.704731 0
M  V30 296 H 26.3766 -4.53482 1.71984 0
M  V30 297 H 22.2556 -4.58339 0.494593 0
M  V30 298 H 25.7996 -5.93077 3.67296 0
M  V30 299 H 21.6966 -5.97642 2.43915 0
M  V30 300 H 22.4646 -6.99712 4.24671 0
M  V30 301 N 25.1277 -0.289203 -1.54924 0
M  V30 302 C 26.3527 0.329299 -2.04769 0
M  V30 303 C 26.7777 1.4763 -1.16564 0
M  V30 304 O 26.1357 1.80527 -0.167186 0
M  V30 305 C 26.1837 0.774438 -3.52186 0
M  V30 306 O 25.2877 1.88038 -3.67036 0
M  V30 307 H 24.6287 0.0659259 -0.660719 0
M  V30 308 H 27.1587 -0.42761 -2.00082 0
M  V30 309 H 27.1687 1.06642 -3.93816 0
M  V30 310 H 25.8437 -0.0646707 -4.1585 0
M  V30 311 H 24.4207 1.58985 -3.3731 0
M  V30 312 N 26.6058 1.57591 -0.0167156 0
M  V30 313 C 28.0168 1.79201 0.523834 0
M  V30 314 C 28.3678 0.925796 1.72984 0
M  V30 315 O 27.4928 0.132792 2.15992 0
M  V30 316 C 28.0878 3.25 0.957091 0
M  V30 317 C 26.6468 3.47648 1.44283 0
M  V30 318 C 25.7938 2.74374 0.401757 0
M  V30 319 H 28.7448 1.56831 -0.242816 0
M  V30 320 H 28.7658 3.34031 1.82219 0
M  V30 321 H 28.2778 3.88019 0.0791415 0
M  V30 322 H 26.3788 2.89866 2.34113 0
M  V30 323 H 26.4918 4.56352 1.45877 0
M  V30 324 H 24.8558 2.39485 0.867121 0
M  V30 325 H 25.6388 3.40102 -0.467513 0
M  V30 326 N 28.0839 -0.256276 1.55502 0
M  V30 327 C 29.0319 -1.33694 1.90338 0
M  V30 328 C 30.0259 -1.50299 0.781441 0
M  V30 329 O 31.2319 -1.51885 0.965966 0
M  V30 330 H 27.6069 -0.447483 0.60437 0
M  V30 331 H 29.5779 -1.01574 2.8058 0
M  V30 332 C 28.3269 -2.68724 2.20642 0
M  V30 333 H 27.6499 -2.56743 3.06469 0
M  V30 334 H 29.0899 -3.43237 2.48926 0
M  V30 335 C 27.5489 -3.21101 1.01959 0
M  V30 336 O 28.0789 -4.0084 0.262762 0
M  V30 337 N 26.2849 -2.79003 0.812746 0
M  V30 338 H 25.8319 -2.14271 1.42989 0
M  V30 339 H 25.7899 -3.14393 0.0203076 0
M  V30 340 N 29.562 -1.4872 -0.521534 0
M  V30 341 C 30.79 -1.60843 -1.30142 0
M  V30 342 C 31.205 -0.271897 -1.86832 0
M  V30 343 O 30.562 0.739969 -1.66825 0
M  V30 344 C 30.613 -2.66155 -2.4463 0
M  V30 345 O 30.334 -3.94623 -1.90275 0
M  V30 346 C 31.835 -2.88795 -3.36322 0
M  V30 347 H 29.055 -0.542075 -0.395468 0
M  V30 348 H 31.599 -1.94609 -0.628285 0
M  V30 349 H 29.754 -2.35224 -3.07812 0
M  V30 350 H 30.168 -4.52468 -2.65279 0
M  V30 351 H 31.642 -3.66264 -4.12983 0
M  V30 352 H 32.119 -1.97934 -3.9207 0
M  V30 353 H 32.725 -3.21063 -2.78924 0
M  V30 354 N 31.0401 0.771051 -1.3745 0
M  V30 355 C 31.9721 1.89352 -1.29146 0
M  V30 356 C 32.9851 1.61477 -0.207124 0
M  V30 357 O 34.1741 1.72382 -0.463324 0
M  V30 358 C 31.2741 3.24596 -0.974195 0
M  V30 359 C 30.4471 3.80111 -2.16413 0
M  V30 360 C 29.5061 4.93832 -1.81703 0
M  V30 361 O 28.5321 5.09382 -2.54006 0
M  V30 362 N 29.7341 5.75483 -0.761573 0
M  V30 363 H 32.4991 1.96991 -2.25864 0
M  V30 364 H 30.0601 0.950191 -1.31084 0
M  V30 365 H 32.0521 3.98193 -0.722828 0
M  V30 366 H 30.6221 3.12454 -0.0955527 0
M  V30 367 H 29.8421 2.98284 -2.57721 0
M  V30 368 H 31.1301 4.13932 -2.95867 0
M  V30 369 H 30.5281 5.65469 -0.161609 0
M  V30 370 H 29.0851 6.49302 -0.570064 0
M  V30 371 N 32.5182 1.22032 0.997298 0
M  V30 372 C 33.4502 0.944263 2.08845 0
M  V30 373 C 34.4632 -0.0754663 1.62625 0
M  V30 374 O 35.6522 0.157994 1.77799 0
M  V30 375 C 32.7522 0.397723 3.36558 0
M  V30 376 C 31.9252 1.47362 4.11829 0
M  V30 377 C 30.9842 0.934951 5.17827 0
M  V30 378 O 30.0102 1.62016 5.45655 0
M  V30 379 N 31.2122 -0.245895 5.79979 0
M  V30 380 H 33.9772 1.88363 2.33109 0
M  V30 381 H 31.5382 1.12661 1.16272 0
M  V30 382 H 33.5302 0.0227771 4.04694 0
M  V30 383 H 32.1002 -0.446646 3.09393 0
M  V30 384 H 31.3202 2.02208 3.38386 0
M  V30 385 H 32.6082 2.19764 4.58891 0
M  V30 386 H 32.0062 -0.819475 5.59733 0
M  V30 387 H 30.5632 -0.562272 6.4937 0
M  V30 388 N 33.9963 -1.19345 1.0293 0
M  V30 389 C 35.2443 -1.88665 0.724574 0
M  V30 390 C 35.5653 -1.80036 -0.749144 0
M  V30 391 O 34.8353 -1.2111 -1.53978 0
M  V30 392 H 33.4153 -0.698406 0.265025 0
M  V30 393 H 36.0773 -1.44885 1.30362 0
M  V30 394 H 35.1733 -2.94987 1.01926 0
M  V30 395 N 35.4744 -0.807222 -1.35358 0
M  V30 396 C 36.8904 -0.491038 -1.51858 0
M  V30 397 C 37.0904 0.987648 -1.75635 0
M  V30 398 O 36.1464 1.77265 -1.79815 0
M  V30 399 C 37.4594 -1.33695 -2.69344 0
M  V30 400 C 39.0074 -1.33246 -2.83222 0
M  V30 401 C 39.4824 -2.1625 -4.03733 0
M  V30 402 N 40.9734 -2.1379 -4.10911 0
M  V30 403 C 41.7084 -2.74772 -5.03277 0
M  V30 404 N 41.2044 -3.44684 -6.0097 0
M  V30 405 N 42.9974 -2.6441 -4.96028 0
M  V30 406 H 35.1484 -1.76485 -1.18181 0
M  V30 407 H 37.4114 -0.751199 -0.578276 0
M  V30 408 H 37.1174 -2.38634 -2.58354 0
M  V30 409 H 36.9914 -0.990618 -3.6396 0
M  V30 410 H 39.3784 -0.290911 -2.93663 0
M  V30 411 H 39.4594 -1.71866 -1.89461 0
M  V30 412 H 39.1034 -3.20445 -3.94052 0
M  V30 413 H 39.0334 -1.74989 -4.96675 0
M  V30 414 H 41.5244 -1.62923 -3.40976 0
M  V30 415 H 41.8374 -3.88501 -6.68047 0
M  V30 416 H 40.1824 -3.48788 -6.01142 0
M  V30 417 H 43.3734 -2.0938 -4.18662 0
M  V30 418 H 43.5464 -3.12225 -5.6782 0
M  V30 419 N 36.9525 1.47285 -0.560781 0
M  V30 420 C 38.1805 2.06855 -0.0430262 0
M  V30 421 C 38.5955 1.41291 1.25229 0
M  V30 422 O 37.9525 0.510648 1.7521 0
M  V30 423 C 38.0035 3.61178 0.152518 0
M  V30 424 O 37.7245 4.24285 -1.0915 0
M  V30 425 C 39.2255 4.37624 0.707145 0
M  V30 426 H 36.4455 0.669319 -0.0474652 0
M  V30 427 H 38.9895 1.89237 -0.77521 0
M  V30 428 H 37.1445 3.78298 0.834843 0
M  V30 429 H 37.5585 5.16868 -0.891482 0
M  V30 430 H 39.0325 5.46271 0.793244 0
M  V30 431 H 39.5095 4.04152 1.71923 0
M  V30 432 H 40.1155 4.25257 0.0604027 0
M  V30 433 N 38.4306 0.297415 1.54768 0
M  V30 434 C 39.6556 -0.318435 2.04941 0
M  V30 435 C 40.0806 -1.4701 1.17345 0
M  V30 436 O 39.4386 -1.80436 0.176758 0
M  V30 437 C 39.4866 -0.755749 3.52592 0
M  V30 438 O 38.5906 -1.86088 3.68028 0
M  V30 439 H 37.9316 -0.062421 0.661059 0
M  V30 440 H 40.4616 0.438215 1.99852 0
M  V30 441 H 40.4716 -1.04552 3.94376 0
M  V30 442 H 39.1466 0.0867233 4.1581 0
M  V30 443 H 37.7236 -1.57193 3.38149 0
M  V30 444 N 39.9087 -1.5758 0.0250728 0
M  V30 445 C 41.1577 -1.90811 -0.653767 0
M  V30 446 C 41.4707 -0.90273 -1.73523 0
M  V30 447 O 42.6767 -1.12614 -2.47043 0
M  V30 448 C 41.1327 -3.38804 -1.21409 0
M  V30 449 C 40.7407 -4.47692 -0.166126 0
M  V30 450 C 42.4847 -3.81108 -1.86967 0
M  V30 451 C 40.3917 -5.86779 -0.737856 0
M  V30 452 H 39.3217 -0.712063 -0.247956 0
M  V30 453 H 41.9727 -1.83281 0.0897137 0
M  V30 454 H 40.3547 -3.41252 -2.00905 0
M  V30 455 H 41.5287 -4.56797 0.606079 0
M  V30 456 H 39.8437 -4.14565 0.390466 0
M  V30 457 H 42.4407 -4.82375 -2.30692 0
M  V30 458 H 42.7837 -3.15953 -2.71071 0
M  V30 459 H 43.3167 -3.81065 -1.14167 0
M  V30 460 H 40.0557 -6.55468 0.0649577 0
M  V30 461 H 39.5757 -5.81288 -1.47864 0
M  V30 462 H 41.2547 -6.35223 -1.22884 0
M  V30 463 N 41.3868 0.248026 -1.55636 0
M  V30 464 C 42.6328 0.97767 -1.77678 0
M  V30 465 C 42.9658 1.85016 -0.590135 0
M  V30 466 O 42.2408 1.90095 0.411611 0
M  V30 467 C 42.5238 1.83914 -3.09593 0
M  V30 468 C 42.3768 0.99491 -4.38659 0
M  V30 469 C 43.6958 2.82183 -3.37729 0
M  V30 470 H 40.8148 0.354005 -0.646413 0
M  V30 471 H 43.4568 0.248253 -1.88371 0
M  V30 472 H 41.6068 2.46104 -3.00608 0
M  V30 473 H 43.2788 0.391789 -4.59633 0
M  V30 474 H 41.5218 0.299231 -4.32767 0
M  V30 475 H 42.1928 1.63145 -5.2734 0
M  V30 476 H 44.6688 2.30129 -3.4667 0
M  V30 477 H 43.5448 3.39582 -4.31249 0
M  V30 478 H 43.8058 3.58588 -2.58586 0
M  V30 479 N 42.8649 1.48995 0.513639 0
M  V30 480 C 43.8149 1.61127 1.61314 0
M  V30 481 C 44.7989 0.467521 1.53958 0
M  V30 482 O 45.9909 0.719826 1.61702 0
M  V30 483 C 43.1199 1.66937 2.99978 0
M  V30 484 C 42.2059 2.86847 3.12377 0
M  V30 485 N 42.5969 4.11078 2.94701 0
M  V30 486 C 40.8949 2.84521 3.43459 0
M  V30 487 C 41.5959 4.91615 3.10949 0
M  V30 488 N 40.5719 4.24739 3.3926 0
M  V30 489 H 44.3739 2.54909 1.46282 0
M  V30 490 H 41.8879 1.45593 0.719483 0
M  V30 491 H 43.8849 1.73725 3.78979 0
M  V30 492 H 42.5449 0.742831 3.16089 0
M  V30 493 H 43.5559 4.41258 2.71131 0
M  V30 494 H 40.2329 2.01192 3.65825 0
M  V30 495 H 41.6229 6.00264 3.01882 0
M  V30 496 N 44.343 -0.763751 1.37857 0
M  V30 497 C 45.273 -1.89103 1.36975 0
M  V30 498 C 46.254 -1.68439 0.237152 0
M  V30 499 O 47.439 -1.8918 0.438713 0
M  V30 500 C 44.569 -3.26496 1.18395 0
M  V30 501 C 43.523 -3.61741 2.28751 0
M  V30 502 C 42.849 -4.97762 1.95286 0
M  V30 503 C 44.149 -3.67665 3.70972 0
M  V30 504 H 45.843 -1.90099 2.31307 0
M  V30 505 H 43.389 -0.91319 1.11341 0
M  V30 506 H 45.342 -4.05003 1.16406 0
M  V30 507 H 44.066 -3.25955 0.205215 0
M  V30 508 H 42.725 -2.85547 2.29909 0
M  V30 509 H 42.373 -4.93769 0.959221 0
M  V30 510 H 42.073 -5.22313 2.69189 0
M  V30 511 H 43.597 -5.7866 1.94898 0
M  V30 512 H 45.011 -4.36307 3.719 0
M  V30 513 H 43.408 -4.03718 4.43995 0
M  V30 514 H 44.478 -2.68134 4.0402 0
M  V30 515 N 45.8211 -1.22559 -0.990812 0
M  V30 516 C 47.0681 -1.05141 -1.73065 0
M  V30 517 C 47.3961 0.413191 -1.9006 0
M  V30 518 O 46.6511 1.32257 -1.44245 0
M  V30 519 C 46.9501 -1.71011 -3.13831 0
M  V30 520 C 46.6161 -3.20911 -3.16745 0
M  V30 521 C 45.2781 -3.61812 -3.17247 0
M  V30 522 C 47.6301 -4.16846 -3.12872 0
M  V30 523 C 44.9581 -4.97127 -3.1158 0
M  V30 524 C 47.3101 -5.5214 -3.08746 0
M  V30 525 C 45.9741 -5.92419 -3.07565 0
M  V30 526 H 45.2441 -0.384738 -0.633291 0
M  V30 527 H 47.8911 -1.5235 -1.16025 0
M  V30 528 H 46.1961 -1.16133 -3.74193 0
M  V30 529 H 47.8931 -1.55023 -3.69823 0
M  V30 530 H 44.4831 -2.88344 -3.17105 0
M  V30 531 H 48.6671 -3.86263 -3.11632 0
M  V30 532 H 43.9231 -5.27562 -3.09012 0
M  V30 533 H 48.0971 -6.26201 -3.04705 0
M  V30 534 H 45.7241 -6.97236 -3.02929 0
M  V30 535 N 47.2992 1.18797 -1.03562 0
M  V30 536 C 48.2092 2.25913 -0.632505 0
M  V30 537 C 49.2252 1.70668 0.338882 0
M  V30 538 O 50.4012 2.00453 0.195076 0
M  V30 539 C 47.4662 3.467 0.00350942 0
M  V30 540 C 46.5272 4.17098 -1.01624 0
M  V30 541 C 45.7602 5.32119 -0.410478 0
M  V30 542 O 45.9832 5.64976 0.784725 0
M  V30 543 O 44.9172 5.9107 -1.13667 0
M  V30 544 H 48.7432 2.62648 -1.52478 0
M  V30 545 H 46.3282 1.25781 -0.806195 0
M  V30 546 H 48.2102 4.19878 0.35781 0
M  V30 547 H 46.8852 3.11798 0.869686 0
M  V30 548 H 45.7922 3.4601 -1.42224 0
M  V30 549 H 47.1252 4.55987 -1.85301 0
M  V30 550 N 48.7773 0.814389 1.34928 0
M  V30 551 C 50.0233 0.408167 1.99263 0
M  V30 552 C 50.3783 -1.0154 1.63424 0
M  V30 553 O 49.6713 -1.69607 0.891289 0
M  V30 554 C 49.8653 0.537781 3.53331 0
M  V30 555 C 49.6943 1.9724 4.04137 0
M  V30 556 C 48.4643 2.60245 4.33129 0
M  V30 557 C 50.6623 2.93801 4.2212 0
M  V30 558 N 48.6443 3.95036 4.69914 0
M  V30 559 C 50.0153 4.1348 4.6199 0
M  V30 560 C 52.0703 2.9053 4.04348 0
M  V30 561 C 50.7733 5.3033 4.85945 0
M  V30 562 C 52.7993 4.06589 4.29464 0
M  V30 563 C 52.1613 5.25017 4.69613 0
M  V30 564 H 48.2603 0.197289 0.756704 0
M  V30 565 H 50.8443 1.05728 1.63492 0
M  V30 566 H 49.0153 -0.0813868 3.88315 0
M  V30 567 H 50.7473 0.105389 4.04563 0
M  V30 568 H 47.5023 2.11545 4.23728 0
M  V30 569 H 47.9263 4.64455 4.92555 0
M  V30 570 H 52.5683 2.00115 3.72443 0
M  V30 571 H 50.2863 6.21309 5.16721 0
M  V30 572 H 53.8723 4.05447 4.17257 0
M  V30 573 H 52.7523 6.1333 4.88667 0
M  V30 574 N 50.2554 -1.46986 0.568584 0
M  V30 575 C 51.6714 -1.57946 0.229189 0
M  V30 576 C 51.8714 -1.56567 -1.26843 0
M  V30 577 O 50.9274 -1.47511 -2.04931 0
M  V30 578 C 52.2404 -2.87963 0.865909 0
M  V30 579 C 53.7884 -3.01568 0.838188 0
M  V30 580 C 54.2634 -4.34301 1.45419 0
M  V30 581 N 55.7544 -4.40965 1.41788 0
M  V30 582 C 56.4894 -5.42256 1.86403 0
M  V30 583 N 55.9854 -6.50297 2.38926 0
M  V30 584 N 57.7784 -5.3337 1.77405 0
M  V30 585 H 49.9294 -1.46126 1.54146 0
M  V30 586 H 52.1924 -0.696156 0.643484 0
M  V30 587 H 51.8984 -2.94742 1.91886 0
M  V30 588 H 51.7724 -3.75423 0.365687 0
M  V30 589 H 54.1594 -2.94379 -0.206106 0
M  V30 590 H 54.2404 -2.1562 1.37629 0
M  V30 591 H 53.8844 -4.42247 2.49761 0
M  V30 592 H 53.8144 -5.19 0.891435 0
M  V30 593 H 56.3054 -3.63484 1.03381 0
M  V30 594 H 56.6184 -7.23777 2.70863 0
M  V30 595 H 54.9634 -6.51155 2.42944 0
M  V30 596 H 58.1544 -4.47865 1.3614 0
M  V30 597 H 58.3274 -6.12169 2.12492 0
M  V30 598 N 51.7335 -0.305618 -1.54608 0
M  V30 599 C 52.9795 0.295595 -2.01241 0
M  V30 600 C 53.3345 1.51171 -1.19018 0
M  V30 601 O 52.6275 1.89832 -0.259684 0
M  V30 602 C 52.8215 0.698983 -3.50498 0
M  V30 603 C 52.6505 -0.476491 -4.47168 0
M  V30 604 C 51.4205 -0.969963 -4.95903 0
M  V30 605 C 53.6185 -1.32294 -4.96994 0
M  V30 606 N 51.6005 -2.11172 -5.76437 0
M  V30 607 C 52.9715 -2.31212 -5.75275 0
M  V30 608 C 55.0265 -1.35278 -4.7917 0
M  V30 609 C 53.7295 -3.32896 -6.37631 0
M  V30 610 C 55.7555 -2.35823 -5.42348 0
M  V30 611 C 55.1175 -3.33469 -6.20466 0
M  V30 612 H 51.2165 0.0724992 -0.778632 0
M  V30 613 H 53.8005 -0.436583 -1.89742 0
M  V30 614 H 51.9715 1.40032 -3.62278 0
M  V30 615 H 53.7035 1.28013 -3.8392 0
M  V30 616 H 50.4585 -0.544178 -4.70463 0
M  V30 617 H 50.8825 -2.68714 -6.21387 0
M  V30 618 H 55.5245 -0.61157 -4.18354 0
M  V30 619 H 53.2425 -4.07933 -6.97579 0
M  V30 620 H 56.8285 -2.38911 -5.30484 0
M  V30 621 H 55.7085 -4.09996 -6.68485 0
M  V30 622 N 53.2116 1.57565 -0.0334293 0
M  V30 623 C 54.4576 1.92262 0.645226 0
M  V30 624 C 54.7906 0.910543 1.71531 0
M  V30 625 O 54.0656 -0.066099 1.94388 0
M  V30 626 C 54.3486 3.37422 1.2577 0
M  V30 627 C 54.2016 4.49369 0.196891 0
M  V30 628 C 55.5206 3.82628 2.17449 0
M  V30 629 H 52.6396 0.699171 0.233085 0
M  V30 630 H 55.2816 1.89779 -0.0915694 0
M  V30 631 H 53.4316 3.39669 1.88566 0
M  V30 632 H 55.1036 4.59254 -0.433962 0
M  V30 633 H 53.3466 4.31168 -0.477137 0
M  V30 634 H 54.0176 5.47978 0.665124 0
M  V30 635 H 56.4936 3.82145 1.64634 0
M  V30 636 H 55.3696 4.84883 2.57254 0
M  V30 637 H 55.6306 3.18376 3.0674 0
M  V30 638 N 54.6897 -0.239769 1.55765 0
M  V30 639 C 55.9667 -0.990056 1.68693 0
M  V30 640 C 56.3467 -2.03107 0.5754 0
M  V30 641 O 55.6947 -2.24604 -0.42017 0
M  V30 642 C 55.9047 -1.61696 3.09282 0
M  V30 643 C 57.2527 -2.11613 3.6811 0
M  V30 644 O 58.2767 -1.71624 3.12127 0
M  V30 645 O 57.1357 -2.85057 4.66267 0
M  V30 646 H 54.2297 -0.461299 0.686391 0
M  V30 647 H 56.7757 -0.232991 1.68093 0
M  V30 648 H 55.5477 -0.864357 3.81634 0
M  V30 649 H 55.1707 -2.44005 3.13923 0
M  V30 650 N 56.1678 -1.49265 -0.50573 0
M  V30 651 C 57.4168 -1.57761 -1.25675 0
M  V30 652 C 57.7298 -0.267371 -1.93764 0
M  V30 653 O 58.9358 -0.230827 -2.70517 0
M  V30 654 C 57.3918 -2.78332 -2.28165 0
M  V30 655 C 56.9998 -4.16096 -1.66037 0
M  V30 656 C 58.7438 -2.96155 -3.04125 0
M  V30 657 C 56.6508 -5.27895 -2.6661 0
M  V30 658 H 55.5808 -0.587391 -0.472745 0
M  V30 659 H 58.2318 -1.75644 -0.53118 0
M  V30 660 H 56.6138 -2.53934 -3.03865 0
M  V30 661 H 57.7878 -4.50612 -0.963622 0
M  V30 662 H 56.1028 -4.03591 -1.02484 0
M  V30 663 H 58.6998 -3.76849 -3.79327 0
M  V30 664 H 59.0428 -2.06534 -3.61455 0
M  V30 665 H 59.5758 -3.2057 -2.35541 0
M  V30 666 H 56.3148 -6.1956 -2.14068 0
M  V30 667 H 55.8348 -4.97839 -3.34539 0
M  V30 668 H 57.5138 -5.57031 -3.29129 0
M  V30 669 N 57.6459 0.756429 -1.3826 0
M  V30 670 C 58.6089 1.85176 -1.35065 0
M  V30 671 C 59.6089 1.58818 -0.251703 0
M  V30 672 O 60.7989 1.66615 -0.508433 0
M  V30 673 C 57.9309 3.22596 -1.10201 0
M  V30 674 H 59.1239 1.89417 -2.3251 0
M  V30 675 H 56.6769 0.95783 -1.23512 0
M  V30 676 H 57.4119 3.24025 -0.133504 0
M  V30 677 H 57.1969 3.43122 -1.89762 0
M  V30 678 H 58.6869 4.02673 -1.10654 0
M  V30 679 N 59.124 1.23083 0.984299 0
M  V30 680 C 60.054 1.03292 2.09411 0
M  V30 681 C 61.035 -0.048923 1.7003 0
M  V30 682 O 62.22 0.114967 1.93859 0
M  V30 683 C 59.35 0.619155 3.41736 0
M  V30 684 C 58.304 1.64791 3.95004 0
M  V30 685 C 57.63 1.0897 5.23478 0
M  V30 686 C 58.93 3.03999 4.24714 0
M  V30 687 H 60.624 1.96119 2.26225 0
M  V30 688 H 58.17 0.944344 1.08711 0
M  V30 689 H 60.123 0.467777 4.18796 0
M  V30 690 H 58.847 -0.344786 3.24775 0
M  V30 691 H 57.506 1.78721 3.20085 0
M  V30 692 H 57.154 0.11686 5.02864 0
M  V30 693 H 56.854 1.77704 5.60085 0
M  V30 694 H 58.378 0.950093 6.03163 0
M  V30 695 H 59.792 2.93393 4.92538 0
M  V30 696 H 58.189 3.69936 4.72512 0
M  V30 697 H 59.259 3.53285 3.32142 0
M  V30 698 N 60.6021 -1.18246 1.0419 0
M  V30 699 C 61.5121 -2.25574 0.644476 0
M  V30 700 C 62.5281 -1.70845 -0.329826 0
M  V30 701 O 63.7041 -2.00554 -0.184443 0
M  V30 702 C 60.7691 -3.46697 0.014877 0
M  V30 703 C 59.8301 -4.16554 1.03834 0
M  V30 704 C 59.0631 -5.31894 0.438692 0
M  V30 705 O 59.2861 -5.65385 -0.754752 0
M  V30 706 O 58.2201 -5.90459 1.168 0
M  V30 707 H 62.0461 -2.61836 1.53869 0
M  V30 708 H 59.6311 -1.25352 0.812854 0
M  V30 709 H 61.5131 -4.20062 -0.335538 0
M  V30 710 H 60.1881 -3.12255 -0.853138 0
M  V30 711 H 59.0951 -3.45251 1.44057 0
M  V30 712 H 60.4281 -4.54998 1.87716 0
M  V30 713 N 62.0802 -0.821533 -1.34494 0
M  V30 714 C 63.3202 -0.414785 -2.00147 0
M  V30 715 C 63.6842 1.00299 -1.6372 0
M  V30 716 O 64.8852 1.51255 -2.22206 0
M  V30 717 C 63.1562 -0.609403 -3.52166 0
M  V30 718 S 64.7152 -0.295297 -4.37805 0
M  V30 719 H 61.5332 -0.15679 -0.693497 0
M  V30 720 H 64.1352 -1.06705 -1.63812 0
M  V30 721 H 62.8392 -1.64096 -3.76166 0
M  V30 722 H 62.3702 0.0576414 -3.93358 0
M  V30 723 H 64.3852 0.891531 -4.88125 0
M  V30 724 N 63.5583 1.46682 -0.576371 0
M  V30 725 C 64.4683 2.34032 0.163141 0
M  V30 726 C 65.4843 1.49367 0.892501 0
M  V30 727 O 66.6603 1.82252 0.857106 0
M  V30 728 C 63.7253 3.26435 1.16795 0
M  V30 729 C 62.7863 4.26998 0.443944 0
M  V30 730 C 62.0193 5.14986 1.40088 0
M  V30 731 O 62.2423 5.05785 2.637 0
M  V30 732 O 61.1763 5.94906 0.914917 0
M  V30 733 H 65.0023 2.98607 -0.55388 0
M  V30 734 H 62.5873 1.45554 -0.336821 0
M  V30 735 H 64.4693 3.83459 1.74748 0
M  V30 736 H 63.1443 2.64465 1.86655 0
M  V30 737 H 62.0513 3.7368 -0.177271 0
M  V30 738 H 63.3843 4.91736 -0.213566 0
M  V30 739 N 65.0364 0.313813 1.54444 0
M  V30 740 C 66.4524 -0.0391619 1.59552 0
M  V30 741 C 66.6524 -1.51322 1.33056 0
M  V30 742 O 65.7084 -2.26782 1.11022 0
M  V30 743 C 67.0214 0.370302 2.98411 0
M  V30 744 C 68.5694 0.320139 3.11358 0
M  V30 745 C 69.0444 0.704617 4.52547 0
M  V30 746 N 70.5354 0.657645 4.58508 0
M  V30 747 C 71.2704 0.927453 5.6585 0
M  V30 748 N 70.7664 1.26389 6.81174 0
M  V30 749 N 72.5594 0.853662 5.5558 0
M  V30 750 H 64.7104 1.27433 1.69925 0
M  V30 751 H 66.9734 0.517511 0.794284 0
M  V30 752 H 66.6794 1.39694 3.22767 0
M  V30 753 H 66.5534 -0.269619 3.76235 0
M  V30 754 H 68.9404 -0.697275 2.86744 0
M  V30 755 H 69.0214 0.99486 2.35661 0
M  V30 756 H 68.6654 1.7199 4.77893 0
M  V30 757 H 68.5954 0.00768843 5.26599 0
M  V30 758 H 71.0864 0.409067 3.75679 0
M  V30 759 H 71.3994 1.4554 7.58972 0
M  V30 760 H 69.7444 1.30206 6.82694 0
M  V30 761 H 72.9354 0.590383 4.64362 0
M  V30 762 H 73.1084 1.0673 6.3915 0
M  V30 763 N 66.5145 -1.57545 0.0417849 0
M  V30 764 C 67.7445 -1.96339 -0.642995 0
M  V30 765 C 68.1525 -0.917536 -1.65463 0
M  V30 766 O 67.4955 0.107747 -1.83384 0
M  V30 767 C 67.5575 -3.31333 -1.39494 0
M  V30 768 C 67.2215 -4.53796 -0.540204 0
M  V30 769 C 68.2185 -5.19553 0.189806 0
M  V30 770 C 65.9035 -5.0006 -0.473886 0
M  V30 771 C 67.8975 -6.29904 0.974674 0
M  V30 772 C 65.5845 -6.10289 0.314677 0
M  V30 773 C 66.5825 -6.75072 1.03765 0
M  V30 774 O 66.2705 -7.83183 1.81327 0
M  V30 775 H 66.0025 -0.651241 -0.181277 0
M  V30 776 H 68.5565 -2.05148 0.101665 0
M  V30 777 H 66.7865 -3.19052 -2.18502 0
M  V30 778 H 68.4755 -3.54942 -1.96904 0
M  V30 779 H 69.2415 -4.84774 0.147981 0
M  V30 780 H 65.1205 -4.49433 -1.0262 0
M  V30 781 H 68.6645 -6.80401 1.5395 0
M  V30 782 H 64.5615 -6.44506 0.358174 0
M  V30 783 H 65.3295 -7.99913 1.73438 0
M  V30 784 N 67.9926 0.231505 -1.5589 0
M  V30 785 C 68.9226 1.29022 -1.94617 0
M  V30 786 C 69.9036 1.4941 -0.813067 0
M  V30 787 O 71.0886 1.6176 -1.07459 0
M  V30 788 C 68.2186 2.64199 -2.25424 0
M  V30 789 C 67.1726 2.58484 -3.41131 0
M  V30 790 C 66.4986 3.97599 -3.57518 0
M  V30 791 C 67.7986 2.1413 -4.76388 0
M  V30 792 H 69.4926 0.968563 -2.83301 0
M  V30 793 H 67.0386 0.464479 -1.36303 0
M  V30 794 H 68.9916 3.38413 -2.51107 0
M  V30 795 H 67.7156 2.98032 -1.33583 0
M  V30 796 H 66.3746 1.86727 -3.15481 0
M  V30 797 H 66.0226 4.28723 -2.6307 0
M  V30 798 H 65.7226 3.94659 -4.35337 0
M  V30 799 H 67.2466 4.7349 -3.85538 0
M  V30 800 H 68.6606 2.78083 -5.01341 0
M  V30 801 H 67.0576 2.2227 -5.57419 0
M  V30 802 H 68.1276 1.09331 -4.72414 0
M  V30 803 N 69.4707 1.49531 0.497807 0
M  V30 804 C 70.4337 1.65916 1.58128 0
M  V30 805 C 71.4337 0.530825 1.51786 0
M  V30 806 O 72.6237 0.797342 1.54881 0
M  V30 807 C 69.7557 1.65951 2.9778 0
M  V30 808 H 70.9487 2.62556 1.44929 0
M  V30 809 H 68.5017 1.38611 0.722275 0
M  V30 810 H 69.2367 0.709065 3.16453 0
M  V30 811 H 69.0217 2.47897 3.03792 0
M  V30 812 H 70.5117 1.80673 3.76493 0
M  V30 813 N 70.9488 -0.749086 1.3866 0
M  V30 814 C 72.3598 -1.32664 1.31366 0
M  V30 815 C 72.7108 -1.96179 -0.028484 0
M  V30 816 O 71.8358 -1.9537 -0.93057 0
M  V30 817 C 72.4308 -2.41219 2.37905 0
M  V30 818 C 70.9898 -2.94684 2.34176 0
M  V30 819 C 70.1368 -1.68108 2.20533 0
M  V30 820 H 73.0878 -0.547628 1.48952 0
M  V30 821 H 73.1088 -3.21268 2.0388 0
M  V30 822 H 72.6208 -1.94962 3.35576 0
M  V30 823 H 70.7218 -3.45258 1.401 0
M  V30 824 H 70.8348 -3.48757 3.2849 0
M  V30 825 H 69.1988 -1.91907 1.67463 0
M  V30 826 H 69.9818 -1.23923 3.20153 0
M  V30 827 N 72.4269 -1.23603 -0.977757 0
M  V30 828 C 73.3739 -1.01954 -2.07061 0
M  V30 829 C 74.3439 0.0638697 -1.65977 0
M  V30 830 O 75.5289 -0.0887624 -1.90593 0
M  V30 831 C 72.6689 -0.619658 -3.39491 0
M  V30 832 C 71.7819 -1.77547 -3.93829 0
M  V30 833 C 70.9169 -1.32212 -5.14484 0
M  V30 834 C 69.9559 -2.44852 -5.60994 0
M  V30 835 N 69.0929 -2.00456 -6.72876 0
M  V30 836 H 73.9329 -1.95495 -2.24913 0
M  V30 837 H 71.4699 -0.973861 -1.10247 0
M  V30 838 H 73.4279 -0.368898 -4.15566 0
M  V30 839 H 72.0579 0.278752 -3.21594 0
M  V30 840 H 71.1099 -2.14016 -3.14486 0
M  V30 841 H 72.4219 -2.62219 -4.24314 0
M  V30 842 H 71.5759 -1.02965 -5.97899 0
M  V30 843 H 70.3149 -0.445808 -4.85658 0
M  V30 844 H 69.3199 -2.74871 -4.76157 0
M  V30 845 H 70.5449 -3.33024 -5.91837 0
M  V30 846 H 68.4909 -1.15208 -6.45804 0
M  V30 847 H 68.4079 -2.78687 -7.02759 0
M  V30 848 H 69.6759 -1.7432 -7.59758 0
M  V30 849 N 73.905 1.17692 -1.04816 0
M  V30 850 C 75.153 1.87488 -0.754497 0
M  V30 851 C 75.474 1.81205 0.720407 0
M  V30 852 O 74.744 1.23544 1.52032 0
M  V30 853 H 73.324 0.694101 -0.276102 0
M  V30 854 H 75.986 1.42793 -1.32651 0
M  V30 855 H 75.082 2.93328 -1.06606 0
M  V30 856 N 75.3831 0.828654 1.34056 0
M  V30 857 C 76.6301 0.419458 1.98108 0
M  V30 858 C 76.9581 -1.01886 1.65679 0
M  V30 859 O 76.2131 -1.72539 0.923512 0
M  V30 860 C 76.5121 0.575226 3.52741 0
M  V30 861 C 76.1781 1.98012 4.05095 0
M  V30 862 C 74.8401 2.36442 4.19104 0
M  V30 863 C 77.1921 2.89824 4.33188 0
M  V30 864 C 74.5201 3.66009 4.58535 0
M  V30 865 C 76.8721 4.1886 4.74066 0
M  V30 866 C 75.5361 4.5726 4.86281 0
M  V30 867 H 74.8061 0.153491 0.724929 0
M  V30 868 H 77.4531 1.05371 1.59904 0
M  V30 869 H 75.7581 -0.142385 3.91541 0
M  V30 870 H 77.4551 0.239057 4.00287 0
M  V30 871 H 74.0451 1.67162 3.94658 0
M  V30 872 H 78.2291 2.61375 4.21897 0
M  V30 873 H 73.4851 3.95579 4.66184 0
M  V30 874 H 77.6591 4.90086 4.94761 0
M  V30 875 H 75.2861 5.57707 5.16592 0
M  V30 876 N 76.8612 -1.46375 0.584142 0
M  V30 877 C 78.1092 -2.01978 0.0701287 0
M  V30 878 C 78.4302 -1.4579 -1.295 0
M  V30 879 O 77.7002 -0.64314 -1.85042 0
M  V30 880 H 76.2802 -0.746648 0.0229345 0
M  V30 881 H 78.9422 -1.79461 0.760245 0
M  V30 882 H 78.0382 -3.121 0.0022064 0
M  V30 883 N 78.3393 -0.321999 -1.54275 0
M  V30 884 C 79.5873 0.280489 -2.00144 0
M  V30 885 C 79.9083 1.52777 -1.21178 0
M  V30 886 O 79.1783 1.9338 -0.313187 0
M  V30 887 H 77.7583 0.106632 -0.73935 0
M  V30 888 H 80.4203 -0.438184 -1.8991 0
M  V30 889 H 79.5163 0.537972 -3.07428 0
M  V30 890 N 79.8174 1.5752 -0.0501392 0
M  V30 891 C 81.0634 1.92936 0.624798 0
M  V30 892 C 81.3964 0.928685 1.70555 0
M  V30 893 O 80.6714 -0.0454779 1.94447 0
M  V30 894 C 80.9544 3.38737 1.22185 0
M  V30 895 C 80.8074 4.49552 0.149218 0
M  V30 896 C 82.1264 3.84913 2.13378 0
M  V30 897 H 79.2454 0.701604 0.225657 0
M  V30 898 H 81.8874 1.89671 -0.111693 0
M  V30 899 H 80.0374 3.4165 1.84953 0
M  V30 900 H 81.7094 4.58768 -0.482648 0
M  V30 901 H 79.9524 4.30638 -0.522841 0
M  V30 902 H 80.6234 5.48653 0.606966 0
M  V30 903 H 83.0994 3.8387 1.60572 0
M  V30 904 H 81.9754 4.87584 2.52097 0
M  V30 905 H 82.2364 3.21611 3.03346 0
M  V30 906 N 81.2955 -0.223234 1.56011 0
M  V30 907 C 82.2275 -1.30006 1.88762 0
M  V30 908 C 83.2405 -1.43129 0.775746 0
M  V30 909 O 84.4295 -1.44057 1.05403 0
M  V30 910 C 81.5295 -2.67589 2.07965 0
M  V30 911 C 80.7025 -2.76434 3.38973 0
M  V30 912 C 79.7615 -3.95019 3.47629 0
M  V30 913 O 78.7875 -3.83436 4.20672 0
M  V30 914 N 79.9895 -5.09249 2.78649 0
M  V30 915 H 82.7545 -1.02238 2.81722 0
M  V30 916 H 80.3155 -0.413278 1.56536 0
M  V30 917 H 82.3075 -3.45297 2.11073 0
M  V30 918 H 80.8775 -2.87964 1.21638 0
M  V30 919 H 80.0975 -1.85216 3.47978 0
M  V30 920 H 81.3855 -2.79313 4.25278 0
M  V30 921 H 80.7835 -5.21556 2.19081 0
M  V30 922 H 79.3405 -5.85007 2.8742 0
M  V30 923 N 82.7736 -1.49793 -0.48987 0
M  V30 924 C 84.0196 -1.60078 -1.24511 0
M  V30 925 C 84.3526 -0.291608 -1.91998 0
M  V30 926 O 83.6276 0.705647 -1.81248 0
M  V30 927 C 83.9106 -2.76791 -2.30345 0
M  V30 928 C 83.7636 -4.17535 -1.67286 0
M  V30 929 C 85.0826 -2.89111 -3.31817 0
M  V30 930 H 82.2016 -0.582645 -0.451324 0
M  V30 931 H 84.8436 -1.82117 -0.541612 0
M  V30 932 H 82.9936 -2.5813 -2.90346 0
M  V30 933 H 84.6656 -4.4774 -1.11026 0
M  V30 934 H 82.9086 -4.22665 -0.976577 0
M  V30 935 H 83.5796 -4.95094 -2.44103 0
M  V30 936 H 86.0556 -3.06133 -2.81819 0
M  V30 937 H 84.9316 -3.72433 -4.03219 0
M  V30 938 H 85.1926 -1.9893 -3.94815 0
M  V30 939 N 84.2517 0.741722 -1.39055 0
M  V30 940 C 85.4767 1.53607 -1.39354 0
M  V30 941 C 85.9017 1.88096 0.0116905 0
M  V30 942 O 85.2597 1.5143 0.996924 0
M  V30 943 C 85.3077 2.80441 -2.26682 0
M  V30 944 O 84.4117 3.76088 -1.69208 0
M  V30 945 H 83.7527 0.464142 -0.474835 0
M  V30 946 H 86.2827 0.915665 -1.82967 0
M  V30 947 H 86.2927 3.29246 -2.40959 0
M  V30 948 H 84.9677 2.5467 -3.2881 0
M  V30 949 H 83.5447 3.34833 -1.64138 0
M  V30 950 N 85.7298 1.2412 0.971189 0
M  V30 951 C 87.1408 1.07236 1.52831 0
M  V30 952 C 87.4918 -0.357352 1.92918 0
M  V30 953 O 86.6168 -1.24528 1.76979 0
M  V30 954 C 87.2118 1.94043 2.77728 0
M  V30 955 C 85.7708 1.81394 3.29808 0
M  V30 956 C 84.9178 1.89189 2.02738 0
M  V30 957 H 87.8688 1.37648 0.789864 0
M  V30 958 H 87.8898 1.47066 3.5093 0
M  V30 959 H 87.4018 2.98093 2.4852 0
M  V30 960 H 85.5028 0.801634 3.63874 0
M  V30 961 H 85.6158 2.65294 3.98944 0
M  V30 962 H 83.9798 1.32877 2.17292 0
M  V30 963 H 84.7628 2.94812 1.759 0
M  V30 964 N 87.2079 -1.17134 1.05439 0
M  V30 965 C 88.6189 -1.69084 0.791676 0
M  V30 966 C 88.9699 -1.83822 -0.685839 0
M  V30 967 O 88.0949 -1.52757 -1.53278 0
M  V30 968 C 88.6899 -3.07119 1.4305 0
M  V30 969 C 87.2489 -3.56225 1.21577 0
M  V30 970 C 86.3959 -2.32421 1.51247 0
M  V30 971 H 89.3469 -1.01617 1.219 0
M  V30 972 H 89.3679 -3.71087 0.84112 0
M  V30 973 H 88.8799 -2.9636 2.50584 0
M  V30 974 H 86.9809 -3.72257 0.159787 0
M  V30 975 H 87.0939 -4.38837 1.92246 0
M  V30 976 H 85.4579 -2.3701 0.932653 0
M  V30 977 H 86.2409 -2.24268 2.5992 0
M  V30 978 N 88.686 -0.835752 -1.33615 0
M  V30 979 C 89.634 -0.255238 -2.31195 0
M  V30 980 C 90.628 0.61107 -1.57995 0
M  V30 981 O 91.834 0.500979 -1.72888 0
M  V30 982 H 88.209 -0.0638085 -0.749288 0
M  V30 983 H 90.18 -1.09283 -2.77669 0
M  V30 984 C 88.929 0.55754 -3.43201 0
M  V30 985 H 88.252 -0.0997553 -3.99676 0
M  V30 986 H 89.692 0.929622 -4.13683 0
M  V30 987 C 88.151 1.73515 -2.88781 0
M  V30 988 O 88.681 2.83376 -2.84712 0
M  V30 989 N 86.887 1.55603 -2.4543 0
M  V30 990 H 86.434 0.662354 -2.48939 0
M  V30 991 H 86.392 2.34545 -2.09371 0
M  V30 992 N 90.1641 1.46063 -0.591896 0
M  V30 993 C 91.0741 2.34192 0.13831 0
M  V30 994 C 92.0901 1.50305 0.876608 0
M  V30 995 O 93.2661 1.8315 0.837728 0
M  V30 996 C 90.3311 3.27656 1.13326 0
M  V30 997 C 89.3921 4.27445 0.39863 0
M  V30 998 C 88.6251 5.16443 1.34618 0
M  V30 999 O 88.8481 5.08553 2.58321 0
M  V30 1000 O 87.7821 5.95843 0.851768 0
M  V30 1001 H 91.6081 2.98002 -0.58552 0
M  V30 1002 H 89.1931 1.45188 -0.352239 0
M  V30 1003 H 91.0751 3.85291 1.70671 0
M  V30 1004 H 89.7501 2.6643 1.83839 0
M  V30 1005 H 88.6571 3.73471 -0.216895 0
M  V30 1006 H 89.9901 4.91482 -0.265709 0
M  V30 1007 N 91.6422 0.330177 1.54103 0
M  V30 1008 C 92.5902 -0.548226 2.26047 0
M  V30 1009 C 93.5842 -1.11309 1.27698 0
M  V30 1010 O 94.7902 -1.06036 1.45452 0
M  V30 1011 H 91.1652 -0.195456 0.726155 0
M  V30 1012 H 93.1362 0.0807567 2.98291 0
M  V30 1013 C 91.8852 -1.69415 3.03634 0
M  V30 1014 H 91.2082 -1.26876 3.79134 0
M  V30 1015 H 92.6482 -2.28423 3.5721 0
M  V30 1016 C 91.1072 -2.61569 2.12328 0
M  V30 1017 O 91.6372 -3.63462 1.7105 0
M  V30 1018 N 89.8432 -2.29952 1.77681 0
M  V30 1019 H 89.3902 -1.47134 2.11446 0
M  V30 1020 H 89.3482 -2.91871 1.16869 0
M  V30 1021 N 93.1203 -1.57491 0.0584922 0
M  V30 1022 C 94.3663 -1.93264 -0.614558 0
M  V30 1023 C 94.6993 -0.937717 -1.7006 0
M  V30 1024 O 93.9743 0.0351652 -1.94468 0
M  V30 1025 C 94.2573 -3.3938 -1.20386 0
M  V30 1026 C 94.1103 -4.49625 -0.125375 0
M  V30 1027 C 95.4293 -3.86039 -2.11334 0
M  V30 1028 H 92.5483 -0.702791 -0.221933 0
M  V30 1029 H 95.1903 -1.8961 0.12175 0
M  V30 1030 H 93.3403 -3.42626 -1.83139 0
M  V30 1031 H 95.0123 -4.58506 0.506971 0
M  V30 1032 H 93.2553 -4.30354 0.545672 0
M  V30 1033 H 93.9263 -5.48967 -0.577861 0
M  V30 1034 H 96.4023 -3.84716 -1.58534 0
M  V30 1035 H 95.2783 -4.88914 -2.49507 0
M  V30 1036 H 95.5393 -3.23215 -3.01636 0
M  V30 1037 N 94.5984 0.214957 -1.56127 0
M  V30 1038 C 95.5614 1.24997 -1.92116 0
M  V30 1039 C 96.5614 1.39467 -0.800344 0
M  V30 1040 O 97.7514 1.37619 -1.06802 0
M  V30 1041 C 94.8834 2.62271 -2.17777 0
M  V30 1042 H 96.0764 0.942875 -2.84693 0
M  V30 1043 H 93.6294 0.455654 -1.49511 0
M  V30 1044 H 94.3644 2.98068 -1.27773 0
M  V30 1045 H 94.1494 2.53143 -2.99434 0
M  V30 1046 H 95.6394 3.36946 -2.46693 0
M  V30 1047 N 96.0765 1.50051 0.48192 0
M  V30 1048 C 97.3255 1.59741 1.23149 0
M  V30 1049 C 97.6385 0.298163 1.93314 0
M  V30 1050 O 98.8445 0.273835 2.70116 0
M  V30 1051 C 97.3005 2.81926 2.23708 0
M  V30 1052 C 96.9085 4.18685 1.59396 0
M  V30 1053 C 98.6525 3.00956 2.99375 0
M  V30 1054 C 96.5595 5.3207 2.58178 0
M  V30 1055 H 95.4895 0.594838 0.46334 0
M  V30 1056 H 98.1405 1.76467 0.503169 0
M  V30 1057 H 96.5225 2.58736 2.99786 0
M  V30 1058 H 97.6965 4.52088 0.891811 0
M  V30 1059 H 96.0115 4.05171 0.960503 0
M  V30 1060 H 98.6085 3.82836 3.73283 0
M  V30 1061 H 98.9515 2.12258 3.58123 0
M  V30 1062 H 99.4845 3.24277 2.30411 0
M  V30 1063 H 96.2235 6.22888 2.04184 0
M  V30 1064 H 95.7435 5.03098 3.26577 0
M  V30 1065 H 97.4225 5.62196 3.20225 0
M  V30 1066 N 97.5546 -0.734337 1.39446 0
M  V30 1067 C 98.7846 -1.52137 1.39778 0
M  V30 1068 C 99.1926 -1.89198 -0.00929312 0
M  V30 1069 O 98.5356 -1.54666 -0.991168 0
M  V30 1070 C 98.5976 -2.83762 2.20724 0
M  V30 1071 C 98.2616 -2.69131 3.69347 0
M  V30 1072 C 99.2586 -2.37635 4.62413 0
M  V30 1073 C 96.9436 -2.85982 4.1294 0
M  V30 1074 C 98.9376 -2.23172 5.97054 0
M  V30 1075 C 96.6246 -2.71137 5.47657 0
M  V30 1076 C 97.6226 -2.39777 6.39528 0
M  V30 1077 O 97.3106 -2.25026 7.71763 0
M  V30 1078 H 97.0426 -0.476717 0.479288 0
M  V30 1079 H 99.5966 -0.915012 1.83893 0
M  V30 1080 H 97.8266 -3.4666 1.71359 0
M  V30 1081 H 99.5156 -3.45383 2.13226 0
M  V30 1082 H 100.282 -2.24267 4.30034 0
M  V30 1083 H 96.1606 -3.09383 3.41765 0
M  V30 1084 H 99.7046 -1.98617 6.68728 0
M  V30 1085 H 95.6016 -2.84083 5.79626 0
M  V30 1086 H 96.3696 -2.40091 7.82495 0
M  V30 1087 N 99.0327 -1.24633 -0.964593 0
M  V30 1088 C 99.9807 -1.03917 -2.08096 0
M  V30 1089 C 100.975 0.0268581 -1.69379 0
M  V30 1090 O 102.181 -0.127952 -1.79545 0
M  V30 1091 H 98.5557 -0.319044 -0.680966 0
M  V30 1092 H 100.527 -1.98581 -2.22729 0
M  V30 1093 C 99.2757 -0.663983 -3.41301 0
M  V30 1094 H 98.5987 -1.47605 -3.71555 0
M  V30 1095 H 100.039 -0.558663 -4.20303 0
M  V30 1096 C 98.4977 0.629169 -3.30973 0
M  V30 1097 O 99.0277 1.67404 -3.65156 0
M  V30 1098 N 97.2337 0.611057 -2.84103 0
M  V30 1099 H 96.7807 -0.239593 -2.56483 0
M  V30 1100 H 96.7387 1.47647 -2.77575 0
M  V30 1101 N 100.511 1.16574 -1.06058 0
M  V30 1102 C 101.922 1.68662 -0.800632 0
M  V30 1103 C 102.273 1.84184 0.67608 0
M  V30 1104 O 101.398 1.53568 1.52466 0
M  V30 1105 C 101.993 3.06356 -1.44676 0
M  V30 1106 C 100.552 3.55575 -1.23465 0
M  V30 1107 C 99.6988 2.31616 -1.52477 0
M  V30 1108 H 102.65 1.00969 -1.22438 0
M  V30 1109 H 102.671 3.70636 -0.860788 0
M  V30 1110 H 102.183 2.95027 -2.52152 0
M  V30 1111 H 100.284 3.72167 -0.179527 0
M  V30 1112 H 100.397 4.37812 -1.94571 0
M  V30 1113 H 98.7608 2.36512 -0.945209 0
M  V30 1114 H 99.5438 2.22887 -2.61106 0
M  V30 1115 N 101.989 0.842826 1.3317 0
M  V30 1116 C 103.236 0.440447 1.97652 0
M  V30 1117 C 103.564 -1.00123 1.6675 0
M  V30 1118 O 102.819 -1.7155 0.941761 0
M  V30 1119 C 103.118 0.612607 3.52111 0
M  V30 1120 C 102.784 2.02297 4.02972 0
M  V30 1121 C 101.446 2.40874 4.16573 0
M  V30 1122 C 103.798 2.94402 4.30089 0
M  V30 1123 C 101.126 3.70852 4.54627 0
M  V30 1124 C 103.478 4.23865 4.69597 0
M  V30 1125 C 102.142 4.62392 4.81404 0
M  V30 1126 H 101.412 0.161171 0.72326 0
M  V30 1127 H 104.059 1.07061 1.58777 0
M  V30 1128 H 102.364 -0.100849 3.9167 0
M  V30 1129 H 104.061 0.2815 4.00011 0
M  V30 1130 H 100.651 1.71338 3.92863 0
M  V30 1131 H 104.835 2.65835 4.19101 0
M  V30 1132 H 100.091 4.00501 4.61962 0
M  V30 1133 H 104.265 4.95306 4.89536 0
M  V30 1134 H 101.892 5.63154 5.10648 0
M  V30 1135 N 103.467 -1.45747 0.599634 0
M  V30 1136 C 104.883 -1.57424 0.26264 0
M  V30 1137 C 105.083 -1.59222 -1.23493 0
M  V30 1138 O 104.139 -1.51825 -2.01756 0
M  V30 1139 C 105.452 -2.86061 0.926795 0
M  V30 1140 C 107 -2.99722 0.901967 0
M  V30 1141 C 107.475 -4.31119 1.54598 0
M  V30 1142 N 108.966 -4.37858 1.5111 0
M  V30 1143 C 109.701 -5.3818 1.97863 0
M  V30 1144 N 109.197 -6.45083 2.52666 0
M  V30 1145 N 110.99 -5.29487 1.88679 0
M  V30 1146 H 103.141 -1.42823 1.57211 0
M  V30 1147 H 105.404 -0.68235 0.658105 0
M  V30 1148 H 105.11 -2.90605 1.98095 0
M  V30 1149 H 104.984 -3.74563 0.445238 0
M  V30 1150 H 107.371 -2.9475 -0.143617 0
M  V30 1151 H 107.452 -2.12652 1.42171 0
M  V30 1152 H 107.096 -4.36849 2.59085 0
M  V30 1153 H 107.026 -5.16992 1.00132 0
M  V30 1154 H 109.517 -3.61209 1.11068 0
M  V30 1155 H 109.83 -7.17869 2.86155 0
M  V30 1156 H 108.175 -6.45856 2.56701 0
M  V30 1157 H 111.366 -4.44877 1.4561 0
M  V30 1158 H 111.539 -6.07524 2.25429 0
M  V30 1159 N 104.945 -0.338344 -1.53925 0
M  V30 1160 C 106.356 0.146651 -1.86123 0
M  V30 1161 C 106.707 1.5042 -1.2597 0
M  V30 1162 O 105.832 2.08723 -0.571294 0
M  V30 1163 C 106.427 0.272879 -3.37699 0
M  V30 1164 C 104.986 0.702103 -3.69794 0
M  V30 1165 C 104.133 -0.167304 -2.76795 0
M  V30 1166 H 107.084 -0.558123 -1.48562 0
M  V30 1167 H 107.105 1.10128 -3.64214 0
M  V30 1168 H 106.617 -0.715307 -3.81451 0
M  V30 1169 H 104.718 1.6995 -3.31584 0
M  V30 1170 H 104.831 0.495604 -4.7653 0
M  V30 1171 H 103.195 0.359527 -2.5215 0
M  V30 1172 H 103.978 -1.15253 -3.23375 0
M  V30 1173 N 106.423 1.57458 -0.0668435 0
M  V30 1174 C 107.669 1.94401 0.598316 0
M  V30 1175 C 108.024 0.946335 1.67518 0
M  V30 1176 O 107.317 -0.0321442 1.91573 0
M  V30 1177 C 107.511 3.35784 1.22409 0
M  V30 1178 C 107.34 4.49212 0.209367 0
M  V30 1179 C 106.11 5.04887 -0.204218 0
M  V30 1180 C 108.308 5.11335 -0.551431 0
M  V30 1181 N 106.29 6.01854 -1.21016 0
M  V30 1182 C 107.661 6.03754 -1.41 0
M  V30 1183 C 109.716 4.94173 -0.608038 0
M  V30 1184 C 108.419 6.80854 -2.32013 0
M  V30 1185 C 110.445 5.71912 -1.50566 0
M  V30 1186 C 109.807 6.63976 -2.35191 0
M  V30 1187 H 105.906 0.758538 0.190114 0
M  V30 1188 H 108.49 1.94175 -0.142832 0
M  V30 1189 H 106.661 3.36757 1.93518 0
M  V30 1190 H 108.393 3.59976 1.84931 0
M  V30 1191 H 105.148 4.73266 0.177908 0
M  V30 1192 H 105.572 6.55035 -1.71049 0
M  V30 1193 H 110.214 4.22788 0.032022 0
M  V30 1194 H 107.932 7.5152 -2.97057 0
M  V30 1195 H 111.518 5.60656 -1.55423 0
M  V30 1196 H 110.398 7.2308 -3.03522 0
M  V30 1197 N 107.901 -0.206675 1.56239 0
M  V30 1198 C 109.147 -0.925733 1.81113 0
M  V30 1199 C 109.502 -1.81368 0.642135 0
M  V30 1200 O 108.795 -1.88126 -0.363211 0
M  V30 1201 C 108.989 -1.78675 3.09532 0
M  V30 1202 C 108.818 -0.98365 4.3881 0
M  V30 1203 C 107.588 -0.672661 5.00803 0
M  V30 1204 C 109.786 -0.341847 5.13163 0
M  V30 1205 N 107.768 0.150283 6.13716 0
M  V30 1206 C 109.139 0.343815 6.19046 0
M  V30 1207 C 111.194 -0.256392 4.97239 0
M  V30 1208 C 109.897 1.10678 7.10734 0
M  V30 1209 C 111.923 0.493142 5.8934 0
M  V30 1210 C 111.285 1.16729 6.94661 0
M  V30 1211 H 107.384 -0.318524 0.714189 0
M  V30 1212 H 109.968 -0.195378 1.93717 0
M  V30 1213 H 108.139 -2.4888 2.98183 0
M  V30 1214 H 109.871 -2.44441 3.22538 0
M  V30 1215 H 106.626 -0.994294 4.63045 0
M  V30 1216 H 107.05 0.551026 6.74754 0
M  V30 1217 H 111.692 -0.763249 4.15854 0
M  V30 1218 H 109.41 1.6251 7.91591 0
M  V30 1219 H 112.996 0.560465 5.79094 0
M  V30 1220 H 111.876 1.738 7.64698 0
M  V30 1221 N 109.379 -1.50304 -0.473955 0
M  V30 1222 C 110.289 -1.7174 -1.5982 0
M  V30 1223 C 111.305 -0.600457 -1.63311 0
M  V30 1224 O 112.481 -0.878441 -1.81233 0
M  V30 1225 C 109.546 -1.80427 -2.96052 0
M  V30 1226 C 108.607 -3.04148 -3.02972 0
M  V30 1227 C 107.84 -3.12411 -4.32706 0
M  V30 1228 O 108.063 -2.27542 -5.23049 0
M  V30 1229 O 106.997 -4.05113 -4.45159 0
M  V30 1230 H 110.823 -2.67035 -1.44657 0
M  V30 1231 H 108.408 -1.34366 -0.653148 0
M  V30 1232 H 110.29 -1.88338 -3.7697 0
M  V30 1233 H 108.965 -0.883156 -3.11419 0
M  V30 1234 H 107.872 -3.0174 -2.21142 0
M  V30 1235 H 109.205 -3.95829 -2.92541 0
M  V30 1236 N 110.857 0.726932 -1.39834 0
M  V30 1237 C 112.273 1.03354 -1.21615 0
M  V30 1238 C 112.473 2.01327 -0.08338 0
M  V30 1239 O 111.529 2.46158 0.56238 0
M  V30 1240 C 112.842 1.58811 -2.55342 0
M  V30 1241 C 114.39 1.70851 -2.62257 0
M  V30 1242 C 114.865 2.29716 -3.96225 0
M  V30 1243 N 116.356 2.37116 -3.97907 0
M  V30 1244 C 117.091 2.83619 -4.98345 0
M  V30 1245 N 116.587 3.29958 -6.09179 0
M  V30 1246 N 118.38 2.82901 -4.8572 0
M  V30 1247 H 110.531 0.0773069 -2.12259 0
M  V30 1248 H 112.794 0.0969102 -0.943034 0
M  V30 1249 H 112.5 0.942855 -3.38826 0
M  V30 1250 H 112.374 2.57502 -2.75632 0
M  V30 1251 H 114.761 2.34497 -1.79152 0
M  V30 1252 H 114.842 0.707913 -2.45809 0
M  V30 1253 H 114.486 1.66696 -4.79765 0
M  V30 1254 H 114.416 3.30469 -4.09997 0
M  V30 1255 H 116.907 2.04374 -3.17868 0
M  V30 1256 H 117.22 3.63976 -6.8172 0
M  V30 1257 H 115.565 3.27946 -6.12761 0
M  V30 1258 H 118.756 2.46027 -3.98231 0
M  V30 1259 H 118.929 3.18827 -5.6414 0
M  V30 1260 N 112.336 1.25143 0.95797 0
M  V30 1261 C 113.566 1.12261 1.73439 0
M  V30 1262 C 113.974 -0.326715 1.86358 0
M  V30 1263 O 113.317 -1.2367 1.35836 0
M  V30 1264 C 113.379 1.69966 3.16784 0
M  V30 1265 C 113.043 3.18936 3.27305 0
M  V30 1266 C 114.04 4.15968 3.11877 0
M  V30 1267 C 111.725 3.59083 3.51234 0
M  V30 1268 C 113.719 5.51126 3.20217 0
M  V30 1269 C 111.406 4.9438 3.5921 0
M  V30 1270 C 112.404 5.90211 3.43716 0
M  V30 1271 O 112.092 7.23046 3.51368 0
M  V30 1272 H 111.824 0.392476 0.550399 0
M  V30 1273 H 114.378 1.65927 1.21068 0
M  V30 1274 H 112.608 1.10744 3.70503 0
M  V30 1275 H 114.297 1.52232 3.76272 0
M  V30 1276 H 115.063 3.86292 2.93264 0
M  V30 1277 H 110.942 2.84989 3.62356 0
M  V30 1278 H 114.486 6.25905 3.0804 0
M  V30 1279 H 110.383 5.23723 3.77339 0
M  V30 1280 H 111.151 7.31097 3.6802 0
M  V30 1281 N 113.814 -1.1601 1.06675 0
M  V30 1282 C 114.746 -2.20115 0.638921 0
M  V30 1283 C 115.759 -1.59916 -0.305057 0
M  V30 1284 O 116.948 -1.78245 -0.0954446 0
M  V30 1285 C 114.048 -3.38798 -0.0830083 0
M  V30 1286 C 113.221 -4.2855 0.875426 0
M  V30 1287 C 112.28 -5.25849 0.192042 0
M  V30 1288 O 111.306 -5.63102 0.830921 0
M  V30 1289 N 112.508 -5.70648 -1.06493 0
M  V30 1290 H 115.273 -2.57439 1.53444 0
M  V30 1291 H 112.834 -1.31057 0.950557 0
M  V30 1292 H 114.826 -4.00936 -0.550685 0
M  V30 1293 H 113.396 -2.99947 -0.880386 0
M  V30 1294 H 112.616 -3.63617 1.52238 0
M  V30 1295 H 113.904 -4.85393 1.52548 0
M  V30 1296 H 113.302 -5.42482 -1.60405 0
M  V30 1297 H 111.859 -6.34859 -1.47641 0
M  V30 1298 N 115.292 -0.849877 -1.32721 0
M  V30 1299 C 116.703 -0.506188 -1.79707 0
M  V30 1300 C 117.054 0.975627 -1.70223 0
M  V30 1301 O 116.179 1.76078 -1.25799 0
M  V30 1302 C 116.774 -0.912044 -3.26293 0
M  V30 1303 C 115.333 -0.620326 -3.71253 0
M  V30 1304 C 114.48 -1.11439 -2.53922 0
M  V30 1305 H 117.431 -1.03754 -1.20087 0
M  V30 1306 H 117.452 -0.226493 -3.79825 0
M  V30 1307 H 116.964 -1.99057 -3.33164 0
M  V30 1308 H 115.065 0.447674 -3.69901 0
M  V30 1309 H 115.178 -1.18327 -4.64258 0
M  V30 1310 H 113.542 -0.534834 -2.49021 0
M  V30 1311 H 114.325 -2.19992 -2.6355 0
M  V30 1312 N 116.77 1.45427 -0.607355 0
M  V30 1313 C 118.016 2.0254 -0.102607 0
M  V30 1314 C 118.349 1.47478 1.26348 0
M  V30 1315 O 117.624 0.64939 1.83339 0
M  V30 1316 C 117.907 3.60044 -0.0634347 0
M  V30 1317 C 117.76 4.2544 -1.46017 0
M  V30 1318 C 119.079 4.35646 0.624514 0
M  V30 1319 H 116.198 0.73598 -0.0387607 0
M  V30 1320 H 118.84 1.73284 -0.779282 0
M  V30 1321 H 116.99 3.85101 0.512808 0
M  V30 1322 H 118.662 4.11569 -2.08347 0
M  V30 1323 H 116.905 3.83849 -2.02094 0
M  V30 1324 H 117.576 5.34342 -1.385 0
M  V30 1325 H 120.052 4.15882 0.134723 0
M  V30 1326 H 118.928 5.45376 0.621028 0
M  V30 1327 H 119.189 4.08501 1.69055 0
M  V30 1328 N 118.248 0.346503 1.53744 0
M  V30 1329 C 119.473 -0.253074 2.0585 0
M  V30 1330 C 119.898 -1.43202 1.21962 0
M  V30 1331 O 119.256 -1.79783 0.234073 0
M  V30 1332 C 119.304 -0.643193 3.54817 0
M  V30 1333 O 118.408 -1.74286 3.73762 0
M  V30 1334 H 117.749 -0.0413583 0.662711 0
M  V30 1335 H 120.279 0.501574 1.98357 0
M  V30 1336 H 120.289 -0.919526 3.97503 0
M  V30 1337 H 118.964 0.218966 4.15323 0
M  V30 1338 H 117.541 -1.46356 3.42979 0
M  V30 1339 N 119.726 -1.57421 0.075193 0
M  V30 1340 C 120.956 -1.97659 -0.601203 0
M  V30 1341 C 121.364 -0.952427 -1.63479 0
M  V30 1342 O 120.707 0.0688241 -1.83571 0
M  V30 1343 C 120.769 -3.34218 -1.32434 0
M  V30 1344 C 120.433 -4.5484 -0.443826 0
M  V30 1345 C 121.43 -5.19034 0.299969 0
M  V30 1346 C 119.115 -5.00952 -0.367709 0
M  V30 1347 C 121.109 -6.27695 1.10807 0
M  V30 1348 C 118.796 -6.09484 0.444058 0
M  V30 1349 C 119.794 -6.72719 1.18061 0
M  V30 1350 O 119.482 -7.79161 1.97898 0
M  V30 1351 H 119.214 -0.65494 -0.167422 0
M  V30 1352 H 121.768 -2.04886 0.145157 0
M  V30 1353 H 119.998 -3.23615 -2.11685 0
M  V30 1354 H 121.687 -3.59038 -1.89331 0
M  V30 1355 H 122.453 -4.84351 0.250776 0
M  V30 1356 H 118.332 -4.51509 -0.930638 0
M  V30 1357 H 121.876 -6.76982 1.68347 0
M  V30 1358 H 117.773 -6.43601 0.494803 0
M  V30 1359 H 118.541 -7.96055 1.90367 0
M  V30 1360 N 121.204 0.198386 -1.56346 0
M  V30 1361 C 122.151 1.24589 -1.94284 0
M  V30 1362 C 123.121 1.454 -0.802997 0
M  V30 1363 O 124.306 1.58588 -1.06087 0
M  V30 1364 C 121.446 2.58631 -2.28482 0
M  V30 1365 C 120.559 2.45426 -3.55514 0
M  V30 1366 C 119.694 3.7215 -3.79049 0
M  V30 1367 C 118.733 3.53763 -4.99518 0
M  V30 1368 N 117.87 4.72491 -5.19323 0
M  V30 1369 H 122.71 0.915356 -2.83593 0
M  V30 1370 H 120.247 0.440629 -1.40346 0
M  V30 1371 H 122.205 3.3672 -2.46324 0
M  V30 1372 H 120.835 2.89734 -1.42317 0
M  V30 1373 H 119.887 1.58652 -3.45737 0
M  V30 1374 H 121.199 2.27772 -4.43758 0
M  V30 1375 H 120.353 4.58679 -3.97113 0
M  V30 1376 H 119.092 3.92754 -2.89129 0
M  V30 1377 H 118.097 2.65619 -4.8138 0
M  V30 1378 H 119.322 3.34607 -5.90944 0
M  V30 1379 H 117.268 4.93365 -4.3235 0
M  V30 1380 H 117.185 4.5765 -6.01741 0
M  V30 1381 H 118.453 5.6038 -5.41843 0
M  V30 1382 N 122.682 1.50554 0.465978 0
M  V30 1383 C 123.612 1.72722 1.57128 0
M  V30 1384 C 124.593 0.576294 1.6004 0
M  V30 1385 O 125.778 0.81598 1.76225 0
M  V30 1386 C 122.908 1.82605 2.95419 0
M  V30 1387 C 121.862 2.97835 3.07373 0
M  V30 1388 C 121.188 2.92867 4.47363 0
M  V30 1389 C 122.488 4.38265 2.84114 0
M  V30 1390 H 124.182 2.65267 1.38829 0
M  V30 1391 H 121.728 1.2765 0.666441 0
M  V30 1392 H 123.681 1.96698 3.72677 0
M  V30 1393 H 122.405 0.866858 3.14886 0
M  V30 1394 H 121.064 2.83401 2.3255 0
M  V30 1395 H 120.712 1.94783 4.63755 0
M  V30 1396 H 120.412 3.70227 4.56296 0
M  V30 1397 H 121.936 3.09015 5.26633 0
M  V30 1398 H 123.35 4.53198 3.51118 0
M  V30 1399 H 121.747 5.17115 3.04487 0
M  V30 1400 H 122.817 4.50281 1.7993 0
M  V30 1401 N 124.16 -0.719506 1.40217 0
M  V30 1402 C 125.4 -1.49181 1.39729 0
M  V30 1403 C 125.764 -1.92 -0.00250614 0
M  V30 1404 O 126.965 -2.68473 -0.132479 0
M  V30 1405 C 125.236 -2.68767 2.35582 0
M  V30 1406 S 126.795 -3.58224 2.53418 0
M  V30 1407 H 123.613 -0.510091 0.495307 0
M  V30 1408 H 126.215 -0.841724 1.76452 0
M  V30 1409 H 124.919 -2.35475 3.36124 0
M  V30 1410 H 124.45 -3.38691 2.0013 0
M  V30 1411 H 126.465 -4.63033 1.78367 0
M  V30 1412 N 125.638 -1.25649 -0.95132 0
M  V30 1413 C 126.866 -1.13343 -1.73092 0
M  V30 1414 C 127.281 0.312434 -1.86197 0
M  V30 1415 O 126.638 1.21465 -1.36207 0
M  V30 1416 C 126.689 -1.78602 -3.14299 0
M  V30 1417 O 126.41 -3.17537 -3.01831 0
M  V30 1418 C 127.911 -1.72119 -4.08522 0
M  V30 1419 H 125.131 -0.395181 -0.542285 0
M  V30 1420 H 127.675 -1.66076 -1.19328 0
M  V30 1421 H 125.83 -1.29832 -3.64996 0
M  V30 1422 H 126.244 -3.49676 -3.90931 0
M  V30 1423 H 127.718 -2.22435 -5.052 0
M  V30 1424 H 128.195 -0.685635 -4.33815 0
M  V30 1425 H 128.801 -2.20393 -3.63741 0
M  V30 1426 N 127.117 1.15442 -1.07289 0
M  V30 1427 C 128.533 1.38201 -0.798288 0
M  V30 1428 C 128.733 1.92429 0.597769 0
M  V30 1429 O 127.789 2.12962 1.3566 0
M  V30 1430 C 129.102 2.35357 -1.87156 0
M  V30 1431 C 130.65 2.49021 -1.89624 0
M  V30 1432 C 131.125 3.49468 -2.96034 0
M  V30 1433 N 132.616 3.57003 -2.95132 0
M  V30 1434 C 133.351 4.34543 -3.74112 0
M  V30 1435 N 132.847 5.15421 -4.6294 0
M  V30 1436 N 134.64 4.29625 -3.62462 0
M  V30 1437 H 126.791 0.78584 -1.97328 0
M  V30 1438 H 129.054 0.408065 -0.855679 0
M  V30 1439 H 128.76 2.02626 -2.87464 0
M  V30 1440 H 128.634 3.35129 -1.73114 0
M  V30 1441 H 131.021 2.81051 -0.899687 0
M  V30 1442 H 131.102 1.4925 -2.07745 0
M  V30 1443 H 130.746 3.18173 -3.95889 0
M  V30 1444 H 130.676 4.48992 -2.75161 0
M  V30 1445 H 133.167 2.99276 -2.30743 0
M  V30 1446 H 133.48 5.7183 -5.19837 0
M  V30 1447 H 131.825 5.14729 -4.66989 0
M  V30 1448 H 135.016 3.65505 -2.92444 0
M  V30 1449 H 135.189 4.89807 -4.24256 0
M  V30 1450 N 128.595 0.856903 1.32268 0
M  V30 1451 C 129.82 0.474569 2.01897 0
M  V30 1452 C 130.245 -0.921766 1.63967 0
M  V30 1453 O 129.603 -1.60589 0.84148 0
M  V30 1454 C 129.651 0.623799 3.55164 0
M  V30 1455 O 128.755 -0.342459 4.10976 0
M  V30 1456 H 128.096 0.190422 0.63611 0
M  V30 1457 H 130.626 1.15672 1.68764 0
M  V30 1458 H 130.636 0.512169 4.04773 0
M  V30 1459 H 129.311 1.64202 3.82113 0
M  V30 1460 H 127.888 -0.18688 3.72431 0
M  V30 1461 N 130.073 -1.45103 0.615059 0
M  V30 1462 C 131.321 -2.01784 0.112955 0
M  V30 1463 C 131.642 -1.48504 -1.26378 0
M  V30 1464 O 130.912 -0.682245 -1.83636 0
M  V30 1465 H 129.492 -0.745993 0.0387668 0
M  V30 1466 H 132.154 -1.77808 0.798141 0
M  V30 1467 H 131.25 -3.12025 0.0684069 0
M  V30 1468 N 131.551 -0.354651 -1.53558 0
M  V30 1469 C 132.499 0.512195 -2.26891 0
M  V30 1470 C 133.493 1.09263 -1.29452 0
M  V30 1471 O 134.699 1.03709 -1.47121 0
M  V30 1472 H 131.074 0.183878 -0.729173 0
M  V30 1473 H 133.045 -0.128202 -2.98124 0
M  V30 1474 C 131.794 1.64563 -3.06291 0
M  V30 1475 H 131.117 1.20829 -3.81104 0
M  V30 1476 H 132.557 2.22711 -3.60799 0
M  V30 1477 C 131.016 2.58158 -2.16462 0
M  V30 1478 O 131.546 3.60695 -1.76811 0
M  V30 1479 N 129.752 2.27096 -1.81317 0
M  V30 1480 H 129.299 1.43751 -2.1376 0
M  V30 1481 H 129.257 2.89975 -1.21498 0
M  V30 1482 N 133.029 1.57378 -0.0835403 0
M  V30 1483 C 133.939 2.16897 0.894021 0
M  V30 1484 C 134.955 1.13528 1.31861 0
M  V30 1485 O 136.131 1.45848 1.3889 0
M  V30 1486 C 133.196 2.72831 2.13925 0
M  V30 1487 C 132.257 3.91115 1.76997 0
M  V30 1488 C 131.49 4.44371 2.95584 0
M  V30 1489 O 131.713 3.96596 4.09961 0
M  V30 1490 O 130.647 5.35549 2.74719 0
M  V30 1491 H 134.473 3.00814 0.417679 0
M  V30 1492 H 132.058 1.48741 0.140181 0
M  V30 1493 H 133.94 3.0863 2.86924 0
M  V30 1494 H 132.615 1.91967 2.60635 0
M  V30 1495 H 131.522 3.60148 1.01214 0
M  V30 1496 H 132.855 4.73307 1.3506 0
M  V30 1497 N 134.507 -0.190092 1.56449 0
M  V30 1498 C 135.784 -0.935886 1.71757 0
M  V30 1499 C 136.164 -2.01173 0.639726 0
M  V30 1500 O 135.512 -2.25827 -0.348502 0
M  V30 1501 C 135.722 -1.51775 3.1427 0
M  V30 1502 C 137.07 -1.99794 3.74656 0
M  V30 1503 O 138.094 -1.61607 3.1743 0
M  V30 1504 O 136.953 -2.70079 4.751 0
M  V30 1505 H 134.047 -0.439229 0.700719 0
M  V30 1506 H 136.593 -0.179395 1.68749 0
M  V30 1507 H 135.365 -0.742505 3.84191 0
M  V30 1508 H 134.988 -2.33894 3.21527 0
M  V30 1509 N 135.985 -1.50799 -0.457987 0
M  V30 1510 C 136.895 -1.73426 -1.57989 0
M  V30 1511 C 137.911 -0.617745 -1.62665 0
M  V30 1512 O 139.087 -0.897614 -1.80291 0
M  V30 1513 C 136.152 -1.83557 -2.94122 0
M  V30 1514 C 135.213 -3.07345 -2.99729 0
M  V30 1515 C 134.446 -3.16983 -4.29368 0
M  V30 1516 O 134.669 -2.33077 -5.20607 0
M  V30 1517 O 133.603 -4.09812 -4.40837 0
M  V30 1518 H 137.429 -2.68555 -1.41817 0
M  V30 1519 H 135.014 -1.35052 -0.638859 0
M  V30 1520 H 136.896 -1.92326 -3.74952 0
M  V30 1521 H 135.571 -0.916137 -3.10465 0
M  V30 1522 H 134.478 -3.04068 -2.1793 0
M  V30 1523 H 135.811 -3.9891 -2.88326 0
M  V30 1524 N 137.463 0.71206 -1.40597 0
M  V30 1525 C 138.71 1.47197 -1.39065 0
M  V30 1526 C 139.038 1.94499 0.00583891 0
M  V30 1527 O 138.293 1.68752 0.99102 0
M  V30 1528 C 138.592 2.71039 -2.32965 0
M  V30 1529 C 138.258 2.42484 -3.80148 0
M  V30 1530 C 136.92 2.34406 -4.20247 0
M  V30 1531 C 139.272 2.18598 -4.73143 0
M  V30 1532 C 136.6 2.00516 -5.51371 0
M  V30 1533 C 138.952 1.8622 -6.0457 0
M  V30 1534 C 137.616 1.76626 -6.43708 0
M  V30 1535 H 136.886 0.538634 -0.508876 0
M  V30 1536 H 139.533 0.815325 -1.73276 0
M  V30 1537 H 137.838 3.41558 -1.91951 0
M  V30 1538 H 139.535 3.29138 -2.29061 0
M  V30 1539 H 136.125 2.49659 -3.4838 0
M  V30 1540 H 140.309 2.23793 -4.42979 0
M  V30 1541 H 135.565 1.91628 -5.80593 0
M  V30 1542 H 139.739 1.66752 -6.76141 0
M  V30 1543 H 137.366 1.50133 -7.45228 0
M  V30 1544 N 138.941 1.26152 0.944643 0
M  V30 1545 C 140.357 1.03189 1.21754 0
M  V30 1546 C 140.557 -0.245112 2.00004 0
M  V30 1547 O 139.613 -0.955176 2.33736 0
M  V30 1548 C 140.926 2.26119 1.98219 0
M  V30 1549 C 142.474 2.30984 2.11224 0
M  V30 1550 C 142.949 3.53597 2.91089 0
M  V30 1551 N 144.44 3.54053 2.98664 0
M  V30 1552 C 145.175 4.45593 3.60881 0
M  V30 1553 N 144.671 5.47416 4.24626 0
M  V30 1554 N 146.464 4.33252 3.58119 0
M  V30 1555 H 138.615 2.08177 0.421437 0
M  V30 1556 H 140.878 0.914723 0.248969 0
M  V30 1557 H 140.584 3.18984 1.48128 0
M  V30 1558 H 140.458 2.3009 2.98895 0
M  V30 1559 H 142.845 1.38635 2.60508 0
M  V30 1560 H 142.926 2.31026 1.09821 0
M  V30 1561 H 142.57 4.46273 2.42493 0
M  V30 1562 H 142.5 3.50802 3.92741 0
M  V30 1563 H 144.991 2.80403 2.53343 0
M  V30 1564 H 145.304 6.13459 4.69987 0
M  V30 1565 H 143.649 5.51278 4.23223 0
M  V30 1566 H 146.84 3.52924 3.0751 0
M  V30 1567 H 147.013 5.04786 4.06319 0
M  V30 1568 N 140.419 -1.14872 1.07899 0
M  V30 1569 C 141.367 -2.21857 0.698727 0
M  V30 1570 C 142.361 -1.66845 -0.293086 0
M  V30 1571 O 143.567 -1.79321 -0.156204 0
M  V30 1572 H 139.942 -0.722691 0.207899 0
M  V30 1573 H 141.913 -2.51205 1.61054 0
M  V30 1574 C 140.662 -3.47498 0.11858 0
M  V30 1575 H 139.985 -3.90154 0.872914 0
M  V30 1576 H 141.425 -4.23858 -0.109759 0
M  V30 1577 C 139.884 -3.16947 -1.1422 0
M  V30 1578 O 140.414 -3.3426 -2.22785 0
M  V30 1579 N 138.62 -2.70946 -1.05055 0
M  V30 1580 H 138.167 -2.57058 -0.167038 0
M  V30 1581 H 138.125 -2.50879 -1.89491 0
M  V30 1582 N 141.898 -0.863906 -1.31812 0
M  V30 1583 C 142.831 -0.259963 -2.26714 0
M  V30 1584 C 143.809 0.607392 -1.50829 0
M  V30 1585 O 144.993 0.562155 -1.79922 0
M  V30 1586 C 142.12 0.632456 -3.32743 0
M  V30 1587 C 141.166 -0.162743 -4.26189 0
M  V30 1588 S 141.999 -1.53726 -5.12961 0
M  V30 1589 C 143.155 -0.650803 -6.22507 0
M  V30 1590 H 143.388 -1.06445 -2.77591 0
M  V30 1591 H 140.921 -0.662071 -1.39485 0
M  V30 1592 H 142.879 1.14167 -3.94305 0
M  V30 1593 H 141.54 1.41083 -2.80632 0
M  V30 1594 H 140.733 0.517366 -5.01338 0
M  V30 1595 H 140.335 -0.60385 -3.69093 0
M  V30 1596 H 142.627 0.141134 -6.77353 0
M  V30 1597 H 143.57 -1.37322 -6.94657 0
M  V30 1598 H 143.978 -0.221041 -5.64067 0
M  V30 1599 N 143.376 1.44774 -0.622745 0
M  V30 1600 C 144.622 2.0242 -0.124083 0
M  V30 1601 C 144.955 1.4881 1.24777 0
M  V30 1602 O 144.23 0.668799 1.8264 0
M  V30 1603 C 144.513 3.59957 -0.101619 0
M  V30 1604 C 144.366 4.23867 -1.50521 0
M  V30 1605 C 145.685 4.36284 0.578272 0
M  V30 1606 H 142.804 0.735528 -0.0465645 0
M  V30 1607 H 145.446 1.72447 -0.797617 0
M  V30 1608 H 143.596 3.85623 0.471934 0
M  V30 1609 H 145.268 4.09336 -2.12701 0
M  V30 1610 H 143.511 3.81684 -2.06154 0
M  V30 1611 H 144.182 5.32843 -1.4416 0
M  V30 1612 H 146.658 4.16001 0.0906057 0
M  V30 1613 H 145.534 5.46004 0.563149 0
M  V30 1614 H 145.795 4.10271 1.64713 0
M  V30 1615 N 144.854 0.36279 1.53368 0
M  V30 1616 C 146.082 -0.228613 2.05633 0
M  V30 1617 C 146.497 -1.42676 1.23649 0
M  V30 1618 O 145.854 -1.80394 0.27647 0
M  V30 1619 C 145.905 -0.624845 3.56059 0
M  V30 1620 O 145.626 0.525675 4.34935 0
M  V30 1621 C 147.127 -1.27493 4.24571 0
M  V30 1622 H 144.347 -0.0407183 0.669763 0
M  V30 1623 H 146.891 0.520352 1.97769 0
M  V30 1624 H 145.046 -1.32373 3.64083 0
M  V30 1625 H 145.46 0.205969 5.24095 0
M  V30 1626 H 146.934 -1.50277 5.31151 0
M  V30 1627 H 147.411 -2.23439 3.78116 0
M  V30 1628 H 148.017 -0.617558 4.20792 0
M  V30 1629 N 146.332 -1.57332 0.0918853 0
M  V30 1630 C 147.748 -1.57389 -0.264766 0
M  V30 1631 C 147.948 -1.10281 -1.68643 0
M  V30 1632 O 147.004 -0.777801 -2.40222 0
M  V30 1633 C 148.317 -3.00648 -0.0561195 0
M  V30 1634 C 149.865 -3.12754 -0.124116 0
M  V30 1635 C 150.34 -4.57965 0.0564972 0
M  V30 1636 N 151.831 -4.632 0.00155611 0
M  V30 1637 C 152.566 -5.73281 0.116598 0
M  V30 1638 N 152.062 -6.92208 0.286294 0
M  V30 1639 N 153.855 -5.6207 0.0580973 0
M  V30 1640 H 146.006 -1.86262 1.02079 0
M  V30 1641 H 148.269 -0.859579 0.399786 0
M  V30 1642 H 147.975 -3.393 0.925669 0
M  V30 1643 H 147.849 -3.68623 -0.799823 0
M  V30 1644 H 150.236 -2.73976 -1.09641 0
M  V30 1645 H 150.317 -2.47377 0.651024 0
M  V30 1646 H 149.961 -4.97436 1.02564 0
M  V30 1647 H 149.891 -5.21399 -0.738297 0
M  V30 1648 H 152.382 -3.77686 -0.127192 0
M  V30 1649 H 152.695 -7.71934 0.365676 0
M  V30 1650 H 151.04 -6.94254 0.32192 0
M  V30 1651 H 154.231 -4.68043 -0.0733204 0
M  V30 1652 H 154.404 -6.47824 0.151203 0
M  V30 1653 N 147.81 0.181792 -1.56548 0
M  V30 1654 C 149.05 0.906711 -1.83189 0
M  V30 1655 C 149.414 1.79882 -0.671312 0
M  V30 1656 O 150.615 2.56054 -0.81792 0
M  V30 1657 C 148.886 1.69023 -3.14906 0
M  V30 1658 S 150.445 2.46535 -3.62996 0
M  V30 1659 H 147.263 0.303877 -0.642791 0
M  V30 1660 H 149.865 0.169107 -1.94767 0
M  V30 1661 H 148.569 1.02571 -3.97376 0
M  V30 1662 H 148.1 2.46941 -3.06241 0
M  V30 1663 H 150.115 3.71014 -3.29489 0
M  V30 1664 N 149.288 1.51039 0.449983 0
M  V30 1665 C 150.236 1.71995 1.5659 0
M  V30 1666 C 151.23 0.586029 1.5894 0
M  V30 1667 O 152.436 0.76709 1.62837 0
M  V30 1668 H 148.811 0.543233 0.520001 0
M  V30 1669 H 150.782 2.65562 1.36085 0
M  V30 1670 C 149.531 1.8506 2.9436 0
M  V30 1671 H 148.854 2.71712 2.93279 0
M  V30 1672 H 150.294 2.0374 3.71842 0
M  V30 1673 C 148.753 0.607277 3.31382 0
M  V30 1674 O 149.283 -0.243903 4.00959 0
M  V30 1675 N 147.489 0.455073 2.87015 0
M  V30 1676 H 147.036 1.14879 2.30566 0
M  V30 1677 H 146.994 -0.375611 3.12148 0
M  V30 1678 N 150.766 -0.704594 1.40972 0
M  V30 1679 C 151.714 -1.83994 1.42299 0
M  V30 1680 C 152.708 -1.66684 0.302111 0
M  V30 1681 O 153.914 -1.73655 0.473697 0
M  V30 1682 H 150.289 -0.606171 0.44504 0
M  V30 1683 H 152.26 -1.79992 2.38003 0
M  V30 1684 C 151.009 -3.21946 1.31323 0
M  V30 1685 H 150.332 -3.35878 2.16855 0
M  V30 1686 H 151.772 -4.01491 1.36311 0
M  V30 1687 C 150.231 -3.36891 0.0245977 0
M  V30 1688 O 150.761 -3.90687 -0.934153 0
M  V30 1689 N 148.967 -2.90559 -0.0485243 0
M  V30 1690 H 148.514 -2.46968 0.732419 0
M  V30 1691 H 148.472 -3.00937 -0.910171 0
M  V30 1692 N 152.244 -1.26651 -0.937939 0
M  V30 1693 C 153.49 -1.12553 -1.687 0
M  V30 1694 C 153.823 0.329782 -1.91379 0
M  V30 1695 O 153.098 1.24202 -1.4968 0
M  V30 1696 C 153.381 -1.89862 -3.05981 0
M  V30 1697 C 153.234 -3.43318 -2.90607 0
M  V30 1698 C 154.553 -1.69499 -4.0615 0
M  V30 1699 H 151.672 -0.410257 -0.612257 0
M  V30 1700 H 154.314 -1.55685 -1.08913 0
M  V30 1701 H 152.464 -1.53204 -3.57017 0
M  V30 1702 H 154.136 -3.89747 -2.46769 0
M  V30 1703 H 152.379 -3.70179 -2.26164 0
M  V30 1704 H 153.05 -3.92642 -3.8799 0
M  V30 1705 H 155.526 -2.01442 -3.64088 0
M  V30 1706 H 154.402 -2.26002 -5.00214 0
M  V30 1707 H 154.663 -0.640365 -4.37438 0
M  V30 1708 N 153.722 1.14298 -1.08507 0
M  V30 1709 C 154.97 1.84993 -0.813763 0
M  V30 1710 C 155.291 1.83405 0.662393 0
M  V30 1711 O 154.561 1.28319 1.48024 0
M  V30 1712 H 153.141 0.684966 -0.298045 0
M  V30 1713 H 155.803 1.385 -1.37126 0
M  V30 1714 H 154.899 2.89788 -1.15884 0
M  V30 1715 N 155.201 0.870884 1.31352 0
M  V30 1716 C 156.447 0.482987 1.96965 0
M  V30 1717 C 156.78 -0.962462 1.68672 0
M  V30 1718 O 156.055 -1.6779 0.98371 0
M  V30 1719 C 156.338 0.741752 3.52378 0
M  V30 1720 C 156.191 2.2368 3.9024 0
M  V30 1721 C 157.51 0.208838 4.39604 0
M  V30 1722 H 154.629 0.176955 0.715441 0
M  V30 1723 H 157.271 1.09229 1.55464 0
M  V30 1724 H 155.421 0.223149 3.87859 0
M  V30 1725 H 157.093 2.82273 3.64856 0
M  V30 1726 H 155.336 2.70901 3.38814 0
M  V30 1727 H 156.007 2.3685 4.98604 0
M  V30 1728 H 158.483 0.652529 4.10952 0
M  V30 1729 H 157.359 0.419336 5.47296 0
M  V30 1730 H 157.62 -0.889275 4.33064 0
M  V30 1731 N 156.679 -1.44442 0.630414 0
M  V30 1732 C 158.095 -1.56832 0.295973 0
M  V30 1733 C 158.295 -1.61806 -1.20088 0
M  V30 1734 O 157.351 -1.5607 -1.9849 0
M  V30 1735 C 158.664 -2.84031 0.987264 0
M  V30 1736 C 160.212 -2.97742 0.96534 0
M  V30 1737 C 160.687 -4.27743 1.63708 0
M  V30 1738 N 162.178 -4.34555 1.60364 0
M  V30 1739 C 162.913 -5.33862 2.09234 0
M  V30 1740 N 162.409 -6.39578 2.66292 0
M  V30 1741 N 164.202 -5.25366 1.99867 0
M  V30 1742 H 156.353 -1.39457 1.60205 0
M  V30 1743 H 158.616 -0.668237 0.672431 0
M  V30 1744 H 158.322 -2.86338 2.04215 0
M  V30 1745 H 158.196 -3.73534 0.524588 0
M  V30 1746 H 160.583 -2.94989 -0.0810639 0
M  V30 1747 H 160.664 -2.09589 1.4665 0
M  V30 1748 H 160.308 -4.31255 2.68293 0
M  V30 1749 H 160.238 -5.14752 1.11076 0
M  V30 1750 H 162.729 -3.58772 1.18705 0
M  V30 1751 H 163.042 -7.11637 3.01317 0
M  V30 1752 H 161.387 -6.40265 2.70343 0
M  V30 1753 H 164.578 -4.41688 1.55013 0
M  V30 1754 H 164.751 -6.02606 2.38265 0
M  V30 1755 N 158.157 -0.370918 -1.53173 0
M  V30 1756 C 159.406 0.218249 -2.00516 0
M  V30 1757 C 159.719 1.49429 -1.26215 0
M  V30 1758 O 160.925 2.16239 -1.64174 0
M  V30 1759 C 159.381 0.43948 -3.57207 0
M  V30 1760 C 158.989 -0.822244 -4.4039 0
M  V30 1761 C 160.733 0.986012 -4.1289 0
M  V30 1762 C 158.64 -0.570304 -5.88644 0
M  V30 1763 H 157.57 0.0853333 -0.749156 0
M  V30 1764 H 160.221 -0.490483 -1.76823 0
M  V30 1765 H 158.603 1.20961 -3.77074 0
M  V30 1766 H 159.777 -1.59557 -4.32294 0
M  V30 1767 H 158.092 -1.29238 -3.95836 0
M  V30 1768 H 160.689 1.18991 -5.21292 0
M  V30 1769 H 161.032 1.94972 -3.6782 0
M  V30 1770 H 161.565 0.27592 -3.96842 0
M  V30 1771 H 158.304 -1.50449 -6.38001 0
M  V30 1772 H 157.824 0.164427 -5.99575 0
M  V30 1773 H 159.503 -0.19784 -6.46697 0
M  V30 1774 N 159.635 1.57281 -0.100228 0
M  V30 1775 C 160.865 1.98591 0.569681 0
M  V30 1776 C 161.273 0.978315 1.61943 0
M  V30 1777 O 160.616 -0.0396108 1.83657 0
M  V30 1778 C 160.678 3.36282 1.271 0
M  V30 1779 C 160.342 4.55488 0.371409 0
M  V30 1780 C 161.339 5.18491 -0.382504 0
M  V30 1781 C 159.024 5.01474 0.287965 0
M  V30 1782 C 161.018 6.25852 -1.20779 0
M  V30 1783 C 158.705 6.08701 -0.540965 0
M  V30 1784 C 159.703 6.70755 -1.28749 0
M  V30 1785 O 159.391 7.75914 -2.10269 0
M  V30 1786 H 159.123 0.65752 0.156982 0
M  V30 1787 H 161.677 2.0463 -0.177734 0
M  V30 1788 H 159.907 3.26941 2.0651 0
M  V30 1789 H 161.596 3.62005 1.83595 0
M  V30 1790 H 162.362 4.83891 -0.3278 0
M  V30 1791 H 158.241 4.52932 0.858689 0
M  V30 1792 H 161.785 6.74218 -1.79096 0
M  V30 1793 H 157.682 6.42732 -0.597131 0
M  V30 1794 H 158.45 7.92925 -2.03007 0
M  V30 1795 N 161.113 -0.173488 1.56642 0
M  V30 1796 C 162.359 -0.891784 1.8214 0
M  V30 1797 C 162.692 -1.8199 0.677736 0
M  V30 1798 O 161.967 -1.91842 -0.320446 0
M  V30 1799 C 162.25 -1.68933 3.18015 0
M  V30 1800 C 162.103 -0.784487 4.42906 0
M  V30 1801 C 163.422 -2.65748 3.50808 0
M  V30 1802 H 160.541 -0.322761 0.662567 0
M  V30 1803 H 163.183 -0.158095 1.89341 0
M  V30 1804 H 161.333 -2.31482 3.12007 0
M  V30 1805 H 163.005 -0.172046 4.60979 0
M  V30 1806 H 161.248 -0.0924117 4.33702 0
M  V30 1807 H 161.919 -1.37799 5.34524 0
M  V30 1808 H 164.395 -2.13327 3.57255 0
M  V30 1809 H 163.271 -3.18619 4.4696 0
M  V30 1810 H 163.532 -3.45842 2.75401 0
M  V30 1811 N 162.591 -1.51276 -0.441967 0
M  V30 1812 C 163.868 -1.54252 -1.20273 0
M  V30 1813 C 164.248 -0.30408 -2.08898 0
M  V30 1814 O 163.596 0.711084 -2.17154 0
M  V30 1815 C 163.806 -2.85406 -2.00859 0
M  V30 1816 C 165.154 -3.37181 -2.58059 0
M  V30 1817 O 166.178 -2.86925 -2.11074 0
M  V30 1818 O 165.037 -4.24858 -3.43741 0
M  V30 1819 H 162.131 -0.619969 -0.547328 0
M  V30 1820 H 164.677 -1.63586 -0.451413 0
M  V30 1821 H 163.449 -3.67003 -1.35736 0
M  V30 1822 H 163.072 -2.79213 -2.83065 0
M  V30 1823 N 164.069 0.697108 -1.41344 0
M  V30 1824 C 165.032 1.79281 -1.42797 0
M  V30 1825 C 166.032 1.57607 -0.318837 0
M  V30 1826 O 167.222 1.64309 -0.578642 0
M  V30 1827 C 164.354 3.17632 -1.23785 0
M  V30 1828 H 165.547 1.79385 -2.40335 0
M  V30 1829 H 163.1 0.904582 -1.27464 0
M  V30 1830 H 163.835 3.23167 -0.270814 0
M  V30 1831 H 163.62 3.34765 -2.04144 0
M  V30 1832 H 165.11 3.97617 -1.27633 0
M  V30 1833 N 165.547 1.27147 0.931209 0
M  V30 1834 C 166.793 1.13446 1.68101 0
M  V30 1835 C 167.126 -0.319628 1.91552 0
M  V30 1836 O 166.401 -1.23407 1.50336 0
M  V30 1837 C 166.684 1.91482 3.0497 0
M  V30 1838 C 166.537 3.44855 2.88782 0
M  V30 1839 C 167.856 1.71651 4.05246 0
M  V30 1840 H 164.975 0.413498 0.610072 0
M  V30 1841 H 167.617 1.56261 1.08086 0
M  V30 1842 H 165.767 1.55095 3.56199 0
M  V30 1843 H 167.439 3.9105 2.44698 0
M  V30 1844 H 165.682 3.71373 2.24198 0
M  V30 1845 H 166.353 3.94694 3.85902 0
M  V30 1846 H 168.829 2.0337 3.63015 0
M  V30 1847 H 167.705 2.28651 4.99009 0
M  V30 1848 H 167.966 0.663555 4.37092 0
M  V30 1849 N 167.025 -1.13721 1.09112 0
M  V30 1850 C 168.274 -1.84275 0.82009 0
M  V30 1851 C 168.587 -1.84253 -0.656509 0
M  V30 1852 O 169.793 -2.50668 -1.04296 0
M  V30 1853 C 168.249 -3.30825 1.41714 0
M  V30 1854 C 167.857 -3.39244 2.92605 0
M  V30 1855 C 169.601 -4.06443 1.22492 0
M  V30 1856 C 167.508 -4.80047 3.45411 0
M  V30 1857 H 166.438 -0.690387 0.30312 0
M  V30 1858 H 169.089 -1.28146 1.31343 0
M  V30 1859 H 167.471 -3.86737 0.851498 0
M  V30 1860 H 168.645 -2.93344 3.55367 0
M  V30 1861 H 166.96 -2.77088 3.10823 0
M  V30 1862 H 169.557 -5.10387 1.59402 0
M  V30 1863 H 169.9 -4.15972 0.165299 0
M  V30 1864 H 170.433 -3.56852 1.75788 0
M  V30 1865 H 167.172 -4.75709 4.50978 0
M  V30 1866 H 166.692 -5.26455 2.87411 0
M  V30 1867 H 168.371 -5.48957 3.42425 0
M  V30 1868 N 168.503 -0.877838 -1.30888 0
M  V30 1869 C 169.451 -0.328662 -2.30266 0
M  V30 1870 C 170.445 0.560496 -1.59859 0
M  V30 1871 O 171.651 0.445722 -1.74394 0
M  V30 1872 H 168.026 -0.0876142 -0.746879 0
M  V30 1873 H 169.997 -1.18061 -2.74051 0
M  V30 1874 C 168.746 0.448071 -3.44801 0
M  V30 1875 H 168.069 -0.226859 -3.99156 0
M  V30 1876 H 169.509 0.797541 -4.16432 0
M  V30 1877 C 167.968 1.64239 -2.94155 0
M  V30 1878 O 168.498 2.74175 -2.93583 0
M  V30 1879 N 166.704 1.47716 -2.50256 0
M  V30 1880 H 166.251 0.582821 -2.5092 0
M  V30 1881 H 166.209 2.27765 -2.16727 0
M  V30 1882 N 169.982 1.44106 -0.638065 0
M  V30 1883 C 170.932 2.27843 0.0847285 0
M  V30 1884 C 171.916 1.39055 0.809471 0
M  V30 1885 O 173.108 1.62808 0.694435 0
M  V30 1886 C 170.237 3.26497 1.06089 0
M  V30 1887 C 169.323 4.22772 0.33541 0
M  V30 1888 N 169.714 5.01737 -0.639787 0
M  V30 1889 C 168.012 4.42227 0.578921 0
M  V30 1890 C 168.713 5.71792 -1.06904 0
M  V30 1891 N 167.689 5.42079 -0.406395 0
M  V30 1892 H 171.491 2.86305 -0.663814 0
M  V30 1893 H 169.005 1.55627 -0.464122 0
M  V30 1894 H 171.002 3.8525 1.59337 0
M  V30 1895 H 169.662 2.69595 1.80966 0
M  V30 1896 H 170.673 5.07799 -1.01789 0
M  V30 1897 H 167.35 3.96415 1.31003 0
M  V30 1898 H 168.74 6.45205 -1.8751 0
M  V30 1899 N 171.46 0.379036 1.52974 0
M  V30 1900 C 172.393 -0.504932 2.22544 0
M  V30 1901 C 173.371 -1.0723 1.22231 0
M  V30 1902 O 174.555 -1.12589 1.51182 0
M  V30 1903 C 171.682 -1.69794 2.93066 0
M  V30 1904 C 170.728 -1.25678 4.07563 0
M  V30 1905 S 171.561 -0.246852 5.34931 0
M  V30 1906 C 172.717 -1.44588 6.08971 0
M  V30 1907 H 172.95 0.0858666 2.97176 0
M  V30 1908 H 170.483 0.163183 1.53535 0
M  V30 1909 H 172.441 -2.38219 3.34308 0
M  V30 1910 H 171.102 -2.26002 2.18133 0
M  V30 1911 H 170.295 -2.14725 4.5597 0
M  V30 1912 H 169.897 -0.651584 3.6828 0
M  V30 1913 H 172.189 -2.37469 6.34519 0
M  V30 1914 H 173.132 -1.00292 7.00962 0
M  V30 1915 H 173.54 -1.65804 5.39601 0
M  V30 1916 N 172.938 -1.57226 0.108567 0
M  V30 1917 C 174.178 -1.96717 -0.555155 0
M  V30 1918 C 174.542 -0.990003 -1.64508 0
M  V30 1919 O 175.743 -1.2739 -2.36696 0
M  V30 1920 C 174.014 -3.40575 -1.08367 0
M  V30 1921 S 175.573 -4.02072 -1.75737 0
M  V30 1922 H 172.391 -0.687638 -0.180762 0
M  V30 1923 H 174.993 -1.94563 0.191172 0
M  V30 1924 H 173.697 -4.0945 -0.279092 0
M  V30 1925 H 173.228 -3.46356 -1.86551 0
M  V30 1926 H 175.243 -3.91977 -3.04251 0
M  V30 1927 N 174.416 0.165178 -1.56732 0
M  V30 1928 C 175.664 0.879068 -1.8198 0
M  V30 1929 C 175.985 1.82514 -0.686561 0
M  V30 1930 O 175.255 1.93694 0.293146 0
M  V30 1931 H 173.835 0.327608 -0.671329 0
M  V30 1932 H 176.497 0.163526 -1.94213 0
M  V30 1933 H 175.593 1.45228 -2.76252 0
M  V30 1934 N 175.894 1.51508 0.433938 0
M  V30 1935 C 176.842 1.73646 1.54757 0
M  V30 1936 C 177.836 0.602854 1.5831 0
M  V30 1937 O 179.042 0.784318 1.62014 0
M  V30 1938 H 175.417 0.548718 0.51421 0
M  V30 1939 H 177.388 2.66991 1.33261 0
M  V30 1940 C 176.137 1.88172 2.92381 0
M  V30 1941 H 175.46 2.74808 2.90381 0
M  V30 1942 H 176.9 2.07672 3.6966 0
M  V30 1943 C 175.359 0.64239 3.30719 0
M  V30 1944 O 175.889 -0.201362 4.01195 0
M  V30 1945 N 174.095 0.485489 2.86516 0
M  V30 1946 H 173.642 1.17318 2.29334 0
M  V30 1947 H 173.6 -0.342482 3.12529 0
M  V30 1948 N 177.372 -0.689602 1.41712 0
M  V30 1949 C 178.335 -1.78521 1.43746 0
M  V30 1950 C 179.335 -1.57436 0.327191 0
M  V30 1951 O 180.525 -1.64 0.587348 0
M  V30 1952 C 177.657 -3.16971 1.25467 0
M  V30 1953 H 178.85 -1.78108 2.41283 0
M  V30 1954 H 176.403 -0.89781 1.27942 0
M  V30 1955 H 177.138 -3.23019 0.287948 0
M  V30 1956 H 176.923 -3.33678 2.05917 0
M  V30 1957 H 178.413 -3.96935 1.2974 0
M  V30 1958 N 178.85 -1.27639 -0.924453 0
M  V30 1959 C 180.096 -1.14336 -1.67497 0
M  V30 1960 C 180.429 0.309465 -1.91718 0
M  V30 1961 O 179.704 1.22608 -1.50989 0
M  V30 1962 C 179.987 -1.93096 -3.0395 0
M  V30 1963 C 179.84 -3.46381 -2.8695 0
M  V30 1964 C 181.159 -1.73798 -4.0433 0
M  V30 1965 H 178.278 -0.416728 -0.607871 0
M  V30 1966 H 180.92 -1.56832 -1.07256 0
M  V30 1967 H 179.07 -1.56982 -3.55372 0
M  V30 1968 H 180.742 -3.92343 -2.42621 0
M  V30 1969 H 178.985 -3.72557 -2.22225 0
M  V30 1970 H 179.656 -3.96735 -3.83804 0
M  V30 1971 H 182.132 -2.05293 -3.61931 0
M  V30 1972 H 181.008 -2.31294 -4.97789 0
M  V30 1973 H 181.269 -0.686725 -4.36734 0
M  V30 1974 N 180.328 1.1314 -1.09713 0
M  V30 1975 C 181.553 1.88862 -0.857081 0
M  V30 1976 C 181.978 1.78729 0.586304 0
M  V30 1977 O 181.336 1.13692 1.41222 0
M  V30 1978 C 181.384 3.36325 -1.30069 0
M  V30 1979 O 180.488 4.09815 -0.461007 0
M  V30 1980 H 179.829 0.587108 -0.310162 0
M  V30 1981 H 182.359 1.43129 -1.46203 0
M  V30 1982 H 182.369 3.87157 -1.28738 0
M  V30 1983 H 181.044 3.43017 -2.35185 0
M  V30 1984 H 179.621 3.68986 -0.538888 0
M  V30 1985 N 181.806 0.884767 1.30421 0
M  V30 1986 C 182.769 0.356277 2.26414 0
M  V30 1987 C 183.769 -0.501124 1.52792 0
M  V30 1988 O 184.959 -0.30831 1.7145 0
M  V30 1989 C 182.091 -0.492316 3.37326 0
M  V30 1990 H 183.284 1.20389 2.74675 0
M  V30 1991 H 180.837 0.661607 1.41607 0
M  V30 1992 H 181.572 -1.36052 2.94381 0
M  V30 1993 H 181.357 0.121832 3.91911 0
M  V30 1994 H 182.847 -0.853871 4.08777 0
M  V30 1995 N 183.284 -1.43765 0.645699 0
M  V30 1996 C 184.532 -2.01499 0.155731 0
M  V30 1997 C 184.853 -1.51151 -1.232 0
M  V30 1998 O 184.123 -0.721044 -1.82148 0
M  V30 1999 H 182.703 -0.745003 0.0545817 0
M  V30 2000 H 185.365 -1.76075 0.835677 0
M  V30 2001 H 184.461 -3.1181 0.134577 0
M  V30 2002 N 184.763 -0.387143 -1.52771 0
M  V30 2003 C 185.991 0.195869 -2.05971 0
M  V30 2004 C 186.406 1.40691 -1.25903 0
M  V30 2005 O 185.763 1.79931 -0.305134 0
M  V30 2006 C 185.814 0.56812 -3.57008 0
M  V30 2007 O 185.535 -0.594803 -4.34043 0
M  V30 2008 C 187.036 1.20723 -4.26545 0
M  V30 2009 H 184.256 0.0300578 -0.670326 0
M  V30 2010 H 186.8 -0.551749 -1.96916 0
M  V30 2011 H 184.955 1.26564 -3.66143 0
M  V30 2012 H 185.369 -0.289322 -5.23701 0
M  V30 2013 H 186.843 1.41807 -5.33474 0
M  V30 2014 H 187.32 2.17395 -3.81623 0
M  V30 2015 H 187.926 0.550535 -4.21722 0
M  V30 2016 N 186.241 1.57166 -0.116904 0
M  V30 2017 C 187.466 1.999 0.55271 0
M  V30 2018 C 187.891 0.996039 1.59564 0
M  V30 2019 O 187.249 -0.032556 1.81271 0
M  V30 2020 C 187.297 3.4152 1.15742 0
M  V30 2021 O 186.401 3.44106 2.27299 0
M  V30 2022 H 185.742 0.649447 0.138258 0
M  V30 2023 H 188.272 2.03573 -0.204759 0
M  V30 2024 H 188.282 3.79684 1.49346 0
M  V30 2025 H 186.957 4.14034 0.393493 0
M  V30 2026 H 185.534 3.17759 1.9515 0
M  V30 2027 N 187.719 -0.156864 1.56817 0
M  V30 2028 C 188.944 -0.890331 1.87318 0
M  V30 2029 C 189.369 -1.74394 0.704855 0
M  V30 2030 O 188.727 -1.77972 -0.345786 0
M  V30 2031 C 188.775 -1.73102 3.16336 0
M  V30 2032 O 187.879 -2.83422 2.99576 0
M  V30 2033 H 187.22 -0.24857 0.615718 0
M  V30 2034 H 189.75 -0.150649 2.04045 0
M  V30 2035 H 189.76 -2.12803 3.48107 0
M  V30 2036 H 188.435 -1.10412 4.00976 0
M  V30 2037 H 187.012 -2.47199 2.7919 0
M  V30 2038 N 189.197 -1.51736 -0.425897 0
M  V30 2039 C 190.425 -1.68794 -1.1965 0
M  V30 2040 C 190.84 -0.390164 -1.84725 0
M  V30 2041 O 190.197 0.632376 -1.71194 0
M  V30 2042 C 190.248 -2.81174 -2.27208 0
M  V30 2043 O 189.969 -4.05925 -1.64793 0
M  V30 2044 C 191.47 -3.09599 -3.17275 0
M  V30 2045 H 188.69 -0.566128 -0.360194 0
M  V30 2046 H 191.234 -1.98211 -0.503249 0
M  V30 2047 H 189.389 -2.54324 -2.9223 0
M  V30 2048 H 189.803 -4.68423 -2.35967 0
M  V30 2049 H 191.277 -3.91786 -3.88854 0
M  V30 2050 H 191.754 -2.22468 -3.78688 0
M  V30 2051 H 192.36 -3.38151 -2.57941 0
M  V30 2052 N 190.675 0.682077 -1.42076 0
M  V30 2053 C 191.915 1.45424 -1.43636 0
M  V30 2054 C 192.279 1.91939 -0.0484001 0
M  V30 2055 O 193.48 2.6873 0.0612514 0
M  V30 2056 C 191.751 2.62427 -2.42625 0
M  V30 2057 S 193.31 3.51379 -2.62827 0
M  V30 2058 H 190.128 0.496779 -0.508657 0
M  V30 2059 H 192.73 0.794645 -1.78621 0
M  V30 2060 H 191.434 2.26481 -3.42249 0
M  V30 2061 H 190.965 3.33266 -2.09039 0
M  V30 2062 H 192.98 4.58141 -1.9058 0
M  V30 2063 N 192.153 1.28127 0.917671 0
M  V30 2064 C 193.401 1.14825 1.66312 0
M  V30 2065 C 193.722 -0.304379 1.9261 0
M  V30 2066 O 192.992 -1.21149 1.53947 0
M  V30 2067 H 191.572 0.421953 0.616413 0
M  V30 2068 H 194.234 1.608 1.10134 0
M  V30 2069 H 193.33 1.68489 2.62712 0
M  V30 2070 N 193.631 -1.12557 1.10312 0
M  V30 2071 C 194.856 -1.88405 0.867085 0
M  V30 2072 C 195.281 -1.79038 -0.576817 0
M  V30 2073 O 194.639 -1.14439 -1.40618 0
M  V30 2074 C 194.687 -3.3563 1.31851 0
M  V30 2075 O 193.791 -4.09565 0.482734 0
M  V30 2076 H 193.132 -0.585455 0.313271 0
M  V30 2077 H 195.662 -1.42352 1.4696 0
M  V30 2078 H 195.672 -3.86469 1.3079 0
M  V30 2079 H 194.347 -3.41765 2.37001 0
M  V30 2080 H 192.924 -3.68695 0.558448 0
M  V30 2081 N 195.109 -0.891671 -1.2995 0
M  V30 2082 C 196.339 -0.527893 -1.99742 0
M  V30 2083 C 196.747 0.88979 -1.66971 0
M  V30 2084 O 196.09 1.59766 -0.906667 0
M  V30 2085 C 196.152 -0.630804 -3.53922 0
M  V30 2086 C 195.816 -2.01401 -4.10228 0
M  V30 2087 C 196.813 -2.98422 -4.25724 0
M  V30 2088 C 194.498 -2.32121 -4.45449 0
M  V30 2089 C 196.492 -4.24293 -4.75662 0
M  V30 2090 C 194.179 -3.58237 -4.95086 0
M  V30 2091 C 195.177 -4.54137 -5.10146 0
M  V30 2092 O 194.865 -5.78014 -5.58708 0
M  V30 2093 H 194.597 -0.201953 -0.645129 0
M  V30 2094 H 197.151 -1.20076 -1.66646 0
M  V30 2095 H 195.381 0.0990616 -3.86573 0
M  V30 2096 H 197.07 -0.277338 -4.04951 0
M  V30 2097 H 197.836 -2.76001 -3.98809 0
M  V30 2098 H 193.715 -1.5824 -4.32991 0
M  V30 2099 H 197.259 -4.99153 -4.87332 0
M  V30 2100 H 193.156 -3.80491 -5.21437 0
M  V30 2101 H 193.924 -5.8049 -5.77039 0
M  V30 2102 N 196.587 1.43421 -0.653314 0
M  V30 2103 C 197.834 2.01812 -0.166745 0
M  V30 2104 C 198.162 1.51535 1.21931 0
M  V30 2105 O 197.417 0.698975 1.82792 0
M  V30 2106 C 197.716 3.57176 -0.126623 0
M  V30 2107 C 197.382 4.26798 -1.45444 0
M  V30 2108 C 196.044 4.45534 -1.81805 0
M  V30 2109 C 198.396 4.66225 -2.32989 0
M  V30 2110 C 195.724 5.00961 -3.05377 0
M  V30 2111 C 198.076 5.23021 -3.55853 0
M  V30 2112 C 196.74 5.39973 -3.9241 0
M  V30 2113 H 196.01 0.738484 -0.0610162 0
M  V30 2114 H 198.657 1.71896 -0.84404 0
M  V30 2115 H 196.962 3.86634 0.634123 0
M  V30 2116 H 198.659 4.00112 0.266723 0
M  V30 2117 H 195.249 4.12561 -1.16153 0
M  V30 2118 H 199.433 4.51443 -2.06187 0
M  V30 2119 H 194.689 5.12271 -3.3375 0
M  V30 2120 H 198.863 5.52518 -4.23907 0
M  V30 2121 H 196.49 5.82687 -4.88242 0
M  V30 2122 N 198.065 0.39524 1.52563 0
M  V30 2123 C 199.013 -0.451859 2.28169 0
M  V30 2124 C 200.007 -1.05792 1.32304 0
M  V30 2125 O 201.213 -0.997718 1.49818 0
M  V30 2126 H 197.588 -0.164481 0.733792 0
M  V30 2127 H 199.559 0.207199 2.9768 0
M  V30 2128 C 198.308 -1.56385 3.10546 0
M  V30 2129 H 197.631 -1.10682 3.84174 0
M  V30 2130 H 199.071 -2.13067 3.66577 0
M  V30 2131 C 197.53 -2.52328 2.23231 0
M  V30 2132 O 198.06 -3.5588 1.86312 0
M  V30 2133 N 196.266 -2.22209 1.87274 0
M  V30 2134 H 195.813 -1.38033 2.17496 0
M  V30 2135 H 195.771 -2.86652 1.29143 0
M  V30 2136 N 199.544 -1.57102 0.125237 0
M  V30 2137 C 200.955 -1.82384 -0.399142 0
M  V30 2138 C 201.306 -1.04276 -1.66195 0
M  V30 2139 O 200.431 -0.281269 -2.14564 0
M  V30 2140 C 201.026 -3.30821 -0.730932 0
M  V30 2141 C 199.585 -3.56762 -1.19992 0
M  V30 2142 C 198.732 -2.7649 -0.211792 0
M  V30 2143 H 201.683 -1.54786 0.350277 0
M  V30 2144 H 201.704 -3.4579 -1.58775 0
M  V30 2145 H 201.216 -3.87643 0.188345 0
M  V30 2146 H 199.317 -3.05305 -2.13588 0
M  V30 2147 H 199.43 -4.65317 -1.14093 0
M  V30 2148 H 197.794 -2.4489 -0.700085 0
M  V30 2149 H 198.577 -3.36073 0.700691 0
M  V30 2150 N 201.022 0.148545 -1.56898 0
M  V30 2151 C 202.27 0.859717 -1.82902 0
M  V30 2152 C 202.591 1.81775 -0.70588 0
M  V30 2153 O 201.861 1.93994 0.272586 0
M  V30 2154 H 200.441 0.320469 -0.674766 0
M  V30 2155 H 203.103 0.142918 -1.94375 0
M  V30 2156 H 202.199 1.4229 -2.77777 0
M  V30 2157 N 202.5 1.5196 0.417844 0
M  V30 2158 C 203.725 1.69717 1.1921 0
M  V30 2159 C 204.15 0.402148 1.83751 0
M  V30 2160 O 203.508 -0.639593 1.69643 0
M  V30 2161 C 203.556 2.82794 2.2374 0
M  V30 2162 O 202.66 2.47756 3.29683 0
M  V30 2163 H 202.001 0.565263 0.348387 0
M  V30 2164 H 204.531 1.98621 0.490985 0
M  V30 2165 H 204.541 3.07452 2.68212 0
M  V30 2166 H 203.216 3.76756 1.76146 0
M  V30 2167 H 201.793 2.33739 2.90552 0
M  V30 2168 N 203.978 -0.674533 1.42435 0
M  V30 2169 C 205.394 -0.98769 1.25367 0
M  V30 2170 C 205.594 -2.00879 0.158044 0
M  V30 2171 O 204.65 -2.48075 -0.470633 0
M  V30 2172 C 205.963 -1.49224 2.6106 0
M  V30 2173 C 207.511 -1.61 2.68417 0
M  V30 2174 C 207.986 -2.14852 4.04478 0
M  V30 2175 N 209.477 -2.22185 4.06434 0
M  V30 2176 C 210.212 -2.64928 5.08528 0
M  V30 2177 N 209.708 -3.07121 6.21006 0
M  V30 2178 N 211.501 -2.64679 4.95885 0
M  V30 2179 H 203.652 0.00152503 2.124 0
M  V30 2180 H 205.915 -0.0618434 0.945981 0
M  V30 2181 H 205.621 -0.816453 3.42092 0
M  V30 2182 H 205.495 -2.47094 2.84999 0
M  V30 2183 H 207.882 -2.27686 1.87732 0
M  V30 2184 H 207.963 -0.616195 2.48267 0
M  V30 2185 H 207.607 -1.48775 4.85622 0
M  V30 2186 H 207.537 -3.15024 4.2198 0
M  V30 2187 H 210.028 -1.92435 3.25234 0
M  V30 2188 H 210.341 -3.38423 6.94759 0
M  V30 2189 H 208.686 -3.04978 6.24511 0
M  V30 2190 H 211.877 -2.31078 4.07088 0
M  V30 2191 H 212.05 -2.9767 5.75584 0
M  V30 2192 N 205.456 -1.28612 -0.910864 0
M  V30 2193 C 206.733 -1.06632 -1.63979 0
M  V30 2194 C 207.113 0.393351 -2.07403 0
M  V30 2195 O 206.461 1.37999 -1.82122 0
M  V30 2196 C 206.671 -2.0436 -2.8291 0
M  V30 2197 C 208.019 -2.34666 -3.5386 0
M  V30 2198 O 209.043 -2.02467 -2.93062 0
M  V30 2199 O 207.902 -2.89631 -4.63439 0
M  V30 2200 H 204.996 -0.407737 -0.7195 0
M  V30 2201 H 207.542 -1.39942 -0.959914 0
M  V30 2202 H 206.314 -3.02727 -2.47936 0
M  V30 2203 H 205.937 -1.71714 -3.58609 0
M  V30 2204 N 206.934 1.1197 -1.10907 0
M  V30 2205 C 208.181 1.83588 -0.854507 0
M  V30 2206 C 208.509 1.84357 0.6199 0
M  V30 2207 O 207.764 1.28809 1.47332 0
M  V30 2208 C 208.063 3.30749 -1.35425 0
M  V30 2209 C 207.729 3.50146 -2.84093 0
M  V30 2210 C 206.391 3.55148 -3.2469 0
M  V30 2211 C 208.743 3.56857 -3.79872 0
M  V30 2212 C 206.071 3.6441 -4.59806 0
M  V30 2213 C 208.423 3.6765 -5.14797 0
M  V30 2214 C 207.087 3.7091 -5.54961 0
M  V30 2215 H 206.357 0.671795 -0.312686 0
M  V30 2216 H 209.004 1.32091 -1.38652 0
M  V30 2217 H 207.309 3.84703 -0.742361 0
M  V30 2218 H 209.006 3.8464 -1.1337 0
M  V30 2219 H 205.596 3.46919 -2.51685 0
M  V30 2220 H 209.78 3.52258 -3.49611 0
M  V30 2221 H 205.036 3.65208 -4.9034 0
M  V30 2222 H 209.21 3.71786 -5.88853 0
M  V30 2223 H 206.837 3.7784 -6.59652 0
M  V30 2224 N 208.412 0.89855 1.29475 0
M  V30 2225 C 209.823 0.572537 1.77705 0
M  V30 2226 C 210.174 -0.911778 1.73727 0
M  V30 2227 O 209.299 -1.71288 1.32247 0
M  V30 2228 C 209.894 1.03252 3.22683 0
M  V30 2229 C 208.453 0.757687 3.68695 0
M  V30 2230 C 207.6 1.20787 2.49612 0
M  V30 2231 H 210.551 1.08139 1.16153 0
M  V30 2232 H 210.572 0.367307 3.78723 0
M  V30 2233 H 210.084 2.11285 3.25546 0
M  V30 2234 H 208.185 -0.310079 3.71308 0
M  V30 2235 H 208.298 1.35476 4.59547 0
M  V30 2236 H 206.662 0.626888 2.46865 0
M  V30 2237 H 207.445 2.29622 2.55203 0
M  V30 2238 N 209.89 -1.43072 0.660911 0
M  V30 2239 C 210.853 -2.29194 -0.0166406 0
M  V30 2240 C 211.853 -1.42609 -0.742912 0
M  V30 2241 O 213.043 -1.64155 -0.583004 0
M  V30 2242 C 210.175 -3.24831 -1.0343 0
M  V30 2243 H 211.368 -2.90596 0.741208 0
M  V30 2244 H 208.921 -1.5048 0.422532 0
M  V30 2245 H 209.656 -2.68339 -1.82111 0
M  V30 2246 H 209.441 -3.88676 -0.517082 0
M  V30 2247 H 210.931 -3.89451 -1.50723 0
M  V30 2248 N 211.368 -0.403325 -1.52352 0
M  V30 2249 C 212.614 0.174605 -2.02047 0
M  V30 2250 C 212.947 1.45282 -1.28867 0
M  V30 2251 O 212.222 1.90483 -0.393257 0
M  V30 2252 C 212.505 0.428238 -3.57545 0
M  V30 2253 C 212.358 -0.866248 -4.4138 0
M  V30 2254 C 213.677 1.21287 -4.23057 0
M  V30 2255 H 210.796 0.0619851 -0.734389 0
M  V30 2256 H 213.438 -0.53565 -1.82293 0
M  V30 2257 H 211.588 1.03327 -3.74507 0
M  V30 2258 H 213.26 -1.50265 -4.3614 0
M  V30 2259 H 211.503 -1.47851 -4.07827 0
M  V30 2260 H 212.174 -0.643249 -5.48239 0
M  V30 2261 H 214.65 0.700703 -4.10158 0
M  V30 2262 H 213.526 1.35909 -5.31808 0
M  V30 2263 H 213.787 2.23193 -3.81625 0
M  V30 2264 N 212.846 1.57033 -0.133567 0
M  V30 2265 C 214.257 1.82593 0.389464 0
M  V30 2266 C 214.608 1.05156 1.6564 0
M  V30 2267 O 213.733 0.292644 2.14412 0
M  V30 2268 C 214.328 3.31204 0.713377 0
M  V30 2269 C 212.887 3.57393 1.18098 0
M  V30 2270 C 212.034 2.76598 0.197126 0
M  V30 2271 H 214.985 1.54598 -0.358481 0
M  V30 2272 H 215.006 3.46627 1.56939 0
M  V30 2273 H 214.518 3.87537 -0.2089 0
M  V30 2274 H 212.619 3.06433 2.11966 0
M  V30 2275 H 212.732 4.65915 1.11624 0
M  V30 2276 H 211.096 2.45257 0.687088 0
M  V30 2277 H 211.879 3.35697 -0.718504 0
M  V30 2278 N 214.325 -0.140222 1.56975 0
M  V30 2279 C 215.555 -0.865181 1.87612 0
M  V30 2280 C 215.963 -1.74942 0.72055 0
M  V30 2281 O 215.306 -1.80917 -0.318561 0
M  V30 2282 C 215.368 -1.76782 3.13031 0
M  V30 2283 C 215.032 -1.06005 4.44536 0
M  V30 2284 C 216.029 -0.410768 5.18275 0
M  V30 2285 C 213.714 -1.04754 4.91255 0
M  V30 2286 C 215.708 0.241572 6.36942 0
M  V30 2287 C 213.395 -0.391394 6.09845 0
M  V30 2288 C 214.393 0.252029 6.82535 0
M  V30 2289 O 214.081 0.897757 7.98871 0
M  V30 2290 H 213.813 -0.255188 0.625983 0
M  V30 2291 H 216.367 -0.135653 2.04952 0
M  V30 2292 H 214.597 -2.53846 2.91718 0
M  V30 2293 H 216.286 -2.36533 3.29859 0
M  V30 2294 H 217.052 -0.412195 4.83245 0
M  V30 2295 H 212.931 -1.53777 4.34596 0
M  V30 2296 H 216.475 0.744375 6.93617 0
M  V30 2297 H 212.372 -0.387656 6.44335 0
M  V30 2298 H 213.14 0.800102 8.1458 0
M  V30 2299 N 215.803 -1.52179 -0.40978 0
M  V30 2300 C 217.028 -1.70347 -1.18308 0
M  V30 2301 C 217.453 -0.411887 -1.83535 0
M  V30 2302 O 216.811 0.630587 -1.6998 0
M  V30 2303 C 216.859 -2.83977 -2.22238 0
M  V30 2304 O 215.963 -2.495 -3.28365 0
M  V30 2305 H 215.304 -0.567103 -0.345384 0
M  V30 2306 H 217.834 -1.98879 -0.480445 0
M  V30 2307 H 217.844 -3.0887 -2.66577 0
M  V30 2308 H 216.519 -3.77685 -1.74146 0
M  V30 2309 H 215.096 -2.35277 -2.89308 0
M  V30 2310 N 217.281 0.66697 -1.42791 0
M  V30 2311 C 218.529 1.42417 -1.43394 0
M  V30 2312 C 218.85 1.94925 -0.0542373 0
M  V30 2313 O 218.12 1.73564 0.908415 0
M  V30 2314 H 216.7 0.528515 -0.527902 0
M  V30 2315 H 219.362 0.787562 -1.78279 0
M  V30 2316 H 218.458 2.27333 -2.13837 0
M  V30 2317 N 218.759 1.29093 0.90403 0
M  V30 2318 C 220.005 1.17996 1.65676 0
M  V30 2319 C 220.36 -0.266816 1.90541 0
M  V30 2320 O 219.653 -1.19 1.50165 0
M  V30 2321 C 219.847 1.92224 3.01305 0
M  V30 2322 C 219.676 3.43972 2.89678 0
M  V30 2323 C 218.446 4.1332 2.90679 0
M  V30 2324 C 220.644 4.39546 2.67028 0
M  V30 2325 N 218.626 5.51463 2.69743 0
M  V30 2326 C 219.997 5.65119 2.5503 0
M  V30 2327 C 222.052 4.29359 2.52101 0
M  V30 2328 C 220.755 6.81663 2.29626 0
M  V30 2329 C 222.781 5.4565 2.28079 0
M  V30 2330 C 222.143 6.70193 2.16843 0
M  V30 2331 H 218.242 0.486759 0.612037 0
M  V30 2332 H 220.826 1.62868 1.06688 0
M  V30 2333 H 218.997 1.49773 3.58361 0
M  V30 2334 H 220.729 1.73429 3.65656 0
M  V30 2335 H 217.484 3.64984 3.01801 0
M  V30 2336 H 217.908 6.24105 2.6234 0
M  V30 2337 H 222.55 3.33769 2.59534 0
M  V30 2338 H 220.268 7.77313 2.20932 0
M  V30 2339 H 223.854 5.39664 2.1738 0
M  V30 2340 H 222.734 7.58659 1.98511 0
M  V30 2341 N 220.237 -1.11381 1.11499 0
M  V30 2342 C 221.514 -1.7955 0.775965 0
M  V30 2343 C 221.894 -1.97859 -0.73588 0
M  V30 2344 O 221.242 -1.56376 -1.66609 0
M  V30 2345 C 221.452 -3.13196 1.53977 0
M  V30 2346 C 222.8 -3.88227 1.71944 0
M  V30 2347 O 223.824 -3.22887 1.50407 0
M  V30 2348 O 222.683 -5.05477 2.07738 0
M  V30 2349 H 219.777 -0.777728 0.28119 0
M  V30 2350 H 222.323 -1.18118 1.21845 0
M  V30 2351 H 221.095 -2.95229 2.56818 0
M  V30 2352 H 220.718 -3.82342 1.09088 0
M  V30 2353 N 221.715 -0.905404 -1.28997 0
M  V30 2354 C 222.962 -0.534248 -1.95325 0
M  V30 2355 C 223.29 0.920535 -1.71337 0
M  V30 2356 O 222.545 1.66861 -1.02254 0
M  V30 2357 C 222.844 -0.779906 -3.48787 0
M  V30 2358 C 222.51 -2.21293 -3.92861 0
M  V30 2359 C 221.172 -2.60475 -4.04606 0
M  V30 2360 C 223.524 -3.14587 -4.15553 0
M  V30 2361 C 220.852 -3.9212 -4.36416 0
M  V30 2362 C 223.204 -4.45787 -4.48839 0
M  V30 2363 C 221.868 -4.84834 -4.58794 0
M  V30 2364 H 221.138 -0.195495 -0.714747 0
M  V30 2365 H 223.785 -1.14514 -1.53488 0
M  V30 2366 H 222.09 -0.0861365 -3.91705 0
M  V30 2367 H 223.787 -0.472029 -3.98212 0
M  V30 2368 H 220.377 -1.89887 -3.84241 0
M  V30 2369 H 224.561 -2.85528 -4.0594 0
M  V30 2370 H 219.817 -4.22086 -4.42327 0
M  V30 2371 H 223.991 -5.18098 -4.65346 0
M  V30 2372 H 221.618 -5.86877 -4.83197 0
M  V30 2373 N 223.193 1.4272 -0.668489 0
M  V30 2374 C 224.141 2.32586 0.0254857 0
M  V30 2375 C 225.135 1.49471 0.797176 0
M  V30 2376 O 226.341 1.65583 0.705853 0
M  V30 2377 H 222.716 0.751514 0.0270339 0
M  V30 2378 H 224.687 2.88823 -0.749936 0
M  V30 2379 C 223.436 3.3397 0.967427 0
M  V30 2380 H 222.759 3.97961 0.383048 0
M  V30 2381 H 224.199 3.9945 1.42181 0
M  V30 2382 C 222.658 2.65744 2.0708 0
M  V30 2383 O 223.188 2.48454 3.15648 0
M  V30 2384 N 221.394 2.2487 1.8407 0
M  V30 2385 H 220.941 2.39132 0.95778 0
M  V30 2386 H 220.899 1.79552 2.58086 0
M  V30 2387 N 224.671 0.411399 1.52136 0
M  V30 2388 C 225.948 -0.222308 1.94333 0
M  V30 2389 C 226.328 -1.6242 1.34844 0
M  V30 2390 O 225.676 -2.22384 0.525145 0
M  V30 2391 C 225.886 -0.226345 3.48265 0
M  V30 2392 C 227.234 -0.444592 4.22266 0
M  V30 2393 O 228.258 -0.305602 3.54887 0
M  V30 2394 O 227.117 -0.718749 5.41753 0
M  V30 2395 H 224.211 -0.143907 0.814383 0
M  V30 2396 H 226.757 0.467506 1.63133 0
M  V30 2397 H 225.529 0.75475 3.83952 0
M  V30 2398 H 225.152 -0.960163 3.85832 0
M  V30 2399 N 226.149 -1.5696 0.141893 0
M  V30 2400 C 227.397 -1.95573 -0.509484 0
M  V30 2401 C 227.718 -1.02746 -1.65736 0
M  V30 2402 O 226.988 -0.0880311 -1.95702 0
M  V30 2403 H 225.568 -0.722115 -0.191205 0
M  V30 2404 H 228.23 -1.93697 0.216196 0
M  V30 2405 H 227.326 -2.99171 -0.889 0
M  V30 2406 N 227.627 0.131896 -1.57047 0
M  V30 2407 C 228.574 1.16236 -1.99393 0
M  V30 2408 C 229.544 1.41863 -0.863943 0
M  V30 2409 O 230.729 1.53946 -1.12718 0
M  V30 2410 C 227.869 2.48708 -2.39245 0
M  V30 2411 C 226.982 2.30127 -3.65603 0
M  V30 2412 C 226.117 3.55738 -3.94492 0
M  V30 2413 C 225.156 3.32259 -5.14073 0
M  V30 2414 N 224.293 4.50039 -5.38896 0
M  V30 2415 H 229.133 0.794251 -2.87221 0
M  V30 2416 H 226.67 0.380707 -1.42088 0
M  V30 2417 H 228.628 3.25969 -2.60384 0
M  V30 2418 H 227.258 2.83437 -1.54478 0
M  V30 2419 H 226.31 1.43845 -3.52154 0
M  V30 2420 H 227.622 2.08746 -4.5302 0
M  V30 2421 H 226.776 4.41423 -4.1621 0
M  V30 2422 H 225.515 3.80138 -3.05526 0
M  V30 2423 H 224.52 2.44963 -4.92212 0
M  V30 2424 H 225.745 3.09242 -6.04604 0
M  V30 2425 H 223.691 4.74584 -4.52886 0
M  V30 2426 H 223.608 4.31716 -6.2061 0
M  V30 2427 H 224.876 5.36895 -5.65123 0
M  V30 2428 N 229.106 1.52395 0.401703 0
M  V30 2429 C 230.346 1.68498 1.15705 0
M  V30 2430 C 230.71 0.409748 1.87577 0
M  V30 2431 O 231.911 0.446983 2.65058 0
M  V30 2432 C 230.182 2.87789 2.11924 0
M  V30 2433 S 231.741 3.24415 2.95466 0
M  V30 2434 H 228.559 0.593267 0.391862 0
M  V30 2435 H 231.161 1.90408 0.443282 0
M  V30 2436 H 229.865 3.7884 1.57824 0
M  V30 2437 H 229.396 2.68175 2.87829 0
M  V30 2438 H 231.411 2.73614 4.13944 0
M  V30 2439 N 230.584 -0.659388 1.43143 0
M  V30 2440 C 231.531 -1.77249 1.47822 0
M  V30 2441 C 232.501 -1.62818 0.328558 0
M  V30 2442 O 233.686 -1.83151 0.534838 0
M  V30 2443 C 230.826 -3.15371 1.40126 0
M  V30 2444 C 229.939 -3.4098 2.65249 0
M  V30 2445 C 229.074 -4.68915 2.49584 0
M  V30 2446 C 228.113 -4.87608 3.70006 0
M  V30 2447 N 227.25 -6.06796 3.53189 0
M  V30 2448 H 232.09 -1.72584 2.42938 0
M  V30 2449 H 229.627 -0.842297 1.20598 0
M  V30 2450 H 231.585 -3.9521 1.33659 0
M  V30 2451 H 230.215 -3.19121 0.485964 0
M  V30 2452 H 229.267 -2.55282 2.8202 0
M  V30 2453 H 230.579 -3.50681 3.54717 0
M  V30 2454 H 229.733 -5.56871 2.4079 0
M  V30 2455 H 228.472 -4.61524 1.5763 0
M  V30 2456 H 227.477 -3.9809 3.79215 0
M  V30 2457 H 228.702 -4.96834 4.62961 0
M  V30 2458 H 226.648 -6.00549 2.63965 0
M  V30 2459 H 226.565 -6.17428 4.36255 0
M  V30 2460 H 227.833 -6.9739 3.48236 0
M  V30 2461 N 232.062 -1.29571 -0.897171 0
M  V30 2462 C 233.29 -1.20583 -1.68129 0
M  V30 2463 C 233.705 0.233181 -1.87354 0
M  V30 2464 O 233.062 1.15579 -1.41236 0
M  V30 2465 C 233.113 -1.91772 -3.06441 0
M  V30 2466 O 232.834 -3.30053 -2.88091 0
M  V30 2467 C 234.335 -1.89291 -4.00854 0
M  V30 2468 H 231.555 -0.417826 -0.525036 0
M  V30 2469 H 234.099 -1.70987 -1.12177 0
M  V30 2470 H 232.254 -1.45196 -3.59161 0
M  V30 2471 H 232.668 -3.65942 -3.75748 0
M  V30 2472 H 234.142 -2.43662 -4.95311 0
M  V30 2473 H 234.619 -0.869014 -4.30517 0
M  V30 2474 H 235.225 -2.35622 -3.54066 0
M  V30 2475 N 233.54 1.10788 -1.12088 0
M  V30 2476 C 234.788 1.8231 -0.872205 0
M  V30 2477 C 235.109 1.85419 0.603709 0
M  V30 2478 O 234.379 1.32963 1.43867 0
M  V30 2479 H 232.959 0.675137 -0.319686 0
M  V30 2480 H 235.621 1.34068 -1.41463 0
M  V30 2481 H 234.717 2.85955 -1.25045 0
M  V30 2482 N 235.018 0.912232 1.28515 0
M  V30 2483 C 236.243 0.559774 1.99703 0
M  V30 2484 C 236.668 -0.851393 1.67729 0
M  V30 2485 O 236.026 -1.56875 0.908834 0
M  V30 2486 C 236.074 0.773874 3.52198 0
M  V30 2487 O 235.178 -0.167842 4.12058 0
M  V30 2488 H 234.519 0.21723 0.627461 0
M  V30 2489 H 237.049 1.22725 1.63706 0
M  V30 2490 H 237.059 0.683386 4.02236 0
M  V30 2491 H 235.734 1.80261 3.74805 0
M  V30 2492 H 234.311 -0.0287509 3.72889 0
M  V30 2493 N 236.496 -1.42363 0.676048 0
M  V30 2494 C 237.744 -2.01123 0.198437 0
M  V30 2495 C 238.065 -1.53731 -1.19966 0
M  V30 2496 O 237.335 -0.759518 -1.80577 0
M  V30 2497 H 235.915 -0.743678 0.0703721 0
M  V30 2498 H 238.577 -1.74263 0.872837 0
M  V30 2499 H 237.673 -3.11454 0.200686 0
M  V30 2500 N 237.974 -0.419461 -1.51915 0
M  V30 2501 C 239.251 0.211999 -1.94448 0
M  V30 2502 C 239.631 1.61703 -1.35703 0
M  V30 2503 O 238.979 2.22102 -0.536931 0
M  V30 2504 C 239.189 0.207872 -3.4838 0
M  V30 2505 C 240.537 0.422192 -4.22496 0
M  V30 2506 O 241.561 0.286778 -3.55044 0
M  V30 2507 O 240.42 0.690009 -5.42126 0
M  V30 2508 H 237.514 0.139586 -0.815135 0
M  V30 2509 H 240.06 -0.476151 -1.62883 0
M  V30 2510 H 238.832 -0.775102 -3.83546 0
M  V30 2511 H 238.455 0.939688 -3.86336 0
M  V30 2512 N 239.452 1.56882 -0.150215 0
M  V30 2513 C 240.701 1.95403 0.500071 0
M  V30 2514 C 241.014 1.03777 1.658 0
M  V30 2515 O 242.22 1.31889 2.37313 0
M  V30 2516 C 240.676 3.4738 0.941018 0
M  V30 2517 C 240.284 4.47596 -0.190158 0
M  V30 2518 C 242.028 3.9476 1.56091 0
M  V30 2519 C 239.935 5.90787 0.269237 0
M  V30 2520 H 238.865 0.729515 0.190588 0
M  V30 2521 H 241.516 1.81988 -0.235074 0
M  V30 2522 H 239.898 3.56138 1.73152 0
M  V30 2523 H 241.072 4.50536 -0.967157 0
M  V30 2524 H 239.387 4.10151 -0.718666 0
M  V30 2525 H 241.984 4.99181 1.9163 0
M  V30 2526 H 242.327 3.36494 2.45107 0
M  V30 2527 H 242.86 3.88932 0.835249 0
M  V30 2528 H 239.599 6.52879 -0.585621 0
M  V30 2529 H 239.119 5.912 1.01204 0
M  V30 2530 H 240.798 6.42979 0.720176 0
M  V30 2531 N 240.93 -0.123565 1.57115 0
M  V30 2532 C 241.84 -1.17074 2.033 0
M  V30 2533 C 242.856 -1.4561 0.952559 0
M  V30 2534 O 244.032 -1.56817 1.26374 0
M  V30 2535 C 241.097 -2.47857 2.42421 0
M  V30 2536 C 240.158 -2.26758 3.64526 0
M  V30 2537 C 239.391 -3.51305 4.01771 0
M  V30 2538 O 239.614 -4.5843 3.39409 0
M  V30 2539 O 238.548 -3.42578 4.94898 0
M  V30 2540 H 242.374 -0.808555 2.92739 0
M  V30 2541 H 239.959 -0.334027 1.45618 0
M  V30 2542 H 241.841 -3.2492 2.68338 0
M  V30 2543 H 240.516 -2.83558 1.5613 0
M  V30 2544 H 239.423 -1.47569 3.43765 0
M  V30 2545 H 240.756 -1.95963 4.51508 0
M  V30 2546 N 242.408 -1.52605 -0.393616 0
M  V30 2547 C 243.356 -1.77688 -1.50099 0
M  V30 2548 C 244.35 -0.644615 -1.56656 0
M  V30 2549 O 245.556 -0.826997 -1.59877 0
M  V30 2550 H 241.931 -0.562159 -0.499481 0
M  V30 2551 H 243.902 -2.7043 -1.26135 0
M  V30 2552 C 242.651 -1.95858 -2.87289 0
M  V30 2553 H 241.974 -2.8241 -2.82992 0
M  V30 2554 H 243.414 -2.174 -3.64024 0
M  V30 2555 C 241.873 -0.729848 -3.28899 0
M  V30 2556 O 242.403 0.0949217 -4.01588 0
M  V30 2557 N 240.609 -0.561283 -2.85128 0
M  V30 2558 H 240.156 -1.23357 -2.26143 0
M  V30 2559 H 240.114 0.2595 -3.13327 0
M  V30 2560 N 243.887 0.651787 -1.4349 0
M  V30 2561 C 245.117 1.43728 -1.48411 0
M  V30 2562 C 245.525 1.8893 -0.10103 0
M  V30 2563 O 244.868 1.60182 0.899307 0
M  V30 2564 C 244.93 2.70411 -2.36893 0
M  V30 2565 C 244.594 2.4714 -3.8441 0
M  V30 2566 C 245.591 2.10271 -4.75481 0
M  V30 2567 C 243.276 2.6142 -4.28912 0
M  V30 2568 C 245.27 1.87982 -6.0905 0
M  V30 2569 C 242.957 2.38746 -5.62533 0
M  V30 2570 C 243.955 2.02083 -6.5242 0
M  V30 2571 O 243.643 1.79647 -7.8357 0
M  V30 2572 H 243.375 0.447962 -0.506267 0
M  V30 2573 H 245.929 0.80624 -1.88915 0
M  V30 2574 H 244.159 3.36079 -1.91278 0
M  V30 2575 H 245.848 3.32364 -2.33 0
M  V30 2576 H 246.614 1.98814 -4.42378 0
M  V30 2577 H 242.493 2.88931 -3.59222 0
M  V30 2578 H 246.037 1.5929 -6.7917 0
M  V30 2579 H 241.934 2.49806 -5.95203 0
M  V30 2580 H 242.702 1.9406 -7.95162 0
M  V30 2581 N 245.365 1.30045 0.890287 0
M  V30 2582 C 246.313 1.15873 2.01683 0
M  V30 2583 C 247.307 0.0719403 1.69247 0
M  V30 2584 O 248.513 0.232414 1.78493 0
M  V30 2585 H 244.888 0.358203 0.661207 0
M  V30 2586 H 246.859 2.11229 2.10772 0
M  V30 2587 C 245.608 0.861842 3.36849 0
M  V30 2588 H 244.931 1.69016 3.62317 0
M  V30 2589 H 246.371 0.802762 4.16331 0
M  V30 2590 C 244.83 -0.435132 3.34078 0
M  V30 2591 O 245.36 -1.4583 3.74295 0
M  V30 2592 N 243.566 -0.444377 2.87182 0
M  V30 2593 H 243.113 0.388723 2.5465 0
M  V30 2594 H 243.071 -1.31213 2.85711 0
M  V30 2595 N 246.843 -1.10192 1.12674 0
M  V30 2596 C 248.12 -1.78717 0.794965 0
M  V30 2597 C 248.5 -1.98628 -0.714853 0
M  V30 2598 O 247.848 -1.58135 -1.64941 0
M  V30 2599 C 248.058 -3.11546 1.5729 0
M  V30 2600 C 249.406 -3.86382 1.76052 0
M  V30 2601 O 250.43 -3.21274 1.53823 0
M  V30 2602 O 249.289 -5.03246 2.13087 0
M  V30 2603 H 246.383 -0.774702 0.289423 0
M  V30 2604 H 248.929 -1.16819 1.23091 0
M  V30 2605 H 247.701 -2.92489 2.59935 0
M  V30 2606 H 247.324 -3.81164 1.13137 0
M  V30 2607 N 248.321 -0.919034 -1.28029 0
M  V30 2608 C 249.284 -0.416182 -2.2539 0
M  V30 2609 C 250.284 0.460438 -1.54067 0
M  V30 2610 O 251.474 0.262744 -1.72207 0
M  V30 2611 C 248.606 0.402707 -3.38513 0
M  V30 2612 H 249.799 -1.27629 -2.71387 0
M  V30 2613 H 247.352 -0.698919 -1.39803 0
M  V30 2614 H 248.087 1.282 -2.97885 0
M  V30 2615 H 247.872 -0.225698 -3.9145 0
M  V30 2616 H 249.362 0.745191 -4.10897 0
M  V30 2617 N 249.799 1.42003 -0.683588 0
M  V30 2618 C 251.027 2.05746 -0.218182 0
M  V30 2619 C 251.442 1.51396 1.12804 0
M  V30 2620 O 250.799 0.657303 1.70252 0
M  V30 2621 C 250.85 3.61171 -0.154131 0
M  V30 2622 O 250.571 4.13508 -1.44716 0
M  V30 2623 C 252.072 4.42042 0.333713 0
M  V30 2624 H 249.292 0.662888 -0.10402 0
M  V30 2625 H 251.836 1.81987 -0.9328 0
M  V30 2626 H 249.991 3.84012 0.511231 0
M  V30 2627 H 250.405 5.07453 -1.32632 0
M  V30 2628 H 251.879 5.51028 0.327423 0
M  V30 2629 H 252.356 4.17269 1.37053 0
M  V30 2630 H 252.962 4.24239 -0.300222 0
M  V30 2631 N 251.277 0.427512 1.51691 0
M  V30 2632 C 252.209 -0.424521 2.25234 0
M  V30 2633 C 253.222 -0.994671 1.2888 0
M  V30 2634 O 254.411 -0.890483 1.54702 0
M  V30 2635 C 251.511 -1.60479 2.98496 0
M  V30 2636 C 250.684 -1.15527 4.21868 0
M  V30 2637 C 249.743 -2.20454 4.77793 0
M  V30 2638 O 248.769 -1.8029 5.39893 0
M  V30 2639 N 249.971 -3.52831 4.60967 0
M  V30 2640 H 252.736 0.205749 2.98993 0
M  V30 2641 H 250.297 0.255867 1.59865 0
M  V30 2642 H 252.289 -2.30276 3.32799 0
M  V30 2643 H 250.859 -2.14061 2.27809 0
M  V30 2644 H 250.079 -0.284736 3.9317 0
M  V30 2645 H 251.367 -0.832173 5.01949 0
M  V30 2646 H 250.765 -3.88201 4.11481 0
M  V30 2647 H 249.322 -4.18551 4.99658 0
M  V30 2648 N 252.755 -1.56801 0.158532 0
M  V30 2649 C 254.001 -1.96781 -0.490405 0
M  V30 2650 C 254.334 -1.04397 -1.63753 0
M  V30 2651 O 253.609 -0.0885805 -1.94298 0
M  V30 2652 C 253.892 -3.4635 -0.985594 0
M  V30 2653 C 253.745 -4.49512 0.160824 0
M  V30 2654 C 255.064 -3.98697 -1.86355 0
M  V30 2655 H 252.183 -0.715482 -0.176788 0
M  V30 2656 H 254.825 -1.88451 0.242088 0
M  V30 2657 H 252.975 -3.53579 -1.60978 0
M  V30 2658 H 254.647 -4.54353 0.797537 0
M  V30 2659 H 252.89 -4.26013 0.818256 0
M  V30 2660 H 253.561 -5.51531 -0.227569 0
M  V30 2661 H 256.037 -3.94019 -1.33746 0
M  V30 2662 H 254.913 -5.03792 -2.17909 0
M  V30 2663 H 255.174 -3.41744 -2.8047 0
M  V30 2664 N 254.233 0.115231 -1.57178 0
M  V30 2665 C 255.649 0.468877 -1.52557 0
M  V30 2666 C 255.849 1.81649 -0.872125 0
M  V30 2667 O 254.905 2.48347 -0.45606 0
M  V30 2668 C 256.218 0.4499 -2.97315 0
M  V30 2669 C 257.766 0.533185 -3.08425 0
M  V30 2670 C 258.241 0.54456 -4.54751 0
M  V30 2671 N 259.732 0.605892 -4.5922 0
M  V30 2672 C 260.467 0.636203 -5.6986 0
M  V30 2673 N 259.963 0.623931 -6.89985 0
M  V30 2674 N 261.756 0.679496 -5.57978 0
M  V30 2675 H 253.907 -0.767712 -1.9804 0
M  V30 2676 H 256.17 -0.283609 -0.904583 0
M  V30 2677 H 255.876 -0.472721 -3.48509 0
M  V30 2678 H 255.75 1.27632 -3.5495 0
M  V30 2679 H 258.137 1.44623 -2.57232 0
M  V30 2680 H 258.218 -0.320995 -2.53778 0
M  V30 2681 H 257.862 -0.364452 -5.06591 0
M  V30 2682 H 257.792 1.41568 -5.07214 0
M  V30 2683 H 260.283 0.621386 -3.72756 0
M  V30 2684 H 260.596 0.649787 -7.70063 0
M  V30 2685 H 258.941 0.591296 -6.9248 0
M  V30 2686 H 262.132 0.686472 -4.63039 0
M  V30 2687 H 262.305 0.69965 -6.44212 0
M  V30 2688 N 255.711 1.52812 0.385517 0
M  V30 2689 C 256.988 1.5861 1.14465 0
M  V30 2690 C 257.368 0.381402 2.07626 0
M  V30 2691 O 256.716 -0.629999 2.19643 0
M  V30 2692 C 256.926 2.92664 1.90128 0
M  V30 2693 C 258.274 3.46526 2.45367 0
M  V30 2694 O 259.298 2.94562 2.0028 0
M  V30 2695 O 258.157 4.37323 3.27736 0
M  V30 2696 H 255.251 0.639855 0.523941 0
M  V30 2697 H 257.797 1.65149 0.390389 0
M  V30 2698 H 256.569 3.71788 1.22022 0
M  V30 2699 H 256.192 2.89527 2.72507 0
M  V30 2700 N 257.189 -0.644168 1.43834 0
M  V30 2701 C 258.429 -1.41565 1.47441 0
M  V30 2702 C 258.793 -1.91743 0.0992723 0
M  V30 2703 O 259.994 -2.68798 0.0100192 0
M  V30 2704 C 258.265 -2.55902 2.49498 0
M  V30 2705 S 259.824 -3.44287 2.72051 0
M  V30 2706 H 256.642 -0.483118 0.521649 0
M  V30 2707 H 259.244 -0.747008 1.80666 0
M  V30 2708 H 257.948 -2.17327 3.48134 0
M  V30 2709 H 257.479 -3.27607 2.17801 0
M  V30 2710 H 259.494 -4.52927 2.0266 0
M  V30 2711 N 258.668 -1.30515 -0.883378 0
M  V30 2712 C 260.084 -1.08881 -1.16692 0
M  V30 2713 C 260.284 0.149409 -2.00945 0
M  V30 2714 O 259.34 0.84257 -2.38027 0
M  V30 2715 C 260.653 -2.35319 -1.87204 0
M  V30 2716 C 262.201 -2.40799 -1.99962 0
M  V30 2717 C 262.676 -3.67083 -2.73887 0
M  V30 2718 N 264.167 -3.679 -2.81432 0
M  V30 2719 C 264.902 -4.62303 -3.3921 0
M  V30 2720 N 264.398 -5.67052 -3.98025 0
M  V30 2721 N 266.191 -4.49845 -3.3704 0
M  V30 2722 H 258.342 -2.09951 -0.321633 0
M  V30 2723 H 260.605 -0.92556 -0.205043 0
M  V30 2724 H 260.311 -3.25689 -1.3274 0
M  V30 2725 H 260.185 -2.44089 -2.87577 0
M  V30 2726 H 262.572 -1.50907 -2.53597 0
M  V30 2727 H 262.653 -2.36003 -0.98673 0
M  V30 2728 H 262.297 -4.57334 -2.20925 0
M  V30 2729 H 262.227 -3.69141 -3.75556 0
M  V30 2730 H 264.718 -2.92171 -2.39676 0
M  V30 2731 H 265.031 -6.35184 -4.40183 0
M  V30 2732 H 263.376 -5.70842 -3.96439 0
M  V30 2733 H 266.567 -3.67194 -2.90321 0
M  V30 2734 H 266.74 -5.23597 -3.81772 0
M  V30 2735 N 260.146 1.09593 -1.13257 0
M  V30 2736 C 261.076 2.18214 -0.830946 0
M  V30 2737 C 262.057 1.68812 0.208966 0
M  V30 2738 O 263.242 1.9408 0.0682666 0
M  V30 2739 C 260.372 3.46051 -0.294296 0
M  V30 2740 C 259.326 4.08778 -1.26826 0
M  V30 2741 C 258.652 5.31419 -0.591449 0
M  V30 2742 C 259.952 4.51476 -2.62615 0
M  V30 2743 H 261.646 2.43703 -1.73923 0
M  V30 2744 H 259.192 1.17128 -0.837675 0
M  V30 2745 H 261.145 4.2134 -0.0709606 0
M  V30 2746 H 259.869 3.20079 0.649366 0
M  V30 2747 H 258.528 3.35505 -1.47756 0
M  V30 2748 H 258.176 5.01727 0.357633 0
M  V30 2749 H 257.876 5.74341 -1.24123 0
M  V30 2750 H 259.4 6.09433 -0.377355 0
M  V30 2751 H 260.814 5.17999 -2.45663 0
M  V30 2752 H 259.211 5.05277 -3.23752 0
M  V30 2753 H 260.281 3.63962 -3.20406 0
M  V30 2754 N 261.624 0.925811 1.2754 0
M  V30 2755 C 262.852 0.581509 1.9856 0
M  V30 2756 C 263.267 -0.840041 1.69082 0
M  V30 2757 O 262.624 -1.55805 0.950312 0
M  V30 2758 C 262.675 0.795589 3.52637 0
M  V30 2759 O 262.396 2.16121 3.81082 0
M  V30 2760 C 263.897 0.459744 4.4091 0
M  V30 2761 H 261.117 0.220538 0.633722 0
M  V30 2762 H 263.661 1.24232 1.6244 0
M  V30 2763 H 261.816 0.18161 3.86974 0
M  V30 2764 H 262.23 2.2098 4.75676 0
M  V30 2765 H 263.704 0.660244 5.48037 0
M  V30 2766 H 264.181 -0.604625 4.35018 0
M  V30 2767 H 264.787 1.05178 4.12089 0
M  V30 2768 N 263.102 -1.41638 0.69111 0
M  V30 2769 C 264.35 -2.00902 0.219758 0
M  V30 2770 C 264.671 -1.54994 -1.18329 0
M  V30 2771 O 263.941 -0.778628 -1.79762 0
M  V30 2772 H 262.521 -0.74289 0.0782558 0
M  V30 2773 H 265.183 -1.73327 0.891271 0
M  V30 2774 H 264.279 -3.11224 0.233708 0
M  V30 2775 N 264.58 -0.43555 -1.51462 0
M  V30 2776 C 265.51 0.367376 -2.30592 0
M  V30 2777 C 266.491 1.02263 -1.35928 0
M  V30 2778 O 267.676 1.02661 -1.64847 0
M  V30 2779 C 264.806 1.46983 -3.14664 0
M  V30 2780 C 263.76 0.938161 -4.17591 0
M  V30 2781 C 263.086 2.13622 -4.90173 0
M  V30 2782 C 264.386 -0.0261621 -5.22293 0
M  V30 2783 H 266.08 -0.292969 -2.97963 0
M  V30 2784 H 263.626 -0.14234 -1.43295 0
M  V30 2785 H 265.579 2.03873 -3.688 0
M  V30 2786 H 264.303 2.15843 -2.4511 0
M  V30 2787 H 262.962 0.391481 -3.64504 0
M  V30 2788 H 262.61 2.81098 -4.17124 0
M  V30 2789 H 262.31 1.78688 -5.59772 0
M  V30 2790 H 263.834 2.7107 -5.47132 0
M  V30 2791 H 265.248 0.452384 -5.71512 0
M  V30 2792 H 263.645 -0.287992 -5.99409 0
M  V30 2793 H 264.715 -0.963391 -4.75233 0
M  V30 2794 N 266.058 1.56714 -0.166846 0
M  V30 2795 C 266.988 2.20754 0.760913 0
M  V30 2796 C 267.969 1.16178 1.24244 0
M  V30 2797 O 269.154 1.44592 1.29641 0
M  V30 2798 C 266.284 2.84478 1.99223 0
M  V30 2799 C 265.238 3.95053 1.64672 0
M  V30 2800 C 264.564 4.45805 2.95232 0
M  V30 2801 C 265.864 5.14865 0.878155 0
M  V30 2802 H 267.558 2.98537 0.22713 0
M  V30 2803 H 265.104 1.43596 0.107805 0
M  V30 2804 H 267.057 3.27951 2.64624 0
M  V30 2805 H 265.781 2.04056 2.55007 0
M  V30 2806 H 264.44 3.52228 1.01641 0
M  V30 2807 H 264.088 3.62181 3.49047 0
M  V30 2808 H 263.788 5.204 2.7287 0
M  V30 2809 H 265.312 4.91962 3.6167 0
M  V30 2810 H 266.726 5.55059 1.43466 0
M  V30 2811 H 265.123 5.95348 0.753738 0
M  V30 2812 H 266.193 4.84735 -0.126377 0
M  V30 2813 N 267.536 -0.106894 1.57237 0
M  V30 2814 C 268.813 -0.843526 1.76477 0
M  V30 2815 C 269.193 -1.97499 0.745464 0
M  V30 2816 O 268.541 -2.27357 -0.228306 0
M  V30 2817 C 268.751 -1.34903 3.21873 0
M  V30 2818 C 270.099 -1.79654 3.8472 0
M  V30 2819 O 271.123 -1.44554 3.2555 0
M  V30 2820 O 269.982 -2.44515 4.88748 0
M  V30 2821 H 267.076 -0.401468 0.723016 0
M  V30 2822 H 269.622 -0.0896927 1.69463 0
M  V30 2823 H 268.394 -0.53781 3.87586 0
M  V30 2824 H 268.017 -2.16522 3.33473 0
M  V30 2825 N 269.014 -1.53014 -0.377408 0
M  V30 2826 C 269.944 -1.81589 -1.46791 0
M  V30 2827 C 270.925 -0.668622 -1.56408 0
M  V30 2828 O 272.11 -0.917337 -1.71168 0
M  V30 2829 C 269.24 -1.99519 -2.8427 0
M  V30 2830 C 268.194 -3.15249 -2.89486 0
M  V30 2831 C 267.52 -3.18451 -4.29527 0
M  V30 2832 C 268.82 -4.54084 -2.58079 0
M  V30 2833 H 270.514 -2.7291 -1.23127 0
M  V30 2834 H 268.06 -1.31319 -0.590883 0
M  V30 2835 H 270.013 -2.18092 -3.60575 0
M  V30 2836 H 268.737 -1.04897 -3.09296 0
M  V30 2837 H 267.396 -2.96477 -2.15631 0
M  V30 2838 H 267.044 -2.2149 -4.5161 0
M  V30 2839 H 266.744 -3.962 -4.33934 0
M  V30 2840 H 268.268 -3.39193 -5.07721 0
M  V30 2841 H 269.682 -4.72899 -3.24098 0
M  V30 2842 H 268.079 -5.33987 -2.7382 0
M  V30 2843 H 269.149 -4.60006 -1.53372 0
M  V30 2844 N 270.492 0.636531 -1.44174 0
M  V30 2845 C 271.455 1.73063 -1.50273 0
M  V30 2846 C 272.455 1.56113 -0.385397 0
M  V30 2847 O 273.645 1.61707 -0.64781 0
M  V30 2848 C 270.777 3.12096 -1.37145 0
M  V30 2849 H 271.97 1.69031 -2.47727 0
M  V30 2850 H 269.523 0.849706 -1.31186 0
M  V30 2851 H 270.258 3.21728 -0.407636 0
M  V30 2852 H 270.043 3.25805 -2.18159 0
M  V30 2853 H 271.533 3.91846 -1.44382 0
M  V30 2854 N 271.97 1.30982 0.876444 0
M  V30 2855 C 272.9 1.20668 1.99903 0
M  V30 2856 C 273.881 0.095354 1.69833 0
M  V30 2857 O 275.066 0.27885 1.92188 0
M  V30 2858 C 272.196 0.90655 3.3526 0
M  V30 2859 C 271.15 1.97675 3.79617 0
M  V30 2860 C 270.476 1.52943 5.1236 0
M  V30 2861 C 271.776 3.389 3.97422 0
M  V30 2862 H 273.47 2.14586 2.0879 0
M  V30 2863 H 271.016 1.03308 1.00317 0
M  V30 2864 H 272.969 0.821025 4.13324 0
M  V30 2865 H 271.693 -0.0682969 3.26529 0
M  V30 2866 H 270.352 2.05205 3.03787 0
M  V30 2867 H 270 0.54262 5.00065 0
M  V30 2868 H 269.7 2.24532 5.43009 0
M  V30 2869 H 271.224 1.45786 5.92941 0
M  V30 2870 H 272.638 3.34081 4.659 0
M  V30 2871 H 271.035 4.0865 4.3946 0
M  V30 2872 H 272.105 3.80163 3.01006 0
M  V30 2873 N 273.449 -1.08991 1.13837 0
M  V30 2874 C 274.359 -2.19301 0.833333 0
M  V30 2875 C 275.375 -1.73026 -0.183847 0
M  V30 2876 O 276.551 -2.01395 -0.0138092 0
M  V30 2877 C 273.616 -3.45323 0.308651 0
M  V30 2878 C 272.677 -4.06255 1.38764 0
M  V30 2879 C 271.91 -5.26262 0.887896 0
M  V30 2880 O 272.133 -5.69747 -0.27287 0
M  V30 2881 O 271.067 -5.78435 1.66421 0
M  V30 2882 H 274.893 -2.47854 1.75506 0
M  V30 2883 H 272.478 -1.18012 0.916166 0
M  V30 2884 H 274.36 -4.21394 0.0216739 0
M  V30 2885 H 273.035 -3.18362 -0.585431 0
M  V30 2886 H 271.942 -3.318 1.72799 0
M  V30 2887 H 273.275 -4.37452 2.25602 0
M  V30 2888 N 274.927 -0.932562 -1.27047 0
M  V30 2889 C 275.874 -0.434072 -2.26681 0
M  V30 2890 C 276.844 0.501639 -1.58344 0
M  V30 2891 O 278.029 0.419734 -1.86126 0
M  V30 2892 C 275.169 0.30261 -3.43771 0
M  V30 2893 C 274.282 -0.667774 -4.26808 0
M  V30 2894 C 273.417 0.0892393 -5.31125 0
M  V30 2895 C 272.456 -0.873532 -6.05835 0
M  V30 2896 N 271.593 -0.148832 -7.01942 0
M  V30 2897 H 276.433 -1.28868 -2.68695 0
M  V30 2898 H 273.97 -0.646713 -1.32121 0
M  V30 2899 H 275.928 0.746092 -4.10474 0
M  V30 2900 H 274.558 1.12142 -3.02695 0
M  V30 2901 H 273.61 -1.22978 -3.59973 0
M  V30 2902 H 274.922 -1.40337 -4.78651 0
M  V30 2903 H 274.076 0.592409 -6.03801 0
M  V30 2904 H 272.815 0.85777 -4.80097 0
M  V30 2905 H 271.82 -1.38791 -5.31994 0
M  V30 2906 H 273.045 -1.64193 -6.58952 0
M  V30 2907 H 270.991 0.601365 -6.53238 0
M  V30 2908 H 270.908 -0.82391 -7.51497 0
M  V30 2909 H 272.176 0.333527 -7.78786 0
M  V30 2910 N 276.405 1.4127 -0.698611 0
M  V30 2911 C 277.682 1.94955 -0.158762 0
M  V30 2912 C 278.062 1.63781 1.33188 0
M  V30 2913 O 277.41 0.946423 2.07979 0
M  V30 2914 C 277.62 3.46044 -0.453309 0
M  V30 2915 C 278.968 4.22872 -0.382707 0
M  V30 2916 O 279.992 3.54076 -0.388396 0
M  V30 2917 O 278.851 5.45407 -0.345463 0
M  V30 2918 H 275.945 0.82683 -0.0167505 0
M  V30 2919 H 278.491 1.50971 -0.77498 0
M  V30 2920 H 277.263 3.62028 -1.48498 0
M  V30 2921 H 276.886 3.97128 0.19373 0
M  V30 2922 N 277.883 0.443576 1.51229 0
M  V30 2923 C 279.113 -0.119117 2.06256 0
M  V30 2924 C 279.521 -1.36471 1.31043 0
M  V30 2925 O 278.864 -1.80034 0.365151 0
M  V30 2926 C 278.926 -0.500546 3.55998 0
M  V30 2927 C 278.59 0.639125 4.52509 0
M  V30 2928 C 279.587 1.51311 4.97394 0
M  V30 2929 C 277.272 0.821632 4.95535 0
M  V30 2930 C 279.266 2.55425 5.83984 0
M  V30 2931 C 276.953 1.86603 5.81913 0
M  V30 2932 C 277.951 2.73072 6.26036 0
M  V30 2933 O 277.639 3.75718 7.10698 0
M  V30 2934 H 277.371 -0.00857665 0.675946 0
M  V30 2935 H 279.925 0.623288 1.95715 0
M  V30 2936 H 278.155 -1.29575 3.64345 0
M  V30 2937 H 279.844 -0.995116 3.93513 0
M  V30 2938 H 280.61 1.38367 4.64844 0
M  V30 2939 H 276.489 0.158149 4.60729 0
M  V30 2940 H 280.033 3.22949 6.18344 0
M  V30 2941 H 275.93 1.99564 6.13876 0
M  V30 2942 H 276.698 3.72374 7.2889 0
M  V30 2943 N 279.361 -1.56624 0.175154 0
M  V30 2944 C 280.607 -1.9729 -0.469506 0
M  V30 2945 C 280.94 -1.06128 -1.62636 0
M  V30 2946 O 280.215 -0.109183 -1.94193 0
M  V30 2947 C 280.498 -3.47375 -0.948804 0
M  V30 2948 C 280.351 -4.49317 0.208491 0
M  V30 2949 C 281.67 -4.00652 -1.82116 0
M  V30 2950 H 278.789 -0.717317 -0.16919 0
M  V30 2951 H 281.431 -1.88184 0.262062 0
M  V30 2952 H 279.581 -3.55267 -1.57219 0
M  V30 2953 H 281.253 -4.53482 0.845682 0
M  V30 2954 H 279.496 -4.25121 0.863395 0
M  V30 2955 H 280.167 -5.51741 -0.169059 0
M  V30 2956 H 282.643 -3.95416 -1.2956 0
M  V30 2957 H 281.519 -5.06075 -2.12554 0
M  V30 2958 H 281.78 -3.44699 -2.7683 0
M  V30 2959 N 280.839 0.0985539 -1.57292 0
M  V30 2960 C 282.255 0.45267 -1.53046 0
M  V30 2961 C 282.455 1.80713 -0.891342 0
M  V30 2962 O 281.511 2.4785 -0.482375 0
M  V30 2963 C 282.824 0.418341 -2.97776 0
M  V30 2964 C 284.372 0.500443 -3.08973 0
M  V30 2965 C 284.847 0.496297 -4.55303 0
M  V30 2966 N 286.338 0.557151 -4.59837 0
M  V30 2967 C 287.073 0.575726 -5.70502 0
M  V30 2968 N 286.569 0.550714 -6.90608 0
M  V30 2969 N 288.362 0.620277 -5.58667 0
M  V30 2970 H 280.513 -0.788673 -1.97215 0
M  V30 2971 H 282.776 -0.293188 -0.901524 0
M  V30 2972 H 282.482 -0.509659 -3.47988 0
M  V30 2973 H 282.356 1.2386 -3.56284 0
M  V30 2974 H 284.743 1.41886 -2.58751 0
M  V30 2975 H 284.824 -0.347894 -2.53423 0
M  V30 2976 H 284.468 -0.418162 -5.06176 0
M  V30 2977 H 284.398 1.3618 -5.08687 0
M  V30 2978 H 286.889 0.581816 -3.73394 0
M  V30 2979 H 287.202 0.568075 -7.70709 0
M  V30 2980 H 285.547 0.517816 -6.93068 0
M  V30 2981 H 288.738 0.637322 -4.63741 0
M  V30 2982 H 288.911 0.631283 -6.44918 0
M  V30 2983 N 282.317 1.53212 0.369288 0
M  V30 2984 C 283.542 1.73423 1.1375 0
M  V30 2985 C 283.967 0.460404 1.82378 0
M  V30 2986 O 283.325 -0.585298 1.71592 0
M  V30 2987 C 283.373 2.89769 2.1463 0
M  V30 2988 O 282.477 2.58119 3.21634 0
M  V30 2989 H 281.818 0.576061 0.330227 0
M  V30 2990 H 284.348 2.00083 0.427547 0
M  V30 2991 H 284.358 3.15829 2.58294 0
M  V30 2992 H 283.033 3.8217 1.64071 0
M  V30 2993 H 281.61 2.42864 2.82969 0
M  V30 2994 N 283.795 -0.628877 1.44509 0
M  V30 2995 C 284.742 -1.74074 1.51549 0
M  V30 2996 C 285.712 -1.62084 0.363021 0
M  V30 2997 O 286.897 -1.81975 0.573567 0
M  V30 2998 C 284.037 -3.12328 1.46784 0
M  V30 2999 C 283.15 -3.35277 2.72422 0
M  V30 3000 C 282.285 -4.63515 2.59475 0
M  V30 3001 C 281.324 -4.7965 3.80266 0
M  V30 3002 N 280.461 -5.99168 3.65981 0
M  V30 3003 H 285.301 -1.67392 2.46544 0
M  V30 3004 H 282.838 -0.816527 1.22357 0
M  V30 3005 H 284.796 -3.92286 1.42012 0
M  V30 3006 H 283.426 -3.18018 0.553544 0
M  V30 3007 H 282.478 -2.49242 2.87372 0
M  V30 3008 H 283.79 -3.43078 3.62076 0
M  V30 3009 H 282.944 -5.51638 2.52548 0
M  V30 3010 H 281.683 -4.58076 1.67384 0
M  V30 3011 H 280.688 -3.89957 3.87574 0
M  V30 3012 H 281.913 -4.86902 4.73395 0
M  V30 3013 H 279.859 -5.94814 2.76644 0
M  V30 3014 H 279.776 -6.08035 4.49254 0
M  V30 3015 H 281.044 -6.89846 3.6295 0
M  V30 3016 N 285.273 -1.31445 -0.869486 0
M  V30 3017 C 286.522 -1.20517 -1.61736 0
M  V30 3018 C 286.835 0.235341 -1.94179 0
M  V30 3019 O 288.041 0.466312 -2.67465 0
M  V30 3020 C 286.497 -2.10982 -2.91573 0
M  V30 3021 C 286.105 -3.60032 -2.66611 0
M  V30 3022 C 287.849 -2.08856 -3.69567 0
M  V30 3023 C 285.756 -4.42503 -3.92358 0
M  V30 3024 H 284.686 -0.447493 -0.606849 0
M  V30 3025 H 287.337 -1.56303 -0.96133 0
M  V30 3026 H 285.719 -1.68095 -3.58553 0
M  V30 3027 H 286.893 -4.11167 -2.08035 0
M  V30 3028 H 285.208 -3.64139 -2.0197 0
M  V30 3029 H 287.805 -2.67716 -4.62852 0
M  V30 3030 H 288.148 -1.07582 -4.02159 0
M  V30 3031 H 288.681 -2.49945 -3.09471 0
M  V30 3032 H 285.42 -5.44533 -3.64916 0
M  V30 3033 H 284.94 -3.96125 -4.50383 0
M  V30 3034 H 286.619 -4.54741 -4.60238 0
M  V30 3035 N 286.751 1.08385 -1.14413 0
M  V30 3036 C 287.714 2.13486 -0.834048 0
M  V30 3037 C 288.714 1.59988 0.161418 0
M  V30 3038 O 289.904 1.74071 -0.0669575 0
M  V30 3039 C 287.036 3.4003 -0.243354 0
M  V30 3040 H 288.229 2.42425 -1.7655 0
M  V30 3041 H 285.782 1.24101 -0.950189 0
M  V30 3042 H 286.517 3.16726 0.696807 0
M  V30 3043 H 286.302 3.80157 -0.960367 0
M  V30 3044 H 287.792 4.17577 -0.0436242 0
M  V30 3045 N 288.23 0.939286 1.26551 0
M  V30 3046 C 289.14 0.453432 2.30176 0
M  V30 3047 C 290.156 -0.471649 1.67486 0
M  V30 3048 O 291.332 -0.35164 1.98306 0
M  V30 3049 C 288.397 -0.275326 3.45605 0
M  V30 3050 C 287.458 0.686084 4.23782 0
M  V30 3051 C 286.691 -0.00798994 5.33699 0
M  V30 3052 O 286.914 -1.22528 5.57085 0
M  V30 3053 O 285.848 0.669746 5.98162 0
M  V30 3054 H 289.674 1.31416 2.73795 0
M  V30 3055 H 287.259 0.705095 1.31715 0
M  V30 3056 H 289.141 -0.685911 4.1578 0
M  V30 3057 H 287.816 -1.11147 3.0402 0
M  V30 3058 H 286.723 1.14658 3.56096 0
M  V30 3059 H 288.056 1.48979 4.69112 0
M  V30 3060 N 289.708 -1.40897 0.706093 0
M  V30 3061 C 290.938 -2.05075 0.250523 0
M  V30 3062 C 291.346 -1.53275 -1.10921 0
M  V30 3063 O 290.689 -0.680281 -1.7064 0
M  V30 3064 C 290.751 -3.59219 0.142178 0
M  V30 3065 C 290.415 -4.33864 1.43566 0
M  V30 3066 C 291.412 -4.62448 2.37566 0
M  V30 3067 C 289.097 -4.72946 1.69195 0
M  V30 3068 C 291.091 -5.29088 3.5545 0
M  V30 3069 C 288.778 -5.3932 2.87362 0
M  V30 3070 C 289.776 -5.6732 3.80312 0
M  V30 3071 O 289.464 -6.32325 4.96408 0
M  V30 3072 H 289.196 -0.666645 0.112074 0
M  V30 3073 H 291.75 -1.81467 0.962239 0
M  V30 3074 H 289.98 -3.81609 -0.6254 0
M  V30 3075 H 291.669 -4.0495 -0.277584 0
M  V30 3076 H 292.435 -4.32727 2.19027 0
M  V30 3077 H 288.314 -4.50527 0.977042 0
M  V30 3078 H 291.858 -5.50859 4.28018 0
M  V30 3079 H 287.755 -5.68461 3.05814 0
M  V30 3080 H 288.523 -6.50821 4.9636 0
M  V30 3081 N 291.186 -0.45159 -1.50991 0
M  V30 3082 C 292.119 0.398179 -2.24699 0
M  V30 3083 C 293.097 1.01276 -1.27208 0
M  V30 3084 O 294.281 1.05247 -1.56382 0
M  V30 3085 C 291.408 1.55618 -3.00833 0
M  V30 3086 C 290.454 1.0609 -4.13095 0
M  V30 3087 S 291.287 -0.00865136 -5.35499 0
M  V30 3088 C 292.443 1.15369 -6.15175 0
M  V30 3089 H 292.676 -0.227555 -2.96428 0
M  V30 3090 H 290.209 -0.236251 -1.52582 0
M  V30 3091 H 292.167 2.21997 -3.45293 0
M  V30 3092 H 290.828 2.15337 -2.28667 0
M  V30 3093 H 290.021 1.92726 -4.65696 0
M  V30 3094 H 289.623 0.47513 -3.7097 0
M  V30 3095 H 291.915 2.06925 -6.45126 0
M  V30 3096 H 292.858 0.667344 -7.04948 0
M  V30 3097 H 293.266 1.3987 -5.46897 0
M  V30 3098 N 292.664 1.56529 -0.183458 0
M  V30 3099 C 293.612 2.19873 0.758845 0
M  V30 3100 C 294.606 1.16638 1.22849 0
M  V30 3101 O 295.812 1.3481 1.19274 0
M  V30 3102 H 292.187 0.7045 0.263029 0
M  V30 3103 H 294.158 2.97724 0.200755 0
M  V30 3104 C 292.907 2.86314 1.9728 0
M  V30 3105 H 292.23 3.65487 1.62047 0
M  V30 3106 H 293.67 3.3409 2.61075 0
M  V30 3107 C 292.129 1.86729 2.80418 0
M  V30 3108 O 292.659 1.36031 3.77966 0
M  V30 3109 N 290.865 1.55216 2.45675 0
M  V30 3110 H 290.412 1.96636 1.66409 0
M  V30 3111 H 290.37 0.888388 3.01588 0
M  V30 3112 N 294.142 -0.090211 1.57342 0
M  V30 3113 C 295.092 -1.11557 1.98844 0
M  V30 3114 C 296.076 -1.35503 0.867624 0
M  V30 3115 O 297.268 -1.36113 1.13148 0
M  V30 3116 C 294.397 -2.43446 2.42051 0
M  V30 3117 C 293.483 -2.22853 3.60828 0
M  V30 3118 N 293.874 -1.72141 4.75606 0
M  V30 3119 C 292.172 -2.53401 3.67021 0
M  V30 3120 C 292.873 -1.65932 5.57531 0
M  V30 3121 N 291.849 -2.11323 5.00843 0
M  V30 3122 H 295.651 -0.716499 2.85032 0
M  V30 3123 H 293.165 -0.297567 1.59651 0
M  V30 3124 H 295.162 -3.17644 2.70014 0
M  V30 3125 H 293.822 -2.84087 1.57241 0
M  V30 3126 H 294.833 -1.41268 4.98261 0
M  V30 3127 H 291.51 -2.97532 2.92884 0
M  V30 3128 H 292.9 -1.27733 6.59647 0
M  V30 3129 N 295.62 -1.53406 -0.361157 0
M  V30 3130 C 296.55 -1.83136 -1.44857 0
M  V30 3131 C 297.531 -0.685174 -1.5569 0
M  V30 3132 O 298.716 -0.93544 -1.70186 0
M  V30 3133 C 295.846 -2.02522 -2.82138 0
M  V30 3134 C 294.8 -3.18302 -2.86126 0
M  V30 3135 C 294.126 -3.22989 -4.26125 0
M  V30 3136 C 295.426 -4.56796 -2.53248 0
M  V30 3137 H 297.12 -2.74201 -1.20226 0
M  V30 3138 H 294.666 -1.31938 -0.576922 0
M  V30 3139 H 296.619 -2.21904 -3.58241 0
M  V30 3140 H 295.343 -1.08172 -3.08166 0
M  V30 3141 H 294.002 -2.98747 -2.12475 0
M  V30 3142 H 293.65 -2.26267 -4.49235 0
M  V30 3143 H 293.35 -4.00781 -4.29708 0
M  V30 3144 H 294.874 -3.44559 -5.04094 0
M  V30 3145 H 296.288 -4.7631 -3.19064 0
M  V30 3146 H 294.685 -5.36862 -2.68141 0
M  V30 3147 H 295.755 -4.61606 -1.48484 0
M  V30 3148 N 297.098 0.621204 -1.44841 0
M  V30 3149 C 298.347 1.37658 -1.47422 0
M  V30 3150 C 298.66 1.95264 -0.114629 0
M  V30 3151 O 299.866 2.71494 -0.0180199 0
M  V30 3152 C 298.322 2.49285 -2.59586 0
M  V30 3153 C 297.93 1.98149 -4.01797 0
M  V30 3154 C 299.674 3.26409 -2.71399 0
M  V30 3155 C 297.581 3.07178 -5.05367 0
M  V30 3156 H 296.511 0.517344 -0.548517 0
M  V30 3157 H 299.162 0.667257 -1.70938 0
M  V30 3158 H 297.544 3.22839 -2.29328 0
M  V30 3159 H 298.718 1.31395 -4.41669 0
M  V30 3160 H 297.033 1.33812 -3.94314 0
M  V30 3161 H 299.63 4.07706 -3.45948 0
M  V30 3162 H 299.973 3.76535 -1.77559 0
M  V30 3163 H 300.506 2.5995 -3.01116 0
M  V30 3164 H 297.245 2.61985 -6.00869 0
M  V30 3165 H 296.765 3.72542 -4.70077 0
M  V30 3166 H 298.444 3.71789 -5.29511 0
M  V30 3167 N 298.576 1.31904 0.862503 0
M  V30 3168 C 299.853 1.12644 1.59908 0
M  V30 3169 C 300.233 -0.316104 2.0872 0
M  V30 3170 O 299.581 -1.31145 1.87118 0
M  V30 3171 C 299.791 2.1472 2.7513 0
M  V30 3172 C 301.139 2.47637 3.44907 0
M  V30 3173 O 302.163 2.13205 2.85346 0
M  V30 3174 O 301.022 3.06632 4.52371 0
M  V30 3175 H 298.116 0.43416 0.703871 0
M  V30 3176 H 300.662 1.43408 0.907314 0
M  V30 3177 H 299.434 3.1172 2.3653 0
M  V30 3178 H 299.057 1.84905 3.51989 0
M  V30 3179 N 300.054 -1.07777 1.14986 0
M  V30 3180 C 301.303 -1.79669 0.916617 0
M  V30 3181 C 301.616 -1.87474 -0.557917 0
M  V30 3182 O 302.822 -2.55845 -0.908617 0
M  V30 3183 C 301.278 -3.22848 1.59051 0
M  V30 3184 C 300.886 -3.23257 3.10176 0
M  V30 3185 C 302.63 -3.99379 1.43864 0
M  V30 3186 C 300.537 -4.61063 3.70372 0
M  V30 3187 H 299.467 -0.673349 0.33929 0
M  V30 3188 H 302.118 -1.21003 1.37951 0
M  V30 3189 H 300.5 -3.8168 1.0553 0
M  V30 3190 H 301.674 -2.74095 3.70417 0
M  V30 3191 H 299.989 -2.60222 3.25074 0
M  V30 3192 H 302.586 -5.0122 1.86232 0
M  V30 3193 H 302.929 -4.14511 0.385564 0
M  V30 3194 H 303.462 -3.47032 1.94457 0
M  V30 3195 H 300.201 -4.51135 4.7556 0
M  V30 3196 H 299.721 -5.1048 3.14913 0
M  V30 3197 H 301.4 -5.30034 3.71043 0
M  V30 3198 N 301.532 -0.945985 -1.26051 0
M  V30 3199 C 302.78 -0.594941 -1.93145 0
M  V30 3200 C 303.101 0.86953 -1.7454 0
M  V30 3201 O 302.371 1.61838 -1.10387 0
M  V30 3202 H 300.951 -0.217044 -0.714773 0
M  V30 3203 H 303.613 -1.20235 -1.53393 0
M  V30 3204 H 302.709 -0.816835 -3.01221 0
M  V30 3205 N 303.011 1.40521 -0.713556 0
M  V30 3206 C 304.257 2.01221 -0.252564 0
M  V30 3207 C 304.59 1.56444 1.1506 0
M  V30 3208 O 303.865 0.783597 1.78017 0
M  V30 3209 C 304.148 3.58582 -0.330332 0
M  V30 3210 C 304.001 4.13437 -1.77173 0
M  V30 3211 C 305.32 4.39079 0.299641 0
M  V30 3212 H 302.439 0.731077 -0.0932471 0
M  V30 3213 H 305.081 1.67026 -0.905673 0
M  V30 3214 H 303.231 3.87844 0.225737 0
M  V30 3215 H 304.903 3.9498 -2.38303 0
M  V30 3216 H 303.146 3.67801 -2.3001 0
M  V30 3217 H 303.817 5.22597 -1.77755 0
M  V30 3218 H 306.293 4.15735 -0.174139 0
M  V30 3219 H 305.169 5.4848 0.214771 0
M  V30 3220 H 305.43 4.19915 1.38288 0
M  V30 3221 N 304.489 0.459591 1.5075 0
M  V30 3222 C 305.452 -0.329093 2.26825 0
M  V30 3223 C 306.452 -0.930481 1.31144 0
M  V30 3224 O 307.642 -0.801453 1.54669 0
M  V30 3225 C 304.774 -1.46768 3.07688 0
M  V30 3226 H 305.967 0.337924 2.9799 0
M  V30 3227 H 303.52 0.213336 1.54837 0
M  V30 3228 H 304.255 -2.17009 2.40993 0
M  V30 3229 H 304.04 -1.04238 3.77991 0
M  V30 3230 H 305.53 -2.02433 3.65254 0
M  V30 3231 N 305.967 -1.56429 0.191757 0
M  V30 3232 C 307.215 -1.97095 -0.447006 0
M  V30 3233 C 307.536 -1.07967 -1.62383 0
M  V30 3234 O 306.806 -0.150248 -1.95323 0
M  V30 3235 H 305.386 -0.727832 -0.168135 0
M  V30 3236 H 308.048 -1.92911 0.27771 0
M  V30 3237 H 307.144 -3.01848 -0.793371 0
M  V30 3238 N 307.445 0.0818655 -1.57387 0
M  V30 3239 C 308.692 0.782914 -1.86753 0
M  V30 3240 C 309.02 1.78082 -0.782118 0
M  V30 3241 O 308.275 1.94426 0.22295 0
M  V30 3242 C 308.574 1.53513 -3.22752 0
M  V30 3243 C 308.24 0.678134 -4.45771 0
M  V30 3244 C 306.902 0.441929 -4.79166 0
M  V30 3245 C 309.254 0.0832243 -5.21134 0
M  V30 3246 C 306.582 -0.398833 -5.85343 0
M  V30 3247 C 308.934 -0.744935 -6.28199 0
M  V30 3248 C 307.598 -0.991107 -6.60101 0
M  V30 3249 H 306.868 0.286489 -0.683378 0
M  V30 3250 H 309.515 0.0439808 -1.91449 0
M  V30 3251 H 307.82 2.34599 -3.138 0
M  V30 3252 H 309.517 2.08218 -3.42705 0
M  V30 3253 H 306.107 0.872357 -4.19628 0
M  V30 3254 H 310.291 0.252847 -4.95655 0
M  V30 3255 H 305.547 -0.598405 -6.08465 0
M  V30 3256 H 309.721 -1.21271 -6.8576 0
M  V30 3257 H 307.348 -1.64437 -7.42202 0
M  V30 3258 N 308.923 1.53595 0.353017 0
M  V30 3259 C 310.339 1.43648 0.695516 0
M  V30 3260 C 310.539 0.585617 1.92802 0
M  V30 3261 O 309.595 0.0729223 2.52395 0
M  V30 3262 C 310.908 2.8701 0.896991 0
M  V30 3263 C 312.456 2.96723 0.996209 0
M  V30 3264 C 312.931 4.41173 1.23007 0
M  V30 3265 N 314.422 4.44657 1.29749 0
M  V30 3266 C 315.157 5.53547 1.49577 0
M  V30 3267 N 314.653 6.72461 1.66639 0
M  V30 3268 N 316.446 5.41145 1.52048 0
M  V30 3269 H 308.597 2.07415 -0.457481 0
M  V30 3270 H 310.86 0.9372 -0.142687 0
M  V30 3271 H 310.566 3.51644 0.0629938 0
M  V30 3272 H 310.44 3.31401 1.80148 0
M  V30 3273 H 312.827 2.32235 1.82074 0
M  V30 3274 H 312.908 2.55707 0.0688331 0
M  V30 3275 H 312.552 5.06238 0.410505 0
M  V30 3276 H 312.482 4.79772 2.17086 0
M  V30 3277 H 314.973 3.58963 1.18126 0
M  V30 3278 H 315.286 7.51214 1.81378 0
M  V30 3279 H 313.631 6.75423 1.63794 0
M  V30 3280 H 316.822 4.47205 1.38294 0
M  V30 3281 H 316.995 6.26068 1.67159 0
M  V30 3282 N 310.401 -0.613514 1.45168 0
M  V30 3283 C 311.331 -1.7354 1.56225 0
M  V30 3284 C 312.312 -1.64981 0.41414 0
M  V30 3285 O 313.497 -1.83472 0.636526 0
M  V30 3286 C 310.627 -3.12128 1.52295 0
M  V30 3287 C 309.581 -3.35491 2.65762 0
M  V30 3288 C 308.907 -4.74291 2.46885 0
M  V30 3289 C 310.207 -3.26325 4.0781 0
M  V30 3290 H 311.901 -1.64543 2.50132 0
M  V30 3291 H 309.447 -0.790185 1.20383 0
M  V30 3292 H 311.4 -3.90404 1.58628 0
M  V30 3293 H 310.124 -3.2195 0.549139 0
M  V30 3294 H 308.783 -2.59603 2.58847 0
M  V30 3295 H 308.431 -4.80839 1.47657 0
M  V30 3296 H 308.131 -4.9088 3.22972 0
M  V30 3297 H 309.655 -5.54775 2.55063 0
M  V30 3298 H 311.069 -3.94483 4.16 0
M  V30 3299 H 309.466 -3.54445 4.8424 0
M  V30 3300 H 310.536 -2.23855 4.30136 0
M  V30 3301 N 311.879 -1.3236 -0.855495 0
M  V30 3302 C 313.156 -1.13491 -1.59309 0
M  V30 3303 C 313.536 0.30503 -2.08885 0
M  V30 3304 O 312.884 1.30151 -1.87811 0
M  V30 3305 C 313.094 -2.16176 -2.73987 0
M  V30 3306 C 314.442 -2.49463 -3.43589 0
M  V30 3307 O 315.466 -2.14715 -2.84211 0
M  V30 3308 O 314.325 -3.09027 -4.50738 0
M  V30 3309 H 311.419 -0.437887 -0.701559 0
M  V30 3310 H 313.965 -1.43887 -0.899696 0
M  V30 3311 H 312.737 -3.1297 -2.34873 0
M  V30 3312 H 312.36 -1.86769 -3.51003 0
M  V30 3313 N 313.357 1.07166 -1.15556 0
M  V30 3314 C 314.32 2.12589 -0.856644 0
M  V30 3315 C 315.32 1.6015 0.14444 0
M  V30 3316 O 316.51 1.7399 -0.0854163 0
M  V30 3317 C 313.642 3.39753 -0.279405 0
M  V30 3318 H 314.835 2.40539 -1.79112 0
M  V30 3319 H 312.388 1.23086 -0.963298 0
M  V30 3320 H 313.123 3.17447 0.663174 0
M  V30 3321 H 312.908 3.79117 -1.00063 0
M  V30 3322 H 314.398 4.17507 -0.0879113 0
M  V30 3323 N 314.835 0.952656 1.25548 0
M  V30 3324 C 316.06 0.623025 1.97821 0
M  V30 3325 C 316.485 -0.7976 1.70352 0
M  V30 3326 O 315.843 -1.53905 0.958283 0
M  V30 3327 C 315.891 0.885532 3.49558 0
M  V30 3328 O 314.995 -0.0366641 4.12384 0
M  V30 3329 H 314.336 0.237082 0.620232 0
M  V30 3330 H 316.866 1.27871 1.59719 0
M  V30 3331 H 316.876 0.811009 3.99858 0
M  V30 3332 H 315.551 1.92094 3.6888 0
M  V30 3333 H 314.128 0.0898954 3.72792 0
M  V30 3334 N 316.313 -1.40141 0.720998 0
M  V30 3335 C 317.26 -2.30688 0.071919 0
M  V30 3336 C 318.23 -1.48476 -0.744584 0
M  V30 3337 O 319.415 -1.77201 -0.707423 0
M  V30 3338 C 316.555 -3.34724 -0.839855 0
M  V30 3339 C 315.668 -4.31998 -0.0122438 0
M  V30 3340 C 314.803 -5.23102 -0.923995 0
M  V30 3341 C 313.842 -6.12033 -0.0907969 0
M  V30 3342 N 312.979 -6.95537 -0.957718 0
M  V30 3343 H 317.819 -2.85628 0.849755 0
M  V30 3344 H 315.356 -1.40653 0.430726 0
M  V30 3345 H 317.314 -3.93618 -1.38279 0
M  V30 3346 H 315.944 -2.81274 -1.58381 0
M  V30 3347 H 314.996 -3.74841 0.64794 0
M  V30 3348 H 316.308 -4.94772 0.632595 0
M  V30 3349 H 315.462 -5.86953 -1.53527 0
M  V30 3350 H 314.201 -4.60615 -1.60264 0
M  V30 3351 H 313.206 -5.47207 0.533377 0
M  V30 3352 H 314.431 -6.76581 0.584428 0
M  V30 3353 H 312.377 -6.35633 -1.62192 0
M  V30 3354 H 312.294 -7.55099 -0.36904 0
M  V30 3355 H 313.562 -7.63832 -1.555 0
M  V30 3356 N 317.792 -0.46758 -1.50504 0
M  V30 3357 C 318.742 0.34698 -2.25344 0
M  V30 3358 C 319.726 0.964469 -1.2879 0
M  V30 3359 O 320.918 0.8776 -1.53711 0
M  V30 3360 C 318.047 1.43042 -3.1208 0
M  V30 3361 C 317.133 0.82084 -4.16081 0
M  V30 3362 N 317.524 -0.0567602 -5.05768 0
M  V30 3363 C 315.822 1.08517 -4.32597 0
M  V30 3364 C 316.523 -0.402343 -5.80307 0
M  V30 3365 N 315.499 0.221607 -5.43148 0
M  V30 3366 H 319.301 -0.329129 -2.92051 0
M  V30 3367 H 316.815 -0.281508 -1.59942 0
M  V30 3368 H 318.812 2.02712 -3.64299 0
M  V30 3369 H 317.472 2.10856 -2.46921 0
M  V30 3370 H 318.483 -0.425349 -5.1615 0
M  V30 3371 H 315.16 1.75855 -3.78657 0
M  V30 3372 H 316.55 -1.11834 -6.62528 0
M  V30 3373 N 319.27 1.56325 -0.20005 0
M  V30 3374 C 320.203 2.15234 0.758267 0
M  V30 3375 C 321.181 1.09046 1.20614 0
M  V30 3376 O 322.365 1.37186 1.29276 0
M  V30 3377 C 319.492 2.71524 2.02466 0
M  V30 3378 C 318.538 3.90345 1.71852 0
M  V30 3379 S 319.371 5.28513 0.862249 0
M  V30 3380 C 320.527 5.88227 2.13868 0
M  V30 3381 H 320.76 2.96183 0.2575 0
M  V30 3382 H 318.293 1.54393 0.0150099 0
M  V30 3383 H 320.251 3.04598 2.75191 0
M  V30 3384 H 318.912 1.90607 2.49655 0
M  V30 3385 H 318.105 4.28158 2.65888 0
M  V30 3386 H 317.707 3.58306 1.07205 0
M  V30 3387 H 319.999 6.02891 3.09076 0
M  V30 3388 H 320.942 6.84714 1.80479 0
M  V30 3389 H 321.35 5.16874 2.2694 0
M  V30 3390 N 320.748 -0.0735177 1.57428 0
M  V30 3391 C 321.994 -0.768909 1.88307 0
M  V30 3392 C 322.349 -1.75273 0.793535 0
M  V30 3393 O 321.642 -1.90527 -0.202466 0
M  V30 3394 C 321.836 -1.51799 3.23561 0
M  V30 3395 C 321.665 -0.608217 4.45568 0
M  V30 3396 C 320.435 -0.245808 5.04702 0
M  V30 3397 C 322.633 0.0942904 5.14214 0
M  V30 3398 N 320.615 0.66987 6.10234 0
M  V30 3399 C 321.986 0.867222 6.13905 0
M  V30 3400 C 324.041 0.165943 4.97623 0
M  V30 3401 C 322.744 1.70515 6.98797 0
M  V30 3402 C 324.77 0.990837 5.83041 0
M  V30 3403 C 324.132 1.75182 6.82269 0
M  V30 3404 H 320.231 -0.25685 0.738615 0
M  V30 3405 H 322.815 -0.030499 1.94676 0
M  V30 3406 H 320.986 -2.22713 3.18203 0
M  V30 3407 H 322.718 -2.16226 3.42094 0
M  V30 3408 H 319.473 -0.598284 4.69806 0
M  V30 3409 H 319.897 1.1209 6.67656 0
M  V30 3410 H 324.539 -0.408064 4.20826 0
M  V30 3411 H 322.257 2.29013 7.7497 0
M  V30 3412 H 325.843 1.04923 5.72261 0
M  V30 3413 H 324.723 2.37983 7.47217 0
M  V30 3414 N 322.226 -1.5378 -0.344866 0
M  V30 3415 C 323.637 -1.62428 -0.920552 0
M  V30 3416 C 323.988 -0.504747 -1.89596 0
M  V30 3417 O 323.113 0.365711 -2.13287 0
M  V30 3418 C 323.708 -2.94419 -1.67639 0
M  V30 3419 C 322.267 -3.05333 -2.20111 0
M  V30 3420 C 321.414 -2.57866 -1.01982 0
M  V30 3421 H 324.365 -1.58222 -0.123042 0
M  V30 3422 H 324.386 -2.83384 -2.53917 0
M  V30 3423 H 323.898 -3.7588 -0.966224 0
M  V30 3424 H 321.999 -2.28502 -2.94308 0
M  V30 3425 H 322.112 -4.10778 -2.46573 0
M  V30 3426 H 320.476 -2.13241 -1.39285 0
M  V30 3427 H 321.259 -3.41765 -0.324308 0
M  V30 3428 N 323.704 0.605807 -1.45491 0
M  V30 3429 C 324.952 1.36207 -1.49305 0
M  V30 3430 C 325.273 1.94519 -0.136863 0
M  V30 3431 O 324.543 1.77261 0.833983 0
M  V30 3432 H 323.123 0.50565 -0.549843 0
M  V30 3433 H 325.785 0.711239 -1.81459 0
M  V30 3434 H 324.881 2.18058 -2.23287 0
M  V30 3435 N 325.182 1.32811 0.848464 0
M  V30 3436 C 326.459 1.14334 1.58704 0
M  V30 3437 C 326.839 -0.293948 2.09043 0
M  V30 3438 O 326.187 -1.29153 1.88499 0
M  V30 3439 C 326.397 2.17626 2.72837 0
M  V30 3440 C 327.745 2.51282 3.42261 0
M  V30 3441 O 328.769 2.16219 2.83068 0
M  V30 3442 O 327.628 3.11413 4.49093 0
M  V30 3443 H 324.722 0.441601 0.699226 0
M  V30 3444 H 327.268 1.44362 0.892053 0
M  V30 3445 H 326.04 3.14211 2.3321 0
M  V30 3446 H 325.663 1.88628 3.50008 0
M  V30 3447 N 326.66 -1.06551 1.16123 0
M  V30 3448 C 327.909 -1.78687 0.935622 0
M  V30 3449 C 328.222 -1.88056 -0.538001 0
M  V30 3450 O 329.428 -2.56794 -0.88143 0
M  V30 3451 C 327.884 -3.21143 1.62466 0
M  V30 3452 C 327.492 -3.19949 3.13587 0
M  V30 3453 C 329.236 -3.9783 1.48092 0
M  V30 3454 C 327.143 -4.57108 3.75241 0
M  V30 3455 H 326.073 -0.669712 0.346412 0
M  V30 3456 H 328.724 -1.19534 1.39226 0
M  V30 3457 H 327.106 -3.80539 1.09572 0
M  V30 3458 H 328.28 -2.70151 3.73303 0
M  V30 3459 H 326.595 -2.5676 3.27816 0
M  V30 3460 H 329.192 -4.99217 1.91538 0
M  V30 3461 H 329.535 -4.14078 0.429507 0
M  V30 3462 H 330.068 -3.4495 1.98127 0
M  V30 3463 H 326.807 -4.46065 4.80319 0
M  V30 3464 H 326.327 -5.07111 3.20309 0
M  V30 3465 H 328.006 -5.26069 3.76644 0
M  V30 3466 N 328.138 -0.959301 -1.25041 0
M  V30 3467 C 329.085 -0.482057 -2.2571 0
M  V30 3468 C 330.055 0.467939 -1.59372 0
M  V30 3469 O 331.24 0.380159 -1.86974 0
M  V30 3470 C 328.38 0.229623 -3.44335 0
M  V30 3471 C 327.493 -0.758156 -4.25295 0
M  V30 3472 C 326.628 -0.0234403 -5.31195 0
M  V30 3473 C 325.667 -1.00184 -6.03846 0
M  V30 3474 N 324.804 -0.29769 -7.01469 0
M  V30 3475 H 329.644 -1.34538 -2.65901 0
M  V30 3476 H 327.181 -0.674592 -1.3072 0
M  V30 3477 H 329.139 0.658856 -4.11965 0
M  V30 3478 H 327.769 1.05696 -3.05005 0
M  V30 3479 H 326.821 -1.30586 -3.57284 0
M  V30 3480 H 328.133 -1.50458 -4.75567 0
M  V30 3481 H 327.287 0.464201 -6.04922 0
M  V30 3482 H 326.026 0.755741 -4.81809 0
M  V30 3483 H 325.031 -1.50044 -5.2893 0
M  V30 3484 H 326.256 -1.78133 -6.55321 0
M  V30 3485 H 324.202 0.462668 -6.54366 0
M  V30 3486 H 324.119 -0.983128 -7.4958 0
M  V30 3487 H 325.387 0.16826 -7.79318 0
M  V30 3488 N 329.616 1.39756 -0.72842 0
M  V30 3489 C 330.579 2.29012 -0.0927297 0
M  V30 3490 C 331.579 1.45992 0.674025 0
M  V30 3491 O 332.769 1.66749 0.50402 0
M  V30 3492 C 329.901 3.29396 0.878137 0
M  V30 3493 H 331.094 2.86729 -0.879011 0
M  V30 3494 H 328.647 1.48293 -0.493847 0
M  V30 3495 H 329.382 2.76722 1.69101 0
M  V30 3496 H 329.167 3.907 0.331051 0
M  V30 3497 H 330.657 3.96199 1.3197 0
M  V30 3498 N 331.094 0.475555 1.50254 0
M  V30 3499 C 332.343 -0.0795996 2.01543 0
M  V30 3500 C 332.656 -1.4038 1.36209 0
M  V30 3501 O 333.862 -2.04415 1.7868 0
M  V30 3502 C 332.318 -0.192363 3.59386 0
M  V30 3503 C 331.926 1.12367 4.33679 0
M  V30 3504 C 333.67 -0.699238 4.18701 0
M  V30 3505 C 331.577 0.974453 5.83317 0
M  V30 3506 H 330.507 -0.0335228 0.753254 0
M  V30 3507 H 333.158 0.611128 1.73025 0
M  V30 3508 H 331.54 -0.946974 3.84511 0
M  V30 3509 H 332.714 1.88958 4.20276 0
M  V30 3510 H 331.029 1.562 3.85993 0
M  V30 3511 H 333.626 -0.827978 5.28251 0
M  V30 3512 H 333.969 -1.69171 3.80377 0
M  V30 3513 H 334.502 -0.00188807 3.978 0
M  V30 3514 H 331.241 1.94042 6.26121 0
M  V30 3515 H 330.761 0.248998 5.99283 0
M  V30 3516 H 332.44 0.642867 6.43798 0
M  V30 3517 N 332.573 -1.56217 0.208337 0
M  V30 3518 C 333.503 -2.22694 -0.702116 0
M  V30 3519 C 334.484 -1.19432 -1.2112 0
M  V30 3520 O 335.669 -1.47978 -1.25762 0
M  V30 3521 C 332.799 -2.8966 -1.9161 0
M  V30 3522 C 331.753 -3.9928 -1.5414 0
M  V30 3523 C 331.079 -4.53476 -2.83308 0
M  V30 3524 C 332.379 -5.17012 -0.741339 0
M  V30 3525 H 334.073 -2.99034 -0.147898 0
M  V30 3526 H 331.619 -1.43831 -0.0696951 0
M  V30 3527 H 333.572 -3.34852 -2.55836 0
M  V30 3528 H 332.296 -2.10746 -2.49507 0
M  V30 3529 H 330.955 -3.54799 -0.922668 0
M  V30 3530 H 330.603 -3.71308 -3.39322 0
M  V30 3531 H 330.303 -5.27451 -2.58976 0
M  V30 3532 H 331.827 -5.01378 -3.485 0
M  V30 3533 H 333.241 -5.58667 -1.28699 0
M  V30 3534 H 331.638 -5.97137 -0.595627 0
M  V30 3535 H 332.708 -4.8423 0.254851 0
M  V30 3536 N 334.051 0.0651679 -1.57465 0
M  V30 3537 C 335.328 0.79644 -1.78651 0
M  V30 3538 C 335.708 1.95454 -0.797566 0
M  V30 3539 O 335.056 2.27882 0.167946 0
M  V30 3540 C 335.266 1.26322 -3.25337 0
M  V30 3541 C 336.614 1.6939 -3.89348 0
M  V30 3542 O 337.638 1.35872 -3.29268 0
M  V30 3543 O 336.497 2.31471 -4.95059 0
M  V30 3544 H 333.591 0.382157 -0.733407 0
M  V30 3545 H 336.137 0.0447311 -1.69641 0
M  V30 3546 H 334.909 0.434859 -3.88876 0
M  V30 3547 H 334.532 2.07604 -3.39096 0
M  V30 3548 N 335.529 1.53961 0.336706 0
M  V30 3549 C 336.476 1.82428 1.41381 0
M  V30 3550 C 337.446 0.670444 1.51968 0
M  V30 3551 O 338.631 0.915565 1.67398 0
M  V30 3552 C 335.771 2.04564 2.77934 0
M  V30 3553 C 334.884 3.32267 2.76084 0
M  V30 3554 C 334.019 3.44434 4.04399 0
M  V30 3555 C 333.058 4.66061 3.96804 0
M  V30 3556 N 332.195 4.75224 5.16823 0
M  V30 3557 H 337.035 2.74324 1.16405 0
M  V30 3558 H 334.572 1.35869 0.563752 0
M  V30 3559 H 336.53 2.15388 3.57301 0
M  V30 3560 H 335.16 1.15974 3.01247 0
M  V30 3561 H 334.212 3.3025 1.88784 0
M  V30 3562 H 335.524 4.21733 2.66351 0
M  V30 3563 H 334.678 3.54728 4.92192 0
M  V30 3564 H 333.417 2.53037 4.16921 0
M  V30 3565 H 332.422 4.55838 3.07396 0
M  V30 3566 H 333.647 5.58829 3.85858 0
M  V30 3567 H 331.593 3.86739 5.29876 0
M  V30 3568 H 331.51 5.58636 5.09374 0
M  V30 3569 H 332.778 4.89835 6.06367 0
M  V30 3570 N 337.007 -0.598083 1.45811 0
M  V30 3571 C 337.937 -1.71873 1.58057 0
M  V30 3572 C 338.918 -1.64533 0.431615 0
M  V30 3573 O 340.103 -1.82787 0.65595 0
M  V30 3574 C 337.233 -3.10495 1.55597 0
M  V30 3575 C 336.187 -3.32654 2.69305 0
M  V30 3576 C 335.513 -4.71646 2.51902 0
M  V30 3577 C 336.813 -3.21981 4.11248 0
M  V30 3578 H 338.507 -1.61881 2.51863 0
M  V30 3579 H 336.053 -0.777372 1.21214 0
M  V30 3580 H 338.006 -3.88699 1.6276 0
M  V30 3581 H 336.73 -3.2135 0.583255 0
M  V30 3582 H 335.389 -2.56843 2.61586 0
M  V30 3583 H 335.037 -4.79246 1.52748 0
M  V30 3584 H 334.737 -4.87426 3.2816 0
M  V30 3585 H 336.261 -5.52038 2.60933 0
M  V30 3586 H 337.675 -3.90049 4.20161 0
M  V30 3587 H 336.072 -3.49289 4.87972 0
M  V30 3588 H 337.142 -2.1928 4.32486 0
M  V30 3589 N 338.485 -1.33259 -0.841409 0
M  V30 3590 C 339.435 -1.19872 -1.93945 0
M  V30 3591 C 340.419 -0.102269 -1.60575 0
M  V30 3592 O 341.611 -0.330114 -1.73894 0
M  V30 3593 C 338.74 -0.937517 -3.30251 0
M  V30 3594 C 337.826 -2.07629 -3.69799 0
M  V30 3595 N 338.217 -3.32604 -3.81062 0
M  V30 3596 C 336.515 -1.98242 -3.9952 0
M  V30 3597 C 337.216 -4.07275 -4.15333 0
M  V30 3598 N 336.192 -3.35691 -4.27566 0
M  V30 3599 H 339.994 -2.14604 -2.00805 0
M  V30 3600 H 337.508 -1.2523 -1.03398 0
M  V30 3601 H 339.505 -0.822545 -4.08705 0
M  V30 3602 H 338.165 0.00128798 -3.247 0
M  V30 3603 H 339.176 -3.67382 -3.65035 0
M  V30 3604 H 335.853 -1.12005 -4.02195 0
M  V30 3605 H 337.243 -5.1511 -4.31406 0
M  V30 3606 N 339.963 1.05934 -1.16686 0
M  V30 3607 C 340.911 2.15603 -0.872817 0
M  V30 3608 C 341.905 1.68647 0.159576 0
M  V30 3609 O 343.111 1.79995 0.0132125 0
M  V30 3610 H 339.486 0.703885 -0.264671 0
M  V30 3611 H 341.457 2.37613 -1.80507 0
M  V30 3612 C 340.206 3.45457 -0.394344 0
M  V30 3613 H 339.529 3.81984 -1.18019 0
M  V30 3614 H 340.969 4.2339 -0.227408 0
M  V30 3615 C 339.428 3.25021 0.88673 0
M  V30 3616 O 339.958 3.50906 1.95519 0
M  V30 3617 N 338.164 2.78437 0.831925 0
M  V30 3618 H 337.711 2.57572 -0.0377619 0
M  V30 3619 H 337.669 2.65144 1.68956 0
M  V30 3620 N 341.441 0.965919 1.2453 0
M  V30 3621 C 342.371 0.513476 2.27784 0
M  V30 3622 C 343.352 -0.445974 1.6415 0
M  V30 3623 O 344.537 -0.342485 1.91156 0
M  V30 3624 C 341.667 -0.198839 3.4673 0
M  V30 3625 C 340.621 0.676456 4.2262 0
M  V30 3626 C 339.947 -0.167248 5.34438 0
M  V30 3627 C 341.247 1.96017 4.84123 0
M  V30 3628 H 342.941 1.3765 2.65881 0
M  V30 3629 H 340.487 0.663321 1.27813 0
M  V30 3630 H 342.44 -0.526567 4.18097 0
M  V30 3631 H 341.164 -1.0962 3.07654 0
M  V30 3632 H 339.823 0.98743 3.53052 0
M  V30 3633 H 339.471 -1.0647 4.91603 0
M  V30 3634 H 339.171 0.415181 5.86131 0
M  V30 3635 H 340.695 -0.489688 6.08633 0
M  V30 3636 H 342.109 1.69814 5.47573 0
M  V30 3637 H 340.506 2.48918 5.4604 0
M  V30 3638 H 341.576 2.65622 4.05676 0
M  V30 3639 N 342.919 -1.39368 0.735821 0
M  V30 3640 C 343.867 -2.32443 0.0855131 0
M  V30 3641 C 344.861 -1.53104 -0.724954 0
M  V30 3642 O 346.067 -1.68762 -0.626047 0
M  V30 3643 H 342.442 -0.751948 0.00885257 0
M  V30 3644 H 344.413 -2.84916 0.886883 0
M  V30 3645 C 343.162 -3.38206 -0.806983 0
M  V30 3646 H 342.485 -3.99335 -0.19274 0
M  V30 3647 H 343.925 -4.05779 -1.2296 0
M  V30 3648 C 342.384 -2.75321 -1.94165 0
M  V30 3649 O 342.914 -2.63231 -3.03435 0
M  V30 3650 N 341.12 -2.33396 -1.73132 0
M  V30 3651 H 340.667 -2.4343 -0.842596 0
M  V30 3652 H 340.625 -1.91661 -2.49225 0
M  V30 3653 N 344.397 -0.483516 -1.5 0
M  V30 3654 C 345.622 0.0667119 -2.07293 0
M  V30 3655 C 346.047 1.3164 -1.3436 0
M  V30 3656 O 345.405 1.76945 -0.394987 0
M  V30 3657 C 345.453 0.321126 -3.59167 0
M  V30 3658 O 344.557 1.39927 -3.87936 0
M  V30 3659 H 343.898 -0.0184758 -0.663743 0
M  V30 3660 H 346.428 -0.678125 -1.93035 0
M  V30 3661 H 346.438 0.557906 -4.04168 0
M  V30 3662 H 345.113 -0.592007 -4.11665 0
M  V30 3663 H 343.69 1.14882 -3.54763 0
M  V30 3664 N 345.875 1.56104 -0.216619 0
M  V30 3665 C 346.823 2.21434 0.712036 0
M  V30 3666 C 347.817 1.19218 1.20348 0
M  V30 3667 O 349.023 1.3731 1.16387 0
M  V30 3668 H 345.398 0.70992 0.248026 0
M  V30 3669 H 347.369 2.98083 0.137558 0
M  V30 3670 C 346.118 2.90434 1.91163 0
M  V30 3671 H 345.441 3.68842 1.54258 0
M  V30 3672 H 346.881 3.39552 2.5393 0
M  V30 3673 C 345.34 1.92635 2.76394 0
M  V30 3674 O 345.87 1.44017 3.74996 0
M  V30 3675 N 344.076 1.60392 2.42328 0
M  V30 3676 H 343.623 2.00122 1.622 0
M  V30 3677 H 343.581 0.952159 2.99635 0
M  V30 3678 N 347.353 -0.0568162 1.57498 0
M  V30 3679 C 348.599 -0.748893 1.89111 0
M  V30 3680 C 348.954 -1.74422 0.81208 0
M  V30 3681 O 348.247 -1.90731 -0.182247 0
M  V30 3682 C 348.441 -1.48359 3.25153 0
M  V30 3683 C 348.27 -0.560924 4.46188 0
M  V30 3684 C 347.04 -0.192264 5.04934 0
M  V30 3685 C 349.238 0.148824 5.14085 0
M  V30 3686 N 347.22 0.734555 6.0949 0
M  V30 3687 C 348.591 0.932286 6.12951 0
M  V30 3688 C 350.646 0.218713 4.97419 0
M  V30 3689 C 349.349 1.77917 6.96949 0
M  V30 3690 C 351.375 1.05262 5.81957 0
M  V30 3691 C 350.737 1.82409 6.80372 0
M  V30 3692 H 346.836 -0.249002 0.741298 0
M  V30 3693 H 349.42 -0.00984926 1.94698 0
M  V30 3694 H 347.591 -2.19326 3.20547 0
M  V30 3695 H 349.323 -2.12586 3.44368 0
M  V30 3696 H 346.078 -0.548421 4.70414 0
M  V30 3697 H 346.502 1.19165 6.6643 0
M  V30 3698 H 351.144 -0.363407 4.21235 0
M  V30 3699 H 348.862 2.3722 7.72497 0
M  V30 3700 H 352.448 1.10987 5.71116 0
M  V30 3701 H 351.328 2.45895 7.44651 0
M  V30 3702 N 348.832 -1.54138 -0.328536 0
M  V30 3703 C 350.079 -1.72105 -1.06706 0
M  V30 3704 C 350.407 -0.492111 -1.88171 0
M  V30 3705 O 349.662 0.526153 -1.88494 0
M  V30 3706 C 349.961 -2.9457 -2.02393 0
M  V30 3707 C 349.627 -4.29544 -1.37122 0
M  V30 3708 C 348.289 -4.6624 -1.19052 0
M  V30 3709 C 350.641 -5.1333 -0.902331 0
M  V30 3710 C 347.969 -5.84325 -0.527331 0
M  V30 3711 C 350.321 -6.32094 -0.252988 0
M  V30 3712 C 348.985 -6.67473 -0.0600901 0
M  V30 3713 H 348.255 -0.629775 -0.390466 0
M  V30 3714 H 350.902 -1.88372 -0.34473 0
M  V30 3715 H 349.207 -2.72969 -2.81061 0
M  V30 3716 H 350.904 -3.05665 -2.59557 0
M  V30 3717 H 347.494 -4.0067 -1.52188 0
M  V30 3718 H 351.678 -4.855 -1.02974 0
M  V30 3719 H 346.934 -6.103 -0.366634 0
M  V30 3720 H 351.108 -6.96299 0.118366 0
M  V30 3721 H 348.735 -7.58832 0.455828 0
M  V30 3722 N 350.31 0.590341 -1.46126 0
M  V30 3723 C 351.721 1.17243 -1.45296 0
M  V30 3724 C 352.072 1.95281 -0.189723 0
M  V30 3725 O 351.197 2.04502 0.707674 0
M  V30 3726 C 351.792 2.13284 -2.6324 0
M  V30 3727 C 350.351 2.66832 -2.65476 0
M  V30 3728 C 349.498 1.42557 -2.3785 0
M  V30 3729 H 352.449 0.378692 -1.54116 0
M  V30 3730 H 352.47 2.96619 -2.38323 0
M  V30 3731 H 351.982 1.56459 -3.55165 0
M  V30 3732 H 350.083 3.27548 -1.77603 0
M  V30 3733 H 350.196 3.10088 -3.65215 0
M  V30 3734 H 348.56 1.72107 -1.87753 0
M  V30 3735 H 349.343 0.875741 -3.31942 0
M  V30 3736 N 351.788 1.33704 0.83433 0
M  V30 3737 C 352.751 1.24244 1.92603 0
M  V30 3738 C 353.751 0.160383 1.59998 0
M  V30 3739 O 354.941 0.412228 1.69252 0
M  V30 3740 C 352.073 0.91555 3.28376 0
M  V30 3741 H 353.266 2.21287 2.02416 0
M  V30 3742 H 350.819 1.17827 1.02696 0
M  V30 3743 H 351.554 -0.0521886 3.24258 0
M  V30 3744 H 351.339 1.69811 3.53422 0
M  V30 3745 H 352.829 0.874231 4.08347 0
M  V30 3746 N 353.266 -1.05314 1.17247 0
M  V30 3747 C 354.514 -1.77941 0.958194 0
M  V30 3748 C 354.835 -1.88089 -0.514556 0
M  V30 3749 O 354.105 -1.39676 -1.37359 0
M  V30 3750 H 352.685 -0.659116 0.351533 0
M  V30 3751 H 355.347 -1.27166 1.47699 0
M  V30 3752 H 354.443 -2.79663 1.38546 0
M  V30 3753 N 354.744 -0.972509 -1.24016 0
M  V30 3754 C 355.969 -0.654417 -1.96805 0
M  V30 3755 C 356.394 0.770398 -1.716 0
M  V30 3756 O 355.752 1.52361 -0.982647 0
M  V30 3757 C 355.8 -0.941031 -3.48105 0
M  V30 3758 O 354.904 -0.0289472 -4.1239 0
M  V30 3759 H 354.245 -0.24692 -0.616382 0
M  V30 3760 H 356.775 -1.30396 -1.57664 0
M  V30 3761 H 356.785 -0.87452 -3.98517 0
M  V30 3762 H 355.46 -1.97939 -3.65777 0
M  V30 3763 H 354.037 -0.149192 -3.72601 0
M  V30 3764 N 356.222 1.38976 -0.743202 0
M  V30 3765 C 357.169 2.30544 -0.10861 0
M  V30 3766 C 358.139 1.49642 0.720869 0
M  V30 3767 O 359.324 1.78304 0.679142 0
M  V30 3768 C 356.464 3.36018 0.786496 0
M  V30 3769 C 355.577 4.31963 -0.0564849 0
M  V30 3770 C 354.712 5.24506 0.840657 0
M  V30 3771 C 353.751 6.121 -0.00658363 0
M  V30 3772 N 352.888 6.96973 0.846943 0
M  V30 3773 H 357.728 2.8424 -0.895088 0
M  V30 3774 H 355.265 1.3995 -0.453048 0
M  V30 3775 H 357.223 3.95768 1.31999 0
M  V30 3776 H 355.853 2.83758 1.53887 0
M  V30 3777 H 354.905 3.73763 -0.707492 0
M  V30 3778 H 356.217 4.93703 -0.711229 0
M  V30 3779 H 355.371 5.89322 1.4417 0
M  V30 3780 H 354.11 4.63107 1.52916 0
M  V30 3781 H 353.115 5.46289 -0.620366 0
M  V30 3782 H 354.34 6.75565 -0.691992 0
M  V30 3783 H 352.286 6.38133 1.52059 0
M  V30 3784 H 352.203 7.5559 0.248864 0
M  V30 3785 H 353.471 7.6621 1.43328 0
M  V30 3786 N 357.7 0.491464 1.49741 0
M  V30 3787 C 359.111 0.0413169 1.86654 0
M  V30 3788 C 359.462 -1.36985 1.40462 0
M  V30 3789 O 358.587 -2.01917 0.778354 0
M  V30 3790 C 359.182 0.0682023 3.38731 0
M  V30 3791 C 357.741 -0.32656 3.74981 0
M  V30 3792 C 356.888 0.444888 2.73708 0
M  V30 3793 H 359.839 0.704733 1.42194 0
M  V30 3794 H 359.86 -0.729322 3.73445 0
M  V30 3795 H 359.372 1.09539 3.72321 0
M  V30 3796 H 357.473 -1.35734 3.46997 0
M  V30 3797 H 357.586 -0.013741 4.79098 0
M  V30 3798 H 355.95 -0.104062 2.54487 0
M  V30 3799 H 356.733 1.47197 3.10142 0
M  V30 3800 N 359.178 -1.55987 0.224894 0
M  V30 3801 C 360.425 -1.9839 -0.4059 0
M  V30 3802 C 360.753 -1.11261 -1.59535 0
M  V30 3803 O 360.008 -0.158314 -1.95059 0
M  V30 3804 C 360.307 -3.46394 -0.880106 0
M  V30 3805 C 359.973 -4.5046 0.19918 0
M  V30 3806 C 358.635 -4.7864 0.495661 0
M  V30 3807 C 360.987 -5.12855 0.928939 0
M  V30 3808 C 358.315 -5.66497 1.52636 0
M  V30 3809 C 360.667 -6.01828 1.949 0
M  V30 3810 C 359.331 -6.28351 2.25236 0
M  V30 3811 H 358.601 -0.725961 -0.148529 0
M  V30 3812 H 361.248 -1.88668 0.328113 0
M  V30 3813 H 359.553 -3.53337 -1.69294 0
M  V30 3814 H 361.25 -3.76577 -1.37808 0
M  V30 3815 H 357.84 -4.28579 -0.0420526 0
M  V30 3816 H 362.024 -4.9115 0.713129 0
M  V30 3817 H 357.28 -5.8531 1.76698 0
M  V30 3818 H 361.454 -6.49225 2.51951 0
M  V30 3819 H 359.081 -6.96226 3.05244 0
M  V30 3820 N 360.656 0.0484629 -1.57525 0
M  V30 3821 C 361.905 0.742065 -1.87553 0
M  V30 3822 C 362.218 1.77545 -0.820802 0
M  V30 3823 O 363.424 2.52027 -1.00967 0
M  V30 3824 C 361.88 1.37081 -3.32771 0
M  V30 3825 C 361.488 0.374786 -4.4643 0
M  V30 3826 C 363.232 2.04542 -3.71972 0
M  V30 3827 C 361.139 1.01077 -5.82698 0
M  V30 3828 H 360.069 0.280903 -0.699721 0
M  V30 3829 H 362.72 -0.00411877 -1.835 0
M  V30 3830 H 361.102 2.16605 -3.31509 0
M  V30 3831 H 362.276 -0.392331 -4.59127 0
M  V30 3832 H 360.591 -0.196653 -4.15935 0
M  V30 3833 H 363.188 2.52943 -4.71088 0
M  V30 3834 H 363.531 2.85515 -3.02964 0
M  V30 3835 H 364.064 1.31819 -3.75325 0
M  V30 3836 H 360.803 0.240878 -6.55057 0
M  V30 3837 H 360.323 1.74819 -5.73758 0
M  V30 3838 H 362.002 1.52383 -6.28799 0
M  V30 3839 N 362.134 1.5431 0.320358 0
M  V30 3840 C 363.364 1.7638 1.07582 0
M  V30 3841 C 363.772 0.513944 1.82086 0
M  V30 3842 O 363.115 -0.525123 1.76035 0
M  V30 3843 C 363.177 2.9055 2.1171 0
M  V30 3844 C 362.841 4.2934 1.56575 0
M  V30 3845 C 363.838 5.10077 1.00586 0
M  V30 3846 C 361.523 4.75893 1.60722 0
M  V30 3847 C 363.517 6.35477 0.494756 0
M  V30 3848 C 361.204 6.0126 1.09224 0
M  V30 3849 C 362.202 6.80886 0.53696 0
M  V30 3850 O 361.89 8.03894 0.0297371 0
M  V30 3851 H 361.622 0.592369 0.325692 0
M  V30 3852 H 364.176 2.02019 0.37116 0
M  V30 3853 H 362.406 2.60489 2.85801 0
M  V30 3854 H 364.095 3.00373 2.73003 0
M  V30 3855 H 364.861 4.75265 0.966869 0
M  V30 3856 H 360.74 4.13957 2.02882 0
M  V30 3857 H 364.284 6.97574 0.0606842 0
M  V30 3858 H 360.181 6.35562 1.12831 0
M  V30 3859 H 360.949 8.18372 0.14486 0
M  V30 3860 N 363.613 -0.582584 1.46437 0
M  V30 3861 C 364.545 -1.70618 1.53043 0
M  V30 3862 C 365.558 -1.57322 0.418769 0
M  V30 3863 O 366.747 -1.64744 0.687136 0
M  V30 3864 C 363.847 -3.08869 1.39474 0
M  V30 3865 C 363.02 -3.48166 2.64762 0
M  V30 3866 C 362.079 -4.65478 2.4539 0
M  V30 3867 O 361.105 -4.71333 3.19114 0
M  V30 3868 N 362.307 -5.60365 1.51564 0
M  V30 3869 H 365.072 -1.65405 2.49923 0
M  V30 3870 H 362.633 -0.768567 1.42494 0
M  V30 3871 H 364.625 -3.85143 1.24287 0
M  V30 3872 H 363.195 -3.08449 0.507758 0
M  V30 3873 H 362.415 -2.61598 2.9489 0
M  V30 3874 H 363.703 -3.71188 3.4799 0
M  V30 3875 H 363.101 -5.5837 0.907705 0
M  V30 3876 H 361.658 -6.36068 1.4234 0
M  V30 3877 N 365.091 -1.34144 -0.827227 0
M  V30 3878 C 366.001 -1.27428 -1.96975 0
M  V30 3879 C 367.017 -0.182728 -1.73038 0
M  V30 3880 O 368.193 -0.408426 -1.97215 0
M  V30 3881 C 365.258 -1.02526 -3.31194 0
M  V30 3882 C 364.319 -2.20796 -3.68168 0
M  V30 3883 C 363.552 -1.97073 -4.95982 0
M  V30 3884 O 363.775 -0.926822 -5.6282 0
M  V30 3885 O 362.709 -2.83912 -5.30733 0
M  V30 3886 H 366.535 -2.23537 -2.05584 0
M  V30 3887 H 364.12 -1.14307 -0.961989 0
M  V30 3888 H 366.002 -0.904026 -4.11589 0
M  V30 3889 H 364.677 -0.0945389 -3.23562 0
M  V30 3890 H 363.584 -2.38477 -2.88235 0
M  V30 3891 H 364.917 -3.12243 -3.8048 0
M  V30 3892 N 366.569 1.04691 -1.17803 0
M  V30 3893 C 367.815 1.78045 -0.970969 0
M  V30 3894 C 368.148 1.87686 0.498751 0
M  V30 3895 O 367.423 1.38035 1.37027 0
M  V30 3896 C 367.706 3.2166 -1.61884 0
M  V30 3897 C 367.559 3.20001 -3.161 0
M  V30 3898 C 368.878 4.1962 -1.3269 0
M  V30 3899 H 365.997 0.64633 -0.354155 0
M  V30 3900 H 368.639 1.22333 -1.45378 0
M  V30 3901 H 366.789 3.69232 -1.20831 0
M  V30 3902 H 368.461 2.80467 -3.66246 0
M  V30 3903 H 366.704 2.58203 -3.48588 0
M  V30 3904 H 367.375 4.21386 -3.56564 0
M  V30 3905 H 369.851 3.80567 -1.68249 0
M  V30 3906 H 368.727 5.18339 -1.80599 0
M  V30 3907 H 368.988 4.414 -0.248622 0
M  V30 3908 N 368.047 0.979072 1.23499 0
M  V30 3909 C 369.296 0.642751 1.91185 0
M  V30 3910 C 369.609 -0.827253 1.77245 0
M  V30 3911 O 370.815 -1.27458 2.39722 0
M  V30 3912 C 369.271 1.09901 3.42709 0
M  V30 3913 C 368.879 2.59327 3.65313 0
M  V30 3914 C 370.623 0.836371 4.16179 0
M  V30 3915 C 368.53 2.98627 5.10467 0
M  V30 3916 H 367.46 0.236698 0.715884 0
M  V30 3917 H 370.111 1.1868 1.39955 0
M  V30 3918 H 368.493 0.48319 3.93041 0
M  V30 3919 H 369.667 3.26136 3.25533 0
M  V30 3920 H 367.982 2.83323 3.05151 0
M  V30 3921 H 370.579 1.10586 5.23139 0
M  V30 3922 H 370.922 -0.227509 4.15678 0
M  V30 3923 H 371.455 1.41371 3.71832 0
M  V30 3924 H 368.194 4.04133 5.16098 0
M  V30 3925 H 367.714 2.3651 5.51201 0
M  V30 3926 H 369.393 2.89159 5.78788 0
M  V30 3927 N 369.525 -1.3858 0.750561 0
M  V30 3928 C 370.802 -1.94231 0.231009 0
M  V30 3929 C 371.182 -1.68611 -1.27018 0
M  V30 3930 O 370.53 -1.02296 -2.04323 0
M  V30 3931 C 370.74 -3.44123 0.581428 0
M  V30 3932 C 372.088 -4.2116 0.539389 0
M  V30 3933 O 373.112 -3.52391 0.519541 0
M  V30 3934 O 371.971 -5.43749 0.54765 0
M  V30 3935 H 369.065 -0.825639 0.0474263 0
M  V30 3936 H 371.611 -1.4799 0.830478 0
M  V30 3937 H 370.383 -3.56267 1.61833 0
M  V30 3938 H 370.006 -3.97573 -0.0462047 0
M  V30 3939 N 371.003 -0.499398 -1.49478 0
M  V30 3940 C 371.933 0.269244 -2.31943 0
M  V30 3941 C 372.914 0.964054 -1.40143 0
M  V30 3942 O 374.099 0.955767 -1.69052 0
M  V30 3943 C 371.229 1.33504 -3.20615 0
M  V30 3944 C 370.183 0.760202 -4.21195 0
M  V30 3945 C 369.509 1.9264 -4.98792 0
M  V30 3946 C 370.809 -0.247661 -5.21712 0
M  V30 3947 H 372.503 -0.419082 -2.96452 0
M  V30 3948 H 370.049 -0.202988 -1.42562 0
M  V30 3949 H 372.002 1.88048 -3.77115 0
M  V30 3950 H 370.726 2.05253 -2.54045 0
M  V30 3951 H 369.385 0.23653 -3.65836 0
M  V30 3952 H 369.033 2.63154 -4.28671 0
M  V30 3953 H 368.733 1.54785 -5.66847 0
M  V30 3954 H 370.257 2.4762 -5.58137 0
M  V30 3955 H 371.671 0.209579 -5.72917 0
M  V30 3956 H 370.068 -0.541962 -5.97648 0
M  V30 3957 H 371.138 -1.16409 -4.7072 0
M  V30 3958 N 372.481 1.55866 -0.233164 0
M  V30 3959 C 373.729 1.9821 0.394593 0
M  V30 3960 C 374.05 1.12234 1.59463 0
M  V30 3961 O 373.32 0.201981 1.94856 0
M  V30 3962 H 371.9 0.732034 0.148778 0
M  V30 3963 H 374.562 1.92107 -0.32876 0
M  V30 3964 H 373.658 3.03845 0.713063 0
M  V30 3965 N 373.959 -0.0401083 1.57549 0
M  V30 3966 C 375.207 -0.731677 1.8839 0
M  V30 3967 C 375.528 -1.76481 0.829425 0
M  V30 3968 O 374.798 -1.95411 -0.1383 0
M  V30 3969 H 373.378 -0.273225 0.695239 0
M  V30 3970 H 376.04 -0.00867725 1.94898 0
M  V30 3971 H 375.136 -1.22816 2.86919 0
M  V30 3972 N 375.437 -1.54477 -0.31217 0
M  V30 3973 C 376.347 -1.87695 -1.4074 0
M  V30 3974 C 377.363 -0.769975 -1.56036 0
M  V30 3975 O 378.539 -1.06537 -1.70915 0
M  V30 3976 C 375.604 -2.10755 -2.75287 0
M  V30 3977 C 374.665 -3.34514 -2.69071 0
M  V30 3978 C 373.898 -3.56465 -3.97201 0
M  V30 3979 O 374.121 -2.81637 -4.96021 0
M  V30 3980 O 373.055 -4.49964 -3.9977 0
M  V30 3981 H 376.881 -2.80849 -1.15574 0
M  V30 3982 H 374.466 -1.40526 -0.507228 0
M  V30 3983 H 376.348 -2.27188 -3.54913 0
M  V30 3984 H 375.023 -1.20788 -3.0032 0
M  V30 3985 H 373.93 -3.23456 -1.87955 0
M  V30 3986 H 375.263 -4.24575 -2.48992 0
M  V30 3987 N 376.915 0.57481 -1.46744 0
M  V30 3988 C 378.326 1.15695 -1.46532 0
M  V30 3989 C 378.677 1.95068 -0.210425 0
M  V30 3990 O 377.802 2.05241 0.685944 0
M  V30 3991 C 378.397 2.1048 -2.65487 0
M  V30 3992 C 376.956 2.64002 -2.68291 0
M  V30 3993 C 376.103 1.40026 -2.39349 0
M  V30 3994 H 379.054 0.362325 -1.54509 0
M  V30 3995 H 379.075 2.94074 -2.41455 0
M  V30 3996 H 378.587 1.52683 -3.56805 0
M  V30 3997 H 376.688 3.25646 -1.81067 0
M  V30 3998 H 376.801 3.06197 -3.68483 0
M  V30 3999 H 375.165 1.70106 -1.89568 0
M  V30 4000 H 375.948 0.840485 -3.32852 0
M  V30 4001 N 378.394 1.34581 0.820102 0
M  V30 4002 C 379.643 1.26437 1.57151 0
M  V30 4003 C 379.956 -0.163111 1.94919 0
M  V30 4004 O 381.162 -0.366722 2.69012 0
M  V30 4005 C 379.618 2.21658 2.83541 0
M  V30 4006 C 379.226 3.69679 2.53065 0
M  V30 4007 C 380.97 2.22428 3.61561 0
M  V30 4008 C 378.877 4.56761 3.75664 0
M  V30 4009 H 377.807 0.469707 0.589823 0
M  V30 4010 H 380.458 1.59763 0.902656 0
M  V30 4011 H 378.84 1.81287 3.52067 0
M  V30 4012 H 380.014 4.18605 1.92631 0
M  V30 4013 H 378.329 3.71384 1.88316 0
M  V30 4014 H 380.926 2.8471 4.52597 0
M  V30 4015 H 381.269 1.22434 3.97889 0
M  V30 4016 H 381.802 2.61259 2.99981 0
M  V30 4017 H 378.541 5.57702 3.44454 0
M  V30 4018 H 378.061 4.12568 4.35371 0
M  V30 4019 H 379.74 4.71509 4.43044 0
M  V30 4020 N 379.872 -1.04064 1.18357 0
M  V30 4021 C 380.819 -2.12077 0.910603 0
M  V30 4022 C 381.789 -1.65421 -0.15 0
M  V30 4023 O 382.974 -1.90797 -0.0103614 0
M  V30 4024 C 380.114 -3.42252 0.442472 0
M  V30 4025 C 379.227 -4.0252 1.5685 0
M  V30 4026 C 378.362 -5.20657 1.05309 0
M  V30 4027 C 377.401 -5.72955 2.1538 0
M  V30 4028 N 376.538 -6.8238 1.65233 0
M  V30 4029 H 381.378 -2.34764 1.83548 0
M  V30 4030 H 378.915 -1.15157 0.915279 0
M  V30 4031 H 380.873 -4.16921 0.152534 0
M  V30 4032 H 379.503 -3.19712 -0.445428 0
M  V30 4033 H 378.555 -3.25178 1.97391 0
M  V30 4034 H 379.867 -4.37362 2.39824 0
M  V30 4035 H 379.021 -6.0244 0.717677 0
M  V30 4036 H 377.76 -4.87318 0.19293 0
M  V30 4037 H 376.765 -4.89793 2.49766 0
M  V30 4038 H 377.99 -6.08337 3.01832 0
M  V30 4039 H 375.936 -6.50917 0.815064 0
M  V30 4040 H 375.853 -7.16286 2.41805 0
M  V30 4041 H 377.121 -7.67788 1.34619 0
M  V30 4042 N 381.35 -0.985608 -1.22978 0
M  V30 4043 C 382.575 -0.675254 -1.961 0
M  V30 4044 C 383 0.752154 -1.72407 0
M  V30 4045 O 382.358 1.5131 -0.998751 0
M  V30 4046 C 382.406 -0.977899 -3.47087 0
M  V30 4047 O 381.51 -0.072685 -4.12336 0
M  V30 4048 H 380.851 -0.253443 -0.613728 0
M  V30 4049 H 383.381 -1.32061 -1.56272 0
M  V30 4050 H 383.391 -0.916739 -3.97567 0
M  V30 4051 H 382.066 -2.01807 -3.63657 0
M  V30 4052 H 380.643 -0.188703 -3.72422 0
M  V30 4053 N 382.828 1.3818 -0.7579 0
M  V30 4054 C 384.053 2.04827 -0.325679 0
M  V30 4055 C 384.478 1.56788 1.03919 0
M  V30 4056 O 383.836 0.721811 1.66312 0
M  V30 4057 C 383.884 3.58774 -0.362447 0
M  V30 4058 O 382.988 4.07372 0.642033 0
M  V30 4059 H 382.329 0.64833 -0.143402 0
M  V30 4060 H 384.859 1.7677 -1.03023 0
M  V30 4061 H 384.869 4.07434 -0.214844 0
M  V30 4062 H 383.544 3.93096 -1.35824 0
M  V30 4063 H 382.121 3.70068 0.458688 0
M  V30 4064 N 384.306 0.507319 1.49211 0
M  V30 4065 C 385.583 -0.0982702 1.95353 0
M  V30 4066 C 385.963 -1.53516 1.449 0
M  V30 4067 O 385.311 -2.18594 0.66551 0
M  V30 4068 C 385.521 -0.00440283 3.49 0
M  V30 4069 C 386.869 -0.175147 4.24239 0
M  V30 4070 O 387.893 -0.0792891 3.56112 0
M  V30 4071 O 386.752 -0.37276 5.45227 0
M  V30 4072 H 383.846 -0.0918236 0.821887 0
M  V30 4073 H 386.392 0.570307 1.5983 0
M  V30 4074 H 385.164 0.997402 3.78375 0
M  V30 4075 H 384.787 -0.712845 3.91158 0
M  V30 4076 N 385.784 -1.5574 0.241426 0
M  V30 4077 C 387.014 -2.02913 -0.38857 0
M  V30 4078 C 387.422 -1.12014 -1.52478 0
M  V30 4079 O 386.765 -0.125903 -1.83268 0
M  V30 4080 C 386.827 -3.4636 -0.963075 0
M  V30 4081 C 386.491 -4.56982 0.0401916 0
M  V30 4082 C 387.488 -5.12941 0.847766 0
M  V30 4083 C 385.173 -5.0203 0.164699 0
M  V30 4084 C 387.167 -6.12437 1.76636 0
M  V30 4085 C 384.854 -6.01358 1.0868 0
M  V30 4086 C 385.852 -6.5644 1.88616 0
M  V30 4087 O 385.54 -7.53831 2.79273 0
M  V30 4088 H 385.272 -0.668983 -0.0971452 0
M  V30 4089 H 387.826 -2.02198 0.361248 0
M  V30 4090 H 386.056 -3.44206 -1.76235 0
M  V30 4091 H 387.745 -3.77065 -1.50257 0
M  V30 4092 H 388.511 -4.78974 0.762133 0
M  V30 4093 H 384.39 -4.58824 -0.447411 0
M  V30 4094 H 387.934 -6.55355 2.39071 0
M  V30 4095 H 383.831 -6.34746 1.17338 0
M  V30 4096 H 384.599 -7.71428 2.73572 0
M  V30 4097 N 387.262 0.0317525 -1.57568 0
M  V30 4098 C 388.509 0.723104 -1.89149 0
M  V30 4099 C 388.837 1.75504 -0.838377 0
M  V30 4100 O 388.092 1.95037 0.160982 0
M  V30 4101 C 388.391 1.43167 -3.27472 0
M  V30 4102 C 388.057 0.535972 -4.47703 0
M  V30 4103 C 386.719 0.289262 -4.8033 0
M  V30 4104 C 389.071 -0.0826125 -5.21135 0
M  V30 4105 C 386.399 -0.584853 -5.83778 0
M  V30 4106 C 388.751 -0.944414 -6.25511 0
M  V30 4107 C 387.415 -1.20061 -6.56614 0
M  V30 4108 H 386.685 0.264602 -0.692146 0
M  V30 4109 H 389.332 -0.0169496 -1.91492 0
M  V30 4110 H 387.637 2.24497 -3.21105 0
M  V30 4111 H 389.334 1.97209 -3.49155 0
M  V30 4112 H 385.924 0.738414 -4.22191 0
M  V30 4113 H 390.108 0.0950302 -4.96209 0
M  V30 4114 H 385.364 -0.79168 -6.06253 0
M  V30 4115 H 389.538 -1.43026 -6.81554 0
M  V30 4116 H 387.165 -1.87967 -7.36595 0
M  V30 4117 N 388.74 1.54641 0.303973 0
M  V30 4118 C 389.988 1.73437 1.0375 0
M  V30 4119 C 390.309 0.521449 1.87899 0
M  V30 4120 O 389.579 -0.46432 1.90318 0
M  V30 4121 H 388.159 0.639518 0.386039 0
M  V30 4122 H 390.821 1.91988 0.335675 0
M  V30 4123 H 389.917 2.62235 1.69231 0
M  V30 4124 N 390.218 -0.567019 1.47046 0
M  V30 4125 C 391.166 -1.69593 1.59188 0
M  V30 4126 C 392.16 -1.63046 0.459609 0
M  V30 4127 O 393.366 -1.6835 0.637058 0
M  V30 4128 H 389.741 -0.560993 0.500791 0
M  V30 4129 H 391.712 -1.56488 2.54075 0
M  V30 4130 C 390.461 -3.07964 1.61411 0
M  V30 4131 H 389.784 -3.13679 2.47881 0
M  V30 4132 H 391.224 -3.86671 1.73958 0
M  V30 4133 C 389.683 -3.35123 0.34559 0
M  V30 4134 O 390.213 -3.97812 -0.557521 0
M  V30 4135 N 388.419 -2.89699 0.22864 0
M  V30 4136 H 387.966 -2.38863 0.964479 0
M  V30 4137 H 387.924 -3.08242 -0.619192 0
M  V30 4138 N 391.696 -1.35014 -0.812953 0
M  V30 4139 C 392.944 -1.27678 -1.56661 0
M  V30 4140 C 393.265 0.150359 -1.94419 0
M  V30 4141 O 392.535 1.08532 -1.63088 0
M  V30 4142 H 391.115 -0.469602 -0.580933 0
M  V30 4143 H 393.777 -1.69043 -0.970076 0
M  V30 4144 H 392.873 -1.88833 -2.48492 0
M  V30 4145 N 393.175 1.03435 -1.18907 0
M  V30 4146 C 394.591 1.28973 -0.940111 0
M  V30 4147 C 394.791 1.97676 0.390691 0
M  V30 4148 O 393.847 2.26127 1.12352 0
M  V30 4149 C 395.16 2.14221 -2.11021 0
M  V30 4150 C 396.708 2.27547 -2.14922 0
M  V30 4151 C 397.183 3.16164 -3.31367 0
M  V30 4152 N 398.674 3.23752 -3.31269 0
M  V30 4153 C 399.409 3.92495 -4.18014 0
M  V30 4154 N 398.905 4.63515 -5.14904 0
M  V30 4155 N 400.698 3.88838 -4.05908 0
M  V30 4156 H 392.849 0.57252 -2.04538 0
M  V30 4157 H 395.112 0.315184 -0.894071 0
M  V30 4158 H 394.818 1.71054 -3.073 0
M  V30 4159 H 394.692 3.14919 -2.0762 0
M  V30 4160 H 397.079 2.69947 -1.19217 0
M  V30 4161 H 397.16 1.26418 -2.22378 0
M  V30 4162 H 396.804 2.74474 -4.27348 0
M  V30 4163 H 396.734 4.17339 -3.21148 0
M  V30 4164 H 399.225 2.73167 -2.61129 0
M  V30 4165 H 399.538 5.13583 -5.77453 0
M  V30 4166 H 397.883 4.62398 -5.18857 0
M  V30 4167 H 401.074 3.32491 -3.29495 0
M  V30 4168 H 401.247 4.4214 -4.73726 0
M  V30 4169 N 394.653 0.992116 1.22453 0
M  V30 4170 C 395.899 0.668523 1.91464 0
M  V30 4171 C 396.232 -0.797313 1.77078 0
M  V30 4172 O 395.507 -1.5765 1.13916 0
M  V30 4173 C 395.79 1.07424 3.43703 0
M  V30 4174 C 395.643 2.59857 3.67143 0
M  V30 4175 C 396.962 0.626891 4.35612 0
M  V30 4176 H 394.081 0.244341 0.695318 0
M  V30 4177 H 396.723 1.2355 1.44345 0
M  V30 4178 H 394.873 0.591816 3.83966 0
M  V30 4179 H 396.545 3.15764 3.3629 0
M  V30 4180 H 394.788 3.01961 3.11451 0
M  V30 4181 H 395.459 2.83296 4.73759 0
M  V30 4182 H 397.935 1.04125 4.02861 0
M  V30 4183 H 396.811 0.939076 5.40807 0
M  V30 4184 H 397.072 -0.472457 4.39568 0
M  V30 4185 N 396.131 -1.37776 0.765217 0
M  V30 4186 C 397.359 -2.04124 0.337767 0
M  V30 4187 C 397.774 -1.57715 -1.03785 0
M  V30 4188 O 397.131 -0.755447 -1.6613 0
M  V30 4189 C 397.182 -3.59658 0.364442 0
M  V30 4190 O 396.903 -4.04367 1.68579 0
M  V30 4191 C 398.404 -4.43236 -0.0754221 0
M  V30 4192 H 395.624 -0.655696 0.142491 0
M  V30 4193 H 398.168 -1.76238 1.03732 0
M  V30 4194 H 396.323 -3.86339 -0.286471 0
M  V30 4195 H 396.737 -4.98857 1.61993 0
M  V30 4196 H 398.211 -5.52 -0.00560067 0
M  V30 4197 H 398.688 -4.2455 -1.12491 0
M  V30 4198 H 399.294 -4.21767 0.547055 0
M  V30 4199 N 397.609 -0.515225 -1.4894 0
M  V30 4200 C 398.519 0.259774 -2.33157 0
M  V30 4201 C 399.535 0.953501 -1.45548 0
M  V30 4202 O 400.711 0.931735 -1.78552 0
M  V30 4203 C 397.776 1.30193 -3.21326 0
M  V30 4204 C 396.837 0.620129 -4.24797 0
M  V30 4205 C 396.07 1.61263 -5.08753 0
M  V30 4206 O 396.293 2.84389 -4.94448 0
M  V30 4207 O 395.227 1.16013 -5.90614 0
M  V30 4208 H 399.053 -0.429932 -3.00641 0
M  V30 4209 H 396.638 -0.276346 -1.46822 0
M  V30 4210 H 398.52 1.90455 -3.75905 0
M  V30 4211 H 397.195 1.97431 -2.56521 0
M  V30 4212 H 396.102 -0.0226019 -3.74093 0
M  V30 4213 H 397.435 -0.0100493 -4.92199 0
M  V30 4214 N 399.087 1.5561 -0.249682 0
M  V30 4215 C 400.334 1.99011 0.374287 0
M  V30 4216 C 400.662 1.13785 1.57744 0
M  V30 4217 O 399.917 0.189326 1.94782 0
M  V30 4218 C 400.216 3.4775 0.824887 0
M  V30 4219 C 399.882 4.50086 -0.270819 0
M  V30 4220 C 398.544 4.77791 -0.571746 0
M  V30 4221 C 400.896 5.11312 -1.01041 0
M  V30 4222 C 398.224 5.63997 -1.61629 0
M  V30 4223 C 400.576 5.98651 -2.0445 0
M  V30 4224 C 399.24 6.24688 -2.35204 0
M  V30 4225 H 398.51 0.728233 0.136961 0
M  V30 4226 H 401.157 1.88122 -0.358087 0
M  V30 4227 H 399.462 3.55985 1.63651 0
M  V30 4228 H 401.159 3.78721 1.31799 0
M  V30 4229 H 397.749 4.28592 -0.026136 0
M  V30 4230 H 401.933 4.89953 -0.791177 0
M  V30 4231 H 397.189 5.82425 -1.85988 0
M  V30 4232 H 401.363 6.45135 -2.62248 0
M  V30 4233 H 398.99 6.91281 -3.16282 0
M  V30 4234 N 400.565 -0.0233959 1.57583 0
M  V30 4235 C 401.512 -1.02224 2.06927 0
M  V30 4236 C 402.482 -1.35575 0.959617 0
M  V30 4237 O 403.667 -1.45815 1.23055 0
M  V30 4238 C 400.807 -2.31636 2.5581 0
M  V30 4239 C 399.92 -2.04394 3.80588 0
M  V30 4240 C 399.055 -3.27717 4.18061 0
M  V30 4241 C 398.094 -2.96056 5.3574 0
M  V30 4242 N 397.231 -4.11847 5.68618 0
M  V30 4243 H 402.071 -0.594504 2.9201 0
M  V30 4244 H 399.608 -0.281921 1.44373 0
M  V30 4245 H 401.566 -3.07258 2.82221 0
M  V30 4246 H 400.196 -2.72122 1.73636 0
M  V30 4247 H 399.248 -1.19244 3.61227 0
M  V30 4248 H 400.56 -1.77042 4.66323 0
M  V30 4249 H 399.714 -4.11702 4.4563 0
M  V30 4250 H 398.453 -3.58188 3.30988 0
M  V30 4251 H 397.458 -2.10474 5.07918 0
M  V30 4252 H 398.683 -2.66857 6.24471 0
M  V30 4253 H 396.629 -4.42258 4.84504 0
M  V30 4254 H 396.546 -3.87938 6.48876 0
M  V30 4255 H 397.814 -4.96689 6.00766 0
M  V30 4256 N 402.043 -1.548 -0.295768 0
M  V30 4257 C 403.273 -1.78069 -1.04762 0
M  V30 4258 C 403.681 -0.542847 -1.81245 0
M  V30 4259 O 403.024 0.497051 -1.76848 0
M  V30 4260 C 403.086 -2.93881 -2.07061 0
M  V30 4261 C 402.75 -4.31777 -1.49725 0
M  V30 4262 C 403.747 -5.11613 -0.924581 0
M  V30 4263 C 401.432 -4.78389 -1.5313 0
M  V30 4264 C 403.426 -6.36184 -0.393594 0
M  V30 4265 C 401.113 -6.02921 -0.996447 0
M  V30 4266 C 402.111 -6.81654 -0.428569 0
M  V30 4267 O 401.799 -8.0384 0.0981593 0
M  V30 4268 H 401.531 -0.597475 -0.316226 0
M  V30 4269 H 404.085 -2.02584 -0.338973 0
M  V30 4270 H 402.315 -2.65003 -2.81621 0
M  V30 4271 H 404.004 -3.04679 -2.6819 0
M  V30 4272 H 404.77 -4.76743 -0.891136 0
M  V30 4273 H 400.649 -4.17132 -1.9627 0
M  V30 4274 H 404.193 -6.97582 0.0503014 0
M  V30 4275 H 400.09 -6.37277 -1.02706 0
M  V30 4276 H 400.858 -8.18499 -0.0146455 0
M  V30 4277 N 403.521 0.559213 -1.47345 0
M  V30 4278 C 404.769 1.31388 -1.53563 0
M  V30 4279 C 405.09 1.93985 -0.198678 0
M  V30 4280 O 404.36 1.79825 0.777167 0
M  V30 4281 H 402.94 0.487901 -0.565652 0
M  V30 4282 H 405.602 0.65315 -1.8363 0
M  V30 4283 H 404.698 2.10844 -2.30111 0
M  V30 4284 N 404.999 1.35443 0.805782 0
M  V30 4285 C 405.962 1.28301 1.89925 0
M  V30 4286 C 406.962 0.194285 1.59622 0
M  V30 4287 O 408.152 0.448036 1.6834 0
M  V30 4288 C 405.284 0.984997 3.2636 0
M  V30 4289 H 406.477 2.2553 1.97677 0
M  V30 4290 H 404.03 1.19979 1.00173 0
M  V30 4291 H 404.765 0.016603 3.24296 0
M  V30 4292 H 404.55 1.77269 3.4974 0
M  V30 4293 H 406.04 0.960651 4.064 0
M  V30 4294 N 406.477 -1.02803 1.19454 0
M  V30 4295 C 407.424 -2.11099 0.933046 0
M  V30 4296 C 408.394 -1.65571 -0.132447 0
M  V30 4297 O 409.579 -1.90797 0.00987576 0
M  V30 4298 C 406.719 -3.41763 0.478747 0
M  V30 4299 C 405.832 -4.00833 1.6111 0
M  V30 4300 C 404.967 -5.19511 1.10825 0
M  V30 4301 C 404.006 -5.70639 2.21445 0
M  V30 4302 N 403.143 -6.80589 1.72461 0
M  V30 4303 H 407.983 -2.32804 1.86028 0
M  V30 4304 H 405.52 -1.14179 0.927441 0
M  V30 4305 H 407.478 -4.16736 0.196745 0
M  V30 4306 H 406.108 -3.20166 -0.411493 0
M  V30 4307 H 405.16 -3.23066 2.00829 0
M  V30 4308 H 406.472 -4.34794 2.4445 0
M  V30 4309 H 405.626 -6.01645 0.781533 0
M  V30 4310 H 404.365 -4.87086 0.244606 0
M  V30 4311 H 403.37 -4.87116 2.54947 0
M  V30 4312 H 404.595 -6.05102 3.08267 0
M  V30 4313 H 402.541 -6.50016 0.884056 0
M  V30 4314 H 402.458 -7.13681 2.49389 0
M  V30 4315 H 403.726 -7.66317 1.42755 0
M  V30 4316 N 407.956 -0.998596 -1.21925 0
M  V30 4317 C 408.886 -0.573688 -2.26343 0
M  V30 4318 C 409.867 0.402296 -1.65274 0
M  V30 4319 O 411.052 0.291683 -1.91997 0
M  V30 4320 C 408.182 0.106839 -3.47136 0
M  V30 4321 C 407.136 -0.788269 -4.20678 0
M  V30 4322 C 406.462 0.0254927 -5.34694 0
M  V30 4323 C 407.762 -2.08784 -4.78755 0
M  V30 4324 H 409.456 -1.44651 -2.62138 0
M  V30 4325 H 407.002 -0.696975 -1.26009 0
M  V30 4326 H 408.955 0.415531 -4.19346 0
M  V30 4327 H 407.679 1.01424 -3.10452 0
M  V30 4328 H 406.338 -1.08069 -3.50309 0
M  V30 4329 H 405.986 0.933989 -4.94253 0
M  V30 4330 H 405.686 -0.570437 -5.84825 0
M  V30 4331 H 407.21 0.328147 -6.09718 0
M  V30 4332 H 408.624 -1.84272 -5.42878 0
M  V30 4333 H 407.021 -2.63307 -5.39249 0
M  V30 4334 H 408.091 -2.76284 -3.98491 0
M  V30 4335 N 409.434 1.37368 -0.772513 0
M  V30 4336 C 410.682 1.99279 -0.336516 0
M  V30 4337 C 411.003 1.6163 1.09091 0
M  V30 4338 O 410.273 0.882109 1.74916 0
M  V30 4339 H 408.853 0.737063 -0.121435 0
M  V30 4340 H 411.515 1.67836 -0.990809 0
M  V30 4341 H 410.611 3.09332 -0.414763 0
M  V30 4342 N 410.912 0.523116 1.48665 0
M  V30 4343 C 412.14 -0.0096312 2.06898 0
M  V30 4344 C 412.555 -1.28784 1.38059 0
M  V30 4345 O 411.912 -1.76453 0.465893 0
M  V30 4346 C 411.963 -0.244386 3.60673 0
M  V30 4347 O 411.684 0.983172 4.26925 0
M  V30 4348 C 413.185 -0.818289 4.35682 0
M  V30 4349 H 410.405 0.0304161 0.67031 0
M  V30 4350 H 412.949 0.726799 1.91149 0
M  V30 4351 H 411.104 -0.930847 3.76051 0
M  V30 4352 H 411.518 0.759653 5.1897 0
M  V30 4353 H 412.992 -0.93201 5.44075 0
M  V30 4354 H 413.469 -1.82153 3.99646 0
M  V30 4355 H 414.075 -0.168609 4.24966 0
M  V30 4356 N 412.39 -1.55475 0.257931 0
M  V30 4357 C 413.636 -1.99502 -0.364266 0
M  V30 4358 C 413.969 -1.146 -1.56782 0
M  V30 4359 O 413.244 -0.211968 -1.93342 0
M  V30 4360 C 413.527 -3.51917 -0.763333 0
M  V30 4361 C 413.38 -4.4758 0.446371 0
M  V30 4362 C 414.699 -4.09742 -1.60623 0
M  V30 4363 H 411.818 -0.725277 -0.130929 0
M  V30 4364 H 414.46 -1.8653 0.361446 0
M  V30 4365 H 412.61 -3.63101 -1.38166 0
M  V30 4366 H 414.282 -4.48362 1.08487 0
M  V30 4367 H 412.525 -4.19947 1.08753 0
M  V30 4368 H 413.196 -5.51862 0.123645 0
M  V30 4369 H 415.672 -4.01727 -1.08418 0
M  V30 4370 H 414.548 -5.16631 -1.85429 0
M  V30 4371 H 414.809 -3.58889 -2.58169 0
M  V30 4372 N 413.868 0.0150385 -1.57593 0
M  V30 4373 C 415.117 0.702115 -1.89085 0
M  V30 4374 C 415.43 1.75764 -0.858277 0
M  V30 4375 O 416.636 2.49829 -1.0629 0
M  V30 4376 C 415.092 1.29992 -3.35604 0
M  V30 4377 C 414.7 0.280007 -4.47124 0
M  V30 4378 C 416.444 1.96606 -3.76227 0
M  V30 4379 C 414.351 0.886949 -5.84711 0
M  V30 4380 H 413.281 0.265997 -0.705522 0
M  V30 4381 H 415.932 -0.0430408 -1.8345 0
M  V30 4382 H 414.314 2.09525 -3.36029 0
M  V30 4383 H 415.488 -0.489631 -4.58191 0
M  V30 4384 H 413.803 -0.284835 -4.15425 0
M  V30 4385 H 416.4 2.42893 -4.76347 0
M  V30 4386 H 416.743 2.79024 -3.08952 0
M  V30 4387 H 417.276 1.23828 -3.78036 0
M  V30 4388 H 414.015 0.101876 -6.55421 0
M  V30 4389 H 413.535 1.6261 -5.77337 0
M  V30 4390 H 415.214 1.39011 -6.3189 0
M  V30 4391 N 415.346 1.54954 0.287554 0
M  V30 4392 C 416.762 1.46469 0.633964 0
M  V30 4393 C 416.962 0.666865 1.90145 0
M  V30 4394 O 416.018 0.179906 2.51858 0
M  V30 4395 C 417.331 2.90556 0.774454 0
M  V30 4396 C 418.879 3.00681 0.869462 0
M  V30 4397 C 419.354 4.45993 1.04184 0
M  V30 4398 N 420.845 4.4976 1.10772 0
M  V30 4399 C 421.58 5.59393 1.25964 0
M  V30 4400 N 421.076 6.78923 1.37968 0
M  V30 4401 N 422.869 5.47107 1.28959 0
M  V30 4402 H 415.02 2.05288 -0.545041 0
M  V30 4403 H 417.283 0.930305 -0.182308 0
M  V30 4404 H 416.989 3.51594 -0.086207 0
M  V30 4405 H 416.863 3.38743 1.6593 0
M  V30 4406 H 419.25 2.39749 1.7206 0
M  V30 4407 H 419.331 2.55769 -0.0396831 0
M  V30 4408 H 418.975 5.07524 0.195422 0
M  V30 4409 H 418.905 4.88548 1.96542 0
M  V30 4410 H 421.396 3.63651 1.02794 0
M  V30 4411 H 421.709 7.58231 1.49353 0
M  V30 4412 H 420.054 6.81763 1.34999 0
M  V30 4413 H 423.245 4.52668 1.19202 0
M  V30 4414 H 423.418 6.32595 1.40455 0
M  V30 4415 N 416.824 -0.551391 1.4764 0
M  V30 4416 C 417.771 -1.65796 1.60563 0
M  V30 4417 C 418.741 -1.59932 0.448428 0
M  V30 4418 O 419.926 -1.78679 0.669222 0
M  V30 4419 C 417.066 -3.04108 1.63133 0
M  V30 4420 C 416.179 -3.20365 2.89811 0
M  V30 4421 C 415.314 -4.49109 2.8368 0
M  V30 4422 C 414.353 -4.58819 4.05156 0
M  V30 4423 N 413.49 -5.78926 3.97227 0
M  V30 4424 H 418.33 -1.54088 2.5507 0
M  V30 4425 H 415.867 -0.75052 1.26513 0
M  V30 4426 H 417.825 -3.84207 1.62606 0
M  V30 4427 H 416.455 -3.14637 0.721341 0
M  V30 4428 H 415.507 -2.33659 3.00179 0
M  V30 4429 H 416.819 -3.23402 3.79753 0
M  V30 4430 H 415.973 -5.37475 2.81434 0
M  V30 4431 H 414.712 -4.4856 1.91431 0
M  V30 4432 H 413.717 -3.68864 4.077 0
M  V30 4433 H 414.942 -4.61124 4.98539 0
M  V30 4434 H 412.888 -5.79314 3.07785 0
M  V30 4435 H 412.805 -5.83367 4.80853 0
M  V30 4436 H 414.073 -6.69637 3.99007 0
M  V30 4437 N 418.302 -1.35869 -0.798587 0
M  V30 4438 C 419.548 -1.30788 -1.55775 0
M  V30 4439 C 419.903 0.114558 -1.92059 0
M  V30 4440 O 419.196 1.06691 -1.59147 0
M  V30 4441 C 419.39 -2.1556 -2.85077 0
M  V30 4442 C 419.219 -3.65904 -2.61428 0
M  V30 4443 C 417.989 -4.35112 -2.56915 0
M  V30 4444 C 420.187 -4.59375 -2.31255 0
M  V30 4445 N 418.169 -5.71155 -2.25068 0
M  V30 4446 C 419.54 -5.83598 -2.09316 0
M  V30 4447 C 421.595 -4.48035 -2.17185 0
M  V30 4448 C 420.298 -6.97755 -1.74731 0
M  V30 4449 C 422.324 -5.62049 -1.83998 0
M  V30 4450 C 421.686 -6.85305 -1.629 0
M  V30 4451 H 417.785 -0.533855 -0.571422 0
M  V30 4452 H 420.369 -1.7083 -0.934079 0
M  V30 4453 H 418.54 -1.77776 -3.45326 0
M  V30 4454 H 420.272 -2.01938 -3.50718 0
M  V30 4455 H 417.027 -3.87812 -2.71843 0
M  V30 4456 H 417.451 -6.42978 -2.11916 0
M  V30 4457 H 422.093 -3.53338 -2.3219 0
M  V30 4458 H 419.811 -7.92411 -1.58464 0
M  V30 4459 H 423.397 -5.55232 -1.73808 0
M  V30 4460 H 422.277 -7.72034 -1.37596 0
M  V30 4461 N 419.78 1.02168 -1.19998 0
M  V30 4462 C 420.728 2.12717 -0.940967 0
M  V30 4463 C 421.722 1.69069 0.105841 0
M  V30 4464 O 422.928 1.79946 -0.0440583 0
M  V30 4465 H 419.303 0.695108 -0.28693 0
M  V30 4466 H 421.274 2.3175 -1.87975 0
M  V30 4467 C 420.023 3.44027 -0.504049 0
M  V30 4468 H 419.346 3.78036 -1.30112 0
M  V30 4469 H 420.786 4.22452 -0.361991 0
M  V30 4470 C 419.245 3.27678 0.782878 0
M  V30 4471 O 419.775 3.56949 1.84256 0
M  V30 4472 N 417.981 2.80943 0.742921 0
M  V30 4473 H 417.528 2.57322 -0.119687 0
M  V30 4474 H 417.486 2.70385 1.60435 0
M  V30 4475 N 421.258 1.00505 1.21394 0
M  V30 4476 C 422.506 0.686415 1.90086 0
M  V30 4477 C 422.827 -0.785264 1.7849 0
M  V30 4478 O 422.097 -1.56387 1.17983 0
M  V30 4479 H 420.677 0.2509 0.703604 0
M  V30 4480 H 423.339 1.27417 1.47482 0
M  V30 4481 H 422.435 0.959621 2.96981 0
M  V30 4482 N 422.737 -1.36956 0.779787 0
M  V30 4483 C 423.647 -2.33965 0.172491 0
M  V30 4484 C 424.663 -1.60574 -0.670222 0
M  V30 4485 O 425.839 -1.92617 -0.588263 0
M  V30 4486 C 422.904 -3.39761 -0.690173 0
M  V30 4487 C 421.965 -4.28964 0.169924 0
M  V30 4488 C 421.198 -5.29707 -0.651662 0
M  V30 4489 O 421.421 -5.38238 -1.88827 0
M  V30 4490 O 420.355 -6.01873 -0.0566264 0
M  V30 4491 H 424.181 -2.87647 0.974321 0
M  V30 4492 H 421.766 -1.39258 0.541078 0
M  V30 4493 H 423.648 -4.04471 -1.1824 0
M  V30 4494 H 422.323 -2.88394 -1.47006 0
M  V30 4495 H 421.23 -3.67326 0.708696 0
M  V30 4496 H 422.563 -4.83656 0.913085 0
M  V30 4497 N 424.215 -0.530993 -1.48385 0
M  V30 4498 C 425.162 0.231223 -2.29639 0
M  V30 4499 C 426.132 0.932864 -1.37429 0
M  V30 4500 O 427.317 0.933692 -1.66394 0
M  V30 4501 C 424.457 1.27155 -3.2082 0
M  V30 4502 C 423.57 0.578655 -4.28107 0
M  V30 4503 C 422.705 1.602 -5.06467 0
M  V30 4504 C 421.744 0.892625 -6.05556 0
M  V30 4505 N 420.881 1.86157 -6.76971 0
M  V30 4506 H 425.721 -0.467848 -2.94305 0
M  V30 4507 H 423.258 -0.242556 -1.45086 0
M  V30 4508 H 425.216 1.88703 -3.72085 0
M  V30 4509 H 423.846 1.939 -2.58075 0
M  V30 4510 H 422.898 -0.150782 -3.80101 0
M  V30 4511 H 424.21 0.0217065 -4.98795 0
M  V30 4512 H 423.364 2.29173 -5.61751 0
M  V30 4513 H 422.103 2.19285 -4.35621 0
M  V30 4514 H 421.108 0.188829 -5.49476 0
M  V30 4515 H 422.333 0.307878 -6.78402 0
M  V30 4516 H 420.279 2.44147 -6.08875 0
M  V30 4517 H 420.196 1.35608 -7.43738 0
M  V30 4518 H 421.464 2.54325 -7.36844 0
M  V30 4519 N 425.693 1.55336 -0.266172 0
M  V30 4520 C 426.626 2.18256 0.666296 0
M  V30 4521 C 427.604 1.14064 1.1588 0
M  V30 4522 O 428.788 1.42546 1.23341 0
M  V30 4523 C 425.915 2.79867 1.90768 0
M  V30 4524 C 424.961 3.97283 1.55141 0
M  V30 4525 S 425.794 5.31694 0.637313 0
M  V30 4526 C 426.95 5.96769 1.88727 0
M  V30 4527 H 427.183 2.97008 0.131647 0
M  V30 4528 H 424.716 1.54317 -0.0504869 0
M  V30 4529 H 426.674 3.15996 2.62025 0
M  V30 4530 H 425.335 2.01025 2.41346 0
M  V30 4531 H 424.528 4.3905 2.4749 0
M  V30 4532 H 424.13 3.6253 0.919113 0
M  V30 4533 H 426.422 6.15458 2.83227 0
M  V30 4534 H 427.365 6.91752 1.51276 0
M  V30 4535 H 427.773 5.26034 2.04814 0
M  V30 4536 N 427.171 -0.0066808 1.57599 0
M  V30 4537 C 428.396 -0.707738 1.94951 0
M  V30 4538 C 428.821 -1.66882 0.867868 0
M  V30 4539 O 428.179 -1.80457 -0.17458 0
M  V30 4540 C 428.227 -1.42162 3.31394 0
M  V30 4541 O 427.331 -2.53578 3.25226 0
M  V30 4542 H 426.672 -0.188752 0.636607 0
M  V30 4543 H 429.202 0.0445193 2.04552 0
M  V30 4544 H 429.212 -1.78655 3.66806 0
M  V30 4545 H 427.887 -0.716903 4.09675 0
M  V30 4546 H 426.464 -2.19463 3.01481 0
M  V30 4547 N 428.649 -1.55105 -0.279332 0
M  V30 4548 C 429.879 -1.7917 -1.02867 0
M  V30 4549 C 430.287 -0.56204 -1.80659 0
M  V30 4550 O 429.63 0.478266 -1.77365 0
M  V30 4551 C 429.692 -2.96061 -2.03932 0
M  V30 4552 C 429.356 -4.33341 -1.45137 0
M  V30 4553 C 430.353 -5.12565 -0.870266 0
M  V30 4554 C 428.038 -4.79987 -1.48048 0
M  V30 4555 C 430.032 -6.36565 -0.326097 0
M  V30 4556 C 427.719 -6.03944 -0.932443 0
M  V30 4557 C 428.717 -6.8207 -0.356247 0
M  V30 4558 O 428.405 -8.03691 0.183412 0
M  V30 4559 H 428.137 -0.600796 -0.309872 0
M  V30 4560 H 430.691 -2.02932 -0.317468 0
M  V30 4561 H 428.921 -2.67975 -2.78794 0
M  V30 4562 H 430.61 -3.07506 -2.64943 0
M  V30 4563 H 431.376 -4.77661 -0.840521 0
M  V30 4564 H 427.255 -4.1919 -1.91835 0
M  V30 4565 H 430.799 -6.97489 0.124286 0
M  V30 4566 H 426.696 -6.3833 -0.959407 0
M  V30 4567 H 427.464 -8.18468 0.0721681 0
M  V30 4568 N 430.127 0.543554 -1.4793 0
M  V30 4569 C 431.057 1.65888 -1.64327 0
M  V30 4570 C 432.038 1.62818 -0.492383 0
M  V30 4571 O 433.223 1.80226 -0.723338 0
M  V30 4572 C 430.353 3.04506 -1.67013 0
M  V30 4573 C 429.307 3.2243 -2.81466 0
M  V30 4574 C 428.633 4.61972 -2.69233 0
M  V30 4575 C 429.933 3.06496 -4.22915 0
M  V30 4576 H 431.627 1.52421 -2.57698 0
M  V30 4577 H 429.173 0.731849 -1.24016 0
M  V30 4578 H 431.126 3.82391 -1.77074 0
M  V30 4579 H 429.85 3.18964 -0.70212 0
M  V30 4580 H 428.509 2.46957 -2.70938 0
M  V30 4581 H 428.157 4.73247 -1.7043 0
M  V30 4582 H 427.857 4.74911 -3.46025 0
M  V30 4583 H 429.381 5.41974 -2.81242 0
M  V30 4584 H 430.795 3.74186 -4.34348 0
M  V30 4585 H 429.192 3.30938 -5.006 0
M  V30 4586 H 430.262 2.03077 -4.40327 0
M  V30 4587 N 431.605 1.3629 0.791371 0
M  V30 4588 C 432.552 1.30458 1.90393 0
M  V30 4589 C 433.522 0.173632 1.6519 0
M  V30 4590 O 434.707 0.35983 1.87376 0
M  V30 4591 C 431.847 1.09777 3.27174 0
M  V30 4592 C 430.96 2.31929 3.64462 0
M  V30 4593 C 430.095 2.04276 4.90352 0
M  V30 4594 C 429.134 3.224 5.20312 0
M  V30 4595 N 428.271 2.94424 6.37385 0
M  V30 4596 H 433.111 2.25589 1.94714 0
M  V30 4597 H 430.648 1.12122 0.952216 0
M  V30 4598 H 432.606 0.958133 4.06049 0
M  V30 4599 H 431.236 0.183014 3.22281 0
M  V30 4600 H 430.288 2.56703 2.80727 0
M  V30 4601 H 431.6 3.20085 3.82553 0
M  V30 4602 H 430.754 1.87231 5.77087 0
M  V30 4603 H 429.493 1.13428 4.74326 0
M  V30 4604 H 428.498 3.40005 4.32061 0
M  V30 4605 H 429.723 4.14071 5.38258 0
M  V30 4606 H 427.669 2.06185 6.22755 0
M  V30 4607 H 427.586 3.76118 6.55798 0
M  V30 4608 H 428.854 2.80953 7.27108 0
M  V30 4609 N 433.083 -1.0153 1.20538 0
M  V30 4610 C 434.031 -2.12215 0.952235 0
M  V30 4611 C 435.025 -1.69123 -0.0968735 0
M  V30 4612 O 436.231 -1.7992 0.0536006 0
M  V30 4613 H 432.606 -0.693576 0.290613 0
M  V30 4614 H 434.577 -2.3075 1.89201 0
M  V30 4615 C 433.326 -3.43755 0.522287 0
M  V30 4616 H 432.649 -3.7734 1.32115 0
M  V30 4617 H 434.089 -4.22254 0.384389 0
M  V30 4618 C 432.548 -3.28088 -0.765489 0
M  V30 4619 O 433.078 -3.57921 -1.8236 0
M  V30 4620 N 431.284 -2.81333 -0.728011 0
M  V30 4621 H 430.831 -2.57255 0.133332 0
M  V30 4622 H 430.789 -2.71232 -1.58999 0
M  V30 4623 N 434.561 -1.01147 -1.20859 0
M  V30 4624 C 435.807 -0.708598 -1.90658 0
M  V30 4625 C 436.162 0.753069 -1.7705 0
M  V30 4626 O 435.455 1.53952 -1.14059 0
M  V30 4627 C 435.649 -1.0727 -3.40922 0
M  V30 4628 C 435.478 -2.56821 -3.69152 0
M  V30 4629 C 434.248 -3.23524 -3.8815 0
M  V30 4630 C 436.446 -3.54997 -3.72131 0
M  V30 4631 N 434.428 -4.62359 -4.03853 0
M  V30 4632 C 435.799 -4.79371 -3.93196 0
M  V30 4633 C 437.854 -3.49042 -3.55069 0
M  V30 4634 C 436.557 -5.98512 -3.98969 0
M  V30 4635 C 438.583 -4.67579 -3.6211 0
M  V30 4636 C 437.945 -5.9076 -3.83643 0
M  V30 4637 H 434.044 -0.31088 -0.71755 0
M  V30 4638 H 436.628 -1.29526 -1.45366 0
M  V30 4639 H 434.799 -0.51443 -3.84978 0
M  V30 4640 H 436.531 -0.723891 -3.98173 0
M  V30 4641 H 433.286 -2.73958 -3.86321 0
M  V30 4642 H 433.71 -5.34427 -4.15592 0
M  V30 4643 H 438.352 -2.54808 -3.37391 0
M  V30 4644 H 436.07 -6.93132 -4.15444 0
M  V30 4645 H 439.656 -4.64581 -3.50222 0
M  V30 4646 H 438.536 -6.8095 -3.88944 0
M  V30 4647 N 436.039 1.36541 -0.78704 0
M  V30 4648 C 437.287 1.98911 -0.357633 0
M  V30 4649 C 437.608 1.62778 1.07371 0
M  V30 4650 O 436.878 0.900612 1.73971 0
M  V30 4651 H 435.458 0.735734 -0.129246 0
M  V30 4652 H 438.12 1.66776 -1.00855 0
M  V30 4653 H 437.216 3.08874 -0.447549 0
M  V30 4654 N 437.518 0.538854 1.48102 0
M  V30 4655 C 438.428 -0.222648 2.33541 0
M  V30 4656 C 439.444 -0.930225 1.47047 0
M  V30 4657 O 440.62 -0.903211 1.80011 0
M  V30 4658 C 437.685 -1.25064 3.23357 0
M  V30 4659 C 436.746 -0.552469 4.2573 0
M  V30 4660 C 435.979 -1.53149 5.11254 0
M  V30 4661 O 436.202 -2.76487 4.9891 0
M  V30 4662 O 435.136 -1.06602 5.92385 0
M  V30 4663 H 438.962 0.477707 2.99919 0
M  V30 4664 H 436.547 0.299669 1.46364 0
M  V30 4665 H 438.429 -1.8445 3.78888 0
M  V30 4666 H 437.104 -1.93325 2.59629 0
M  V30 4667 H 436.011 0.082114 3.7401 0
M  V30 4668 H 437.344 0.0883526 4.92121 0
M  V30 4669 N 438.996 -1.55193 0.274407 0
M  V30 4670 C 440.244 -1.99187 -0.341902 0
M  V30 4671 C 440.565 -1.16422 -1.56431 0
M  V30 4672 O 439.835 -0.253573 -1.94252 0
M  V30 4673 H 438.415 -0.735721 -0.129317 0
M  V30 4674 H 441.077 -1.91168 0.379578 0
M  V30 4675 H 440.173 -3.05629 -0.632253 0
M  V30 4676 N 440.474 -0.00167713 -1.576 0
M  V30 4677 C 441.72 0.67819 -1.91761 0
M  V30 4678 C 442.075 1.71288 -0.876256 0
M  V30 4679 O 441.368 1.91276 0.111333 0
M  V30 4680 C 441.562 1.36189 -3.30435 0
M  V30 4681 C 441.391 0.394938 -4.47962 0
M  V30 4682 C 440.161 0.00472875 -5.053 0
M  V30 4683 C 442.359 -0.339521 -5.13178 0
M  V30 4684 N 440.341 -0.960257 -6.06343 0
M  V30 4685 C 441.712 -1.15914 -6.09068 0
M  V30 4686 C 443.767 -0.403177 -4.96265 0
M  V30 4687 C 442.47 -2.03661 -6.89866 0
M  V30 4688 C 444.496 -1.26788 -5.77649 0
M  V30 4689 C 443.858 -2.07535 -6.73134 0
M  V30 4690 H 439.957 0.221317 -0.750028 0
M  V30 4691 H 442.541 -0.0624182 -1.946 0
M  V30 4692 H 440.712 2.07278 -3.28467 0
M  V30 4693 H 442.444 1.99658 -3.52021 0
M  V30 4694 H 439.199 0.373452 -4.72125 0
M  V30 4695 H 439.623 -1.43817 -6.61548 0
M  V30 4696 H 444.265 0.206818 -4.22294 0
M  V30 4697 H 441.983 -2.65727 -7.63161 0
M  V30 4698 H 445.569 -1.32107 -5.66603 0
M  V30 4699 H 444.449 -2.73363 -7.35012 0
M  V30 4700 N 441.952 1.55251 0.271103 0
M  V30 4701 C 443.2 1.75599 1.00047 0
M  V30 4702 C 443.521 0.561188 1.8675 0
M  V30 4703 O 442.791 -0.423846 1.9126 0
M  V30 4704 H 441.371 0.647562 0.372387 0
M  V30 4705 H 444.033 1.92656 0.294876 0
M  V30 4706 H 443.129 2.65766 1.6363 0
M  V30 4707 N 443.43 -0.535701 1.48216 0
M  V30 4708 C 444.677 -1.29183 1.55942 0
M  V30 4709 C 445.005 -1.93125 0.230857 0
M  V30 4710 O 444.26 -1.79556 -0.778331 0
M  V30 4711 C 444.559 -2.4068 2.64212 0
M  V30 4712 C 444.225 -1.94428 4.06827 0
M  V30 4713 C 442.887 -1.81532 4.45645 0
M  V30 4714 C 445.239 -1.59405 4.96225 0
M  V30 4715 C 442.567 -1.31939 5.71672 0
M  V30 4716 C 444.919 -1.11276 6.22736 0
M  V30 4717 C 443.583 -0.969924 6.60416 0
M  V30 4718 H 442.853 -0.472715 0.570632 0
M  V30 4719 H 445.5 -0.598437 1.81909 0
M  V30 4720 H 443.805 -3.15666 2.32083 0
M  V30 4721 H 445.502 -2.98822 2.67407 0
M  V30 4722 H 442.092 -2.05415 3.76168 0
M  V30 4723 H 446.276 -1.68231 4.66917 0
M  V30 4724 H 441.532 -1.19562 5.99596 0
M  V30 4725 H 445.706 -0.832453 6.91407 0
M  V30 4726 H 443.333 -0.583436 7.57958 0
M  V30 4727 N 444.908 -1.36708 -0.784132 0
M  V30 4728 C 446.154 -1.31426 -1.54451 0
M  V30 4729 C 446.487 0.10476 -1.93917 0
M  V30 4730 O 445.762 1.05934 -1.6312 0
M  V30 4731 C 446.045 -2.24189 -2.818 0
M  V30 4732 C 445.898 -3.74813 -2.48667 0
M  V30 4733 C 447.217 -2.15626 -3.83658 0
M  V30 4734 H 444.336 -0.478739 -0.560337 0
M  V30 4735 H 446.978 -1.67305 -0.900498 0
M  V30 4736 H 445.128 -1.93722 -3.36755 0
M  V30 4737 H 446.8 -4.15823 -1.99722 0
M  V30 4738 H 445.043 -3.93989 -1.81535 0
M  V30 4739 H 445.714 -4.35138 -3.39646 0
M  V30 4740 H 448.19 -2.42456 -3.38163 0
M  V30 4741 H 447.066 -2.82694 -4.70506 0
M  V30 4742 H 447.327 -1.14522 -4.27009 0
M  V30 4743 N 446.386 1.0089 -1.21074 0
M  V30 4744 C 447.797 1.56056 -1.02486 0
M  V30 4745 C 448.148 1.91728 0.416506 0
M  V30 4746 O 447.273 1.73066 1.29912 0
M  V30 4747 C 447.868 2.83563 -1.85411 0
M  V30 4748 C 446.427 3.3523 -1.71166 0
M  V30 4749 C 445.574 2.0846 -1.82865 0
M  V30 4750 H 448.525 0.831818 -1.35154 0
M  V30 4751 H 448.546 3.55286 -1.36205 0
M  V30 4752 H 448.058 2.57569 -2.9031 0
M  V30 4753 H 446.159 3.66167 -0.689361 0
M  V30 4754 H 446.272 4.06913 -2.52901 0
M  V30 4755 H 444.636 2.21275 -1.26132 0
M  V30 4756 H 445.419 1.84883 -2.89263 0
M  V30 4757 N 447.864 1.01787 1.20321 0
M  V30 4758 C 449.089 0.727009 1.9424 0
M  V30 4759 C 449.514 -0.706179 1.74341 0
M  V30 4760 O 448.872 -1.48609 1.03852 0
M  V30 4761 C 448.92 1.06958 3.44372 0
M  V30 4762 O 448.024 0.181983 4.11998 0
M  V30 4763 H 447.365 0.269626 0.606793 0
M  V30 4764 H 449.895 1.36158 1.52716 0
M  V30 4765 H 449.905 1.02182 3.94997 0
M  V30 4766 H 448.58 2.11378 3.58179 0
M  V30 4767 H 447.157 0.287378 3.71791 0
M  V30 4768 N 449.342 -1.36122 0.79427 0
M  V30 4769 C 450.619 -1.93398 0.292685 0
M  V30 4770 C 450.999 -1.72567 -1.21589 0
M  V30 4771 O 450.347 -1.08745 -2.00965 0
M  V30 4772 C 450.557 -3.42099 0.690614 0
M  V30 4773 C 451.905 -4.19231 0.673105 0
M  V30 4774 O 452.929 -3.50559 0.631389 0
M  V30 4775 O 451.788 -5.41732 0.720362 0
M  V30 4776 H 448.882 -0.823712 0.0736693 0
M  V30 4777 H 451.428 -1.45273 0.87714 0
M  V30 4778 H 450.2 -3.50938 1.73085 0
M  V30 4779 H 449.823 -3.97519 0.0803036 0
M  V30 4780 N 450.82 -0.546701 -1.47814 0
M  V30 4781 C 452.236 -0.205717 -1.58269 0
M  V30 4782 C 452.436 1.29153 -1.54667 0
M  V30 4783 O 451.492 2.07098 -1.44453 0
M  V30 4784 C 452.805 -0.823065 -2.89216 0
M  V30 4785 C 454.353 -0.793328 -3.02779 0
M  V30 4786 C 454.828 -1.38955 -4.36412 0
M  V30 4787 N 456.319 -1.35227 -4.43021 0
M  V30 4788 C 457.054 -1.78333 -5.44963 0
M  V30 4789 N 456.55 -2.29246 -6.53772 0
M  V30 4790 N 458.343 -1.69467 -5.35945 0
M  V30 4791 H 450.494 -1.5196 -1.48398 0
M  V30 4792 H 452.757 -0.633078 -0.705632 0
M  V30 4793 H 452.463 -1.8749 -2.97558 0
M  V30 4794 H 452.337 -0.309915 -3.75925 0
M  V30 4795 H 454.724 0.249784 -2.94041 0
M  V30 4796 H 454.805 -1.34412 -2.17639 0
M  V30 4797 H 454.449 -2.43168 -4.45906 0
M  V30 4798 H 454.379 -0.814291 -5.20266 0
M  V30 4799 H 456.87 -0.979739 -3.64979 0
M  V30 4800 H 457.183 -2.60089 -7.27718 0
M  V30 4801 H 455.528 -2.3325 -6.5469 0
M  V30 4802 H 458.719 -1.29477 -4.49837 0
M  V30 4803 H 458.892 -2.03381 -6.15256 0
M  V30 4804 N 452.299 1.55045 -0.282633 0
M  V30 4805 C 453.262 2.21515 0.588539 0
M  V30 4806 C 454.262 1.19535 1.07554 0
M  V30 4807 O 455.452 1.44391 0.974514 0
M  V30 4808 C 452.584 2.88704 1.8128 0
M  V30 4809 H 453.777 2.99899 0.00806397 0
M  V30 4810 H 451.33 1.56265 -0.0333067 0
M  V30 4811 H 452.065 2.14352 2.43359 0
M  V30 4812 H 451.85 3.63443 1.47144 0
M  V30 4813 H 453.34 3.39465 2.43214 0
M  V30 4814 N 453.777 0.010035 1.57597 0
M  V30 4815 C 454.707 -0.976857 2.12084 0
M  V30 4816 C 455.688 -1.35191 1.03235 0
M  V30 4817 O 456.873 -1.43389 1.3097 0
M  V30 4818 C 454.003 -2.26548 2.63236 0
M  V30 4819 C 452.957 -2.03175 3.76701 0
M  V30 4820 C 452.283 -3.38138 4.14206 0
M  V30 4821 C 453.583 -1.38625 5.03568 0
M  V30 4822 H 455.277 -0.523145 2.94794 0
M  V30 4823 H 452.823 -0.250195 1.4181 0
M  V30 4824 H 454.776 -2.95952 2.99984 0
M  V30 4825 H 453.5 -2.74051 1.77661 0
M  V30 4826 H 452.159 -1.36195 3.40362 0
M  V30 4827 H 451.807 -3.83363 3.25641 0
M  V30 4828 H 451.507 -3.23312 4.90656 0
M  V30 4829 H 453.031 -4.08841 4.53521 0
M  V30 4830 H 454.445 -1.98 5.38023 0
M  V30 4831 H 452.842 -1.34256 5.84889 0
M  V30 4832 H 453.912 -0.356722 4.83586 0
M  V30 4833 N 455.255 -1.55392 -0.262866 0
M  V30 4834 C 456.501 -1.76737 -0.99458 0
M  V30 4835 C 456.834 -0.572453 -1.85571 0
M  V30 4836 O 456.109 0.429732 -1.89693 0
M  V30 4837 C 456.392 -3.07824 -1.8686 0
M  V30 4838 C 456.245 -4.3769 -1.03672 0
M  V30 4839 C 457.564 -3.35021 -2.85393 0
M  V30 4840 H 454.683 -0.643005 -0.360157 0
M  V30 4841 H 457.325 -1.88126 -0.266216 0
M  V30 4842 H 455.475 -2.98245 -2.48962 0
M  V30 4843 H 457.147 -4.59238 -0.43563 0
M  V30 4844 H 455.39 -4.32461 -0.340513 0
M  V30 4845 H 456.061 -5.25759 -1.6817 0
M  V30 4846 H 458.537 -3.44458 -2.33426 0
M  V30 4847 H 457.413 -4.27989 -3.43681 0
M  V30 4848 H 457.674 -2.55153 -3.61039 0
M  V30 4849 N 456.733 0.527833 -1.48498 0
M  V30 4850 C 457.98 1.28354 -1.56625 0
M  V30 4851 C 458.308 1.93 -0.241096 0
M  V30 4852 O 457.563 1.79967 0.768798 0
M  V30 4853 C 457.862 2.39275 -2.65485 0
M  V30 4854 C 457.528 1.92268 -4.07853 0
M  V30 4855 C 456.19 1.79166 -4.46602 0
M  V30 4856 C 458.542 1.56771 -4.97064 0
M  V30 4857 C 455.87 1.28905 -5.72364 0
M  V30 4858 C 458.222 1.07972 -6.23318 0
M  V30 4859 C 456.886 0.934887 -6.60921 0
M  V30 4860 H 456.156 0.469682 -0.573131 0
M  V30 4861 H 458.803 0.588781 -1.82224 0
M  V30 4862 H 457.108 3.1443 -2.33754 0
M  V30 4863 H 458.805 2.974 -2.68988 0
M  V30 4864 H 455.395 2.03417 -3.77252 0
M  V30 4865 H 459.579 1.65753 -4.67803 0
M  V30 4866 H 454.835 1.16381 -6.00221 0
M  V30 4867 H 459.009 0.795775 -6.91838 0
M  V30 4868 H 456.636 0.543231 -7.58257 0
M  V30 4869 N 458.211 1.37122 0.776871 0
M  V30 4870 C 459.457 1.32243 1.53752 0
M  V30 4871 C 459.79 -0.0944745 1.9397 0
M  V30 4872 O 459.065 -1.05068 1.6368 0
M  V30 4873 C 459.348 2.25681 2.80607 0
M  V30 4874 C 459.201 3.76127 2.46676 0
M  V30 4875 C 460.52 2.17657 3.82509 0
M  V30 4876 H 457.639 0.481704 0.557791 0
M  V30 4877 H 460.281 1.6778 0.891612 0
M  V30 4878 H 458.431 1.95505 3.35723 0
M  V30 4879 H 460.103 4.16877 1.97513 0
M  V30 4880 H 458.346 3.94946 1.79443 0
M  V30 4881 H 459.017 4.36933 3.37333 0
M  V30 4882 H 461.493 2.44245 3.36873 0
M  V30 4883 H 460.369 2.85185 4.69 0
M  V30 4884 H 460.63 1.16785 4.26396 0
M  V30 4885 N 459.689 -1.00246 1.21608 0
M  V30 4886 C 460.966 -1.71336 0.943568 0
M  V30 4887 C 461.346 -2.03972 -0.543943 0
M  V30 4888 O 460.694 -1.71545 -1.50946 0
M  V30 4889 C 460.904 -2.97094 1.83128 0
M  V30 4890 C 462.252 -3.70071 2.08165 0
M  V30 4891 O 463.276 -3.07081 1.80498 0
M  V30 4892 O 462.135 -4.83376 2.54971 0
M  V30 4893 H 459.229 -0.747386 0.354039 0
M  V30 4894 H 461.775 -1.05967 1.32549 0
M  V30 4895 H 460.547 -2.69407 2.83788 0
M  V30 4896 H 460.17 -3.70204 1.45034 0
M  V30 4897 N 461.167 -1.02423 -1.1978 0
M  V30 4898 C 462.115 -0.594474 -2.24875 0
M  V30 4899 C 463.109 0.370598 -1.65296 0
M  V30 4900 O 464.315 0.239684 -1.78397 0
M  V30 4901 H 460.69 -0.173961 -0.731602 0
M  V30 4902 H 462.661 -1.4916 -2.58445 0
M  V30 4903 C 461.41 0.0436512 -3.47673 0
M  V30 4904 H 460.733 -0.689963 -3.93801 0
M  V30 4905 H 462.173 0.307362 -4.22884 0
M  V30 4906 C 460.632 1.28881 -3.11274 0
M  V30 4907 O 461.162 2.38135 -3.23503 0
M  V30 4908 N 459.368 1.1758 -2.6575 0
M  V30 4909 H 458.915 0.286769 -2.55999 0
M  V30 4910 H 458.873 2.00988 -2.41767 0
M  V30 4911 N 462.645 1.35699 -0.801477 0
M  V30 4912 C 463.595 2.2728 -0.181073 0
M  V30 4913 C 464.579 1.47533 0.642098 0
M  V30 4914 O 465.771 1.69785 0.500193 0
M  V30 4915 C 462.9 3.36626 0.673612 0
M  V30 4916 C 461.986 4.23802 -0.159008 0
M  V30 4917 N 462.377 4.90879 -1.2195 0
M  V30 4918 C 460.675 4.45959 0.0602005 0
M  V30 4919 C 461.376 5.5546 -1.72738 0
M  V30 4920 N 460.352 5.33663 -1.03465 0
M  V30 4921 H 464.154 2.76632 -0.992582 0
M  V30 4922 H 461.668 1.49166 -0.642127 0
M  V30 4923 H 463.665 4.01179 1.13408 0
M  V30 4924 H 462.325 2.88828 1.48353 0
M  V30 4925 H 463.336 4.92497 -1.60209 0
M  V30 4926 H 460.013 4.08969 0.839664 0
M  V30 4927 H 461.403 6.18991 -2.61342 0
M  V30 4928 N 464.123 0.554532 1.47522 0
M  V30 4929 C 465.4 -0.0360704 1.95567 0
M  V30 4930 C 465.78 -1.48828 1.49711 0
M  V30 4931 O 465.128 -2.16366 0.734717 0
M  V30 4932 C 465.338 0.106631 3.48837 0
M  V30 4933 C 466.686 -0.0400899 4.24581 0
M  V30 4934 O 467.71 0.0340453 3.56184 0
M  V30 4935 O 466.569 -0.199111 5.46137 0
M  V30 4936 H 463.663 -0.0656294 0.824392 0
M  V30 4937 H 466.209 0.620867 1.57935 0
M  V30 4938 H 464.981 1.11727 3.7501 0
M  V30 4939 H 464.604 -0.58804 3.93227 0
M  V30 4940 N 465.601 -1.54893 0.290851 0
M  V30 4941 C 466.549 -2.24579 -0.605576 0
M  V30 4942 C 467.543 -1.24824 -1.14522 0
M  V30 4943 O 468.749 -1.42706 -1.09704 0
M  V30 4944 H 465.124 -0.720946 -0.213872 0
M  V30 4945 H 467.095 -2.984 0.0048173 0
M  V30 4946 C 465.844 -2.99224 -1.77088 0
M  V30 4947 H 465.167 -3.75782 -1.36484 0
M  V30 4948 H 466.607 -3.51281 -2.3744 0
M  V30 4949 C 465.066 -2.05602 -2.66888 0
M  V30 4950 O 465.596 -1.61745 -3.67698 0
M  V30 4951 N 463.802 -1.71771 -2.34399 0
M  V30 4952 H 463.349 -2.07633 -1.52468 0
M  V30 4953 H 463.307 -1.09403 -2.94751 0
M  V30 4954 N 467.08 -0.0183926 -1.57589 0
M  V30 4955 C 468.012 0.995557 -2.06449 0
M  V30 4956 C 469.025 1.29556 -0.985849 0
M  V30 4957 O 470.214 1.2621 -1.26227 0
M  V30 4958 C 467.314 2.32572 -2.46502 0
M  V30 4959 C 466.487 2.21245 -3.77319 0
M  V30 4960 C 465.546 3.37104 -4.04039 0
M  V30 4961 O 464.572 3.14468 -4.74445 0
M  V30 4962 N 465.774 4.60553 -3.53372 0
M  V30 4963 H 468.539 0.578746 -2.94059 0
M  V30 4964 H 466.1 0.168603 -1.6102 0
M  V30 4965 H 468.092 3.08887 -2.61478 0
M  V30 4966 H 466.662 2.65931 -1.64315 0
M  V30 4967 H 465.882 1.29723 -3.72244 0
M  V30 4968 H 467.17 2.10868 -4.63047 0
M  V30 4969 H 466.568 4.81839 -2.96391 0
M  V30 4970 H 465.125 5.34072 -3.73644 0
M  V30 4971 N 468.558 1.5553 0.254621 0
M  V30 4972 C 469.974 1.4778 0.602753 0
M  V30 4973 C 470.174 0.707047 1.88688 0
M  V30 4974 O 469.23 0.233288 2.5142 0
M  V30 4975 C 470.543 2.92133 0.712648 0
M  V30 4976 C 472.091 3.02458 0.805488 0
M  V30 4977 C 472.566 4.48102 0.947009 0
M  V30 4978 N 474.057 4.52008 1.01207 0
M  V30 4979 C 474.792 5.61939 1.1407 0
M  V30 4980 N 474.288 6.81697 1.23536 0
M  V30 4981 N 476.081 5.49719 1.17325 0
M  V30 4982 H 468.232 2.04085 -0.588463 0
M  V30 4983 H 470.495 0.926229 -0.202001 0
M  V30 4984 H 470.201 3.51332 -0.160766 0
M  V30 4985 H 470.075 3.42187 1.58707 0
M  V30 4986 H 472.462 2.43344 1.66936 0
M  V30 4987 H 472.543 2.55627 -0.0939266 0
M  V30 4988 H 472.187 5.07824 0.087725 0
M  V30 4989 H 472.117 4.92607 1.86135 0
M  V30 4990 H 474.608 3.65749 0.950577 0
M  V30 4991 H 474.921 7.61228 1.33236 0
M  V30 4992 H 473.266 6.84473 1.20508 0
M  V30 4993 H 476.457 4.55095 1.09573 0
M  V30 4994 H 476.63 6.35432 1.27005 0
M  V30 4995 N 470.036 -0.519951 1.48776 0
M  V30 4996 C 471.284 -1.2727 1.56993 0
M  V30 4997 C 471.605 -1.9339 0.25004 0
M  V30 4998 O 470.875 -1.81822 -0.729216 0
M  V30 4999 H 469.455 -0.472732 0.578389 0
M  V30 5000 H 472.117 -0.604234 1.85297 0
M  V30 5001 H 471.213 -2.04669 2.3562 0
M  V30 5002 N 471.514 -1.37532 -0.769588 0
M  V30 5003 C 472.464 -1.29984 -1.87318 0
M  V30 5004 C 473.448 -0.187242 -1.59807 0
M  V30 5005 O 474.64 -0.421827 -1.719 0
M  V30 5006 C 471.769 -1.11126 -3.24817 0
M  V30 5007 C 470.855 -2.26939 -3.58273 0
M  V30 5008 N 471.246 -3.52336 -3.62895 0
M  V30 5009 C 469.544 -2.19141 -3.8845 0
M  V30 5010 C 470.245 -4.28719 -3.9316 0
M  V30 5011 N 469.221 -3.57884 -4.0917 0
M  V30 5012 H 473.023 -2.24946 -1.89147 0
M  V30 5013 H 470.537 -1.30535 -0.966143 0
M  V30 5014 H 472.534 -1.03803 -4.0377 0
M  V30 5015 H 471.194 -0.17083 -3.2425 0
M  V30 5016 H 472.205 -3.86216 -3.45048 0
M  V30 5017 H 468.882 -1.33167 -3.95693 0
M  V30 5018 H 470.272 -5.37254 -4.03494 0
M  V30 5019 N 472.992 0.995999 -1.22138 0
M  V30 5020 C 474.24 1.73167 -1.042 0
M  V30 5021 C 474.561 1.90329 0.42423 0
M  V30 5022 O 473.831 1.4607 1.30539 0
M  V30 5023 H 472.411 0.641593 -0.38258 0
M  V30 5024 H 475.073 1.19974 -1.53598 0
M  V30 5025 H 474.169 2.72734 -1.51731 0
M  V30 5026 N 474.47 1.03057 1.19235 0
M  V30 5027 C 475.433 0.617418 2.20727 0
M  V30 5028 C 476.433 -0.319856 1.57587 0
M  V30 5029 O 477.623 -0.106633 1.73873 0
M  V30 5030 C 474.755 -0.096296 3.40764 0
M  V30 5031 H 475.948 1.51544 2.58794 0
M  V30 5032 H 473.501 0.821949 1.32942 0
M  V30 5033 H 474.236 -1.00859 3.08217 0
M  V30 5034 H 474.021 0.577217 3.87828 0
M  V30 5035 H 475.511 -0.372219 4.15938 0
M  V30 5036 N 475.948 -1.35272 0.808662 0
M  V30 5037 C 477.196 -1.98316 0.389233 0
M  V30 5038 C 477.517 -1.64465 -1.04767 0
M  V30 5039 O 476.787 -0.928175 -1.72516 0
M  V30 5040 H 475.367 -0.733585 0.140935 0
M  V30 5041 H 478.029 -1.6515 1.03496 0
M  V30 5042 H 477.125 -3.08123 0.496631 0
M  V30 5043 N 477.426 -0.562348 -1.47226 0
M  V30 5044 C 478.674 -0.0401371 -2.0206 0
M  V30 5045 C 478.995 1.3165 -1.43852 0
M  V30 5046 O 478.265 1.85976 -0.615599 0
M  V30 5047 H 476.845 -0.0118479 -0.746906 0
M  V30 5048 H 479.507 -0.73352 -1.8057 0
M  V30 5049 H 478.603 0.0441254 -3.12069 0
M  V30 5050 N 478.904 1.54736 -0.299062 0
M  V30 5051 C 479.867 2.22127 0.565012 0
M  V30 5052 C 480.867 1.20669 1.06281 0
M  V30 5053 O 482.057 1.45417 0.959145 0
M  V30 5054 C 479.189 2.90611 1.78208 0
M  V30 5055 H 480.382 2.99891 -0.0237448 0
M  V30 5056 H 477.935 1.5622 -0.0498788 0
M  V30 5057 H 478.67 2.16921 2.41072 0
M  V30 5058 H 478.455 3.64984 1.43281 0
M  V30 5059 H 479.945 3.42026 2.396 0
M  V30 5060 N 480.382 0.0267497 1.57577 0
M  V30 5061 C 481.607 -0.666227 1.96408 0
M  V30 5062 C 482.032 -1.65004 0.903071 0
M  V30 5063 O 481.39 -1.80787 -0.136263 0
M  V30 5064 C 481.438 -1.35101 3.34335 0
M  V30 5065 O 480.542 -2.46623 3.30531 0
M  V30 5066 H 479.883 -0.175206 0.640468 0
M  V30 5067 H 482.413 0.0878977 2.04411 0
M  V30 5068 H 482.423 -1.70834 3.70513 0
M  V30 5069 H 481.098 -0.629844 4.11103 0
M  V30 5070 H 479.675 -2.13019 3.06068 0
M  V30 5071 N 481.861 -1.55662 -0.24637 0
M  V30 5072 C 483.11 -1.7672 -0.972254 0
M  V30 5073 C 483.423 -0.59078 -1.86465 0
M  V30 5074 O 484.629 -0.684391 -2.62732 0
M  V30 5075 C 483.085 -3.12869 -1.7788 0
M  V30 5076 C 482.693 -4.38161 -0.933768 0
M  V30 5077 C 484.437 -3.43265 -2.49738 0
M  V30 5078 C 482.344 -5.6534 -1.73623 0
M  V30 5079 H 481.274 -0.658795 -0.366749 0
M  V30 5080 H 483.925 -1.82092 -0.226902 0
M  V30 5081 H 482.307 -3.01606 -2.56612 0
M  V30 5082 H 483.481 -4.60413 -0.188736 0
M  V30 5083 H 481.796 -4.15102 -0.328488 0
M  V30 5084 H 484.393 -4.35501 -3.10231 0
M  V30 5085 H 484.736 -2.64614 -3.2138 0
M  V30 5086 H 485.269 -3.55746 -1.78016 0
M  V30 5087 H 482.008 -6.46814 -1.06354 0
M  V30 5088 H 481.528 -5.47188 -2.45653 0
M  V30 5089 H 483.207 -6.04616 -2.30323 0
M  V30 5090 N 483.339 0.512053 -1.4905 0
M  V30 5091 C 484.269 1.62365 -1.67809 0
M  V30 5092 C 485.25 1.61737 -0.526809 0
M  V30 5093 O 486.435 1.78651 -0.761404 0
M  V30 5094 C 483.565 3.00895 -1.73435 0
M  V30 5095 C 482.519 3.16387 -2.88242 0
M  V30 5096 C 481.845 4.56157 -2.78971 0
M  V30 5097 C 483.145 2.97457 -4.29321 0
M  V30 5098 H 484.839 1.46921 -2.60873 0
M  V30 5099 H 482.385 0.705379 -1.2554 0
M  V30 5100 H 484.338 3.78549 -1.85145 0
M  V30 5101 H 483.062 3.17403 -0.769619 0
M  V30 5102 H 481.721 2.41155 -2.76116 0
M  V30 5103 H 481.369 4.69525 -1.8043 0
M  V30 5104 H 481.069 4.67465 -3.5602 0
M  V30 5105 H 482.593 5.35886 -2.92675 0
M  V30 5106 H 484.007 3.64888 -4.42187 0
M  V30 5107 H 482.404 3.20245 -5.07507 0
M  V30 5108 H 483.474 1.93692 -4.44535 0
M  V30 5109 N 484.817 1.37938 0.762283 0
M  V30 5110 C 486.045 1.36883 1.55147 0
M  V30 5111 C 486.46 -0.0435348 1.8875 0
M  V30 5112 O 485.817 -1.00786 1.52146 0
M  V30 5113 C 485.868 2.21624 2.85596 0
M  V30 5114 O 485.589 3.57358 2.5343 0
M  V30 5115 C 487.09 2.28653 3.7978 0
M  V30 5116 H 484.31 0.468521 0.480343 0
M  V30 5117 H 486.854 1.81404 0.944079 0
M  V30 5118 H 485.009 1.80588 3.42734 0
M  V30 5119 H 485.423 4.01883 3.37032 0
M  V30 5120 H 486.897 2.9225 4.68288 0
M  V30 5121 H 487.374 1.29767 4.19592 0
M  V30 5122 H 487.98 2.70043 3.28568 0
M  V30 5123 N 486.295 -0.989507 1.22664 0
M  V30 5124 C 487.542 -1.72953 1.05325 0
M  V30 5125 C 487.87 -1.90104 -0.411168 0
M  V30 5126 O 487.125 -1.44386 -1.32103 0
M  V30 5127 C 487.424 -3.13649 1.71345 0
M  V30 5128 C 487.09 -3.16403 3.21248 0
M  V30 5129 C 485.752 -3.16862 3.62149 0
M  V30 5130 C 488.104 -3.12428 4.17179 0
M  V30 5131 C 485.432 -3.11051 4.97458 0
M  V30 5132 C 487.784 -3.08159 5.52468 0
M  V30 5133 C 486.448 -3.06935 5.92746 0
M  V30 5134 H 485.718 -0.632881 0.385412 0
M  V30 5135 H 488.365 -1.15863 1.52473 0
M  V30 5136 H 486.67 -3.74069 1.16532 0
M  V30 5137 H 488.367 -3.69658 1.55416 0
M  V30 5138 H 484.957 -3.16798 2.88682 0
M  V30 5139 H 489.141 -3.11221 3.86595 0
M  V30 5140 H 484.397 -3.0845 5.27891 0
M  V30 5141 H 488.571 -3.04039 6.26525 0
M  V30 5142 H 486.198 -3.02186 6.97558 0
M  V30 5143 N 487.773 -1.03688 -1.18687 0
M  V30 5144 C 489.019 -0.74888 -1.89112 0
M  V30 5145 C 489.374 0.715345 -1.78607 0
M  V30 5146 O 488.667 1.51498 -1.17299 0
M  V30 5147 C 488.861 -1.14477 -3.3857 0
M  V30 5148 C 488.69 -2.64594 -3.63621 0
M  V30 5149 C 487.46 -3.31685 -3.812 0
M  V30 5150 C 489.658 -3.62811 -3.64517 0
M  V30 5151 N 487.64 -4.70822 -3.93955 0
M  V30 5152 C 489.011 -4.87603 -3.8294 0
M  V30 5153 C 491.066 -3.56495 -3.47585 0
M  V30 5154 C 489.769 -6.0684 -3.86184 0
M  V30 5155 C 491.795 -4.75155 -3.52111 0
M  V30 5156 C 491.157 -5.98765 -3.71026 0
M  V30 5157 H 487.256 -0.32603 -0.710794 0
M  V30 5158 H 489.84 -1.3258 -1.42586 0
M  V30 5159 H 488.011 -0.595974 -3.838 0
M  V30 5160 H 489.743 -0.808187 -3.96548 0
M  V30 5161 H 486.498 -2.82091 -3.80423 0
M  V30 5162 H 486.922 -5.43122 -4.04163 0
M  V30 5163 H 491.564 -2.61907 -3.31911 0
M  V30 5164 H 489.282 -7.01788 -4.00648 0
M  V30 5165 H 492.868 -4.71905 -3.40289 0
M  V30 5166 H 491.748 -6.89047 -3.74412 0
M  V30 5167 N 489.251 1.34841 -0.815825 0
M  V30 5168 C 490.528 1.92908 -0.323416 0
M  V30 5169 C 490.908 1.74479 1.18828 0
M  V30 5170 O 490.256 1.11928 1.99209 0
M  V30 5171 C 490.466 3.40957 -0.744952 0
M  V30 5172 C 491.814 4.18107 -0.739716 0
M  V30 5173 O 492.838 3.49511 -0.68708 0
M  V30 5174 O 491.697 5.40517 -0.806456 0
M  V30 5175 H 488.791 0.822436 -0.0867646 0
M  V30 5176 H 491.337 1.4386 -0.90014 0
M  V30 5177 H 490.109 3.4814 -1.78646 0
M  V30 5178 H 489.732 3.97341 -0.143535 0
M  V30 5179 N 490.729 0.570148 1.46925 0
M  V30 5180 C 491.692 -0.159933 2.28641 0
M  V30 5181 C 492.692 -0.830638 1.37685 0
M  V30 5182 O 493.882 -0.684516 1.60187 0
M  V30 5183 C 491.014 -1.2354 3.17727 0
M  V30 5184 H 492.207 0.558035 2.94662 0
M  V30 5185 H 489.76 0.327603 1.52828 0
M  V30 5186 H 490.495 -1.98535 2.56426 0
M  V30 5187 H 490.28 -0.759125 3.84681 0
M  V30 5188 H 491.77 -1.74782 3.79264 0
M  V30 5189 N 492.207 -1.54576 0.307264 0
M  V30 5190 C 493.623 -1.59534 -0.0459251 0
M  V30 5191 C 493.823 -1.32414 -1.51884 0
M  V30 5192 O 492.879 -1.1006 -2.27251 0
M  V30 5193 C 494.192 -2.98566 0.357649 0
M  V30 5194 C 495.74 -3.11491 0.306937 0
M  V30 5195 C 496.215 -4.52842 0.685427 0
M  V30 5196 N 497.706 -4.58782 0.638203 0
M  V30 5197 C 498.441 -5.66238 0.903458 0
M  V30 5198 N 497.937 -6.81703 1.23501 0
M  V30 5199 N 499.73 -5.55937 0.830102 0
M  V30 5200 H 491.881 -1.70464 1.26712 0
M  V30 5201 H 494.144 -0.79647 0.514139 0
M  V30 5202 H 493.85 -3.23356 1.38325 0
M  V30 5203 H 493.724 -3.76117 -0.285565 0
M  V30 5204 H 496.111 -2.86446 -0.709424 0
M  V30 5205 H 496.192 -2.36081 0.984861 0
M  V30 5206 H 495.836 -4.78618 1.69963 0
M  V30 5207 H 495.766 -5.26598 -0.0146346 0
M  V30 5208 H 498.257 -3.75849 0.393138 0
M  V30 5209 H 498.57 -7.59582 1.42322 0
M  V30 5210 H 496.915 -6.8324 1.27311 0
M  V30 5211 H 500.106 -4.64608 0.570693 0
M  V30 5212 H 500.279 -6.39597 1.04019 0
M  V30 5213 N 493.685 -0.035106 -1.57561 0
M  V30 5214 C 494.615 0.942993 -2.13612 0
M  V30 5215 C 495.596 1.33531 -1.05373 0
M  V30 5216 O 496.781 1.41287 -1.33235 0
M  V30 5217 C 493.911 2.22332 -2.66807 0
M  V30 5218 C 492.865 1.97156 -3.79886 0
M  V30 5219 C 492.191 3.31506 -4.19533 0
M  V30 5220 C 493.491 1.30596 -5.05709 0
M  V30 5221 H 495.185 0.476179 -2.95589 0
M  V30 5222 H 492.731 0.227602 -1.4219 0
M  V30 5223 H 494.684 2.91142 -3.04654 0
M  V30 5224 H 493.408 2.7119 -1.81999 0
M  V30 5225 H 492.067 1.30763 -3.42486 0
M  V30 5226 H 491.715 3.78134 -3.31698 0
M  V30 5227 H 491.415 3.15465 -4.95738 0
M  V30 5228 H 492.939 4.01574 -4.59968 0
M  V30 5229 H 494.353 1.89416 -5.41105 0
M  V30 5230 H 492.75 1.24934 -5.86951 0
M  V30 5231 H 493.82 0.279742 -4.84092 0
M  V30 5232 N 495.163 1.55791 0.238111 0
M  V30 5233 C 496.393 1.81834 0.980809 0
M  V30 5234 C 496.801 0.609741 1.79106 0
M  V30 5235 O 496.144 -0.431073 1.78571 0
M  V30 5236 C 496.206 3.01363 1.96011 0
M  V30 5237 C 495.87 4.37037 1.33597 0
M  V30 5238 C 496.867 5.14692 0.734063 0
M  V30 5239 C 494.552 4.83743 1.3527 0
M  V30 5240 C 496.546 6.37206 0.157208 0
M  V30 5241 C 494.233 6.06204 0.77199 0
M  V30 5242 C 495.231 6.82775 0.175282 0
M  V30 5243 O 494.919 8.02922 -0.396432 0
M  V30 5244 H 494.651 0.6088 0.293834 0
M  V30 5245 H 497.205 2.03702 0.263552 0
M  V30 5246 H 495.435 2.75273 2.71591 0
M  V30 5247 H 497.124 3.14422 2.56697 0
M  V30 5248 H 497.89 4.79722 0.713582 0
M  V30 5249 H 493.769 4.24129 1.80653 0
M  V30 5250 H 497.313 6.96915 -0.30917 0
M  V30 5251 H 493.21 6.4065 0.789828 0
M  V30 5252 H 493.978 8.17989 -0.289145 0
M  V30 5253 N 496.642 -0.504142 1.49319 0
M  V30 5254 C 497.589 -1.60603 1.65756 0
M  V30 5255 C 498.559 -1.58425 0.499082 0
M  V30 5256 O 499.744 -1.76459 0.725728 0
M  V30 5257 C 496.884 -2.98764 1.72726 0
M  V30 5258 C 495.997 -3.10982 2.99857 0
M  V30 5259 C 495.132 -4.39857 2.97824 0
M  V30 5260 C 494.171 -4.45697 4.19548 0
M  V30 5261 N 493.308 -5.65995 4.15444 0
M  V30 5262 H 498.148 -1.45895 2.59843 0
M  V30 5263 H 495.685 -0.709891 1.28837 0
M  V30 5264 H 497.643 -3.78839 1.74747 0
M  V30 5265 H 496.273 -3.12183 0.821075 0
M  V30 5266 H 495.325 -2.23991 3.07461 0
M  V30 5267 H 496.637 -3.11157 3.89849 0
M  V30 5268 H 495.791 -5.2825 2.98391 0
M  V30 5269 H 494.53 -4.42242 2.05604 0
M  V30 5270 H 493.535 -3.55707 4.19229 0
M  V30 5271 H 494.76 -4.4503 5.12957 0
M  V30 5272 H 492.706 -5.69229 3.26059 0
M  V30 5273 H 492.623 -5.67773 4.99169 0
M  V30 5274 H 493.891 -6.56604 4.20109 0
M  V30 5275 N 498.12 -1.38341 -0.754957 0
M  V30 5276 C 499.053 -1.29837 -1.87663 0
M  V30 5277 C 500.031 -0.175659 -1.61648 0
M  V30 5278 O 501.215 -0.352745 -1.8517 0
M  V30 5279 C 498.342 -1.01141 -3.23246 0
M  V30 5280 C 497.388 -2.15331 -3.6815 0
M  V30 5281 S 498.221 -3.77459 -3.79849 0
M  V30 5282 C 499.377 -3.50948 -5.18253 0
M  V30 5283 H 499.61 -2.24771 -1.9459 0
M  V30 5284 H 497.143 -1.24161 -0.917796 0
M  V30 5285 H 499.101 -0.852687 -4.01546 0
M  V30 5286 H 497.762 -0.0792784 -3.14 0
M  V30 5287 H 496.955 -1.90795 -4.6649 0
M  V30 5288 H 496.557 -2.27304 -2.97 0
M  V30 5289 H 498.849 -3.06977 -6.03963 0
M  V30 5290 H 499.792 -4.48677 -5.47809 0
M  V30 5291 H 500.2 -2.85492 -4.86985 0
M  V30 5292 N 499.598 0.982988 -1.23187 0
M  V30 5293 C 500.561 2.05649 -1.01198 0
M  V30 5294 C 501.561 1.6078 0.0252464 0
M  V30 5295 O 502.751 1.72878 -0.214243 0
M  V30 5296 C 499.883 3.36744 -0.530656 0
M  V30 5297 H 501.076 2.2659 -1.96461 0
M  V30 5298 H 498.629 1.15602 -1.05195 0
M  V30 5299 H 499.364 3.21492 0.425873 0
M  V30 5300 H 499.149 3.7065 -1.2791 0
M  V30 5301 H 500.639 4.15705 -0.397366 0
M  V30 5302 N 501.076 1.04316 1.18135 0
M  V30 5303 C 502.322 0.749128 1.88457 0
M  V30 5304 C 502.655 -0.72149 1.803 0
M  V30 5305 O 501.93 -1.52676 1.205 0
M  V30 5306 C 502.213 1.21905 3.38838 0
M  V30 5307 C 502.066 2.75195 3.55792 0
M  V30 5308 C 503.385 0.811085 4.32561 0
M  V30 5309 H 500.504 0.273611 0.684329 0
M  V30 5310 H 503.146 1.29561 1.38975 0
M  V30 5311 H 501.296 0.754137 3.8111 0
M  V30 5312 H 502.968 3.29743 3.22595 0
M  V30 5313 H 501.211 3.14899 2.98364 0
M  V30 5314 H 501.882 3.03135 4.61317 0
M  V30 5315 H 504.358 1.21118 3.98082 0
M  V30 5316 H 503.234 1.16761 5.36338 0
M  V30 5317 H 503.495 -0.285596 4.41177 0
M  V30 5318 N 502.554 -1.34406 0.822964 0
M  V30 5319 C 503.802 -1.97892 0.410245 0
M  V30 5320 C 504.123 -1.65567 -1.03017 0
M  V30 5321 O 503.393 -0.94642 -1.71522 0
M  V30 5322 H 501.973 -0.732049 0.148707 0
M  V30 5323 H 504.635 -1.64043 1.05242 0
M  V30 5324 H 503.731 -3.07579 0.529284 0
M  V30 5325 N 504.032 -0.577932 -1.46621 0
M  V30 5326 C 505.279 -0.0616879 -2.02406 0
M  V30 5327 C 505.607 1.29638 -1.44997 0
M  V30 5328 O 504.862 1.86176 -0.60308 0
M  V30 5329 C 505.161 0.0590832 -3.57351 0
M  V30 5330 C 504.827 -1.23077 -4.33777 0
M  V30 5331 C 503.489 -1.58416 -4.54376 0
M  V30 5332 C 505.841 -2.08457 -4.77698 0
M  V30 5333 C 503.169 -2.78943 -5.16147 0
M  V30 5334 C 505.521 -3.28204 -5.408 0
M  V30 5335 C 504.185 -3.63832 -5.59627 0
M  V30 5336 H 503.455 -0.0225732 -0.740656 0
M  V30 5337 H 506.102 -0.753609 -1.76048 0
M  V30 5338 H 504.407 0.834104 -3.82818 0
M  V30 5339 H 506.104 0.474202 -3.98186 0
M  V30 5340 H 502.694 -0.945652 -4.18038 0
M  V30 5341 H 506.878 -1.82459 -4.61544 0
M  V30 5342 H 502.134 -3.06689 -5.28916 0
M  V30 5343 H 506.308 -3.94634 -5.73792 0
M  V30 5344 H 503.935 -4.57315 -6.07262 0
M  V30 5345 N 505.51 1.54411 -0.315457 0
M  V30 5346 C 506.443 2.20265 0.596522 0
M  V30 5347 C 507.421 1.17693 1.12192 0
M  V30 5348 O 508.605 1.46397 1.18744 0
M  V30 5349 C 505.732 2.85794 1.81767 0
M  V30 5350 C 504.778 4.02017 1.42424 0
M  V30 5351 S 505.611 5.33452 0.467836 0
M  V30 5352 C 506.767 6.02471 1.69645 0
M  V30 5353 H 507 2.97277 0.0370896 0
M  V30 5354 H 504.533 1.54079 -0.0995562 0
M  V30 5355 H 506.491 3.24172 2.51839 0
M  V30 5356 H 505.152 2.08601 2.34828 0
M  V30 5357 H 504.345 4.46701 2.33396 0
M  V30 5358 H 503.947 3.65271 0.803311 0
M  V30 5359 H 506.239 6.24157 2.63504 0
M  V30 5360 H 507.182 6.96215 1.29192 0
M  V30 5361 H 507.59 5.32284 1.87974 0
M  V30 5362 N 506.988 0.0434614 1.5754 0
M  V30 5363 C 507.918 -0.931651 2.14109 0
M  V30 5364 C 508.899 -1.32971 1.06079 0
M  V30 5365 O 510.084 -1.40579 1.33982 0
M  V30 5366 C 507.214 -2.20914 2.67982 0
M  V30 5367 C 506.168 -1.95139 3.80926 0
M  V30 5368 C 505.494 -3.29276 4.21285 0
M  V30 5369 C 506.794 -1.27913 5.06395 0
M  V30 5370 H 508.488 -0.460497 2.95837 0
M  V30 5371 H 506.034 -0.220058 1.42309 0
M  V30 5372 H 507.987 -2.89522 3.06194 0
M  V30 5373 H 506.711 -2.70221 1.83434 0
M  V30 5374 H 505.37 -1.28945 3.43175 0
M  V30 5375 H 505.018 -3.76369 3.33699 0
M  V30 5376 H 504.718 -3.12831 4.97404 0
M  V30 5377 H 506.242 -3.99129 4.62091 0
M  V30 5378 H 507.656 -1.86544 5.42102 0
M  V30 5379 H 506.053 -1.2182 5.87605 0
M  V30 5380 H 507.123 -0.254066 4.84234 0
M  V30 5381 N 508.466 -1.55915 -0.229846 0
M  V30 5382 C 509.429 -1.90914 -1.26824 0
M  V30 5383 C 510.429 -0.786999 -1.40225 0
M  V30 5384 O 511.619 -1.05484 -1.38632 0
M  V30 5385 C 508.751 -2.15264 -2.64337 0
M  V30 5386 H 509.944 -2.8378 -0.969998 0
M  V30 5387 H 507.497 -1.49069 -0.4699 0
M  V30 5388 H 508.232 -1.24923 -2.99274 0
M  V30 5389 H 508.017 -2.97005 -2.55989 0
M  V30 5390 H 509.507 -2.43467 -3.39284 0
M  V30 5391 N 509.944 0.496216 -1.49584 0
M  V30 5392 C 510.894 1.59422 -1.62999 0
M  V30 5393 C 511.878 1.53402 -0.485457 0
M  V30 5394 O 513.07 1.60851 -0.738649 0
M  V30 5395 C 510.199 2.98009 -1.70427 0
M  V30 5396 C 509.285 3.09008 -2.90473 0
M  V30 5397 N 509.676 2.89884 -4.14489 0
M  V30 5398 C 507.974 3.40115 -2.8851 0
M  V30 5399 C 508.675 3.0519 -4.95211 0
M  V30 5400 N 507.651 3.3428 -4.2867 0
M  V30 5401 H 511.453 1.43297 -2.56599 0
M  V30 5402 H 508.967 0.702443 -1.46422 0
M  V30 5403 H 510.964 3.76926 -1.78136 0
M  V30 5404 H 509.624 3.152 -0.77967 0
M  V30 5405 H 510.635 2.65963 -4.44392 0
M  V30 5406 H 507.312 3.63452 -2.05448 0
M  V30 5407 H 508.702 2.94856 -6.03746 0
M  V30 5408 N 511.423 1.38739 0.74761 0
M  V30 5409 C 512.834 1.31507 1.32524 0
M  V30 5410 C 513.185 -0.0263963 1.96182 0
M  V30 5411 O 512.31 -0.92849 1.95469 0
M  V30 5412 C 512.905 2.38162 2.40966 0
M  V30 5413 C 511.464 2.34489 2.94434 0
M  V30 5414 C 510.611 2.20712 1.67873 0
M  V30 5415 H 513.562 1.4901 0.546043 0
M  V30 5416 H 513.583 2.04222 3.21051 0
M  V30 5417 H 513.095 3.35783 1.94605 0
M  V30 5418 H 511.196 1.40467 3.45108 0
M  V30 5419 H 511.309 3.28861 3.48407 0
M  V30 5420 H 509.673 1.67667 1.91729 0
M  V30 5421 H 510.456 3.20285 1.23582 0
M  V30 5422 N 512.901 -0.976442 1.23707 0
M  V30 5423 C 514.131 -1.75087 1.09673 0
M  V30 5424 C 514.539 -1.85852 -0.354344 0
M  V30 5425 O 513.882 -1.33985 -1.25673 0
M  V30 5426 C 513.944 -3.19272 1.65245 0
M  V30 5427 C 513.608 -3.32004 3.14042 0
M  V30 5428 C 514.605 -3.18017 4.11292 0
M  V30 5429 C 512.29 -3.56525 3.53829 0
M  V30 5430 C 514.284 -3.28363 5.46312 0
M  V30 5431 C 511.971 -3.6651 4.88993 0
M  V30 5432 C 512.969 -3.52439 5.85043 0
M  V30 5433 O 512.657 -3.62063 7.1775 0
M  V30 5434 H 512.389 -0.556164 0.384262 0
M  V30 5435 H 514.943 -1.23518 1.64111 0
M  V30 5436 H 513.173 -3.72107 1.05231 0
M  V30 5437 H 514.862 -3.7849 1.46629 0
M  V30 5438 H 515.628 -2.98966 3.81896 0
M  V30 5439 H 511.507 -3.66547 2.79579 0
M  V30 5440 H 515.051 -3.17297 6.21263 0
M  V30 5441 H 510.948 -3.85072 5.18063 0
M  V30 5442 H 511.716 -3.78833 7.25553 0
M  V30 5443 N 514.379 -1.04941 -1.1758 0
M  V30 5444 C 515.627 -0.756492 -1.87408 0
M  V30 5445 C 515.948 0.718478 -1.81281 0
M  V30 5446 O 515.218 1.519 -1.23706 0
M  V30 5447 H 513.798 -0.276841 -0.693807 0
M  V30 5448 H 516.46 -1.32803 -1.42652 0
M  V30 5449 H 515.556 -1.06918 -2.93215 0
M  V30 5450 N 515.857 1.33968 -0.830081 0
M  V30 5451 C 517.104 1.98063 -0.421566 0
M  V30 5452 C 517.432 1.65787 1.0171 0
M  V30 5453 O 516.687 0.925348 1.72441 0
M  V30 5454 C 516.986 3.52679 -0.57898 0
M  V30 5455 C 516.652 4.04884 -1.98443 0
M  V30 5456 C 515.314 4.18852 -2.36888 0
M  V30 5457 C 517.666 4.32879 -2.90285 0
M  V30 5458 C 514.994 4.58145 -3.66497 0
M  V30 5459 C 517.346 4.7362 -4.19364 0
M  V30 5460 C 516.01 4.85794 -4.57778 0
M  V30 5461 H 515.28 0.724765 -0.154262 0
M  V30 5462 H 517.927 1.59792 -1.05541 0
M  V30 5463 H 516.232 3.91556 0.138219 0
M  V30 5464 H 517.929 4.00261 -0.243317 0
M  V30 5465 H 514.519 3.9448 -1.67581 0
M  V30 5466 H 518.703 4.21619 -2.61823 0
M  V30 5467 H 513.959 4.65762 -3.96075 0
M  V30 5468 H 518.133 4.9424 -4.90612 0
M  V30 5469 H 515.76 5.15998 -5.58256 0
M  V30 5470 N 517.335 0.585699 1.46312 0
M  V30 5471 C 518.563 0.0781299 2.06752 0
M  V30 5472 C 518.978 -1.22812 1.43396 0
M  V30 5473 O 518.335 -1.74318 0.540314 0
M  V30 5474 C 518.386 -0.0911927 3.61385 0
M  V30 5475 O 518.107 1.16336 4.22371 0
M  V30 5476 C 519.608 -0.632765 4.38761 0
M  V30 5477 H 516.828 0.0588188 0.668417 0
M  V30 5478 H 519.372 0.807218 1.87894 0
M  V30 5479 H 517.527 -0.770514 3.7966 0
M  V30 5480 H 517.941 0.979082 5.15281 0
M  V30 5481 H 519.415 -0.70041 5.47538 0
M  V30 5482 H 519.892 -1.65039 4.07012 0
M  V30 5483 H 520.498 0.0117856 4.25298 0
M  V30 5484 N 518.813 -1.54241 0.323641 0
M  V30 5485 C 520.229 -1.59574 -0.0290018 0
M  V30 5486 C 520.429 -1.34017 -1.50472 0
M  V30 5487 O 519.485 -1.12464 -2.26071 0
M  V30 5488 C 520.798 -2.98169 0.389295 0
M  V30 5489 C 522.346 -3.11148 0.339958 0
M  V30 5490 C 522.821 -4.5209 0.733418 0
M  V30 5491 N 524.312 -4.5808 0.686827 0
M  V30 5492 C 525.047 -5.65248 0.963464 0
M  V30 5493 N 524.543 -6.80355 1.30724 0
M  V30 5494 N 526.336 -5.55025 0.88902 0
M  V30 5495 H 518.487 -1.6911 1.28512 0
M  V30 5496 H 520.75 -0.790972 0.522558 0
M  V30 5497 H 520.456 -3.21871 1.41746 0
M  V30 5498 H 520.33 -3.76399 -0.245657 0
M  V30 5499 H 522.717 -2.87182 -0.679002 0
M  V30 5500 H 522.798 -2.35023 1.00985 0
M  V30 5501 H 522.442 -4.76788 1.75029 0
M  V30 5502 H 522.372 -5.26584 0.0412189 0
M  V30 5503 H 524.863 -3.75411 0.43298 0
M  V30 5504 H 525.176 -7.58029 1.5037 0
M  V30 5505 H 523.521 -6.81851 1.3455 0
M  V30 5506 H 526.712 -4.63977 0.619939 0
M  V30 5507 H 526.885 -6.38458 1.10797 0
M  V30 5508 N 520.291 -0.0518155 -1.57515 0
M  V30 5509 C 521.537 0.622745 -1.93002 0
M  V30 5510 C 521.87 1.70456 -0.930499 0
M  V30 5511 O 521.145 1.94452 0.0434086 0
M  V30 5512 C 521.428 1.21824 -3.38867 0
M  V30 5513 C 521.281 0.144434 -4.49568 0
M  V30 5514 C 522.6 2.12968 -3.8514 0
M  V30 5515 H 519.719 0.22491 -0.701844 0
M  V30 5516 H 522.361 -0.113711 -1.89659 0
M  V30 5517 H 520.511 1.8459 -3.41846 0
M  V30 5518 H 522.183 -0.48753 -4.58717 0
M  V30 5519 H 520.426 -0.527424 -4.30582 0
M  V30 5520 H 521.097 0.601127 -5.48717 0
M  V30 5521 H 523.573 1.60163 -3.8404 0
M  V30 5522 H 522.449 2.51578 -4.87852 0
M  V30 5523 H 522.71 3.03004 -3.21934 0
M  V30 5524 N 521.769 1.56035 0.221574 0
M  V30 5525 C 522.702 1.87427 1.30178 0
M  V30 5526 C 523.68 0.731658 1.45209 0
M  V30 5527 O 524.864 0.980016 1.61022 0
M  V30 5528 C 521.991 2.08127 2.67209 0
M  V30 5529 C 521.037 3.30813 2.69194 0
M  V30 5530 S 521.87 4.86738 2.23263 0
M  V30 5531 C 523.026 5.10474 3.62171 0
M  V30 5532 H 523.259 2.78756 1.03355 0
M  V30 5533 H 520.792 1.48469 0.423813 0
M  V30 5534 H 522.75 2.20736 3.46101 0
M  V30 5535 H 521.411 1.17595 2.91256 0
M  V30 5536 H 520.604 3.42341 3.6989 0
M  V30 5537 H 520.206 3.1706 1.98366 0
M  V30 5538 H 522.498 4.9937 4.5786 0
M  V30 5539 H 523.441 6.12359 3.55558 0
M  V30 5540 H 523.849 4.38208 3.55857 0
M  V30 5541 N 523.247 -0.488276 1.49845 0
M  V30 5542 C 524.472 -1.26997 1.63971 0
M  V30 5543 C 524.897 -1.85427 0.315994 0
M  V30 5544 O 524.255 -1.66475 -0.718032 0
M  V30 5545 C 524.303 -2.36689 2.72049 0
M  V30 5546 O 523.407 -3.40882 2.32107 0
M  V30 5547 H 522.748 -0.374376 0.548396 0
M  V30 5548 H 525.278 -0.583104 1.96115 0
M  V30 5549 H 525.288 -2.82262 2.94605 0
M  V30 5550 H 523.963 -1.93529 3.68129 0
M  V30 5551 H 522.54 -3.01139 2.19931 0
M  V30 5552 N 524.725 -1.39134 -0.740242 0
M  V30 5553 C 525.95 -1.39518 -1.53459 0
M  V30 5554 C 526.375 0.00968883 -1.88098 0
M  V30 5555 O 525.733 0.995312 -1.51536 0
M  V30 5556 C 525.781 -2.26981 -2.802 0
M  V30 5557 O 524.885 -1.69609 -3.75908 0
M  V30 5558 H 524.226 -0.475328 -0.463637 0
M  V30 5559 H 526.756 -1.83064 -0.913717 0
M  V30 5560 H 526.766 -2.41309 -3.28989 0
M  V30 5561 H 525.441 -3.29081 -2.5432 0
M  V30 5562 H 524.018 -1.64495 -3.34658 0
M  V30 5563 N 526.204 0.969867 -1.24223 0
M  V30 5564 C 527.434 1.74502 -1.106 0
M  V30 5565 C 527.842 1.86038 0.344483 0
M  V30 5566 O 527.185 1.3465 1.24961 0
M  V30 5567 C 527.247 3.18391 -1.66935 0
M  V30 5568 C 526.911 3.30334 -3.15798 0
M  V30 5569 C 527.908 3.15832 -4.12973 0
M  V30 5570 C 525.593 3.54644 -3.55715 0
M  V30 5571 C 527.587 3.25461 -5.48045 0
M  V30 5572 C 525.274 3.63912 -4.90929 0
M  V30 5573 C 526.272 3.49332 -5.86904 0
M  V30 5574 O 525.96 3.58251 -7.1966 0
M  V30 5575 H 525.692 0.554119 -0.387206 0
M  V30 5576 H 528.246 1.22646 -1.64764 0
M  V30 5577 H 526.476 3.71543 -1.07203 0
M  V30 5578 H 528.165 3.77707 -1.48634 0
M  V30 5579 H 528.931 2.96937 -3.83476 0
M  V30 5580 H 524.81 3.65059 -2.81519 0
M  V30 5581 H 528.354 3.13998 -6.22937 0
M  V30 5582 H 524.251 3.82319 -5.20098 0
M  V30 5583 H 525.019 3.7498 -7.27552 0
M  V30 5584 N 527.682 1.05563 1.17022 0
M  V30 5585 C 529.098 0.777684 1.39371 0
M  V30 5586 C 529.298 -0.626269 1.91521 0
M  V30 5587 O 528.354 -1.38806 2.10924 0
M  V30 5588 C 529.667 1.83642 2.3811 0
M  V30 5589 C 531.215 1.85907 2.51809 0
M  V30 5590 C 531.69 2.90813 3.53824 0
M  V30 5591 N 533.181 2.898 3.61345 0
M  V30 5592 C 533.916 3.6762 4.40049 0
M  V30 5593 N 533.412 4.55237 5.22237 0
M  V30 5594 N 535.205 3.56044 4.34959 0
M  V30 5595 H 527.356 1.9614 0.815047 0
M  V30 5596 H 529.619 0.849527 0.420722 0
M  V30 5597 H 529.325 2.84425 2.06871 0
M  V30 5598 H 529.199 1.6812 3.37662 0
M  V30 5599 H 531.586 0.857865 2.82356 0
M  V30 5600 H 531.667 2.05506 1.52318 0
M  V30 5601 H 531.311 3.91122 3.24015 0
M  V30 5602 H 531.241 2.68465 4.53028 0
M  V30 5603 H 533.732 2.26274 3.02669 0
M  V30 5604 H 534.045 5.11291 5.79484 0
M  V30 5605 H 532.39 4.59296 5.21605 0
M  V30 5606 H 535.581 2.86986 3.69806 0
M  V30 5607 H 535.754 4.16938 4.96051 0
M  V30 5608 N 529.16 -1.33526 0.837174 0
M  V30 5609 C 530.406 -1.98541 0.44193 0
M  V30 5610 C 530.761 -1.65124 -0.987517 0
M  V30 5611 O 530.054 -0.919948 -1.6807 0
M  V30 5612 C 530.248 -3.52367 0.597675 0
M  V30 5613 C 530.077 -4.00731 2.04071 0
M  V30 5614 C 528.847 -4.28649 2.67559 0
M  V30 5615 C 531.045 -4.17073 3.00923 0
M  V30 5616 N 529.027 -4.63142 4.02955 0
M  V30 5617 C 530.398 -4.54905 4.21261 0
M  V30 5618 C 532.453 -3.99358 2.97351 0
M  V30 5619 C 531.156 -4.76874 5.38501 0
M  V30 5620 C 533.182 -4.22501 4.1382 0
M  V30 5621 C 532.544 -4.60634 5.32912 0
M  V30 5622 H 528.643 -0.753246 0.210105 0
M  V30 5623 H 531.227 -1.61674 1.08488 0
M  V30 5624 H 529.398 -3.88397 -0.0154658 0
M  V30 5625 H 531.13 -4.04326 0.17404 0
M  V30 5626 H 527.885 -4.20077 2.18706 0
M  V30 5627 H 528.309 -4.84601 4.72748 0
M  V30 5628 H 532.951 -3.68993 2.06408 0
M  V30 5629 H 530.669 -5.06101 6.2999 0
M  V30 5630 H 534.255 -4.10316 4.12471 0
M  V30 5631 H 533.135 -4.78187 6.21536 0
M  V30 5632 N 530.638 -0.59345 -1.46 0
M  V30 5633 C 532.049 -0.169801 -1.85926 0
M  V30 5634 C 532.4 1.26984 -1.49565 0
M  V30 5635 O 531.525 1.96076 -0.915602 0
M  V30 5636 C 532.12 -0.301385 -3.37457 0
M  V30 5637 C 530.679 0.0674684 -3.7634 0
M  V30 5638 C 529.826 -0.632383 -2.69993 0
M  V30 5639 H 532.777 -0.801014 -1.37002 0
M  V30 5640 H 532.798 0.470331 -3.77582 0
M  V30 5641 H 532.31 -1.34927 -3.63891 0
M  V30 5642 H 530.411 1.11507 -3.55523 0
M  V30 5643 H 530.524 -0.316332 -4.78055 0
M  V30 5644 H 528.888 -0.0714961 -2.546 0
M  V30 5645 H 529.671 -1.68212 -2.99265 0
M  V30 5646 N 532.116 1.54067 -0.331816 0
M  V30 5647 C 533.532 1.59587 0.0205388 0
M  V30 5648 C 533.732 1.34813 1.49759 0
M  V30 5649 O 532.788 1.13661 2.25471 0
M  V30 5650 C 534.101 2.97959 -0.405103 0
M  V30 5651 C 535.649 3.10964 -0.356454 0
M  V30 5652 C 536.124 4.51694 -0.757384 0
M  V30 5653 N 537.615 4.57709 -0.71111 0
M  V30 5654 C 538.35 5.64729 -0.993427 0
M  V30 5655 N 537.846 6.79652 -1.3433 0
M  V30 5656 N 539.639 5.54546 -0.918442 0
M  V30 5657 H 531.79 1.68426 -1.29407 0
M  V30 5658 H 534.053 0.78819 -0.526745 0
M  V30 5659 H 533.759 3.21115 -1.43451 0
M  V30 5660 H 533.633 3.76524 0.225692 0
M  V30 5661 H 536.02 2.87538 0.663763 0
M  V30 5662 H 536.101 2.34484 -1.02229 0
M  V30 5663 H 535.745 4.75853 -1.77555 0
M  V30 5664 H 535.675 5.26555 -0.0691444 0
M  V30 5665 H 538.166 3.75176 -0.452883 0
M  V30 5666 H 538.479 7.57221 -1.54388 0
M  V30 5667 H 536.824 6.81128 -1.38164 0
M  V30 5668 H 540.015 4.63641 -0.644536 0
M  V30 5669 H 540.188 6.37861 -1.14181 0
M  V30 5670 N 533.594 0.0601682 1.57485 0
M  V30 5671 C 534.526 -0.94047 2.09016 0
M  V30 5672 C 535.539 -1.26897 1.01985 0
M  V30 5673 O 536.728 -1.22819 1.29529 0
M  V30 5674 C 533.828 -2.25955 2.52582 0
M  V30 5675 C 533.001 -2.11163 3.83052 0
M  V30 5676 C 532.06 -3.26273 4.12835 0
M  V30 5677 O 531.086 -3.01779 4.82616 0
M  V30 5678 N 532.288 -4.51022 3.65458 0
M  V30 5679 H 535.053 -0.500578 2.9549 0
M  V30 5680 H 532.614 -0.125852 1.6141 0
M  V30 5681 H 534.606 -3.01846 2.69575 0
M  V30 5682 H 533.176 -2.61481 1.71308 0
M  V30 5683 H 532.396 -1.19808 3.75552 0
M  V30 5684 H 533.684 -1.98517 4.68475 0
M  V30 5685 H 533.082 -4.73811 3.09062 0
M  V30 5686 H 531.639 -5.23978 3.87673 0
M  V30 5687 N 535.072 -1.5615 -0.213296 0
M  V30 5688 C 536.319 -1.79546 -0.936462 0
M  V30 5689 C 536.647 -0.630337 -1.84003 0
M  V30 5690 O 535.902 0.384883 -1.91878 0
M  V30 5691 C 536.201 -3.08772 -1.79985 0
M  V30 5692 C 535.867 -4.38532 -1.04882 0
M  V30 5693 C 534.529 -4.73787 -0.841393 0
M  V30 5694 C 536.881 -5.18609 -0.51907 0
M  V30 5695 C 534.209 -5.86627 -0.0924403 0
M  V30 5696 C 536.561 -6.32229 0.216581 0
M  V30 5697 C 535.225 -6.6608 0.435191 0
M  V30 5698 H 534.495 -0.657004 -0.342676 0
M  V30 5699 H 537.142 -1.9041 -0.204051 0
M  V30 5700 H 535.447 -2.93065 -2.60038 0
M  V30 5701 H 537.144 -3.24077 -2.36168 0
M  V30 5702 H 533.734 -4.10855 -1.22048 0
M  V30 5703 H 537.918 -4.91801 -0.666775 0
M  V30 5704 H 533.174 -6.11338 0.087081 0
M  V30 5705 H 537.348 -6.93503 0.634538 0
M  V30 5706 H 534.975 -7.5336 1.01746 0
M  V30 5707 N 536.55 0.480323 -1.50102 0
M  V30 5708 C 537.482 1.59669 -1.64433 0
M  V30 5709 C 538.495 1.54063 -0.52615 0
M  V30 5710 O 539.684 1.59619 -0.798992 0
M  V30 5711 C 536.784 2.98527 -1.6042 0
M  V30 5712 C 535.957 3.291 -2.88117 0
M  V30 5713 C 535.016 4.47468 -2.76873 0
M  V30 5714 O 534.042 4.4823 -3.50825 0
M  V30 5715 N 535.244 5.48593 -1.89806 0
M  V30 5716 H 538.009 1.47795 -2.60723 0
M  V30 5717 H 535.57 0.66858 -1.4745 0
M  V30 5718 H 537.562 3.75666 -1.50523 0
M  V30 5719 H 536.132 3.04218 -0.719036 0
M  V30 5720 H 535.352 2.40662 -3.12211 0
M  V30 5721 H 536.64 3.46334 -3.72734 0
M  V30 5722 H 536.038 5.50791 -1.2902 0
M  V30 5723 H 534.595 6.24752 -1.85819 0
M  V30 5724 N 538.028 1.39524 0.732853 0
M  V30 5725 C 538.976 1.38563 1.86824 0
M  V30 5726 C 539.97 0.268467 1.67259 0
M  V30 5727 O 541.176 0.438613 1.74574 0
M  V30 5728 H 537.551 0.432737 0.615014 0
M  V30 5729 H 539.522 2.34328 1.84751 0
M  V30 5730 C 538.271 1.2481 3.24527 0
M  V30 5731 H 537.594 2.10044 3.40179 0
M  V30 5732 H 539.034 1.28194 4.04156 0
M  V30 5733 C 537.493 -0.0432825 3.36872 0
M  V30 5734 O 538.023 -1.01268 3.88726 0
M  V30 5735 N 536.229 -0.107055 2.90403 0
M  V30 5736 H 535.776 0.682512 2.48394 0
M  V30 5737 H 535.734 -0.970618 2.99042 0
M  V30 5738 N 539.506 -0.963266 1.24736 0
M  V30 5739 C 540.754 -1.70343 1.08755 0
M  V30 5740 C 541.075 -1.91387 -0.373619 0
M  V30 5741 O 540.345 -1.4948 -1.2662 0
M  V30 5742 H 538.925 -0.631224 0.399456 0
M  V30 5743 H 541.587 -1.15859 1.56725 0
M  V30 5744 H 540.683 -2.68616 1.58909 0
M  V30 5745 N 540.985 -1.06182 -1.16461 0
M  V30 5746 C 541.933 -0.665716 -2.2287 0
M  V30 5747 C 542.927 0.317822 -1.66392 0
M  V30 5748 O 544.133 0.182807 -1.79069 0
M  V30 5749 H 540.508 -0.197148 -0.725697 0
M  V30 5750 H 542.479 -1.57307 -2.53569 0
M  V30 5751 C 541.228 -0.0669803 -3.47635 0
M  V30 5752 H 540.551 -0.814899 -3.91407 0
M  V30 5753 H 541.991 0.172669 -4.23648 0
M  V30 5754 C 540.45 1.18913 -3.15216 0
M  V30 5755 O 540.98 2.27723 -3.30916 0
M  V30 5756 N 539.186 1.09066 -2.69357 0
M  V30 5757 H 538.733 0.20518 -2.56782 0
M  V30 5758 H 538.691 1.93195 -2.48039 0
M  V30 5759 N 542.463 1.3308 -0.844243 0
M  V30 5760 C 543.74 1.92178 -0.364261 0
M  V30 5761 C 544.12 1.76961 1.15101 0
M  V30 5762 O 543.468 1.16128 1.9679 0
M  V30 5763 C 543.678 3.393 -0.817106 0
M  V30 5764 C 545.026 4.16444 -0.828236 0
M  V30 5765 O 546.05 3.47975 -0.761062 0
M  V30 5766 O 544.909 5.38685 -0.920926 0
M  V30 5767 H 542.003 0.820411 -0.10419 0
M  V30 5768 H 544.549 1.41918 -0.930453 0
M  V30 5769 H 543.321 3.44272 -1.85991 0
M  V30 5770 H 542.944 3.96947 -0.227785 0
M  V30 5771 N 543.941 0.601185 1.45683 0
M  V30 5772 C 545.187 0.0940202 2.02582 0
M  V30 5773 C 545.52 -1.26972 1.46941 0
M  V30 5774 O 544.795 -1.83613 0.641612 0
M  V30 5775 C 545.078 0.0481715 3.60068 0
M  V30 5776 C 544.931 1.44212 4.26055 0
M  V30 5777 C 546.25 -0.642975 4.35378 0
M  V30 5778 H 543.369 0.0356404 0.736138 0
M  V30 5779 H 546.011 0.771929 1.73612 0
M  V30 5780 H 544.161 -0.529128 3.8488 0
M  V30 5781 H 545.833 2.06601 4.12449 0
M  V30 5782 H 544.076 2.00465 3.84703 0
M  V30 5783 H 544.747 1.36234 5.34925 0
M  V30 5784 H 547.223 -0.152351 4.15821 0
M  V30 5785 H 546.099 -0.644141 5.45107 0
M  V30 5786 H 546.36 -1.70785 4.0778 0
M  V30 5787 N 545.419 -1.53889 0.339982 0
M  V30 5788 C 546.367 -2.26391 -0.533822 0
M  V30 5789 C 547.361 -1.28404 -1.10493 0
M  V30 5790 O 548.567 -1.46124 -1.05108 0
M  V30 5791 H 544.942 -0.727385 -0.190828 0
M  V30 5792 H 546.913 -2.98233 0.0997484 0
M  V30 5793 C 545.662 -3.04707 -1.67479 0
M  V30 5794 H 544.985 -3.79934 -1.2446 0
M  V30 5795 H 546.425 -3.58657 -2.26144 0
M  V30 5796 C 544.884 -2.13989 -2.60212 0
M  V30 5797 O 545.414 -1.73361 -3.62366 0
M  V30 5798 N 543.62 -1.79141 -2.28816 0
M  V30 5799 H 543.167 -2.12378 -1.45785 0
M  V30 5800 H 543.125 -1.18725 -2.91121 0
M  V30 5801 N 546.897 -0.0685191 -1.57451 0
M  V30 5802 C 548.174 0.642167 -1.84758 0
M  V30 5803 C 548.554 1.87991 -0.960344 0
M  V30 5804 O 547.902 2.28485 -0.0257894 0
M  V30 5805 C 548.112 0.982946 -3.34872 0
M  V30 5806 C 549.46 1.35784 -4.02303 0
M  V30 5807 O 550.484 1.07477 -3.39598 0
M  V30 5808 O 549.343 1.88681 -5.12895 0
M  V30 5809 H 546.437 0.318625 -0.763156 0
M  V30 5810 H 548.983 -0.0992015 -1.6941 0
M  V30 5811 H 547.755 0.10372 -3.91163 0
M  V30 5812 H 547.378 1.78119 -3.55471 0
M  V30 5813 N 548.375 1.56261 0.205012 0
M  V30 5814 C 549.621 1.81211 0.923805 0
M  V30 5815 C 549.976 0.644065 1.813 0
M  V30 5816 O 549.269 -0.361208 1.88164 0
M  V30 5817 C 549.463 3.09722 1.78345 0
M  V30 5818 C 549.292 4.38915 0.978979 0
M  V30 5819 C 548.062 5.00874 0.667332 0
M  V30 5820 C 550.26 5.13199 0.336386 0
M  V30 5821 N 548.242 6.137 -0.156814 0
M  V30 5822 C 549.613 6.19009 -0.350402 0
M  V30 5823 C 551.668 4.97266 0.251101 0
M  V30 5824 C 550.371 7.10616 -1.11434 0
M  V30 5825 C 552.397 5.89288 -0.499413 0
M  V30 5826 C 551.759 6.94536 -1.17468 0
M  V30 5827 H 547.858 0.714528 0.317764 0
M  V30 5828 H 550.442 1.93738 0.193317 0
M  V30 5829 H 548.613 2.98448 2.48563 0
M  V30 5830 H 550.345 3.22798 2.44098 0
M  V30 5831 H 547.1 4.63151 0.989366 0
M  V30 5832 H 547.524 6.74695 -0.558206 0
M  V30 5833 H 552.166 4.15935 0.758823 0
M  V30 5834 H 549.884 7.91417 -1.63353 0
M  V30 5835 H 553.47 5.79034 -0.566627 0
M  V30 5836 H 552.35 7.64513 -1.74613 0
M  V30 5837 N 549.853 -0.472356 1.50355 0
M  V30 5838 C 551.099 -1.22634 1.6152 0
M  V30 5839 C 551.432 -1.91645 0.313995 0
M  V30 5840 O 550.707 -1.82059 -0.684446 0
M  V30 5841 C 550.99 -2.27099 2.7946 0
M  V30 5842 C 550.843 -1.62402 4.19459 0
M  V30 5843 C 552.162 -3.28421 2.92964 0
M  V30 5844 H 549.281 -0.444494 0.587873 0
M  V30 5845 H 551.923 -0.520321 1.82737 0
M  V30 5846 H 550.073 -2.87314 2.61501 0
M  V30 5847 H 551.745 -1.05793 4.49005 0
M  V30 5848 H 549.988 -0.927184 4.23776 0
M  V30 5849 H 550.659 -2.38309 4.97909 0
M  V30 5850 H 553.135 -2.78227 3.09401 0
M  V30 5851 H 552.011 -3.98845 3.77113 0
M  V30 5852 H 552.272 -3.92467 2.03525 0
M  V30 5853 N 551.331 -1.39911 -0.725443 0
M  V30 5854 C 552.579 -1.37382 -1.48224 0
M  V30 5855 C 552.9 0.0264107 -1.94982 0
M  V30 5856 O 552.17 0.979408 -1.6966 0
M  V30 5857 H 550.75 -0.505596 -0.549892 0
M  V30 5858 H 553.412 -1.7487 -0.860608 0
M  V30 5859 H 552.508 -2.04254 -2.3598 0
M  V30 5860 N 552.809 0.956637 -1.25245 0
M  V30 5861 C 554.22 1.51569 -1.09012 0
M  V30 5862 C 554.571 1.93322 0.334813 0
M  V30 5863 O 553.696 1.78421 1.22454 0
M  V30 5864 C 554.291 2.75444 -1.97271 0
M  V30 5865 C 552.85 3.27669 -1.8523 0
M  V30 5866 C 551.997 2.00517 -1.91542 0
M  V30 5867 H 554.948 0.773746 -1.3856 0
M  V30 5868 H 554.969 3.4919 -1.51151 0
M  V30 5869 H 554.481 2.45024 -3.00973 0
M  V30 5870 H 552.582 3.62914 -0.844045 0
M  V30 5871 H 552.695 3.9582 -2.69932 0
M  V30 5872 H 551.059 2.15727 -1.35404 0
M  V30 5873 H 551.842 1.72448 -2.96844 0
M  V30 5874 N 554.287 1.06798 1.15896 0
M  V30 5875 C 555.698 0.811355 1.68149 0
M  V30 5876 C 556.049 -0.664339 1.8461 0
M  V30 5877 O 555.174 -1.51485 1.54535 0
M  V30 5878 C 555.769 1.46624 3.05429 0
M  V30 5879 C 554.328 1.25726 3.54781 0
M  V30 5880 C 553.475 1.53949 2.3064 0
M  V30 5881 H 556.426 1.23078 1.00187 0
M  V30 5882 H 556.447 0.88437 3.7008 0
M  V30 5883 H 555.959 2.54025 2.93416 0
M  V30 5884 H 554.06 0.20322 3.72045 0
M  V30 5885 H 554.173 1.97354 4.36564 0
M  V30 5886 H 552.537 0.96025 2.35905 0
M  V30 5887 H 553.32 2.6252 2.2122 0
M  V30 5888 N 555.766 -1.3263 0.851289 0
M  V30 5889 C 556.714 -2.30882 0.282202 0
M  V30 5890 C 557.708 -1.58697 -0.592589 0
M  V30 5891 O 558.914 -1.73461 -0.480768 0
M  V30 5892 H 555.289 -0.748492 0.0725487 0
M  V30 5893 H 557.26 -2.76374 1.12516 0
M  V30 5894 C 556.009 -3.43828 -0.517449 0
M  V30 5895 H 555.332 -3.99532 0.146392 0
M  V30 5896 H 556.772 -4.1474 -0.88128 0
M  V30 5897 C 555.231 -2.90786 -1.70133 0
M  V30 5898 O 555.761 -2.88 -2.80034 0
M  V30 5899 N 553.967 -2.4723 -1.52728 0
M  V30 5900 H 553.514 -2.49695 -0.633257 0
M  V30 5901 H 553.472 -2.12094 -2.32085 0
M  V30 5902 N 557.244 -0.608902 -1.45362 0
M  V30 5903 C 558.192 0.121639 -2.32282 0
M  V30 5904 C 559.186 0.858301 -1.46046 0
M  V30 5905 O 560.392 0.773718 -1.62523 0
M  V30 5906 H 556.767 0.058086 -0.749753 0
M  V30 5907 H 558.738 -0.629866 -2.91677 0
M  V30 5908 C 557.487 1.1047 -3.29684 0
M  V30 5909 H 556.81 0.547278 -3.96036 0
M  V30 5910 H 558.25 1.58576 -3.9323 0
M  V30 5911 C 556.709 2.17891 -2.56954 0
M  V30 5912 O 557.239 3.25652 -2.35189 0
M  V30 5913 N 555.445 1.93211 -2.17066 0
M  V30 5914 H 554.992 1.05584 -2.34967 0
M  V30 5915 H 554.95 2.6529 -1.68727 0
M  V30 5916 N 558.722 1.53707 -0.348139 0
M  V30 5917 C 559.67 2.26671 0.521808 0
M  V30 5918 C 560.664 1.28988 1.09811 0
M  V30 5919 O 561.87 1.4668 1.04332 0
M  V30 5920 H 558.245 0.728387 0.186968 0
M  V30 5921 H 560.216 2.98176 -0.115563 0
M  V30 5922 C 558.965 3.05591 1.6586 0
M  V30 5923 H 558.288 3.80589 1.22443 0
M  V30 5924 H 559.728 3.59851 2.24239 0
M  V30 5925 C 558.187 2.15366 2.59073 0
M  V30 5926 O 558.717 1.7528 3.61441 0
M  V30 5927 N 556.923 1.80352 2.27863 0
M  V30 5928 H 556.47 2.13149 1.44656 0
M  V30 5929 H 556.428 1.20268 2.90488 0
M  V30 5930 N 560.2 0.0768682 1.57412 0
M  V30 5931 C 561.448 -0.589918 1.93299 0
M  V30 5932 C 561.769 -1.69842 0.958049 0
M  V30 5933 O 561.039 -1.95899 0.00703261 0
M  V30 5934 H 559.619 -0.220901 0.713591 0
M  V30 5935 H 562.281 0.135917 1.94425 0
M  V30 5936 H 561.377 -1.01195 2.95239 0
M  V30 5937 N 561.678 -1.56367 -0.196722 0
M  V30 5938 C 562.924 -1.80796 -0.918725 0
M  V30 5939 C 563.257 -0.650645 -1.82976 0
M  V30 5940 O 562.532 0.348889 -1.91345 0
M  V30 5941 C 562.815 -3.15472 -1.73636 0
M  V30 5942 C 562.668 -4.41693 -0.85015 0
M  V30 5943 C 563.987 -3.46824 -2.70927 0
M  V30 5944 H 561.106 -0.657702 -0.332561 0
M  V30 5945 H 563.748 -1.89086 -0.186186 0
M  V30 5946 H 561.898 -3.08536 -2.36088 0
M  V30 5947 H 563.57 -4.60673 -0.240459 0
M  V30 5948 H 561.813 -4.33517 -0.156785 0
M  V30 5949 H 562.484 -5.32419 -1.45719 0
M  V30 5950 H 564.96 -3.54049 -2.18607 0
M  V30 5951 H 563.836 -4.4218 -3.25219 0
M  V30 5952 H 564.097 -2.70236 -3.49893 0
M  V30 5953 N 563.156 0.464375 -1.50603 0
M  V30 5954 C 564.405 1.21277 -1.61167 0
M  V30 5955 C 564.718 1.92953 -0.320704 0
M  V30 5956 O 565.924 2.69778 -0.30534 0
M  V30 5957 C 564.38 2.20403 -2.84518 0
M  V30 5958 C 563.988 1.54499 -4.20516 0
M  V30 5959 C 565.732 2.95843 -3.0443 0
M  V30 5960 C 563.639 2.51951 -5.35047 0
M  V30 5961 H 562.569 0.456367 -0.600204 0
M  V30 5962 H 565.22 0.48254 -1.77042 0
M  V30 5963 H 563.602 2.96746 -2.62217 0
M  V30 5964 H 564.776 0.83899 -4.53098 0
M  V30 5965 H 563.091 0.913152 -4.06264 0
M  V30 5966 H 565.688 3.6879 -3.87167 0
M  V30 5967 H 566.031 3.55622 -2.16423 0
M  V30 5968 H 566.564 2.26611 -3.26944 0
M  V30 5969 H 563.303 1.96901 -6.25228 0
M  V30 5970 H 562.823 3.20683 -5.06875 0
M  V30 5971 H 564.502 3.13643 -5.65895 0
M  V30 5972 N 564.634 1.40294 0.718013 0
M  V30 5973 C 565.581 1.40367 1.8321 0
M  V30 5974 C 566.551 0.260952 1.64037 0
M  V30 5975 O 567.736 0.458648 1.85205 0
M  V30 5976 C 564.876 1.26965 3.20895 0
M  V30 5977 C 563.989 2.50922 3.51656 0
M  V30 5978 C 563.124 2.29981 4.78834 0
M  V30 5979 C 562.163 3.49527 5.02491 0
M  V30 5980 N 561.3 3.27796 6.20882 0
M  V30 5981 H 566.14 2.35593 1.82482 0
M  V30 5982 H 563.677 1.17012 0.891444 0
M  V30 5983 H 565.635 1.17202 4.00399 0
M  V30 5984 H 564.265 0.353591 3.20858 0
M  V30 5985 H 563.317 2.71223 2.66725 0
M  V30 5986 H 564.629 3.39913 3.65048 0
M  V30 5987 H 563.783 2.17558 5.66351 0
M  V30 5988 H 562.522 1.38411 4.67647 0
M  V30 5989 H 561.527 3.6243 4.1343 0
M  V30 5990 H 562.752 4.42021 5.15553 0
M  V30 5991 H 560.698 2.38906 6.1095 0
M  V30 5992 H 560.615 4.10351 6.34939 0
M  V30 5993 H 561.883 3.19101 7.11193 0
M  V30 5994 N 566.112 -0.949982 1.2575 0
M  V30 5995 C 567.022 -2.08109 1.08295 0
M  V30 5996 C 568.038 -1.7399 0.0188181 0
M  V30 5997 O 569.214 -2.00187 0.220724 0
M  V30 5998 C 566.279 -3.39383 0.708534 0
M  V30 5999 C 565.34 -3.8734 1.85111 0
M  V30 6000 C 564.573 -5.12349 1.49447 0
M  V30 6001 O 564.796 -5.6905 0.392212 0
M  V30 6002 O 563.73 -5.5513 2.32624 0
M  V30 6003 H 567.556 -2.25738 2.03165 0
M  V30 6004 H 565.141 -1.06545 1.04731 0
M  V30 6005 H 567.023 -4.18277 0.512061 0
M  V30 6006 H 565.698 -3.23013 -0.210854 0
M  V30 6007 H 564.605 -3.09429 2.10248 0
M  V30 6008 H 565.938 -4.08216 2.74991 0
M  V30 6009 N 567.59 -1.07411 -1.15328 0
M  V30 6010 C 568.836 -0.798831 -1.86404 0
M  V30 6011 C 569.169 0.673433 -1.8215 0
M  V30 6012 O 568.444 1.49428 -1.24505 0
M  V30 6013 C 568.727 -1.30846 -3.35487 0
M  V30 6014 C 568.58 -2.84532 -3.4837 0
M  V30 6015 C 569.899 -0.925486 -4.30259 0
M  V30 6016 H 567.018 -0.291659 -0.676834 0
M  V30 6017 H 569.66 -1.332 -1.35491 0
M  V30 6018 H 567.81 -0.854916 -3.78977 0
M  V30 6019 H 569.482 -3.3818 -3.13739 0
M  V30 6020 H 567.725 -3.22699 -2.8991 0
M  V30 6021 H 568.396 -3.15259 -4.53118 0
M  V30 6022 H 570.872 -1.3163 -3.94731 0
M  V30 6023 H 569.748 -1.3094 -5.33053 0
M  V30 6024 H 570.009 0.168525 -4.41779 0
M  V30 6025 N 569.068 1.32177 -0.85831 0
M  V30 6026 C 570.296 2.01313 -0.477582 0
M  V30 6027 C 570.711 1.6449 0.926736 0
M  V30 6028 O 570.068 0.868096 1.60531 0
M  V30 6029 C 570.119 3.56293 -0.611337 0
M  V30 6030 O 569.84 3.91794 -1.96034 0
M  V30 6031 C 571.341 4.42702 -0.230093 0
M  V30 6032 H 568.561 0.644323 -0.187322 0
M  V30 6033 H 571.105 1.68674 -1.15626 0
M  V30 6034 H 569.26 3.87395 0.0196494 0
M  V30 6035 H 569.674 4.86513 -1.95973 0
M  V30 6036 H 571.148 5.50727 -0.374674 0
M  V30 6037 H 571.625 4.3129 0.829779 0
M  V30 6038 H 572.231 4.16997 -0.836302 0
M  V30 6039 N 570.547 0.616602 1.45037 0
M  V30 6040 C 571.796 0.112861 2.01384 0
M  V30 6041 C 572.109 -1.26758 1.48969 0
M  V30 6042 O 573.315 -1.86454 1.9735 0
M  V30 6043 C 571.771 0.151057 3.59583 0
M  V30 6044 C 571.379 1.53191 4.20995 0
M  V30 6045 C 573.123 -0.296974 4.2346 0
M  V30 6046 C 571.03 1.526 5.71373 0
M  V30 6047 H 569.96 0.0384254 0.75302 0
M  V30 6048 H 572.611 0.773262 1.66412 0
M  V30 6049 H 570.993 -0.57617 3.91786 0
M  V30 6050 H 572.167 2.28156 4.00352 0
M  V30 6051 H 570.482 1.92279 3.69348 0
M  V30 6052 H 573.079 -0.320712 5.33737 0
M  V30 6053 H 573.422 -1.32145 3.9477 0
M  V30 6054 H 573.955 0.377279 3.96007 0
M  V30 6055 H 570.694 2.52837 6.04776 0
M  V30 6056 H 570.214 0.819064 5.94181 0
M  V30 6057 H 571.893 1.25357 6.3474 0
M  V30 6058 N 572.025 -1.5352 0.356285 0
M  V30 6059 C 572.973 -2.26945 -0.50978 0
M  V30 6060 C 573.967 -1.29569 -1.09125 0
M  V30 6061 O 575.173 -1.47231 -1.03552 0
M  V30 6062 H 571.548 -0.729368 -0.183102 0
M  V30 6063 H 573.519 -2.98111 0.131374 0
M  V30 6064 C 572.268 -3.06466 -1.64237 0
M  V30 6065 H 571.591 -3.81233 -1.20423 0
M  V30 6066 H 573.031 -3.61035 -2.22327 0
M  V30 6067 C 571.49 -2.16737 -2.57928 0
M  V30 6068 O 572.02 -1.77195 -3.60507 0
M  V30 6069 N 570.226 -1.81558 -2.26903 0
M  V30 6070 H 569.773 -2.13913 -1.43524 0
M  V30 6071 H 569.731 -1.21806 -2.89846 0
M  V30 6072 N 573.503 -0.0852151 -1.57369 0
M  V30 6073 C 574.914 0.445428 -1.81309 0
M  V30 6074 C 575.265 1.68795 -1.00013 0
M  V30 6075 O 574.39 2.15211 -0.226573 0
M  V30 6076 C 574.985 0.814887 -3.28854 0
M  V30 6077 C 573.544 1.29032 -3.53592 0
M  V30 6078 C 572.691 0.282089 -2.75861 0
M  V30 6079 H 575.642 -0.310771 -1.55627 0
M  V30 6080 H 575.663 1.67524 -3.41637 0
M  V30 6081 H 575.175 -0.0896309 -3.87996 0
M  V30 6082 H 573.276 2.21289 -2.9977 0
M  V30 6083 H 573.389 1.25898 -4.62262 0
M  V30 6084 H 571.753 0.762182 -2.43029 0
M  V30 6085 H 572.536 -0.614936 -3.37748 0
M  V30 6086 N 574.981 1.5647 0.188427 0
M  V30 6087 C 576.258 1.71857 0.934058 0
M  V30 6088 C 576.638 0.641867 2.01105 0
M  V30 6089 O 575.986 -0.346098 2.25864 0
M  V30 6090 C 576.196 3.14431 1.5144 0
M  V30 6091 C 577.544 3.74869 1.99396 0
M  V30 6092 O 578.568 3.17601 1.61269 0
M  V30 6093 O 577.427 4.75387 2.69573 0
M  V30 6094 H 574.521 0.701186 0.438483 0
M  V30 6095 H 577.067 1.68768 0.177599 0
M  V30 6096 H 575.839 3.8427 0.738416 0
M  V30 6097 H 575.462 3.21775 2.33552 0
M  V30 6098 N 576.459 -0.456382 1.50847 0
M  V30 6099 C 577.687 -1.23026 1.66349 0
M  V30 6100 C 578.102 -1.85473 0.352868 0
M  V30 6101 O 577.459 -1.69885 -0.666739 0
M  V30 6102 C 577.51 -2.32827 2.76539 0
M  V30 6103 O 577.231 -1.72938 4.02522 0
M  V30 6104 C 578.732 -3.23448 3.03144 0
M  V30 6105 H 575.952 -0.371527 0.558756 0
M  V30 6106 H 578.496 -0.543082 1.97157 0
M  V30 6107 H 576.651 -2.97294 2.48384 0
M  V30 6108 H 577.065 -2.45357 4.63573 0
M  V30 6109 H 578.539 -3.96669 3.83872 0
M  V30 6110 H 579.016 -3.83094 2.14793 0
M  V30 6111 H 579.622 -2.64702 3.32886 0
M  V30 6112 N 577.937 -1.40673 -0.710563 0
M  V30 6113 C 579.165 -1.42547 -1.4996 0
M  V30 6114 C 579.58 -0.0265485 -1.88781 0
M  V30 6115 O 578.937 0.950694 -1.55782 0
M  V30 6116 C 578.988 -2.32071 -2.77173 0
M  V30 6117 O 578.709 -3.66518 -2.39992 0
M  V30 6118 C 580.21 -2.42591 -3.71032 0
M  V30 6119 H 577.43 -0.486025 -0.462623 0
M  V30 6120 H 579.974 -1.84783 -0.876102 0
M  V30 6121 H 578.129 -1.93184 -3.35795 0
M  V30 6122 H 578.543 -4.14115 -3.21884 0
M  V30 6123 H 580.017 -3.09429 -4.57119 0
M  V30 6124 H 580.494 -1.4525 -4.14486 0
M  V30 6125 H 581.1 -2.82051 -3.18319 0
M  V30 6126 N 579.415 0.9433 -1.26252 0
M  V30 6127 C 580.655 1.70397 -1.1289 0
M  V30 6128 C 581.019 1.89268 0.322713 0
M  V30 6129 O 582.22 2.62503 0.578418 0
M  V30 6130 C 580.491 3.04296 -1.87453 0
M  V30 6131 S 582.05 3.95475 -1.90119 0
M  V30 6132 H 578.868 0.585559 -0.403289 0
M  V30 6133 H 581.47 1.12424 -1.59941 0
M  V30 6134 H 580.174 2.8824 -2.9214 0
M  V30 6135 H 579.705 3.67327 -1.40835 0
M  V30 6136 H 581.72 4.86297 -0.986373 0
M  V30 6137 N 580.893 1.08022 1.14757 0
M  V30 6138 C 582.141 0.805913 1.85336 0
M  V30 6139 C 582.462 -0.670162 1.83122 0
M  V30 6140 O 581.732 -1.48567 1.2769 0
M  V30 6141 H 580.312 0.295138 0.686223 0
M  V30 6142 H 582.974 1.36538 1.3908 0
M  V30 6143 H 582.07 1.14655 2.90277 0
M  V30 6144 N 582.371 -1.3172 0.865308 0
M  V30 6145 C 583.319 -2.30569 0.306674 0
M  V30 6146 C 584.313 -1.59317 -0.575724 0
M  V30 6147 O 585.519 -1.73961 -0.462343 0
M  V30 6148 H 581.894 -0.747681 0.0804834 0
M  V30 6149 H 583.865 -2.75165 1.15441 0
M  V30 6150 C 582.614 -3.44358 -0.480952 0
M  V30 6151 H 581.937 -3.99354 0.18876 0
M  V30 6152 H 583.377 -4.15652 -0.837241 0
M  V30 6153 C 581.836 -2.92574 -1.67039 0
M  V30 6154 O 582.366 -2.90954 -2.76964 0
M  V30 6155 N 580.572 -2.48835 -1.50097 0
M  V30 6156 H 580.119 -2.50353 -0.606738 0
M  V30 6157 H 580.077 -2.14543 -2.29823 0
M  V30 6158 N 583.85 -0.624285 -1.44708 0
M  V30 6159 C 585.127 -0.0572781 -1.95516 0
M  V30 6160 C 585.507 1.41516 -1.56641 0
M  V30 6161 O 584.855 2.12614 -0.837111 0
M  V30 6162 C 585.065 -0.272944 -3.47931 0
M  V30 6163 C 586.413 -0.162529 -4.24289 0
M  V30 6164 O 587.437 -0.203946 -3.55616 0
M  V30 6165 O 586.296 -0.0616847 -5.46465 0
M  V30 6166 H 583.389 0.0262219 -0.826584 0
M  V30 6167 H 585.936 -0.695512 -1.54793 0
M  V30 6168 H 584.707 -1.29492 -3.69253 0
M  V30 6169 H 584.331 0.399756 -3.95585 0
M  V30 6170 N 585.328 1.53329 -0.364422 0
M  V30 6171 C 586.574 2.02222 0.21855 0
M  V30 6172 C 586.929 1.24702 1.46517 0
M  V30 6173 O 586.222 0.331969 1.88702 0
M  V30 6174 C 586.416 3.52911 0.564661 0
M  V30 6175 C 586.245 4.45023 -0.646862 0
M  V30 6176 C 585.015 4.91838 -1.15858 0
M  V30 6177 C 587.213 4.91581 -1.51172 0
M  V30 6178 N 585.195 5.67955 -2.33025 0
M  V30 6179 C 586.566 5.66028 -2.53006 0
M  V30 6180 C 588.621 4.73656 -1.53473 0
M  V30 6181 C 587.324 6.24457 -3.56996 0
M  V30 6182 C 589.35 5.3295 -2.56356 0
M  V30 6183 C 588.712 6.07282 -3.56914 0
M  V30 6184 H 584.811 0.780832 0.0427199 0
M  V30 6185 H 587.395 1.87937 -0.508704 0
M  V30 6186 H 585.566 3.6736 1.26099 0
M  V30 6187 H 587.298 3.88528 1.13262 0
M  V30 6188 H 584.053 4.68043 -0.723393 0
M  V30 6189 H 584.477 6.10675 -2.92241 0
M  V30 6190 H 589.119 4.15714 -0.770842 0
M  V30 6191 H 586.837 6.81496 -4.34268 0
M  V30 6192 H 590.423 5.20976 -2.58989 0
M  V30 6193 H 589.303 6.52345 -4.35218 0
M  V30 6194 N 586.806 0.0935595 1.57322 0
M  V30 6195 C 588.052 -0.571355 1.94585 0
M  V30 6196 C 588.385 -1.67929 0.975366 0
M  V30 6197 O 587.66 -1.94498 0.00816206 0
M  V30 6198 C 587.943 -1.12797 3.41978 0
M  V30 6199 C 587.796 -0.0251881 4.49793 0
M  V30 6200 C 589.115 -2.02682 3.90651 0
M  V30 6201 H 586.234 -0.206223 0.70756 0
M  V30 6202 H 588.876 0.163956 1.89291 0
M  V30 6203 H 587.026 -1.75461 3.4662 0
M  V30 6204 H 588.698 0.608979 4.57263 0
M  V30 6205 H 586.941 0.641399 4.29032 0
M  V30 6206 H 587.612 -0.455433 5.50118 0
M  V30 6207 H 590.088 -1.49925 3.88152 0
M  V30 6208 H 588.964 -2.38555 4.94351 0
M  V30 6209 H 589.225 -2.94362 3.29854 0
M  V30 6210 N 588.284 -1.56567 -0.180126 0
M  V30 6211 C 589.524 -1.83285 -0.904761 0
M  V30 6212 C 589.888 -0.673226 -1.7981 0
M  V30 6213 O 591.089 -0.820645 -2.55967 0
M  V30 6214 C 589.36 -3.15086 -1.68688 0
M  V30 6215 S 590.919 -3.63258 -2.46149 0
M  V30 6216 H 587.737 -0.643114 -0.303193 0
M  V30 6217 H 590.339 -1.94785 -0.167034 0
M  V30 6218 H 589.043 -3.97484 -1.02148 0
M  V30 6219 H 588.574 -3.06504 -2.46615 0
M  V30 6220 H 590.589 -3.29884 -3.70663 0
M  V30 6221 N 589.762 0.448376 -1.51087 0
M  V30 6222 C 590.672 1.56882 -1.74428 0
M  V30 6223 C 591.688 1.62268 -0.62809 0
M  V30 6224 O 592.864 1.79716 -0.909075 0
M  V30 6225 C 589.929 2.92947 -1.85426 0
M  V30 6226 C 588.99 2.97766 -3.09247 0
M  V30 6227 C 588.223 4.27341 -3.19711 0
M  V30 6228 O 588.446 5.19112 -2.36387 0
M  V30 6229 O 587.38 4.38219 -4.12611 0
M  V30 6230 H 591.206 1.40104 -2.69452 0
M  V30 6231 H 588.791 0.630247 -1.35456 0
M  V30 6232 H 590.673 3.73719 -1.94709 0
M  V30 6233 H 589.348 3.09876 -0.935887 0
M  V30 6234 H 588.255 2.15989 -3.0545 0
M  V30 6235 H 589.588 2.8578 -4.00738 0
M  V30 6236 N 591.24 1.41047 0.703093 0
M  V30 6237 C 592.19 1.38774 1.80903 0
M  V30 6238 C 593.174 0.263275 1.58731 0
M  V30 6239 O 594.366 0.503362 1.69692 0
M  V30 6240 C 591.495 1.26497 3.19145 0
M  V30 6241 C 590.581 2.43775 3.47037 0
M  V30 6242 N 590.972 3.69249 3.45672 0
M  V30 6243 C 589.27 2.37425 3.77552 0
M  V30 6244 C 589.971 4.46989 3.72258 0
M  V30 6245 N 588.947 3.76998 3.91629 0
M  V30 6246 H 592.749 2.33714 1.78199 0
M  V30 6247 H 590.263 1.34996 0.902762 0
M  V30 6248 H 592.26 1.2295 3.98358 0
M  V30 6249 H 590.92 0.32534 3.23066 0
M  V30 6250 H 591.931 4.02239 3.26228 0
M  V30 6251 H 588.608 1.51895 3.88888 0
M  V30 6252 H 589.998 5.55894 3.77402 0
M  V30 6253 N 592.718 -0.936591 1.26751 0
M  V30 6254 C 594.134 -1.21095 1.03963 0
M  V30 6255 C 594.334 -2.00156 -0.232372 0
M  V30 6256 O 593.39 -2.3434 -0.940274 0
M  V30 6257 C 594.703 -1.96775 2.27377 0
M  V30 6258 C 596.251 -2.09749 2.32324 0
M  V30 6259 C 596.726 -2.88832 3.55443 0
M  V30 6260 N 598.217 -2.96404 3.55948 0
M  V30 6261 C 598.952 -3.58036 4.47881 0
M  V30 6262 N 598.448 -4.21132 5.50109 0
M  V30 6263 N 600.241 -3.55353 4.35523 0
M  V30 6264 H 592.392 -0.408173 2.08441 0
M  V30 6265 H 594.655 -0.243139 0.91629 0
M  V30 6266 H 594.361 -1.46094 3.19921 0
M  V30 6267 H 594.235 -2.97424 2.31989 0
M  V30 6268 H 596.622 -2.5962 1.40291 0
M  V30 6269 H 596.703 -1.08347 2.31721 0
M  V30 6270 H 596.347 -2.39647 4.47808 0
M  V30 6271 H 596.277 -3.90499 3.53296 0
M  V30 6272 H 598.768 -2.51552 2.82011 0
M  V30 6273 H 599.081 -4.66071 6.16439 0
M  V30 6274 H 597.426 -4.19705 5.53961 0
M  V30 6275 H 600.617 -3.05256 3.54875 0
M  V30 6276 H 600.79 -4.03097 5.07363 0
M  V30 6277 N 594.196 -1.08629 -1.14182 0
M  V30 6278 C 595.442 -0.828415 -1.85766 0
M  V30 6279 C 595.797 0.638947 -1.81481 0
M  V30 6280 O 595.09 1.46386 -1.23619 0
M  V30 6281 C 595.284 -1.28734 -3.3341 0
M  V30 6282 C 595.113 -2.79778 -3.52071 0
M  V30 6283 C 593.883 -3.47554 -3.66789 0
M  V30 6284 C 596.081 -3.77945 -3.48801 0
M  V30 6285 N 594.063 -4.87107 -3.73631 0
M  V30 6286 C 595.434 -5.03406 -3.61914 0
M  V30 6287 C 597.489 -3.70917 -3.32152 0
M  V30 6288 C 596.192 -6.22673 -3.60098 0
M  V30 6289 C 598.218 -4.89662 -3.31641 0
M  V30 6290 C 597.58 -6.13962 -3.45296 0
M  V30 6291 H 593.679 -0.355884 -0.696327 0
M  V30 6292 H 596.263 -1.38508 -1.36834 0
M  V30 6293 H 594.434 -0.75822 -3.80927 0
M  V30 6294 H 596.166 -0.975649 -3.92764 0
M  V30 6295 H 592.921 -2.97972 -3.68116 0
M  V30 6296 H 593.345 -5.59775 -3.80763 0
M  V30 6297 H 597.987 -2.75749 -3.20504 0
M  V30 6298 H 595.705 -7.1815 -3.70522 0
M  V30 6299 H 599.291 -4.85914 -3.19968 0
M  V30 6300 H 598.171 -7.04307 -3.44851 0
M  V30 6301 N 595.674 1.31259 -0.872281 0
M  V30 6302 C 597.09 1.49283 -0.564521 0
M  V30 6303 C 597.29 1.80243 0.900807 0
M  V30 6304 O 596.346 1.88246 1.68284 0
M  V30 6305 C 597.659 2.62503 -1.46673 0
M  V30 6306 C 599.207 2.76386 -1.46901 0
M  V30 6307 C 599.682 3.92705 -2.35684 0
M  V30 6308 N 601.173 3.99995 -2.33577 0
M  V30 6309 C 601.908 4.89276 -2.98992 0
M  V30 6310 N 601.404 5.83443 -3.73585 0
M  V30 6311 N 603.197 4.82541 -2.88289 0
M  V30 6312 H 595.348 1.09432 -1.82039 0
M  V30 6313 H 597.611 0.540949 -0.77851 0
M  V30 6314 H 597.317 2.46407 -2.50951 0
M  V30 6315 H 597.191 3.58695 -1.16696 0
M  V30 6316 H 599.578 2.91894 -0.433796 0
M  V30 6317 H 599.659 1.80853 -1.80903 0
M  V30 6318 H 599.303 3.77954 -3.39283 0
M  V30 6319 H 599.233 4.87549 -1.99006 0
M  V30 6320 H 601.724 3.32624 -1.7936 0
M  V30 6321 H 602.037 6.48303 -4.20622 0
M  V30 6322 H 600.382 5.83415 -3.77694 0
M  V30 6323 H 603.573 4.07951 -2.2955 0
M  V30 6324 H 603.746 5.51916 -3.39549 0
M  V30 6325 N 597.152 0.631951 1.44375 0
M  V30 6326 C 598.084 -0.110911 2.28931 0
M  V30 6327 C 599.097 -0.808086 1.41329 0
M  V30 6328 O 600.286 -0.669396 1.65473 0
M  V30 6329 C 597.386 -1.17928 3.1772 0
M  V30 6330 C 596.559 -0.564458 4.33743 0
M  V30 6331 C 595.618 -1.5269 5.0356 0
M  V30 6332 O 594.644 -1.04372 5.59549 0
M  V30 6333 N 595.846 -2.86123 5.05088 0
M  V30 6334 H 598.611 0.614758 2.93327 0
M  V30 6335 H 596.172 0.473171 1.54831 0
M  V30 6336 H 598.164 -1.82348 3.61291 0
M  V30 6337 H 596.734 -1.80717 2.55069 0
M  V30 6338 H 595.954 0.258373 3.93352 0
M  V30 6339 H 597.242 -0.134355 5.08623 0
M  V30 6340 H 596.64 -3.27959 4.60933 0
M  V30 6341 H 595.197 -3.45901 5.52445 0
M  V30 6342 N 598.631 -1.53133 0.372548 0
M  V30 6343 C 599.88 -2.00539 -0.216115 0
M  V30 6344 C 600.193 -1.26374 -1.49295 0
M  V30 6345 O 601.399 -1.64404 -2.16064 0
M  V30 6346 C 599.855 -3.57253 -0.435678 0
M  V30 6347 C 599.463 -4.40302 0.82693 0
M  V30 6348 C 601.207 -4.12995 -0.981618 0
M  V30 6349 C 599.114 -5.88583 0.576567 0
M  V30 6350 H 598.044 -0.749246 -0.084536 0
M  V30 6351 H 600.695 -1.76771 0.492364 0
M  V30 6352 H 599.077 -3.77202 -1.20559 0
M  V30 6353 H 600.251 -4.32124 1.60017 0
M  V30 6354 H 598.566 -3.95699 1.29659 0
M  V30 6355 H 601.163 -5.21418 -1.18436 0
M  V30 6356 H 601.506 -3.68027 -1.94581 0
M  V30 6357 H 602.039 -3.96871 -0.271696 0
M  V30 6358 H 598.778 -6.37841 1.51128 0
M  V30 6359 H 598.298 -5.99592 -0.158047 0
M  V30 6360 H 599.977 -6.46676 0.204722 0
M  V30 6361 N 600.109 -0.101901 -1.5727 0
M  V30 6362 C 601.525 0.254739 -1.57554 0
M  V30 6363 C 601.725 1.67937 -1.11352 0
M  V30 6364 O 600.781 2.39722 -0.793081 0
M  V30 6365 C 602.094 0.036975 -3.00677 0
M  V30 6366 C 603.642 0.104199 -3.12827 0
M  V30 6367 C 604.117 -0.0856565 -4.5792 0
M  V30 6368 N 605.608 -0.0310498 -4.6319 0
M  V30 6369 C 606.343 -0.153099 -5.73196 0
M  V30 6370 N 605.839 -0.330364 -6.92012 0
M  V30 6371 N 607.632 -0.0938854 -5.62022 0
M  V30 6372 H 599.783 -1.03263 -1.85609 0
M  V30 6373 H 602.046 -0.405251 -0.857016 0
M  V30 6374 H 601.752 -0.947254 -3.38703 0
M  V30 6375 H 601.626 0.776335 -3.69124 0
M  V30 6376 H 604.013 1.07894 -2.74669 0
M  V30 6377 H 604.094 -0.666762 -2.46957 0
M  V30 6378 H 603.738 -1.05729 -4.96773 0
M  V30 6379 H 603.668 0.705082 -5.21858 0
M  V30 6380 H 606.159 0.103141 -3.77759 0
M  V30 6381 H 606.472 -0.41482 -7.71686 0
M  V30 6382 H 604.817 -0.366119 -6.94035 0
M  V30 6383 H 608.008 0.0435168 -4.6808 0
M  V30 6384 H 608.181 -0.19245 -6.47714 0
M  V30 6385 N 601.587 1.56661 0.17182 0
M  V30 6386 C 602.535 1.97289 1.23207 0
M  V30 6387 C 603.529 0.861566 1.45854 0
M  V30 6388 O 604.735 1.04668 1.4644 0
M  V30 6389 H 601.11 0.627681 0.41415 0
M  V30 6390 H 603.081 2.85662 0.862542 0
M  V30 6391 C 601.83 2.34849 2.564 0
M  V30 6392 H 601.153 3.19903 2.39797 0
M  V30 6393 H 602.593 2.67121 3.29276 0
M  V30 6394 C 601.052 1.19172 3.15119 0
M  V30 6395 O 601.582 0.479113 3.98833 0
M  V30 6396 N 599.788 0.962415 2.74201 0
M  V30 6397 H 599.335 1.54365 2.06226 0
M  V30 6398 H 599.293 0.190272 3.13824 0
M  V30 6399 N 603.065 -0.440357 1.51323 0
M  V30 6400 C 603.998 -1.55414 1.67098 0
M  V30 6401 C 604.976 -1.54108 0.518599 0
M  V30 6402 O 606.16 -1.7328 0.742054 0
M  V30 6403 C 603.287 -2.93996 1.68179 0
M  V30 6404 C 602.333 -3.13338 2.89347 0
M  V30 6405 S 603.166 -2.89957 4.50206 0
M  V30 6406 C 604.322 -4.30826 4.54027 0
M  V30 6407 H 604.555 -1.41798 2.61306 0
M  V30 6408 H 602.088 -0.629841 1.40969 0
M  V30 6409 H 604.046 -3.73878 1.69487 0
M  V30 6410 H 602.707 -3.04976 0.751542 0
M  V30 6411 H 601.9 -4.14652 2.86495 0
M  V30 6412 H 601.502 -2.41276 2.85766 0
M  V30 6413 H 603.794 -5.23977 4.29481 0
M  V30 6414 H 604.737 -4.38712 5.55822 0
M  V30 6415 H 605.145 -4.1434 3.83384 0
M  V30 6416 N 604.543 -1.41418 -0.695603 0
M  V30 6417 C 605.789 -1.40982 -1.4578 0
M  V30 6418 C 606.122 -0.0187763 -1.94191 0
M  V30 6419 O 605.397 0.95346 -1.69527 0
M  V30 6420 C 605.68 -2.41657 -2.66972 0
M  V30 6421 C 605.533 -3.89869 -2.24327 0
M  V30 6422 C 606.852 -2.39589 -3.69168 0
M  V30 6423 H 603.971 -0.513405 -0.528757 0
M  V30 6424 H 606.613 -1.72693 -0.792275 0
M  V30 6425 H 604.763 -2.14746 -3.23754 0
M  V30 6426 H 606.435 -4.27683 -1.72872 0
M  V30 6427 H 604.678 -4.04737 -1.56111 0
M  V30 6428 H 605.349 -4.55857 -3.11285 0
M  V30 6429 H 607.825 -2.63471 -3.2206 0
M  V30 6430 H 606.701 -3.12044 -4.51575 0
M  V30 6431 H 606.962 -1.41447 -4.18862 0
M  V30 6432 N 606.021 0.929856 -1.27246 0
M  V30 6433 C 607.27 1.67182 -1.12842 0
M  V30 6434 C 607.583 1.9287 0.325666 0
M  V30 6435 O 608.789 2.64999 0.590572 0
M  V30 6436 C 607.245 3.01097 -1.97151 0
M  V30 6437 C 606.853 2.83115 -3.47203 0
M  V30 6438 C 608.597 3.78907 -1.91389 0
M  V30 6439 C 606.504 4.12573 -4.23719 0
M  V30 6440 H 605.434 0.627064 -0.418697 0
M  V30 6441 H 608.085 1.0332 -1.51649 0
M  V30 6442 H 606.467 3.66004 -1.51186 0
M  V30 6443 H 607.641 2.26989 -4.01015 0
M  V30 6444 H 605.956 2.18736 -3.54321 0
M  V30 6445 H 608.553 4.74837 -2.45834 0
M  V30 6446 H 608.896 4.0674 -0.887047 0
M  V30 6447 H 609.429 3.20794 -2.35237 0
M  V30 6448 H 606.168 3.8992 -5.26918 0
M  V30 6449 H 605.688 4.68371 -3.74685 0
M  V30 6450 H 607.367 4.8095 -4.32777 0
M  V30 6451 N 607.499 1.09233 1.13605 0
M  V30 6452 C 608.746 0.827159 1.84836 0
M  V30 6453 C 609.074 -0.647199 1.83416 0
M  V30 6454 O 608.329 -1.49228 1.26608 0
M  V30 6455 C 608.628 1.305 3.32723 0
M  V30 6456 C 608.294 2.78864 3.54325 0
M  V30 6457 C 606.956 3.19382 3.59928 0
M  V30 6458 C 609.308 3.74532 3.62457 0
M  V30 6459 C 606.636 4.54346 3.71196 0
M  V30 6460 C 608.988 5.09283 3.75252 0
M  V30 6461 C 607.652 5.49394 3.79108 0
M  V30 6462 H 606.922 0.302679 0.676363 0
M  V30 6463 H 609.569 1.36676 1.34134 0
M  V30 6464 H 607.874 0.68517 3.85762 0
M  V30 6465 H 609.571 1.07648 3.86281 0
M  V30 6466 H 606.161 2.46507 3.50617 0
M  V30 6467 H 610.345 3.44343 3.57409 0
M  V30 6468 H 605.601 4.84864 3.72447 0
M  V30 6469 H 609.775 5.83269 3.80487 0
M  V30 6470 H 607.402 6.5397 3.87591 0
M  V30 6471 N 608.977 -1.30795 0.87923 0
M  V30 6472 C 610.393 -1.48981 0.57243 0
M  V30 6473 C 610.593 -1.80719 -0.891236 0
M  V30 6474 O 609.649 -1.89136 -1.67283 0
M  V30 6475 C 610.962 -2.61721 1.48063 0
M  V30 6476 C 612.51 -2.75603 1.48365 0
M  V30 6477 C 612.985 -3.91449 2.37763 0
M  V30 6478 N 614.476 -3.98751 2.35695 0
M  V30 6479 C 615.211 -4.87684 3.01583 0
M  V30 6480 N 614.707 -5.81454 3.76674 0
M  V30 6481 N 616.5 -4.81005 2.90844 0
M  V30 6482 H 608.651 -1.08465 1.82617 0
M  V30 6483 H 610.914 -0.536813 0.781368 0
M  V30 6484 H 610.62 -2.45073 2.52254 0
M  V30 6485 H 610.494 -3.58071 1.18596 0
M  V30 6486 H 612.881 -2.9166 0.44927 0
M  V30 6487 H 612.962 -1.79891 1.81859 0
M  V30 6488 H 612.606 -3.76149 3.41283 0
M  V30 6489 H 612.536 -4.86487 2.01589 0
M  V30 6490 H 615.027 -3.31668 1.81121 0
M  V30 6491 H 615.34 -6.46063 4.24054 0
M  V30 6492 H 613.685 -5.81403 3.80782 0
M  V30 6493 H 616.876 -4.06728 2.31711 0
M  V30 6494 H 617.049 -5.50107 3.42471 0
M  V30 6495 N 610.455 -0.639598 -1.44038 0
M  V30 6496 C 611.403 0.0723409 -2.32487 0
M  V30 6497 C 612.397 0.827129 -1.47834 0
M  V30 6498 O 613.603 0.73907 -1.64127 0
M  V30 6499 H 609.978 0.0421696 -0.750817 0
M  V30 6500 H 611.949 -0.691593 -2.90275 0
M  V30 6501 C 610.698 1.03452 -3.31953 0
M  V30 6502 H 610.021 0.46315 -3.97108 0
M  V30 6503 H 611.461 1.502 -3.96505 0
M  V30 6504 C 609.92 2.12392 -2.61518 0
M  V30 6505 O 610.45 3.2059 -2.42044 0
M  V30 6506 N 608.656 1.88563 -2.21116 0
M  V30 6507 H 608.203 1.00577 -2.37154 0
M  V30 6508 H 608.161 2.61651 -1.74316 0
M  V30 6509 N 611.933 1.52934 -0.380664 0
M  V30 6510 C 613.179 2.01765 0.20458 0
M  V30 6511 C 613.512 1.26696 1.47179 0
M  V30 6512 O 612.787 0.364936 1.91046 0
M  V30 6513 C 613.07 3.56869 0.481269 0
M  V30 6514 C 612.923 4.42617 -0.800629 0
M  V30 6515 C 614.242 4.2121 1.27554 0
M  V30 6516 H 611.361 0.733388 0.0728803 0
M  V30 6517 H 614.003 1.83068 -0.50853 0
M  V30 6518 H 612.153 3.72932 1.08875 0
M  V30 6519 H 613.825 4.38323 -1.43773 0
M  V30 6520 H 612.068 4.09977 -1.4178 0
M  V30 6521 H 612.739 5.49134 -0.561791 0
M  V30 6522 H 615.215 4.09072 0.761514 0
M  V30 6523 H 614.091 5.29732 1.43788 0
M  V30 6524 H 614.352 3.78269 2.28833 0
M  V30 6525 N 613.412 0.11024 1.57214 0
M  V30 6526 C 614.658 -0.550684 1.9518 0
M  V30 6527 C 614.991 -1.66885 0.993122 0
M  V30 6528 O 614.266 -1.94479 0.0287907 0
M  V30 6529 C 614.549 -1.09163 3.43155 0
M  V30 6530 C 614.402 0.0225198 4.49794 0
M  V30 6531 C 615.721 -1.98527 3.92778 0
M  V30 6532 H 612.84 -0.198706 0.709708 0
M  V30 6533 H 615.482 0.184024 1.89107 0
M  V30 6534 H 613.632 -1.71775 3.48462 0
M  V30 6535 H 615.304 0.657443 4.56591 0
M  V30 6536 H 613.547 0.686868 4.28328 0
M  V30 6537 H 614.218 -0.39706 5.5057 0
M  V30 6538 H 616.694 -1.458 3.8972 0
M  V30 6539 H 615.57 -2.33298 4.96853 0
M  V30 6540 H 615.831 -2.90846 3.32958 0
M  V30 6541 N 614.89 -1.56749 -0.16351 0
M  V30 6542 C 616.167 -1.73321 -0.906599 0
M  V30 6543 C 616.547 -0.673779 -2.00059 0
M  V30 6544 O 615.895 0.310121 -2.26386 0
M  V30 6545 C 616.105 -3.168 -1.46419 0
M  V30 6546 C 617.453 -3.77993 -1.93407 0
M  V30 6547 O 618.477 -3.20127 -1.56196 0
M  V30 6548 O 617.336 -4.79615 -2.61976 0
M  V30 6549 H 614.43 -0.708073 -0.427272 0
M  V30 6550 H 616.976 -1.69029 -0.150727 0
M  V30 6551 H 615.748 -3.85396 -0.677189 0
M  V30 6552 H 615.371 -3.2545 -2.28403 0
M  V30 6553 N 616.368 0.432326 -1.51554 0
M  V30 6554 C 617.616 1.17901 -1.64146 0
M  V30 6555 C 617.937 1.91604 -0.362367 0
M  V30 6556 O 617.207 1.85764 0.621968 0
M  V30 6557 H 615.787 0.438206 -0.604966 0
M  V30 6558 H 618.449 0.495172 -1.88505 0
M  V30 6559 H 617.545 1.90584 -2.47152 0
M  V30 6560 N 617.846 1.41785 0.688094 0
M  V30 6561 C 618.778 1.40159 1.81351 0
M  V30 6562 C 619.791 0.30262 1.59963 0
M  V30 6563 O 620.98 0.564841 1.69327 0
M  V30 6564 C 618.08 1.16517 3.1824 0
M  V30 6565 C 617.253 2.38597 3.66593 0
M  V30 6566 C 616.312 2.10699 4.82174 0
M  V30 6567 O 615.338 2.83798 4.93404 0
M  V30 6568 N 616.54 1.10187 5.69947 0
M  V30 6569 H 619.305 2.3716 1.83236 0
M  V30 6570 H 616.866 1.36494 0.870697 0
M  V30 6571 H 618.858 0.957941 3.93199 0
M  V30 6572 H 617.428 0.280873 3.11336 0
M  V30 6573 H 616.648 2.74974 2.82459 0
M  V30 6574 H 617.936 3.19919 3.95638 0
M  V30 6575 H 617.334 0.497016 5.63512 0
M  V30 6576 H 615.891 0.954518 6.44773 0
M  V30 6577 N 619.324 -0.923095 1.27737 0
M  V30 6578 C 620.735 -1.48626 1.12993 0
M  V30 6579 C 621.086 -1.94142 -0.283439 0
M  V30 6580 O 620.211 -1.81605 -1.17681 0
M  V30 6581 C 620.806 -2.70117 2.04505 0
M  V30 6582 C 619.365 -3.22642 1.93853 0
M  V30 6583 C 618.512 -1.95368 1.96791 0
M  V30 6584 H 621.463 -0.736737 1.40563 0
M  V30 6585 H 621.484 -3.4506 1.60356 0
M  V30 6586 H 620.996 -2.36959 3.07363 0
M  V30 6587 H 619.097 -3.60549 0.939968 0
M  V30 6588 H 619.21 -3.88525 2.80331 0
M  V30 6589 H 617.574 -2.12061 1.41076 0
M  V30 6590 H 618.357 -1.64517 3.01312 0
M  V30 6591 N 620.802 -1.09834 -1.13024 0
M  V30 6592 C 622.049 -0.83695 -1.84395 0
M  V30 6593 C 622.377 0.637463 -1.83757 0
M  V30 6594 O 621.632 1.48554 -1.27398 0
M  V30 6595 C 621.931 -1.32263 -3.32026 0
M  V30 6596 C 621.597 -2.80739 -3.52841 0
M  V30 6597 C 620.259 -3.21286 -3.5823 0
M  V30 6598 C 622.611 -3.76449 -3.60466 0
M  V30 6599 C 619.939 -4.56308 -3.68781 0
M  V30 6600 C 622.291 -5.11266 -3.72546 0
M  V30 6601 C 620.955 -5.51397 -3.76189 0
M  V30 6602 H 620.225 -0.306262 -0.674748 0
M  V30 6603 H 622.872 -1.37385 -1.33408 0
M  V30 6604 H 621.177 -0.705618 -3.85394 0
M  V30 6605 H 622.874 -1.09695 -3.85705 0
M  V30 6606 H 619.464 -2.48363 -3.49305 0
M  V30 6607 H 623.648 -3.46234 -3.55578 0
M  V30 6608 H 618.904 -4.86832 -3.69871 0
M  V30 6609 H 623.078 -5.85279 -3.77388 0
M  V30 6610 H 620.705 -6.56017 -3.84117 0
M  V30 6611 N 622.28 1.30327 -0.886154 0
M  V30 6612 C 623.508 2.00254 -0.520176 0
M  V30 6613 C 623.923 1.66419 0.891637 0
M  V30 6614 O 623.28 0.901951 1.58654 0
M  V30 6615 C 623.331 3.54916 -0.686775 0
M  V30 6616 O 623.052 3.87547 -2.04301 0
M  V30 6617 C 624.553 4.42115 -0.323945 0
M  V30 6618 H 621.773 0.640204 -0.200947 0
M  V30 6619 H 624.317 1.66183 -1.19178 0
M  V30 6620 H 622.472 3.8735 -0.0625273 0
M  V30 6621 H 622.886 4.82247 -2.06249 0
M  V30 6622 H 624.36 5.49808 -0.491407 0
M  V30 6623 H 624.837 4.32953 0.73811 0
M  V30 6624 H 625.443 4.15129 -0.924565 0
M  V30 6625 N 623.758 0.647228 1.43697 0
M  V30 6626 C 624.706 -0.0600105 2.32523 0
M  V30 6627 C 625.7 -0.819277 1.48271 0
M  V30 6628 O 626.906 -0.730356 1.64517 0
M  V30 6629 H 623.281 -0.0381872 0.75103 0
M  V30 6630 H 625.252 0.706978 2.89904 0
M  V30 6631 C 624.001 -1.0169 3.32497 0
M  V30 6632 H 623.324 -0.442083 3.97348 0
M  V30 6633 H 624.764 -1.48095 3.97296 0
M  V30 6634 C 623.223 -2.11002 2.6264 0
M  V30 6635 O 623.753 -3.19302 2.4374 0
M  V30 6636 N 621.959 -1.87388 2.22113 0
M  V30 6637 H 621.506 -0.993174 2.37684 0
M  V30 6638 H 621.464 -2.60723 1.75701 0
M  V30 6639 N 625.236 -1.5273 0.388769 0
M  V30 6640 C 626.482 -2.02545 -0.186351 0
M  V30 6641 C 626.837 -1.27017 -1.44514 0
M  V30 6642 O 626.13 -0.361948 -1.8815 0
M  V30 6643 C 626.324 -3.53765 -0.508445 0
M  V30 6644 C 626.153 -4.43938 0.71758 0
M  V30 6645 C 624.923 -4.89933 1.23668 0
M  V30 6646 C 627.121 -4.89113 1.58974 0
M  V30 6647 N 625.103 -5.64176 2.42031 0
M  V30 6648 C 626.474 -5.61931 2.61979 0
M  V30 6649 C 628.529 -4.71155 1.60989 0
M  V30 6650 C 627.232 -6.18698 3.66886 0
M  V30 6651 C 629.258 -5.28804 2.64803 0
M  V30 6652 C 628.62 -6.01527 3.6653 0
M  V30 6653 H 624.719 -0.781413 -0.0302921 0
M  V30 6654 H 627.303 -1.87104 0.538539 0
M  V30 6655 H 625.474 -3.6932 -1.20239 0
M  V30 6656 H 627.206 -3.9028 -1.07067 0
M  V30 6657 H 623.961 -4.66833 0.797763 0
M  V30 6658 H 624.385 -6.05949 3.01919 0
M  V30 6659 H 629.027 -4.14435 0.836881 0
M  V30 6660 H 626.745 -6.74501 4.45055 0
M  V30 6661 H 630.331 -5.1679 2.67245 0
M  V30 6662 H 629.211 -6.45339 4.45542 0
M  V30 6663 N 626.714 -0.118576 -1.57153 0
M  V30 6664 C 627.944 0.546466 -1.99242 0
M  V30 6665 C 628.352 1.60791 -0.997148 0
M  V30 6666 O 627.695 1.83691 0.0181745 0
M  V30 6667 C 627.757 1.23167 -3.37743 0
M  V30 6668 C 627.421 0.318226 -4.55891 0
M  V30 6669 C 628.418 -0.442988 -5.18009 0
M  V30 6670 C 626.103 0.229421 -5.01776 0
M  V30 6671 C 628.097 -1.28074 -6.244 0
M  V30 6672 C 625.784 -0.611966 -6.08028 0
M  V30 6673 C 626.782 -1.36568 -6.69207 0
M  V30 6674 O 626.47 -2.1931 -7.73407 0
M  V30 6675 H 626.202 0.149297 -0.659307 0
M  V30 6676 H 628.756 -0.201603 -2.04408 0
M  V30 6677 H 626.986 2.0268 -3.29329 0
M  V30 6678 H 628.675 1.79358 -3.64123 0
M  V30 6679 H 629.441 -0.38425 -4.83475 0
M  V30 6680 H 625.32 0.805771 -4.53903 0
M  V30 6681 H 628.864 -1.86952 -6.72082 0
M  V30 6682 H 624.761 -0.6721 -6.41991 0
M  V30 6683 H 625.529 -2.12247 -7.90502 0
M  V30 6684 N 628.193 1.56834 0.155195 0
M  V30 6685 C 629.47 1.73799 0.897395 0
M  V30 6686 C 629.85 0.684379 1.99698 0
M  V30 6687 O 629.198 -0.298111 2.26547 0
M  V30 6688 C 629.408 3.17572 1.44737 0
M  V30 6689 C 630.756 3.79014 1.91399 0
M  V30 6690 O 631.78 3.20951 1.54496 0
M  V30 6691 O 630.639 4.80998 2.59429 0
M  V30 6692 H 627.733 0.710329 0.423511 0
M  V30 6693 H 630.279 1.69107 0.141761 0
M  V30 6694 H 629.051 3.85749 0.656741 0
M  V30 6695 H 628.674 3.26657 2.26674 0
M  V30 6696 N 629.671 -0.424282 1.51781 0
M  V30 6697 C 630.619 -1.53649 1.74628 0
M  V30 6698 C 631.613 -1.57923 0.612922 0
M  V30 6699 O 632.819 -1.61511 0.794618 0
M  V30 6700 H 629.194 -0.510706 0.551981 0
M  V30 6701 H 631.165 -1.31558 2.67834 0
M  V30 6702 C 629.914 -2.91177 1.9003 0
M  V30 6703 H 629.237 -2.88625 2.76651 0
M  V30 6704 H 630.677 -3.6833 2.10021 0
M  V30 6705 C 629.136 -3.30303 0.663435 0
M  V30 6706 O 629.666 -4.01315 -0.175812 0
M  V30 6707 N 627.872 -2.86201 0.503723 0
M  V30 6708 H 627.419 -2.28583 1.18776 0
M  V30 6709 H 627.377 -3.12741 -0.322575 0
M  V30 6710 N 631.149 -1.42148 -0.680565 0
M  V30 6711 C 632.397 -1.42029 -1.43779 0
M  V30 6712 C 632.718 -0.0356347 -1.94967 0
M  V30 6713 O 631.988 0.924936 -1.7269 0
M  V30 6714 H 630.568 -0.522835 -0.533529 0
M  V30 6715 H 633.23 -1.7752 -0.804538 0
M  V30 6716 H 632.326 -2.11658 -2.29363 0
M  V30 6717 N 632.627 0.916307 -1.28225 0
M  V30 6718 C 633.852 1.7043 -1.18188 0
M  V30 6719 C 634.277 1.86346 0.256274 0
M  V30 6720 O 633.635 1.37175 1.18544 0
M  V30 6721 C 633.683 3.07546 -1.88275 0
M  V30 6722 O 632.787 3.94904 -1.18848 0
M  V30 6723 H 632.128 0.521967 -0.410423 0
M  V30 6724 H 634.658 1.14589 -1.69501 0
M  V30 6725 H 634.668 3.57793 -1.96082 0
M  V30 6726 H 633.343 2.95279 -2.92887 0
M  V30 6727 H 631.92 3.53339 -1.19187 0
M  V30 6728 N 634.105 1.10431 1.1244 0
M  V30 6729 C 635.053 0.747974 2.20246 0
M  V30 6730 C 636.047 -0.255848 1.67457 0
M  V30 6731 O 637.253 -0.116221 1.79624 0
M  V30 6732 H 633.628 0.223946 0.71788 0
M  V30 6733 H 635.599 1.6661 2.47556 0
M  V30 6734 C 634.348 0.195957 3.47147 0
M  V30 6735 H 633.671 0.959606 3.88113 0
M  V30 6736 H 635.111 -0.0153154 4.23997 0
M  V30 6737 C 633.57 -1.07132 3.19413 0
M  V30 6738 O 634.1 -2.15284 3.3914 0
M  V30 6739 N 632.306 -0.98994 2.73219 0
M  V30 6740 H 631.853 -0.109736 2.57366 0
M  V30 6741 H 631.811 -1.83856 2.55038 0
M  V30 6742 N 635.583 -1.29855 0.893053 0
M  V30 6743 C 636.515 -2.26911 0.32311 0
M  V30 6744 C 637.528 -1.54039 -0.526858 0
M  V30 6745 O 638.717 -1.75132 -0.345095 0
M  V30 6746 C 635.817 -3.34266 -0.558509 0
M  V30 6747 C 634.99 -4.36601 0.264222 0
M  V30 6748 C 634.049 -5.23326 -0.549171 0
M  V30 6749 O 633.075 -5.69192 0.0309883 0
M  V30 6750 N 634.277 -5.50008 -1.85664 0
M  V30 6751 H 637.042 -2.76455 1.15726 0
M  V30 6752 H 634.603 -1.4312 0.756859 0
M  V30 6753 H 636.595 -3.89211 -1.1089 0
M  V30 6754 H 635.165 -2.8459 -1.29334 0
M  V30 6755 H 634.385 -3.81409 0.996046 0
M  V30 6756 H 635.673 -5.02019 0.827906 0
M  V30 6757 H 635.071 -5.14542 -2.35081 0
M  V30 6758 H 633.628 -6.07796 -2.35431 0
M  V30 6759 N 637.061 -0.65484 -1.43351 0
M  V30 6760 C 638.307 -0.169142 -2.02093 0
M  V30 6761 C 638.64 1.21431 -1.51553 0
M  V30 6762 O 637.915 1.81105 -0.709317 0
M  V30 6763 C 638.198 -0.181775 -3.59641 0
M  V30 6764 C 638.051 -1.59926 -4.20409 0
M  V30 6765 C 639.37 0.480945 -4.37464 0
M  V30 6766 H 636.489 -0.0629371 -0.734308 0
M  V30 6767 H 639.131 -0.835833 -1.70628 0
M  V30 6768 H 637.281 0.385918 -3.86578 0
M  V30 6769 H 638.953 -2.21766 -4.04497 0
M  V30 6770 H 637.196 -2.14605 -3.76998 0
M  V30 6771 H 637.867 -1.55994 -5.295 0
M  V30 6772 H 640.343 -0.00208273 -4.161 0
M  V30 6773 H 639.219 0.441384 -5.47122 0
M  V30 6774 H 639.48 1.55533 -4.13838 0
M  V30 6775 N 638.539 1.52521 -0.396863 0
M  V30 6776 C 639.502 2.2527 0.422604 0
M  V30 6777 C 640.502 1.27184 0.983913 0
M  V30 6778 O 641.692 1.51222 0.864723 0
M  V30 6779 C 638.824 3.01356 1.59365 0
M  V30 6780 H 640.017 2.99133 -0.214416 0
M  V30 6781 H 637.57 1.55587 -0.149128 0
M  V30 6782 H 638.305 2.31813 2.26789 0
M  V30 6783 H 638.09 3.73357 1.19779 0
M  V30 6784 H 639.58 3.56571 2.17363 0
M  V30 6785 N 640.017 0.126909 1.57088 0
M  V30 6786 C 641.264 -0.529168 1.95464 0
M  V30 6787 C 641.592 -1.6618 1.01067 0
M  V30 6788 O 640.847 -1.95667 0.0360254 0
M  V30 6789 C 641.146 -1.095 3.40212 0
M  V30 6790 C 640.812 -0.0829015 4.50824 0
M  V30 6791 C 639.474 0.195377 4.80803 0
M  V30 6792 C 641.826 0.606411 5.1766 0
M  V30 6793 C 639.154 1.16912 5.74933 0
M  V30 6794 C 641.506 1.56884 6.12838 0
M  V30 6795 C 640.17 1.85502 6.41206 0
M  V30 6796 H 639.44 -0.193636 0.715252 0
M  V30 6797 H 642.087 0.209489 1.90351 0
M  V30 6798 H 640.392 -1.91058 3.42059 0
M  V30 6799 H 642.089 -1.61087 3.67222 0
M  V30 6800 H 638.679 -0.309979 4.27478 0
M  V30 6801 H 642.863 0.404597 4.94648 0
M  V30 6802 H 638.119 1.3975 5.95214 0
M  V30 6803 H 642.293 2.10859 6.6371 0
M  V30 6804 H 639.92 2.61109 7.13951 0
M  V30 6805 N 641.495 -1.56914 -0.146875 0
M  V30 6806 C 642.743 -1.82994 -0.85777 0
M  V30 6807 C 643.064 -0.707814 -1.817 0
M  V30 6808 O 642.334 0.270521 -1.94023 0
M  V30 6809 H 640.914 -0.675106 -0.319751 0
M  V30 6810 H 643.576 -1.9439 -0.140849 0
M  V30 6811 H 642.672 -2.77928 -1.41994 0
M  V30 6812 N 642.974 0.416227 -1.52004 0
M  V30 6813 C 644.39 0.754319 -1.40649 0
M  V30 6814 C 644.59 1.95059 -0.505392 0
M  V30 6815 O 643.646 2.5248 0.0315057 0
M  V30 6816 C 644.959 1.0149 -2.83055 0
M  V30 6817 C 646.507 1.11805 -2.9235 0
M  V30 6818 C 646.982 1.41144 -4.35709 0
M  V30 6819 N 648.473 1.48024 -4.38911 0
M  V30 6820 C 649.208 1.72338 -5.46889 0
M  V30 6821 N 648.704 1.94303 -6.64995 0
M  V30 6822 N 650.497 1.74294 -5.34395 0
M  V30 6823 H 642.648 -0.371324 -2.09129 0
M  V30 6824 H 644.911 -0.103811 -0.942299 0
M  V30 6825 H 644.617 0.208345 -3.51082 0
M  V30 6826 H 644.491 1.93697 -3.23668 0
M  V30 6827 H 646.878 1.91521 -2.24508 0
M  V30 6828 H 646.959 0.17451 -2.55204 0
M  V30 6829 H 646.603 0.619484 -5.04108 0
M  V30 6830 H 646.533 2.36739 -4.70385 0
M  V30 6831 H 649.024 1.32868 -3.53772 0
M  V30 6832 H 649.337 2.12286 -7.43071 0
M  V30 6833 H 647.682 1.91582 -6.68073 0
M  V30 6834 H 650.873 1.56667 -4.41104 0
M  V30 6835 H 651.046 1.92904 -6.18621 0
M  V30 6836 N 644.452 1.42507 0.673017 0
M  V30 6837 C 645.7 1.42789 1.43023 0
M  V30 6838 C 646.021 0.0459738 1.94946 0
M  V30 6839 O 645.291 -0.915765 1.73178 0
M  V30 6840 H 643.871 0.525657 0.530748 0
M  V30 6841 H 646.533 1.77944 0.795113 0
M  V30 6842 H 645.629 2.12872 2.28237 0
M  V30 6843 N 645.93 -0.909495 1.28709 0
M  V30 6844 C 646.878 -2.03381 1.12866 0
M  V30 6845 C 647.872 -1.69335 0.0468074 0
M  V30 6846 O 649.078 -1.78819 0.205891 0
M  V30 6847 H 645.453 -0.666452 0.348348 0
M  V30 6848 H 647.424 -2.13885 2.08077 0
M  V30 6849 C 646.173 -3.38092 0.811742 0
M  V30 6850 H 645.496 -3.64786 1.63619 0
M  V30 6851 H 646.936 -4.17477 0.740869 0
M  V30 6852 C 645.395 -3.33395 -0.484679 0
M  V30 6853 O 645.925 -3.72089 -1.5137 0
M  V30 6854 N 644.131 -2.86491 -0.486961 0
M  V30 6855 H 643.678 -2.55199 0.350877 0
M  V30 6856 H 643.636 -2.83731 -1.3544 0
M  V30 6857 N 647.408 -1.11026 -1.11852 0
M  V30 6858 C 648.824 -0.843294 -1.35502 0
M  V30 6859 C 649.024 0.534179 -1.9429 0
M  V30 6860 O 648.08 1.28585 -2.17307 0
M  V30 6861 C 649.393 -1.94793 -2.29077 0
M  V30 6862 C 650.941 -1.97709 -2.42652 0
M  V30 6863 C 651.416 -3.07364 -3.39546 0
M  V30 6864 N 652.907 -3.0671 -3.47107 0
M  V30 6865 C 653.642 -3.88197 -4.22008 0
M  V30 6866 N 653.138 -4.79635 -4.99922 0
M  V30 6867 N 654.931 -3.76391 -4.17476 0
M  V30 6868 H 647.082 -1.99805 -0.720538 0
M  V30 6869 H 649.345 -0.868633 -0.379711 0
M  V30 6870 H 649.051 -2.93971 -1.93065 0
M  V30 6871 H 648.925 -1.84039 -3.29256 0
M  V30 6872 H 651.312 -0.991604 -2.77941 0
M  V30 6873 H 651.393 -2.1254 -1.4234 0
M  V30 6874 H 651.037 -4.06136 -3.04985 0
M  V30 6875 H 650.967 -2.89774 -4.39703 0
M  V30 6876 H 653.458 -2.40457 -2.91528 0
M  V30 6877 H 653.771 -5.38357 -5.54429 0
M  V30 6878 H 652.116 -4.8366 -4.99097 0
M  V30 6879 H 655.307 -3.04303 -3.55693 0
M  V30 6880 H 655.48 -4.40131 -4.75593 0
M  V30 6881 N 648.886 1.2938 -0.899927 0
M  V30 6882 C 650.134 1.95164 -0.524924 0
M  V30 6883 C 650.455 1.71292 0.931888 0
M  V30 6884 O 649.725 1.04481 1.65712 0
M  V30 6885 H 648.305 0.722133 -0.191135 0
M  V30 6886 H 650.967 1.57628 -1.14627 0
M  V30 6887 H 650.063 3.0397 -0.707711 0
M  V30 6888 N 650.364 0.662433 1.43002 0
M  V30 6889 C 651.611 0.179591 2.01702 0
M  V30 6890 C 651.939 -1.20964 1.52309 0
M  V30 6891 O 651.194 -1.82343 0.7106 0
M  V30 6892 C 651.493 0.149363 3.57088 0
M  V30 6893 C 651.159 1.48158 4.25864 0
M  V30 6894 C 649.821 1.84638 4.44367 0
M  V30 6895 C 652.173 2.35953 4.64732 0
M  V30 6896 C 649.501 3.08561 4.99006 0
M  V30 6897 C 651.853 3.59176 5.20745 0
M  V30 6898 C 650.517 3.95841 5.37463 0
M  V30 6899 H 649.787 0.0657172 0.73808 0
M  V30 6900 H 652.434 0.854968 1.71355 0
M  V30 6901 H 650.739 -0.609491 3.8703 0
M  V30 6902 H 652.436 -0.241241 4.00274 0
M  V30 6903 H 649.026 1.18777 4.11813 0
M  V30 6904 H 653.21 2.09058 4.50121 0
M  V30 6905 H 648.466 3.37005 5.10135 0
M  V30 6906 H 652.64 4.27417 5.49807 0
M  V30 6907 H 650.267 4.91942 5.79566 0
M  V30 6908 N 651.842 -1.52309 0.404946 0
M  V30 6909 C 653.091 -2.00952 -0.173529 0
M  V30 6910 C 653.404 -1.29512 -1.46581 0
M  V30 6911 O 654.61 -1.6895 -2.12528 0
M  V30 6912 C 653.066 -3.58097 -0.359801 0
M  V30 6913 C 652.674 -4.38449 0.920138 0
M  V30 6914 C 654.418 -4.14984 -0.893794 0
M  V30 6915 C 652.325 -5.87227 0.701285 0
M  V30 6916 H 651.255 -0.750871 -0.0686244 0
M  V30 6917 H 653.906 -1.75687 0.529749 0
M  V30 6918 H 652.288 -3.79675 -1.12531 0
M  V30 6919 H 653.462 -4.28633 1.69147 0
M  V30 6920 H 651.777 -3.92859 1.38024 0
M  V30 6921 H 654.374 -5.23813 -1.0735 0
M  V30 6922 H 654.717 -3.72072 -1.8673 0
M  V30 6923 H 655.25 -3.97358 -0.187453 0
M  V30 6924 H 651.989 -6.34491 1.64624 0
M  V30 6925 H 651.509 -5.99792 -0.0308288 0
M  V30 6926 H 653.188 -6.46096 0.341846 0
M  V30 6927 N 653.32 -0.135238 -1.57019 0
M  V30 6928 C 654.566 0.519563 -1.96032 0
M  V30 6929 C 654.899 1.65284 -1.01955 0
M  V30 6930 O 654.174 1.94408 -0.059727 0
M  V30 6931 C 654.457 1.0369 -3.44848 0
M  V30 6932 C 654.31 -0.0940754 -4.49702 0
M  V30 6933 C 655.629 1.92254 -3.95887 0
M  V30 6934 H 652.748 0.18739 -0.712779 0
M  V30 6935 H 655.39 -0.214086 -1.8879 0
M  V30 6936 H 653.54 1.66209 -3.5115 0
M  V30 6937 H 655.212 -0.73 -4.55487 0
M  V30 6938 H 653.455 -0.754924 -4.27181 0
M  V30 6939 H 654.126 0.309419 -5.51132 0
M  V30 6940 H 656.602 1.39581 -3.9199 0
M  V30 6941 H 655.478 2.25364 -5.00502 0
M  V30 6942 H 655.739 2.85513 -3.37543 0
M  V30 6943 N 654.798 1.5699 0.138552 0
M  V30 6944 C 656.045 1.83809 0.849732 0
M  V30 6945 C 656.373 0.717409 1.80786 0
M  V30 6946 O 655.628 -0.292897 1.93496 0
M  V30 6947 C 655.927 3.17007 1.65049 0
M  V30 6948 C 655.593 4.43037 0.838398 0
M  V30 6949 C 654.255 4.77262 0.614385 0
M  V30 6950 C 656.607 5.20495 0.271044 0
M  V30 6951 C 653.935 5.864 -0.187552 0
M  V30 6952 C 656.287 6.30476 -0.517979 0
M  V30 6953 C 654.951 6.63245 -0.75249 0
M  V30 6954 H 654.221 0.672605 0.310939 0
M  V30 6955 H 656.868 1.91166 0.112971 0
M  V30 6956 H 655.173 3.05138 2.4576 0
M  V30 6957 H 656.87 3.34975 2.20437 0
M  V30 6958 H 653.46 4.16211 1.02307 0
M  V30 6959 H 657.644 4.94422 0.431371 0
M  V30 6960 H 652.9 6.10226 -0.378659 0
M  V30 6961 H 657.074 6.89686 -0.964694 0
M  V30 6962 H 654.701 7.47648 -1.37573 0
M  V30 6963 N 656.276 -0.40816 1.52223 0
M  V30 6964 C 657.224 -1.51788 1.76248 0
M  V30 6965 C 658.218 -1.57264 0.629638 0
M  V30 6966 O 659.424 -1.60659 0.811704 0
M  V30 6967 H 655.799 -0.504823 0.557367 0
M  V30 6968 H 657.77 -1.2871 2.69214 0
M  V30 6969 C 656.519 -2.89145 1.93107 0
M  V30 6970 H 655.842 -2.85674 2.79697 0
M  V30 6971 H 657.282 -3.66082 2.13916 0
M  V30 6972 C 655.741 -3.29581 0.698431 0
M  V30 6973 O 656.271 -4.01479 -0.133238 0
M  V30 6974 N 654.477 -2.85651 0.53405 0
M  V30 6975 H 654.024 -2.2731 1.21194 0
M  V30 6976 H 653.982 -3.13065 -0.289387 0
M  V30 6977 N 657.755 -1.42862 -0.66545 0
M  V30 6978 C 658.703 -1.47319 -1.8 0
M  V30 6979 C 659.697 -0.347963 -1.65788 0
M  V30 6980 O 660.903 -0.521406 -1.72283 0
M  V30 6981 H 657.278 -0.461588 -0.593667 0
M  V30 6982 H 659.249 -2.42876 -1.7336 0
M  V30 6983 C 657.998 -1.40152 -3.18203 0
M  V30 6984 H 657.321 -2.26035 -3.2977 0
M  V30 6985 H 658.761 -1.47331 -3.9758 0
M  V30 6986 C 657.22 -0.117493 -3.36695 0
M  V30 6987 O 657.75 0.826058 -3.93115 0
M  V30 6988 N 655.956 -0.0316218 -2.90583 0
M  V30 6989 H 655.503 -0.800247 -2.44855 0
M  V30 6990 H 655.461 0.826835 -3.03333 0
M  V30 6991 N 659.233 0.902656 -1.29189 0
M  V30 6992 C 660.51 1.63296 -1.07674 0
M  V30 6993 C 660.89 2.07649 0.380137 0
M  V30 6994 O 660.238 1.82997 1.36837 0
M  V30 6995 C 660.448 2.81603 -2.06158 0
M  V30 6996 C 661.796 3.52359 -2.36914 0
M  V30 6997 O 662.82 2.91767 -2.04329 0
M  V30 6998 O 661.679 4.61586 -2.92576 0
M  V30 6999 H 658.773 0.716889 -0.41231 0
M  V30 7000 H 661.319 0.950984 -1.4055 0
M  V30 7001 H 660.091 2.46004 -3.04299 0
M  V30 7002 H 659.714 3.57508 -1.73993 0
M  V30 7003 N 660.711 1.11618 1.11262 0
M  V30 7004 C 661.988 0.777876 1.79467 0
M  V30 7005 C 662.368 -0.733774 1.97937 0
M  V30 7006 O 661.716 -1.66443 1.56554 0
M  V30 7007 C 661.926 1.5431 3.13032 0
M  V30 7008 C 663.274 1.72357 3.88044 0
M  V30 7009 O 664.298 1.5075 3.22727 0
M  V30 7010 O 663.157 2.08276 5.05256 0
M  V30 7011 H 660.251 0.282018 0.777428 0
M  V30 7012 H 662.797 1.21971 1.17988 0
M  V30 7013 H 661.569 2.57132 2.94956 0
M  V30 7014 H 661.192 1.09495 3.82226 0
M  V30 7015 N 662.189 -1.289 0.906776 0
M  V30 7016 C 663.435 -1.95919 0.546551 0
M  V30 7017 C 663.79 -1.70126 -0.8986 0
M  V30 7018 O 663.083 -1.00775 -1.62957 0
M  V30 7019 C 663.277 -3.48704 0.783617 0
M  V30 7020 C 663.106 -3.8935 2.25026 0
M  V30 7021 C 661.876 -4.13864 2.89905 0
M  V30 7022 C 664.074 -4.00535 3.22608 0
M  V30 7023 N 662.056 -4.41131 4.26939 0
M  V30 7024 C 663.427 -4.31936 4.44783 0
M  V30 7025 C 665.482 -3.83035 3.18102 0
M  V30 7026 C 664.185 -4.47659 5.63022 0
M  V30 7027 C 666.211 -3.99971 4.35634 0
M  V30 7028 C 665.573 -4.31738 5.5658 0
M  V30 7029 H 661.672 -0.74105 0.249737 0
M  V30 7030 H 664.256 -1.55696 1.16906 0
M  V30 7031 H 662.427 -3.87933 0.190437 0
M  V30 7032 H 664.159 -4.02835 0.38812 0
M  V30 7033 H 660.914 -4.07893 2.40666 0
M  V30 7034 H 661.338 -4.5886 4.97771 0
M  V30 7035 H 665.98 -3.57533 2.25677 0
M  V30 7036 H 663.698 -4.71995 6.55932 0
M  V30 7037 H 667.284 -3.87874 4.33641 0
M  V30 7038 H 666.164 -4.44568 6.4601 0
M  V30 7039 N 663.667 -0.670007 -1.42649 0
M  V30 7040 C 664.892 -0.196955 -2.06463 0
M  V30 7041 C 665.317 1.1352 -1.49983 0
M  V30 7042 O 664.675 1.705 -0.616397 0
M  V30 7043 C 664.723 -0.137381 -3.60338 0
M  V30 7044 O 663.827 0.895523 -4.02559 0
M  V30 7045 H 663.168 -0.102579 -0.656029 0
M  V30 7046 H 665.698 -0.917669 -1.82866 0
M  V30 7047 H 665.708 0.0403625 -4.0798 0
M  V30 7048 H 664.383 -1.10977 -4.0082 0
M  V30 7049 H 662.96 0.689209 -3.66476 0
M  V30 7050 N 665.145 1.52092 -0.413018 0
M  V30 7051 C 666.392 2.01855 0.161497 0
M  V30 7052 C 666.72 1.29845 1.44812 0
M  V30 7053 O 665.975 0.394471 1.91683 0
M  V30 7054 C 666.274 3.54529 0.4521 0
M  V30 7055 C 665.94 4.4469 -0.745788 0
M  V30 7056 C 664.602 4.69053 -1.07435 0
M  V30 7057 C 666.954 4.97742 -1.54604 0
M  V30 7058 C 664.282 5.43717 -2.20429 0
M  V30 7059 C 666.634 5.73642 -2.66678 0
M  V30 7060 C 665.298 5.96277 -3.00016 0
M  V30 7061 H 664.568 0.73864 0.0590961 0
M  V30 7062 H 667.215 1.83274 -0.555234 0
M  V30 7063 H 665.52 3.7131 1.25045 0
M  V30 7064 H 667.217 3.90546 0.909647 0
M  V30 7065 H 663.807 4.25907 -0.479725 0
M  V30 7066 H 667.991 4.78824 -1.30543 0
M  V30 7067 H 663.247 5.59462 -2.46602 0
M  V30 7068 H 667.421 6.13746 -3.29072 0
M  V30 7069 H 665.048 6.53913 -3.87688 0
M  V30 7070 N 666.623 0.143563 1.56945 0
M  V30 7071 C 667.848 -0.518701 2.00809 0
M  V30 7072 C 668.273 -1.5785 1.02298 0
M  V30 7073 O 667.631 -1.813 -0.0017839 0
M  V30 7074 C 667.679 -1.09929 3.43436 0
M  V30 7075 O 666.783 -2.21425 3.47915 0
M  V30 7076 H 666.124 -0.127215 0.6517 0
M  V30 7077 H 668.654 0.239283 2.03196 0
M  V30 7078 H 668.664 -1.4288 3.82164 0
M  V30 7079 H 667.339 -0.323162 4.14643 0
M  V30 7080 H 665.916 -1.89728 3.21026 0
M  V30 7081 N 668.101 -1.57061 -0.130224 0
M  V30 7082 C 669.031 -2.02552 -1.16168 0
M  V30 7083 C 670.012 -0.907971 -1.4384 0
M  V30 7084 O 671.197 -1.17693 -1.54473 0
M  V30 7085 C 668.327 -2.42035 -2.49071 0
M  V30 7086 C 667.281 -3.5713 -2.35886 0
M  V30 7087 C 666.607 -3.82478 -3.7365 0
M  V30 7088 C 667.907 -4.89236 -1.8288 0
M  V30 7089 H 669.601 -2.8897 -0.783359 0
M  V30 7090 H 667.147 -1.39021 -0.375376 0
M  V30 7091 H 669.1 -2.72462 -3.21469 0
M  V30 7092 H 667.824 -1.52573 -2.88771 0
M  V30 7093 H 666.483 -3.26895 -1.65938 0
M  V30 7094 H 666.131 -2.9024 -4.10816 0
M  V30 7095 H 665.831 -4.59944 -3.65685 0
M  V30 7096 H 667.355 -4.15347 -4.47571 0
M  V30 7097 H 668.769 -5.18272 -2.45085 0
M  V30 7098 H 667.166 -5.70624 -1.85763 0
M  V30 7099 H 668.236 -4.78494 -0.785571 0
M  V30 7100 N 669.579 0.400081 -1.52437 0
M  V30 7101 C 670.807 1.16768 -1.70801 0
M  V30 7102 C 671.222 1.84036 -0.421462 0
M  V30 7103 O 670.579 1.72242 0.603228 0
M  V30 7104 C 670.63 2.22403 -2.8499 0
M  V30 7105 O 670.351 1.57879 -4.08663 0
M  V30 7106 C 671.852 3.11974 -3.1494 0
M  V30 7107 H 669.072 0.350533 -0.57216 0
M  V30 7108 H 671.616 0.469534 -1.99037 0
M  V30 7109 H 669.771 2.87871 -2.59247 0
M  V30 7110 H 670.185 2.27982 -4.7236 0
M  V30 7111 H 671.659 3.82148 -3.9833 0
M  V30 7112 H 672.136 3.74858 -2.28863 0
M  V30 7113 H 672.742 2.52165 -3.42481 0
M  V30 7114 N 671.057 1.43213 0.657864 0
M  V30 7115 C 671.987 1.50815 1.78262 0
M  V30 7116 C 672.968 0.363211 1.66177 0
M  V30 7117 O 674.153 0.579806 1.85343 0
M  V30 7118 C 671.283 1.42625 3.16663 0
M  V30 7119 C 670.237 2.5532 3.43505 0
M  V30 7120 C 669.563 2.32184 4.81658 0
M  V30 7121 C 670.863 3.97583 3.38711 0
M  V30 7122 H 672.557 2.44954 1.72157 0
M  V30 7123 H 670.103 1.17896 0.82683 0
M  V30 7124 H 672.056 1.46548 3.95097 0
M  V30 7125 H 670.78 0.449877 3.23487 0
M  V30 7126 H 669.439 2.50742 2.6744 0
M  V30 7127 H 669.087 1.32801 4.85153 0
M  V30 7128 H 668.787 3.07724 5.00579 0
M  V30 7129 H 670.311 2.37883 5.62356 0
M  V30 7130 H 671.725 4.03673 4.07089 0
M  V30 7131 H 670.122 4.73112 3.69168 0
M  V30 7132 H 671.192 4.23049 2.36976 0
M  V30 7133 N 672.536 -0.895792 1.29666 0
M  V30 7134 C 673.468 -2.00563 1.10937 0
M  V30 7135 C 674.481 -1.62705 0.055734 0
M  V30 7136 O 675.67 -1.7595 0.300656 0
M  V30 7137 C 672.77 -3.32262 0.667448 0
M  V30 7138 C 671.943 -3.98625 1.80047 0
M  V30 7139 C 671.002 -5.08617 1.3489 0
M  V30 7140 O 670.028 -5.30837 2.05429 0
M  V30 7141 N 671.23 -5.80076 0.221937 0
M  V30 7142 H 673.995 -2.17184 2.06522 0
M  V30 7143 H 671.556 -1.06822 1.21658 0
M  V30 7144 H 673.548 -4.03196 0.348586 0
M  V30 7145 H 672.118 -3.11985 -0.196055 0
M  V30 7146 H 671.338 -3.21005 2.28801 0
M  V30 7147 H 672.626 -4.39704 2.56003 0
M  V30 7148 H 672.024 -5.64514 -0.366084 0
M  V30 7149 H 670.581 -6.51789 -0.0375346 0
M  V30 7150 N 674.014 -1.12206 -1.10668 0
M  V30 7151 C 675.242 -0.898635 -1.86366 0
M  V30 7152 C 675.657 0.551991 -1.80551 0
M  V30 7153 O 675.014 1.38152 -1.19249 0
M  V30 7154 C 675.065 -1.36199 -3.34861 0
M  V30 7155 O 674.786 -2.75576 -3.40573 0
M  V30 7156 C 676.287 -1.17515 -4.2744 0
M  V30 7157 H 673.507 -0.321281 -0.589084 0
M  V30 7158 H 676.051 -1.49142 -1.39918 0
M  V30 7159 H 674.206 -0.81249 -3.78784 0
M  V30 7160 H 674.62 -2.95851 -4.33096 0
M  V30 7161 H 676.094 -1.54827 -5.29842 0
M  V30 7162 H 676.571 -0.115486 -4.39048 0
M  V30 7163 H 677.177 -1.71203 -3.89319 0
M  V30 7164 N 675.492 1.28418 -0.913599 0
M  V30 7165 C 676.74 1.94596 -0.545594 0
M  V30 7166 C 677.061 1.7227 0.913668 0
M  V30 7167 O 676.331 1.06233 1.64595 0
M  V30 7168 H 674.911 0.720065 -0.198783 0
M  V30 7169 H 677.573 1.56404 -1.16292 0
M  V30 7170 H 676.669 3.03202 -0.739911 0
M  V30 7171 N 676.97 0.677563 1.42291 0
M  V30 7172 C 677.9 0.014968 2.33495 0
M  V30 7173 C 678.881 -0.786376 1.50831 0
M  V30 7174 O 680.066 -0.742975 1.79426 0
M  V30 7175 C 677.196 -0.935023 3.34477 0
M  V30 7176 C 676.15 -0.242074 4.27315 0
M  V30 7177 C 675.476 -1.30519 5.18526 0
M  V30 7178 C 676.776 0.880604 5.14823 0
M  V30 7179 H 678.47 0.776671 2.89151 0
M  V30 7180 H 676.016 0.37494 1.39033 0
M  V30 7181 H 677.969 -1.40766 3.97194 0
M  V30 7182 H 676.693 -1.72818 2.77131 0
M  V30 7183 H 675.352 0.210351 3.65996 0
M  V30 7184 H 675 -2.09041 4.57505 0
M  V30 7185 H 674.7 -0.846652 5.81468 0
M  V30 7186 H 676.224 -1.7787 5.84119 0
M  V30 7187 H 677.638 0.489062 5.7121 0
M  V30 7188 H 676.035 1.26511 5.86613 0
M  V30 7189 H 677.105 1.72818 4.53059 0
M  V30 7190 N 678.448 -1.51871 0.421078 0
M  V30 7191 C 679.859 -1.86644 -0.0457991 0
M  V30 7192 C 680.21 -1.33919 -1.43388 0
M  V30 7193 O 679.335 -0.683316 -2.05328 0
M  V30 7194 C 679.93 -3.38681 -0.0898844 0
M  V30 7195 C 678.489 -3.73049 -0.501127 0
M  V30 7196 C 677.636 -2.75485 0.316723 0
M  V30 7197 H 680.587 -1.45327 0.637635 0
M  V30 7198 H 680.608 -3.69636 -0.902734 0
M  V30 7199 H 680.12 -3.77025 0.920513 0
M  V30 7200 H 678.221 -3.40288 -1.51773 0
M  V30 7201 H 678.334 -4.78512 -0.237217 0
M  V30 7202 H 676.698 -2.53725 -0.222663 0
M  V30 7203 H 677.481 -3.16671 1.32569 0
M  V30 7204 N 679.926 -0.151884 -1.56866 0
M  V30 7205 C 680.889 0.771861 -2.15812 0
M  V30 7206 C 681.889 1.17181 -1.10115 0
M  V30 7207 O 683.079 1.09194 -1.35729 0
M  V30 7208 C 680.211 2.04806 -2.7252 0
M  V30 7209 H 681.404 0.259021 -2.98779 0
M  V30 7210 H 678.957 0.097588 -1.55995 0
M  V30 7211 H 679.692 2.60445 -1.93233 0
M  V30 7212 H 679.477 1.77044 -3.49854 0
M  V30 7213 H 680.967 2.70771 -3.1792 0
M  V30 7214 N 681.404 1.57128 0.121893 0
M  V30 7215 C 682.652 1.84335 0.828548 0
M  V30 7216 C 682.973 0.736632 1.80551 0
M  V30 7217 O 682.243 -0.23962 1.94429 0
M  V30 7218 H 680.823 0.680108 0.30897 0
M  V30 7219 H 683.485 1.9459 0.109906 0
M  V30 7220 H 682.581 2.80152 1.37554 0
M  V30 7221 N 682.882 -0.391992 1.52647 0
M  V30 7222 C 684.11 -1.1586 1.71418 0
M  V30 7223 C 684.525 -1.8381 0.431216 0
M  V30 7224 O 683.882 -1.7256 -0.594085 0
M  V30 7225 C 683.933 -2.20888 2.86165 0
M  V30 7226 O 683.654 -1.5571 4.09495 0
M  V30 7227 C 685.155 -3.103 3.1659 0
M  V30 7228 H 682.375 -0.347494 0.574011 0
M  V30 7229 H 684.919 -0.458972 1.99283 0
M  V30 7230 H 683.074 -2.86492 2.6077 0
M  V30 7231 H 683.488 -2.25474 4.73563 0
M  V30 7232 H 684.962 -3.8003 4.00351 0
M  V30 7233 H 685.439 -3.73639 2.30848 0
M  V30 7234 H 686.045 -2.50345 3.43813 0
M  V30 7235 N 684.36 -1.4356 -0.65026 0
M  V30 7236 C 685.59 -1.48563 -1.4357 0
M  V30 7237 C 685.998 -0.103041 -1.88919 0
M  V30 7238 O 685.341 0.897602 -1.60277 0
M  V30 7239 C 685.403 -2.37181 -2.70158 0
M  V30 7240 C 685.067 -3.84673 -2.4673 0
M  V30 7241 C 686.064 -4.75704 -2.09765 0
M  V30 7242 C 683.749 -4.29189 -2.60963 0
M  V30 7243 C 685.743 -6.09249 -1.87334 0
M  V30 7244 C 683.43 -5.62787 -2.38147 0
M  V30 7245 C 684.428 -6.52634 -2.01389 0
M  V30 7246 O 684.116 -7.83761 -1.78813 0
M  V30 7247 H 683.848 -0.506743 -0.447423 0
M  V30 7248 H 686.402 -1.89001 -0.80423 0
M  V30 7249 H 684.632 -1.91636 -3.35876 0
M  V30 7250 H 686.321 -2.33354 -3.32116 0
M  V30 7251 H 687.087 -4.42589 -1.98343 0
M  V30 7252 H 682.966 -3.59529 -2.88548 0
M  V30 7253 H 686.51 -6.7934 -1.58567 0
M  V30 7254 H 682.407 -5.95469 -2.49173 0
M  V30 7255 H 683.175 -7.95368 -1.93214 0
M  V30 7256 N 685.838 0.888903 -1.30139 0
M  V30 7257 C 687.078 1.65456 -1.20015 0
M  V30 7258 C 687.442 1.90467 0.242148 0
M  V30 7259 O 688.643 2.6472 0.466561 0
M  V30 7260 C 686.914 2.96071 -2.00191 0
M  V30 7261 S 688.473 3.87055 -2.06721 0
M  V30 7262 H 685.291 0.567927 -0.427761 0
M  V30 7263 H 687.893 1.05539 -1.64565 0
M  V30 7264 H 686.597 2.7559 -3.04103 0
M  V30 7265 H 686.128 3.61023 -1.56288 0
M  V30 7266 H 688.143 4.81676 -1.19174 0
M  V30 7267 N 687.317 1.12792 1.10072 0
M  V30 7268 C 688.594 0.796867 1.78632 0
M  V30 7269 C 688.974 -0.712739 1.98704 0
M  V30 7270 O 688.322 -1.64773 1.5831 0
M  V30 7271 C 688.532 1.57622 3.11378 0
M  V30 7272 C 689.88 1.76463 3.86194 0
M  V30 7273 O 690.904 1.54165 3.2111 0
M  V30 7274 O 689.763 2.13623 5.03018 0
M  V30 7275 H 686.857 0.290248 0.774394 0
M  V30 7276 H 689.403 1.23215 1.16688 0
M  V30 7277 H 688.175 2.60246 2.92212 0
M  V30 7278 H 687.798 1.13543 3.81043 0
M  V30 7279 N 688.795 -1.27931 0.920396 0
M  V30 7280 C 690.041 -1.94977 0.557832 0
M  V30 7281 C 690.374 -1.72224 -0.897365 0
M  V30 7282 O 689.649 -1.04705 -1.63912 0
M  V30 7283 C 689.932 -3.49289 0.875741 0
M  V30 7284 C 689.785 -3.81416 2.38416 0
M  V30 7285 C 691.104 -4.38486 0.376517 0
M  V30 7286 H 688.223 -0.708164 0.20414 0
M  V30 7287 H 690.865 -1.5118 1.15085 0
M  V30 7288 H 689.015 -3.86724 0.371062 0
M  V30 7289 H 690.687 -3.53813 2.95997 0
M  V30 7290 H 688.93 -3.28225 2.83639 0
M  V30 7291 H 689.601 -4.89198 2.55713 0
M  V30 7292 H 692.077 -4.08161 0.808945 0
M  V30 7293 H 690.953 -5.45296 0.627976 0
M  V30 7294 H 691.214 -4.36143 -0.723293 0
M  V30 7295 N 690.273 -0.685099 -1.4193 0
M  V30 7296 C 691.522 -0.208816 -2.00616 0
M  V30 7297 C 691.835 1.19506 -1.54847 0
M  V30 7298 O 693.041 1.76826 -2.06021 0
M  V30 7299 C 691.497 -0.322446 -3.58453 0
M  V30 7300 C 691.105 -1.73102 -4.13206 0
M  V30 7301 C 692.849 0.0945979 -4.24395 0
M  V30 7302 C 690.756 -1.79687 -5.63442 0
M  V30 7303 H 689.686 -0.0743092 -0.750329 0
M  V30 7304 H 692.337 -0.851778 -1.62533 0
M  V30 7305 H 690.719 0.388588 -3.94089 0
M  V30 7306 H 691.893 -2.46997 -3.8901 0
M  V30 7307 H 690.208 -2.09682 -3.59753 0
M  V30 7308 H 692.805 0.0656937 -5.3466 0
M  V30 7309 H 693.148 1.1316 -4.00625 0
M  V30 7310 H 693.681 -0.56579 -3.93756 0
M  V30 7311 H 690.42 -2.81404 -5.92024 0
M  V30 7312 H 689.94 -1.10162 -5.89597 0
M  V30 7313 H 691.619 -1.55498 -6.28036 0
M  V30 7314 N 691.751 1.51645 -0.429126 0
M  V30 7315 C 692.976 2.06917 0.141399 0
M  V30 7316 C 693.401 1.29527 1.36398 0
M  V30 7317 O 692.759 0.33094 1.78254 0
M  V30 7318 C 692.807 3.57776 0.4504 0
M  V30 7319 O 691.911 3.82639 1.53821 0
M  V30 7320 H 691.252 0.663978 0.0054647 0
M  V30 7321 H 693.782 1.95355 -0.608093 0
M  V30 7322 H 693.792 4.01894 0.703249 0
M  V30 7323 H 692.467 4.13532 -0.443213 0
M  V30 7324 H 691.044 3.5039 1.27597 0
M  V30 7325 N 693.229 0.160201 1.56784 0
M  V30 7326 C 694.477 -0.486625 1.96154 0
M  V30 7327 C 694.798 -1.64525 1.04673 0
M  V30 7328 O 694.068 -1.95586 0.110864 0
M  V30 7329 H 692.648 -0.182764 0.724297 0
M  V30 7330 H 695.31 0.238787 1.93432 0
M  V30 7331 H 694.406 -0.854025 3.00188 0
M  V30 7332 N 694.707 -1.5719 -0.113559 0
M  V30 7333 C 695.984 -1.76117 -0.850999 0
M  V30 7334 C 696.364 -0.737085 -1.97814 0
M  V30 7335 O 695.712 0.237942 -2.27258 0
M  V30 7336 C 695.922 -3.21298 -1.36266 0
M  V30 7337 C 697.27 -3.83955 -1.81283 0
M  V30 7338 O 698.294 -3.24934 -1.45933 0
M  V30 7339 O 697.153 -4.87707 -2.46585 0
M  V30 7340 H 694.247 -0.721308 -0.404529 0
M  V30 7341 H 696.793 -1.69423 -0.0968756 0
M  V30 7342 H 695.565 -3.87355 -0.554235 0
M  V30 7343 H 695.188 -3.32552 -2.17933 0
M  V30 7344 N 696.185 0.383891 -1.52853 0
M  V30 7345 C 697.132 1.46924 -1.77995 0
M  V30 7346 C 698.102 1.53958 -0.623396 0
M  V30 7347 O 699.287 1.70134 -0.863657 0
M  V30 7348 C 696.427 2.84093 -1.95921 0
M  V30 7349 C 695.54 2.86171 -3.23621 0
M  V30 7350 C 694.675 4.14799 -3.31836 0
M  V30 7351 C 693.714 4.10948 -4.53639 0
M  V30 7352 N 692.851 5.31192 -4.59107 0
M  V30 7353 H 697.691 1.24786 -2.70615 0
M  V30 7354 H 695.228 0.605265 -1.34071 0
M  V30 7355 H 697.186 3.63755 -2.04299 0
M  V30 7356 H 695.816 3.04671 -1.06656 0
M  V30 7357 H 694.868 1.9885 -3.24288 0
M  V30 7358 H 696.18 2.79194 -4.13343 0
M  V30 7359 H 695.334 5.02867 -3.39425 0
M  V30 7360 H 694.073 4.24505 -2.40097 0
M  V30 7361 H 693.078 3.21268 -4.46169 0
M  V30 7362 H 694.303 4.0286 -5.467 0
M  V30 7363 H 692.249 5.41518 -3.70262 0
M  V30 7364 H 692.166 5.26311 -5.42708 0
M  V30 7365 H 693.434 6.21143 -4.70958 0
M  V30 7366 N 697.663 1.43903 0.642637 0
M  V30 7367 C 698.912 1.45362 1.39831 0
M  V30 7368 C 699.225 0.0856289 1.95412 0
M  V30 7369 O 700.431 -0.0222856 2.71491 0
M  V30 7370 C 698.887 2.55857 2.53111 0
M  V30 7371 C 698.495 3.98811 2.04092 0
M  V30 7372 C 700.239 2.66524 3.30402 0
M  V30 7373 C 698.146 5.00751 3.14647 0
M  V30 7374 H 697.076 0.540777 0.52543 0
M  V30 7375 H 699.727 1.69929 0.692559 0
M  V30 7376 H 698.109 2.2451 3.26207 0
M  V30 7377 H 699.283 4.3967 1.37938 0
M  V30 7378 H 697.598 3.92284 1.39651 0
M  V30 7379 H 700.195 3.39858 4.12796 0
M  V30 7380 H 700.538 1.71949 3.79129 0
M  V30 7381 H 701.071 2.97224 2.64392 0
M  V30 7382 H 697.81 5.96914 2.70876 0
M  V30 7383 H 697.33 4.64495 3.79479 0
M  V30 7384 H 699.009 5.23933 3.79609 0
M  V30 7385 N 699.141 -0.881989 1.30609 0
M  V30 7386 C 700.089 -2.00942 1.17155 0
M  V30 7387 C 701.083 -1.69198 0.0827154 0
M  V30 7388 O 702.289 -1.78342 0.243775 0
M  V30 7389 H 698.664 -0.658913 0.362406 0
M  V30 7390 H 700.635 -2.09423 2.12567 0
M  V30 7391 C 699.384 -3.36294 0.883273 0
M  V30 7392 H 698.707 -3.61233 1.7132 0
M  V30 7393 H 700.147 -4.15812 0.829255 0
M  V30 7394 C 698.606 -3.34348 -0.413851 0
M  V30 7395 O 699.136 -3.75216 -1.43444 0
M  V30 7396 N 697.342 -2.87459 -0.426082 0
M  V30 7397 H 696.889 -2.54397 0.40493 0
M  V30 7398 H 696.847 -2.8654 -1.29391 0
M  V30 7399 N 700.619 -1.13374 -1.09472 0
M  V30 7400 C 701.867 -0.893422 -1.8128 0
M  V30 7401 C 702.188 0.582029 -1.86111 0
M  V30 7402 O 701.458 1.42305 -1.34633 0
M  V30 7403 H 700.038 -0.327543 -0.67136 0
M  V30 7404 H 702.7 -1.43018 -1.32408 0
M  V30 7405 H 701.796 -1.28374 -2.84476 0
M  V30 7406 N 702.098 1.27442 -0.927168 0
M  V30 7407 C 703.046 2.28844 -0.416333 0
M  V30 7408 C 704.04 1.61882 0.499057 0
M  V30 7409 O 705.246 1.75969 0.378817 0
M  V30 7410 H 701.621 0.742989 -0.116065 0
M  V30 7411 H 703.592 2.69344 -1.28438 0
M  V30 7412 C 702.341 3.4626 0.316107 0
M  V30 7413 H 701.664 3.97999 -0.379082 0
M  V30 7414 H 703.104 4.19173 0.637975 0
M  V30 7415 C 701.563 3.00211 1.5289 0
M  V30 7416 O 702.093 3.03837 2.62766 0
M  V30 7417 N 700.299 2.55713 1.38054 0
M  V30 7418 H 699.846 2.52962 0.4866 0
M  V30 7419 H 699.804 2.25264 2.19325 0
M  V30 7420 N 703.576 0.692616 1.41565 0
M  V30 7421 C 704.816 0.226453 2.03142 0
M  V30 7422 C 705.18 -1.1512 1.5366 0
M  V30 7423 O 706.381 -1.71305 2.07143 0
M  V30 7424 C 704.652 0.27855 3.56313 0
M  V30 7425 S 706.211 -0.114001 4.38652 0
M  V30 7426 H 703.029 0.0914767 0.705091 0
M  V30 7427 H 705.631 0.909737 1.73043 0
M  V30 7428 H 704.335 1.28325 3.89821 0
M  V30 7429 H 703.866 -0.423981 3.91109 0
M  V30 7430 H 705.881 -1.34256 4.77692 0
M  V30 7431 N 705.054 -1.51416 0.437162 0
M  V30 7432 C 706.282 -2.06503 -0.128045 0
M  V30 7433 C 706.697 -1.30461 -1.36475 0
M  V30 7434 O 706.054 -0.364127 -1.78831 0
M  V30 7435 C 706.105 -3.58683 -0.450437 0
M  V30 7436 O 705.826 -4.31853 0.737186 0
M  V30 7437 C 707.327 -4.30284 -1.06633 0
M  V30 7438 H 704.547 -0.670952 -0.00800269 0
M  V30 7439 H 707.091 -1.94996 0.616193 0
M  V30 7440 H 705.246 -3.70106 -1.14457 0
M  V30 7441 H 705.66 -5.22467 0.461347 0
M  V30 7442 H 707.134 -5.37848 -1.24191 0
M  V30 7443 H 707.611 -3.88564 -2.0473 0
M  V30 7444 H 708.217 -4.23304 -0.411585 0
M  V30 7445 N 706.532 -0.168513 -1.56696 0
M  V30 7446 C 707.78 0.476216 -1.96409 0
M  V30 7447 C 708.101 1.63968 -1.05544 0
M  V30 7448 O 707.371 1.95525 -0.121235 0
M  V30 7449 H 705.951 0.178921 -0.725256 0
M  V30 7450 H 708.613 -0.249042 -1.93302 0
M  V30 7451 H 707.709 0.838094 -3.00637 0
M  V30 7452 N 708.01 1.57248 0.105221 0
M  V30 7453 C 709.259 1.84756 0.809198 0
M  V30 7454 C 709.572 0.756262 1.80389 0
M  V30 7455 O 710.778 0.918158 2.55504 0
M  V30 7456 C 709.234 3.27613 1.48989 0
M  V30 7457 C 708.842 4.44788 0.535484 0
M  V30 7458 C 710.586 3.64356 2.17819 0
M  V30 7459 C 708.493 5.78676 1.22019 0
M  V30 7460 H 707.423 0.689139 0.305946 0
M  V30 7461 H 710.074 1.83395 0.0620371 0
M  V30 7462 H 708.456 3.23485 2.28415 0
M  V30 7463 H 709.63 4.60243 -0.226557 0
M  V30 7464 H 707.945 4.16374 -0.0465769 0
M  V30 7465 H 710.542 4.61663 2.69761 0
M  V30 7466 H 710.885 2.92474 2.96251 0
M  V30 7467 H 711.418 3.70328 1.45264 0
M  V30 7468 H 708.157 6.53763 0.476875 0
M  V30 7469 H 707.677 5.67083 1.9539 0
M  V30 7470 H 709.356 6.22897 1.74952 0
M  V30 7471 N 709.488 -0.375779 1.53054 0
M  V30 7472 C 710.435 -1.45978 1.78771 0
M  V30 7473 C 711.405 -1.53625 0.631552 0
M  V30 7474 O 712.59 -1.69674 0.872667 0
M  V30 7475 C 709.73 -2.8305 1.97425 0
M  V30 7476 C 708.843 -2.84451 3.25134 0
M  V30 7477 C 707.978 -4.13034 3.34031 0
M  V30 7478 C 707.017 -4.08536 4.55812 0
M  V30 7479 N 706.154 -5.2875 4.61918 0
M  V30 7480 H 710.994 -1.23349 2.71273 0
M  V30 7481 H 708.531 -0.598147 1.3439 0
M  V30 7482 H 710.489 -3.62666 2.06225 0
M  V30 7483 H 709.119 -3.04101 1.0827 0
M  V30 7484 H 708.171 -1.97127 3.25338 0
M  V30 7485 H 709.483 -2.76998 4.14818 0
M  V30 7486 H 708.637 -5.0106 3.42087 0
M  V30 7487 H 707.376 -4.23226 2.42345 0
M  V30 7488 H 706.381 -3.18897 4.47867 0
M  V30 7489 H 707.606 -3.99955 5.48828 0
M  V30 7490 H 705.552 -5.39547 3.73129 0
M  V30 7491 H 705.469 -5.23426 5.45492 0
M  V30 7492 H 706.737 -6.18637 4.74245 0
M  V30 7493 N 710.966 -1.44241 -0.634997 0
M  V30 7494 C 712.215 -1.46102 -1.39058 0
M  V30 7495 C 712.528 -0.0959909 -1.95364 0
M  V30 7496 O 713.734 0.00788751 -2.71499 0
M  V30 7497 C 712.19 -2.57195 -2.51751 0
M  V30 7498 C 711.798 -3.99888 -2.01974 0
M  V30 7499 C 713.542 -2.68272 -3.28984 0
M  V30 7500 C 711.449 -5.02412 -3.11987 0
M  V30 7501 H 710.379 -0.543556 -0.522554 0
M  V30 7502 H 713.03 -1.70294 -0.683538 0
M  V30 7503 H 711.412 -2.26237 -3.25012 0
M  V30 7504 H 712.586 -4.40396 -1.35604 0
M  V30 7505 H 710.901 -3.93019 -1.37568 0
M  V30 7506 H 713.498 -3.42042 -4.10988 0
M  V30 7507 H 713.841 -1.73957 -3.78212 0
M  V30 7508 H 714.374 -2.98622 -2.62812 0
M  V30 7509 H 711.113 -5.98342 -2.67707 0
M  V30 7510 H 710.633 -4.66501 -3.77011 0
M  V30 7511 H 712.312 -5.25939 -3.76825 0
M  V30 7512 N 712.444 0.87505 -1.31075 0
M  V30 7513 C 713.674 1.65818 -1.2324 0
M  V30 7514 C 714.082 1.8808 0.205536 0
M  V30 7515 O 713.425 1.43548 1.14628 0
M  V30 7516 C 713.487 3.05131 -1.90093 0
M  V30 7517 C 713.151 3.05999 -3.39432 0
M  V30 7518 C 714.148 2.84328 -4.35263 0
M  V30 7519 C 711.833 3.27281 -3.81041 0
M  V30 7520 C 713.827 2.83912 -5.70678 0
M  V30 7521 C 711.514 3.26493 -5.16571 0
M  V30 7522 C 712.512 3.04834 -6.112 0
M  V30 7523 O 712.2 3.03882 -7.44252 0
M  V30 7524 H 711.932 0.52387 -0.427242 0
M  V30 7525 H 714.486 1.10086 -1.73408 0
M  V30 7526 H 712.716 3.62568 -1.34468 0
M  V30 7527 H 714.405 3.65641 -1.76242 0
M  V30 7528 H 715.171 2.67673 -4.04445 0
M  V30 7529 H 711.05 3.43171 -3.07822 0
M  V30 7530 H 714.594 2.66925 -6.44513 0
M  V30 7531 H 710.491 3.42687 -5.47025 0
M  V30 7532 H 711.259 3.19979 -7.53363 0
M  V30 7533 N 713.922 1.13953 1.08869 0
M  V30 7534 C 715.168 0.906151 1.8143 0
M  V30 7535 C 715.501 -0.566089 1.85766 0
M  V30 7536 O 714.776 -1.41915 1.33006 0
M  V30 7537 C 715.059 1.50183 3.27287 0
M  V30 7538 C 714.912 3.04359 3.31189 0
M  V30 7539 C 716.231 1.17477 4.24131 0
M  V30 7540 H 713.35 0.330624 0.658678 0
M  V30 7541 H 715.992 1.40873 1.27495 0
M  V30 7542 H 714.142 1.07442 3.73348 0
M  V30 7543 H 715.814 3.55896 2.93488 0
M  V30 7544 H 714.057 3.39053 2.70602 0
M  V30 7545 H 714.728 3.41141 4.33966 0
M  V30 7546 H 717.204 1.5442 3.86385 0
M  V30 7547 H 716.08 1.61795 5.24513 0
M  V30 7548 H 716.341 0.0893312 4.4201 0
M  V30 7549 N 715.4 -1.26948 0.933913 0
M  V30 7550 C 716.625 -1.98724 0.593589 0
M  V30 7551 C 717.05 -1.6915 -0.822801 0
M  V30 7552 O 716.408 -0.93533 -1.5531 0
M  V30 7553 C 716.456 -3.50834 0.833542 0
M  V30 7554 O 715.56 -4.12284 -0.0978788 0
M  V30 7555 H 714.901 -0.623683 0.227849 0
M  V30 7556 H 717.431 -1.61599 1.25486 0
M  V30 7557 H 717.441 -4.01018 0.75156 0
M  V30 7558 H 716.116 -3.71691 1.86597 0
M  V30 7559 H 714.693 -3.72884 0.0345443 0
M  V30 7560 N 716.879 -0.700114 -1.41195 0
M  V30 7561 C 718.156 -0.160836 -1.94938 0
M  V30 7562 C 718.536 1.33014 -1.63922 0
M  V30 7563 O 717.884 2.07878 -0.948636 0
M  V30 7564 C 718.094 -0.456991 -3.45995 0
M  V30 7565 C 719.442 -0.387207 -4.22831 0
M  V30 7566 O 720.466 -0.392164 -3.54035 0
M  V30 7567 O 719.325 -0.351267 -5.4537 0
M  V30 7568 H 716.419 -0.0176304 -0.826812 0
M  V30 7569 H 718.965 -0.776586 -1.50888 0
M  V30 7570 H 717.737 -1.48884 -3.61869 0
M  V30 7571 H 717.36 0.189503 -3.97148 0
M  V30 7572 N 718.357 1.51182 -0.445186 0
M  V30 7573 C 719.634 1.9478 0.178965 0
M  V30 7574 C 720.014 1.38428 1.59376 0
M  V30 7575 O 719.362 0.574552 2.21159 0
M  V30 7576 C 719.572 3.48683 0.148711 0
M  V30 7577 C 720.92 4.23152 0.35042 0
M  V30 7578 O 721.944 3.55479 0.226474 0
M  V30 7579 O 720.803 5.4322 0.597893 0
M  V30 7580 H 717.897 0.817387 0.12573 0
M  V30 7581 H 720.443 1.62051 -0.503729 0
M  V30 7582 H 719.215 3.82176 -0.84009 0
M  V30 7583 H 718.838 3.87875 0.873979 0
M  V30 7584 N 719.835 0.176821 1.56605 0
M  V30 7585 C 721.083 -0.465793 1.96659 0
M  V30 7586 C 721.404 -1.63406 1.06412 0
M  V30 7587 O 720.674 -1.95457 0.131603 0
M  V30 7588 H 719.254 -0.175072 0.726195 0
M  V30 7589 H 721.916 0.25929 1.93168 0
M  V30 7590 H 721.012 -0.822138 3.01077 0
M  V30 7591 N 721.313 -1.57302 -0.09688 0
M  V30 7592 C 722.26 -2.01933 -1.11766 0
M  V30 7593 C 723.23 -0.895329 -1.39904 0
M  V30 7594 O 724.415 -1.16119 -1.51397 0
M  V30 7595 C 721.555 -2.44726 -2.43317 0
M  V30 7596 C 720.668 -3.70639 -2.21925 0
M  V30 7597 C 719.803 -4.02318 -3.46862 0
M  V30 7598 C 718.842 -5.21346 -3.20725 0
M  V30 7599 N 717.979 -5.48787 -4.37924 0
M  V30 7600 H 722.819 -2.88919 -0.730075 0
M  V30 7601 H 720.356 -1.42901 -0.348962 0
M  V30 7602 H 722.314 -2.6758 -3.20088 0
M  V30 7603 H 720.944 -1.60753 -2.79926 0
M  V30 7604 H 719.996 -3.55271 -1.35965 0
M  V30 7605 H 721.308 -4.57557 -1.98603 0
M  V30 7606 H 720.462 -4.25939 -4.32042 0
M  V30 7607 H 719.201 -3.13918 -3.73238 0
M  V30 7608 H 718.206 -4.97547 -2.33938 0
M  V30 7609 H 719.431 -6.11343 -2.95697 0
M  V30 7610 H 717.377 -4.63346 -4.64378 0
M  V30 7611 H 717.294 -6.30073 -4.17785 0
M  V30 7612 H 718.562 -5.76943 -5.24173 0
M  V30 7613 N 722.791 0.367657 -1.53252 0
M  V30 7614 C 723.754 1.43308 -1.78873 0
M  V30 7615 C 724.754 1.46671 -0.659115 0
M  V30 7616 O 725.944 1.47468 -0.927306 0
M  V30 7617 C 723.076 2.82442 -1.90892 0
M  V30 7618 H 724.269 1.21864 -2.74024 0
M  V30 7619 H 721.822 0.600668 -1.44297 0
M  V30 7620 H 722.557 3.09202 -0.978 0
M  V30 7621 H 722.342 2.81399 -2.73051 0
M  V30 7622 H 723.832 3.59601 -2.12314 0
M  V30 7623 N 724.269 1.44576 0.627338 0
M  V30 7624 C 725.219 1.48168 1.73293 0
M  V30 7625 C 726.203 0.347045 1.57113 0
M  V30 7626 O 727.395 0.592605 1.66785 0
M  V30 7627 C 724.524 1.43236 3.11991 0
M  V30 7628 C 723.61 2.61828 3.33627 0
M  V30 7629 N 724.001 3.87053 3.25612 0
M  V30 7630 C 722.299 2.57104 3.64436 0
M  V30 7631 C 723 4.66093 3.48041 0
M  V30 7632 N 721.976 3.97228 3.71095 0
M  V30 7633 H 725.778 2.42832 1.6556 0
M  V30 7634 H 723.292 1.39592 0.829934 0
M  V30 7635 H 725.289 1.43893 3.91281 0
M  V30 7636 H 723.949 0.496133 3.20887 0
M  V30 7637 H 724.96 4.18966 3.04447 0
M  V30 7638 H 721.637 1.72295 3.8029 0
M  V30 7639 H 723.027 5.75117 3.47404 0
M  V30 7640 N 725.747 -0.868086 1.31537 0
M  V30 7641 C 726.994 -1.62127 1.2133 0
M  V30 7642 C 727.322 -1.93158 -0.2281 0
M  V30 7643 O 726.577 -1.5632 -1.1774 0
M  V30 7644 C 726.876 -2.95889 2.0046 0
M  V30 7645 C 726.542 -2.84343 3.49943 0
M  V30 7646 C 725.204 -2.80901 3.90702 0
M  V30 7647 C 727.556 -2.71243 4.45058 0
M  V30 7648 C 724.884 -2.6222 5.24841 0
M  V30 7649 C 727.236 -2.54098 5.79325 0
M  V30 7650 C 725.9 -2.4904 6.19302 0
M  V30 7651 H 725.17 -0.593265 0.443979 0
M  V30 7652 H 727.817 -1.00803 1.62822 0
M  V30 7653 H 726.122 -3.61259 1.51655 0
M  V30 7654 H 727.819 -3.53161 1.89942 0
M  V30 7655 H 724.409 -2.8784 3.17563 0
M  V30 7656 H 728.593 -2.72956 4.14498 0
M  V30 7657 H 723.849 -2.56731 5.54887 0
M  V30 7658 H 728.023 -2.42938 6.52652 0
M  V30 7659 H 725.65 -2.34324 7.23185 0
M  V30 7660 N 727.225 -1.14528 -1.08264 0
M  V30 7661 C 728.45 -0.938381 -1.84957 0
M  V30 7662 C 728.875 0.508044 -1.81109 0
M  V30 7663 O 728.233 1.36146 -1.19724 0
M  V30 7664 C 728.281 -1.44568 -3.30352 0
M  V30 7665 O 727.385 -0.638745 -4.07423 0
M  V30 7666 H 726.726 -0.335394 -0.573068 0
M  V30 7667 H 729.256 -1.52287 -1.36637 0
M  V30 7668 H 729.266 -1.45449 -3.81194 0
M  V30 7669 H 727.941 -2.49876 -3.32468 0
M  V30 7670 H 726.518 -0.698801 -3.66294 0
M  V30 7671 N 728.703 1.26451 -0.940633 0
M  V30 7672 C 729.952 1.93071 -0.583656 0
M  V30 7673 C 730.265 1.74618 0.881366 0
M  V30 7674 O 731.471 2.35689 1.34769 0
M  V30 7675 C 729.927 3.45927 -0.993106 0
M  V30 7676 C 729.535 3.73115 -2.4797 0
M  V30 7677 C 731.279 4.18554 -0.707998 0
M  V30 7678 C 729.186 5.19408 -2.82788 0
M  V30 7679 H 728.116 0.722824 -0.214572 0
M  V30 7680 H 730.767 1.43538 -1.1432 0
M  V30 7681 H 729.149 3.94341 -0.362099 0
M  V30 7682 H 730.323 3.35408 -3.15971 0
M  V30 7683 H 728.638 3.13719 -2.73805 0
M  V30 7684 H 731.235 5.26293 -0.94447 0
M  V30 7685 H 731.578 4.14782 0.355225 0
M  V30 7686 H 732.111 3.76003 -1.2987 0
M  V30 7687 H 728.85 5.28281 -3.88071 0
M  V30 7688 H 728.37 5.58214 -2.19449 0
M  V30 7689 H 730.049 5.87407 -2.71224 0
M  V30 7690 N 730.181 0.707592 1.40822 0
M  V30 7691 C 731.406 0.251626 2.05868 0
M  V30 7692 C 731.831 -1.09503 1.5294 0
M  V30 7693 O 731.189 -1.68806 0.661385 0
M  V30 7694 C 731.237 0.23287 3.59847 0
M  V30 7695 O 730.341 -0.788477 4.04792 0
M  V30 7696 H 729.682 0.119936 0.653078 0
M  V30 7697 H 732.212 0.96583 1.80369 0
M  V30 7698 H 732.222 0.0678204 4.07944 0
M  V30 7699 H 730.897 1.21565 3.97737 0
M  V30 7700 H 729.474 -0.591802 3.68174 0
M  V30 7701 N 731.66 -1.50943 0.453197 0
M  V30 7702 C 732.608 -2.29728 -0.364419 0
M  V30 7703 C 733.602 -1.36246 -1.00664 0
M  V30 7704 O 734.808 -1.53518 -0.939794 0
M  V30 7705 H 731.183 -0.739536 -0.136347 0
M  V30 7706 H 733.154 -2.96672 0.320696 0
M  V30 7707 C 731.903 -3.1629 -1.44415 0
M  V30 7708 H 731.226 -3.88119 -0.959343 0
M  V30 7709 H 732.666 -3.74444 -1.98917 0
M  V30 7710 C 731.125 -2.32702 -2.43622 0
M  V30 7711 O 731.655 -1.99763 -3.48508 0
M  V30 7712 N 729.861 -1.95621 -2.14897 0
M  V30 7713 H 729.408 -2.22607 -1.29629 0
M  V30 7714 H 729.366 -1.39993 -2.81513 0
M  V30 7715 N 733.138 -0.185124 -1.56509 0
M  V30 7716 C 734.363 0.465278 -2.02114 0
M  V30 7717 C 734.788 1.55083 -1.06447 0
M  V30 7718 O 734.146 1.81241 -0.0462852 0
M  V30 7719 C 734.194 1.00784 -3.46229 0
M  V30 7720 O 733.298 2.12123 -3.53663 0
M  V30 7721 H 732.639 0.109891 -0.654843 0
M  V30 7722 H 735.169 -0.293072 -2.0249 0
M  V30 7723 H 735.179 1.32697 -3.85818 0
M  V30 7724 H 733.854 0.213113 -4.15354 0
M  V30 7725 H 732.431 1.8115 -3.25943 0
M  V30 7726 N 734.616 1.57351 0.0885366 0
M  V30 7727 C 735.579 2.01557 1.09121 0
M  V30 7728 C 736.579 0.910052 1.3257 0
M  V30 7729 O 737.769 1.17537 1.28572 0
M  V30 7730 C 734.901 2.38189 2.43883 0
M  V30 7731 H 736.094 2.91361 0.710562 0
M  V30 7732 H 733.647 1.52694 0.333779 0
M  V30 7733 H 734.382 1.5136 2.86811 0
M  V30 7734 H 734.167 3.18846 2.28209 0
M  V30 7735 H 735.657 2.73025 3.15986 0
M  V30 7736 N 736.094 -0.359525 1.53444 0
M  V30 7737 C 737.004 -1.46445 1.83278 0
M  V30 7738 C 738.02 -1.5833 0.721629 0
M  V30 7739 O 739.196 -1.7411 1.01231 0
M  V30 7740 C 736.261 -2.81638 2.02191 0
M  V30 7741 C 735.322 -2.7923 3.26082 0
M  V30 7742 C 734.555 -4.07974 3.44082 0
M  V30 7743 O 734.778 -5.04447 2.66251 0
M  V30 7744 O 733.712 -4.13417 4.37458 0
M  V30 7745 H 737.538 -1.24156 2.77162 0
M  V30 7746 H 735.123 -0.550201 1.389 0
M  V30 7747 H 737.005 -3.61732 2.16167 0
M  V30 7748 H 735.68 -3.03892 1.11496 0
M  V30 7749 H 734.587 -1.97813 3.17523 0
M  V30 7750 H 735.92 -2.6193 4.16718 0
M  V30 7751 N 737.572 -1.44907 -0.619662 0
M  V30 7752 C 738.849 -1.38766 -1.37852 0
M  V30 7753 C 739.229 -0.0521393 -2.11036 0
M  V30 7754 O 738.577 0.965613 -2.07095 0
M  V30 7755 C 738.787 -2.59344 -2.33541 0
M  V30 7756 C 740.135 -3.03909 -2.96521 0
M  V30 7757 O 741.159 -2.59631 -2.43865 0
M  V30 7758 O 740.018 -3.80713 -3.92071 0
M  V30 7759 H 737.112 -0.550083 -0.617525 0
M  V30 7760 H 739.658 -1.57015 -0.643759 0
M  V30 7761 H 738.43 -3.48142 -1.78642 0
M  V30 7762 H 738.053 -2.43367 -3.14417 0
M  V30 7763 N 739.05 0.861098 -1.31996 0
M  V30 7764 C 740.461 1.43065 -1.19955 0
M  V30 7765 C 740.812 1.95273 0.190489 0
M  V30 7766 O 739.937 1.87012 1.08882 0
M  V30 7767 C 740.532 2.60052 -2.1716 0
M  V30 7768 C 739.091 3.13026 -2.09026 0
M  V30 7769 C 738.238 1.85756 -2.05888 0
M  V30 7770 H 741.189 0.668834 -1.43918 0
M  V30 7771 H 741.21 3.37016 -1.76637 0
M  V30 7772 H 740.722 2.22024 -3.18319 0
M  V30 7773 H 738.823 3.55653 -1.11092 0
M  V30 7774 H 738.936 3.74707 -2.98549 0
M  V30 7775 H 737.3 2.05088 -1.51033 0
M  V30 7776 H 738.083 1.49954 -3.08818 0
M  V30 7777 N 740.528 1.15101 1.07655 0
M  V30 7778 C 741.775 0.923974 1.80191 0
M  V30 7779 C 742.103 -0.549065 1.86589 0
M  V30 7780 O 741.358 -1.42307 1.3434 0
M  V30 7781 C 741.657 1.47954 3.25337 0
M  V30 7782 C 741.323 2.97253 3.39044 0
M  V30 7783 C 739.985 3.38012 3.42493 0
M  V30 7784 C 742.337 3.93219 3.42094 0
M  V30 7785 C 739.665 4.73384 3.4659 0
M  V30 7786 C 742.017 5.28458 3.47728 0
M  V30 7787 C 740.681 5.68717 3.49453 0
M  V30 7788 H 739.951 0.338106 0.659367 0
M  V30 7789 H 742.598 1.43594 1.26701 0
M  V30 7790 H 740.903 0.888691 3.81588 0
M  V30 7791 H 742.6 1.27972 3.80032 0
M  V30 7792 H 739.19 2.64746 3.37057 0
M  V30 7793 H 743.374 3.62805 3.38654 0
M  V30 7794 H 738.63 5.03925 3.46222 0
M  V30 7795 H 742.804 6.02618 3.49034 0
M  V30 7796 H 740.431 6.73596 3.5238 0
M  V30 7797 N 742.006 -1.2595 0.947325 0
M  V30 7798 C 743.255 -1.92759 0.593887 0
M  V30 7799 C 743.568 -1.75083 -0.872093 0
M  V30 7800 O 744.774 -2.36401 -1.33518 0
M  V30 7801 C 743.23 -3.45395 1.01144 0
M  V30 7802 C 742.838 -3.71795 2.49946 0
M  V30 7803 C 744.582 -4.18173 0.730185 0
M  V30 7804 C 742.489 -5.17901 2.85539 0
M  V30 7805 H 741.419 -0.721676 0.218403 0
M  V30 7806 H 744.07 -1.4293 1.15079 0
M  V30 7807 H 742.452 -3.94143 0.383007 0
M  V30 7808 H 743.626 -3.33728 3.17746 0
M  V30 7809 H 741.941 -3.12263 2.75465 0
M  V30 7810 H 744.538 -5.25784 0.972367 0
M  V30 7811 H 744.881 -4.14964 -0.333223 0
M  V30 7812 H 745.414 -3.75309 1.31862 0
M  V30 7813 H 742.153 -5.26216 3.90867 0
M  V30 7814 H 741.673 -5.57042 2.22406 0
M  V30 7815 H 743.352 -5.8596 2.74336 0
M  V30 7816 N 743.484 -0.715051 -1.40445 0
M  V30 7817 C 744.447 -0.0708726 -2.2909 0
M  V30 7818 C 745.447 0.687926 -1.45342 0
M  V30 7819 O 746.637 0.519908 -1.66261 0
M  V30 7820 C 743.769 0.909528 -3.28543 0
M  V30 7821 H 744.962 -0.851611 -2.87555 0
M  V30 7822 H 742.515 -0.479674 -1.48758 0
M  V30 7823 H 743.25 1.71734 -2.75096 0
M  V30 7824 H 743.035 0.368318 -3.90366 0
M  V30 7825 H 744.525 1.35744 -3.94922 0
M  V30 7826 N 744.962 1.50701 -0.461195 0
M  V30 7827 C 746.211 2.01458 0.0988277 0
M  V30 7828 C 746.524 1.34863 1.41673 0
M  V30 7829 O 747.73 1.76721 2.06111 0
M  V30 7830 C 746.186 3.59186 0.226648 0
M  V30 7831 C 745.794 4.34732 -1.08223 0
M  V30 7832 C 747.538 4.18015 0.73916 0
M  V30 7833 C 745.445 5.8422 -0.918747 0
M  V30 7834 H 744.375 0.7529 0.040709 0
M  V30 7835 H 747.026 1.736 -0.594589 0
M  V30 7836 H 745.408 3.83589 0.983621 0
M  V30 7837 H 746.582 4.22059 -1.84939 0
M  V30 7838 H 744.897 3.87466 -1.52509 0
M  V30 7839 H 747.494 5.27436 0.878347 0
M  V30 7840 H 747.837 3.78746 1.72793 0
M  V30 7841 H 748.37 3.9778 0.0398469 0
M  V30 7842 H 745.109 6.27944 -1.88059 0
M  V30 7843 H 744.629 5.99493 -0.191801 0
M  V30 7844 H 746.308 6.44382 -0.581405 0
M  V30 7845 N 746.441 0.193421 1.56409 0
M  V30 7846 C 747.391 -0.74089 2.15627 0
M  V30 7847 C 748.375 -1.17747 1.09656 0
M  V30 7848 O 749.567 -1.13615 1.35723 0
M  V30 7849 C 746.696 -1.96091 2.81786 0
M  V30 7850 C 745.782 -1.54531 3.94944 0
M  V30 7851 N 746.173 -0.840569 4.98767 0
M  V30 7852 C 744.471 -1.83473 4.06514 0
M  V30 7853 C 745.172 -0.632571 5.7825 0
M  V30 7854 N 744.148 -1.18078 5.30621 0
M  V30 7855 H 747.95 -0.193718 2.93261 0
M  V30 7856 H 745.464 -0.00643211 1.62399 0
M  V30 7857 H 747.461 -2.64071 3.22602 0
M  V30 7858 H 746.121 -2.51282 2.05639 0
M  V30 7859 H 747.132 -0.496218 5.15517 0
M  V30 7860 H 743.809 -2.40184 3.41493 0
M  V30 7861 H 745.199 -0.0736433 6.7186 0
M  V30 7862 N 747.919 -1.57396 -0.0801906 0
M  V30 7863 C 748.882 -2.02133 -1.0805 0
M  V30 7864 C 749.882 -0.91707 -1.32085 0
M  V30 7865 O 751.072 -1.18217 -1.27947 0
M  V30 7866 C 748.204 -2.39479 -2.42616 0
M  V30 7867 H 749.397 -2.91733 -0.6951 0
M  V30 7868 H 746.95 -1.52869 -0.325677 0
M  V30 7869 H 747.685 -1.52879 -2.86004 0
M  V30 7870 H 747.47 -3.20052 -2.26515 0
M  V30 7871 H 748.96 -2.74697 -3.14534 0
M  V30 7872 N 749.397 0.351382 -1.53633 0
M  V30 7873 C 750.307 1.45471 -1.84052 0
M  V30 7874 C 751.323 1.57945 -0.730015 0
M  V30 7875 O 752.499 1.73571 -1.02153 0
M  V30 7876 C 749.564 2.80562 -2.03681 0
M  V30 7877 C 748.625 2.77497 -3.27558 0
M  V30 7878 C 747.858 4.06144 -3.46241 0
M  V30 7879 O 748.081 5.03028 -2.68922 0
M  V30 7880 O 747.015 4.11092 -4.39645 0
M  V30 7881 H 750.841 1.22684 -2.77817 0
M  V30 7882 H 748.426 0.542827 -1.3919 0
M  V30 7883 H 750.308 3.6058 -2.18082 0
M  V30 7884 H 748.983 3.03296 -1.13106 0
M  V30 7885 H 747.89 1.96126 -3.18568 0
M  V30 7886 H 749.223 2.59716 -4.18101 0
M  V30 7887 N 750.875 1.45233 0.611969 0
M  V30 7888 C 752.1 1.52767 1.40274 0
M  V30 7889 C 752.525 0.159701 1.87421 0
M  V30 7890 O 751.883 -0.854837 1.59882 0
M  V30 7891 C 751.931 2.51286 2.58626 0
M  V30 7892 O 751.035 2.02764 3.59111 0
M  V30 7893 H 750.376 0.515141 0.418958 0
M  V30 7894 H 752.906 1.90547 0.745188 0
M  V30 7895 H 752.916 2.69949 3.05927 0
M  V30 7896 H 751.591 3.50641 2.23659 0
M  V30 7897 H 750.168 1.93957 3.18489 0
M  V30 7898 N 752.353 -0.854086 1.3245 0
M  V30 7899 C 753.3 -1.96271 1.21434 0
M  V30 7900 C 754.27 -1.6582 0.0963851 0
M  V30 7901 O 755.455 -1.88851 0.27203 0
M  V30 7902 C 752.595 -3.31939 0.943952 0
M  V30 7903 C 751.708 -3.74885 2.14675 0
M  V30 7904 C 750.843 -4.99347 1.81179 0
M  V30 7905 C 749.882 -5.34785 2.97777 0
M  V30 7906 N 749.019 -6.50425 2.6437 0
M  V30 7907 H 753.859 -2.05025 2.16261 0
M  V30 7908 H 751.396 -1.00348 1.07558 0
M  V30 7909 H 753.354 -4.10076 0.767675 0
M  V30 7910 H 751.984 -3.22784 0.0324763 0
M  V30 7911 H 751.036 -2.92396 2.43328 0
M  V30 7912 H 752.348 -3.97068 3.01891 0
M  V30 7913 H 751.502 -5.85193 1.60107 0
M  V30 7914 H 750.241 -4.79101 0.911777 0
M  V30 7915 H 749.246 -4.47451 3.1948 0
M  V30 7916 H 750.471 -5.56988 3.88511 0
M  V30 7917 H 748.417 -6.31695 1.7691 0
M  V30 7918 H 748.334 -6.7263 3.45116 0
M  V30 7919 H 749.602 -7.39422 2.46729 0
M  V30 7920 N 753.831 -1.1567 -1.07043 0
M  V30 7921 C 754.761 -0.879348 -2.16309 0
M  V30 7922 C 755.742 0.171311 -1.69235 0
M  V30 7923 O 756.927 0.0250175 -1.94184 0
M  V30 7924 C 754.057 -0.371307 -3.45309 0
M  V30 7925 C 753.011 -1.359 -4.05851 0
M  V30 7926 C 752.337 -0.709678 -5.29969 0
M  V30 7927 C 753.637 -2.72606 -4.45514 0
M  V30 7928 H 755.331 -1.79308 -2.39768 0
M  V30 7929 H 752.877 -0.863558 -1.15233 0
M  V30 7930 H 754.83 -0.164798 -4.21078 0
M  V30 7931 H 753.554 0.577906 -3.21446 0
M  V30 7932 H 752.213 -1.55193 -3.32131 0
M  V30 7933 H 751.861 0.245782 -5.02399 0
M  V30 7934 H 751.561 -1.36886 -5.71433 0
M  V30 7935 H 753.085 -0.513015 -6.08441 0
M  V30 7936 H 754.499 -2.57141 -5.12398 0
M  V30 7937 H 752.896 -3.34927 -4.97939 0
M  V30 7938 H 753.966 -3.28434 -3.56734 0
M  V30 7939 O 755.348 1.19707 -1.08409 0
M  V30 7940 H 756.039 1.77498 -0.775504 0
M  V30 END ATOM
M  V30 BEGIN BOND
M  V30 END BOND
M  V30 END CTAB
M  END
$$$$
