drugbank_target|P04839 Cytochrome b-245 heavy chain (DB00514)
 OpenBabel12092121003D

  0  0  0     0  0            999 V3000
M  V30 BEGIN CTAB
M  V30 COUNTS 9224 9356 0 0 0
M  V30 BEGIN ATOM
M  V30 1 H -0.908 1.98254 -0.117106 0
M  V30 2 N 0 1.576 0 0
M  V30 3 C 0.933 2.03868 1.02534 0
M  V30 4 C 1.911 0.928543 1.3348 0
M  V30 5 O 3.095 1.19667 1.45644 0
M  V30 6 C 0.222 2.43627 2.35294 0
M  V30 7 C -0.732 3.65373 2.2001 0
M  V30 8 S 0.101 5.13292 1.52614 0
M  V30 9 C 1.257 5.56322 2.86805 0
M  V30 10 H 1.49 2.90518 0.631377 0
M  V30 11 H -0.977 1.52953 0.210867 0
M  V30 12 H 0.981 2.67203 3.11629 0
M  V30 13 H -0.358 1.57376 2.7183 0
M  V30 14 H -1.165 3.90944 3.18086 0
M  V30 15 H -1.563 3.418 1.51819 0
M  V30 16 H 0.729 5.58782 3.83104 0
M  V30 17 H 1.672 6.56266 2.65933 0
M  V30 18 H 2.08 4.83886 2.90714 0
M  V30 19 N 1.4781 -0.272755 1.55222 0
M  V30 20 C 2.7261 -1.00234 1.75492 0
M  V30 21 C 3.0471 -1.8681 0.5592 0
M  V30 22 O 2.3171 -1.91215 -0.425882 0
M  V30 23 H 0.8971 -0.373076 0.647166 0
M  V30 24 H 3.5591 -0.296926 1.92625 0
M  V30 25 H 2.6551 -1.63913 2.65592 0
M  V30 26 N 2.9562 -1.48159 -0.537278 0
M  V30 27 C 3.9042 -1.62573 -1.66352 0
M  V30 28 C 4.8982 -0.492366 -1.62087 0
M  V30 29 O 6.1042 -0.670847 -1.67032 0
M  V30 30 H 2.4792 -0.511992 -0.550789 0
M  V30 31 H 4.4502 -2.57176 -1.51337 0
M  V30 32 C 3.1992 -1.67583 -3.04649 0
M  V30 33 H 2.5222 -2.54151 -3.08622 0
M  V30 34 H 3.9622 -1.81713 -3.83088 0
M  V30 35 C 2.4212 -0.413039 -3.34358 0
M  V30 36 O 2.9512 0.477259 -3.98855 0
M  V30 37 N 1.1572 -0.286961 -2.8918 0
M  V30 38 H 0.7042 -1.01241 -2.36871 0
M  V30 39 H 0.6622 0.556963 -3.09427 0
M  V30 40 N 4.4343 0.785586 -1.36625 0
M  V30 41 C 5.6803 1.5452 -1.32269 0
M  V30 42 C 6.0353 1.92159 0.0962266 0
M  V30 43 O 5.3283 1.60158 1.05167 0
M  V30 44 C 5.5223 2.83007 -2.1827 0
M  V30 45 C 5.3513 2.57925 -3.68382 0
M  V30 46 C 4.1213 2.52752 -4.37544 0
M  V30 47 C 6.3193 2.26861 -4.61561 0
M  V30 48 N 4.3013 2.19608 -5.73276 0
M  V30 49 C 5.6723 2.03738 -5.85569 0
M  V30 50 C 7.7273 2.129 -4.50087 0
M  V30 51 C 6.4303 1.68065 -6.9939 0
M  V30 52 C 8.4563 1.78626 -5.63779 0
M  V30 53 C 7.8183 1.56353 -6.86828 0
M  V30 54 H 3.9173 0.566301 -0.539283 0
M  V30 55 H 6.5013 0.917736 -1.71714 0
M  V30 56 H 4.6723 3.43614 -1.81063 0
M  V30 57 H 6.4043 3.48775 -2.05275 0
M  V30 58 H 3.1593 2.6813 -3.90389 0
M  V30 59 H 3.5833 2.05771 -6.44971 0
M  V30 60 H 8.2253 2.28808 -3.55537 0
M  V30 61 H 5.9433 1.50895 -7.93887 0
M  V30 62 H 9.5293 1.68502 -5.56865 0
M  V30 63 H 8.4093 1.30223 -7.73312 0
M  V30 64 N 5.9124 1.20967 1.01018 0
M  V30 65 C 6.8754 0.965918 2.07853 0
M  V30 66 C 7.8754 -0.0610545 1.60684 0
M  V30 67 O 9.0654 0.175681 1.73312 0
M  V30 68 C 6.1974 0.455513 3.37843 0
M  V30 69 H 7.3904 1.91365 2.3091 0
M  V30 70 H 4.9434 1.02594 1.17916 0
M  V30 71 H 5.6784 -0.497381 3.20463 0
M  V30 72 H 5.4634 1.19622 3.73407 0
M  V30 73 H 6.9534 0.304667 4.16487 0
M  V30 74 N 7.3905 -1.2043 1.01659 0
M  V30 75 C 8.6365 -1.90079 0.706963 0
M  V30 76 C 8.9695 -1.78648 -0.761474 0
M  V30 77 O 8.2445 -1.17069 -1.55323 0
M  V30 78 C 8.5275 -3.41469 1.14327 0
M  V30 79 C 8.3805 -3.61833 2.67201 0
M  V30 80 C 9.6995 -4.34261 0.714529 0
M  V30 81 H 6.8185 -0.690254 0.2583 0
M  V30 82 H 9.4605 -1.41826 1.26433 0
M  V30 83 H 7.6105 -3.82696 0.669056 0
M  V30 84 H 9.2825 -3.2986 3.22475 0
M  V30 85 H 7.5255 -3.05304 3.08175 0
M  V30 86 H 8.1965 -4.67955 2.92783 0
M  V30 87 H 10.6725 -4.00682 1.12221 0
M  V30 88 H 9.5485 -5.38806 1.04784 0
M  V30 89 H 9.8095 -4.40431 -0.383799 0
M  V30 90 N 8.8686 -0.792821 -1.36206 0
M  V30 91 C 9.8166 -0.181555 -2.3189 0
M  V30 92 C 10.8106 0.661025 -1.55971 0
M  V30 93 O 12.0166 0.555728 -1.71206 0
M  V30 94 H 8.3916 -0.0399382 -0.750939 0
M  V30 95 H 10.3626 -1.00394 -2.81005 0
M  V30 96 C 9.1116 0.666444 -3.41253 0
M  V30 97 H 8.4346 0.0274489 -3.99791 0
M  V30 98 H 9.8746 1.06076 -4.10517 0
M  V30 99 C 8.3336 1.82614 -2.83114 0
M  V30 100 O 8.8636 2.9229 -2.75553 0
M  V30 101 N 7.0696 1.63333 -2.40356 0
M  V30 102 H 6.6166 0.741217 -2.46706 0
M  V30 103 H 6.5746 2.41087 -2.01803 0
M  V30 104 N 10.3467 1.47872 -0.545128 0
M  V30 105 C 11.2567 2.33633 0.212746 0
M  V30 106 C 12.2727 1.4744 0.923983 0
M  V30 107 O 13.4487 1.80393 0.895572 0
M  V30 108 C 10.5137 3.23884 1.23693 0
M  V30 109 C 9.5747 4.25961 0.534417 0
M  V30 110 C 8.8077 5.11899 1.5098 0
M  V30 111 O 9.0307 5.00077 2.7437 0
M  V30 112 O 7.9647 5.92831 1.0409 0
M  V30 113 H 11.7907 2.99714 -0.490416 0
M  V30 114 H 9.3757 1.46235 -0.305871 0
M  V30 115 H 11.2577 3.79666 1.82843 0
M  V30 116 H 9.9327 2.60446 1.92222 0
M  V30 117 H 8.8397 3.73972 -0.0979679 0
M  V30 118 H 10.1727 4.92079 -0.109213 0
M  V30 119 N 11.8248 0.280983 1.55075 0
M  V30 120 C 13.0728 -0.333455 1.9933 0
M  V30 121 C 13.3938 -1.55937 1.17085 0
M  V30 122 O 12.6638 -1.94143 0.261805 0
M  V30 123 H 11.2438 -0.126197 0.736263 0
M  V30 124 H 13.9058 0.387678 1.91005 0
M  V30 125 H 13.0018 -0.619292 3.05894 0
M  V30 126 N 13.3029 -1.57598 0.00835791 0
M  V30 127 C 14.2329 -2.1198 -0.979113 0
M  V30 128 C 15.2139 -1.03091 -1.35301 0
M  V30 129 O 16.3989 -1.30818 -1.43528 0
M  V30 130 C 13.5289 -2.62995 -2.26828 0
M  V30 131 C 12.4829 -3.76485 -2.03576 0
M  V30 132 C 11.8089 -4.13846 -3.38579 0
M  V30 133 C 13.1089 -5.0342 -1.39161 0
M  V30 134 H 14.8029 -2.94738 -0.526281 0
M  V30 135 H 12.3489 -1.41783 -0.251704 0
M  V30 136 H 14.3019 -2.99669 -2.96271 0
M  V30 137 H 13.0259 -1.7737 -2.7424 0
M  V30 138 H 11.6849 -3.40217 -1.36557 0
M  V30 139 H 11.3329 -3.25232 -3.83709 0
M  V30 140 H 11.0329 -4.90312 -3.23834 0
M  V30 141 H 12.5569 -4.53086 -4.09323 0
M  V30 142 H 13.9709 -5.37812 -1.98573 0
M  V30 143 H 12.3679 -5.84746 -1.34878 0
M  V30 144 H 13.4379 -4.83548 -0.361868 0
M  V30 145 N 14.781 0.264519 -1.55364 0
M  V30 146 C 16.006 1.01726 -1.80739 0
M  V30 147 C 16.431 1.78836 -0.583044 0
M  V30 148 O 15.789 1.75167 0.467566 0
M  V30 149 C 15.837 1.94482 -3.03659 0
M  V30 150 O 14.941 3.03386 -2.7934 0
M  V30 151 H 14.282 0.290395 -0.597132 0
M  V30 152 H 16.812 0.290854 -2.02522 0
M  V30 153 H 16.822 2.36278 -3.32621 0
M  V30 154 H 15.497 1.37772 -3.92418 0
M  V30 155 H 14.074 2.65844 -2.61498 0
M  V30 156 N 16.2591 1.48442 0.529413 0
M  V30 157 C 17.5081 1.55742 1.28169 0
M  V30 158 C 17.8211 0.236511 1.94165 0
M  V30 159 O 19.0271 0.187761 2.7085 0
M  V30 160 C 17.4831 2.74667 2.32564 0
M  V30 161 C 17.0911 4.13402 1.72636 0
M  V30 162 C 18.8351 2.9128 3.08798 0
M  V30 163 C 16.7421 5.23587 2.74975 0
M  V30 164 H 15.6721 0.579796 0.48203 0
M  V30 165 H 18.3231 1.74776 0.559056 0
M  V30 166 H 16.7051 2.49067 3.07866 0
M  V30 167 H 17.8791 4.49022 1.03519 0
M  V30 168 H 16.1941 4.0191 1.08892 0
M  V30 169 H 18.7911 3.70767 3.85274 0
M  V30 170 H 19.1341 2.00757 3.64695 0
M  V30 171 H 19.6671 3.16782 2.40611 0
M  V30 172 H 16.4061 6.16076 2.23897 0
M  V30 173 H 15.9261 4.92454 3.42417 0
M  V30 174 H 17.6051 5.51724 3.37949 0
M  V30 175 N 17.7372 -0.778329 1.37039 0
M  V30 176 C 18.9842 -1.53665 1.31884 0
M  V30 177 C 19.3122 -1.9425 -0.0986303 0
M  V30 178 O 18.5672 -1.63832 -1.07041 0
M  V30 179 C 18.8662 -2.81845 2.19768 0
M  V30 180 C 18.5322 -2.60345 3.68146 0
M  V30 181 C 17.1942 -2.5419 4.08584 0
M  V30 182 C 19.5462 -2.40923 4.62175 0
M  V30 183 C 16.8742 -2.26594 5.41177 0
M  V30 184 C 19.2262 -2.14852 5.94997 0
M  V30 185 C 17.8902 -2.07137 6.34547 0
M  V30 186 H 17.1602 -0.562299 0.482598 0
M  V30 187 H 19.8072 -0.897069 1.69189 0
M  V30 188 H 18.1122 -3.50328 1.75436 0
M  V30 189 H 19.8092 -3.39692 2.13097 0
M  V30 190 H 16.3992 -2.65996 3.36072 0
M  V30 191 H 20.5832 -2.44673 4.31797 0
M  V30 192 H 15.8392 -2.19111 5.70789 0
M  V30 193 H 20.0132 -1.98822 6.67415 0
M  V30 194 H 17.6402 -1.85518 7.37216 0
M  V30 195 N 19.2153 -1.21501 -1.00376 0
M  V30 196 C 20.4613 -1.03452 -1.74429 0
M  V30 197 C 20.7943 0.430764 -1.89362 0
M  V30 198 O 20.0693 1.31962 -1.42886 0
M  V30 199 C 20.3523 -1.73375 -3.15615 0
M  V30 200 C 20.2053 -3.27431 -3.08397 0
M  V30 201 C 21.5243 -1.47732 -4.14564 0
M  V30 202 H 18.6433 -0.377226 -0.633143 0
M  V30 203 H 21.2853 -1.49693 -1.17013 0
M  V30 204 H 19.4353 -1.34064 -3.64636 0
M  V30 205 H 21.1073 -3.76119 -2.67081 0
M  V30 206 H 19.3503 -3.5767 -2.45468 0
M  V30 207 H 20.0213 -3.71524 -4.08258 0
M  V30 208 H 22.4973 -1.8186 -3.74254 0
M  V30 209 H 21.3733 -1.99169 -5.11491 0
M  V30 210 H 21.6343 -0.407589 -4.40217 0
M  V30 211 N 20.6934 1.19889 -1.02296 0
M  V30 212 C 21.9424 1.88743 -0.711257 0
M  V30 213 C 22.2554 1.80112 0.762817 0
M  V30 214 O 23.4614 2.44161 1.18733 0
M  V30 215 C 21.9174 3.38525 -1.22185 0
M  V30 216 C 21.5254 3.55727 -2.72328 0
M  V30 217 C 23.2694 4.12893 -0.985864 0
M  V30 218 C 21.1764 4.99369 -3.16835 0
M  V30 219 H 20.1064 0.706885 -0.262353 0
M  V30 220 H 22.7574 1.35586 -1.23648 0
M  V30 221 H 21.1394 3.91044 -0.624571 0
M  V30 222 H 22.3134 3.13564 -3.3766 0
M  V30 223 H 20.6284 2.94739 -2.9414 0
M  V30 224 H 23.2254 5.18813 -1.29374 0
M  V30 225 H 23.5684 4.16228 0.0775055 0
M  V30 226 H 24.1014 3.66494 -1.54684 0
M  V30 227 H 20.8404 5.01193 -4.22476 0
M  V30 228 H 20.3604 5.42317 -2.56228 0
M  V30 229 H 22.0394 5.67988 -3.09837 0
M  V30 230 N 22.1715 0.800033 1.35784 0
M  V30 231 C 23.1015 0.220184 2.3246 0
M  V30 232 C 24.0825 -0.65073 1.57161 0
M  V30 233 O 25.2675 -0.582359 1.85263 0
M  V30 234 C 22.3975 -0.637353 3.41402 0
M  V30 235 C 21.3515 0.134531 4.27789 0
M  V30 236 C 20.6775 -0.844285 5.27992 0
M  V30 237 C 21.9775 1.32979 5.05088 0
M  V30 238 H 23.6715 1.02787 2.81203 0
M  V30 239 H 21.2175 0.495717 1.35199 0
M  V30 240 H 23.1705 -1.05302 4.08031 0
M  V30 241 H 21.8945 -1.47785 2.91251 0
M  V30 242 H 20.5535 0.531296 3.6273 0
M  V30 243 H 20.2015 -1.68011 4.74111 0
M  V30 244 H 19.9015 -0.332184 5.8666 0
M  V30 245 H 21.4255 -1.2583 5.97494 0
M  V30 246 H 22.8395 0.98934 5.64699 0
M  V30 247 H 21.2365 1.77593 5.7322 0
M  V30 248 H 22.3065 2.11978 4.36111 0
M  V30 249 N 23.6496 -1.47581 0.552962 0
M  V30 250 C 24.8956 -2.02782 0.0273648 0
M  V30 251 C 25.2286 -1.42687 -1.31734 0
M  V30 252 O 24.5036 -0.580897 -1.85623 0
M  V30 253 C 24.7866 -3.60031 -0.0702371 0
M  V30 254 C 24.6396 -4.30566 1.30126 0
M  V30 255 C 25.9586 -4.33028 -0.785771 0
M  V30 256 H 23.0776 -0.736912 0.0114185 0
M  V30 257 H 25.7196 -1.76056 0.714432 0
M  V30 258 H 23.8696 -3.82932 -0.655382 0
M  V30 259 H 25.5416 -4.19018 1.92929 0
M  V30 260 H 23.7846 -3.91086 1.87709 0
M  V30 261 H 24.4556 -5.39114 1.18573 0
M  V30 262 H 26.9316 -4.15095 -0.288982 0
M  V30 263 H 25.8076 -5.42695 -0.823013 0
M  V30 264 H 26.0686 -4.01945 -1.841 0
M  V30 265 N 25.1277 -0.289203 -1.54924 0
M  V30 266 C 26.3737 0.316922 -2.00916 0
M  V30 267 C 26.7287 1.52424 -1.17408 0
M  V30 268 O 26.0217 1.90097 -0.239536 0
M  V30 269 C 26.2157 0.736119 -3.49737 0
M  V30 270 C 26.0447 -0.429036 -4.47649 0
M  V30 271 C 24.8147 -0.917311 -4.96904 0
M  V30 272 C 27.0127 -1.27016 -4.98369 0
M  V30 273 N 24.9947 -2.05046 -5.78644 0
M  V30 274 C 26.3657 -2.25097 -5.77695 0
M  V30 275 C 28.4207 -1.30188 -4.80578 0
M  V30 276 C 27.1237 -3.26114 -6.41126 0
M  V30 277 C 29.1497 -2.30057 -5.44819 0
M  V30 278 C 28.5117 -3.2687 -6.23968 0
M  V30 279 H 24.6107 0.0807535 -0.777819 0
M  V30 280 H 27.1947 -0.416434 -1.90194 0
M  V30 281 H 25.3657 1.43867 -3.60773 0
M  V30 282 H 27.0977 1.32078 -3.82541 0
M  V30 283 H 23.8527 -0.494248 -4.71014 0
M  V30 284 H 24.2767 -2.62108 -6.24202 0
M  V30 285 H 28.9187 -0.567163 -4.18979 0
M  V30 286 H 26.6367 -4.00512 -7.01866 0
M  V30 287 H 30.2227 -2.33271 -5.32988 0
M  V30 288 H 29.1027 -4.02883 -6.72796 0
M  V30 289 N 26.6058 1.57591 -0.0167156 0
M  V30 290 C 27.5358 2.12496 0.967858 0
M  V30 291 C 28.5168 1.03807 1.34752 0
M  V30 292 O 29.7018 1.31577 1.42833 0
M  V30 293 C 26.8318 2.64194 2.25431 0
M  V30 294 C 25.7858 3.77559 2.01576 0
M  V30 295 C 25.1118 4.15636 3.36379 0
M  V30 296 C 26.4118 5.04151 1.36489 0
M  V30 297 H 28.1058 2.95013 0.510643 0
M  V30 298 H 25.6518 1.41915 0.244181 0
M  V30 299 H 27.6048 3.01236 2.94678 0
M  V30 300 H 26.3288 1.78821 2.73296 0
M  V30 301 H 24.9878 3.40937 1.34751 0
M  V30 302 H 24.6358 3.27263 3.81979 0
M  V30 303 H 24.3358 4.92022 3.21229 0
M  V30 304 H 25.8598 4.5525 4.06915 0
M  V30 305 H 27.2738 5.38857 1.95718 0
M  V30 306 H 25.6708 5.85453 1.31776 0
M  V30 307 H 26.7408 4.83733 0.336219 0
M  V30 308 N 28.0839 -0.256276 1.55502 0
M  V30 309 C 29.3319 -0.983672 1.76545 0
M  V30 310 C 29.6529 -1.86206 0.578982 0
M  V30 311 O 28.9229 -1.91656 -0.405577 0
M  V30 312 H 27.5029 -0.366191 0.651086 0
M  V30 313 H 30.1649 -0.276479 1.92929 0
M  V30 314 H 29.2609 -1.61087 2.67315 0
M  V30 315 N 29.562 -1.4872 -0.521534 0
M  V30 316 C 30.492 -1.66771 -1.63431 0
M  V30 317 C 31.473 -0.516499 -1.62069 0
M  V30 318 O 32.658 -0.750013 -1.79132 0
M  V30 319 C 29.788 -1.71515 -3.01993 0
M  V30 320 C 28.742 -2.86222 -3.18216 0
M  V30 321 C 28.068 -2.76061 -4.57924 0
M  V30 322 C 29.368 -4.27419 -3.00184 0
M  V30 323 H 31.062 -2.59932 -1.48579 0
M  V30 324 H 28.608 -1.25089 -0.713358 0
M  V30 325 H 30.561 -1.82731 -3.7972 0
M  V30 326 H 29.285 -0.749393 -3.17886 0
M  V30 327 H 27.944 -2.74575 -2.42908 0
M  V30 328 H 27.592 -1.77437 -4.70665 0
M  V30 329 H 27.292 -3.53037 -4.69722 0
M  V30 330 H 28.816 -2.89256 -5.37739 0
M  V30 331 H 30.23 -4.39855 -3.67697 0
M  V30 332 H 28.627 -5.05458 -3.2347 0
M  V30 333 H 29.697 -4.43293 -1.96518 0
M  V30 334 N 31.0401 0.771051 -1.3745 0
M  V30 335 C 31.9881 1.90574 -1.33358 0
M  V30 336 C 32.9821 1.67936 -0.22224 0
M  V30 337 O 34.1881 1.75717 -0.390304 0
M  V30 338 H 30.5631 0.626714 -0.415612 0
M  V30 339 H 32.5341 1.91142 -2.29144 0
M  V30 340 C 31.2831 3.27845 -1.15813 0
M  V30 341 H 30.6061 3.45842 -2.00583 0
M  V30 342 H 32.0461 4.07538 -1.17 0
M  V30 343 C 30.5051 3.36625 0.136165 0
M  V30 344 O 31.0351 3.85785 1.11949 0
M  V30 345 N 29.2411 2.89997 0.187099 0
M  V30 346 H 28.7881 2.50182 -0.613753 0
M  V30 347 H 28.7461 2.96252 1.05272 0
M  V30 348 N 32.5182 1.22032 0.997298 0
M  V30 349 C 33.7642 1.04376 1.73878 0
M  V30 350 C 34.0972 -0.420716 1.89588 0
M  V30 351 O 33.3722 -1.31202 1.43583 0
M  V30 352 C 33.6552 1.75047 3.14691 0
M  V30 353 C 33.5082 3.29062 3.06656 0
M  V30 354 C 34.8272 1.49928 4.13775 0
M  V30 355 H 31.9462 0.380578 0.631133 0
M  V30 356 H 34.5882 1.50312 1.16217 0
M  V30 357 H 32.7382 1.35996 3.63919 0
M  V30 358 H 34.4102 3.7753 2.65083 0
M  V30 359 H 32.6532 3.58967 2.43568 0
M  V30 360 H 33.3242 3.73683 4.06282 0
M  V30 361 H 35.8002 1.83842 3.73285 0
M  V30 362 H 34.6762 2.01878 5.10428 0
M  V30 363 H 34.9372 0.430929 4.39995 0
M  V30 364 N 33.9963 -1.19345 1.0293 0
M  V30 365 C 35.2433 -1.89038 0.726008 0
M  V30 366 C 35.5713 -1.79649 -0.745427 0
M  V30 367 O 34.8263 -1.18354 -1.55855 0
M  V30 368 C 35.1253 -3.39292 1.12319 0
M  V30 369 C 34.7913 -3.68885 2.59297 0
M  V30 370 C 33.4533 -3.76671 2.99453 0
M  V30 371 C 35.8053 -3.82178 3.54386 0
M  V30 372 C 33.1333 -3.9522 4.33611 0
M  V30 373 C 35.4853 -4.0224 4.88248 0
M  V30 374 C 34.1493 -4.08259 5.28092 0
M  V30 375 H 33.4193 -0.691739 0.265665 0
M  V30 376 H 36.0663 -1.41328 1.29223 0
M  V30 377 H 34.3713 -3.88903 0.475584 0
M  V30 378 H 36.0683 -3.91536 0.866037 0
M  V30 379 H 32.6583 -3.63433 2.27189 0
M  V30 380 H 36.8423 -3.75505 3.24514 0
M  V30 381 H 32.0983 -3.98119 4.64016 0
M  V30 382 H 36.2723 -4.11468 5.61843 0
M  V30 383 H 33.8993 -4.22384 6.32057 0
M  V30 384 N 35.4744 -0.807222 -1.35358 0
M  V30 385 C 36.4044 -0.232509 -2.3234 0
M  V30 386 C 37.3854 0.642386 -1.57504 0
M  V30 387 O 38.5704 0.572526 -1.85569 0
M  V30 388 C 35.7004 0.619238 -3.41735 0
M  V30 389 C 34.6544 -0.157215 -4.27711 0
M  V30 390 C 33.9804 0.816273 -5.28433 0
M  V30 391 C 35.2804 -1.35656 -5.04376 0
M  V30 392 H 36.9744 -1.04276 -2.80654 0
M  V30 393 H 34.5204 -0.50288 -1.34934 0
M  V30 394 H 36.4734 1.03137 -4.08584 0
M  V30 395 H 35.1974 1.46239 -2.92031 0
M  V30 396 H 33.8564 -0.550525 -3.62443 0
M  V30 397 H 33.5044 1.65494 -4.74996 0
M  V30 398 H 33.2044 0.301067 -5.86828 0
M  V30 399 H 34.7284 1.22659 -5.98153 0
M  V30 400 H 36.1424 -1.01927 -5.64166 0
M  V30 401 H 34.5394 -1.8063 -5.7227 0
M  V30 402 H 35.6094 -2.14288 -4.34981 0
M  V30 403 N 36.9525 1.47285 -0.560781 0
M  V30 404 C 38.1995 2.02464 -0.038062 0
M  V30 405 C 38.5275 1.43474 1.31322 0
M  V30 406 O 37.7825 0.581311 1.86867 0
M  V30 407 C 38.0815 3.57258 0.100784 0
M  V30 408 C 37.7475 4.35184 -1.18007 0
M  V30 409 C 36.4095 4.56194 -1.53103 0
M  V30 410 C 38.7615 4.80098 -2.02867 0
M  V30 411 C 36.0895 5.19367 -2.729 0
M  V30 412 C 38.4415 5.44593 -3.21871 0
M  V30 413 C 37.1055 5.63835 -3.57276 0
M  V30 414 H 36.3755 0.740869 -0.0139279 0
M  V30 415 H 39.0225 1.76916 -0.733012 0
M  V30 416 H 37.3275 3.81819 0.878724 0
M  V30 417 H 39.0245 3.97606 0.520639 0
M  V30 418 H 35.6145 4.19113 -0.8968 0
M  V30 419 H 39.7985 4.63642 -1.7706 0
M  V30 420 H 35.0545 5.32459 -3.00496 0
M  V30 421 H 39.2285 5.78358 -3.87911 0
M  V30 422 H 36.8555 6.12557 -4.50197 0
M  V30 423 N 38.4306 0.297415 1.54768 0
M  V30 424 C 39.6766 -0.313376 2.00364 0
M  V30 425 C 40.0096 -1.53815 1.18553 0
M  V30 426 O 39.2846 -1.92739 0.261103 0
M  V30 427 C 39.5676 -0.673525 3.53745 0
M  V30 428 C 39.4206 0.560133 4.46299 0
M  V30 429 C 40.7396 -1.50143 4.13697 0
M  V30 430 H 37.8586 -0.112428 0.728374 0
M  V30 431 H 40.5006 0.4088 1.8555 0
M  V30 432 H 38.6506 -1.28881 3.665 0
M  V30 433 H 40.3226 1.19863 4.45455 0
M  V30 434 H 38.5656 1.19405 4.17043 0
M  V30 435 H 39.2366 0.26405 5.51368 0
M  V30 436 H 41.7126 -0.981588 4.04356 0
M  V30 437 H 40.5886 -1.72221 5.21182 0
M  V30 438 H 40.8496 -2.48952 3.65343 0
M  V30 439 N 39.9087 -1.5758 0.0250728 0
M  V30 440 C 41.1547 -1.92746 -0.649648 0
M  V30 441 C 41.5097 -0.901588 -1.69968 0
M  V30 442 O 40.8027 0.0829251 -1.9142 0
M  V30 443 C 40.9967 -3.32421 -1.31268 0
M  V30 444 C 40.8257 -4.48499 -0.328394 0
M  V30 445 C 39.5957 -5.05251 0.070284 0
M  V30 446 C 41.7937 -5.12618 0.415665 0
M  V30 447 N 39.7757 -6.04851 1.05016 0
M  V30 448 C 41.1467 -6.0728 1.24943 0
M  V30 449 C 43.2017 -4.95612 0.476803 0
M  V30 450 C 41.9047 -6.86766 2.1388 0
M  V30 451 C 43.9307 -5.75703 1.3535 0
M  V30 452 C 43.2927 -6.69978 2.17504 0
M  V30 453 H 39.3917 -0.753231 -0.210159 0
M  V30 454 H 41.9757 -1.94486 0.0912999 0
M  V30 455 H 40.1467 -3.31508 -2.02379 0
M  V30 456 H 41.8787 -3.54946 -1.94411 0
M  V30 457 H 38.6337 -4.72628 -0.303323 0
M  V30 458 H 39.0577 -6.5934 1.53622 0
M  V30 459 H 43.6997 -4.22554 -0.144105 0
M  V30 460 H 41.4177 -7.59132 2.77027 0
M  V30 461 H 45.0037 -5.64579 1.40504 0
M  V30 462 H 43.8837 -7.30873 2.84244 0
M  V30 463 N 41.3868 0.248026 -1.55636 0
M  V30 464 C 42.6168 0.992367 -1.81206 0
M  V30 465 C 43.0248 1.7949 -0.598324 0
M  V30 466 O 42.3678 1.78292 0.442434 0
M  V30 467 C 42.4298 1.97926 -3.00109 0
M  V30 468 C 42.0938 1.36377 -4.36177 0
M  V30 469 C 43.0908 0.76682 -5.14214 0
M  V30 470 C 40.7758 1.38347 -4.82872 0
M  V30 471 C 42.7698 0.197778 -6.37093 0
M  V30 472 C 40.4568 0.810574 -6.057 0
M  V30 473 C 41.4548 0.218754 -6.8265 0
M  V30 474 O 41.1428 -0.345298 -8.03158 0
M  V30 475 H 40.8748 0.297704 -0.606917 0
M  V30 476 H 43.4288 0.276517 -2.0353 0
M  V30 477 H 41.6588 2.73339 -2.73538 0
M  V30 478 H 43.3478 2.58694 -3.12781 0
M  V30 479 H 44.1138 0.744114 -4.79258 0
M  V30 480 H 39.9928 1.8335 -4.2297 0
M  V30 481 H 43.5368 -0.264788 -6.97097 0
M  V30 482 H 39.4338 0.830604 -6.40134 0
M  V30 483 H 40.2018 -0.237055 -8.18157 0
M  V30 484 N 42.8649 1.48995 0.513639 0
M  V30 485 C 44.0949 1.61297 1.291 0
M  V30 486 C 44.5029 0.278656 1.87137 0
M  V30 487 O 43.8459 -0.744325 1.67945 0
M  V30 488 C 43.9079 2.61326 2.46879 0
M  V30 489 C 43.5719 4.05993 2.09807 0
M  V30 490 C 44.5689 4.93183 1.64519 0
M  V30 491 C 42.2539 4.51642 2.19829 0
M  V30 492 C 44.2479 6.24056 1.2974 0
M  V30 493 C 41.9349 5.82532 1.84662 0
M  V30 494 C 42.9329 6.68562 1.3969 0
M  V30 495 O 42.6209 7.97014 1.04992 0
M  V30 496 H 42.3529 0.546236 0.39825 0
M  V30 497 H 44.9069 1.95673 0.62459 0
M  V30 498 H 43.1369 2.22104 3.16554 0
M  V30 499 H 44.8259 2.6329 3.08923 0
M  V30 500 H 45.5919 4.59147 1.56233 0
M  V30 501 H 41.4709 3.84855 2.53786 0
M  V30 502 H 45.0149 6.91161 0.945659 0
M  V30 503 H 40.9119 6.16099 1.92594 0
M  V30 504 H 41.6799 8.09913 1.18249 0
M  V30 505 N 44.343 -0.763751 1.37857 0
M  V30 506 C 45.759 -1.06542 1.18832 0
M  V30 507 C 45.959 -2.01478 0.0299722 0
M  V30 508 O 45.015 -2.4458 -0.627447 0
M  V30 509 C 46.328 -1.65525 2.51042 0
M  V30 510 C 47.876 -1.77745 2.57635 0
M  V30 511 C 48.351 -2.4014 3.89996 0
M  V30 512 N 49.842 -2.47582 3.91481 0
M  V30 513 C 50.577 -2.96732 4.9065 0
M  V30 514 N 50.073 -3.45993 6.00217 0
M  V30 515 N 51.866 -2.95679 4.78048 0
M  V30 516 H 44.017 -0.133556 2.1198 0
M  V30 517 H 46.28 -0.121879 0.940133 0
M  V30 518 H 45.986 -1.03236 3.36207 0
M  V30 519 H 45.86 -2.64719 2.68707 0
M  V30 520 H 48.247 -2.39164 1.72872 0
M  V30 521 H 48.328 -0.772836 2.43846 0
M  V30 522 H 47.972 -1.79358 4.75177 0
M  V30 523 H 47.902 -3.41223 4.01092 0
M  V30 524 H 50.393 -2.1273 3.12337 0
M  V30 525 H 50.706 -3.81922 6.7183 0
M  V30 526 H 49.051 -3.44077 6.03851 0
M  V30 527 H 52.242 -2.56499 3.91568 0
M  V30 528 H 52.415 -3.33672 5.55488 0
M  V30 529 N 45.8211 -1.22559 -0.990812 0
M  V30 530 C 47.0671 -1.05297 -1.73322 0
M  V30 531 C 47.4001 0.410655 -1.89808 0
M  V30 532 O 46.6751 1.30439 -1.44277 0
M  V30 533 C 46.9581 -1.76713 -3.13759 0
M  V30 534 C 46.8111 -3.30684 -3.04907 0
M  V30 535 C 48.1301 -1.52121 -4.12974 0
M  V30 536 H 45.2491 -0.38392 -0.629106 0
M  V30 537 H 47.8911 -1.50926 -1.15418 0
M  V30 538 H 46.0411 -1.37924 -3.63193 0
M  V30 539 H 47.7131 -3.7893 -2.63077 0
M  V30 540 H 45.9561 -3.60253 -2.41661 0
M  V30 541 H 46.6271 -3.75833 -4.04294 0
M  V30 542 H 49.1031 -1.85819 -3.72304 0
M  V30 543 H 47.9791 -2.04582 -5.0935 0
M  V30 544 H 48.2401 -0.454257 -4.3976 0
M  V30 545 N 47.2992 1.18797 -1.03562 0
M  V30 546 C 48.5292 1.92319 -0.754773 0
M  V30 547 C 48.9372 1.7612 0.691248 0
M  V30 548 O 48.2802 1.08491 1.48241 0
M  V30 549 C 48.3422 3.44284 -1.03484 0
M  V30 550 C 48.0062 3.84258 -2.47376 0
M  V30 551 C 49.0032 3.88459 -3.45537 0
M  V30 552 C 46.6882 4.15701 -2.81954 0
M  V30 553 C 48.6822 4.23545 -4.76328 0
M  V30 554 C 46.3692 4.50458 -4.12954 0
M  V30 555 C 47.3672 4.54356 -5.09951 0
M  V30 556 O 47.0552 4.88305 -6.38603 0
M  V30 557 H 46.7872 0.617527 -0.275021 0
M  V30 558 H 49.3412 1.51683 -1.38497 0
M  V30 559 H 47.5712 3.85135 -0.347513 0
M  V30 560 H 49.2602 3.99049 -0.7426 0
M  V30 561 H 50.0262 3.6431 -3.20162 0
M  V30 562 H 45.9052 4.11847 -2.0713 0
M  V30 563 H 49.4492 4.26502 -5.52035 0
M  V30 564 H 45.3462 4.74067 -4.38099 0
M  V30 565 H 46.1142 5.06227 -6.43177 0
M  V30 566 N 48.7773 0.814389 1.34928 0
M  V30 567 C 50.0543 0.321363 1.92942 0
M  V30 568 C 50.4343 -1.19014 1.74353 0
M  V30 569 O 49.7823 -1.99328 1.11716 0
M  V30 570 C 49.9923 0.741323 3.41036 0
M  V30 571 C 51.3403 0.735266 4.18185 0
M  V30 572 O 52.3643 0.68336 3.49584 0
M  V30 573 O 51.2233 0.800703 5.40602 0
M  V30 574 H 48.3173 0.0858893 0.822528 0
M  V30 575 H 50.8633 0.898609 1.43955 0
M  V30 576 H 49.6353 1.78276 3.4833 0
M  V30 577 H 49.2583 0.139307 3.97356 0
M  V30 578 N 50.2554 -1.46986 0.568584 0
M  V30 579 C 51.5044 -2.01646 0.0465894 0
M  V30 580 C 51.8174 -1.44721 -1.31587 0
M  V30 581 O 53.0234 -1.91113 -1.92842 0
M  V30 582 C 51.4794 -3.59885 0.032752 0
M  V30 583 C 51.0874 -4.25804 1.39266 0
M  V30 584 C 52.8314 -4.22255 -0.436038 0
M  V30 585 C 50.7384 -5.76081 1.33732 0
M  V30 586 H 49.6684 -0.753876 0.013647 0
M  V30 587 H 52.3194 -1.68864 0.718131 0
M  V30 588 H 50.7014 -3.8968 -0.704669 0
M  V30 589 H 51.8754 -4.07637 2.1487 0
M  V30 590 H 50.1904 -3.7547 1.80032 0
M  V30 591 H 52.7874 -5.32394 -0.49602 0
M  V30 592 H 53.1304 -3.90212 -1.45053 0
M  V30 593 H 53.6634 -3.97033 0.246877 0
M  V30 594 H 50.4024 -6.12761 2.32817 0
M  V30 595 H 49.9224 -5.96553 0.623267 0
M  V30 596 H 51.6014 -6.38518 1.0442 0
M  V30 597 N 51.7335 -0.305618 -1.54608 0
M  V30 598 C 53.1445 0.186098 -1.8577 0
M  V30 599 C 53.4955 1.53058 -1.22751 0
M  V30 600 O 52.6205 2.09888 -0.526893 0
M  V30 601 C 53.2155 0.344449 -3.37044 0
M  V30 602 C 51.7745 0.780384 -3.68221 0
M  V30 603 C 50.9215 -0.108554 -2.77087 0
M  V30 604 H 53.8725 -0.526485 -1.49712 0
M  V30 605 H 53.8935 1.17828 -3.61796 0
M  V30 606 H 53.4055 -0.634235 -3.82883 0
M  V30 607 H 51.5065 1.76945 -3.27904 0
M  V30 608 H 51.6195 0.596572 -4.75371 0
M  V30 609 H 49.9835 0.412931 -2.5133 0
M  V30 610 H 50.7665 -1.08368 -3.25747 0
M  V30 611 N 53.2116 1.57565 -0.0334293 0
M  V30 612 C 54.6226 1.79746 0.504798 0
M  V30 613 C 54.9736 0.944091 1.71992 0
M  V30 614 O 54.0986 0.155694 2.15839 0
M  V30 615 C 54.6936 3.25997 0.922567 0
M  V30 616 C 53.2526 3.49159 1.40588 0
M  V30 617 C 52.3996 2.74785 0.372633 0
M  V30 618 H 55.3506 1.56565 -0.259436 0
M  V30 619 H 55.3716 3.35945 1.78666 0
M  V30 620 H 54.8836 3.88081 0.0379825 0
M  V30 621 H 52.9846 2.92332 2.31025 0
M  V30 622 H 53.0976 4.57873 1.41028 0
M  V30 623 H 51.4616 2.40391 0.841672 0
M  V30 624 H 52.2446 3.39587 -0.503559 0
M  V30 625 N 54.6897 -0.239769 1.55765 0
M  V30 626 C 55.6367 -1.29696 1.90913 0
M  V30 627 C 56.6067 -1.47478 0.764164 0
M  V30 628 O 57.7917 -1.61345 1.01845 0
M  V30 629 C 54.9317 -2.64598 2.21544 0
M  V30 630 C 54.0447 -2.54765 3.48882 0
M  V30 631 C 53.1797 -3.82069 3.69049 0
M  V30 632 C 52.2187 -3.66883 4.89963 0
M  V30 633 N 51.3557 -4.86094 5.06614 0
M  V30 634 H 56.1957 -0.990224 2.81067 0
M  V30 635 H 53.7327 -0.477684 1.39128 0
M  V30 636 H 55.6907 -3.43132 2.3731 0
M  V30 637 H 54.3207 -2.93405 1.34585 0
M  V30 638 H 53.3727 -1.67763 3.41409 0
M  V30 639 H 54.6847 -2.39457 4.37563 0
M  V30 640 H 53.8387 -4.69046 3.84812 0
M  V30 641 H 52.5777 -4.00282 2.78614 0
M  V30 642 H 51.5827 -2.78289 4.74168 0
M  V30 643 H 52.8077 -3.50157 5.81865 0
M  V30 644 H 50.7537 -5.04655 4.19117 0
M  V30 645 H 50.6707 -4.73443 5.89396 0
M  V30 646 H 51.9387 -5.74549 5.26795 0
M  V30 647 N 56.1678 -1.49265 -0.50573 0
M  V30 648 C 57.4148 -1.58513 -1.26015 0
M  V30 649 C 57.7428 -0.26972 -1.92621 0
M  V30 650 O 56.9978 0.741997 -1.81088 0
M  V30 651 C 57.2968 -2.69008 -2.35308 0
M  V30 652 C 56.9628 -4.10662 -1.86192 0
M  V30 653 C 55.6248 -4.49212 -1.72516 0
M  V30 654 C 57.9768 -4.99336 -1.49375 0
M  V30 655 C 55.3048 -5.74214 -1.20394 0
M  V30 656 C 57.6568 -6.24852 -0.987072 0
M  V30 657 C 56.3208 -6.62236 -0.836669 0
M  V30 658 H 55.5908 -0.580041 -0.461122 0
M  V30 659 H 58.2378 -1.83078 -0.561665 0
M  V30 660 H 56.5428 -2.38396 -3.10926 0
M  V30 661 H 58.2398 -2.73373 -2.93374 0
M  V30 662 H 54.8298 -3.8023 -1.97795 0
M  V30 663 H 59.0138 -4.70212 -1.5879 0
M  V30 664 H 54.2698 -6.01883 -1.07458 0
M  V30 665 H 58.4438 -6.92944 -0.692983 0
M  V30 666 H 56.0708 -7.58979 -0.430607 0
M  V30 667 N 57.6459 0.756429 -1.3826 0
M  V30 668 C 58.8929 1.51547 -1.34312 0
M  V30 669 C 59.2209 1.94382 0.0677144 0
M  V30 670 O 58.4759 1.65514 1.04421 0
M  V30 671 C 58.7749 2.78313 -2.24224 0
M  V30 672 C 58.4409 2.54455 -3.72241 0
M  V30 673 C 57.1029 2.47657 -4.12576 0
M  V30 674 C 59.4549 2.3354 -4.65949 0
M  V30 675 C 56.7829 2.17956 -5.44713 0
M  V30 676 C 59.1349 2.05359 -5.9834 0
M  V30 677 C 57.7989 1.97016 -6.37762 0
M  V30 678 H 57.0689 0.55455 -0.491482 0
M  V30 679 H 59.7159 0.870039 -1.70595 0
M  V30 680 H 58.0209 3.47492 -1.80987 0
M  V30 681 H 59.7179 3.36259 -2.18474 0
M  V30 682 H 56.3079 2.60616 -3.40261 0
M  V30 683 H 60.4919 2.37772 -4.35635 0
M  V30 684 H 55.7479 2.10003 -5.74203 0
M  V30 685 H 59.9219 1.88179 -6.70494 0
M  V30 686 H 57.5489 1.73766 -7.40074 0
M  V30 687 N 59.124 1.23083 0.984299 0
M  V30 688 C 60.354 1.08556 1.75781 0
M  V30 689 C 60.762 -0.366171 1.85623 0
M  V30 690 O 60.105 -1.26524 1.33182 0
M  V30 691 C 60.167 1.63208 3.20318 0
M  V30 692 C 59.831 3.11922 3.33997 0
M  V30 693 C 60.828 4.09259 3.2063 0
M  V30 694 C 58.513 3.51552 3.58771 0
M  V30 695 C 60.507 5.4421 3.31835 0
M  V30 696 C 58.194 4.86649 3.69616 0
M  V30 697 C 59.192 5.82787 3.56157 0
M  V30 698 O 58.88 7.15431 3.66626 0
M  V30 699 H 58.612 0.380713 0.5586 0
M  V30 700 H 61.166 1.63321 1.2456 0
M  V30 701 H 59.396 1.0286 3.72769 0
M  V30 702 H 61.085 1.44216 3.79416 0
M  V30 703 H 61.851 3.79984 3.01392 0
M  V30 704 H 57.73 2.77239 3.6832 0
M  V30 705 H 61.274 6.1923 3.21247 0
M  V30 706 H 57.171 5.15601 3.88363 0
M  V30 707 H 57.939 7.23127 3.83445 0
M  V30 708 N 60.6021 -1.18246 1.0419 0
M  V30 709 C 61.8301 -1.92195 0.766072 0
M  V30 710 C 62.2451 -1.76247 -0.676933 0
M  V30 711 O 61.6021 -1.09293 -1.46155 0
M  V30 712 C 61.6531 -3.43568 1.12442 0
M  V30 713 O 61.3741 -3.59015 2.51078 0
M  V30 714 C 62.8751 -4.34613 0.873275 0
M  V30 715 H 60.0951 -0.610114 0.279288 0
M  V30 716 H 62.6391 -1.50007 1.38989 0
M  V30 717 H 60.7941 -3.8354 0.545542 0
M  V30 718 H 61.2081 -4.5273 2.64831 0
M  V30 719 H 62.6821 -5.39374 1.17385 0
M  V30 720 H 63.1591 -4.38781 -0.191909 0
M  V30 721 H 63.7651 -4.00341 1.43551 0
M  V30 722 N 62.0802 -0.821533 -1.34494 0
M  V30 723 C 63.4962 -0.507117 -1.51329 0
M  V30 724 C 63.6962 0.968964 -1.76673 0
M  V30 725 O 62.7522 1.75348 -1.81685 0
M  V30 726 C 64.0652 -1.36544 -2.67911 0
M  V30 727 C 65.6132 -1.36242 -2.81793 0
M  V30 728 C 66.0882 -2.2052 -4.01416 0
M  V30 729 N 67.5792 -2.18136 -4.08621 0
M  V30 730 C 68.3142 -2.80095 -5.00334 0
M  V30 731 N 67.8102 -3.51039 -5.9728 0
M  V30 732 N 69.6032 -2.69656 -4.93196 0
M  V30 733 H 61.7542 -1.77729 -1.16302 0
M  V30 734 H 64.0172 -0.757291 -0.570276 0
M  V30 735 H 63.7232 -2.41361 -2.55808 0
M  V30 736 H 63.5972 -1.02917 -3.62888 0
M  V30 737 H 65.9842 -0.322041 -2.93338 0
M  V30 738 H 66.0652 -1.73866 -1.87628 0
M  V30 739 H 65.7092 -3.24607 -3.90631 0
M  V30 740 H 65.6392 -1.80247 -4.94791 0
M  V30 741 H 68.1302 -1.6653 -3.39229 0
M  V30 742 H 68.4432 -3.95565 -6.63889 0
M  V30 743 H 66.7882 -3.55145 -5.97409 0
M  V30 744 H 69.9792 -2.13808 -4.16418 0
M  V30 745 H 70.1522 -3.1823 -5.64476 0
M  V30 746 N 63.5583 1.46682 -0.576371 0
M  V30 747 C 64.5053 2.30241 0.160499 0
M  V30 748 C 65.4753 1.40233 0.890162 0
M  V30 749 O 66.6603 1.69186 0.882084 0
M  V30 750 C 63.8003 3.24578 1.1723 0
M  V30 751 C 62.9133 4.29684 0.446736 0
M  V30 752 C 62.0483 5.11154 1.44551 0
M  V30 753 C 61.0873 6.08015 0.70599 0
M  V30 754 N 60.2243 6.82376 1.65251 0
M  V30 755 H 65.0643 2.92727 -0.558127 0
M  V30 756 H 62.6013 1.44272 -0.287056 0
M  V30 757 H 64.5593 3.77711 1.77172 0
M  V30 758 H 63.1893 2.63916 1.85872 0
M  V30 759 H 62.2413 3.79458 -0.267594 0
M  V30 760 H 63.5533 4.98626 -0.131686 0
M  V30 761 H 62.7073 5.68533 2.11791 0
M  V30 762 H 61.4463 4.42158 2.05786 0
M  V30 763 H 60.4513 5.49796 0.0197725 0
M  V30 764 H 61.6763 6.79028 0.09912 0
M  V30 765 H 59.6223 6.16094 2.25308 0
M  V30 766 H 59.5393 7.47556 1.12673 0
M  V30 767 H 60.8073 7.44316 2.31546 0
M  V30 768 N 65.0364 0.313813 1.54444 0
M  V30 769 C 65.9664 -0.549454 2.26943 0
M  V30 770 C 66.9474 -1.12741 1.27372 0
M  V30 771 O 68.1324 -1.15436 1.56167 0
M  V30 772 C 65.2624 -1.71523 3.01989 0
M  V30 773 C 64.2164 -1.26703 4.08816 0
M  V30 774 C 63.5424 -2.51898 4.71647 0
M  V30 775 C 64.8424 -0.388962 5.2085 0
M  V30 776 H 66.5364 0.0552661 2.99349 0
M  V30 777 H 64.0824 0.0280207 1.43973 0
M  V30 778 H 66.0354 -2.32535 3.51433 0
M  V30 779 H 64.7594 -2.34639 2.27183 0
M  V30 780 H 63.4184 -0.679896 3.6024 0
M  V30 781 H 63.0664 -3.13356 3.93468 0
M  V30 782 H 62.7664 -2.22605 5.43802 0
M  V30 783 H 64.2904 -3.1369 5.23861 0
M  V30 784 H 65.7044 -0.905107 5.6611 0
M  V30 785 H 64.1014 -0.18924 5.99802 0
M  V30 786 H 65.1714 0.582699 4.81386 0
M  V30 787 N 66.5145 -1.57545 0.0417849 0
M  V30 788 C 67.4445 -2.14009 -0.933929 0
M  V30 789 C 68.4255 -1.05938 -1.33083 0
M  V30 790 O 69.6105 -1.33833 -1.40721 0
M  V30 791 C 66.7405 -2.67747 -2.21199 0
M  V30 792 C 65.6945 -3.80718 -1.95544 0
M  V30 793 C 65.0205 -4.20935 -3.29724 0
M  V30 794 C 66.3205 -5.06258 -1.28452 0
M  V30 795 H 68.0145 -2.95788 -0.463645 0
M  V30 796 H 65.5605 -1.42285 -0.221573 0
M  V30 797 H 67.5135 -3.05886 -2.89848 0
M  V30 798 H 66.2375 -1.83147 -2.70416 0
M  V30 799 H 64.8965 -3.43037 -1.2931 0
M  V30 800 H 64.5445 -3.33298 -3.76724 0
M  V30 801 H 64.2445 -4.9707 -3.13361 0
M  V30 802 H 65.7685 -4.61666 -3.9962 0
M  V30 803 H 67.1825 -5.41903 -1.8712 0
M  V30 804 H 65.5795 -5.87475 -1.22445 0
M  V30 805 H 66.6495 -4.84207 -0.259219 0
M  V30 806 N 67.9926 0.231505 -1.5589 0
M  V30 807 C 69.2406 0.955461 -1.78088 0
M  V30 808 C 69.5616 1.85262 -0.608533 0
M  V30 809 O 68.8316 1.92277 0.375035 0
M  V30 810 H 67.4116 0.355787 -0.656829 0
M  V30 811 H 70.0736 0.245751 -1.93344 0
M  V30 812 H 69.1696 1.56814 -2.69844 0
M  V30 813 N 69.4707 1.49531 0.497807 0
M  V30 814 C 70.6957 1.63159 1.28039 0
M  V30 815 C 71.1207 0.30418 1.85624 0
M  V30 816 O 70.4787 -0.728618 1.66015 0
M  V30 817 C 70.5267 2.70537 2.38416 0
M  V30 818 O 69.6307 2.29931 3.42353 0
M  V30 819 H 68.9717 0.546001 0.377861 0
M  V30 820 H 71.5017 1.9574 0.59558 0
M  V30 821 H 71.5117 2.92802 2.84132 0
M  V30 822 H 70.1867 3.6689 1.95869 0
M  V30 823 H 68.7637 2.18009 3.02533 0
M  V30 824 N 70.9488 -0.749086 1.3866 0
M  V30 825 C 71.9118 -1.84457 1.36045 0
M  V30 826 C 72.9118 -1.58682 0.260122 0
M  V30 827 O 74.1018 -1.66343 0.517261 0
M  V30 828 C 71.2338 -3.22008 1.11911 0
M  V30 829 H 72.4268 -1.88182 2.33512 0
M  V30 830 H 69.9798 -0.951266 1.24019 0
M  V30 831 H 70.7148 -3.2395 0.150686 0
M  V30 832 H 70.4998 -3.42111 1.91579 0
M  V30 833 H 71.9898 -4.0208 1.12788 0
M  V30 834 N 72.4269 -1.23603 -0.977757 0
M  V30 835 C 73.3569 -1.04401 -2.0886 0
M  V30 836 C 74.3379 0.0399052 -1.70053 0
M  V30 837 O 75.5229 -0.125246 -1.93796 0
M  V30 838 C 72.6529 -0.637269 -3.41403 0
M  V30 839 C 71.6069 -1.66883 -3.94124 0
M  V30 840 C 70.9329 -1.11745 -5.22893 0
M  V30 841 C 72.2329 -3.06247 -4.23096 0
M  V30 842 H 73.9269 -1.97316 -2.25182 0
M  V30 843 H 71.4729 -0.950096 -1.08209 0
M  V30 844 H 73.4259 -0.48998 -4.18542 0
M  V30 845 H 72.1499 0.327557 -3.24953 0
M  V30 846 H 70.8089 -1.80416 -3.19133 0
M  V30 847 H 70.4569 -0.143527 -5.02795 0
M  V30 848 H 70.1569 -1.80672 -5.59134 0
M  V30 849 H 71.6809 -0.982067 -6.02651 0
M  V30 850 H 73.0949 -2.96001 -4.90975 0
M  V30 851 H 71.4919 -3.72436 -4.70544 0
M  V30 852 H 72.5619 -3.55041 -3.30263 0
M  V30 853 N 73.905 1.17692 -1.04816 0
M  V30 854 C 74.868 2.19787 -0.650117 0
M  V30 855 C 75.868 1.58044 0.296427 0
M  V30 856 O 77.058 1.74012 0.0808097 0
M  V30 857 C 74.19 3.40869 0.0456987 0
M  V30 858 H 75.383 2.56516 -1.5537 0
M  V30 859 H 72.936 1.31708 -0.841594 0
M  V30 860 H 73.671 3.09681 0.962726 0
M  V30 861 H 73.456 3.86928 -0.634727 0
M  V30 862 H 74.946 4.16445 0.310432 0
M  V30 863 N 75.3831 0.828654 1.34056 0
M  V30 864 C 76.3131 0.269443 2.3194 0
M  V30 865 C 77.2941 -0.617247 1.58506 0
M  V30 866 O 78.4791 -0.542931 1.86456 0
M  V30 867 C 75.6091 -0.564793 3.42677 0
M  V30 868 C 74.5631 0.225241 4.27407 0
M  V30 869 C 73.8891 -0.7321 5.29664 0
M  V30 870 C 75.1891 1.43663 5.02154 0
M  V30 871 H 76.8831 1.08728 2.7896 0
M  V30 872 H 74.4291 0.524283 1.34117 0
M  V30 873 H 76.3821 -0.966233 4.10173 0
M  V30 874 H 75.1061 -1.41574 2.9432 0
M  V30 875 H 73.7651 0.608117 3.61521 0
M  V30 876 H 73.4131 -1.57916 4.77568 0
M  V30 877 H 73.1131 -0.20767 5.87233 0
M  V30 878 H 74.6371 -1.13128 6.00029 0
M  V30 879 H 76.0511 1.1089 5.62473 0
M  V30 880 H 74.4481 1.89711 5.69324 0
M  V30 881 H 75.5181 2.21181 4.31517 0
M  V30 882 N 76.8612 -1.46375 0.584142 0
M  V30 883 C 77.8242 -2.28784 -0.138108 0
M  V30 884 C 78.8242 -1.38471 -0.817462 0
M  V30 885 O 80.0142 -1.60833 -0.669199 0
M  V30 886 C 77.1462 -3.18892 -1.20503 0
M  V30 887 H 78.3392 -2.94117 0.586127 0
M  V30 888 H 75.8922 -1.52509 0.342171 0
M  V30 889 H 76.6272 -2.58309 -1.96079 0
M  V30 890 H 76.4122 -3.85388 -0.722384 0
M  V30 891 H 77.9022 -3.80914 -1.71155 0
M  V30 892 N 78.3393 -0.321999 -1.54275 0
M  V30 893 C 79.7553 0.0306999 -1.5957 0
M  V30 894 C 79.9553 1.50614 -1.33857 0
M  V30 895 O 79.0113 2.2619 -1.12223 0
M  V30 896 C 80.3243 -0.386122 -2.98211 0
M  V30 897 C 81.8723 -0.336647 -3.11184 0
M  V30 898 C 82.3473 -0.728607 -4.52167 0
M  V30 899 N 83.8383 -0.681952 -4.58152 0
M  V30 900 C 84.5733 -0.957449 -5.6535 0
M  V30 901 N 84.0693 -1.3 -6.80494 0
M  V30 902 N 85.8623 -0.883113 -5.55119 0
M  V30 903 H 78.0133 -1.28332 -1.69247 0
M  V30 904 H 80.2763 -0.521716 -0.791528 0
M  V30 905 H 79.9823 -1.41404 -3.22022 0
M  V30 906 H 79.8563 0.249662 -3.76373 0
M  V30 907 H 82.2433 0.682058 -2.8711 0
M  V30 908 H 82.3243 -1.00734 -2.3513 0
M  V30 909 H 81.9683 -1.74522 -4.76974 0
M  V30 910 H 81.8983 -0.0356152 -5.26588 0
M  V30 911 H 84.3893 -0.428985 -3.75457 0
M  V30 912 H 84.7023 -1.49563 -7.58189 0
M  V30 913 H 83.0473 -1.33824 -6.81994 0
M  V30 914 H 86.2383 -0.615001 -4.64042 0
M  V30 915 H 86.4113 -1.10118 -6.38575 0
M  V30 916 N 79.8174 1.5752 -0.0501392 0
M  V30 917 C 80.7804 2.1037 0.909786 0
M  V30 918 C 81.7804 1.02308 1.24056 0
M  V30 919 O 82.9704 1.28385 1.17741 0
M  V30 920 C 80.1024 2.58708 2.21998 0
M  V30 921 H 81.2954 2.96479 0.451665 0
M  V30 922 H 78.8484 1.55038 0.198248 0
M  V30 923 H 79.5834 1.75989 2.72394 0
M  V30 924 H 79.3684 3.37675 1.99295 0
M  V30 925 H 80.8584 2.99747 2.9076 0
M  V30 926 N 81.2955 -0.223234 1.56011 0
M  V30 927 C 82.7065 -0.790368 1.69145 0
M  V30 928 C 83.0575 -1.85055 0.651845 0
M  V30 929 O 82.1825 -2.15498 -0.197359 0
M  V30 930 C 82.7775 -1.4404 3.06656 0
M  V30 931 C 81.3365 -1.95494 3.2165 0
M  V30 932 C 80.4835 -0.814506 2.65068 0
M  V30 933 H 83.4345 0.00139011 1.587 0
M  V30 934 H 83.4555 -2.30916 3.0242 0
M  V30 935 H 82.9675 -0.668543 3.82298 0
M  V30 936 H 81.0685 -2.75487 2.50874 0
M  V30 937 H 81.1815 -2.13607 4.28846 0
M  V30 938 H 79.5455 -1.22137 2.23505 0
M  V30 939 H 80.3285 -0.0553515 3.43255 0
M  V30 940 N 82.7736 -1.49793 -0.48987 0
M  V30 941 C 83.7366 -1.66752 -1.57246 0
M  V30 942 C 84.7366 -0.538867 -1.51502 0
M  V30 943 O 85.9266 -0.805545 -1.54456 0
M  V30 944 C 83.0586 -1.67528 -2.96896 0
M  V30 945 H 84.2516 -2.63321 -1.43534 0
M  V30 946 H 81.8046 -1.38992 -0.714914 0
M  V30 947 H 82.5396 -0.725837 -3.16073 0
M  V30 948 H 82.3246 -2.49504 -3.02473 0
M  V30 949 H 83.8146 -1.82667 -3.7553 0
M  V30 950 N 84.2517 0.741722 -1.39055 0
M  V30 951 C 85.2147 1.83733 -1.37021 0
M  V30 952 C 86.2147 1.58542 -0.268534 0
M  V30 953 O 87.4047 1.66067 -0.526076 0
M  V30 954 C 84.5367 3.2141 -1.13617 0
M  V30 955 H 85.7297 1.86941 -2.34506 0
M  V30 956 H 83.2827 0.944676 -1.24521 0
M  V30 957 H 84.0177 3.23865 -0.167863 0
M  V30 958 H 83.8027 3.4109 -1.93391 0
M  V30 959 H 85.2927 4.01477 -1.14918 0
M  V30 960 N 85.7298 1.2412 0.971189 0
M  V30 961 C 86.9698 1.09066 1.7287 0
M  V30 962 C 87.3338 -0.364794 1.88503 0
M  V30 963 O 88.5348 -0.636748 2.61149 0
M  V30 964 C 86.8058 1.80629 3.08396 0
M  V30 965 S 88.3648 1.81263 3.99611 0
M  V30 966 H 85.1828 0.390145 0.594397 0
M  V30 967 H 87.7848 1.57397 1.15959 0
M  V30 968 H 86.4888 2.85647 2.94676 0
M  V30 969 H 86.0198 1.32617 3.70373 0
M  V30 970 H 88.0348 0.877804 4.88374 0
M  V30 971 N 87.2079 -1.17134 1.05439 0
M  V30 972 C 88.1379 -2.2342 0.678649 0
M  V30 973 C 89.1189 -1.66971 -0.32476 0
M  V30 974 O 90.3039 -1.93149 -0.201802 0
M  V30 975 C 87.4339 -3.47256 0.0552099 0
M  V30 976 C 86.3879 -4.16543 0.98365 0
M  V30 977 C 85.7139 -5.34231 0.223961 0
M  V30 978 C 87.0139 -4.68495 2.3089 0
M  V30 979 H 88.7079 -2.55105 1.56722 0
M  V30 980 H 86.2539 -1.2262 0.754998 0
M  V30 981 H 88.2069 -4.20828 -0.21946 0
M  V30 982 H 86.9309 -3.14846 -0.868319 0
M  V30 983 H 85.5899 -3.44887 1.24293 0
M  V30 984 H 85.2379 -4.98071 -0.702412 0
M  V30 985 H 84.9379 -5.81527 0.842627 0
M  V30 986 H 86.4619 -6.10585 -0.0433671 0
M  V30 987 H 87.8759 -5.33691 2.09396 0
M  V30 988 H 86.2729 -5.26379 2.88176 0
M  V30 989 H 87.3429 -3.85169 2.94572 0
M  V30 990 N 88.686 -0.835752 -1.33615 0
M  V30 991 C 89.634 -0.255238 -2.31195 0
M  V30 992 C 90.628 0.61107 -1.57995 0
M  V30 993 O 91.834 0.500979 -1.72888 0
M  V30 994 H 88.209 -0.0638085 -0.749288 0
M  V30 995 H 90.18 -1.09283 -2.77669 0
M  V30 996 C 88.929 0.55754 -3.43201 0
M  V30 997 H 88.252 -0.0997553 -3.99676 0
M  V30 998 H 89.692 0.929622 -4.13683 0
M  V30 999 C 88.151 1.73515 -2.88781 0
M  V30 1000 O 88.681 2.83376 -2.84712 0
M  V30 1001 N 86.887 1.55603 -2.4543 0
M  V30 1002 H 86.434 0.662354 -2.48939 0
M  V30 1003 H 86.392 2.34545 -2.09371 0
M  V30 1004 N 90.1641 1.46063 -0.591896 0
M  V30 1005 C 91.4111 2.02338 -0.0809991 0
M  V30 1006 C 91.7391 1.46228 1.28249 0
M  V30 1007 O 90.9941 0.620818 1.85592 0
M  V30 1008 C 91.2931 3.57391 0.0249813 0
M  V30 1009 C 90.9591 4.32583 -1.27211 0
M  V30 1010 C 89.6211 4.52844 -1.62745 0
M  V30 1011 C 91.9731 4.75687 -2.13005 0
M  V30 1012 C 89.3011 5.13462 -2.83855 0
M  V30 1013 C 91.6531 5.37644 -3.3335 0
M  V30 1014 C 90.3171 5.5613 -3.69155 0
M  V30 1015 H 89.5871 0.740407 -0.0296397 0
M  V30 1016 H 92.2341 1.75321 -0.770374 0
M  V30 1017 H 90.5391 3.83597 0.797537 0
M  V30 1018 H 92.2361 3.98621 0.436184 0
M  V30 1019 H 88.8261 4.17116 -0.985499 0
M  V30 1020 H 93.0101 4.59782 -1.86855 0
M  V30 1021 H 88.2661 5.25965 -3.11722 0
M  V30 1022 H 92.4401 5.7 -4.00092 0
M  V30 1023 H 90.0671 6.0287 -4.63089 0
M  V30 1024 N 91.6422 0.330177 1.54103 0
M  V30 1025 C 92.5902 -0.548226 2.26047 0
M  V30 1026 C 93.5842 -1.11309 1.27698 0
M  V30 1027 O 94.7902 -1.06036 1.45452 0
M  V30 1028 H 91.1652 -0.195456 0.726155 0
M  V30 1029 H 93.1362 0.0807567 2.98291 0
M  V30 1030 C 91.8852 -1.69415 3.03634 0
M  V30 1031 H 91.2082 -1.26876 3.79134 0
M  V30 1032 H 92.6482 -2.28423 3.5721 0
M  V30 1033 C 91.1072 -2.61569 2.12328 0
M  V30 1034 O 91.6372 -3.63462 1.7105 0
M  V30 1035 N 89.8432 -2.29952 1.77681 0
M  V30 1036 H 89.3902 -1.47134 2.11446 0
M  V30 1037 H 89.3482 -2.91871 1.16869 0
M  V30 1038 N 93.1203 -1.57491 0.0584922 0
M  V30 1039 C 94.3603 -1.94851 -0.617458 0
M  V30 1040 C 94.7243 -0.937165 -1.67575 0
M  V30 1041 O 95.9253 -1.19795 -2.40629 0
M  V30 1042 C 94.1963 -3.36955 -1.19147 0
M  V30 1043 S 95.7553 -3.96277 -1.8844 0
M  V30 1044 H 92.5733 -0.681539 -0.202547 0
M  V30 1045 H 95.1753 -1.95073 0.129176 0
M  V30 1046 H 93.8793 -4.08355 -0.409215 0
M  V30 1047 H 93.4103 -3.40245 -1.97476 0
M  V30 1048 H 95.4253 -3.82099 -3.16568 0
M  V30 1049 N 94.5984 0.214957 -1.56127 0
M  V30 1050 C 95.5314 1.29382 -1.87977 0
M  V30 1051 C 96.5094 1.44897 -0.737807 0
M  V30 1052 O 97.6934 1.60605 -0.986833 0
M  V30 1053 C 94.8204 2.66325 -2.09258 0
M  V30 1054 C 93.8664 2.67789 -3.31951 0
M  V30 1055 S 94.6994 2.21198 -4.8768 0
M  V30 1056 C 95.8554 3.60003 -5.12004 0
M  V30 1057 H 96.0884 1.02173 -2.79192 0
M  V30 1058 H 93.6214 0.417516 -1.48648 0
M  V30 1059 H 95.5794 3.45162 -2.22201 0
M  V30 1060 H 94.2404 2.90755 -1.18829 0
M  V30 1061 H 93.4334 3.68436 -3.43906 0
M  V30 1062 H 93.0354 1.9702 -3.17898 0
M  V30 1063 H 95.3274 4.55739 -5.01307 0
M  V30 1064 H 96.2704 3.52959 -6.13861 0
M  V30 1065 H 96.6784 3.53996 -4.39712 0
M  V30 1066 N 96.0765 1.50051 0.48192 0
M  V30 1067 C 97.0065 1.71046 1.58951 0
M  V30 1068 C 97.9875 0.559288 1.60642 0
M  V30 1069 O 99.1725 0.797243 1.77081 0
M  V30 1070 C 96.3025 1.79462 2.97339 0
M  V30 1071 C 95.2565 2.94558 3.10515 0
M  V30 1072 C 94.5825 2.88105 4.50444 0
M  V30 1073 C 95.8825 4.35227 2.88747 0
M  V30 1074 H 97.5765 2.6378 1.41635 0
M  V30 1075 H 95.1225 1.26936 0.679942 0
M  V30 1076 H 97.0755 1.92734 3.74742 0
M  V30 1077 H 95.7995 0.833412 3.15788 0
M  V30 1078 H 94.4585 2.80918 2.35543 0
M  V30 1079 H 94.1065 1.89853 4.65795 0
M  V30 1080 H 93.8065 3.65366 4.60197 0
M  V30 1081 H 95.3305 3.03412 5.29881 0
M  V30 1082 H 96.7445 4.49449 3.55905 0
M  V30 1083 H 95.1415 5.13856 3.09955 0
M  V30 1084 H 96.2115 4.48347 1.84696 0
M  V30 1085 N 97.5546 -0.734337 1.39446 0
M  V30 1086 C 98.8036 -1.48937 1.36017 0
M  V30 1087 C 99.1166 -1.95557 -0.0409005 0
M  V30 1088 O 100.323 -2.70779 -0.19778 0
M  V30 1089 C 98.7786 -2.69125 2.38955 0
M  V30 1090 C 98.3866 -2.29452 3.8478 0
M  V30 1091 C 100.131 -3.46944 2.44603 0
M  V30 1092 C 98.0376 -3.46366 4.79358 0
M  V30 1093 H 96.9676 -0.559296 0.505672 0
M  V30 1094 H 99.6186 -0.800983 1.65095 0
M  V30 1095 H 98.0006 -3.40041 2.02948 0
M  V30 1096 H 99.1746 -1.66077 4.29831 0
M  V30 1097 H 97.4896 -1.64723 3.82433 0
M  V30 1098 H 100.087 -4.33907 3.12456 0
M  V30 1099 H 100.43 -3.89454 1.47076 0
M  V30 1100 H 100.963 -2.83056 2.79507 0
M  V30 1101 H 97.7016 -3.08905 5.78151 0
M  V30 1102 H 97.2216 -4.08719 4.38986 0
M  V30 1103 H 98.9006 -4.12691 4.98292 0
M  V30 1104 N 99.0327 -1.24633 -0.964593 0
M  V30 1105 C 99.9627 -1.06611 -2.07741 0
M  V30 1106 C 100.944 0.0218666 -1.70086 0
M  V30 1107 O 102.129 -0.145793 -1.93652 0
M  V30 1108 C 99.2587 -0.673444 -3.40708 0
M  V30 1109 C 98.2127 -1.71054 -3.92332 0
M  V30 1110 C 97.5387 -1.17285 -5.21678 0
M  V30 1111 C 98.8387 -3.10718 -4.19824 0
M  V30 1112 H 100.533 -1.99693 -2.23076 0
M  V30 1113 H 98.0787 -0.96152 -1.07195 0
M  V30 1114 H 100.032 -0.534345 -4.17998 0
M  V30 1115 H 98.7557 0.293073 -3.25282 0
M  V30 1116 H 97.4147 -1.83791 -3.17201 0
M  V30 1117 H 97.0627 -0.196847 -5.02615 0
M  V30 1118 H 96.7627 -1.86592 -5.57187 0
M  V30 1119 H 98.2867 -1.04593 -6.01575 0
M  V30 1120 H 99.7007 -3.01192 -4.87808 0
M  V30 1121 H 98.0977 -3.77406 -4.66567 0
M  V30 1122 H 99.1677 -3.58524 -3.26479 0
M  V30 1123 N 100.511 1.16574 -1.06058 0
M  V30 1124 C 101.441 2.23057 -0.690488 0
M  V30 1125 C 102.422 1.67141 0.315901 0
M  V30 1126 O 103.607 1.93253 0.191556 0
M  V30 1127 C 100.737 3.47222 -0.073625 0
M  V30 1128 C 99.6908 4.16016 -1.00573 0
M  V30 1129 C 99.0168 5.34104 -0.252289 0
M  V30 1130 C 100.317 4.67264 -2.33371 0
M  V30 1131 H 102.011 2.54271 -1.58072 0
M  V30 1132 H 99.5568 1.22218 -0.76149 0
M  V30 1133 H 101.51 4.20939 0.19714 0
M  V30 1134 H 100.234 3.15302 0.85161 0
M  V30 1135 H 98.8928 3.44223 -1.2612 0
M  V30 1136 H 98.5408 4.98437 0.675988 0
M  V30 1137 H 98.2408 5.81072 -0.873455 0
M  V30 1138 H 99.7648 6.10599 0.0109857 0
M  V30 1139 H 101.179 5.32573 -2.12223 0
M  V30 1140 H 99.5758 5.24843 -2.90963 0
M  V30 1141 H 100.646 3.83602 -2.96611 0
M  V30 1142 N 101.989 0.842826 1.3317 0
M  V30 1143 C 103.4 0.496651 1.79973 0
M  V30 1144 C 103.751 -0.984641 1.69703 0
M  V30 1145 O 102.876 -1.76743 1.24863 0
M  V30 1146 C 103.471 0.894727 3.26772 0
M  V30 1147 C 102.03 0.600629 3.71577 0
M  V30 1148 C 101.177 1.10091 2.5451 0
M  V30 1149 H 104.128 1.03116 1.20635 0
M  V30 1150 H 104.149 0.206347 3.7994 0
M  V30 1151 H 103.661 1.97287 3.34215 0
M  V30 1152 H 101.762 -0.467284 3.69658 0
M  V30 1153 H 101.875 1.15863 4.64879 0
M  V30 1154 H 100.239 0.52162 2.49301 0
M  V30 1155 H 101.022 2.18591 2.64713 0
M  V30 1156 N 103.467 -1.45747 0.599634 0
M  V30 1157 C 104.713 -2.02592 0.0918643 0
M  V30 1158 C 105.046 -1.46806 -1.27128 0
M  V30 1159 O 104.321 -0.639658 -1.83681 0
M  V30 1160 C 104.604 -3.60073 0.0443398 0
M  V30 1161 C 104.457 -4.26208 1.43759 0
M  V30 1162 C 105.776 -4.35309 -0.647608 0
M  V30 1163 H 102.895 -0.736175 0.034857 0
M  V30 1164 H 105.537 -1.73694 0.770081 0
M  V30 1165 H 103.687 -3.84823 -0.533224 0
M  V30 1166 H 105.359 -4.12668 2.06162 0
M  V30 1167 H 103.602 -3.84916 2.00056 0
M  V30 1168 H 104.273 -5.35069 1.35665 0
M  V30 1169 H 106.749 -4.15805 -0.156776 0
M  V30 1170 H 105.625 -5.45038 -0.649942 0
M  V30 1171 H 105.886 -4.07598 -1.71219 0
M  V30 1172 N 104.945 -0.338344 -1.53925 0
M  V30 1173 C 106.185 0.260168 -2.02737 0
M  V30 1174 C 106.549 1.48181 -1.22092 0
M  V30 1175 O 107.75 2.15416 -1.60777 0
M  V30 1176 C 106.021 0.571627 -3.52799 0
M  V30 1177 S 107.58 1.14769 -4.23525 0
M  V30 1178 H 104.398 0.077791 -0.706732 0
M  V30 1179 H 107 -0.474899 -1.89644 0
M  V30 1180 H 105.704 -0.325392 -4.09108 0
M  V30 1181 H 105.235 1.3365 -3.70002 0
M  V30 1182 H 107.25 2.43372 -4.32417 0
M  V30 1183 N 106.423 1.57458 -0.0668435 0
M  V30 1184 C 107.839 1.56947 0.289772 0
M  V30 1185 C 108.039 1.07584 1.70376 0
M  V30 1186 O 107.095 0.739486 2.41429 0
M  V30 1187 C 108.408 3.0052 0.103943 0
M  V30 1188 C 109.956 3.12517 0.173857 0
M  V30 1189 C 110.431 4.57997 0.0163682 0
M  V30 1190 N 111.922 4.63144 0.0721352 0
M  V30 1191 C 112.657 5.73394 -0.0253794 0
M  V30 1192 N 112.153 6.92576 -0.176133 0
M  V30 1193 N 113.946 5.62091 0.0313305 0
M  V30 1194 H 106.097 1.87863 -0.991027 0
M  V30 1195 H 108.36 0.86583 -0.38606 0
M  V30 1196 H 108.066 3.40729 -0.871572 0
M  V30 1197 H 107.94 3.67304 0.858366 0
M  V30 1198 H 110.327 2.72197 1.13985 0
M  V30 1199 H 110.408 2.48381 -0.611586 0
M  V30 1200 H 110.052 4.99005 -0.946374 0
M  V30 1201 H 109.982 5.20158 0.821153 0
M  V30 1202 H 112.473 3.77436 0.187263 0
M  V30 1203 H 112.786 7.72418 -0.242821 0
M  V30 1204 H 111.131 6.94678 -0.211429 0
M  V30 1205 H 114.322 4.67867 0.147773 0
M  V30 1206 H 114.495 6.47982 -0.048121 0
M  V30 1207 N 107.901 -0.206675 1.56239 0
M  V30 1208 C 108.849 -1.27571 1.94495 0
M  V30 1209 C 109.843 -1.47737 0.828862 0
M  V30 1210 O 111.049 -1.48735 1.0138 0
M  V30 1211 H 107.424 -0.428029 0.6183 0
M  V30 1212 H 109.395 -0.925961 2.8367 0
M  V30 1213 C 108.144 -2.61568 2.29079 0
M  V30 1214 H 107.467 -2.46863 3.14482 0
M  V30 1215 H 108.907 -3.35144 2.5972 0
M  V30 1216 C 107.366 -3.17695 1.12123 0
M  V30 1217 O 107.896 -3.99801 0.390153 0
M  V30 1218 N 106.102 -2.76276 0.901097 0
M  V30 1219 H 105.649 -2.09613 1.49733 0
M  V30 1220 H 105.607 -3.1417 0.120319 0
M  V30 1221 N 109.379 -1.50304 -0.473955 0
M  V30 1222 C 110.309 -1.71886 -1.58042 0
M  V30 1223 C 111.29 -0.567799 -1.60344 0
M  V30 1224 O 112.475 -0.806623 -1.76656 0
M  V30 1225 C 109.605 -1.81036 -2.96384 0
M  V30 1226 C 108.559 -2.962 -3.08949 0
M  V30 1227 C 107.885 -2.9049 -4.48909 0
M  V30 1228 C 109.185 -4.36752 -2.86434 0
M  V30 1229 H 110.879 -2.64527 -1.40234 0
M  V30 1230 H 108.425 -1.27295 -0.673201 0
M  V30 1231 H 110.378 -1.94719 -3.73714 0
M  V30 1232 H 109.102 -0.850147 -3.15341 0
M  V30 1233 H 107.761 -2.82164 -2.3405 0
M  V30 1234 H 107.409 -1.92321 -4.64781 0
M  V30 1235 H 107.109 -3.67802 -4.58253 0
M  V30 1236 H 108.633 -3.06218 -5.28264 0
M  V30 1237 H 110.047 -4.5133 -3.53517 0
M  V30 1238 H 108.444 -5.15493 -3.07225 0
M  V30 1239 H 109.514 -4.49321 -1.82316 0
M  V30 1240 N 110.857 0.726932 -1.39834 0
M  V30 1241 C 111.787 1.85405 -1.41941 0
M  V30 1242 C 112.768 1.67751 -0.281728 0
M  V30 1243 O 113.953 1.8795 -0.488717 0
M  V30 1244 C 111.083 3.23243 -1.2701 0
M  V30 1245 C 110.037 3.55549 -2.38262 0
M  V30 1246 C 109.363 4.9241 -2.08415 0
M  V30 1247 C 110.663 3.577 -3.80589 0
M  V30 1248 H 112.357 1.83899 -2.36266 0
M  V30 1249 H 109.903 0.883349 -1.13723 0
M  V30 1250 H 111.856 4.01775 -1.27103 0
M  V30 1251 H 110.58 3.25296 -0.291564 0
M  V30 1252 H 109.239 2.79351 -2.37399 0
M  V30 1253 H 108.887 4.91052 -1.0898 0
M  V30 1254 H 108.587 5.14992 -2.82943 0
M  V30 1255 H 110.111 5.73289 -2.10171 0
M  V30 1256 H 111.525 4.26293 -3.83337 0
M  V30 1257 H 109.922 3.91804 -4.54543 0
M  V30 1258 H 110.992 2.57328 -4.10987 0
M  V30 1259 N 112.336 1.25143 0.95797 0
M  V30 1260 C 113.561 1.12521 1.74223 0
M  V30 1261 C 113.986 -0.317402 1.85403 0
M  V30 1262 O 113.344 -1.2299 1.33204 0
M  V30 1263 C 113.392 1.78062 3.1357 0
M  V30 1264 O 112.496 1.058 3.98598 0
M  V30 1265 H 111.837 0.39304 0.535178 0
M  V30 1266 H 114.367 1.65641 1.201 0
M  V30 1267 H 114.377 1.84213 3.64046 0
M  V30 1268 H 113.052 2.83021 3.04749 0
M  V30 1269 H 111.629 1.07506 3.57067 0
M  V30 1270 N 113.814 -1.1601 1.06675 0
M  V30 1271 C 115.061 -1.86633 0.785781 0
M  V30 1272 C 115.389 -1.81929 -0.687896 0
M  V30 1273 O 114.644 -1.23253 -1.52011 0
M  V30 1274 C 114.943 -3.35547 1.23057 0
M  V30 1275 C 114.609 -3.60448 2.70902 0
M  V30 1276 C 113.271 -3.66954 3.11285 0
M  V30 1277 C 115.623 -3.7071 3.66365 0
M  V30 1278 C 112.951 -3.81225 4.45965 0
M  V30 1279 C 115.303 -3.86503 5.00797 0
M  V30 1280 C 113.967 -3.91252 5.40813 0
M  V30 1281 H 113.237 -0.682937 0.287538 0
M  V30 1282 H 115.884 -1.37146 1.33654 0
M  V30 1283 H 114.189 -3.87193 0.59907 0
M  V30 1284 H 115.886 -3.88583 0.990163 0
M  V30 1285 H 112.476 -3.56021 2.38636 0
M  V30 1286 H 116.66 -3.64991 3.36296 0
M  V30 1287 H 111.916 -3.83155 4.76447 0
M  V30 1288 H 116.09 -3.93385 5.74649 0
M  V30 1289 H 113.717 -4.02062 6.45174 0
M  V30 1290 N 115.292 -0.849877 -1.32721 0
M  V30 1291 C 116.222 -0.306308 -2.31482 0
M  V30 1292 C 117.203 0.591952 -1.59468 0
M  V30 1293 O 118.388 0.513199 -1.87296 0
M  V30 1294 C 115.518 0.510204 -3.43532 0
M  V30 1295 C 114.472 -0.293209 -4.26994 0
M  V30 1296 C 113.798 0.647743 -5.30762 0
M  V30 1297 C 115.098 -1.51634 -4.99804 0
M  V30 1298 H 116.792 -1.13153 -2.77195 0
M  V30 1299 H 114.338 -0.545553 -1.33266 0
M  V30 1300 H 116.291 0.900856 -4.11658 0
M  V30 1301 H 115.015 1.36874 -2.96535 0
M  V30 1302 H 113.674 -0.665555 -3.60508 0
M  V30 1303 H 113.322 1.50299 -4.8002 0
M  V30 1304 H 113.022 0.11422 -5.87489 0
M  V30 1305 H 114.546 1.03567 -6.01753 0
M  V30 1306 H 115.96 -1.19824 -5.60638 0
M  V30 1307 H 114.357 -1.98745 -5.66234 0
M  V30 1308 H 115.427 -2.28018 -4.27943 0
M  V30 1309 N 116.77 1.45427 -0.607355 0
M  V30 1310 C 118.186 1.57283 -0.270985 0
M  V30 1311 C 118.386 1.59875 1.22647 0
M  V30 1312 O 117.442 1.52893 2.00948 0
M  V30 1313 C 118.755 2.85566 -0.941952 0
M  V30 1314 C 120.303 2.9924 -0.917849 0
M  V30 1315 C 120.778 4.30293 -1.56882 0
M  V30 1316 N 122.269 4.37051 -1.5343 0
M  V30 1317 C 123.004 5.37123 -2.00715 0
M  V30 1318 N 122.5 6.43734 -2.56084 0
M  V30 1319 N 124.293 5.28479 -1.91484 0
M  V30 1320 H 116.444 1.41988 -1.57966 0
M  V30 1321 H 118.707 0.67885 -0.661715 0
M  V30 1322 H 118.413 2.8955 -1.99633 0
M  V30 1323 H 118.287 3.74322 -0.465096 0
M  V30 1324 H 120.674 2.94822 0.127984 0
M  V30 1325 H 120.755 2.11895 -1.43297 0
M  V30 1326 H 120.399 4.35469 -2.61398 0
M  V30 1327 H 120.329 5.16454 -1.02873 0
M  V30 1328 H 122.82 3.60615 -1.12982 0
M  V30 1329 H 123.133 7.16341 -2.89958 0
M  V30 1330 H 121.478 6.44485 -2.60122 0
M  V30 1331 H 124.669 4.44098 -1.47967 0
M  V30 1332 H 124.842 6.0632 -2.28648 0
M  V30 1333 N 118.248 0.346503 1.53744 0
M  V30 1334 C 119.496 -0.248612 2.00565 0
M  V30 1335 C 119.817 -1.5083 1.23593 0
M  V30 1336 O 119.087 -1.92858 0.343912 0
M  V30 1337 H 117.667 -0.0948564 0.740953 0
M  V30 1338 H 120.329 0.468341 1.89189 0
M  V30 1339 H 119.425 -0.488994 3.08245 0
M  V30 1340 N 119.726 -1.57421 0.075193 0
M  V30 1341 C 120.951 -1.98364 -0.605515 0
M  V30 1342 C 121.376 -0.953383 -1.62149 0
M  V30 1343 O 120.734 0.0806053 -1.81121 0
M  V30 1344 C 120.782 -3.38332 -1.24756 0
M  V30 1345 O 119.886 -3.37959 -2.36342 0
M  V30 1346 H 119.227 -0.645553 -0.155428 0
M  V30 1347 H 121.757 -2.04044 0.150714 0
M  V30 1348 H 121.767 -3.75591 -1.5936 0
M  V30 1349 H 120.442 -4.12846 -0.503129 0
M  V30 1350 H 119.019 -3.12474 -2.03506 0
M  V30 1351 N 121.204 0.198386 -1.56346 0
M  V30 1352 C 122.429 0.939682 -1.84891 0
M  V30 1353 C 122.854 1.76202 -0.658369 0
M  V30 1354 O 122.212 1.76993 0.392851 0
M  V30 1355 C 122.26 1.81428 -3.11635 0
M  V30 1356 O 121.364 2.91265 -2.91956 0
M  V30 1357 H 120.705 0.264807 -0.608912 0
M  V30 1358 H 123.235 0.204695 -2.03573 0
M  V30 1359 H 123.245 2.21958 -3.42343 0
M  V30 1360 H 121.92 1.21004 -3.97908 0
M  V30 1361 H 120.497 2.54514 -2.72538 0
M  V30 1362 N 122.682 1.50554 0.465978 0
M  V30 1363 C 123.645 1.69233 1.54574 0
M  V30 1364 C 124.645 0.562901 1.50626 0
M  V30 1365 O 125.835 0.830016 1.53155 0
M  V30 1366 C 122.967 1.7223 2.94193 0
M  V30 1367 H 124.16 2.65571 1.39327 0
M  V30 1368 H 121.713 1.40111 0.692711 0
M  V30 1369 H 122.448 0.77603 3.14878 0
M  V30 1370 H 122.233 2.54285 2.98466 0
M  V30 1371 H 123.723 1.88618 3.72576 0
M  V30 1372 N 124.16 -0.719506 1.40217 0
M  V30 1373 C 125.4 -1.49181 1.39729 0
M  V30 1374 C 125.764 -1.92 -0.00250614 0
M  V30 1375 O 126.965 -2.68473 -0.132479 0
M  V30 1376 C 125.236 -2.68767 2.35582 0
M  V30 1377 S 126.795 -3.58224 2.53418 0
M  V30 1378 H 123.613 -0.510091 0.495307 0
M  V30 1379 H 126.215 -0.841724 1.76452 0
M  V30 1380 H 124.919 -2.35475 3.36124 0
M  V30 1381 H 124.45 -3.38691 2.0013 0
M  V30 1382 H 126.465 -4.63033 1.78367 0
M  V30 1383 N 125.638 -1.25649 -0.95132 0
M  V30 1384 C 126.878 -1.11802 -1.71113 0
M  V30 1385 C 127.242 0.334758 -1.89059 0
M  V30 1386 O 128.443 0.595121 -2.62129 0
M  V30 1387 C 126.714 -1.85512 -3.05483 0
M  V30 1388 S 128.273 -1.87597 -3.96677 0
M  V30 1389 H 125.091 -0.399552 -0.588115 0
M  V30 1390 H 127.693 -1.59222 -1.1344 0
M  V30 1391 H 126.397 -2.90299 -2.90094 0
M  V30 1392 H 125.928 -1.38493 -3.68216 0
M  V30 1393 H 127.943 -0.955389 -4.86916 0
M  V30 1394 N 127.117 1.15442 -1.07289 0
M  V30 1395 C 128.342 1.90638 -0.816828 0
M  V30 1396 C 128.767 1.77445 0.624083 0
M  V30 1397 O 128.125 1.10671 1.43602 0
M  V30 1398 C 128.173 3.39008 -1.22906 0
M  V30 1399 O 127.277 4.10701 -0.373975 0
M  V30 1400 H 126.618 0.593555 -0.297638 0
M  V30 1401 H 129.148 1.46198 -1.43134 0
M  V30 1402 H 129.158 3.89801 -1.20497 0
M  V30 1403 H 127.833 3.47929 -2.27856 0
M  V30 1404 H 126.41 3.70046 -0.460499 0
M  V30 1405 N 128.595 0.856903 1.32268 0
M  V30 1406 C 129.823 0.475439 2.01363 0
M  V30 1407 C 130.238 -0.928486 1.64392 0
M  V30 1408 O 129.595 -1.60624 0.866387 0
M  V30 1409 C 129.646 0.607545 3.56358 0
M  V30 1410 O 129.367 1.95617 3.92002 0
M  V30 1411 C 130.868 0.225382 4.42727 0
M  V30 1412 H 128.088 0.186636 0.644521 0
M  V30 1413 H 130.632 1.15446 1.68797 0
M  V30 1414 H 128.787 -0.0237719 3.87393 0
M  V30 1415 H 129.201 1.95455 4.86721 0
M  V30 1416 H 130.675 0.368813 5.50767 0
M  V30 1417 H 131.152 -0.834369 4.31202 0
M  V30 1418 H 131.758 0.831864 4.17085 0
M  V30 1419 N 130.073 -1.45103 0.615059 0
M  V30 1420 C 131.489 -1.57137 0.279322 0
M  V30 1421 C 131.689 -1.60523 -1.21797 0
M  V30 1422 O 130.745 -1.53956 -2.00134 0
M  V30 1423 C 132.058 -2.85062 0.957083 0
M  V30 1424 C 133.606 -2.98749 0.933706 0
M  V30 1425 C 134.081 -4.29455 1.59162 0
M  V30 1426 N 135.572 -4.36231 1.55746 0
M  V30 1427 C 136.307 -5.36051 2.0356 0
M  V30 1428 N 135.803 -6.42367 2.59494 0
M  V30 1429 N 137.596 -5.27456 1.94284 0
M  V30 1430 H 129.747 -1.41148 1.58717 0
M  V30 1431 H 132.01 -0.675331 0.665306 0
M  V30 1432 H 131.716 -2.88488 2.01166 0
M  V30 1433 H 131.59 -3.7407 0.48494 0
M  V30 1434 H 133.977 -2.94886 -0.112347 0
M  V30 1435 H 134.058 -2.11132 1.44419 0
M  V30 1436 H 133.702 -4.34077 2.63704 0
M  V30 1437 H 133.632 -5.15901 1.0561 0
M  V30 1438 H 136.123 -3.60011 1.14893 0
M  V30 1439 H 136.436 -7.14793 2.93752 0
M  V30 1440 H 134.781 -6.43097 2.63537 0
M  V30 1441 H 137.972 -4.43308 1.5032 0
M  V30 1442 H 138.145 -6.05099 2.3186 0
M  V30 1443 N 131.551 -0.354651 -1.53558 0
M  V30 1444 C 132.797 0.238797 -2.01389 0
M  V30 1445 C 133.13 1.49309 -1.2418 0
M  V30 1446 O 132.405 1.91638 -0.332457 0
M  V30 1447 C 132.688 0.541771 -3.56001 0
M  V30 1448 C 132.541 -0.725388 -4.43912 0
M  V30 1449 C 133.86 1.34685 -4.18984 0
M  V30 1450 H 130.979 0.0853177 -0.732045 0
M  V30 1451 H 133.621 -0.477384 -1.83905 0
M  V30 1452 H 131.771 1.15189 -3.71031 0
M  V30 1453 H 133.443 -1.36313 -4.407 0
M  V30 1454 H 131.686 -1.34801 -4.12324 0
M  V30 1455 H 132.357 -0.468505 -5.50008 0
M  V30 1456 H 134.833 0.830837 -4.07721 0
M  V30 1457 H 133.709 1.52759 -5.27215 0
M  V30 1458 H 133.97 2.35221 -3.74331 0
M  V30 1459 N 133.029 1.57378 -0.0835403 0
M  V30 1460 C 134.445 1.57246 0.273109 0
M  V30 1461 C 134.645 1.09385 1.69225 0
M  V30 1462 O 133.701 0.765051 2.40631 0
M  V30 1463 C 135.014 3.00614 0.0720628 0
M  V30 1464 C 136.562 3.12684 0.1407 0
M  V30 1465 C 137.037 4.57989 -0.0322094 0
M  V30 1466 N 138.528 4.63194 0.0230085 0
M  V30 1467 C 139.263 5.73335 -0.0861941 0
M  V30 1468 N 138.759 6.9235 -0.24958 0
M  V30 1469 N 140.552 5.62093 -0.0282886 0
M  V30 1470 H 132.703 1.86801 -1.0109 0
M  V30 1471 H 134.966 0.861687 -0.395222 0
M  V30 1472 H 134.672 3.39786 -0.907662 0
M  V30 1473 H 134.546 3.68193 0.81936 0
M  V30 1474 H 136.933 2.73391 1.11092 0
M  V30 1475 H 137.014 2.47719 -0.637896 0
M  V30 1476 H 136.658 4.97973 -0.999247 0
M  V30 1477 H 136.588 5.21 0.765937 0
M  V30 1478 H 139.079 3.77613 0.14722 0
M  V30 1479 H 139.392 7.72117 -0.324733 0
M  V30 1480 H 137.737 6.94415 -0.285097 0
M  V30 1481 H 140.928 4.67997 0.0981408 0
M  V30 1482 H 141.101 6.47895 -0.116845 0
M  V30 1483 N 134.507 -0.190092 1.56449 0
M  V30 1484 C 135.923 -0.54113 1.50146 0
M  V30 1485 C 136.123 -1.85603 0.784465 0
M  V30 1486 O 135.179 -2.5024 0.337051 0
M  V30 1487 C 136.492 -0.591241 2.9483 0
M  V30 1488 C 138.04 -0.679732 3.0553 0
M  V30 1489 C 138.515 -0.760908 4.51635 0
M  V30 1490 N 140.006 -0.824302 4.55806 0
M  V30 1491 C 140.741 -0.907365 5.66175 0
M  V30 1492 N 140.237 -0.952422 6.86222 0
M  V30 1493 N 142.03 -0.94494 5.541 0
M  V30 1494 H 134.181 0.67235 2.01478 0
M  V30 1495 H 136.444 0.240127 0.917084 0
M  V30 1496 H 136.15 0.305905 3.50367 0
M  V30 1497 H 136.024 -1.44422 3.48457 0
M  V30 1498 H 138.411 -1.56731 2.50039 0
M  V30 1499 H 138.492 0.199549 2.5502 0
M  V30 1500 H 138.136 0.122336 5.07753 0
M  V30 1501 H 138.066 -1.65606 4.99882 0
M  V30 1502 H 140.557 -0.798526 3.69367 0
M  V30 1503 H 140.87 -1.01645 7.66086 0
M  V30 1504 H 139.215 -0.921014 6.8887 0
M  V30 1505 H 142.406 -0.906612 4.59236 0
M  V30 1506 H 142.579 -1.00622 6.4014 0
M  V30 1507 N 135.985 -1.50799 -0.457987 0
M  V30 1508 C 136.917 -1.66786 -1.57211 0
M  V30 1509 C 137.93 -0.548962 -1.53265 0
M  V30 1510 O 139.119 -0.8226 -1.58416 0
M  V30 1511 C 136.219 -1.64834 -2.96113 0
M  V30 1512 C 135.392 -2.92971 -3.24787 0
M  V30 1513 C 134.451 -2.83485 -4.43309 0
M  V30 1514 O 133.477 -3.5744 -4.42973 0
M  V30 1515 N 134.679 -1.97929 -5.45714 0
M  V30 1516 H 137.444 -2.62889 -1.43909 0
M  V30 1517 H 135.005 -1.48427 -0.646617 0
M  V30 1518 H 136.997 -1.56084 -3.7339 0
M  V30 1519 H 135.567 -0.764118 -3.03117 0
M  V30 1520 H 134.787 -3.15749 -2.36 0
M  V30 1521 H 136.075 -3.77834 -3.40762 0
M  V30 1522 H 135.473 -1.37182 -5.48815 0
M  V30 1523 H 134.03 -1.95073 -6.21924 0
M  V30 1524 N 137.463 0.71206 -1.40597 0
M  V30 1525 C 138.393 1.83889 -1.43899 0
M  V30 1526 C 139.374 1.67442 -0.299504 0
M  V30 1527 O 140.559 1.87421 -0.508624 0
M  V30 1528 C 137.689 3.21877 -1.30431 0
M  V30 1529 C 136.643 3.53002 -2.42019 0
M  V30 1530 C 135.969 4.90172 -2.13626 0
M  V30 1531 C 137.269 3.53643 -3.84362 0
M  V30 1532 H 138.963 1.81383 -2.38203 0
M  V30 1533 H 136.509 0.871237 -1.14654 0
M  V30 1534 H 138.462 4.00404 -1.31357 0
M  V30 1535 H 137.186 3.24968 -0.326049 0
M  V30 1536 H 135.845 2.76818 -2.40349 0
M  V30 1537 H 135.493 4.89869 -1.14182 0
M  V30 1538 H 135.193 5.11962 -2.88389 0
M  V30 1539 H 136.717 5.71028 -2.1624 0
M  V30 1540 H 138.131 4.22203 -3.87837 0
M  V30 1541 H 136.528 3.86961 -4.58673 0
M  V30 1542 H 137.598 2.52954 -4.13693 0
M  V30 1543 N 138.941 1.26152 0.944643 0
M  V30 1544 C 140.218 1.02247 1.66748 0
M  V30 1545 C 140.598 -0.448202 2.06287 0
M  V30 1546 O 139.946 -1.42779 1.78399 0
M  V30 1547 C 140.156 1.96788 2.88228 0
M  V30 1548 C 141.504 2.25201 3.59958 0
M  V30 1549 O 142.528 1.94626 2.98327 0
M  V30 1550 O 141.387 2.77242 4.70956 0
M  V30 1551 H 138.481 0.388517 0.730057 0
M  V30 1552 H 141.027 1.37348 0.99668 0
M  V30 1553 H 139.799 2.96047 2.55875 0
M  V30 1554 H 139.422 1.62145 3.63035 0
M  V30 1555 N 140.419 -1.14872 1.07899 0
M  V30 1556 C 141.835 -1.37776 0.805606 0
M  V30 1557 C 142.035 -1.92743 -0.587555 0
M  V30 1558 O 141.091 -2.13678 -1.34528 0
M  V30 1559 C 142.404 -2.34361 1.88402 0
M  V30 1560 C 143.952 -2.48012 1.90942 0
M  V30 1561 C 144.427 -3.47893 2.97883 0
M  V30 1562 N 145.918 -3.55433 2.97021 0
M  V30 1563 C 146.653 -4.32553 3.76412 0
M  V30 1564 N 146.149 -5.12959 4.65666 0
M  V30 1565 N 147.942 -4.27697 3.64735 0
M  V30 1566 H 140.093 -0.775365 1.97742 0
M  V30 1567 H 142.356 -0.403521 0.857831 0
M  V30 1568 H 142.062 -2.01098 2.88535 0
M  V30 1569 H 141.936 -3.34206 1.74889 0
M  V30 1570 H 144.323 -2.8057 0.914579 0
M  V30 1571 H 144.404 -1.48147 2.08534 0
M  V30 1572 H 144.048 -3.16069 3.97571 0
M  V30 1573 H 143.978 -4.47527 2.77538 0
M  V30 1574 H 146.469 -2.98048 2.32326 0
M  V30 1575 H 146.782 -5.69065 5.22862 0
M  V30 1576 H 145.127 -5.12245 4.69712 0
M  V30 1577 H 148.318 -3.63949 2.94378 0
M  V30 1578 H 148.491 -4.8755 4.26848 0
M  V30 1579 N 141.898 -0.863906 -1.31812 0
M  V30 1580 C 142.846 -0.30422 -2.30602 0
M  V30 1581 C 143.84 0.577419 -1.59255 0
M  V30 1582 O 145.046 0.464194 -1.73912 0
M  V30 1583 H 141.421 -0.0796877 -0.747766 0
M  V30 1584 H 143.392 -1.15148 -2.75288 0
M  V30 1585 C 142.141 0.484617 -3.44306 0
M  V30 1586 H 141.464 -0.18451 -3.99374 0
M  V30 1587 H 142.904 0.841664 -4.15562 0
M  V30 1588 C 141.363 1.6735 -2.92396 0
M  V30 1589 O 141.893 2.77273 -2.90659 0
M  V30 1590 N 140.099 1.50362 -2.48676 0
M  V30 1591 H 139.646 0.609402 -2.50288 0
M  V30 1592 H 139.604 2.30051 -2.14299 0
M  V30 1593 N 143.376 1.44774 -0.622745 0
M  V30 1594 C 144.306 2.33382 0.0741861 0
M  V30 1595 C 145.287 1.47719 0.843387 0
M  V30 1596 O 146.472 1.76458 0.810934 0
M  V30 1597 C 143.602 3.30663 1.06204 0
M  V30 1598 C 142.556 4.26079 0.405037 0
M  V30 1599 C 141.882 5.13165 1.5022 0
M  V30 1600 C 143.182 5.1781 -0.683414 0
M  V30 1601 H 144.876 2.91905 -0.665713 0
M  V30 1602 H 142.422 1.40363 -0.321587 0
M  V30 1603 H 144.375 3.9153 1.55827 0
M  V30 1604 H 143.099 2.70331 1.83272 0
M  V30 1605 H 141.758 3.66532 -0.0704683 0
M  V30 1606 H 141.406 4.49191 2.26355 0
M  V30 1607 H 141.106 5.77812 1.06803 0
M  V30 1608 H 142.63 5.76902 2.00041 0
M  V30 1609 H 144.044 5.72661 -0.270631 0
M  V30 1610 H 142.441 5.91015 -1.04023 0
M  V30 1611 H 143.511 4.59326 -1.55395 0
M  V30 1612 N 144.854 0.36279 1.53368 0
M  V30 1613 C 146.082 -0.228613 2.05633 0
M  V30 1614 C 146.497 -1.42676 1.23649 0
M  V30 1615 O 145.854 -1.80394 0.27647 0
M  V30 1616 C 145.905 -0.624845 3.56059 0
M  V30 1617 O 145.626 0.525675 4.34935 0
M  V30 1618 C 147.127 -1.27493 4.24571 0
M  V30 1619 H 144.347 -0.0407183 0.669763 0
M  V30 1620 H 146.891 0.520352 1.97769 0
M  V30 1621 H 145.046 -1.32373 3.64083 0
M  V30 1622 H 145.46 0.205969 5.24095 0
M  V30 1623 H 146.934 -1.50277 5.31151 0
M  V30 1624 H 147.411 -2.23439 3.78116 0
M  V30 1625 H 148.017 -0.617558 4.20792 0
M  V30 1626 N 146.332 -1.57332 0.0918853 0
M  V30 1627 C 147.579 -1.94236 -0.572577 0
M  V30 1628 C 147.907 -0.973398 -1.6839 0
M  V30 1629 O 147.162 0.00756912 -1.95699 0
M  V30 1630 C 147.461 -3.37689 -1.17051 0
M  V30 1631 C 147.127 -4.50527 -0.183304 0
M  V30 1632 C 145.789 -4.81119 0.0882276 0
M  V30 1633 C 148.141 -5.18883 0.49095 0
M  V30 1634 C 145.469 -5.77395 1.04076 0
M  V30 1635 C 147.821 -6.1618 1.43193 0
M  V30 1636 C 146.485 -6.45179 1.71173 0
M  V30 1637 H 145.755 -0.710762 -0.209521 0
M  V30 1638 H 148.402 -1.9077 0.167036 0
M  V30 1639 H 146.707 -3.37718 -1.9863 0
M  V30 1640 H 148.404 -3.63543 -1.69227 0
M  V30 1641 H 144.994 -4.26681 -0.405124 0
M  V30 1642 H 149.178 -4.95427 0.294312 0
M  V30 1643 H 144.434 -5.98179 1.26457 0
M  V30 1644 H 148.608 -6.68243 1.96023 0
M  V30 1645 H 146.235 -7.1959 2.4514 0
M  V30 1646 N 147.81 0.181792 -1.56548 0
M  V30 1647 C 148.76 1.22961 -1.92002 0
M  V30 1648 C 149.744 1.40331 -0.787146 0
M  V30 1649 O 150.936 1.42478 -1.05019 0
M  V30 1650 C 148.065 2.57144 -2.27446 0
M  V30 1651 C 147.151 2.43512 -3.47222 0
M  V30 1652 N 147.542 1.99577 -4.64761 0
M  V30 1653 C 145.84 2.74368 -3.51622 0
M  V30 1654 C 146.541 1.98156 -5.46909 0
M  V30 1655 N 145.517 2.40164 -4.8767 0
M  V30 1656 H 149.319 0.881462 -2.8037 0
M  V30 1657 H 146.833 0.390141 -1.57644 0
M  V30 1658 H 148.83 3.32847 -2.51035 0
M  V30 1659 H 147.49 2.92771 -1.40411 0
M  V30 1660 H 148.501 1.70078 -4.89177 0
M  V30 1661 H 145.178 3.14102 -2.75038 0
M  V30 1662 H 146.568 1.65975 -6.51077 0
M  V30 1663 N 149.288 1.51039 0.449983 0
M  V30 1664 C 150.235 1.71439 1.54523 0
M  V30 1665 C 151.205 0.555871 1.56522 0
M  V30 1666 O 152.39 0.788871 1.73728 0
M  V30 1667 C 149.53 1.83384 2.92343 0
M  V30 1668 C 148.643 3.10873 2.9997 0
M  V30 1669 C 147.778 3.13488 4.28834 0
M  V30 1670 C 146.817 4.35343 4.30282 0
M  V30 1671 N 145.954 4.35579 5.5065 0
M  V30 1672 H 150.794 2.64934 1.36433 0
M  V30 1673 H 148.331 1.31312 0.662982 0
M  V30 1674 H 150.289 1.88291 3.72293 0
M  V30 1675 H 148.919 0.933086 3.0902 0
M  V30 1676 H 147.971 3.15336 2.12761 0
M  V30 1677 H 149.283 4.00814 2.96901 0
M  V30 1678 H 148.437 3.17241 5.17149 0
M  V30 1679 H 147.176 2.21414 4.34543 0
M  V30 1680 H 146.181 4.3178 3.40362 0
M  V30 1681 H 147.406 5.28668 4.26248 0
M  V30 1682 H 145.352 3.46369 5.57104 0
M  V30 1683 H 145.269 5.19313 5.49409 0
M  V30 1684 H 146.537 4.43507 6.41032 0
M  V30 1685 N 150.766 -0.704594 1.40972 0
M  V30 1686 C 151.699 -1.82861 1.36518 0
M  V30 1687 C 152.677 -1.6091 0.23382 0
M  V30 1688 O 153.861 -1.83778 0.419271 0
M  V30 1689 C 150.988 -3.1939 1.12729 0
M  V30 1690 C 150.034 -3.60148 2.28463 0
M  V30 1691 S 150.867 -3.65994 3.90907 0
M  V30 1692 C 152.023 -5.05264 3.69403 0
M  V30 1693 H 152.256 -1.86361 2.3164 0
M  V30 1694 H 149.789 -0.872439 1.27389 0
M  V30 1695 H 151.747 -3.98211 0.996893 0
M  V30 1696 H 150.408 -3.1351 0.192427 0
M  V30 1697 H 149.601 -4.59309 2.07489 0
M  V30 1698 H 149.203 -2.88612 2.37863 0
M  V30 1699 H 151.495 -5.92504 3.28551 0
M  V30 1700 H 152.438 -5.31278 4.68134 0
M  V30 1701 H 152.846 -4.76377 3.02862 0
M  V30 1702 N 152.244 -1.26651 -0.937939 0
M  V30 1703 C 153.49 -1.12553 -1.687 0
M  V30 1704 C 153.823 0.329782 -1.91379 0
M  V30 1705 O 153.098 1.24202 -1.4968 0
M  V30 1706 C 153.381 -1.89862 -3.05981 0
M  V30 1707 C 153.234 -3.43318 -2.90607 0
M  V30 1708 C 154.553 -1.69499 -4.0615 0
M  V30 1709 H 151.672 -0.410257 -0.612257 0
M  V30 1710 H 154.314 -1.55685 -1.08913 0
M  V30 1711 H 152.464 -1.53204 -3.57017 0
M  V30 1712 H 154.136 -3.89747 -2.46769 0
M  V30 1713 H 152.379 -3.70179 -2.26164 0
M  V30 1714 H 153.05 -3.92642 -3.8799 0
M  V30 1715 H 155.526 -2.01442 -3.64088 0
M  V30 1716 H 154.402 -2.26002 -5.00214 0
M  V30 1717 H 154.663 -0.640365 -4.37438 0
M  V30 1718 N 153.722 1.14298 -1.08507 0
M  V30 1719 C 154.685 2.17607 -0.719711 0
M  V30 1720 C 155.685 1.58907 0.245997 0
M  V30 1721 O 156.875 1.74181 0.0254081 0
M  V30 1722 C 154.007 3.40842 -0.0627695 0
M  V30 1723 H 155.2 2.51443 -1.63452 0
M  V30 1724 H 152.753 1.28963 -0.88307 0
M  V30 1725 H 153.488 3.12587 0.863716 0
M  V30 1726 H 153.273 3.84713 -0.757504 0
M  V30 1727 H 154.763 4.17221 0.177786 0
M  V30 1728 N 155.201 0.870884 1.31352 0
M  V30 1729 C 156.447 0.492314 1.97352 0
M  V30 1730 C 156.802 -0.945174 1.67583 0
M  V30 1731 O 156.095 -1.65674 0.962423 0
M  V30 1732 C 156.289 0.687157 3.50732 0
M  V30 1733 C 156.118 2.14203 3.95407 0
M  V30 1734 C 154.888 2.78382 4.21701 0
M  V30 1735 C 157.086 3.1144 4.09279 0
M  V30 1736 N 155.068 4.14611 4.52737 0
M  V30 1737 C 156.439 4.32702 4.44037 0
M  V30 1738 C 158.494 3.07418 3.91661 0
M  V30 1739 C 157.197 5.50463 4.63015 0
M  V30 1740 C 159.223 4.24438 4.11833 0
M  V30 1741 C 158.585 5.44463 4.46923 0
M  V30 1742 H 154.684 0.229206 0.747655 0
M  V30 1743 H 157.268 1.12568 1.5886 0
M  V30 1744 H 155.439 0.083384 3.8831 0
M  V30 1745 H 157.171 0.276883 4.03752 0
M  V30 1746 H 153.926 2.29326 4.14375 0
M  V30 1747 H 154.35 4.84928 4.72413 0
M  V30 1748 H 158.992 2.15732 3.6362 0
M  V30 1749 H 156.71 6.42666 4.89904 0
M  V30 1750 H 160.296 4.2278 3.99685 0
M  V30 1751 H 159.176 6.33504 4.62214 0
M  V30 1752 N 156.679 -1.44442 0.630414 0
M  V30 1753 C 157.612 -2.27862 -0.124247 0
M  V30 1754 C 158.59 -1.38495 -0.851931 0
M  V30 1755 O 159.774 -1.67935 -0.856166 0
M  V30 1756 C 156.901 -3.17407 -1.18197 0
M  V30 1757 C 155.947 -4.22875 -0.554892 0
M  V30 1758 S 156.78 -5.31485 0.654489 0
M  V30 1759 C 157.936 -6.246 -0.40326 0
M  V30 1760 H 158.169 -2.91519 0.583435 0
M  V30 1761 H 155.702 -1.48618 0.418565 0
M  V30 1762 H 157.66 -3.69549 -1.78728 0
M  V30 1763 H 156.321 -2.52971 -1.86184 0
M  V30 1764 H 155.514 -4.85542 -1.35148 0
M  V30 1765 H 155.116 -3.73992 -0.0242105 0
M  V30 1766 H 157.408 -6.65375 -1.27602 0
M  V30 1767 H 158.351 -7.07851 0.187813 0
M  V30 1768 H 158.759 -5.59775 -0.728837 0
M  V30 1769 N 158.157 -0.370918 -1.53173 0
M  V30 1770 C 159.406 0.218249 -2.00516 0
M  V30 1771 C 159.719 1.49429 -1.26215 0
M  V30 1772 O 160.925 2.16239 -1.64174 0
M  V30 1773 C 159.381 0.43948 -3.57207 0
M  V30 1774 C 158.989 -0.822244 -4.4039 0
M  V30 1775 C 160.733 0.986012 -4.1289 0
M  V30 1776 C 158.64 -0.570304 -5.88644 0
M  V30 1777 H 157.57 0.0853333 -0.749156 0
M  V30 1778 H 160.221 -0.490483 -1.76823 0
M  V30 1779 H 158.603 1.20961 -3.77074 0
M  V30 1780 H 159.777 -1.59557 -4.32294 0
M  V30 1781 H 158.092 -1.29238 -3.95836 0
M  V30 1782 H 160.689 1.18991 -5.21292 0
M  V30 1783 H 161.032 1.94972 -3.6782 0
M  V30 1784 H 161.565 0.27592 -3.96842 0
M  V30 1785 H 158.304 -1.50449 -6.38001 0
M  V30 1786 H 157.824 0.164427 -5.99575 0
M  V30 1787 H 159.503 -0.19784 -6.46697 0
M  V30 1788 N 159.635 1.57281 -0.100228 0
M  V30 1789 C 160.598 2.13158 0.842398 0
M  V30 1790 C 161.598 1.06202 1.20738 0
M  V30 1791 O 162.788 1.32066 1.13597 0
M  V30 1792 C 159.92 2.65639 2.13655 0
M  V30 1793 H 161.113 2.97766 0.357114 0
M  V30 1794 H 158.666 1.5559 0.148823 0
M  V30 1795 H 159.401 1.84566 2.66657 0
M  V30 1796 H 159.186 3.43844 1.88451 0
M  V30 1797 H 160.676 3.08846 2.81077 0
M  V30 1798 N 161.113 -0.173488 1.56642 0
M  V30 1799 C 162.043 -1.2171 1.99271 0
M  V30 1800 C 163.024 -1.46289 0.867959 0
M  V30 1801 O 164.209 -1.5766 1.13388 0
M  V30 1802 C 161.339 -2.55651 2.35074 0
M  V30 1803 C 160.293 -2.45645 3.50489 0
M  V30 1804 C 159.619 -3.84056 3.72028 0
M  V30 1805 C 160.919 -1.96302 4.84007 0
M  V30 1806 H 162.613 -0.86275 2.867 0
M  V30 1807 H 160.159 -0.413571 1.37933 0
M  V30 1808 H 162.112 -3.2886 2.63494 0
M  V30 1809 H 160.836 -2.92869 1.44552 0
M  V30 1810 H 159.495 -1.7489 3.22194 0
M  V30 1811 H 159.143 -4.18664 2.788 0
M  V30 1812 H 158.843 -3.7823 4.49684 0
M  V30 1813 H 160.367 -4.58854 4.02846 0
M  V30 1814 H 161.781 -2.59284 5.11317 0
M  V30 1815 H 160.178 -2.01429 5.65284 0
M  V30 1816 H 161.248 -0.917226 4.76146 0
M  V30 1817 N 162.591 -1.51276 -0.441967 0
M  V30 1818 C 163.541 -1.6864 -1.53442 0
M  V30 1819 C 164.525 -0.540444 -1.51552 0
M  V30 1820 O 165.717 -0.796157 -1.58083 0
M  V30 1821 C 162.846 -1.8106 -2.91672 0
M  V30 1822 C 161.932 -3.01424 -2.98336 0
M  V30 1823 N 162.323 -4.2467 -2.74752 0
M  V30 1824 C 160.621 -3.00584 -3.29493 0
M  V30 1825 C 161.322 -5.05891 -2.87139 0
M  V30 1826 N 160.298 -4.40442 -3.18609 0
M  V30 1827 H 164.1 -2.61598 -1.33954 0
M  V30 1828 H 161.614 -1.4886 -0.6492 0
M  V30 1829 H 163.611 -1.91609 -3.70259 0
M  V30 1830 H 162.271 -0.892795 -3.12185 0
M  V30 1831 H 163.282 -4.53691 -2.49769 0
M  V30 1832 H 159.959 -2.18417 -3.55809 0
M  V30 1833 H 161.349 -6.13983 -2.72899 0
M  V30 1834 N 164.069 0.697108 -1.41344 0
M  V30 1835 C 165.294 1.49096 -1.44171 0
M  V30 1836 C 165.719 1.88038 -0.0481568 0
M  V30 1837 O 165.077 1.54525 0.948243 0
M  V30 1838 C 165.125 2.73088 -2.3549 0
M  V30 1839 O 164.229 3.70514 -1.81088 0
M  V30 1840 H 163.57 0.448801 -0.489361 0
M  V30 1841 H 166.1 0.856992 -1.85787 0
M  V30 1842 H 166.11 3.21413 -2.51312 0
M  V30 1843 H 164.785 2.44081 -3.36745 0
M  V30 1844 H 163.362 3.29441 -1.74708 0
M  V30 1845 N 165.547 1.27147 0.931209 0
M  V30 1846 C 166.51 1.09615 2.01289 0
M  V30 1847 C 167.51 0.0412581 1.60747 0
M  V30 1848 O 168.7 0.285545 1.71844 0
M  V30 1849 C 165.832 0.669447 3.34262 0
M  V30 1850 H 167.025 2.05662 2.18273 0
M  V30 1851 H 164.578 1.09885 1.11153 0
M  V30 1852 H 165.313 -0.292572 3.22978 0
M  V30 1853 H 165.098 1.43127 3.65044 0
M  V30 1854 H 166.588 0.568921 4.13706 0
M  V30 1855 N 167.025 -1.13721 1.09112 0
M  V30 1856 C 168.274 -1.84275 0.82009 0
M  V30 1857 C 168.587 -1.84253 -0.656509 0
M  V30 1858 O 169.793 -2.50668 -1.04296 0
M  V30 1859 C 168.249 -3.30825 1.41714 0
M  V30 1860 C 167.857 -3.39244 2.92605 0
M  V30 1861 C 169.601 -4.06443 1.22492 0
M  V30 1862 C 167.508 -4.80047 3.45411 0
M  V30 1863 H 166.438 -0.690387 0.30312 0
M  V30 1864 H 169.089 -1.28146 1.31343 0
M  V30 1865 H 167.471 -3.86737 0.851498 0
M  V30 1866 H 168.645 -2.93344 3.55367 0
M  V30 1867 H 166.96 -2.77088 3.10823 0
M  V30 1868 H 169.557 -5.10387 1.59402 0
M  V30 1869 H 169.9 -4.15972 0.165299 0
M  V30 1870 H 170.433 -3.56852 1.75788 0
M  V30 1871 H 167.172 -4.75709 4.50978 0
M  V30 1872 H 166.692 -5.26455 2.87411 0
M  V30 1873 H 168.371 -5.48957 3.42425 0
M  V30 1874 N 168.503 -0.877838 -1.30888 0
M  V30 1875 C 169.453 -0.310872 -2.25871 0
M  V30 1876 C 170.437 0.556596 -1.50966 0
M  V30 1877 O 171.629 0.402187 -1.7237 0
M  V30 1878 C 168.758 0.479821 -3.3993 0
M  V30 1879 C 167.844 -0.401333 -4.22197 0
M  V30 1880 N 168.235 -1.49848 -4.83093 0
M  V30 1881 C 166.533 -0.195167 -4.45573 0
M  V30 1882 C 167.234 -2.0425 -5.44662 0
M  V30 1883 N 166.21 -1.33843 -5.26865 0
M  V30 1884 H 170.012 -1.1493 -2.70496 0
M  V30 1885 H 167.526 -0.726458 -1.45246 0
M  V30 1886 H 169.523 0.902582 -4.07012 0
M  V30 1887 H 168.183 1.31577 -2.96846 0
M  V30 1888 H 169.194 -1.88137 -4.82519 0
M  V30 1889 H 165.871 0.604192 -4.13105 0
M  V30 1890 H 167.261 -2.96345 -6.03017 0
M  V30 1891 N 169.982 1.44106 -0.638065 0
M  V30 1892 C 171.21 2.06336 -0.152615 0
M  V30 1893 C 171.625 1.47731 1.17563 0
M  V30 1894 O 170.982 0.602806 1.72257 0
M  V30 1895 C 171.033 3.61479 -0.0391491 0
M  V30 1896 O 170.754 4.17903 -1.31487 0
M  V30 1897 C 172.255 4.40757 0.474176 0
M  V30 1898 H 169.475 0.665862 -0.0828776 0
M  V30 1899 H 172.019 1.84862 -0.87443 0
M  V30 1900 H 170.174 3.82191 0.633142 0
M  V30 1901 H 170.588 5.11416 -1.16421 0
M  V30 1902 H 172.062 5.49707 0.502562 0
M  V30 1903 H 172.539 4.12697 1.50258 0
M  V30 1904 H 173.145 4.24979 -0.165102 0
M  V30 1905 N 171.46 0.379036 1.52974 0
M  V30 1906 C 172.709 -0.207612 2.00629 0
M  V30 1907 C 173.022 -1.48758 1.27006 0
M  V30 1908 O 174.228 -2.15365 1.65318 0
M  V30 1909 C 172.684 -0.42053 3.57435 0
M  V30 1910 C 172.292 0.845587 4.39948 0
M  V30 1911 C 174.036 -0.964102 4.13407 0
M  V30 1912 C 171.943 0.601513 5.88333 0
M  V30 1913 H 170.873 -0.0813591 0.749598 0
M  V30 1914 H 173.524 0.499853 1.76561 0
M  V30 1915 H 171.906 -1.18959 3.7771 0
M  V30 1916 H 173.08 1.61848 4.31442 0
M  V30 1917 H 171.395 1.31336 3.95145 0
M  V30 1918 H 173.992 -1.16225 5.21916 0
M  V30 1919 H 174.335 -1.93019 3.68849 0
M  V30 1920 H 174.868 -0.25487 3.96983 0
M  V30 1921 H 171.607 1.53831 6.37194 0
M  V30 1922 H 171.127 -0.132628 5.99653 0
M  V30 1923 H 172.806 0.232134 6.46583 0
M  V30 1924 N 172.938 -1.57226 0.108567 0
M  V30 1925 C 173.901 -2.13602 -0.831082 0
M  V30 1926 C 174.901 -1.06841 -1.20173 0
M  V30 1927 O 176.091 -1.32666 -1.12895 0
M  V30 1928 C 173.223 -2.66769 -2.12243 0
M  V30 1929 H 174.416 -2.97951 -0.341317 0
M  V30 1930 H 171.969 -1.55667 -0.14057 0
M  V30 1931 H 172.704 -1.85977 -2.65675 0
M  V30 1932 H 172.489 -3.44839 -1.86625 0
M  V30 1933 H 173.979 -3.10332 -2.79435 0
M  V30 1934 N 174.416 0.165178 -1.56732 0
M  V30 1935 C 175.366 1.20917 -1.93295 0
M  V30 1936 C 176.35 1.39488 -0.801985 0
M  V30 1937 O 177.542 1.41356 -1.06525 0
M  V30 1938 C 174.671 2.54718 -2.3016 0
M  V30 1939 C 173.757 2.39815 -3.49785 0
M  V30 1940 N 174.148 1.94637 -4.66851 0
M  V30 1941 C 172.446 2.70623 -3.54513 0
M  V30 1942 C 173.147 1.92344 -5.4898 0
M  V30 1943 N 172.123 2.34978 -4.9019 0
M  V30 1944 H 175.925 0.851675 -2.81289 0
M  V30 1945 H 173.439 0.373399 -1.58049 0
M  V30 1946 H 175.436 3.30165 -2.54552 0
M  V30 1947 H 174.096 2.91265 -1.43508 0
M  V30 1948 H 175.107 1.6488 -4.90953 0
M  V30 1949 H 171.784 3.11167 -2.78354 0
M  V30 1950 H 173.174 1.5906 -6.52801 0
M  V30 1951 N 175.894 1.51508 0.433938 0
M  V30 1952 C 176.824 1.76016 1.53429 0
M  V30 1953 C 177.805 0.610112 1.58782 0
M  V30 1954 O 178.99 0.853177 1.74455 0
M  V30 1955 C 176.12 1.88831 2.9148 0
M  V30 1956 C 175.074 3.04288 3.00987 0
M  V30 1957 C 174.4 3.0229 4.4105 0
M  V30 1958 C 175.7 4.44193 2.74754 0
M  V30 1959 H 177.394 2.68152 1.33171 0
M  V30 1960 H 174.94 1.29035 0.639214 0
M  V30 1961 H 176.893 2.04559 3.6842 0
M  V30 1962 H 175.617 0.933455 3.12976 0
M  V30 1963 H 174.276 2.8827 2.26486 0
M  V30 1964 H 173.924 2.04576 4.59519 0
M  V30 1965 H 173.624 3.79822 4.4834 0
M  V30 1966 H 175.148 3.20116 5.1996 0
M  V30 1967 H 176.562 4.60544 3.41426 0
M  V30 1968 H 174.959 5.23457 2.9345 0
M  V30 1969 H 176.029 4.53996 1.70339 0
M  V30 1970 N 177.372 -0.689602 1.41712 0
M  V30 1971 C 178.619 -1.44966 1.4139 0
M  V30 1972 C 178.947 -1.94484 0.025105 0
M  V30 1973 O 178.202 -1.70307 -0.964048 0
M  V30 1974 C 178.501 -2.67298 2.37247 0
M  V30 1975 C 178.167 -2.36405 3.83958 0
M  V30 1976 C 176.829 -2.27691 4.23923 0
M  V30 1977 C 179.181 -2.11043 4.76561 0
M  V30 1978 C 176.509 -1.91719 5.54492 0
M  V30 1979 C 178.861 -1.76578 6.07456 0
M  V30 1980 C 177.525 -1.66363 6.46436 0
M  V30 1981 H 176.795 -0.53047 0.517381 0
M  V30 1982 H 179.442 -0.787655 1.74552 0
M  V30 1983 H 177.747 -3.38461 1.9736 0
M  V30 1984 H 179.444 -3.25452 2.34269 0
M  V30 1985 H 176.034 -2.44085 3.52308 0
M  V30 1986 H 180.218 -2.16717 4.46483 0
M  V30 1987 H 175.474 -1.82367 5.83568 0
M  V30 1988 H 179.648 -1.55974 6.78708 0
M  V30 1989 H 177.275 -1.38258 7.47522 0
M  V30 1990 N 178.85 -1.27639 -0.924453 0
M  V30 1991 C 179.798 -1.10485 -2.04685 0
M  V30 1992 C 180.792 -0.0270421 -1.69378 0
M  V30 1993 O 181.998 -0.185008 -1.79047 0
M  V30 1994 H 178.373 -0.340546 -0.670472 0
M  V30 1995 H 180.344 -2.05566 -2.16298 0
M  V30 1996 C 179.093 -0.772229 -3.39016 0
M  V30 1997 H 178.416 -1.59351 -3.66671 0
M  V30 1998 H 179.856 -0.692097 -4.18313 0
M  V30 1999 C 178.315 0.523554 -3.32807 0
M  V30 2000 O 178.845 1.55702 -3.70297 0
M  V30 2001 N 177.051 0.520363 -2.85903 0
M  V30 2002 H 176.598 -0.32107 -2.55591 0
M  V30 2003 H 176.556 1.38742 -2.82131 0
M  V30 2004 N 180.328 1.1314 -1.09713 0
M  V30 2005 C 181.574 1.84757 -0.836224 0
M  V30 2006 C 181.907 1.8347 0.636598 0
M  V30 2007 O 181.182 1.27491 1.46889 0
M  V30 2008 C 181.465 3.32782 -1.37578 0
M  V30 2009 C 181.318 3.42567 -2.91493 0
M  V30 2010 C 182.637 4.28307 -1.01198 0
M  V30 2011 H 179.756 0.67082 -0.305236 0
M  V30 2012 H 182.398 1.3278 -1.35903 0
M  V30 2013 H 180.548 3.77177 -0.931097 0
M  V30 2014 H 182.22 3.06862 -3.44432 0
M  V30 2015 H 180.463 2.83349 -3.28475 0
M  V30 2016 H 181.134 4.46674 -3.24324 0
M  V30 2017 H 183.61 3.91999 -1.39556 0
M  V30 2018 H 182.486 5.30307 -1.41653 0
M  V30 2019 H 182.747 4.42029 0.0794833 0
M  V30 2020 N 181.806 0.884767 1.30421 0
M  V30 2021 C 182.716 0.355398 2.31892 0
M  V30 2022 C 183.732 -0.542261 1.65335 0
M  V30 2023 O 184.908 -0.435432 1.96637 0
M  V30 2024 C 181.973 -0.421661 3.44126 0
M  V30 2025 C 181.034 0.505727 4.26311 0
M  V30 2026 C 180.267 -0.234343 5.33185 0
M  V30 2027 O 180.49 -1.46045 5.51386 0
M  V30 2028 O 179.424 0.415443 6.00465 0
M  V30 2029 H 183.25 1.19685 2.79122 0
M  V30 2030 H 180.835 0.648596 1.34587 0
M  V30 2031 H 182.717 -0.861641 4.12497 0
M  V30 2032 H 181.392 -1.23942 2.99032 0
M  V30 2033 H 180.299 0.994513 3.60639 0
M  V30 2034 H 181.632 1.28948 4.75009 0
M  V30 2035 N 183.284 -1.43765 0.645699 0
M  V30 2036 C 184.53 -2.02731 0.164844 0
M  V30 2037 C 184.885 -1.49983 -1.2051 0
M  V30 2038 O 184.178 -0.680208 -1.79119 0
M  V30 2039 C 184.372 -3.57238 0.107679 0
M  V30 2040 C 184.201 -4.24977 1.47054 0
M  V30 2041 C 182.971 -4.61356 2.06103 0
M  V30 2042 C 185.169 -4.54476 2.40741 0
M  V30 2043 N 183.151 -5.14132 3.35473 0
M  V30 2044 C 184.522 -5.08489 3.54737 0
M  V30 2045 C 186.577 -4.36438 2.39637 0
M  V30 2046 C 185.28 -5.46364 4.67845 0
M  V30 2047 C 187.306 -4.7537 3.5182 0
M  V30 2048 C 186.668 -5.2951 4.64541 0
M  V30 2049 H 182.767 -0.774976 0.104578 0
M  V30 2050 H 185.351 -1.75051 0.852367 0
M  V30 2051 H 183.522 -3.84498 -0.549165 0
M  V30 2052 H 185.254 -4.0288 -0.383351 0
M  V30 2053 H 182.009 -4.46151 1.58892 0
M  V30 2054 H 182.433 -5.4498 4.01654 0
M  V30 2055 H 187.075 -3.93861 1.53731 0
M  V30 2056 H 184.793 -5.87888 5.54448 0
M  V30 2057 H 188.379 -4.63115 3.52159 0
M  V30 2058 H 187.259 -5.59077 5.49911 0
M  V30 2059 N 184.763 -0.387143 -1.52771 0
M  V30 2060 C 186.003 0.195537 -2.03463 0
M  V30 2061 C 186.367 1.44222 -1.26744 0
M  V30 2062 O 187.568 2.10192 -1.67549 0
M  V30 2063 C 185.839 0.459097 -3.54439 0
M  V30 2064 S 187.398 1.01237 -4.26962 0
M  V30 2065 H 184.216 0.0552675 -0.708849 0
M  V30 2066 H 186.818 -0.534992 -1.88037 0
M  V30 2067 H 185.522 -0.455382 -4.07866 0
M  V30 2068 H 185.053 1.21811 -3.74066 0
M  V30 2069 H 187.068 2.29492 -4.39941 0
M  V30 2070 N 186.241 1.57166 -0.116904 0
M  V30 2071 C 187.487 1.95412 0.542405 0
M  V30 2072 C 187.82 1.00019 1.66463 0
M  V30 2073 O 187.095 0.0370346 1.94465 0
M  V30 2074 C 187.378 3.43615 1.07708 0
M  V30 2075 C 187.231 4.49781 -0.0415868 0
M  V30 2076 C 188.55 3.93616 1.96861 0
M  V30 2077 H 185.669 0.710543 0.195696 0
M  V30 2078 H 188.311 1.89027 -0.192038 0
M  V30 2079 H 186.461 3.49187 1.70296 0
M  V30 2080 H 188.133 4.56308 -0.676793 0
M  V30 2081 H 186.376 4.28033 -0.705019 0
M  V30 2082 H 187.047 5.50733 0.373717 0
M  V30 2083 H 189.523 3.90335 1.44146 0
M  V30 2084 H 188.399 4.97838 2.3119 0
M  V30 2085 H 188.66 3.34188 2.89432 0
M  V30 2086 N 187.719 -0.156864 1.56817 0
M  V30 2087 C 188.667 -1.21319 1.98455 0
M  V30 2088 C 189.661 -1.45025 0.875444 0
M  V30 2089 O 190.867 -1.45435 1.0606 0
M  V30 2090 H 187.242 -0.408142 0.631605 0
M  V30 2091 H 189.213 -0.835244 2.86472 0
M  V30 2092 C 187.962 -2.54148 2.37285 0
M  V30 2093 H 187.285 -2.36733 3.22176 0
M  V30 2094 H 188.725 -3.26712 2.70251 0
M  V30 2095 C 187.184 -3.13967 1.22173 0
M  V30 2096 O 187.714 -3.98357 0.517149 0
M  V30 2097 N 185.92 -2.7327 0.988536 0
M  V30 2098 H 185.467 -2.04744 1.56326 0
M  V30 2099 H 185.425 -3.13628 0.220209 0
M  V30 2100 N 189.197 -1.51736 -0.425897 0
M  V30 2101 C 190.16 -1.73271 -1.50032 0
M  V30 2102 C 191.16 -0.602639 -1.4908 0
M  V30 2103 O 192.35 -0.87033 -1.509 0
M  V30 2104 C 189.482 -1.79969 -2.89523 0
M  V30 2105 H 190.675 -2.69172 -1.32237 0
M  V30 2106 H 188.228 -1.41899 -0.65532 0
M  V30 2107 H 188.963 -0.859241 -3.1271 0
M  V30 2108 H 188.748 -2.62109 -2.91619 0
M  V30 2109 H 190.238 -1.9843 -3.67444 0
M  V30 2110 N 190.675 0.682077 -1.42076 0
M  V30 2111 C 192.091 0.994324 -1.24841 0
M  V30 2112 C 192.291 2.0096 -0.147389 0
M  V30 2113 O 191.347 2.47822 0.483782 0
M  V30 2114 C 192.66 1.50607 -2.60265 0
M  V30 2115 C 194.208 1.62421 -2.6756 0
M  V30 2116 C 194.683 2.16994 -4.03333 0
M  V30 2117 N 196.174 2.24337 -4.0525 0
M  V30 2118 C 196.909 2.67621 -5.07116 0
M  V30 2119 N 196.405 3.1041 -6.19368 0
M  V30 2120 N 198.198 2.67305 -4.94474 0
M  V30 2121 H 190.349 0.00973908 -2.12398 0
M  V30 2122 H 192.612 0.0668593 -0.945639 0
M  V30 2123 H 192.318 0.834583 -3.41654 0
M  V30 2124 H 192.192 2.48602 -2.83684 0
M  V30 2125 H 194.579 2.28678 -1.86521 0
M  V30 2126 H 194.66 0.629352 -2.47937 0
M  V30 2127 H 194.304 1.51349 -4.84826 0
M  V30 2128 H 194.234 3.17258 -4.20304 0
M  V30 2129 H 196.725 1.94158 -3.24209 0
M  V30 2130 H 197.038 3.42103 -6.92954 0
M  V30 2131 H 195.383 3.08286 -6.22884 0
M  V30 2132 H 198.574 2.33233 -4.05857 0
M  V30 2133 H 198.747 3.00718 -5.73997 0
M  V30 2134 N 192.153 1.28127 0.917671 0
M  V30 2135 C 193.399 1.15223 1.66888 0
M  V30 2136 C 193.732 -0.299293 1.9188 0
M  V30 2137 O 193.007 -1.21805 1.51637 0
M  V30 2138 C 193.29 1.94706 3.02922 0
M  V30 2139 C 193.143 3.47898 2.85109 0
M  V30 2140 C 194.462 1.75939 4.03402 0
M  V30 2141 H 191.581 0.419946 0.605652 0
M  V30 2142 H 194.223 1.57398 1.06423 0
M  V30 2143 H 192.373 1.58864 3.54534 0
M  V30 2144 H 194.045 3.93624 2.40537 0
M  V30 2145 H 192.288 3.7373 2.20246 0
M  V30 2146 H 192.959 3.98765 3.81694 0
M  V30 2147 H 195.435 2.07209 3.60837 0
M  V30 2148 H 194.311 2.33931 4.96556 0
M  V30 2149 H 194.572 0.709877 4.36364 0
M  V30 2150 N 193.631 -1.12557 1.10312 0
M  V30 2151 C 194.579 -2.20325 0.745629 0
M  V30 2152 C 195.573 -1.67429 -0.25763 0
M  V30 2153 O 196.779 -1.79612 -0.118132 0
M  V30 2154 H 193.154 -0.718118 0.223182 0
M  V30 2155 H 195.125 -2.47733 1.66346 0
M  V30 2156 C 193.874 -3.47168 0.192262 0
M  V30 2157 H 193.197 -3.88215 0.955475 0
M  V30 2158 H 194.637 -4.23995 -0.0198274 0
M  V30 2159 C 193.096 -3.19298 -1.07472 0
M  V30 2160 O 193.626 -3.3891 -2.15645 0
M  V30 2161 N 191.832 -2.73113 -0.992847 0
M  V30 2162 H 191.379 -2.57354 -0.112474 0
M  V30 2163 H 191.337 -2.54842 -1.84127 0
M  V30 2164 N 195.109 -0.891671 -1.2995 0
M  V30 2165 C 196.057 -0.353066 -2.29905 0
M  V30 2166 C 197.051 0.543509 -1.60444 0
M  V30 2167 O 198.257 0.4272 -1.74857 0
M  V30 2168 H 194.632 -0.095531 -0.745907 0
M  V30 2169 H 196.603 -1.20961 -2.72784 0
M  V30 2170 C 195.352 0.411475 -3.45257 0
M  V30 2171 H 194.675 -0.269182 -3.98893 0
M  V30 2172 H 196.115 0.753328 -4.17254 0
M  V30 2173 C 194.574 1.6111 -2.9588 0
M  V30 2174 O 195.104 2.71045 -2.96475 0
M  V30 2175 N 193.31 1.45054 -2.51809 0
M  V30 2176 H 192.857 0.556175 -2.51524 0
M  V30 2177 H 192.815 2.25453 -2.1913 0
M  V30 2178 N 196.587 1.43421 -0.653314 0
M  V30 2179 C 197.812 2.06678 -0.172846 0
M  V30 2180 C 198.237 1.48648 1.15262 0
M  V30 2181 O 197.595 0.596457 1.71208 0
M  V30 2182 C 197.643 3.60474 -0.0953184 0
M  V30 2183 O 196.747 4.01487 0.942442 0
M  V30 2184 H 196.088 0.657181 -0.0949155 0
M  V30 2185 H 198.618 1.83925 -0.896265 0
M  V30 2186 H 198.628 4.07905 0.0879728 0
M  V30 2187 H 197.303 4.02088 -1.06291 0
M  V30 2188 H 195.88 3.65646 0.731932 0
M  V30 2189 N 198.065 0.39524 1.52563 0
M  V30 2190 C 199.342 -0.242908 1.94086 0
M  V30 2191 C 199.722 -1.63841 1.33114 0
M  V30 2192 O 199.07 -2.22928 0.501529 0
M  V30 2193 C 199.28 -0.26327 3.48006 0
M  V30 2194 C 200.628 -0.489354 4.21771 0
M  V30 2195 O 201.652 -0.343226 3.54543 0
M  V30 2196 O 200.511 -0.776169 5.4096 0
M  V30 2197 H 197.605 -0.152536 0.812811 0
M  V30 2198 H 200.151 0.450178 1.6362 0
M  V30 2199 H 198.923 0.713985 3.84731 0
M  V30 2200 H 198.546 -1.00103 3.84792 0
M  V30 2201 N 199.544 -1.57102 0.125237 0
M  V30 2202 C 200.955 -1.82384 -0.399142 0
M  V30 2203 C 201.306 -1.04276 -1.66195 0
M  V30 2204 O 200.431 -0.281269 -2.14564 0
M  V30 2205 C 201.026 -3.30821 -0.730932 0
M  V30 2206 C 199.585 -3.56762 -1.19992 0
M  V30 2207 C 198.732 -2.7649 -0.211792 0
M  V30 2208 H 201.683 -1.54786 0.350277 0
M  V30 2209 H 201.704 -3.4579 -1.58775 0
M  V30 2210 H 201.216 -3.87643 0.188345 0
M  V30 2211 H 199.317 -3.05305 -2.13588 0
M  V30 2212 H 199.43 -4.65317 -1.14093 0
M  V30 2213 H 197.794 -2.4489 -0.700085 0
M  V30 2214 H 198.577 -3.36073 0.700691 0
M  V30 2215 N 201.022 0.148545 -1.56898 0
M  V30 2216 C 202.252 0.875118 -1.8715 0
M  V30 2217 C 202.66 1.75322 -0.711262 0
M  V30 2218 O 202.003 1.80745 0.328151 0
M  V30 2219 C 202.065 1.7844 -3.12089 0
M  V30 2220 C 201.729 1.08361 -4.43967 0
M  V30 2221 C 202.726 0.438247 -5.1805 0
M  V30 2222 C 200.411 1.07358 -4.90693 0
M  V30 2223 C 202.405 -0.20779 -6.37061 0
M  V30 2224 C 200.092 0.42373 -6.09629 0
M  V30 2225 C 201.09 -0.215829 -6.82659 0
M  V30 2226 O 200.778 -0.855378 -7.99336 0
M  V30 2227 H 200.51 0.258504 -0.624621 0
M  V30 2228 H 203.064 0.14652 -2.04877 0
M  V30 2229 H 201.294 2.55389 -2.90367 0
M  V30 2230 H 202.983 2.38279 -3.286 0
M  V30 2231 H 203.749 0.437817 -4.8302 0
M  V30 2232 H 199.628 1.5608 -4.33774 0
M  V30 2233 H 203.172 -0.70758 -6.94002 0
M  V30 2234 H 199.069 0.421822 -6.4412 0
M  V30 2235 H 199.837 -0.756892 -8.14993 0
M  V30 2236 N 202.5 1.5196 0.417844 0
M  V30 2237 C 203.725 1.69717 1.1921 0
M  V30 2238 C 204.15 0.402148 1.83751 0
M  V30 2239 O 203.508 -0.639593 1.69643 0
M  V30 2240 C 203.556 2.82794 2.2374 0
M  V30 2241 O 202.66 2.47756 3.29683 0
M  V30 2242 H 202.001 0.565263 0.348387 0
M  V30 2243 H 204.531 1.98621 0.490985 0
M  V30 2244 H 204.541 3.07452 2.68212 0
M  V30 2245 H 203.216 3.76756 1.76146 0
M  V30 2246 H 201.793 2.33739 2.90552 0
M  V30 2247 N 203.978 -0.674533 1.42435 0
M  V30 2248 C 205.224 -1.43671 1.43131 0
M  V30 2249 C 205.557 -1.94142 0.0476021 0
M  V30 2250 O 204.832 -1.70924 -0.928188 0
M  V30 2251 C 205.115 -2.63355 2.45594 0
M  V30 2252 C 204.968 -2.18514 3.93156 0
M  V30 2253 C 206.287 -3.65571 2.45043 0
M  V30 2254 H 203.406 -0.521077 0.521198 0
M  V30 2255 H 206.048 -0.766551 1.7385 0
M  V30 2256 H 204.198 -3.2053 2.19528 0
M  V30 2257 H 205.87 -1.66504 4.30202 0
M  V30 2258 H 204.113 -1.50086 4.07009 0
M  V30 2259 H 204.784 -3.04484 4.60428 0
M  V30 2260 H 207.26 -3.18113 2.68223 0
M  V30 2261 H 206.136 -4.46893 3.18713 0
M  V30 2262 H 206.397 -4.16716 1.47649 0
M  V30 2263 N 205.456 -1.28612 -0.910864 0
M  V30 2264 C 206.419 -1.12803 -1.9952 0
M  V30 2265 C 207.419 -0.0668264 -1.60661 0
M  V30 2266 O 208.609 -0.312847 -1.71368 0
M  V30 2267 C 205.741 -0.72254 -3.33155 0
M  V30 2268 H 206.934 -2.09109 -2.14973 0
M  V30 2269 H 204.487 -1.11639 -1.09391 0
M  V30 2270 H 205.222 0.241152 -3.23402 0
M  V30 2271 H 205.007 -1.48916 -3.62721 0
M  V30 2272 H 206.497 -0.634666 -4.12749 0
M  V30 2273 N 206.934 1.1197 -1.10907 0
M  V30 2274 C 207.864 2.19928 -0.784473 0
M  V30 2275 C 208.845 1.6833 0.244726 0
M  V30 2276 O 210.03 1.93892 0.109418 0
M  V30 2277 C 207.16 3.46597 -0.220827 0
M  V30 2278 C 206.114 4.11376 -1.18127 0
M  V30 2279 C 205.44 5.32554 -0.478594 0
M  V30 2280 C 206.74 4.56945 -2.52979 0
M  V30 2281 H 208.434 2.47337 -1.68715 0
M  V30 2282 H 205.98 1.18879 -0.812642 0
M  V30 2283 H 207.933 4.21396 0.0184278 0
M  V30 2284 H 206.657 3.1863 0.717113 0
M  V30 2285 H 205.316 3.38564 -1.40606 0
M  V30 2286 H 204.964 5.00856 0.463976 0
M  V30 2287 H 204.664 5.76844 -1.11912 0
M  V30 2288 H 206.188 6.10096 -0.248 0
M  V30 2289 H 207.602 5.23093 -2.3462 0
M  V30 2290 H 205.999 5.1203 -3.12962 0
M  V30 2291 H 207.069 3.70676 -3.12614 0
M  V30 2292 N 208.412 0.89855 1.29475 0
M  V30 2293 C 209.637 0.538561 2.00285 0
M  V30 2294 C 210.062 -0.869135 1.66816 0
M  V30 2295 O 209.42 -1.57831 0.892145 0
M  V30 2296 C 209.468 0.736475 3.52999 0
M  V30 2297 O 208.572 -0.211537 4.11857 0
M  V30 2298 H 207.913 0.210563 0.62973 0
M  V30 2299 H 210.443 1.20982 1.64998 0
M  V30 2300 H 210.453 0.640685 4.02938 0
M  V30 2301 H 209.128 1.76276 3.76696 0
M  V30 2302 H 207.705 -0.0682991 3.72837 0
M  V30 2303 N 209.89 -1.43072 0.660911 0
M  V30 2304 C 210.8 -2.34585 -0.0264163 0
M  V30 2305 C 211.816 -1.54316 -0.803898 0
M  V30 2306 O 212.992 -1.86939 -0.749391 0
M  V30 2307 C 210.057 -3.32689 -0.975639 0
M  V30 2308 C 209.118 -4.2886 -0.194236 0
M  V30 2309 C 208.351 -5.22278 -1.09825 0
M  V30 2310 O 208.574 -5.20299 -2.33763 0
M  V30 2311 O 207.508 -5.99228 -0.566513 0
M  V30 2312 H 211.334 -2.94869 0.727034 0
M  V30 2313 H 208.919 -1.43342 0.42111 0
M  V30 2314 H 210.801 -3.92995 -1.52094 0
M  V30 2315 H 209.476 -2.74898 -1.70918 0
M  V30 2316 H 208.383 -3.72011 0.394835 0
M  V30 2317 H 209.716 -4.89655 0.499899 0
M  V30 2318 N 211.368 -0.403325 -1.52352 0
M  V30 2319 C 212.298 0.416205 -2.29761 0
M  V30 2320 C 213.279 1.05123 -1.33728 0
M  V30 2321 O 214.464 1.06134 -1.62632 0
M  V30 2322 C 211.594 1.53624 -3.11475 0
M  V30 2323 C 210.548 1.02653 -4.15507 0
M  V30 2324 C 209.874 2.23971 -4.85532 0
M  V30 2325 C 211.174 0.08463 -5.22231 0
M  V30 2326 H 212.868 -0.229701 -2.98518 0
M  V30 2327 H 210.414 -0.111913 -1.43564 0
M  V30 2328 H 212.367 2.1165 -3.64393 0
M  V30 2329 H 211.091 2.20994 -2.40477 0
M  V30 2330 H 209.75 0.46871 -3.63591 0
M  V30 2331 H 209.398 2.89883 -4.11068 0
M  V30 2332 H 209.098 1.90521 -5.55856 0
M  V30 2333 H 210.622 2.82614 -5.41259 0
M  V30 2334 H 212.036 0.573509 -5.70424 0
M  V30 2335 H 210.433 -0.160783 -5.99885 0
M  V30 2336 H 211.503 -0.86237 -4.7717 0
M  V30 2337 N 212.846 1.57033 -0.133567 0
M  V30 2338 C 214.094 1.953 0.519848 0
M  V30 2339 C 214.415 1.01866 1.66278 0
M  V30 2340 O 213.685 0.0776513 1.95746 0
M  V30 2341 H 212.265 0.721091 0.195032 0
M  V30 2342 H 214.927 1.93809 -0.205921 0
M  V30 2343 H 214.023 2.98695 0.904854 0
M  V30 2344 N 214.325 -0.140222 1.56975 0
M  V30 2345 C 215.602 -0.880769 1.74648 0
M  V30 2346 C 215.982 -1.99036 0.703404 0
M  V30 2347 O 215.33 -2.26821 -0.27648 0
M  V30 2348 C 215.54 -1.417 3.18939 0
M  V30 2349 C 216.888 -1.87774 3.80823 0
M  V30 2350 O 217.912 -1.51427 3.2241 0
M  V30 2351 O 216.771 -2.54827 4.83452 0
M  V30 2352 H 213.865 -0.416713 0.714338 0
M  V30 2353 H 216.411 -0.125618 1.69234 0
M  V30 2354 H 215.183 -0.619902 3.86359 0
M  V30 2355 H 214.806 -2.23546 3.28805 0
M  V30 2356 N 215.803 -1.52179 -0.40978 0
M  V30 2357 C 217.219 -1.40968 -0.74835 0
M  V30 2358 C 217.419 -0.513657 -1.94843 0
M  V30 2359 O 216.475 0.0208026 -2.52491 0
M  V30 2360 C 217.788 -2.83483 -1.0029 0
M  V30 2361 C 219.336 -2.92821 -1.10565 0
M  V30 2362 C 219.811 -4.36303 -1.39296 0
M  V30 2363 N 221.302 -4.39535 -1.46162 0
M  V30 2364 C 222.037 -5.47614 -1.70018 0
M  V30 2365 N 221.533 -6.65812 -1.91483 0
M  V30 2366 N 223.326 -5.35129 -1.72027 0
M  V30 2367 H 215.477 -2.0897 0.380186 0
M  V30 2368 H 217.74 -0.94185 0.107805 0
M  V30 2369 H 217.446 -3.51168 -0.193461 0
M  V30 2370 H 217.32 -3.24487 -1.92323 0
M  V30 2371 H 219.707 -2.25318 -1.90568 0
M  V30 2372 H 219.788 -2.55276 -0.16369 0
M  V30 2373 H 219.432 -5.04366 -0.598109 0
M  V30 2374 H 219.362 -4.71385 -2.34743 0
M  V30 2375 H 221.853 -3.54332 -1.31367 0
M  V30 2376 H 222.166 -7.43964 -2.09134 0
M  V30 2377 H 220.511 -6.68879 -1.88749 0
M  V30 2378 H 223.702 -4.41764 -1.54796 0
M  V30 2379 H 223.875 -6.19433 -1.9028 0
M  V30 2380 N 217.281 0.66697 -1.42791 0
M  V30 2381 C 218.213 1.7925 -1.42836 0
M  V30 2382 C 219.226 1.59496 -0.326333 0
M  V30 2383 O 220.415 1.6847 -0.589916 0
M  V30 2384 C 217.515 3.16476 -1.21229 0
M  V30 2385 C 216.688 3.63011 -2.44013 0
M  V30 2386 C 215.747 4.78993 -2.17834 0
M  V30 2387 O 214.773 4.89137 -2.91091 0
M  V30 2388 N 215.975 5.68248 -1.18635 0
M  V30 2389 H 218.74 1.79695 -2.39854 0
M  V30 2390 H 216.301 0.850338 -1.37771 0
M  V30 2391 H 218.293 3.91734 -1.01621 0
M  V30 2392 H 216.863 3.10884 -0.32706 0
M  V30 2393 H 216.083 2.78346 -2.79137 0
M  V30 2394 H 217.371 3.90845 -3.25757 0
M  V30 2395 H 216.769 5.62712 -0.580615 0
M  V30 2396 H 215.326 6.43285 -1.05013 0
M  V30 2397 N 218.759 1.29093 0.90403 0
M  V30 2398 C 219.707 1.13727 2.02901 0
M  V30 2399 C 220.701 0.0539853 1.69314 0
M  V30 2400 O 221.907 0.213469 1.7873 0
M  V30 2401 H 218.282 0.35117 0.664969 0
M  V30 2402 H 220.253 2.08982 2.13001 0
M  V30 2403 C 219.002 0.826066 3.37745 0
M  V30 2404 H 218.325 1.65164 3.64089 0
M  V30 2405 H 219.765 0.758559 4.17159 0
M  V30 2406 C 218.224 -0.470541 3.33598 0
M  V30 2407 O 218.754 -1.49792 3.72727 0
M  V30 2408 N 216.96 -0.474812 2.86695 0
M  V30 2409 H 216.507 0.361692 2.55048 0
M  V30 2410 H 216.465 -1.34236 2.84303 0
M  V30 2411 N 220.237 -1.11381 1.11499 0
M  V30 2412 C 221.147 -2.21019 0.786628 0
M  V30 2413 C 222.163 -1.72597 -0.220507 0
M  V30 2414 O 223.339 -2.01321 -0.0565251 0
M  V30 2415 C 220.404 -3.459 0.235333 0
M  V30 2416 C 219.465 -4.09107 1.30115 0
M  V30 2417 C 218.698 -5.28027 0.776068 0
M  V30 2418 O 218.921 -5.6904 -0.393661 0
M  V30 2419 O 217.855 -5.81835 1.54114 0
M  V30 2420 H 221.681 -2.51521 1.70209 0
M  V30 2421 H 219.266 -1.19928 0.890928 0
M  V30 2422 H 221.148 -4.21346 -0.067715 0
M  V30 2423 H 219.823 -3.17049 -0.652828 0
M  V30 2424 H 218.73 -3.35391 1.65722 0
M  V30 2425 H 220.063 -4.42139 2.16273 0
M  V30 2426 N 221.715 -0.905404 -1.28997 0
M  V30 2427 C 222.94 -0.549175 -1.99997 0
M  V30 2428 C 223.365 0.860276 -1.67275 0
M  V30 2429 O 222.723 1.57355 -0.900502 0
M  V30 2430 C 222.771 -0.755185 -3.52604 0
M  V30 2431 O 221.875 0.189692 -4.11964 0
M  V30 2432 H 221.216 -0.213899 -0.628604 0
M  V30 2433 H 223.746 -1.21856 -1.64354 0
M  V30 2434 H 223.756 -0.662045 -4.02593 0
M  V30 2435 H 222.431 -1.78271 -3.75755 0
M  V30 2436 H 221.008 0.0485257 -3.72868 0
M  V30 2437 N 223.193 1.4272 -0.668489 0
M  V30 2438 C 224.423 2.05668 -0.196063 0
M  V30 2439 C 224.831 1.5028 1.14946 0
M  V30 2440 O 224.174 0.6348 1.72383 0
M  V30 2441 C 224.236 3.59469 -0.0468879 0
M  V30 2442 C 223.9 4.37518 -1.32012 0
M  V30 2443 C 224.897 4.68584 -2.25222 0
M  V30 2444 C 222.582 4.77266 -1.56596 0
M  V30 2445 C 224.576 5.38326 -3.41297 0
M  V30 2446 C 222.263 5.4675 -2.72962 0
M  V30 2447 C 223.261 5.77204 -3.65137 0
M  V30 2448 O 222.949 6.45264 -4.79468 0
M  V30 2449 H 222.681 0.669382 -0.0943599 0
M  V30 2450 H 225.235 1.83954 -0.913788 0
M  V30 2451 H 223.465 3.79817 0.726357 0
M  V30 2452 H 225.154 4.04071 0.384852 0
M  V30 2453 H 225.92 4.38382 -2.07477 0
M  V30 2454 H 221.799 4.52959 -0.857249 0
M  V30 2455 H 225.343 5.62014 -4.13263 0
M  V30 2456 H 221.24 5.76369 -2.90635 0
M  V30 2457 H 222.008 6.63753 -4.78931 0
M  V30 2458 N 224.671 0.411399 1.52136 0
M  V30 2459 C 225.601 -0.404015 2.29978 0
M  V30 2460 C 226.582 -1.04412 1.34284 0
M  V30 2461 O 227.767 -1.0527 1.63192 0
M  V30 2462 C 224.897 -1.5197 3.12286 0
M  V30 2463 C 223.851 -1.00448 4.16046 0
M  V30 2464 C 223.177 -2.21393 4.86712 0
M  V30 2465 C 224.477 -0.0569336 5.22269 0
M  V30 2466 H 226.171 0.245529 2.98392 0
M  V30 2467 H 223.717 0.119525 1.43503 0
M  V30 2468 H 225.67 -2.09715 3.6551 0
M  V30 2469 H 224.394 -2.19716 2.41646 0
M  V30 2470 H 223.053 -0.449421 3.63835 0
M  V30 2471 H 222.701 -2.87699 4.12599 0
M  V30 2472 H 222.401 -1.87571 5.56858 0
M  V30 2473 H 223.925 -2.7974 5.4275 0
M  V30 2474 H 225.339 -0.54325 5.7072 0
M  V30 2475 H 223.736 0.192594 5.99791 0
M  V30 2476 H 224.806 0.887663 4.76706 0
M  V30 2477 N 226.149 -1.5696 0.141893 0
M  V30 2478 C 227.097 -2.17784 -0.816874 0
M  V30 2479 C 228.091 -1.1334 -1.25899 0
M  V30 2480 O 229.297 -1.316 -1.22806 0
M  V30 2481 H 225.672 -0.697278 -0.281615 0
M  V30 2482 H 227.643 -2.97087 -0.279621 0
M  V30 2483 C 226.392 -2.80983 -2.04802 0
M  V30 2484 H 225.715 -3.61062 -1.7168 0
M  V30 2485 H 227.155 -3.2705 -2.69841 0
M  V30 2486 C 225.614 -1.79228 -2.8527 0
M  V30 2487 O 226.144 -1.25962 -3.8144 0
M  V30 2488 N 224.35 -1.48647 -2.49704 0
M  V30 2489 H 223.897 -1.92155 -1.71564 0
M  V30 2490 H 223.855 -0.808115 -3.03837 0
M  V30 2491 N 227.627 0.131896 -1.57047 0
M  V30 2492 C 228.874 0.841932 -1.84168 0
M  V30 2493 C 229.202 1.8048 -0.725066 0
M  V30 2494 O 228.457 1.93618 0.284692 0
M  V30 2495 C 228.756 1.63703 -3.17704 0
M  V30 2496 C 228.422 0.81961 -4.43388 0
M  V30 2497 C 227.084 0.594148 -4.77518 0
M  V30 2498 C 229.436 0.248977 -5.20605 0
M  V30 2499 C 226.764 -0.212409 -5.86315 0
M  V30 2500 C 229.116 -0.544701 -6.30251 0
M  V30 2501 C 227.78 -0.780599 -6.6292 0
M  V30 2502 H 227.05 0.308085 -0.673917 0
M  V30 2503 H 229.697 0.104867 -1.91213 0
M  V30 2504 H 228.002 2.44464 -3.06177 0
M  V30 2505 H 229.699 2.19015 -3.35907 0
M  V30 2506 H 226.289 1.00542 -4.16641 0
M  V30 2507 H 230.473 0.410408 -4.946 0
M  V30 2508 H 225.729 -0.404524 -6.1006 0
M  V30 2509 H 229.903 -0.993922 -6.89271 0
M  V30 2510 H 227.53 -1.40742 -7.47058 0
M  V30 2511 N 229.106 1.52395 0.401703 0
M  V30 2512 C 230.069 1.75636 1.47257 0
M  V30 2513 C 231.069 0.62628 1.48103 0
M  V30 2514 O 232.259 0.894227 1.49497 0
M  V30 2515 C 229.391 1.84553 2.86624 0
M  V30 2516 H 230.584 2.71241 1.27938 0
M  V30 2517 H 228.137 1.42923 0.632662 0
M  V30 2518 H 228.872 0.908882 3.11303 0
M  V30 2519 H 228.657 2.66715 2.87412 0
M  V30 2520 H 230.147 2.04251 3.64241 0
M  V30 2521 N 230.584 -0.659388 1.43143 0
M  V30 2522 C 232 -0.974337 1.26407 0
M  V30 2523 C 232.2 -2.007 0.179341 0
M  V30 2524 O 231.256 -2.4856 -0.444295 0
M  V30 2525 C 232.569 -1.46447 2.62628 0
M  V30 2526 C 234.117 -1.58144 2.7011 0
M  V30 2527 C 234.592 -2.1055 4.06734 0
M  V30 2528 N 236.083 -2.17861 4.08767 0
M  V30 2529 C 236.818 -2.59519 5.1131 0
M  V30 2530 N 236.314 -3.00518 6.24228 0
M  V30 2531 N 238.107 -2.59404 4.98664 0
M  V30 2532 H 230.258 0.0240528 2.12386 0
M  V30 2533 H 232.521 -0.0518065 0.946583 0
M  V30 2534 H 232.227 -0.780123 3.42939 0
M  V30 2535 H 232.101 -2.44058 2.87603 0
M  V30 2536 H 234.488 -2.25682 1.90136 0
M  V30 2537 H 234.569 -0.589828 2.48907 0
M  V30 2538 H 234.213 -1.43616 4.87172 0
M  V30 2539 H 234.143 -3.10531 4.25298 0
M  V30 2540 H 236.634 -1.88975 3.27257 0
M  V30 2541 H 236.947 -3.31036 6.98309 0
M  V30 2542 H 235.292 -2.98337 6.2771 0
M  V30 2543 H 238.483 -2.26747 4.09516 0
M  V30 2544 H 238.656 -2.91548 5.78709 0
M  V30 2545 N 232.062 -1.29571 -0.897171 0
M  V30 2546 C 233.009 -1.14916 -2.00158 0
M  V30 2547 C 233.979 -0.0418149 -1.66047 0
M  V30 2548 O 235.164 -0.209793 -1.89643 0
M  V30 2549 C 232.304 -0.834307 -3.34863 0
M  V30 2550 C 231.417 -2.02234 -3.8174 0
M  V30 2551 C 230.552 -1.64664 -5.05034 0
M  V30 2552 C 229.591 -2.80033 -5.44286 0
M  V30 2553 N 228.728 -2.42843 -6.58765 0
M  V30 2554 H 233.568 -2.09403 -2.12025 0
M  V30 2555 H 231.105 -1.042 -1.0383 0
M  V30 2556 H 233.063 -0.632436 -4.12379 0
M  V30 2557 H 231.693 0.0736656 -3.22716 0
M  V30 2558 H 230.745 -2.33583 -3.00238 0
M  V30 2559 H 232.057 -2.88673 -4.06779 0
M  V30 2560 H 231.211 -1.4078 -5.9014 0
M  V30 2561 H 229.95 -0.753766 -4.8184 0
M  V30 2562 H 228.955 -3.04596 -4.57713 0
M  V30 2563 H 230.18 -3.69989 -5.6946 0
M  V30 2564 H 228.126 -1.56046 -6.3717 0
M  V30 2565 H 228.043 -3.22815 -6.83613 0
M  V30 2566 H 229.311 -2.22285 -7.47134 0
M  V30 2567 N 233.54 1.10788 -1.12088 0
M  V30 2568 C 234.956 1.34691 -0.856186 0
M  V30 2569 C 235.156 1.94791 0.515615 0
M  V30 2570 O 234.212 2.18524 1.26505 0
M  V30 2571 C 235.525 2.27208 -1.9697 0
M  V30 2572 C 237.073 2.40755 -2.00016 0
M  V30 2573 C 237.548 3.36598 -3.1059 0
M  V30 2574 N 239.039 3.44164 -3.10008 0
M  V30 2575 C 239.774 4.18284 -3.92206 0
M  V30 2576 N 239.27 4.95322 -4.84384 0
M  V30 2577 N 241.063 4.13865 -3.80357 0
M  V30 2578 H 233.214 0.70144 -2.00483 0
M  V30 2579 H 235.477 0.371405 -0.872217 0
M  V30 2580 H 235.183 1.90251 -2.958 0
M  V30 2581 H 235.057 3.27485 -1.87172 0
M  V30 2582 H 237.444 2.76982 -1.01808 0
M  V30 2583 H 237.525 1.40305 -2.13888 0
M  V30 2584 H 237.169 3.01096 -4.09028 0
M  V30 2585 H 237.099 4.36918 -2.93956 0
M  V30 2586 H 239.59 2.8922 -2.43228 0
M  V30 2587 H 239.903 5.49267 -5.43623 0
M  V30 2588 H 238.248 4.94459 -4.884 0
M  V30 2589 H 241.439 3.52773 -3.07683 0
M  V30 2590 H 241.612 4.71372 -4.44649 0
M  V30 2591 N 235.018 0.912232 1.28515 0
M  V30 2592 C 236.267 0.540504 1.94323 0
M  V30 2593 C 236.58 -0.920044 1.72611 0
M  V30 2594 O 237.786 -1.39986 2.32629 0
M  V30 2595 C 236.242 0.915803 3.48053 0
M  V30 2596 C 235.85 2.39598 3.78546 0
M  V30 2597 C 237.594 0.614588 4.20027 0
M  V30 2598 C 235.501 2.71148 5.25578 0
M  V30 2599 H 234.431 0.198418 0.727424 0
M  V30 2600 H 237.082 1.11094 1.46049 0
M  V30 2601 H 235.464 0.274168 3.9505 0
M  V30 2602 H 236.638 3.08422 3.42364 0
M  V30 2603 H 234.953 2.66749 3.1974 0
M  V30 2604 H 237.55 0.827002 5.28266 0
M  V30 2605 H 237.893 -0.447531 4.13887 0
M  V30 2606 H 238.426 1.21462 3.78803 0
M  V30 2607 H 235.165 3.76207 5.36794 0
M  V30 2608 H 234.685 2.0696 5.62963 0
M  V30 2609 H 236.364 2.58072 5.93302 0
M  V30 2610 N 236.496 -1.42363 0.676048 0
M  V30 2611 C 237.443 -2.308 -0.00150904 0
M  V30 2612 C 238.413 -1.46032 -0.791444 0
M  V30 2613 O 239.598 -1.74861 -0.76344 0
M  V30 2614 C 236.738 -3.31883 -0.945919 0
M  V30 2615 C 235.851 -4.31741 -0.149675 0
M  V30 2616 C 234.986 -5.19898 -1.08995 0
M  V30 2617 C 234.025 -6.11434 -0.285465 0
M  V30 2618 N 233.162 -6.92138 -1.17851 0
M  V30 2619 H 238.002 -2.88187 0.758455 0
M  V30 2620 H 235.539 -1.41952 0.38576 0
M  V30 2621 H 237.497 -3.89019 -1.50731 0
M  V30 2622 H 236.127 -2.76093 -1.6725 0
M  V30 2623 H 235.179 -3.76713 0.528359 0
M  V30 2624 H 236.491 -4.96534 0.474866 0
M  V30 2625 H 235.645 -5.81772 -1.72123 0
M  V30 2626 H 234.384 -4.55284 -1.74837 0
M  V30 2627 H 233.389 -5.48627 0.359018 0
M  V30 2628 H 234.614 -6.78097 0.368883 0
M  V30 2629 H 232.56 -6.30152 -1.82332 0
M  V30 2630 H 232.477 -7.53542 -0.609082 0
M  V30 2631 H 233.745 -7.58499 -1.79722 0
M  V30 2632 N 237.974 -0.419461 -1.51915 0
M  V30 2633 C 238.922 0.415502 -2.28859 0
M  V30 2634 C 239.916 1.03674 -1.3397 0
M  V30 2635 O 241.122 0.973757 -1.51387 0
M  V30 2636 H 237.497 0.152786 -0.736315 0
M  V30 2637 H 239.468 -0.254531 -2.97312 0
M  V30 2638 C 238.217 1.51425 -3.12995 0
M  V30 2639 H 237.54 1.04556 -3.85886 0
M  V30 2640 H 238.98 2.07208 -3.6992 0
M  V30 2641 C 237.439 2.48745 -2.27217 0
M  V30 2642 O 237.969 3.52871 -1.9195 0
M  V30 2643 N 236.175 2.19202 -1.90785 0
M  V30 2644 H 235.722 1.34556 -2.19664 0
M  V30 2645 H 235.68 2.84561 -1.33687 0
M  V30 2646 N 239.452 1.56882 -0.150215 0
M  V30 2647 C 240.863 1.82995 0.370076 0
M  V30 2648 C 241.214 1.06907 1.64515 0
M  V30 2649 O 240.339 0.315369 2.1409 0
M  V30 2650 C 240.934 3.31942 0.678208 0
M  V30 2651 C 239.493 3.58625 1.14301 0
M  V30 2652 C 238.64 2.76792 0.167778 0
M  V30 2653 H 241.591 1.54209 -0.374858 0
M  V30 2654 H 241.612 3.48272 1.53254 0
M  V30 2655 H 241.124 3.87294 -0.249991 0
M  V30 2656 H 239.225 3.08664 2.08704 0
M  V30 2657 H 239.338 4.67073 1.06676 0
M  V30 2658 H 237.702 2.45972 0.661037 0
M  V30 2659 H 238.485 3.34916 -0.754069 0
M  V30 2660 N 240.93 -0.123565 1.57115 0
M  V30 2661 C 241.84 -1.17074 2.033 0
M  V30 2662 C 242.856 -1.4561 0.952559 0
M  V30 2663 O 244.032 -1.56817 1.26374 0
M  V30 2664 C 241.097 -2.47857 2.42421 0
M  V30 2665 C 240.158 -2.26758 3.64526 0
M  V30 2666 C 239.391 -3.51305 4.01771 0
M  V30 2667 O 239.614 -4.5843 3.39409 0
M  V30 2668 O 238.548 -3.42578 4.94898 0
M  V30 2669 H 242.374 -0.808555 2.92739 0
M  V30 2670 H 239.959 -0.334027 1.45618 0
M  V30 2671 H 241.841 -3.2492 2.68338 0
M  V30 2672 H 240.516 -2.83558 1.5613 0
M  V30 2673 H 239.423 -1.47569 3.43765 0
M  V30 2674 H 240.756 -1.95963 4.51508 0
M  V30 2675 N 242.408 -1.52605 -0.393616 0
M  V30 2676 C 243.656 -1.67093 -1.13685 0
M  V30 2677 C 243.977 -0.411011 -1.90619 0
M  V30 2678 O 243.247 0.574491 -1.87287 0
M  V30 2679 H 241.827 -0.615923 -0.422668 0
M  V30 2680 H 244.489 -1.89704 -0.447039 0
M  V30 2681 H 243.585 -2.51922 -1.84232 0
M  V30 2682 N 243.887 0.651787 -1.4349 0
M  V30 2683 C 245.135 1.40888 -1.44897 0
M  V30 2684 C 245.456 1.94856 -0.0749086 0
M  V30 2685 O 244.726 1.74518 0.889956 0
M  V30 2686 H 243.306 0.522887 -0.533478 0
M  V30 2687 H 245.968 0.768609 -1.79104 0
M  V30 2688 H 245.064 2.25052 -2.16236 0
M  V30 2689 N 245.365 1.30045 0.890287 0
M  V30 2690 C 246.295 1.18541 2.01172 0
M  V30 2691 C 247.276 0.0773356 1.69924 0
M  V30 2692 O 248.461 0.25845 1.92473 0
M  V30 2693 C 245.591 0.870941 3.36202 0
M  V30 2694 C 244.545 1.93637 3.81692 0
M  V30 2695 C 243.871 1.475 5.13953 0
M  V30 2696 C 245.171 3.34666 4.00994 0
M  V30 2697 H 246.865 2.12359 2.11054 0
M  V30 2698 H 244.411 1.02238 1.01407 0
M  V30 2699 H 246.364 0.777141 4.14172 0
M  V30 2700 H 245.088 -0.102926 3.26438 0
M  V30 2701 H 243.747 2.01972 3.05946 0
M  V30 2702 H 243.395 0.489551 5.00612 0
M  V30 2703 H 243.095 2.1876 5.4536 0
M  V30 2704 H 244.619 1.39489 5.94454 0
M  V30 2705 H 246.033 3.2912 4.69417 0
M  V30 2706 H 244.43 4.03966 4.43769 0
M  V30 2707 H 245.5 3.76949 3.05021 0
M  V30 2708 N 246.843 -1.10192 1.12674 0
M  V30 2709 C 248.073 -1.85713 0.905213 0
M  V30 2710 C 248.481 -1.81056 -0.549108 0
M  V30 2711 O 247.824 -1.19927 -1.39151 0
M  V30 2712 C 247.886 -3.34972 1.30516 0
M  V30 2713 C 247.55 -3.63385 2.77129 0
M  V30 2714 C 248.547 -3.59772 3.75313 0
M  V30 2715 C 246.232 -3.91981 3.14096 0
M  V30 2716 C 248.226 -3.84354 5.08479 0
M  V30 2717 C 245.913 -4.16218 4.47443 0
M  V30 2718 C 246.911 -4.12395 5.44444 0
M  V30 2719 O 246.599 -4.36014 6.75387 0
M  V30 2720 H 246.331 -0.593719 0.323223 0
M  V30 2721 H 248.885 -1.40198 1.50112 0
M  V30 2722 H 247.115 -3.81156 0.652463 0
M  V30 2723 H 248.804 -3.91886 1.05736 0
M  V30 2724 H 249.57 -3.37716 3.48099 0
M  V30 2725 H 245.449 -3.94085 2.39202 0
M  V30 2726 H 248.993 -3.81285 5.84181 0
M  V30 2727 H 244.89 -4.37754 4.74386 0
M  V30 2728 H 245.658 -4.53516 6.8137 0
M  V30 2729 N 248.321 -0.919034 -1.28029 0
M  V30 2730 C 249.251 -0.428581 -2.29533 0
M  V30 2731 C 250.232 0.50659 -1.62381 0
M  V30 2732 O 251.417 0.413195 -1.89753 0
M  V30 2733 C 248.547 0.327388 -3.45753 0
M  V30 2734 C 247.501 -0.519137 -4.2484 0
M  V30 2735 C 246.827 0.365486 -5.33449 0
M  V30 2736 C 248.127 -1.77914 -4.91064 0
M  V30 2737 H 249.821 -1.27687 -2.70807 0
M  V30 2738 H 247.367 -0.615428 -1.30186 0
M  V30 2739 H 249.32 0.681378 -4.15855 0
M  V30 2740 H 248.044 1.20963 -3.03374 0
M  V30 2741 H 246.703 -0.855717 -3.56473 0
M  V30 2742 H 246.351 1.24642 -4.87312 0
M  V30 2743 H 246.051 -0.197356 -5.87268 0
M  V30 2744 H 247.575 0.715241 -6.06396 0
M  V30 2745 H 248.989 -1.49374 -5.53498 0
M  V30 2746 H 247.386 -2.2848 -5.54903 0
M  V30 2747 H 248.456 -2.50382 -4.15255 0
M  V30 2748 N 249.799 1.42003 -0.683588 0
M  V30 2749 C 250.762 2.29191 -0.0198243 0
M  V30 2750 C 251.762 1.43773 0.72013 0
M  V30 2751 O 252.952 1.65061 0.556815 0
M  V30 2752 C 250.084 3.26435 0.982487 0
M  V30 2753 H 251.277 2.8938 -0.787345 0
M  V30 2754 H 248.83 1.49789 -0.446418 0
M  V30 2755 H 249.565 2.71203 1.77819 0
M  V30 2756 H 249.35 3.89449 0.455182 0
M  V30 2757 H 250.84 3.918 1.44508 0
M  V30 2758 N 251.277 0.427512 1.51691 0
M  V30 2759 C 252.523 -0.142439 2.02299 0
M  V30 2760 C 252.856 -1.43214 1.31162 0
M  V30 2761 O 252.131 -1.89833 0.423511 0
M  V30 2762 C 252.414 -0.371301 3.58181 0
M  V30 2763 C 252.267 0.936358 4.39946 0
M  V30 2764 C 253.586 -1.14542 4.24933 0
M  V30 2765 H 250.705 -0.0502937 0.735282 0
M  V30 2766 H 253.347 0.564584 1.81418 0
M  V30 2767 H 251.497 -0.973559 3.76104 0
M  V30 2768 H 253.169 1.57184 4.33694 0
M  V30 2769 H 251.412 1.5432 4.05423 0
M  V30 2770 H 252.083 0.730388 5.47147 0
M  V30 2771 H 254.559 -0.635362 4.11221 0
M  V30 2772 H 253.435 -1.27431 5.33903 0
M  V30 2773 H 253.696 -2.17093 3.85127 0
M  V30 2774 N 252.755 -1.56801 0.158532 0
M  V30 2775 C 253.983 -2.00859 -0.496303 0
M  V30 2776 C 254.398 -1.03871 -1.57659 0
M  V30 2777 O 253.755 -0.0375165 -1.82461 0
M  V30 2778 C 253.806 -3.4479 -1.08638 0
M  V30 2779 O 253.527 -4.38072 -0.0492322 0
M  V30 2780 C 255.028 -4.04185 -1.8207 0
M  V30 2781 H 252.248 -0.65864 -0.128199 0
M  V30 2782 H 254.792 -2.02885 0.256506 0
M  V30 2783 H 252.947 -3.43579 -1.78975 0
M  V30 2784 H 253.361 -5.2227 -0.483102 0
M  V30 2785 H 254.835 -5.06857 -2.18633 0
M  V30 2786 H 255.312 -3.45549 -2.71095 0
M  V30 2787 H 255.918 -4.0906 -1.16405 0
M  V30 2788 N 254.233 0.115231 -1.57178 0
M  V30 2789 C 255.163 1.1423 -2.03651 0
M  V30 2790 C 256.144 1.42967 -0.921655 0
M  V30 2791 O 257.329 1.53343 -1.19162 0
M  V30 2792 C 254.459 2.4675 -2.44401 0
M  V30 2793 C 253.413 2.32467 -3.59365 0
M  V30 2794 C 252.739 3.69984 -3.86026 0
M  V30 2795 C 254.039 1.78203 -4.90959 0
M  V30 2796 H 255.733 0.755749 -2.89705 0
M  V30 2797 H 253.279 0.362093 -1.39373 0
M  V30 2798 H 255.232 3.18854 -2.75517 0
M  V30 2799 H 253.956 2.87302 -1.55322 0
M  V30 2800 H 252.615 1.62811 -3.28463 0
M  V30 2801 H 252.263 4.08028 -2.94147 0
M  V30 2802 H 251.963 3.61279 -4.63412 0
M  V30 2803 H 253.487 4.43587 -4.19599 0
M  V30 2804 H 254.901 2.40128 -5.20587 0
M  V30 2805 H 253.298 1.8031 -5.72371 0
M  V30 2806 H 254.368 0.739876 -4.79222 0
M  V30 2807 N 255.711 1.52812 0.385517 0
M  V30 2808 C 256.641 1.80808 1.47752 0
M  V30 2809 C 257.622 0.660318 1.5676 0
M  V30 2810 O 258.807 0.908246 1.71652 0
M  V30 2811 C 255.937 1.98008 2.85324 0
M  V30 2812 C 254.891 3.13709 2.91154 0
M  V30 2813 C 254.217 3.16169 4.31209 0
M  V30 2814 C 255.517 4.52709 2.60483 0
M  V30 2815 H 257.211 2.72253 1.24573 0
M  V30 2816 H 254.757 1.31003 0.597839 0
M  V30 2817 H 256.71 2.16176 3.61726 0
M  V30 2818 H 255.434 1.03255 3.09848 0
M  V30 2819 H 254.093 2.95329 2.17201 0
M  V30 2820 H 253.741 2.19092 4.52778 0
M  V30 2821 H 253.441 3.93894 4.36029 0
M  V30 2822 H 254.965 3.36496 5.09512 0
M  V30 2823 H 256.379 4.71173 3.26602 0
M  V30 2824 H 254.776 5.32528 2.76648 0
M  V30 2825 H 255.846 4.59186 1.55809 0
M  V30 2826 N 257.189 -0.644168 1.43834 0
M  V30 2827 C 258.152 -1.73857 1.49353 0
M  V30 2828 C 259.152 -1.56315 0.377112 0
M  V30 2829 O 260.342 -1.62048 0.639226 0
M  V30 2830 C 257.474 -3.12819 1.35488 0
M  V30 2831 H 258.667 -1.70342 2.46827 0
M  V30 2832 H 256.22 -0.856652 1.30733 0
M  V30 2833 H 256.955 -3.2194 0.390569 0
M  V30 2834 H 256.74 -3.26958 2.16428 0
M  V30 2835 H 258.23 -3.92606 1.42302 0
M  V30 2836 N 258.668 -1.30515 -0.883378 0
M  V30 2837 C 259.916 -1.19194 -1.63209 0
M  V30 2838 C 260.237 0.253205 -1.93349 0
M  V30 2839 O 259.507 1.17025 -1.57105 0
M  V30 2840 H 258.087 -0.438148 -0.605009 0
M  V30 2841 H 260.749 -1.63663 -1.05832 0
M  V30 2842 H 259.845 -1.75396 -2.58153 0
M  V30 2843 N 260.146 1.09593 -1.13257 0
M  V30 2844 C 261.395 1.81105 -0.887917 0
M  V30 2845 C 261.708 1.86563 0.587672 0
M  V30 2846 O 262.914 2.54367 0.949204 0
M  V30 2847 C 261.37 3.25338 -1.53895 0
M  V30 2848 C 260.978 3.28151 -3.04994 0
M  V30 2849 C 262.722 4.01617 -1.37492 0
M  V30 2850 C 260.629 4.66897 -3.6299 0
M  V30 2851 H 259.559 0.678661 -0.328534 0
M  V30 2852 H 262.21 1.23183 -1.36008 0
M  V30 2853 H 260.592 3.8331 -0.994446 0
M  V30 2854 H 261.766 2.79953 -3.66009 0
M  V30 2855 H 260.081 2.65361 -3.20893 0
M  V30 2856 H 262.678 5.04119 -1.78235 0
M  V30 2857 H 263.021 4.15072 -0.31957 0
M  V30 2858 H 263.554 3.50082 -1.88912 0
M  V30 2859 H 260.293 4.58643 -4.68323 0
M  V30 2860 H 259.813 5.15426 -3.06752 0
M  V30 2861 H 261.492 5.3587 -3.62563 0
M  V30 2862 N 261.624 0.925811 1.2754 0
M  V30 2863 C 262.852 0.581509 1.9856 0
M  V30 2864 C 263.267 -0.840041 1.69082 0
M  V30 2865 O 262.624 -1.55805 0.950312 0
M  V30 2866 C 262.675 0.795589 3.52637 0
M  V30 2867 O 262.396 2.16121 3.81082 0
M  V30 2868 C 263.897 0.459744 4.4091 0
M  V30 2869 H 261.117 0.220538 0.633722 0
M  V30 2870 H 263.661 1.24232 1.6244 0
M  V30 2871 H 261.816 0.18161 3.86974 0
M  V30 2872 H 262.23 2.2098 4.75676 0
M  V30 2873 H 263.704 0.660244 5.48037 0
M  V30 2874 H 264.181 -0.604625 4.35018 0
M  V30 2875 H 264.787 1.05178 4.12089 0
M  V30 2876 N 263.102 -1.41638 0.69111 0
M  V30 2877 C 264.35 -2.00902 0.219758 0
M  V30 2878 C 264.671 -1.54994 -1.18329 0
M  V30 2879 O 263.941 -0.778628 -1.79762 0
M  V30 2880 H 262.521 -0.74289 0.0782558 0
M  V30 2881 H 265.183 -1.73327 0.891271 0
M  V30 2882 H 264.279 -3.11224 0.233708 0
M  V30 2883 N 264.58 -0.43555 -1.51462 0
M  V30 2884 C 265.826 0.131709 -2.02372 0
M  V30 2885 C 266.159 1.42516 -1.3192 0
M  V30 2886 O 265.434 1.89606 -0.433573 0
M  V30 2887 C 265.717 0.352301 -3.58373 0
M  V30 2888 C 265.57 -0.959676 -4.39443 0
M  V30 2889 C 266.889 1.12286 -4.25535 0
M  V30 2890 H 264.008 0.0463936 -0.735538 0
M  V30 2891 H 266.65 -0.574197 -1.81116 0
M  V30 2892 H 264.8 0.9536 -3.76615 0
M  V30 2893 H 266.472 -1.59482 -4.32855 0
M  V30 2894 H 264.715 -1.56468 -4.04599 0
M  V30 2895 H 265.386 -0.759394 -5.46752 0
M  V30 2896 H 267.862 0.613545 -4.11552 0
M  V30 2897 H 266.738 1.24598 -5.34571 0
M  V30 2898 H 266.999 2.15048 -3.86273 0
M  V30 2899 N 266.058 1.56714 -0.166846 0
M  V30 2900 C 267.304 1.97039 0.479962 0
M  V30 2901 C 267.637 1.05264 1.63197 0
M  V30 2902 O 266.912 0.0988833 1.94248 0
M  V30 2903 C 267.195 3.46867 0.967212 0
M  V30 2904 C 267.048 4.49421 -0.18466 0
M  V30 2905 C 268.367 3.9968 1.84238 0
M  V30 2906 H 265.486 0.71641 0.172992 0
M  V30 2907 H 268.128 1.8832 -0.252079 0
M  V30 2908 H 266.278 3.54428 1.59101 0
M  V30 2909 H 267.95 4.53924 -0.821621 0
M  V30 2910 H 266.193 4.25573 -0.840837 0
M  V30 2911 H 266.864 5.51644 0.198317 0
M  V30 2912 H 269.34 3.94723 1.31655 0
M  V30 2913 H 268.216 5.04941 2.15234 0
M  V30 2914 H 268.477 3.43226 2.78654 0
M  V30 2915 N 267.536 -0.106894 1.57237 0
M  V30 2916 C 268.785 -0.811163 1.8467 0
M  V30 2917 C 269.098 -1.80469 0.754342 0
M  V30 2918 O 270.304 -2.55601 0.915439 0
M  V30 2919 C 268.76 -1.49337 3.27454 0
M  V30 2920 C 268.368 -0.540217 4.44731 0
M  V30 2921 C 270.112 -2.18206 3.64124 0
M  V30 2922 C 268.019 -1.22634 5.78545 0
M  V30 2923 H 266.949 -0.306679 0.688813 0
M  V30 2924 H 269.6 -0.0639887 1.83388 0
M  V30 2925 H 267.982 -2.2876 3.23241 0
M  V30 2926 H 269.156 0.221659 4.60267 0
M  V30 2927 H 267.471 0.042146 4.16379 0
M  V30 2928 H 270.068 -2.70253 4.61376 0
M  V30 2929 H 270.411 -2.96562 2.92158 0
M  V30 2930 H 270.944 -1.45658 3.70174 0
M  V30 2931 H 267.683 -0.483832 6.53712 0
M  V30 2932 H 267.203 -1.95993 5.66874 0
M  V30 2933 H 268.882 -1.75615 6.2271 0
M  V30 2934 N 269.014 -1.53014 -0.377408 0
M  V30 2935 C 270.242 -1.72515 -1.14219 0
M  V30 2936 C 270.657 -0.448735 -1.8339 0
M  V30 2937 O 270.014 0.577592 -1.73119 0
M  V30 2938 C 270.065 -2.8826 -2.18148 0
M  V30 2939 O 269.786 -4.10962 -1.51795 0
M  V30 2940 C 271.287 -3.19536 -3.07264 0
M  V30 2941 H 268.507 -0.577301 -0.342001 0
M  V30 2942 H 271.051 -1.99712 -0.439935 0
M  V30 2943 H 269.206 -2.63492 -2.83991 0
M  V30 2944 H 269.62 -4.75693 -2.20945 0
M  V30 2945 H 271.094 -4.03959 -3.76193 0
M  V30 2946 H 271.571 -2.34403 -3.71419 0
M  V30 2947 H 272.177 -3.46186 -2.47053 0
M  V30 2948 N 270.492 0.636531 -1.44174 0
M  V30 2949 C 271.422 1.76003 -1.53444 0
M  V30 2950 C 272.403 1.65619 -0.387841 0
M  V30 2951 O 273.588 1.84461 -0.607257 0
M  V30 2952 C 270.718 3.14511 -1.4731 0
M  V30 2953 C 269.672 3.39677 -2.60391 0
M  V30 2954 C 268.998 4.78159 -2.39308 0
M  V30 2955 C 270.298 3.32772 -4.02567 0
M  V30 2956 H 271.992 1.68501 -2.47483 0
M  V30 2957 H 269.538 0.809237 -1.19111 0
M  V30 2958 H 271.491 3.92878 -1.52397 0
M  V30 2959 H 270.215 3.22783 -0.49785 0
M  V30 2960 H 268.874 2.63688 -2.54684 0
M  V30 2961 H 268.522 4.83128 -1.39988 0
M  V30 2962 H 268.222 4.95956 -3.15122 0
M  V30 2963 H 269.746 5.58762 -2.46205 0
M  V30 2964 H 271.16 4.01051 -4.09672 0
M  V30 2965 H 269.557 3.62104 -4.7854 0
M  V30 2966 H 270.627 2.30669 -4.2652 0
M  V30 2967 N 271.97 1.30982 0.876444 0
M  V30 2968 C 273.21 1.21589 1.64303 0
M  V30 2969 C 273.574 -0.223962 1.90689 0
M  V30 2970 O 274.775 -0.44128 2.65153 0
M  V30 2971 C 273.046 2.03007 2.94148 0
M  V30 2972 S 274.605 2.10405 3.85065 0
M  V30 2973 H 271.423 0.433161 0.563819 0
M  V30 2974 H 274.025 1.65565 1.03964 0
M  V30 2975 H 272.729 3.06719 2.72675 0
M  V30 2976 H 272.26 1.59725 3.59515 0
M  V30 2977 H 274.275 1.23765 4.80517 0
M  V30 2978 N 273.449 -1.08991 1.13837 0
M  V30 2979 C 274.379 -2.17771 0.842507 0
M  V30 2980 C 275.36 -1.6892 -0.20001 0
M  V30 2981 O 276.545 -1.94113 -0.0579731 0
M  V30 2982 C 273.675 -3.4589 0.312644 0
M  V30 2983 C 272.629 -4.08099 1.28992 0
M  V30 2984 C 271.955 -5.31098 0.619623 0
M  V30 2985 C 273.255 -4.50077 2.65005 0
M  V30 2986 H 274.949 -2.42777 1.75213 0
M  V30 2987 H 272.495 -1.16682 0.843875 0
M  V30 2988 H 274.448 -4.21297 0.0933043 0
M  V30 2989 H 273.172 -3.20419 -0.632382 0
M  V30 2990 H 271.831 -3.34717 1.49533 0
M  V30 2991 H 271.479 -5.0191 -0.33102 0
M  V30 2992 H 271.179 -5.73674 1.27167 0
M  V30 2993 H 272.703 -6.09224 0.409669 0
M  V30 2994 H 274.117 -5.16688 2.48407 0
M  V30 2995 H 272.514 -5.03553 3.26427 0
M  V30 2996 H 273.584 -3.62257 3.22332 0
M  V30 2997 N 274.927 -0.932562 -1.27047 0
M  V30 2998 C 276.176 -0.571351 -1.93439 0
M  V30 2999 C 276.489 0.892467 -1.74053 0
M  V30 3000 O 277.695 1.36267 -2.34826 0
M  V30 3001 C 276.151 -0.97106 -3.46552 0
M  V30 3002 C 275.759 -2.4559 -3.74686 0
M  V30 3003 C 277.503 -0.681333 -4.18997 0
M  V30 3004 C 275.41 -2.79475 -5.21198 0
M  V30 3005 H 274.34 -0.209966 -0.724176 0
M  V30 3006 H 276.991 -1.13403 -1.44263 0
M  V30 3007 H 275.373 -0.336983 -3.94564 0
M  V30 3008 H 276.547 -3.13829 -3.37414 0
M  V30 3009 H 274.862 -2.71802 -3.15456 0
M  V30 3010 H 277.459 -0.910939 -5.26883 0
M  V30 3011 H 277.802 0.381628 -4.14547 0
M  V30 3012 H 278.335 -1.27473 -3.76823 0
M  V30 3013 H 275.074 -3.847 -5.30741 0
M  V30 3014 H 274.594 -2.1589 -5.596 0
M  V30 3015 H 276.273 -2.67478 -5.89122 0
M  V30 3016 N 276.405 1.4127 -0.698611 0
M  V30 3017 C 277.335 2.33447 -0.049629 0
M  V30 3018 C 278.316 1.51982 0.763898 0
M  V30 3019 O 279.501 1.80509 0.716257 0
M  V30 3020 C 276.631 3.35828 0.885267 0
M  V30 3021 C 275.585 4.27627 0.178613 0
M  V30 3022 C 274.911 5.20406 1.22807 0
M  V30 3023 C 276.211 5.13459 -0.956933 0
M  V30 3024 H 277.905 2.87966 -0.81951 0
M  V30 3025 H 275.451 1.38461 -0.395538 0
M  V30 3026 H 277.404 3.9924 1.34854 0
M  V30 3027 H 276.128 2.79666 1.68685 0
M  V30 3028 H 274.787 3.65643 -0.26466 0
M  V30 3029 H 274.435 4.60558 2.02226 0
M  V30 3030 H 274.135 5.82661 0.760239 0
M  V30 3031 H 275.659 5.86695 1.69179 0
M  V30 3032 H 277.073 5.70421 -0.573805 0
M  V30 3033 H 275.47 5.8467 -1.35205 0
M  V30 3034 H 276.54 4.50443 -1.79524 0
M  V30 3035 N 277.883 0.443576 1.51229 0
M  V30 3036 C 279.132 -0.122332 2.01329 0
M  V30 3037 C 279.445 -1.43237 1.33201 0
M  V30 3038 O 280.651 -2.0816 1.74304 0
M  V30 3039 C 279.107 -0.268551 3.58897 0
M  V30 3040 C 278.715 1.03142 4.35965 0
M  V30 3041 C 280.459 -0.787894 4.17124 0
M  V30 3042 C 278.366 0.850504 5.85252 0
M  V30 3043 H 277.296 -0.0494929 0.752374 0
M  V30 3044 H 279.947 0.574289 1.74282 0
M  V30 3045 H 278.329 -1.02832 3.82415 0
M  V30 3046 H 279.503 1.80001 4.24189 0
M  V30 3047 H 277.818 1.47977 3.89219 0
M  V30 3048 H 280.415 -0.939841 5.26375 0
M  V30 3049 H 280.758 -1.77201 3.76703 0
M  V30 3050 H 281.291 -0.0862669 3.97706 0
M  V30 3051 H 278.03 1.80718 6.30096 0
M  V30 3052 H 277.55 0.121825 5.99676 0
M  V30 3053 H 279.229 0.506163 6.45017 0
M  V30 3054 N 279.361 -1.56624 0.175154 0
M  V30 3055 C 280.61 -1.96173 -0.468921 0
M  V30 3056 C 280.923 -1.06401 -1.64128 0
M  V30 3057 O 282.129 -1.35648 -2.35185 0
M  V30 3058 C 280.585 -3.48833 -0.885633 0
M  V30 3059 C 280.193 -4.47237 0.261343 0
M  V30 3060 C 281.937 -3.97194 -1.49791 0
M  V30 3061 C 279.844 -5.9114 -0.175214 0
M  V30 3062 H 278.774 -0.732455 -0.178958 0
M  V30 3063 H 281.425 -1.81591 0.263997 0
M  V30 3064 H 279.807 -3.58848 -1.67464 0
M  V30 3065 H 280.981 -4.4894 1.03871 0
M  V30 3066 H 279.296 -4.08956 0.783827 0
M  V30 3067 H 281.893 -5.02167 -1.83665 0
M  V30 3068 H 282.236 -3.40351 -2.39722 0
M  V30 3069 H 282.769 -3.90212 -0.773267 0
M  V30 3070 H 279.508 -6.51865 0.689414 0
M  V30 3071 H 279.028 -5.92735 -0.91786 0
M  V30 3072 H 280.707 -6.44044 -0.617792 0
M  V30 3073 N 280.839 0.0985539 -1.57292 0
M  V30 3074 C 282.067 0.816318 -1.90115 0
M  V30 3075 C 282.482 1.72451 -0.768509 0
M  V30 3076 O 281.839 1.80643 0.259687 0
M  V30 3077 C 281.89 1.63259 -3.22535 0
M  V30 3078 O 281.611 0.760934 -4.31441 0
M  V30 3079 C 283.112 2.45372 -3.69199 0
M  V30 3080 H 280.332 0.233595 -0.629027 0
M  V30 3081 H 282.876 0.0768229 -2.04356 0
M  V30 3082 H 281.031 2.32463 -3.09903 0
M  V30 3083 H 281.445 1.32595 -5.07463 0
M  V30 3084 H 282.919 2.98144 -4.64558 0
M  V30 3085 H 283.396 3.23677 -2.96867 0
M  V30 3086 H 284.002 1.81373 -3.84687 0
M  V30 3087 N 282.317 1.53212 0.369288 0
M  V30 3088 C 283.542 1.73423 1.1375 0
M  V30 3089 C 283.967 0.460404 1.82378 0
M  V30 3090 O 283.325 -0.585298 1.71592 0
M  V30 3091 C 283.373 2.89769 2.1463 0
M  V30 3092 O 282.477 2.58119 3.21634 0
M  V30 3093 H 281.818 0.576061 0.330227 0
M  V30 3094 H 284.348 2.00083 0.427547 0
M  V30 3095 H 284.358 3.15829 2.58294 0
M  V30 3096 H 283.033 3.8217 1.64071 0
M  V30 3097 H 281.61 2.42864 2.82969 0
M  V30 3098 N 283.795 -0.628877 1.44509 0
M  V30 3099 C 285.02 -1.42048 1.5112 0
M  V30 3100 C 285.445 -1.87594 0.137818 0
M  V30 3101 O 284.803 -1.58873 -0.873437 0
M  V30 3102 C 284.851 -2.61541 2.48251 0
M  V30 3103 O 283.955 -3.61453 1.98559 0
M  V30 3104 H 283.296 -0.424942 0.510216 0
M  V30 3105 H 285.826 -0.767374 1.89664 0
M  V30 3106 H 285.836 -3.09057 2.66361 0
M  V30 3107 H 284.511 -2.27736 3.48007 0
M  V30 3108 H 283.088 -3.20731 1.90227 0
M  V30 3109 N 285.273 -1.31445 -0.869486 0
M  V30 3110 C 286.501 -1.24122 -1.65534 0
M  V30 3111 C 286.916 0.193387 -1.87807 0
M  V30 3112 O 286.273 1.12557 -1.43656 0
M  V30 3113 C 286.324 -1.98229 -3.02304 0
M  V30 3114 O 286.045 -3.3609 -2.81026 0
M  V30 3115 C 287.546 -1.97751 -3.96749 0
M  V30 3116 H 284.766 -0.428868 -0.516055 0
M  V30 3117 H 287.31 -1.73328 -1.08525 0
M  V30 3118 H 285.465 -1.52782 -3.56001 0
M  V30 3119 H 285.879 -3.7383 -3.67902 0
M  V30 3120 H 287.353 -2.54114 -4.90031 0
M  V30 3121 H 287.83 -0.960137 -4.28577 0
M  V30 3122 H 288.436 -2.43079 -3.48988 0
M  V30 3123 N 286.751 1.08385 -1.14413 0
M  V30 3124 C 287.698 2.15311 -0.831265 0
M  V30 3125 C 288.668 1.64751 0.211292 0
M  V30 3126 O 289.853 1.90627 0.0811674 0
M  V30 3127 C 286.993 3.43658 -0.315143 0
M  V30 3128 C 286.106 4.08064 -1.41802 0
M  V30 3129 C 285.241 5.24207 -0.859126 0
M  V30 3130 C 284.28 5.80554 -1.93967 0
M  V30 3131 N 283.417 6.88042 -1.39793 0
M  V30 3132 H 288.257 2.41415 -1.74708 0
M  V30 3133 H 285.794 1.18474 -0.871909 0
M  V30 3134 H 287.752 4.172 0.00230884 0
M  V30 3135 H 286.382 3.17839 0.56378 0
M  V30 3136 H 285.434 3.3228 -1.85187 0
M  V30 3137 H 286.746 4.45962 -2.23427 0
M  V30 3138 H 285.9 6.04689 -0.49359 0
M  V30 3139 H 284.639 4.87699 -0.011932 0
M  V30 3140 H 283.644 4.98725 -2.31415 0
M  V30 3141 H 284.869 6.19121 -2.79046 0
M  V30 3142 H 282.815 6.53493 -0.572919 0
M  V30 3143 H 282.732 7.24767 -2.15054 0
M  V30 3144 H 284 7.72255 -1.0603 0
M  V30 3145 N 288.23 0.939286 1.26551 0
M  V30 3146 C 289.458 0.602536 1.97932 0
M  V30 3147 C 289.873 -0.82206 1.69964 0
M  V30 3148 O 289.23 -1.54789 0.966784 0
M  V30 3149 C 289.281 0.832946 3.51773 0
M  V30 3150 O 289.002 2.20151 3.78768 0
M  V30 3151 C 290.503 0.506483 4.40397 0
M  V30 3152 H 287.723 0.227248 0.631347 0
M  V30 3153 H 290.267 1.25948 1.61113 0
M  V30 3154 H 288.422 0.222644 3.8676 0
M  V30 3155 H 288.836 2.26013 4.73306 0
M  V30 3156 H 290.31 0.718333 5.47306 0
M  V30 3157 H 290.787 -0.558451 4.35635 0
M  V30 3158 H 291.393 1.09543 4.10951 0
M  V30 3159 N 289.708 -1.40897 0.706093 0
M  V30 3160 C 290.957 -2.00284 0.238574 0
M  V30 3161 C 291.27 -1.56604 -1.17194 0
M  V30 3162 O 292.476 -2.08624 -1.73748 0
M  V30 3163 C 290.932 -3.57934 0.375623 0
M  V30 3164 C 290.54 -4.10591 1.79217 0
M  V30 3165 C 292.284 -4.24488 -0.0315857 0
M  V30 3166 C 290.191 -5.60712 1.88032 0
M  V30 3167 H 289.121 -0.749144 0.0854398 0
M  V30 3168 H 291.772 -1.61251 0.875813 0
M  V30 3169 H 290.154 -3.94622 -0.330042 0
M  V30 3170 H 291.328 -3.85301 2.52745 0
M  V30 3171 H 289.643 -3.56601 2.15 0
M  V30 3172 H 292.24 -5.34698 0.0136842 0
M  V30 3173 H 292.583 -4.02261 -1.072 0
M  V30 3174 H 293.116 -3.92873 0.624181 0
M  V30 3175 H 289.855 -5.87781 2.90161 0
M  V30 3176 H 289.375 -5.87896 1.18903 0
M  V30 3177 H 291.054 -6.25658 1.64805 0
M  V30 3178 N 291.186 -0.45159 -1.50991 0
M  V30 3179 C 292.602 -0.104647 -1.59257 0
M  V30 3180 C 292.802 1.38728 -1.4614 0
M  V30 3181 O 291.858 2.15866 -1.30989 0
M  V30 3182 C 293.171 -0.637468 -2.93865 0
M  V30 3183 C 294.719 -0.599166 -3.07212 0
M  V30 3184 C 295.194 -1.1092 -4.44366 0
M  V30 3185 N 296.685 -1.06778 -4.50725 0
M  V30 3186 C 297.42 -1.43314 -5.55201 0
M  V30 3187 N 296.916 -1.87204 -6.67028 0
M  V30 3188 N 298.709 -1.3504 -5.45638 0
M  V30 3189 H 290.86 -1.42214 -1.57762 0
M  V30 3190 H 293.123 -0.586921 -0.744465 0
M  V30 3191 H 292.829 -1.68187 -3.08879 0
M  V30 3192 H 292.703 -0.0702139 -3.77135 0
M  V30 3193 H 295.09 0.436277 -2.91857 0
M  V30 3194 H 295.171 -1.20299 -2.25747 0
M  V30 3195 H 294.815 -2.14318 -4.60467 0
M  V30 3196 H 294.745 -0.481773 -5.24392 0
M  V30 3197 H 297.236 -0.745643 -3.70471 0
M  V30 3198 H 297.549 -2.13282 -7.42786 0
M  V30 3199 H 295.894 -1.91142 -6.68199 0
M  V30 3200 H 299.085 -1.00607 -4.57161 0
M  V30 3201 H 299.258 -1.63841 -6.26945 0
M  V30 3202 N 292.664 1.56529 -0.183458 0
M  V30 3203 C 294.08 1.58664 0.172554 0
M  V30 3204 C 294.28 1.19925 1.61926 0
M  V30 3205 O 293.336 0.916534 2.35278 0
M  V30 3206 C 294.649 3.00463 -0.119262 0
M  V30 3207 C 296.197 3.12945 -0.0584396 0
M  V30 3208 C 296.672 4.56857 -0.323408 0
M  V30 3209 N 298.163 4.62403 -0.271612 0
M  V30 3210 C 298.898 5.71626 -0.450639 0
M  V30 3211 N 298.394 6.89362 -0.689384 0
M  V30 3212 N 300.187 5.60775 -0.385701 0
M  V30 3213 H 292.338 1.79994 -1.12765 0
M  V30 3214 H 294.601 0.834808 -0.449222 0
M  V30 3215 H 294.307 3.33326 -1.12192 0
M  V30 3216 H 294.181 3.72659 0.583544 0
M  V30 3217 H 296.568 2.79902 0.934805 0
M  V30 3218 H 296.649 2.4316 -0.794144 0
M  V30 3219 H 296.293 4.9061 -1.31392 0
M  V30 3220 H 296.223 5.24816 0.43305 0
M  V30 3221 H 298.714 3.77785 -0.0932256 0
M  V30 3222 H 299.027 7.68489 -0.815113 0
M  V30 3223 H 297.372 6.91196 -0.726142 0
M  V30 3224 H 300.563 4.67674 -0.199687 0
M  V30 3225 H 300.736 6.4584 -0.528646 0
M  V30 3226 N 294.142 -0.090211 1.57342 0
M  V30 3227 C 295.367 -0.810082 1.90925 0
M  V30 3228 C 295.792 -1.71248 0.778187 0
M  V30 3229 O 295.15 -1.79278 -0.269991 0
M  V30 3230 C 295.198 -1.59529 3.23393 0
M  V30 3231 O 294.302 -2.70461 3.11327 0
M  V30 3232 H 293.643 -0.222231 0.625707 0
M  V30 3233 H 296.173 -0.0639716 2.045 0
M  V30 3234 H 296.183 -1.97847 3.5682 0
M  V30 3235 H 294.858 -0.933055 4.05299 0
M  V30 3236 H 293.435 -2.35135 2.89423 0
M  V30 3237 N 295.62 -1.53406 -0.361157 0
M  V30 3238 C 296.85 -1.73465 -1.1222 0
M  V30 3239 C 297.258 -0.465486 -1.83384 0
M  V30 3240 O 296.601 0.571611 -1.7458 0
M  V30 3241 C 296.663 -2.84834 -2.19339 0
M  V30 3242 C 296.327 -4.25038 -1.67903 0
M  V30 3243 C 297.324 -5.07231 -1.14074 0
M  V30 3244 C 295.009 -4.71464 -1.73282 0
M  V30 3245 C 297.003 -6.33942 -0.663068 0
M  V30 3246 C 294.69 -5.98153 -1.25127 0
M  V30 3247 C 295.688 -6.79223 -0.717296 0
M  V30 3248 O 295.376 -8.03533 -0.242865 0
M  V30 3249 H 295.108 -0.583526 -0.341283 0
M  V30 3250 H 297.662 -2.00964 -0.424591 0
M  V30 3251 H 295.892 -2.5282 -2.92607 0
M  V30 3252 H 297.581 -2.9303 -2.80871 0
M  V30 3253 H 298.347 -4.72534 -1.09254 0
M  V30 3254 H 294.226 -4.08432 -2.13786 0
M  V30 3255 H 297.77 -6.97167 -0.245612 0
M  V30 3256 H 293.667 -6.32347 -1.29642 0
M  V30 3257 H 294.435 -8.177 -0.361786 0
M  V30 3258 N 297.098 0.621204 -1.44841 0
M  V30 3259 C 298.345 1.38055 -1.48145 0
M  V30 3260 C 298.673 1.94143 -0.117867 0
M  V30 3261 O 297.928 1.74713 0.881694 0
M  V30 3262 C 298.227 2.55675 -2.4973 0
M  V30 3263 C 297.893 2.17817 -3.94799 0
M  V30 3264 C 296.555 2.07205 -4.34303 0
M  V30 3265 C 298.907 1.88065 -4.86087 0
M  V30 3266 C 296.235 1.65045 -5.63007 0
M  V30 3267 C 298.587 1.47394 -6.15189 0
M  V30 3268 C 297.251 1.35331 -6.53637 0
M  V30 3269 H 296.521 0.505181 -0.542101 0
M  V30 3270 H 299.168 0.703477 -1.78111 0
M  V30 3271 H 297.473 3.2866 -2.13284 0
M  V30 3272 H 299.17 3.13904 -2.4953 0
M  V30 3273 H 295.76 2.26998 -3.63552 0
M  V30 3274 H 299.944 1.95168 -4.56315 0
M  V30 3275 H 295.2 1.54317 -5.91605 0
M  V30 3276 H 299.374 1.23415 -6.85377 0
M  V30 3277 H 297.001 1.02435 -7.53267 0
M  V30 3278 N 298.576 1.31904 0.862503 0
M  V30 3279 C 299.486 1.22161 2.00285 0
M  V30 3280 C 300.502 0.136785 1.73462 0
M  V30 3281 O 301.678 0.355994 1.98229 0
M  V30 3282 C 298.743 0.937093 3.33796 0
M  V30 3283 C 297.804 2.10957 3.73893 0
M  V30 3284 C 297.037 1.83853 5.01033 0
M  V30 3285 O 297.26 0.777274 5.65079 0
M  V30 3286 O 296.194 2.69741 5.38074 0
M  V30 3287 H 300.02 2.18008 2.11439 0
M  V30 3288 H 297.605 1.11716 0.991957 0
M  V30 3289 H 299.487 0.794583 4.13841 0
M  V30 3290 H 298.162 0.00871894 3.23699 0
M  V30 3291 H 297.069 2.30752 2.94456 0
M  V30 3292 H 298.402 3.02046 3.88625 0
M  V30 3293 N 300.054 -1.07777 1.14986 0
M  V30 3294 C 301.3 -1.80557 0.923422 0
M  V30 3295 C 301.633 -1.86298 -0.548337 0
M  V30 3296 O 300.908 -1.34354 -1.40639 0
M  V30 3297 C 301.191 -3.25839 1.53299 0
M  V30 3298 C 301.044 -3.28269 3.07505 0
M  V30 3299 C 302.363 -4.22991 1.21518 0
M  V30 3300 H 299.482 -0.655493 0.336894 0
M  V30 3301 H 302.124 -1.26144 1.42083 0
M  V30 3302 H 300.274 -3.72306 1.10999 0
M  V30 3303 H 301.946 -2.90079 3.58681 0
M  V30 3304 H 300.189 -2.67355 3.4162 0
M  V30 3305 H 300.86 -4.30691 3.45266 0
M  V30 3306 H 303.336 -3.84894 1.581 0
M  V30 3307 H 302.212 -5.22945 1.66793 0
M  V30 3308 H 302.473 -4.41904 0.131505 0
M  V30 3309 N 301.532 -0.945985 -1.26051 0
M  V30 3310 C 302.779 -0.596118 -1.93527 0
M  V30 3311 C 303.107 0.865559 -1.74179 0
M  V30 3312 O 302.362 1.63524 -1.0751 0
M  V30 3313 C 302.661 -0.890475 -3.46129 0
M  V30 3314 C 302.327 -2.3368 -3.85622 0
M  V30 3315 C 300.989 -2.73216 -3.96114 0
M  V30 3316 C 303.341 -3.27648 -4.05334 0
M  V30 3317 C 300.669 -4.05806 -4.2372 0
M  V30 3318 C 303.021 -4.59841 -4.3443 0
M  V30 3319 C 301.685 -4.99185 -4.43137 0
M  V30 3320 H 300.955 -0.218135 -0.708165 0
M  V30 3321 H 303.602 -1.1934 -1.49768 0
M  V30 3322 H 301.907 -0.210711 -3.91233 0
M  V30 3323 H 303.604 -0.598478 -3.96509 0
M  V30 3324 H 300.194 -2.02015 -3.78005 0
M  V30 3325 H 304.378 -2.98298 -3.96651 0
M  V30 3326 H 299.634 -4.35945 -4.28675 0
M  V30 3327 H 303.808 -5.32641 -4.48628 0
M  V30 3328 H 301.435 -6.01952 -4.64282 0
M  V30 3329 N 303.011 1.40521 -0.713556 0
M  V30 3330 C 304.257 2.01714 -0.261382 0
M  V30 3331 C 304.612 1.55562 1.13217 0
M  V30 3332 O 303.905 0.764893 1.7567 0
M  V30 3333 C 304.099 3.56317 -0.278 0
M  V30 3334 C 303.928 4.17476 -1.67163 0
M  V30 3335 C 302.698 4.50998 -2.2788 0
M  V30 3336 C 304.896 4.42472 -2.6215 0
M  V30 3337 N 302.878 4.9754 -3.5962 0
M  V30 3338 C 304.249 4.90985 -3.78594 0
M  V30 3339 C 306.304 4.24508 -2.60188 0
M  V30 3340 C 305.007 5.2342 -4.9338 0
M  V30 3341 C 307.033 4.58043 -3.741 0
M  V30 3342 C 306.395 5.06743 -4.89276 0
M  V30 3343 H 302.494 0.769104 -0.141434 0
M  V30 3344 H 305.078 1.70785 -0.934915 0
M  V30 3345 H 303.249 3.8668 0.36509 0
M  V30 3346 H 304.981 4.0425 0.190695 0
M  V30 3347 H 301.736 4.38062 -1.79997 0
M  V30 3348 H 302.16 5.25196 -4.27198 0
M  V30 3349 H 306.802 3.86078 -1.72348 0
M  V30 3350 H 304.52 5.60765 -5.81866 0
M  V30 3351 H 308.106 4.45785 -3.73854 0
M  V30 3352 H 306.986 5.32204 -5.75959 0
M  V30 3353 N 304.489 0.459591 1.5075 0
M  V30 3354 C 305.719 -0.0972338 2.06371 0
M  V30 3355 C 306.127 -1.35074 1.32483 0
M  V30 3356 O 305.47 -1.79637 0.384226 0
M  V30 3357 C 305.532 -0.462759 3.56509 0
M  V30 3358 C 305.196 0.687084 4.51805 0
M  V30 3359 C 306.193 1.56578 4.95761 0
M  V30 3360 C 303.878 0.874144 4.94635 0
M  V30 3361 C 305.872 2.61604 5.81242 0
M  V30 3362 C 303.559 1.92765 5.79901 0
M  V30 3363 C 304.557 2.79697 6.23104 0
M  V30 3364 O 304.245 3.83235 7.06673 0
M  V30 3365 H 303.977 -0.00140687 0.675999 0
M  V30 3366 H 306.531 0.644011 1.95043 0
M  V30 3367 H 304.761 -1.25703 3.65699 0
M  V30 3368 H 306.45 -0.953323 3.94546 0
M  V30 3369 H 307.216 1.4329 4.6335 0
M  V30 3370 H 303.095 0.207006 4.60535 0
M  V30 3371 H 306.639 3.29489 6.14884 0
M  V30 3372 H 302.536 2.06064 6.11725 0
M  V30 3373 H 303.304 3.80084 7.24899 0
M  V30 3374 N 305.967 -1.56429 0.191757 0
M  V30 3375 C 307.195 -2.01867 -0.453586 0
M  V30 3376 C 307.61 -1.07191 -1.5542 0
M  V30 3377 O 306.967 -0.0762108 -1.82341 0
M  V30 3378 C 307.018 -3.47017 -1.013 0
M  V30 3379 O 306.739 -4.38078 0.0437005 0
M  V30 3380 C 308.24 -4.07956 -1.73456 0
M  V30 3381 H 305.46 -0.661211 -0.114199 0
M  V30 3382 H 308.004 -2.02295 0.299483 0
M  V30 3383 H 306.159 -3.47298 -1.71647 0
M  V30 3384 H 306.573 -5.23178 -0.372212 0
M  V30 3385 H 308.047 -5.1138 -2.07833 0
M  V30 3386 H 308.524 -3.51222 -2.63704 0
M  V30 3387 H 309.13 -4.11437 -1.07702 0
M  V30 3388 N 307.445 0.0818655 -1.57387 0
M  V30 3389 C 308.395 1.10501 -1.99433 0
M  V30 3390 C 309.379 1.35041 -0.874798 0
M  V30 3391 O 310.571 1.35511 -1.13868 0
M  V30 3392 C 307.7 2.42159 -2.43339 0
M  V30 3393 C 306.786 2.20937 -3.62005 0
M  V30 3394 N 307.177 1.69616 -4.76512 0
M  V30 3395 C 305.475 2.51451 -3.68359 0
M  V30 3396 C 306.176 1.62973 -5.58404 0
M  V30 3397 N 305.152 2.08664 -5.01956 0
M  V30 3398 H 308.954 0.701373 -2.85408 0
M  V30 3399 H 306.468 0.289096 -1.59806 0
M  V30 3400 H 308.465 3.16208 -2.71695 0
M  V30 3401 H 307.125 2.83249 -1.58746 0
M  V30 3402 H 308.136 1.38624 -4.99003 0
M  V30 3403 H 304.813 2.95975 -2.94457 0
M  V30 3404 H 306.203 1.24233 -6.60315 0
M  V30 3405 N 308.923 1.53595 0.353017 0
M  V30 3406 C 309.873 1.77299 1.43349 0
M  V30 3407 C 310.857 0.627884 1.48143 0
M  V30 3408 O 312.049 0.88697 1.53173 0
M  V30 3409 C 309.178 1.97757 2.80619 0
M  V30 3410 C 308.264 3.18305 2.80254 0
M  V30 3411 N 308.655 4.39967 2.49526 0
M  V30 3412 C 306.953 3.19283 3.11407 0
M  V30 3413 C 307.654 5.21772 2.57156 0
M  V30 3414 N 306.63 4.58269 2.92388 0
M  V30 3415 H 310.432 2.68963 1.18474 0
M  V30 3416 H 307.946 1.52391 0.561306 0
M  V30 3417 H 309.943 2.1287 3.58458 0
M  V30 3418 H 308.603 1.07329 3.06448 0
M  V30 3419 H 309.614 4.67482 2.22893 0
M  V30 3420 H 306.291 2.3879 3.4247 0
M  V30 3421 H 307.681 6.2885 2.36638 0
M  V30 3422 N 310.401 -0.613514 1.45168 0
M  V30 3423 C 311.331 -1.7354 1.56225 0
M  V30 3424 C 312.312 -1.64981 0.41414 0
M  V30 3425 O 313.497 -1.83472 0.636526 0
M  V30 3426 C 310.627 -3.12128 1.52295 0
M  V30 3427 C 309.581 -3.35491 2.65762 0
M  V30 3428 C 308.907 -4.74291 2.46885 0
M  V30 3429 C 310.207 -3.26325 4.0781 0
M  V30 3430 H 311.901 -1.64543 2.50132 0
M  V30 3431 H 309.447 -0.790185 1.20383 0
M  V30 3432 H 311.4 -3.90404 1.58628 0
M  V30 3433 H 310.124 -3.2195 0.549139 0
M  V30 3434 H 308.783 -2.59603 2.58847 0
M  V30 3435 H 308.431 -4.80839 1.47657 0
M  V30 3436 H 308.131 -4.9088 3.22972 0
M  V30 3437 H 309.655 -5.54775 2.55063 0
M  V30 3438 H 311.069 -3.94483 4.16 0
M  V30 3439 H 309.466 -3.54445 4.8424 0
M  V30 3440 H 310.536 -2.23855 4.30136 0
M  V30 3441 N 311.879 -1.3236 -0.855495 0
M  V30 3442 C 313.126 -1.22872 -1.60962 0
M  V30 3443 C 313.454 0.209658 -1.93367 0
M  V30 3444 O 312.709 1.16243 -1.57436 0
M  V30 3445 C 313.008 -2.03275 -2.93963 0
M  V30 3446 C 312.674 -3.5264 -2.80991 0
M  V30 3447 C 311.336 -3.93364 -2.7716 0
M  V30 3448 C 313.688 -4.47626 -2.66983 0
M  V30 3449 C 311.016 -5.27319 -2.572 0
M  V30 3450 C 313.368 -5.81723 -2.48558 0
M  V30 3451 C 312.032 -6.2165 -2.4312 0
M  V30 3452 H 311.302 -0.44962 -0.589001 0
M  V30 3453 H 313.949 -1.63777 -0.992442 0
M  V30 3454 H 312.254 -1.55095 -3.59795 0
M  V30 3455 H 313.951 -1.93303 -3.51333 0
M  V30 3456 H 310.541 -3.20295 -2.84797 0
M  V30 3457 H 314.725 -4.17084 -2.68988 0
M  V30 3458 H 309.981 -5.57311 -2.51424 0
M  V30 3459 H 314.155 -6.5494 -2.36699 0
M  V30 3460 H 311.782 -7.25388 -2.27412 0
M  V30 3461 N 313.357 1.07166 -1.15556 0
M  V30 3462 C 314.603 1.80065 -0.932984 0
M  V30 3463 C 314.936 1.86586 0.53845 0
M  V30 3464 O 314.211 1.35098 1.39924 0
M  V30 3465 C 314.494 3.25022 -1.55025 0
M  V30 3466 C 314.347 3.26634 -3.09242 0
M  V30 3467 C 315.666 4.22341 -1.2376 0
M  V30 3468 H 312.785 0.653697 -0.340366 0
M  V30 3469 H 315.427 1.25389 -1.4275 0
M  V30 3470 H 313.577 3.71712 -1.12972 0
M  V30 3471 H 315.249 2.88173 -3.60214 0
M  V30 3472 H 313.492 2.65539 -3.43033 0
M  V30 3473 H 314.163 4.28854 -3.47546 0
M  V30 3474 H 316.639 3.8405 -1.60139 0
M  V30 3475 H 315.515 5.22053 -1.69564 0
M  V30 3476 H 315.776 4.41828 -0.154938 0
M  V30 3477 N 314.835 0.952656 1.25548 0
M  V30 3478 C 316.084 0.602053 1.92505 0
M  V30 3479 C 316.397 -0.864663 1.75451 0
M  V30 3480 O 317.603 -1.32514 2.36965 0
M  V30 3481 C 316.059 1.02607 3.44963 0
M  V30 3482 C 315.667 2.51519 3.70732 0
M  V30 3483 C 317.411 0.747905 4.1786 0
M  V30 3484 C 315.318 2.87732 5.16686 0
M  V30 3485 H 314.248 0.22146 0.720744 0
M  V30 3486 H 316.899 1.15684 1.42441 0
M  V30 3487 H 315.281 0.399712 3.93978 0
M  V30 3488 H 316.455 3.19157 3.32378 0
M  V30 3489 H 314.77 2.76786 3.11092 0
M  V30 3490 H 317.367 0.994647 5.25367 0
M  V30 3491 H 317.71 -0.315629 4.15102 0
M  V30 3492 H 318.243 1.33452 3.74747 0
M  V30 3493 H 314.982 3.93095 5.24554 0
M  V30 3494 H 314.502 2.24765 5.56094 0
M  V30 3495 H 316.181 2.76817 5.84792 0
M  V30 3496 N 316.313 -1.40141 0.720998 0
M  V30 3497 C 317.56 -2.00787 0.262842 0
M  V30 3498 C 317.888 -1.5718 -1.14563 0
M  V30 3499 O 317.143 -0.785391 -1.79249 0
M  V30 3500 C 317.442 -3.56165 0.296892 0
M  V30 3501 C 317.108 -4.19373 1.65641 0
M  V30 3502 C 315.77 -4.36352 2.02855 0
M  V30 3503 C 318.122 -4.54578 2.54968 0
M  V30 3504 C 315.45 -4.8582 3.28931 0
M  V30 3505 C 317.802 -5.05447 3.80402 0
M  V30 3506 C 316.466 -5.20635 4.17726 0
M  V30 3507 H 315.736 -0.734731 0.0961807 0
M  V30 3508 H 318.383 -1.67673 0.925093 0
M  V30 3509 H 316.688 -3.8922 -0.448932 0
M  V30 3510 H 318.385 -4.00929 -0.0755208 0
M  V30 3511 H 314.975 -4.06549 1.35704 0
M  V30 3512 H 319.159 -4.41091 2.27491 0
M  V30 3513 H 314.415 -4.95764 3.57811 0
M  V30 3514 H 318.589 -5.31663 4.49786 0
M  V30 3515 H 316.216 -5.58728 5.15487 0
M  V30 3516 N 317.792 -0.46758 -1.50504 0
M  V30 3517 C 319.039 0.0886219 -2.02306 0
M  V30 3518 C 319.367 1.40037 -1.34981 0
M  V30 3519 O 318.622 1.90136 -0.463318 0
M  V30 3520 C 318.921 0.323995 -3.55928 0
M  V30 3521 C 318.587 -0.905618 -4.41712 0
M  V30 3522 C 317.249 -1.24275 -4.64875 0
M  V30 3523 C 319.601 -1.72448 -4.91845 0
M  V30 3524 C 316.929 -2.39888 -5.35417 0
M  V30 3525 C 319.281 -2.87185 -5.63656 0
M  V30 3526 C 317.945 -3.21317 -5.85074 0
M  V30 3527 H 317.215 0.0324291 -0.74029 0
M  V30 3528 H 319.862 -0.620945 -1.81153 0
M  V30 3529 H 318.167 1.11577 -3.75577 0
M  V30 3530 H 319.864 0.76826 -3.93572 0
M  V30 3531 H 316.454 -0.632956 -4.239 0
M  V30 3532 H 320.638 -1.4772 -4.73806 0
M  V30 3533 H 315.894 -2.66611 -5.50208 0
M  V30 3534 H 320.068 -3.50985 -6.01484 0
M  V30 3535 H 317.695 -4.1101 -6.39511 0
M  V30 3536 N 319.27 1.56325 -0.20005 0
M  V30 3537 C 320.519 1.96895 0.437652 0
M  V30 3538 C 320.832 1.08999 1.62415 0
M  V30 3539 O 322.038 1.39372 2.32997 0
M  V30 3540 C 320.494 3.50198 0.830025 0
M  V30 3541 C 320.102 4.46765 -0.332461 0
M  V30 3542 C 321.846 3.99526 1.43453 0
M  V30 3543 C 319.753 5.91344 0.0811468 0
M  V30 3544 H 318.683 0.735209 0.167282 0
M  V30 3545 H 321.334 1.81148 -0.292853 0
M  V30 3546 H 319.716 3.61467 1.61734 0
M  V30 3547 H 320.89 4.47231 -1.11 0
M  V30 3548 H 319.205 4.07657 -0.848789 0
M  V30 3549 H 321.802 5.05025 1.75652 0
M  V30 3550 H 322.145 3.44122 2.34277 0
M  V30 3551 H 322.678 3.91393 0.71109 0
M  V30 3552 H 319.417 6.50685 -0.793033 0
M  V30 3553 H 318.937 5.94121 0.823445 0
M  V30 3554 H 320.616 6.44945 0.515252 0
M  V30 3555 N 320.748 -0.0735177 1.57428 0
M  V30 3556 C 321.996 -0.771472 1.86796 0
M  V30 3557 C 322.317 -1.78201 0.791804 0
M  V30 3558 O 321.587 -1.95074 -0.179718 0
M  V30 3559 H 320.167 -0.28791 0.689287 0
M  V30 3560 H 322.829 -0.0500161 1.94836 0
M  V30 3561 H 321.925 -1.28874 2.8425 0
M  V30 3562 N 322.226 -1.5378 -0.344866 0
M  V30 3563 C 323.156 -1.84662 -1.42906 0
M  V30 3564 C 324.137 -0.701648 -1.54955 0
M  V30 3565 O 325.322 -0.953438 -1.69184 0
M  V30 3566 C 322.452 -2.05503 -2.79974 0
M  V30 3567 C 321.406 -3.21318 -2.82734 0
M  V30 3568 C 320.732 -3.2749 -4.22675 0
M  V30 3569 C 322.032 -4.59456 -2.48389 0
M  V30 3570 H 323.726 -2.75461 -1.17311 0
M  V30 3571 H 321.272 -1.32542 -0.562896 0
M  V30 3572 H 323.225 -2.25691 -3.55867 0
M  V30 3573 H 321.949 -1.11434 -3.07002 0
M  V30 3574 H 320.608 -3.00984 -2.09294 0
M  V30 3575 H 320.256 -2.31019 -4.4681 0
M  V30 3576 H 319.956 -4.05316 -4.25433 0
M  V30 3577 H 321.48 -3.49887 -5.00412 0
M  V30 3578 H 322.894 -4.79667 -3.13995 0
M  V30 3579 H 321.291 -5.39675 -2.62432 0
M  V30 3580 H 322.361 -4.63155 -1.4358 0
M  V30 3581 N 323.704 0.605807 -1.45491 0
M  V30 3582 C 324.667 1.69836 -1.5391 0
M  V30 3583 C 325.667 1.55261 -0.418424 0
M  V30 3584 O 326.857 1.60296 -0.681965 0
M  V30 3585 C 323.989 3.09117 -1.43734 0
M  V30 3586 H 325.182 1.63738 -2.51257 0
M  V30 3587 H 322.735 0.821689 -1.32959 0
M  V30 3588 H 323.47 3.20791 -0.475788 0
M  V30 3589 H 323.255 3.21104 -2.25021 0
M  V30 3590 H 324.745 3.88696 -1.52661 0
M  V30 3591 N 325.182 1.32811 0.848464 0
M  V30 3592 C 326.431 1.23075 1.59798 0
M  V30 3593 C 326.744 -0.204419 1.94529 0
M  V30 3594 O 327.95 -0.423701 2.68173 0
M  V30 3595 C 326.406 2.15594 2.88179 0
M  V30 3596 C 326.014 3.64228 2.60849 0
M  V30 3597 C 327.758 2.14709 3.66197 0
M  V30 3598 C 325.665 4.48689 3.85269 0
M  V30 3599 H 324.595 0.457091 0.599653 0
M  V30 3600 H 327.246 1.57813 0.936342 0
M  V30 3601 H 325.628 1.73778 3.55833 0
M  V30 3602 H 326.802 4.14424 2.01467 0
M  V30 3603 H 325.117 3.67306 1.96151 0
M  V30 3604 H 327.714 2.75046 4.58534 0
M  V30 3605 H 328.057 1.13966 4.00397 0
M  V30 3606 H 328.59 2.54837 3.05455 0
M  V30 3607 H 325.329 5.5027 3.56207 0
M  V30 3608 H 324.849 4.03241 4.44024 0
M  V30 3609 H 326.528 4.62006 4.52946 0
M  V30 3610 N 326.66 -1.06551 1.16123 0
M  V30 3611 C 327.61 -2.12209 0.833736 0
M  V30 3612 C 328.594 -1.59825 -0.185656 0
M  V30 3613 O 329.786 -1.76994 0.0147906 0
M  V30 3614 C 326.915 -3.41674 0.333697 0
M  V30 3615 C 326.001 -4.00892 1.38372 0
M  V30 3616 N 326.392 -4.34256 2.59337 0
M  V30 3617 C 324.69 -4.28463 1.23836 0
M  V30 3618 C 325.391 -4.81291 3.26701 0
M  V30 3619 N 324.367 -4.80565 2.54083 0
M  V30 3620 H 328.169 -2.35849 1.75364 0
M  V30 3621 H 325.683 -1.24068 1.04789 0
M  V30 3622 H 327.68 -4.16822 0.0806918 0
M  V30 3623 H 326.34 -3.19475 -0.58017 0
M  V30 3624 H 327.351 -4.24687 2.96415 0
M  V30 3625 H 324.028 -4.15721 0.38504 0
M  V30 3626 H 325.418 -5.16332 4.29943 0
M  V30 3627 N 328.138 -0.959301 -1.25041 0
M  V30 3628 C 329.386 -0.615393 -1.92503 0
M  V30 3629 C 329.707 0.850969 -1.75452 0
M  V30 3630 O 328.977 1.60658 -1.12098 0
M  V30 3631 H 327.557 -0.224613 -0.712431 0
M  V30 3632 H 330.219 -1.21855 -1.5211 0
M  V30 3633 H 329.315 -0.848738 -3.00338 0
M  V30 3634 N 329.616 1.39756 -0.72842 0
M  V30 3635 C 330.579 2.29012 -0.0927297 0
M  V30 3636 C 331.579 1.45992 0.674025 0
M  V30 3637 O 332.769 1.66749 0.50402 0
M  V30 3638 C 329.901 3.29396 0.878137 0
M  V30 3639 H 331.094 2.86729 -0.879011 0
M  V30 3640 H 328.647 1.48293 -0.493847 0
M  V30 3641 H 329.382 2.76722 1.69101 0
M  V30 3642 H 329.167 3.907 0.331051 0
M  V30 3643 H 330.657 3.96199 1.3197 0
M  V30 3644 N 331.094 0.475555 1.50254 0
M  V30 3645 C 332.004 -0.321501 2.32387 0
M  V30 3646 C 333.02 -0.991755 1.42969 0
M  V30 3647 O 334.196 -0.978747 1.76018 0
M  V30 3648 C 331.261 -1.38667 3.17762 0
M  V30 3649 C 330.322 -0.732538 4.23004 0
M  V30 3650 C 329.555 -1.74695 5.04299 0
M  V30 3651 O 329.778 -2.97399 4.86734 0
M  V30 3652 O 328.712 -1.31631 5.8733 0
M  V30 3653 H 332.538 0.350071 3.01676 0
M  V30 3654 H 330.123 0.237321 1.47503 0
M  V30 3655 H 332.005 -2.00354 3.70724 0
M  V30 3656 H 330.68 -2.04163 2.51196 0
M  V30 3657 H 329.587 -0.0765902 3.74022 0
M  V30 3658 H 330.92 -0.120452 4.92053 0
M  V30 3659 N 332.573 -1.56217 0.208337 0
M  V30 3660 C 333.989 -1.58919 -0.14729 0
M  V30 3661 C 334.189 -1.22486 -1.59998 0
M  V30 3662 O 333.245 -0.953849 -2.3379 0
M  V30 3663 C 334.558 -3.00236 0.167048 0
M  V30 3664 C 336.106 -3.12813 0.108219 0
M  V30 3665 C 336.581 -4.56284 0.396049 0
M  V30 3666 N 338.072 -4.61912 0.345142 0
M  V30 3667 C 338.807 -5.70837 0.541523 0
M  V30 3668 N 338.303 -6.88178 0.798968 0
M  V30 3669 N 340.096 -5.60091 0.474867 0
M  V30 3670 H 332.247 -1.78177 1.15614 0
M  V30 3671 H 334.51 -0.827555 0.462446 0
M  V30 3672 H 334.216 -3.31499 1.1748 0
M  V30 3673 H 334.09 -3.7354 -0.524184 0
M  V30 3674 H 336.477 -2.81354 -0.890157 0
M  V30 3675 H 336.558 -2.41866 0.832729 0
M  V30 3676 H 336.202 -4.88458 1.3918 0
M  V30 3677 H 336.132 -5.25439 -0.349502 0
M  V30 3678 H 338.623 -3.77589 0.153316 0
M  V30 3679 H 338.936 -7.67095 0.93727 0
M  V30 3680 H 337.281 -6.89953 0.836013 0
M  V30 3681 H 340.472 -4.67297 0.274064 0
M  V30 3682 H 340.645 -6.44917 0.631326 0
M  V30 3683 N 334.051 0.0651679 -1.57465 0
M  V30 3684 C 335.3 0.761916 -1.86756 0
M  V30 3685 C 335.613 1.78406 -0.801925 0
M  V30 3686 O 336.819 2.53084 -0.982885 0
M  V30 3687 C 335.275 1.40603 -3.31299 0
M  V30 3688 C 334.883 0.422115 -4.46007 0
M  V30 3689 C 336.627 2.08476 -3.69781 0
M  V30 3690 C 334.534 1.07252 -5.81593 0
M  V30 3691 H 333.464 0.288308 -0.696702 0
M  V30 3692 H 336.115 0.015344 -1.83494 0
M  V30 3693 H 334.497 2.20109 -3.29193 0
M  V30 3694 H 335.671 -0.343613 -4.59517 0
M  V30 3695 H 333.986 -0.152527 -4.16121 0
M  V30 3696 H 336.583 2.57925 -4.68379 0
M  V30 3697 H 336.926 2.88712 -2.99919 0
M  V30 3698 H 337.459 1.35792 -3.73905 0
M  V30 3699 H 334.198 0.310342 -6.54765 0
M  V30 3700 H 333.718 1.80895 -5.71872 0
M  V30 3701 H 335.397 1.59043 -6.27148 0
M  V30 3702 N 335.529 1.53961 0.336706 0
M  V30 3703 C 336.775 1.7179 1.07777 0
M  V30 3704 C 337.108 0.483263 1.88091 0
M  V30 3705 O 336.383 -0.519747 1.87427 0
M  V30 3706 C 336.666 2.98558 2.01334 0
M  V30 3707 C 336.519 4.32245 1.24437 0
M  V30 3708 C 337.838 3.21023 3.01052 0
M  V30 3709 H 334.957 0.625089 0.390426 0
M  V30 3710 H 337.599 1.86641 0.35567 0
M  V30 3711 H 335.749 2.86028 2.62908 0
M  V30 3712 H 337.421 4.56637 0.654243 0
M  V30 3713 H 335.664 4.30344 0.546458 0
M  V30 3714 H 336.335 5.17137 1.93063 0
M  V30 3715 H 338.811 3.32929 2.49595 0
M  V30 3716 H 337.687 4.11104 3.6371 0
M  V30 3717 H 337.948 2.37637 3.72802 0
M  V30 3718 N 337.007 -0.598083 1.45811 0
M  V30 3719 C 338.423 -0.919847 1.30426 0
M  V30 3720 C 338.623 -1.99759 0.264303 0
M  V30 3721 O 337.679 -2.50221 -0.338472 0
M  V30 3722 C 338.992 -1.35176 2.68603 0
M  V30 3723 C 340.54 -1.46546 2.76574 0
M  V30 3724 C 341.015 -1.9311 4.15298 0
M  V30 3725 N 342.506 -2.00328 4.1764 0
M  V30 3726 C 343.241 -2.37599 5.21856 0
M  V30 3727 N 342.737 -2.73771 6.36413 0
M  V30 3728 N 344.53 -2.38021 5.09218 0
M  V30 3729 H 336.681 0.114111 2.12093 0
M  V30 3730 H 338.944 -0.0116121 0.947929 0
M  V30 3731 H 338.65 -0.633969 3.45939 0
M  V30 3732 H 338.524 -2.3164 2.97696 0
M  V30 3733 H 340.911 -2.17415 1.99537 0
M  V30 3734 H 340.992 -0.483727 2.51185 0
M  V30 3735 H 340.636 -1.22824 4.92825 0
M  V30 3736 H 340.566 -2.92213 4.38086 0
M  V30 3737 H 343.057 -1.74925 3.34977 0
M  V30 3738 H 343.37 -3.0112 7.11721 0
M  V30 3739 H 341.715 -2.71445 6.39799 0
M  V30 3740 H 344.906 -2.09174 4.18765 0
M  V30 3741 H 345.079 -2.66741 5.90554 0
M  V30 3742 N 338.485 -1.33259 -0.841409 0
M  V30 3743 C 339.733 -1.24326 -1.59334 0
M  V30 3744 C 340.054 0.191564 -1.94057 0
M  V30 3745 O 339.324 1.11967 -1.60749 0
M  V30 3746 H 337.904 -0.457174 -0.590763 0
M  V30 3747 H 340.566 -1.66947 -1.00571 0
M  V30 3748 H 339.662 -1.8352 -2.52442 0
M  V30 3749 N 339.963 1.05934 -1.16686 0
M  V30 3750 C 340.895 2.13468 -0.834503 0
M  V30 3751 C 341.908 1.62013 0.15984 0
M  V30 3752 O 343.097 1.7838 -0.0654228 0
M  V30 3753 C 340.197 3.3817 -0.222361 0
M  V30 3754 C 339.37 4.18928 -1.25771 0
M  V30 3755 C 338.429 5.21985 -0.664703 0
M  V30 3756 O 337.455 5.53334 -1.33453 0
M  V30 3757 N 338.657 5.77919 0.546834 0
M  V30 3758 H 341.422 2.42578 -1.75999 0
M  V30 3759 H 338.983 1.21967 -1.06469 0
M  V30 3760 H 340.975 4.04266 0.187472 0
M  V30 3761 H 339.545 3.06655 0.606758 0
M  V30 3762 H 338.765 3.48433 -1.84358 0
M  V30 3763 H 340.053 4.69687 -1.95631 0
M  V30 3764 H 339.451 5.54721 1.10912 0
M  V30 3765 H 338.008 6.45573 0.898829 0
M  V30 3766 N 341.441 0.965919 1.2453 0
M  V30 3767 C 342.669 0.644385 1.96609 0
M  V30 3768 C 343.084 -0.785823 1.71669 0
M  V30 3769 O 342.441 -1.52703 0.999399 0
M  V30 3770 C 342.492 0.907375 3.49927 0
M  V30 3771 O 342.213 2.28136 3.74013 0
M  V30 3772 C 343.714 0.599784 4.39224 0
M  V30 3773 H 340.934 0.240588 0.626385 0
M  V30 3774 H 343.478 1.29337 1.58405 0
M  V30 3775 H 341.633 0.304631 3.862 0
M  V30 3776 H 342.047 2.36002 4.68405 0
M  V30 3777 H 343.521 0.834263 5.45659 0
M  V30 3778 H 343.998 -0.465921 4.36722 0
M  V30 3779 H 344.604 1.18235 4.08535 0
M  V30 3780 N 342.919 -1.39368 0.735821 0
M  V30 3781 C 343.882 -2.2896 0.104874 0
M  V30 3782 C 344.882 -1.46347 -0.666274 0
M  V30 3783 O 346.072 -1.67014 -0.49517 0
M  V30 3784 C 343.204 -3.29857 -0.860656 0
M  V30 3785 H 344.397 -2.86259 0.894205 0
M  V30 3786 H 341.95 -1.48029 0.501704 0
M  V30 3787 H 342.685 -2.77615 -1.67631 0
M  V30 3788 H 342.47 -3.9087 -0.310327 0
M  V30 3789 H 343.96 -3.96893 -1.29867 0
M  V30 3790 N 344.397 -0.483516 -1.5 0
M  V30 3791 C 345.307 0.309172 -2.32554 0
M  V30 3792 C 346.323 0.984159 -1.43493 0
M  V30 3793 O 347.499 0.969399 -1.76535 0
M  V30 3794 C 344.564 1.36979 -3.18493 0
M  V30 3795 C 343.625 0.710095 -4.23387 0
M  V30 3796 C 342.858 1.72018 -5.05218 0
M  V30 3797 O 343.081 2.94813 -4.88305 0
M  V30 3798 O 342.015 1.28515 -5.8802 0
M  V30 3799 H 345.841 -0.366064 -3.01486 0
M  V30 3800 H 343.426 -0.24514 -1.47375 0
M  V30 3801 H 345.308 1.98385 -3.71781 0
M  V30 3802 H 343.983 2.02828 -2.52275 0
M  V30 3803 H 342.89 0.0567539 -3.74057 0
M  V30 3804 H 344.223 0.0943557 -4.9211 0
M  V30 3805 N 345.875 1.56104 -0.216619 0
M  V30 3806 C 347.1 2.0301 0.424462 0
M  V30 3807 C 347.525 1.0955 1.52907 0
M  V30 3808 O 346.883 0.0827914 1.81111 0
M  V30 3809 C 346.931 3.4819 0.937883 0
M  V30 3810 O 346.035 3.57865 2.04955 0
M  V30 3811 H 345.376 0.656925 0.0966755 0
M  V30 3812 H 347.906 2.01859 -0.33381 0
M  V30 3813 H 347.916 3.88413 1.24897 0
M  V30 3814 H 346.591 4.15699 0.129387 0
M  V30 3815 H 345.168 3.29527 1.74546 0
M  V30 3816 N 347.353 -0.0568162 1.57498 0
M  V30 3817 C 348.283 -1.06593 2.0775 0
M  V30 3818 C 349.264 -1.39448 0.974082 0
M  V30 3819 O 350.449 -1.48815 1.24771 0
M  V30 3820 C 347.579 -2.37509 2.5339 0
M  V30 3821 C 346.533 -2.1897 3.67745 0
M  V30 3822 C 345.859 -3.55402 3.99492 0
M  V30 3823 C 347.159 -1.59859 4.97235 0
M  V30 3824 H 348.853 -0.647706 2.9231 0
M  V30 3825 H 346.399 -0.310116 1.40621 0
M  V30 3826 H 348.352 -3.08409 2.87162 0
M  V30 3827 H 347.076 -2.8134 1.65878 0
M  V30 3828 H 345.735 -1.50508 3.3428 0
M  V30 3829 H 345.383 -3.9683 3.09088 0
M  V30 3830 H 345.083 -3.43831 4.76502 0
M  V30 3831 H 346.607 -4.27708 4.35773 0
M  V30 3832 H 348.021 -2.20642 5.29141 0
M  V30 3833 H 346.418 -1.58942 5.78669 0
M  V30 3834 H 347.488 -0.561506 4.81638 0
M  V30 3835 N 348.832 -1.54138 -0.328536 0
M  V30 3836 C 349.795 -1.82462 -1.38709 0
M  V30 3837 C 350.795 -0.696229 -1.44946 0
M  V30 3838 O 351.985 -0.964535 -1.4506 0
M  V30 3839 C 349.117 -1.98018 -2.77492 0
M  V30 3840 H 350.31 -2.77037 -1.14851 0
M  V30 3841 H 347.863 -1.45779 -0.563751 0
M  V30 3842 H 348.598 -1.05637 -3.06613 0
M  V30 3843 H 348.383 -2.80124 -2.74359 0
M  V30 3844 H 349.873 -2.21396 -3.54081 0
M  V30 3845 N 350.31 0.590341 -1.46126 0
M  V30 3846 C 351.556 1.35082 -1.51264 0
M  V30 3847 C 351.889 1.93534 -0.160711 0
M  V30 3848 O 351.164 1.76045 0.826956 0
M  V30 3849 C 351.447 2.48588 -2.6053 0
M  V30 3850 C 351.3 1.95221 -4.05227 0
M  V30 3851 C 352.619 3.50662 -2.6594 0
M  V30 3852 H 349.738 0.489803 -0.550692 0
M  V30 3853 H 352.38 0.663887 -1.78024 0
M  V30 3854 H 350.53 3.07186 -2.37843 0
M  V30 3855 H 352.202 1.41139 -4.39178 0
M  V30 3856 H 350.445 1.26101 -4.15068 0
M  V30 3857 H 351.116 2.77121 -4.77397 0
M  V30 3858 H 353.592 3.01934 -2.86313 0
M  V30 3859 H 352.468 4.27551 -3.44226 0
M  V30 3860 H 352.729 4.07399 -1.71694 0
M  V30 3861 N 351.788 1.33704 0.83433 0
M  V30 3862 C 352.738 1.20899 1.93306 0
M  V30 3863 C 353.722 0.110783 1.60518 0
M  V30 3864 O 354.914 0.339331 1.73717 0
M  V30 3865 C 352.043 0.955018 3.29749 0
M  V30 3866 C 351.129 2.09587 3.68692 0
M  V30 3867 N 351.52 3.34621 3.79292 0
M  V30 3868 C 349.818 2.00358 3.98463 0
M  V30 3869 C 350.519 4.09472 4.13167 0
M  V30 3870 N 349.495 3.37954 4.25779 0
M  V30 3871 H 353.297 2.15665 1.99664 0
M  V30 3872 H 350.811 1.25777 1.02732 0
M  V30 3873 H 352.808 0.844208 4.08263 0
M  V30 3874 H 351.468 0.0159317 3.24696 0
M  V30 3875 H 352.479 3.69313 3.63082 0
M  V30 3876 H 349.156 1.14137 4.01596 0
M  V30 3877 H 350.546 5.17391 4.28668 0
M  V30 3878 N 353.266 -1.05314 1.17247 0
M  V30 3879 C 354.214 -2.15137 0.884238 0
M  V30 3880 C 355.208 -1.68729 -0.15063 0
M  V30 3881 O 356.414 -1.8 -0.00366673 0
M  V30 3882 H 352.789 -0.702471 0.2684 0
M  V30 3883 H 354.76 -2.36652 1.81764 0
M  V30 3884 C 353.509 -3.45243 0.412659 0
M  V30 3885 H 352.832 -3.81352 1.20043 0
M  V30 3886 H 354.272 -4.23263 0.249858 0
M  V30 3887 C 352.731 -3.25487 -0.86948 0
M  V30 3888 O 353.261 -3.51938 -1.93655 0
M  V30 3889 N 351.467 -2.78875 -0.817147 0
M  V30 3890 H 351.014 -2.57549 0.0514211 0
M  V30 3891 H 350.972 -2.66036 -1.67547 0
M  V30 3892 N 354.744 -0.972509 -1.24016 0
M  V30 3893 C 355.993 -0.632603 -1.91523 0
M  V30 3894 C 356.306 0.836641 -1.76804 0
M  V30 3895 O 357.512 1.28728 -2.39043 0
M  V30 3896 C 355.968 -1.08082 -3.43287 0
M  V30 3897 C 355.576 -2.57386 -3.66683 0
M  V30 3898 C 357.32 -0.814288 -4.16617 0
M  V30 3899 C 355.227 -2.95915 -5.12043 0
M  V30 3900 H 354.157 -0.232898 -0.717129 0
M  V30 3901 H 356.808 -1.17936 -1.40582 0
M  V30 3902 H 355.19 -0.462339 -3.93292 0
M  V30 3903 H 356.364 -3.24405 -3.27258 0
M  V30 3904 H 354.679 -2.81701 -3.06649 0
M  V30 3905 H 357.276 -1.0781 -5.23718 0
M  V30 3906 H 357.619 0.24955 -4.15551 0
M  V30 3907 H 358.152 -1.39397 -3.72577 0
M  V30 3908 H 354.891 -4.0139 -5.18234 0
M  V30 3909 H 354.411 -2.33584 -5.52448 0
M  V30 3910 H 356.09 -2.86086 -5.80314 0
M  V30 3911 N 356.222 1.38976 -0.743202 0
M  V30 3912 C 357.45 2.04636 -0.30525 0
M  V30 3913 C 357.865 1.56044 1.06281 0
M  V30 3914 O 357.222 0.728921 1.67311 0
M  V30 3915 C 357.273 3.60193 -0.307177 0
M  V30 3916 O 356.994 4.06998 -1.62124 0
M  V30 3917 C 358.495 4.4306 0.145928 0
M  V30 3918 H 355.715 0.65788 -0.132041 0
M  V30 3919 H 358.259 1.77866 -1.00915 0
M  V30 3920 H 356.414 3.85835 0.347898 0
M  V30 3921 H 356.828 5.01371 -1.54036 0
M  V30 3922 H 358.302 5.51921 0.0934183 0
M  V30 3923 H 358.779 4.22706 1.19231 0
M  V30 3924 H 359.385 4.22584 -0.479886 0
M  V30 3925 N 357.7 0.491464 1.49741 0
M  V30 3926 C 358.946 -0.0565092 2.02721 0
M  V30 3927 C 359.279 -1.37522 1.37118 0
M  V30 3928 O 358.554 -1.87866 0.503645 0
M  V30 3929 C 358.837 -0.219051 3.59433 0
M  V30 3930 C 358.69 1.12211 4.35579 0
M  V30 3931 C 360.009 -0.964157 4.29409 0
M  V30 3932 H 357.128 -0.0190627 0.736753 0
M  V30 3933 H 359.77 0.641021 1.7886 0
M  V30 3934 H 357.92 -0.813165 3.79895 0
M  V30 3935 H 359.592 1.75437 4.26637 0
M  V30 3936 H 357.835 1.71377 3.98513 0
M  V30 3937 H 358.506 0.961794 5.43556 0
M  V30 3938 H 360.982 -0.460378 4.13545 0
M  V30 3939 H 359.858 -1.04671 5.38828 0
M  V30 3940 H 360.119 -2.00563 3.93988 0
M  V30 3941 N 359.178 -1.55987 0.224894 0
M  V30 3942 C 360.418 -2.00293 -0.407706 0
M  V30 3943 C 360.782 -1.1093 -1.56711 0
M  V30 3944 O 361.983 -1.44597 -2.26595 0
M  V30 3945 C 360.254 -3.47675 -0.82805 0
M  V30 3946 S 361.813 -4.14 -1.45429 0
M  V30 3947 H 358.631 -0.699152 -0.129256 0
M  V30 3948 H 361.233 -1.92609 0.334967 0
M  V30 3949 H 359.937 -4.10392 0.0253964 0
M  V30 3950 H 359.468 -3.59239 -1.60345 0
M  V30 3951 H 361.483 -4.13465 -2.74337 0
M  V30 3952 N 360.656 0.0484629 -1.57525 0
M  V30 3953 C 361.566 1.07241 -2.08654 0
M  V30 3954 C 362.582 1.409 -1.02095 0
M  V30 3955 O 363.758 1.50609 -1.33712 0
M  V30 3956 C 360.823 2.36008 -2.5397 0
M  V30 3957 C 359.884 2.09108 -3.7493 0
M  V30 3958 C 359.117 3.31736 -4.18075 0
M  V30 3959 O 359.34 4.41714 -3.60895 0
M  V30 3960 O 358.274 3.18576 -5.10679 0
M  V30 3961 H 362.1 0.667965 -2.96263 0
M  V30 3962 H 359.685 0.26417 -1.47046 0
M  V30 3963 H 361.567 3.11747 -2.83535 0
M  V30 3964 H 360.242 2.75786 -1.69481 0
M  V30 3965 H 359.149 1.31 -3.50414 0
M  V30 3966 H 360.482 1.74198 -4.60343 0
M  V30 3967 N 362.134 1.5431 0.320358 0
M  V30 3968 C 363.066 1.80262 1.41556 0
M  V30 3969 C 364.079 0.684723 1.477 0
M  V30 3970 O 365.268 0.961886 1.50366 0
M  V30 3971 C 362.368 1.90825 2.8007 0
M  V30 3972 C 361.541 3.21023 2.97091 0
M  V30 3973 C 360.6 3.22247 4.15985 0
M  V30 3974 O 359.626 3.95871 4.08992 0
M  V30 3975 N 360.828 2.46258 5.25678 0
M  V30 3976 H 363.593 2.74778 1.19655 0
M  V30 3977 H 361.154 1.53646 0.510358 0
M  V30 3978 H 363.146 1.89067 3.57821 0
M  V30 3979 H 361.716 1.03392 2.95006 0
M  V30 3980 H 360.936 3.35715 2.06614 0
M  V30 3981 H 362.224 4.0698 3.05361 0
M  V30 3982 H 361.622 1.86037 5.34235 0
M  V30 3983 H 360.179 2.50275 6.01835 0
M  V30 3984 N 363.613 -0.582584 1.46437 0
M  V30 3985 C 364.56 -1.69164 1.5701 0
M  V30 3986 C 365.53 -1.60847 0.414403 0
M  V30 3987 O 366.715 -1.80058 0.631171 0
M  V30 3988 C 363.855 -3.075 1.56646 0
M  V30 3989 C 362.968 -3.2644 2.82951 0
M  V30 3990 C 362.103 -4.55026 2.7409 0
M  V30 3991 C 361.142 -4.6731 3.95333 0
M  V30 3992 N 360.279 -5.87221 3.84858 0
M  V30 3993 H 365.119 -1.59464 2.51744 0
M  V30 3994 H 362.656 -0.777186 1.24893 0
M  V30 3995 H 364.614 -3.8757 1.5442 0
M  V30 3996 H 363.244 -3.16096 0.654439 0
M  V30 3997 H 362.296 -2.39974 2.95155 0
M  V30 3998 H 363.608 -3.31385 3.72808 0
M  V30 3999 H 362.762 -5.43324 2.6997 0
M  V30 4000 H 361.501 -4.52519 1.81873 0
M  V30 4001 H 360.506 -3.77429 3.99784 0
M  V30 4002 H 361.731 -4.71595 4.88646 0
M  V30 4003 H 359.677 -5.85712 2.95427 0
M  V30 4004 H 359.594 -5.93435 4.6837 0
M  V30 4005 H 360.862 -6.7795 3.84713 0
M  V30 4006 N 365.091 -1.34144 -0.827227 0
M  V30 4007 C 366.34 -1.25602 -1.5782 0
M  V30 4008 C 366.653 0.173445 -1.94829 0
M  V30 4009 O 367.859 0.380984 -2.68814 0
M  V30 4010 C 366.315 -2.20151 -2.84713 0
M  V30 4011 C 365.923 -3.68331 -2.55021 0
M  V30 4012 C 367.667 -2.20508 -3.62735 0
M  V30 4013 C 365.574 -4.54762 -3.78082 0
M  V30 4014 H 364.504 -0.466573 -0.592306 0
M  V30 4015 H 367.155 -1.59283 -0.911116 0
M  V30 4016 H 365.537 -1.79417 -3.53023 0
M  V30 4017 H 366.711 -4.17577 -1.94849 0
M  V30 4018 H 365.026 -3.7038 -1.90283 0
M  V30 4019 H 367.623 -2.82306 -4.54101 0
M  V30 4020 H 367.966 -1.20322 -3.98533 0
M  V30 4021 H 368.499 -2.59664 -3.01362 0
M  V30 4022 H 365.238 -5.55867 -3.47407 0
M  V30 4023 H 364.758 -4.10254 -4.37552 0
M  V30 4024 H 366.437 -4.69153 -4.45538 0
M  V30 4025 N 366.569 1.04691 -1.17803 0
M  V30 4026 C 367.794 1.81984 -0.994813 0
M  V30 4027 C 368.219 1.82586 0.452112 0
M  V30 4028 O 367.577 1.23854 1.324 0
M  V30 4029 C 367.625 3.2575 -1.54659 0
M  V30 4030 O 366.729 4.05267 -0.763728 0
M  V30 4031 H 366.07 0.562483 -0.352857 0
M  V30 4032 H 368.6 1.3189 -1.56417 0
M  V30 4033 H 368.61 3.76541 -1.57102 0
M  V30 4034 H 367.285 3.24627 -2.59981 0
M  V30 4035 H 365.862 3.63972 -0.811108 0
M  V30 4036 N 368.047 0.979072 1.23499 0
M  V30 4037 C 368.957 0.526431 2.28617 0
M  V30 4038 C 369.973 -0.418126 1.68901 0
M  V30 4039 O 371.149 -0.288372 1.99325 0
M  V30 4040 C 368.214 -0.165235 3.46306 0
M  V30 4041 C 367.275 0.82056 4.21385 0
M  V30 4042 C 366.508 0.161807 5.33455 0
M  V30 4043 O 366.731 -1.04742 5.60701 0
M  V30 4044 O 365.665 0.859708 5.95729 0
M  V30 4045 H 369.491 1.4006 2.69475 0
M  V30 4046 H 367.076 0.746643 1.29405 0
M  V30 4047 H 368.958 -0.553287 4.17752 0
M  V30 4048 H 367.633 -1.01419 3.07402 0
M  V30 4049 H 366.54 1.25929 3.52268 0
M  V30 4050 H 367.873 1.63828 4.64135 0
M  V30 4051 N 369.525 -1.3858 0.750561 0
M  V30 4052 C 370.771 -2.0095 0.31477 0
M  V30 4053 C 371.126 -1.58509 -1.09053 0
M  V30 4054 O 370.419 -0.8112 -1.7358 0
M  V30 4055 C 370.613 -3.55455 0.372373 0
M  V30 4056 C 370.442 -4.12898 1.78173 0
M  V30 4057 C 369.212 -4.44797 2.39757 0
M  V30 4058 C 371.41 -4.35366 2.7379 0
M  V30 4059 N 369.392 -4.87831 3.72685 0
M  V30 4060 C 370.763 -4.80775 3.91478 0
M  V30 4061 C 372.818 -4.1746 2.71351 0
M  V30 4062 C 371.521 -5.10155 5.07084 0
M  V30 4063 C 373.547 -4.47963 3.86113 0
M  V30 4064 C 372.909 -4.93593 5.02539 0
M  V30 4065 H 369.008 -0.765083 0.161776 0
M  V30 4066 H 371.592 -1.68246 0.979867 0
M  V30 4067 H 369.763 -3.87512 -0.26244 0
M  V30 4068 H 371.495 -4.04614 -0.0834479 0
M  V30 4069 H 368.25 -4.33135 1.91548 0
M  V30 4070 H 368.674 -5.13685 4.40972 0
M  V30 4071 H 373.316 -3.81372 1.82524 0
M  V30 4072 H 371.034 -5.45141 5.96529 0
M  V30 4073 H 374.62 -4.35717 3.85542 0
M  V30 4074 H 373.5 -5.16746 5.89867 0
M  V30 4075 N 371.003 -0.499398 -1.49478 0
M  V30 4076 C 372.251 0.0455996 -2.02049 0
M  V30 4077 C 372.572 1.37633 -1.38138 0
M  V30 4078 O 371.842 1.8842 -0.536166 0
M  V30 4079 H 370.422 0.0198416 -0.746736 0
M  V30 4080 H 373.084 -0.656274 -1.83519 0
M  V30 4081 H 372.18 0.176445 -3.11601 0
M  V30 4082 N 372.481 1.55866 -0.233164 0
M  V30 4083 C 373.428 2.20796 0.67215 0
M  V30 4084 C 374.398 1.16731 1.18166 0
M  V30 4085 O 375.583 1.45129 1.23864 0
M  V30 4086 C 372.723 2.90072 1.86955 0
M  V30 4087 C 371.836 4.08759 1.39786 0
M  V30 4088 C 370.971 4.65787 2.55374 0
M  V30 4089 C 370.01 5.76752 2.04998 0
M  V30 4090 N 369.147 6.28021 3.13901 0
M  V30 4091 H 373.987 2.9779 0.111749 0
M  V30 4092 H 371.524 1.47036 0.0434007 0
M  V30 4093 H 373.482 3.28428 2.57276 0
M  V30 4094 H 372.112 2.15575 2.40265 0
M  V30 4095 H 371.164 3.7581 0.589173 0
M  V30 4096 H 372.476 4.88906 0.98856 0
M  V30 4097 H 371.63 5.06646 3.33758 0
M  V30 4098 H 370.369 3.84828 2.99598 0
M  V30 4099 H 369.374 5.35383 1.25079 0
M  V30 4100 H 370.599 6.59553 1.61759 0
M  V30 4101 H 368.545 5.49971 3.57586 0
M  V30 4102 H 368.462 7.03323 2.7726 0
M  V30 4103 H 369.73 6.73538 3.92386 0
M  V30 4104 N 373.959 -0.0401083 1.57549 0
M  V30 4105 C 375.208 -0.732108 1.87944 0
M  V30 4106 C 375.521 -1.77107 0.830206 0
M  V30 4107 O 376.727 -2.51488 1.02302 0
M  V30 4108 C 375.183 -1.35315 3.33494 0
M  V30 4109 C 374.791 -0.351105 4.46622 0
M  V30 4110 C 376.535 -2.02566 3.73051 0
M  V30 4111 C 374.442 -0.979859 5.83226 0
M  V30 4112 H 373.372 -0.277188 0.701201 0
M  V30 4113 H 376.023 0.0138501 1.83495 0
M  V30 4114 H 374.405 -2.14844 3.32653 0
M  V30 4115 H 375.579 0.416674 4.58912 0
M  V30 4116 H 373.894 0.218708 4.15825 0
M  V30 4117 H 376.491 -2.50441 4.72423 0
M  V30 4118 H 376.834 -2.83904 3.04474 0
M  V30 4119 H 377.367 -1.29827 3.76018 0
M  V30 4120 H 374.106 -0.206135 6.55176 0
M  V30 4121 H 373.626 -1.71774 5.74677 0
M  V30 4122 H 375.305 -1.49046 6.29599 0
M  V30 4123 N 375.437 -1.54477 -0.31217 0
M  V30 4124 C 376.384 -1.84655 -1.38461 0
M  V30 4125 C 377.354 -0.694536 -1.50882 0
M  V30 4126 O 378.539 -0.942081 -1.6592 0
M  V30 4127 C 375.679 -2.0896 -2.74645 0
M  V30 4128 C 374.792 -3.36618 -2.70763 0
M  V30 4129 C 373.927 -3.50824 -3.98868 0
M  V30 4130 C 372.966 -4.72315 -3.89339 0
M  V30 4131 N 372.103 -4.83387 -5.09197 0
M  V30 4132 H 376.943 -2.76142 -1.12026 0
M  V30 4133 H 374.48 -1.36748 -0.542065 0
M  V30 4134 H 376.438 -2.21045 -3.53829 0
M  V30 4135 H 375.068 -1.20752 -2.99364 0
M  V30 4136 H 374.12 -3.33211 -1.83506 0
M  V30 4137 H 375.432 -4.25917 -2.59608 0
M  V30 4138 H 374.586 -3.62513 -4.86486 0
M  V30 4139 H 373.325 -2.59638 -4.12843 0
M  V30 4140 H 372.33 -4.6067 -3.00105 0
M  V30 4141 H 373.555 -5.64897 -3.76919 0
M  V30 4142 H 371.501 -3.9512 -5.23657 0
M  V30 4143 H 371.418 -5.66669 -5.00422 0
M  V30 4144 H 372.686 -4.9942 -5.98498 0
M  V30 4145 N 376.915 0.57481 -1.46744 0
M  V30 4146 C 377.825 1.711 -1.60505 0
M  V30 4147 C 378.841 1.67008 -0.488307 0
M  V30 4148 O 380.017 1.86774 -0.753495 0
M  V30 4149 C 377.082 3.07608 -1.59932 0
M  V30 4150 C 376.143 3.22904 -2.82898 0
M  V30 4151 C 375.376 4.529 -2.82343 0
M  V30 4152 O 375.599 5.37278 -1.91542 0
M  V30 4153 O 374.533 4.71611 -3.73987 0
M  V30 4154 H 378.359 1.62436 -2.56609 0
M  V30 4155 H 375.944 0.742779 -1.29627 0
M  V30 4156 H 377.826 3.88877 -1.62336 0
M  V30 4157 H 376.501 3.16692 -0.669898 0
M  V30 4158 H 375.408 2.41099 -2.86046 0
M  V30 4159 H 376.741 3.18715 -3.75076 0
M  V30 4160 N 378.394 1.34581 0.820102 0
M  V30 4161 C 379.634 1.28448 1.58998 0
M  V30 4162 C 379.998 -0.142883 1.91468 0
M  V30 4163 O 381.199 -0.328422 2.66786 0
M  V30 4164 C 379.47 2.153 2.85273 0
M  V30 4165 S 381.029 2.26548 3.75794 0
M  V30 4166 H 377.847 0.456685 0.54494 0
M  V30 4167 H 380.449 1.69825 0.968487 0
M  V30 4168 H 379.153 3.18008 2.59421 0
M  V30 4169 H 378.684 1.7483 3.52417 0
M  V30 4170 H 380.699 1.44034 4.74835 0
M  V30 4171 N 379.872 -1.04064 1.18357 0
M  V30 4172 C 381.283 -1.58719 0.98312 0
M  V30 4173 C 381.634 -1.90556 -0.467193 0
M  V30 4174 O 380.759 -1.69561 -1.34454 0
M  V30 4175 C 381.354 -2.88379 1.77828 0
M  V30 4176 C 379.913 -3.3965 1.62218 0
M  V30 4177 C 379.06 -2.13235 1.77274 0
M  V30 4178 H 382.011 -0.867359 1.32901 0
M  V30 4179 H 382.032 -3.58773 1.26737 0
M  V30 4180 H 381.544 -2.65176 2.83379 0
M  V30 4181 H 379.645 -3.67866 0.592036 0
M  V30 4182 H 379.758 -4.13475 2.42023 0
M  V30 4183 H 378.122 -2.24542 1.20221 0
M  V30 4184 H 378.905 -1.92487 2.8426 0
M  V30 4185 N 381.35 -0.985608 -1.22978 0
M  V30 4186 C 382.599 -0.652881 -1.90841 0
M  V30 4187 C 382.912 0.817842 -1.77681 0
M  V30 4188 O 384.118 1.26185 -2.40395 0
M  V30 4189 C 382.574 -1.11717 -3.42122 0
M  V30 4190 C 382.182 -2.6126 -3.63933 0
M  V30 4191 C 383.926 -0.85843 -4.1573 0
M  V30 4192 C 381.833 -3.0133 -5.08876 0
M  V30 4193 H 380.763 -0.240491 -0.714619 0
M  V30 4194 H 383.414 -1.1942 -1.39324 0
M  V30 4195 H 381.796 -0.504027 -3.92779 0
M  V30 4196 H 382.97 -3.27858 -3.23799 0
M  V30 4197 H 381.285 -2.84937 -3.03644 0
M  V30 4198 H 383.882 -1.13359 -5.22546 0
M  V30 4199 H 384.225 0.205461 -4.15793 0
M  V30 4200 H 384.758 -1.43341 -3.71077 0
M  V30 4201 H 381.497 -4.06864 -5.13947 0
M  V30 4202 H 381.017 -2.3943 -5.49939 0
M  V30 4203 H 382.696 -2.92224 -5.77247 0
M  V30 4204 N 382.828 1.3818 -0.7579 0
M  V30 4205 C 384.239 1.82726 -0.383134 0
M  V30 4206 C 384.59 1.63214 1.08884 0
M  V30 4207 O 383.715 1.13566 1.84205 0
M  V30 4208 C 384.31 3.31728 -0.688631 0
M  V30 4209 C 382.869 3.74606 -0.367091 0
M  V30 4210 C 382.016 2.60896 -0.939599 0
M  V30 4211 H 384.967 1.26847 -0.953699 0
M  V30 4212 H 384.988 3.80487 0.0316492 0
M  V30 4213 H 384.5 3.45898 -1.76001 0
M  V30 4214 H 382.601 3.66013 0.697532 0
M  V30 4215 H 382.714 4.71215 -0.865658 0
M  V30 4216 H 381.078 2.52075 -0.3647 0
M  V30 4217 H 381.861 2.77864 -2.0161 0
M  V30 4218 N 384.306 0.507319 1.49211 0
M  V30 4219 C 385.238 -0.304532 2.27168 0
M  V30 4220 C 386.251 -0.924956 1.33972 0
M  V30 4221 O 387.44 -0.807227 1.59205 0
M  V30 4222 C 384.54 -1.44431 3.06583 0
M  V30 4223 C 383.713 -0.930026 4.27398 0
M  V30 4224 C 382.772 -1.94817 4.88807 0
M  V30 4225 O 381.798 -1.51418 5.4869 0
M  V30 4226 N 383 -3.279 4.79022 0
M  V30 4227 H 385.765 0.36395 2.97482 0
M  V30 4228 H 383.326 0.340249 1.58284 0
M  V30 4229 H 385.318 -2.12311 3.44537 0
M  V30 4230 H 383.888 -2.01684 2.38835 0
M  V30 4231 H 383.108 -0.0759244 3.94127 0
M  V30 4232 H 384.396 -0.564932 5.05654 0
M  V30 4233 H 383.794 -3.65843 4.3148 0
M  V30 4234 H 382.351 -3.91476 5.21142 0
M  V30 4235 N 385.784 -1.5574 0.241426 0
M  V30 4236 C 387.031 -1.9881 -0.384836 0
M  V30 4237 C 387.359 -1.12947 -1.58346 0
M  V30 4238 O 386.614 -0.178993 -1.9488 0
M  V30 4239 C 386.913 -3.47308 -0.843317 0
M  V30 4240 C 386.579 -4.50223 0.246946 0
M  V30 4241 C 385.241 -4.78088 0.546399 0
M  V30 4242 C 387.593 -5.11841 0.983282 0
M  V30 4243 C 384.921 -5.64846 1.58636 0
M  V30 4244 C 387.273 -5.99727 2.01272 0
M  V30 4245 C 385.937 -6.25927 2.31888 0
M  V30 4246 H 385.207 -0.727496 -0.140821 0
M  V30 4247 H 387.854 -1.8831 0.348106 0
M  V30 4248 H 386.159 -3.55112 -1.65537 0
M  V30 4249 H 387.856 -3.78017 -1.33806 0
M  V30 4250 H 384.446 -4.286 0.00340639 0
M  V30 4251 H 388.63 -4.90366 0.765182 0
M  V30 4252 H 383.886 -5.83403 1.82896 0
M  V30 4253 H 388.06 -6.46517 2.58823 0
M  V30 4254 H 385.687 -6.92949 3.12611 0
M  V30 4255 N 387.262 0.0317525 -1.57568 0
M  V30 4256 C 388.225 1.01783 -2.0536 0
M  V30 4257 C 389.225 1.29203 -0.957253 0
M  V30 4258 O 390.415 1.24251 -1.22095 0
M  V30 4259 C 387.547 2.35137 -2.46827 0
M  V30 4260 H 388.74 0.605062 -2.93733 0
M  V30 4261 H 386.293 0.278514 -1.53799 0
M  V30 4262 H 387.028 2.81168 -1.61602 0
M  V30 4263 H 386.813 2.16566 -3.26866 0
M  V30 4264 H 388.303 3.05938 -2.84239 0
M  V30 4265 N 388.74 1.54641 0.303973 0
M  V30 4266 C 389.988 1.73437 1.0375 0
M  V30 4267 C 390.309 0.521449 1.87899 0
M  V30 4268 O 389.579 -0.46432 1.90318 0
M  V30 4269 H 388.159 0.639518 0.386039 0
M  V30 4270 H 390.821 1.91988 0.335675 0
M  V30 4271 H 389.917 2.62235 1.69231 0
M  V30 4272 N 390.218 -0.567019 1.47046 0
M  V30 4273 C 391.166 -1.69593 1.59188 0
M  V30 4274 C 392.16 -1.63046 0.459609 0
M  V30 4275 O 393.366 -1.6835 0.637058 0
M  V30 4276 H 389.741 -0.560993 0.500791 0
M  V30 4277 H 391.712 -1.56488 2.54075 0
M  V30 4278 C 390.461 -3.07964 1.61411 0
M  V30 4279 H 389.784 -3.13679 2.47881 0
M  V30 4280 H 391.224 -3.86671 1.73958 0
M  V30 4281 C 389.683 -3.35123 0.34559 0
M  V30 4282 O 390.213 -3.97812 -0.557521 0
M  V30 4283 N 388.419 -2.89699 0.22864 0
M  V30 4284 H 387.966 -2.38863 0.964479 0
M  V30 4285 H 387.924 -3.08242 -0.619192 0
M  V30 4286 N 391.696 -1.35014 -0.812953 0
M  V30 4287 C 393.107 -1.25035 -1.38648 0
M  V30 4288 C 393.458 0.119967 -1.95833 0
M  V30 4289 O 392.583 1.02069 -1.90816 0
M  V30 4290 C 393.178 -2.26394 -2.52054 0
M  V30 4291 C 391.737 -2.20175 -3.05287 0
M  V30 4292 C 390.884 -2.12451 -1.78213 0
M  V30 4293 H 393.835 -1.46235 -0.616516 0
M  V30 4294 H 393.856 -1.88672 -3.30429 0
M  V30 4295 H 393.368 -3.26116 -2.10404 0
M  V30 4296 H 391.469 -1.23841 -3.51417 0
M  V30 4297 H 391.582 -3.11863 -3.63701 0
M  V30 4298 H 389.946 -1.58328 -1.9951 0
M  V30 4299 H 390.729 -3.14024 -1.38723 0
M  V30 4300 N 393.175 1.03435 -1.18907 0
M  V30 4301 C 394.586 1.58195 -0.991523 0
M  V30 4302 C 394.937 1.90801 0.457081 0
M  V30 4303 O 394.062 1.70272 1.33553 0
M  V30 4304 C 394.657 2.87432 -1.79355 0
M  V30 4305 C 393.216 3.38785 -1.64017 0
M  V30 4306 C 392.363 2.12292 -1.78402 0
M  V30 4307 H 395.314 0.860299 -1.33359 0
M  V30 4308 H 395.335 3.58096 -1.28638 0
M  V30 4309 H 394.847 2.63669 -2.84781 0
M  V30 4310 H 392.948 3.67547 -0.611536 0
M  V30 4311 H 393.061 4.12186 -2.44212 0
M  V30 4312 H 391.425 2.23901 -1.2141 0
M  V30 4313 H 392.208 1.90977 -2.85277 0
M  V30 4314 N 394.653 0.992116 1.22453 0
M  V30 4315 C 395.586 0.486701 2.22949 0
M  V30 4316 C 396.564 -0.45259 1.56174 0
M  V30 4317 O 397.748 -0.378317 1.84665 0
M  V30 4318 C 394.875 -0.294537 3.37417 0
M  V30 4319 C 393.921 0.590628 4.22391 0
M  V30 4320 S 394.754 2.04546 4.94895 0
M  V30 4321 C 395.91 1.27369 6.12803 0
M  V30 4322 H 396.143 1.33828 2.65475 0
M  V30 4323 H 393.676 0.799023 1.32117 0
M  V30 4324 H 395.634 -0.739241 4.03789 0
M  V30 4325 H 394.295 -1.12139 2.934 0
M  V30 4326 H 393.488 -0.0104375 5.03999 0
M  V30 4327 H 393.09 0.972064 3.61147 0
M  V30 4328 H 395.382 0.540943 6.75337 0
M  V30 4329 H 396.325 2.06502 6.7732 0
M  V30 4330 H 396.733 0.787324 5.58983 0
M  V30 4331 N 396.131 -1.37776 0.765217 0
M  V30 4332 C 397.359 -2.04124 0.337767 0
M  V30 4333 C 397.774 -1.57715 -1.03785 0
M  V30 4334 O 397.131 -0.755447 -1.6613 0
M  V30 4335 C 397.182 -3.59658 0.364442 0
M  V30 4336 O 396.903 -4.04367 1.68579 0
M  V30 4337 C 398.404 -4.43236 -0.0754221 0
M  V30 4338 H 395.624 -0.655696 0.142491 0
M  V30 4339 H 398.168 -1.76238 1.03732 0
M  V30 4340 H 396.323 -3.86339 -0.286471 0
M  V30 4341 H 396.737 -4.98857 1.61993 0
M  V30 4342 H 398.211 -5.52 -0.00560067 0
M  V30 4343 H 398.688 -4.2455 -1.12491 0
M  V30 4344 H 399.294 -4.21767 0.547055 0
M  V30 4345 N 397.609 -0.515225 -1.4894 0
M  V30 4346 C 398.855 0.016187 -2.03394 0
M  V30 4347 C 399.21 1.33377 -1.38666 0
M  V30 4348 O 398.503 1.84461 -0.518141 0
M  V30 4349 C 398.697 0.210595 -3.56779 0
M  V30 4350 C 398.526 -1.08659 -4.36375 0
M  V30 4351 C 397.296 -1.64237 -4.77864 0
M  V30 4352 C 399.494 -1.9935 -4.74093 0
M  V30 4353 N 397.476 -2.88398 -5.41941 0
M  V30 4354 C 398.847 -3.08088 -5.38035 0
M  V30 4355 C 400.902 -1.99856 -4.56029 0
M  V30 4356 C 399.605 -4.17377 -5.85823 0
M  V30 4357 C 401.631 -3.08129 -5.04787 0
M  V30 4358 C 400.993 -4.15586 -5.68742 0
M  V30 4359 H 397.092 -0.0352107 -0.781207 0
M  V30 4360 H 399.676 -0.693237 -1.8194 0
M  V30 4361 H 397.847 0.889088 -3.78087 0
M  V30 4362 H 399.579 0.740287 -3.97872 0
M  V30 4363 H 396.334 -1.18566 -4.58518 0
M  V30 4364 H 396.758 -3.51572 -5.78555 0
M  V30 4365 H 401.4 -1.18079 -4.05977 0
M  V30 4366 H 399.118 -4.99943 -6.34888 0
M  V30 4367 H 402.704 -3.09557 -4.92611 0
M  V30 4368 H 401.584 -4.97987 -6.05787 0
M  V30 4369 N 399.087 1.5561 -0.249682 0
M  V30 4370 C 400.034 2.21496 0.648694 0
M  V30 4371 C 401.004 1.17977 1.16921 0
M  V30 4372 O 402.189 1.46434 1.22318 0
M  V30 4373 C 399.329 2.92039 1.83868 0
M  V30 4374 C 398.442 4.10219 1.35442 0
M  V30 4375 C 397.577 4.6847 2.50419 0
M  V30 4376 C 396.616 5.78893 1.98869 0
M  V30 4377 N 395.753 6.31315 3.07223 0
M  V30 4378 H 400.593 2.97892 0.0801582 0
M  V30 4379 H 398.13 1.47074 0.0278031 0
M  V30 4380 H 400.088 3.31138 2.53778 0
M  V30 4381 H 398.718 2.18111 2.37965 0
M  V30 4382 H 397.77 3.76413 0.54928 0
M  V30 4383 H 399.082 4.89927 0.936649 0
M  V30 4384 H 398.236 5.10158 3.28366 0
M  V30 4385 H 396.975 3.87984 2.95499 0
M  V30 4386 H 395.98 5.3668 1.19393 0
M  V30 4387 H 397.205 6.61232 1.54755 0
M  V30 4388 H 395.151 5.53733 3.51732 0
M  V30 4389 H 395.068 7.06224 2.69784 0
M  V30 4390 H 396.336 6.77662 3.8522 0
M  V30 4391 N 400.565 -0.0233959 1.57583 0
M  V30 4392 C 401.811 -0.708611 1.90657 0
M  V30 4393 C 402.166 -1.7266 0.848895 0
M  V30 4394 O 401.459 -1.91075 -0.141749 0
M  V30 4395 C 401.653 -1.41428 3.28227 0
M  V30 4396 C 401.482 -0.466155 4.47277 0
M  V30 4397 C 400.252 -0.085117 5.05228 0
M  V30 4398 C 402.45 0.257836 5.13653 0
M  V30 4399 N 400.432 0.863672 6.07794 0
M  V30 4400 C 401.803 1.06209 6.10835 0
M  V30 4401 C 403.858 0.324174 4.96844 0
M  V30 4402 C 402.561 1.9266 6.93018 0
M  V30 4403 C 404.587 1.17583 5.79593 0
M  V30 4404 C 403.949 1.96799 6.7635 0
M  V30 4405 H 400.048 -0.233222 0.746412 0
M  V30 4406 H 402.632 0.0314512 1.94675 0
M  V30 4407 H 400.803 -2.12477 3.25128 0
M  V30 4408 H 402.535 -2.05233 3.488 0
M  V30 4409 H 399.29 -0.448516 4.71471 0
M  V30 4410 H 399.714 1.33274 6.63752 0
M  V30 4411 H 404.356 -0.273975 4.21911 0
M  V30 4412 H 402.074 2.53552 7.67292 0
M  V30 4413 H 405.66 1.23076 5.68633 0
M  V30 4414 H 404.54 2.61635 7.39268 0
M  V30 4415 N 402.043 -1.548 -0.295768 0
M  V30 4416 C 403.292 -1.73538 -1.02798 0
M  V30 4417 C 403.605 -0.531159 -1.8825 0
M  V30 4418 O 404.811 -0.600458 -2.64777 0
M  V30 4419 C 403.267 -3.07051 -1.87744 0
M  V30 4420 C 402.875 -4.34968 -1.07269 0
M  V30 4421 C 404.619 -3.35146 -2.60533 0
M  V30 4422 C 402.526 -5.5953 -1.91521 0
M  V30 4423 H 401.456 -0.646794 -0.387522 0
M  V30 4424 H 404.107 -1.81278 -0.284718 0
M  V30 4425 H 402.489 -2.93289 -2.66078 0
M  V30 4426 H 403.663 -4.5958 -0.335117 0
M  V30 4427 H 401.978 -4.13847 -0.460384 0
M  V30 4428 H 404.575 -4.2541 -3.23929 0
M  V30 4429 H 404.918 -2.54255 -3.29636 0
M  V30 4430 H 405.451 -3.49902 -1.89244 0
M  V30 4431 H 402.19 -6.43103 -1.26878 0
M  V30 4432 H 401.71 -5.39096 -2.62937 0
M  V30 4433 H 403.389 -5.96982 -2.49442 0
M  V30 4434 N 403.521 0.559213 -1.47345 0
M  V30 4435 C 404.767 1.31843 -1.54095 0
M  V30 4436 C 405.1 1.93149 -0.201726 0
M  V30 4437 O 404.375 1.77759 0.789428 0
M  V30 4438 C 404.658 2.43006 -2.65744 0
M  V30 4439 C 404.511 1.86581 -4.09277 0
M  V30 4440 C 405.83 3.44943 -2.73318 0
M  V30 4441 H 402.949 0.478012 -0.560957 0
M  V30 4442 H 405.591 0.625977 -1.79392 0
M  V30 4443 H 403.741 3.02072 -2.44305 0
M  V30 4444 H 405.413 1.31792 -4.42073 0
M  V30 4445 H 403.656 1.17268 -4.17649 0
M  V30 4446 H 404.327 2.66933 -4.83168 0
M  V30 4447 H 406.803 2.95793 -2.92653 0
M  V30 4448 H 405.679 4.20153 -3.53218 0
M  V30 4449 H 405.94 4.03665 -1.80296 0
M  V30 4450 N 404.999 1.35443 0.805782 0
M  V30 4451 C 406.247 1.28507 1.55982 0
M  V30 4452 C 406.568 -0.140046 1.94496 0
M  V30 4453 O 405.838 -1.07666 1.63661 0
M  V30 4454 H 404.418 0.472676 0.578434 0
M  V30 4455 H 407.08 1.69555 0.961098 0
M  V30 4456 H 406.176 1.90148 2.47488 0
M  V30 4457 N 406.477 -1.02803 1.19454 0
M  V30 4458 C 407.888 -1.57667 0.999899 0
M  V30 4459 C 408.239 -1.91041 -0.446956 0
M  V30 4460 O 407.364 -1.70978 -1.32648 0
M  V30 4461 C 407.959 -2.86477 1.80877 0
M  V30 4462 C 406.518 -3.37911 1.65811 0
M  V30 4463 C 405.665 -2.11343 1.79526 0
M  V30 4464 H 408.616 -0.853214 1.33813 0
M  V30 4465 H 408.637 -3.57408 1.30536 0
M  V30 4466 H 408.149 -2.62155 2.86175 0
M  V30 4467 H 406.25 -3.67218 0.63102 0
M  V30 4468 H 406.363 -4.10885 2.46395 0
M  V30 4469 H 404.727 -2.23254 1.22596 0
M  V30 4470 H 405.51 -1.89461 2.86285 0
M  V30 4471 N 407.956 -0.998596 -1.21925 0
M  V30 4472 C 408.889 -0.498517 -2.22688 0
M  V30 4473 C 409.867 0.444301 -1.56412 0
M  V30 4474 O 411.051 0.368518 -1.84863 0
M  V30 4475 C 408.178 0.276639 -3.37568 0
M  V30 4476 C 407.224 -0.61302 -4.22071 0
M  V30 4477 S 408.057 -2.07168 -4.93803 0
M  V30 4478 C 409.213 -1.30617 -6.12119 0
M  V30 4479 H 409.446 -1.35234 -2.64762 0
M  V30 4480 H 406.979 -0.806018 -1.31692 0
M  V30 4481 H 408.937 0.717817 -4.04175 0
M  V30 4482 H 407.598 1.10581 -2.93991 0
M  V30 4483 H 406.791 -0.0162909 -5.03997 0
M  V30 4484 H 406.393 -0.991202 -3.60626 0
M  V30 4485 H 408.685 -0.57675 -6.75041 0
M  V30 4486 H 409.628 -2.10091 -6.76215 0
M  V30 4487 H 410.036 -0.816957 -5.58557 0
M  V30 4488 N 409.434 1.37368 -0.772513 0
M  V30 4489 C 410.681 1.99673 -0.337182 0
M  V30 4490 C 411.009 1.61324 1.0865 0
M  V30 4491 O 410.264 0.851377 1.7621 0
M  V30 4492 C 410.563 3.54817 -0.428876 0
M  V30 4493 C 410.229 4.12936 -1.81092 0
M  V30 4494 C 408.891 4.28523 -2.1891 0
M  V30 4495 C 411.243 4.44801 -2.71664 0
M  V30 4496 C 408.571 4.73277 -3.46735 0
M  V30 4497 C 410.923 4.90981 -3.98899 0
M  V30 4498 C 409.587 5.04773 -4.36761 0
M  V30 4499 H 408.857 0.730656 -0.123384 0
M  V30 4500 H 411.504 1.64124 -0.986686 0
M  V30 4501 H 409.809 3.90618 0.304167 0
M  V30 4502 H 411.506 4.00933 -0.0733334 0
M  V30 4503 H 408.096 4.01233 -1.50699 0
M  V30 4504 H 412.28 4.32344 -2.43706 0
M  V30 4505 H 407.536 4.82142 -3.75964 0
M  V30 4506 H 411.71 5.14603 -4.69208 0
M  V30 4507 H 409.337 5.39211 -5.35868 0
M  V30 4508 N 410.912 0.523116 1.48665 0
M  V30 4509 C 411.842 -0.23231 2.32342 0
M  V30 4510 C 412.823 -0.941637 1.41659 0
M  V30 4511 O 414.008 -0.928751 1.70552 0
M  V30 4512 C 411.138 -1.28387 3.22698 0
M  V30 4513 C 410.092 -0.693098 4.22351 0
M  V30 4514 C 409.418 -1.8468 5.01794 0
M  V30 4515 C 410.718 0.33063 5.21252 0
M  V30 4516 H 412.412 0.466192 2.95748 0
M  V30 4517 H 409.958 0.225643 1.42221 0
M  V30 4518 H 411.911 -1.82024 3.80059 0
M  V30 4519 H 410.635 -2.01186 2.57278 0
M  V30 4520 H 409.294 -0.178299 3.66166 0
M  V30 4521 H 408.942 -2.56301 4.32804 0
M  V30 4522 H 408.642 -1.45747 5.69238 0
M  V30 4523 H 410.166 -2.38709 5.62006 0
M  V30 4524 H 411.58 -0.118407 5.73178 0
M  V30 4525 H 409.977 0.636974 5.9671 0
M  V30 4526 H 411.047 1.23883 4.68808 0
M  V30 4527 N 412.39 -1.55475 0.257931 0
M  V30 4528 C 413.62 -2.03314 -0.367026 0
M  V30 4529 C 414.028 -1.13625 -1.51281 0
M  V30 4530 O 413.371 -0.145334 -1.83124 0
M  V30 4531 C 413.433 -3.47362 -0.926284 0
M  V30 4532 C 413.097 -4.56914 0.0886584 0
M  V30 4533 C 414.094 -5.12013 0.902123 0
M  V30 4534 C 411.779 -5.01827 0.217936 0
M  V30 4535 C 413.773 -6.10529 1.83122 0
M  V30 4536 C 411.46 -6.00172 1.15052 0
M  V30 4537 C 412.458 -6.54402 1.95568 0
M  V30 4538 O 412.146 -7.50827 2.87253 0
M  V30 4539 H 411.878 -0.669976 -0.0900443 0
M  V30 4540 H 414.432 -2.01804 0.382673 0
M  V30 4541 H 412.662 -3.46056 -1.72575 0
M  V30 4542 H 414.351 -3.78637 -1.46249 0
M  V30 4543 H 415.117 -4.78139 0.812891 0
M  V30 4544 H 410.996 -4.59272 -0.398721 0
M  V30 4545 H 414.54 -6.52783 2.46008 0
M  V30 4546 H 410.437 -6.33465 1.24064 0
M  V30 4547 H 411.205 -7.68483 2.81739 0
M  V30 4548 N 413.868 0.0150385 -1.57593 0
M  V30 4549 C 414.798 1.01047 -2.10503 0
M  V30 4550 C 415.779 1.36816 -1.01071 0
M  V30 4551 O 416.964 1.45455 -1.28672 0
M  V30 4552 C 414.094 2.30708 -2.59598 0
M  V30 4553 C 413.048 2.09142 -3.73421 0
M  V30 4554 C 412.374 3.44685 -4.08774 0
M  V30 4555 C 413.674 1.46619 -5.01298 0
M  V30 4556 H 415.368 0.569978 -2.93925 0
M  V30 4557 H 412.914 0.272724 -1.41394 0
M  V30 4558 H 414.867 3.00687 -2.95238 0
M  V30 4559 H 413.591 2.76843 -1.73279 0
M  V30 4560 H 412.25 1.41592 -3.38153 0
M  V30 4561 H 411.898 3.88495 -3.195 0
M  V30 4562 H 411.598 3.31077 -4.8545 0
M  V30 4563 H 413.122 4.16004 -4.4696 0
M  V30 4564 H 414.536 2.06535 -5.34805 0
M  V30 4565 H 412.933 1.43544 -5.82679 0
M  V30 4566 H 414.003 0.433611 -4.82957 0
M  V30 4567 N 415.346 1.54954 0.287554 0
M  V30 4568 C 416.586 1.76617 1.02887 0
M  V30 4569 C 416.95 0.547759 1.84021 0
M  V30 4570 O 418.151 0.642365 2.61012 0
M  V30 4571 C 416.422 3.02717 1.89993 0
M  V30 4572 S 417.981 3.45438 2.70588 0
M  V30 4573 H 414.799 0.6207 0.346775 0
M  V30 4574 H 417.401 1.93172 0.30082 0
M  V30 4575 H 416.105 3.89503 1.29287 0
M  V30 4576 H 415.636 2.88787 2.67144 0
M  V30 4577 H 417.651 3.03566 3.92508 0
M  V30 4578 N 416.824 -0.551391 1.4764 0
M  V30 4579 C 417.734 -1.68525 1.63207 0
M  V30 4580 C 418.75 -1.6621 0.514815 0
M  V30 4581 O 419.926 -1.85551 0.783113 0
M  V30 4582 C 416.991 -3.05025 1.64805 0
M  V30 4583 C 416.052 -3.18362 2.88 0
M  V30 4584 C 415.285 -4.4835 2.89513 0
M  V30 4585 O 415.508 -5.34163 2.00065 0
M  V30 4586 O 414.442 -4.65602 3.81443 0
M  V30 4587 H 418.268 -1.58333 2.59161 0
M  V30 4588 H 415.853 -0.722063 1.30792 0
M  V30 4589 H 417.735 -3.86245 1.68502 0
M  V30 4590 H 416.41 -3.15587 0.720197 0
M  V30 4591 H 415.317 -2.36518 2.89845 0
M  V30 4592 H 416.65 -3.12707 3.80099 0
M  V30 4593 N 418.302 -1.35869 -0.798587 0
M  V30 4594 C 419.718 -1.16082 -1.09532 0
M  V30 4595 C 419.918 0.0213124 -2.01489 0
M  V30 4596 O 418.974 0.689488 -2.42904 0
M  V30 4597 C 420.287 -2.46748 -1.7186 0
M  V30 4598 C 421.835 -2.53028 -1.84244 0
M  V30 4599 C 422.31 -3.83758 -2.49988 0
M  V30 4600 N 423.801 -3.85053 -2.57465 0
M  V30 4601 C 424.536 -4.8294 -3.09122 0
M  V30 4602 N 424.032 -5.91217 -3.61157 0
M  V30 4603 N 425.825 -4.70369 -3.0775 0
M  V30 4604 H 417.976 -2.11571 -0.187461 0
M  V30 4605 H 420.239 -0.936726 -0.145765 0
M  V30 4606 H 419.945 -3.33471 -1.11759 0
M  V30 4607 H 419.819 -2.61883 -2.71472 0
M  V30 4608 H 422.206 -1.66729 -2.43486 0
M  V30 4609 H 422.287 -2.418 -0.834643 0
M  V30 4610 H 421.931 -4.70459 -1.91393 0
M  V30 4611 H 421.861 -3.92278 -3.5132 0
M  V30 4612 H 424.352 -3.06822 -2.20609 0
M  V30 4613 H 424.665 -6.61892 -3.98896 0
M  V30 4614 H 423.01 -5.94899 -3.59333 0
M  V30 4615 H 426.201 -3.84914 -2.66381 0
M  V30 4616 H 426.374 -5.46816 -3.47701 0
M  V30 4617 N 419.78 1.02168 -1.19998 0
M  V30 4618 C 420.71 2.12488 -0.96804 0
M  V30 4619 C 421.691 1.69799 0.101185 0
M  V30 4620 O 422.876 1.94121 -0.0552993 0
M  V30 4621 C 420.006 3.43479 -0.513776 0
M  V30 4622 C 418.96 3.99884 -1.52566 0
M  V30 4623 C 418.286 5.26582 -0.928214 0
M  V30 4624 C 419.586 4.33861 -2.90795 0
M  V30 4625 H 421.28 2.32149 -1.89069 0
M  V30 4626 H 418.826 1.11564 -0.910468 0
M  V30 4627 H 420.779 4.20036 -0.338774 0
M  V30 4628 H 419.503 3.23561 0.444493 0
M  V30 4629 H 418.162 3.25429 -1.68794 0
M  V30 4630 H 417.81 5.02986 0.0378289 0
M  V30 4631 H 417.51 5.65284 -1.60397 0
M  V30 4632 H 419.034 6.05799 -0.764167 0
M  V30 4633 H 420.448 5.01327 -2.78109 0
M  V30 4634 H 418.845 4.83664 -3.55231 0
M  V30 4635 H 419.915 3.42848 -3.42904 0
M  V30 4636 N 421.258 1.00505 1.21394 0
M  V30 4637 C 422.504 0.688793 1.90745 0
M  V30 4638 C 422.837 -0.778486 1.77914 0
M  V30 4639 O 422.112 -1.56433 1.15581 0
M  V30 4640 C 422.395 1.11063 3.42545 0
M  V30 4641 C 422.248 2.63737 3.64367 0
M  V30 4642 C 423.567 0.673059 4.34923 0
M  V30 4643 H 420.686 0.251702 0.692687 0
M  V30 4644 H 423.328 1.25074 1.43026 0
M  V30 4645 H 421.478 0.632508 3.83317 0
M  V30 4646 H 423.15 3.19313 3.32922 0
M  V30 4647 H 421.393 3.05248 3.08231 0
M  V30 4648 H 422.064 2.88305 4.70727 0
M  V30 4649 H 424.54 1.08392 4.01734 0
M  V30 4650 H 423.416 0.996383 5.39781 0
M  V30 4651 H 423.677 -0.425808 4.40045 0
M  V30 4652 N 422.737 -1.36956 0.779787 0
M  V30 4653 C 424.153 -1.52817 0.460342 0
M  V30 4654 C 424.353 -1.7361 -1.02283 0
M  V30 4655 O 423.409 -1.76207 -1.80852 0
M  V30 4656 C 424.722 -2.71983 1.28241 0
M  V30 4657 C 426.27 -2.85849 1.27512 0
M  V30 4658 C 426.745 -4.08008 2.08072 0
M  V30 4659 N 428.236 -4.15135 2.05467 0
M  V30 4660 C 428.971 -5.08711 2.64577 0
M  V30 4661 N 428.467 -6.07792 3.32506 0
M  V30 4662 N 430.26 -5.01254 2.54363 0
M  V30 4663 H 422.411 -1.21713 1.74068 0
M  V30 4664 H 424.674 -0.593294 0.739396 0
M  V30 4665 H 424.38 -2.63109 2.33381 0
M  V30 4666 H 424.254 -3.65882 0.917088 0
M  V30 4667 H 426.641 -2.94189 0.231686 0
M  V30 4668 H 426.722 -1.92886 1.68014 0
M  V30 4669 H 426.366 -4.00429 3.12441 0
M  V30 4670 H 426.296 -5.001 1.64947 0
M  V30 4671 H 428.787 -3.44189 1.5602 0
M  V30 4672 H 429.1 -6.75739 3.74963 0
M  V30 4673 H 427.445 -6.08047 3.36606 0
M  V30 4674 H 430.636 -4.22795 2.00902 0
M  V30 4675 H 430.809 -5.73995 3.00722 0
M  V30 4676 N 424.215 -0.530993 -1.48385 0
M  V30 4677 C 425.462 0.0027373 -2.025 0
M  V30 4678 C 425.79 1.34186 -1.40799 0
M  V30 4679 O 425.045 1.88 -0.543544 0
M  V30 4680 C 425.344 0.172742 -3.56982 0
M  V30 4681 C 425.01 -1.09215 -4.37473 0
M  V30 4682 C 423.672 -1.43881 -4.59186 0
M  V30 4683 C 426.024 -1.93153 -4.84088 0
M  V30 4684 C 423.352 -2.62381 -5.2476 0
M  V30 4685 C 425.704 -3.10833 -5.50968 0
M  V30 4686 C 424.368 -3.45843 -5.70919 0
M  V30 4687 H 423.638 0.00100165 -0.740999 0
M  V30 4688 H 426.285 -0.697219 -1.78357 0
M  V30 4689 H 424.59 0.955473 -3.79971 0
M  V30 4690 H 426.287 0.600642 -3.96476 0
M  V30 4691 H 422.877 -0.812177 -4.20834 0
M  V30 4692 H 427.061 -1.67683 -4.67115 0
M  V30 4693 H 422.317 -2.89707 -5.38405 0
M  V30 4694 H 426.491 -3.7618 -5.86056 0
M  V30 4695 H 424.118 -4.37764 -6.21503 0
M  V30 4696 N 425.693 1.55336 -0.266172 0
M  V30 4697 C 426.939 2.00423 0.346714 0
M  V30 4698 C 427.294 1.15132 1.54151 0
M  V30 4699 O 426.587 0.211289 1.90431 0
M  V30 4700 C 426.781 3.48606 0.787957 0
M  V30 4701 C 426.61 4.48236 -0.362535 0
M  V30 4702 C 425.38 4.98211 -0.843445 0
M  V30 4703 C 427.578 5.00199 -1.19603 0
M  V30 4704 N 425.56 5.81625 -1.96434 0
M  V30 4705 C 426.931 5.80973 -2.16497 0
M  V30 4706 C 428.986 4.82458 -1.2304 0
M  V30 4707 C 427.689 6.45896 -3.1656 0
M  V30 4708 C 429.715 5.48174 -2.21944 0
M  V30 4709 C 429.077 6.28751 -3.17571 0
M  V30 4710 H 425.176 0.776535 0.0922914 0
M  V30 4711 H 427.76 1.90792 -0.388154 0
M  V30 4712 H 425.931 3.58597 1.49207 0
M  V30 4713 H 427.663 3.80538 1.37742 0
M  V30 4714 H 424.418 4.71696 -0.424271 0
M  V30 4715 H 424.842 6.28025 -2.52813 0
M  V30 4716 H 429.484 4.19774 -0.504903 0
M  V30 4717 H 427.202 7.07734 -3.90048 0
M  V30 4718 H 430.788 5.36392 -2.25333 0
M  V30 4719 H 429.668 6.78703 -3.92851 0
M  V30 4720 N 427.171 -0.0066808 1.57599 0
M  V30 4721 C 428.587 -0.36267 1.55425 0
M  V30 4722 C 428.787 -1.75209 0.995187 0
M  V30 4723 O 427.843 -2.44616 0.626058 0
M  V30 4724 C 429.156 -0.244017 2.99708 0
M  V30 4725 C 430.704 -0.319451 3.11366 0
M  V30 4726 C 431.179 -0.229998 4.57422 0
M  V30 4727 N 432.67 -0.288105 4.62303 0
M  V30 4728 C 433.405 -0.242127 5.72889 0
M  V30 4729 N 432.901 -0.147133 6.92644 0
M  V30 4730 N 434.694 -0.293502 5.61333 0
M  V30 4731 H 426.845 0.902314 1.92281 0
M  V30 4732 H 429.108 0.34525 0.882896 0
M  V30 4733 H 428.814 0.711678 3.44424 0
M  V30 4734 H 428.688 -1.02877 3.629 0
M  V30 4735 H 431.075 -1.26559 2.66584 0
M  V30 4736 H 431.156 0.495055 2.50964 0
M  V30 4737 H 430.8 0.712566 5.02877 0
M  V30 4738 H 430.73 -1.0629 5.15761 0
M  V30 4739 H 433.221 -0.363126 3.76151 0
M  V30 4740 H 433.534 -0.117763 7.7271 0
M  V30 4741 H 431.879 -0.112857 6.94908 0
M  V30 4742 H 435.07 -0.365864 4.66668 0
M  V30 4743 H 435.243 -0.254204 6.47501 0
M  V30 4744 N 428.649 -1.55105 -0.279332 0
M  V30 4745 C 429.874 -1.7976 -1.03446 0
M  V30 4746 C 430.299 -0.565952 -1.79384 0
M  V30 4747 O 429.657 0.484259 -1.74713 0
M  V30 4748 C 429.705 -3.0179 -1.97371 0
M  V30 4749 O 428.809 -2.76432 -3.06038 0
M  V30 4750 H 428.15 -0.594334 -0.29608 0
M  V30 4751 H 430.68 -2.02235 -0.310165 0
M  V30 4752 H 430.69 -3.30351 -2.39441 0
M  V30 4753 H 429.365 -3.91085 -1.4151 0
M  V30 4754 H 427.942 -2.58949 -2.68328 0
M  V30 4755 N 430.127 0.543554 -1.4793 0
M  V30 4756 C 431.059 1.665 -1.57513 0
M  V30 4757 C 432.072 1.56156 -0.460333 0
M  V30 4758 O 433.261 1.62865 -0.730573 0
M  V30 4759 C 430.361 3.05063 -1.47614 0
M  V30 4760 C 429.534 3.41024 -2.739 0
M  V30 4761 C 428.593 4.58809 -2.57645 0
M  V30 4762 O 427.619 4.62707 -3.31498 0
M  V30 4763 N 428.821 5.56149 -1.66368 0
M  V30 4764 H 431.586 1.5872 -2.5422 0
M  V30 4765 H 429.147 0.730517 -1.44482 0
M  V30 4766 H 431.139 3.81712 -1.34455 0
M  V30 4767 H 429.709 3.06994 -0.589359 0
M  V30 4768 H 428.929 2.53687 -3.01723 0
M  V30 4769 H 430.217 3.61831 -3.57709 0
M  V30 4770 H 429.615 5.55767 -1.05543 0
M  V30 4771 H 428.172 6.32071 -1.59154 0
M  V30 4772 N 431.605 1.3629 0.791371 0
M  V30 4773 C 432.537 1.26321 1.91248 0
M  V30 4774 C 433.55 0.18313 1.61767 0
M  V30 4775 O 434.739 0.437682 1.73051 0
M  V30 4776 C 431.839 0.925901 3.26007 0
M  V30 4777 C 431.012 2.10746 3.83281 0
M  V30 4778 C 430.071 1.74352 4.96475 0
M  V30 4779 O 429.097 2.46416 5.13096 0
M  V30 4780 N 430.299 0.676058 5.7655 0
M  V30 4781 H 433.064 2.22915 2.00323 0
M  V30 4782 H 430.625 1.29659 0.969546 0
M  V30 4783 H 432.617 0.663636 3.99222 0
M  V30 4784 H 431.187 0.0491581 3.12561 0
M  V30 4785 H 430.407 2.53264 3.02077 0
M  V30 4786 H 431.695 2.8969 4.18279 0
M  V30 4787 H 431.093 0.0776467 5.65647 0
M  V30 4788 H 429.65 0.473612 6.50077 0
M  V30 4789 N 433.083 -1.0153 1.20538 0
M  V30 4790 C 434.03 -2.10098 0.955383 0
M  V30 4791 C 435 -1.65702 -0.114878 0
M  V30 4792 O 436.185 -1.90776 0.0301118 0
M  V30 4793 C 433.325 -3.41236 0.514969 0
M  V30 4794 C 432.438 -3.99102 1.65353 0
M  V30 4795 C 431.573 -5.18306 1.16329 0
M  V30 4796 C 430.612 -5.68258 2.27485 0
M  V30 4797 N 429.749 -6.78722 1.7967 0
M  V30 4798 H 434.589 -2.30818 1.88486 0
M  V30 4799 H 432.126 -1.13189 0.939499 0
M  V30 4800 H 434.084 -4.16504 0.240935 0
M  V30 4801 H 432.714 -3.20585 -0.377512 0
M  V30 4802 H 431.766 -3.20918 2.04245 0
M  V30 4803 H 433.078 -4.32177 2.49047 0
M  V30 4804 H 432.232 -6.00782 0.845302 0
M  V30 4805 H 430.971 -4.86799 0.296254 0
M  V30 4806 H 429.976 -4.84385 2.60099 0
M  V30 4807 H 431.201 -6.01798 3.14667 0
M  V30 4808 H 429.147 -6.49042 0.95295 0
M  V30 4809 H 429.064 -7.10996 2.56944 0
M  V30 4810 H 430.332 -7.64759 1.50875 0
M  V30 4811 N 434.561 -1.01147 -1.20859 0
M  V30 4812 C 435.807 -0.698899 -1.90377 0
M  V30 4813 C 436.14 0.76904 -1.78324 0
M  V30 4814 O 435.415 1.55817 -1.16409 0
M  V30 4815 C 435.698 -1.12878 -3.41951 0
M  V30 4816 C 435.551 -2.65665 -3.62963 0
M  V30 4817 C 436.87 -0.696114 -4.3456 0
M  V30 4818 H 433.989 -0.255372 -0.691342 0
M  V30 4819 H 436.631 -1.25831 -1.42361 0
M  V30 4820 H 434.781 -0.652827 -3.82976 0
M  V30 4821 H 436.453 -3.21074 -3.31224 0
M  V30 4822 H 434.696 -3.06878 -3.06608 0
M  V30 4823 H 435.367 -2.90797 -4.69192 0
M  V30 4824 H 437.843 -1.10521 -4.01154 0
M  V30 4825 H 436.719 -1.025 -5.39245 0
M  V30 4826 H 436.98 0.402465 -4.40264 0
M  V30 4827 N 436.039 1.36541 -0.78704 0
M  V30 4828 C 437.285 1.99599 -0.358872 0
M  V30 4829 C 437.618 1.62323 1.06606 0
M  V30 4830 O 436.893 0.876858 1.73613 0
M  V30 4831 C 437.176 3.56327 -0.519944 0
M  V30 4832 C 437.029 4.03464 -1.98839 0
M  V30 4833 C 438.348 4.4005 0.0664737 0
M  V30 4834 H 435.467 0.725107 -0.131869 0
M  V30 4835 H 438.109 1.6199 -0.992936 0
M  V30 4836 H 436.259 3.88495 0.0198321 0
M  V30 4837 H 437.931 3.81793 -2.58905 0
M  V30 4838 H 436.174 3.55092 -2.49183 0
M  V30 4839 H 436.845 5.12439 -2.05207 0
M  V30 4840 H 439.321 4.14228 -0.394267 0
M  V30 4841 H 438.197 5.48847 -0.0762682 0
M  V30 4842 H 438.458 4.26655 1.15835 0
M  V30 4843 N 437.518 0.538854 1.48102 0
M  V30 4844 C 438.767 0.0059532 2.01699 0
M  V30 4845 C 439.08 -1.34476 1.42041 0
M  V30 4846 O 440.286 -1.96653 1.87189 0
M  V30 4847 C 438.742 -0.0397627 3.59878 0
M  V30 4848 C 438.35 1.30659 4.28523 0
M  V30 4849 C 440.094 -0.521024 4.2129 0
M  V30 4850 C 438.001 1.22098 5.78659 0
M  V30 4851 H 436.931 -0.00154456 0.753998 0
M  V30 4852 H 439.582 0.683963 1.70277 0
M  V30 4853 H 437.964 -0.783037 3.88181 0
M  V30 4854 H 439.138 2.06613 4.11883 0
M  V30 4855 H 437.453 1.7243 3.79021 0
M  V30 4856 H 440.05 -0.603184 5.31287 0
M  V30 4857 H 440.393 -1.52885 3.8721 0
M  V30 4858 H 440.926 0.166834 3.9745 0
M  V30 4859 H 437.665 2.20424 6.17328 0
M  V30 4860 H 437.185 0.50295 5.97688 0
M  V30 4861 H 438.864 0.915345 6.40492 0
M  V30 4862 N 438.996 -1.55193 0.274407 0
M  V30 4863 C 440.224 -2.03987 -0.345943 0
M  V30 4864 C 440.639 -1.15279 -1.4952 0
M  V30 4865 O 439.996 -0.172759 -1.8168 0
M  V30 4866 C 440.047 -3.51898 -0.827631 0
M  V30 4867 O 439.768 -4.37231 0.275855 0
M  V30 4868 C 441.269 -4.16577 -1.51587 0
M  V30 4869 H 438.489 -0.666335 -0.0789892 0
M  V30 4870 H 441.033 -2.00423 0.406294 0
M  V30 4871 H 439.188 -3.55909 -1.52996 0
M  V30 4872 H 439.602 -5.24415 -0.0943638 0
M  V30 4873 H 441.076 -5.21678 -1.80433 0
M  V30 4874 H 441.553 -3.64707 -2.44716 0
M  V30 4875 H 442.159 -4.16568 -0.857409 0
M  V30 4876 N 440.474 -0.00167713 -1.576 0
M  V30 4877 C 441.421 0.989195 -2.08527 0
M  V30 4878 C 442.391 1.34031 -0.981065 0
M  V30 4879 O 443.576 1.43839 -1.2536 0
M  V30 4880 C 440.716 2.27537 -2.59463 0
M  V30 4881 C 439.829 1.98314 -3.83791 0
M  V30 4882 C 438.964 3.21025 -4.23222 0
M  V30 4883 C 438.003 2.87495 -5.40382 0
M  V30 4884 N 437.14 4.02749 -5.75098 0
M  V30 4885 H 441.98 0.547973 -2.92919 0
M  V30 4886 H 439.517 0.258917 -1.44803 0
M  V30 4887 H 441.475 3.02729 -2.87073 0
M  V30 4888 H 440.105 2.69325 -1.77943 0
M  V30 4889 H 439.157 1.13482 -3.63078 0
M  V30 4890 H 440.469 1.69601 -4.69081 0
M  V30 4891 H 439.623 4.04561 -4.52123 0
M  V30 4892 H 438.362 3.52877 -3.36644 0
M  V30 4893 H 437.367 2.02367 -5.11202 0
M  V30 4894 H 438.592 2.56889 -6.28637 0
M  V30 4895 H 436.538 4.34494 -4.91478 0
M  V30 4896 H 436.455 3.77566 -6.54966 0
M  V30 4897 H 437.723 4.87068 -6.08592 0
M  V30 4898 N 441.952 1.55251 0.271103 0
M  V30 4899 C 443.198 1.76207 1.00394 0
M  V30 4900 C 443.531 0.562604 1.85872 0
M  V30 4901 O 442.806 -0.439785 1.89463 0
M  V30 4902 C 443.089 3.06828 1.8849 0
M  V30 4903 C 442.942 4.37134 1.05992 0
M  V30 4904 C 444.261 3.33503 2.87165 0
M  V30 4905 H 441.38 0.641086 0.363562 0
M  V30 4906 H 444.022 1.87982 0.276189 0
M  V30 4907 H 442.172 2.96921 2.5054 0
M  V30 4908 H 443.844 4.59001 0.459978 0
M  V30 4909 H 442.087 4.32275 0.363443 0
M  V30 4910 H 442.758 5.2486 1.70955 0
M  V30 4911 H 445.234 3.43215 2.3525 0
M  V30 4912 H 444.11 4.2616 3.45946 0
M  V30 4913 H 444.371 2.53235 3.62387 0
M  V30 4914 N 443.43 -0.535701 1.48216 0
M  V30 4915 C 444.676 -1.29375 1.56173 0
M  V30 4916 C 445.009 -1.92804 0.232429 0
M  V30 4917 O 444.284 -1.78992 -0.761048 0
M  V30 4918 C 444.567 -2.38747 2.69577 0
M  V30 4919 C 444.42 -1.80046 4.12193 0
M  V30 4920 C 445.739 -3.40551 2.78771 0
M  V30 4921 H 442.858 -0.469027 0.568491 0
M  V30 4922 H 445.5 -0.597358 1.80365 0
M  V30 4923 H 443.65 -2.98147 2.4908 0
M  V30 4924 H 445.322 -1.24742 4.44114 0
M  V30 4925 H 443.565 -1.10609 4.19462 0
M  V30 4926 H 444.236 -2.59212 4.87353 0
M  V30 4927 H 446.712 -2.91099 2.97322 0
M  V30 4928 H 445.588 -4.1448 3.59857 0
M  V30 4929 H 445.849 -4.00746 1.86696 0
M  V30 4930 N 444.908 -1.36708 -0.784132 0
M  V30 4931 C 446.136 -1.34398 -1.57305 0
M  V30 4932 C 446.551 0.0735577 -1.88657 0
M  V30 4933 O 445.908 1.03193 -1.50524 0
M  V30 4934 C 445.959 -2.17053 -2.89085 0
M  V30 4935 O 445.68 -3.53281 -2.59083 0
M  V30 4936 C 447.181 -2.22583 -3.83369 0
M  V30 4937 H 444.401 -0.460819 -0.487736 0
M  V30 4938 H 446.945 -1.79879 -0.972819 0
M  V30 4939 H 445.1 -1.75113 -3.45564 0
M  V30 4940 H 445.514 -3.9647 -3.43383 0
M  V30 4941 H 446.988 -2.84763 -4.72878 0
M  V30 4942 H 447.465 -1.23075 -4.21603 0
M  V30 4943 H 448.071 -2.64781 -3.32823 0
M  V30 4944 N 446.386 1.0089 -1.21074 0
M  V30 4945 C 447.336 2.0799 -0.934034 0
M  V30 4946 C 448.32 1.60529 0.10919 0
M  V30 4947 O 449.512 1.76722 -0.0992198 0
M  V30 4948 C 446.641 3.39693 -0.496334 0
M  V30 4949 C 445.727 3.93833 -1.57341 0
M  V30 4950 N 446.118 4.21388 -2.7976 0
M  V30 4951 C 444.416 4.22067 -1.44137 0
M  V30 4952 C 445.117 4.65156 -3.49292 0
M  V30 4953 N 444.093 4.67895 -2.76722 0
M  V30 4954 H 447.895 2.27213 -1.86417 0
M  V30 4955 H 445.409 1.18927 -1.10589 0
M  V30 4956 H 447.406 4.15962 -0.279471 0
M  V30 4957 H 446.066 3.21879 0.427084 0
M  V30 4958 H 447.077 4.10061 -3.1634 0
M  V30 4959 H 443.754 4.1341 -0.582947 0
M  V30 4960 H 445.144 4.95231 -4.54088 0
M  V30 4961 N 447.864 1.01787 1.20321 0
M  V30 4962 C 449.275 0.739307 1.71438 0
M  V30 4963 C 449.626 -0.742041 1.81627 0
M  V30 4964 O 448.751 -1.57903 1.47971 0
M  V30 4965 C 449.346 1.33538 3.11373 0
M  V30 4966 C 447.905 1.10566 3.59795 0
M  V30 4967 C 447.052 1.44028 2.36962 0
M  V30 4968 H 450.003 1.18718 1.05317 0
M  V30 4969 H 450.024 0.726611 3.73498 0
M  V30 4970 H 449.536 2.41352 3.03926 0
M  V30 4971 H 447.637 0.0452405 3.72573 0
M  V30 4972 H 447.75 1.78661 4.44542 0
M  V30 4973 H 446.114 0.85933 2.39766 0
M  V30 4974 H 446.897 2.52901 2.32155 0
M  V30 4975 N 449.342 -1.36122 0.79427 0
M  V30 4976 C 450.589 -1.99111 0.368905 0
M  V30 4977 C 450.917 -1.63032 -1.0607 0
M  V30 4978 O 450.172 -0.879303 -1.74833 0
M  V30 4979 C 450.471 -3.5409 0.48527 0
M  V30 4980 C 450.137 -4.10003 1.87638 0
M  V30 4981 C 448.799 -4.24986 2.257 0
M  V30 4982 C 451.151 -4.40423 2.78706 0
M  V30 4983 C 448.479 -4.67701 3.54221 0
M  V30 4984 C 450.831 -4.84573 4.0666 0
M  V30 4985 C 449.495 -4.97761 4.44737 0
M  V30 4986 H 448.765 -0.7286 0.134992 0
M  V30 4987 H 451.412 -1.62534 1.01267 0
M  V30 4988 H 449.717 -3.91052 -0.241984 0
M  V30 4989 H 451.414 -4.00766 0.137109 0
M  V30 4990 H 448.004 -3.98784 1.57064 0
M  V30 4991 H 452.188 -4.28412 2.50553 0
M  V30 4992 H 447.444 -4.761 3.83587 0
M  V30 4993 H 451.618 -5.07074 4.77336 0
M  V30 4994 H 449.245 -5.30618 5.44379 0
M  V30 4995 N 450.82 -0.546701 -1.47814 0
M  V30 4996 C 451.767 0.206854 -2.29871 0
M  V30 4997 C 452.737 0.918235 -1.38411 0
M  V30 4998 O 453.922 0.915991 -1.67375 0
M  V30 4999 C 451.062 1.23746 -3.22151 0
M  V30 5000 C 450.175 0.533216 -4.28697 0
M  V30 5001 C 449.31 1.5482 -5.08138 0
M  V30 5002 C 448.349 0.828347 -6.06469 0
M  V30 5003 N 447.486 1.78966 -6.78908 0
M  V30 5004 H 452.326 -0.499037 -2.93792 0
M  V30 5005 H 449.863 -0.25793 -1.44821 0
M  V30 5006 H 451.821 1.84746 -3.74065 0
M  V30 5007 H 450.451 1.91151 -2.60117 0
M  V30 5008 H 449.503 -0.191089 -3.7992 0
M  V30 5009 H 450.815 -0.0311987 -4.9879 0
M  V30 5010 H 449.969 2.23202 -5.6415 0
M  V30 5011 H 448.708 2.14652 -4.37922 0
M  V30 5012 H 447.713 0.130539 -5.49645 0
M  V30 5013 H 448.938 0.235907 -6.7869 0
M  V30 5014 H 446.884 2.37675 -6.1143 0
M  V30 5015 H 446.801 1.27712 -7.45135 0
M  V30 5016 H 448.069 2.46496 -7.395 0
M  V30 5017 N 452.299 1.55045 -0.282633 0
M  V30 5018 C 453.527 2.04168 0.33512 0
M  V30 5019 C 453.942 1.16071 1.48906 0
M  V30 5020 O 453.299 0.182391 1.81586 0
M  V30 5021 C 453.35 3.52332 0.808957 0
M  V30 5022 O 453.071 4.37078 -0.299038 0
M  V30 5023 C 454.572 4.17375 1.49375 0
M  V30 5024 H 451.792 0.666744 0.0754543 0
M  V30 5025 H 454.336 2.00205 -0.416918 0
M  V30 5026 H 452.491 3.56715 1.51106 0
M  V30 5027 H 452.905 5.24458 0.0665514 0
M  V30 5028 H 454.379 5.22627 1.77664 0
M  V30 5029 H 454.856 3.65999 2.42778 0
M  V30 5030 H 455.462 4.17016 0.835305 0
M  V30 5031 N 453.777 0.010035 1.57597 0
M  V30 5032 C 455.026 -0.671945 1.90178 0
M  V30 5033 C 455.339 -1.74376 0.886131 0
M  V30 5034 O 456.545 -2.48107 1.10252 0
M  V30 5035 C 455.001 -1.24636 3.3763 0
M  V30 5036 C 454.609 -0.208838 4.47513 0
M  V30 5037 C 456.353 -1.90595 3.79307 0
M  V30 5038 C 454.26 -0.793814 5.86048 0
M  V30 5039 H 453.19 -0.25474 0.709665 0
M  V30 5040 H 455.841 0.0722206 1.83358 0
M  V30 5041 H 454.223 -2.04152 3.3932 0
M  V30 5042 H 455.397 0.562463 4.57354 0
M  V30 5043 H 453.712 0.350889 4.14919 0
M  V30 5044 H 456.309 -2.35284 4.80151 0
M  V30 5045 H 456.652 -2.74074 3.13352 0
M  V30 5046 H 457.185 -1.17798 3.79958 0
M  V30 5047 H 453.924 0.00240855 6.555 0
M  V30 5048 H 453.444 -1.53404 5.79851 0
M  V30 5049 H 455.123 -1.2894 6.34022 0
M  V30 5050 N 455.255 -1.55392 -0.262866 0
M  V30 5051 C 456.165 -1.92077 -1.34698 0
M  V30 5052 C 457.181 -0.819227 -1.53508 0
M  V30 5053 O 458.357 -1.11921 -1.67439 0
M  V30 5054 C 455.422 -2.19407 -2.68443 0
M  V30 5055 C 454.483 -3.42905 -2.58292 0
M  V30 5056 C 453.716 -3.68921 -3.85659 0
M  V30 5057 O 453.939 -2.97275 -4.8681 0
M  V30 5058 O 452.873 -4.62455 -3.85252 0
M  V30 5059 H 456.699 -2.84384 -1.06581 0
M  V30 5060 H 454.284 -1.42069 -0.462264 0
M  V30 5061 H 456.166 -2.38365 -3.47506 0
M  V30 5062 H 454.841 -1.30282 -2.96325 0
M  V30 5063 H 453.748 -3.29272 -1.7757 0
M  V30 5064 H 455.081 -4.32282 -2.35358 0
M  V30 5065 N 456.733 0.527833 -1.48498 0
M  V30 5066 C 457.663 1.64136 -1.66077 0
M  V30 5067 C 458.644 1.62286 -0.509625 0
M  V30 5068 O 459.829 1.79449 -0.742413 0
M  V30 5069 C 456.959 3.02717 -1.70234 0
M  V30 5070 C 455.913 3.19426 -2.8487 0
M  V30 5071 C 455.239 4.5909 -2.74118 0
M  V30 5072 C 456.539 3.01993 -4.26142 0
M  V30 5073 H 458.233 1.4968 -2.593 0
M  V30 5074 H 455.779 0.718654 -1.24785 0
M  V30 5075 H 457.732 3.80491 -1.8112 0
M  V30 5076 H 456.456 3.18201 -0.735911 0
M  V30 5077 H 455.115 2.4407 -2.73542 0
M  V30 5078 H 454.763 4.71413 -1.7544 0
M  V30 5079 H 454.463 4.71214 -3.51042 0
M  V30 5080 H 455.987 5.3896 -2.86974 0
M  V30 5081 H 457.401 3.69558 -4.38292 0
M  V30 5082 H 455.798 3.2561 -5.04082 0
M  V30 5083 H 456.868 1.98396 -4.42456 0
M  V30 5084 N 458.211 1.37122 0.776871 0
M  V30 5085 C 459.143 1.28342 1.89897 0
M  V30 5086 C 460.156 0.200277 1.61563 0
M  V30 5087 O 461.345 0.456012 1.72577 0
M  V30 5088 C 458.445 0.960427 3.25006 0
M  V30 5089 C 457.618 2.148 3.81025 0
M  V30 5090 C 456.677 1.79608 4.94598 0
M  V30 5091 O 455.703 2.51845 5.10454 0
M  V30 5092 N 456.905 0.737171 5.758 0
M  V30 5093 H 459.67 2.25027 1.97947 0
M  V30 5094 H 457.231 1.3068 0.955739 0
M  V30 5095 H 459.223 0.705942 3.98495 0
M  V30 5096 H 457.793 0.0823066 3.12492 0
M  V30 5097 H 457.013 2.56454 2.99374 0
M  V30 5098 H 458.301 2.9411 4.15183 0
M  V30 5099 H 457.699 0.137637 5.65533 0
M  V30 5100 H 456.256 0.542534 6.49538 0
M  V30 5101 N 459.689 -1.00246 1.21608 0
M  V30 5102 C 460.622 -2.08794 0.920892 0
M  V30 5103 C 461.6 -1.62059 -0.132552 0
M  V30 5104 O 462.784 -1.885 -0.0030366 0
M  V30 5105 C 459.911 -3.36525 0.383226 0
M  V30 5106 C 458.957 -4.02172 1.41987 0
M  V30 5107 S 459.79 -4.44256 2.98994 0
M  V30 5108 C 460.946 -5.7517 2.4684 0
M  V30 5109 H 461.179 -2.33511 1.8401 0
M  V30 5110 H 458.712 -1.13562 1.04609 0
M  V30 5111 H 460.67 -4.10423 0.0795871 0
M  V30 5112 H 459.331 -3.09854 -0.514711 0
M  V30 5113 H 458.524 -4.94114 0.993335 0
M  V30 5114 H 458.126 -3.34559 1.67171 0
M  V30 5115 H 460.418 -6.51042 1.87484 0
M  V30 5116 H 461.361 -6.22638 3.37235 0
M  V30 5117 H 461.769 -5.32112 1.88461 0
M  V30 5118 N 461.167 -1.02423 -1.1978 0
M  V30 5119 C 462.114 -0.601023 -2.22837 0
M  V30 5120 C 463.084 0.382801 -1.61629 0
M  V30 5121 O 464.269 0.280514 -1.88727 0
M  V30 5122 C 461.409 0.0467755 -3.45068 0
M  V30 5123 C 460.522 -0.98253 -4.20678 0
M  V30 5124 C 459.657 -0.304982 -5.30324 0
M  V30 5125 C 458.696 -1.32052 -5.97686 0
M  V30 5126 N 457.833 -0.669105 -6.98904 0
M  V30 5127 H 462.673 -1.48444 -2.58396 0
M  V30 5128 H 460.21 -0.742936 -1.2696 0
M  V30 5129 H 462.168 0.439556 -4.14878 0
M  V30 5130 H 460.798 0.893796 -3.10179 0
M  V30 5131 H 459.85 -1.49341 -3.49859 0
M  V30 5132 H 461.162 -1.75455 -4.66923 0
M  V30 5133 H 460.316 0.142893 -6.06532 0
M  V30 5134 H 459.055 0.499283 -4.85138 0
M  V30 5135 H 458.06 -1.7787 -5.20233 0
M  V30 5136 H 459.285 -2.1262 -6.44957 0
M  V30 5137 H 457.231 0.115152 -6.55899 0
M  V30 5138 H 457.148 -1.37908 -7.43315 0
M  V30 5139 H 458.416 -0.245076 -7.79115 0
M  V30 5140 N 462.645 1.35699 -0.801477 0
M  V30 5141 C 463.592 2.29876 -0.206294 0
M  V30 5142 C 464.562 1.52565 0.656752 0
M  V30 5143 O 465.747 1.81024 0.602906 0
M  V30 5144 C 462.887 3.39052 0.643272 0
M  V30 5145 C 462 4.31335 -0.239644 0
M  V30 5146 C 461.135 5.27599 0.61744 0
M  V30 5147 C 460.174 6.11521 -0.26619 0
M  V30 5148 N 459.311 6.99938 0.550571 0
M  V30 5149 H 464.151 2.80187 -1.01484 0
M  V30 5150 H 461.688 1.37902 -0.511997 0
M  V30 5151 H 463.646 4.0101 1.15094 0
M  V30 5152 H 462.276 2.9003 1.41713 0
M  V30 5153 H 461.328 3.70426 -0.865381 0
M  V30 5154 H 462.64 4.90243 -0.919985 0
M  V30 5155 H 461.794 5.94906 1.19045 0
M  V30 5156 H 460.533 4.69176 1.33137 0
M  V30 5157 H 459.538 5.43166 -0.851507 0
M  V30 5158 H 460.763 6.72022 -0.9779 0
M  V30 5159 H 458.709 6.44008 1.24856 0
M  V30 5160 H 458.626 7.55966 -0.071832 0
M  V30 5161 H 459.894 7.71599 1.10702 0
M  V30 5162 N 464.123 0.554532 1.47522 0
M  V30 5163 C 465.07 -0.19466 2.29978 0
M  V30 5164 C 466.04 -0.910882 1.38896 0
M  V30 5165 O 467.225 -0.907102 1.67858 0
M  V30 5166 C 464.365 -1.22035 3.22802 0
M  V30 5167 C 463.478 -0.510474 4.28973 0
M  V30 5168 C 462.613 -1.52123 5.08952 0
M  V30 5169 C 461.652 -0.796173 6.069 0
M  V30 5170 N 460.789 -1.75363 6.79847 0
M  V30 5171 H 465.629 0.51461 2.93523 0
M  V30 5172 H 463.166 0.265607 1.44682 0
M  V30 5173 H 465.124 -1.8276 3.7504 0
M  V30 5174 H 463.754 -1.89769 2.61127 0
M  V30 5175 H 462.806 0.211234 3.79813 0
M  V30 5176 H 464.118 0.0576503 4.98767 0
M  V30 5177 H 463.272 -2.20207 5.65326 0
M  V30 5178 H 462.011 -2.12327 4.39054 0
M  V30 5179 H 461.016 -0.101388 5.49707 0
M  V30 5180 H 462.241 -0.199911 6.78806 0
M  V30 5181 H 460.187 -2.3443 6.12682 0
M  V30 5182 H 460.104 -1.23759 7.45801 0
M  V30 5183 H 461.372 -2.4257 7.40797 0
M  V30 5184 N 465.601 -1.54893 0.290851 0
M  V30 5185 C 466.849 -1.99538 -0.320756 0
M  V30 5186 C 467.17 -1.18075 -1.55188 0
M  V30 5187 O 466.44 -0.274162 -1.93972 0
M  V30 5188 H 465.02 -0.737052 -0.121507 0
M  V30 5189 H 467.682 -1.90755 0.399832 0
M  V30 5190 H 466.778 -3.06282 -0.599802 0
M  V30 5191 N 467.08 -0.0183926 -1.57589 0
M  V30 5192 C 468.327 0.662562 -1.91354 0
M  V30 5193 C 468.655 1.72747 -0.893788 0
M  V30 5194 O 467.91 1.9545 0.0988509 0
M  V30 5195 C 468.209 1.32676 -3.31861 0
M  V30 5196 C 467.875 0.393267 -4.49182 0
M  V30 5197 C 466.537 0.136302 -4.81007 0
M  V30 5198 C 468.889 -0.248366 -5.20608 0
M  V30 5199 C 466.217 -0.770282 -5.81621 0
M  V30 5200 C 468.569 -1.14294 -6.22189 0
M  V30 5201 C 467.233 -1.4089 -6.52462 0
M  V30 5202 H 466.503 0.242448 -0.700214 0
M  V30 5203 H 469.15 -0.0778629 -1.91342 0
M  V30 5204 H 467.455 2.14168 -3.28084 0
M  V30 5205 H 469.152 1.86001 -3.55253 0
M  V30 5206 H 465.742 0.603723 -4.24327 0
M  V30 5207 H 469.926 -0.062883 -4.9626 0
M  V30 5208 H 465.182 -0.984154 -6.03427 0
M  V30 5209 H 469.356 -1.64637 -6.76659 0
M  V30 5210 H 466.983 -2.11306 -7.30242 0
M  V30 5211 N 468.558 1.5553 0.254621 0
M  V30 5212 C 469.505 1.89666 1.31512 0
M  V30 5213 C 470.475 0.750057 1.482 0
M  V30 5214 O 471.66 1.00301 1.62309 0
M  V30 5215 C 468.8 2.19009 2.667 0
M  V30 5216 C 467.913 3.46435 2.58083 0
M  V30 5217 C 467.048 3.65386 3.85573 0
M  V30 5218 C 466.087 4.8644 3.71541 0
M  V30 5219 N 465.224 5.01952 4.90906 0
M  V30 5220 H 470.064 2.80109 1.017 0
M  V30 5221 H 467.601 1.38666 0.490938 0
M  V30 5222 H 469.559 2.34025 3.45381 0
M  V30 5223 H 468.189 1.31779 2.94676 0
M  V30 5224 H 467.241 3.39792 1.71013 0
M  V30 5225 H 468.553 4.35258 2.43622 0
M  V30 5226 H 467.707 3.80319 4.72697 0
M  V30 5227 H 466.446 2.74781 4.02922 0
M  V30 5228 H 465.451 4.71491 2.82801 0
M  V30 5229 H 466.676 5.78497 3.55694 0
M  V30 5230 H 464.622 4.14283 5.08631 0
M  V30 5231 H 464.539 5.84851 4.79046 0
M  V30 5232 H 465.807 5.21289 5.7955 0
M  V30 5233 N 470.036 -0.519951 1.48776 0
M  V30 5234 C 470.969 -1.64053 1.58625 0
M  V30 5235 C 471.947 -1.5664 0.43618 0
M  V30 5236 O 473.131 -1.76969 0.649159 0
M  V30 5237 C 470.258 -3.02497 1.52359 0
M  V30 5238 C 469.304 -3.28235 2.72331 0
M  V30 5239 S 470.137 -3.13414 4.34203 0
M  V30 5240 C 471.293 -4.54287 4.30551 0
M  V30 5241 H 471.526 -1.5545 2.53422 0
M  V30 5242 H 469.059 -0.703681 1.37433 0
M  V30 5243 H 471.017 -3.82336 1.4943 0
M  V30 5244 H 469.678 -3.08531 0.588824 0
M  V30 5245 H 468.871 -4.29256 2.64113 0
M  V30 5246 H 468.473 -2.56085 2.72574 0
M  V30 5247 H 470.765 -5.46006 4.01103 0
M  V30 5248 H 471.708 -4.67558 5.31785 0
M  V30 5249 H 472.116 -4.34079 3.60881 0
M  V30 5250 N 471.514 -1.37532 -0.769588 0
M  V30 5251 C 472.424 -1.35668 -1.91393 0
M  V30 5252 C 473.44 -0.255954 -1.72107 0
M  V30 5253 O 474.616 -0.491704 -1.95305 0
M  V30 5254 C 471.681 -1.16481 -3.26547 0
M  V30 5255 C 470.742 -2.36212 -3.58472 0
M  V30 5256 C 469.975 -2.17932 -4.87177 0
M  V30 5257 O 470.198 -1.1647 -5.58382 0
M  V30 5258 O 469.132 -3.06167 -5.18214 0
M  V30 5259 H 472.958 -2.32055 -1.95918 0
M  V30 5260 H 470.543 -1.18284 -0.912641 0
M  V30 5261 H 472.425 -1.07778 -4.07384 0
M  V30 5262 H 471.1 -0.231687 -3.2287 0
M  V30 5263 H 470.007 -2.50488 -2.77861 0
M  V30 5264 H 471.34 -3.281 -3.66894 0
M  V30 5265 N 472.992 0.995999 -1.22138 0
M  V30 5266 C 474.238 1.73767 -1.04561 0
M  V30 5267 C 474.571 1.89633 0.418698 0
M  V30 5268 O 473.846 1.43723 1.3105 0
M  V30 5269 C 474.129 3.14505 -1.75382 0
M  V30 5270 C 473.982 3.06306 -3.29388 0
M  V30 5271 C 475.301 4.13615 -1.50369 0
M  V30 5272 H 472.42 0.630728 -0.38125 0
M  V30 5273 H 475.062 1.16057 -1.50435 0
M  V30 5274 H 473.212 3.63775 -1.36383 0
M  V30 5275 H 474.884 2.64681 -3.77812 0
M  V30 5276 H 473.127 2.43186 -3.59226 0
M  V30 5277 H 473.798 4.05884 -3.74116 0
M  V30 5278 H 476.274 3.73089 -1.84239 0
M  V30 5279 H 475.15 5.10212 -2.02421 0
M  V30 5280 H 475.411 4.39949 -0.435611 0
M  V30 5281 N 474.47 1.03057 1.19235 0
M  V30 5282 C 475.718 0.726581 1.88587 0
M  V30 5283 C 476.039 -0.747227 1.80115 0
M  V30 5284 O 475.309 -1.53849 1.21274 0
M  V30 5285 H 473.889 0.265768 0.698124 0
M  V30 5286 H 476.551 1.30516 1.44746 0
M  V30 5287 H 475.647 1.0224 2.94879 0
M  V30 5288 N 475.948 -1.35272 0.808662 0
M  V30 5289 C 476.88 -2.28507 0.178149 0
M  V30 5290 C 477.893 -1.50377 -0.623754 0
M  V30 5291 O 479.082 -1.72583 -0.455774 0
M  V30 5292 C 476.182 -3.30038 -0.769959 0
M  V30 5293 C 475.355 -4.37398 -0.0139749 0
M  V30 5294 C 474.414 -5.18775 -0.880875 0
M  V30 5295 O 473.44 -5.68236 -0.331059 0
M  V30 5296 N 474.642 -5.37087 -2.20267 0
M  V30 5297 H 477.407 -2.83255 0.979106 0
M  V30 5298 H 474.968 -1.47643 0.664308 0
M  V30 5299 H 476.96 -3.81371 -1.35418 0
M  V30 5300 H 475.53 -2.75789 -1.47171 0
M  V30 5301 H 474.75 -3.86971 0.751468 0
M  V30 5302 H 476.038 -5.06268 0.506965 0
M  V30 5303 H 475.436 -4.9855 -2.67328 0
M  V30 5304 H 473.993 -5.91593 -2.73608 0
M  V30 5305 N 477.426 -0.562348 -1.47226 0
M  V30 5306 C 478.656 -0.0451619 -2.06551 0
M  V30 5307 C 479.064 1.25626 -1.41473 0
M  V30 5308 O 478.407 1.76563 -0.507061 0
M  V30 5309 C 478.469 0.216068 -3.5885 0
M  V30 5310 C 478.133 -0.996691 -4.45999 0
M  V30 5311 C 479.13 -1.90358 -4.83797 0
M  V30 5312 C 476.815 -1.21281 -4.87438 0
M  V30 5313 C 478.809 -3.01023 -5.6184 0
M  V30 5314 C 476.496 -2.32255 -5.65244 0
M  V30 5315 C 477.494 -3.21956 -6.02356 0
M  V30 5316 O 477.182 -4.31005 -6.78594 0
M  V30 5317 H 476.914 -0.0451646 -0.67449 0
M  V30 5318 H 479.468 -0.776842 -1.90143 0
M  V30 5319 H 477.698 1.00212 -3.7349 0
M  V30 5320 H 479.387 0.679264 -4.00176 0
M  V30 5321 H 480.153 -1.74868 -4.52378 0
M  V30 5322 H 476.032 -0.523767 -4.58015 0
M  V30 5323 H 479.576 -3.71064 -5.90726 0
M  V30 5324 H 475.473 -2.47715 -5.96077 0
M  V30 5325 H 476.241 -4.29118 -6.96994 0
M  V30 5326 N 478.904 1.54736 -0.299062 0
M  V30 5327 C 480.153 1.99279 0.311549 0
M  V30 5328 C 480.466 1.19107 1.55154 0
M  V30 5329 O 481.672 1.53908 2.23662 0
M  V30 5330 C 480.128 3.54768 0.605632 0
M  V30 5331 C 479.736 4.43746 -0.615914 0
M  V30 5332 C 481.48 4.07841 1.17754 0
M  V30 5333 C 479.387 5.90663 -0.29509 0
M  V30 5334 H 478.317 0.744359 0.120187 0
M  V30 5335 H 480.968 1.78919 -0.407464 0
M  V30 5336 H 479.35 3.71021 1.38419 0
M  V30 5337 H 480.524 4.39267 -1.39218 0
M  V30 5338 H 478.839 4.01434 -1.10633 0
M  V30 5339 H 481.436 5.15174 1.43179 0
M  V30 5340 H 481.779 3.58324 2.11918 0
M  V30 5341 H 482.312 3.95123 0.460739 0
M  V30 5342 H 479.051 6.44325 -1.20524 0
M  V30 5343 H 478.571 5.98155 0.44394 0
M  V30 5344 H 480.25 6.46916 0.104048 0
M  V30 5345 N 480.382 0.0267497 1.57577 0
M  V30 5346 C 481.629 -0.652404 1.91703 0
M  V30 5347 C 481.957 -1.72271 0.902936 0
M  V30 5348 O 481.212 -1.955 -0.0884843 0
M  V30 5349 C 481.511 -1.30914 3.3256 0
M  V30 5350 C 481.177 -0.369441 4.49384 0
M  V30 5351 C 479.839 -0.110791 4.81072 0
M  V30 5352 C 482.191 0.275971 5.20469 0
M  V30 5353 C 479.519 0.801116 5.81205 0
M  V30 5354 C 481.871 1.17592 6.21575 0
M  V30 5355 C 480.535 1.44348 6.51705 0
M  V30 5356 H 479.805 -0.238732 0.70149 0
M  V30 5357 H 482.452 0.0880091 1.91298 0
M  V30 5358 H 480.757 -2.12425 3.29216 0
M  V30 5359 H 482.454 -1.84115 3.56234 0
M  V30 5360 H 479.044 -0.581211 4.24641 0
M  V30 5361 H 483.228 0.0892 4.9622 0
M  V30 5362 H 478.484 1.01614 6.02897 0
M  V30 5363 H 482.658 1.68223 6.75777 0
M  V30 5364 H 480.285 2.15176 7.29111 0
M  V30 5365 N 481.861 -1.55662 -0.24637 0
M  V30 5366 C 483.107 -1.77782 -0.975779 0
M  V30 5367 C 483.44 -0.592103 -1.84953 0
M  V30 5368 O 482.715 0.409588 -1.90138 0
M  V30 5369 C 482.998 -3.09788 -1.83584 0
M  V30 5370 C 482.851 -4.38764 -0.990241 0
M  V30 5371 C 484.17 -3.38029 -2.81823 0
M  V30 5372 H 481.289 -0.646789 -0.353317 0
M  V30 5373 H 483.931 -1.88398 -0.246248 0
M  V30 5374 H 482.081 -3.00869 -2.45784 0
M  V30 5375 H 483.753 -4.59675 -0.386897 0
M  V30 5376 H 481.996 -4.32798 -0.294626 0
M  V30 5377 H 482.667 -5.27514 -1.62584 0
M  V30 5378 H 485.143 -3.46915 -2.2976 0
M  V30 5379 H 484.019 -4.3161 -3.39122 0
M  V30 5380 H 484.28 -2.58968 -3.58313 0
M  V30 5381 N 483.339 0.512053 -1.4905 0
M  V30 5382 C 484.286 1.6148 -1.64902 0
M  V30 5383 C 485.256 1.58687 -0.490673 0
M  V30 5384 O 486.441 1.76842 -0.71636 0
M  V30 5385 C 483.581 2.99676 -1.71139 0
M  V30 5386 C 482.694 3.12568 -2.98203 0
M  V30 5387 C 481.829 4.4143 -2.95487 0
M  V30 5388 C 480.868 4.47916 -4.17179 0
M  V30 5389 N 480.005 5.68191 -4.12437 0
M  V30 5390 H 484.845 1.47271 -2.59066 0
M  V30 5391 H 482.382 0.716713 -1.28459 0
M  V30 5392 H 484.34 3.79761 -1.72736 0
M  V30 5393 H 482.97 3.12614 -0.804508 0
M  V30 5394 H 482.022 2.25618 -3.06269 0
M  V30 5395 H 483.334 3.1322 -3.88194 0
M  V30 5396 H 482.488 5.29825 -2.95585 0
M  V30 5397 H 481.227 4.43326 -2.03256 0
M  V30 5398 H 480.232 3.57925 -4.17337 0
M  V30 5399 H 481.457 4.47744 -5.1059 0
M  V30 5400 H 479.403 5.7095 -3.23036 0
M  V30 5401 H 479.32 5.70413 -4.96151 0
M  V30 5402 H 480.588 6.58823 -4.16621 0
M  V30 5403 N 484.817 1.37938 0.762283 0
M  V30 5404 C 486.057 1.35076 1.53407 0
M  V30 5405 C 486.421 -0.061546 1.91901 0
M  V30 5406 O 487.622 -0.214973 2.67939 0
M  V30 5407 C 485.893 2.27206 2.75884 0
M  V30 5408 S 487.452 2.42283 3.65848 0
M  V30 5409 H 484.27 0.479387 0.52508 0
M  V30 5410 H 486.872 1.7378 0.895586 0
M  V30 5411 H 485.576 3.28724 2.457 0
M  V30 5412 H 485.107 1.8962 3.44685 0
M  V30 5413 H 487.122 1.64044 4.68299 0
M  V30 5414 N 486.295 -0.989507 1.22664 0
M  V30 5415 C 487.706 -1.54406 1.04955 0
M  V30 5416 C 488.057 -1.92366 -0.385951 0
M  V30 5417 O 487.182 -1.75111 -1.27142 0
M  V30 5418 C 487.777 -2.80578 1.89899 0
M  V30 5419 C 486.336 -3.32464 1.76478 0
M  V30 5420 C 485.483 -2.05524 1.86159 0
M  V30 5421 H 488.434 -0.810211 1.3646 0
M  V30 5422 H 488.455 -3.53075 1.4184 0
M  V30 5423 H 487.967 -2.52918 2.94371 0
M  V30 5424 H 486.068 -3.65024 0.747528 0
M  V30 5425 H 486.181 -4.02838 2.59342 0
M  V30 5426 H 484.545 -2.19241 1.29636 0
M  V30 5427 H 485.328 -1.80258 2.92168 0
M  V30 5428 N 487.773 -1.03688 -1.18687 0
M  V30 5429 C 488.72 -0.624624 -2.22187 0
M  V30 5430 C 489.69 0.365636 -1.62026 0
M  V30 5431 O 490.875 0.260481 -1.89014 0
M  V30 5432 C 488.015 0.0101738 -3.45099 0
M  V30 5433 C 487.128 -1.02709 -4.19613 0
M  V30 5434 C 486.263 -0.361213 -5.2997 0
M  V30 5435 C 485.302 -1.38384 -5.96252 0
M  V30 5436 N 484.439 -0.743196 -6.98155 0
M  V30 5437 H 489.279 -1.51176 -2.56807 0
M  V30 5438 H 486.816 -0.75636 -1.26165 0
M  V30 5439 H 488.774 0.395528 -4.15321 0
M  V30 5440 H 487.404 0.860848 -3.1111 0
M  V30 5441 H 486.456 -1.53043 -3.48256 0
M  V30 5442 H 487.768 -1.80398 -4.65036 0
M  V30 5443 H 486.922 0.0785537 -6.06649 0
M  V30 5444 H 485.661 0.447799 -4.8564 0
M  V30 5445 H 484.666 -1.83378 -5.18317 0
M  V30 5446 H 485.891 -2.19448 -6.42666 0
M  V30 5447 H 483.837 0.0455789 -6.55984 0
M  V30 5448 H 483.754 -1.45784 -7.41811 0
M  V30 5449 H 485.022 -0.327698 -7.78811 0
M  V30 5450 N 489.251 1.34841 -0.815825 0
M  V30 5451 C 490.497 1.98793 -0.401129 0
M  V30 5452 C 490.83 1.64548 1.03139 0
M  V30 5453 O 490.105 0.913487 1.71714 0
M  V30 5454 C 490.388 3.55143 -0.595409 0
M  V30 5455 C 490.241 3.99155 -2.07352 0
M  V30 5456 C 491.56 4.40092 -0.0268823 0
M  V30 5457 H 488.679 0.722146 -0.14722 0
M  V30 5458 H 491.321 1.59847 -1.02707 0
M  V30 5459 H 489.471 3.8845 -0.0625779 0
M  V30 5460 H 491.143 3.76216 -2.66945 0
M  V30 5461 H 489.386 3.49726 -2.56659 0
M  V30 5462 H 490.057 5.07971 -2.1603 0
M  V30 5463 H 492.533 4.13298 -0.482042 0
M  V30 5464 H 491.409 5.48562 -0.19267 0
M  V30 5465 H 491.67 4.29016 1.06759 0
M  V30 5466 N 490.729 0.570148 1.46925 0
M  V30 5467 C 491.954 0.0542592 2.07329 0
M  V30 5468 C 492.379 -1.23582 1.41806 0
M  V30 5469 O 491.737 -1.74341 0.497479 0
M  V30 5470 C 491.785 -0.111175 3.60429 0
M  V30 5471 O 490.889 -1.17071 3.95434 0
M  V30 5472 H 490.23 0.0571425 0.661537 0
M  V30 5473 H 492.76 0.789516 1.88753 0
M  V30 5474 H 492.77 -0.321315 4.06733 0
M  V30 5475 H 491.445 0.831012 4.07513 0
M  V30 5476 H 490.022 -0.940029 3.60857 0
M  V30 5477 N 492.207 -1.54576 0.307264 0
M  V30 5478 C 493.154 -2.23751 -0.56604 0
M  V30 5479 C 494.124 -1.22235 -1.12462 0
M  V30 5480 O 495.309 -1.50873 -1.16799 0
M  V30 5481 C 492.449 -2.98661 -1.72903 0
M  V30 5482 C 491.562 -4.14963 -1.20124 0
M  V30 5483 C 490.697 -4.77441 -2.3286 0
M  V30 5484 C 489.736 -5.85875 -1.77247 0
M  V30 5485 N 488.873 -6.42282 -2.8358 0
M  V30 5486 H 493.713 -2.97984 0.0304578 0
M  V30 5487 H 491.25 -1.47076 0.0268015 0
M  V30 5488 H 493.208 -3.40329 -2.41313 0
M  V30 5489 H 491.838 -2.26793 -2.29706 0
M  V30 5490 H 490.89 -3.78193 -0.409198 0
M  V30 5491 H 492.202 -4.93066 -0.754171 0
M  V30 5492 H 491.356 -5.21993 -3.09205 0
M  V30 5493 H 490.095 -3.98684 -2.80896 0
M  V30 5494 H 489.1 -5.40741 -0.993926 0
M  V30 5495 H 490.325 -6.6652 -1.30107 0
M  V30 5496 H 488.271 -5.66406 -3.30939 0
M  V30 5497 H 488.188 -7.1575 -2.43388 0
M  V30 5498 H 489.456 -6.91492 -3.59804 0
M  V30 5499 N 493.685 -0.035106 -1.57561 0
M  V30 5500 C 494.615 0.942993 -2.13612 0
M  V30 5501 C 495.596 1.33531 -1.05373 0
M  V30 5502 O 496.781 1.41287 -1.33235 0
M  V30 5503 C 493.911 2.22332 -2.66807 0
M  V30 5504 C 492.865 1.97156 -3.79886 0
M  V30 5505 C 492.191 3.31506 -4.19533 0
M  V30 5506 C 493.491 1.30596 -5.05709 0
M  V30 5507 H 495.185 0.476179 -2.95589 0
M  V30 5508 H 492.731 0.227602 -1.4219 0
M  V30 5509 H 494.684 2.91142 -3.04654 0
M  V30 5510 H 493.408 2.7119 -1.81999 0
M  V30 5511 H 492.067 1.30763 -3.42486 0
M  V30 5512 H 491.715 3.78134 -3.31698 0
M  V30 5513 H 491.415 3.15465 -4.95738 0
M  V30 5514 H 492.939 4.01574 -4.59968 0
M  V30 5515 H 494.353 1.89416 -5.41105 0
M  V30 5516 H 492.75 1.24934 -5.86951 0
M  V30 5517 H 493.82 0.279742 -4.84092 0
M  V30 5518 N 495.163 1.55791 0.238111 0
M  V30 5519 C 496.073 1.94196 1.31625 0
M  V30 5520 C 497.089 0.843545 1.52185 0
M  V30 5521 O 498.265 1.1457 1.65637 0
M  V30 5522 C 495.33 2.2365 2.64918 0
M  V30 5523 C 494.391 3.46971 2.52804 0
M  V30 5524 C 493.624 3.7501 3.79741 0
M  V30 5525 O 493.847 3.04982 4.82019 0
M  V30 5526 O 492.781 4.68525 3.77846 0
M  V30 5527 H 496.607 2.86044 1.02043 0
M  V30 5528 H 494.192 1.42786 0.439603 0
M  V30 5529 H 496.074 2.43863 3.4367 0
M  V30 5530 H 494.749 1.34979 2.94215 0
M  V30 5531 H 493.656 3.32055 1.72309 0
M  V30 5532 H 494.989 4.35971 2.28451 0
M  V30 5533 N 496.642 -0.504142 1.49319 0
M  V30 5534 C 497.888 -1.25767 1.59857 0
M  V30 5535 C 498.243 -1.90348 0.280262 0
M  V30 5536 O 497.536 -1.77588 -0.719241 0
M  V30 5537 C 497.73 -2.35021 2.69258 0
M  V30 5538 C 497.559 -1.81154 4.11598 0
M  V30 5539 C 496.329 -1.62596 4.78425 0
M  V30 5540 C 498.527 -1.3252 4.96934 0
M  V30 5541 N 496.509 -1.03625 6.05091 0
M  V30 5542 C 497.88 -0.856633 6.14054 0
M  V30 5543 C 499.935 -1.21063 4.82958 0
M  V30 5544 C 498.638 -0.284841 7.18736 0
M  V30 5545 C 500.664 -0.652815 5.87786 0
M  V30 5546 C 500.026 -0.194461 7.04132 0
M  V30 5547 H 496.125 -0.450293 0.639343 0
M  V30 5548 H 498.709 -0.565344 1.86311 0
M  V30 5549 H 496.88 -3.01719 2.44581 0
M  V30 5550 H 498.612 -3.02061 2.69335 0
M  V30 5551 H 495.367 -1.86873 4.35173 0
M  V30 5552 H 495.791 -0.76076 6.72712 0
M  V30 5553 H 500.433 -1.551 3.93324 0
M  V30 5554 H 498.151 0.0677979 8.08072 0
M  V30 5555 H 501.737 -0.566994 5.79031 0
M  V30 5556 H 500.617 0.230442 7.83861 0
M  V30 5557 N 498.12 -1.38341 -0.754957 0
M  V30 5558 C 499.07 -1.31964 -1.85929 0
M  V30 5559 C 500.054 -0.204181 -1.59599 0
M  V30 5560 O 501.246 -0.440036 -1.71443 0
M  V30 5561 C 498.375 -1.14565 -3.2362 0
M  V30 5562 C 497.461 -2.30727 -3.55846 0
M  V30 5563 N 497.852 -3.56165 -3.59138 0
M  V30 5564 C 496.15 -2.23249 -3.86104 0
M  V30 5565 C 496.851 -4.32865 -3.88591 0
M  V30 5566 N 495.827 -3.62203 -4.05351 0
M  V30 5567 H 499.629 -2.2694 -1.8675 0
M  V30 5568 H 497.143 -1.31553 -0.952243 0
M  V30 5569 H 499.14 -1.0808 -4.02647 0
M  V30 5570 H 497.8 -0.205212 -3.24051 0
M  V30 5571 H 498.811 -3.89854 -3.40932 0
M  V30 5572 H 495.488 -1.37357 -3.94258 0
M  V30 5573 H 496.878 -5.41504 -3.97773 0
M  V30 5574 N 499.598 0.982988 -1.23187 0
M  V30 5575 C 501.009 1.53847 -1.05773 0
M  V30 5576 C 501.36 1.92568 0.375744 0
M  V30 5577 O 500.485 1.75783 1.26211 0
M  V30 5578 C 501.08 2.79567 -1.91384 0
M  V30 5579 C 499.639 3.31524 -1.78238 0
M  V30 5580 C 498.786 2.04534 -1.87246 0
M  V30 5581 H 501.737 0.802962 -1.36888 0
M  V30 5582 H 501.758 3.52317 -1.43711 0
M  V30 5583 H 501.27 2.51353 -2.95708 0
M  V30 5584 H 499.371 3.64623 -0.766875 0
M  V30 5585 H 499.484 4.01457 -2.61475 0
M  V30 5586 H 497.848 2.1855 -1.30797 0
M  V30 5587 H 498.631 1.78706 -2.9312 0
M  V30 5588 N 501.076 1.04316 1.18135 0
M  V30 5589 C 502.323 0.74802 1.88178 0
M  V30 5590 C 502.651 -0.72441 1.80506 0
M  V30 5591 O 501.906 -1.54463 1.20165 0
M  V30 5592 C 502.205 1.16271 3.37958 0
M  V30 5593 C 501.871 2.63585 3.65833 0
M  V30 5594 C 500.533 3.03829 3.73151 0
M  V30 5595 C 502.885 3.58822 3.78016 0
M  V30 5596 C 500.213 4.38194 3.90132 0
M  V30 5597 C 502.565 4.92909 3.96514 0
M  V30 5598 C 501.229 5.3282 4.02068 0
M  V30 5599 H 500.499 0.27372 0.688592 0
M  V30 5600 H 503.146 1.30863 1.39811 0
M  V30 5601 H 501.451 0.520938 3.88321 0
M  V30 5602 H 503.148 0.911672 3.90499 0
M  V30 5603 H 499.738 2.31414 3.60757 0
M  V30 5604 H 503.922 3.28875 3.71692 0
M  V30 5605 H 499.178 4.68631 3.92677 0
M  V30 5606 H 503.352 5.66606 4.04883 0
M  V30 5607 H 500.979 6.36943 4.14979 0
M  V30 5608 N 502.554 -1.34406 0.822964 0
M  V30 5609 C 503.782 -2.02508 0.424039 0
M  V30 5610 C 504.197 -1.61975 -0.970022 0
M  V30 5611 O 503.554 -0.825228 -1.62777 0
M  V30 5612 C 503.605 -3.57789 0.516657 0
M  V30 5613 O 503.326 -3.96853 1.85577 0
M  V30 5614 C 504.827 -4.43157 0.112637 0
M  V30 5615 H 502.047 -0.649063 0.170173 0
M  V30 5616 H 504.591 -1.7168 1.11113 0
M  V30 5617 H 502.746 -3.87207 -0.122353 0
M  V30 5618 H 503.16 -4.91538 1.83005 0
M  V30 5619 H 504.634 -5.51527 0.228526 0
M  V30 5620 H 505.111 -4.28939 -0.943837 0
M  V30 5621 H 505.717 -4.19067 0.725449 0
M  V30 5622 N 504.032 -0.577932 -1.46621 0
M  V30 5623 C 504.962 0.145917 -2.33044 0
M  V30 5624 C 505.943 0.888412 -1.45056 0
M  V30 5625 O 507.128 0.864812 -1.73881 0
M  V30 5626 C 504.258 1.16322 -3.27241 0
M  V30 5627 C 503.212 0.535868 -4.24632 0
M  V30 5628 C 502.538 1.65929 -5.08303 0
M  V30 5629 C 503.838 -0.523861 -5.19666 0
M  V30 5630 H 505.532 -0.575636 -2.93814 0
M  V30 5631 H 503.078 -0.278272 -1.41286 0
M  V30 5632 H 505.031 1.67793 -3.86553 0
M  V30 5633 H 503.755 1.91498 -2.64567 0
M  V30 5634 H 502.414 0.0422759 -3.66576 0
M  V30 5635 H 502.062 2.40061 -4.42018 0
M  V30 5636 H 501.762 1.2452 -5.74255 0
M  V30 5637 H 503.286 2.17686 -5.70478 0
M  V30 5638 H 504.7 -0.0944059 -5.73222 0
M  V30 5639 H 503.097 -0.858 -5.93935 0
M  V30 5640 H 504.167 -1.41197 -4.63887 0
M  V30 5641 N 505.51 1.54411 -0.315457 0
M  V30 5642 C 506.738 2.04833 0.291738 0
M  V30 5643 C 507.153 1.19203 1.46411 0
M  V30 5644 O 506.51 0.220867 1.81159 0
M  V30 5645 C 506.561 3.53969 0.73404 0
M  V30 5646 O 506.282 4.36346 -0.391682 0
M  V30 5647 C 507.783 4.2045 1.40489 0
M  V30 5648 H 505.003 0.668195 0.0612947 0
M  V30 5649 H 507.547 1.99276 -0.45929 0
M  V30 5650 H 505.702 3.5984 1.43506 0
M  V30 5651 H 506.116 5.24481 -0.0447088 0
M  V30 5652 H 507.59 5.26278 1.66539 0
M  V30 5653 H 508.067 3.71067 2.3496 0
M  V30 5654 H 508.673 4.18694 0.746662 0
M  V30 5655 N 506.988 0.0434614 1.5754 0
M  V30 5656 C 508.213 -0.645358 1.97104 0
M  V30 5657 C 508.638 -1.64037 0.920521 0
M  V30 5658 O 507.996 -1.80922 -0.11708 0
M  V30 5659 C 508.044 -1.31547 3.35749 0
M  V30 5660 O 507.148 -2.43103 3.33129 0
M  V30 5661 H 506.489 -0.168403 0.64229 0
M  V30 5662 H 509.019 0.109573 2.04306 0
M  V30 5663 H 509.029 -1.66895 3.72304 0
M  V30 5664 H 507.704 -0.586205 4.11748 0
M  V30 5665 H 506.281 -2.0976 3.0831 0
M  V30 5666 N 508.466 -1.55915 -0.229846 0
M  V30 5667 C 509.429 -1.90914 -1.26824 0
M  V30 5668 C 510.429 -0.786999 -1.40225 0
M  V30 5669 O 511.619 -1.05484 -1.38632 0
M  V30 5670 C 508.751 -2.15264 -2.64337 0
M  V30 5671 H 509.944 -2.8378 -0.969998 0
M  V30 5672 H 507.497 -1.49069 -0.4699 0
M  V30 5673 H 508.232 -1.24923 -2.99274 0
M  V30 5674 H 508.017 -2.97005 -2.55989 0
M  V30 5675 H 509.507 -2.43467 -3.39284 0
M  V30 5676 N 509.944 0.496216 -1.49584 0
M  V30 5677 C 511.355 1.07765 -1.52459 0
M  V30 5678 C 511.706 1.93679 -0.31353 0
M  V30 5679 O 510.831 2.08588 0.576186 0
M  V30 5680 C 511.426 1.96111 -2.76271 0
M  V30 5681 C 509.985 2.49409 -2.81908 0
M  V30 5682 C 509.132 1.27142 -2.46435 0
M  V30 5683 H 512.083 0.279914 -1.56212 0
M  V30 5684 H 512.104 2.80862 -2.56704 0
M  V30 5685 H 511.616 1.33555 -3.64396 0
M  V30 5686 H 509.717 3.1559 -1.98074 0
M  V30 5687 H 509.83 2.86234 -3.84196 0
M  V30 5688 H 508.194 1.59818 -1.98319 0
M  V30 5689 H 508.977 0.662866 -3.3684 0
M  V30 5690 N 511.423 1.38739 0.74761 0
M  V30 5691 C 512.333 1.38696 1.89211 0
M  V30 5692 C 513.349 0.283303 1.71678 0
M  V30 5693 O 514.525 0.522713 1.94498 0
M  V30 5694 C 511.59 1.21662 3.24653 0
M  V30 5695 C 510.651 2.41886 3.54669 0
M  V30 5696 C 509.884 2.25655 4.83648 0
M  V30 5697 O 510.107 1.25339 5.56459 0
M  V30 5698 O 509.041 3.14372 5.13277 0
M  V30 5699 H 512.867 2.35143 1.92202 0
M  V30 5700 H 510.452 1.19721 0.893708 0
M  V30 5701 H 512.334 1.14246 4.05618 0
M  V30 5702 H 511.009 0.283024 3.2246 0
M  V30 5703 H 509.916 2.54877 2.73841 0
M  V30 5704 H 511.249 3.33895 3.61628 0
M  V30 5705 N 512.901 -0.976442 1.23707 0
M  V30 5706 C 513.811 -2.10359 1.03856 0
M  V30 5707 C 514.827 -1.73991 -0.0180919 0
M  V30 5708 O 516.003 -2.0061 0.178211 0
M  V30 5709 C 513.068 -3.40809 0.636387 0
M  V30 5710 C 512.129 -3.91179 1.76854 0
M  V30 5711 C 511.362 -5.15404 1.38546 0
M  V30 5712 O 511.585 -5.69754 0.27142 0
M  V30 5713 O 510.519 -5.5994 2.20797 0
M  V30 5714 H 514.345 -2.29997 1.98331 0
M  V30 5715 H 511.93 -1.08742 1.02448 0
M  V30 5716 H 513.812 -4.19269 0.423223 0
M  V30 5717 H 512.487 -3.22493 -0.279322 0
M  V30 5718 H 511.394 -3.13819 2.03638 0
M  V30 5719 H 512.727 -4.13958 2.6627 0
M  V30 5720 N 514.379 -1.04941 -1.1758 0
M  V30 5721 C 515.656 -0.671918 -1.83697 0
M  V30 5722 C 516.036 0.847929 -1.93322 0
M  V30 5723 O 515.384 1.75287 -1.46583 0
M  V30 5724 C 515.594 -1.35797 -3.21497 0
M  V30 5725 C 516.942 -1.4944 -3.97433 0
M  V30 5726 O 517.966 -1.31678 -3.30967 0
M  V30 5727 O 516.825 -1.78463 -5.1654 0
M  V30 5728 H 513.919 -0.236212 -0.792548 0
M  V30 5729 H 516.465 -1.14884 -1.24899 0
M  V30 5730 H 515.237 -2.39498 -3.09446 0
M  V30 5731 H 514.86 -0.870236 -3.8796 0
M  V30 5732 N 515.857 1.33968 -0.830081 0
M  V30 5733 C 517.104 1.98063 -0.421566 0
M  V30 5734 C 517.432 1.65787 1.0171 0
M  V30 5735 O 516.687 0.925348 1.72441 0
M  V30 5736 C 516.986 3.52679 -0.57898 0
M  V30 5737 C 516.652 4.04884 -1.98443 0
M  V30 5738 C 515.314 4.18852 -2.36888 0
M  V30 5739 C 517.666 4.32879 -2.90285 0
M  V30 5740 C 514.994 4.58145 -3.66497 0
M  V30 5741 C 517.346 4.7362 -4.19364 0
M  V30 5742 C 516.01 4.85794 -4.57778 0
M  V30 5743 H 515.28 0.724765 -0.154262 0
M  V30 5744 H 517.927 1.59792 -1.05541 0
M  V30 5745 H 516.232 3.91556 0.138219 0
M  V30 5746 H 517.929 4.00261 -0.243317 0
M  V30 5747 H 514.519 3.9448 -1.67581 0
M  V30 5748 H 518.703 4.21619 -2.61823 0
M  V30 5749 H 513.959 4.65762 -3.96075 0
M  V30 5750 H 518.133 4.9424 -4.90612 0
M  V30 5751 H 515.76 5.15998 -5.58256 0
M  V30 5752 N 517.335 0.585699 1.46312 0
M  V30 5753 C 518.582 0.0724211 2.0237 0
M  V30 5754 C 518.91 -1.28868 1.45683 0
M  V30 5755 O 518.165 -1.85853 0.612945 0
M  V30 5756 C 518.464 -0.0401312 3.57377 0
M  V30 5757 C 518.13 1.25376 4.33119 0
M  V30 5758 C 516.792 1.60824 4.5353 0
M  V30 5759 C 519.144 2.10987 4.76586 0
M  V30 5760 C 516.472 2.81676 5.14661 0
M  V30 5761 C 518.824 3.31068 5.39052 0
M  V30 5762 C 517.488 3.66794 5.5769 0
M  V30 5763 H 516.758 0.0265007 0.740526 0
M  V30 5764 H 519.405 0.762935 1.75646 0
M  V30 5765 H 517.71 -0.813791 3.83255 0
M  V30 5766 H 519.407 -0.453078 3.98432 0
M  V30 5767 H 515.997 0.967808 4.1753 0
M  V30 5768 H 520.181 1.84904 4.60569 0
M  V30 5769 H 515.437 3.0949 5.27282 0
M  V30 5770 H 519.611 3.97672 5.71691 0
M  V30 5771 H 517.238 4.60529 6.04828 0
M  V30 5772 N 518.813 -1.54241 0.323641 0
M  V30 5773 C 520.038 -2.05452 -0.283605 0
M  V30 5774 C 520.463 -1.19823 -1.44997 0
M  V30 5775 O 519.821 -0.207358 -1.8011 0
M  V30 5776 C 519.869 -3.53823 -0.695795 0
M  V30 5777 O 518.973 -3.71134 -1.79815 0
M  V30 5778 H 518.314 -0.662024 -0.0511917 0
M  V30 5779 H 520.844 -1.99079 0.472073 0
M  V30 5780 H 520.854 -3.96094 -0.978434 0
M  V30 5781 H 519.529 -4.15602 0.157287 0
M  V30 5782 H 518.106 -3.40768 -1.51431 0
M  V30 5783 N 520.291 -0.0518155 -1.57515 0
M  V30 5784 C 521.54 0.621286 -1.91893 0
M  V30 5785 C 521.853 1.71966 -0.932052 0
M  V30 5786 O 523.059 2.45096 -1.16791 0
M  V30 5787 C 521.515 1.15641 -3.40816 0
M  V30 5788 C 521.123 0.0901146 -4.47909 0
M  V30 5789 C 522.867 1.80472 -3.84227 0
M  V30 5790 C 520.774 0.638154 -5.87947 0
M  V30 5791 H 519.704 0.235835 -0.716169 0
M  V30 5792 H 522.355 -0.120809 -1.83102 0
M  V30 5793 H 520.737 1.95084 -3.44613 0
M  V30 5794 H 521.911 -0.683525 -4.55702 0
M  V30 5795 H 520.226 -0.460774 -4.13843 0
M  V30 5796 H 522.823 2.22471 -4.86221 0
M  V30 5797 H 523.166 2.65669 -3.20508 0
M  V30 5798 H 523.699 1.07683 -3.82948 0
M  V30 5799 H 520.438 -0.176202 -6.55263 0
M  V30 5800 H 519.958 1.37976 -5.83714 0
M  V30 5801 H 521.637 1.12085 -6.37217 0
M  V30 5802 N 521.769 1.56035 0.221574 0
M  V30 5803 C 522.719 1.8881 1.27807 0
M  V30 5804 C 523.703 0.751177 1.42289 0
M  V30 5805 O 524.895 1.01359 1.45104 0
M  V30 5806 C 522.024 2.20828 2.6285 0
M  V30 5807 C 521.11 3.40912 2.52269 0
M  V30 5808 N 521.501 4.59531 2.1134 0
M  V30 5809 C 519.799 3.44526 2.83228 0
M  V30 5810 C 520.5 5.41689 2.1201 0
M  V30 5811 N 519.476 4.814 2.52497 0
M  V30 5812 H 523.278 2.78036 0.952529 0
M  V30 5813 H 520.792 1.566 0.430134 0
M  V30 5814 H 522.789 2.42483 3.39127 0
M  V30 5815 H 521.449 1.32914 2.9625 0
M  V30 5816 H 522.46 4.8469 1.82472 0
M  V30 5817 H 519.137 2.66956 3.21 0
M  V30 5818 H 520.527 6.46643 1.82491 0
M  V30 5819 N 523.247 -0.488276 1.49845 0
M  V30 5820 C 524.496 -1.23826 1.59217 0
M  V30 5821 C 524.809 -1.93439 0.289966 0
M  V30 5822 O 526.015 -2.70229 0.262382 0
M  V30 5823 C 524.471 -2.24902 2.80976 0
M  V30 5824 C 524.079 -1.6117 4.18005 0
M  V30 5825 C 525.823 -3.00648 2.99685 0
M  V30 5826 C 523.73 -2.60431 5.3097 0
M  V30 5827 H 522.66 -0.465858 0.592868 0
M  V30 5828 H 525.311 -0.510645 1.76252 0
M  V30 5829 H 523.693 -3.0088 2.57463 0
M  V30 5830 H 524.867 -0.910968 4.51706 0
M  V30 5831 H 523.182 -0.97767 4.0476 0
M  V30 5832 H 525.779 -3.74903 3.81251 0
M  V30 5833 H 526.122 -3.5902 2.10738 0
M  V30 5834 H 526.655 -2.31784 3.23297 0
M  V30 5835 H 523.394 -2.06823 6.22017 0
M  V30 5836 H 522.914 -3.28707 5.01709 0
M  V30 5837 H 524.593 -3.22606 5.60834 0
M  V30 5838 N 524.725 -1.39134 -0.740242 0
M  V30 5839 C 526.141 -1.20623 -1.0451 0
M  V30 5840 C 526.341 -0.0641651 -2.01398 0
M  V30 5841 O 525.397 0.585843 -2.4561 0
M  V30 5842 C 526.71 -2.53815 -1.6124 0
M  V30 5843 C 528.258 -2.60615 -1.73346 0
M  V30 5844 C 528.733 -3.94015 -2.33486 0
M  V30 5845 N 530.224 -3.95627 -2.40902 0
M  V30 5846 C 530.959 -4.95616 -2.88361 0
M  V30 5847 N 530.455 -6.06003 -3.35756 0
M  V30 5848 N 532.248 -4.82998 -2.87523 0
M  V30 5849 H 524.399 -2.12176 -0.0975576 0
M  V30 5850 H 526.662 -0.942066 -0.105904 0
M  V30 5851 H 526.368 -3.37911 -0.975144 0
M  V30 5852 H 526.242 -2.73162 -2.6012 0
M  V30 5853 H 528.629 -1.76906 -2.36195 0
M  V30 5854 H 528.71 -2.45123 -0.731336 0
M  V30 5855 H 528.354 -4.78153 -1.71267 0
M  V30 5856 H 528.284 -4.06825 -3.34366 0
M  V30 5857 H 530.775 -3.15903 -2.07398 0
M  V30 5858 H 531.088 -6.78215 -3.70464 0
M  V30 5859 H 529.433 -6.09604 -3.33778 0
M  V30 5860 H 532.624 -3.95866 -2.49816 0
M  V30 5861 H 532.797 -5.61072 -3.24196 0
M  V30 5862 N 526.204 0.969867 -1.24223 0
M  V30 5863 C 527.453 1.70687 -1.07466 0
M  V30 5864 C 527.766 1.91736 0.386861 0
M  V30 5865 O 528.972 2.62986 0.674581 0
M  V30 5866 C 527.428 3.07217 -1.87472 0
M  V30 5867 C 527.036 2.94018 -3.3802 0
M  V30 5868 C 528.78 3.84804 -1.79237 0
M  V30 5869 C 526.687 4.25844 -4.10379 0
M  V30 5870 H 525.617 0.640067 -0.398536 0
M  V30 5871 H 528.268 1.08092 -1.48285 0
M  V30 5872 H 526.65 3.70628 -1.39466 0
M  V30 5873 H 527.824 2.39632 -3.9359 0
M  V30 5874 H 526.139 2.29898 -3.47183 0
M  V30 5875 H 528.736 4.82417 -2.30603 0
M  V30 5876 H 529.079 4.09356 -0.757197 0
M  V30 5877 H 529.612 3.28115 -2.24912 0
M  V30 5878 H 526.351 4.06486 -5.14246 0
M  V30 5879 H 525.871 4.80054 -3.59594 0
M  V30 5880 H 527.55 4.94475 -4.17257 0
M  V30 5881 N 527.682 1.05563 1.17022 0
M  V30 5882 C 528.928 0.769074 1.87652 0
M  V30 5883 C 529.261 -0.702326 1.81055 0
M  V30 5884 O 528.536 -1.5139 1.22112 0
M  V30 5885 C 528.819 1.25492 3.37526 0
M  V30 5886 C 528.672 2.78953 3.52853 0
M  V30 5887 C 529.991 0.856919 4.31677 0
M  V30 5888 H 527.11 0.280854 0.681388 0
M  V30 5889 H 529.752 1.31027 1.37593 0
M  V30 5890 H 527.902 0.794516 3.80289 0
M  V30 5891 H 529.574 3.33146 3.19079 0
M  V30 5892 H 527.817 3.18046 2.95007 0
M  V30 5893 H 528.488 3.08011 4.58076 0
M  V30 5894 H 530.964 1.25334 3.96775 0
M  V30 5895 H 529.84 1.22443 5.35069 0
M  V30 5896 H 530.101 -0.238787 4.41455 0
M  V30 5897 N 529.16 -1.33526 0.837174 0
M  V30 5898 C 530.408 -1.97446 0.431211 0
M  V30 5899 C 530.729 -1.6665 -1.01255 0
M  V30 5900 O 529.999 -0.964559 -1.70508 0
M  V30 5901 H 528.579 -0.73043 0.156463 0
M  V30 5902 H 531.241 -1.62918 1.06976 0
M  V30 5903 H 530.337 -3.07001 0.561877 0
M  V30 5904 N 530.638 -0.59345 -1.46 0
M  V30 5905 C 531.915 -0.0157933 -1.95594 0
M  V30 5906 C 532.295 1.44807 -1.53604 0
M  V30 5907 O 531.643 2.14342 -0.791824 0
M  V30 5908 C 531.853 -0.199081 -3.48432 0
M  V30 5909 C 533.201 -0.0724943 -4.24538 0
M  V30 5910 O 534.225 -0.128469 -3.55968 0
M  V30 5911 O 533.084 0.0542426 -5.46473 0
M  V30 5912 H 530.178 0.043749 -0.825842 0
M  V30 5913 H 532.724 -0.662522 -1.56233 0
M  V30 5914 H 531.496 -1.21631 -3.71916 0
M  V30 5915 H 531.119 0.483576 -3.94648 0
M  V30 5916 N 532.116 1.54067 -0.331816 0
M  V30 5917 C 533.362 2.01713 0.261395 0
M  V30 5918 C 533.717 1.21566 1.49129 0
M  V30 5919 O 533.01 0.291867 1.89364 0
M  V30 5920 C 533.204 3.51634 0.639392 0
M  V30 5921 C 533.033 4.46295 -0.552321 0
M  V30 5922 C 531.803 4.94185 -1.05399 0
M  V30 5923 C 534.001 4.94677 -1.40711 0
M  V30 5924 N 531.983 5.7277 -2.20925 0
M  V30 5925 C 533.354 5.71267 -2.40943 0
M  V30 5926 C 535.409 4.76805 -1.43392 0
M  V30 5927 C 534.112 6.31889 -3.4367 0
M  V30 5928 C 536.138 5.38268 -2.44994 0
M  V30 5929 C 535.5 6.14716 -3.43952 0
M  V30 5930 H 531.599 0.77975 0.0592729 0
M  V30 5931 H 534.183 1.88974 -0.468726 0
M  V30 5932 H 532.354 3.64603 1.33863 0
M  V30 5933 H 534.086 3.86038 1.21478 0
M  V30 5934 H 530.841 4.69472 -0.623952 0
M  V30 5935 H 531.265 6.16737 -2.79222 0
M  V30 5936 H 535.907 4.17255 -0.682489 0
M  V30 5937 H 533.625 6.90554 -4.19715 0
M  V30 5938 H 537.211 5.26352 -2.4788 0
M  V30 5939 H 536.091 6.6143 -4.21283 0
M  V30 5940 N 533.594 0.0601682 1.57485 0
M  V30 5941 C 534.822 -0.620937 1.97363 0
M  V30 5942 C 535.237 -1.63846 0.938082 0
M  V30 5943 O 534.594 -1.82339 -0.0766578 0
M  V30 5944 C 534.645 -1.29987 3.37321 0
M  V30 5945 O 534.366 -0.323081 4.36907 0
M  V30 5946 C 535.867 -2.06989 3.92008 0
M  V30 5947 H 533.087 -0.169135 0.649334 0
M  V30 5948 H 535.631 0.129132 2.04092 0
M  V30 5949 H 533.786 -2.0011 3.31715 0
M  V30 5950 H 534.2 -0.808754 5.18227 0
M  V30 5951 H 535.674 -2.49901 4.92192 0
M  V30 5952 H 536.151 -2.92173 3.2792 0
M  V30 5953 H 536.757 -1.41757 4.0098 0
M  V30 5954 N 535.072 -1.5615 -0.213296 0
M  V30 5955 C 535.982 -1.96265 -1.28519 0
M  V30 5956 C 536.998 -0.86765 -1.50824 0
M  V30 5957 O 538.174 -1.17191 -1.63793 0
M  V30 5958 C 535.239 -2.27836 -2.61327 0
M  V30 5959 C 534.3 -3.50949 -2.47252 0
M  V30 5960 C 533.533 -3.81004 -3.73727 0
M  V30 5961 O 533.756 -3.12612 -4.77106 0
M  V30 5962 O 532.69 -4.74477 -3.70344 0
M  V30 5963 H 536.516 -2.87631 -0.974795 0
M  V30 5964 H 534.101 -1.43467 -0.416832 0
M  V30 5965 H 535.983 -2.49299 -3.39747 0
M  V30 5966 H 534.658 -1.39643 -2.9203 0
M  V30 5967 H 533.565 -3.34754 -1.67004 0
M  V30 5968 H 534.898 -4.39551 -2.21486 0
M  V30 5969 N 536.55 0.480323 -1.50102 0
M  V30 5970 C 537.798 1.23063 -1.60312 0
M  V30 5971 C 538.119 1.92659 -0.301226 0
M  V30 5972 O 537.389 1.83691 0.680753 0
M  V30 5973 H 535.969 0.457231 -0.590719 0
M  V30 5974 H 538.631 0.554893 -1.86834 0
M  V30 5975 H 537.727 1.9835 -2.40964 0
M  V30 5976 N 538.028 1.39524 0.732853 0
M  V30 5977 C 538.958 1.41153 1.86005 0
M  V30 5978 C 539.939 0.274614 1.67869 0
M  V30 5979 O 541.124 0.480745 1.88155 0
M  V30 5980 C 538.254 1.25638 3.23778 0
M  V30 5981 C 537.208 2.36752 3.56556 0
M  V30 5982 C 536.534 2.06326 4.93289 0
M  V30 5983 C 537.834 3.79069 3.5931 0
M  V30 5984 H 539.528 2.35484 1.84899 0
M  V30 5985 H 537.074 1.13348 0.888162 0
M  V30 5986 H 539.027 1.25398 4.0231 0
M  V30 5987 H 537.751 0.277772 3.25417 0
M  V30 5988 H 536.41 2.36213 2.80355 0
M  V30 5989 H 536.058 1.06897 4.9151 0
M  V30 5990 H 535.758 2.80757 5.16187 0
M  V30 5991 H 537.282 2.07739 5.74175 0
M  V30 5992 H 538.696 3.81526 4.27914 0
M  V30 5993 H 537.093 4.52878 3.93728 0
M  V30 5994 H 538.163 4.09893 2.59068 0
M  V30 5995 N 539.506 -0.963266 1.24736 0
M  V30 5996 C 540.753 -1.7068 1.0897 0
M  V30 5997 C 541.081 -1.90934 -0.370751 0
M  V30 5998 O 540.336 -1.47155 -1.29011 0
M  V30 5999 C 540.635 -3.09944 1.7796 0
M  V30 6000 C 540.301 -3.09518 3.27887 0
M  V30 6001 C 538.963 -3.09109 3.68789 0
M  V30 6002 C 541.315 -3.03509 4.23712 0
M  V30 6003 C 538.643 -3.00429 5.03944 0
M  V30 6004 C 540.995 -2.96371 5.5888 0
M  V30 6005 C 539.659 -2.94293 5.99123 0
M  V30 6006 H 538.929 -0.624564 0.398749 0
M  V30 6007 H 541.576 -1.12603 1.54896 0
M  V30 6008 H 539.881 -3.71513 1.2444 0
M  V30 6009 H 541.578 -3.66278 1.63222 0
M  V30 6010 H 538.168 -3.10603 2.95337 0
M  V30 6011 H 542.352 -3.0295 3.93109 0
M  V30 6012 H 537.608 -2.97183 5.34314 0
M  V30 6013 H 541.782 -2.90681 6.32833 0
M  V30 6014 H 539.409 -2.87322 7.03811 0
M  V30 6015 N 540.985 -1.06182 -1.16461 0
M  V30 6016 C 541.933 -0.665716 -2.2287 0
M  V30 6017 C 542.927 0.317822 -1.66392 0
M  V30 6018 O 544.133 0.182807 -1.79069 0
M  V30 6019 H 540.508 -0.197148 -0.725697 0
M  V30 6020 H 542.479 -1.57307 -2.53569 0
M  V30 6021 C 541.228 -0.0669803 -3.47635 0
M  V30 6022 H 540.551 -0.814899 -3.91407 0
M  V30 6023 H 541.991 0.172669 -4.23648 0
M  V30 6024 C 540.45 1.18913 -3.15216 0
M  V30 6025 O 540.98 2.27723 -3.30916 0
M  V30 6026 N 539.186 1.09066 -2.69357 0
M  V30 6027 H 538.733 0.20518 -2.56782 0
M  V30 6028 H 538.691 1.93195 -2.48039 0
M  V30 6029 N 542.463 1.3308 -0.844243 0
M  V30 6030 C 543.426 2.27403 -0.286485 0
M  V30 6031 C 544.426 1.51179 0.547872 0
M  V30 6032 O 545.616 1.70421 0.360886 0
M  V30 6033 C 542.748 3.35653 0.595813 0
M  V30 6034 H 543.941 2.78248 -1.11885 0
M  V30 6035 H 541.494 1.43574 -0.617749 0
M  V30 6036 H 542.229 2.90058 1.4504 0
M  V30 6037 H 542.014 3.921 -0.00125994 0
M  V30 6038 H 543.504 4.05958 0.979168 0
M  V30 6039 N 543.941 0.601185 1.45683 0
M  V30 6040 C 545.181 0.0968037 2.04171 0
M  V30 6041 C 545.545 -1.2466 1.46027 0
M  V30 6042 O 546.746 -1.84132 1.95829 0
M  V30 6043 C 545.017 0.051384 3.57363 0
M  V30 6044 S 546.576 -0.392737 4.37039 0
M  V30 6045 H 543.394 0.0464504 0.709481 0
M  V30 6046 H 545.996 0.797846 1.78479 0
M  V30 6047 H 544.7 1.03274 3.97193 0
M  V30 6048 H 544.231 -0.671853 3.87621 0
M  V30 6049 H 546.246 -1.64364 4.68187 0
M  V30 6050 N 545.419 -1.53889 0.339982 0
M  V30 6051 C 546.667 -2.00458 -0.257112 0
M  V30 6052 C 546.988 -1.22953 -1.51353 0
M  V30 6053 O 546.258 -0.335734 -1.93002 0
M  V30 6054 H 544.838 -0.740544 -0.0979965 0
M  V30 6055 H 547.5 -1.89386 0.460317 0
M  V30 6056 H 546.596 -3.08035 -0.502057 0
M  V30 6057 N 546.897 -0.0685191 -1.57451 0
M  V30 6058 C 548.137 0.605038 -1.9524 0
M  V30 6059 C 548.501 1.66974 -0.947816 0
M  V30 6060 O 549.702 2.39862 -1.21325 0
M  V30 6061 C 547.973 1.16999 -3.37707 0
M  V30 6062 S 549.532 1.85913 -3.97469 0
M  V30 6063 H 546.35 0.198203 -0.682815 0
M  V30 6064 H 548.952 -0.141594 -1.94987 0
M  V30 6065 H 547.656 0.383205 -4.08607 0
M  V30 6066 H 547.187 1.95305 -3.41496 0
M  V30 6067 H 549.202 3.14128 -3.84107 0
M  V30 6068 N 548.375 1.56261 0.205012 0
M  V30 6069 C 549.652 1.70856 0.952233 0
M  V30 6070 C 550.032 0.620501 2.01775 0
M  V30 6071 O 549.38 -0.370035 2.25484 0
M  V30 6072 C 549.59 3.12807 1.54767 0
M  V30 6073 C 550.938 3.72733 2.0336 0
M  V30 6074 O 551.962 3.15873 1.64629 0
M  V30 6075 O 550.821 4.72501 2.746 0
M  V30 6076 H 547.915 0.696496 0.445895 0
M  V30 6077 H 550.461 1.6857 0.195489 0
M  V30 6078 H 549.233 3.83465 0.779132 0
M  V30 6079 H 548.856 3.1928 2.36951 0
M  V30 6080 N 549.853 -0.472356 1.50355 0
M  V30 6081 C 550.8 -1.57051 1.69126 0
M  V30 6082 C 551.77 -1.5733 0.532574 0
M  V30 6083 O 552.955 -1.7488 0.762994 0
M  V30 6084 C 550.095 -2.95033 1.79024 0
M  V30 6085 C 549.208 -3.04552 3.06386 0
M  V30 6086 C 548.343 -4.33441 3.07087 0
M  V30 6087 C 547.382 -4.36697 4.28908 0
M  V30 6088 N 546.519 -5.57056 4.27356 0
M  V30 6089 H 551.359 -1.40351 2.62879 0
M  V30 6090 H 548.896 -0.682403 1.30314 0
M  V30 6091 H 550.854 -3.75048 1.82744 0
M  V30 6092 H 549.484 -3.10371 0.887109 0
M  V30 6093 H 548.536 -2.17419 3.12143 0
M  V30 6094 H 549.848 -3.02818 3.96362 0
M  V30 6095 H 549.002 -5.21801 3.09529 0
M  V30 6096 H 547.741 -4.37782 2.14939 0
M  V30 6097 H 546.746 -3.46734 4.2668 0
M  V30 6098 H 547.971 -4.34049 5.22282 0
M  V30 6099 H 545.917 -5.62184 3.3806 0
M  V30 6100 H 545.834 -5.57058 5.111 0
M  V30 6101 H 547.102 -6.47545 4.33942 0
M  V30 6102 N 551.331 -1.39911 -0.725443 0
M  V30 6103 C 552.263 -1.35301 -1.85003 0
M  V30 6104 C 553.276 -0.260102 -1.60709 0
M  V30 6105 O 554.465 -0.519749 -1.70766 0
M  V30 6106 C 551.565 -1.08039 -3.21218 0
M  V30 6107 C 550.738 -2.28793 -3.7279 0
M  V30 6108 C 549.797 -1.97841 -4.87591 0
M  V30 6109 O 548.823 -2.70616 -5.00755 0
M  V30 6110 N 550.025 -0.950367 -5.72668 0
M  V30 6111 H 552.79 -2.32218 -1.89459 0
M  V30 6112 H 550.351 -1.34137 -0.90658 0
M  V30 6113 H 552.343 -0.853354 -3.95601 0
M  V30 6114 H 550.913 -0.198229 -3.11971 0
M  V30 6115 H 550.133 -2.67388 -2.8965 0
M  V30 6116 H 551.421 -3.09317 -4.03981 0
M  V30 6117 H 550.819 -0.347436 -5.64632 0
M  V30 6118 H 549.376 -0.783232 -6.47077 0
M  V30 6119 N 552.809 0.956637 -1.25245 0
M  V30 6120 C 553.719 2.0868 -1.0719 0
M  V30 6121 C 554.735 1.73997 -0.00959074 0
M  V30 6122 O 555.911 2.00301 -0.210104 0
M  V30 6123 C 552.976 3.39754 -0.690526 0
M  V30 6124 C 552.037 3.88316 -1.83055 0
M  V30 6125 C 551.27 5.13134 -1.46728 0
M  V30 6126 O 551.493 5.6925 -0.362029 0
M  V30 6127 O 550.427 5.56356 -2.29677 0
M  V30 6128 H 554.253 2.26813 -2.01965 0
M  V30 6129 H 551.838 1.07098 -1.04165 0
M  V30 6130 H 553.72 4.18543 -0.489871 0
M  V30 6131 H 552.395 3.22896 0.227981 0
M  V30 6132 H 551.302 3.1054 -2.08604 0
M  V30 6133 H 552.635 4.09669 -2.72822 0
M  V30 6134 N 554.287 1.06798 1.15896 0
M  V30 6135 C 555.534 0.787767 1.86549 0
M  V30 6136 C 555.862 -0.685959 1.82002 0
M  V30 6137 O 555.117 -1.5188 1.23414 0
M  V30 6138 C 555.416 1.23414 3.35416 0
M  V30 6139 C 555.082 2.71285 3.6016 0
M  V30 6140 C 553.744 3.11676 3.66622 0
M  V30 6141 C 556.096 3.6676 3.7032 0
M  V30 6142 C 553.424 4.4637 3.8075 0
M  V30 6143 C 555.776 5.01209 3.8597 0
M  V30 6144 C 554.44 5.41229 3.90676 0
M  V30 6145 H 553.71 0.288264 0.682631 0
M  V30 6146 H 556.357 1.338 1.37003 0
M  V30 6147 H 554.662 0.60319 3.87129 0
M  V30 6148 H 556.359 0.994298 3.88477 0
M  V30 6149 H 552.949 2.39015 3.55767 0
M  V30 6150 H 557.133 3.36685 3.64633 0
M  V30 6151 H 552.389 4.76855 3.82648 0
M  V30 6152 H 556.563 5.75067 3.92773 0
M  V30 6153 H 554.19 6.45602 4.01375 0
M  V30 6154 N 555.766 -1.3263 0.851289 0
M  V30 6155 C 556.698 -2.27824 0.250757 0
M  V30 6156 C 557.711 -1.52285 -0.575598 0
M  V30 6157 O 558.9 -1.73946 -0.400638 0
M  V30 6158 C 556 -3.3232 -0.664571 0
M  V30 6159 C 555.173 -4.37221 0.125187 0
M  V30 6160 C 554.232 -5.21314 -0.715385 0
M  V30 6161 O 553.258 -5.69002 -0.150111 0
M  V30 6162 N 554.46 -5.43823 -2.03069 0
M  V30 6163 H 557.225 -2.79997 1.06873 0
M  V30 6164 H 554.786 -1.45455 0.710943 0
M  V30 6165 H 556.778 -3.85486 -1.23216 0
M  V30 6166 H 555.348 -2.80331 -1.38323 0
M  V30 6167 H 554.568 -3.84384 0.874199 0
M  V30 6168 H 555.856 -5.04399 0.667774 0
M  V30 6169 H 555.254 -5.06803 -2.51332 0
M  V30 6170 H 553.811 -5.99998 -2.54648 0
M  V30 6171 N 557.244 -0.608902 -1.45362 0
M  V30 6172 C 558.521 -0.0365378 -1.95566 0
M  V30 6173 C 558.901 1.43169 -1.55131 0
M  V30 6174 O 558.249 2.1349 -0.814513 0
M  V30 6175 C 558.459 -0.236026 -3.48201 0
M  V30 6176 C 559.807 -0.117518 -4.24437 0
M  V30 6177 O 560.831 -0.166217 -3.55812 0
M  V30 6178 O 559.69 -0.00372127 -5.465 0
M  V30 6179 H 556.784 0.0349874 -0.82626 0
M  V30 6180 H 559.33 -0.679055 -1.55521 0
M  V30 6181 H 558.102 -1.25569 -3.70605 0
M  V30 6182 H 557.725 0.441691 -3.95139 0
M  V30 6183 N 558.722 1.53707 -0.348139 0
M  V30 6184 C 559.685 2.23812 0.494058 0
M  V30 6185 C 560.685 1.23989 1.02388 0
M  V30 6186 O 561.875 1.48395 0.912396 0
M  V30 6187 C 559.007 2.96133 1.68872 0
M  V30 6188 H 560.2 2.99663 -0.119141 0
M  V30 6189 H 557.753 1.55983 -0.0995539 0
M  V30 6190 H 558.488 2.24481 2.34049 0
M  V30 6191 H 558.273 3.69357 1.31596 0
M  V30 6192 H 559.763 3.49475 2.28597 0
M  V30 6193 N 560.2 0.0768682 1.57412 0
M  V30 6194 C 561.446 -0.585926 1.94778 0
M  V30 6195 C 561.801 -1.66912 0.956982 0
M  V30 6196 O 561.094 -1.9159 -0.0199454 0
M  V30 6197 C 561.288 -1.20268 3.36557 0
M  V30 6198 C 561.117 -0.18076 4.49337 0
M  V30 6199 C 559.887 0.236362 5.04747 0
M  V30 6200 C 562.085 0.583978 5.10974 0
M  V30 6201 N 560.067 1.24846 6.01071 0
M  V30 6202 C 561.438 1.44841 6.02844 0
M  V30 6203 C 563.493 0.639492 4.93776 0
M  V30 6204 C 562.196 2.36343 6.79363 0
M  V30 6205 C 564.222 1.54204 5.70942 0
M  V30 6206 C 563.584 2.39414 6.62465 0
M  V30 6207 H 559.683 -0.185281 0.759734 0
M  V30 6208 H 562.267 0.155193 1.9408 0
M  V30 6209 H 560.438 -1.9137 3.37982 0
M  V30 6210 H 562.17 -1.82636 3.61146 0
M  V30 6211 H 558.925 -0.14777 4.73369 0
M  V30 6212 H 559.349 1.75217 6.53933 0
M  V30 6213 H 563.991 -0.00510074 4.228 0
M  V30 6214 H 561.709 3.01836 7.49614 0
M  V30 6215 H 565.295 1.5899 5.59655 0
M  V30 6216 H 564.175 3.0812 7.21132 0
M  V30 6217 N 561.678 -1.56367 -0.196722 0
M  V30 6218 C 562.625 -1.94417 -1.24382 0
M  V30 6219 C 563.595 -0.804543 -1.45315 0
M  V30 6220 O 564.78 -1.06256 -1.58475 0
M  V30 6221 C 561.92 -2.28757 -2.58388 0
M  V30 6222 C 561.033 -3.55775 -2.45047 0
M  V30 6223 C 560.168 -3.79445 -3.71746 0
M  V30 6224 C 559.207 -4.99894 -3.53231 0
M  V30 6225 N 558.344 -5.19826 -4.71938 0
M  V30 6226 H 563.184 -2.83691 -0.912338 0
M  V30 6227 H 560.721 -1.40392 -0.439135 0
M  V30 6228 H 562.679 -2.46682 -3.36457 0
M  V30 6229 H 561.309 -1.42625 -2.89582 0
M  V30 6230 H 560.361 -3.45905 -1.58284 0
M  V30 6231 H 561.673 -4.44 -2.27299 0
M  V30 6232 H 560.827 -3.97601 -4.58256 0
M  V30 6233 H 559.566 -2.89546 -3.92446 0
M  V30 6234 H 558.571 -4.81662 -2.65107 0
M  V30 6235 H 559.796 -5.913 -3.33978 0
M  V30 6236 H 557.742 -4.32875 -4.92905 0
M  V30 6237 H 557.659 -6.02228 -4.57009 0
M  V30 6238 H 558.927 -5.42439 -5.59803 0
M  V30 6239 N 563.156 0.464375 -1.50603 0
M  V30 6240 C 564.086 1.56944 -1.72889 0
M  V30 6241 C 565.067 1.59979 -0.577997 0
M  V30 6242 O 566.252 1.76138 -0.817855 0
M  V30 6243 C 563.382 2.95225 -1.8292 0
M  V30 6244 C 562.336 3.07056 -2.98162 0
M  V30 6245 C 561.662 4.47051 -2.93343 0
M  V30 6246 C 562.962 2.83648 -4.38567 0
M  V30 6247 H 564.656 1.38547 -2.65415 0
M  V30 6248 H 562.202 0.665082 -1.27721 0
M  V30 6249 H 564.155 3.72467 -1.97095 0
M  V30 6250 H 562.879 3.14793 -0.870209 0
M  V30 6251 H 561.538 2.32248 -2.83648 0
M  V30 6252 H 561.186 4.63547 -1.95276 0
M  V30 6253 H 560.886 4.55902 -3.70712 0
M  V30 6254 H 562.41 5.26304 -3.09575 0
M  V30 6255 H 563.824 3.50636 -4.53572 0
M  V30 6256 H 562.221 3.03937 -5.17438 0
M  V30 6257 H 563.291 1.79451 -4.50472 0
M  V30 6258 N 564.634 1.40294 0.718013 0
M  V30 6259 C 566.045 1.34289 1.29705 0
M  V30 6260 C 566.396 0.0152228 1.96194 0
M  V30 6261 O 565.521 -0.88682 1.97394 0
M  V30 6262 C 566.116 2.43219 2.3586 0
M  V30 6263 C 564.675 2.40682 2.89394 0
M  V30 6264 C 563.822 2.24223 1.63154 0
M  V30 6265 H 566.773 1.50135 0.514312 0
M  V30 6266 H 566.794 2.10986 3.16647 0
M  V30 6267 H 566.306 3.39836 1.87439 0
M  V30 6268 H 564.407 1.47756 3.42051 0
M  V30 6269 H 564.52 3.36177 3.41353 0
M  V30 6270 H 562.884 1.71696 1.88129 0
M  V30 6271 H 563.667 3.22834 1.16761 0
M  V30 6272 N 566.112 -0.949982 1.2575 0
M  V30 6273 C 567.059 -2.04738 1.06541 0
M  V30 6274 C 568.029 -1.66078 -0.0268818 0
M  V30 6275 O 569.214 -1.90348 0.131196 0
M  V30 6276 C 566.354 -3.38027 0.695127 0
M  V30 6277 C 565.467 -3.89776 1.86276 0
M  V30 6278 C 564.602 -5.11411 1.4364 0
M  V30 6279 C 563.641 -5.554 2.57287 0
M  V30 6280 N 562.778 -6.68244 2.15395 0
M  V30 6281 H 567.618 -2.20502 2.00457 0
M  V30 6282 H 565.155 -1.0805 0.998178 0
M  V30 6283 H 567.113 -4.14641 0.461375 0
M  V30 6284 H 565.743 -3.22135 -0.207046 0
M  V30 6285 H 564.795 -3.0964 2.20969 0
M  V30 6286 H 566.107 -4.18368 2.71606 0
M  V30 6287 H 565.261 -5.95457 1.16257 0
M  V30 6288 H 564 -4.84545 0.553879 0
M  V30 6289 H 563.005 -4.69916 2.85409 0
M  V30 6290 H 564.23 -5.84272 3.46125 0
M  V30 6291 H 562.176 -6.43078 1.29565 0
M  V30 6292 H 562.093 -6.96377 2.94272 0
M  V30 6293 H 563.361 -7.55687 1.91201 0
M  V30 6294 N 567.59 -1.07411 -1.15328 0
M  V30 6295 C 568.839 -0.792643 -1.85473 0
M  V30 6296 C 569.152 0.683789 -1.83259 0
M  V30 6297 O 570.358 1.08005 -2.49093 0
M  V30 6298 C 568.814 -1.36787 -3.32892 0
M  V30 6299 C 568.422 -2.87536 -3.43551 0
M  V30 6300 C 570.166 -1.16444 -4.08217 0
M  V30 6301 C 568.073 -3.38247 -4.85122 0
M  V30 6302 H 567.003 -0.292838 -0.694811 0
M  V30 6303 H 569.654 -1.29426 -1.30082 0
M  V30 6304 H 568.036 -0.793993 -3.87958 0
M  V30 6305 H 569.21 -3.50973 -2.98588 0
M  V30 6306 H 567.525 -3.06676 -2.81672 0
M  V30 6307 H 570.122 -1.51808 -5.12697 0
M  V30 6308 H 570.465 -0.10353 -4.16171 0
M  V30 6309 H 570.998 -1.70472 -3.59422 0
M  V30 6310 H 567.737 -4.43866 -4.82351 0
M  V30 6311 H 567.257 -2.79564 -5.30664 0
M  V30 6312 H 568.936 -3.34238 -5.5398 0
M  V30 6313 N 569.068 1.32177 -0.85831 0
M  V30 6314 C 570.031 2.27086 -0.310588 0
M  V30 6315 C 571.031 1.51751 0.531806 0
M  V30 6316 O 572.221 1.70794 0.34279 0
M  V30 6317 C 569.353 3.36266 0.560179 0
M  V30 6318 H 570.546 2.77045 -1.1483 0
M  V30 6319 H 568.099 1.42911 -0.632942 0
M  V30 6320 H 568.834 2.9158 1.41956 0
M  V30 6321 H 568.619 3.92077 -0.0428473 0
M  V30 6322 H 570.109 4.06974 0.936056 0
M  V30 6323 N 570.547 0.616602 1.45037 0
M  V30 6324 C 571.793 0.115501 2.02471 0
M  V30 6325 C 572.126 -1.25406 1.4828 0
M  V30 6326 O 571.401 -1.82922 0.661051 0
M  V30 6327 C 571.684 0.0863588 3.59996 0
M  V30 6328 C 571.537 1.48723 4.24501 0
M  V30 6329 C 572.856 -0.596762 4.36035 0
M  V30 6330 H 569.975 0.0434461 0.735718 0
M  V30 6331 H 572.617 0.7903 1.72784 0
M  V30 6332 H 570.767 -0.488277 3.85419 0
M  V30 6333 H 572.439 2.10964 4.10234 0
M  V30 6334 H 570.682 2.04534 3.82555 0
M  V30 6335 H 571.353 1.419 5.3345 0
M  V30 6336 H 573.829 -0.10824 4.15959 0
M  V30 6337 H 572.705 -0.586289 5.4576 0
M  V30 6338 H 572.966 -1.66451 4.09569 0
M  V30 6339 N 572.025 -1.5352 0.356285 0
M  V30 6340 C 573.302 -1.93405 -0.292223 0
M  V30 6341 C 573.682 -1.28901 -1.67176 0
M  V30 6342 O 573.03 -0.444632 -2.24132 0
M  V30 6343 C 573.24 -3.47223 -0.35175 0
M  V30 6344 C 574.588 -4.20389 -0.596534 0
M  V30 6345 O 575.612 -3.53554 -0.433344 0
M  V30 6346 O 574.471 -5.3881 -0.913589 0
M  V30 6347 H 571.565 -0.808666 -0.173172 0
M  V30 6348 H 574.111 -1.64713 0.408391 0
M  V30 6349 H 572.883 -3.86423 0.615841 0
M  V30 6350 H 572.506 -3.8212 -1.09864 0
M  V30 6351 N 573.503 -0.0852151 -1.57369 0
M  V30 6352 C 574.751 0.579658 -1.93609 0
M  V30 6353 C 575.072 1.69332 -0.967043 0
M  V30 6354 O 574.342 1.95892 -0.0174215 0
M  V30 6355 H 572.922 0.217113 -0.714752 0
M  V30 6356 H 575.584 -0.146226 -1.94351 0
M  V30 6357 H 574.68 0.996276 -2.95771 0
M  V30 6358 N 574.981 1.5647 0.188427 0
M  V30 6359 C 576.392 1.70864 0.752494 0
M  V30 6360 C 576.743 0.692905 1.83557 0
M  V30 6361 O 575.868 -0.149307 2.15884 0
M  V30 6362 C 576.463 3.09789 1.37173 0
M  V30 6363 C 575.022 3.25925 1.88281 0
M  V30 6364 C 574.169 2.66817 0.755259 0
M  V30 6365 H 577.12 1.58657 -0.0367408 0
M  V30 6366 H 577.141 3.07489 2.24122 0
M  V30 6367 H 576.653 3.83693 0.583219 0
M  V30 6368 H 574.754 2.56948 2.6983 0
M  V30 6369 H 574.867 4.33498 2.04001 0
M  V30 6370 H 573.231 2.2617 1.17128 0
M  V30 6371 H 574.014 3.43294 -0.0211237 0
M  V30 6372 N 576.459 -0.456382 1.50847 0
M  V30 6373 C 577.706 -1.20736 1.62571 0
M  V30 6374 C 578.034 -1.9163 0.332904 0
M  V30 6375 O 577.289 -1.8343 -0.682058 0
M  V30 6376 C 577.588 -2.26336 2.76599 0
M  V30 6377 C 577.254 -1.7259 4.16562 0
M  V30 6378 C 575.916 -1.57654 4.54641 0
M  V30 6379 C 578.268 -1.32877 5.03977 0
M  V30 6380 C 575.596 -1.0145 5.77862 0
M  V30 6381 C 577.948 -0.7811 6.27759 0
M  V30 6382 C 576.612 -0.618488 6.64628 0
M  V30 6383 H 575.882 -0.441803 0.594888 0
M  V30 6384 H 578.529 -0.501169 1.84826 0
M  V30 6385 H 576.834 -3.0292 2.48489 0
M  V30 6386 H 578.531 -2.84227 2.82871 0
M  V30 6387 H 575.121 -1.85187 3.86528 0
M  V30 6388 H 579.305 -1.43245 4.75179 0
M  V30 6389 H 574.561 -0.876109 6.0509 0
M  V30 6390 H 578.735 -0.464783 6.94847 0
M  V30 6391 H 576.362 -0.180838 7.59985 0
M  V30 6392 N 577.937 -1.40673 -0.710563 0
M  V30 6393 C 579.185 -1.38947 -1.46759 0
M  V30 6394 C 579.506 0.00572879 -1.94999 0
M  V30 6395 O 578.776 0.961358 -1.70689 0
M  V30 6396 H 577.356 -0.5114 -0.544499 0
M  V30 6397 H 580.018 -1.75773 -0.842012 0
M  V30 6398 H 579.114 -2.06745 -2.33801 0
M  V30 6399 N 579.415 0.9433 -1.26252 0
M  V30 6400 C 580.643 1.72367 -1.14443 0
M  V30 6401 C 581.058 1.86392 0.300572 0
M  V30 6402 O 580.415 1.36978 1.20596 0
M  V30 6403 C 580.466 3.13155 -1.806 0
M  V30 6404 O 580.187 2.99803 -3.19452 0
M  V30 6405 C 581.688 4.07417 -1.74717 0
M  V30 6406 H 578.908 0.539758 -0.398626 0
M  V30 6407 H 581.452 1.18268 -1.66832 0
M  V30 6408 H 579.607 3.64162 -1.32154 0
M  V30 6409 H 580.021 3.88697 -3.52158 0
M  V30 6410 H 581.495 5.03773 -2.25647 0
M  V30 6411 H 581.972 4.3337 -0.713244 0
M  V30 6412 H 582.578 3.6233 -2.22704 0
M  V30 6413 N 580.893 1.08022 1.14757 0
M  V30 6414 C 581.856 0.71048 2.1791 0
M  V30 6415 C 582.856 -0.252731 1.58801 0
M  V30 6416 O 584.046 -0.0327915 1.74169 0
M  V30 6417 C 581.178 0.0483203 3.40866 0
M  V30 6418 H 582.371 1.62384 2.52134 0
M  V30 6419 H 579.924 0.877595 1.29337 0
M  V30 6420 H 580.659 -0.876959 3.12218 0
M  V30 6421 H 580.444 0.741189 3.85031 0
M  V30 6422 H 581.934 -0.195471 4.17142 0
M  V30 6423 N 582.371 -1.3172 0.865308 0
M  V30 6424 C 583.596 -2.01591 0.487415 0
M  V30 6425 C 584.021 -1.6455 -0.911307 0
M  V30 6426 O 583.379 -0.851689 -1.6005 0
M  V30 6427 C 583.427 -3.54759 0.646401 0
M  V30 6428 O 582.531 -4.11185 -0.316284 0
M  V30 6429 H 581.872 -0.634884 0.194468 0
M  V30 6430 H 584.402 -1.68024 1.16744 0
M  V30 6431 H 584.412 -4.04438 0.537932 0
M  V30 6432 H 583.087 -3.8106 1.66632 0
M  V30 6433 H 581.664 -3.72543 -0.163162 0
M  V30 6434 N 583.85 -0.624285 -1.44708 0
M  V30 6435 C 584.76 0.0861083 -2.34442 0
M  V30 6436 C 585.776 0.84291 -1.5222 0
M  V30 6437 O 586.952 0.796723 -1.84971 0
M  V30 6438 C 584.017 1.05999 -3.30099 0
M  V30 6439 C 583.077 0.303316 -4.28227 0
M  V30 6440 C 582.311 1.23081 -5.19314 0
M  V30 6441 O 582.534 2.46929 -5.14181 0
M  V30 6442 O 581.468 0.71883 -5.97592 0
M  V30 6443 H 585.293 -0.651756 -2.96624 0
M  V30 6444 H 582.879 -0.384493 -1.44368 0
M  V30 6445 H 584.76 1.62046 -3.88997 0
M  V30 6446 H 583.436 1.77859 -2.70459 0
M  V30 6447 H 582.343 -0.300033 -3.72895 0
M  V30 6448 H 583.676 -0.375123 -4.90768 0
M  V30 6449 N 585.328 1.53329 -0.364422 0
M  V30 6450 C 586.605 1.93557 0.281962 0
M  V30 6451 C 586.985 1.29786 1.6649 0
M  V30 6452 O 586.333 0.456512 2.23893 0
M  V30 6453 C 586.543 3.47405 0.333331 0
M  V30 6454 C 587.891 4.20699 0.574231 0
M  V30 6455 O 588.915 3.53779 0.414588 0
M  V30 6456 O 587.774 5.39287 0.885002 0
M  V30 6457 H 584.868 0.809573 0.168881 0
M  V30 6458 H 587.414 1.64494 -0.417121 0
M  V30 6459 H 586.186 3.86091 -0.636326 0
M  V30 6460 H 585.809 3.82697 1.07836 0
M  V30 6461 N 586.806 0.0935595 1.57322 0
M  V30 6462 C 588.052 -0.571355 1.94585 0
M  V30 6463 C 588.385 -1.67929 0.975366 0
M  V30 6464 O 587.66 -1.94498 0.00816206 0
M  V30 6465 C 587.943 -1.12797 3.41978 0
M  V30 6466 C 587.796 -0.0251881 4.49793 0
M  V30 6467 C 589.115 -2.02682 3.90651 0
M  V30 6468 H 586.234 -0.206223 0.70756 0
M  V30 6469 H 588.876 0.163956 1.89291 0
M  V30 6470 H 587.026 -1.75461 3.4662 0
M  V30 6471 H 588.698 0.608979 4.57263 0
M  V30 6472 H 586.941 0.641399 4.29032 0
M  V30 6473 H 587.612 -0.455433 5.50118 0
M  V30 6474 H 590.088 -1.49925 3.88152 0
M  V30 6475 H 588.964 -2.38555 4.94351 0
M  V30 6476 H 589.225 -2.94362 3.29854 0
M  V30 6477 N 588.284 -1.56567 -0.180126 0
M  V30 6478 C 589.531 -1.81492 -0.898167 0
M  V30 6479 C 589.859 -0.669225 -1.82624 0
M  V30 6480 O 589.114 0.344096 -1.92651 0
M  V30 6481 C 589.413 -3.1252 -1.73395 0
M  V30 6482 C 589.079 -4.40658 -0.955567 0
M  V30 6483 C 587.741 -4.75465 -0.740707 0
M  V30 6484 C 590.093 -5.19593 -0.408948 0
M  V30 6485 C 587.421 -5.86691 0.0320128 0
M  V30 6486 C 589.773 -6.31627 0.350638 0
M  V30 6487 C 588.437 -6.65007 0.576378 0
M  V30 6488 H 587.707 -0.664125 -0.328662 0
M  V30 6489 H 590.354 -1.908 -0.163616 0
M  V30 6490 H 588.659 -2.98515 -2.53763 0
M  V30 6491 H 590.356 -3.29013 -2.29241 0
M  V30 6492 H 586.946 -4.13352 -1.13306 0
M  V30 6493 H 591.13 -4.93104 -0.562307 0
M  V30 6494 H 586.386 -6.11016 0.216735 0
M  V30 6495 H 590.56 -6.92001 0.781497 0
M  V30 6496 H 588.187 -7.51033 1.17703 0
M  V30 6497 N 589.762 0.448376 -1.51087 0
M  V30 6498 C 590.987 1.22605 -1.6728 0
M  V30 6499 C 591.412 1.84524 -0.365045 0
M  V30 6500 O 590.77 1.6832 0.673642 0
M  V30 6501 C 590.818 2.29393 -2.78229 0
M  V30 6502 O 589.922 3.34608 -2.41063 0
M  V30 6503 H 589.263 0.359705 -0.558129 0
M  V30 6504 H 591.793 0.530903 -1.97592 0
M  V30 6505 H 591.803 2.74352 -3.01986 0
M  V30 6506 H 590.478 1.83701 -3.73131 0
M  V30 6507 H 589.055 2.95202 -2.27838 0
M  V30 6508 N 591.24 1.41047 0.703093 0
M  V30 6509 C 592.47 1.43133 1.48985 0
M  V30 6510 C 592.878 0.0328537 1.89171 0
M  V30 6511 O 592.221 -0.956469 1.56835 0
M  V30 6512 C 592.283 2.26991 2.78775 0
M  V30 6513 C 591.947 3.7525 2.60837 0
M  V30 6514 C 592.944 4.67591 2.27276 0
M  V30 6515 C 590.629 4.19208 2.76712 0
M  V30 6516 C 592.623 6.01877 2.09817 0
M  V30 6517 C 590.31 5.53561 2.5887 0
M  V30 6518 C 591.308 6.4471 2.25472 0
M  V30 6519 O 590.996 7.76584 2.07778 0
M  V30 6520 H 590.728 0.489788 0.465922 0
M  V30 6521 H 593.282 1.85886 0.873822 0
M  V30 6522 H 591.512 1.79038 3.42757 0
M  V30 6523 H 593.201 2.20867 3.40547 0
M  V30 6524 H 593.967 4.34923 2.14633 0
M  V30 6525 H 589.846 3.48572 3.01693 0
M  V30 6526 H 593.39 6.72986 1.83671 0
M  V30 6527 H 589.287 5.85811 2.71102 0
M  V30 6528 H 590.055 7.87649 2.22601 0
M  V30 6529 N 592.718 -0.936591 1.26751 0
M  V30 6530 C 593.628 -2.06949 1.10496 0
M  V30 6531 C 594.644 -1.7396 0.037271 0
M  V30 6532 O 595.82 -1.99941 0.241944 0
M  V30 6533 C 592.885 -3.38612 0.744491 0
M  V30 6534 C 591.946 -3.85355 1.89209 0
M  V30 6535 C 591.179 -5.10735 1.54873 0
M  V30 6536 O 591.402 -5.68602 0.452546 0
M  V30 6537 O 590.336 -5.52632 2.38499 0
M  V30 6538 H 594.162 -2.23571 2.05547 0
M  V30 6539 H 591.747 -1.05428 1.05855 0
M  V30 6540 H 593.629 -4.17711 0.556396 0
M  V30 6541 H 592.304 -3.23218 -0.176582 0
M  V30 6542 H 591.211 -3.07182 2.13518 0
M  V30 6543 H 592.544 -4.05277 2.79305 0
M  V30 6544 N 594.196 -1.08629 -1.14182 0
M  V30 6545 C 595.442 -0.818556 -1.85546 0
M  V30 6546 C 595.775 0.654076 -1.82854 0
M  V30 6547 O 595.05 1.48099 -1.26083 0
M  V30 6548 C 595.333 -1.34397 -3.3408 0
M  V30 6549 C 595.186 -2.8821 -3.45333 0
M  V30 6550 C 596.505 -0.971069 -4.29253 0
M  V30 6551 H 593.624 -0.298821 -0.673702 0
M  V30 6552 H 596.266 -1.34629 -1.34071 0
M  V30 6553 H 594.416 -0.895064 -3.78049 0
M  V30 6554 H 596.088 -3.41488 -3.10134 0
M  V30 6555 H 594.331 -3.25756 -2.86471 0
M  V30 6556 H 595.002 -3.20047 -4.49749 0
M  V30 6557 H 597.478 -1.35809 -3.93313 0
M  V30 6558 H 596.354 -1.36586 -5.31635 0
M  V30 6559 H 596.615 0.121659 -4.41933 0
M  V30 6560 N 595.674 1.31259 -0.872281 0
M  V30 6561 C 596.92 1.96913 -0.485083 0
M  V30 6562 C 597.253 1.68774 0.960667 0
M  V30 6563 O 596.528 0.985495 1.67685 0
M  V30 6564 C 596.811 3.52299 -0.745502 0
M  V30 6565 C 596.664 3.90002 -2.24095 0
M  V30 6566 C 597.983 4.39582 -0.213516 0
M  V30 6567 H 595.102 0.715252 -0.177716 0
M  V30 6568 H 597.744 1.55347 -1.09395 0
M  V30 6569 H 595.894 3.87835 -0.227276 0
M  V30 6570 H 597.566 3.64555 -2.82661 0
M  V30 6571 H 595.809 3.38526 -2.71261 0
M  V30 6572 H 596.48 4.98352 -2.37381 0
M  V30 6573 H 598.956 4.10882 -0.656902 0
M  V30 6574 H 597.832 5.47251 -0.42516 0
M  V30 6575 H 598.093 4.33158 0.884666 0
M  V30 6576 N 597.152 0.631951 1.44375 0
M  V30 6577 C 598.085 -0.121822 2.27875 0
M  V30 6578 C 599.063 -0.850457 1.38586 0
M  V30 6579 O 600.247 -0.854378 1.68026 0
M  V30 6580 C 597.374 -1.17859 3.17533 0
M  V30 6581 C 596.42 -0.550391 4.22934 0
M  V30 6582 S 597.253 0.660145 5.31415 0
M  V30 6583 C 598.409 -0.396613 6.24642 0
M  V30 6584 H 598.642 0.586537 2.91457 0
M  V30 6585 H 596.175 0.420146 1.48574 0
M  V30 6586 H 598.133 -1.78335 3.69739 0
M  V30 6587 H 596.794 -1.85915 2.53169 0
M  V30 6588 H 595.987 -1.34631 4.85685 0
M  V30 6589 H 595.589 -0.0202306 3.73995 0
M  V30 6590 H 597.881 -1.26893 6.65511 0
M  V30 6591 H 598.824 0.195345 7.0783 0
M  V30 6592 H 599.232 -0.72288 5.59852 0
M  V30 6593 N 598.631 -1.53133 0.372548 0
M  V30 6594 C 599.561 -2.28876 -0.462412 0
M  V30 6595 C 600.542 -1.31583 -1.07796 0
M  V30 6596 O 601.727 -1.60461 -1.09389 0
M  V30 6597 C 598.857 -3.08317 -1.59868 0
M  V30 6598 C 597.811 -4.13355 -1.11003 0
M  V30 6599 C 597.137 -4.8092 -2.33708 0
M  V30 6600 C 598.437 -5.21955 -0.18983 0
M  V30 6601 H 600.131 -2.9892 0.169511 0
M  V30 6602 H 597.677 -1.43761 0.0829658 0
M  V30 6603 H 599.63 -3.60055 -2.18949 0
M  V30 6604 H 598.354 -2.35976 -2.25794 0
M  V30 6605 H 597.013 -3.62573 -0.541869 0
M  V30 6606 H 596.661 -4.05144 -2.98106 0
M  V30 6607 H 596.361 -5.51904 -2.01682 0
M  V30 6608 H 597.885 -5.35455 -2.93462 0
M  V30 6609 H 599.299 -5.69153 -0.688319 0
M  V30 6610 H 597.696 -6.00087 0.0398887 0
M  V30 6611 H 598.766 -4.78811 0.766057 0
M  V30 6612 N 600.109 -0.101901 -1.5727 0
M  V30 6613 C 601.355 0.561027 -1.94885 0
M  V30 6614 C 601.688 1.6741 -0.984258 0
M  V30 6615 O 600.963 1.94491 -0.0184767 0
M  V30 6616 C 601.246 1.10982 -3.42571 0
M  V30 6617 C 601.099 0.00133418 -4.498 0
M  V30 6618 C 602.418 2.00608 -3.9172 0
M  V30 6619 H 599.537 0.202467 -0.708644 0
M  V30 6620 H 602.179 -0.173992 -1.89202 0
M  V30 6621 H 600.329 1.73621 -3.47546 0
M  V30 6622 H 602.001 -0.63322 -4.56933 0
M  V30 6623 H 600.244 -0.664143 -4.28686 0
M  V30 6624 H 600.915 0.426253 -5.50352 0
M  V30 6625 H 603.391 1.47864 -3.88941 0
M  V30 6626 H 602.267 2.3593 -4.95609 0
M  V30 6627 H 602.528 2.92608 -3.3141 0
M  V30 6628 N 601.587 1.56661 0.17182 0
M  V30 6629 C 602.835 1.81606 0.886774 0
M  V30 6630 C 603.156 0.678818 1.82803 0
M  V30 6631 O 602.426 -0.301354 1.93568 0
M  V30 6632 H 601.006 0.669934 0.330451 0
M  V30 6633 H 603.668 1.94142 0.171757 0
M  V30 6634 H 602.764 2.75634 1.46398 0
M  V30 6635 N 603.065 -0.440357 1.51323 0
M  V30 6636 C 604.028 -1.51679 1.71832 0
M  V30 6637 C 605.028 -1.49648 0.588386 0
M  V30 6638 O 606.218 -1.51724 0.855891 0
M  V30 6639 C 603.35 -2.91228 1.77199 0
M  V30 6640 H 604.543 -1.34799 2.67898 0
M  V30 6641 H 602.096 -0.66883 1.41267 0
M  V30 6642 H 602.831 -3.13516 0.829363 0
M  V30 6643 H 602.616 -2.94107 2.59314 0
M  V30 6644 H 604.106 -3.69321 1.94915 0
M  V30 6645 N 604.543 -1.41418 -0.695603 0
M  V30 6646 C 605.791 -1.40496 -1.45277 0
M  V30 6647 C 606.112 -0.0149538 -1.94994 0
M  V30 6648 O 605.382 0.9432 -1.71699 0
M  V30 6649 H 603.962 -0.517147 -0.539044 0
M  V30 6650 H 606.624 -1.76656 -0.823321 0
M  V30 6651 H 605.72 -2.09214 -2.31595 0
M  V30 6652 N 606.021 0.929856 -1.27246 0
M  V30 6653 C 607.27 1.67182 -1.12842 0
M  V30 6654 C 607.583 1.9287 0.325666 0
M  V30 6655 O 608.789 2.64999 0.590572 0
M  V30 6656 C 607.245 3.01097 -1.97151 0
M  V30 6657 C 606.853 2.83115 -3.47203 0
M  V30 6658 C 608.597 3.78907 -1.91389 0
M  V30 6659 C 606.504 4.12573 -4.23719 0
M  V30 6660 H 605.434 0.627064 -0.418697 0
M  V30 6661 H 608.085 1.0332 -1.51649 0
M  V30 6662 H 606.467 3.66004 -1.51186 0
M  V30 6663 H 607.641 2.26989 -4.01015 0
M  V30 6664 H 605.956 2.18736 -3.54321 0
M  V30 6665 H 608.553 4.74837 -2.45834 0
M  V30 6666 H 608.896 4.0674 -0.887047 0
M  V30 6667 H 609.429 3.20794 -2.35237 0
M  V30 6668 H 606.168 3.8992 -5.26918 0
M  V30 6669 H 605.688 4.68371 -3.74685 0
M  V30 6670 H 607.367 4.8095 -4.32777 0
M  V30 6671 N 607.499 1.09233 1.13605 0
M  V30 6672 C 608.747 0.825525 1.84471 0
M  V30 6673 C 609.068 -0.650702 1.83823 0
M  V30 6674 O 608.338 -1.47204 1.29259 0
M  V30 6675 H 606.918 0.3024 0.683054 0
M  V30 6676 H 609.58 1.38006 1.37624 0
M  V30 6677 H 608.676 1.17727 2.89045 0
M  V30 6678 N 608.977 -1.30795 0.87923 0
M  V30 6679 C 610.223 -1.96653 0.495519 0
M  V30 6680 C 610.556 -1.69282 -0.951703 0
M  V30 6681 O 609.831 -0.994374 -1.6716 0
M  V30 6682 C 610.114 -3.51898 0.764174 0
M  V30 6683 C 609.967 -3.88808 2.2616 0
M  V30 6684 C 611.286 -4.39462 0.236825 0
M  V30 6685 H 608.405 -0.7143 0.181507 0
M  V30 6686 H 611.047 -1.54765 1.10217 0
M  V30 6687 H 609.197 -3.87709 0.247841 0
M  V30 6688 H 610.869 -3.63051 2.8459 0
M  V30 6689 H 609.112 -3.37082 2.73053 0
M  V30 6690 H 609.783 -4.97086 2.4002 0
M  V30 6691 H 612.259 -4.10528 0.678683 0
M  V30 6692 H 611.135 -5.47018 0.454176 0
M  V30 6693 H 611.396 -4.33621 -0.861683 0
M  V30 6694 N 610.455 -0.639598 -1.44038 0
M  V30 6695 C 611.683 -0.154811 -2.0632 0
M  V30 6696 C 612.098 1.17406 -1.47856 0
M  V30 6697 O 611.455 1.72193 -0.604638 0
M  V30 6698 C 611.506 -0.0429958 -3.61474 0
M  V30 6699 O 611.227 -1.31932 -4.17763 0
M  V30 6700 C 612.728 0.469486 -4.40807 0
M  V30 6701 H 609.948 -0.0835862 -0.665773 0
M  V30 6702 H 612.492 -0.876397 -1.84769 0
M  V30 6703 H 610.647 0.629075 -3.82258 0
M  V30 6704 H 611.061 -1.16965 -5.11292 0
M  V30 6705 H 612.535 0.496712 -5.49761 0
M  V30 6706 H 613.012 1.49819 -4.12857 0
M  V30 6707 H 613.618 -0.169624 -4.24962 0
M  V30 6708 N 611.933 1.52934 -0.380664 0
M  V30 6709 C 613.344 1.86457 0.0952684 0
M  V30 6710 C 613.695 1.3007 1.46889 0
M  V30 6711 O 612.82 0.628636 2.07068 0
M  V30 6712 C 613.415 3.38323 0.179648 0
M  V30 6713 C 611.974 3.71589 0.599858 0
M  V30 6714 C 611.121 2.76228 -0.243572 0
M  V30 6715 H 614.072 1.46966 -0.59888 0
M  V30 6716 H 614.093 3.67113 1.00042 0
M  V30 6717 H 613.605 3.79333 -0.820228 0
M  V30 6718 H 611.706 3.36144 1.60742 0
M  V30 6719 H 611.819 4.77715 0.364003 0
M  V30 6720 H 610.183 2.53045 0.289855 0
M  V30 6721 H 610.966 3.20074 -1.24127 0
M  V30 6722 N 613.412 0.11024 1.57214 0
M  V30 6723 C 614.659 -0.54987 1.94891 0
M  V30 6724 C 614.987 -1.67243 0.992984 0
M  V30 6725 O 614.242 -1.95694 0.0152703 0
M  V30 6726 C 614.541 -1.13102 3.39032 0
M  V30 6727 C 614.207 -0.130713 4.5071 0
M  V30 6728 C 612.869 0.14437 4.80983 0
M  V30 6729 C 615.221 0.551472 5.18274 0
M  V30 6730 C 612.549 1.10807 5.76141 0
M  V30 6731 C 614.901 1.50375 6.14467 0
M  V30 6732 C 613.565 1.78691 6.43138 0
M  V30 6733 H 612.835 -0.201212 0.713158 0
M  V30 6734 H 615.482 0.189288 1.90562 0
M  V30 6735 H 613.787 -1.94675 3.40013 0
M  V30 6736 H 615.484 -1.64973 3.65493 0
M  V30 6737 H 612.074 -0.355301 4.27125 0
M  V30 6738 H 616.258 0.35211 4.95049 0
M  V30 6739 H 611.514 1.3343 5.96663 0
M  V30 6740 H 615.688 2.03808 6.65909 0
M  V30 6741 H 613.315 2.53522 7.1668 0
M  V30 6742 N 614.89 -1.56749 -0.16351 0
M  V30 6743 C 615.853 -1.96121 -1.18613 0
M  V30 6744 C 616.853 -0.845765 -1.36761 0
M  V30 6745 O 618.043 -1.11268 -1.34033 0
M  V30 6746 C 615.175 -2.26282 -2.54969 0
M  V30 6747 H 616.368 -2.87639 -0.848764 0
M  V30 6748 H 613.921 -1.50928 -0.406251 0
M  V30 6749 H 614.656 -1.37504 -2.93706 0
M  V30 6750 H 614.441 -3.07595 -2.43162 0
M  V30 6751 H 615.931 -2.57638 -3.28653 0
M  V30 6752 N 616.368 0.432326 -1.51554 0
M  V30 6753 C 617.593 1.20824 -1.68571 0
M  V30 6754 C 618.018 1.84126 -0.384596 0
M  V30 6755 O 617.376 1.69025 0.655751 0
M  V30 6756 C 617.424 2.26429 -2.80646 0
M  V30 6757 O 616.528 3.32032 -2.44598 0
M  V30 6758 H 615.869 0.353765 -0.561913 0
M  V30 6759 H 618.399 0.509916 -1.98144 0
M  V30 6760 H 618.409 2.71133 -3.04878 0
M  V30 6761 H 617.084 1.79733 -3.75058 0
M  V30 6762 H 615.661 2.92769 -2.30956 0
M  V30 6763 N 617.846 1.41785 0.688094 0
M  V30 6764 C 619.095 1.4084 1.44385 0
M  V30 6765 C 619.408 0.0234166 1.95586 0
M  V30 6766 O 620.614 -0.108647 2.71283 0
M  V30 6767 C 619.07 2.47675 2.61123 0
M  V30 6768 C 618.678 3.92116 2.16677 0
M  V30 6769 C 620.422 2.55877 3.38714 0
M  V30 6770 C 618.329 4.90487 3.30419 0
M  V30 6771 H 617.259 0.523787 0.542368 0
M  V30 6772 H 619.91 1.6764 0.74627 0
M  V30 6773 H 618.292 2.14018 3.33185 0
M  V30 6774 H 619.466 4.35059 1.51856 0
M  V30 6775 H 617.781 3.87642 1.5206 0
M  V30 6776 H 620.378 3.26553 4.234 0
M  V30 6777 H 620.721 1.59801 3.84408 0
M  V30 6778 H 621.254 2.88662 2.73714 0
M  V30 6779 H 617.993 5.87994 2.89729 0
M  V30 6780 H 617.513 4.52187 3.94065 0
M  V30 6781 H 619.192 5.11591 3.96085 0
M  V30 6782 N 619.324 -0.923095 1.27737 0
M  V30 6783 C 620.254 -2.04124 1.13383 0
M  V30 6784 C 621.235 -1.70066 0.0340658 0
M  V30 6785 O 622.42 -1.93068 0.209383 0
M  V30 6786 C 619.55 -3.3831 0.785097 0
M  V30 6787 C 618.504 -3.86496 1.8386 0
M  V30 6788 C 617.83 -5.1754 1.34373 0
M  V30 6789 C 619.13 -4.09381 3.24353 0
M  V30 6790 H 620.824 -2.1639 2.06919 0
M  V30 6791 H 618.37 -1.03976 0.996243 0
M  V30 6792 H 620.323 -4.16016 0.671485 0
M  V30 6793 H 619.047 -3.2607 -0.185969 0
M  V30 6794 H 617.706 -3.10987 1.9412 0
M  V30 6795 H 617.354 -5.01696 0.361989 0
M  V30 6796 H 617.054 -5.50751 2.04811 0
M  V30 6797 H 618.578 -5.97811 1.24315 0
M  V30 6798 H 619.992 -4.77641 3.17067 0
M  V30 6799 H 618.389 -4.53906 3.92542 0
M  V30 6800 H 619.459 -3.14515 3.69064 0
M  V30 6801 N 620.802 -1.09834 -1.13024 0
M  V30 6802 C 621.749 -0.741522 -2.18564 0
M  V30 6803 C 622.719 0.279236 -1.63736 0
M  V30 6804 O 623.904 0.159923 -1.90129 0
M  V30 6805 C 621.044 -0.17277 -3.44667 0
M  V30 6806 C 620.157 -1.24808 -4.13578 0
M  V30 6807 C 619.292 -0.641631 -5.27311 0
M  V30 6808 C 618.331 -1.69795 -5.88078 0
M  V30 6809 N 617.468 -1.11223 -6.93234 0
M  V30 6810 H 622.308 -1.64576 -2.48432 0
M  V30 6811 H 619.845 -0.822174 -1.21978 0
M  V30 6812 H 621.803 0.17482 -4.16834 0
M  V30 6813 H 620.433 0.694725 -3.15235 0
M  V30 6814 H 619.485 -1.71288 -3.39653 0
M  V30 6815 H 620.797 -2.04795 -4.54819 0
M  V30 6816 H 619.951 -0.243128 -6.06213 0
M  V30 6817 H 618.69 0.189742 -4.87331 0
M  V30 6818 H 617.695 -2.10595 -5.07868 0
M  V30 6819 H 618.92 -2.53206 -6.3013 0
M  V30 6820 H 616.866 -0.302208 -6.55304 0
M  V30 6821 H 616.783 -1.84901 -7.3304 0
M  V30 6822 H 618.051 -0.740068 -7.75979 0
M  V30 6823 N 622.28 1.30327 -0.886154 0
M  V30 6824 C 623.505 2.0079 -0.519425 0
M  V30 6825 C 623.93 1.65979 0.885013 0
M  V30 6826 O 623.288 0.877043 1.58675 0
M  V30 6827 C 623.336 3.53686 -0.702758 0
M  V30 6828 O 622.44 4.11637 0.250828 0
M  V30 6829 H 621.781 0.63171 -0.204544 0
M  V30 6830 H 624.311 1.66145 -1.19402 0
M  V30 6831 H 624.321 4.03531 -0.602207 0
M  V30 6832 H 622.996 3.78361 -1.72673 0
M  V30 6833 H 621.573 3.72755 0.103873 0
M  V30 6834 N 623.758 0.647228 1.43697 0
M  V30 6835 C 625.004 0.158422 2.0218 0
M  V30 6836 C 625.337 -1.22233 1.50907 0
M  V30 6837 O 624.612 -1.81478 0.699702 0
M  V30 6838 C 624.895 0.1627 3.59732 0
M  V30 6839 C 624.748 1.57694 4.21251 0
M  V30 6840 C 626.067 -0.504138 4.37203 0
M  V30 6841 H 623.186 0.059042 0.734631 0
M  V30 6842 H 625.828 0.826772 1.71069 0
M  V30 6843 H 623.978 -0.406414 3.86368 0
M  V30 6844 H 625.65 2.19618 4.05667 0
M  V30 6845 H 623.893 2.12603 3.7813 0
M  V30 6846 H 624.564 1.53183 5.3032 0
M  V30 6847 H 627.04 -0.0199841 4.16095 0
M  V30 6848 H 625.916 -0.470394 5.46881 0
M  V30 6849 H 626.177 -1.57726 4.13007 0
M  V30 6850 N 625.236 -1.5273 0.388769 0
M  V30 6851 C 626.482 -2.02545 -0.186351 0
M  V30 6852 C 626.837 -1.27017 -1.44514 0
M  V30 6853 O 626.13 -0.361948 -1.8815 0
M  V30 6854 C 626.324 -3.53765 -0.508445 0
M  V30 6855 C 626.153 -4.43938 0.71758 0
M  V30 6856 C 624.923 -4.89933 1.23668 0
M  V30 6857 C 627.121 -4.89113 1.58974 0
M  V30 6858 N 625.103 -5.64176 2.42031 0
M  V30 6859 C 626.474 -5.61931 2.61979 0
M  V30 6860 C 628.529 -4.71155 1.60989 0
M  V30 6861 C 627.232 -6.18698 3.66886 0
M  V30 6862 C 629.258 -5.28804 2.64803 0
M  V30 6863 C 628.62 -6.01527 3.6653 0
M  V30 6864 H 624.719 -0.781413 -0.0302921 0
M  V30 6865 H 627.303 -1.87104 0.538539 0
M  V30 6866 H 625.474 -3.6932 -1.20239 0
M  V30 6867 H 627.206 -3.9028 -1.07067 0
M  V30 6868 H 623.961 -4.66833 0.797763 0
M  V30 6869 H 624.385 -6.05949 3.01919 0
M  V30 6870 H 629.027 -4.14435 0.836881 0
M  V30 6871 H 626.745 -6.74501 4.45055 0
M  V30 6872 H 630.331 -5.1679 2.67245 0
M  V30 6873 H 629.211 -6.45339 4.45542 0
M  V30 6874 N 626.714 -0.118576 -1.57153 0
M  V30 6875 C 627.944 0.546466 -1.99242 0
M  V30 6876 C 628.352 1.60791 -0.997148 0
M  V30 6877 O 627.695 1.83691 0.0181745 0
M  V30 6878 C 627.757 1.23167 -3.37743 0
M  V30 6879 C 627.421 0.318226 -4.55891 0
M  V30 6880 C 628.418 -0.442988 -5.18009 0
M  V30 6881 C 626.103 0.229421 -5.01776 0
M  V30 6882 C 628.097 -1.28074 -6.244 0
M  V30 6883 C 625.784 -0.611966 -6.08028 0
M  V30 6884 C 626.782 -1.36568 -6.69207 0
M  V30 6885 O 626.47 -2.1931 -7.73407 0
M  V30 6886 H 626.202 0.149297 -0.659307 0
M  V30 6887 H 628.756 -0.201603 -2.04408 0
M  V30 6888 H 626.986 2.0268 -3.29329 0
M  V30 6889 H 628.675 1.79358 -3.64123 0
M  V30 6890 H 629.441 -0.38425 -4.83475 0
M  V30 6891 H 625.32 0.805771 -4.53903 0
M  V30 6892 H 628.864 -1.86952 -6.72082 0
M  V30 6893 H 624.761 -0.6721 -6.41991 0
M  V30 6894 H 625.529 -2.12247 -7.90502 0
M  V30 6895 N 628.193 1.56834 0.155195 0
M  V30 6896 C 629.14 1.97646 1.19184 0
M  V30 6897 C 630.11 0.842788 1.4313 0
M  V30 6898 O 631.295 1.1042 1.55602 0
M  V30 6899 C 628.435 2.35527 2.52232 0
M  V30 6900 C 627.548 3.62147 2.35529 0
M  V30 6901 C 626.683 3.89167 3.61555 0
M  V30 6902 C 625.722 5.09084 3.39853 0
M  V30 6903 N 624.859 5.32156 4.5799 0
M  V30 6904 H 629.699 2.8601 0.836802 0
M  V30 6905 H 627.236 1.41507 0.401758 0
M  V30 6906 H 629.194 2.55516 3.29799 0
M  V30 6907 H 627.824 1.50253 2.85699 0
M  V30 6908 H 626.876 3.4998 1.49057 0
M  V30 6909 H 628.188 4.49871 2.15448 0
M  V30 6910 H 627.342 4.09611 4.47553 0
M  V30 6911 H 626.081 2.9985 3.84632 0
M  V30 6912 H 625.086 4.88522 2.52243 0
M  V30 6913 H 626.311 5.99947 3.18183 0
M  V30 6914 H 624.257 4.45791 4.81255 0
M  V30 6915 H 624.174 6.14133 4.40882 0
M  V30 6916 H 625.442 5.57091 5.45225 0
M  V30 6917 N 629.671 -0.424282 1.51781 0
M  V30 6918 C 630.901 -1.19297 1.68677 0
M  V30 6919 C 631.309 -1.85152 0.389258 0
M  V30 6920 O 630.652 -1.72067 -0.643311 0
M  V30 6921 C 630.714 -2.30929 2.75521 0
M  V30 6922 C 630.378 -1.85335 4.17732 0
M  V30 6923 C 631.375 -1.34951 5.0208 0
M  V30 6924 C 629.06 -1.92629 4.63896 0
M  V30 6925 C 631.054 -0.924636 6.30658 0
M  V30 6926 C 628.741 -1.49754 5.92467 0
M  V30 6927 C 629.739 -0.997543 6.75676 0
M  V30 6928 O 629.427 -0.57492 8.01842 0
M  V30 6929 H 629.159 -0.36512 0.568914 0
M  V30 6930 H 631.713 -0.507327 1.99036 0
M  V30 6931 H 629.943 -3.02811 2.40505 0
M  V30 6932 H 631.632 -2.92748 2.81165 0
M  V30 6933 H 632.398 -1.287 4.67612 0
M  V30 6934 H 628.277 -2.30491 3.99243 0
M  V30 6935 H 631.821 -0.533682 6.95556 0
M  V30 6936 H 627.718 -1.55679 6.26446 0
M  V30 6937 H 628.486 -0.699597 8.15505 0
M  V30 6938 N 631.149 -1.42148 -0.680565 0
M  V30 6939 C 632.389 -1.4379 -1.45271 0
M  V30 6940 C 632.753 -0.0504426 -1.91934 0
M  V30 6941 O 633.954 0.0583916 -2.68737 0
M  V30 6942 C 632.225 -2.42904 -2.62168 0
M  V30 6943 S 633.784 -2.63201 -3.51099 0
M  V30 6944 H 630.602 -0.509185 -0.496237 0
M  V30 6945 H 633.204 -1.78706 -0.792744 0
M  V30 6946 H 631.908 -3.4249 -2.26116 0
M  V30 6947 H 631.439 -2.09394 -3.33043 0
M  V30 6948 H 633.454 -1.91068 -4.57938 0
M  V30 6949 N 632.627 0.916307 -1.28225 0
M  V30 6950 C 633.575 2.03977 -1.11786 0
M  V30 6951 C 634.569 1.69358 -0.0378265 0
M  V30 6952 O 635.775 1.78925 -0.196405 0
M  V30 6953 H 632.15 0.66829 -0.344809 0
M  V30 6954 H 634.121 2.14985 -2.06939 0
M  V30 6955 C 632.87 3.38518 -0.7938 0
M  V30 6956 H 632.193 3.65649 -1.61682 0
M  V30 6957 H 633.633 4.17864 -0.718719 0
M  V30 6958 C 632.092 3.33134 0.502353 0
M  V30 6959 O 632.622 3.71281 1.53341 0
M  V30 6960 N 630.828 2.86229 0.502147 0
M  V30 6961 H 630.375 2.55382 -0.337338 0
M  V30 6962 H 630.333 2.83009 1.36942 0
M  V30 6963 N 634.105 1.10431 1.1244 0
M  V30 6964 C 635.053 0.747974 2.20246 0
M  V30 6965 C 636.047 -0.255848 1.67457 0
M  V30 6966 O 637.253 -0.116221 1.79624 0
M  V30 6967 H 633.628 0.223946 0.71788 0
M  V30 6968 H 635.599 1.6661 2.47556 0
M  V30 6969 C 634.348 0.195957 3.47147 0
M  V30 6970 H 633.671 0.959606 3.88113 0
M  V30 6971 H 635.111 -0.0153154 4.23997 0
M  V30 6972 C 633.57 -1.07132 3.19413 0
M  V30 6973 O 634.1 -2.15284 3.3914 0
M  V30 6974 N 632.306 -0.98994 2.73219 0
M  V30 6975 H 631.853 -0.109736 2.57366 0
M  V30 6976 H 631.811 -1.83856 2.55038 0
M  V30 6977 N 635.583 -1.29855 0.893053 0
M  V30 6978 C 636.546 -2.26183 0.370687 0
M  V30 6979 C 637.546 -1.53108 -0.491385 0
M  V30 6980 O 638.736 -1.71643 -0.297386 0
M  V30 6981 C 635.868 -3.37633 -0.470827 0
M  V30 6982 H 637.061 -2.73903 1.22135 0
M  V30 6983 H 634.614 -1.41183 0.67061 0
M  V30 6984 H 635.349 -2.95241 -1.34175 0
M  V30 6985 H 635.134 -3.91825 0.146784 0
M  V30 6986 H 636.624 -4.09313 -0.827825 0
M  V30 6987 N 637.061 -0.65484 -1.43351 0
M  V30 6988 C 638.289 -0.176685 -2.06144 0
M  V30 6989 C 638.704 1.15831 -1.49093 0
M  V30 6990 O 638.061 1.71542 -0.622868 0
M  V30 6991 C 638.112 -0.0813326 -3.61408 0
M  V30 6992 O 637.833 -1.36355 -4.1634 0
M  V30 6993 C 639.334 0.422706 -4.4128 0
M  V30 6994 H 636.554 -0.0906429 -0.66485 0
M  V30 6995 H 639.098 -0.895945 -1.83829 0
M  V30 6996 H 637.253 0.588496 -3.82904 0
M  V30 6997 H 637.667 -1.22381 -5.10023 0
M  V30 6998 H 639.141 0.438375 -5.50257 0
M  V30 6999 H 639.618 1.45432 -4.14423 0
M  V30 7000 H 640.224 -0.214687 -4.24758 0
M  V30 7001 N 638.539 1.52521 -0.396863 0
M  V30 7002 C 639.487 2.28217 0.44943 0
M  V30 7003 C 640.481 1.32416 1.05652 0
M  V30 7004 O 641.687 1.49925 0.996124 0
M  V30 7005 H 638.062 0.733966 0.1637 0
M  V30 7006 H 640.033 2.97658 -0.210367 0
M  V30 7007 C 638.782 3.10713 1.56054 0
M  V30 7008 H 638.105 3.84291 1.10273 0
M  V30 7009 H 639.545 3.66803 2.12677 0
M  V30 7010 C 638.004 2.23499 2.52091 0
M  V30 7011 O 638.534 1.8669 3.55682 0
M  V30 7012 N 636.74 1.8751 2.2201 0
M  V30 7013 H 636.287 2.17643 1.37802 0
M  V30 7014 H 636.245 1.29448 2.86514 0
M  V30 7015 N 640.017 0.126909 1.57088 0
M  V30 7016 C 640.947 -0.816847 2.18746 0
M  V30 7017 C 641.928 -1.27161 1.12979 0
M  V30 7018 O 643.113 -1.33279 1.41246 0
M  V30 7019 C 640.243 -2.06398 2.79315 0
M  V30 7020 C 639.197 -1.74673 3.90735 0
M  V30 7021 C 638.523 -3.06482 4.38147 0
M  V30 7022 C 639.823 -1.0089 5.12463 0
M  V30 7023 H 641.517 -0.303032 2.97863 0
M  V30 7024 H 639.063 -0.144314 1.43275 0
M  V30 7025 H 641.016 -2.72885 3.2111 0
M  V30 7026 H 639.74 -2.60118 1.975 0
M  V30 7027 H 638.399 -1.10572 3.49527 0
M  V30 7028 H 638.047 -3.58152 3.5318 0
M  V30 7029 H 637.747 -2.86025 5.13287 0
M  V30 7030 H 639.271 -3.74073 4.82599 0
M  V30 7031 H 640.685 -1.57546 5.51228 0
M  V30 7032 H 639.082 -0.905006 5.93237 0
M  V30 7033 H 640.152 0.00297335 4.849 0
M  V30 7034 N 641.495 -1.56914 -0.146875 0
M  V30 7035 C 642.442 -1.98275 -1.18134 0
M  V30 7036 C 643.412 -0.850367 -1.42681 0
M  V30 7037 O 644.597 -1.11244 -1.55014 0
M  V30 7038 C 641.737 -2.36861 -2.5098 0
M  V30 7039 C 640.85 -3.63391 -2.33605 0
M  V30 7040 C 639.985 -3.91079 -3.59486 0
M  V30 7041 C 639.024 -5.10879 -3.37149 0
M  V30 7042 N 638.161 -5.34577 -4.55161 0
M  V30 7043 H 643.001 -2.8645 -0.821622 0
M  V30 7044 H 640.538 -1.41718 -0.394248 0
M  V30 7045 H 642.496 -2.57262 -3.28439 0
M  V30 7046 H 641.126 -1.51766 -2.84898 0
M  V30 7047 H 640.178 -3.50766 -1.47199 0
M  V30 7048 H 641.49 -4.51007 -2.13059 0
M  V30 7049 H 640.644 -4.11979 -4.45374 0
M  V30 7050 H 639.383 -3.01885 -3.83036 0
M  V30 7051 H 638.388 -4.89853 -2.49649 0
M  V30 7052 H 639.613 -6.01626 -3.14997 0
M  V30 7053 H 637.559 -4.48337 -4.78884 0
M  V30 7054 H 637.476 -6.16463 -4.37618 0
M  V30 7055 H 638.744 -5.59975 -5.42263 0
M  V30 7056 N 642.974 0.416227 -1.52004 0
M  V30 7057 C 643.904 1.51365 -1.77795 0
M  V30 7058 C 644.885 1.58059 -0.628601 0
M  V30 7059 O 646.07 1.73447 -0.873478 0
M  V30 7060 C 643.2 2.89256 -1.92219 0
M  V30 7061 C 642.154 2.97415 -3.0778 0
M  V30 7062 C 641.48 4.37492 -3.07417 0
M  V30 7063 C 642.78 2.69551 -4.47369 0
M  V30 7064 H 644.474 1.30033 -2.69688 0
M  V30 7065 H 642.02 0.624112 -1.29772 0
M  V30 7066 H 643.973 3.66008 -2.08845 0
M  V30 7067 H 642.697 3.11866 -0.969917 0
M  V30 7068 H 641.356 2.23107 -2.90893 0
M  V30 7069 H 641.004 4.571 -2.09925 0
M  V30 7070 H 640.704 4.43877 -3.85029 0
M  V30 7071 H 642.228 5.16188 -3.26162 0
M  V30 7072 H 643.642 3.36028 -4.64497 0
M  V30 7073 H 642.039 2.87321 -5.26846 0
M  V30 7074 H 643.109 1.65029 -4.55953 0
M  V30 7075 N 644.452 1.42507 0.673017 0
M  V30 7076 C 645.399 1.46124 1.78651 0
M  V30 7077 C 646.369 0.313007 1.63124 0
M  V30 7078 O 647.554 0.517337 1.83653 0
M  V30 7079 C 644.694 1.3711 3.16694 0
M  V30 7080 C 643.807 2.61983 3.43495 0
M  V30 7081 C 642.942 2.45098 4.71275 0
M  V30 7082 C 641.981 3.65336 4.91117 0
M  V30 7083 N 641.118 3.47383 6.10139 0
M  V30 7084 H 645.958 2.4128 1.74895 0
M  V30 7085 H 643.495 1.19788 0.853766 0
M  V30 7086 H 645.453 1.29881 3.96468 0
M  V30 7087 H 644.083 0.45549 3.1957 0
M  V30 7088 H 643.135 2.79571 2.57961 0
M  V30 7089 H 644.447 3.51355 3.5405 0
M  V30 7090 H 643.601 2.35466 5.59143 0
M  V30 7091 H 642.34 1.53219 4.63007 0
M  V30 7092 H 641.345 3.754 4.0169 0
M  V30 7093 H 642.57 4.58199 5.01229 0
M  V30 7094 H 640.516 2.58222 6.0304 0
M  V30 7095 H 640.433 4.30344 6.21563 0
M  V30 7096 H 641.701 3.41565 7.00681 0
M  V30 7097 N 645.93 -0.909495 1.28709 0
M  V30 7098 C 646.877 -2.01245 1.13 0
M  V30 7099 C 647.847 -1.6608 0.0259684 0
M  V30 7100 O 649.032 -1.89835 0.191687 0
M  V30 7101 C 646.172 -3.35644 0.802315 0
M  V30 7102 C 645.285 -3.83653 1.98582 0
M  V30 7103 C 644.42 -5.06582 1.59837 0
M  V30 7104 C 643.459 -5.46934 2.74827 0
M  V30 7105 N 642.596 -6.61053 2.36546 0
M  V30 7106 H 647.436 -2.14013 2.0737 0
M  V30 7107 H 644.973 -1.0482 1.03205 0
M  V30 7108 H 646.931 -4.12963 0.593057 0
M  V30 7109 H 645.561 -3.22631 -0.104457 0
M  V30 7110 H 644.613 -3.02454 2.30708 0
M  V30 7111 H 645.925 -4.09515 2.84779 0
M  V30 7112 H 645.079 -5.91457 1.35143 0
M  V30 7113 H 643.818 -4.82537 0.707753 0
M  V30 7114 H 642.823 -4.60599 3.00215 0
M  V30 7115 H 644.048 -5.72965 3.64538 0
M  V30 7116 H 641.994 -6.3863 1.49959 0
M  V30 7117 H 641.911 -6.86662 3.16277 0
M  V30 7118 H 643.179 -7.49221 2.15146 0
M  V30 7119 N 647.408 -1.11026 -1.11852 0
M  V30 7120 C 648.657 -0.851249 -1.82857 0
M  V30 7121 C 648.97 0.62514 -1.85341 0
M  V30 7122 O 650.176 1.00026 -2.52403 0
M  V30 7123 C 648.632 -1.47309 -3.28372 0
M  V30 7124 C 648.24 -2.9832 -3.34229 0
M  V30 7125 C 649.984 -1.29373 -4.04306 0
M  V30 7126 C 647.891 -3.53509 -4.74115 0
M  V30 7127 H 646.821 -0.314794 -0.685143 0
M  V30 7128 H 649.472 -1.33499 -1.25898 0
M  V30 7129 H 647.854 -0.917017 -3.85236 0
M  V30 7130 H 649.028 -3.60295 -2.87271 0
M  V30 7131 H 647.343 -3.15482 -2.71772 0
M  V30 7132 H 649.94 -1.68042 -5.07608 0
M  V30 7133 H 650.283 -0.235879 -4.15631 0
M  V30 7134 H 650.816 -1.8182 -3.53817 0
M  V30 7135 H 647.555 -4.58987 -4.67986 0
M  V30 7136 H 647.075 -2.96305 -5.21501 0
M  V30 7137 H 648.754 -3.51693 -5.43066 0
M  V30 7138 N 648.886 1.2938 -0.899927 0
M  V30 7139 C 650.116 1.99402 -0.540601 0
M  V30 7140 C 650.524 1.67534 0.87914 0
M  V30 7141 O 649.867 0.916821 1.59186 0
M  V30 7142 C 649.929 3.53514 -0.653326 0
M  V30 7143 C 649.593 4.08937 -2.04009 0
M  V30 7144 C 650.59 4.23815 -3.01126 0
M  V30 7145 C 648.275 4.43962 -2.34953 0
M  V30 7146 C 650.269 4.72951 -4.27313 0
M  V30 7147 C 647.956 4.92795 -3.61382 0
M  V30 7148 C 648.954 5.07244 -4.57376 0
M  V30 7149 O 648.642 5.55017 -5.8156 0
M  V30 7150 H 648.374 0.64383 -0.206057 0
M  V30 7151 H 650.928 1.65878 -1.21134 0
M  V30 7152 H 649.158 3.86628 0.0744449 0
M  V30 7153 H 650.847 4.04767 -0.303118 0
M  V30 7154 H 651.613 3.97043 -2.78535 0
M  V30 7155 H 647.492 4.31974 -1.60994 0
M  V30 7156 H 651.036 4.84144 -5.02245 0
M  V30 7157 H 646.933 5.19004 -3.83804 0
M  V30 7158 H 647.701 5.73331 -5.84153 0
M  V30 7159 N 650.364 0.662433 1.43002 0
M  V30 7160 C 651.611 0.179591 2.01702 0
M  V30 7161 C 651.939 -1.20964 1.52309 0
M  V30 7162 O 651.194 -1.82343 0.7106 0
M  V30 7163 C 651.493 0.149363 3.57088 0
M  V30 7164 C 651.159 1.48158 4.25864 0
M  V30 7165 C 649.821 1.84638 4.44367 0
M  V30 7166 C 652.173 2.35953 4.64732 0
M  V30 7167 C 649.501 3.08561 4.99006 0
M  V30 7168 C 651.853 3.59176 5.20745 0
M  V30 7169 C 650.517 3.95841 5.37463 0
M  V30 7170 H 649.787 0.0657172 0.73808 0
M  V30 7171 H 652.434 0.854968 1.71355 0
M  V30 7172 H 650.739 -0.609491 3.8703 0
M  V30 7173 H 652.436 -0.241241 4.00274 0
M  V30 7174 H 649.026 1.18777 4.11813 0
M  V30 7175 H 653.21 2.09058 4.50121 0
M  V30 7176 H 648.466 3.37005 5.10135 0
M  V30 7177 H 652.64 4.27417 5.49807 0
M  V30 7178 H 650.267 4.91942 5.79566 0
M  V30 7179 N 651.842 -1.52309 0.404946 0
M  V30 7180 C 653.072 -2.05886 -0.171569 0
M  V30 7181 C 653.48 -1.27527 -1.39762 0
M  V30 7182 O 652.823 -0.319215 -1.80905 0
M  V30 7183 C 652.885 -3.54609 -0.590983 0
M  V30 7184 C 652.549 -4.53989 0.523757 0
M  V30 7185 C 653.546 -5.01084 1.38604 0
M  V30 7186 C 651.231 -4.97465 0.695255 0
M  V30 7187 C 653.225 -5.90295 2.4048 0
M  V30 7188 C 650.912 -5.86473 1.71733 0
M  V30 7189 C 651.91 -6.32782 2.57051 0
M  V30 7190 O 651.598 -7.20029 3.57509 0
M  V30 7191 H 651.33 -0.675508 -0.0257763 0
M  V30 7192 H 653.884 -1.97238 0.573278 0
M  V30 7193 H 652.114 -3.60929 -1.38805 0
M  V30 7194 H 653.803 -3.90853 -1.09494 0
M  V30 7195 H 654.569 -4.68214 1.26492 0
M  V30 7196 H 650.448 -4.60982 0.0408447 0
M  V30 7197 H 653.992 -6.26363 3.07108 0
M  V30 7198 H 649.889 -6.18756 1.83877 0
M  V30 7199 H 650.657 -7.3813 3.53703 0
M  V30 7200 N 653.32 -0.135238 -1.57019 0
M  V30 7201 C 654.566 0.513232 -1.96818 0
M  V30 7202 C 654.921 1.63245 -1.01827 0
M  V30 7203 O 654.214 1.91532 -0.0511756 0
M  V30 7204 C 654.408 1.07694 -3.40788 0
M  V30 7205 C 654.237 0.0138667 -4.49698 0
M  V30 7206 C 653.007 -0.423532 -5.03522 0
M  V30 7207 C 655.205 -0.77322 -5.08454 0
M  V30 7208 N 653.187 -1.47068 -5.96024 0
M  V30 7209 C 654.558 -1.67115 -5.97053 0
M  V30 7210 C 656.613 -0.822313 -4.91063 0
M  V30 7211 C 655.316 -2.61395 -6.70123 0
M  V30 7212 C 657.342 -1.75288 -5.64826 0
M  V30 7213 C 656.704 -2.63836 -6.53123 0
M  V30 7214 H 652.803 0.156956 -0.766087 0
M  V30 7215 H 655.387 -0.227118 -1.93371 0
M  V30 7216 H 653.558 1.78694 -3.44852 0
M  V30 7217 H 655.29 1.69106 -3.67675 0
M  V30 7218 H 652.045 -0.0280202 -4.73592 0
M  V30 7219 H 652.469 -1.99366 -6.46979 0
M  V30 7220 H 657.111 -0.151822 -4.22527 0
M  V30 7221 H 654.829 -3.2945 -7.37895 0
M  V30 7222 H 658.415 -1.79652 -5.53368 0
M  V30 7223 H 657.295 -3.34672 -7.092 0
M  V30 7224 N 654.798 1.5699 0.138552 0
M  V30 7225 C 655.728 2.01933 1.17241 0
M  V30 7226 C 656.709 0.90033 1.44319 0
M  V30 7227 O 657.894 1.16872 1.55095 0
M  V30 7228 C 655.024 2.40711 2.50351 0
M  V30 7229 C 653.978 3.55874 2.37776 0
M  V30 7230 C 653.304 3.80491 3.75674 0
M  V30 7231 C 654.604 4.8826 1.85472 0
M  V30 7232 H 656.298 2.88551 0.798672 0
M  V30 7233 H 653.844 1.3882 0.382743 0
M  V30 7234 H 655.797 2.70754 3.22909 0
M  V30 7235 H 654.521 1.5104 2.89576 0
M  V30 7236 H 653.18 3.2601 1.67669 0
M  V30 7237 H 652.828 2.88057 4.12349 0
M  V30 7238 H 652.528 4.57998 3.68119 0
M  V30 7239 H 654.052 4.12967 4.49767 0
M  V30 7240 H 655.466 5.16965 2.4783 0
M  V30 7241 H 653.863 5.69631 1.88787 0
M  V30 7242 H 654.933 4.78071 0.810935 0
M  V30 7243 N 656.276 -0.40816 1.52223 0
M  V30 7244 C 657.516 -1.16418 1.68006 0
M  V30 7245 C 657.88 -1.87749 0.401793 0
M  V30 7246 O 659.081 -2.65245 0.435743 0
M  V30 7247 C 657.352 -2.13143 2.86889 0
M  V30 7248 S 658.911 -2.96839 3.2316 0
M  V30 7249 H 655.729 -0.394373 0.5916 0
M  V30 7250 H 658.331 -0.451349 1.90219 0
M  V30 7251 H 657.035 -1.59428 3.78168 0
M  V30 7252 H 656.566 -2.88963 2.66953 0
M  V30 7253 H 658.581 -4.151 2.71857 0
M  V30 7254 N 657.755 -1.42862 -0.66545 0
M  V30 7255 C 659.171 -1.25993 -0.979687 0
M  V30 7256 C 659.371 -0.170831 -2.00775 0
M  V30 7257 O 658.427 0.454827 -2.4837 0
M  V30 7258 C 659.74 -2.62005 -1.47559 0
M  V30 7259 C 661.288 -2.69437 -1.59288 0
M  V30 7260 C 661.763 -4.05838 -2.12272 0
M  V30 7261 N 663.254 -4.0784 -2.19592 0
M  V30 7262 C 663.989 -5.10205 -2.61684 0
M  V30 7263 N 663.485 -6.22949 -3.03161 0
M  V30 7264 N 665.278 -4.9756 -2.61516 0
M  V30 7265 H 657.429 -2.12395 0.0150493 0
M  V30 7266 H 659.692 -0.946355 -0.0558187 0
M  V30 7267 H 659.398 -3.42605 -0.794654 0
M  V30 7268 H 659.272 -2.86566 -2.45275 0
M  V30 7269 H 661.659 -1.89178 -2.26486 0
M  V30 7270 H 661.74 -2.48655 -0.600374 0
M  V30 7271 H 661.384 -4.86559 -1.4568 0
M  V30 7272 H 661.314 -4.23977 -3.12331 0
M  V30 7273 H 663.805 -3.26452 -1.90361 0
M  V30 7274 H 664.118 -6.96899 -3.33993 0
M  V30 7275 H 662.463 -6.2644 -3.00995 0
M  V30 7276 H 665.654 -4.08551 -2.28481 0
M  V30 7277 H 665.827 -5.77468 -2.93999 0
M  V30 7278 N 659.233 0.902656 -1.29189 0
M  V30 7279 C 660.51 1.63296 -1.07674 0
M  V30 7280 C 660.89 2.07649 0.380137 0
M  V30 7281 O 660.238 1.82997 1.36837 0
M  V30 7282 C 660.448 2.81603 -2.06158 0
M  V30 7283 C 661.796 3.52359 -2.36914 0
M  V30 7284 O 662.82 2.91767 -2.04329 0
M  V30 7285 O 661.679 4.61586 -2.92576 0
M  V30 7286 H 658.773 0.716889 -0.41231 0
M  V30 7287 H 661.319 0.950984 -1.4055 0
M  V30 7288 H 660.091 2.46004 -3.04299 0
M  V30 7289 H 659.714 3.57508 -1.73993 0
M  V30 7290 N 660.711 1.11618 1.11262 0
M  V30 7291 C 661.939 0.888739 1.8684 0
M  V30 7292 C 662.354 -0.561558 1.80255 0
M  V30 7293 O 661.711 -1.38782 1.18515 0
M  V30 7294 C 661.762 1.34422 3.35579 0
M  V30 7295 O 661.483 2.73766 3.42029 0
M  V30 7296 C 662.984 1.15246 4.28058 0
M  V30 7297 H 660.204 0.318152 0.590779 0
M  V30 7298 H 662.748 1.48398 1.40707 0
M  V30 7299 H 660.903 0.79239 3.7921 0
M  V30 7300 H 661.317 2.9355 4.34659 0
M  V30 7301 H 662.791 1.52015 5.30656 0
M  V30 7302 H 663.268 0.0922007 4.39103 0
M  V30 7303 H 663.874 1.69136 3.90222 0
M  V30 7304 N 662.189 -1.289 0.906776 0
M  V30 7305 C 663.139 -2.25122 0.361109 0
M  V30 7306 C 664.123 -1.52169 -0.52283 0
M  V30 7307 O 665.315 -1.73223 -0.363691 0
M  V30 7308 C 662.444 -3.40915 -0.403982 0
M  V30 7309 C 661.53 -4.21198 0.495279 0
M  V30 7310 N 661.921 -4.79636 1.60572 0
M  V30 7311 C 660.219 -4.45027 0.294372 0
M  V30 7312 C 660.92 -5.39977 2.16332 0
M  V30 7313 N 659.896 -5.23753 1.45546 0
M  V30 7314 H 663.698 -2.67869 1.20927 0
M  V30 7315 H 661.212 -1.43592 0.758632 0
M  V30 7316 H 663.209 -4.08922 -0.811695 0
M  V30 7317 H 661.869 -2.99703 -1.24932 0
M  V30 7318 H 662.88 -4.78209 1.98838 0
M  V30 7319 H 659.557 -4.14348 -0.512021 0
M  V30 7320 H 660.947 -5.96266 3.09704 0
M  V30 7321 N 663.667 -0.670007 -1.42649 0
M  V30 7322 C 664.63 0.00204659 -2.292 0
M  V30 7323 C 665.63 0.733817 -1.4308 0
M  V30 7324 O 666.82 0.57254 -1.64522 0
M  V30 7325 C 663.952 1.01359 -3.25483 0
M  V30 7326 H 665.145 -0.759696 -2.90118 0
M  V30 7327 H 662.698 -0.432105 -1.50208 0
M  V30 7328 H 663.433 1.80399 -2.69493 0
M  V30 7329 H 663.218 0.492323 -3.88997 0
M  V30 7330 H 664.708 1.4824 -3.90403 0
M  V30 7331 N 665.145 1.52092 -0.413018 0
M  V30 7332 C 666.392 2.01855 0.161497 0
M  V30 7333 C 666.72 1.29845 1.44812 0
M  V30 7334 O 665.975 0.394471 1.91683 0
M  V30 7335 C 666.274 3.54529 0.4521 0
M  V30 7336 C 665.94 4.4469 -0.745788 0
M  V30 7337 C 664.602 4.69053 -1.07435 0
M  V30 7338 C 666.954 4.97742 -1.54604 0
M  V30 7339 C 664.282 5.43717 -2.20429 0
M  V30 7340 C 666.634 5.73642 -2.66678 0
M  V30 7341 C 665.298 5.96277 -3.00016 0
M  V30 7342 H 664.568 0.73864 0.0590961 0
M  V30 7343 H 667.215 1.83274 -0.555234 0
M  V30 7344 H 665.52 3.7131 1.25045 0
M  V30 7345 H 667.217 3.90546 0.909647 0
M  V30 7346 H 663.807 4.25907 -0.479725 0
M  V30 7347 H 667.991 4.78824 -1.30543 0
M  V30 7348 H 663.247 5.59462 -2.46602 0
M  V30 7349 H 667.421 6.13746 -3.29072 0
M  V30 7350 H 665.048 6.53913 -3.87688 0
M  V30 7351 N 666.623 0.143563 1.56945 0
M  V30 7352 C 667.533 -0.810562 2.20152 0
M  V30 7353 C 668.549 -1.27431 1.1848 0
M  V30 7354 O 669.725 -1.33221 1.51044 0
M  V30 7355 C 666.79 -2.03353 2.80799 0
M  V30 7356 C 665.851 -1.61936 3.97587 0
M  V30 7357 C 665.084 -2.78403 4.55332 0
M  V30 7358 O 665.307 -3.94521 4.11958 0
M  V30 7359 O 664.241 -2.54073 5.45647 0
M  V30 7360 H 668.067 -0.30253 3.02189 0
M  V30 7361 H 665.652 -0.0832925 1.49168 0
M  V30 7362 H 667.534 -2.74932 3.19359 0
M  V30 7363 H 666.209 -2.53116 2.01777 0
M  V30 7364 H 665.116 -0.873904 3.6375 0
M  V30 7365 H 666.449 -1.16892 4.78118 0
M  V30 7366 N 668.101 -1.57061 -0.130224 0
M  V30 7367 C 669.347 -1.85412 -0.836295 0
M  V30 7368 C 669.702 -0.729831 -1.7802 0
M  V30 7369 O 668.995 0.271021 -1.89673 0
M  V30 7370 C 669.189 -3.17878 -1.63365 0
M  V30 7371 C 669.018 -4.43086 -0.768453 0
M  V30 7372 C 667.788 -5.03488 -0.427598 0
M  V30 7373 C 669.986 -5.14219 -0.0911495 0
M  V30 7374 N 667.968 -6.12253 0.449439 0
M  V30 7375 C 669.339 -6.16632 0.645341 0
M  V30 7376 C 671.394 -4.97898 -0.0135625 0
M  V30 7377 C 670.097 -7.0449 1.45212 0
M  V30 7378 C 672.123 -5.86234 0.780001 0
M  V30 7379 C 671.485 -6.88141 1.50472 0
M  V30 7380 H 667.584 -0.728875 -0.283311 0
M  V30 7381 H 670.168 -1.9444 -0.100662 0
M  V30 7382 H 668.339 -3.09967 -2.3404 0
M  V30 7383 H 670.071 -3.34076 -2.28419 0
M  V30 7384 H 666.826 -4.67344 -0.767264 0
M  V30 7385 H 667.25 -6.71263 0.879476 0
M  V30 7386 H 671.892 -4.19082 -0.559511 0
M  V30 7387 H 669.61 -7.82722 2.00926 0
M  V30 7388 H 673.196 -5.75671 0.842246 0
M  V30 7389 H 672.076 -7.55311 2.1089 0
M  V30 7390 N 669.579 0.400081 -1.52437 0
M  V30 7391 C 670.826 1.14619 -1.6694 0
M  V30 7392 C 671.154 1.90262 -0.403797 0
M  V30 7393 O 670.409 1.85835 0.61351 0
M  V30 7394 C 670.708 2.15914 -2.84808 0
M  V30 7395 C 670.374 1.57011 -4.2268 0
M  V30 7396 C 669.036 1.40672 -4.60179 0
M  V30 7397 C 671.388 1.14081 -5.08562 0
M  V30 7398 C 668.716 0.799335 -5.81229 0
M  V30 7399 C 671.068 0.547573 -6.30226 0
M  V30 7400 C 669.732 0.371389 -6.66466 0
M  V30 7401 H 669.002 0.419419 -0.610875 0
M  V30 7402 H 671.649 0.432227 -1.86558 0
M  V30 7403 H 669.954 2.93488 -2.59561 0
M  V30 7404 H 671.651 2.73533 -2.93225 0
M  V30 7405 H 668.241 1.70713 -3.93135 0
M  V30 7406 H 672.425 1.2551 -4.80168 0
M  V30 7407 H 667.681 0.65093 -6.07925 0
M  V30 7408 H 671.855 0.206575 -6.96094 0
M  V30 7409 H 669.482 -0.10135 -7.60132 0
M  V30 7410 N 671.057 1.43213 0.657864 0
M  V30 7411 C 672.02 1.47687 1.75275 0
M  V30 7412 C 673.02 0.362179 1.56668 0
M  V30 7413 O 674.21 0.623734 1.62651 0
M  V30 7414 C 671.342 1.32497 3.14098 0
M  V30 7415 H 672.535 2.4519 1.7269 0
M  V30 7416 H 670.088 1.2991 0.869087 0
M  V30 7417 H 670.823 0.359831 3.22298 0
M  V30 7418 H 670.608 2.13299 3.29008 0
M  V30 7419 H 672.098 1.38549 3.93946 0
M  V30 7420 N 672.536 -0.895792 1.29666 0
M  V30 7421 C 673.813 -1.62723 1.08538 0
M  V30 7422 C 674.193 -2.07848 -0.369119 0
M  V30 7423 O 673.541 -1.8372 -1.35864 0
M  V30 7424 C 673.751 -2.80505 2.07648 0
M  V30 7425 C 675.099 -3.51098 2.3878 0
M  V30 7426 O 676.123 -2.90679 2.05874 0
M  V30 7427 O 674.982 -4.60028 2.9502 0
M  V30 7428 H 672.076 -0.714692 0.416106 0
M  V30 7429 H 674.622 -0.943517 1.41053 0
M  V30 7430 H 673.394 -2.44386 3.05599 0
M  V30 7431 H 673.017 -3.5658 1.75887 0
M  V30 7432 N 674.014 -1.12206 -1.10668 0
M  V30 7433 C 674.944 -0.810086 -2.18997 0
M  V30 7434 C 675.925 0.225065 -1.68604 0
M  V30 7435 O 677.11 0.086783 -1.94006 0
M  V30 7436 C 674.24 -0.261262 -3.46316 0
M  V30 7437 C 673.194 -1.2292 -4.09969 0
M  V30 7438 C 672.52 -0.540713 -5.31959 0
M  V30 7439 C 673.82 -2.58295 -4.53962 0
M  V30 7440 H 675.514 -1.7159 -2.45352 0
M  V30 7441 H 673.06 -0.82646 -1.17922 0
M  V30 7442 H 675.013 -0.0307522 -4.21389 0
M  V30 7443 H 673.737 0.679879 -3.19445 0
M  V30 7444 H 672.396 -1.44548 -3.369 0
M  V30 7445 H 672.044 0.405492 -5.01363 0
M  V30 7446 H 671.744 -1.18637 -5.75499 0
M  V30 7447 H 673.268 -0.319184 -6.09765 0
M  V30 7448 H 674.682 -2.40709 -5.20319 0
M  V30 7449 H 673.079 -3.18916 -5.08343 0
M  V30 7450 H 674.149 -3.16918 -3.67002 0
M  V30 7451 N 675.492 1.28418 -0.913599 0
M  V30 7452 C 676.422 2.29713 -0.418847 0
M  V30 7453 C 677.403 1.62165 0.513469 0
M  V30 7454 O 678.588 1.89576 0.421235 0
M  V30 7455 C 675.718 3.45612 0.342042 0
M  V30 7456 C 674.672 4.25056 -0.501123 0
M  V30 7457 C 673.998 5.3329 0.388097 0
M  V30 7458 C 675.298 4.91814 -1.75831 0
M  V30 7459 H 676.992 2.71346 -1.26538 0
M  V30 7460 H 674.538 1.30446 -0.609903 0
M  V30 7461 H 676.491 4.15562 0.699 0
M  V30 7462 H 675.215 3.02858 1.22248 0
M  V30 7463 H 673.874 3.56833 -0.840598 0
M  V30 7464 H 673.522 4.8678 1.26707 0
M  V30 7465 H 673.222 5.87347 -0.172459 0
M  V30 7466 H 674.746 6.06088 0.74094 0
M  V30 7467 H 676.16 5.54126 -1.47026 0
M  V30 7468 H 674.557 5.55866 -2.26126 0
M  V30 7469 H 675.627 4.16313 -2.4862 0
M  V30 7470 N 676.97 0.677563 1.42291 0
M  V30 7471 C 677.902 -0.0380218 2.29168 0
M  V30 7472 C 678.915 -0.762714 1.43828 0
M  V30 7473 O 680.104 -0.616413 1.67519 0
M  V30 7474 C 677.204 -1.07761 3.21311 0
M  V30 7475 C 676.377 -0.42618 4.35319 0
M  V30 7476 C 675.436 -1.36592 5.08162 0
M  V30 7477 O 674.462 -0.865174 5.62586 0
M  V30 7478 N 675.664 -2.69909 5.13935 0
M  V30 7479 H 678.429 0.707766 2.91223 0
M  V30 7480 H 675.99 0.52219 1.53247 0
M  V30 7481 H 677.982 -1.70761 3.6691 0
M  V30 7482 H 676.552 -1.72511 2.60689 0
M  V30 7483 H 675.772 0.383385 3.92331 0
M  V30 7484 H 677.06 0.0275277 5.08793 0
M  V30 7485 H 676.458 -3.13129 4.71134 0
M  V30 7486 H 675.015 -3.2815 5.6317 0
M  V30 7487 N 678.448 -1.51871 0.421078 0
M  V30 7488 C 679.378 -2.30231 -0.389363 0
M  V30 7489 C 680.359 -1.34946 -1.03555 0
M  V30 7490 O 681.544 -1.63859 -1.04229 0
M  V30 7491 C 678.674 -3.13247 -1.49979 0
M  V30 7492 C 677.628 -4.16677 -0.977966 0
M  V30 7493 C 676.954 -4.88112 -2.1829 0
M  V30 7494 C 678.254 -5.22295 -0.0236775 0
M  V30 7495 H 679.948 -2.98229 0.264524 0
M  V30 7496 H 677.494 -1.43424 0.12866 0
M  V30 7497 H 679.447 -3.66838 -2.07383 0
M  V30 7498 H 678.171 -2.4304 -2.18173 0
M  V30 7499 H 676.83 -3.64114 -0.426245 0
M  V30 7500 H 676.478 -4.14423 -2.85066 0
M  V30 7501 H 676.178 -5.58041 -1.84021 0
M  V30 7502 H 677.702 -5.44521 -2.76278 0
M  V30 7503 H 679.116 -5.71055 -0.506899 0
M  V30 7504 H 677.513 -5.99656 0.230782 0
M  V30 7505 H 678.583 -4.76131 0.917999 0
M  V30 7506 N 679.926 -0.151884 -1.56866 0
M  V30 7507 C 680.856 0.781943 -2.20018 0
M  V30 7508 C 681.837 1.25347 -1.14987 0
M  V30 7509 O 683.022 1.31015 -1.43348 0
M  V30 7510 C 680.152 2.01928 -2.82564 0
M  V30 7511 C 679.106 1.68434 -3.93464 0
M  V30 7512 C 678.432 2.99472 -4.42968 0
M  V30 7513 C 679.732 0.927244 -5.14003 0
M  V30 7514 H 681.426 0.255607 -2.98307 0
M  V30 7515 H 678.972 0.121502 -1.43486 0
M  V30 7516 H 680.925 2.67741 -3.25411 0
M  V30 7517 H 679.649 2.56943 -2.01614 0
M  V30 7518 H 678.308 1.04998 -3.51242 0
M  V30 7519 H 677.956 3.52488 -3.58834 0
M  V30 7520 H 677.656 2.77823 -5.17772 0
M  V30 7521 H 679.18 3.66348 -4.88489 0
M  V30 7522 H 680.594 1.48756 -5.53665 0
M  V30 7523 H 678.991 0.810513 -5.94601 0
M  V30 7524 H 680.061 -0.0801163 -4.84834 0
M  V30 7525 N 681.404 1.57128 0.121893 0
M  V30 7526 C 682.314 2.03425 1.16857 0
M  V30 7527 C 683.33 0.954108 1.45509 0
M  V30 7528 O 684.506 1.26541 1.56682 0
M  V30 7529 C 681.571 2.42685 2.47599 0
M  V30 7530 C 680.632 3.64767 2.2637 0
M  V30 7531 C 679.865 4.02145 3.50878 0
M  V30 7532 O 680.088 3.39897 4.58068 0
M  V30 7533 O 679.022 4.95262 3.42051 0
M  V30 7534 H 682.848 2.92825 0.80544 0
M  V30 7535 H 680.433 1.45654 0.332477 0
M  V30 7536 H 682.315 2.68684 3.24634 0
M  V30 7537 H 680.99 1.56432 2.83392 0
M  V30 7538 H 679.897 3.43922 1.47203 0
M  V30 7539 H 681.23 4.51716 1.95482 0
M  V30 7540 N 682.882 -0.391992 1.52647 0
M  V30 7541 C 684.107 -1.16312 1.71716 0
M  V30 7542 C 684.532 -1.83042 0.433279 0
M  V30 7543 O 683.89 -1.70705 -0.610707 0
M  V30 7544 C 683.938 -2.18908 2.86551 0
M  V30 7545 O 683.042 -3.2543 2.53316 0
M  V30 7546 H 682.383 -0.338743 0.571095 0
M  V30 7547 H 684.913 -0.457202 1.99426 0
M  V30 7548 H 684.923 -2.62954 3.1196 0
M  V30 7549 H 683.598 -1.69726 3.79692 0
M  V30 7550 H 682.175 -2.86543 2.38637 0
M  V30 7551 N 684.36 -1.4356 -0.65026 0
M  V30 7552 C 685.292 -1.44918 -1.77571 0
M  V30 7553 C 686.305 -0.344925 -1.59104 0
M  V30 7554 O 687.494 -0.609537 -1.6777 0
M  V30 7555 C 684.594 -1.24914 -3.15039 0
M  V30 7556 C 683.767 -2.48232 -3.60138 0
M  V30 7557 C 682.826 -2.23409 -4.76419 0
M  V30 7558 O 681.852 -2.9678 -4.85706 0
M  V30 7559 N 683.054 -1.25259 -5.66825 0
M  V30 7560 H 685.819 -2.41935 -1.76883 0
M  V30 7561 H 683.38 -1.38754 -0.834202 0
M  V30 7562 H 685.372 -1.06185 -3.90521 0
M  V30 7563 H 683.942 -0.363319 -3.10481 0
M  V30 7564 H 683.162 -2.82366 -2.75069 0
M  V30 7565 H 684.45 -3.30296 -3.87017 0
M  V30 7566 H 683.848 -0.646246 -5.61997 0
M  V30 7567 H 682.405 -1.12513 -6.42016 0
M  V30 7568 N 685.838 0.888903 -1.30139 0
M  V30 7569 C 686.771 1.99655 -1.10514 0
M  V30 7570 C 687.749 1.62594 -0.0138934 0
M  V30 7571 O 688.933 1.87762 -0.166689 0
M  V30 7572 C 686.06 3.31708 -0.684655 0
M  V30 7573 C 685.106 3.87755 -1.77619 0
M  V30 7574 S 685.939 4.15532 -3.37777 0
M  V30 7575 C 687.095 5.5061 -2.97622 0
M  V30 7576 H 687.328 2.15996 -2.04287 0
M  V30 7577 H 684.861 1.03682 -1.14409 0
M  V30 7578 H 686.819 4.08039 -0.448782 0
M  V30 7579 H 685.48 3.1323 0.233648 0
M  V30 7580 H 684.673 4.83164 -1.43417 0
M  V30 7581 H 684.275 3.18149 -1.96614 0
M  V30 7582 H 686.567 6.31518 -2.45338 0
M  V30 7583 H 687.51 5.89747 -3.91924 0
M  V30 7584 H 687.918 5.12983 -2.35603 0
M  V30 7585 N 687.317 1.12792 1.10072 0
M  V30 7586 C 688.249 0.757003 2.16338 0
M  V30 7587 C 689.262 -0.218144 1.61332 0
M  V30 7588 O 690.451 0.0010727 1.785 0
M  V30 7589 C 687.551 0.100303 3.38752 0
M  V30 7590 C 686.724 1.10586 4.2319 0
M  V30 7591 C 685.783 0.47609 5.24042 0
M  V30 7592 O 684.809 1.13418 5.57786 0
M  V30 7593 N 686.011 -0.754823 5.75572 0
M  V30 7594 H 688.776 1.6714 2.48766 0
M  V30 7595 H 686.337 1.02003 1.25726 0
M  V30 7596 H 688.329 -0.333092 4.03327 0
M  V30 7597 H 686.899 -0.716915 3.04268 0
M  V30 7598 H 686.119 1.71677 3.54853 0
M  V30 7599 H 687.407 1.78571 4.76435 0
M  V30 7600 H 686.805 -1.30838 5.50362 0
M  V30 7601 H 685.362 -1.13098 6.41913 0
M  V30 7602 N 688.795 -1.27931 0.920396 0
M  V30 7603 C 689.705 -2.30824 0.419212 0
M  V30 7604 C 690.721 -1.66767 -0.496461 0
M  V30 7605 O 691.897 -1.97763 -0.38104 0
M  V30 7606 C 688.962 -3.45158 -0.326601 0
M  V30 7607 C 688.023 -4.24754 0.623098 0
M  V30 7608 C 687.256 -5.33629 -0.0872172 0
M  V30 7609 O 687.479 -5.55204 -1.30784 0
M  V30 7610 O 686.413 -5.99091 0.580875 0
M  V30 7611 H 690.239 -2.75716 1.27337 0
M  V30 7612 H 687.824 -1.32747 0.685465 0
M  V30 7613 H 689.706 -4.14716 -0.747559 0
M  V30 7614 H 688.381 -3.02336 -1.15648 0
M  V30 7615 H 687.288 -3.57759 1.09359 0
M  V30 7616 H 688.621 -4.71272 1.41998 0
M  V30 7617 N 690.273 -0.685099 -1.4193 0
M  V30 7618 C 691.689 -0.355632 -1.55587 0
M  V30 7619 C 691.889 1.13823 -1.66273 0
M  V30 7620 O 690.945 1.92387 -1.63534 0
M  V30 7621 C 692.258 -1.09498 -2.80055 0
M  V30 7622 C 693.806 -1.07831 -2.93839 0
M  V30 7623 C 694.281 -1.79919 -4.21181 0
M  V30 7624 N 695.772 -1.76837 -4.28115 0
M  V30 7625 C 696.507 -2.29463 -5.25485 0
M  V30 7626 N 696.003 -2.90516 -6.28945 0
M  V30 7627 N 697.796 -2.19779 -5.17353 0
M  V30 7628 H 689.947 -1.65412 -1.33239 0
M  V30 7629 H 692.21 -0.697453 -0.642078 0
M  V30 7630 H 691.916 -2.14997 -2.78333 0
M  V30 7631 H 691.79 -0.666813 -3.71259 0
M  V30 7632 H 694.177 -0.0316152 -2.95083 0
M  V30 7633 H 694.258 -1.54545 -2.03837 0
M  V30 7634 H 693.902 -2.84562 -4.20698 0
M  V30 7635 H 693.832 -1.30647 -5.10136 0
M  V30 7636 H 696.323 -1.32315 -3.53979 0
M  V30 7637 H 696.636 -3.28266 -6.99615 0
M  V30 7638 H 694.981 -2.94589 -6.29478 0
M  V30 7639 H 698.172 -1.71763 -4.35448 0
M  V30 7640 H 698.345 -2.61097 -5.9307 0
M  V30 7641 N 691.751 1.51645 -0.429126 0
M  V30 7642 C 692.699 2.29119 0.400921 0
M  V30 7643 C 693.693 1.34628 1.02819 0
M  V30 7644 O 694.899 1.52004 0.964098 0
M  V30 7645 H 691.274 0.737273 0.148095 0
M  V30 7646 H 693.245 2.97144 -0.273457 0
M  V30 7647 C 691.994 3.13953 1.49429 0
M  V30 7648 H 691.317 3.86544 1.02097 0
M  V30 7649 H 692.757 3.71232 2.04849 0
M  V30 7650 C 691.216 2.28796 2.47293 0
M  V30 7651 O 691.746 1.94193 3.51642 0
M  V30 7652 N 689.952 1.92177 2.17982 0
M  V30 7653 H 689.499 2.20517 1.33154 0
M  V30 7654 H 689.457 1.35497 2.83704 0
M  V30 7655 N 693.229 0.160201 1.56784 0
M  V30 7656 C 694.177 -0.791402 2.18723 0
M  V30 7657 C 695.171 -1.24567 1.14801 0
M  V30 7658 O 696.377 -1.21262 1.33025 0
M  V30 7659 H 692.752 -0.273458 0.700517 0
M  V30 7660 H 694.723 -0.244931 2.97393 0
M  V30 7661 C 693.472 -2.01509 2.83354 0
M  V30 7662 H 692.795 -1.67454 3.63041 0
M  V30 7663 H 694.235 -2.66006 3.30177 0
M  V30 7664 C 692.694 -2.83159 1.82545 0
M  V30 7665 O 693.224 -3.79944 1.30405 0
M  V30 7666 N 691.43 -2.47953 1.51552 0
M  V30 7667 H 690.977 -1.69309 1.94144 0
M  V30 7668 H 690.935 -3.02873 0.843519 0
M  V30 7669 N 694.707 -1.5719 -0.113559 0
M  V30 7670 C 695.67 -1.99796 -1.12314 0
M  V30 7671 C 696.67 -0.888847 -1.34001 0
M  V30 7672 O 697.86 -1.15476 -1.30426 0
M  V30 7673 C 694.992 -2.34279 -2.47641 0
M  V30 7674 H 696.185 -2.90193 -0.756825 0
M  V30 7675 H 693.738 -1.52144 -0.358029 0
M  V30 7676 H 694.473 -1.46778 -2.89183 0
M  V30 7677 H 694.258 -3.15175 -2.33253 0
M  V30 7678 H 695.748 -2.67963 -3.2029 0
M  V30 7679 N 696.185 0.383891 -1.52853 0
M  V30 7680 C 697.433 1.12619 -1.67814 0
M  V30 7681 C 697.754 1.90354 -0.423141 0
M  V30 7682 O 697.024 1.87649 0.562554 0
M  V30 7683 H 695.604 0.418738 -0.618601 0
M  V30 7684 H 698.266 0.43495 -1.89985 0
M  V30 7685 H 697.362 1.82624 -2.5309 0
M  V30 7686 N 697.663 1.43903 0.642637 0
M  V30 7687 C 698.91 1.46079 1.40239 0
M  V30 7688 C 699.238 0.0890335 1.94296 0
M  V30 7689 O 698.493 -0.907533 1.73385 0
M  V30 7690 C 698.792 2.45907 2.59354 0
M  V30 7691 C 698.458 3.91522 2.23654 0
M  V30 7692 C 697.12 4.31179 2.1363 0
M  V30 7693 C 699.472 4.83242 1.95261 0
M  V30 7694 C 696.8 5.60495 1.73384 0
M  V30 7695 C 699.152 6.12933 1.56511 0
M  V30 7696 C 697.816 6.51556 1.4502 0
M  V30 7697 H 697.086 0.534542 0.513172 0
M  V30 7698 H 699.733 1.77047 0.72984 0
M  V30 7699 H 698.038 2.08381 3.3179 0
M  V30 7700 H 699.735 2.44842 3.17574 0
M  V30 7701 H 696.325 3.60142 2.32369 0
M  V30 7702 H 700.509 4.53367 2.0192 0
M  V30 7703 H 695.765 5.89249 1.63082 0
M  V30 7704 H 699.939 6.83469 1.33576 0
M  V30 7705 H 697.566 7.51663 1.13606 0
M  V30 7706 N 699.141 -0.881989 1.30609 0
M  V30 7707 C 700.071 -2.00413 1.1982 0
M  V30 7708 C 701.052 -1.69871 0.0881538 0
M  V30 7709 O 702.237 -1.92304 0.2707 0
M  V30 7710 C 699.367 -3.35641 0.89233 0
M  V30 7711 C 698.321 -3.80451 1.96064 0
M  V30 7712 C 697.647 -5.13003 1.5077 0
M  V30 7713 C 698.947 -3.98855 3.37213 0
M  V30 7714 H 700.641 -2.09698 2.13699 0
M  V30 7715 H 698.187 -1.00754 1.02882 0
M  V30 7716 H 700.14 -4.13669 0.803497 0
M  V30 7717 H 698.864 -3.26497 -0.0821381 0
M  V30 7718 H 697.523 -3.04654 2.03916 0
M  V30 7719 H 697.171 -5.0029 0.521417 0
M  V30 7720 H 696.871 -5.43956 2.22229 0
M  V30 7721 H 698.395 -5.93554 1.43271 0
M  V30 7722 H 699.809 -4.67312 3.32103 0
M  V30 7723 H 698.206 -4.41188 4.06784 0
M  V30 7724 H 699.276 -3.02614 3.78883 0
M  V30 7725 N 700.619 -1.13374 -1.09472 0
M  V30 7726 C 701.844 -0.918711 -1.85942 0
M  V30 7727 C 702.269 0.527225 -1.8056 0
M  V30 7728 O 701.627 1.37408 -1.18274 0
M  V30 7729 C 701.675 -1.41056 -3.31867 0
M  V30 7730 O 700.779 -0.595496 -4.08078 0
M  V30 7731 H 700.12 -0.329297 -0.576593 0
M  V30 7732 H 702.65 -1.50829 -1.38245 0
M  V30 7733 H 702.66 -1.41398 -3.82715 0
M  V30 7734 H 701.335 -2.46335 -3.35099 0
M  V30 7735 H 699.912 -0.659911 -3.67014 0
M  V30 7736 N 702.098 1.27442 -0.927168 0
M  V30 7737 C 703.328 1.9821 -0.582775 0
M  V30 7738 C 703.736 1.69361 0.843406 0
M  V30 7739 O 703.079 0.950381 1.57205 0
M  V30 7740 C 703.141 3.52048 -0.728165 0
M  V30 7741 C 702.805 4.04518 -2.12637 0
M  V30 7742 C 703.802 4.17332 -3.10048 0
M  V30 7743 C 701.487 4.38879 -2.44317 0
M  V30 7744 C 703.481 4.6378 -4.37249 0
M  V30 7745 C 701.168 4.85018 -3.71753 0
M  V30 7746 C 702.166 4.97428 -4.68033 0
M  V30 7747 O 701.854 5.42556 -5.93202 0
M  V30 7748 H 701.586 0.639314 -0.219667 0
M  V30 7749 H 704.14 1.63272 -1.24626 0
M  V30 7750 H 702.37 3.86699 -0.00758143 0
M  V30 7751 H 704.059 4.04033 -0.388906 0
M  V30 7752 H 704.825 3.91046 -2.86894 0
M  V30 7753 H 700.704 4.28462 -1.70121 0
M  V30 7754 H 704.248 4.73382 -5.12402 0
M  V30 7755 H 700.145 5.10746 -3.94726 0
M  V30 7756 H 700.913 5.60811 -5.96182 0
M  V30 7757 N 703.576 0.692616 1.41565 0
M  V30 7758 C 704.524 0.0139952 2.32596 0
M  V30 7759 C 705.518 -0.771691 1.50802 0
M  V30 7760 O 706.724 -0.677646 1.66757 0
M  V30 7761 H 703.099 -0.0142745 0.751865 0
M  V30 7762 H 705.07 0.798851 2.87508 0
M  V30 7763 C 703.819 -0.910602 3.35564 0
M  V30 7764 H 703.142 -0.315446 3.98554 0
M  V30 7765 H 704.582 -1.3538 4.01806 0
M  V30 7766 C 703.041 -2.02539 2.6922 0
M  V30 7767 O 703.571 -3.11386 2.53775 0
M  V30 7768 N 701.777 -1.80227 2.27962 0
M  V30 7769 H 701.324 -0.917054 2.40724 0
M  V30 7770 H 701.282 -2.55001 1.83907 0
M  V30 7771 N 705.054 -1.51416 0.437162 0
M  V30 7772 C 706.303 -2.01275 -0.130865 0
M  V30 7773 C 706.616 -1.32593 -1.438 0
M  V30 7774 O 707.822 -1.7342 -2.08897 0
M  V30 7775 C 706.278 -3.5878 -0.283763 0
M  V30 7776 C 705.886 -4.36399 1.01293 0
M  V30 7777 C 707.63 -4.16786 -0.805569 0
M  V30 7778 C 705.537 -5.85608 0.825687 0
M  V30 7779 H 704.467 -0.752157 -0.0526818 0
M  V30 7780 H 707.118 -1.74524 0.566896 0
M  V30 7781 H 705.5 -3.81976 -1.04452 0
M  V30 7782 H 706.674 -4.24948 1.78201 0
M  V30 7783 H 704.989 -3.89843 1.46326 0
M  V30 7784 H 707.586 -5.25972 -0.962146 0
M  V30 7785 H 707.929 -3.75949 -1.78796 0
M  V30 7786 H 708.462 -3.97666 -0.103125 0
M  V30 7787 H 705.201 -6.30857 1.78045 0
M  V30 7788 H 704.721 -5.99723 0.0964029 0
M  V30 7789 H 706.4 -6.45226 0.478815 0
M  V30 7790 N 706.532 -0.168513 -1.56696 0
M  V30 7791 C 707.762 0.482802 -2.0088 0
M  V30 7792 C 708.17 1.57537 -1.0478 0
M  V30 7793 O 707.513 1.83656 -0.0402746 0
M  V30 7794 C 707.575 1.1236 -3.4149 0
M  V30 7795 C 707.239 0.173027 -4.56672 0
M  V30 7796 C 708.236 -0.607565 -5.16338 0
M  V30 7797 C 705.921 0.0696691 -5.02252 0
M  V30 7798 C 707.915 -1.47874 -6.2001 0
M  V30 7799 C 705.602 -0.805096 -6.05773 0
M  V30 7800 C 706.6 -1.57789 -6.64524 0
M  V30 7801 O 706.288 -2.43804 -7.66038 0
M  V30 7802 H 706.02 0.128246 -0.663723 0
M  V30 7803 H 708.574 -0.266532 -2.03663 0
M  V30 7804 H 706.804 1.921 -3.35611 0
M  V30 7805 H 708.493 1.67683 -3.69645 0
M  V30 7806 H 709.259 -0.53787 -4.82008 0
M  V30 7807 H 705.138 0.660957 -4.56237 0
M  V30 7808 H 708.682 -2.0824 -6.65794 0
M  V30 7809 H 704.579 -0.876005 -6.39528 0
M  V30 7810 H 705.347 -2.37289 -7.83349 0
M  V30 7811 N 708.01 1.57248 0.105221 0
M  V30 7812 C 708.94 2.04374 1.12931 0
M  V30 7813 C 709.921 0.93074 1.42377 0
M  V30 7814 O 711.106 1.20136 1.52581 0
M  V30 7815 C 708.236 2.45967 2.45189 0
M  V30 7816 C 707.19 3.60838 2.30174 0
M  V30 7817 C 706.516 3.88374 3.67518 0
M  V30 7818 C 707.816 4.92084 1.75073 0
M  V30 7819 H 709.51 2.9018 0.737287 0
M  V30 7820 H 707.056 1.39601 0.353211 0
M  V30 7821 H 709.009 2.77542 3.17094 0
M  V30 7822 H 707.733 1.57148 2.86308 0
M  V30 7823 H 706.392 3.29493 1.60716 0
M  V30 7824 H 706.04 2.96739 4.06147 0
M  V30 7825 H 705.74 4.65703 3.58321 0
M  V30 7826 H 707.264 4.22415 4.40906 0
M  V30 7827 H 708.678 5.22106 2.36809 0
M  V30 7828 H 707.075 5.73507 1.76662 0
M  V30 7829 H 708.145 4.79684 0.709347 0
M  V30 7830 N 709.488 -0.375779 1.53054 0
M  V30 7831 C 710.716 -1.14036 1.72637 0
M  V30 7832 C 711.131 -1.83342 0.450687 0
M  V30 7833 O 710.488 -1.7318 -0.575749 0
M  V30 7834 C 710.539 -2.17841 2.88492 0
M  V30 7835 O 710.26 -1.51358 4.11123 0
M  V30 7836 C 711.761 -3.06924 3.19863 0
M  V30 7837 H 708.981 -0.341386 0.577665 0
M  V30 7838 H 711.525 -0.437809 1.99759 0
M  V30 7839 H 709.68 -2.8371 2.63794 0
M  V30 7840 H 710.094 -2.20439 4.75928 0
M  V30 7841 H 711.568 -3.75763 4.04359 0
M  V30 7842 H 712.045 -3.71169 2.34798 0
M  V30 7843 H 712.651 -2.46684 3.46449 0
M  V30 7844 N 710.966 -1.44241 -0.634997 0
M  V30 7845 C 712.214 -1.46531 -1.39187 0
M  V30 7846 C 712.535 -0.0976441 -1.94755 0
M  V30 7847 O 711.805 0.869528 -1.75545 0
M  V30 7848 H 710.385 -0.539544 -0.516625 0
M  V30 7849 H 713.047 -1.79989 -0.747655 0
M  V30 7850 H 712.143 -2.18848 -2.22513 0
M  V30 7851 N 712.444 0.87505 -1.31075 0
M  V30 7852 C 713.69 1.63006 -1.21657 0
M  V30 7853 C 714.045 1.91088 0.224306 0
M  V30 7854 O 713.338 1.52779 1.15625 0
M  V30 7855 C 713.532 2.96948 -1.98888 0
M  V30 7856 C 713.361 2.81944 -3.50339 0
M  V30 7857 C 712.131 2.814 -4.19693 0
M  V30 7858 C 714.329 2.57171 -4.45385 0
M  V30 7859 N 712.311 2.57392 -5.57335 0
M  V30 7860 C 713.682 2.42379 -5.7066 0
M  V30 7861 C 715.737 2.42474 -4.34868 0
M  V30 7862 C 714.44 2.14385 -6.86609 0
M  V30 7863 C 716.466 2.15868 -5.50595 0
M  V30 7864 C 715.828 2.0186 -6.74857 0
M  V30 7865 H 711.927 0.601043 -0.500271 0
M  V30 7866 H 714.511 1.03033 -1.65204 0
M  V30 7867 H 712.682 3.54936 -1.57718 0
M  V30 7868 H 714.414 3.61702 -1.81531 0
M  V30 7869 H 711.169 2.93596 -3.71616 0
M  V30 7870 H 711.593 2.48373 -6.29794 0
M  V30 7871 H 716.235 2.52035 -3.39468 0
M  V30 7872 H 713.953 2.03562 -7.82041 0
M  V30 7873 H 717.539 2.05304 -5.44372 0
M  V30 7874 H 716.419 1.81562 -7.62892 0
M  V30 7875 N 713.922 1.13953 1.08869 0
M  V30 7876 C 715.199 0.815768 1.77777 0
M  V30 7877 C 715.579 -0.691624 1.99449 0
M  V30 7878 O 714.927 -1.63085 1.60049 0
M  V30 7879 C 715.137 1.60916 3.09689 0
M  V30 7880 C 716.485 1.80549 3.84301 0
M  V30 7881 O 717.509 1.57562 3.19457 0
M  V30 7882 O 716.368 2.18946 5.00724 0
M  V30 7883 H 713.462 0.298445 0.771271 0
M  V30 7884 H 716.008 1.24446 1.15374 0
M  V30 7885 H 714.78 2.6333 2.89435 0
M  V30 7886 H 714.403 1.17578 3.79817 0
M  V30 7887 N 715.4 -1.26948 0.933913 0
M  V30 7888 C 716.31 -2.30366 0.443671 0
M  V30 7889 C 717.326 -1.67284 -0.478745 0
M  V30 7890 O 718.502 -1.98156 -0.360043 0
M  V30 7891 C 715.567 -3.45485 -0.289974 0
M  V30 7892 C 714.628 -4.24069 0.668114 0
M  V30 7893 C 713.861 -5.33691 -0.0306138 0
M  V30 7894 O 714.084 -5.5656 -1.24888 0
M  V30 7895 O 713.018 -5.98441 0.644384 0
M  V30 7896 H 716.844 -2.74349 1.30254 0
M  V30 7897 H 714.429 -1.32012 0.699506 0
M  V30 7898 H 716.311 -4.15486 -0.70353 0
M  V30 7899 H 714.986 -3.03546 -1.12435 0
M  V30 7900 H 713.893 -3.56579 1.13147 0
M  V30 7901 H 715.226 -4.69739 1.46989 0
M  V30 7902 N 716.879 -0.700114 -1.41195 0
M  V30 7903 C 718.104 -0.240704 -2.05998 0
M  V30 7904 C 718.529 1.10313 -1.52357 0
M  V30 7905 O 717.887 1.69154 -0.652424 0
M  V30 7906 C 717.935 -0.213783 -3.59966 0
M  V30 7907 O 717.039 0.809933 -4.04368 0
M  V30 7908 H 716.38 -0.116471 -0.653705 0
M  V30 7909 H 718.91 -0.956251 -1.80878 0
M  V30 7910 H 718.92 -0.0461852 -4.07974 0
M  V30 7911 H 717.595 -1.19454 -3.98376 0
M  V30 7912 H 716.172 0.611319 -3.67855 0
M  V30 7913 N 718.357 1.51182 -0.445186 0
M  V30 7914 C 719.289 2.25714 0.398206 0
M  V30 7915 C 720.302 1.30032 0.979562 0
M  V30 7916 O 721.491 1.55731 0.872368 0
M  V30 7917 C 718.591 3.00348 1.56985 0
M  V30 7918 C 717.764 4.23187 1.10596 0
M  V30 7919 C 716.823 4.80334 2.14863 0
M  V30 7920 O 715.849 5.4196 1.73977 0
M  V30 7921 N 717.051 4.65053 3.47427 0
M  V30 7922 H 719.816 2.98732 -0.240629 0
M  V30 7923 H 717.377 1.59556 -0.274507 0
M  V30 7924 H 719.369 3.35464 2.26376 0
M  V30 7925 H 717.939 2.30291 2.11387 0
M  V30 7926 H 717.159 3.93476 0.238832 0
M  V30 7927 H 718.447 5.02886 0.773537 0
M  V30 7928 H 717.845 4.15984 3.83372 0
M  V30 7929 H 716.402 5.04509 4.12691 0
M  V30 7930 N 719.835 0.176821 1.56605 0
M  V30 7931 C 720.798 -0.737429 2.17013 0
M  V30 7932 C 721.798 -1.15414 1.11965 0
M  V30 7933 O 722.988 -1.0702 1.37449 0
M  V30 7934 C 720.12 -2.00445 2.75744 0
M  V30 7935 H 721.313 -0.211455 2.99154 0
M  V30 7936 H 718.866 -0.0727582 1.56131 0
M  V30 7937 H 719.601 -2.57338 1.97352 0
M  V30 7938 H 719.386 -1.71456 3.52626 0
M  V30 7939 H 720.876 -2.65679 3.22187 0
M  V30 7940 N 721.313 -1.57302 -0.09688 0
M  V30 7941 C 722.261 -2.02942 -1.13654 0
M  V30 7942 C 723.255 -0.930173 -1.41577 0
M  V30 7943 O 724.461 -1.11535 -1.41279 0
M  V30 7944 H 720.836 -0.646726 -0.383731 0
M  V30 7945 H 722.807 -2.89452 -0.725267 0
M  V30 7946 C 721.556 -2.46815 -2.44903 0
M  V30 7947 H 720.879 -3.30979 -2.24261 0
M  V30 7948 H 722.319 -2.82527 -3.16156 0
M  V30 7949 C 720.778 -1.34071 -3.09074 0
M  V30 7950 O 721.308 -0.668856 -3.96092 0
M  V30 7951 N 719.514 -1.09214 -2.69296 0
M  V30 7952 H 719.061 -1.64029 -1.98626 0
M  V30 7953 H 719.019 -0.339785 -3.12559 0
M  V30 7954 N 722.791 0.367657 -1.53252 0
M  V30 7955 C 723.741 1.45035 -1.75923 0
M  V30 7956 C 724.725 1.48736 -0.613719 0
M  V30 7957 O 725.917 1.54012 -0.872313 0
M  V30 7958 C 723.046 2.82493 -1.9507 0
M  V30 7959 C 722.132 2.83279 -3.15617 0
M  V30 7960 N 722.523 2.53712 -4.37566 0
M  V30 7961 C 720.821 3.1444 -3.16297 0
M  V30 7962 C 721.522 2.62123 -5.19294 0
M  V30 7963 N 720.498 2.96747 -4.55458 0
M  V30 7964 H 724.3 1.21035 -2.6782 0
M  V30 7965 H 721.814 0.575822 -1.51849 0
M  V30 7966 H 723.811 3.60473 -2.0944 0
M  V30 7967 H 722.471 3.07459 -1.044 0
M  V30 7968 H 723.482 2.27344 -4.65333 0
M  V30 7969 H 720.159 3.44733 -2.35511 0
M  V30 7970 H 721.549 2.42628 -6.26563 0
M  V30 7971 N 724.269 1.44576 0.627338 0
M  V30 7972 C 725.516 1.47558 1.38682 0
M  V30 7973 C 725.844 0.109636 1.94191 0
M  V30 7974 O 725.099 -0.889092 1.74338 0
M  V30 7975 C 725.398 2.48644 2.56731 0
M  V30 7976 C 725.064 3.93873 2.19489 0
M  V30 7977 C 723.726 4.33421 2.09045 0
M  V30 7978 C 726.078 4.85286 1.90124 0
M  V30 7979 C 723.406 5.62303 1.6743 0
M  V30 7980 C 725.758 6.14559 1.50001 0
M  V30 7981 C 724.422 6.53058 1.38101 0
M  V30 7982 H 723.692 0.539955 0.507474 0
M  V30 7983 H 726.339 1.77811 0.711021 0
M  V30 7984 H 724.644 2.11889 3.29561 0
M  V30 7985 H 726.341 2.48197 3.14959 0
M  V30 7986 H 722.931 3.62587 2.28537 0
M  V30 7987 H 727.115 4.55483 1.971 0
M  V30 7988 H 722.371 5.90945 1.56823 0
M  V30 7989 H 726.545 6.84848 1.26319 0
M  V30 7990 H 724.172 7.52826 1.05628 0
M  V30 7991 N 725.747 -0.868086 1.31537 0
M  V30 7992 C 726.71 -1.95703 1.19302 0
M  V30 7993 C 727.71 -1.60355 0.119612 0
M  V30 7994 O 728.9 -1.70247 0.36902 0
M  V30 7995 C 726.032 -3.30599 0.831684 0
M  V30 7996 H 727.225 -2.07982 2.16064 0
M  V30 7997 H 724.778 -1.05661 1.15176 0
M  V30 7998 H 725.513 -3.2402 -0.134694 0
M  V30 7999 H 725.298 -3.57629 1.60761 0
M  V30 8000 H 726.788 -4.10439 0.770026 0
M  V30 8001 N 727.225 -1.14528 -1.08264 0
M  V30 8002 C 728.471 -0.91576 -1.80947 0
M  V30 8003 C 728.804 0.55623 -1.86064 0
M  V30 8004 O 728.079 1.41207 -1.33756 0
M  V30 8005 C 728.362 -1.51917 -3.26486 0
M  V30 8006 C 728.215 -3.06111 -3.2957 0
M  V30 8007 C 729.534 -1.19724 -4.23502 0
M  V30 8008 H 726.653 -0.334113 -0.656915 0
M  V30 8009 H 729.295 -1.41547 -1.26746 0
M  V30 8010 H 727.445 -1.0942 -3.72773 0
M  V30 8011 H 729.117 -3.57448 -2.91597 0
M  V30 8012 H 727.36 -3.40483 -2.688 0
M  V30 8013 H 728.031 -3.43438 -4.32151 0
M  V30 8014 H 730.507 -1.56467 -3.85561 0
M  V30 8015 H 729.383 -1.64575 -5.23647 0
M  V30 8016 H 729.644 -0.112771 -4.41956 0
M  V30 8017 N 728.703 1.26451 -0.940633 0
M  V30 8018 C 729.653 2.24086 -0.420669 0
M  V30 8019 C 730.637 1.53501 0.482301 0
M  V30 8020 O 731.829 1.74127 0.317636 0
M  V30 8021 C 728.958 3.41866 0.313452 0
M  V30 8022 C 728.044 4.19737 -0.606779 0
M  V30 8023 N 728.435 4.7521 -1.73232 0
M  V30 8024 C 726.733 4.44091 -0.41226 0
M  V30 8025 C 727.434 5.34052 -2.30572 0
M  V30 8026 N 726.41 5.1971 -1.59381 0
M  V30 8027 H 730.212 2.64569 -1.27986 0
M  V30 8028 H 727.726 1.4153 -0.796436 0
M  V30 8029 H 729.723 4.1093 0.702991 0
M  V30 8030 H 728.383 3.0291 1.16942 0
M  V30 8031 H 729.394 4.72769 -2.11447 0
M  V30 8032 H 726.071 4.1556 0.401984 0
M  V30 8033 H 727.461 5.87845 -3.25404 0
M  V30 8034 N 730.181 0.707592 1.40822 0
M  V30 8035 C 731.131 0.0265008 2.27985 0
M  V30 8036 C 732.115 -0.740685 1.42838 0
M  V30 8037 O 733.307 -0.6142 1.66002 0
M  V30 8038 C 730.436 -0.900382 3.31282 0
M  V30 8039 C 729.522 -0.128807 4.23904 0
M  V30 8040 N 729.913 0.883744 4.9802 0
M  V30 8041 C 728.211 -0.362539 4.44524 0
M  V30 8042 C 728.912 1.34666 5.65898 0
M  V30 8043 N 727.888 0.670306 5.39451 0
M  V30 8044 H 731.69 0.802667 2.82727 0
M  V30 8045 H 729.204 0.539475 1.53178 0
M  V30 8046 H 731.201 -1.40357 3.92563 0
M  V30 8047 H 729.861 -1.67601 2.781 0
M  V30 8048 H 730.872 1.26435 5.0223 0
M  V30 8049 H 727.549 -1.11512 4.02332 0
M  V30 8050 H 728.939 2.18756 6.35292 0
M  V30 8051 N 731.66 -1.50943 0.453197 0
M  V30 8052 C 732.937 -1.94872 -0.168633 0
M  V30 8053 C 733.317 -1.39272 -1.5864 0
M  V30 8054 O 732.665 -0.586272 -2.20851 0
M  V30 8055 C 732.875 -3.48757 -0.130217 0
M  V30 8056 C 734.223 -4.23331 -0.327975 0
M  V30 8057 O 735.247 -3.55594 -0.207619 0
M  V30 8058 O 734.106 -5.43529 -0.569077 0
M  V30 8059 H 731.2 -0.818042 -0.121394 0
M  V30 8060 H 733.746 -1.61782 0.512316 0
M  V30 8061 H 732.518 -3.81725 0.860346 0
M  V30 8062 H 732.141 -3.88333 -0.853397 0
M  V30 8063 N 733.138 -0.185124 -1.56509 0
M  V30 8064 C 734.048 0.751908 -2.22224 0
M  V30 8065 C 735.064 1.24244 -1.21817 0
M  V30 8066 O 736.24 1.29169 -1.54523 0
M  V30 8067 C 733.305 1.95837 -2.86092 0
M  V30 8068 C 732.366 1.51337 -4.01741 0
M  V30 8069 C 731.599 2.66233 -4.62554 0
M  V30 8070 O 731.822 3.8346 -4.22273 0
M  V30 8071 O 730.756 2.39517 -5.52191 0
M  V30 8072 H 734.582 0.222304 -3.02885 0
M  V30 8073 H 732.167 0.0437141 -1.49336 0
M  V30 8074 H 734.049 2.66368 -3.26536 0
M  V30 8075 H 732.724 2.47677 -2.08417 0
M  V30 8076 H 731.631 0.777155 -3.65939 0
M  V30 8077 H 732.964 1.04175 -4.81049 0
M  V30 8078 N 734.616 1.57351 0.0885366 0
M  V30 8079 C 735.526 2.05858 1.12516 0
M  V30 8080 C 736.542 0.984758 1.43452 0
M  V30 8081 O 737.718 1.29836 1.53963 0
M  V30 8082 C 734.783 2.47882 2.42395 0
M  V30 8083 C 733.844 3.69487 2.18582 0
M  V30 8084 C 733.077 4.09497 3.42268 0
M  V30 8085 O 733.3 3.49536 4.50755 0
M  V30 8086 O 732.234 5.02406 3.31469 0
M  V30 8087 H 736.06 2.94467 0.743146 0
M  V30 8088 H 733.645 1.46326 0.301507 0
M  V30 8089 H 735.527 2.75509 3.18862 0
M  V30 8090 H 734.202 1.62408 2.8001 0
M  V30 8091 H 733.109 3.46967 1.39875 0
M  V30 8092 H 734.442 4.55761 1.85857 0
M  V30 8093 N 736.094 -0.359525 1.53444 0
M  V30 8094 C 737.041 -1.44073 1.8031 0
M  V30 8095 C 738.011 -1.52946 0.647811 0
M  V30 8096 O 739.196 -1.68739 0.890614 0
M  V30 8097 C 736.336 -2.80941 2.00416 0
M  V30 8098 C 735.449 -2.80986 3.28132 0
M  V30 8099 C 734.584 -4.09468 3.38393 0
M  V30 8100 C 733.623 -4.03679 4.60119 0
M  V30 8101 N 732.76 -5.23821 4.675 0
M  V30 8102 H 737.6 -1.20464 2.72566 0
M  V30 8103 H 735.137 -0.583859 1.35017 0
M  V30 8104 H 737.095 -3.60459 2.1006 0
M  V30 8105 H 735.725 -3.02936 1.11489 0
M  V30 8106 H 734.777 -1.93666 3.27411 0
M  V30 8107 H 736.089 -2.72583 4.17732 0
M  V30 8108 H 735.243 -4.97404 3.47382 0
M  V30 8109 H 733.982 -4.20632 2.4682 0
M  V30 8110 H 732.987 -3.14129 4.51224 0
M  V30 8111 H 734.212 -3.94112 5.5304 0
M  V30 8112 H 732.158 -5.35559 3.7883 0
M  V30 8113 H 732.075 -5.17611 5.51013 0
M  V30 8114 H 733.343 -6.13572 4.8078 0
M  V30 8115 N 737.572 -1.44907 -0.619662 0
M  V30 8116 C 738.849 -1.38766 -1.37852 0
M  V30 8117 C 739.229 -0.0521393 -2.11036 0
M  V30 8118 O 738.577 0.965613 -2.07095 0
M  V30 8119 C 738.787 -2.59344 -2.33541 0
M  V30 8120 C 740.135 -3.03909 -2.96521 0
M  V30 8121 O 741.159 -2.59631 -2.43865 0
M  V30 8122 O 740.018 -3.80713 -3.92071 0
M  V30 8123 H 737.112 -0.550083 -0.617525 0
M  V30 8124 H 739.658 -1.57015 -0.643759 0
M  V30 8125 H 738.43 -3.48142 -1.78642 0
M  V30 8126 H 738.053 -2.43367 -3.14417 0
M  V30 8127 N 739.05 0.861098 -1.31996 0
M  V30 8128 C 740.296 1.61721 -1.22369 0
M  V30 8129 C 740.629 1.93 0.215587 0
M  V30 8130 O 739.904 1.56789 1.15098 0
M  V30 8131 C 740.187 2.9417 -2.07691 0
M  V30 8132 C 740.04 2.69714 -3.59965 0
M  V30 8133 C 741.359 3.95372 -1.93312 0
M  V30 8134 H 738.478 0.586822 -0.44588 0
M  V30 8135 H 741.12 0.994788 -1.61876 0
M  V30 8136 H 739.27 3.47292 -1.74128 0
M  V30 8137 H 740.942 2.23196 -4.03709 0
M  V30 8138 H 739.185 2.03789 -3.82952 0
M  V30 8139 H 739.856 3.63996 -4.14983 0
M  V30 8140 H 742.332 3.51487 -2.22701 0
M  V30 8141 H 741.208 4.85916 -2.55298 0
M  V30 8142 H 741.469 4.32865 -0.898922 0
M  V30 8143 N 740.528 1.15101 1.07655 0
M  V30 8144 C 741.777 0.918528 1.79572 0
M  V30 8145 C 742.09 -0.555922 1.87534 0
M  V30 8146 O 743.296 -0.905893 2.55941 0
M  V30 8147 C 741.752 1.59394 3.22679 0
M  V30 8148 C 741.36 3.1052 3.22927 0
M  V30 8149 C 743.104 1.44289 3.99225 0
M  V30 8150 C 741.011 3.70862 4.60668 0
M  V30 8151 H 739.941 0.340006 0.672987 0
M  V30 8152 H 742.592 1.38079 1.20857 0
M  V30 8153 H 740.974 1.05936 3.81567 0
M  V30 8154 H 742.148 3.70708 2.737 0
M  V30 8155 H 740.463 3.25351 2.59876 0
M  V30 8156 H 743.06 1.86766 5.01022 0
M  V30 8157 H 743.403 0.389975 4.14469 0
M  V30 8158 H 743.936 1.94826 3.46825 0
M  V30 8159 H 740.675 4.7604 4.50628 0
M  V30 8160 H 740.195 3.15456 5.10145 0
M  V30 8161 H 741.874 3.71607 5.29639 0
M  V30 8162 N 742.006 -1.2595 0.947325 0
M  V30 8163 C 743.234 -1.97544 0.615127 0
M  V30 8164 C 743.649 -1.70484 -0.811221 0
M  V30 8165 O 743.006 -0.97662 -1.5417 0
M  V30 8166 C 743.057 -3.51236 0.855328 0
M  V30 8167 O 742.778 -3.77359 2.22558 0
M  V30 8168 C 744.279 -4.40066 0.534515 0
M  V30 8169 H 741.499 -0.629888 0.231263 0
M  V30 8170 H 744.043 -1.60308 1.26971 0
M  V30 8171 H 742.198 -3.8661 0.247266 0
M  V30 8172 H 742.612 -4.71857 2.29022 0
M  V30 8173 H 744.086 -5.46838 0.753168 0
M  V30 8174 H 744.563 -4.35982 -0.530701 0
M  V30 8175 H 745.169 -4.10245 1.12158 0
M  V30 8176 N 743.484 -0.715051 -1.40445 0
M  V30 8177 C 744.732 -0.253826 -2.005 0
M  V30 8178 C 745.053 1.15681 -1.5698 0
M  V30 8179 O 744.323 1.78414 -0.809027 0
M  V30 8180 H 742.903 -0.0908537 -0.741454 0
M  V30 8181 H 745.565 -0.920561 -1.7179 0
M  V30 8182 H 744.661 -0.286499 -3.10782 0
M  V30 8183 N 744.962 1.50701 -0.461195 0
M  V30 8184 C 745.892 2.31182 0.328184 0
M  V30 8185 C 746.873 1.37644 0.999408 0
M  V30 8186 O 748.058 1.66565 0.99848 0
M  V30 8187 C 745.188 3.17113 1.41621 0
M  V30 8188 C 744.142 4.19124 0.867148 0
M  V30 8189 C 743.468 4.93728 2.05272 0
M  V30 8190 C 744.768 5.22174 -0.114808 0
M  V30 8191 H 746.462 2.97423 -0.343501 0
M  V30 8192 H 744.008 1.43033 -0.166641 0
M  V30 8193 H 745.961 3.72208 1.97584 0
M  V30 8194 H 744.685 2.48739 2.11652 0
M  V30 8195 H 743.344 3.65116 0.329557 0
M  V30 8196 H 742.992 4.21835 2.73978 0
M  V30 8197 H 742.692 5.62724 1.69161 0
M  V30 8198 H 744.216 5.51654 2.61744 0
M  V30 8199 H 745.63 5.72198 0.355316 0
M  V30 8200 H 744.027 5.98833 -0.389689 0
M  V30 8201 H 745.097 4.7353 -1.04391 0
M  V30 8202 N 746.441 0.193421 1.56409 0
M  V30 8203 C 747.388 -0.728124 2.19014 0
M  V30 8204 C 748.358 -1.21098 1.13686 0
M  V30 8205 O 749.543 -1.27517 1.4193 0
M  V30 8206 C 746.683 -1.94277 2.8522 0
M  V30 8207 C 745.796 -1.50143 4.05069 0
M  V30 8208 C 744.931 -2.67145 4.59137 0
M  V30 8209 C 743.97 -2.19609 5.71348 0
M  V30 8210 N 743.107 -3.29782 6.19829 0
M  V30 8211 H 747.947 -0.187499 2.9741 0
M  V30 8212 H 745.484 -0.0808064 1.46878 0
M  V30 8213 H 747.442 -2.65551 3.21774 0
M  V30 8214 H 746.072 -2.45673 2.09391 0
M  V30 8215 H 745.124 -0.684624 3.74189 0
M  V30 8216 H 746.436 -1.11266 4.86232 0
M  V30 8217 H 745.59 -3.46544 4.97988 0
M  V30 8218 H 744.329 -3.09295 3.77078 0
M  V30 8219 H 743.334 -1.38664 5.32027 0
M  V30 8220 H 744.559 -1.78492 6.55223 0
M  V30 8221 H 742.505 -3.71466 5.40693 0
M  V30 8222 H 742.422 -2.95069 6.96039 0
M  V30 8223 H 743.69 -4.094 6.63334 0
M  V30 8224 N 747.919 -1.57396 -0.0801906 0
M  V30 8225 C 748.851 -1.9982 -1.12271 0
M  V30 8226 C 749.864 -0.902902 -1.35468 0
M  V30 8227 O 751.053 -1.18088 -1.33856 0
M  V30 8228 C 748.153 -2.31476 -2.47532 0
M  V30 8229 C 747.326 -3.62745 -2.44407 0
M  V30 8230 C 746.385 -3.82168 -3.6171 0
M  V30 8231 O 745.411 -4.53852 -3.43522 0
M  V30 8232 N 746.613 -3.2388 -4.81749 0
M  V30 8233 H 749.378 -2.89864 -0.761501 0
M  V30 8234 H 746.939 -1.5965 -0.268965 0
M  V30 8235 H 748.931 -2.4165 -3.24634 0
M  V30 8236 H 747.501 -1.47364 -2.75686 0
M  V30 8237 H 746.721 -3.63403 -1.52747 0
M  V30 8238 H 748.009 -4.48954 -2.39412 0
M  V30 8239 H 747.407 -2.6568 -4.9943 0
M  V30 8240 H 745.964 -3.39515 -5.56392 0
M  V30 8241 N 749.397 0.351382 -1.53633 0
M  V30 8242 C 750.344 1.43115 -1.81071 0
M  V30 8243 C 751.314 1.52601 -0.655913 0
M  V30 8244 O 752.499 1.68264 -0.89955 0
M  V30 8245 C 749.639 2.79874 -2.01903 0
M  V30 8246 C 748.752 2.79242 -3.29618 0
M  V30 8247 C 747.887 4.07667 -3.40559 0
M  V30 8248 C 746.926 4.01233 -4.62254 0
M  V30 8249 N 746.063 5.21334 -4.70271 0
M  V30 8250 H 750.903 1.19017 -2.73201 0
M  V30 8251 H 748.44 0.576691 -1.35324 0
M  V30 8252 H 750.398 3.5934 -2.11969 0
M  V30 8253 H 749.028 3.0234 -1.13094 0
M  V30 8254 H 748.08 1.91927 -3.28433 0
M  V30 8255 H 749.392 2.70363 -4.19172 0
M  V30 8256 H 748.546 4.95555 -3.50015 0
M  V30 8257 H 747.285 4.19317 -2.49047 0
M  V30 8258 H 746.29 3.11732 -4.52884 0
M  V30 8259 H 747.515 3.91173 -5.55122 0
M  V30 8260 H 745.461 5.33543 -3.81665 0
M  V30 8261 H 745.378 5.14681 -5.5375 0
M  V30 8262 H 746.646 6.11014 -4.84027 0
M  V30 8263 N 750.875 1.45233 0.611969 0
M  V30 8264 C 752.103 1.52539 1.39784 0
M  V30 8265 C 752.518 0.156533 1.8815 0
M  V30 8266 O 751.875 -0.84112 1.61961 0
M  V30 8267 C 751.926 2.50614 2.60528 0
M  V30 8268 O 751.647 3.8218 2.14173 0
M  V30 8269 C 753.148 2.67574 3.53439 0
M  V30 8270 H 750.368 0.51674 0.428043 0
M  V30 8271 H 752.912 1.90379 0.746727 0
M  V30 8272 H 751.067 2.15858 3.2169 0
M  V30 8273 H 751.481 4.35305 2.92592 0
M  V30 8274 H 752.955 3.40184 4.34717 0
M  V30 8275 H 753.432 1.73458 4.03496 0
M  V30 8276 H 754.038 3.0331 2.98133 0
M  V30 8277 N 752.353 -0.854086 1.3245 0
M  V30 8278 C 753.283 -1.97827 1.24044 0
M  V30 8279 C 754.264 -1.69646 0.124166 0
M  V30 8280 O 755.449 -1.91687 0.31143 0
M  V30 8281 C 752.579 -3.33673 0.963324 0
M  V30 8282 C 751.533 -3.76207 2.04089 0
M  V30 8283 C 750.859 -5.0969 1.61618 0
M  V30 8284 C 752.159 -3.91612 3.45597 0
M  V30 8285 H 753.853 -2.05118 2.18099 0
M  V30 8286 H 751.399 -0.985489 1.04996 0
M  V30 8287 H 753.352 -4.11871 0.891061 0
M  V30 8288 H 752.076 -3.26597 -0.0128649 0
M  V30 8289 H 750.735 -3.0026 2.10332 0
M  V30 8290 H 750.383 -4.99072 0.627418 0
M  V30 8291 H 750.083 -5.3912 2.33717 0
M  V30 8292 H 751.607 -5.90381 1.55829 0
M  V30 8293 H 753.021 -4.60163 3.4194 0
M  V30 8294 H 751.418 -4.3246 4.16051 0
M  V30 8295 H 752.488 -2.9451 3.85217 0
M  V30 8296 N 753.831 -1.1567 -1.07043 0
M  V30 8297 C 755.061 -0.956083 -1.83146 0
M  V30 8298 C 755.469 0.498969 -1.82502 0
M  V30 8299 O 754.812 1.35791 -1.23719 0
M  V30 8300 C 754.874 -1.39704 -3.31245 0
M  V30 8301 C 754.538 -2.87045 -3.55604 0
M  V30 8302 C 755.535 -3.85092 -3.49285 0
M  V30 8303 C 753.22 -3.24787 -3.8317 0
M  V30 8304 C 755.214 -5.18885 -3.70185 0
M  V30 8305 C 752.901 -4.58751 -4.03721 0
M  V30 8306 C 753.899 -5.55609 -3.97224 0
M  V30 8307 O 753.587 -6.87154 -4.17223 0
M  V30 8308 H 753.319 -0.339473 -0.58458 0
M  V30 8309 H 755.873 -1.53922 -1.36005 0
M  V30 8310 H 754.103 -0.757326 -3.79212 0
M  V30 8311 H 755.792 -1.16503 -3.88821 0
M  V30 8312 H 756.558 -3.5728 -3.27988 0
M  V30 8313 H 752.437 -2.49979 -3.87339 0
M  V30 8314 H 755.981 -5.94473 -3.6503 0
M  V30 8315 H 751.878 -4.86277 -4.24505 0
M  V30 8316 H 752.646 -6.93618 -4.34553 0
M  V30 8317 N 755.309 1.25446 -0.953992 0
M  V30 8318 C 756.557 1.92762 -0.607227 0
M  V30 8319 C 756.878 1.7509 0.858399 0
M  V30 8320 O 756.148 1.11416 1.61132 0
M  V30 8321 H 754.728 0.713377 -0.221591 0
M  V30 8322 H 757.39 1.52625 -1.21209 0
M  V30 8323 H 756.486 3.00695 -0.835998 0
M  V30 8324 N 756.787 0.722489 1.40064 0
M  V30 8325 C 758.203 0.396758 1.5459 0
M  V30 8326 C 758.403 -1.09375 1.69232 0
M  V30 8327 O 757.459 -1.87984 1.68578 0
M  V30 8328 C 758.772 1.16885 2.77053 0
M  V30 8329 C 760.32 1.15583 2.90877 0
M  V30 8330 C 760.795 1.91023 4.16262 0
M  V30 8331 N 762.286 1.88126 4.23276 0
M  V30 8332 C 763.021 2.43315 5.19216 0
M  V30 8333 N 762.517 3.07089 6.21022 0
M  V30 8334 N 764.31 2.33418 5.11344 0
M  V30 8335 H 756.461 1.68887 1.28806 0
M  V30 8336 H 758.724 0.714231 0.62336 0
M  V30 8337 H 758.43 2.22301 2.72534 0
M  V30 8338 H 758.304 0.765011 3.69361 0
M  V30 8339 H 760.691 0.10984 2.94896 0
M  V30 8340 H 760.772 1.59895 1.99668 0
M  V30 8341 H 760.416 2.95616 4.13006 0
M  V30 8342 H 760.346 1.44126 5.06493 0
M  V30 8343 H 762.837 1.41654 3.50346 0
M  V30 8344 H 763.15 3.467 6.90666 0
M  V30 8345 H 761.495 3.11175 6.21446 0
M  V30 8346 H 764.686 1.83248 4.30741 0
M  V30 8347 H 764.859 2.7673 5.85939 0
M  V30 8348 N 758.265 -1.50454 0.469181 0
M  V30 8349 C 759.676 -1.86695 0.0136034 0
M  V30 8350 C 760.027 -1.38413 -1.39055 0
M  V30 8351 O 759.152 -0.748294 -2.03051 0
M  V30 8352 C 759.747 -3.38795 0.0179098 0
M  V30 8353 C 758.306 -3.74455 -0.382191 0
M  V30 8354 C 757.453 -2.74338 0.404207 0
M  V30 8355 H 760.404 -1.43225 0.683547 0
M  V30 8356 H 760.425 -3.72321 -0.78468 0
M  V30 8357 H 759.937 -3.73906 1.04 0
M  V30 8358 H 758.038 -3.44944 -1.4087 0
M  V30 8359 H 758.151 -4.79025 -0.084862 0
M  V30 8360 H 756.515 -2.54305 -0.141829 0
M  V30 8361 H 757.298 -3.12293 1.42577 0
M  V30 8362 N 759.743 -0.201713 -1.56304 0
M  V30 8363 C 760.691 0.733133 -2.20744 0
M  V30 8364 C 761.685 1.2148 -1.18064 0
M  V30 8365 O 762.891 1.17692 -1.36193 0
M  V30 8366 H 759.266 0.254789 -0.707521 0
M  V30 8367 H 761.237 0.165996 -2.97938 0
M  V30 8368 C 759.986 1.93925 -2.88597 0
M  V30 8369 H 759.309 1.5777 -3.67353 0
M  V30 8370 H 760.749 2.57158 -3.37114 0
M  V30 8371 C 759.208 2.78219 -1.89989 0
M  V30 8372 O 759.738 3.76353 -1.40432 0
M  V30 8373 N 757.944 2.43847 -1.58072 0
M  V30 8374 H 757.491 1.64103 -1.98565 0
M  V30 8375 H 757.449 3.0053 -0.923524 0
M  V30 8376 N 761.222 1.57436 0.0718424 0
M  V30 8377 C 762.468 1.88388 0.766904 0
M  V30 8378 C 762.823 0.7954 1.75189 0
M  V30 8379 O 762.116 -0.200438 1.90549 0
M  V30 8380 C 762.31 3.23723 1.51455 0
M  V30 8381 C 762.139 4.45632 0.603475 0
M  V30 8382 C 760.909 5.04728 0.240437 0
M  V30 8383 C 763.107 5.14203 -0.0997624 0
M  V30 8384 N 761.089 6.10163 -0.676363 0
M  V30 8385 C 762.46 6.13812 -0.873755 0
M  V30 8386 C 764.515 4.97605 -0.171238 0
M  V30 8387 C 763.218 6.98615 -1.71258 0
M  V30 8388 C 765.244 5.82935 -0.997041 0
M  V30 8389 C 764.606 6.82082 -1.75908 0
M  V30 8390 H 760.705 0.738888 0.256064 0
M  V30 8391 H 763.289 1.94679 0.0284273 0
M  V30 8392 H 761.46 3.1844 2.22375 0
M  V30 8393 H 763.192 3.42324 2.15862 0
M  V30 8394 H 759.947 4.69869 0.593284 0
M  V30 8395 H 760.371 6.67537 -1.12801 0
M  V30 8396 H 765.013 4.20869 0.403586 0
M  V30 8397 H 762.731 7.74726 -2.29838 0
M  V30 8398 H 766.317 5.72149 -1.05532 0
M  V30 8399 H 765.197 7.46964 -2.38778 0
M  V30 8400 N 762.7 -0.34323 1.53817 0
M  V30 8401 C 763.977 -1.10047 1.61706 0
M  V30 8402 C 764.357 -2.06495 0.438514 0
M  V30 8403 O 763.705 -2.21297 -0.569188 0
M  V30 8404 C 763.915 -1.81985 2.97796 0
M  V30 8405 C 765.263 -2.35717 3.53161 0
M  V30 8406 O 766.287 -1.9208 2.99973 0
M  V30 8407 O 765.146 -3.15551 4.46195 0
M  V30 8408 H 762.24 -0.506096 0.654061 0
M  V30 8409 H 764.786 -0.344697 1.66162 0
M  V30 8410 H 763.558 -1.11722 3.75012 0
M  V30 8411 H 763.181 -2.64419 2.96931 0
M  V30 8412 N 764.178 -1.45556 -0.604258 0
M  V30 8413 C 765.126 -1.5482 -1.7359 0
M  V30 8414 C 766.12 -0.417966 -1.64163 0
M  V30 8415 O 767.326 -0.594007 -1.69916 0
M  V30 8416 H 763.701 -0.486352 -0.573556 0
M  V30 8417 H 765.672 -2.5001 -1.62903 0
M  V30 8418 C 764.421 -1.53521 -3.11972 0
M  V30 8419 H 763.744 -2.39818 -3.19886 0
M  V30 8420 H 765.184 -1.64061 -3.90973 0
M  V30 8421 C 763.643 -0.260191 -3.35894 0
M  V30 8422 O 764.173 0.658582 -3.96265 0
M  V30 8423 N 762.379 -0.154839 -2.90187 0
M  V30 8424 H 761.926 -0.903378 -2.4124 0
M  V30 8425 H 761.884 0.697437 -3.06567 0
M  V30 8426 N 765.656 0.84705 -1.32902 0
M  V30 8427 C 766.566 1.98845 -1.2449 0
M  V30 8428 C 767.582 1.7329 -0.15702 0
M  V30 8429 O 768.758 1.978 -0.379104 0
M  V30 8430 C 765.823 3.32679 -0.975985 0
M  V30 8431 C 764.884 3.71405 -2.15306 0
M  V30 8432 C 764.117 4.98853 -1.89688 0
M  V30 8433 O 764.34 5.64134 -0.843168 0
M  V30 8434 O 763.274 5.34889 -2.76002 0
M  V30 8435 H 767.1 2.0888 -2.2046 0
M  V30 8436 H 764.685 0.978852 -1.12867 0
M  V30 8437 H 766.567 4.12885 -0.842826 0
M  V30 8438 H 765.242 3.23667 -0.0464954 0
M  V30 8439 H 764.149 2.91743 -2.34172 0
M  V30 8440 H 765.482 3.85073 -3.06561 0
M  V30 8441 N 767.134 1.16236 1.06428 0
M  V30 8442 C 768.381 0.943034 1.79201 0
M  V30 8443 C 768.709 -0.529243 1.87161 0
M  V30 8444 O 767.964 -1.40874 1.35842 0
M  V30 8445 C 768.263 1.51396 3.2375 0
M  V30 8446 C 767.929 3.00833 3.35873 0
M  V30 8447 C 766.591 3.41626 3.38888 0
M  V30 8448 C 768.943 3.96825 3.37904 0
M  V30 8449 C 766.271 4.77033 3.4155 0
M  V30 8450 C 768.623 5.32116 3.42104 0
M  V30 8451 C 767.287 5.72392 3.43401 0
M  V30 8452 H 766.557 0.34508 0.655744 0
M  V30 8453 H 769.204 1.44929 1.25171 0
M  V30 8454 H 767.509 0.929114 3.80624 0
M  V30 8455 H 769.206 1.31996 3.78653 0
M  V30 8456 H 765.796 2.68306 3.3423 0
M  V30 8457 H 769.98 3.66376 3.34787 0
M  V30 8458 H 765.236 5.07569 3.40858 0
M  V30 8459 H 769.41 6.06286 3.42623 0
M  V30 8460 H 767.037 6.77296 3.45216 0
M  V30 8461 N 768.612 -1.24939 0.960631 0
M  V30 8462 C 769.559 -2.25658 0.484459 0
M  V30 8463 C 770.529 -1.59422 -0.466242 0
M  V30 8464 O 771.714 -1.87015 -0.378169 0
M  V30 8465 C 768.854 -3.44359 -0.225958 0
M  V30 8466 C 767.967 -4.25214 0.762682 0
M  V30 8467 C 767.102 -5.31192 0.0290931 0
M  V30 8468 C 766.141 -6.03739 1.00827 0
M  V30 8469 N 765.278 -7.01437 0.305155 0
M  V30 8470 H 770.118 -2.65758 1.34821 0
M  V30 8471 H 767.655 -1.30648 0.675983 0
M  V30 8472 H 769.613 -4.12035 -0.654472 0
M  V30 8473 H 768.243 -3.05118 -1.05371 0
M  V30 8474 H 767.295 -3.57144 1.30966 0
M  V30 8475 H 768.607 -4.75406 1.50964 0
M  V30 8476 H 767.761 -6.04971 -0.457763 0
M  V30 8477 H 766.5 -4.81889 -0.750614 0
M  V30 8478 H 765.505 -5.2877 1.50607 0
M  V30 8479 H 766.73 -6.55131 1.7883 0
M  V30 8480 H 764.676 -6.54415 -0.455704 0
M  V30 8481 H 764.593 -7.49475 0.991104 0
M  V30 8482 H 765.861 -7.79336 -0.159966 0
M  V30 8483 N 770.09 -0.729906 -1.39679 0
M  V30 8484 C 771.318 -0.285709 -2.04918 0
M  V30 8485 C 771.733 1.07765 -1.55023 0
M  V30 8486 O 771.09 1.67999 -0.712923 0
M  V30 8487 C 771.141 -0.272793 -3.60469 0
M  V30 8488 O 770.862 -1.58233 -4.08527 0
M  V30 8489 C 772.363 0.188199 -4.429 0
M  V30 8490 H 769.583 -0.125758 -0.65911 0
M  V30 8491 H 772.127 -0.992129 -1.78821 0
M  V30 8492 H 770.282 0.384699 -3.85485 0
M  V30 8493 H 770.696 -1.49245 -5.02818 0
M  V30 8494 H 772.17 0.14608 -5.51807 0
M  V30 8495 H 772.647 1.2326 -4.21549 0
M  V30 8496 H 773.253 -0.439541 -4.23023 0
M  V30 8497 N 771.568 1.50203 -0.477153 0
M  V30 8498 C 772.817 2.01551 0.0774548 0
M  V30 8499 C 773.13 1.36359 1.40234 0
M  V30 8500 O 774.336 1.78898 2.04225 0
M  V30 8501 C 772.792 3.59406 0.188539 0
M  V30 8502 C 772.4 4.3356 -1.12828 0
M  V30 8503 C 774.144 4.18776 0.694782 0
M  V30 8504 C 772.051 5.83213 -0.98066 0
M  V30 8505 H 770.981 0.75329 0.0327212 0
M  V30 8506 H 773.632 1.72959 -0.612969 0
M  V30 8507 H 772.014 3.84611 0.942881 0
M  V30 8508 H 773.188 4.20074 -1.89405 0
M  V30 8509 H 771.503 3.85827 -1.5661 0
M  V30 8510 H 774.1 5.28338 0.822356 0
M  V30 8511 H 774.443 3.80557 1.68766 0
M  V30 8512 H 774.976 3.978 -0.00234519 0
M  V30 8513 H 771.715 6.25914 -1.94709 0
M  V30 8514 H 771.235 5.99256 -0.255375 0
M  V30 8515 H 772.914 6.4373 -0.649717 0
M  V30 8516 N 773.046 0.209999 1.56195 0
M  V30 8517 C 774.009 -0.691232 2.18528 0
M  V30 8518 C 775.009 -1.13013 1.14388 0
M  V30 8519 O 776.199 -1.04081 1.39688 0
M  V30 8520 C 773.331 -1.94551 2.79934 0
M  V30 8521 H 774.524 -0.147953 2.99535 0
M  V30 8522 H 772.077 -0.0396243 1.5625 0
M  V30 8523 H 772.812 -2.53094 2.02766 0
M  V30 8524 H 772.597 -1.63938 3.56184 0
M  V30 8525 H 774.087 -2.58785 3.2775 0
M  V30 8526 N 774.524 -1.57472 -0.0634922 0
M  V30 8527 C 775.749 -1.92273 -0.77756 0
M  V30 8528 C 776.174 -0.807141 -1.69902 0
M  V30 8529 O 775.532 0.239523 -1.79711 0
M  V30 8530 C 775.58 -3.26054 -1.54017 0
M  V30 8531 O 774.684 -3.15873 -2.65138 0
M  V30 8532 H 774.025 -0.629389 -0.211579 0
M  V30 8533 H 776.555 -2.04579 -0.0292523 0
M  V30 8534 H 776.565 -3.60127 -1.91763 0
M  V30 8535 H 775.24 -4.06824 -0.864128 0
M  V30 8536 H 773.817 -2.93373 -2.30189 0
M  V30 8537 N 776.003 0.335068 -1.53997 0
M  V30 8538 C 776.935 1.4327 -1.78903 0
M  V30 8539 C 777.948 1.48347 -0.670598 0
M  V30 8540 O 779.137 1.51277 -0.947494 0
M  V30 8541 C 776.237 2.81878 -1.88144 0
M  V30 8542 C 775.41 3.00141 -3.18174 0
M  V30 8543 C 774.469 4.19041 -3.18263 0
M  V30 8544 O 773.495 4.12751 -3.9195 0
M  V30 8545 N 774.697 5.28004 -2.41231 0
M  V30 8546 H 777.462 1.22272 -2.73623 0
M  V30 8547 H 775.023 0.524996 -1.53152 0
M  V30 8548 H 777.015 3.59609 -1.85644 0
M  V30 8549 H 775.585 2.9598 -1.00572 0
M  V30 8550 H 774.805 2.09808 -3.33728 0
M  V30 8551 H 776.093 3.0923 -4.04047 0
M  V30 8552 H 775.491 5.35986 -1.8093 0
M  V30 8553 H 774.048 6.04196 -2.44521 0
M  V30 8554 N 777.481 1.45874 0.596531 0
M  V30 8555 C 778.431 1.5181 1.70111 0
M  V30 8556 C 779.415 0.380293 1.56341 0
M  V30 8557 O 780.607 0.627849 1.6549 0
M  V30 8558 C 777.736 1.49822 3.08883 0
M  V30 8559 C 776.822 2.68845 3.27998 0
M  V30 8560 N 777.213 3.93873 3.17329 0
M  V30 8561 C 775.511 2.64777 3.589 0
M  V30 8562 C 776.212 4.73371 3.38076 0
M  V30 8563 N 775.188 4.0501 3.62585 0
M  V30 8564 H 778.99 2.46289 1.60372 0
M  V30 8565 H 776.504 1.41321 0.800138 0
M  V30 8566 H 778.501 1.5216 3.8814 0
M  V30 8567 H 777.161 0.564086 3.19763 0
M  V30 8568 H 778.172 4.25329 2.95492 0
M  V30 8569 H 774.849 1.80323 3.7655 0
M  V30 8570 H 776.239 5.82357 3.35127 0
M  V30 8571 N 778.959 -0.83999 1.33349 0
M  V30 8572 C 780.37 -1.41139 1.22216 0
M  V30 8573 C 780.721 -1.95551 -0.159398 0
M  V30 8574 O 779.846 -1.88721 -1.05893 0
M  V30 8575 C 780.441 -2.56564 2.21269 0
M  V30 8576 C 779 -3.09661 2.13979 0
M  V30 8577 C 778.147 -1.82457 2.08818 0
M  V30 8578 H 781.098 -0.645853 1.44964 0
M  V30 8579 H 781.119 -3.34163 1.81976 0
M  V30 8580 H 780.631 -2.16932 3.21811 0
M  V30 8581 H 778.732 -3.53841 1.16736 0
M  V30 8582 H 778.845 -3.6991 3.04472 0
M  V30 8583 H 777.209 -2.0266 1.54276 0
M  V30 8584 H 777.992 -1.45022 3.11165 0
M  V30 8585 N 780.437 -1.16799 -1.0581 0
M  V30 8586 C 781.385 -0.875111 -2.1551 0
M  V30 8587 C 782.379 0.157781 -1.68664 0
M  V30 8588 O 783.585 0.011297 -1.79996 0
M  V30 8589 H 779.96 -0.26542 -0.703602 0
M  V30 8590 H 781.931 -1.8076 -2.37421 0
M  V30 8591 C 780.68 -0.39802 -3.45414 0
M  V30 8592 H 780.003 -1.18425 -3.81858 0
M  V30 8593 H 781.443 -0.231913 -4.23365 0
M  V30 8594 C 779.902 0.88327 -3.25115 0
M  V30 8595 O 780.432 1.95145 -3.51114 0
M  V30 8596 N 778.638 0.828961 -2.78526 0
M  V30 8597 H 778.185 -0.0405029 -2.57568 0
M  V30 8598 H 778.143 1.68673 -2.65324 0
M  V30 8599 N 781.915 1.24427 -0.967243 0
M  V30 8600 C 783.143 1.96541 -0.646477 0
M  V30 8601 C 783.558 1.71753 0.783996 0
M  V30 8602 O 782.915 1.00102 1.52597 0
M  V30 8603 C 782.966 3.4983 -0.911098 0
M  V30 8604 O 782.687 3.7377 -2.28534 0
M  V30 8605 C 784.188 4.3916 -0.604458 0
M  V30 8606 H 781.408 0.626129 -0.241255 0
M  V30 8607 H 783.952 1.58268 -1.29505 0
M  V30 8608 H 782.107 3.86168 -0.308741 0
M  V30 8609 H 782.521 4.68154 -2.365 0
M  V30 8610 H 783.995 5.4557 -0.840069 0
M  V30 8611 H 784.472 4.36771 0.461273 0
M  V30 8612 H 785.078 4.08409 -1.1867 0
M  V30 8613 N 783.393 0.737304 1.3929 0
M  V30 8614 C 784.809 0.413132 1.5416 0
M  V30 8615 C 785.009 -1.07574 1.70382 0
M  V30 8616 O 784.065 -1.86185 1.70562 0
M  V30 8617 C 785.378 1.19817 2.75798 0
M  V30 8618 C 786.926 1.18662 2.89635 0
M  V30 8619 C 787.401 1.95427 4.14213 0
M  V30 8620 N 788.892 1.92605 4.21257 0
M  V30 8621 C 789.627 2.48808 5.16606 0
M  V30 8622 N 789.123 3.13659 6.1773 0
M  V30 8623 N 790.916 2.38829 5.08839 0
M  V30 8624 H 783.067 1.70243 1.27008 0
M  V30 8625 H 785.33 0.720802 0.61575 0
M  V30 8626 H 785.036 2.25179 2.70161 0
M  V30 8627 H 784.91 0.804144 3.68529 0
M  V30 8628 H 787.297 0.141112 2.94762 0
M  V30 8629 H 787.378 1.62003 1.97961 0
M  V30 8630 H 787.022 2.9998 4.09847 0
M  V30 8631 H 786.952 1.4949 5.04936 0
M  V30 8632 H 789.443 1.45362 3.48824 0
M  V30 8633 H 789.756 3.54006 6.8695 0
M  V30 8634 H 788.101 3.17749 6.1811 0
M  V30 8635 H 791.292 1.87806 4.28773 0
M  V30 8636 H 791.465 2.82929 5.82971 0
M  V30 8637 N 784.871 -1.49948 0.485112 0
M  V30 8638 C 786.12 -2.01589 -0.066765 0
M  V30 8639 C 786.433 -1.371 -1.39509 0
M  V30 8640 O 787.639 -1.79978 -2.03274 0
M  V30 8641 C 786.095 -3.59501 -0.169476 0
M  V30 8642 C 785.703 -4.32955 1.15126 0
M  V30 8643 C 787.447 -4.19138 -0.672564 0
M  V30 8644 C 785.354 -5.82684 1.01158 0
M  V30 8645 H 784.284 -0.753453 -0.0287259 0
M  V30 8646 H 786.935 -1.72632 0.622132 0
M  V30 8647 H 785.317 -3.85106 -0.922471 0
M  V30 8648 H 786.491 -4.19064 1.9163 0
M  V30 8649 H 784.806 -3.84991 1.58654 0
M  V30 8650 H 787.403 -5.28767 -0.794325 0
M  V30 8651 H 787.746 -3.81447 -1.66745 0
M  V30 8652 H 788.279 -3.97793 0.0234415 0
M  V30 8653 H 785.018 -6.24873 1.98025 0
M  V30 8654 H 784.538 -5.99112 0.287151 0
M  V30 8655 H 786.217 -6.43376 0.683847 0
M  V30 8656 N 786.349 -0.21828 -1.56081 0
M  V30 8657 C 787.597 0.413488 -1.97825 0
M  V30 8658 C 787.918 1.60527 -1.10707 0
M  V30 8659 O 787.188 1.9504 -0.183378 0
M  V30 8660 H 785.768 0.155757 -0.730581 0
M  V30 8661 H 788.43 -0.310413 -1.92412 0
M  V30 8662 H 787.526 0.742024 -3.03151 0
M  V30 8663 N 787.827 1.57504 0.0551401 0
M  V30 8664 C 789.073 1.88334 0.752216 0
M  V30 8665 C 789.406 0.812742 1.76375 0
M  V30 8666 O 788.681 -0.175198 1.93709 0
M  V30 8667 C 788.964 3.29824 1.44528 0
M  V30 8668 C 788.817 4.47553 0.449026 0
M  V30 8669 C 790.136 3.69808 2.38601 0
M  V30 8670 H 787.255 0.684973 0.271995 0
M  V30 8671 H 789.897 1.89994 0.0151895 0
M  V30 8672 H 788.047 3.28539 2.07351 0
M  V30 8673 H 789.719 4.60967 -0.175277 0
M  V30 8674 H 787.962 4.33168 -0.234162 0
M  V30 8675 H 788.633 5.43376 0.971917 0
M  V30 8676 H 791.109 3.72293 1.85842 0
M  V30 8677 H 789.985 4.69665 2.84088 0
M  V30 8678 H 790.246 3.00641 3.24141 0
M  V30 8679 N 789.305 -0.326896 1.54172 0
M  V30 8680 C 790.552 -1.06523 1.72218 0
M  V30 8681 C 790.88 -1.88119 0.494114 0
M  V30 8682 O 790.135 -1.8855 -0.524147 0
M  V30 8683 C 790.434 -2.0208 2.94785 0
M  V30 8684 C 790.1 -1.36665 4.2969 0
M  V30 8685 C 788.762 -1.18556 4.66367 0
M  V30 8686 C 791.114 -0.896868 5.13425 0
M  V30 8687 C 788.442 -0.521113 5.84381 0
M  V30 8688 C 790.794 -0.246261 6.3212 0
M  V30 8689 C 789.458 -0.052987 6.67479 0
M  V30 8690 H 788.728 -0.389796 0.63019 0
M  V30 8691 H 791.375 -0.342725 1.88408 0
M  V30 8692 H 789.68 -2.8077 2.73268 0
M  V30 8693 H 791.377 -2.59231 3.05941 0
M  V30 8694 H 787.967 -1.51762 4.00832 0
M  V30 8695 H 792.151 -1.02458 4.85609 0
M  V30 8696 H 787.407 -0.36014 6.10338 0
M  V30 8697 H 791.581 0.125775 6.96286 0
M  V30 8698 H 789.208 0.463903 7.58783 0
M  V30 8699 N 790.784 -1.46188 -0.588786 0
M  V30 8700 C 791.714 -1.59148 -1.70863 0
M  V30 8701 C 792.695 -0.442083 -1.64255 0
M  V30 8702 O 793.88 -0.667575 -1.82365 0
M  V30 8703 C 791.01 -1.5757 -3.09498 0
M  V30 8704 C 789.964 -2.71418 -3.30932 0
M  V30 8705 C 789.29 -2.549 -4.70032 0
M  V30 8706 C 790.59 -4.1329 -3.19356 0
M  V30 8707 H 792.284 -2.52889 -1.60274 0
M  V30 8708 H 789.83 -1.21707 -0.769638 0
M  V30 8709 H 791.783 -1.65231 -3.87655 0
M  V30 8710 H 790.507 -0.603705 -3.20972 0
M  V30 8711 H 789.166 -2.63216 -2.55172 0
M  V30 8712 H 788.814 -1.55797 -4.78264 0
M  V30 8713 H 788.514 -3.31257 -4.85327 0
M  V30 8714 H 790.038 -2.64443 -5.50366 0
M  V30 8715 H 791.452 -4.22636 -3.87365 0
M  V30 8716 H 789.849 -4.90187 -3.46175 0
M  V30 8717 H 790.919 -4.33874 -2.16522 0
M  V30 8718 N 792.262 0.832906 -1.33792 0
M  V30 8719 C 793.502 1.60217 -1.26925 0
M  V30 8720 C 793.866 1.91323 0.161146 0
M  V30 8721 O 795.067 2.66461 0.353864 0
M  V30 8722 C 793.338 2.87314 -2.12568 0
M  V30 8723 S 794.897 3.77939 -2.22952 0
M  V30 8724 H 791.715 0.549273 -0.451464 0
M  V30 8725 H 794.317 0.984648 -1.68893 0
M  V30 8726 H 793.021 2.62444 -3.15518 0
M  V30 8727 H 792.552 3.5407 -1.71459 0
M  V30 8728 H 794.567 4.76188 -1.39496 0
M  V30 8729 N 793.74 1.17359 1.05189 0
M  V30 8730 C 794.988 0.960087 1.77839 0
M  V30 8731 C 795.309 -0.512554 1.88143 0
M  V30 8732 O 794.579 -1.3721 1.39822 0
M  V30 8733 H 793.159 0.352234 0.658741 0
M  V30 8734 H 795.821 1.47834 1.27008 0
M  V30 8735 H 794.917 1.38843 2.79516 0
M  V30 8736 N 795.218 -1.23913 0.973828 0
M  V30 8737 C 796.629 -1.73992 0.677021 0
M  V30 8738 C 796.98 -1.78833 -0.807036 0
M  V30 8739 O 796.105 -1.42183 -1.63135 0
M  V30 8740 C 796.7 -3.15985 1.22226 0
M  V30 8741 C 795.259 -3.63547 0.975228 0
M  V30 8742 C 794.406 -2.42001 1.35392 0
M  V30 8743 H 797.357 -1.09529 1.14844 0
M  V30 8744 H 797.378 -3.75875 0.591489 0
M  V30 8745 H 796.89 -3.12429 2.30238 0
M  V30 8746 H 794.991 -3.72493 -0.0891047 0
M  V30 8747 H 795.104 -4.50693 1.62518 0
M  V30 8748 H 793.468 -2.42708 0.772334 0
M  V30 8749 H 794.251 -2.41122 2.44367 0
M  V30 8750 N 796.696 -0.74468 -1.38897 0
M  V30 8751 C 797.606 -0.112892 -2.34328 0
M  V30 8752 C 798.622 0.71087 -1.58816 0
M  V30 8753 O 799.798 0.637092 -1.91058 0
M  V30 8754 C 796.863 0.776417 -3.37894 0
M  V30 8755 C 795.924 -0.0606999 -4.29257 0
M  V30 8756 C 795.157 0.786258 -5.27877 0
M  V30 8757 O 795.38 2.02463 -5.33259 0
M  V30 8758 O 794.314 0.209781 -6.01534 0
M  V30 8759 H 798.14 -0.900801 -2.90033 0
M  V30 8760 H 795.725 -0.505462 -1.4059 0
M  V30 8761 H 797.607 1.28496 -4.01331 0
M  V30 8762 H 796.282 1.54297 -2.84559 0
M  V30 8763 H 795.189 -0.614984 -3.69011 0
M  V30 8764 H 796.522 -0.789702 -4.85824 0
M  V30 8765 N 798.174 1.49689 -0.493057 0
M  V30 8766 C 799.137 2.27502 0.278485 0
M  V30 8767 C 800.137 1.33184 0.901037 0
M  V30 8768 O 801.327 1.56415 0.766801 0
M  V30 8769 C 798.459 3.10881 1.39878 0
M  V30 8770 H 799.652 2.97163 -0.404219 0
M  V30 8771 H 797.205 1.54324 -0.247774 0
M  V30 8772 H 797.94 2.45767 2.11587 0
M  V30 8773 H 797.725 3.80219 0.957924 0
M  V30 8774 H 799.215 3.69673 1.94247 0
M  V30 8775 N 799.652 0.226554 1.55963 0
M  V30 8776 C 800.582 -0.676079 2.23498 0
M  V30 8777 C 801.563 -1.19718 1.20837 0
M  V30 8778 O 802.748 -1.24027 1.49436 0
M  V30 8779 C 799.878 -1.88217 2.91876 0
M  V30 8780 C 798.832 -1.4947 4.01052 0
M  V30 8781 C 798.158 -2.77997 4.56751 0
M  V30 8782 C 799.458 -0.680951 5.17842 0
M  V30 8783 H 801.152 -0.112989 2.99187 0
M  V30 8784 H 798.698 -0.0529046 1.43903 0
M  V30 8785 H 800.651 -2.51911 3.37815 0
M  V30 8786 H 799.375 -2.47031 2.13643 0
M  V30 8787 H 798.034 -0.881199 3.55852 0
M  V30 8788 H 797.682 -3.34966 3.75243 0
M  V30 8789 H 797.382 -2.52803 5.30438 0
M  V30 8790 H 798.906 -3.42625 5.05411 0
M  V30 8791 H 800.32 -1.22171 5.60131 0
M  V30 8792 H 798.717 -0.525898 5.97791 0
M  V30 8793 H 799.787 0.311346 4.83899 0
M  V30 8794 N 801.13 -1.57531 -0.0467866 0
M  V30 8795 C 802.093 -2.04379 -1.03738 0
M  V30 8796 C 803.093 -0.944881 -1.3011 0
M  V30 8797 O 804.283 -1.20904 -1.25411 0
M  V30 8798 C 801.415 -2.44572 -2.37482 0
M  V30 8799 H 802.608 -2.93142 -0.633063 0
M  V30 8800 H 800.161 -1.53526 -0.293177 0
M  V30 8801 H 800.896 -1.58911 -2.82697 0
M  V30 8802 H 800.681 -3.24785 -2.19675 0
M  V30 8803 H 802.171 -2.81307 -3.08636 0
M  V30 8804 N 802.608 0.318715 -1.54344 0
M  V30 8805 C 803.518 1.41535 -1.87097 0
M  V30 8806 C 804.534 1.56361 -0.763353 0
M  V30 8807 O 805.71 1.71365 -1.05811 0
M  V30 8808 C 802.775 2.76178 -2.09587 0
M  V30 8809 C 801.836 2.70486 -3.3337 0
M  V30 8810 C 801.069 3.98708 -3.54778 0
M  V30 8811 O 801.292 4.9721 -2.79532 0
M  V30 8812 O 800.226 4.01674 -4.48266 0
M  V30 8813 H 804.052 1.16764 -2.80357 0
M  V30 8814 H 801.637 0.51318 -1.4031 0
M  V30 8815 H 803.519 3.55873 -2.25682 0
M  V30 8816 H 802.194 3.00829 -1.19514 0
M  V30 8817 H 801.101 1.89325 -3.22656 0
M  V30 8818 H 802.434 2.50789 -4.23516 0
M  V30 8819 N 804.086 1.46499 0.581025 0
M  V30 8820 C 805.314 1.5547 1.36517 0
M  V30 8821 C 805.729 0.196407 1.87776 0
M  V30 8822 O 805.086 -0.806577 1.63709 0
M  V30 8823 C 805.137 2.56084 2.55154 0
M  V30 8824 O 804.858 3.86637 2.06018 0
M  V30 8825 C 806.359 2.75011 3.47683 0
M  V30 8826 H 803.579 0.525703 0.416986 0
M  V30 8827 H 806.123 1.9192 0.706177 0
M  V30 8828 H 804.278 2.22633 3.17039 0
M  V30 8829 H 804.692 4.41413 2.83292 0
M  V30 8830 H 806.166 3.49329 4.27403 0
M  V30 8831 H 806.643 1.81978 3.99726 0
M  V30 8832 H 807.249 3.09565 2.91632 0
M  V30 8833 N 805.565 -0.825799 1.34232 0
M  V30 8834 C 806.495 -1.95151 1.28212 0
M  V30 8835 C 807.476 -1.69345 0.160123 0
M  V30 8836 O 808.661 -1.90983 0.352019 0
M  V30 8837 C 805.791 -3.31554 1.03388 0
M  V30 8838 C 804.745 -3.71793 2.12023 0
M  V30 8839 C 804.071 -5.06147 1.72392 0
M  V30 8840 C 805.371 -3.84193 3.53826 0
M  V30 8841 H 807.065 -2.00445 2.22401 0
M  V30 8842 H 804.611 -0.962996 1.07063 0
M  V30 8843 H 806.564 -4.09889 0.978225 0
M  V30 8844 H 805.288 -3.26551 0.0564142 0
M  V30 8845 H 803.947 -2.95731 2.16654 0
M  V30 8846 H 803.595 -4.97628 0.733137 0
M  V30 8847 H 803.295 -5.34041 2.451 0
M  V30 8848 H 804.819 -5.86943 1.68317 0
M  V30 8849 H 806.233 -4.52806 3.51624 0
M  V30 8850 H 804.63 -4.23538 4.2513 0
M  V30 8851 H 805.7 -2.86272 3.91377 0
M  V30 8852 N 807.043 -1.17915 -1.04565 0
M  V30 8853 C 808.268 -0.996749 -1.81878 0
M  V30 8854 C 808.693 0.450169 -1.82634 0
M  V30 8855 O 808.051 1.32268 -1.23995 0
M  V30 8856 C 808.099 -1.55005 -3.25585 0
M  V30 8857 O 807.203 -0.76804 -4.05185 0
M  V30 8858 H 806.544 -0.353456 -0.562108 0
M  V30 8859 H 809.074 -1.56557 -1.31723 0
M  V30 8860 H 809.084 -1.57503 -3.76373 0
M  V30 8861 H 807.759 -2.60327 -3.2435 0
M  V30 8862 H 806.336 -0.81498 -3.63885 0
M  V30 8863 N 808.521 1.23394 -0.980386 0
M  V30 8864 C 809.468 2.24859 -0.520298 0
M  V30 8865 C 810.438 1.60144 0.440821 0
M  V30 8866 O 811.623 1.87593 0.348369 0
M  V30 8867 C 808.763 3.44675 0.171145 0
M  V30 8868 C 807.876 4.23947 -0.830233 0
M  V30 8869 C 807.011 5.31079 -0.113597 0
M  V30 8870 C 806.05 6.02058 -1.10419 0
M  V30 8871 N 805.187 7.00862 -0.416709 0
M  V30 8872 H 810.027 2.63579 -1.39032 0
M  V30 8873 H 807.564 1.29556 -0.696682 0
M  V30 8874 H 809.522 4.13024 0.588838 0
M  V30 8875 H 808.152 3.06755 1.00504 0
M  V30 8876 H 807.204 3.55016 -1.36631 0
M  V30 8877 H 808.516 4.72945 -1.58508 0
M  V30 8878 H 807.67 6.05622 0.36146 0
M  V30 8879 H 806.409 4.83022 0.673854 0
M  V30 8880 H 805.414 5.26307 -1.59 0
M  V30 8881 H 806.639 6.52203 -1.8923 0
M  V30 8882 H 804.585 6.55057 0.351535 0
M  V30 8883 H 804.502 7.47804 -1.11021 0
M  V30 8884 H 805.77 7.79492 0.0359606 0
M  V30 8885 N 809.999 0.752036 1.385 0
M  V30 8886 C 810.931 0.0835089 2.29048 0
M  V30 8887 C 811.944 -0.685402 1.47669 0
M  V30 8888 O 813.133 -0.526748 1.70551 0
M  V30 8889 C 810.233 -0.905772 3.26572 0
M  V30 8890 C 809.406 -0.194828 4.36966 0
M  V30 8891 C 808.465 -1.09464 5.14688 0
M  V30 8892 O 807.491 -0.565743 5.66381 0
M  V30 8893 N 808.693 -2.42287 5.2752 0
M  V30 8894 H 811.458 0.861142 2.87062 0
M  V30 8895 H 809.019 0.602689 1.50264 0
M  V30 8896 H 811.011 -1.51072 3.75446 0
M  V30 8897 H 809.581 -1.58449 2.69467 0
M  V30 8898 H 808.801 0.590812 3.89747 0
M  V30 8899 H 810.089 0.297189 5.07931 0
M  V30 8900 H 809.487 -2.87715 4.8707 0
M  V30 8901 H 808.044 -2.97836 5.79773 0
M  V30 8902 N 811.477 -1.49425 0.500989 0
M  V30 8903 C 812.702 -2.07356 -0.0425154 0
M  V30 8904 C 813.127 -1.35887 -1.30063 0
M  V30 8905 O 812.485 -0.41561 -1.76472 0
M  V30 8906 C 812.533 -3.59518 -0.279188 0
M  V30 8907 O 811.637 -3.89542 -1.3539 0
M  V30 8908 H 810.978 -0.663482 0.0262207 0
M  V30 8909 H 813.508 -1.92231 0.700607 0
M  V30 8910 H 813.518 -4.04791 -0.5107 0
M  V30 8911 H 812.193 -4.10946 0.640009 0
M  V30 8912 H 810.77 -3.56079 -1.10734 0
M  V30 8913 N 812.955 -0.234822 -1.55841 0
M  V30 8914 C 814.204 0.393685 -1.97821 0
M  V30 8915 C 814.517 1.59947 -1.1259 0
M  V30 8916 O 815.723 2.29835 -1.44528 0
M  V30 8917 C 814.179 0.751811 -3.5196 0
M  V30 8918 C 813.787 -0.431898 -4.45913 0
M  V30 8919 C 815.531 1.34518 -4.02623 0
M  V30 8920 C 813.438 -0.0505976 -5.91378 0
M  V30 8921 H 812.368 0.150864 -0.738753 0
M  V30 8922 H 815.019 -0.333132 -1.80451 0
M  V30 8923 H 813.401 1.53642 -3.6498 0
M  V30 8924 H 814.575 -1.20935 -4.44647 0
M  V30 8925 H 812.89 -0.939385 -4.05666 0
M  V30 8926 H 815.487 1.64359 -5.08813 0
M  V30 8927 H 815.83 2.26554 -3.49255 0
M  V30 8928 H 816.363 0.623729 -3.9288 0
M  V30 8929 H 813.102 -0.937779 -6.48757 0
M  V30 8930 H 812.622 0.690898 -5.95808 0
M  V30 8931 H 814.301 0.37146 -6.45933 0
M  V30 8932 N 814.433 1.57553 0.0384317 0
M  V30 8933 C 815.658 1.93485 0.746872 0
M  V30 8934 C 816.083 0.834069 1.68597 0
M  V30 8935 O 815.441 -0.210902 1.80069 0
M  V30 8936 C 815.489 3.28463 1.4881 0
M  V30 8937 O 814.593 3.20051 2.60079 0
M  V30 8938 H 813.934 0.632675 0.201539 0
M  V30 8939 H 816.464 2.046 -0.00329815 0
M  V30 8940 H 816.474 3.63132 1.86009 0
M  V30 8941 H 815.149 4.08147 0.799297 0
M  V30 8942 H 813.726 2.96998 2.25492 0
M  V30 8943 N 815.911 -0.310526 1.54511 0
M  V30 8944 C 816.859 -1.40272 1.85544 0
M  V30 8945 C 817.853 -1.52941 0.728377 0
M  V30 8946 O 819.059 -1.55172 0.912234 0
M  V30 8947 H 815.434 -0.468355 0.588343 0
M  V30 8948 H 817.405 -1.11329 2.76855 0
M  V30 8949 C 816.154 -2.76279 2.11105 0
M  V30 8950 H 815.477 -2.67308 2.97298 0
M  V30 8951 H 816.917 -3.51736 2.36765 0
M  V30 8952 C 815.376 -3.24472 0.906618 0
M  V30 8953 O 815.906 -4.01514 0.122358 0
M  V30 8954 N 814.112 -2.81676 0.714632 0
M  V30 8955 H 813.659 -2.19143 1.35404 0
M  V30 8956 H 813.617 -3.14272 -0.089703 0
M  V30 8957 N 817.389 -1.46805 -0.573248 0
M  V30 8958 C 818.614 -1.56433 -1.36175 0
M  V30 8959 C 819.039 -0.209336 -1.86932 0
M  V30 8960 O 818.397 0.812146 -1.62092 0
M  V30 8961 C 818.445 -2.58055 -2.51873 0
M  V30 8962 O 817.549 -2.12214 -3.53609 0
M  V30 8963 H 816.89 -0.526068 -0.405153 0
M  V30 8964 H 819.42 -1.92456 -0.694405 0
M  V30 8965 H 819.43 -2.77966 -2.98662 0
M  V30 8966 H 818.105 -3.56448 -2.14284 0
M  V30 8967 H 816.682 -2.02333 -3.13234 0
M  V30 8968 N 818.867 0.818669 -1.34668 0
M  V30 8969 C 819.777 1.9616 -1.2868 0
M  V30 8970 C 820.793 1.72918 -0.193742 0
M  V30 8971 O 821.969 1.96951 -0.420975 0
M  V30 8972 C 819.034 3.30534 -1.04633 0
M  V30 8973 C 818.095 3.66755 -2.23136 0
M  V30 8974 C 817.328 4.94717 -2.00227 0
M  V30 8975 O 817.551 5.62218 -0.96264 0
M  V30 8976 O 816.485 5.28915 -2.87286 0
M  V30 8977 H 820.311 2.04157 -2.24842 0
M  V30 8978 H 817.896 0.954691 -1.14917 0
M  V30 8979 H 819.778 4.11005 -0.930216 0
M  V30 8980 H 818.453 3.23495 -0.115139 0
M  V30 8981 H 817.36 2.8671 -2.40308 0
M  V30 8982 H 818.693 3.78484 -3.1466 0
M  V30 8983 N 820.346 1.18468 1.03938 0
M  V30 8984 C 821.571 1.00638 1.81347 0
M  V30 8985 C 821.996 -0.440477 1.8287 0
M  V30 8986 O 821.354 -1.31609 1.24695 0
M  V30 8987 C 821.402 1.5673 3.24759 0
M  V30 8988 O 820.506 0.789517 4.04772 0
M  V30 8989 H 819.847 0.356432 0.560225 0
M  V30 8990 H 822.377 1.57253 1.30891 0
M  V30 8991 H 822.387 1.59496 3.75533 0
M  V30 8992 H 821.062 2.62043 3.22965 0
M  V30 8993 H 819.639 0.834267 3.63448 0
M  V30 8994 N 821.824 -1.22873 0.986916 0
M  V30 8995 C 823.072 -1.91084 0.658121 0
M  V30 8996 C 823.393 -1.77304 -0.811675 0
M  V30 8997 O 822.663 -1.15649 -1.58121 0
M  V30 8998 H 821.243 -0.707251 0.240427 0
M  V30 8999 H 823.905 -1.49357 1.25213 0
M  V30 9000 H 823.001 -2.98373 0.915428 0
M  V30 9001 N 823.302 -0.75937 -1.38099 0
M  V30 9002 C 824.713 -0.385078 -1.82686 0
M  V30 9003 C 825.064 1.0871 -1.6333 0
M  V30 9004 O 824.189 1.84084 -1.13762 0
M  V30 9005 C 824.784 -0.692161 -3.31654 0
M  V30 9006 C 823.343 -0.371077 -3.74566 0
M  V30 9007 C 822.49 -0.942375 -2.60796 0
M  V30 9008 H 825.441 -0.955048 -1.26746 0
M  V30 9009 H 825.462 0.0276001 -3.8049 0
M  V30 9010 H 824.974 -1.76369 -3.4571 0
M  V30 9011 H 823.075 0.693637 -3.66087 0
M  V30 9012 H 823.188 -0.870672 -4.71122 0
M  V30 9013 H 821.552 -0.367383 -2.52036 0
M  V30 9014 H 822.335 -2.01905 -2.77649 0
M  V30 9015 N 824.78 1.49157 -0.508906 0
M  V30 9016 C 826.196 1.58741 -0.165372 0
M  V30 9017 C 826.396 1.5133 1.33047 0
M  V30 9018 O 825.452 1.39135 2.10707 0
M  V30 9019 C 826.765 2.91217 -0.749194 0
M  V30 9020 C 828.313 3.047 -0.716015 0
M  V30 9021 C 828.788 4.39807 -1.27804 0
M  V30 9022 N 830.279 4.46319 -1.23908 0
M  V30 9023 C 831.014 5.49325 -1.64406 0
M  V30 9024 N 830.51 6.59395 -2.12534 0
M  V30 9025 N 832.303 5.40084 -1.55773 0
M  V30 9026 H 824.454 1.52217 -1.48134 0
M  V30 9027 H 826.717 0.721514 -0.614915 0
M  V30 9028 H 826.423 3.02233 -1.79856 0
M  V30 9029 H 826.297 3.76592 -0.214144 0
M  V30 9030 H 828.684 2.9331 0.324535 0
M  V30 9031 H 828.765 2.2099 -1.2883 0
M  V30 9032 H 828.409 4.5195 -2.31741 0
M  V30 9033 H 828.339 5.2217 -0.681623 0
M  V30 9034 H 830.83 3.67354 -0.886537 0
M  V30 9035 H 831.143 7.34102 -2.41485 0
M  V30 9036 H 829.488 6.60414 -2.16513 0
M  V30 9037 H 832.679 4.52986 -1.17987 0
M  V30 9038 H 832.852 6.20233 -1.87657 0
M  V30 9039 N 826.258 0.243083 1.55714 0
M  V30 9040 C 827.506 -0.381964 1.98458 0
M  V30 9041 C 827.827 -1.58745 1.13247 0
M  V30 9042 O 827.097 -1.94723 0.214384 0
M  V30 9043 H 825.677 -0.144114 0.732967 0
M  V30 9044 H 828.339 0.340985 1.91894 0
M  V30 9045 H 827.435 -0.693702 3.04293 0
M  V30 9046 N 827.736 -1.57571 -0.0300757 0
M  V30 9047 C 828.982 -1.89506 -0.722159 0
M  V30 9048 C 829.315 -0.840699 -1.7506 0
M  V30 9049 O 828.59 0.144358 -1.93964 0
M  V30 9050 C 828.873 -3.32081 -1.39262 0
M  V30 9051 C 828.726 -4.48211 -0.377768 0
M  V30 9052 C 830.045 -3.73557 -2.32687 0
M  V30 9053 H 827.164 -0.689213 -0.261064 0
M  V30 9054 H 829.806 -1.89994 0.0150388 0
M  V30 9055 H 827.956 -3.31796 -2.02098 0
M  V30 9056 H 829.628 -4.6063 0.248591 0
M  V30 9057 H 827.871 -4.3274 0.303045 0
M  V30 9058 H 828.542 -5.44854 -0.885347 0
M  V30 9059 H 831.018 -3.75202 -1.79896 0
M  V30 9060 H 829.894 -4.74125 -2.7658 0
M  V30 9061 H 830.155 -3.05759 -3.19317 0
M  V30 9062 N 829.214 0.302327 -1.54673 0
M  V30 9063 C 830.164 1.37443 -1.81916 0
M  V30 9064 C 831.148 1.45999 -0.676251 0
M  V30 9065 O 832.34 1.50174 -0.93685 0
M  V30 9066 C 829.469 2.73966 -2.06876 0
M  V30 9067 C 828.555 2.69637 -3.27348 0
M  V30 9068 N 828.946 2.34926 -4.47933 0
M  V30 9069 C 827.244 3.00742 -3.29348 0
M  V30 9070 C 827.945 2.39862 -5.29944 0
M  V30 9071 N 826.921 2.77163 -4.67634 0
M  V30 9072 H 830.723 1.09567 -2.72713 0
M  V30 9073 H 828.237 0.5109 -1.54154 0
M  V30 9074 H 830.234 3.51265 -2.2454 0
M  V30 9075 H 828.894 3.02754 -1.17346 0
M  V30 9076 H 829.905 2.07403 -4.74557 0
M  V30 9077 H 826.582 3.34434 -2.49921 0
M  V30 9078 H 827.972 2.15835 -6.3629 0
M  V30 9079 N 830.692 1.47107 0.565454 0
M  V30 9080 C 831.939 1.53308 1.32299 0
M  V30 9081 C 832.267 0.1919 1.93551 0
M  V30 9082 O 831.522 -0.81435 1.77952 0
M  V30 9083 C 831.821 2.59309 2.45954 0
M  V30 9084 C 831.487 4.02827 2.02586 0
M  V30 9085 C 830.149 4.41897 1.90474 0
M  V30 9086 C 832.501 4.92913 1.6937 0
M  V30 9087 C 829.829 5.68898 1.4343 0
M  V30 9088 C 832.181 6.20368 1.238 0
M  V30 9089 C 830.845 6.58327 1.10278 0
M  V30 9090 H 830.115 0.560993 0.484116 0
M  V30 9091 H 832.762 1.80667 0.634965 0
M  V30 9092 H 831.067 2.25676 3.20277 0
M  V30 9093 H 832.764 2.61332 3.04149 0
M  V30 9094 H 829.354 3.71953 2.12952 0
M  V30 9095 H 833.538 4.63433 1.77605 0
M  V30 9096 H 828.794 5.97065 1.31618 0
M  V30 9097 H 832.968 6.89589 0.971586 0
M  V30 9098 H 830.595 7.56628 0.736027 0
M  V30 9099 N 832.17 -0.811516 1.35101 0
M  V30 9100 C 833.419 -1.56343 1.27435 0
M  V30 9101 C 833.732 -1.95019 -0.150696 0
M  V30 9102 O 834.938 -2.6924 -0.349586 0
M  V30 9103 C 833.394 -2.82124 2.23459 0
M  V30 9104 C 833.002 -2.50706 3.71283 0
M  V30 9105 C 834.746 -3.60137 2.24726 0
M  V30 9106 C 832.653 -3.72748 4.59143 0
M  V30 9107 H 831.583 -0.58682 0.473453 0
M  V30 9108 H 834.234 -0.892465 1.60335 0
M  V30 9109 H 832.616 -3.50905 1.83525 0
M  V30 9110 H 833.79 -1.89962 4.19823 0
M  V30 9111 H 832.105 -1.85947 3.72576 0
M  V30 9112 H 834.702 -4.50775 2.87587 0
M  V30 9113 H 835.045 -3.97101 1.24965 0
M  V30 9114 H 835.578 -2.98311 2.63164 0
M  V30 9115 H 832.317 -3.40896 5.59884 0
M  V30 9116 H 831.837 -4.32735 4.15332 0
M  V30 9117 H 833.516 -4.40033 4.74321 0
M  V30 9118 N 833.648 -1.19017 -1.03309 0
M  V30 9119 C 834.895 -0.990214 -1.76638 0
M  V30 9120 C 835.223 0.479435 -1.88498 0
M  V30 9121 O 834.478 1.37223 -1.39529 0
M  V30 9122 C 834.777 -1.59927 -3.19622 0
M  V30 9123 C 834.443 -3.09632 -3.27779 0
M  V30 9124 C 833.105 -3.50491 -3.29712 0
M  V30 9125 C 835.457 -4.05644 -3.27264 0
M  V30 9126 C 832.785 -4.85921 -3.28782 0
M  V30 9127 C 835.137 -5.41 -3.27875 0
M  V30 9128 C 833.801 -5.81295 -3.28104 0
M  V30 9129 H 833.071 -0.362345 -0.646364 0
M  V30 9130 H 835.718 -1.48197 -1.21284 0
M  V30 9131 H 834.023 -1.0297 -3.78027 0
M  V30 9132 H 835.72 -1.41989 -3.7502 0
M  V30 9133 H 832.31 -2.77073 -3.26999 0
M  V30 9134 H 836.494 -3.75124 -3.24955 0
M  V30 9135 H 831.75 -5.16427 -3.27281 0
M  V30 9136 H 835.924 -6.15157 -3.26428 0
M  V30 9137 H 833.551 -6.86211 -3.27138 0
M  V30 9138 N 835.127 1.22348 -0.993418 0
M  V30 9139 C 836.075 2.26315 -0.537052 0
M  V30 9140 C 837.069 1.643 0.412545 0
M  V30 9141 O 838.275 1.77729 0.285008 0
M  V30 9142 H 834.65 0.735792 -0.155286 0
M  V30 9143 H 836.621 2.62157 -1.42535 0
M  V30 9144 C 835.37 3.47449 0.132118 0
M  V30 9145 H 834.693 3.9543 -0.589519 0
M  V30 9146 H 836.133 4.21965 0.414884 0
M  V30 9147 C 834.592 3.07893 1.36761 0
M  V30 9148 O 835.122 3.17338 2.46291 0
M  V30 9149 N 833.328 2.62672 1.24305 0
M  V30 9150 H 832.875 2.55186 0.351826 0
M  V30 9151 H 832.833 2.36574 2.07076 0
M  V30 9152 N 836.605 0.766683 1.37694 0
M  V30 9153 C 837.552 0.147725 2.30327 0
M  V30 9154 C 838.522 -0.695366 1.50844 0
M  V30 9155 O 839.707 -0.64878 1.79431 0
M  V30 9156 C 836.847 -0.72935 3.37305 0
M  V30 9157 C 835.96 0.129795 4.31805 0
M  V30 9158 C 835.095 -0.751511 5.25857 0
M  V30 9159 C 834.134 0.110475 6.12 0
M  V30 9160 N 833.271 -0.728522 6.9831 0
M  V30 9161 H 838.111 0.943204 2.82679 0
M  V30 9162 H 835.648 0.476736 1.3916 0
M  V30 9163 H 837.606 -1.25263 3.97951 0
M  V30 9164 H 836.236 -1.49048 2.86329 0
M  V30 9165 H 835.288 0.770829 3.72508 0
M  V30 9166 H 836.6 0.794923 4.92425 0
M  V30 9167 H 835.754 -1.34146 5.91684 0
M  V30 9168 H 834.493 -1.45034 4.65636 0
M  V30 9169 H 833.498 0.712999 5.45157 0
M  V30 9170 H 834.723 0.806557 6.74293 0
M  V30 9171 H 832.669 -1.41206 6.40622 0
M  V30 9172 H 832.586 -0.12058 7.55904 0
M  V30 9173 H 833.854 -1.30303 7.68532 0
M  V30 9174 N 838.083 -1.48885 0.516809 0
M  V30 9175 C 838.993 -2.33185 -0.257293 0
M  V30 9176 C 840.009 -1.4565 -0.951952 0
M  V30 9177 O 841.185 -1.78651 -0.929834 0
M  V30 9178 C 838.25 -3.21465 -1.29851 0
M  V30 9179 C 837.311 -4.24863 -0.615608 0
M  V30 9180 C 836.544 -5.08925 -1.60722 0
M  V30 9181 O 836.767 -4.9475 -2.83863 0
M  V30 9182 O 835.701 -5.90737 -1.15384 0
M  V30 9183 H 839.527 -3.00596 0.433131 0
M  V30 9184 H 837.112 -1.46792 0.277908 0
M  V30 9185 H 838.994 -3.76108 -1.90055 0
M  V30 9186 H 837.669 -2.5673 -1.97158 0
M  V30 9187 H 836.576 -3.74091 0.0265829 0
M  V30 9188 H 837.909 -4.92198 0.0152871 0
M  V30 9189 N 839.561 -0.251338 -1.55583 0
M  V30 9190 C 840.509 0.662534 -2.22965 0
M  V30 9191 C 841.503 1.17662 -1.21869 0
M  V30 9192 O 842.709 1.133 -1.39868 0
M  V30 9193 H 839.084 0.232151 -0.715269 0
M  V30 9194 H 841.055 0.0711252 -2.98315 0
M  V30 9195 C 839.804 1.84646 -2.94621 0
M  V30 9196 H 839.127 1.46003 -3.72187 0
M  V30 9197 H 840.567 2.46303 -3.45124 0
M  V30 9198 C 839.026 2.72034 -1.98744 0
M  V30 9199 O 839.556 3.71695 -1.52335 0
M  V30 9200 N 837.762 2.38695 -1.6575 0
M  V30 9201 H 837.309 1.57702 -2.03685 0
M  V30 9202 H 837.267 2.9744 -1.01867 0
M  V30 9203 N 841.039 1.57585 0.0217189 0
M  V30 9204 C 842.286 1.89606 0.711045 0
M  V30 9205 C 842.614 0.849535 1.74966 0
M  V30 9206 O 841.869 -0.14856 1.95135 0
M  V30 9207 C 842.168 3.28377 1.41079 0
M  V30 9208 C 841.834 4.48035 0.507454 0
M  V30 9209 C 840.496 4.80504 0.258672 0
M  V30 9210 C 842.848 5.21071 -0.115793 0
M  V30 9211 C 840.176 5.83393 -0.622013 0
M  V30 9212 C 842.528 6.24897 -0.984224 0
M  V30 9213 C 841.192 6.55836 -1.2424 0
M  V30 9214 H 840.462 0.693817 0.26019 0
M  V30 9215 H 843.109 1.91478 -0.0291424 0
M  V30 9216 H 841.414 3.22528 2.22448 0
M  V30 9217 H 843.111 3.50404 1.94982 0
M  V30 9218 H 839.701 4.22653 0.711516 0
M  V30 9219 H 843.885 4.96259 0.0634327 0
M  V30 9220 H 839.141 6.05736 -0.830267 0
M  V30 9221 H 843.315 6.8063 -1.47363 0
M  V30 9222 H 840.942 7.35383 -1.92653 0
M  V30 9223 O 842.556 -0.164421 1.60661 0
M  V30 9224 H 843.247 -0.800403 1.76389 0
M  V30 END ATOM
M  V30 BEGIN BOND
M  V30 END BOND
M  V30 END CTAB
M  END
$$$$
