drugbank_target|P04825 Aminopeptidase N (DB08506)
 OpenBabel12092120513D

  0  0  0     0  0            999 V3000
M  V30 BEGIN CTAB
M  V30 COUNTS 13784 13939 0 0 0
M  V30 BEGIN ATOM
M  V30 1 H -0.908 1.98254 -0.117106 0
M  V30 2 N 0 1.576 0 0
M  V30 3 C 0.933 2.03868 1.02534 0
M  V30 4 C 1.911 0.928543 1.3348 0
M  V30 5 O 3.095 1.19667 1.45644 0
M  V30 6 C 0.222 2.43627 2.35294 0
M  V30 7 C -0.732 3.65373 2.2001 0
M  V30 8 S 0.101 5.13292 1.52614 0
M  V30 9 C 1.257 5.56322 2.86805 0
M  V30 10 H 1.49 2.90518 0.631377 0
M  V30 11 H -0.977 1.52953 0.210867 0
M  V30 12 H 0.981 2.67203 3.11629 0
M  V30 13 H -0.358 1.57376 2.7183 0
M  V30 14 H -1.165 3.90944 3.18086 0
M  V30 15 H -1.563 3.418 1.51819 0
M  V30 16 H 0.729 5.58782 3.83104 0
M  V30 17 H 1.672 6.56266 2.65933 0
M  V30 18 H 2.08 4.83886 2.90714 0
M  V30 19 N 1.4781 -0.272755 1.55222 0
M  V30 20 C 2.7061 -1.02255 1.79865 0
M  V30 21 C 3.1211 -1.79924 0.572088 0
M  V30 22 O 2.4781 -1.76638 -0.458842 0
M  V30 23 C 2.5291 -1.98094 3.02392 0
M  V30 24 O 2.2501 -1.23572 4.20311 0
M  V30 25 C 3.7511 -2.84884 3.39641 0
M  V30 26 H 0.9711 -0.302057 0.599168 0
M  V30 27 H 3.5151 -0.303465 2.02236 0
M  V30 28 H 1.6701 -2.65465 2.82147 0
M  V30 29 H 2.0841 -1.88172 4.89583 0
M  V30 30 H 3.5581 -3.47927 4.28545 0
M  V30 31 H 4.0351 -3.54665 2.59055 0
M  V30 32 H 4.6411 -2.23003 3.62146 0
M  V30 33 N 2.9562 -1.48159 -0.537278 0
M  V30 34 C 3.8882 -1.58218 -1.65831 0
M  V30 35 C 4.9012 -0.466948 -1.5596 0
M  V30 36 O 6.0902 -0.73747 -1.62553 0
M  V30 37 C 3.1902 -1.48906 -3.04434 0
M  V30 38 C 2.3632 -2.75343 -3.3986 0
M  V30 39 C 1.4222 -2.59588 -4.57712 0
M  V30 40 O 0.4482 -3.33457 -4.61297 0
M  V30 41 N 1.6502 -1.68724 -5.55439 0
M  V30 42 H 4.4152 -2.54891 -1.57641 0
M  V30 43 H 1.9762 -1.4479 -0.724386 0
M  V30 44 H 3.9682 -1.36072 -3.81139 0
M  V30 45 H 2.5382 -0.602368 -3.06741 0
M  V30 46 H 1.7582 -3.02795 -2.52406 0
M  V30 47 H 3.0462 -3.5924 -3.60311 0
M  V30 48 H 2.4442 -1.07898 -5.55315 0
M  V30 49 H 1.0012 -1.61832 -6.3139 0
M  V30 50 N 4.4343 0.785586 -1.36625 0
M  V30 51 C 5.3663 1.90711 -1.2713 0
M  V30 52 C 6.3793 1.61688 -0.189986 0
M  V30 53 O 7.5683 1.72864 -0.445014 0
M  V30 54 C 4.6683 3.25611 -0.939713 0
M  V30 55 C 3.8413 3.82385 -2.12369 0
M  V30 56 C 2.9003 4.95732 -1.76456 0
M  V30 57 O 1.9263 5.12047 -2.48589 0
M  V30 58 N 3.1283 5.76258 -0.700492 0
M  V30 59 H 5.8933 1.99376 -2.23762 0
M  V30 60 H 3.4543 0.964041 -1.30069 0
M  V30 61 H 5.4463 3.98937 -0.680554 0
M  V30 62 H 4.0163 3.12538 -0.0624074 0
M  V30 63 H 3.2363 3.01001 -2.54543 0
M  V30 64 H 4.5243 4.17047 -2.9146 0
M  V30 65 H 3.9223 5.65609 -0.101624 0
M  V30 66 H 2.4793 6.4987 -0.501165 0
M  V30 67 N 5.9124 1.20967 1.01018 0
M  V30 68 C 7.3234 1.02319 1.56165 0
M  V30 69 C 7.6744 -0.418546 1.91684 0
M  V30 70 O 6.7994 -1.30096 1.72928 0
M  V30 71 C 7.3944 1.85109 2.8376 0
M  V30 72 C 5.9534 1.70809 3.35412 0
M  V30 73 C 5.1004 1.82643 2.08655 0
M  V30 74 H 8.0514 1.35065 0.833255 0
M  V30 75 H 8.0724 1.35827 3.55431 0
M  V30 76 H 7.5844 2.90035 2.57878 0
M  V30 77 H 5.6854 0.685464 3.66241 0
M  V30 78 H 5.7984 2.52467 4.07182 0
M  V30 79 H 4.1624 1.25896 2.21409 0
M  V30 80 H 4.9454 2.89066 1.85191 0
M  V30 81 N 7.3905 -1.2043 1.01659 0
M  V30 82 C 8.3225 -2.22626 0.544988 0
M  V30 83 C 9.3355 -1.58479 -0.372609 0
M  V30 84 O 10.5245 -1.77679 -0.170958 0
M  V30 85 C 7.6245 -3.38141 -0.22663 0
M  V30 86 C 6.7975 -4.31877 0.692876 0
M  V30 87 C 5.8565 -5.26191 -0.0311616 0
M  V30 88 O 4.8825 -5.6612 0.591343 0
M  V30 89 N 6.0845 -5.65618 -1.30601 0
M  V30 90 H 8.8495 -2.63716 1.42388 0
M  V30 91 H 6.4105 -1.34971 0.894116 0
M  V30 92 H 8.4025 -3.98239 -0.72024 0
M  V30 93 H 6.9725 -2.95943 -1.00681 0
M  V30 94 H 6.1925 -3.69746 1.36679 0
M  V30 95 H 7.4805 -4.91426 1.31824 0
M  V30 96 H 6.8785 -5.3519 -1.83269 0
M  V30 97 H 5.4355 -6.28025 -1.74435 0
M  V30 98 N 8.8686 -0.792821 -1.36206 0
M  V30 99 C 9.8316 -0.199459 -2.2833 0
M  V30 100 C 10.8316 0.605189 -1.48977 0
M  V30 101 O 12.0216 0.425685 -1.68919 0
M  V30 102 C 9.1536 0.723523 -3.33134 0
M  V30 103 H 10.3466 -1.01181 -2.82316 0
M  V30 104 H 7.8996 -0.562485 -1.45828 0
M  V30 105 H 8.6346 1.56008 -2.84309 0
M  V30 106 H 8.4196 0.148436 -3.91819 0
M  V30 107 H 9.9096 1.13344 -4.01924 0
M  V30 108 N 10.3467 1.47872 -0.545128 0
M  V30 109 C 11.2937 2.29849 0.2093 0
M  V30 110 C 12.2637 1.38313 0.919707 0
M  V30 111 O 13.4487 1.67277 0.917772 0
M  V30 112 C 10.5887 3.22019 1.24088 0
M  V30 113 C 9.7017 4.2864 0.537778 0
M  V30 114 C 8.8367 5.07973 1.5536 0
M  V30 115 C 7.8757 6.06381 0.8348 0
M  V30 116 N 7.0127 6.78717 1.79688 0
M  V30 117 H 11.8527 2.93845 -0.49591 0
M  V30 118 H 9.3897 1.44848 -0.256389 0
M  V30 119 H 11.3477 3.73868 1.85144 0
M  V30 120 H 9.9777 2.59914 1.91428 0
M  V30 121 H 9.0297 3.7994 -0.187046 0
M  V30 122 H 10.3417 4.98793 -0.0258907 0
M  V30 123 H 9.4957 5.63912 2.23803 0
M  V30 124 H 8.2347 4.37693 2.15118 0
M  V30 125 H 7.2397 5.49631 0.136388 0
M  V30 126 H 8.4647 6.78665 0.24313 0
M  V30 127 H 6.4107 6.11177 2.38326 0
M  V30 128 H 6.3277 7.44998 1.28505 0
M  V30 129 H 7.5957 7.39237 2.47282 0
M  V30 130 N 11.8248 0.280983 1.55075 0
M  V30 131 C 13.0548 -0.336804 2.03836 0
M  V30 132 C 13.4628 -1.49577 1.15859 0
M  V30 133 O 12.8058 -1.82888 0.172503 0
M  V30 134 C 12.8678 -0.874616 3.48699 0
M  V30 135 C 12.5318 0.156478 4.56732 0
M  V30 136 C 13.5288 0.978032 5.10618 0
M  V30 137 C 11.2138 0.292409 5.01448 0
M  V30 138 C 13.2078 1.92165 6.07743 0
M  V30 139 C 10.8948 1.23949 5.98398 0
M  V30 140 C 11.8928 2.05261 6.51427 0
M  V30 141 O 11.5808 2.98367 7.4648 0
M  V30 142 H 11.3128 -0.0800885 0.671239 0
M  V30 143 H 13.8668 0.412589 2.01213 0
M  V30 144 H 12.0968 -1.67418 3.4858 0
M  V30 145 H 13.7858 -1.40612 3.80766 0
M  V30 146 H 14.5518 0.883782 4.7688 0
M  V30 147 H 10.4308 -0.330498 4.59814 0
M  V30 148 H 13.9748 2.55672 6.49059 0
M  V30 149 H 9.8718 1.33454 6.31554 0
M  V30 150 H 10.6398 2.93116 7.64215 0
M  V30 151 N 13.3029 -1.57598 0.00835791 0
M  V30 152 C 14.7189 -1.55764 -0.347822 0
M  V30 153 C 14.9189 -1.01186 -1.74252 0
M  V30 154 O 13.9749 -0.649371 -2.44007 0
M  V30 155 C 15.2879 -2.99927 -0.215407 0
M  V30 156 C 16.8359 -3.11656 -0.289725 0
M  V30 157 C 17.3109 -4.57621 -0.18634 0
M  V30 158 N 18.8019 -4.62557 -0.243978 0
M  V30 159 C 19.5369 -5.73094 -0.18745 0
M  V30 160 N 19.0329 -6.92753 -0.0810331 0
M  V30 161 N 20.8259 -5.61588 -0.239925 0
M  V30 162 H 12.9769 -1.91411 0.92062 0
M  V30 163 H 15.2399 -0.879562 0.353659 0
M  V30 164 H 14.9459 -3.43729 0.744512 0
M  V30 165 H 14.8199 -3.63865 -0.994097 0
M  V30 166 H 17.2069 -2.67779 -1.24009 0
M  V30 167 H 17.2879 -2.5048 0.51898 0
M  V30 168 H 16.9319 -5.02174 0.760519 0
M  V30 169 H 16.8619 -5.16752 -1.01364 0
M  V30 170 H 19.3529 -3.76481 -0.327217 0
M  V30 171 H 19.6659 -7.72787 -0.0440241 0
M  V30 172 H 18.0109 -6.94984 -0.0465419 0
M  V30 173 H 21.2019 -4.66996 -0.321317 0
M  V30 174 H 21.3749 -6.47714 -0.192407 0
M  V30 175 N 14.781 0.264519 -1.55364 0
M  V30 176 C 15.731 1.32966 -1.85214 0
M  V30 177 C 16.715 1.44306 -0.711653 0
M  V30 178 O 17.907 1.47844 -0.973192 0
M  V30 179 C 15.036 2.68839 -2.13495 0
M  V30 180 C 14.122 2.61575 -3.33825 0
M  V30 181 N 14.513 2.23933 -4.53528 0
M  V30 182 C 12.811 2.92621 -3.36584 0
M  V30 183 C 13.512 2.26868 -5.35636 0
M  V30 184 N 12.488 2.65677 -4.74254 0
M  V30 185 H 16.29 1.02884 -2.75304 0
M  V30 186 H 13.804 0.473157 -1.55354 0
M  V30 187 H 15.801 3.45685 -2.33039 0
M  V30 188 H 14.461 2.99802 -1.24694 0
M  V30 189 H 15.472 1.95769 -4.79474 0
M  V30 190 H 12.149 3.2824 -2.58002 0
M  V30 191 H 13.539 2.00254 -6.41364 0
M  V30 192 N 16.2591 1.48442 0.529413 0
M  V30 193 C 17.5361 1.46978 1.29062 0
M  V30 194 C 17.9161 0.181769 2.10316 0
M  V30 195 O 17.2641 -0.836481 2.12639 0
M  V30 196 C 17.4741 2.7321 2.17157 0
M  V30 197 C 18.8221 3.21562 2.77278 0
M  V30 198 O 19.8461 2.74131 2.27444 0
M  V30 199 O 18.7051 4.04094 3.67927 0
M  V30 200 H 15.7991 0.587003 0.582543 0
M  V30 201 H 18.3451 1.60676 0.546021 0
M  V30 202 H 17.1171 3.58465 1.56903 0
M  V30 203 H 16.7401 2.62235 2.98862 0
M  V30 204 N 17.7372 -0.778329 1.37039 0
M  V30 205 C 18.9672 -1.56507 1.34868 0
M  V30 206 C 19.3752 -1.89072 -0.0694802 0
M  V30 207 O 18.7182 -1.51434 -1.03987 0
M  V30 208 C 18.7802 -2.90641 2.11585 0
M  V30 209 C 18.4442 -2.80746 3.60598 0
M  V30 210 C 19.4412 -2.52226 4.54618 0
M  V30 211 C 17.1262 -2.98974 4.03633 0
M  V30 212 C 19.1202 -2.42054 5.89651 0
M  V30 213 C 16.8072 -2.88423 5.38754 0
M  V30 214 C 17.8052 -2.60002 6.31576 0
M  V30 215 O 17.4932 -2.49465 7.64214 0
M  V30 216 H 17.2252 -0.491723 0.463879 0
M  V30 217 H 19.7792 -0.973053 1.80889 0
M  V30 218 H 18.0092 -3.51936 1.60243 0
M  V30 219 H 19.6982 -3.51992 2.0213 0
M  V30 220 H 20.4642 -2.37835 4.22681 0
M  V30 221 H 16.3432 -3.20099 3.31749 0
M  V30 222 H 19.8872 -2.19791 6.62071 0
M  V30 223 H 15.7842 -3.0238 5.70295 0
M  V30 224 H 16.5522 -2.64864 7.74461 0
M  V30 225 N 19.2153 -1.21501 -1.00376 0
M  V30 226 C 20.6313 -0.972629 -1.26539 0
M  V30 227 C 20.8313 0.340257 -1.98606 0
M  V30 228 O 19.8873 1.06561 -2.28913 0
M  V30 229 C 21.2003 -2.16404 -2.08781 0
M  V30 230 C 22.7483 -2.20643 -2.22004 0
M  V30 231 C 23.2233 -3.39306 -3.07629 0
M  V30 232 N 24.7143 -3.39401 -3.15217 0
M  V30 233 C 25.4493 -4.27867 -3.81729 0
M  V30 234 N 24.9453 -5.26533 -4.5026 0
M  V30 235 N 26.7383 -4.15672 -3.78382 0
M  V30 236 H 18.8893 -2.05929 -0.520281 0
M  V30 237 H 21.1523 -0.901803 -0.292328 0
M  V30 238 H 20.8583 -3.11554 -1.63178 0
M  V30 239 H 20.7323 -2.15567 -3.09533 0
M  V30 240 H 23.1193 -1.26048 -2.66825 0
M  V30 241 H 23.2003 -2.25523 -1.20718 0
M  V30 242 H 22.8443 -4.34195 -2.63509 0
M  V30 243 H 22.7743 -3.31665 -4.09031 0
M  V30 244 H 25.2653 -2.67997 -2.66432 0
M  V30 245 H 25.5783 -5.90337 -4.98721 0
M  V30 246 H 23.9233 -5.30457 -4.49044 0
M  V30 247 H 27.1143 -3.3785 -3.23998 0
M  V30 248 H 27.2873 -4.84825 -4.2994 0
M  V30 249 N 20.6934 1.19889 -1.02296 0
M  V30 250 C 21.6564 2.21116 -0.603351 0
M  V30 251 C 22.6564 1.5738 0.329884 0
M  V30 252 O 23.8464 1.73802 0.117702 0
M  V30 253 C 20.9784 3.40696 0.117992 0
M  V30 254 H 22.1714 2.59754 -1.49893 0
M  V30 255 H 19.7244 1.33463 -0.813468 0
M  V30 256 H 20.4594 3.07569 1.0282 0
M  V30 257 H 20.2444 3.88188 -0.552511 0
M  V30 258 H 21.7344 4.15692 0.398696 0
M  V30 259 N 22.1715 0.800033 1.35784 0
M  V30 260 C 23.5825 0.439142 1.81462 0
M  V30 261 C 23.9335 -1.03813 1.66485 0
M  V30 262 O 23.0585 -1.80626 1.19177 0
M  V30 263 C 23.6535 0.790314 3.29453 0
M  V30 264 C 22.2125 0.482111 3.733 0
M  V30 265 C 21.3595 1.01938 2.57883 0
M  V30 266 H 24.3105 0.992254 1.23855 0
M  V30 267 H 24.3315 0.0853677 3.80404 0
M  V30 268 H 23.8435 1.86554 3.40322 0
M  V30 269 H 21.9445 -0.584652 3.67984 0
M  V30 270 H 22.0575 1.01015 4.6833 0
M  V30 271 H 20.4215 0.442043 2.50835 0
M  V30 272 H 21.2045 2.10059 2.71533 0
M  V30 273 N 23.6496 -1.47581 0.552962 0
M  V30 274 C 24.9266 -1.95563 -0.0381515 0
M  V30 275 C 25.3066 -1.49552 -1.48988 0
M  V30 276 O 24.6546 -0.732414 -2.16444 0
M  V30 277 C 24.8646 -3.48848 0.102919 0
M  V30 278 C 26.2126 -4.24577 -0.0446082 0
M  V30 279 O 27.2366 -3.56187 0.0302548 0
M  V30 280 O 26.0956 -5.46116 -0.204923 0
M  V30 281 H 23.1896 -0.824321 -0.0665067 0
M  V30 282 H 25.7356 -1.58001 0.619186 0
M  V30 283 H 24.5076 -3.75129 1.11328 0
M  V30 284 H 24.1306 -3.93165 -0.592224 0
M  V30 285 N 25.1277 -0.289203 -1.54924 0
M  V30 286 C 26.3577 0.325989 -2.04012 0
M  V30 287 C 26.7657 1.48961 -1.1665 0
M  V30 288 O 26.1087 1.82794 -0.1822 0
M  V30 289 C 26.1707 0.856112 -3.49158 0
M  V30 290 C 25.8347 -0.180697 -4.56643 0
M  V30 291 C 26.8317 -1.0051 -5.10092 0
M  V30 292 C 24.5167 -0.318998 -5.01286 0
M  V30 293 C 26.5107 -1.95385 -6.06715 0
M  V30 294 C 24.1977 -1.27121 -5.97732 0
M  V30 295 C 25.1957 -2.08713 -6.50329 0
M  V30 296 O 24.8837 -3.02322 -7.44887 0
M  V30 297 H 24.6157 0.0765276 -0.671654 0
M  V30 298 H 27.1697 -0.423254 -2.00992 0
M  V30 299 H 25.3997 1.65567 -3.49463 0
M  V30 300 H 27.0887 1.38591 -3.81507 0
M  V30 301 H 27.8547 -0.90906 -4.76404 0
M  V30 302 H 23.7337 0.306108 -4.59983 0
M  V30 303 H 27.2777 -2.59111 -6.47694 0
M  V30 304 H 23.1747 -1.36801 -6.30837 0
M  V30 305 H 23.9427 -2.97165 -7.6265 0
M  V30 306 N 26.6058 1.57591 -0.0167156 0
M  V30 307 C 27.5378 2.06343 0.997753 0
M  V30 308 C 28.5508 0.984469 1.29661 0
M  V30 309 O 29.7398 1.26093 1.26344 0
M  V30 310 C 26.8398 2.46255 2.32834 0
M  V30 311 C 26.0128 3.77083 2.21646 0
M  V30 312 C 25.0718 4.0368 3.37534 0
M  V30 313 O 24.0978 4.7411 3.14973 0
M  V30 314 N 25.2998 3.52881 4.60929 0
M  V30 315 H 28.0648 2.93997 0.581875 0
M  V30 316 H 25.6258 1.61002 0.170316 0
M  V30 317 H 27.6178 2.61149 3.09166 0
M  V30 318 H 26.1878 1.64032 2.66106 0
M  V30 319 H 25.4078 3.72106 1.30119 0
M  V30 320 H 26.6958 4.62822 2.11361 0
M  V30 321 H 26.0938 2.95878 4.82154 0
M  V30 322 H 24.6508 3.73076 5.34469 0
M  V30 323 N 28.0839 -0.256276 1.55502 0
M  V30 324 C 29.3329 -0.983486 1.76098 0
M  V30 325 C 29.6459 -1.86837 0.578896 0
M  V30 326 O 30.8519 -2.63163 0.667648 0
M  V30 327 C 29.3079 -1.79868 3.1173 0
M  V30 328 C 28.9159 -0.961648 4.37557 0
M  V30 329 C 30.6599 -2.51919 3.41668 0
M  V30 330 C 28.5669 -1.77219 5.64223 0
M  V30 331 H 27.4969 -0.370936 0.656447 0
M  V30 332 H 30.1479 -0.238492 1.81944 0
M  V30 333 H 28.5299 -2.58527 2.99966 0
M  V30 334 H 29.7039 -0.218048 4.60284 0
M  V30 335 H 28.0189 -0.354913 4.14885 0
M  V30 336 H 30.6159 -3.12998 4.33516 0
M  V30 337 H 30.9589 -3.23059 2.62562 0
M  V30 338 H 31.4919 -1.80278 3.54605 0
M  V30 339 H 28.2309 -1.10471 6.46124 0
M  V30 340 H 27.7509 -2.49132 5.45613 0
M  V30 341 H 29.4299 -2.34169 6.03137 0
M  V30 342 N 29.562 -1.4872 -0.521534 0
M  V30 343 C 30.79 -1.60843 -1.30142 0
M  V30 344 C 31.205 -0.271897 -1.86832 0
M  V30 345 O 30.562 0.739969 -1.66825 0
M  V30 346 C 30.613 -2.66155 -2.4463 0
M  V30 347 O 30.334 -3.94623 -1.90275 0
M  V30 348 C 31.835 -2.88795 -3.36322 0
M  V30 349 H 29.055 -0.542075 -0.395468 0
M  V30 350 H 31.599 -1.94609 -0.628285 0
M  V30 351 H 29.754 -2.35224 -3.07812 0
M  V30 352 H 30.168 -4.52468 -2.65279 0
M  V30 353 H 31.642 -3.66264 -4.12983 0
M  V30 354 H 32.119 -1.97934 -3.9207 0
M  V30 355 H 32.725 -3.21063 -2.78924 0
M  V30 356 N 31.0401 0.771051 -1.3745 0
M  V30 357 C 32.3171 1.519 -1.23231 0
M  V30 358 C 32.6971 2.10383 0.173809 0
M  V30 359 O 32.0451 1.95583 1.18151 0
M  V30 360 C 32.2551 2.59933 -2.32886 0
M  V30 361 C 33.6031 3.27316 -2.70461 0
M  V30 362 O 34.6271 2.70228 -2.32068 0
M  V30 363 O 33.4861 4.30531 -3.36608 0
M  V30 364 H 30.5801 0.672803 -0.480901 0
M  V30 365 H 33.1261 0.807957 -1.49232 0
M  V30 366 H 31.8981 2.14842 -3.27045 0
M  V30 367 H 31.5211 3.38637 -2.08353 0
M  V30 368 N 32.5182 1.22032 0.997298 0
M  V30 369 C 33.7672 1.03637 1.73038 0
M  V30 370 C 34.0802 -0.429475 1.90827 0
M  V30 371 O 35.2862 -0.732995 2.61418 0
M  V30 372 C 33.7422 1.80582 3.11317 0
M  V30 373 C 33.3502 3.31387 3.01474 0
M  V30 374 C 35.0942 1.70621 3.88701 0
M  V30 375 C 33.0012 4.00791 4.3488 0
M  V30 376 H 31.9312 0.384179 0.648785 0
M  V30 377 H 34.5822 1.4584 1.11368 0
M  V30 378 H 32.9642 1.31175 3.73643 0
M  V30 379 H 34.1382 3.88155 2.4834 0
M  V30 380 H 32.4532 3.41976 2.37575 0
M  V30 381 H 35.0502 2.19799 4.87434 0
M  V30 382 H 35.3932 0.665823 4.10941 0
M  V30 383 H 35.9262 2.17547 3.33044 0
M  V30 384 H 32.6652 5.05064 4.1784 0
M  V30 385 H 32.1852 3.48811 4.87945 0
M  V30 386 H 33.8642 4.06139 5.03647 0
M  V30 387 N 33.9963 -1.19345 1.0293 0
M  V30 388 C 35.2733 -1.84811 0.640642 0
M  V30 389 C 35.6533 -1.91855 -0.88062 0
M  V30 390 O 35.0013 -1.43587 -1.7775 0
M  V30 391 C 35.2113 -3.23755 1.30321 0
M  V30 392 C 36.5593 -3.99912 1.42673 0
M  V30 393 O 37.5833 -3.33155 1.26041 0
M  V30 394 O 36.4423 -5.19494 1.6967 0
M  V30 395 H 33.5363 -0.796443 0.222726 0
M  V30 396 H 36.0823 -1.26831 1.12748 0
M  V30 397 H 34.8543 -3.13466 2.34211 0
M  V30 398 H 34.4773 -3.89381 0.804261 0
M  V30 399 N 35.4744 -0.807222 -1.35358 0
M  V30 400 C 36.4044 -0.232509 -2.3234 0
M  V30 401 C 37.3854 0.642386 -1.57504 0
M  V30 402 O 38.5704 0.572526 -1.85569 0
M  V30 403 C 35.7004 0.619238 -3.41735 0
M  V30 404 C 34.6544 -0.157215 -4.27711 0
M  V30 405 C 33.9804 0.816273 -5.28433 0
M  V30 406 C 35.2804 -1.35656 -5.04376 0
M  V30 407 H 36.9744 -1.04276 -2.80654 0
M  V30 408 H 34.5204 -0.50288 -1.34934 0
M  V30 409 H 36.4734 1.03137 -4.08584 0
M  V30 410 H 35.1974 1.46239 -2.92031 0
M  V30 411 H 33.8564 -0.550525 -3.62443 0
M  V30 412 H 33.5044 1.65494 -4.74996 0
M  V30 413 H 33.2044 0.301067 -5.86828 0
M  V30 414 H 34.7284 1.22659 -5.98153 0
M  V30 415 H 36.1424 -1.01927 -5.64166 0
M  V30 416 H 34.5394 -1.8063 -5.7227 0
M  V30 417 H 35.6094 -2.14288 -4.34981 0
M  V30 418 N 36.9525 1.47285 -0.560781 0
M  V30 419 C 38.1805 2.06855 -0.0430262 0
M  V30 420 C 38.5955 1.41291 1.25229 0
M  V30 421 O 37.9525 0.510648 1.7521 0
M  V30 422 C 38.0035 3.61178 0.152518 0
M  V30 423 O 37.7245 4.24285 -1.0915 0
M  V30 424 C 39.2255 4.37624 0.707145 0
M  V30 425 H 36.4455 0.669319 -0.0474652 0
M  V30 426 H 38.9895 1.89237 -0.77521 0
M  V30 427 H 37.1445 3.78298 0.834843 0
M  V30 428 H 37.5585 5.16868 -0.891482 0
M  V30 429 H 39.0325 5.46271 0.793244 0
M  V30 430 H 39.5095 4.04152 1.71923 0
M  V30 431 H 40.1155 4.25257 0.0604027 0
M  V30 432 N 38.4306 0.297415 1.54768 0
M  V30 433 C 39.6776 -0.312913 2.00068 0
M  V30 434 C 40.0056 -1.54171 1.18582 0
M  V30 435 O 39.2606 -1.94108 0.249133 0
M  V30 436 C 39.5596 -0.717561 3.50123 0
M  V30 437 C 39.2256 0.409095 4.4904 0
M  V30 438 C 37.8876 0.718399 4.75807 0
M  V30 439 C 40.2396 1.16717 5.07963 0
M  V30 440 C 37.5676 1.78896 5.5876 0
M  V30 441 C 39.9196 2.22762 5.92081 0
M  V30 442 C 38.5836 2.54303 6.1716 0
M  V30 443 H 37.8536 -0.114503 0.7321 0
M  V30 444 H 40.5006 0.415767 1.86932 0
M  V30 445 H 38.8056 -1.52627 3.60849 0
M  V30 446 H 40.5026 -1.20091 3.82595 0
M  V30 447 H 37.0926 0.157918 4.28309 0
M  V30 448 H 41.2766 0.941466 4.87289 0
M  V30 449 H 36.5326 2.0381 5.7643 0
M  V30 450 H 40.7066 2.81962 6.36765 0
M  V30 451 H 38.3336 3.3739 6.81229 0
M  V30 452 N 39.9087 -1.5758 0.0250728 0
M  V30 453 C 41.1857 -1.82917 -0.692873 0
M  V30 454 C 41.5657 -0.908137 -1.90568 0
M  V30 455 O 40.9137 0.0372298 -2.2847 0
M  V30 456 C 41.1237 -3.32034 -1.07492 0
M  V30 457 C 42.4717 -3.98406 -1.46826 0
M  V30 458 O 43.4957 -3.36505 -1.16801 0
M  V30 459 O 42.3547 -5.07497 -2.02754 0
M  V30 460 H 39.4487 -0.754079 -0.33955 0
M  V30 461 H 41.9947 -1.69619 0.0524456 0
M  V30 462 H 40.7667 -3.90728 -0.211552 0
M  V30 463 H 40.3897 -3.50424 -1.87854 0
M  V30 464 N 41.3868 0.248026 -1.55636 0
M  V30 465 C 42.3168 1.31079 -1.93237 0
M  V30 466 C 43.2978 1.50264 -0.797174 0
M  V30 467 O 44.4828 1.62891 -1.05737 0
M  V30 468 C 41.6128 2.66575 -2.22609 0
M  V30 469 C 40.5668 2.62087 -3.3837 0
M  V30 470 C 39.8928 4.01369 -3.53281 0
M  V30 471 C 41.1928 2.19171 -4.7409 0
M  V30 472 H 42.8868 0.998556 -2.82257 0
M  V30 473 H 40.4328 0.47891 -1.35803 0
M  V30 474 H 42.3858 3.41057 -2.47503 0
M  V30 475 H 41.1098 2.99432 -1.30414 0
M  V30 476 H 39.7688 1.90063 -3.13483 0
M  V30 477 H 39.4168 4.31489 -2.58508 0
M  V30 478 H 39.1168 3.99254 -4.31127 0
M  V30 479 H 40.6408 4.77552 -3.80495 0
M  V30 480 H 42.0548 2.83384 -4.98363 0
M  V30 481 H 40.4518 2.2817 -5.5503 0
M  V30 482 H 41.5218 1.14336 -4.71227 0
M  V30 483 N 42.8649 1.48995 0.513639 0
M  V30 484 C 44.1419 1.48338 1.27495 0
M  V30 485 C 44.5219 0.204065 2.10111 0
M  V30 486 O 43.8699 -0.813881 2.13514 0
M  V30 487 C 44.0799 2.75498 2.14247 0
M  V30 488 C 45.4279 3.24484 2.73852 0
M  V30 489 O 46.4519 2.76528 2.24523 0
M  V30 490 O 45.3109 4.07974 3.6362 0
M  V30 491 H 42.4049 0.593149 0.576284 0
M  V30 492 H 44.9509 1.61246 0.528948 0
M  V30 493 H 43.7229 3.60109 1.53092 0
M  V30 494 H 43.3459 2.6539 2.96064 0
M  V30 495 N 44.343 -0.763751 1.37857 0
M  V30 496 C 45.306 -1.85889 1.34081 0
M  V30 497 C 46.306 -1.58949 0.243277 0
M  V30 498 O 47.496 -1.66882 0.499589 0
M  V30 499 C 44.628 -3.23176 1.08489 0
M  V30 500 H 45.821 -1.90648 2.31502 0
M  V30 501 H 43.374 -0.964367 1.23003 0
M  V30 502 H 44.109 -3.24091 0.116318 0
M  V30 503 H 43.894 -3.44124 1.8794 0
M  V30 504 H 45.384 -4.03254 1.08517 0
M  V30 505 N 45.8211 -1.22559 -0.990812 0
M  V30 506 C 46.7531 -0.955325 -2.08342 0
M  V30 507 C 47.7661 0.0668408 -1.62663 0
M  V30 508 O 48.9551 -0.167421 -1.77713 0
M  V30 509 C 46.0551 -0.415566 -3.36342 0
M  V30 510 C 45.2281 -1.49544 -4.11042 0
M  V30 511 C 44.2871 -0.962399 -5.17324 0
M  V30 512 O 43.3131 -1.64907 -5.44788 0
M  V30 513 N 44.5151 0.215134 -5.80101 0
M  V30 514 H 47.2801 -1.89596 -2.32106 0
M  V30 515 H 44.8411 -1.13276 -1.15673 0
M  V30 516 H 46.8331 -0.0442386 -4.04676 0
M  V30 517 H 45.4031 0.430232 -3.09625 0
M  V30 518 H 44.6231 -2.04 -3.37309 0
M  V30 519 H 45.9111 -2.22195 -4.57719 0
M  V30 520 H 45.3091 0.789779 -5.6016 0
M  V30 521 H 43.8661 0.527826 -6.49659 0
M  V30 522 N 47.2992 1.18797 -1.03562 0
M  V30 523 C 48.2462 2.22253 -0.622259 0
M  V30 524 C 49.2162 1.61987 0.36736 0
M  V30 525 O 50.4012 1.88986 0.262492 0
M  V30 526 C 47.5412 3.45097 0.0138462 0
M  V30 527 C 46.6542 4.19722 -1.02263 0
M  V30 528 C 45.7892 5.30009 -0.355573 0
M  V30 529 C 44.8282 5.96399 -1.37749 0
M  V30 530 N 43.9652 6.98234 -0.735766 0
M  V30 531 H 48.8052 2.56968 -1.50903 0
M  V30 532 H 46.3422 1.26245 -0.755017 0
M  V30 533 H 48.3002 4.15279 0.399948 0
M  V30 534 H 46.9302 3.11018 0.864158 0
M  V30 535 H 45.9822 3.48418 -1.52673 0
M  V30 536 H 47.2942 4.65227 -1.79903 0
M  V30 537 H 46.4482 6.0664 0.0850095 0
M  V30 538 H 45.1872 4.85592 0.452967 0
M  V30 539 H 44.1922 5.18512 -1.82826 0
M  V30 540 H 45.4172 6.42899 -2.18764 0
M  V30 541 H 43.3632 6.55979 0.0525597 0
M  V30 542 H 43.2802 7.41965 -1.44995 0
M  V30 543 H 44.5482 7.78845 -0.31941 0
M  V30 544 N 48.7773 0.814389 1.34928 0
M  V30 545 C 50.0053 0.411136 2.02774 0
M  V30 546 C 50.4203 -0.980316 1.61354 0
M  V30 547 O 49.7773 -1.63299 0.814847 0
M  V30 548 C 49.8283 0.493865 3.58111 0
M  V30 549 O 49.5493 1.83047 3.98027 0
M  V30 550 C 51.0503 0.0844174 4.4322 0
M  V30 551 H 48.2703 0.166037 0.650133 0
M  V30 552 H 50.8143 1.10018 1.72384 0
M  V30 553 H 48.9693 -0.147006 3.87121 0
M  V30 554 H 49.3833 1.79872 4.92693 0
M  V30 555 H 50.8573 0.193404 5.51661 0
M  V30 556 H 51.3343 -0.97113 4.28329 0
M  V30 557 H 51.9403 0.69875 4.19521 0
M  V30 558 N 50.2554 -1.46986 0.568584 0
M  V30 559 C 51.5014 -2.02741 0.0488709 0
M  V30 560 C 51.8344 -1.44077 -1.30214 0
M  V30 561 O 51.1094 -0.600552 -1.84996 0
M  V30 562 C 51.3924 -3.60086 -0.032047 0
M  V30 563 C 51.2454 -4.29162 1.34686 0
M  V30 564 C 52.5644 -4.33838 -0.739798 0
M  V30 565 H 49.6834 -0.736749 0.0192338 0
M  V30 566 H 52.3254 -1.75289 0.733065 0
M  V30 567 H 50.4754 -3.83606 -0.61473 0
M  V30 568 H 52.1474 -4.16948 1.97362 0
M  V30 569 H 50.3904 -3.89073 1.91846 0
M  V30 570 H 51.0614 -5.37826 1.24285 0
M  V30 571 H 53.5374 -4.15378 -0.244939 0
M  V30 572 H 52.4134 -5.43537 -0.765406 0
M  V30 573 H 52.6744 -4.03875 -1.79827 0
M  V30 574 N 51.7335 -0.305618 -1.54608 0
M  V30 575 C 52.9795 0.302746 -2.00528 0
M  V30 576 C 53.3125 1.53184 -1.19367 0
M  V30 577 O 52.5875 1.92598 -0.271321 0
M  V30 578 C 52.8705 0.654756 -3.54097 0
M  V30 579 C 52.7235 -0.583793 -4.45995 0
M  V30 580 C 54.0425 1.47947 -4.14487 0
M  V30 581 H 51.1615 0.108564 -0.72896 0
M  V30 582 H 53.8035 -0.418634 -1.85331 0
M  V30 583 H 51.9535 1.26935 -3.67178 0
M  V30 584 H 53.6255 -1.22224 -4.44814 0
M  V30 585 H 51.8685 -1.21615 -4.16404 0
M  V30 586 H 52.5395 -0.293287 -5.5122 0
M  V30 587 H 55.0155 0.96013 -4.04871 0
M  V30 588 H 53.8915 1.69454 -5.22088 0
M  V30 589 H 54.1525 2.47011 -3.66658 0
M  V30 590 N 53.2116 1.57565 -0.0334293 0
M  V30 591 C 54.4396 1.9628 0.654347 0
M  V30 592 C 54.8546 0.910138 1.65414 0
M  V30 593 O 54.2116 -0.107595 1.82183 0
M  V30 594 C 54.2626 3.35067 1.35693 0
M  V30 595 O 53.9836 4.36296 0.397191 0
M  V30 596 C 55.4846 3.88439 2.13613 0
M  V30 597 H 52.7046 0.646369 0.180132 0
M  V30 598 H 55.2486 2.04282 -0.0944721 0
M  V30 599 H 53.4036 3.2827 2.05712 0
M  V30 600 H 53.8176 5.1678 0.896597 0
M  V30 601 H 55.2916 4.8788 2.58219 0
M  V30 602 H 55.7686 3.22914 2.97696 0
M  V30 603 H 56.3746 3.98516 1.48543 0
M  V30 604 N 54.6897 -0.239769 1.55765 0
M  V30 605 C 55.6527 -1.28038 1.90103 0
M  V30 606 C 56.6527 -1.40723 0.778055 0
M  V30 607 O 57.8427 -1.39301 1.04599 0
M  V30 608 C 54.9747 -2.65702 2.13577 0
M  V30 609 H 56.1677 -0.988048 2.83157 0
M  V30 610 H 53.7207 -0.479382 1.48767 0
M  V30 611 H 54.4557 -3.00063 1.23015 0
M  V30 612 H 54.2407 -2.57875 2.95369 0
M  V30 613 H 55.7307 -3.40828 2.41301 0
M  V30 614 N 56.1678 -1.49265 -0.50573 0
M  V30 615 C 57.4138 -1.58748 -1.26202 0
M  V30 616 C 57.7468 -0.271227 -1.92297 0
M  V30 617 O 57.0218 0.724831 -1.80489 0
M  V30 618 C 57.3048 -2.74332 -2.33268 0
M  V30 619 C 57.1578 -4.15737 -1.71705 0
M  V30 620 C 58.4768 -2.85576 -3.34865 0
M  V30 621 H 55.5958 -0.577826 -0.457478 0
M  V30 622 H 58.2378 -1.81532 -0.560897 0
M  V30 623 H 56.3878 -2.55036 -2.93068 0
M  V30 624 H 58.0598 -4.46537 -1.15769 0
M  V30 625 H 56.3028 -4.21605 -1.02135 0
M  V30 626 H 56.9738 -4.92477 -2.49341 0
M  V30 627 H 59.4498 -3.03127 -2.8505 0
M  V30 628 H 58.3258 -3.68135 -4.07146 0
M  V30 629 H 58.5868 -1.94732 -3.96903 0
M  V30 630 N 57.6459 0.756429 -1.3826 0
M  V30 631 C 58.8709 1.55077 -1.37717 0
M  V30 632 C 59.2959 1.88073 0.03164 0
M  V30 633 O 58.6539 1.50364 1.01293 0
M  V30 634 C 58.7019 2.8283 -2.23695 0
M  V30 635 O 57.8059 3.77862 -1.6521 0
M  V30 636 H 57.1469 0.469152 -0.469885 0
M  V30 637 H 59.6769 0.935019 -1.81985 0
M  V30 638 H 59.6869 3.31783 -2.37453 0
M  V30 639 H 58.3619 2.58144 -3.2609 0
M  V30 640 H 56.9389 3.36555 -1.60578 0
M  V30 641 N 59.124 1.23083 0.984299 0
M  V30 642 C 60.056 0.96636 2.07832 0
M  V30 643 C 61.069 -0.0582135 1.62696 0
M  V30 644 O 62.258 0.176843 1.77622 0
M  V30 645 C 59.358 0.433397 3.36117 0
M  V30 646 C 58.531 1.51722 4.10243 0
M  V30 647 C 57.59 0.989821 5.16807 0
M  V30 648 O 56.616 1.67794 5.43906 0
M  V30 649 N 57.818 -0.184367 5.80207 0
M  V30 650 H 60.583 1.90824 2.31098 0
M  V30 651 H 58.144 1.13888 1.1507 0
M  V30 652 H 60.136 0.065699 4.04647 0
M  V30 653 H 58.706 -0.413806 3.09849 0
M  V30 654 H 57.926 2.05786 3.36223 0
M  V30 655 H 59.214 2.24619 4.56534 0
M  V30 656 H 58.612 -0.760062 5.60571 0
M  V30 657 H 57.169 -0.493366 6.4993 0
M  V30 658 N 60.6021 -1.18246 1.0419 0
M  V30 659 C 61.5651 -2.20128 0.638452 0
M  V30 660 C 62.5651 -1.57885 -0.304805 0
M  V30 661 O 63.7551 -1.73967 -0.0900369 0
M  V30 662 C 60.8871 -3.4084 -0.0637751 0
M  V30 663 H 62.0801 -2.57336 1.54007 0
M  V30 664 H 59.6331 -1.32152 0.834598 0
M  V30 665 H 60.3681 -3.09166 -0.979136 0
M  V30 666 H 60.1531 -3.8726 0.614198 0
M  V30 667 H 61.6431 -4.16274 -0.332512 0
M  V30 668 N 62.0802 -0.821533 -1.34494 0
M  V30 669 C 63.3262 -0.409552 -1.98622 0
M  V30 670 C 63.6592 1.0244 -1.64984 0
M  V30 671 O 62.9342 1.71325 -0.920758 0
M  V30 672 C 63.2172 -0.610458 -3.54888 0
M  V30 673 C 63.0702 -2.09043 -3.98273 0
M  V30 674 C 64.3892 -0.0455379 -4.40076 0
M  V30 675 H 61.5082 -0.15028 -0.721516 0
M  V30 676 H 64.1502 -1.03384 -1.59411 0
M  V30 677 H 62.3002 -0.079044 -3.8842 0
M  V30 678 H 63.9722 -2.68537 -3.75081 0
M  V30 679 H 62.2152 -2.58139 -3.48635 0
M  V30 680 H 62.8862 -2.18182 -5.07051 0
M  V30 681 H 65.3622 -0.499557 -4.1309 0
M  V30 682 H 64.2382 -0.215922 -5.48475 0
M  V30 683 H 64.4992 1.04939 -4.29465 0
M  V30 684 N 63.5583 1.46682 -0.576371 0
M  V30 685 C 64.9743 1.57822 -0.237562 0
M  V30 686 C 65.1743 1.57237 1.26011 0
M  V30 687 O 64.2303 1.48596 2.04146 0
M  V30 688 C 65.5433 2.87499 -0.881168 0
M  V30 689 C 67.0913 3.01119 -0.85417 0
M  V30 690 C 67.5663 4.33524 -1.4772 0
M  V30 691 N 69.0573 4.40207 -1.44125 0
M  V30 692 C 69.7923 5.4126 -1.89276 0
M  V30 693 N 69.2883 6.49021 -2.42371 0
M  V30 694 N 71.0813 5.32422 -1.80231 0
M  V30 695 H 63.2323 1.45306 -1.54919 0
M  V30 696 H 65.4953 0.692733 -0.647167 0
M  V30 697 H 65.2013 2.9372 -1.93447 0
M  V30 698 H 65.0753 3.75224 -0.385592 0
M  V30 699 H 67.4623 2.94485 0.190491 0
M  V30 700 H 67.5433 2.14887 -1.3877 0
M  V30 701 H 67.1873 4.40916 -2.52103 0
M  V30 702 H 67.1173 5.1852 -0.918947 0
M  V30 703 H 69.6083 3.62931 -1.05307 0
M  V30 704 H 69.9213 7.2233 -2.74698 0
M  V30 705 H 68.2663 6.49858 -2.46393 0
M  V30 706 H 71.4573 4.47137 -1.38514 0
M  V30 707 H 71.6303 6.11034 -2.15735 0
M  V30 708 N 65.0364 0.313813 1.54444 0
M  V30 709 C 65.9864 -0.571898 2.20711 0
M  V30 710 C 66.9704 -1.08913 1.18435 0
M  V30 711 O 68.1624 -1.02777 1.44104 0
M  V30 712 C 65.2914 -1.7371 2.96108 0
M  V30 713 C 64.3774 -1.23522 4.05713 0
M  V30 714 N 64.7684 -0.452288 5.03774 0
M  V30 715 C 63.0664 -1.51482 4.19487 0
M  V30 716 C 63.7674 -0.183438 5.81411 0
M  V30 717 N 62.7434 -0.766845 5.38164 0
M  V30 718 H 66.5454 0.0336802 2.93881 0
M  V30 719 H 64.0594 0.119192 1.61962 0
M  V30 720 H 66.0564 -2.38329 3.4206 0
M  V30 721 H 64.7164 -2.34625 2.24458 0
M  V30 722 H 65.7274 -0.0960131 5.17811 0
M  V30 723 H 62.4044 -2.13053 3.59047 0
M  V30 724 H 63.7944 0.446216 6.70417 0
M  V30 725 N 66.5145 -1.57545 0.0417849 0
M  V30 726 C 67.7625 -1.91937 -0.632829 0
M  V30 727 C 68.0835 -0.919978 -1.71934 0
M  V30 728 O 67.3535 0.0366064 -1.95866 0
M  V30 729 H 65.9335 -0.708493 -0.236742 0
M  V30 730 H 68.5955 -1.9468 0.0925745 0
M  V30 731 H 67.6915 -2.92912 -1.07746 0
M  V30 732 N 67.9926 0.231505 -1.5589 0
M  V30 733 C 68.9556 1.27028 -1.90779 0
M  V30 734 C 69.9556 1.40308 -0.785507 0
M  V30 735 O 71.1456 1.38744 -1.05336 0
M  V30 736 C 68.2776 2.64566 -2.14983 0
M  V30 737 H 69.4706 0.973017 -2.83677 0
M  V30 738 H 67.0236 0.471486 -1.49019 0
M  V30 739 H 67.7586 2.99406 -1.24604 0
M  V30 740 H 67.5436 2.56305 -2.96732 0
M  V30 741 H 69.0336 3.39543 -2.43105 0
M  V30 742 N 69.4707 1.49531 0.497807 0
M  V30 743 C 70.6957 1.63159 1.28039 0
M  V30 744 C 71.1207 0.30418 1.85624 0
M  V30 745 O 70.4787 -0.728618 1.66015 0
M  V30 746 C 70.5267 2.70537 2.38416 0
M  V30 747 O 69.6307 2.29931 3.42353 0
M  V30 748 H 68.9717 0.546001 0.377861 0
M  V30 749 H 71.5017 1.9574 0.59558 0
M  V30 750 H 71.5117 2.92802 2.84132 0
M  V30 751 H 70.1867 3.6689 1.95869 0
M  V30 752 H 68.7637 2.18009 3.02533 0
M  V30 753 N 70.9488 -0.749086 1.3866 0
M  V30 754 C 72.2258 -1.4992 1.25632 0
M  V30 755 C 72.6058 -2.10633 -0.140317 0
M  V30 756 O 71.9538 -1.97437 -1.15025 0
M  V30 757 C 72.1638 -2.56195 2.36992 0
M  V30 758 C 73.5118 -3.22972 2.75634 0
M  V30 759 O 74.5358 -2.66502 2.36337 0
M  V30 760 O 73.3948 -4.25122 3.43415 0
M  V30 761 H 70.4888 -0.665067 0.491544 0
M  V30 762 H 73.0348 -0.784113 1.50498 0
M  V30 763 H 71.8068 -2.09612 3.30422 0
M  V30 764 H 71.4298 -3.35279 2.13714 0
M  V30 765 N 72.4269 -1.23603 -0.977757 0
M  V30 766 C 73.3899 -1.02069 -2.05218 0
M  V30 767 C 74.3899 0.0184305 -1.60789 0
M  V30 768 O 75.5799 -0.221569 -1.72785 0
M  V30 769 C 72.7119 -0.544926 -3.36517 0
M  V30 770 H 73.9049 -1.9742 -2.25755 0
M  V30 771 H 71.4579 -1.05684 -1.15155 0
M  V30 772 H 72.1929 0.412241 -3.21669 0
M  V30 773 H 71.9779 -1.2948 -3.70105 0
M  V30 774 H 73.4679 -0.414985 -4.15533 0
M  V30 775 N 73.905 1.17692 -1.04816 0
M  V30 776 C 75.316 1.69501 -0.782698 0
M  V30 777 C 75.667 1.83456 0.695577 0
M  V30 778 O 74.792 1.51942 1.54086 0
M  V30 779 C 75.387 3.07874 -1.41419 0
M  V30 780 C 73.946 3.56864 -1.19686 0
M  V30 781 C 73.093 2.3322 -1.50012 0
M  V30 782 H 76.044 1.02262 -1.2136 0
M  V30 783 H 76.065 3.71528 -0.821428 0
M  V30 784 H 75.577 2.97685 -2.49009 0
M  V30 785 H 73.678 3.72337 -0.140043 0
M  V30 786 H 73.791 4.39851 -1.89916 0
M  V30 787 H 72.155 2.37501 -0.920071 0
M  V30 788 H 72.938 2.25644 -2.58727 0
M  V30 789 N 75.3831 0.828654 1.34056 0
M  V30 790 C 76.3131 0.269443 2.3194 0
M  V30 791 C 77.2941 -0.617247 1.58506 0
M  V30 792 O 78.4791 -0.542931 1.86456 0
M  V30 793 C 75.6091 -0.564793 3.42677 0
M  V30 794 C 74.5631 0.225241 4.27407 0
M  V30 795 C 73.8891 -0.7321 5.29664 0
M  V30 796 C 75.1891 1.43663 5.02154 0
M  V30 797 H 76.8831 1.08728 2.7896 0
M  V30 798 H 74.4291 0.524283 1.34117 0
M  V30 799 H 76.3821 -0.966233 4.10173 0
M  V30 800 H 75.1061 -1.41574 2.9432 0
M  V30 801 H 73.7651 0.608117 3.61521 0
M  V30 802 H 73.4131 -1.57916 4.77568 0
M  V30 803 H 73.1131 -0.20767 5.87233 0
M  V30 804 H 74.6371 -1.13128 6.00029 0
M  V30 805 H 76.0511 1.1089 5.62473 0
M  V30 806 H 74.4481 1.89711 5.69324 0
M  V30 807 H 75.5181 2.21181 4.31517 0
M  V30 808 N 76.8612 -1.46375 0.584142 0
M  V30 809 C 78.2772 -1.57694 0.245929 0
M  V30 810 C 78.4772 -1.57903 -1.25175 0
M  V30 811 O 77.5332 -1.49676 -2.03355 0
M  V30 812 C 78.8462 -2.87028 0.896402 0
M  V30 813 C 80.3942 -3.00662 0.870127 0
M  V30 814 C 80.8692 -4.32734 1.50017 0
M  V30 815 N 82.3602 -4.39436 1.46458 0
M  V30 816 C 83.0952 -5.40248 1.92144 0
M  V30 817 N 82.5912 -6.47726 2.4581 0
M  V30 818 N 84.3842 -5.31459 1.83052 0
M  V30 819 H 76.5352 -1.44483 1.55687 0
M  V30 820 H 78.7982 -0.689291 0.650831 0
M  V30 821 H 78.5042 -2.9269 1.95002 0
M  V30 822 H 78.3782 -3.75014 0.405486 0
M  V30 823 H 80.7652 -2.94581 -0.174871 0
M  V30 824 H 80.8462 -2.14148 1.39908 0
M  V30 825 H 80.4902 -4.39573 2.54437 0
M  V30 826 H 80.4202 -5.18025 0.946432 0
M  V30 827 H 82.9112 -3.62367 1.07231 0
M  V30 828 H 83.2242 -7.20863 2.78525 0
M  V30 829 H 81.5692 -6.48542 2.49836 0
M  V30 830 H 84.7602 -4.46396 1.40883 0
M  V30 831 H 84.9332 -6.09881 2.18973 0
M  V30 832 N 78.3393 -0.321999 -1.54275 0
M  V30 833 C 79.2693 0.537411 -2.27231 0
M  V30 834 C 80.2503 1.12064 -1.27968 0
M  V30 835 O 81.4353 1.14606 -1.56777 0
M  V30 836 C 78.5653 1.69919 -3.02894 0
M  V30 837 C 77.5193 1.24534 -4.09482 0
M  V30 838 C 76.8453 2.49394 -4.72977 0
M  V30 839 C 78.1453 0.361335 -5.21049 0
M  V30 840 H 79.8393 -0.0711406 -2.99315 0
M  V30 841 H 77.3853 -0.0356555 -1.43956 0
M  V30 842 H 79.3383 2.30668 -3.52662 0
M  V30 843 H 78.0623 2.33431 -2.28424 0
M  V30 844 H 76.7213 0.660782 -3.60596 0
M  V30 845 H 76.3693 3.11265 -3.95124 0
M  V30 846 H 76.0693 2.19718 -5.44975 0
M  V30 847 H 77.5933 3.10908 -5.25517 0
M  V30 848 H 79.0073 0.875072 -5.66582 0
M  V30 849 H 77.4043 0.157428 -5.99893 0
M  V30 850 H 78.4743 -0.60822 -4.8107 0
M  V30 851 N 79.8174 1.5752 -0.0501392 0
M  V30 852 C 80.7654 2.12651 0.942459 0
M  V30 853 C 81.7594 1.05807 1.32292 0
M  V30 854 O 82.9654 1.24217 1.3027 0
M  V30 855 H 79.3404 0.679673 0.321789 0
M  V30 856 H 81.3114 2.94951 0.452356 0
M  V30 857 C 80.0604 2.68565 2.20836 0
M  V30 858 H 79.3834 3.50439 1.92439 0
M  V30 859 H 80.8234 3.10761 2.8845 0
M  V30 860 C 79.2824 1.62291 2.95234 0
M  V30 861 O 79.8124 1.03508 3.88135 0
M  V30 862 N 78.0184 1.33836 2.57946 0
M  V30 863 H 77.5654 1.81826 1.82475 0
M  V30 864 H 77.5234 0.629595 3.08032 0
M  V30 865 N 81.2955 -0.223234 1.56011 0
M  V30 866 C 82.5435 -0.946003 1.78592 0
M  V30 867 C 82.8645 -1.84936 0.618349 0
M  V30 868 O 82.1345 -1.92473 -0.364833 0
M  V30 869 H 80.7145 -0.352298 0.658707 0
M  V30 870 H 83.3765 -0.235494 1.93472 0
M  V30 871 H 82.4725 -1.55381 2.70672 0
M  V30 872 N 82.7736 -1.49793 -0.48987 0
M  V30 873 C 83.6836 -1.70036 -1.61632 0
M  V30 874 C 84.6996 -0.583102 -1.63939 0
M  V30 875 O 85.8756 -0.859169 -1.82154 0
M  V30 876 C 82.9406 -1.77277 -2.97949 0
M  V30 877 C 82.0016 -3.00918 -3.06181 0
M  V30 878 C 81.2346 -3.07804 -4.35996 0
M  V30 879 O 81.4576 -2.21982 -5.25433 0
M  V30 880 O 80.3916 -4.00369 -4.49431 0
M  V30 881 H 84.2176 -2.65486 -1.47482 0
M  V30 882 H 81.8026 -1.33666 -0.667362 0
M  V30 883 H 83.6846 -1.84329 -3.78947 0
M  V30 884 H 82.3596 -0.850076 -3.12339 0
M  V30 885 H 81.2666 -2.99377 -2.2433 0
M  V30 886 H 82.5996 -3.92704 -2.96723 0
M  V30 887 N 84.2517 0.741722 -1.39055 0
M  V30 888 C 85.5287 1.49252 -1.26425 0
M  V30 889 C 85.9087 2.10705 0.129144 0
M  V30 890 O 85.2567 1.98045 1.13976 0
M  V30 891 C 85.4667 2.54934 -2.38347 0
M  V30 892 C 86.8147 3.21506 -2.77343 0
M  V30 893 O 87.8387 2.65245 -2.37747 0
M  V30 894 O 86.6977 4.23294 -3.45665 0
M  V30 895 H 83.7917 0.662451 -0.495064 0
M  V30 896 H 86.3377 0.776121 -1.50912 0
M  V30 897 H 85.1097 2.07857 -3.31529 0
M  V30 898 H 84.7327 3.34141 -2.15489 0
M  V30 899 N 85.7298 1.2412 0.971189 0
M  V30 900 C 86.6598 1.05508 2.08304 0
M  V30 901 C 87.6408 -0.0308864 1.70072 0
M  V30 902 O 88.8258 0.135521 1.93727 0
M  V30 903 C 85.9558 0.655365 3.4106 0
M  V30 904 C 84.9098 1.68971 3.93234 0
M  V30 905 C 84.2358 1.14516 5.22293 0
M  V30 906 C 85.5358 3.08487 4.21465 0
M  V30 907 H 87.2298 1.98507 2.24132 0
M  V30 908 H 84.7758 0.955821 1.07704 0
M  V30 909 H 86.7288 0.51217 4.18276 0
M  V30 910 H 85.4528 -0.31032 3.25122 0
M  V30 911 H 84.1118 1.82106 3.18171 0
M  V30 912 H 83.7598 0.170189 5.02712 0
M  V30 913 H 83.4598 1.83635 5.58168 0
M  V30 914 H 84.9838 1.01401 6.02121 0
M  V30 915 H 86.3978 2.98601 4.89398 0
M  V30 916 H 84.7948 3.74926 4.68562 0
M  V30 917 H 85.8648 3.56787 3.28376 0
M  V30 918 N 87.2079 -1.17134 1.05439 0
M  V30 919 C 88.1549 -2.21235 0.657539 0
M  V30 920 C 89.1249 -1.62551 -0.341543 0
M  V30 921 O 90.3099 -1.89379 -0.232393 0
M  V30 922 C 87.4499 -3.45076 0.0410575 0
M  V30 923 C 86.5629 -4.18042 1.08927 0
M  V30 924 C 85.6979 -5.29376 0.439848 0
M  V30 925 C 84.7369 -5.94132 1.4722 0
M  V30 926 N 83.8739 -6.96975 0.846756 0
M  V30 927 H 88.7139 -2.54534 1.54972 0
M  V30 928 H 86.2509 -1.25028 0.775006 0
M  V30 929 H 88.2089 -4.15862 -0.33383 0
M  V30 930 H 86.8389 -3.12353 -0.814568 0
M  V30 931 H 85.8909 -3.45945 1.58196 0
M  V30 932 H 87.2029 -4.62306 1.87282 0
M  V30 933 H 86.3569 -6.06699 0.0115125 0
M  V30 934 H 85.0959 -4.86251 -0.375656 0
M  V30 935 H 84.1009 -5.15538 1.91052 0
M  V30 936 H 85.3259 -6.39337 2.28965 0
M  V30 937 H 83.2719 -6.5598 0.0518075 0
M  V30 938 H 83.1889 -7.39565 1.5678 0
M  V30 939 H 84.4569 -7.78239 0.443277 0
M  V30 940 N 88.686 -0.835752 -1.33615 0
M  V30 941 C 89.616 -0.281739 -2.31794 0
M  V30 942 C 90.597 0.608833 -1.58831 0
M  V30 943 O 91.782 0.533035 -1.86741 0
M  V30 944 C 88.912 0.546612 -3.42971 0
M  V30 945 C 87.866 -0.247904 -4.27281 0
M  V30 946 C 87.192 0.704001 -5.30045 0
M  V30 947 C 88.492 -1.46324 -5.01385 0
M  V30 948 H 90.186 -1.10206 -2.78379 0
M  V30 949 H 87.732 -0.531388 -1.33837 0
M  V30 950 H 89.685 0.944467 -4.1068 0
M  V30 951 H 88.409 1.40011 -2.95067 0
M  V30 952 H 87.068 -0.627281 -3.61194 0
M  V30 953 H 86.716 1.55381 -4.78399 0
M  V30 954 H 86.416 0.176524 -5.87335 0
M  V30 955 H 87.94 1.09944 -6.0062 0
M  V30 956 H 89.354 -1.13871 -5.61877 0
M  V30 957 H 87.751 -1.92728 -5.6831 0
M  V30 958 H 88.821 -2.23467 -4.30338 0
M  V30 959 N 90.1641 1.46063 -0.591896 0
M  V30 960 C 91.4101 2.02638 -0.0811191 0
M  V30 961 C 91.7431 1.4613 1.27905 0
M  V30 962 O 91.0181 0.629908 1.84017 0
M  V30 963 C 91.3011 3.60091 -0.0252436 0
M  V30 964 C 91.1541 4.26965 -1.41496 0
M  V30 965 C 92.4731 4.3496 0.670685 0
M  V30 966 H 89.5921 0.73635 -0.0309524 0
M  V30 967 H 92.2341 1.741 -0.760859 0
M  V30 968 H 90.3841 3.84535 0.553624 0
M  V30 969 H 92.0561 4.13756 -2.0397 0
M  V30 970 H 90.2991 3.85971 -1.98011 0
M  V30 971 H 90.9701 5.35781 -1.32825 0
M  V30 972 H 93.4461 4.15716 0.178825 0
M  V30 973 H 92.3221 5.44686 0.678837 0
M  V30 974 H 92.5831 4.06685 1.73379 0
M  V30 975 N 91.6422 0.330177 1.54103 0
M  V30 976 C 92.8672 -0.274893 2.0557 0
M  V30 977 C 93.2922 -1.44487 1.20437 0
M  V30 978 O 92.6502 -1.80021 0.214991 0
M  V30 979 C 92.6982 -0.68079 3.54115 0
M  V30 980 O 91.8022 -1.7824 3.71893 0
M  V30 981 H 91.1432 -0.0483849 0.662235 0
M  V30 982 H 93.6732 0.480508 1.98878 0
M  V30 983 H 93.6832 -0.961635 3.96505 0
M  V30 984 H 92.3582 0.174903 4.15532 0
M  V30 985 H 90.9352 -1.49985 3.41407 0
M  V30 986 N 93.1203 -1.57491 0.0584922 0
M  V30 987 C 94.3663 -1.93264 -0.614558 0
M  V30 988 C 94.6993 -0.937717 -1.7006 0
M  V30 989 O 93.9743 0.0351652 -1.94468 0
M  V30 990 C 94.2573 -3.3938 -1.20386 0
M  V30 991 C 94.1103 -4.49625 -0.125375 0
M  V30 992 C 95.4293 -3.86039 -2.11334 0
M  V30 993 H 92.5483 -0.702791 -0.221933 0
M  V30 994 H 95.1903 -1.8961 0.12175 0
M  V30 995 H 93.3403 -3.42626 -1.83139 0
M  V30 996 H 95.0123 -4.58506 0.506971 0
M  V30 997 H 93.2553 -4.30354 0.545672 0
M  V30 998 H 93.9263 -5.48967 -0.577861 0
M  V30 999 H 96.4023 -3.84716 -1.58534 0
M  V30 1000 H 95.2783 -4.88914 -2.49507 0
M  V30 1001 H 95.5393 -3.23215 -3.01636 0
M  V30 1002 N 94.5984 0.214957 -1.56127 0
M  V30 1003 C 95.5484 1.27006 -1.8935 0
M  V30 1004 C 96.5324 1.41969 -0.757202 0
M  V30 1005 O 97.7244 1.44673 -1.01973 0
M  V30 1006 C 94.8534 2.61911 -2.2194 0
M  V30 1007 C 93.9394 2.50822 -3.41978 0
M  V30 1008 N 94.3304 2.09391 -4.60423 0
M  V30 1009 C 92.6284 2.81765 -3.45723 0
M  V30 1010 C 93.3294 2.09712 -5.42582 0
M  V30 1011 N 92.3054 2.50454 -4.82466 0
M  V30 1012 H 96.1074 0.940734 -2.78437 0
M  V30 1013 H 93.6214 0.423492 -1.56781 0
M  V30 1014 H 95.6184 3.38096 -2.43919 0
M  V30 1015 H 94.2784 2.95684 -1.34169 0
M  V30 1016 H 95.2894 1.80416 -4.85459 0
M  V30 1017 H 91.9664 3.19865 -2.68314 0
M  V30 1018 H 93.3564 1.79748 -6.4741 0
M  V30 1019 N 96.0765 1.50051 0.48192 0
M  V30 1020 C 97.3255 1.59741 1.23149 0
M  V30 1021 C 97.6385 0.298163 1.93314 0
M  V30 1022 O 98.8445 0.273835 2.70116 0
M  V30 1023 C 97.3005 2.81926 2.23708 0
M  V30 1024 C 96.9085 4.18685 1.59396 0
M  V30 1025 C 98.6525 3.00956 2.99375 0
M  V30 1026 C 96.5595 5.3207 2.58178 0
M  V30 1027 H 95.4895 0.594838 0.46334 0
M  V30 1028 H 98.1405 1.76467 0.503169 0
M  V30 1029 H 96.5225 2.58736 2.99786 0
M  V30 1030 H 97.6965 4.52088 0.891811 0
M  V30 1031 H 96.0115 4.05171 0.960503 0
M  V30 1032 H 98.6085 3.82836 3.73283 0
M  V30 1033 H 98.9515 2.12258 3.58123 0
M  V30 1034 H 99.4845 3.24277 2.30411 0
M  V30 1035 H 96.2235 6.22888 2.04184 0
M  V30 1036 H 95.7435 5.03098 3.26577 0
M  V30 1037 H 97.4225 5.62196 3.20225 0
M  V30 1038 N 97.5546 -0.734337 1.39446 0
M  V30 1039 C 98.5026 -1.86971 1.38364 0
M  V30 1040 C 99.4966 -1.67288 0.266687 0
M  V30 1041 O 100.703 -1.74621 0.436755 0
M  V30 1042 H 97.0776 -0.615474 0.432082 0
M  V30 1043 H 99.0486 -1.85 2.34132 0
M  V30 1044 C 97.7976 -3.2466 1.24465 0
M  V30 1045 H 97.1206 -3.40402 2.09682 0
M  V30 1046 H 98.5606 -4.04292 1.27764 0
M  V30 1047 C 97.0196 -3.36867 -0.0468674 0
M  V30 1048 O 97.5496 -3.88618 -1.01681 0
M  V30 1049 N 95.7556 -2.90391 -0.110145 0
M  V30 1050 H 95.3026 -2.48466 0.679868 0
M  V30 1051 H 95.2606 -2.98939 -0.973799 0
M  V30 1052 N 99.0327 -1.24633 -0.964593 0
M  V30 1053 C 100.31 -0.995809 -1.68354 0
M  V30 1054 C 100.69 0.480964 -2.05548 0
M  V30 1055 O 100.038 1.45599 -1.76105 0
M  V30 1056 C 100.248 -1.92177 -2.91323 0
M  V30 1057 C 101.596 -2.19446 -3.63495 0
M  V30 1058 O 102.62 -1.89855 -3.01386 0
M  V30 1059 O 101.479 -2.69714 -4.75307 0
M  V30 1060 H 98.5727 -0.376854 -0.736146 0
M  V30 1061 H 101.119 -1.35745 -1.0184 0
M  V30 1062 H 99.8907 -2.91938 -2.60553 0
M  V30 1063 H 99.5137 -1.56349 -3.65569 0
M  V30 1064 N 100.511 1.16574 -1.06058 0
M  V30 1065 C 101.421 2.2452 -0.680282 0
M  V30 1066 C 102.437 1.71348 0.302604 0
M  V30 1067 O 103.613 2.00822 0.152513 0
M  V30 1068 C 100.678 3.46629 -0.0700315 0
M  V30 1069 C 99.7388 4.14849 -1.10448 0
M  V30 1070 C 98.9718 5.31129 -0.523256 0
M  V30 1071 O 99.1948 5.66514 0.664709 0
M  V30 1072 O 98.1288 5.88526 -1.26179 0
M  V30 1073 H 101.955 2.59355 -1.58015 0
M  V30 1074 H 99.5398 1.24043 -0.832694 0
M  V30 1075 H 101.422 4.20543 0.268667 0
M  V30 1076 H 100.097 3.13573 0.803353 0
M  V30 1077 H 99.0038 3.42916 -1.49532 0
M  V30 1078 H 100.337 4.51954 -1.94931 0
M  V30 1079 N 101.989 0.842826 1.3317 0
M  V30 1080 C 103.4 0.496651 1.79973 0
M  V30 1081 C 103.751 -0.984641 1.69703 0
M  V30 1082 O 102.876 -1.76743 1.24863 0
M  V30 1083 C 103.471 0.894727 3.26772 0
M  V30 1084 C 102.03 0.600629 3.71577 0
M  V30 1085 C 101.177 1.10091 2.5451 0
M  V30 1086 H 104.128 1.03116 1.20635 0
M  V30 1087 H 104.149 0.206347 3.7994 0
M  V30 1088 H 103.661 1.97287 3.34215 0
M  V30 1089 H 101.762 -0.467284 3.69658 0
M  V30 1090 H 101.875 1.15863 4.64879 0
M  V30 1091 H 100.239 0.52162 2.49301 0
M  V30 1092 H 101.022 2.18591 2.64713 0
M  V30 1093 N 103.467 -1.45747 0.599634 0
M  V30 1094 C 104.713 -2.03153 0.100263 0
M  V30 1095 C 105.068 -1.46073 -1.25221 0
M  V30 1096 O 104.361 -0.622878 -1.81193 0
M  V30 1097 C 104.555 -3.57399 -0.00602758 0
M  V30 1098 C 104.384 -4.2944 1.3346 0
M  V30 1099 C 103.154 -4.6768 1.91321 0
M  V30 1100 C 105.352 -4.61905 2.2616 0
M  V30 1101 N 103.334 -5.24544 3.18946 0
M  V30 1102 C 104.705 -5.19518 3.3838 0
M  V30 1103 C 106.76 -4.43841 2.25631 0
M  V30 1104 C 105.463 -5.60972 4.50226 0
M  V30 1105 C 107.489 -4.86322 3.36518 0
M  V30 1106 C 106.851 -5.44021 4.4746 0
M  V30 1107 H 102.95 -0.777911 0.0798696 0
M  V30 1108 H 105.534 -1.77674 0.796244 0
M  V30 1109 H 103.705 -3.82556 -0.671212 0
M  V30 1110 H 105.437 -4.01457 -0.51133 0
M  V30 1111 H 102.192 -4.5098 1.44617 0
M  V30 1112 H 102.616 -5.57483 3.84112 0
M  V30 1113 H 107.258 -3.98552 1.41123 0
M  V30 1114 H 104.976 -6.0523 5.35464 0
M  V30 1115 H 108.562 -4.74084 3.37247 0
M  V30 1116 H 107.442 -5.76289 5.31846 0
M  V30 1117 N 104.945 -0.338344 -1.53925 0
M  V30 1118 C 106.173 0.261298 -2.05243 0
M  V30 1119 C 106.588 1.44625 -1.21363 0
M  V30 1120 O 105.945 1.80811 -0.247736 0
M  V30 1121 C 105.996 0.681412 -3.5502 0
M  V30 1122 O 105.717 -0.456414 -4.35716 0
M  V30 1123 C 107.218 1.34232 -4.22489 0
M  V30 1124 H 104.438 0.0513685 -0.669031 0
M  V30 1125 H 106.982 -0.488822 -1.98572 0
M  V30 1126 H 105.137 1.38148 -3.61931 0
M  V30 1127 H 105.551 -0.122564 -5.24357 0
M  V30 1128 H 107.025 1.58708 -5.28693 0
M  V30 1129 H 107.502 2.29426 -3.74514 0
M  V30 1130 H 108.108 0.684424 -4.19757 0
M  V30 1131 N 106.423 1.57458 -0.0668435 0
M  V30 1132 C 107.386 2.11323 0.887422 0
M  V30 1133 C 108.386 1.03618 1.22964 0
M  V30 1134 O 109.576 1.29626 1.16373 0
M  V30 1135 C 106.708 2.61048 2.19242 0
M  V30 1136 H 107.901 2.96942 0.420194 0
M  V30 1137 H 105.454 1.55239 0.181793 0
M  V30 1138 H 106.189 1.78868 2.70512 0
M  V30 1139 H 105.974 3.39769 1.95702 0
M  V30 1140 H 107.464 3.02814 2.87565 0
M  V30 1141 N 107.901 -0.206675 1.56239 0
M  V30 1142 C 109.147 -0.925733 1.81113 0
M  V30 1143 C 109.502 -1.81368 0.642135 0
M  V30 1144 O 108.795 -1.88126 -0.363211 0
M  V30 1145 C 108.989 -1.78675 3.09532 0
M  V30 1146 C 108.818 -0.98365 4.3881 0
M  V30 1147 C 107.588 -0.672661 5.00803 0
M  V30 1148 C 109.786 -0.341847 5.13163 0
M  V30 1149 N 107.768 0.150283 6.13716 0
M  V30 1150 C 109.139 0.343815 6.19046 0
M  V30 1151 C 111.194 -0.256392 4.97239 0
M  V30 1152 C 109.897 1.10678 7.10734 0
M  V30 1153 C 111.923 0.493142 5.8934 0
M  V30 1154 C 111.285 1.16729 6.94661 0
M  V30 1155 H 107.384 -0.318524 0.714189 0
M  V30 1156 H 109.968 -0.195378 1.93717 0
M  V30 1157 H 108.139 -2.4888 2.98183 0
M  V30 1158 H 109.871 -2.44441 3.22538 0
M  V30 1159 H 106.626 -0.994294 4.63045 0
M  V30 1160 H 107.05 0.551026 6.74754 0
M  V30 1161 H 111.692 -0.763249 4.15854 0
M  V30 1162 H 109.41 1.6251 7.91591 0
M  V30 1163 H 112.996 0.560465 5.79094 0
M  V30 1164 H 111.876 1.738 7.64698 0
M  V30 1165 N 109.379 -1.50304 -0.473955 0
M  V30 1166 C 110.326 -1.68959 -1.57231 0
M  V30 1167 C 111.296 -0.530899 -1.57387 0
M  V30 1168 O 112.481 -0.761133 -1.74961 0
M  V30 1169 C 109.621 -1.7871 -2.95223 0
M  V30 1170 C 108.734 -3.06061 -3.04878 0
M  V30 1171 C 107.869 -3.06626 -4.33767 0
M  V30 1172 C 106.908 -4.28443 -4.37154 0
M  V30 1173 N 106.045 -4.26763 -5.5751 0
M  V30 1174 H 110.885 -2.6273 -1.40631 0
M  V30 1175 H 108.422 -1.30241 -0.683789 0
M  V30 1176 H 110.38 -1.82344 -3.75242 0
M  V30 1177 H 109.01 -0.883806 -3.10465 0
M  V30 1178 H 108.062 -3.11911 -2.17751 0
M  V30 1179 H 109.374 -3.96039 -3.0324 0
M  V30 1180 H 108.528 -3.08973 -5.22131 0
M  V30 1181 H 107.267 -2.14473 -4.3801 0
M  V30 1182 H 106.272 -4.2631 -3.47188 0
M  V30 1183 H 107.497 -5.2182 -4.34605 0
M  V30 1184 H 105.443 -3.37462 -5.62544 0
M  V30 1185 H 105.36 -5.10507 -5.57601 0
M  V30 1186 H 106.628 -4.33253 -6.48006 0
M  V30 1187 N 110.857 0.726932 -1.39834 0
M  V30 1188 C 111.767 1.87131 -1.41489 0
M  V30 1189 C 112.783 1.71239 -0.308757 0
M  V30 1190 O 113.959 1.93701 -0.551529 0
M  V30 1191 C 111.024 3.22811 -1.26468 0
M  V30 1192 C 110.085 3.51039 -2.47124 0
M  V30 1193 C 109.318 4.80245 -2.3281 0
M  V30 1194 O 109.541 5.54537 -1.33585 0
M  V30 1195 O 108.475 5.08554 -3.21957 0
M  V30 1196 H 112.301 1.8869 -2.3797 0
M  V30 1197 H 109.886 0.875837 -1.21035 0
M  V30 1198 H 111.768 4.03877 -1.20255 0
M  V30 1199 H 110.443 3.22005 -0.330862 0
M  V30 1200 H 109.35 2.70027 -2.58914 0
M  V30 1201 H 110.683 3.56632 -3.39227 0
M  V30 1202 N 112.336 1.25143 0.95797 0
M  V30 1203 C 113.246 1.06968 2.08794 0
M  V30 1204 C 114.262 0.00773911 1.73998 0
M  V30 1205 O 115.438 0.207972 2.00323 0
M  V30 1206 C 112.503 0.68691 3.39827 0
M  V30 1207 C 111.564 1.82641 3.88511 0
M  V30 1208 C 110.797 1.46181 5.1329 0
M  V30 1209 O 111.02 0.355971 5.69288 0
M  V30 1210 O 109.954 2.29085 5.566 0
M  V30 1211 H 113.78 2.01723 2.27027 0
M  V30 1212 H 111.365 1.04051 1.07209 0
M  V30 1213 H 113.247 0.485417 4.18595 0
M  V30 1214 H 111.922 -0.231417 3.22872 0
M  V30 1215 H 110.829 2.08274 3.10762 0
M  V30 1216 H 112.162 2.72386 4.09959 0
M  V30 1217 N 113.814 -1.1601 1.06675 0
M  V30 1218 C 114.724 -2.24156 0.692179 0
M  V30 1219 C 115.74 -1.71507 -0.293513 0
M  V30 1220 O 116.916 -2.009 -0.141861 0
M  V30 1221 C 113.981 -3.46587 0.0884131 0
M  V30 1222 C 113.042 -4.14257 1.12646 0
M  V30 1223 C 112.275 -5.30844 0.551416 0
M  V30 1224 O 112.498 -5.66858 -0.634656 0
M  V30 1225 O 111.432 -5.87848 1.29298 0
M  V30 1226 H 115.258 -2.58513 1.59388 0
M  V30 1227 H 112.843 -1.23599 0.83926 0
M  V30 1228 H 114.725 -4.20679 -0.246361 0
M  V30 1229 H 113.4 -3.13994 -0.786712 0
M  V30 1230 H 112.307 -3.42118 1.51348 0
M  V30 1231 H 113.64 -4.50914 1.97325 0
M  V30 1232 N 115.292 -0.849877 -1.32721 0
M  V30 1233 C 116.54 -0.450032 -1.97026 0
M  V30 1234 C 116.861 0.996604 -1.67609 0
M  V30 1235 O 116.131 1.6958 -0.980786 0
M  V30 1236 H 114.711 -0.163426 -0.728904 0
M  V30 1237 H 117.373 -1.08526 -1.6189 0
M  V30 1238 H 116.469 -0.591146 -3.0645 0
M  V30 1239 N 116.77 1.45427 -0.607355 0
M  V30 1240 C 117.733 2.28974 0.101693 0
M  V30 1241 C 118.733 1.39754 0.795329 0
M  V30 1242 O 119.923 1.61878 0.643527 0
M  V30 1243 C 117.055 3.20768 1.15414 0
M  V30 1244 H 118.248 2.93147 -0.632844 0
M  V30 1245 H 115.801 1.51945 -0.366391 0
M  V30 1246 H 116.536 2.61395 1.91945 0
M  V30 1247 H 116.321 3.86489 0.66098 0
M  V30 1248 H 117.811 3.83589 1.65073 0
M  V30 1249 N 118.248 0.346503 1.53744 0
M  V30 1250 C 119.178 -0.501193 2.28058 0
M  V30 1251 C 120.159 -1.10014 1.29734 0
M  V30 1252 O 121.344 -1.12097 1.58581 0
M  V30 1253 C 118.474 -1.65078 3.05559 0
M  V30 1254 C 117.428 -1.18003 4.11411 0
M  V30 1255 C 116.754 -2.41837 4.76884 0
M  V30 1256 C 118.054 -0.278394 5.21558 0
M  V30 1257 H 119.748 0.11875 2.99164 0
M  V30 1258 H 117.294 0.0585531 1.43881 0
M  V30 1259 H 119.247 -2.25028 3.56287 0
M  V30 1260 H 117.971 -2.29767 2.32109 0
M  V30 1261 H 116.63 -0.603331 3.61601 0
M  V30 1262 H 116.278 -3.0494 4.00026 0
M  V30 1263 H 115.978 -2.1102 5.48402 0
M  V30 1264 H 117.502 -3.02508 5.30397 0
M  V30 1265 H 118.916 -0.784823 5.67903 0
M  V30 1266 H 117.313 -0.0619707 6.00068 0
M  V30 1267 H 118.383 0.684677 4.80042 0
M  V30 1268 N 119.726 -1.57421 0.075193 0
M  V30 1269 C 120.972 -1.93905 -0.594025 0
M  V30 1270 C 121.305 -0.955701 -1.69056 0
M  V30 1271 O 120.58 0.0145373 -1.94495 0
M  V30 1272 C 120.863 -3.40638 -1.1678 0
M  V30 1273 C 120.716 -4.49733 -0.0776792 0
M  V30 1274 C 122.035 -3.88259 -2.07228 0
M  V30 1275 H 119.154 -0.705105 -0.214466 0
M  V30 1276 H 121.796 -1.8947 0.141854 0
M  V30 1277 H 119.946 -3.44549 -1.79494 0
M  V30 1278 H 121.618 -4.57942 0.555573 0
M  V30 1279 H 119.861 -4.29751 0.591286 0
M  V30 1280 H 120.532 -5.49549 -0.519603 0
M  V30 1281 H 123.008 -3.86376 -1.54445 0
M  V30 1282 H 121.884 -4.91533 -2.44308 0
M  V30 1283 H 122.145 -3.26396 -2.98191 0
M  V30 1284 N 121.204 0.198386 -1.56346 0
M  V30 1285 C 122.453 0.917451 -1.79627 0
M  V30 1286 C 122.766 1.8456 -0.64784 0
M  V30 1287 O 123.972 2.60504 -0.764859 0
M  V30 1288 C 122.428 1.68175 -3.18191 0
M  V30 1289 C 122.036 0.798589 -4.40825 0
M  V30 1290 C 123.78 2.39065 -3.50782 0
M  V30 1291 C 121.687 1.56157 -5.70411 0
M  V30 1292 H 120.617 0.346317 -0.669762 0
M  V30 1293 H 123.268 0.170801 -1.82703 0
M  V30 1294 H 121.65 2.47216 -3.09354 0
M  V30 1295 H 122.824 0.0470665 -4.60776 0
M  V30 1296 H 121.139 0.200686 -4.15916 0
M  V30 1297 H 123.736 2.96692 -4.44835 0
M  V30 1298 H 124.079 3.13091 -2.74371 0
M  V30 1299 H 124.612 1.66993 -3.61052 0
M  V30 1300 H 121.351 0.864142 -6.49779 0
M  V30 1301 H 120.871 2.2871 -5.54483 0
M  V30 1302 H 122.55 2.11622 -6.11412 0
M  V30 1303 N 122.682 1.50554 0.465978 0
M  V30 1304 C 123.907 1.65838 1.24549 0
M  V30 1305 C 124.332 0.343486 1.84937 0
M  V30 1306 O 123.69 -0.69324 1.67523 0
M  V30 1307 C 123.738 2.75533 2.32624 0
M  V30 1308 O 122.842 2.37142 3.37398 0
M  V30 1309 H 122.183 0.553893 0.366194 0
M  V30 1310 H 124.713 1.96959 0.553927 0
M  V30 1311 H 124.723 2.98763 2.77857 0
M  V30 1312 H 123.398 3.70962 1.88043 0
M  V30 1313 H 121.975 2.24377 2.97841 0
M  V30 1314 N 124.16 -0.719506 1.40217 0
M  V30 1315 C 125.108 -1.85493 1.40339 0
M  V30 1316 C 126.102 -1.66995 0.284415 0
M  V30 1317 O 127.308 -1.74148 0.455252 0
M  V30 1318 H 123.683 -0.610857 0.438586 0
M  V30 1319 H 125.654 -1.82506 2.36081 0
M  V30 1320 C 124.403 -3.23321 1.27901 0
M  V30 1321 H 123.726 -3.38159 2.1328 0
M  V30 1322 H 125.166 -4.02914 1.32045 0
M  V30 1323 C 123.625 -3.36898 -0.0111355 0
M  V30 1324 O 124.155 -3.89674 -0.975538 0
M  V30 1325 N 122.361 -2.90492 -0.0793393 0
M  V30 1326 H 121.908 -2.47731 0.706183 0
M  V30 1327 H 121.866 -2.99955 -0.942038 0
M  V30 1328 N 125.638 -1.25649 -0.95132 0
M  V30 1329 C 126.568 -1.08808 -2.06599 0
M  V30 1330 C 127.549 0.00382547 -1.701 0
M  V30 1331 O 128.734 -0.166325 -1.93486 0
M  V30 1332 C 125.864 -0.709542 -3.39975 0
M  V30 1333 C 124.818 -1.75206 -3.90496 0
M  V30 1334 C 124.144 -1.22811 -5.20405 0
M  V30 1335 C 125.444 -3.15153 -4.16504 0
M  V30 1336 H 127.138 -2.02048 -2.20946 0
M  V30 1337 H 124.684 -0.972835 -1.06169 0
M  V30 1338 H 126.637 -0.578649 -4.17408 0
M  V30 1339 H 125.361 0.258556 -3.25575 0
M  V30 1340 H 124.02 -1.87145 -3.15234 0
M  V30 1341 H 123.668 -0.250145 -5.02378 0
M  V30 1342 H 123.368 -1.92492 -5.55176 0
M  V30 1343 H 124.892 -1.10968 -6.00432 0
M  V30 1344 H 126.306 -3.06349 -4.84586 0
M  V30 1345 H 124.703 -3.82333 -4.62538 0
M  V30 1346 H 125.773 -3.61966 -3.22658 0
M  V30 1347 N 127.117 1.15442 -1.07289 0
M  V30 1348 C 128.528 1.67803 -0.818475 0
M  V30 1349 C 128.879 1.8489 0.656507 0
M  V30 1350 O 128.004 1.55176 1.50829 0
M  V30 1351 C 128.599 3.04805 -1.47917 0
M  V30 1352 C 127.158 3.54245 -1.27229 0
M  V30 1353 C 126.305 2.29986 -1.54925 0
M  V30 1354 H 129.256 0.996646 -1.23502 0
M  V30 1355 H 129.277 3.69702 -0.90005 0
M  V30 1356 H 128.789 2.92336 -2.55267 0
M  V30 1357 H 126.89 3.71956 -0.21899 0
M  V30 1358 H 127.003 4.35723 -1.99203 0
M  V30 1359 H 125.367 2.35496 -0.970242 0
M  V30 1360 H 126.15 2.20105 -2.63455 0
M  V30 1361 N 128.595 0.856903 1.32268 0
M  V30 1362 C 129.505 0.306131 2.32594 0
M  V30 1363 C 130.521 -0.577209 1.64147 0
M  V30 1364 O 131.697 -0.477043 1.95669 0
M  V30 1365 C 128.762 -0.494561 3.43154 0
M  V30 1366 C 127.823 0.415186 4.27288 0
M  V30 1367 C 127.056 -0.347387 5.32568 0
M  V30 1368 O 127.279 -1.57708 5.48165 0
M  V30 1369 O 126.213 0.287982 6.01211 0
M  V30 1370 H 130.039 1.13737 2.81598 0
M  V30 1371 H 127.624 0.619902 1.35932 0
M  V30 1372 H 129.506 -0.948944 4.10576 0
M  V30 1373 H 128.181 -1.30257 2.96336 0
M  V30 1374 H 127.088 0.917793 3.62667 0
M  V30 1375 H 128.421 1.18844 4.77637 0
M  V30 1376 N 130.073 -1.45103 0.615059 0
M  V30 1377 C 131.489 -1.57137 0.279322 0
M  V30 1378 C 131.689 -1.60523 -1.21797 0
M  V30 1379 O 130.745 -1.53956 -2.00134 0
M  V30 1380 C 132.058 -2.85062 0.957083 0
M  V30 1381 C 133.606 -2.98749 0.933706 0
M  V30 1382 C 134.081 -4.29455 1.59162 0
M  V30 1383 N 135.572 -4.36231 1.55746 0
M  V30 1384 C 136.307 -5.36051 2.0356 0
M  V30 1385 N 135.803 -6.42367 2.59494 0
M  V30 1386 N 137.596 -5.27456 1.94284 0
M  V30 1387 H 129.747 -1.41148 1.58717 0
M  V30 1388 H 132.01 -0.675331 0.665306 0
M  V30 1389 H 131.716 -2.88488 2.01166 0
M  V30 1390 H 131.59 -3.7407 0.48494 0
M  V30 1391 H 133.977 -2.94886 -0.112347 0
M  V30 1392 H 134.058 -2.11132 1.44419 0
M  V30 1393 H 133.702 -4.34077 2.63704 0
M  V30 1394 H 133.632 -5.15901 1.0561 0
M  V30 1395 H 136.123 -3.60011 1.14893 0
M  V30 1396 H 136.436 -7.14793 2.93752 0
M  V30 1397 H 134.781 -6.43097 2.63537 0
M  V30 1398 H 137.972 -4.43308 1.5032 0
M  V30 1399 H 138.145 -6.05099 2.3186 0
M  V30 1400 N 131.551 -0.354651 -1.53558 0
M  V30 1401 C 132.798 0.238443 -2.01091 0
M  V30 1402 C 133.126 1.49663 -1.24222 0
M  V30 1403 O 132.381 1.93049 -0.321003 0
M  V30 1404 C 132.68 0.587121 -3.52545 0
M  V30 1405 C 132.346 -0.575472 -4.47213 0
M  V30 1406 C 131.008 -0.894497 -4.72813 0
M  V30 1407 C 133.36 -1.35489 -5.03281 0
M  V30 1408 C 130.688 -1.99511 -5.51736 0
M  V30 1409 C 133.04 -2.44583 -5.83405 0
M  V30 1410 C 131.704 -2.77033 -6.07296 0
M  V30 1411 H 130.974 0.0872526 -0.735845 0
M  V30 1412 H 133.621 -0.484859 -1.8526 0
M  V30 1413 H 131.926 1.39129 -3.66265 0
M  V30 1414 H 133.623 1.05809 -3.86789 0
M  V30 1415 H 130.213 -0.316774 -4.27428 0
M  V30 1416 H 134.397 -1.12167 -4.83459 0
M  V30 1417 H 129.653 -2.25063 -5.68469 0
M  V30 1418 H 133.827 -3.05401 -6.25862 0
M  V30 1419 H 131.454 -3.6244 -6.68237 0
M  V30 1420 N 133.029 1.57378 -0.0835403 0
M  V30 1421 C 134.257 1.98263 0.59157 0
M  V30 1422 C 134.672 0.962302 1.62435 0
M  V30 1423 O 134.029 -0.049581 1.82433 0
M  V30 1424 C 134.08 3.39214 1.24965 0
M  V30 1425 O 133.801 4.37339 0.258186 0
M  V30 1426 C 135.302 3.95038 2.01147 0
M  V30 1427 H 132.522 0.651773 0.159477 0
M  V30 1428 H 135.066 2.03878 -0.159415 0
M  V30 1429 H 133.221 3.34649 1.95164 0
M  V30 1430 H 133.635 5.19371 0.731734 0
M  V30 1431 H 135.109 4.95848 2.42567 0
M  V30 1432 H 135.586 3.32222 2.87272 0
M  V30 1433 H 136.192 4.0304 1.35789 0
M  V30 1434 N 134.507 -0.190092 1.56449 0
M  V30 1435 C 135.437 -1.23816 1.97969 0
M  V30 1436 C 136.418 -1.47201 0.852395 0
M  V30 1437 O 137.603 -1.58854 1.1171 0
M  V30 1438 C 134.733 -2.5813 2.3235 0
M  V30 1439 C 133.687 -2.49348 3.47864 0
M  V30 1440 C 133.013 -3.8798 3.67934 0
M  V30 1441 C 134.313 -2.01424 4.81898 0
M  V30 1442 H 136.007 -0.89311 2.85769 0
M  V30 1443 H 133.553 -0.428177 1.37487 0
M  V30 1444 H 135.506 -3.31637 2.59991 0
M  V30 1445 H 134.23 -2.94386 1.41438 0
M  V30 1446 H 132.889 -1.78297 3.20321 0
M  V30 1447 H 132.537 -4.21597 2.74344 0
M  V30 1448 H 132.237 -3.82978 4.45648 0
M  V30 1449 H 133.761 -4.63101 3.97957 0
M  V30 1450 H 135.175 -2.64693 5.08538 0
M  V30 1451 H 133.572 -2.07413 5.63116 0
M  V30 1452 H 134.642 -0.967677 4.75146 0
M  V30 1453 N 135.985 -1.50799 -0.457987 0
M  V30 1454 C 136.932 -1.70617 -1.5543 0
M  V30 1455 C 137.902 -0.547562 -1.56815 0
M  V30 1456 O 139.087 -0.779647 -1.74144 0
M  V30 1457 C 136.227 -1.81831 -2.93311 0
M  V30 1458 C 135.34 -3.09278 -3.01615 0
M  V30 1459 C 134.475 -3.11209 -4.30491 0
M  V30 1460 C 133.514 -4.33055 -4.32585 0
M  V30 1461 N 132.651 -4.32652 -5.52952 0
M  V30 1462 H 137.491 -2.64207 -1.37836 0
M  V30 1463 H 135.028 -1.30959 -0.669937 0
M  V30 1464 H 136.986 -1.86314 -3.73287 0
M  V30 1465 H 135.616 -0.916685 -3.0951 0
M  V30 1466 H 134.668 -3.14203 -2.1443 0
M  V30 1467 H 135.98 -3.99233 -2.99022 0
M  V30 1468 H 135.134 -3.14494 -5.18824 0
M  V30 1469 H 133.873 -2.19106 -4.35711 0
M  V30 1470 H 132.878 -4.29969 -3.42647 0
M  V30 1471 H 134.103 -5.264 -4.29046 0
M  V30 1472 H 132.049 -3.43409 -5.58933 0
M  V30 1473 H 131.966 -5.16392 -5.52155 0
M  V30 1474 H 133.234 -4.40101 -6.43375 0
M  V30 1475 N 137.463 0.71206 -1.40597 0
M  V30 1476 C 138.712 1.46754 -1.38369 0
M  V30 1477 C 139.025 1.95598 0.0097839 0
M  V30 1478 O 140.231 2.71059 0.154677 0
M  V30 1479 C 138.687 2.65289 -2.43207 0
M  V30 1480 C 138.295 2.23301 -3.88382 0
M  V30 1481 C 140.039 3.43008 -2.50091 0
M  V30 1482 C 137.946 3.38696 -4.84808 0
M  V30 1483 H 136.876 0.55118 -0.514506 0
M  V30 1484 H 139.527 0.774616 -1.66349 0
M  V30 1485 H 137.909 3.36769 -2.08332 0
M  V30 1486 H 139.083 1.59218 -4.32419 0
M  V30 1487 H 137.398 1.58618 -3.85006 0
M  V30 1488 H 139.995 4.28881 -3.1932 0
M  V30 1489 H 140.338 3.87065 -1.53253 0
M  V30 1490 H 140.871 2.78574 -2.83974 0
M  V30 1491 H 137.61 2.99668 -5.82992 0
M  V30 1492 H 137.13 4.01683 -4.45433 0
M  V30 1493 H 138.809 4.04712 -5.04794 0
M  V30 1494 N 138.941 1.26152 0.944643 0
M  V30 1495 C 140.19 1.10883 1.68487 0
M  V30 1496 C 140.503 -0.348153 1.92477 0
M  V30 1497 O 141.709 -0.621459 2.64292 0
M  V30 1498 C 140.165 1.93624 3.03377 0
M  V30 1499 C 139.773 3.43875 2.87148 0
M  V30 1500 C 141.517 1.86954 3.81115 0
M  V30 1501 C 139.424 4.18875 4.1749 0
M  V30 1502 H 138.354 0.41135 0.631907 0
M  V30 1503 H 141.005 1.50433 1.05082 0
M  V30 1504 H 139.387 1.46904 3.67743 0
M  V30 1505 H 140.561 3.98338 2.31653 0
M  V30 1506 H 138.876 3.51744 2.22856 0
M  V30 1507 H 141.473 2.40275 4.77673 0
M  V30 1508 H 141.816 0.839518 4.07747 0
M  V30 1509 H 142.349 2.31477 3.23517 0
M  V30 1510 H 139.088 5.22332 3.96043 0
M  V30 1511 H 138.608 3.69193 4.72712 0
M  V30 1512 H 140.287 4.27134 4.85968 0
M  V30 1513 N 140.419 -1.14872 1.07899 0
M  V30 1514 C 141.367 -2.21857 0.698727 0
M  V30 1515 C 142.361 -1.66845 -0.293086 0
M  V30 1516 O 143.567 -1.79321 -0.156204 0
M  V30 1517 H 139.942 -0.722691 0.207899 0
M  V30 1518 H 141.913 -2.51205 1.61054 0
M  V30 1519 C 140.662 -3.47498 0.11858 0
M  V30 1520 H 139.985 -3.90154 0.872914 0
M  V30 1521 H 141.425 -4.23858 -0.109759 0
M  V30 1522 C 139.884 -3.16947 -1.1422 0
M  V30 1523 O 140.414 -3.3426 -2.22785 0
M  V30 1524 N 138.62 -2.70946 -1.05055 0
M  V30 1525 H 138.167 -2.57058 -0.167038 0
M  V30 1526 H 138.125 -2.50879 -1.89491 0
M  V30 1527 N 141.898 -0.863906 -1.31812 0
M  V30 1528 C 142.808 -0.318461 -2.32428 0
M  V30 1529 C 143.824 0.568496 -1.64451 0
M  V30 1530 O 145 0.46666 -1.95919 0
M  V30 1531 C 142.065 0.476355 -3.43412 0
M  V30 1532 C 141.126 -0.43784 -4.27061 0
M  V30 1533 C 140.359 0.319138 -5.32745 0
M  V30 1534 O 140.582 1.54799 -5.48993 0
M  V30 1535 O 139.516 -0.319861 -6.01049 0
M  V30 1536 H 143.342 -1.15229 -2.80991 0
M  V30 1537 H 140.927 -0.627103 -1.35602 0
M  V30 1538 H 142.809 0.927156 -4.11074 0
M  V30 1539 H 141.484 1.28683 -2.97022 0
M  V30 1540 H 140.391 -0.937013 -3.62175 0
M  V30 1541 H 141.724 -1.21375 -4.77 0
M  V30 1542 N 143.376 1.44774 -0.622745 0
M  V30 1543 C 144.625 2.01334 -0.121397 0
M  V30 1544 C 144.938 1.49505 1.26125 0
M  V30 1545 O 146.144 1.98139 1.85616 0
M  V30 1546 C 144.6 3.59516 -0.166298 0
M  V30 1547 C 144.208 4.20342 -1.54974 0
M  V30 1548 C 145.952 4.23582 0.279021 0
M  V30 1549 C 143.859 5.70721 -1.55021 0
M  V30 1550 H 142.789 0.752851 -0.0416172 0
M  V30 1551 H 145.44 1.66083 -0.780309 0
M  V30 1552 H 143.822 3.92027 0.559557 0
M  V30 1553 H 144.996 3.99381 -2.29851 0
M  V30 1554 H 143.311 3.68529 -1.93843 0
M  V30 1555 H 145.908 5.33868 0.298083 0
M  V30 1556 H 146.251 3.95327 1.30471 0
M  V30 1557 H 146.784 3.95843 -0.394063 0
M  V30 1558 H 143.523 6.03698 -2.55399 0
M  V30 1559 H 143.043 5.93829 -0.844245 0
M  V30 1560 H 144.722 6.34203 -1.28047 0
M  V30 1561 N 144.854 0.36279 1.53368 0
M  V30 1562 C 146.079 -0.231226 2.06107 0
M  V30 1563 C 146.504 -1.419 1.23474 0
M  V30 1564 O 145.862 -1.79524 0.253128 0
M  V30 1565 C 145.91 -0.605523 3.5548 0
M  V30 1566 O 145.014 -1.70312 3.7559 0
M  V30 1567 H 144.355 -0.034327 0.663112 0
M  V30 1568 H 146.885 0.522584 1.97814 0
M  V30 1569 H 146.895 -0.877314 3.98456 0
M  V30 1570 H 145.57 0.263004 4.15068 0
M  V30 1571 H 144.147 -1.4271 3.44512 0
M  V30 1572 N 146.332 -1.57332 0.0918853 0
M  V30 1573 C 147.743 -1.81496 -0.437739 0
M  V30 1574 C 148.094 -1.00727 -1.6837 0
M  V30 1575 O 147.219 -0.235694 -2.15113 0
M  V30 1576 C 147.814 -3.29197 -0.800939 0
M  V30 1577 C 146.373 -3.54136 -1.27532 0
M  V30 1578 C 145.52 -2.75979 -0.270392 0
M  V30 1579 H 148.471 -1.55494 0.317366 0
M  V30 1580 H 148.492 -3.42344 -1.66074 0
M  V30 1581 H 148.004 -3.87955 0.106078 0
M  V30 1582 H 146.105 -3.00705 -2.20016 0
M  V30 1583 H 146.218 -4.62792 -1.23938 0
M  V30 1584 H 144.582 -2.43349 -0.751872 0
M  V30 1585 H 145.365 -3.37484 0.629248 0
M  V30 1586 N 147.81 0.181792 -1.56548 0
M  V30 1587 C 148.773 1.20894 -1.94724 0
M  V30 1588 C 149.773 1.37738 -0.829747 0
M  V30 1589 O 150.963 1.35323 -1.09697 0
M  V30 1590 C 148.095 2.57593 -2.23291 0
M  V30 1591 H 149.288 0.882275 -2.86629 0
M  V30 1592 H 146.841 0.423838 -1.50444 0
M  V30 1593 H 147.576 2.95291 -1.34067 0
M  V30 1594 H 147.361 2.46735 -3.04736 0
M  V30 1595 H 148.851 3.31637 -2.53785 0
M  V30 1596 N 149.288 1.51039 0.449983 0
M  V30 1597 C 150.251 1.70863 1.5277 0
M  V30 1598 C 151.251 0.578846 1.5002 0
M  V30 1599 O 152.441 0.846213 1.52266 0
M  V30 1600 C 149.573 1.75341 2.9235 0
M  V30 1601 H 150.766 2.67034 1.36502 0
M  V30 1602 H 148.319 1.40838 0.677812 0
M  V30 1603 H 149.054 0.809383 3.14037 0
M  V30 1604 H 148.839 2.57436 2.95752 0
M  V30 1605 H 150.329 1.92559 3.70555 0
M  V30 1606 N 150.766 -0.704594 1.40972 0
M  V30 1607 C 151.714 -1.83994 1.42299 0
M  V30 1608 C 152.708 -1.66684 0.302111 0
M  V30 1609 O 153.914 -1.73655 0.473697 0
M  V30 1610 H 150.289 -0.606171 0.44504 0
M  V30 1611 H 152.26 -1.79992 2.38003 0
M  V30 1612 C 151.009 -3.21946 1.31323 0
M  V30 1613 H 150.332 -3.35878 2.16855 0
M  V30 1614 H 151.772 -4.01491 1.36311 0
M  V30 1615 C 150.231 -3.36891 0.0245977 0
M  V30 1616 O 150.761 -3.90687 -0.934153 0
M  V30 1617 N 148.967 -2.90559 -0.0485243 0
M  V30 1618 H 148.514 -2.46968 0.732419 0
M  V30 1619 H 148.472 -3.00937 -0.910171 0
M  V30 1620 N 152.244 -1.26651 -0.937939 0
M  V30 1621 C 153.472 -1.15173 -1.7188 0
M  V30 1622 C 153.887 0.292668 -1.86518 0
M  V30 1623 O 153.244 1.20014 -1.37488 0
M  V30 1624 C 153.295 -1.81925 -3.12387 0
M  V30 1625 O 153.016 -3.2072 -2.98446 0
M  V30 1626 C 154.517 -1.76442 -4.06673 0
M  V30 1627 H 151.737 -0.400911 -0.538063 0
M  V30 1628 H 154.281 -1.67332 -1.1756 0
M  V30 1629 H 152.436 -1.33696 -3.63599 0
M  V30 1630 H 152.85 -3.53802 -3.872 0
M  V30 1631 H 154.324 -2.27781 -5.02812 0
M  V30 1632 H 154.801 -0.731608 -4.33064 0
M  V30 1633 H 155.407 -2.24238 -3.61382 0
M  V30 1634 N 153.722 1.14298 -1.08507 0
M  V30 1635 C 154.685 2.17607 -0.719711 0
M  V30 1636 C 155.685 1.58907 0.245997 0
M  V30 1637 O 156.875 1.74181 0.0254081 0
M  V30 1638 C 154.007 3.40842 -0.0627695 0
M  V30 1639 H 155.2 2.51443 -1.63452 0
M  V30 1640 H 152.753 1.28963 -0.88307 0
M  V30 1641 H 153.488 3.12587 0.863716 0
M  V30 1642 H 153.273 3.84713 -0.757504 0
M  V30 1643 H 154.763 4.17221 0.177786 0
M  V30 1644 N 155.201 0.870884 1.31352 0
M  V30 1645 C 156.131 0.343096 2.30966 0
M  V30 1646 C 157.112 -0.566507 1.60389 0
M  V30 1647 O 158.297 -0.483336 1.88089 0
M  V30 1648 C 155.427 -0.455487 3.443 0
M  V30 1649 C 154.381 0.361103 4.26474 0
M  V30 1650 C 153.707 -0.563221 5.31725 0
M  V30 1651 C 155.007 1.59566 4.97329 0
M  V30 1652 H 156.701 1.17548 2.75359 0
M  V30 1653 H 154.247 0.566686 1.32381 0
M  V30 1654 H 156.2 -0.83525 4.13039 0
M  V30 1655 H 154.924 -1.32139 2.98675 0
M  V30 1656 H 153.583 0.722825 3.59403 0
M  V30 1657 H 153.231 -1.42643 4.82351 0
M  V30 1658 H 152.931 -0.0207409 5.87596 0
M  V30 1659 H 154.455 -0.939808 6.03324 0
M  V30 1660 H 155.869 1.28728 5.58661 0
M  V30 1661 H 154.266 2.07728 5.63 0
M  V30 1662 H 155.336 2.34798 4.24262 0
M  V30 1663 N 156.679 -1.44442 0.630414 0
M  V30 1664 C 157.589 -2.34476 -0.0761693 0
M  V30 1665 C 158.605 -1.52576 -0.836449 0
M  V30 1666 O 159.781 -1.85307 -0.788874 0
M  V30 1667 C 156.846 -3.30545 -1.04599 0
M  V30 1668 C 155.907 -4.28352 -0.28516 0
M  V30 1669 C 155.14 -5.19831 -1.20878 0
M  V30 1670 O 155.363 -5.15223 -2.44747 0
M  V30 1671 O 154.297 -5.97892 -0.693491 0
M  V30 1672 H 158.123 -2.96345 0.664324 0
M  V30 1673 H 155.708 -1.44203 0.39061 0
M  V30 1674 H 157.59 -3.89681 -1.60396 0
M  V30 1675 H 156.265 -2.7121 -1.76711 0
M  V30 1676 H 155.172 -3.72764 0.315837 0
M  V30 1677 H 156.505 -4.90605 0.395924 0
M  V30 1678 N 158.157 -0.370918 -1.53173 0
M  V30 1679 C 159.405 0.216673 -2.00935 0
M  V30 1680 C 159.726 1.48845 -1.25977 0
M  V30 1681 O 158.996 1.92286 -0.374551 0
M  V30 1682 H 157.576 0.0830565 -0.742368 0
M  V30 1683 H 160.238 -0.49838 -1.8842 0
M  V30 1684 H 159.334 0.439893 -3.08984 0
M  V30 1685 N 159.635 1.57281 -0.100228 0
M  V30 1686 C 160.565 2.17328 0.853857 0
M  V30 1687 C 161.546 1.10804 1.2906 0
M  V30 1688 O 162.731 1.38963 1.35657 0
M  V30 1689 C 159.861 2.75772 2.11109 0
M  V30 1690 C 158.815 3.87713 1.81279 0
M  V30 1691 C 158.141 4.32882 3.13874 0
M  V30 1692 C 159.441 5.10677 1.09574 0
M  V30 1693 H 161.135 2.97305 0.353545 0
M  V30 1694 H 158.681 1.43009 0.168612 0
M  V30 1695 H 160.634 3.16433 2.78296 0
M  V30 1696 H 159.358 1.93057 2.63432 0
M  V30 1697 H 158.017 3.476 1.16489 0
M  V30 1698 H 157.665 3.47051 3.64095 0
M  V30 1699 H 157.365 5.08358 2.94696 0
M  V30 1700 H 158.889 4.7618 3.82211 0
M  V30 1701 H 160.303 5.48474 1.66879 0
M  V30 1702 H 158.7 5.91615 1.00557 0
M  V30 1703 H 159.77 4.84835 0.0793299 0
M  V30 1704 N 161.113 -0.173488 1.56642 0
M  V30 1705 C 162.343 -0.904781 1.85734 0
M  V30 1706 C 162.751 -1.76431 0.68328 0
M  V30 1707 O 162.094 -1.802 -0.356865 0
M  V30 1708 C 162.156 -1.83382 3.09211 0
M  V30 1709 C 161.82 -1.15411 4.42187 0
M  V30 1710 C 162.817 -0.520609 5.17287 0
M  V30 1711 C 160.502 -1.15151 4.88923 0
M  V30 1712 C 162.496 0.106412 6.37311 0
M  V30 1713 C 160.183 -0.520664 6.08878 0
M  V30 1714 C 161.181 0.107196 6.82916 0
M  V30 1715 O 160.869 0.728102 8.00596 0
M  V30 1716 H 160.601 -0.268408 0.62043 0
M  V30 1717 H 163.155 -0.179096 2.04618 0
M  V30 1718 H 161.385 -2.59976 2.86268 0
M  V30 1719 H 163.074 -2.43476 3.24768 0
M  V30 1720 H 163.84 -0.514606 4.82262 0
M  V30 1721 H 159.719 -1.62961 4.31236 0
M  V30 1722 H 163.263 0.597081 6.9504 0
M  V30 1723 H 159.16 -0.524242 6.43368 0
M  V30 1724 H 159.928 0.627138 8.16094 0
M  V30 1725 N 162.591 -1.51276 -0.441967 0
M  V30 1726 C 163.523 -1.68444 -1.55433 0
M  V30 1727 C 164.536 -0.565187 -1.52674 0
M  V30 1728 O 165.725 -0.839356 -1.57534 0
M  V30 1729 C 162.825 -1.67966 -2.94348 0
M  V30 1730 C 161.998 -2.964 -3.21661 0
M  V30 1731 C 161.057 -2.88171 -4.40277 0
M  V30 1732 O 160.083 -3.62119 -4.39157 0
M  V30 1733 N 161.285 -2.03706 -5.43584 0
M  V30 1734 H 164.05 -2.644 -1.41112 0
M  V30 1735 H 161.611 -1.49104 -0.630838 0
M  V30 1736 H 163.603 -1.60035 -3.71713 0
M  V30 1737 H 162.173 -0.796225 -3.0229 0
M  V30 1738 H 161.393 -3.18234 -2.32638 0
M  V30 1739 H 162.681 -3.81427 -3.36736 0
M  V30 1740 H 162.079 -1.42995 -5.47329 0
M  V30 1741 H 160.636 -2.01658 -6.1982 0
M  V30 1742 N 164.069 0.697108 -1.41344 0
M  V30 1743 C 165.294 1.49096 -1.44171 0
M  V30 1744 C 165.719 1.88038 -0.0481568 0
M  V30 1745 O 165.077 1.54525 0.948243 0
M  V30 1746 C 165.125 2.73088 -2.3549 0
M  V30 1747 O 164.229 3.70514 -1.81088 0
M  V30 1748 H 163.57 0.448801 -0.489361 0
M  V30 1749 H 166.1 0.856992 -1.85787 0
M  V30 1750 H 166.11 3.21413 -2.51312 0
M  V30 1751 H 164.785 2.44081 -3.36745 0
M  V30 1752 H 163.362 3.29441 -1.74708 0
M  V30 1753 N 165.547 1.27147 0.931209 0
M  V30 1754 C 166.795 1.13055 1.6752 0
M  V30 1755 C 167.116 -0.324791 1.92276 0
M  V30 1756 O 166.386 -1.22775 1.52654 0
M  V30 1757 H 164.966 0.415391 0.620854 0
M  V30 1758 H 167.628 1.59623 1.11833 0
M  V30 1759 H 166.724 1.65694 2.64485 0
M  V30 1760 N 167.025 -1.13721 1.09112 0
M  V30 1761 C 168.302 -1.81155 0.737706 0
M  V30 1762 C 168.682 -1.96253 -0.777683 0
M  V30 1763 O 168.03 -1.52807 -1.69889 0
M  V30 1764 C 168.24 -3.16392 1.47299 0
M  V30 1765 C 169.588 -3.91787 1.63671 0
M  V30 1766 O 170.612 -3.26005 1.43524 0
M  V30 1767 O 169.471 -5.0977 1.96969 0
M  V30 1768 H 166.565 -0.783518 0.26463 0
M  V30 1769 H 169.111 -1.20676 1.19312 0
M  V30 1770 H 167.883 -3.0061 2.50498 0
M  V30 1771 H 167.506 -3.8457 1.00953 0
M  V30 1772 N 168.503 -0.877838 -1.30888 0
M  V30 1773 C 169.466 -0.344265 -2.266 0
M  V30 1774 C 170.466 0.50922 -1.52524 0
M  V30 1775 O 171.656 0.317398 -1.71284 0
M  V30 1776 C 168.788 0.510198 -3.37061 0
M  V30 1777 H 169.981 -1.1893 -2.7531 0
M  V30 1778 H 167.534 -0.654088 -1.41956 0
M  V30 1779 H 168.269 1.37612 -2.93655 0
M  V30 1780 H 168.054 -0.101047 -3.9197 0
M  V30 1781 H 169.544 0.875537 -4.08319 0
M  V30 1782 N 169.982 1.44106 -0.638065 0
M  V30 1783 C 170.912 2.33448 0.0494287 0
M  V30 1784 C 171.893 1.48606 0.827672 0
M  V30 1785 O 173.078 1.77308 0.792173 0
M  V30 1786 C 170.208 3.31771 1.02691 0
M  V30 1787 C 169.162 4.26485 0.359823 0
M  V30 1788 C 168.488 5.14729 1.44769 0
M  V30 1789 C 169.788 5.17056 -0.738296 0
M  V30 1790 H 171.482 2.91183 -0.696636 0
M  V30 1791 H 169.028 1.40014 -0.336456 0
M  V30 1792 H 170.981 3.93161 1.51666 0
M  V30 1793 H 169.705 2.7226 1.80395 0
M  V30 1794 H 168.364 3.66437 -0.10934 0
M  V30 1795 H 168.012 4.51566 2.21578 0
M  V30 1796 H 167.712 5.78913 1.00668 0
M  V30 1797 H 169.236 5.78991 1.93911 0
M  V30 1798 H 170.65 5.72342 -0.331354 0
M  V30 1799 H 169.047 5.89879 -1.10286 0
M  V30 1800 H 170.117 4.57652 -1.60258 0
M  V30 1801 N 171.46 0.379036 1.52974 0
M  V30 1802 C 172.7 -0.206325 2.03356 0
M  V30 1803 C 173.064 -1.44892 1.25977 0
M  V30 1804 O 174.265 -2.11078 1.66432 0
M  V30 1805 C 172.536 -0.477887 3.54191 0
M  V30 1806 S 174.095 -1.035 4.26419 0
M  V30 1807 H 170.913 -0.0590259 0.708546 0
M  V30 1808 H 173.515 0.525013 1.88319 0
M  V30 1809 H 172.219 0.433745 4.08101 0
M  V30 1810 H 171.75 -1.23793 3.73415 0
M  V30 1811 H 173.765 -2.31821 4.38718 0
M  V30 1812 N 172.938 -1.57226 0.108567 0
M  V30 1813 C 174.166 -1.99179 -0.559954 0
M  V30 1814 C 174.581 -0.988022 -1.60884 0
M  V30 1815 O 173.938 0.0205512 -1.82488 0
M  V30 1816 C 173.989 -3.41159 -1.19552 0
M  V30 1817 O 173.71 -4.37694 -0.188577 0
M  V30 1818 C 175.211 -3.98188 -1.94837 0
M  V30 1819 H 172.431 -0.654228 -0.149088 0
M  V30 1820 H 174.975 -2.03598 0.19183 0
M  V30 1821 H 173.13 -3.37711 -1.89815 0
M  V30 1822 H 173.544 -5.20469 -0.649014 0
M  V30 1823 H 175.018 -4.99644 -2.34648 0
M  V30 1824 H 175.495 -3.3675 -2.81951 0
M  V30 1825 H 176.101 -4.0515 -1.2936 0
M  V30 1826 N 174.416 0.165178 -1.56732 0
M  V30 1827 C 175.348 1.22911 -1.93457 0
M  V30 1828 C 176.361 1.40152 -0.828333 0
M  V30 1829 O 177.55 1.40046 -1.10677 0
M  V30 1830 C 174.65 2.59686 -2.17753 0
M  V30 1831 C 173.823 2.63663 -3.48999 0
M  V30 1832 C 172.882 3.81845 -3.62051 0
M  V30 1833 O 171.908 3.67559 -4.34613 0
M  V30 1834 N 173.11 4.98557 -2.97357 0
M  V30 1835 H 175.875 0.917118 -2.85323 0
M  V30 1836 H 173.436 0.354895 -1.57962 0
M  V30 1837 H 175.428 3.37225 -2.23743 0
M  V30 1838 H 173.998 2.83251 -1.32242 0
M  V30 1839 H 173.218 1.72173 -3.54612 0
M  V30 1840 H 174.506 2.63336 -4.35352 0
M  V30 1841 H 173.904 5.13065 -2.38287 0
M  V30 1842 H 172.461 5.73936 -3.08934 0
M  V30 1843 N 175.894 1.51508 0.433938 0
M  V30 1844 C 177.134 1.66006 1.19253 0
M  V30 1845 C 177.498 0.369868 1.88404 0
M  V30 1846 O 178.699 0.39066 2.65946 0
M  V30 1847 C 176.97 2.83229 2.17981 0
M  V30 1848 S 178.529 3.18075 3.02281 0
M  V30 1849 H 175.347 0.584821 0.404358 0
M  V30 1850 H 177.949 1.89425 0.48357 0
M  V30 1851 H 176.653 3.75407 1.65824 0
M  V30 1852 H 176.184 2.6201 2.93453 0
M  V30 1853 H 178.199 2.64772 4.19655 0
M  V30 1854 N 177.372 -0.689602 1.41712 0
M  V30 1855 C 178.282 -1.83314 1.46401 0
M  V30 1856 C 179.298 -1.7036 0.35405 0
M  V30 1857 O 180.474 -1.92171 0.602692 0
M  V30 1858 C 177.539 -3.19344 1.34982 0
M  V30 1859 C 176.6 -3.44363 2.56344 0
M  V30 1860 C 175.833 -4.73904 2.45461 0
M  V30 1861 O 176.056 -5.508 1.48241 0
M  V30 1862 O 174.99 -4.99839 3.35328 0
M  V30 1863 H 178.816 -1.82314 2.42889 0
M  V30 1864 H 176.401 -0.843438 1.23315 0
M  V30 1865 H 178.283 -4.00547 1.3092 0
M  V30 1866 H 176.958 -3.21014 0.41612 0
M  V30 1867 H 175.865 -2.63067 2.65982 0
M  V30 1868 H 177.198 -3.47512 3.48563 0
M  V30 1869 N 178.85 -1.27639 -0.924453 0
M  V30 1870 C 179.813 -1.10681 -2.00705 0
M  V30 1871 C 180.813 -0.0497823 -1.60723 0
M  V30 1872 O 182.003 -0.294654 -1.7169 0
M  V30 1873 C 179.135 -0.687164 -3.33902 0
M  V30 1874 H 180.328 -2.06817 -2.17179 0
M  V30 1875 H 177.881 -1.10473 -1.10569 0
M  V30 1876 H 178.616 0.275439 -3.23128 0
M  V30 1877 H 178.401 -1.45061 -3.6428 0
M  V30 1878 H 179.891 -0.590853 -4.13399 0
M  V30 1879 N 180.328 1.1314 -1.09713 0
M  V30 1880 C 181.238 2.22242 -0.751367 0
M  V30 1881 C 182.254 1.72224 0.247938 0
M  V30 1882 O 183.43 2.01205 0.0885463 0
M  V30 1883 C 180.495 3.46231 -0.180274 0
M  V30 1884 C 179.556 4.11125 -1.2359 0
M  V30 1885 C 178.789 5.29195 -0.691966 0
M  V30 1886 O 179.012 5.68342 0.48414 0
M  V30 1887 O 177.946 5.84214 -1.44838 0
M  V30 1888 H 181.772 2.54197 -1.66186 0
M  V30 1889 H 179.357 1.21331 -0.871735 0
M  V30 1890 H 181.239 4.21185 0.134739 0
M  V30 1891 H 179.914 3.1597 0.703185 0
M  V30 1892 H 178.821 3.37985 -1.60366 0
M  V30 1893 H 180.154 4.45524 -2.09211 0
M  V30 1894 N 181.806 0.884767 1.30421 0
M  V30 1895 C 183.054 0.502112 1.95763 0
M  V30 1896 C 183.375 -0.951815 1.70192 0
M  V30 1897 O 182.645 -1.6692 1.0254 0
M  V30 1898 H 181.225 0.182694 0.724315 0
M  V30 1899 H 183.887 1.1278 1.58955 0
M  V30 1900 H 182.983 0.672188 3.04775 0
M  V30 1901 N 183.284 -1.43765 0.645699 0
M  V30 1902 C 184.531 -2.01898 0.15604 0
M  V30 1903 C 184.859 -1.50887 -1.22733 0
M  V30 1904 O 184.114 -0.689271 -1.8316 0
M  V30 1905 C 184.413 -3.57238 0.107679 0
M  V30 1906 C 184.079 -4.27564 1.43178 0
M  V30 1907 C 182.741 -4.46492 1.7944 0
M  V30 1908 C 185.093 -4.67454 2.30513 0
M  V30 1909 C 182.421 -5.02573 3.02716 0
M  V30 1910 C 184.773 -5.24901 3.53074 0
M  V30 1911 C 183.437 -5.42046 3.89541 0
M  V30 1912 H 182.707 -0.738797 0.057099 0
M  V30 1913 H 185.354 -1.72341 0.834912 0
M  V30 1914 H 183.659 -3.86293 -0.654618 0
M  V30 1915 H 185.356 -3.99965 -0.287938 0
M  V30 1916 H 181.946 -4.13171 1.13963 0
M  V30 1917 H 186.13 -4.5253 2.0379 0
M  V30 1918 H 181.386 -5.14033 3.31028 0
M  V30 1919 H 185.56 -5.54758 4.20971 0
M  V30 1920 H 183.187 -5.85268 4.85145 0
M  V30 1921 N 184.763 -0.387143 -1.52771 0
M  V30 1922 C 186.179 -0.037007 -1.59557 0
M  V30 1923 C 186.379 1.44801 -1.40124 0
M  V30 1924 O 185.435 2.21227 -1.21716 0
M  V30 1925 C 186.748 -0.512256 -2.96305 0
M  V30 1926 C 188.296 -0.468328 -3.09476 0
M  V30 1927 C 188.771 -0.919731 -4.4867 0
M  V30 1928 N 190.262 -0.875656 -4.54848 0
M  V30 1929 C 190.997 -1.19637 -5.6078 0
M  V30 1930 N 190.493 -1.58745 -6.74368 0
M  V30 1931 N 192.286 -1.11776 -5.50874 0
M  V30 1932 H 184.437 -1.35395 -1.63652 0
M  V30 1933 H 186.7 -0.554818 -0.768688 0
M  V30 1934 H 186.406 -1.54935 -3.15734 0
M  V30 1935 H 186.28 0.089805 -3.77093 0
M  V30 1936 H 188.667 0.559671 -2.89744 0
M  V30 1937 H 188.748 -1.10616 -2.30646 0
M  V30 1938 H 188.392 -1.94595 -4.69143 0
M  V30 1939 H 188.322 -0.258927 -5.25963 0
M  V30 1940 H 190.813 -0.587843 -3.733 0
M  V30 1941 H 191.126 -1.81586 -7.51163 0
M  V30 1942 H 189.471 -1.6263 -6.75705 0
M  V30 1943 H 192.662 -0.811264 -4.61016 0
M  V30 1944 H 192.835 -1.37103 -6.3333 0
M  V30 1945 N 186.241 1.57166 -0.116904 0
M  V30 1946 C 187.191 2.11756 0.845178 0
M  V30 1947 C 188.175 1.03783 1.22955 0
M  V30 1948 O 189.367 1.3002 1.20099 0
M  V30 1949 C 186.496 2.71886 2.09602 0
M  V30 1950 C 185.582 3.86937 1.7361 0
M  V30 1951 N 185.973 4.94073 1.08284 0
M  V30 1952 C 184.271 3.97082 2.03082 0
M  V30 1953 C 184.972 5.74477 0.913855 0
M  V30 1954 N 183.948 5.2423 1.43818 0
M  V30 1955 H 187.75 2.91967 0.336523 0
M  V30 1956 H 185.264 1.62174 0.0856332 0
M  V30 1957 H 187.261 3.09338 2.79492 0
M  V30 1958 H 185.921 1.93138 2.61013 0
M  V30 1959 H 186.932 5.12483 0.747067 0
M  V30 1960 H 183.609 3.29372 2.56554 0
M  V30 1961 H 184.999 6.70701 0.40125 0
M  V30 1962 N 187.719 -0.156864 1.56817 0
M  V30 1963 C 188.968 -0.869504 1.81996 0
M  V30 1964 C 189.281 -1.82777 0.696545 0
M  V30 1965 O 190.487 -2.58384 0.833658 0
M  V30 1966 C 188.943 -1.59679 3.22538 0
M  V30 1967 C 188.551 -0.681431 4.42787 0
M  V30 1968 C 190.295 -2.2968 3.56997 0
M  V30 1969 C 188.202 -1.40978 5.74351 0
M  V30 1970 H 187.132 -0.328438 0.678708 0
M  V30 1971 H 189.783 -0.1223 1.83092 0
M  V30 1972 H 188.165 -2.38927 3.158 0
M  V30 1973 H 189.339 0.0751166 4.60739 0
M  V30 1974 H 187.654 -0.0903431 4.16302 0
M  V30 1975 H 190.251 -2.84794 4.52544 0
M  V30 1976 H 190.594 -3.05707 2.82576 0
M  V30 1977 H 191.127 -1.57361 3.65352 0
M  V30 1978 H 187.866 -0.691561 6.51842 0
M  V30 1979 H 187.386 -2.13929 5.60352 0
M  V30 1980 H 189.065 -1.95337 6.16808 0
M  V30 1981 N 189.197 -1.51736 -0.425897 0
M  V30 1982 C 190.425 -1.68794 -1.1965 0
M  V30 1983 C 190.84 -0.390164 -1.84725 0
M  V30 1984 O 190.197 0.632376 -1.71194 0
M  V30 1985 C 190.248 -2.81174 -2.27208 0
M  V30 1986 O 189.969 -4.05925 -1.64793 0
M  V30 1987 C 191.47 -3.09599 -3.17275 0
M  V30 1988 H 188.69 -0.566128 -0.360194 0
M  V30 1989 H 191.234 -1.98211 -0.503249 0
M  V30 1990 H 189.389 -2.54324 -2.9223 0
M  V30 1991 H 189.803 -4.68423 -2.35967 0
M  V30 1992 H 191.277 -3.91786 -3.88854 0
M  V30 1993 H 191.754 -2.22468 -3.78688 0
M  V30 1994 H 192.36 -3.38151 -2.57941 0
M  V30 1995 N 190.675 0.682077 -1.42076 0
M  V30 1996 C 191.905 1.46844 -1.45329 0
M  V30 1997 C 192.313 1.89102 -0.0609328 0
M  V30 1998 O 191.656 1.58238 0.933082 0
M  V30 1999 C 191.718 2.75375 -2.31104 0
M  V30 2000 C 191.382 2.55238 -3.79081 0
M  V30 2001 C 192.379 2.20309 -4.70914 0
M  V30 2002 C 190.064 2.70459 -4.2327 0
M  V30 2003 C 192.058 2.00859 -6.04925 0
M  V30 2004 C 189.745 2.50624 -5.57343 0
M  V30 2005 C 190.743 2.15876 -6.47986 0
M  V30 2006 O 190.431 1.96227 -7.79583 0
M  V30 2007 H 190.163 0.4586 -0.496651 0
M  V30 2008 H 192.717 0.846131 -1.87162 0
M  V30 2009 H 190.947 3.40061 -1.84107 0
M  V30 2010 H 192.636 3.37231 -2.25898 0
M  V30 2011 H 193.402 2.08153 -4.38061 0
M  V30 2012 H 189.281 2.96485 -3.53012 0
M  V30 2013 H 192.825 1.7366 -6.75639 0
M  V30 2014 H 188.722 2.62375 -5.89771 0
M  V30 2015 H 189.49 2.10883 -7.90867 0
M  V30 2016 N 192.153 1.28127 0.917671 0
M  V30 2017 C 193.383 1.17722 1.6978 0
M  V30 2018 C 193.791 -0.267261 1.87303 0
M  V30 2019 O 193.134 -1.19286 1.39702 0
M  V30 2020 C 193.196 1.79958 3.11216 0
M  V30 2021 C 192.86 3.29187 3.16993 0
M  V30 2022 C 193.857 4.25679 2.98485 0
M  V30 2023 C 191.542 3.70075 3.39632 0
M  V30 2024 C 193.536 5.61035 3.02521 0
M  V30 2025 C 191.223 5.05557 3.433 0
M  V30 2026 C 192.221 6.00847 3.24764 0
M  V30 2027 O 191.909 7.33859 3.28187 0
M  V30 2028 H 191.641 0.409788 0.537634 0
M  V30 2029 H 194.195 1.69694 1.15728 0
M  V30 2030 H 192.425 1.22475 3.66793 0
M  V30 2031 H 194.114 1.64125 3.71238 0
M  V30 2032 H 194.88 3.95426 2.80826 0
M  V30 2033 H 190.759 2.96373 3.53106 0
M  V30 2034 H 194.303 6.35388 2.87971 0
M  V30 2035 H 190.2 5.35462 3.60486 0
M  V30 2036 H 190.968 7.42436 3.44575 0
M  V30 2037 N 193.631 -1.12557 1.10312 0
M  V30 2038 C 194.561 -2.20341 0.772798 0
M  V30 2039 C 195.542 -1.68198 -0.25365 0
M  V30 2040 O 196.727 -1.93831 -0.119699 0
M  V30 2041 C 193.857 -3.46709 0.202443 0
M  V30 2042 C 192.811 -4.11996 1.15943 0
M  V30 2043 C 192.137 -5.328 0.450345 0
M  V30 2044 C 193.437 -4.5828 2.50552 0
M  V30 2045 H 195.131 -2.48229 1.674 0
M  V30 2046 H 192.677 -1.19308 0.806326 0
M  V30 2047 H 194.63 -4.2138 -0.0407752 0
M  V30 2048 H 193.354 -3.18245 -0.734001 0
M  V30 2049 H 192.013 -3.39305 1.38808 0
M  V30 2050 H 191.661 -5.00602 -0.490531 0
M  V30 2051 H 191.361 -5.7743 1.08851 0
M  V30 2052 H 192.885 -6.10219 0.215642 0
M  V30 2053 H 194.299 -5.2433 2.31843 0
M  V30 2054 H 192.696 -5.13683 3.10242 0
M  V30 2055 H 193.766 -3.72329 3.10643 0
M  V30 2056 N 195.109 -0.891671 -1.2995 0
M  V30 2057 C 196.386 -0.433307 -1.9074 0
M  V30 2058 C 196.766 1.08646 -1.80995 0
M  V30 2059 O 196.114 1.92476 -1.23147 0
M  V30 2060 C 196.324 -0.938895 -3.36134 0
M  V30 2061 C 197.672 -0.977829 -4.13187 0
M  V30 2062 O 198.696 -0.886015 -3.45005 0
M  V30 2063 O 197.555 -1.11453 -5.35015 0
M  V30 2064 H 194.649 -0.133699 -0.816121 0
M  V30 2065 H 197.195 -0.981011 -1.38471 0
M  V30 2066 H 195.967 -1.98281 -3.37343 0
M  V30 2067 H 195.59 -0.37074 -3.95868 0
M  V30 2068 N 196.587 1.43421 -0.653314 0
M  V30 2069 C 198.003 1.56341 -0.320886 0
M  V30 2070 C 198.203 1.63696 1.17499 0
M  V30 2071 O 197.259 1.59208 1.95982 0
M  V30 2072 C 198.572 2.82424 -1.03233 0
M  V30 2073 C 200.12 2.96168 -1.01259 0
M  V30 2074 C 200.595 4.25084 -1.70492 0
M  V30 2075 N 202.086 4.31948 -1.67257 0
M  V30 2076 C 202.821 5.30466 -2.17701 0
M  V30 2077 N 202.317 6.35261 -2.76434 0
M  V30 2078 N 204.11 5.2212 -2.082 0
M  V30 2079 H 196.261 1.3689 -1.62403 0
M  V30 2080 H 198.524 0.657455 -0.682977 0
M  V30 2081 H 198.23 2.83053 -2.08744 0
M  V30 2082 H 198.104 3.72653 -0.583948 0
M  V30 2083 H 200.491 2.9508 0.0341235 0
M  V30 2084 H 200.572 2.07229 -1.49966 0
M  V30 2085 H 200.216 4.26932 -2.7512 0
M  V30 2086 H 200.146 5.1292 -1.19251 0
M  V30 2087 H 202.637 3.56838 -1.24398 0
M  V30 2088 H 202.95 7.06754 -3.12601 0
M  V30 2089 H 201.295 6.35884 -2.80495 0
M  V30 2090 H 204.486 4.39166 -1.62021 0
M  V30 2091 H 204.659 5.98739 -2.47822 0
M  V30 2092 N 198.065 0.39524 1.52563 0
M  V30 2093 C 199.476 -0.0774719 1.86539 0
M  V30 2094 C 199.827 -1.45641 1.31466 0
M  V30 2095 O 198.952 -2.06459 0.648367 0
M  V30 2096 C 199.547 -0.147356 3.38479 0
M  V30 2097 C 198.106 -0.564373 3.72145 0
M  V30 2098 C 197.253 0.269919 2.75983 0
M  V30 2099 H 200.204 0.612876 1.46388 0
M  V30 2100 H 200.225 -0.965343 3.68051 0
M  V30 2101 H 199.737 0.856387 3.78534 0
M  V30 2102 H 197.838 -1.57527 3.37663 0
M  V30 2103 H 197.951 -0.318402 4.78041 0
M  V30 2104 H 196.315 -0.265696 2.5331 0
M  V30 2105 H 197.098 1.27175 3.18875 0
M  V30 2106 N 199.544 -1.57102 0.125237 0
M  V30 2107 C 200.821 -1.86953 -0.575142 0
M  V30 2108 C 201.201 -1.02749 -1.84407 0
M  V30 2109 O 200.549 -0.108144 -2.28244 0
M  V30 2110 C 200.759 -3.38198 -0.861583 0
M  V30 2111 C 202.107 -4.06937 -1.21192 0
M  V30 2112 O 203.131 -3.43252 -0.951645 0
M  V30 2113 O 201.99 -5.19364 -1.70068 0
M  V30 2114 H 199.084 -0.774147 -0.290906 0
M  V30 2115 H 201.63 -1.68942 0.160211 0
M  V30 2116 H 200.402 -3.91282 0.0373647 0
M  V30 2117 H 200.025 -3.61661 -1.65188 0
M  V30 2118 N 201.022 0.148545 -1.56898 0
M  V30 2119 C 202.268 0.862694 -1.83536 0
M  V30 2120 C 202.601 1.80889 -0.706604 0
M  V30 2121 O 201.876 1.92328 0.289885 0
M  V30 2122 C 202.159 1.63853 -3.20662 0
M  V30 2123 C 202.012 0.713925 -4.44098 0
M  V30 2124 C 203.331 2.60133 -3.54991 0
M  V30 2125 H 200.45 0.312179 -0.667618 0
M  V30 2126 H 203.092 0.127953 -1.89569 0
M  V30 2127 H 201.242 2.26489 -3.1565 0
M  V30 2128 H 202.914 0.098686 -4.61194 0
M  V30 2129 H 201.157 0.0234019 -4.33794 0
M  V30 2130 H 201.828 1.29278 -5.36648 0
M  V30 2131 H 204.304 2.07616 -3.60603 0
M  V30 2132 H 203.18 3.11468 -4.51972 0
M  V30 2133 H 203.441 3.41417 -2.80868 0
M  V30 2134 N 202.5 1.5196 0.417844 0
M  V30 2135 C 203.43 1.77634 1.51554 0
M  V30 2136 C 204.411 0.626918 1.58126 0
M  V30 2137 O 205.596 0.871632 1.7354 0
M  V30 2138 C 202.726 1.91911 2.8946 0
M  V30 2139 C 201.68 3.07463 2.97743 0
M  V30 2140 C 201.006 3.06951 4.37819 0
M  V30 2141 C 202.306 4.47082 2.70027 0
M  V30 2142 H 204 2.6955 1.3032 0
M  V30 2143 H 201.546 1.29706 0.625492 0
M  V30 2144 H 203.499 2.08455 3.6623 0
M  V30 2145 H 202.223 0.966598 3.11969 0
M  V30 2146 H 200.882 2.90656 2.23416 0
M  V30 2147 H 200.53 2.09438 4.57323 0
M  V30 2148 H 200.23 3.84556 4.44286 0
M  V30 2149 H 201.754 3.25613 5.16535 0
M  V30 2150 H 203.168 4.6414 3.36522 0
M  V30 2151 H 201.565 5.2654 2.87881 0
M  V30 2152 H 202.635 4.55777 1.65514 0
M  V30 2153 N 203.978 -0.674533 1.42435 0
M  V30 2154 C 204.941 -1.76986 1.45632 0
M  V30 2155 C 205.941 -1.5708 0.343871 0
M  V30 2156 O 207.131 -1.63367 0.604709 0
M  V30 2157 C 204.263 -3.15623 1.28822 0
M  V30 2158 H 205.456 -1.75539 2.43158 0
M  V30 2159 H 203.009 -0.884189 1.28887 0
M  V30 2160 H 203.744 -3.22696 0.322193 0
M  V30 2161 H 203.529 -3.31475 2.09444 0
M  V30 2162 H 205.019 -3.95537 1.33942 0
M  V30 2163 N 205.456 -1.28612 -0.910864 0
M  V30 2164 C 206.872 -1.06381 -1.18976 0
M  V30 2165 C 207.072 0.191998 -2.00583 0
M  V30 2166 O 206.128 0.892869 -2.36187 0
M  V30 2167 C 207.441 -2.31295 -1.92154 0
M  V30 2168 C 208.989 -2.36503 -2.05025 0
M  V30 2169 C 209.464 -3.61191 -2.81612 0
M  V30 2170 N 210.955 -3.61847 -2.89172 0
M  V30 2171 C 211.69 -4.55004 -3.4894 0
M  V30 2172 N 211.186 -5.58482 -4.09963 0
M  V30 2173 N 212.979 -4.42594 -3.46506 0
M  V30 2174 H 205.13 -2.09221 -0.366094 0
M  V30 2175 H 207.393 -0.921003 -0.224629 0
M  V30 2176 H 207.099 -3.228 -1.39618 0
M  V30 2177 H 206.973 -2.37934 -2.9269 0
M  V30 2178 H 209.36 -1.45494 -2.5674 0
M  V30 2179 H 209.441 -2.33857 -1.03657 0
M  V30 2180 H 209.085 -4.52545 -2.30576 0
M  V30 2181 H 209.015 -3.61092 -3.83302 0
M  V30 2182 H 211.506 -2.87022 -2.45819 0
M  V30 2183 H 211.819 -6.25704 -4.53557 0
M  V30 2184 H 210.164 -5.62305 -4.08459 0
M  V30 2185 H 213.355 -3.60953 -2.98045 0
M  V30 2186 H 213.528 -5.15381 -3.92793 0
M  V30 2187 N 206.934 1.1197 -1.10907 0
M  V30 2188 C 208.181 1.83588 -0.854507 0
M  V30 2189 C 208.509 1.84357 0.6199 0
M  V30 2190 O 207.764 1.28809 1.47332 0
M  V30 2191 C 208.063 3.30749 -1.35425 0
M  V30 2192 C 207.729 3.50146 -2.84093 0
M  V30 2193 C 206.391 3.55148 -3.2469 0
M  V30 2194 C 208.743 3.56857 -3.79872 0
M  V30 2195 C 206.071 3.6441 -4.59806 0
M  V30 2196 C 208.423 3.6765 -5.14797 0
M  V30 2197 C 207.087 3.7091 -5.54961 0
M  V30 2198 H 206.357 0.671795 -0.312686 0
M  V30 2199 H 209.004 1.32091 -1.38652 0
M  V30 2200 H 207.309 3.84703 -0.742361 0
M  V30 2201 H 209.006 3.8464 -1.1337 0
M  V30 2202 H 205.596 3.46919 -2.51685 0
M  V30 2203 H 209.78 3.52258 -3.49611 0
M  V30 2204 H 205.036 3.65208 -4.9034 0
M  V30 2205 H 209.21 3.71786 -5.88853 0
M  V30 2206 H 206.837 3.7784 -6.59652 0
M  V30 2207 N 208.412 0.89855 1.29475 0
M  V30 2208 C 209.64 0.539261 1.99749 0
M  V30 2209 C 210.055 -0.875716 1.67262 0
M  V30 2210 O 209.412 -1.57786 0.917049 0
M  V30 2211 C 209.463 0.72061 3.54245 0
M  V30 2212 O 209.184 2.07989 3.8558 0
M  V30 2213 C 210.685 0.366118 4.41786 0
M  V30 2214 H 207.905 0.207047 0.638258 0
M  V30 2215 H 210.449 1.20758 1.65039 0
M  V30 2216 H 208.604 0.0994862 3.87272 0
M  V30 2217 H 209.018 2.10841 4.80257 0
M  V30 2218 H 210.492 0.543848 5.49314 0
M  V30 2219 H 210.969 -0.696763 4.33638 0
M  V30 2220 H 211.575 0.964135 4.14228 0
M  V30 2221 N 209.89 -1.43072 0.660911 0
M  V30 2222 C 211.118 -2.06067 0.185422 0
M  V30 2223 C 211.533 -1.49582 -1.15198 0
M  V30 2224 O 210.89 -0.630134 -1.71276 0
M  V30 2225 C 210.941 -3.61371 0.0966523 0
M  V30 2226 O 210.662 -4.15758 1.38119 0
M  V30 2227 C 212.163 -4.41455 -0.403996 0
M  V30 2228 H 209.383 -0.664459 0.0934604 0
M  V30 2229 H 211.927 -1.83447 0.90373 0
M  V30 2230 H 210.082 -3.8315 -0.572259 0
M  V30 2231 H 210.496 -5.09499 1.24542 0
M  V30 2232 H 211.97 -5.50437 -0.415045 0
M  V30 2233 H 212.447 -4.15036 -1.43674 0
M  V30 2234 H 213.053 -4.24663 0.232691 0
M  V30 2235 N 211.368 -0.403325 -1.52352 0
M  V30 2236 C 212.315 0.425011 -2.26853 0
M  V30 2237 C 213.285 1.04598 -1.29029 0
M  V30 2238 O 214.47 1.07135 -1.57882 0
M  V30 2239 C 211.61 1.53888 -3.08889 0
M  V30 2240 C 210.723 0.939396 -4.21663 0
M  V30 2241 C 209.858 2.02547 -4.91068 0
M  V30 2242 C 208.897 1.40263 -5.95813 0
M  V30 2243 N 208.034 2.4286 -6.58759 0
M  V30 2244 H 212.874 -0.21674 -2.97211 0
M  V30 2245 H 210.411 -0.118722 -1.4662 0
M  V30 2246 H 212.369 2.19558 -3.54753 0
M  V30 2247 H 210.999 2.15074 -2.40714 0
M  V30 2248 H 210.051 0.171898 -3.80011 0
M  V30 2249 H 211.363 0.44436 -4.96817 0
M  V30 2250 H 210.517 2.75958 -5.40308 0
M  V30 2251 H 209.256 2.55415 -4.15469 0
M  V30 2252 H 208.261 0.653833 -5.45898 0
M  V30 2253 H 209.486 0.881719 -6.73352 0
M  V30 2254 H 207.432 2.94871 -5.85992 0
M  V30 2255 H 207.349 1.98152 -7.2957 0
M  V30 2256 H 208.617 3.15858 -7.12639 0
M  V30 2257 N 212.846 1.57033 -0.133567 0
M  V30 2258 C 214.095 1.94861 0.520768 0
M  V30 2259 C 214.408 1.02012 1.66892 0
M  V30 2260 O 215.614 1.29365 2.38699 0
M  V30 2261 C 214.07 3.46362 0.977809 0
M  V30 2262 C 213.678 4.47773 -0.142674 0
M  V30 2263 C 215.422 3.93083 1.60269 0
M  V30 2264 C 213.329 5.90468 0.331883 0
M  V30 2265 H 212.259 0.727453 0.198315 0
M  V30 2266 H 214.91 1.82227 -0.215759 0
M  V30 2267 H 213.292 3.54282 1.7692 0
M  V30 2268 H 214.466 4.51536 -0.919317 0
M  V30 2269 H 212.781 4.10891 -0.675124 0
M  V30 2270 H 215.378 4.97121 1.96914 0
M  V30 2271 H 215.721 3.33876 2.48662 0
M  V30 2272 H 216.254 3.88025 0.876453 0
M  V30 2273 H 212.993 6.53463 -0.516341 0
M  V30 2274 H 212.513 5.90094 1.07469 0
M  V30 2275 H 214.192 6.42179 0.788332 0
M  V30 2276 N 214.325 -0.140222 1.56975 0
M  V30 2277 C 215.574 -0.850152 1.82908 0
M  V30 2278 C 215.887 -1.82028 0.715892 0
M  V30 2279 O 217.093 -2.57485 0.861016 0
M  V30 2280 C 215.549 -1.5625 3.24213 0
M  V30 2281 C 215.157 -0.63443 4.43485 0
M  V30 2282 C 216.901 -2.25881 3.59413 0
M  V30 2283 C 214.808 -1.34879 5.75814 0
M  V30 2284 H 213.738 -0.321221 0.682153 0
M  V30 2285 H 216.389 -0.102874 1.83211 0
M  V30 2286 H 214.771 -2.35565 3.18316 0
M  V30 2287 H 215.945 0.12398 4.60633 0
M  V30 2288 H 214.26 -0.0461836 4.16374 0
M  V30 2289 H 216.857 -2.79978 4.5554 0
M  V30 2290 H 217.2 -3.02693 2.85802 0
M  V30 2291 H 217.733 -1.53477 3.67001 0
M  V30 2292 H 214.472 -0.622385 6.52539 0
M  V30 2293 H 213.992 -2.07974 5.6259 0
M  V30 2294 H 215.671 -1.88784 6.18845 0
M  V30 2295 N 215.803 -1.52179 -0.40978 0
M  V30 2296 C 216.766 -1.74853 -1.48186 0
M  V30 2297 C 217.766 -0.618417 -1.48433 0
M  V30 2298 O 218.956 -0.886286 -1.49969 0
M  V30 2299 C 216.088 -1.8303 -2.87598 0
M  V30 2300 H 217.281 -2.70559 -1.29374 0
M  V30 2301 H 214.834 -1.42586 -0.640233 0
M  V30 2302 H 215.569 -0.89236 -3.11781 0
M  V30 2303 H 215.354 -2.65187 -2.88822 0
M  V30 2304 H 216.844 -2.02316 -3.65319 0
M  V30 2305 N 217.281 0.66697 -1.42791 0
M  V30 2306 C 218.558 1.4234 -1.34159 0
M  V30 2307 C 218.938 2.11093 0.0172729 0
M  V30 2308 O 218.286 2.03808 1.03318 0
M  V30 2309 C 218.496 2.41942 -2.51526 0
M  V30 2310 C 219.844 3.06353 -2.93995 0
M  V30 2311 O 220.868 2.52269 -2.51473 0
M  V30 2312 O 219.727 4.04376 -3.67617 0
M  V30 2313 H 216.821 0.635277 -0.529483 0
M  V30 2314 H 219.367 0.695034 -1.54814 0
M  V30 2315 H 218.139 1.89991 -3.42081 0
M  V30 2316 H 217.762 3.22249 -2.32898 0
M  V30 2317 N 218.759 1.29093 0.90403 0
M  V30 2318 C 219.706 1.13853 2.00764 0
M  V30 2319 C 220.676 0.0330084 1.66067 0
M  V30 2320 O 221.861 0.199733 1.89752 0
M  V30 2321 C 219.001 0.816537 3.35301 0
M  V30 2322 C 218.114 2.00206 3.82807 0
M  V30 2323 C 217.249 1.61983 5.059 0
M  V30 2324 C 216.288 2.77143 5.45764 0
M  V30 2325 N 215.425 2.39346 6.60044 0
M  V30 2326 H 220.265 2.08276 2.13132 0
M  V30 2327 H 217.802 1.03648 1.04381 0
M  V30 2328 H 219.76 0.610557 4.12708 0
M  V30 2329 H 218.39 -0.090779 3.22672 0
M  V30 2330 H 217.442 2.31988 3.01473 0
M  V30 2331 H 218.754 2.86512 4.08304 0
M  V30 2332 H 217.908 1.37649 5.90879 0
M  V30 2333 H 216.647 0.728202 4.82233 0
M  V30 2334 H 215.652 3.02165 4.59322 0
M  V30 2335 H 216.877 3.66964 5.71414 0
M  V30 2336 H 214.823 1.52665 6.37989 0
M  V30 2337 H 214.74 3.19185 6.85315 0
M  V30 2338 H 216.008 2.1832 7.48303 0
M  V30 2339 N 220.237 -1.11381 1.11499 0
M  V30 2340 C 221.486 -1.82494 0.858993 0
M  V30 2341 C 221.799 -1.85605 -0.617278 0
M  V30 2342 O 223.005 -2.52824 -0.989552 0
M  V30 2343 C 221.461 -3.27745 1.48699 0
M  V30 2344 C 221.069 -3.32961 2.99735 0
M  V30 2345 C 222.813 -4.03754 1.31085 0
M  V30 2346 C 220.72 -4.72612 3.55516 0
M  V30 2347 H 219.65 -0.683802 0.317696 0
M  V30 2348 H 222.301 -1.25331 1.34031 0
M  V30 2349 H 220.683 -3.84844 0.933339 0
M  V30 2350 H 221.857 -2.85741 3.61509 0
M  V30 2351 H 220.172 -2.70433 3.16631 0
M  V30 2352 H 222.769 -5.06891 1.70192 0
M  V30 2353 H 223.112 -4.15527 0.253496 0
M  V30 2354 H 223.645 -3.53043 1.83318 0
M  V30 2355 H 220.384 -4.66036 4.60967 0
M  V30 2356 H 219.904 -5.2024 2.98513 0
M  V30 2357 H 221.583 -5.4157 3.53992 0
M  V30 2358 N 221.715 -0.905404 -1.28997 0
M  V30 2359 C 222.662 -0.385892 -2.27551 0
M  V30 2360 C 223.632 0.535113 -1.57244 0
M  V30 2361 O 224.817 0.459119 -1.85194 0
M  V30 2362 C 221.957 0.375461 -3.43051 0
M  V30 2363 C 221.07 -0.577092 -4.28128 0
M  V30 2364 C 220.205 0.201879 -5.30816 0
M  V30 2365 C 219.244 -0.744829 -6.07551 0
M  V30 2366 N 218.381 9.42587e-05 -7.021 0
M  V30 2367 H 223.221 -1.23139 -2.71368 0
M  V30 2368 H 220.758 -0.618542 -1.33463 0
M  V30 2369 H 222.716 0.832992 -4.088 0
M  V30 2370 H 221.346 1.18537 -3.00248 0
M  V30 2371 H 220.398 -1.15315 -3.62501 0
M  V30 2372 H 221.71 -1.30152 -4.8152 0
M  V30 2373 H 220.864 0.720351 -6.02408 0
M  V30 2374 H 219.603 0.959413 -4.7817 0
M  V30 2375 H 218.608 -1.27475 -5.34818 0
M  V30 2376 H 219.833 -1.50178 -6.62286 0
M  V30 2377 H 217.779 0.739791 -6.51815 0
M  V30 2378 H 217.696 -0.664321 -7.53076 0
M  V30 2379 H 218.964 0.498644 -7.77903 0
M  V30 2380 N 223.193 1.4272 -0.668489 0
M  V30 2381 C 224.423 2.05668 -0.196063 0
M  V30 2382 C 224.831 1.5028 1.14946 0
M  V30 2383 O 224.174 0.6348 1.72383 0
M  V30 2384 C 224.236 3.59469 -0.0468879 0
M  V30 2385 C 223.9 4.37518 -1.32012 0
M  V30 2386 C 224.897 4.68584 -2.25222 0
M  V30 2387 C 222.582 4.77266 -1.56596 0
M  V30 2388 C 224.576 5.38326 -3.41297 0
M  V30 2389 C 222.263 5.4675 -2.72962 0
M  V30 2390 C 223.261 5.77204 -3.65137 0
M  V30 2391 O 222.949 6.45264 -4.79468 0
M  V30 2392 H 222.681 0.669382 -0.0943599 0
M  V30 2393 H 225.235 1.83954 -0.913788 0
M  V30 2394 H 223.465 3.79817 0.726357 0
M  V30 2395 H 225.154 4.04071 0.384852 0
M  V30 2396 H 225.92 4.38382 -2.07477 0
M  V30 2397 H 221.799 4.52959 -0.857249 0
M  V30 2398 H 225.343 5.62014 -4.13263 0
M  V30 2399 H 221.24 5.76369 -2.90635 0
M  V30 2400 H 222.008 6.63753 -4.78931 0
M  V30 2401 N 224.671 0.411399 1.52136 0
M  V30 2402 C 226.082 -0.0576826 1.86611 0
M  V30 2403 C 226.433 -1.44238 1.33003 0
M  V30 2404 O 225.558 -2.05759 0.670228 0
M  V30 2405 C 226.153 -0.111448 3.38617 0
M  V30 2406 C 224.712 -0.52487 3.72723 0
M  V30 2407 C 223.859 0.299176 2.75681 0
M  V30 2408 H 226.81 0.628368 1.4573 0
M  V30 2409 H 226.831 -0.926252 3.69054 0
M  V30 2410 H 226.343 0.896488 3.77604 0
M  V30 2411 H 224.444 -1.53936 3.39315 0
M  V30 2412 H 224.557 -0.267681 4.78352 0
M  V30 2413 H 222.921 -0.238814 2.53578 0
M  V30 2414 H 223.704 1.3055 3.17508 0
M  V30 2415 N 226.149 -1.5696 0.141893 0
M  V30 2416 C 227.396 -1.9596 -0.510492 0
M  V30 2417 C 227.724 -1.02648 -1.65208 0
M  V30 2418 O 226.979 -0.0546947 -1.95624 0
M  V30 2419 C 227.278 -3.41242 -1.06249 0
M  V30 2420 C 226.944 -4.50882 -0.0398791 0
M  V30 2421 C 225.606 -4.80595 0.241247 0
M  V30 2422 C 227.958 -5.17058 0.65578 0
M  V30 2423 C 225.286 -5.73792 1.22393 0
M  V30 2424 C 227.638 -6.11313 1.62724 0
M  V30 2425 C 226.302 -6.39407 1.91612 0
M  V30 2426 H 225.572 -0.717068 -0.186802 0
M  V30 2427 H 228.219 -1.90142 0.227643 0
M  V30 2428 H 226.524 -3.43866 -1.87785 0
M  V30 2429 H 228.221 -3.68742 -1.57576 0
M  V30 2430 H 224.811 -4.27754 -0.269174 0
M  V30 2431 H 228.995 -4.94239 0.451779 0
M  V30 2432 H 224.251 -5.93853 1.45424 0
M  V30 2433 H 228.425 -6.61668 2.17183 0
M  V30 2434 H 226.052 -7.11427 2.6791 0
M  V30 2435 N 227.627 0.131896 -1.57047 0
M  V30 2436 C 228.557 1.16384 -2.02428 0
M  V30 2437 C 229.538 1.43936 -0.90644 0
M  V30 2438 O 230.723 1.54599 -1.17528 0
M  V30 2439 C 227.853 2.49328 -2.4177 0
M  V30 2440 C 226.807 2.36266 -3.56879 0
M  V30 2441 C 226.133 3.74057 -3.8208 0
M  V30 2442 C 227.433 1.834 -4.89042 0
M  V30 2443 H 229.127 0.786433 -2.88887 0
M  V30 2444 H 226.673 0.376855 -1.38981 0
M  V30 2445 H 228.626 3.21759 -2.7212 0
M  V30 2446 H 227.35 2.88934 -1.52266 0
M  V30 2447 H 226.009 1.66286 -3.26718 0
M  V30 2448 H 225.657 4.11125 -2.89803 0
M  V30 2449 H 225.357 3.66174 -4.59554 0
M  V30 2450 H 226.881 4.48012 -4.1487 0
M  V30 2451 H 228.295 2.45636 -5.18011 0
M  V30 2452 H 226.692 1.8637 -5.70426 0
M  V30 2453 H 227.762 0.790662 -4.7841 0
M  V30 2454 N 229.106 1.52395 0.401703 0
M  V30 2455 C 230.036 1.79231 1.49661 0
M  V30 2456 C 231.017 0.643654 1.57452 0
M  V30 2457 O 232.202 0.889989 1.72606 0
M  V30 2458 C 229.332 1.94971 2.87409 0
M  V30 2459 C 228.286 3.10604 2.94465 0
M  V30 2460 C 227.612 3.11577 4.34538 0
M  V30 2461 C 228.912 4.49921 2.6527 0
M  V30 2462 H 230.606 2.70917 1.27454 0
M  V30 2463 H 228.152 1.30362 0.6117 0
M  V30 2464 H 230.105 2.12328 3.63999 0
M  V30 2465 H 228.829 0.999632 3.10926 0
M  V30 2466 H 227.488 2.93009 2.20321 0
M  V30 2467 H 227.136 2.14277 4.55076 0
M  V30 2468 H 226.836 3.89247 4.40183 0
M  V30 2469 H 228.36 3.31073 5.13053 0
M  V30 2470 H 229.774 4.67683 3.31581 0
M  V30 2471 H 228.171 5.29564 2.82281 0
M  V30 2472 H 229.241 4.57507 1.60671 0
M  V30 2473 N 230.584 -0.659388 1.43143 0
M  V30 2474 C 231.809 -1.45221 1.48073 0
M  V30 2475 C 232.234 -1.87845 0.097995 0
M  V30 2476 O 231.592 -1.56985 -0.90694 0
M  V30 2477 C 231.64 -2.66748 2.42647 0
M  V30 2478 O 230.744 -3.65583 1.90848 0
M  V30 2479 H 230.085 -0.435669 0.501088 0
M  V30 2480 H 232.615 -0.807432 1.87994 0
M  V30 2481 H 232.625 -3.14637 2.59745 0
M  V30 2482 H 231.3 -2.35067 3.43098 0
M  V30 2483 H 229.877 -3.24693 1.83381 0
M  V30 2484 N 232.062 -1.29571 -0.897171 0
M  V30 2485 C 233.01 -1.14802 -2.02295 0
M  V30 2486 C 234.004 -0.0629637 -1.69283 0
M  V30 2487 O 235.21 -0.222945 -1.78614 0
M  V30 2488 H 231.585 -0.354692 -0.663097 0
M  V30 2489 H 233.556 -2.10108 -2.11889 0
M  V30 2490 C 232.305 -0.843966 -3.37302 0
M  V30 2491 H 231.628 -1.67093 -3.63208 0
M  V30 2492 H 233.068 -0.780672 -4.16751 0
M  V30 2493 C 231.527 0.452843 -3.33843 0
M  V30 2494 O 232.057 1.47813 -3.73516 0
M  V30 2495 N 230.263 0.459601 -2.86943 0
M  V30 2496 H 229.81 -0.375213 -2.54853 0
M  V30 2497 H 229.768 1.32726 -2.85011 0
M  V30 2498 N 233.54 1.10788 -1.12088 0
M  V30 2499 C 234.788 1.8231 -0.872205 0
M  V30 2500 C 235.109 1.85419 0.603709 0
M  V30 2501 O 234.379 1.32963 1.43867 0
M  V30 2502 H 232.959 0.675137 -0.319686 0
M  V30 2503 H 235.621 1.34068 -1.41463 0
M  V30 2504 H 234.717 2.85955 -1.25045 0
M  V30 2505 N 235.018 0.912232 1.28515 0
M  V30 2506 C 235.966 0.389597 2.29314 0
M  V30 2507 C 236.96 -0.517915 1.61289 0
M  V30 2508 O 238.166 -0.399328 1.75515 0
M  V30 2509 H 234.541 0.107386 0.744293 0
M  V30 2510 H 236.512 1.25286 2.70825 0
M  V30 2511 C 235.261 -0.356496 3.45868 0
M  V30 2512 H 234.584 0.332608 3.98414 0
M  V30 2513 H 236.024 -0.686851 4.184 0
M  V30 2514 C 234.483 -1.56383 2.98406 0
M  V30 2515 O 235.013 -2.66294 3.00749 0
M  V30 2516 N 233.219 -1.41029 2.54085 0
M  V30 2517 H 232.766 -0.516089 2.52377 0
M  V30 2518 H 232.724 -2.21939 2.22689 0
M  V30 2519 N 236.496 -1.42363 0.676048 0
M  V30 2520 C 237.912 -1.55811 0.345718 0
M  V30 2521 C 238.112 -1.65544 -1.14879 0
M  V30 2522 O 237.168 -1.62306 -1.93424 0
M  V30 2523 C 238.481 -2.80746 1.07713 0
M  V30 2524 C 240.029 -2.9452 1.05958 0
M  V30 2525 C 240.504 -4.22318 1.77233 0
M  V30 2526 N 241.995 -4.29233 1.74108 0
M  V30 2527 C 242.73 -5.26935 2.26113 0
M  V30 2528 N 242.226 -6.30783 2.86505 0
M  V30 2529 N 244.019 -5.18741 2.1648 0
M  V30 2530 H 236.17 -1.34289 1.6456 0
M  V30 2531 H 238.433 -0.646506 0.69335 0
M  V30 2532 H 238.139 -2.79696 2.13221 0
M  V30 2533 H 238.013 -3.71676 0.64316 0
M  V30 2534 H 240.4 -2.95097 0.0128255 0
M  V30 2535 H 240.481 -2.04817 1.53244 0
M  V30 2536 H 240.125 -4.22502 2.81877 0
M  V30 2537 H 240.055 -5.10958 1.27396 0
M  V30 2538 H 242.546 -3.54814 1.30059 0
M  V30 2539 H 242.859 -7.01691 3.23805 0
M  V30 2540 H 241.204 -6.31341 2.90575 0
M  V30 2541 H 244.395 -4.36533 1.68987 0
M  V30 2542 H 244.568 -5.94721 2.57316 0
M  V30 2543 N 237.974 -0.419461 -1.51915 0
M  V30 2544 C 239.22 0.153166 -2.02221 0
M  V30 2545 C 239.553 1.43907 -1.30401 0
M  V30 2546 O 238.828 1.90055 -0.413438 0
M  V30 2547 C 239.111 0.390291 -3.57979 0
M  V30 2548 C 238.964 -0.913014 -4.40436 0
M  V30 2549 C 240.283 1.16794 -4.2432 0
M  V30 2550 H 237.402 0.0541924 -0.735005 0
M  V30 2551 H 240.044 -0.554955 -1.81715 0
M  V30 2552 H 238.194 0.993491 -3.75582 0
M  V30 2553 H 239.866 -1.54882 -4.34522 0
M  V30 2554 H 238.109 -1.52168 -4.06236 0
M  V30 2555 H 238.78 -0.701361 -5.47526 0
M  V30 2556 H 241.256 0.657161 -4.10878 0
M  V30 2557 H 240.132 1.3026 -5.3322 0
M  V30 2558 H 240.393 2.19132 -3.83971 0
M  V30 2559 N 239.452 1.56882 -0.150215 0
M  V30 2560 C 240.415 2.1573 0.774157 0
M  V30 2561 C 241.415 1.0999 1.17298 0
M  V30 2562 O 242.605 1.35613 1.09338 0
M  V30 2563 C 239.737 2.72302 2.05096 0
M  V30 2564 H 240.93 2.98752 0.262201 0
M  V30 2565 H 238.483 1.55985 0.099248 0
M  V30 2566 H 239.218 1.92956 2.6065 0
M  V30 2567 H 239.003 3.49665 1.77416 0
M  V30 2568 H 240.493 3.17632 2.71109 0
M  V30 2569 N 240.93 -0.123565 1.57115 0
M  V30 2570 C 241.862 -1.17739 1.96648 0
M  V30 2571 C 242.875 -1.37906 0.865201 0
M  V30 2572 O 244.064 -1.37062 1.14351 0
M  V30 2573 C 241.164 -2.53821 2.24562 0
M  V30 2574 C 240.337 -2.54317 3.55867 0
M  V30 2575 C 239.396 -3.72112 3.72047 0
M  V30 2576 O 238.422 -3.55907 4.44206 0
M  V30 2577 N 239.624 -4.90498 3.10471 0
M  V30 2578 H 242.389 -0.841147 2.87654 0
M  V30 2579 H 239.95 -0.31289 1.58848 0
M  V30 2580 H 241.942 -3.31175 2.32606 0
M  V30 2581 H 240.512 -2.79645 1.39705 0
M  V30 2582 H 239.732 -1.62711 3.59053 0
M  V30 2583 H 241.02 -2.51701 4.42181 0
M  V30 2584 H 240.418 -5.06567 2.51806 0
M  V30 2585 H 238.975 -5.65544 3.24043 0
M  V30 2586 N 242.408 -1.52605 -0.393616 0
M  V30 2587 C 243.656 -1.67093 -1.13685 0
M  V30 2588 C 243.977 -0.411011 -1.90619 0
M  V30 2589 O 243.247 0.574491 -1.87287 0
M  V30 2590 H 241.827 -0.615923 -0.422668 0
M  V30 2591 H 244.489 -1.89704 -0.447039 0
M  V30 2592 H 243.585 -2.51922 -1.84232 0
M  V30 2593 N 243.887 0.651787 -1.4349 0
M  V30 2594 C 244.797 1.79368 -1.5121 0
M  V30 2595 C 245.813 1.69361 -0.399093 0
M  V30 2596 O 246.989 1.90505 -0.653431 0
M  V30 2597 C 244.054 3.15653 -1.43401 0
M  V30 2598 C 243.115 3.37446 -2.65384 0
M  V30 2599 C 242.348 4.67229 -2.57939 0
M  V30 2600 O 242.571 5.46676 -1.62792 0
M  V30 2601 O 241.505 4.90773 -3.48462 0
M  V30 2602 H 245.331 1.7581 -2.47638 0
M  V30 2603 H 242.916 0.810447 -1.25507 0
M  V30 2604 H 244.798 3.96935 -1.41494 0
M  V30 2605 H 243.473 3.19798 -0.501085 0
M  V30 2606 H 242.38 2.55923 -2.72863 0
M  V30 2607 H 243.713 3.38148 -3.57654 0
M  V30 2608 N 245.365 1.30045 0.890287 0
M  V30 2609 C 246.295 1.18541 2.01172 0
M  V30 2610 C 247.276 0.0773356 1.69924 0
M  V30 2611 O 248.461 0.25845 1.92473 0
M  V30 2612 C 245.591 0.870941 3.36202 0
M  V30 2613 C 244.545 1.93637 3.81692 0
M  V30 2614 C 243.871 1.475 5.13953 0
M  V30 2615 C 245.171 3.34666 4.00994 0
M  V30 2616 H 246.865 2.12359 2.11054 0
M  V30 2617 H 244.411 1.02238 1.01407 0
M  V30 2618 H 246.364 0.777141 4.14172 0
M  V30 2619 H 245.088 -0.102926 3.26438 0
M  V30 2620 H 243.747 2.01972 3.05946 0
M  V30 2621 H 243.395 0.489551 5.00612 0
M  V30 2622 H 243.095 2.1876 5.4536 0
M  V30 2623 H 244.619 1.39489 5.94454 0
M  V30 2624 H 246.033 3.2912 4.69417 0
M  V30 2625 H 244.43 4.03966 4.43769 0
M  V30 2626 H 245.5 3.76949 3.05021 0
M  V30 2627 N 246.843 -1.10192 1.12674 0
M  V30 2628 C 247.753 -2.20172 0.810026 0
M  V30 2629 C 248.769 -1.72821 -0.202188 0
M  V30 2630 O 249.945 -2.01369 -0.0351691 0
M  V30 2631 C 247.01 -3.45631 0.272007 0
M  V30 2632 C 246.071 -4.07704 1.34447 0
M  V30 2633 C 245.304 -5.27175 0.832029 0
M  V30 2634 O 245.527 -5.69425 -0.333284 0
M  V30 2635 O 244.461 -5.80168 1.60277 0
M  V30 2636 H 248.287 -2.49701 1.72867 0
M  V30 2637 H 245.872 -1.18977 0.903597 0
M  V30 2638 H 247.754 -4.21394 -0.0230219 0
M  V30 2639 H 246.429 -3.17723 -0.619164 0
M  V30 2640 H 245.336 -3.33614 1.6927 0
M  V30 2641 H 246.669 -4.3982 2.2095 0
M  V30 2642 N 248.321 -0.919034 -1.28029 0
M  V30 2643 C 249.269 -0.401753 -2.29104 0
M  V30 2644 C 250.263 0.509354 -1.61561 0
M  V30 2645 O 251.469 0.390014 -1.75724 0
M  V30 2646 H 247.844 -0.111331 -0.743713 0
M  V30 2647 H 249.815 -1.2672 -2.70156 0
M  V30 2648 C 248.564 0.338148 -3.46052 0
M  V30 2649 H 247.887 -0.353732 -3.98232 0
M  V30 2650 H 249.327 0.664653 -4.18758 0
M  V30 2651 C 247.786 1.54798 -2.99231 0
M  V30 2652 O 248.316 2.64696 -3.02157 0
M  V30 2653 N 246.522 1.3968 -2.54829 0
M  V30 2654 H 246.069 0.502698 -2.52647 0
M  V30 2655 H 246.027 2.20755 -2.23863 0
M  V30 2656 N 249.799 1.42003 -0.683588 0
M  V30 2657 C 251.047 2.01015 -0.209101 0
M  V30 2658 C 251.368 1.54365 1.19149 0
M  V30 2659 O 250.638 0.769083 1.80172 0
M  V30 2660 H 249.218 0.743294 -0.074315 0
M  V30 2661 H 251.88 1.73798 -0.882066 0
M  V30 2662 H 250.976 3.11343 -0.2172 0
M  V30 2663 N 251.277 0.427512 1.51691 0
M  V30 2664 C 252.693 0.0792977 1.59403 0
M  V30 2665 C 252.893 -1.41035 1.43914 0
M  V30 2666 O 251.949 -2.17922 1.27539 0
M  V30 2667 C 253.262 0.590636 2.94842 0
M  V30 2668 C 254.81 0.550215 3.08126 0
M  V30 2669 C 255.285 1.03836 4.46074 0
M  V30 2670 N 256.776 0.995943 4.52366 0
M  V30 2671 C 257.511 1.34463 5.57411 0
M  V30 2672 N 257.007 1.76569 6.69922 0
M  V30 2673 N 258.8 1.26343 5.47717 0
M  V30 2674 H 250.951 1.39687 1.60004 0
M  V30 2675 H 253.214 0.575003 0.753708 0
M  V30 2676 H 252.92 1.63251 3.11516 0
M  V30 2677 H 252.794 0.0102061 3.77199 0
M  V30 2678 H 255.181 -0.482654 2.91126 0
M  V30 2679 H 255.262 1.16693 2.27632 0
M  V30 2680 H 254.906 2.06965 4.63819 0
M  V30 2681 H 254.836 0.398286 5.25092 0
M  V30 2682 H 257.327 0.68661 3.7161 0
M  V30 2683 H 257.64 2.01438 7.46085 0
M  V30 2684 H 255.985 1.80488 6.71155 0
M  V30 2685 H 259.176 0.933209 4.58703 0
M  V30 2686 H 259.349 1.53846 6.29472 0
M  V30 2687 N 252.755 -1.56801 0.158532 0
M  V30 2688 C 253.705 -2.13923 -0.788738 0
M  V30 2689 C 254.689 -1.07006 -1.2016 0
M  V30 2690 O 255.881 -1.33159 -1.1661 0
M  V30 2691 C 253.01 -2.77348 -2.02319 0
M  V30 2692 C 252.096 -3.91404 -1.6329 0
M  V30 2693 N 252.487 -4.9677 -0.951463 0
M  V30 2694 C 250.785 -4.02326 -1.92482 0
M  V30 2695 C 251.486 -5.76698 -0.761221 0
M  V30 2696 N 250.462 -5.27859 -1.29869 0
M  V30 2697 H 254.264 -2.92757 -0.258995 0
M  V30 2698 H 251.778 -1.62344 -0.0426055 0
M  V30 2699 H 253.775 -3.16639 -2.71192 0
M  V30 2700 H 252.435 -1.99991 -2.558 0
M  V30 2701 H 253.446 -5.14284 -0.610928 0
M  V30 2702 H 250.123 -3.36059 -2.47732 0
M  V30 2703 H 251.513 -6.71529 -0.223284 0
M  V30 2704 N 254.233 0.115231 -1.57178 0
M  V30 2705 C 255.479 0.818565 -1.86202 0
M  V30 2706 C 255.834 1.77316 -0.746785 0
M  V30 2707 O 255.127 1.89923 0.25291 0
M  V30 2708 C 255.321 1.60324 -3.19423 0
M  V30 2709 C 255.15 0.726138 -4.43799 0
M  V30 2710 C 253.92 0.379535 -5.03873 0
M  V30 2711 C 256.118 0.0420774 -5.14283 0
M  V30 2712 N 254.1 -0.507841 -6.11796 0
M  V30 2713 C 255.471 -0.704152 -6.15988 0
M  V30 2714 C 257.526 -0.0339486 -4.97888 0
M  V30 2715 C 256.229 -1.51927 -7.03072 0
M  V30 2716 C 258.255 -0.835906 -5.85463 0
M  V30 2717 C 257.617 -1.57031 -6.86673 0
M  V30 2718 H 253.716 0.276343 -0.731545 0
M  V30 2719 H 256.3 0.0821032 -1.94527 0
M  V30 2720 H 254.471 2.31072 -3.12186 0
M  V30 2721 H 256.203 2.2522 -3.36241 0
M  V30 2722 H 252.958 0.722634 -4.68054 0
M  V30 2723 H 253.382 -0.94349 -6.70393 0
M  V30 2724 H 258.024 0.519496 -4.19596 0
M  V30 2725 H 255.742 -2.08386 -7.80769 0
M  V30 2726 H 259.328 -0.89714 -5.74841 0
M  V30 2727 H 258.208 -2.18088 -7.53264 0
M  V30 2728 N 255.711 1.52812 0.385517 0
M  V30 2729 C 256.957 1.68275 1.13188 0
M  V30 2730 C 257.29 0.423179 1.89533 0
M  V30 2731 O 256.565 -0.579113 1.85679 0
M  V30 2732 C 256.848 2.92001 2.1073 0
M  V30 2733 C 256.701 4.28067 1.38125 0
M  V30 2734 C 258.02 3.11283 3.11113 0
M  V30 2735 H 255.139 0.612352 0.410115 0
M  V30 2736 H 257.781 1.85415 0.414869 0
M  V30 2737 H 255.931 2.77519 2.71874 0
M  V30 2738 H 257.603 4.54324 0.799187 0
M  V30 2739 H 255.846 4.28388 0.683092 0
M  V30 2740 H 256.517 5.10733 2.09417 0
M  V30 2741 H 258.993 3.2482 2.6006 0
M  V30 2742 H 257.869 3.99325 3.76605 0
M  V30 2743 H 258.13 2.25656 3.80173 0
M  V30 2744 N 257.189 -0.644168 1.43834 0
M  V30 2745 C 258.121 -1.76955 1.45669 0
M  V30 2746 C 259.134 -1.58956 0.351666 0
M  V30 2747 O 260.323 -1.6751 0.616644 0
M  V30 2748 C 257.423 -3.14507 1.26248 0
M  V30 2749 C 256.596 -3.59083 2.49757 0
M  V30 2750 C 255.655 -4.75467 2.25427 0
M  V30 2751 O 254.681 -4.84444 2.98836 0
M  V30 2752 N 255.883 -5.66289 1.27661 0
M  V30 2753 H 258.648 -1.75856 2.42682 0
M  V30 2754 H 256.209 -0.828312 1.39106 0
M  V30 2755 H 258.201 -3.90067 1.0784 0
M  V30 2756 H 256.771 -3.10325 0.376478 0
M  V30 2757 H 255.991 -2.7387 2.8353 0
M  V30 2758 H 257.279 -3.85613 3.31934 0
M  V30 2759 H 256.677 -5.61718 0.670064 0
M  V30 2760 H 255.234 -6.41533 1.15234 0
M  V30 2761 N 258.668 -1.30515 -0.883378 0
M  V30 2762 C 259.914 -1.20617 -1.63778 0
M  V30 2763 C 260.269 0.236469 -1.90941 0
M  V30 2764 O 259.562 1.16596 -1.52039 0
M  V30 2765 C 259.756 -1.96994 -2.98209 0
M  V30 2766 C 259.585 -3.48537 -2.84169 0
M  V30 2767 C 258.355 -4.17893 -2.84067 0
M  V30 2768 C 260.553 -4.43738 -2.60001 0
M  V30 2769 N 258.535 -5.55685 -2.60936 0
M  V30 2770 C 259.906 -5.69105 -2.46007 0
M  V30 2771 C 261.961 -4.33316 -2.45239 0
M  V30 2772 C 260.664 -6.8523 -2.18752 0
M  V30 2773 C 262.69 -5.4921 -2.19369 0
M  V30 2774 C 262.052 -6.73558 -2.06153 0
M  V30 2775 H 258.151 -0.496434 -0.604216 0
M  V30 2776 H 260.735 -1.64544 -1.04083 0
M  V30 2777 H 258.906 -1.55455 -3.55933 0
M  V30 2778 H 260.638 -1.79225 -3.62851 0
M  V30 2779 H 257.393 -3.69739 -2.95956 0
M  V30 2780 H 257.817 -6.28199 -2.52378 0
M  V30 2781 H 262.459 -3.37856 -2.54191 0
M  V30 2782 H 260.177 -7.80729 -2.08537 0
M  V30 2783 H 263.763 -5.43054 -2.08766 0
M  V30 2784 H 262.643 -7.61721 -1.86416 0
M  V30 2785 N 260.146 1.09593 -1.13257 0
M  V30 2786 C 261.078 2.16015 -0.766167 0
M  V30 2787 C 262.091 1.61423 0.211303 0
M  V30 2788 O 263.28 1.78498 -0.00863946 0
M  V30 2789 C 260.38 3.38706 -0.114662 0
M  V30 2790 C 259.553 4.22717 -1.12379 0
M  V30 2791 C 258.612 5.23835 -0.498301 0
M  V30 2792 O 257.638 5.573 -1.15781 0
M  V30 2793 N 258.84 5.75886 0.730417 0
M  V30 2794 H 261.605 2.48055 -1.68193 0
M  V30 2795 H 259.166 1.25292 -1.02535 0
M  V30 2796 H 261.158 4.03464 0.315991 0
M  V30 2797 H 259.728 3.04569 0.704011 0
M  V30 2798 H 258.948 3.54122 -1.73179 0
M  V30 2799 H 260.236 4.75673 -1.80589 0
M  V30 2800 H 259.634 5.50911 1.28504 0
M  V30 2801 H 258.191 6.42387 1.10376 0
M  V30 2802 N 261.624 0.925811 1.2754 0
M  V30 2803 C 262.901 0.483726 1.89524 0
M  V30 2804 C 263.281 -1.03809 1.83812 0
M  V30 2805 O 262.629 -1.89143 1.28207 0
M  V30 2806 C 262.839 1.02769 3.33526 0
M  V30 2807 C 264.187 1.08703 4.10449 0
M  V30 2808 O 265.211 0.977175 3.42534 0
M  V30 2809 O 264.07 1.25599 5.31871 0
M  V30 2810 H 261.164 0.15529 0.812289 0
M  V30 2811 H 263.71 1.01738 1.35822 0
M  V30 2812 H 262.482 2.07155 3.31967 0
M  V30 2813 H 262.105 0.475567 3.94746 0
M  V30 2814 N 263.102 -1.41638 0.69111 0
M  V30 2815 C 264.513 -1.84346 0.295517 0
M  V30 2816 C 264.864 -1.57833 -1.16547 0
M  V30 2817 O 263.989 -1.04648 -1.89414 0
M  V30 2818 C 264.584 -3.34636 0.529575 0
M  V30 2819 C 263.143 -3.7593 0.187944 0
M  V30 2820 C 262.29 -2.65082 0.814052 0
M  V30 2821 H 265.241 -1.31253 0.892092 0
M  V30 2822 H 265.262 -3.79903 -0.213148 0
M  V30 2823 H 264.774 -3.53901 1.59297 0
M  V30 2824 H 262.875 -3.62268 -0.871367 0
M  V30 2825 H 262.988 -4.74808 0.63985 0
M  V30 2826 H 261.352 -2.53528 0.244017 0
M  V30 2827 H 262.135 -2.87167 1.88123 0
M  V30 2828 N 264.58 -0.43555 -1.51462 0
M  V30 2829 C 265.827 0.131514 -2.02072 0
M  V30 2830 C 266.155 1.42868 -1.31981 0
M  V30 2831 O 265.41 1.91076 -0.422883 0
M  V30 2832 C 265.709 0.39942 -3.55161 0
M  V30 2833 C 265.375 -0.81172 -4.43533 0
M  V30 2834 C 264.037 -1.14387 -4.67407 0
M  V30 2835 C 266.389 -1.61976 -4.95392 0
M  V30 2836 C 263.717 -2.28477 -5.40384 0
M  V30 2837 C 266.069 -2.75164 -5.6962 0
M  V30 2838 C 264.733 -3.08835 -5.91758 0
M  V30 2839 H 264.003 0.0481244 -0.739436 0
M  V30 2840 H 266.65 -0.58238 -1.8243 0
M  V30 2841 H 264.955 1.19519 -3.73125 0
M  V30 2842 H 266.652 0.85157 -3.91854 0
M  V30 2843 H 263.242 -0.542898 -4.25148 0
M  V30 2844 H 267.426 -1.37637 -4.76833 0
M  V30 2845 H 262.682 -2.5488 -5.55739 0
M  V30 2846 H 266.856 -3.38147 -6.08793 0
M  V30 2847 H 264.483 -3.97353 -6.48086 0
M  V30 2848 N 266.058 1.56714 -0.166846 0
M  V30 2849 C 267.469 1.83378 0.350646 0
M  V30 2850 C 267.82 1.08646 1.63372 0
M  V30 2851 O 266.945 0.338058 2.13743 0
M  V30 2852 C 267.54 3.32643 0.642963 0
M  V30 2853 C 266.099 3.59818 1.10491 0
M  V30 2854 C 265.246 2.76954 0.138411 0
M  V30 2855 H 268.197 1.53803 -0.391193 0
M  V30 2856 H 268.218 3.49878 1.49551 0
M  V30 2857 H 267.73 3.87007 -0.291055 0
M  V30 2858 H 265.831 3.1086 2.05418 0
M  V30 2859 H 265.944 4.68178 1.01716 0
M  V30 2860 H 264.308 2.4666 0.634911 0
M  V30 2861 H 265.091 3.34097 -0.789549 0
M  V30 2862 N 267.536 -0.106894 1.57237 0
M  V30 2863 C 268.483 -1.13049 2.01217 0
M  V30 2864 C 269.453 -1.40471 0.886403 0
M  V30 2865 O 270.638 -1.52133 1.15153 0
M  V30 2866 C 267.778 -2.4487 2.43172 0
M  V30 2867 C 266.891 -2.24281 3.69218 0
M  V30 2868 C 266.026 -3.49417 4.00101 0
M  V30 2869 C 265.065 -3.24038 5.19294 0
M  V30 2870 N 264.202 -4.41409 5.45988 0
M  V30 2871 H 269.042 -0.748456 2.88448 0
M  V30 2872 H 266.579 -0.358054 1.42676 0
M  V30 2873 H 268.537 -3.21786 2.65537 0
M  V30 2874 H 267.167 -2.80944 1.58967 0
M  V30 2875 H 266.219 -1.38224 3.54398 0
M  V30 2876 H 267.531 -2.01512 4.56283 0
M  V30 2877 H 266.685 -4.34746 4.2318 0
M  V30 2878 H 265.424 -3.75229 3.11535 0
M  V30 2879 H 264.429 -2.37102 4.96047 0
M  V30 2880 H 265.654 -2.99584 6.09447 0
M  V30 2881 H 263.6 -4.67319 4.60379 0
M  V30 2882 H 263.517 -4.21788 6.274 0
M  V30 2883 H 264.785 -5.27836 5.73593 0
M  V30 2884 N 269.014 -1.53014 -0.377408 0
M  V30 2885 C 270.425 -1.60438 -0.954798 0
M  V30 2886 C 270.776 -0.464418 -1.90624 0
M  V30 2887 O 269.901 0.41087 -2.12464 0
M  V30 2888 C 270.496 -2.90797 -1.73847 0
M  V30 2889 C 269.055 -3.00595 -2.26538 0
M  V30 2890 C 268.202 -2.55645 -1.07429 0
M  V30 2891 H 271.153 -1.57926 -0.156575 0
M  V30 2892 H 271.174 -2.77935 -2.5987 0
M  V30 2893 H 270.686 -3.73746 -1.04574 0
M  V30 2894 H 268.787 -2.22208 -2.99089 0
M  V30 2895 H 268.9 -4.05456 -2.5523 0
M  V30 2896 H 267.264 -2.10239 -1.43777 0
M  V30 2897 H 268.047 -3.41 -0.396728 0
M  V30 2898 N 270.492 0.636531 -1.44174 0
M  V30 2899 C 271.732 1.40781 -1.48189 0
M  V30 2900 C 272.096 1.91688 -0.10944 0
M  V30 2901 O 273.297 2.68789 -0.0242741 0
M  V30 2902 C 271.568 2.54575 -2.50851 0
M  V30 2903 S 273.127 3.4284 -2.73873 0
M  V30 2904 H 269.945 0.480345 -0.524204 0
M  V30 2905 H 272.547 0.737416 -1.81059 0
M  V30 2906 H 271.251 2.15478 -3.49281 0
M  V30 2907 H 270.782 3.26447 -2.19536 0
M  V30 2908 H 272.797 4.51846 -2.05059 0
M  V30 2909 N 271.97 1.30982 0.876444 0
M  V30 2910 C 273.2 1.23063 1.65949 0
M  V30 2911 C 273.608 -0.207537 1.88058 0
M  V30 2912 O 272.951 -1.14781 1.43426 0
M  V30 2913 C 273.013 1.89768 3.05333 0
M  V30 2914 C 272.677 3.39106 3.0636 0
M  V30 2915 C 273.674 4.3496 2.84791 0
M  V30 2916 C 271.359 3.80693 3.27686 0
M  V30 2917 C 273.353 5.70375 2.84519 0
M  V30 2918 C 271.04 5.16223 3.27043 0
M  V30 2919 C 272.038 6.10875 3.05485 0
M  V30 2920 O 271.726 7.43928 3.04674 0
M  V30 2921 H 271.458 0.426685 0.524324 0
M  V30 2922 H 274.012 1.7329 1.10271 0
M  V30 2923 H 272.242 1.34082 3.6271 0
M  V30 2924 H 273.931 1.75853 3.65829 0
M  V30 2925 H 274.697 4.0416 2.68103 0
M  V30 2926 H 270.576 3.07457 3.43499 0
M  V30 2927 H 274.12 6.44228 2.67611 0
M  V30 2928 H 270.017 5.4666 3.43269 0
M  V30 2929 H 270.785 7.53022 3.2078 0
M  V30 2930 N 273.449 -1.08991 1.13837 0
M  V30 2931 C 274.379 -2.17771 0.842507 0
M  V30 2932 C 275.36 -1.6892 -0.20001 0
M  V30 2933 O 276.545 -1.94113 -0.0579731 0
M  V30 2934 C 273.675 -3.4589 0.312644 0
M  V30 2935 C 272.629 -4.08099 1.28992 0
M  V30 2936 C 271.955 -5.31098 0.619623 0
M  V30 2937 C 273.255 -4.50077 2.65005 0
M  V30 2938 H 274.949 -2.42777 1.75213 0
M  V30 2939 H 272.495 -1.16682 0.843875 0
M  V30 2940 H 274.448 -4.21297 0.0933043 0
M  V30 2941 H 273.172 -3.20419 -0.632382 0
M  V30 2942 H 271.831 -3.34717 1.49533 0
M  V30 2943 H 271.479 -5.0191 -0.33102 0
M  V30 2944 H 271.179 -5.73674 1.27167 0
M  V30 2945 H 272.703 -6.09224 0.409669 0
M  V30 2946 H 274.117 -5.16688 2.48407 0
M  V30 2947 H 272.514 -5.03553 3.26427 0
M  V30 2948 H 273.584 -3.62257 3.22332 0
M  V30 2949 N 274.927 -0.932562 -1.27047 0
M  V30 2950 C 276.174 -0.575559 -1.94148 0
M  V30 2951 C 276.502 0.883984 -1.73251 0
M  V30 2952 O 275.757 1.64655 -1.0577 0
M  V30 2953 C 276.056 -0.853713 -3.47054 0
M  V30 2954 C 275.722 -2.29577 -3.88079 0
M  V30 2955 C 274.384 -2.68999 -3.9899 0
M  V30 2956 C 276.736 -3.23331 -4.08787 0
M  V30 2957 C 274.064 -4.01289 -4.28 0
M  V30 2958 C 276.416 -4.55207 -4.39282 0
M  V30 2959 C 275.08 -4.94457 -4.48407 0
M  V30 2960 H 274.35 -0.210612 -0.710439 0
M  V30 2961 H 276.997 -1.17744 -1.51025 0
M  V30 2962 H 275.302 -0.169204 -3.91434 0
M  V30 2963 H 276.999 -0.55639 -3.97121 0
M  V30 2964 H 273.589 -1.97994 -3.80127 0
M  V30 2965 H 277.773 -2.94074 -3.99793 0
M  V30 2966 H 273.029 -4.31374 -4.33275 0
M  V30 2967 H 277.203 -5.27852 -4.54252 0
M  V30 2968 H 274.83 -5.96994 -4.7064 0
M  V30 2969 N 276.405 1.4127 -0.698611 0
M  V30 2970 C 277.368 2.29158 -0.044132 0
M  V30 2971 C 278.368 1.44529 0.704841 0
M  V30 2972 O 279.558 1.65643 0.539276 0
M  V30 2973 C 276.69 3.27459 0.947809 0
M  V30 2974 H 277.883 2.88529 -0.817994 0
M  V30 2975 H 275.436 1.49307 -0.46228 0
M  V30 2976 H 276.171 2.73073 1.74933 0
M  V30 2977 H 275.956 3.8991 0.41385 0
M  V30 2978 H 277.446 3.93311 1.40344 0
M  V30 2979 N 277.883 0.443576 1.51229 0
M  V30 2980 C 278.813 -0.355142 2.30783 0
M  V30 2981 C 279.794 -1.0154 1.36468 0
M  V30 2982 O 280.979 -1.01785 1.65389 0
M  V30 2983 C 278.109 -1.45312 3.15439 0
M  V30 2984 C 277.063 -0.916002 4.18083 0
M  V30 2985 C 276.389 -2.1102 4.91299 0
M  V30 2986 C 277.689 0.0538602 5.22272 0
M  V30 2987 H 279.383 0.308767 2.97804 0
M  V30 2988 H 276.929 0.149937 1.43217 0
M  V30 2989 H 278.882 -2.01914 3.69876 0
M  V30 2990 H 277.606 -2.14541 2.46252 0
M  V30 2991 H 276.265 -0.372145 3.64706 0
M  V30 2992 H 275.913 -2.78882 4.18609 0
M  V30 2993 H 275.613 -1.75717 5.60712 0
M  V30 2994 H 277.137 -2.68164 5.48562 0
M  V30 2995 H 278.551 -0.422069 5.71744 0
M  V30 2996 H 276.948 0.319776 5.99247 0
M  V30 2997 H 278.018 0.98858 4.74716 0
M  V30 2998 N 279.361 -1.56624 0.175154 0
M  V30 2999 C 280.607 -1.9729 -0.469506 0
M  V30 3000 C 280.94 -1.06128 -1.62636 0
M  V30 3001 O 280.215 -0.109183 -1.94193 0
M  V30 3002 C 280.498 -3.47375 -0.948804 0
M  V30 3003 C 280.351 -4.49317 0.208491 0
M  V30 3004 C 281.67 -4.00652 -1.82116 0
M  V30 3005 H 278.789 -0.717317 -0.16919 0
M  V30 3006 H 281.431 -1.88184 0.262062 0
M  V30 3007 H 279.581 -3.55267 -1.57219 0
M  V30 3008 H 281.253 -4.53482 0.845682 0
M  V30 3009 H 279.496 -4.25121 0.863395 0
M  V30 3010 H 280.167 -5.51741 -0.169059 0
M  V30 3011 H 282.643 -3.95416 -1.2956 0
M  V30 3012 H 281.519 -5.06075 -2.12554 0
M  V30 3013 H 281.78 -3.44699 -2.7683 0
M  V30 3014 N 280.839 0.0985539 -1.57292 0
M  V30 3015 C 281.802 1.10402 -2.00858 0
M  V30 3016 C 282.802 1.33146 -0.901593 0
M  V30 3017 O 283.992 1.29318 -1.16716 0
M  V30 3018 C 281.124 2.45394 -2.36632 0
M  V30 3019 H 282.317 0.729099 -2.90902 0
M  V30 3020 H 279.87 0.343495 -1.52479 0
M  V30 3021 H 280.605 2.87769 -1.49531 0
M  V30 3022 H 280.39 2.30235 -3.17387 0
M  V30 3023 H 281.88 3.17718 -2.71007 0
M  V30 3024 N 282.317 1.53212 0.369288 0
M  V30 3025 C 283.565 1.68881 1.11012 0
M  V30 3026 C 283.886 0.441285 1.89941 0
M  V30 3027 O 283.156 -0.544623 1.88177 0
M  V30 3028 H 281.736 0.622569 0.412816 0
M  V30 3029 H 284.398 1.90391 0.416802 0
M  V30 3030 H 283.494 2.54822 1.80201 0
M  V30 3031 N 283.795 -0.628877 1.44509 0
M  V30 3032 C 285.072 -1.38733 1.37886 0
M  V30 3033 C 285.452 -2.11065 0.0387008 0
M  V30 3034 O 284.8 -2.06476 -0.97878 0
M  V30 3035 C 285.01 -2.35188 2.57852 0
M  V30 3036 C 286.358 -2.9845 3.02014 0
M  V30 3037 O 287.382 -2.45513 2.58073 0
M  V30 3038 O 286.241 -3.94487 3.78209 0
M  V30 3039 H 283.335 -0.621015 0.54614 0
M  V30 3040 H 285.881 -0.653744 1.56602 0
M  V30 3041 H 284.653 -1.80855 3.46998 0
M  V30 3042 H 284.276 -3.1596 2.4136 0
M  V30 3043 N 285.273 -1.31445 -0.869486 0
M  V30 3044 C 286.52 -1.21158 -1.62256 0
M  V30 3045 C 286.848 0.230155 -1.93133 0
M  V30 3046 O 286.103 1.17906 -1.56194 0
M  V30 3047 C 286.402 -2.00145 -2.96102 0
M  V30 3048 C 286.068 -3.4964 -2.84715 0
M  V30 3049 C 284.73 -3.90403 -2.81317 0
M  V30 3050 C 287.082 -4.44769 -2.71716 0
M  V30 3051 C 284.41 -5.24561 -2.62778 0
M  V30 3052 C 286.762 -5.79054 -2.54714 0
M  V30 3053 C 285.426 -6.19037 -2.49699 0
M  V30 3054 H 284.696 -0.443348 -0.593737 0
M  V30 3055 H 287.343 -1.62715 -1.00976 0
M  V30 3056 H 285.648 -1.5127 -3.6142 0
M  V30 3057 H 287.345 -1.89566 -3.53363 0
M  V30 3058 H 283.935 -3.17256 -2.88178 0
M  V30 3059 H 288.119 -4.14208 -2.73397 0
M  V30 3060 H 283.375 -5.54613 -2.57321 0
M  V30 3061 H 287.549 -6.52393 -2.43632 0
M  V30 3062 H 285.176 -7.22935 -2.35093 0
M  V30 3063 N 286.751 1.08385 -1.14413 0
M  V30 3064 C 288.028 1.77429 -0.823297 0
M  V30 3065 C 288.408 1.9974 0.683163 0
M  V30 3066 O 287.756 1.60739 1.62405 0
M  V30 3067 C 287.966 3.09004 -1.62227 0
M  V30 3068 C 289.314 3.83532 -1.82177 0
M  V30 3069 O 290.338 3.18786 -1.58915 0
M  V30 3070 O 289.197 4.99792 -2.21067 0
M  V30 3071 H 286.291 0.769999 -0.301712 0
M  V30 3072 H 288.837 1.14846 -1.24934 0
M  V30 3073 H 287.609 2.88316 -2.64555 0
M  V30 3074 H 287.232 3.79316 -1.19187 0
M  V30 3075 N 288.23 0.939286 1.26551 0
M  V30 3076 C 289.476 0.586715 1.94128 0
M  V30 3077 C 289.809 -0.8717 1.73537 0
M  V30 3078 O 289.084 -1.62339 1.07127 0
M  V30 3079 C 289.367 0.927497 3.4795 0
M  V30 3080 C 289.22 2.44052 3.77834 0
M  V30 3081 C 290.539 0.441569 4.37879 0
M  V30 3082 H 287.658 0.21463 0.705055 0
M  V30 3083 H 290.3 1.17316 1.49455 0
M  V30 3084 H 288.45 0.428431 3.8613 0
M  V30 3085 H 290.122 3.01216 3.4938 0
M  V30 3086 H 288.365 2.8848 3.23978 0
M  V30 3087 H 289.036 2.62947 4.85348 0
M  V30 3088 H 291.512 0.869448 4.06915 0
M  V30 3089 H 290.388 0.708856 5.44304 0
M  V30 3090 H 290.649 -0.658467 4.37169 0
M  V30 3091 N 289.708 -1.40897 0.706093 0
M  V30 3092 C 290.638 -2.33418 0.0620085 0
M  V30 3093 C 291.619 -1.52385 -0.755827 0
M  V30 3094 O 292.804 -1.80886 -0.706674 0
M  V30 3095 C 289.934 -3.36293 -0.867445 0
M  V30 3096 C 288.888 -4.27716 -0.155932 0
M  V30 3097 C 288.214 -5.2105 -1.20046 0
M  V30 3098 C 289.514 -5.12944 0.984149 0
M  V30 3099 H 291.208 -2.87527 0.83477 0
M  V30 3100 H 288.754 -1.38249 0.402875 0
M  V30 3101 H 290.707 -3.99949 -1.32735 0
M  V30 3102 H 289.431 -2.80556 -1.67199 0
M  V30 3103 H 288.09 -3.65498 0.284047 0
M  V30 3104 H 287.738 -4.61624 -1.99781 0
M  V30 3105 H 287.438 -5.83056 -0.729328 0
M  V30 3106 H 288.962 -5.87584 -1.66066 0
M  V30 3107 H 290.376 -5.70109 0.604048 0
M  V30 3108 H 288.773 -5.83945 1.38304 0
M  V30 3109 H 289.843 -4.49485 1.81911 0
M  V30 3110 N 291.186 -0.45159 -1.50991 0
M  V30 3111 C 292.602 -0.104647 -1.59257 0
M  V30 3112 C 292.802 1.38728 -1.4614 0
M  V30 3113 O 291.858 2.15866 -1.30989 0
M  V30 3114 C 293.171 -0.637468 -2.93865 0
M  V30 3115 C 294.719 -0.599166 -3.07212 0
M  V30 3116 C 295.194 -1.1092 -4.44366 0
M  V30 3117 N 296.685 -1.06778 -4.50725 0
M  V30 3118 C 297.42 -1.43314 -5.55201 0
M  V30 3119 N 296.916 -1.87204 -6.67028 0
M  V30 3120 N 298.709 -1.3504 -5.45638 0
M  V30 3121 H 290.86 -1.42214 -1.57762 0
M  V30 3122 H 293.123 -0.586921 -0.744465 0
M  V30 3123 H 292.829 -1.68187 -3.08879 0
M  V30 3124 H 292.703 -0.0702139 -3.77135 0
M  V30 3125 H 295.09 0.436277 -2.91857 0
M  V30 3126 H 295.171 -1.20299 -2.25747 0
M  V30 3127 H 294.815 -2.14318 -4.60467 0
M  V30 3128 H 294.745 -0.481773 -5.24392 0
M  V30 3129 H 297.236 -0.745643 -3.70471 0
M  V30 3130 H 297.549 -2.13282 -7.42786 0
M  V30 3131 H 295.894 -1.91142 -6.68199 0
M  V30 3132 H 299.085 -1.00607 -4.57161 0
M  V30 3133 H 299.258 -1.63841 -6.26945 0
M  V30 3134 N 292.664 1.56529 -0.183458 0
M  V30 3135 C 293.941 1.88959 0.50536 0
M  V30 3136 C 294.321 1.09523 1.80466 0
M  V30 3137 O 293.669 0.19278 2.27685 0
M  V30 3138 C 293.879 3.41162 0.73547 0
M  V30 3139 C 295.227 4.11155 1.06005 0
M  V30 3140 O 296.251 3.46548 0.823594 0
M  V30 3141 O 295.11 5.25318 1.50675 0
M  V30 3142 H 292.204 0.78441 0.261973 0
M  V30 3143 H 294.75 1.68231 -0.222802 0
M  V30 3144 H 293.522 3.90874 -0.182561 0
M  V30 3145 H 293.145 3.67543 1.51651 0
M  V30 3146 N 294.142 -0.090211 1.57342 0
M  V30 3147 C 295.37 -0.806224 1.90546 0
M  V30 3148 C 295.785 -1.72041 0.777644 0
M  V30 3149 O 295.142 -1.80778 -0.250103 0
M  V30 3150 C 295.193 -1.61546 3.23396 0
M  V30 3151 O 294.914 -0.738043 4.31839 0
M  V30 3152 C 296.415 -2.4341 3.70495 0
M  V30 3153 H 293.635 -0.230256 0.630257 0
M  V30 3154 H 296.179 -0.0659843 2.04394 0
M  V30 3155 H 294.334 -2.30816 3.11131 0
M  V30 3156 H 294.748 -1.29901 5.08159 0
M  V30 3157 H 296.222 -2.95676 4.66133 0
M  V30 3158 H 296.699 -3.22098 2.98579 0
M  V30 3159 H 297.305 -1.79331 3.85643 0
M  V30 3160 N 295.62 -1.53406 -0.361157 0
M  V30 3161 C 296.867 -1.69802 -1.10333 0
M  V30 3162 C 297.195 -0.452087 -1.89173 0
M  V30 3163 O 296.45 0.566017 -1.87336 0
M  V30 3164 C 296.749 -2.90211 -2.08596 0
M  V30 3165 C 296.415 -4.26539 -1.46203 0
M  V30 3166 C 295.077 -4.6361 -1.28915 0
M  V30 3167 C 297.429 -5.113 -1.01101 0
M  V30 3168 C 294.757 -5.83075 -0.651157 0
M  V30 3169 C 297.109 -6.31415 -0.387007 0
M  V30 3170 C 295.773 -6.67195 -0.201657 0
M  V30 3171 H 295.043 -0.621351 -0.403737 0
M  V30 3172 H 297.69 -1.87598 -0.384609 0
M  V30 3173 H 295.995 -2.66946 -2.86788 0
M  V30 3174 H 297.692 -3.00091 -2.65982 0
M  V30 3175 H 294.282 -3.97352 -1.60653 0
M  V30 3176 H 298.466 -4.83206 -1.13249 0
M  V30 3177 H 293.722 -6.09385 -0.496006 0
M  V30 3178 H 297.896 -6.96394 -0.0293563 0
M  V30 3179 H 295.523 -7.59628 0.294766 0
M  V30 3180 N 297.098 0.621204 -1.44841 0
M  V30 3181 C 298.326 1.40752 -1.51646 0
M  V30 3182 C 298.741 1.88246 -0.144549 0
M  V30 3183 O 298.098 1.61422 0.851416 0
M  V30 3184 C 298.149 2.62119 -2.4895 0
M  V30 3185 O 297.87 2.16602 -3.80808 0
M  V30 3186 C 299.371 3.55135 -2.65319 0
M  V30 3187 H 296.591 0.431325 -0.514004 0
M  V30 3188 H 299.135 0.758835 -1.899 0
M  V30 3189 H 297.29 3.23058 -2.13805 0
M  V30 3190 H 297.704 2.95358 -4.33433 0
M  V30 3191 H 299.178 4.36874 -3.37409 0
M  V30 3192 H 299.655 4.04592 -1.70886 0
M  V30 3193 H 300.261 3.00058 -3.01405 0
M  V30 3194 N 298.576 1.31904 0.862503 0
M  V30 3195 C 299.804 1.24998 1.64873 0
M  V30 3196 C 300.219 -0.183425 1.87907 0
M  V30 3197 O 299.576 -1.11794 1.44251 0
M  V30 3198 C 299.627 1.99829 3.01248 0
M  V30 3199 O 299.348 3.37575 2.79239 0
M  V30 3200 C 300.849 1.99852 3.95694 0
M  V30 3201 H 298.069 0.431599 0.513773 0
M  V30 3202 H 300.613 1.73901 1.07604 0
M  V30 3203 H 298.768 1.54668 3.55185 0
M  V30 3204 H 299.182 3.75776 3.65914 0
M  V30 3205 H 300.656 2.56709 4.88676 0
M  V30 3206 H 301.133 0.982852 4.28062 0
M  V30 3207 H 301.739 2.44926 3.47694 0
M  V30 3208 N 300.054 -1.07777 1.14986 0
M  V30 3209 C 301.47 -1.32373 0.891596 0
M  V30 3210 C 301.67 -1.9609 -0.463788 0
M  V30 3211 O 300.726 -2.21801 -1.20667 0
M  V30 3212 C 302.039 -2.21905 2.02925 0
M  V30 3213 C 303.587 -2.35367 2.06329 0
M  V30 3214 C 304.062 -3.28245 3.19405 0
M  V30 3215 N 305.553 -3.35824 3.19024 0
M  V30 3216 C 306.288 -4.07739 4.03158 0
M  V30 3217 N 305.784 -4.82306 4.97346 0
M  V30 3218 N 307.577 -4.03635 3.91197 0
M  V30 3219 H 299.728 -0.648039 2.02273 0
M  V30 3220 H 301.991 -0.348149 0.881757 0
M  V30 3221 H 301.697 -1.82342 3.0074 0
M  V30 3222 H 301.571 -3.22407 1.95789 0
M  V30 3223 H 303.958 -2.74186 1.09116 0
M  V30 3224 H 304.039 -1.34585 2.17533 0
M  V30 3225 H 303.683 -2.90146 4.16867 0
M  V30 3226 H 303.613 -4.28971 3.05437 0
M  V30 3227 H 306.104 -2.8267 2.50811 0
M  V30 3228 H 306.417 -5.34661 5.57994 0
M  V30 3229 H 304.762 -4.81337 5.01338 0
M  V30 3230 H 307.953 -3.44491 3.16928 0
M  V30 3231 H 308.126 -4.59417 4.5699 0
M  V30 3232 N 301.532 -0.945985 -1.26051 0
M  V30 3233 C 302.757 -0.612525 -1.98149 0
M  V30 3234 C 303.182 0.806623 -1.69927 0
M  V30 3235 O 302.54 1.54411 -0.950108 0
M  V30 3236 C 302.588 -0.866981 -3.50023 0
M  V30 3237 O 301.692 0.0585333 -4.12358 0
M  V30 3238 H 301.033 -0.23379 -0.621481 0
M  V30 3239 H 303.563 -1.27023 -1.60395 0
M  V30 3240 H 303.573 -0.789792 -4.00283 0
M  V30 3241 H 302.248 -1.90135 -3.69894 0
M  V30 3242 H 300.825 -0.0701241 -3.72834 0
M  V30 3243 N 303.011 1.40521 -0.713556 0
M  V30 3244 C 304.259 2.00527 -0.251692 0
M  V30 3245 C 304.58 1.56857 1.15848 0
M  V30 3246 O 303.85 0.807127 1.785 0
M  V30 3247 H 302.43 0.741551 -0.0900646 0
M  V30 3248 H 305.092 1.71887 -0.918733 0
M  V30 3249 H 304.188 3.10813 -0.283192 0
M  V30 3250 N 304.489 0.459591 1.5075 0
M  V30 3251 C 305.905 0.113092 1.59199 0
M  V30 3252 C 306.105 -1.37951 1.46874 0
M  V30 3253 O 305.161 -2.15168 1.32132 0
M  V30 3254 C 306.474 0.653043 2.93523 0
M  V30 3255 C 308.022 0.615449 3.0689 0
M  V30 3256 C 308.497 1.13275 4.43771 0
M  V30 3257 N 309.988 1.09167 4.50152 0
M  V30 3258 C 310.723 1.46256 5.54434 0
M  V30 3259 N 310.219 1.90739 6.66026 0
M  V30 3260 N 312.012 1.37932 5.44914 0
M  V30 3261 H 304.163 1.43049 1.57005 0
M  V30 3262 H 306.426 0.590861 0.741341 0
M  V30 3263 H 306.132 1.69822 3.07983 0
M  V30 3264 H 306.006 0.0902132 3.77092 0
M  V30 3265 H 308.393 -0.420793 2.92084 0
M  V30 3266 H 308.474 1.21495 2.25106 0
M  V30 3267 H 308.118 2.16757 4.59324 0
M  V30 3268 H 308.048 0.509576 5.24129 0
M  V30 3269 H 310.539 0.76528 3.7007 0
M  V30 3270 H 310.852 2.17218 7.41644 0
M  V30 3271 H 309.197 1.94683 6.67176 0
M  V30 3272 H 312.388 1.0303 4.56621 0
M  V30 3273 H 312.561 1.67164 6.26067 0
M  V30 3274 N 305.967 -1.56429 0.191757 0
M  V30 3275 C 306.877 -2.22541 -0.742481 0
M  V30 3276 C 307.893 -1.22342 -1.23727 0
M  V30 3277 O 309.069 -1.55069 -1.28513 0
M  V30 3278 C 306.134 -2.8692 -1.94623 0
M  V30 3279 C 305.195 -4.02378 -1.49633 0
M  V30 3280 C 304.428 -4.63678 -2.6427 0
M  V30 3281 O 304.651 -4.23895 -3.81666 0
M  V30 3282 O 303.585 -5.53202 -2.37174 0
M  V30 3283 H 307.411 -3.02977 -0.209462 0
M  V30 3284 H 304.996 -1.49353 -0.0373832 0
M  V30 3285 H 306.878 -3.27663 -2.64982 0
M  V30 3286 H 305.553 -2.09466 -2.46791 0
M  V30 3287 H 304.46 -3.66265 -0.761636 0
M  V30 3288 H 305.793 -4.81487 -1.02134 0
M  V30 3289 N 307.445 0.0818655 -1.57387 0
M  V30 3290 C 308.691 0.784074 -1.8703 0
M  V30 3291 C 309.024 1.77729 -0.782689 0
M  V30 3292 O 308.299 1.93384 0.208051 0
M  V30 3293 C 308.582 1.50105 -3.27323 0
M  V30 3294 C 308.435 0.524925 -4.46727 0
M  V30 3295 C 309.754 2.44843 -3.65705 0
M  V30 3296 H 306.873 0.283582 -0.680257 0
M  V30 3297 H 309.515 0.0474352 -1.89941 0
M  V30 3298 H 307.665 2.12897 -3.24972 0
M  V30 3299 H 309.337 -0.0970111 -4.61198 0
M  V30 3300 H 307.58 -0.160606 -4.33503 0
M  V30 3301 H 308.251 1.064 -5.41648 0
M  V30 3302 H 310.727 1.92135 -3.69085 0
M  V30 3303 H 309.603 2.92018 -4.64776 0
M  V30 3304 H 309.864 3.29197 -2.95096 0
M  V30 3305 N 308.923 1.53595 0.353017 0
M  V30 3306 C 309.886 1.80232 1.41594 0
M  V30 3307 C 310.886 0.673081 1.46035 0
M  V30 3308 O 312.076 0.941335 1.46576 0
M  V30 3309 C 309.208 1.93578 2.80607 0
M  V30 3310 H 310.401 2.75174 1.19244 0
M  V30 3311 H 307.954 1.44864 0.586872 0
M  V30 3312 H 308.689 1.00746 3.08254 0
M  V30 3313 H 308.474 2.75724 2.78781 0
M  V30 3314 H 309.964 2.15735 3.57558 0
M  V30 3315 N 310.401 -0.613514 1.45168 0
M  V30 3316 C 311.331 -1.7354 1.56225 0
M  V30 3317 C 312.312 -1.64981 0.41414 0
M  V30 3318 O 313.497 -1.83472 0.636526 0
M  V30 3319 C 310.627 -3.12128 1.52295 0
M  V30 3320 C 309.581 -3.35491 2.65762 0
M  V30 3321 C 308.907 -4.74291 2.46885 0
M  V30 3322 C 310.207 -3.26325 4.0781 0
M  V30 3323 H 311.901 -1.64543 2.50132 0
M  V30 3324 H 309.447 -0.790185 1.20383 0
M  V30 3325 H 311.4 -3.90404 1.58628 0
M  V30 3326 H 310.124 -3.2195 0.549139 0
M  V30 3327 H 308.783 -2.59603 2.58847 0
M  V30 3328 H 308.431 -4.80839 1.47657 0
M  V30 3329 H 308.131 -4.9088 3.22972 0
M  V30 3330 H 309.655 -5.54775 2.55063 0
M  V30 3331 H 311.069 -3.94483 4.16 0
M  V30 3332 H 309.466 -3.54445 4.8424 0
M  V30 3333 H 310.536 -2.23855 4.30136 0
M  V30 3334 N 311.879 -1.3236 -0.855495 0
M  V30 3335 C 312.789 -1.23221 -1.99634 0
M  V30 3336 C 313.805 -0.145983 -1.73387 0
M  V30 3337 O 314.981 -0.366502 -1.98037 0
M  V30 3338 C 312.046 -0.954782 -3.33294 0
M  V30 3339 C 311.107 -2.12937 -3.72769 0
M  V30 3340 C 310.34 -1.86508 -5.00051 0
M  V30 3341 O 310.563 -0.807231 -5.64659 0
M  V30 3342 O 309.497 -2.72591 -5.36636 0
M  V30 3343 H 313.323 -2.19126 -2.1028 0
M  V30 3344 H 310.908 -1.12241 -0.986018 0
M  V30 3345 H 312.79 -0.816519 -4.13414 0
M  V30 3346 H 311.465 -0.0258854 -3.2369 0
M  V30 3347 H 310.372 -2.3231 -2.93228 0
M  V30 3348 H 311.705 -3.04102 -3.87018 0
M  V30 3349 N 313.357 1.07166 -1.15556 0
M  V30 3350 C 314.287 2.16403 -0.877046 0
M  V30 3351 C 315.268 1.69217 0.173111 0
M  V30 3352 O 316.453 1.94181 0.027084 0
M  V30 3353 C 313.583 3.45349 -0.367632 0
M  V30 3354 C 312.537 4.05995 -1.35468 0
M  V30 3355 C 311.863 5.30045 -0.704038 0
M  V30 3356 C 313.163 4.45804 -2.72132 0
M  V30 3357 H 314.857 2.39959 -1.79053 0
M  V30 3358 H 312.403 1.15325 -0.862331 0
M  V30 3359 H 314.356 4.21095 -0.160317 0
M  V30 3360 H 313.08 3.21385 0.581326 0
M  V30 3361 H 311.739 3.32296 -1.54839 0
M  V30 3362 H 311.387 5.02373 0.251128 0
M  V30 3363 H 311.087 5.71579 -1.36277 0
M  V30 3364 H 312.611 6.08495 -0.50654 0
M  V30 3365 H 314.025 5.12671 -2.56595 0
M  V30 3366 H 312.422 4.98296 -3.34397 0
M  V30 3367 H 313.492 3.57083 -3.28054 0
M  V30 3368 N 314.835 0.952656 1.25548 0
M  V30 3369 C 316.065 0.622592 1.96996 0
M  V30 3370 C 316.473 -0.809112 1.71026 0
M  V30 3371 O 315.816 -1.55258 0.981861 0
M  V30 3372 C 315.878 0.798946 3.5051 0
M  V30 3373 C 315.542 2.20744 4.00151 0
M  V30 3374 C 316.539 3.18394 4.11001 0
M  V30 3375 C 314.224 2.5311 4.33867 0
M  V30 3376 C 316.218 4.46504 4.54877 0
M  V30 3377 C 313.905 3.8145 4.7743 0
M  V30 3378 C 314.903 4.77959 4.87897 0
M  V30 3379 O 314.591 6.04012 5.30494 0
M  V30 3380 H 314.323 0.232503 0.634758 0
M  V30 3381 H 316.877 1.2789 1.60728 0
M  V30 3382 H 315.107 0.0854903 3.86605 0
M  V30 3383 H 316.796 0.47023 4.03167 0
M  V30 3384 H 317.562 2.94715 3.85186 0
M  V30 3385 H 313.441 1.78719 4.24948 0
M  V30 3386 H 316.985 5.21835 4.62962 0
M  V30 3387 H 312.882 4.04936 5.0269 0
M  V30 3388 H 313.65 6.0736 5.48685 0
M  V30 3389 N 316.313 -1.40141 0.720998 0
M  V30 3390 C 317.559 -2.01084 0.263231 0
M  V30 3391 C 317.892 -1.57052 -1.14229 0
M  V30 3392 O 317.167 -0.793027 -1.77599 0
M  V30 3393 C 317.45 -3.58401 0.349344 0
M  V30 3394 C 317.303 -4.12491 1.79363 0
M  V30 3395 C 318.622 -4.39231 -0.276351 0
M  V30 3396 H 315.741 -0.730572 0.0971228 0
M  V30 3397 H 318.383 -1.66543 0.914518 0
M  V30 3398 H 316.533 -3.87958 -0.205165 0
M  V30 3399 H 318.205 -3.93711 2.40394 0
M  V30 3400 H 316.448 -3.66576 2.31958 0
M  V30 3401 H 317.119 -5.21646 1.80524 0
M  V30 3402 H 319.595 -4.15637 0.196184 0
M  V30 3403 H 318.471 -5.48586 -0.185681 0
M  V30 3404 H 318.732 -4.20643 -1.36059 0
M  V30 3405 N 317.792 -0.46758 -1.50504 0
M  V30 3406 C 319.069 0.15003 -1.95024 0
M  V30 3407 C 319.449 1.57304 -1.40779 0
M  V30 3408 O 318.797 2.20281 -0.607319 0
M  V30 3409 C 319.007 0.0969324 -3.48865 0
M  V30 3410 C 320.355 0.287565 -4.23625 0
M  V30 3411 O 321.379 0.173678 -3.55776 0
M  V30 3412 O 320.238 0.517186 -5.44047 0
M  V30 3413 H 317.332 0.113582 -0.819163 0
M  V30 3414 H 319.878 -0.52773 -1.61286 0
M  V30 3415 H 318.65 -0.896732 -3.80886 0
M  V30 3416 H 318.273 0.816303 -3.8913 0
M  V30 3417 N 319.27 1.56325 -0.20005 0
M  V30 3418 C 320.686 1.58839 0.155716 0
M  V30 3419 C 320.886 1.21636 1.60645 0
M  V30 3420 O 319.942 0.941437 2.34293 0
M  V30 3421 C 321.255 3.0032 -0.151124 0
M  V30 3422 C 322.803 3.12866 -0.0916284 0
M  V30 3423 C 323.278 4.56488 -0.371845 0
M  V30 3424 N 324.769 4.62089 -0.320641 0
M  V30 3425 C 325.504 5.71116 -0.511243 0
M  V30 3426 N 325 6.88592 -0.762461 0
M  V30 3427 N 326.793 5.60335 -0.445157 0
M  V30 3428 H 318.944 1.78788 -1.14668 0
M  V30 3429 H 321.207 0.829996 -0.458051 0
M  V30 3430 H 320.913 3.32117 -1.15721 0
M  V30 3431 H 320.787 3.73257 0.543986 0
M  V30 3432 H 323.174 2.80878 0.905065 0
M  V30 3433 H 323.255 2.42304 -0.81989 0
M  V30 3434 H 322.899 4.89189 -1.36588 0
M  V30 3435 H 322.829 5.25246 0.377362 0
M  V30 3436 H 325.32 3.77665 -0.13329 0
M  V30 3437 H 325.633 7.67581 -0.896576 0
M  V30 3438 H 323.978 6.90387 -0.799412 0
M  V30 3439 H 327.169 4.67436 -0.249278 0
M  V30 3440 H 327.342 6.45243 -0.597116 0
M  V30 3441 N 320.748 -0.0735177 1.57428 0
M  V30 3442 C 321.996 -0.771472 1.86796 0
M  V30 3443 C 322.317 -1.78201 0.791804 0
M  V30 3444 O 321.587 -1.95074 -0.179718 0
M  V30 3445 H 320.167 -0.28791 0.689287 0
M  V30 3446 H 322.829 -0.0500161 1.94836 0
M  V30 3447 H 321.925 -1.28874 2.8425 0
M  V30 3448 N 322.226 -1.5378 -0.344866 0
M  V30 3449 C 323.174 -1.82373 -1.4437 0
M  V30 3450 C 324.168 -0.694128 -1.54526 0
M  V30 3451 O 325.374 -0.877442 -1.57165 0
M  V30 3452 H 321.749 -0.577765 -0.481344 0
M  V30 3453 H 323.72 -2.74306 -1.17468 0
M  V30 3454 C 322.469 -2.04898 -2.80913 0
M  V30 3455 H 321.792 -2.9127 -2.73865 0
M  V30 3456 H 323.232 -2.28871 -3.56923 0
M  V30 3457 C 321.691 -0.834116 -3.26411 0
M  V30 3458 O 322.221 -0.0328885 -4.01687 0
M  V30 3459 N 320.427 -0.65171 -2.83198 0
M  V30 3460 H 319.974 -1.30489 -2.22104 0
M  V30 3461 H 319.932 0.159686 -3.13994 0
M  V30 3462 N 323.704 0.605807 -1.45491 0
M  V30 3463 C 324.634 1.72709 -1.57143 0
M  V30 3464 C 325.615 1.6476 -0.422884 0
M  V30 3465 O 326.8 1.83132 -0.646247 0
M  V30 3466 C 323.93 3.11316 -1.53948 0
M  V30 3467 C 322.884 3.34077 -2.67537 0
M  V30 3468 C 322.21 4.72975 -2.49397 0
M  V30 3469 C 323.51 3.24158 -4.09535 0
M  V30 3470 H 325.204 1.63214 -2.51001 0
M  V30 3471 H 322.75 0.78379 -1.208 0
M  V30 3472 H 324.703 3.89557 -1.60696 0
M  V30 3473 H 323.427 3.21655 -0.566205 0
M  V30 3474 H 322.086 2.58227 -2.6022 0
M  V30 3475 H 321.734 4.8005 -1.50205 0
M  V30 3476 H 321.434 4.8916 -3.25571 0
M  V30 3477 H 322.958 5.53414 -2.58002 0
M  V30 3478 H 324.372 3.92271 -4.18086 0
M  V30 3479 H 322.769 3.51872 -4.86113 0
M  V30 3480 H 323.839 2.2157 -4.31317 0
M  V30 3481 N 325.182 1.32811 0.848464 0
M  V30 3482 C 326.459 1.14334 1.58704 0
M  V30 3483 C 326.839 -0.293948 2.09043 0
M  V30 3484 O 326.187 -1.29153 1.88499 0
M  V30 3485 C 326.397 2.17626 2.72837 0
M  V30 3486 C 327.745 2.51282 3.42261 0
M  V30 3487 O 328.769 2.16219 2.83068 0
M  V30 3488 O 327.628 3.11413 4.49093 0
M  V30 3489 H 324.722 0.441601 0.699226 0
M  V30 3490 H 327.268 1.44362 0.892053 0
M  V30 3491 H 326.04 3.14211 2.3321 0
M  V30 3492 H 325.663 1.88628 3.50008 0
M  V30 3493 N 326.66 -1.06551 1.16123 0
M  V30 3494 C 328.076 -1.3142 0.905585 0
M  V30 3495 C 328.276 -1.96571 -0.442964 0
M  V30 3496 O 327.332 -2.23068 -1.18308 0
M  V30 3497 C 328.645 -2.19741 2.05267 0
M  V30 3498 C 330.193 -2.33165 2.08813 0
M  V30 3499 C 330.668 -3.24838 3.22868 0
M  V30 3500 N 332.159 -3.32421 3.22568 0
M  V30 3501 C 332.894 -4.0344 4.0746 0
M  V30 3502 N 332.39 -4.77003 5.02434 0
M  V30 3503 N 334.183 -3.99464 3.95456 0
M  V30 3504 H 326.334 -0.626548 2.02949 0
M  V30 3505 H 328.597 -0.338777 0.8854 0
M  V30 3506 H 328.303 -1.79142 3.02657 0
M  V30 3507 H 328.177 -3.20313 1.99198 0
M  V30 3508 H 330.564 -2.73013 1.12018 0
M  V30 3509 H 330.645 -1.3227 2.18948 0
M  V30 3510 H 330.289 -2.85708 4.19921 0
M  V30 3511 H 330.219 -4.25707 3.0997 0
M  V30 3512 H 332.71 -2.79994 2.53795 0
M  V30 3513 H 333.023 -5.28712 5.63634 0
M  V30 3514 H 331.368 -4.75992 5.06415 0
M  V30 3515 H 334.559 -3.4111 3.20564 0
M  V30 3516 H 334.732 -4.54544 4.61837 0
M  V30 3517 N 328.138 -0.959301 -1.25041 0
M  V30 3518 C 329.101 -0.487677 -2.23952 0
M  V30 3519 C 330.101 0.41119 -1.55454 0
M  V30 3520 O 331.291 0.207825 -1.72956 0
M  V30 3521 C 328.423 0.294807 -3.39623 0
M  V30 3522 H 329.616 -1.36198 -2.67189 0
M  V30 3523 H 327.169 -0.743042 -1.37508 0
M  V30 3524 H 327.904 1.18658 -3.01813 0
M  V30 3525 H 327.689 -0.35012 -3.90534 0
M  V30 3526 H 329.179 0.614089 -4.1306 0
M  V30 3527 N 329.616 1.39756 -0.72842 0
M  V30 3528 C 331.027 1.83498 -0.344289 0
M  V30 3529 C 331.378 1.60868 1.12321 0
M  V30 3530 O 330.503 1.09634 1.86573 0
M  V30 3531 C 331.098 3.33114 -0.618112 0
M  V30 3532 C 329.657 3.753 -0.287549 0
M  V30 3533 C 328.804 2.62831 -0.884048 0
M  V30 3534 H 331.755 1.28842 -0.926578 0
M  V30 3535 H 331.776 3.80334 0.112349 0
M  V30 3536 H 331.288 3.49553 -1.68625 0
M  V30 3537 H 329.389 3.64451 0.775012 0
M  V30 3538 H 329.502 4.72945 -0.765512 0
M  V30 3539 H 327.866 2.52792 -0.311149 0
M  V30 3540 H 328.649 2.82078 -1.95671 0
M  V30 3541 N 331.094 0.475555 1.50254 0
M  V30 3542 C 332.34 -0.0701075 2.03279 0
M  V30 3543 C 332.695 -1.37007 1.35081 0
M  V30 3544 O 331.988 -1.8577 0.469052 0
M  V30 3545 C 332.182 -0.305114 3.56095 0
M  V30 3546 C 332.011 0.970515 4.39103 0
M  V30 3547 C 330.781 1.51509 4.82051 0
M  V30 3548 C 332.979 1.8671 4.79212 0
M  V30 3549 N 330.961 2.73928 5.49397 0
M  V30 3550 C 332.332 2.93715 5.46014 0
M  V30 3551 C 334.387 1.87695 4.61167 0
M  V30 3552 C 333.09 4.01699 5.96683 0
M  V30 3553 C 335.116 2.94637 5.12779 0
M  V30 3554 C 334.478 4.00361 5.79561 0
M  V30 3555 H 330.577 0.014486 0.781866 0
M  V30 3556 H 333.161 0.644755 1.83714 0
M  V30 3557 H 331.332 -0.989019 3.75597 0
M  V30 3558 H 333.064 -0.845516 3.95769 0
M  V30 3559 H 329.819 1.06367 4.61501 0
M  V30 3560 H 330.243 3.36109 5.87673 0
M  V30 3561 H 334.885 1.07273 4.08965 0
M  V30 3562 H 332.603 4.82934 6.4792 0
M  V30 3563 H 336.189 2.96388 5.00645 0
M  V30 3564 H 335.069 4.81751 6.18778 0
M  V30 3565 N 332.573 -1.56217 0.208337 0
M  V30 3566 C 333.536 -2.18455 -0.693557 0
M  V30 3567 C 334.536 -1.14268 -1.13135 0
M  V30 3568 O 335.726 -1.39577 -1.0423 0
M  V30 3569 C 332.858 -2.79727 -1.94848 0
M  V30 3570 H 334.051 -2.99519 -0.15114 0
M  V30 3571 H 331.604 -1.56245 -0.041287 0
M  V30 3572 H 332.339 -2.02497 -2.53309 0
M  V30 3573 H 332.124 -3.56009 -1.64316 0
M  V30 3574 H 333.614 -3.27475 -2.59133 0
M  V30 3575 N 334.051 0.0651679 -1.57465 0
M  V30 3576 C 334.984 1.10876 -1.99453 0
M  V30 3577 C 335.962 1.37205 -0.872555 0
M  V30 3578 O 337.146 1.50468 -1.13542 0
M  V30 3579 C 334.273 2.45167 -2.3369 0
M  V30 3580 C 333.319 2.3493 -3.55964 0
M  V30 3581 S 334.152 1.73708 -5.06543 0
M  V30 3582 C 335.308 3.09563 -5.43987 0
M  V30 3583 H 335.541 0.750967 -2.87659 0
M  V30 3584 H 333.074 0.273933 -1.51951 0
M  V30 3585 H 335.032 3.22412 -2.54088 0
M  V30 3586 H 333.693 2.78105 -1.46001 0
M  V30 3587 H 332.886 3.3398 -3.77457 0
M  V30 3588 H 332.488 1.65823 -3.3523 0
M  V30 3589 H 334.78 4.05882 -5.42463 0
M  V30 3590 H 335.723 2.92843 -6.44708 0
M  V30 3591 H 336.131 3.10474 -4.71451 0
M  V30 3592 N 335.529 1.53961 0.336706 0
M  V30 3593 C 336.757 1.75483 1.09605 0
M  V30 3594 C 337.172 0.4972 1.82136 0
M  V30 3595 O 336.529 -0.53149 1.74589 0
M  V30 3596 C 336.58 2.93943 2.10428 0
M  V30 3597 O 336.301 4.14842 1.40846 0
M  V30 3598 C 337.802 3.27571 2.98684 0
M  V30 3599 H 335.022 0.586166 0.326574 0
M  V30 3600 H 337.566 2.00808 0.38683 0
M  V30 3601 H 335.721 2.70929 2.76905 0
M  V30 3602 H 336.135 4.81383 2.08255 0
M  V30 3603 H 337.609 4.13791 3.6535 0
M  V30 3604 H 338.086 2.44168 3.65074 0
M  V30 3605 H 338.692 3.52615 2.37787 0
M  V30 3606 N 337.007 -0.598083 1.45811 0
M  V30 3607 C 338.232 -1.3881 1.54099 0
M  V30 3608 C 338.657 -1.8726 0.177578 0
M  V30 3609 O 338.015 -1.6069 -0.839541 0
M  V30 3610 C 338.063 -2.56217 2.53743 0
M  V30 3611 O 337.167 -3.5716 2.06182 0
M  V30 3612 H 336.508 -0.414024 0.519115 0
M  V30 3613 H 339.038 -0.726971 1.91249 0
M  V30 3614 H 339.048 -3.03337 2.72856 0
M  V30 3615 H 337.723 -2.20303 3.5276 0
M  V30 3616 H 336.3 -3.16624 1.96987 0
M  V30 3617 N 338.485 -1.33259 -0.841409 0
M  V30 3618 C 339.415 -1.25926 -1.96634 0
M  V30 3619 C 340.396 -0.140349 -1.6952 0
M  V30 3620 O 341.581 -0.329707 -1.91381 0
M  V30 3621 C 338.711 -0.99512 -3.32738 0
M  V30 3622 C 337.665 -2.0767 -3.74242 0
M  V30 3623 C 336.991 -1.66474 -5.08125 0
M  V30 3624 C 338.291 -3.49318 -3.88297 0
M  V30 3625 H 339.985 -2.20046 -2.03027 0
M  V30 3626 H 337.531 -1.05931 -0.975425 0
M  V30 3627 H 339.484 -0.930323 -4.11002 0
M  V30 3628 H 338.208 -0.0183004 -3.26595 0
M  V30 3629 H 336.867 -2.13187 -2.98239 0
M  V30 3630 H 336.515 -0.675012 -4.9845 0
M  V30 3631 H 336.215 -2.3885 -5.36865 0
M  V30 3632 H 337.739 -1.61455 -5.88867 0
M  V30 3633 H 339.153 -3.46316 -4.56879 0
M  V30 3634 H 337.55 -4.20158 -4.28471 0
M  V30 3635 H 338.62 -3.8801 -2.9082 0
M  V30 3636 N 339.963 1.05934 -1.16686 0
M  V30 3637 C 340.91 2.13499 -0.876748 0
M  V30 3638 C 341.88 1.65162 0.176299 0
M  V30 3639 O 343.065 1.90757 0.0407143 0
M  V30 3640 C 340.205 3.42912 -0.387967 0
M  V30 3641 C 339.318 4.04964 -1.50426 0
M  V30 3642 C 338.453 5.22266 -0.970125 0
M  V30 3643 C 337.492 5.76309 -2.06238 0
M  V30 3644 N 336.629 6.84922 -1.54356 0
M  V30 3645 H 341.469 2.37654 -1.7979 0
M  V30 3646 H 339.006 1.16598 -0.896843 0
M  V30 3647 H 340.964 4.17111 -0.086186 0
M  V30 3648 H 339.594 3.18963 0.496235 0
M  V30 3649 H 338.646 3.28277 -1.92193 0
M  V30 3650 H 339.958 4.41122 -2.32836 0
M  V30 3651 H 339.112 6.03506 -0.621743 0
M  V30 3652 H 337.851 4.87564 -0.115377 0
M  V30 3653 H 336.856 4.93704 -2.41942 0
M  V30 3654 H 338.081 6.13062 -2.92115 0
M  V30 3655 H 336.027 6.52131 -0.711406 0
M  V30 3656 H 335.944 7.20043 -2.30379 0
M  V30 3657 H 337.212 7.69832 -1.22387 0
M  V30 3658 N 341.441 0.965919 1.2453 0
M  V30 3659 C 342.389 0.486506 2.27455 0
M  V30 3660 C 343.383 -0.449041 1.6334 0
M  V30 3661 O 344.589 -0.324527 1.7705 0
M  V30 3662 H 340.964 0.138857 0.739069 0
M  V30 3663 H 342.935 1.3666 2.65267 0
M  V30 3664 C 341.684 -0.209481 3.47068 0
M  V30 3665 H 341.007 0.50129 3.96645 0
M  V30 3666 H 342.447 -0.508775 4.20936 0
M  V30 3667 C 340.906 -1.43586 3.0477 0
M  V30 3668 O 341.436 -2.53299 3.11773 0
M  V30 3669 N 339.642 -1.30126 2.59838 0
M  V30 3670 H 339.189 -0.408583 2.54339 0
M  V30 3671 H 339.147 -2.12294 2.31902 0
M  V30 3672 N 342.919 -1.39368 0.735821 0
M  V30 3673 C 344.144 -2.05319 0.293052 0
M  V30 3674 C 344.569 -1.55115 -1.064 0
M  V30 3675 O 343.927 -0.695261 -1.67439 0
M  V30 3676 C 343.975 -3.59305 0.305323 0
M  V30 3677 O 343.079 -4.06299 -0.706761 0
M  V30 3678 H 342.42 -0.650529 0.13307 0
M  V30 3679 H 344.95 -1.78386 1.00197 0
M  V30 3680 H 344.96 -4.07724 0.149997 0
M  V30 3681 H 343.635 -3.95207 1.29553 0
M  V30 3682 H 342.212 -3.69292 -0.517504 0
M  V30 3683 N 344.397 -0.483516 -1.5 0
M  V30 3684 C 345.33 0.350427 -2.25493 0
M  V30 3685 C 346.308 0.985549 -1.29328 0
M  V30 3686 O 347.492 1.01906 -1.58579 0
M  V30 3687 C 344.619 1.49202 -3.04066 0
M  V30 3688 C 343.665 0.973036 -4.15252 0
M  V30 3689 S 344.498 -0.122237 -5.3536 0
M  V30 3690 C 345.654 1.02294 -6.17484 0
M  V30 3691 H 345.887 -0.290381 -2.95878 0
M  V30 3692 H 343.42 -0.268562 -1.52046 0
M  V30 3693 H 345.378 2.14623 -3.49925 0
M  V30 3694 H 344.039 2.10438 -2.33183 0
M  V30 3695 H 343.232 1.82804 -4.69679 0
M  V30 3696 H 342.834 0.396335 -3.71894 0
M  V30 3697 H 345.126 1.93195 -6.49371 0
M  V30 3698 H 346.069 0.517664 -7.06205 0
M  V30 3699 H 346.477 1.28238 -5.49741 0
M  V30 3700 N 345.875 1.56104 -0.216619 0
M  V30 3701 C 346.822 2.2007 0.695531 0
M  V30 3702 C 347.792 1.15471 1.19397 0
M  V30 3703 O 348.977 1.43807 1.25396 0
M  V30 3704 C 346.117 2.88073 1.90021 0
M  V30 3705 C 345.23 4.07253 1.44113 0
M  V30 3706 C 344.365 4.63052 2.603 0
M  V30 3707 C 343.404 5.74545 2.11103 0
M  V30 3708 N 342.541 6.24656 3.20545 0
M  V30 3709 H 347.381 2.97655 0.143327 0
M  V30 3710 H 344.918 1.46982 0.0589934 0
M  V30 3711 H 346.876 3.25681 2.60745 0
M  V30 3712 H 345.506 2.13015 2.42538 0
M  V30 3713 H 344.558 3.75164 0.628999 0
M  V30 3714 H 345.87 4.8783 1.04036 0
M  V30 3715 H 345.024 5.03078 3.39113 0
M  V30 3716 H 343.763 3.81628 3.03663 0
M  V30 3717 H 342.768 5.34027 1.3075 0
M  V30 3718 H 343.993 6.57801 1.68746 0
M  V30 3719 H 341.939 5.46148 3.63399 0
M  V30 3720 H 341.856 7.00343 2.84704 0
M  V30 3721 H 343.124 6.69338 3.99508 0
M  V30 3722 N 347.353 -0.0568162 1.57498 0
M  V30 3723 C 348.599 -0.748893 1.89111 0
M  V30 3724 C 348.954 -1.74422 0.81208 0
M  V30 3725 O 348.247 -1.90731 -0.182247 0
M  V30 3726 C 348.441 -1.48359 3.25153 0
M  V30 3727 C 348.27 -0.560924 4.46188 0
M  V30 3728 C 347.04 -0.192264 5.04934 0
M  V30 3729 C 349.238 0.148824 5.14085 0
M  V30 3730 N 347.22 0.734555 6.0949 0
M  V30 3731 C 348.591 0.932286 6.12951 0
M  V30 3732 C 350.646 0.218713 4.97419 0
M  V30 3733 C 349.349 1.77917 6.96949 0
M  V30 3734 C 351.375 1.05262 5.81957 0
M  V30 3735 C 350.737 1.82409 6.80372 0
M  V30 3736 H 346.836 -0.249002 0.741298 0
M  V30 3737 H 349.42 -0.00984926 1.94698 0
M  V30 3738 H 347.591 -2.19326 3.20547 0
M  V30 3739 H 349.323 -2.12586 3.44368 0
M  V30 3740 H 346.078 -0.548421 4.70414 0
M  V30 3741 H 346.502 1.19165 6.6643 0
M  V30 3742 H 351.144 -0.363407 4.21235 0
M  V30 3743 H 348.862 2.3722 7.72497 0
M  V30 3744 H 352.448 1.10987 5.71116 0
M  V30 3745 H 351.328 2.45895 7.44651 0
M  V30 3746 N 348.832 -1.54138 -0.328536 0
M  V30 3747 C 350.109 -1.62749 -1.08499 0
M  V30 3748 C 350.489 -0.458198 -2.06067 0
M  V30 3749 O 349.837 0.548046 -2.2183 0
M  V30 3750 C 350.047 -2.99519 -1.79135 0
M  V30 3751 C 351.395 -3.55394 -2.32337 0
M  V30 3752 O 352.419 -3.01792 -1.89209 0
M  V30 3753 O 351.278 -4.49186 -3.11279 0
M  V30 3754 H 348.372 -0.65886 -0.499832 0
M  V30 3755 H 350.918 -1.66484 -0.328826 0
M  V30 3756 H 349.69 -3.76061 -1.08139 0
M  V30 3757 H 349.313 -2.99441 -2.61574 0
M  V30 3758 N 350.31 0.590341 -1.46126 0
M  V30 3759 C 351.22 1.72793 -1.58681 0
M  V30 3760 C 352.236 1.67516 -0.470566 0
M  V30 3761 O 353.412 1.87562 -0.733642 0
M  V30 3762 C 350.477 3.09287 -1.5666 0
M  V30 3763 C 349.538 3.25886 -2.79458 0
M  V30 3764 C 348.771 4.55869 -2.77524 0
M  V30 3765 O 348.994 5.3928 -1.85832 0
M  V30 3766 O 347.928 4.75552 -3.68964 0
M  V30 3767 H 351.754 1.65149 -2.54872 0
M  V30 3768 H 349.339 0.756486 -1.28832 0
M  V30 3769 H 351.221 3.90577 -1.58202 0
M  V30 3770 H 349.896 3.17385 -0.636271 0
M  V30 3771 H 348.803 2.44119 -2.83472 0
M  V30 3772 H 350.136 3.22675 -3.71674 0
M  V30 3773 N 351.788 1.33704 0.83433 0
M  V30 3774 C 352.698 1.26382 1.97648 0
M  V30 3775 C 353.714 0.173548 1.73132 0
M  V30 3776 O 354.89 0.397962 1.97429 0
M  V30 3777 C 351.955 1.00769 3.31733 0
M  V30 3778 C 351.016 2.1884 3.69334 0
M  V30 3779 C 350.249 1.9444 4.9702 0
M  V30 3780 O 350.472 0.896961 5.63303 0
M  V30 3781 O 349.406 2.81093 5.32231 0
M  V30 3782 H 353.232 2.22444 2.06767 0
M  V30 3783 H 350.817 1.13795 0.968037 0
M  V30 3784 H 352.699 0.882186 4.12062 0
M  V30 3785 H 351.374 0.0773783 3.23608 0
M  V30 3786 H 350.281 2.36946 2.89495 0
M  V30 3787 H 351.614 3.10221 3.82131 0
M  V30 3788 N 353.266 -1.05314 1.17247 0
M  V30 3789 C 354.682 -1.30452 0.919473 0
M  V30 3790 C 354.882 -1.9703 -0.42209 0
M  V30 3791 O 353.938 -2.24311 -1.15935 0
M  V30 3792 C 355.251 -2.17551 2.07586 0
M  V30 3793 C 356.799 -2.30937 2.11275 0
M  V30 3794 C 357.274 -3.21396 3.26296 0
M  V30 3795 N 358.765 -3.28981 3.26076 0
M  V30 3796 C 359.5 -3.99095 4.11716 0
M  V30 3797 N 358.996 -4.71648 5.07465 0
M  V30 3798 N 360.789 -3.95247 3.9967 0
M  V30 3799 H 352.94 -0.604988 2.03602 0
M  V30 3800 H 355.203 -0.329368 0.888944 0
M  V30 3801 H 354.909 -1.75921 3.0454 0
M  V30 3802 H 354.783 -3.18182 2.02584 0
M  V30 3803 H 357.17 -2.71809 1.14907 0
M  V30 3804 H 357.251 -1.2994 2.20339 0
M  V30 3805 H 356.895 -2.81238 4.22927 0
M  V30 3806 H 356.825 -4.22395 3.14467 0
M  V30 3807 H 359.316 -2.77286 2.5675 0
M  V30 3808 H 359.629 -5.22705 5.6921 0
M  V30 3809 H 357.974 -4.70594 5.11435 0
M  V30 3810 H 361.165 -3.37691 3.24164 0
M  V30 3811 H 361.338 -4.4962 4.66632 0
M  V30 3812 N 354.744 -0.972509 -1.24016 0
M  V30 3813 C 355.991 -0.637034 -1.92219 0
M  V30 3814 C 356.319 0.828418 -1.75976 0
M  V30 3815 O 355.574 1.61206 -1.10955 0
M  V30 3816 C 355.873 -0.963694 -3.44162 0
M  V30 3817 C 355.539 -2.41807 -3.80579 0
M  V30 3818 C 354.201 -2.81556 -3.9023 0
M  V30 3819 C 356.553 -3.36172 -3.98293 0
M  V30 3820 C 353.881 -4.14702 -4.15017 0
M  V30 3821 C 356.233 -4.68952 -4.24578 0
M  V30 3822 C 354.897 -5.08472 -4.32449 0
M  V30 3823 H 354.167 -0.233107 -0.703379 0
M  V30 3824 H 356.814 -1.2249 -1.47202 0
M  V30 3825 H 355.119 -0.29365 -3.90698 0
M  V30 3826 H 356.816 -0.682449 -3.9515 0
M  V30 3827 H 353.406 -2.09988 -3.73635 0
M  V30 3828 H 357.59 -3.06644 -3.90234 0
M  V30 3829 H 352.846 -4.4494 -4.19331 0
M  V30 3830 H 357.02 -5.42037 -4.37229 0
M  V30 3831 H 354.647 -6.11665 -4.51409 0
M  V30 3832 N 356.222 1.38976 -0.743202 0
M  V30 3833 C 357.47 1.99948 -0.29417 0
M  V30 3834 C 357.791 1.59279 1.12495 0
M  V30 3835 O 357.061 0.844808 1.76748 0
M  V30 3836 H 355.641 0.739473 -0.105774 0
M  V30 3837 H 358.303 1.699 -0.954986 0
M  V30 3838 H 357.399 3.10142 -0.349056 0
M  V30 3839 N 357.7 0.491464 1.49741 0
M  V30 3840 C 358.63 -0.28154 2.31796 0
M  V30 3841 C 359.611 -0.971473 1.3963 0
M  V30 3842 O 360.796 -0.964719 1.68543 0
M  V30 3843 C 357.926 -1.35203 3.19902 0
M  V30 3844 C 356.88 -0.782529 4.20786 0
M  V30 3845 C 356.206 -1.95283 4.97764 0
M  V30 3846 C 357.506 0.21999 5.21837 0
M  V30 3847 H 359.2 0.403355 2.96671 0
M  V30 3848 H 356.746 0.195425 1.42668 0
M  V30 3849 H 358.699 -1.90045 3.76113 0
M  V30 3850 H 357.423 -2.06598 2.52953 0
M  V30 3851 H 356.082 -0.255928 3.65706 0
M  V30 3852 H 355.73 -2.65423 4.2727 0
M  V30 3853 H 355.43 -1.57789 5.66018 0
M  V30 3854 H 356.954 -2.50577 5.56816 0
M  V30 3855 H 358.368 -0.23996 5.72798 0
M  V30 3856 H 356.765 0.51026 5.97927 0
M  V30 3857 H 357.835 1.13911 4.7133 0
M  V30 3858 N 359.178 -1.55987 0.224894 0
M  V30 3859 C 360.088 -2.24066 -0.69511 0
M  V30 3860 C 361.104 -1.24939 -1.21104 0
M  V30 3861 O 362.28 -1.5776 -1.25195 0
M  V30 3862 C 359.345 -2.90983 -1.88493 0
M  V30 3863 C 358.406 -4.05462 -1.41064 0
M  V30 3864 C 357.639 -4.69179 -2.54375 0
M  V30 3865 O 357.862 -4.31895 -3.72589 0
M  V30 3866 O 356.796 -5.58108 -2.25386 0
M  V30 3867 H 360.622 -3.03353 -0.145149 0
M  V30 3868 H 358.207 -1.49399 -0.00569476 0
M  V30 3869 H 360.089 -3.33209 -2.57972 0
M  V30 3870 H 358.764 -2.14653 -2.42293 0
M  V30 3871 H 357.671 -3.67798 -0.683774 0
M  V30 3872 H 359.004 -4.83545 -0.918985 0
M  V30 3873 N 360.656 0.0484629 -1.57525 0
M  V30 3874 C 361.886 0.754326 -1.92337 0
M  V30 3875 C 362.294 1.70443 -0.82132 0
M  V30 3876 O 361.637 1.82466 0.21254 0
M  V30 3877 C 361.699 1.58231 -3.22805 0
M  V30 3878 C 361.363 0.799074 -4.4996 0
M  V30 3879 C 362.36 0.1079 -5.19788 0
M  V30 3880 C 360.045 0.759345 -4.96527 0
M  V30 3881 C 362.039 -0.612516 -6.3445 0
M  V30 3882 C 359.726 0.0351713 -6.1109 0
M  V30 3883 C 360.724 -0.649537 -6.79904 0
M  V30 3884 O 360.412 -1.36199 -7.92278 0
M  V30 3885 H 360.144 0.218257 -0.639797 0
M  V30 3886 H 362.698 0.0159295 -2.05394 0
M  V30 3887 H 360.928 2.36406 -3.06021 0
M  V30 3888 H 362.617 2.16898 -3.43089 0
M  V30 3889 H 363.383 0.129748 -4.84826 0
M  V30 3890 H 359.262 1.28177 -4.42822 0
M  V30 3891 H 362.806 -1.14751 -6.88097 0
M  V30 3892 H 358.703 0.0113314 -6.45499 0
M  V30 3893 H 359.471 -1.27366 -8.0853 0
M  V30 3894 N 362.134 1.5431 0.320358 0
M  V30 3895 C 363.411 1.63322 1.07635 0
M  V30 3896 C 363.791 0.46912 2.05821 0
M  V30 3897 O 363.139 -0.536274 2.22118 0
M  V30 3898 C 363.349 3.00465 1.77544 0
M  V30 3899 C 364.697 3.56621 2.30449 0
M  V30 3900 O 365.721 3.02791 1.87606 0
M  V30 3901 O 364.58 4.5083 3.08892 0
M  V30 3902 H 361.674 0.661502 0.496331 0
M  V30 3903 H 364.22 1.66656 0.319992 0
M  V30 3904 H 362.992 3.76629 1.06143 0
M  V30 3905 H 362.615 3.00824 2.59982 0
M  V30 3906 N 363.613 -0.582584 1.46437 0
M  V30 3907 C 364.543 -1.70187 1.59871 0
M  V30 3908 C 365.524 -1.64066 0.449042 0
M  V30 3909 O 366.709 -1.82081 0.6753 0
M  V30 3910 C 363.839 -3.08827 1.58881 0
M  V30 3911 C 362.793 -3.29779 2.72819 0
M  V30 3912 C 362.119 -4.68947 2.5689 0
M  V30 3913 C 363.419 -3.17601 4.1464 0
M  V30 3914 H 365.113 -1.592 2.53566 0
M  V30 3915 H 362.659 -0.764472 1.22032 0
M  V30 3916 H 364.612 -3.86951 1.66873 0
M  V30 3917 H 363.336 -3.20713 0.617306 0
M  V30 3918 H 361.995 -2.54054 2.64296 0
M  V30 3919 H 361.643 -4.77599 1.57823 0
M  V30 3920 H 361.343 -4.83919 3.33312 0
M  V30 3921 H 362.867 -5.4924 2.66773 0
M  V30 3922 H 364.281 -3.8557 4.24274 0
M  V30 3923 H 362.678 -3.44094 4.9165 0
M  V30 3924 H 363.748 -2.14681 4.34788 0
M  V30 3925 N 365.091 -1.34144 -0.827227 0
M  V30 3926 C 366.368 -1.16844 -1.56865 0
M  V30 3927 C 366.748 0.260654 -2.09485 0
M  V30 3928 O 366.096 1.26138 -1.9053 0
M  V30 3929 C 366.306 -2.21939 -2.6934 0
M  V30 3930 C 367.654 -2.56695 -3.3822 0
M  V30 3931 O 368.678 -2.20695 -2.79593 0
M  V30 3932 O 367.537 -3.18518 -4.44082 0
M  V30 3933 H 364.631 -0.452669 -0.692112 0
M  V30 3934 H 367.177 -1.45763 -0.868973 0
M  V30 3935 H 365.949 -3.17882 -2.28182 0
M  V30 3936 H 365.572 -1.94172 -3.46962 0
M  V30 3937 N 366.569 1.04691 -1.17803 0
M  V30 3938 C 367.818 1.77176 -0.963931 0
M  V30 3939 C 368.131 1.88888 0.508015 0
M  V30 3940 O 369.337 2.58164 0.840465 0
M  V30 3941 C 367.793 3.18518 -1.67555 0
M  V30 3942 C 367.401 3.14919 -3.18637 0
M  V30 3943 C 369.145 3.95424 -1.54402 0
M  V30 3944 C 367.052 4.51081 -3.82466 0
M  V30 3945 H 365.982 0.664116 -0.357023 0
M  V30 3946 H 368.633 1.17303 -1.4111 0
M  V30 3947 H 367.015 3.78748 -1.15613 0
M  V30 3948 H 368.189 2.64178 -3.77554 0
M  V30 3949 H 366.504 2.51512 -3.31859 0
M  V30 3950 H 369.101 4.96106 -1.99456 0
M  V30 3951 H 369.444 4.13343 -0.495329 0
M  V30 3952 H 369.977 3.41754 -2.0359 0
M  V30 3953 H 366.716 4.38368 -4.87354 0
M  V30 3954 H 366.236 5.01951 -3.28337 0
M  V30 3955 H 367.915 5.2001 -3.84965 0
M  V30 3956 N 368.047 0.979072 1.23499 0
M  V30 3957 C 369.277 0.664237 1.95631 0
M  V30 3958 C 369.685 -0.772653 1.72704 0
M  V30 3959 O 369.028 -1.53141 1.01457 0
M  V30 3960 C 369.09 0.873115 3.48736 0
M  V30 3961 C 368.754 2.29182 3.95379 0
M  V30 3962 C 369.751 3.2704 4.04155 0
M  V30 3963 C 367.436 2.62256 4.28401 0
M  V30 3964 C 369.43 4.56052 4.45304 0
M  V30 3965 C 367.117 3.91491 4.69231 0
M  V30 3966 C 368.115 4.88201 4.77649 0
M  V30 3967 O 367.803 6.15129 5.17563 0
M  V30 3968 H 367.535 0.245915 0.629684 0
M  V30 3969 H 370.089 1.3127 1.57979 0
M  V30 3970 H 368.319 0.167476 3.86337 0
M  V30 3971 H 370.008 0.555642 4.02079 0
M  V30 3972 H 370.774 3.02819 3.78848 0
M  V30 3973 H 366.653 1.87692 4.21061 0
M  V30 3974 H 370.197 5.31538 4.51789 0
M  V30 3975 H 366.094 4.15508 4.93987 0
M  V30 3976 H 366.862 6.18862 5.35679 0
M  V30 3977 N 369.525 -1.3858 0.750561 0
M  V30 3978 C 370.458 -2.28095 0.0693139 0
M  V30 3979 C 371.436 -1.45217 -0.731491 0
M  V30 3980 O 372.62 -1.74587 -0.71076 0
M  V30 3981 C 369.747 -3.26282 -0.90871 0
M  V30 3982 C 368.793 -4.26056 -0.194507 0
M  V30 3983 S 369.626 -5.24026 1.10257 0
M  V30 3984 C 370.782 -6.2577 0.127542 0
M  V30 3985 H 371.015 -2.85526 0.8284 0
M  V30 3986 H 368.548 -1.44536 0.543014 0
M  V30 3987 H 370.506 -3.83367 -1.46766 0
M  V30 3988 H 369.167 -2.6784 -1.64075 0
M  V30 3989 H 368.36 -4.95249 -0.93512 0
M  V30 3990 H 367.962 -3.72852 0.292837 0
M  V30 3991 H 370.254 -6.73796 -0.707516 0
M  V30 3992 H 371.197 -7.03712 0.787044 0
M  V30 3993 H 371.605 -5.63938 -0.251803 0
M  V30 3994 N 371.003 -0.499398 -1.49478 0
M  V30 3995 C 372.252 0.0475259 -2.01644 0
M  V30 3996 C 372.565 1.38195 -1.38425 0
M  V30 3997 O 373.771 2.01547 -1.8191 0
M  V30 3998 C 372.227 0.135164 -3.59646 0
M  V30 3999 C 371.835 -1.19252 -4.31837 0
M  V30 4000 C 373.579 0.632538 -4.19761 0
M  V30 4001 C 371.486 -1.06713 -5.81693 0
M  V30 4002 H 370.416 0.0215349 -0.753692 0
M  V30 4003 H 373.067 -0.638577 -1.7203 0
M  V30 4004 H 371.449 0.885681 -3.85969 0
M  V30 4005 H 372.623 -1.9562 -4.17216 0
M  V30 4006 H 370.938 -1.62321 -3.83459 0
M  V30 4007 H 373.535 0.743833 -5.29501 0
M  V30 4008 H 373.878 1.63098 -3.83021 0
M  V30 4009 H 374.411 -0.0613987 -3.97753 0
M  V30 4010 H 371.15 -2.03979 -6.22955 0
M  V30 4011 H 370.67 -0.344307 -5.98811 0
M  V30 4012 H 372.349 -0.745208 -6.42694 0
M  V30 4013 N 372.481 1.55866 -0.233164 0
M  V30 4014 C 373.727 1.98897 0.395959 0
M  V30 4015 C 374.06 1.12091 1.58585 0
M  V30 4016 O 373.335 0.181182 1.93654 0
M  V30 4017 C 373.618 3.50658 0.819224 0
M  V30 4018 C 373.471 4.48233 -0.375109 0
M  V30 4019 C 374.79 4.07135 1.67121 0
M  V30 4020 H 371.909 0.723102 0.142451 0
M  V30 4021 H 374.551 1.87082 -0.331725 0
M  V30 4022 H 372.701 3.60857 1.43925 0
M  V30 4023 H 374.373 4.50031 -1.01341 0
M  V30 4024 H 372.616 4.21624 -1.02058 0
M  V30 4025 H 373.287 5.51988 -0.0358328 0
M  V30 4026 H 375.763 3.99952 1.14795 0
M  V30 4027 H 374.639 5.13615 1.93625 0
M  V30 4028 H 374.9 3.54736 2.63846 0
M  V30 4029 N 373.959 -0.0401083 1.57549 0
M  V30 4030 C 374.922 -1.02871 2.04817 0
M  V30 4031 C 375.922 -1.29708 0.950388 0
M  V30 4032 O 377.112 -1.24897 1.21435 0
M  V30 4033 C 374.244 -2.36443 2.45576 0
M  V30 4034 H 375.437 -0.620631 2.93408 0
M  V30 4035 H 372.99 -0.286667 1.53649 0
M  V30 4036 H 373.725 -2.82021 1.60108 0
M  V30 4037 H 373.51 -2.18296 3.25713 0
M  V30 4038 H 375 -3.07441 2.82612 0
M  V30 4039 N 375.437 -1.54477 -0.31217 0
M  V30 4040 C 376.683 -1.73483 -1.0503 0
M  V30 4041 C 377.016 -0.513125 -1.87298 0
M  V30 4042 O 376.291 0.489864 -1.8823 0
M  V30 4043 C 376.574 -3.01723 -1.96558 0
M  V30 4044 C 376.427 -4.3417 -1.17545 0
M  V30 4045 C 377.746 -3.25772 -2.95907 0
M  V30 4046 H 374.865 -0.631222 -0.380432 0
M  V30 4047 H 377.507 -1.87184 -0.325932 0
M  V30 4048 H 375.657 -2.90174 -2.58324 0
M  V30 4049 H 377.329 -4.5762 -0.581513 0
M  V30 4050 H 375.572 -4.31159 -0.477925 0
M  V30 4051 H 376.243 -5.20143 -1.84811 0
M  V30 4052 H 378.719 -3.36857 -2.44267 0
M  V30 4053 H 377.595 -4.16838 -3.57123 0
M  V30 4054 H 377.856 -2.43537 -3.68974 0
M  V30 4055 N 376.915 0.57481 -1.46744 0
M  V30 4056 C 378.192 1.3352 -1.4294 0
M  V30 4057 C 378.572 2.10775 -0.117009 0
M  V30 4058 O 377.92 2.09966 0.901474 0
M  V30 4059 C 378.13 2.25456 -2.66403 0
M  V30 4060 C 379.478 2.87035 -3.12883 0
M  V30 4061 O 380.502 2.35766 -2.67007 0
M  V30 4062 O 379.361 3.80179 -3.92589 0
M  V30 4063 H 376.455 0.600318 -0.568812 0
M  V30 4064 H 379.001 0.595171 -1.58921 0
M  V30 4065 H 377.773 1.67851 -3.53471 0
M  V30 4066 H 377.396 3.06785 -2.52921 0
M  V30 4067 N 378.394 1.34581 0.820102 0
M  V30 4068 C 379.641 1.27096 1.57648 0
M  V30 4069 C 379.969 -0.158317 1.93855 0
M  V30 4070 O 379.224 -1.12028 1.60463 0
M  V30 4071 C 379.523 2.10997 2.8847 0
M  V30 4072 C 379.189 3.59966 2.71543 0
M  V30 4073 C 377.851 4.00575 2.66634 0
M  V30 4074 C 380.203 4.54548 2.55021 0
M  V30 4075 C 377.531 5.33953 2.43128 0
M  V30 4076 C 379.883 5.88109 2.33047 0
M  V30 4077 C 378.547 6.27878 2.26552 0
M  V30 4078 H 377.817 0.465078 0.576874 0
M  V30 4079 H 380.464 1.6635 0.948671 0
M  V30 4080 H 378.769 1.6458 3.55557 0
M  V30 4081 H 380.466 2.0255 3.46084 0
M  V30 4082 H 377.056 3.27733 2.76205 0
M  V30 4083 H 381.24 4.24069 2.57835 0
M  V30 4084 H 376.496 5.63781 2.3656 0
M  V30 4085 H 380.67 6.60985 2.19251 0
M  V30 4086 H 378.297 7.31162 2.081 0
M  V30 4087 N 379.872 -1.04064 1.18357 0
M  V30 4088 C 381.119 -1.77265 0.978947 0
M  V30 4089 C 381.447 -1.88189 -0.491428 0
M  V30 4090 O 380.702 -1.38653 -1.38108 0
M  V30 4091 C 381.001 -3.20634 1.57888 0
M  V30 4092 C 380.667 -3.29743 3.07539 0
M  V30 4093 C 379.329 -3.31937 3.48384 0
M  V30 4094 C 381.681 -3.29841 4.03552 0
M  V30 4095 C 379.009 -3.3187 4.83818 0
M  V30 4096 C 381.361 -3.31313 5.38901 0
M  V30 4097 C 380.025 -3.31799 5.79194 0
M  V30 4098 H 379.295 -0.648659 0.358222 0
M  V30 4099 H 381.942 -1.22225 1.47422 0
M  V30 4100 H 380.247 -3.78675 1.00561 0
M  V30 4101 H 381.944 -3.75917 1.39598 0
M  V30 4102 H 378.534 -3.28757 2.74986 0
M  V30 4103 H 382.718 -3.27337 3.73047 0
M  V30 4104 H 377.974 -3.30562 5.14333 0
M  V30 4105 H 382.148 -3.30338 6.13066 0
M  V30 4106 H 379.775 -3.315 6.84114 0
M  V30 4107 N 381.35 -0.985608 -1.22978 0
M  V30 4108 C 382.298 -0.522631 -2.26652 0
M  V30 4109 C 383.292 0.422998 -1.64034 0
M  V30 4110 O 384.498 0.296319 -1.77544 0
M  V30 4111 H 380.873 -0.150597 -0.736766 0
M  V30 4112 H 382.844 -1.40863 -2.63059 0
M  V30 4113 C 381.593 0.154238 -3.47358 0
M  V30 4114 H 380.916 -0.564329 -3.95797 0
M  V30 4115 H 382.356 0.441744 -4.21693 0
M  V30 4116 C 380.815 1.38719 -3.07016 0
M  V30 4117 O 381.345 2.48307 -3.15764 0
M  V30 4118 N 379.551 1.25975 -2.61875 0
M  V30 4119 H 379.098 0.368068 -2.54957 0
M  V30 4120 H 379.056 2.08578 -2.3525 0
M  V30 4121 N 382.828 1.3818 -0.7579 0
M  V30 4122 C 383.761 2.28055 -0.0814093 0
M  V30 4123 C 384.739 1.45603 0.723779 0
M  V30 4124 O 385.923 1.74961 0.701491 0
M  V30 4125 C 383.05 3.2676 0.891394 0
M  V30 4126 C 382.096 4.26153 0.171909 0
M  V30 4127 S 382.929 5.23434 -1.13035 0
M  V30 4128 C 384.085 6.25694 -0.160727 0
M  V30 4129 H 384.318 2.85082 -0.84353 0
M  V30 4130 H 381.851 1.44246 -0.550671 0
M  V30 4131 H 383.809 3.8414 1.44731 0
M  V30 4132 H 382.47 2.68706 1.62652 0
M  V30 4133 H 381.663 4.95738 0.908843 0
M  V30 4134 H 381.265 3.72691 -0.312606 0
M  V30 4135 H 383.557 6.74161 0.671773 0
M  V30 4136 H 384.5 7.03285 -0.824353 0
M  V30 4137 H 384.908 5.64064 0.221892 0
M  V30 4138 N 384.306 0.507319 1.49211 0
M  V30 4139 C 385.554 -0.0348839 2.0207 0
M  V30 4140 C 385.875 -1.36898 1.38866 0
M  V30 4141 O 385.145 -1.88133 0.546151 0
M  V30 4142 H 383.725 -0.0158812 0.746831 0
M  V30 4143 H 386.387 0.665998 1.83168 0
M  V30 4144 H 385.483 -0.159917 3.1169 0
M  V30 4145 N 385.784 -1.5574 0.241426 0
M  V30 4146 C 386.747 -2.19877 -0.647063 0
M  V30 4147 C 387.747 -1.16642 -1.10686 0
M  V30 4148 O 388.937 -1.41757 -1.01245 0
M  V30 4149 C 386.069 -2.83797 -1.88871 0
M  V30 4150 H 387.262 -2.99772 -0.087574 0
M  V30 4151 H 384.815 -1.56298 -0.00813574 0
M  V30 4152 H 385.55 -2.07824 -2.48957 0
M  V30 4153 H 385.335 -3.59414 -1.56728 0
M  V30 4154 H 386.825 -3.32898 -2.52129 0
M  V30 4155 N 387.262 0.0317525 -1.57568 0
M  V30 4156 C 388.195 1.06621 -2.0176 0
M  V30 4157 C 389.173 1.35323 -0.901462 0
M  V30 4158 O 390.357 1.48025 -1.16708 0
M  V30 4159 C 387.484 2.40155 -2.38837 0
M  V30 4160 C 386.53 2.27327 -3.60867 0
M  V30 4161 S 387.363 1.62925 -5.10113 0
M  V30 4162 C 388.519 2.97955 -5.5043 0
M  V30 4163 H 388.752 0.689781 -2.89187 0
M  V30 4164 H 386.285 0.24164 -1.52497 0
M  V30 4165 H 388.243 3.1695 -2.6087 0
M  V30 4166 H 386.904 2.74946 -1.51867 0
M  V30 4167 H 386.097 3.25898 -3.84456 0
M  V30 4168 H 385.699 1.58675 -3.38671 0
M  V30 4169 H 387.991 3.94285 -5.5095 0
M  V30 4170 H 388.934 2.79102 -6.50775 0
M  V30 4171 H 389.342 3.00404 -4.77931 0
M  V30 4172 N 388.74 1.54641 0.303973 0
M  V30 4173 C 389.65 1.88439 1.39743 0
M  V30 4174 C 390.666 0.778239 1.55626 0
M  V30 4175 O 391.842 1.07442 1.70347 0
M  V30 4176 C 388.907 2.12212 2.74166 0
M  V30 4177 C 387.968 3.35936 2.67293 0
M  V30 4178 C 387.201 3.58566 3.95305 0
M  V30 4179 O 387.424 2.84263 4.9452 0
M  V30 4180 O 386.358 4.52078 3.97378 0
M  V30 4181 H 390.184 2.81458 1.14083 0
M  V30 4182 H 387.769 1.40793 0.499768 0
M  V30 4183 H 389.651 2.29067 3.53704 0
M  V30 4184 H 388.326 1.22379 2.99675 0
M  V30 4185 H 387.233 3.24448 1.86237 0
M  V30 4186 H 388.566 4.2589 2.46736 0
M  V30 4187 N 390.218 -0.567019 1.47046 0
M  V30 4188 C 391.166 -1.69593 1.59188 0
M  V30 4189 C 392.16 -1.63046 0.459609 0
M  V30 4190 O 393.366 -1.6835 0.637058 0
M  V30 4191 H 389.741 -0.560993 0.500791 0
M  V30 4192 H 391.712 -1.56488 2.54075 0
M  V30 4193 C 390.461 -3.07964 1.61411 0
M  V30 4194 H 389.784 -3.13679 2.47881 0
M  V30 4195 H 391.224 -3.86671 1.73958 0
M  V30 4196 C 389.683 -3.35123 0.34559 0
M  V30 4197 O 390.213 -3.97812 -0.557521 0
M  V30 4198 N 388.419 -2.89699 0.22864 0
M  V30 4199 H 387.966 -2.38863 0.964479 0
M  V30 4200 H 387.924 -3.08242 -0.619192 0
M  V30 4201 N 391.696 -1.35014 -0.812953 0
M  V30 4202 C 392.643 -1.27412 -1.92444 0
M  V30 4203 C 393.613 -0.14733 -1.65445 0
M  V30 4204 O 394.798 -0.329974 -1.87925 0
M  V30 4205 C 391.938 -1.04558 -3.28879 0
M  V30 4206 C 391.051 -2.26101 -3.68106 0
M  V30 4207 C 390.186 -1.96449 -4.9354 0
M  V30 4208 C 389.225 -3.14081 -5.25376 0
M  V30 4209 N 388.362 -2.84246 -6.41988 0
M  V30 4210 H 393.202 -2.22463 -1.98278 0
M  V30 4211 H 390.739 -1.10593 -0.969933 0
M  V30 4212 H 392.697 -0.893413 -4.07522 0
M  V30 4213 H 391.327 -0.131719 -3.22531 0
M  V30 4214 H 390.379 -2.52204 -2.84775 0
M  V30 4215 H 391.691 -3.13959 -3.87597 0
M  V30 4216 H 390.845 -1.78026 -5.79993 0
M  V30 4217 H 389.584 -1.05867 -4.76071 0
M  V30 4218 H 388.589 -3.33089 -4.37415 0
M  V30 4219 H 389.814 -4.05455 -5.44778 0
M  V30 4220 H 387.76 -1.96252 -6.25956 0
M  V30 4221 H 387.677 -3.65637 -6.61699 0
M  V30 4222 H 388.945 -2.6935 -7.31485 0
M  V30 4223 N 393.175 1.03435 -1.18907 0
M  V30 4224 C 394.423 1.76394 -0.986382 0
M  V30 4225 C 394.744 1.88883 0.484567 0
M  V30 4226 O 394.014 1.41843 1.3512 0
M  V30 4227 H 392.594 0.65344 -0.361975 0
M  V30 4228 H 395.256 1.248 -1.49703 0
M  V30 4229 H 394.352 2.77424 -1.42978 0
M  V30 4230 N 394.653 0.992116 1.22453 0
M  V30 4231 C 395.583 0.561677 2.26644 0
M  V30 4232 C 396.564 -0.411055 1.65059 0
M  V30 4233 O 397.749 -0.301861 1.9184 0
M  V30 4234 C 394.879 -0.125247 3.47074 0
M  V30 4235 C 393.833 0.765948 4.21091 0
M  V30 4236 C 393.159 -0.0538484 5.34673 0
M  V30 4237 C 394.459 2.06242 4.79856 0
M  V30 4238 H 396.153 1.43259 2.62902 0
M  V30 4239 H 393.699 0.690283 1.26377 0
M  V30 4240 H 395.652 -0.437764 4.1912 0
M  V30 4241 H 394.376 -1.03069 3.0991 0
M  V30 4242 H 393.035 1.0621 3.50878 0
M  V30 4243 H 392.683 -0.960188 4.9375 0
M  V30 4244 H 392.383 0.539415 5.85119 0
M  V30 4245 H 393.907 -0.360477 6.09535 0
M  V30 4246 H 395.321 1.8139 5.43848 0
M  V30 4247 H 393.718 2.60444 5.40638 0
M  V30 4248 H 394.788 2.74167 3.99951 0
M  V30 4249 N 396.131 -1.37776 0.765217 0
M  V30 4250 C 397.079 -2.32209 0.134798 0
M  V30 4251 C 398.073 -1.54607 -0.692315 0
M  V30 4252 O 399.279 -1.70052 -0.590109 0
M  V30 4253 H 395.654 -0.751591 0.0248005 0
M  V30 4254 H 397.625 -2.8297 0.947119 0
M  V30 4255 C 396.374 -3.39841 -0.735063 0
M  V30 4256 H 395.697 -3.99654 -0.107991 0
M  V30 4257 H 397.137 -4.08296 -1.14326 0
M  V30 4258 C 395.596 -2.79378 -1.88281 0
M  V30 4259 O 396.126 -2.69608 -2.97783 0
M  V30 4260 N 394.332 -2.37016 -1.68142 0
M  V30 4261 H 393.879 -2.45162 -0.790772 0
M  V30 4262 H 393.837 -1.96905 -2.45104 0
M  V30 4263 N 397.609 -0.515225 -1.4894 0
M  V30 4264 C 398.858 0.0261361 -2.01683 0
M  V30 4265 C 399.171 1.36719 -1.39883 0
M  V30 4266 O 400.377 1.99606 -1.84037 0
M  V30 4267 C 398.833 0.0970111 -3.59769 0
M  V30 4268 C 398.441 -1.23825 -4.30548 0
M  V30 4269 C 400.185 0.587981 -4.20408 0
M  V30 4270 C 398.092 -1.12877 -5.80528 0
M  V30 4271 H 397.022 0.0135398 -0.753878 0
M  V30 4272 H 399.673 -0.656787 -1.71343 0
M  V30 4273 H 398.055 0.844694 -3.86886 0
M  V30 4274 H 399.229 -2.00034 -4.15118 0
M  V30 4275 H 397.544 -1.66379 -3.81716 0
M  V30 4276 H 400.141 0.68763 -5.3026 0
M  V30 4277 H 400.484 1.59026 -3.84729 0
M  V30 4278 H 401.017 -0.103582 -3.97665 0
M  V30 4279 H 397.756 -2.10575 -6.20756 0
M  V30 4280 H 397.276 -0.407799 -5.98412 0
M  V30 4281 H 398.955 -0.813332 -6.41868 0
M  V30 4282 N 399.087 1.5561 -0.249682 0
M  V30 4283 C 400.334 1.99011 0.374287 0
M  V30 4284 C 400.662 1.13785 1.57744 0
M  V30 4285 O 399.917 0.189326 1.94782 0
M  V30 4286 C 400.216 3.4775 0.824887 0
M  V30 4287 C 399.882 4.50086 -0.270819 0
M  V30 4288 C 398.544 4.77791 -0.571746 0
M  V30 4289 C 400.896 5.11312 -1.01041 0
M  V30 4290 C 398.224 5.63997 -1.61629 0
M  V30 4291 C 400.576 5.98651 -2.0445 0
M  V30 4292 C 399.24 6.24688 -2.35204 0
M  V30 4293 H 398.51 0.728233 0.136961 0
M  V30 4294 H 401.157 1.88122 -0.358087 0
M  V30 4295 H 399.462 3.55985 1.63651 0
M  V30 4296 H 401.159 3.78721 1.31799 0
M  V30 4297 H 397.749 4.28592 -0.026136 0
M  V30 4298 H 401.933 4.89953 -0.791177 0
M  V30 4299 H 397.189 5.82425 -1.85988 0
M  V30 4300 H 401.363 6.45135 -2.62248 0
M  V30 4301 H 398.99 6.91281 -3.16282 0
M  V30 4302 N 400.565 -0.0233959 1.57583 0
M  V30 4303 C 401.513 -1.04063 2.08023 0
M  V30 4304 C 402.507 -1.37084 0.995204 0
M  V30 4305 O 403.713 -1.35923 1.18004 0
M  V30 4306 H 400.088 -0.353144 0.663922 0
M  V30 4307 H 402.059 -0.589453 2.9252 0
M  V30 4308 C 400.808 -2.33123 2.57971 0
M  V30 4309 H 400.131 -2.08577 3.4108 0
M  V30 4310 H 401.571 -3.02632 2.96967 0
M  V30 4311 C 400.03 -3.02483 1.48342 0
M  V30 4312 O 400.56 -3.92541 0.852898 0
M  V30 4313 N 398.766 -2.63909 1.21658 0
M  V30 4314 H 398.313 -1.90758 1.73116 0
M  V30 4315 H 398.271 -3.10633 0.485218 0
M  V30 4316 N 402.043 -1.548 -0.295768 0
M  V30 4317 C 403.268 -1.78653 -1.05346 0
M  V30 4318 C 403.693 -0.546894 -1.79974 0
M  V30 4319 O 403.051 0.502763 -1.7419 0
M  V30 4320 C 403.099 -2.99679 -2.00561 0
M  V30 4321 O 402.203 -2.7317 -3.08953 0
M  V30 4322 H 401.544 -0.59116 -0.302367 0
M  V30 4323 H 404.074 -2.01895 -0.331598 0
M  V30 4324 H 404.084 -3.27793 -2.42932 0
M  V30 4325 H 402.759 -3.89562 -1.4565 0
M  V30 4326 H 401.336 -2.56089 -2.71059 0
M  V30 4327 N 403.521 0.559213 -1.47345 0
M  V30 4328 C 404.468 1.66645 -1.59682 0
M  V30 4329 C 405.438 1.60168 -0.43994 0
M  V30 4330 O 406.623 1.79031 -0.659736 0
M  V30 4331 C 403.763 3.04969 -1.61518 0
M  V30 4332 C 402.876 3.21897 -2.88108 0
M  V30 4333 C 402.011 4.50608 -2.81294 0
M  V30 4334 C 401.05 4.60961 -4.02717 0
M  V30 4335 N 400.187 5.81024 -3.94151 0
M  V30 4336 H 405.027 1.55439 -2.54249 0
M  V30 4337 H 402.564 0.757219 -1.26113 0
M  V30 4338 H 404.522 3.85064 -1.60566 0
M  V30 4339 H 403.152 3.15015 -0.704645 0
M  V30 4340 H 402.204 2.35248 -2.98936 0
M  V30 4341 H 403.516 3.25412 -3.78032 0
M  V30 4342 H 402.67 5.3896 -2.7858 0
M  V30 4343 H 401.409 4.49568 -1.89049 0
M  V30 4344 H 400.414 3.71021 -4.05738 0
M  V30 4345 H 401.639 4.63761 -4.96087 0
M  V30 4346 H 399.585 5.80938 -3.04708 0
M  V30 4347 H 399.502 5.85909 -4.77752 0
M  V30 4348 H 400.77 6.71744 -3.9545 0
M  V30 4349 N 404.999 1.35443 0.805782 0
M  V30 4350 C 406.229 1.31687 1.59192 0
M  V30 4351 C 406.637 -0.10756 1.88894 0
M  V30 4352 O 405.98 -1.07017 1.49309 0
M  V30 4353 C 406.042 2.05686 2.94845 0
M  V30 4354 C 405.706 3.54868 2.87954 0
M  V30 4355 C 406.703 4.49444 2.61335 0
M  V30 4356 C 404.388 3.97528 3.07046 0
M  V30 4357 C 406.382 5.84655 2.53885 0
M  V30 4358 C 404.069 5.32833 2.99219 0
M  V30 4359 C 405.067 6.26209 2.72674 0
M  V30 4360 O 404.755 7.59032 2.64811 0
M  V30 4361 H 404.487 0.453878 0.50097 0
M  V30 4362 H 407.041 1.78892 1.0093 0
M  V30 4363 H 405.271 1.5312 3.55093 0
M  V30 4364 H 406.96 1.94998 3.55993 0
M  V30 4365 H 407.726 4.17804 2.46303 0
M  V30 4366 H 403.605 3.25233 3.26718 0
M  V30 4367 H 407.149 6.57508 2.33086 0
M  V30 4368 H 403.046 5.64087 3.13809 0
M  V30 4369 H 403.814 7.68967 2.80413 0
M  V30 4370 N 406.477 -1.02803 1.19454 0
M  V30 4371 C 407.723 -1.76478 0.999171 0
M  V30 4372 C 408.056 -1.88456 -0.468828 0
M  V30 4373 O 407.331 -1.40198 -1.34814 0
M  V30 4374 C 407.614 -3.19044 1.66981 0
M  V30 4375 C 407.467 -3.14932 3.21151 0
M  V30 4376 C 408.786 -4.17456 1.39349 0
M  V30 4377 H 405.905 -0.640614 0.364393 0
M  V30 4378 H 408.547 -1.20005 1.47305 0
M  V30 4379 H 406.697 -3.67263 1.2669 0
M  V30 4380 H 408.369 -2.74605 3.70661 0
M  V30 4381 H 406.612 -2.52625 3.52652 0
M  V30 4382 H 407.283 -4.1566 3.63223 0
M  V30 4383 H 409.759 -3.77842 1.74283 0
M  V30 4384 H 408.635 -5.154 1.88823 0
M  V30 4385 H 408.896 -4.40949 0.318813 0
M  V30 4386 N 407.956 -0.998596 -1.21925 0
M  V30 4387 C 408.886 -0.573688 -2.26343 0
M  V30 4388 C 409.867 0.402296 -1.65274 0
M  V30 4389 O 411.052 0.291683 -1.91997 0
M  V30 4390 C 408.182 0.106839 -3.47136 0
M  V30 4391 C 407.136 -0.788269 -4.20678 0
M  V30 4392 C 406.462 0.0254927 -5.34694 0
M  V30 4393 C 407.762 -2.08784 -4.78755 0
M  V30 4394 H 409.456 -1.44651 -2.62138 0
M  V30 4395 H 407.002 -0.696975 -1.26009 0
M  V30 4396 H 408.955 0.415531 -4.19346 0
M  V30 4397 H 407.679 1.01424 -3.10452 0
M  V30 4398 H 406.338 -1.08069 -3.50309 0
M  V30 4399 H 405.986 0.933989 -4.94253 0
M  V30 4400 H 405.686 -0.570437 -5.84825 0
M  V30 4401 H 407.21 0.328147 -6.09718 0
M  V30 4402 H 408.624 -1.84272 -5.42878 0
M  V30 4403 H 407.021 -2.63307 -5.39249 0
M  V30 4404 H 408.091 -2.76284 -3.98491 0
M  V30 4405 N 409.434 1.37368 -0.772513 0
M  V30 4406 C 410.397 2.28601 -0.165541 0
M  V30 4407 C 411.397 1.48062 0.627238 0
M  V30 4408 O 412.587 1.68268 0.450715 0
M  V30 4409 C 409.719 3.32023 0.772897 0
M  V30 4410 H 410.912 2.83787 -0.969787 0
M  V30 4411 H 408.465 1.46647 -0.540775 0
M  V30 4412 H 409.2 2.81962 1.60212 0
M  V30 4413 H 408.985 3.91555 0.206585 0
M  V30 4414 H 410.475 4.00197 1.19298 0
M  V30 4415 N 410.912 0.523116 1.48665 0
M  V30 4416 C 412.328 0.180511 1.58576 0
M  V30 4417 C 412.528 -1.31597 1.52592 0
M  V30 4418 O 411.584 -2.0937 1.4114 0
M  V30 4419 C 412.897 0.776949 2.90489 0
M  V30 4420 C 414.445 0.745058 3.04003 0
M  V30 4421 C 414.92 1.31995 4.38567 0
M  V30 4422 N 416.411 1.28162 4.45117 0
M  V30 4423 C 417.146 1.6964 5.47731 0
M  V30 4424 N 416.642 2.18816 6.57337 0
M  V30 4425 N 418.435 1.6092 5.38573 0
M  V30 4426 H 410.586 1.4958 1.50797 0
M  V30 4427 H 412.849 0.621772 0.715614 0
M  V30 4428 H 412.555 1.82732 3.00503 0
M  V30 4429 H 412.429 0.25007 3.7637 0
M  V30 4430 H 414.816 -0.296532 2.93606 0
M  V30 4431 H 414.897 1.30933 2.1975 0
M  V30 4432 H 414.541 2.36043 4.49718 0
M  V30 4433 H 414.471 0.731418 5.21496 0
M  V30 4434 H 416.962 0.92155 3.66491 0
M  V30 4435 H 417.275 2.48478 7.31764 0
M  V30 4436 H 415.62 2.22805 6.58318 0
M  V30 4437 H 418.811 1.22304 4.5184 0
M  V30 4438 H 418.984 1.93567 6.18414 0
M  V30 4439 N 412.39 -1.55475 0.257931 0
M  V30 4440 C 413.618 -2.03609 -0.367559 0
M  V30 4441 C 414.033 -1.13687 -1.50734 0
M  V30 4442 O 413.39 -0.153479 -1.81853 0
M  V30 4443 C 413.441 -3.51001 -0.864908 0
M  V30 4444 O 413.162 -4.37499 0.229465 0
M  V30 4445 C 414.663 -4.14946 -1.55997 0
M  V30 4446 H 411.883 -0.665459 -0.0860521 0
M  V30 4447 H 414.427 -2.00843 0.385014 0
M  V30 4448 H 412.582 -3.54266 -1.56762 0
M  V30 4449 H 412.996 -5.24286 -0.14998 0
M  V30 4450 H 414.47 -5.19735 -1.85956 0
M  V30 4451 H 414.947 -3.6209 -2.4857 0
M  V30 4452 H 415.553 -4.15635 -0.901543 0
M  V30 4453 N 413.868 0.0150385 -1.57593 0
M  V30 4454 C 415.145 0.7392 -1.81094 0
M  V30 4455 C 415.525 1.92817 -0.859344 0
M  V30 4456 O 414.873 2.28301 0.095362 0
M  V30 4457 C 415.083 1.15907 -3.29191 0
M  V30 4458 C 416.431 1.56918 -3.9454 0
M  V30 4459 O 417.455 1.25328 -3.33424 0
M  V30 4460 O 416.314 2.15604 -5.02173 0
M  V30 4461 H 413.408 0.358631 -0.745193 0
M  V30 4462 H 415.954 -0.00926156 -1.69697 0
M  V30 4463 H 414.726 0.310921 -3.90063 0
M  V30 4464 H 414.349 1.96711 -3.45529 0
M  V30 4465 N 415.346 1.54954 0.287554 0
M  V30 4466 C 416.574 1.78881 1.03967 0
M  V30 4467 C 416.989 0.554894 1.80462 0
M  V30 4468 O 416.346 -0.475676 1.76192 0
M  V30 4469 C 416.397 3.00488 2.0097 0
M  V30 4470 O 416.118 4.19113 1.27577 0
M  V30 4471 C 417.619 3.36907 2.88112 0
M  V30 4472 H 414.839 0.596259 0.307761 0
M  V30 4473 H 417.383 2.01937 0.322749 0
M  V30 4474 H 415.538 2.79601 2.68145 0
M  V30 4475 H 415.952 4.87765 1.92835 0
M  V30 4476 H 417.426 4.25205 3.52001 0
M  V30 4477 H 417.903 2.55659 3.57121 0
M  V30 4478 H 418.509 3.60001 2.26449 0
M  V30 4479 N 416.824 -0.551391 1.4764 0
M  V30 4480 C 417.787 -1.64007 1.60107 0
M  V30 4481 C 418.787 -1.53601 0.47576 0
M  V30 4482 O 419.977 -1.57655 0.740988 0
M  V30 4483 C 417.109 -3.03569 1.55108 0
M  V30 4484 H 418.302 -1.543 2.57161 0
M  V30 4485 H 415.855 -0.771776 1.35917 0
M  V30 4486 H 416.59 -3.18804 0.594519 0
M  V30 4487 H 416.375 -3.12532 2.36783 0
M  V30 4488 H 417.865 -3.82762 1.66982 0
M  V30 4489 N 418.302 -1.35869 -0.798587 0
M  V30 4490 C 419.53 -1.32722 -1.58722 0
M  V30 4491 C 419.945 0.0935631 -1.88568 0
M  V30 4492 O 419.302 1.04784 -1.49421 0
M  V30 4493 C 419.353 -2.13974 -2.91371 0
M  V30 4494 O 419.074 -3.50514 -2.62815 0
M  V30 4495 C 420.575 -2.18504 -3.85708 0
M  V30 4496 H 417.795 -0.45562 -0.492596 0
M  V30 4497 H 420.339 -1.78837 -0.991843 0
M  V30 4498 H 418.494 -1.71438 -3.47402 0
M  V30 4499 H 418.908 -3.92806 -3.47568 0
M  V30 4500 H 420.382 -2.79732 -4.75872 0
M  V30 4501 H 420.859 -1.18597 -4.22885 0
M  V30 4502 H 421.465 -2.61236 -3.35612 0
M  V30 4503 N 419.78 1.02168 -1.19998 0
M  V30 4504 C 421.057 1.72816 -0.916191 0
M  V30 4505 C 421.437 2.03081 0.576325 0
M  V30 4506 O 420.785 1.69122 1.53656 0
M  V30 4507 C 420.995 2.9997 -1.78378 0
M  V30 4508 C 422.343 3.73336 -2.02251 0
M  V30 4509 O 423.367 3.09914 -1.75589 0
M  V30 4510 O 422.226 4.87371 -2.47249 0
M  V30 4511 H 419.32 0.752924 -0.342103 0
M  V30 4512 H 421.866 1.08062 -1.30846 0
M  V30 4513 H 420.638 2.73888 -2.79466 0
M  V30 4514 H 420.261 3.72464 -1.39126 0
M  V30 4515 N 421.258 1.00505 1.21394 0
M  V30 4516 C 422.205 0.565496 2.23765 0
M  V30 4517 C 423.175 -0.408466 1.60999 0
M  V30 4518 O 424.36 -0.310503 1.88257 0
M  V30 4519 C 421.5 -0.101667 3.4495 0
M  V30 4520 C 420.613 0.915479 4.22188 0
M  V30 4521 C 419.748 0.220574 5.30742 0
M  V30 4522 C 418.787 1.22527 5.99711 0
M  V30 4523 N 417.924 0.557831 6.9988 0
M  V30 4524 H 422.764 1.44314 2.60725 0
M  V30 4525 H 420.301 0.722643 1.28126 0
M  V30 4526 H 422.259 -0.505504 4.14126 0
M  V30 4527 H 420.889 -0.94303 3.08718 0
M  V30 4528 H 419.941 1.43756 3.52191 0
M  V30 4529 H 421.253 1.68005 4.69655 0
M  V30 4530 H 420.407 -0.239368 6.06228 0
M  V30 4531 H 419.146 -0.576401 4.84282 0
M  V30 4532 H 418.151 1.69571 5.22997 0
M  V30 4533 H 419.376 2.02332 6.48258 0
M  V30 4534 H 417.322 -0.219486 6.55633 0
M  V30 4535 H 417.239 1.26065 7.45415 0
M  V30 4536 H 418.507 0.121095 7.79406 0
M  V30 4537 N 422.737 -1.36956 0.779787 0
M  V30 4538 C 424.014 -1.93697 0.272156 0
M  V30 4539 C 424.394 -1.71267 -1.23413 0
M  V30 4540 O 423.742 -1.06607 -2.02107 0
M  V30 4541 C 423.952 -3.42812 0.654291 0
M  V30 4542 C 425.3 -4.19921 0.628602 0
M  V30 4543 O 426.324 -3.51209 0.594172 0
M  V30 4544 O 425.183 -5.42465 0.662864 0
M  V30 4545 H 422.277 -0.824447 0.0649286 0
M  V30 4546 H 424.823 -1.46196 0.861682 0
M  V30 4547 H 423.595 -3.52754 1.69353 0
M  V30 4548 H 423.218 -3.97582 0.0381369 0
M  V30 4549 N 424.215 -0.530993 -1.48385 0
M  V30 4550 C 425.445 -0.00133928 -2.066 0
M  V30 4551 C 425.853 1.28599 -1.38777 0
M  V30 4552 O 425.196 1.77599 -0.469495 0
M  V30 4553 C 425.258 0.292137 -3.58311 0
M  V30 4554 C 424.922 -0.901864 -4.48013 0
M  V30 4555 C 425.919 -1.80053 -4.87726 0
M  V30 4556 C 423.604 -1.10915 -4.89901 0
M  V30 4557 C 425.598 -2.89038 -5.68098 0
M  V30 4558 C 423.285 -2.20213 -5.70043 0
M  V30 4559 C 424.283 -3.09107 -6.0905 0
M  V30 4560 O 423.971 -4.16514 -6.87583 0
M  V30 4561 H 423.703 -0.0308475 -0.675296 0
M  V30 4562 H 426.257 -0.736335 -1.91748 0
M  V30 4563 H 424.487 1.08112 -3.7128 0
M  V30 4564 H 426.176 0.763994 -3.98645 0
M  V30 4565 H 426.942 -1.65234 -4.55986 0
M  V30 4566 H 422.821 -0.426498 -4.59023 0
M  V30 4567 H 426.365 -3.58451 -5.98464 0
M  V30 4568 H 422.262 -2.35016 -6.01197 0
M  V30 4569 H 423.03 -4.14237 -7.05939 0
M  V30 4570 N 425.693 1.55336 -0.266172 0
M  V30 4571 C 426.623 2.25146 0.618981 0
M  V30 4572 C 427.604 1.23845 1.16604 0
M  V30 4573 O 428.789 1.52544 1.20183 0
M  V30 4574 C 425.919 2.96572 1.80728 0
M  V30 4575 C 424.873 4.04726 1.39215 0
M  V30 4576 C 424.199 4.63678 2.66283 0
M  V30 4577 C 425.499 5.19407 0.548942 0
M  V30 4578 H 427.193 2.99377 0.0368116 0
M  V30 4579 H 424.739 1.43991 0.0162651 0
M  V30 4580 H 426.692 3.44116 2.43232 0
M  V30 4581 H 425.416 2.19861 2.41514 0
M  V30 4582 H 424.075 3.57979 0.790351 0
M  V30 4583 H 423.723 3.83646 3.25308 0
M  V30 4584 H 423.423 5.367 2.39222 0
M  V30 4585 H 424.947 5.13967 3.29651 0
M  V30 4586 H 426.361 5.63059 1.07876 0
M  V30 4587 H 424.758 5.98936 0.373593 0
M  V30 4588 H 425.828 4.8295 -0.434394 0
M  V30 4589 N 427.171 -0.0066808 1.57599 0
M  V30 4590 C 428.448 -0.729586 1.81484 0
M  V30 4591 C 428.828 -1.92359 0.869558 0
M  V30 4592 O 428.176 -2.28348 -0.0832533 0
M  V30 4593 C 428.386 -1.1416 3.29801 0
M  V30 4594 C 429.734 -1.54823 3.95367 0
M  V30 4595 O 430.758 -1.23558 3.34084 0
M  V30 4596 O 429.617 -2.12937 5.03309 0
M  V30 4597 H 426.711 -0.354674 0.747085 0
M  V30 4598 H 429.257 0.0182609 1.6969 0
M  V30 4599 H 428.029 -0.290231 3.90222 0
M  V30 4600 H 427.652 -1.94876 3.46568 0
M  V30 4601 N 428.649 -1.55105 -0.279332 0
M  V30 4602 C 429.898 -1.74618 -1.00952 0
M  V30 4603 C 430.211 -0.551096 -1.87676 0
M  V30 4604 O 431.417 -0.628507 -2.64125 0
M  V30 4605 C 429.873 -3.09025 -1.84476 0
M  V30 4606 C 429.481 -4.36081 -1.0265 0
M  V30 4607 C 431.225 -3.37891 -2.56963 0
M  V30 4608 C 429.132 -5.6153 -1.85576 0
M  V30 4609 H 428.062 -0.650868 -0.38064 0
M  V30 4610 H 430.713 -1.81569 -0.265475 0
M  V30 4611 H 429.095 -2.96095 -2.62952 0
M  V30 4612 H 430.269 -4.59909 -0.286354 0
M  V30 4613 H 428.584 -4.14312 -0.416464 0
M  V30 4614 H 431.181 -4.28822 -3.19399 0
M  V30 4615 H 431.524 -2.57737 -3.26921 0
M  V30 4616 H 432.057 -3.5189 -1.85522 0
M  V30 4617 H 428.796 -6.44413 -1.2005 0
M  V30 4618 H 428.316 -5.41854 -2.57204 0
M  V30 4619 H 429.995 -5.99594 -2.43096 0
M  V30 4620 N 430.127 0.543554 -1.4793 0
M  V30 4621 C 431.037 1.67657 -1.64098 0
M  V30 4622 C 432.053 1.65934 -0.523622 0
M  V30 4623 O 433.229 1.85133 -0.792943 0
M  V30 4624 C 430.294 3.04146 -1.66421 0
M  V30 4625 C 429.355 3.16831 -2.89684 0
M  V30 4626 C 428.588 4.46809 -2.91886 0
M  V30 4627 O 428.811 5.33095 -2.02895 0
M  V30 4628 O 427.745 4.63573 -3.83906 0
M  V30 4629 H 431.571 1.56957 -2.59997 0
M  V30 4630 H 429.156 0.715116 -1.31173 0
M  V30 4631 H 431.038 3.85346 -1.70548 0
M  V30 4632 H 429.713 3.152 -0.736923 0
M  V30 4633 H 428.62 2.34977 -2.91095 0
M  V30 4634 H 429.953 3.10687 -3.81752 0
M  V30 4635 N 431.605 1.3629 0.791371 0
M  V30 4636 C 433.021 1.16661 1.08914 0
M  V30 4637 C 433.221 -0.0106266 2.01497 0
M  V30 4638 O 432.277 -0.676596 2.43266 0
M  V30 4639 C 433.59 2.47656 1.70549 0
M  V30 4640 C 435.138 2.54002 1.82899 0
M  V30 4641 C 435.613 3.85078 2.47949 0
M  V30 4642 N 437.104 3.86413 2.5542 0
M  V30 4643 C 437.839 4.84572 3.06557 0
M  V30 4644 N 437.335 5.93124 3.58016 0
M  V30 4645 N 439.128 4.71994 3.05251 0
M  V30 4646 H 431.279 2.11668 0.176238 0
M  V30 4647 H 433.542 0.937486 0.140796 0
M  V30 4648 H 433.248 3.34059 1.09989 0
M  V30 4649 H 433.122 2.63319 2.70079 0
M  V30 4650 H 435.509 1.68018 2.42598 0
M  V30 4651 H 435.59 2.42239 0.821808 0
M  V30 4652 H 435.234 4.71467 1.88895 0
M  V30 4653 H 435.164 3.94135 3.49235 0
M  V30 4654 H 437.655 3.07988 2.18979 0
M  V30 4655 H 437.968 6.63999 3.95381 0
M  V30 4656 H 436.313 5.96796 3.56173 0
M  V30 4657 H 439.504 3.86321 2.64336 0
M  V30 4658 H 439.677 5.48653 3.44796 0
M  V30 4659 N 433.083 -1.0153 1.20538 0
M  V30 4660 C 434.329 -1.75408 1.01783 0
M  V30 4661 C 434.662 -1.88943 -0.448814 0
M  V30 4662 O 433.937 -1.4162 -1.33319 0
M  V30 4663 C 434.22 -3.17255 1.70356 0
M  V30 4664 C 434.073 -3.11508 3.24473 0
M  V30 4665 C 435.392 -4.15955 1.43769 0
M  V30 4666 H 432.511 -0.636713 0.371167 0
M  V30 4667 H 435.153 -1.18436 1.4857 0
M  V30 4668 H 433.303 -3.65898 1.30578 0
M  V30 4669 H 434.975 -2.70658 3.73553 0
M  V30 4670 H 433.218 -2.4887 3.55311 0
M  V30 4671 H 433.889 -4.11784 3.67611 0
M  V30 4672 H 436.365 -3.75973 1.7828 0
M  V30 4673 H 435.241 -5.13368 1.94279 0
M  V30 4674 H 435.502 -4.40586 0.365564 0
M  V30 4675 N 434.561 -1.01147 -1.20859 0
M  V30 4676 C 435.81 -0.693214 -1.89413 0
M  V30 4677 C 436.123 0.779969 -1.79376 0
M  V30 4678 O 437.329 1.21057 -2.43017 0
M  V30 4679 C 435.785 -1.18949 -3.39675 0
M  V30 4680 C 435.393 -2.68921 -3.58309 0
M  V30 4681 C 437.137 -0.94642 -4.13815 0
M  V30 4682 C 435.044 -3.12056 -5.0237 0
M  V30 4683 H 433.974 -0.255595 -0.709357 0
M  V30 4684 H 436.625 -1.22349 -1.36759 0
M  V30 4685 H 435.007 -0.587228 -3.91622 0
M  V30 4686 H 436.181 -3.34652 -3.16772 0
M  V30 4687 H 434.496 -2.91314 -2.97532 0
M  V30 4688 H 437.093 -1.24417 -5.20023 0
M  V30 4689 H 437.436 0.117219 -4.16135 0
M  V30 4690 H 437.969 -1.5118 -3.67953 0
M  V30 4691 H 434.708 -4.17674 -5.05202 0
M  V30 4692 H 434.228 -2.51041 -5.44737 0
M  V30 4693 H 435.907 -3.04403 -5.70918 0
M  V30 4694 N 436.039 1.36541 -0.78704 0
M  V30 4695 C 437.287 1.98911 -0.357633 0
M  V30 4696 C 437.608 1.62778 1.07371 0
M  V30 4697 O 436.878 0.900612 1.73971 0
M  V30 4698 H 435.458 0.735734 -0.129246 0
M  V30 4699 H 438.12 1.66776 -1.00855 0
M  V30 4700 H 437.216 3.08874 -0.447549 0
M  V30 4701 N 437.518 0.538854 1.48102 0
M  V30 4702 C 438.468 -0.23907 2.26743 0
M  V30 4703 C 439.452 -0.901923 1.33245 0
M  V30 4704 O 440.644 -0.803263 1.57723 0
M  V30 4705 C 437.773 -1.2799 3.18549 0
M  V30 4706 C 436.859 -0.621388 4.19523 0
M  V30 4707 N 437.25 0.298004 5.04921 0
M  V30 4708 C 435.548 -0.877533 4.37282 0
M  V30 4709 C 436.249 0.678757 5.77726 0
M  V30 4710 N 435.225 0.0377881 5.43587 0
M  V30 4711 H 439.027 0.468096 2.90148 0
M  V30 4712 H 436.541 0.357497 1.58416 0
M  V30 4713 H 438.538 -1.851 3.73555 0
M  V30 4714 H 437.198 -1.98835 2.567 0
M  V30 4715 H 438.209 0.671126 5.13533 0
M  V30 4716 H 434.886 -1.57588 3.86616 0
M  V30 4717 H 436.276 1.43316 6.56437 0
M  V30 4718 N 438.996 -1.55193 0.274407 0
M  V30 4719 C 439.906 -2.26164 -0.623473 0
M  V30 4720 C 440.922 -1.28729 -1.17068 0
M  V30 4721 O 442.098 -1.61663 -1.20112 0
M  V30 4722 C 439.163 -2.96833 -1.7914 0
M  V30 4723 C 438.224 -4.09745 -1.28093 0
M  V30 4724 C 437.457 -4.77034 -2.3932 0
M  V30 4725 O 437.68 -4.4353 -3.5866 0
M  V30 4726 O 436.614 -5.64996 -2.07516 0
M  V30 4727 H 440.44 -3.03661 -0.0485661 0
M  V30 4728 H 438.025 -1.49341 0.0418382 0
M  V30 4729 H 439.907 -3.41248 -2.4724 0
M  V30 4730 H 438.582 -2.22253 -2.35341 0
M  V30 4731 H 437.489 -3.69787 -0.566416 0
M  V30 4732 H 438.822 -4.86224 -0.764683 0
M  V30 4733 N 440.474 -0.00167713 -1.576 0
M  V30 4734 C 441.704 0.692754 -1.94639 0
M  V30 4735 C 442.112 1.67744 -0.87513 0
M  V30 4736 O 441.455 1.8305 0.154382 0
M  V30 4737 C 441.517 1.47881 -3.27676 0
M  V30 4738 C 441.181 0.655518 -4.52274 0
M  V30 4739 C 442.178 -0.0575214 -5.19868 0
M  V30 4740 C 439.863 0.600994 -4.98692 0
M  V30 4741 C 441.857 -0.814052 -6.3218 0
M  V30 4742 C 439.544 -0.15926 -6.10892 0
M  V30 4743 C 440.542 -0.865515 -6.77494 0
M  V30 4744 O 440.23 -1.61336 -7.87544 0
M  V30 4745 H 439.962 0.197792 -0.646417 0
M  V30 4746 H 442.516 -0.049423 -2.05341 0
M  V30 4747 H 440.746 2.2655 -3.13388 0
M  V30 4748 H 442.435 2.05874 -3.49816 0
M  V30 4749 H 443.201 -0.0245611 -4.84994 0
M  V30 4750 H 439.08 1.14025 -4.46676 0
M  V30 4751 H 442.624 -1.36584 -6.84098 0
M  V30 4752 H 438.521 -0.194035 -6.45208 0
M  V30 4753 H 439.289 -1.53025 -8.04068 0
M  V30 4754 N 441.952 1.55251 0.271103 0
M  V30 4755 C 443.199 1.75946 1.00245 0
M  V30 4756 C 443.527 0.561611 1.86215 0
M  V30 4757 O 442.782 -0.455832 1.90317 0
M  V30 4758 C 443.081 3.01879 1.91321 0
M  V30 4759 C 442.747 4.34337 1.21086 0
M  V30 4760 C 441.409 4.70338 1.01666 0
M  V30 4761 C 443.761 5.16325 0.71119 0
M  V30 4762 C 441.089 5.8588 0.310099 0
M  V30 4763 C 443.441 6.32597 0.0182157 0
M  V30 4764 C 442.105 6.67236 -0.18768 0
M  V30 4765 H 441.375 0.643833 0.366824 0
M  V30 4766 H 444.022 1.89521 0.27458 0
M  V30 4767 H 442.327 2.83212 2.70736 0
M  V30 4768 H 444.024 3.15088 2.48033 0
M  V30 4769 H 440.614 4.06043 1.37213 0
M  V30 4770 H 444.798 4.88987 0.848844 0
M  V30 4771 H 440.054 6.1124 0.139873 0
M  V30 4772 H 444.228 6.9538 -0.376711 0
M  V30 4773 H 441.855 7.56618 -0.73715 0
M  V30 4774 N 443.43 -0.535701 1.48216 0
M  V30 4775 C 444.38 -1.63688 1.58714 0
M  V30 4776 C 445.364 -1.54635 0.444615 0
M  V30 4777 O 446.556 -1.62753 0.695742 0
M  V30 4778 C 443.685 -3.02423 1.62466 0
M  V30 4779 C 442.771 -3.16601 2.82178 0
M  V30 4780 N 443.162 -3.00771 4.06658 0
M  V30 4781 C 441.46 -3.47645 2.79391 0
M  V30 4782 C 442.161 -3.18213 4.86945 0
M  V30 4783 N 441.137 -3.45528 4.19656 0
M  V30 4784 H 444.939 -1.5005 2.5271 0
M  V30 4785 H 442.453 -0.741018 1.44508 0
M  V30 4786 H 444.45 -3.81517 1.6808 0
M  V30 4787 H 443.11 -3.17157 0.695826 0
M  V30 4788 H 444.121 -2.77652 4.37184 0
M  V30 4789 H 440.798 -3.68771 1.95739 0
M  V30 4790 H 442.188 -3.1076 5.95716 0
M  V30 4791 N 444.908 -1.36708 -0.784132 0
M  V30 4792 C 445.856 -1.31533 -1.91838 0
M  V30 4793 C 446.85 -0.206205 -1.6814 0
M  V30 4794 O 448.056 -0.373519 -1.76082 0
M  V30 4795 H 444.431 -0.409613 -0.630651 0
M  V30 4796 H 446.402 -2.2731 -1.9332 0
M  V30 4797 C 445.151 -1.12679 -3.28936 0
M  V30 4798 H 444.474 -1.97274 -3.4774 0
M  V30 4799 H 445.914 -1.13106 -4.08636 0
M  V30 4800 C 444.373 0.168281 -3.36479 0
M  V30 4801 O 444.903 1.15625 -3.84699 0
M  V30 4802 N 443.109 0.214762 -2.89805 0
M  V30 4803 H 442.656 -0.589852 -2.50756 0
M  V30 4804 H 442.614 1.08094 -2.95234 0
M  V30 4805 N 446.386 1.0089 -1.21074 0
M  V30 4806 C 447.632 1.7497 -1.03717 0
M  V30 4807 C 447.987 1.8764 0.425344 0
M  V30 4808 O 447.28 1.39679 1.3115 0
M  V30 4809 C 447.474 3.16335 -1.66334 0
M  V30 4810 C 447.303 3.17449 -3.18522 0
M  V30 4811 C 446.073 3.2425 -3.87543 0
M  V30 4812 C 448.271 3.02877 -4.15656 0
M  V30 4813 N 446.253 3.14949 -5.26954 0
M  V30 4814 C 447.624 3.0143 -5.41793 0
M  V30 4815 C 449.679 2.8715 -4.06755 0
M  V30 4816 C 448.382 2.85869 -6.60054 0
M  V30 4817 C 450.408 2.72944 -5.24648 0
M  V30 4818 C 449.77 2.72171 -6.49694 0
M  V30 4819 H 445.869 0.650627 -0.43383 0
M  V30 4820 H 448.453 1.19944 -1.53367 0
M  V30 4821 H 446.624 3.69638 -1.19256 0
M  V30 4822 H 448.356 3.78888 -1.42219 0
M  V30 4823 H 445.111 3.31288 -3.38446 0
M  V30 4824 H 445.535 3.13651 -5.9996 0
M  V30 4825 H 450.177 2.86557 -3.10878 0
M  V30 4826 H 447.895 2.8521 -7.56096 0
M  V30 4827 H 451.481 2.61782 -5.19578 0
M  V30 4828 H 450.361 2.61307 -7.39384 0
M  V30 4829 N 447.864 1.01787 1.20321 0
M  V30 4830 C 449.092 0.727194 1.937 0
M  V30 4831 C 449.507 -0.712305 1.74848 0
M  V30 4832 O 448.864 -1.48327 1.06327 0
M  V30 4833 C 448.915 1.05497 3.45764 0
M  V30 4834 O 448.636 2.43794 3.64 0
M  V30 4835 C 450.137 0.785534 4.36285 0
M  V30 4836 H 447.357 0.266939 0.615617 0
M  V30 4837 H 449.901 1.35939 1.52777 0
M  V30 4838 H 448.056 0.468158 3.84561 0
M  V30 4839 H 448.47 2.55656 4.57974 0
M  V30 4840 H 449.944 1.06495 5.4163 0
M  V30 4841 H 450.421 -0.280273 4.38305 0
M  V30 4842 H 451.027 1.35456 4.03152 0
M  V30 4843 N 449.342 -1.36122 0.79427 0
M  V30 4844 C 450.59 -1.98718 0.368177 0
M  V30 4845 C 450.911 -1.63345 -1.06506 0
M  V30 4846 O 450.181 -0.909825 -1.73491 0
M  V30 4847 H 448.761 -0.735038 0.133146 0
M  V30 4848 H 451.423 -1.66239 1.01739 0
M  V30 4849 H 450.519 -3.08633 0.463923 0
M  V30 4850 N 450.82 -0.546701 -1.47814 0
M  V30 4851 C 451.768 0.220048 -2.31557 0
M  V30 4852 C 452.762 0.919472 -1.42275 0
M  V30 4853 O 453.968 0.841953 -1.59095 0
M  V30 4854 H 450.343 0.0898334 -0.746615 0
M  V30 4855 H 452.314 -0.505589 -2.94086 0
M  V30 4856 C 451.063 1.24353 -3.24702 0
M  V30 4857 H 450.386 0.714758 -3.93359 0
M  V30 4858 H 451.826 1.75112 -3.8615 0
M  V30 4859 C 450.285 2.28593 -2.47481 0
M  V30 4860 O 450.815 3.35334 -2.21165 0
M  V30 4861 N 449.021 2.02244 -2.08676 0
M  V30 4862 H 448.568 1.15455 -2.30278 0
M  V30 4863 H 448.526 2.72207 -1.57323 0
M  V30 4864 N 452.299 1.55045 -0.282633 0
M  V30 4865 C 453.715 1.59441 0.0712997 0
M  V30 4866 C 453.915 1.2998 1.53972 0
M  V30 4867 O 452.971 1.06431 2.28973 0
M  V30 4868 C 454.284 2.99097 -0.310104 0
M  V30 4869 C 455.832 3.1194 -0.257343 0
M  V30 4870 C 456.307 4.53875 -0.613297 0
M  V30 4871 N 457.798 4.5974 -0.565134 0
M  V30 4872 C 458.533 5.67603 -0.81326 0
M  V30 4873 N 458.029 6.83582 -1.1264 0
M  V30 4874 N 459.822 5.57187 -0.741553 0
M  V30 4875 H 451.973 1.72458 -1.23984 0
M  V30 4876 H 454.236 0.804549 -0.501403 0
M  V30 4877 H 453.942 3.25516 -1.33163 0
M  V30 4878 H 453.816 3.75616 0.345366 0
M  V30 4879 H 456.203 2.85281 0.754905 0
M  V30 4880 H 456.284 2.37618 -0.947178 0
M  V30 4881 H 455.928 4.81261 -1.62327 0
M  V30 4882 H 455.858 5.26508 0.09841 0
M  V30 4883 H 458.349 3.76427 -0.333294 0
M  V30 4884 H 458.662 7.6175 -1.30219 0
M  V30 4885 H 457.007 6.85179 -1.16425 0
M  V30 4886 H 460.198 4.65457 -0.496705 0
M  V30 4887 H 460.371 6.41171 -0.938306 0
M  V30 4888 N 453.777 0.010035 1.57597 0
M  V30 4889 C 455.023 -0.673697 1.91283 0
M  V30 4890 C 455.356 -1.72863 0.884979 0
M  V30 4891 O 454.631 -1.94268 -0.0949487 0
M  V30 4892 C 454.914 -1.30766 3.35518 0
M  V30 4893 C 454.767 -0.263578 4.49027 0
M  V30 4894 C 456.086 -2.23105 3.79358 0
M  V30 4895 H 453.205 -0.243439 0.695634 0
M  V30 4896 H 455.847 0.0633864 1.89894 0
M  V30 4897 H 453.997 -1.93588 3.36832 0
M  V30 4898 H 455.669 0.365738 4.59848 0
M  V30 4899 H 453.912 0.413077 4.31829 0
M  V30 4900 H 454.583 -0.746398 5.4693 0
M  V30 4901 H 457.059 -1.70289 3.79659 0
M  V30 4902 H 455.935 -2.64424 4.81011 0
M  V30 4903 H 456.196 -3.11433 3.13787 0
M  V30 4904 N 455.255 -1.55392 -0.262866 0
M  V30 4905 C 456.483 -1.80513 -1.01108 0
M  V30 4906 C 456.898 -0.583533 -1.79556 0
M  V30 4907 O 456.255 0.447585 -1.76926 0
M  V30 4908 C 456.306 -3.03648 -1.96164 0
M  V30 4909 O 456.027 -4.2109 -1.20893 0
M  V30 4910 C 457.528 -3.41448 -2.82715 0
M  V30 4911 H 454.748 -0.601079 -0.298236 0
M  V30 4912 H 457.292 -2.02425 -0.290582 0
M  V30 4913 H 455.447 -2.83832 -2.63663 0
M  V30 4914 H 455.861 -4.90771 -1.85051 0
M  V30 4915 H 457.335 -4.30751 -3.45192 0
M  V30 4916 H 457.812 -2.61308 -3.53008 0
M  V30 4917 H 458.418 -3.63559 -2.20693 0
M  V30 4918 N 456.733 0.527833 -1.48498 0
M  V30 4919 C 457.973 1.29401 -1.58224 0
M  V30 4920 C 458.337 1.90348 -0.251327 0
M  V30 4921 O 459.538 2.67868 -0.223588 0
M  V30 4922 C 457.809 2.35266 -2.69044 0
M  V30 4923 S 459.368 3.2158 -2.98549 0
M  V30 4924 H 456.186 0.440138 -0.558391 0
M  V30 4925 H 458.788 0.601079 -1.8603 0
M  V30 4926 H 457.492 1.88975 -3.64303 0
M  V30 4927 H 457.023 3.09263 -2.43146 0
M  V30 4928 H 459.038 4.35391 -2.38011 0
M  V30 4929 N 458.211 1.37122 0.776871 0
M  V30 4930 C 459.627 1.1781 1.07671 0
M  V30 4931 C 459.827 0.0107454 2.01497 0
M  V30 4932 O 458.883 -0.650756 2.4397 0
M  V30 4933 C 460.196 2.49451 1.67913 0
M  V30 4934 C 461.744 2.55927 1.80195 0
M  V30 4935 C 462.219 3.87686 2.43851 0
M  V30 4936 N 463.71 3.891 2.51307 0
M  V30 4937 C 464.445 4.87797 3.014 0
M  V30 4938 N 463.941 5.96888 3.51705 0
M  V30 4939 N 465.734 4.75205 3.00227 0
M  V30 4940 H 457.885 2.11843 0.153778 0
M  V30 4941 H 460.148 0.938927 0.130844 0
M  V30 4942 H 459.854 3.35207 1.06439 0
M  V30 4943 H 459.728 2.66169 2.67271 0
M  V30 4944 H 462.115 1.70582 2.40803 0
M  V30 4945 H 462.196 2.43097 0.796069 0
M  V30 4946 H 461.84 4.73444 1.83884 0
M  V30 4947 H 461.77 3.97817 3.45035 0
M  V30 4948 H 464.261 3.10293 2.157 0
M  V30 4949 H 464.574 6.68155 3.88316 0
M  V30 4950 H 462.919 6.0054 3.49824 0
M  V30 4951 H 466.11 3.89103 2.60224 0
M  V30 4952 H 466.283 5.52279 3.38957 0
M  V30 4953 N 459.689 -1.00246 1.21608 0
M  V30 4954 C 460.966 -1.71336 0.943568 0
M  V30 4955 C 461.346 -2.03972 -0.543943 0
M  V30 4956 O 460.694 -1.71545 -1.50946 0
M  V30 4957 C 460.904 -2.97094 1.83128 0
M  V30 4958 C 462.252 -3.70071 2.08165 0
M  V30 4959 O 463.276 -3.07081 1.80498 0
M  V30 4960 O 462.135 -4.83376 2.54971 0
M  V30 4961 H 459.229 -0.747386 0.354039 0
M  V30 4962 H 461.775 -1.05967 1.32549 0
M  V30 4963 H 460.547 -2.69407 2.83788 0
M  V30 4964 H 460.17 -3.70204 1.45034 0
M  V30 4965 N 461.167 -1.02423 -1.1978 0
M  V30 4966 C 462.413 -0.72878 -1.89896 0
M  V30 4967 C 462.768 0.734248 -1.77839 0
M  V30 4968 O 462.061 1.52733 -1.15685 0
M  V30 4969 C 462.255 -1.1088 -3.39765 0
M  V30 4970 C 462.084 -2.60722 -3.66407 0
M  V30 4971 C 460.854 -3.27623 -3.84696 0
M  V30 4972 C 463.052 -3.58924 -3.68345 0
M  V30 4973 N 461.034 -4.66617 -3.98926 0
M  V30 4974 C 462.405 -4.83514 -3.8809 0
M  V30 4975 C 464.46 -3.52788 -3.51347 0
M  V30 4976 C 463.163 -6.0271 -3.92598 0
M  V30 4977 C 465.189 -4.71394 -3.5713 0
M  V30 4978 C 464.551 -5.94796 -3.77356 0
M  V30 4979 H 460.65 -0.318473 -0.714212 0
M  V30 4980 H 463.234 -1.3106 -1.43984 0
M  V30 4981 H 461.405 -0.555233 -3.84411 0
M  V30 4982 H 463.137 -0.766082 -3.97383 0
M  V30 4983 H 459.892 -2.7804 -3.83393 0
M  V30 4984 H 460.316 -5.38805 -4.099 0
M  V30 4985 H 464.958 -2.58372 -3.3467 0
M  V30 4986 H 462.676 -6.97499 -4.08069 0
M  V30 4987 H 466.262 -4.6827 -3.45275 0
M  V30 4988 H 465.142 -6.85037 -3.81699 0
M  V30 4989 N 462.645 1.35699 -0.801477 0
M  V30 4990 C 463.892 1.98913 -0.379459 0
M  V30 4991 C 464.22 1.63592 1.05204 0
M  V30 4992 O 463.475 0.888563 1.74365 0
M  V30 4993 C 463.774 3.53828 -0.504041 0
M  V30 4994 C 463.44 4.09002 -1.8981 0
M  V30 4995 C 462.102 4.23783 -2.27951 0
M  V30 4996 C 464.454 4.38939 -2.81038 0
M  V30 4997 C 461.782 4.65816 -3.56696 0
M  V30 4998 C 464.134 4.82409 -4.09224 0
M  V30 4999 C 462.798 4.95395 -4.4737 0
M  V30 5000 H 462.068 0.727874 -0.138854 0
M  V30 5001 H 464.715 1.61994 -1.02128 0
M  V30 5002 H 463.02 3.91175 0.221242 0
M  V30 5003 H 464.717 4.00687 -0.158361 0
M  V30 5004 H 461.307 3.97946 -1.59176 0
M  V30 5005 H 465.491 4.27077 -2.52821 0
M  V30 5006 H 460.747 4.74059 -3.86106 0
M  V30 5007 H 464.921 5.04535 -4.80018 0
M  V30 5008 H 462.548 5.27724 -5.47185 0
M  V30 5009 N 464.123 0.554532 1.47522 0
M  V30 5010 C 465.055 -0.232106 2.28022 0
M  V30 5011 C 466.068 -0.881865 1.36847 0
M  V30 5012 O 467.257 -0.756168 1.61692 0
M  V30 5013 C 464.357 -1.34604 3.11022 0
M  V30 5014 C 463.53 -0.793582 4.30141 0
M  V30 5015 C 462.589 -1.79168 4.94758 0
M  V30 5016 O 461.615 -1.33886 5.5323 0
M  V30 5017 N 462.817 -3.12495 4.89211 0
M  V30 5018 H 465.582 0.458407 2.96173 0
M  V30 5019 H 463.143 0.390433 1.57122 0
M  V30 5020 H 465.135 -2.01243 3.51118 0
M  V30 5021 H 463.705 -1.93983 2.45131 0
M  V30 5022 H 462.925 0.0495025 3.94169 0
M  V30 5023 H 464.213 -0.403776 5.07195 0
M  V30 5024 H 463.611 -3.51931 4.42901 0
M  V30 5025 H 462.168 -3.74698 5.33333 0
M  V30 5026 N 465.601 -1.54893 0.290851 0
M  V30 5027 C 466.531 -2.26103 -0.583084 0
M  V30 5028 C 467.512 -1.25684 -1.14619 0
M  V30 5029 O 468.697 -1.54436 -1.17741 0
M  V30 5030 C 465.827 -2.99409 -1.75987 0
M  V30 5031 C 464.781 -4.0689 -1.32758 0
M  V30 5032 C 464.107 -4.67856 -2.58872 0
M  V30 5033 C 465.407 -5.20215 -0.46624 0
M  V30 5034 H 467.101 -2.99398 0.0108214 0
M  V30 5035 H 464.647 -1.43998 0.00664468 0
M  V30 5036 H 466.6 -3.47943 -2.37727 0
M  V30 5037 H 465.324 -2.23675 -2.37985 0
M  V30 5038 H 463.983 -3.59191 -0.733299 0
M  V30 5039 H 463.631 -3.88772 -3.19163 0
M  V30 5040 H 463.331 -5.40438 -2.30653 0
M  V30 5041 H 464.855 -5.19147 -3.21433 0
M  V30 5042 H 466.269 -5.64704 -0.989047 0
M  V30 5043 H 464.666 -5.99455 -0.27826 0
M  V30 5044 H 465.736 -4.82198 0.511173 0
M  V30 5045 N 467.08 -0.0183926 -1.57589 0
M  V30 5046 C 468.305 0.676634 -1.96052 0
M  V30 5047 C 468.73 1.6548 -0.894307 0
M  V30 5048 O 468.088 1.80712 0.145849 0
M  V30 5049 C 468.136 1.36872 -3.33614 0
M  V30 5050 O 467.24 2.48372 -3.29219 0
M  V30 5051 H 466.581 0.1786 -0.63953 0
M  V30 5052 H 469.111 -0.077056 -2.04455 0
M  V30 5053 H 469.121 1.72797 -3.69601 0
M  V30 5054 H 467.796 0.651636 -4.10763 0
M  V30 5055 H 466.373 2.14639 -3.04934 0
M  V30 5056 N 468.558 1.5553 0.254621 0
M  V30 5057 C 469.488 1.9268 1.31897 0
M  V30 5058 C 470.469 0.790797 1.506 0
M  V30 5059 O 471.654 1.05045 1.63337 0
M  V30 5060 C 468.784 2.21477 2.67517 0
M  V30 5061 C 467.738 3.37256 2.63519 0
M  V30 5062 C 467.064 3.51576 4.02862 0
M  V30 5063 C 468.364 4.73157 2.21179 0
M  V30 5064 H 470.058 2.81832 1.01051 0
M  V30 5065 H 467.604 1.35599 0.484662 0
M  V30 5066 H 469.557 2.46055 3.42104 0
M  V30 5067 H 468.281 1.29144 2.99982 0
M  V30 5068 H 466.94 3.12675 1.9139 0
M  V30 5069 H 466.588 2.56676 4.32581 0
M  V30 5070 H 466.288 4.2943 4.01078 0
M  V30 5071 H 467.812 3.78467 4.79161 0
M  V30 5072 H 469.226 4.97158 2.85494 0
M  V30 5073 H 467.623 5.54058 2.30521 0
M  V30 5074 H 468.693 4.70739 1.16332 0
M  V30 5075 N 470.036 -0.519951 1.48776 0
M  V30 5076 C 470.983 -1.62352 1.64044 0
M  V30 5077 C 471.953 -1.58945 0.482251 0
M  V30 5078 O 473.138 -1.77219 0.706971 0
M  V30 5079 C 470.278 -3.00579 1.69547 0
M  V30 5080 C 469.391 -3.14145 2.96541 0
M  V30 5081 C 468.526 -4.42991 2.93142 0
M  V30 5082 C 467.565 -4.50122 4.14797 0
M  V30 5083 N 466.702 -5.7037 4.09418 0
M  V30 5084 H 471.542 -1.48643 2.58281 0
M  V30 5085 H 469.079 -0.723516 1.28077 0
M  V30 5086 H 471.037 -3.80671 1.70719 0
M  V30 5087 H 469.667 -3.13036 0.787918 0
M  V30 5088 H 468.719 -2.27239 3.05068 0
M  V30 5089 H 470.031 -3.15275 3.86527 0
M  V30 5090 H 469.185 -5.31385 2.92772 0
M  V30 5091 H 467.924 -4.44398 2.00902 0
M  V30 5092 H 466.929 -3.60133 4.15433 0
M  V30 5093 H 468.154 -4.50445 5.08208 0
M  V30 5094 H 466.1 -5.72655 3.20004 0
M  V30 5095 H 466.017 -5.73036 4.93119 0
M  V30 5096 H 467.285 -6.61023 4.13121 0
M  V30 5097 N 471.514 -1.37532 -0.769588 0
M  V30 5098 C 472.424 -1.35668 -1.91393 0
M  V30 5099 C 473.44 -0.255954 -1.72107 0
M  V30 5100 O 474.616 -0.491704 -1.95305 0
M  V30 5101 C 471.681 -1.16481 -3.26547 0
M  V30 5102 C 470.742 -2.36212 -3.58472 0
M  V30 5103 C 469.975 -2.17932 -4.87177 0
M  V30 5104 O 470.198 -1.1647 -5.58382 0
M  V30 5105 O 469.132 -3.06167 -5.18214 0
M  V30 5106 H 472.958 -2.32055 -1.95918 0
M  V30 5107 H 470.543 -1.18284 -0.912641 0
M  V30 5108 H 472.425 -1.07778 -4.07384 0
M  V30 5109 H 471.1 -0.231687 -3.2287 0
M  V30 5110 H 470.007 -2.50488 -2.77861 0
M  V30 5111 H 471.34 -3.281 -3.66894 0
M  V30 5112 N 472.992 0.995999 -1.22138 0
M  V30 5113 C 474.24 1.73167 -1.042 0
M  V30 5114 C 474.561 1.90329 0.42423 0
M  V30 5115 O 473.831 1.4607 1.30539 0
M  V30 5116 H 472.411 0.641593 -0.38258 0
M  V30 5117 H 475.073 1.19974 -1.53598 0
M  V30 5118 H 474.169 2.72734 -1.51731 0
M  V30 5119 N 474.47 1.03057 1.19235 0
M  V30 5120 C 475.4 0.633497 2.24742 0
M  V30 5121 C 476.381 -0.358335 1.66283 0
M  V30 5122 O 477.566 -0.240676 1.92703 0
M  V30 5123 C 474.696 -0.0147648 3.47297 0
M  V30 5124 C 473.65 0.899527 4.18441 0
M  V30 5125 C 472.976 0.116281 5.34574 0
M  V30 5126 C 474.276 2.21404 4.73051 0
M  V30 5127 H 475.97 1.5155 2.58211 0
M  V30 5128 H 473.516 0.73014 1.24117 0
M  V30 5129 H 475.469 -0.304202 4.20301 0
M  V30 5130 H 474.193 -0.931577 3.13032 0
M  V30 5131 H 472.852 1.17319 3.47321 0
M  V30 5132 H 472.5 -0.802619 4.96555 0
M  V30 5133 H 472.2 0.725293 5.83107 0
M  V30 5134 H 473.724 -0.166376 6.10373 0
M  V30 5135 H 475.138 1.98601 5.37802 0
M  V30 5136 H 473.535 2.77512 5.32078 0
M  V30 5137 H 474.605 2.86752 3.91026 0
M  V30 5138 N 475.948 -1.35272 0.808662 0
M  V30 5139 C 477.176 -2.02946 0.402537 0
M  V30 5140 C 477.591 -1.60937 -0.987147 0
M  V30 5141 O 476.948 -0.807917 -1.63643 0
M  V30 5142 C 476.999 -3.58317 0.47868 0
M  V30 5143 O 476.72 -3.98799 1.81358 0
M  V30 5144 C 478.221 -4.43251 0.0656281 0
M  V30 5145 H 475.441 -0.650831 0.163279 0
M  V30 5146 H 477.985 -1.72849 1.09286 0
M  V30 5147 H 476.14 -3.87055 -0.163415 0
M  V30 5148 H 476.554 -4.93451 1.77781 0
M  V30 5149 H 478.028 -5.51738 0.170017 0
M  V30 5150 H 478.505 -4.27913 -0.989278 0
M  V30 5151 H 479.111 -4.19813 0.68096 0
M  V30 5152 N 477.426 -0.562348 -1.47226 0
M  V30 5153 C 478.672 -0.0402761 -2.0276 0
M  V30 5154 C 479.005 1.30823 -1.43523 0
M  V30 5155 O 478.28 1.85249 -0.592705 0
M  V30 5156 C 478.563 0.047311 -3.60069 0
M  V30 5157 C 478.416 -1.32865 -4.29729 0
M  V30 5158 C 479.735 0.758182 -4.3352 0
M  V30 5159 H 476.854 -0.0161105 -0.736824 0
M  V30 5160 H 479.496 -0.725628 -1.75598 0
M  V30 5161 H 477.646 0.630986 -3.83342 0
M  V30 5162 H 479.318 -1.95593 -4.17781 0
M  V30 5163 H 477.561 -1.90195 -3.89882 0
M  V30 5164 H 478.232 -1.22004 -5.38349 0
M  V30 5165 H 480.708 0.262546 -4.15271 0
M  V30 5166 H 479.584 0.78844 -5.43208 0
M  V30 5167 H 479.845 1.81537 -4.03109 0
M  V30 5168 N 478.904 1.54736 -0.299062 0
M  V30 5169 C 480.151 2.00101 0.310784 0
M  V30 5170 C 480.479 1.18746 1.54045 0
M  V30 5171 O 479.734 0.251198 1.94081 0
M  V30 5172 C 480.033 3.50199 0.713835 0
M  V30 5173 C 479.699 4.48997 -0.413873 0
M  V30 5174 C 478.361 4.7573 -0.723462 0
M  V30 5175 C 480.713 5.07839 -1.17257 0
M  V30 5176 C 478.041 5.5857 -1.79491 0
M  V30 5177 C 480.393 5.91844 -2.23392 0
M  V30 5178 C 479.057 6.16889 -2.54959 0
M  V30 5179 H 478.327 0.732221 0.113724 0
M  V30 5180 H 480.974 1.86888 -0.417756 0
M  V30 5181 H 479.279 3.61012 1.52243 0
M  V30 5182 H 480.976 3.82723 1.19684 0
M  V30 5183 H 477.566 4.28292 -0.162476 0
M  V30 5184 H 481.75 4.87188 -0.946651 0
M  V30 5185 H 477.006 5.76213 -2.04423 0
M  V30 5186 H 481.18 6.36465 -2.8264 0
M  V30 5187 H 478.807 6.80869 -3.38114 0
M  V30 5188 N 480.382 0.0267497 1.57577 0
M  V30 5189 C 481.798 -0.32962 1.56159 0
M  V30 5190 C 481.998 -1.73059 1.03213 0
M  V30 5191 O 481.054 -2.43233 0.677804 0
M  V30 5192 C 482.367 -0.18039 3.00158 0
M  V30 5193 C 483.915 -0.253334 3.11973 0
M  V30 5194 C 484.39 -0.132921 4.57807 0
M  V30 5195 N 485.881 -0.189979 4.6281 0
M  V30 5196 C 486.616 -0.120554 5.73273 0
M  V30 5197 N 486.112 -0.000180315 6.928 0
M  V30 5198 N 487.905 -0.174369 5.61829 0
M  V30 5199 H 480.056 0.942896 1.90324 0
M  V30 5200 H 482.319 0.3639 0.875375 0
M  V30 5201 H 482.025 0.784576 3.42837 0
M  V30 5202 H 481.899 -0.951565 3.65 0
M  V30 5203 H 484.286 -1.20876 2.69208 0
M  V30 5204 H 484.367 0.548177 2.49857 0
M  V30 5205 H 484.011 0.819073 5.01252 0
M  V30 5206 H 483.941 -0.953264 5.179 0
M  V30 5207 H 486.432 -0.283257 3.76837 0
M  V30 5208 H 486.745 0.0461666 7.72786 0
M  V30 5209 H 485.09 0.034569 6.94991 0
M  V30 5210 H 488.281 -0.266794 4.67339 0
M  V30 5211 H 488.454 -0.116802 6.47895 0
M  V30 5212 N 481.861 -1.55662 -0.24637 0
M  V30 5213 C 483.138 -1.68272 -0.997198 0
M  V30 5214 C 483.518 -0.566785 -2.03349 0
M  V30 5215 O 482.866 0.429688 -2.24424 0
M  V30 5216 C 483.076 -3.08594 -1.63006 0
M  V30 5217 C 484.424 -3.6721 -2.13171 0
M  V30 5218 O 485.448 -3.11397 -1.72946 0
M  V30 5219 O 484.307 -4.65054 -2.87031 0
M  V30 5220 H 481.401 -0.684429 -0.464205 0
M  V30 5221 H 483.947 -1.67993 -0.240114 0
M  V30 5222 H 482.719 -3.81264 -0.880527 0
M  V30 5223 H 482.342 -3.12886 -2.45333 0
M  V30 5224 N 483.339 0.512053 -1.4905 0
M  V30 5225 C 484.271 1.63121 -1.6101 0
M  V30 5226 C 485.284 1.55145 -0.493352 0
M  V30 5227 O 486.473 1.61278 -0.764955 0
M  V30 5228 C 483.573 3.01863 -1.54052 0
M  V30 5229 C 482.746 3.35138 -2.81072 0
M  V30 5230 C 481.805 4.5324 -2.67319 0
M  V30 5231 O 480.831 4.55571 -3.41238 0
M  V30 5232 N 482.033 5.52495 -1.78127 0
M  V30 5233 H 484.798 1.53292 -2.5753 0
M  V30 5234 H 482.359 0.699706 -1.45999 0
M  V30 5235 H 484.351 3.78774 -1.42521 0
M  V30 5236 H 482.921 3.05675 -0.654345 0
M  V30 5237 H 482.141 2.4723 -3.07036 0
M  V30 5238 H 483.429 3.54162 -3.65304 0
M  V30 5239 H 482.827 5.53403 -1.17308 0
M  V30 5240 H 481.384 6.28553 -1.72525 0
M  V30 5241 N 484.817 1.37938 0.762283 0
M  V30 5242 C 485.727 1.36681 1.90671 0
M  V30 5243 C 486.743 0.265078 1.71969 0
M  V30 5244 O 487.919 0.502055 1.95042 0
M  V30 5245 C 484.984 1.18211 3.25925 0
M  V30 5246 C 484.045 2.3811 3.57214 0
M  V30 5247 C 483.278 2.20512 4.86014 0
M  V30 5248 O 483.501 1.19429 5.57757 0
M  V30 5249 O 482.435 3.08911 5.16583 0
M  V30 5250 H 486.261 2.33091 1.94685 0
M  V30 5251 H 483.846 1.18767 0.906356 0
M  V30 5252 H 485.728 1.09937 4.06807 0
M  V30 5253 H 484.403 0.248807 3.22742 0
M  V30 5254 H 483.31 2.51958 2.76529 0
M  V30 5255 H 484.643 3.30041 3.65149 0
M  V30 5256 N 486.295 -0.989507 1.22664 0
M  V30 5257 C 487.542 -1.72953 1.05325 0
M  V30 5258 C 487.87 -1.90104 -0.411168 0
M  V30 5259 O 487.125 -1.44386 -1.32103 0
M  V30 5260 C 487.424 -3.13649 1.71345 0
M  V30 5261 C 487.09 -3.16403 3.21248 0
M  V30 5262 C 485.752 -3.16862 3.62149 0
M  V30 5263 C 488.104 -3.12428 4.17179 0
M  V30 5264 C 485.432 -3.11051 4.97458 0
M  V30 5265 C 487.784 -3.08159 5.52468 0
M  V30 5266 C 486.448 -3.06935 5.92746 0
M  V30 5267 H 485.718 -0.632881 0.385412 0
M  V30 5268 H 488.365 -1.15863 1.52473 0
M  V30 5269 H 486.67 -3.74069 1.16532 0
M  V30 5270 H 488.367 -3.69658 1.55416 0
M  V30 5271 H 484.957 -3.16798 2.88682 0
M  V30 5272 H 489.141 -3.11221 3.86595 0
M  V30 5273 H 484.397 -3.0845 5.27891 0
M  V30 5274 H 488.571 -3.04039 6.26525 0
M  V30 5275 H 486.198 -3.02186 6.97558 0
M  V30 5276 N 487.773 -1.03688 -1.18687 0
M  V30 5277 C 488.998 -0.757819 -1.93059 0
M  V30 5278 C 489.423 0.678353 -1.75442 0
M  V30 5279 O 488.781 1.46938 -1.06203 0
M  V30 5280 C 488.829 -1.12423 -3.42627 0
M  V30 5281 O 487.933 -0.247505 -4.11657 0
M  V30 5282 H 487.274 -0.279245 -0.602427 0
M  V30 5283 H 489.804 -1.3857 -1.5053 0
M  V30 5284 H 489.814 -1.08454 -3.93322 0
M  V30 5285 H 488.489 -2.17049 -3.54771 0
M  V30 5286 H 487.066 -0.34649 -3.71287 0
M  V30 5287 N 489.251 1.34841 -0.815825 0
M  V30 5288 C 490.476 2.03261 -0.41226 0
M  V30 5289 C 490.901 1.61055 0.971751 0
M  V30 5290 O 490.259 0.7917 1.63101 0
M  V30 5291 C 490.307 3.56914 -0.514289 0
M  V30 5292 O 489.411 4.09728 0.468675 0
M  V30 5293 H 488.752 0.641664 -0.170771 0
M  V30 5294 H 491.282 1.72241 -1.10427 0
M  V30 5295 H 491.292 4.06156 -0.387457 0
M  V30 5296 H 489.967 3.86982 -1.52375 0
M  V30 5297 H 488.544 3.71681 0.301316 0
M  V30 5298 N 490.729 0.570148 1.46925 0
M  V30 5299 C 492.006 -0.0153259 1.95594 0
M  V30 5300 C 492.386 -1.47232 1.51281 0
M  V30 5301 O 491.734 -2.15574 0.757624 0
M  V30 5302 C 491.944 0.143624 3.48704 0
M  V30 5303 C 493.292 0.00494484 4.246 0
M  V30 5304 O 494.316 0.0718214 3.56128 0
M  V30 5305 O 493.175 -0.141175 5.46318 0
M  V30 5306 H 490.269 -0.0568819 0.825041 0
M  V30 5307 H 492.815 0.637583 1.57267 0
M  V30 5308 H 491.587 1.15699 3.73804 0
M  V30 5309 H 491.21 -0.5463 3.93829 0
M  V30 5310 N 492.207 -1.54576 0.307264 0
M  V30 5311 C 493.137 -2.26708 -0.55907 0
M  V30 5312 C 494.118 -1.26893 -1.1328 0
M  V30 5313 O 495.303 -1.55677 -1.16097 0
M  V30 5314 C 492.433 -3.01259 -1.72801 0
M  V30 5315 C 491.387 -4.08275 -1.28435 0
M  V30 5316 C 490.713 -4.70575 -2.53895 0
M  V30 5317 C 492.013 -5.2068 -0.411038 0
M  V30 5318 H 493.707 -2.9937 0.042576 0
M  V30 5319 H 491.253 -1.43983 0.0219173 0
M  V30 5320 H 493.206 -3.50444 -2.34023 0
M  V30 5321 H 491.93 -2.26187 -2.356 0
M  V30 5322 H 490.589 -3.59949 -0.695161 0
M  V30 5323 H 490.237 -3.92136 -3.15021 0
M  V30 5324 H 489.937 -5.42854 -2.24908 0
M  V30 5325 H 491.461 -5.22527 -3.15908 0
M  V30 5326 H 492.875 -5.65721 -0.929097 0
M  V30 5327 H 491.272 -5.99716 -0.214664 0
M  V30 5328 H 492.342 -4.81629 0.562287 0
M  V30 5329 N 493.685 -0.035106 -1.57561 0
M  V30 5330 C 494.933 0.64096 -1.91667 0
M  V30 5331 C 495.254 1.72323 -0.912681 0
M  V30 5332 O 494.524 1.95849 0.0449089 0
M  V30 5333 H 493.104 0.239743 -0.707483 0
M  V30 5334 H 495.766 -0.084321 -1.94718 0
M  V30 5335 H 494.862 1.08987 -2.92452 0
M  V30 5336 N 495.163 1.55791 0.238111 0
M  V30 5337 C 496.388 1.8244 0.986432 0
M  V30 5338 C 496.813 0.613314 1.7782 0
M  V30 5339 O 496.171 -0.437767 1.75935 0
M  V30 5340 C 496.219 3.06917 1.893 0
M  V30 5341 O 495.323 2.84449 2.98601 0
M  V30 5342 H 494.664 0.601975 0.280218 0
M  V30 5343 H 497.194 2.02987 0.256437 0
M  V30 5344 H 497.204 3.36583 2.30598 0
M  V30 5345 H 495.879 3.947 1.31091 0
M  V30 5346 H 494.456 2.65972 2.61368 0
M  V30 5347 N 496.642 -0.504142 1.49319 0
M  V30 5348 C 498.058 -0.835039 1.36012 0
M  V30 5349 C 498.258 -1.97674 0.390808 0
M  V30 5350 O 497.314 -2.51867 -0.178655 0
M  V30 5351 C 498.627 -1.17821 2.76656 0
M  V30 5352 C 500.175 -1.2866 2.85334 0
M  V30 5353 C 500.65 -1.66307 4.26739 0
M  V30 5354 N 502.141 -1.73362 4.29534 0
M  V30 5355 C 502.876 -2.0393 5.35911 0
M  V30 5356 N 502.372 -2.32744 6.52535 0
M  V30 5357 N 504.165 -2.05155 5.23324 0
M  V30 5358 H 496.316 0.248764 2.10938 0
M  V30 5359 H 498.579 0.0486962 0.946748 0
M  V30 5360 H 498.285 -0.412682 3.4927 0
M  V30 5361 H 498.159 -2.12239 3.11825 0
M  V30 5362 H 500.546 -2.04285 2.1296 0
M  V30 5363 H 500.627 -0.323004 2.53752 0
M  V30 5364 H 500.271 -0.91234 4.99639 0
M  V30 5365 H 500.201 -2.63761 4.55782 0
M  V30 5366 H 502.692 -1.53268 3.45424 0
M  V30 5367 H 503.005 -2.55248 7.2943 0
M  V30 5368 H 501.35 -2.30207 6.55767 0
M  V30 5369 H 504.541 -1.82119 4.3122 0
M  V30 5370 H 504.714 -2.28644 6.06322 0
M  V30 5371 N 498.12 -1.38341 -0.754957 0
M  V30 5372 C 499.083 -1.35262 -1.85032 0
M  V30 5373 C 500.083 -0.253393 -1.58791 0
M  V30 5374 O 501.273 -0.510205 -1.66561 0
M  V30 5375 C 498.405 -1.10544 -3.22479 0
M  V30 5376 H 499.598 -2.32712 -1.8917 0
M  V30 5377 H 497.151 -1.23614 -0.956515 0
M  V30 5378 H 497.886 -0.136952 -3.24011 0
M  V30 5379 H 497.671 -1.90127 -3.4292 0
M  V30 5380 H 499.161 -1.11082 -4.02555 0
M  V30 5381 N 499.598 0.982988 -1.23187 0
M  V30 5382 C 500.844 1.72648 -1.06398 0
M  V30 5383 C 501.177 1.90066 0.398561 0
M  V30 5384 O 500.452 1.45105 1.29518 0
M  V30 5385 C 500.735 3.12627 -1.78707 0
M  V30 5386 C 500.588 3.02795 -3.32618 0
M  V30 5387 C 501.907 4.11997 -1.54747 0
M  V30 5388 H 499.026 0.626649 -0.387918 0
M  V30 5389 H 501.668 1.14455 -1.51658 0
M  V30 5390 H 499.818 3.62308 -1.40234 0
M  V30 5391 H 501.49 2.60659 -3.80598 0
M  V30 5392 H 499.733 2.39362 -3.61785 0
M  V30 5393 H 500.404 4.01893 -3.78399 0
M  V30 5394 H 502.88 3.71114 -1.88186 0
M  V30 5395 H 501.756 5.08037 -2.07821 0
M  V30 5396 H 502.017 4.39462 -0.482249 0
M  V30 5397 N 501.076 1.04316 1.18135 0
M  V30 5398 C 502.024 0.630175 2.23901 0
M  V30 5399 C 503.018 -0.344254 1.65865 0
M  V30 5400 O 504.224 -0.211273 1.78756 0
M  V30 5401 H 500.599 0.185578 0.728742 0
M  V30 5402 H 502.57 1.53253 2.56039 0
M  V30 5403 C 501.319 0.011666 3.47698 0
M  V30 5404 H 500.642 0.752526 3.92654 0
M  V30 5405 H 502.082 -0.240046 4.2332 0
M  V30 5406 C 500.541 -1.23913 3.13285 0
M  V30 5407 O 501.071 -2.32959 3.27251 0
M  V30 5408 N 499.277 -1.13338 2.67587 0
M  V30 5409 H 498.824 -0.246006 2.56423 0
M  V30 5410 H 498.782 -1.97116 2.44934 0
M  V30 5411 N 502.554 -1.34406 0.822964 0
M  V30 5412 C 503.97 -1.51275 0.508727 0
M  V30 5413 C 504.17 -1.76776 -0.967083 0
M  V30 5414 O 503.226 -1.81871 -1.75155 0
M  V30 5415 C 504.539 -2.67765 1.36829 0
M  V30 5416 C 506.087 -2.81647 1.36542 0
M  V30 5417 C 506.562 -4.01181 2.20947 0
M  V30 5418 N 508.053 -4.08388 2.18571 0
M  V30 5419 C 508.788 -5.00036 2.80627 0
M  V30 5420 N 508.284 -5.96906 3.51674 0
M  V30 5421 N 510.077 -4.92908 2.70181 0
M  V30 5422 H 502.228 -1.16113 1.77852 0
M  V30 5423 H 504.491 -0.56947 0.757897 0
M  V30 5424 H 504.197 -2.55551 2.41633 0
M  V30 5425 H 504.071 -3.62779 1.03303 0
M  V30 5426 H 506.458 -2.93303 0.325163 0
M  V30 5427 H 506.539 -1.87443 1.74066 0
M  V30 5428 H 506.183 -3.90286 3.25022 0
M  V30 5429 H 506.113 -4.94599 1.80774 0
M  V30 5430 H 508.604 -3.39051 1.66891 0
M  V30 5431 H 508.917 -6.63468 3.96271 0
M  V30 5432 H 507.262 -5.9703 3.5578 0
M  V30 5433 H 510.453 -4.1619 2.14251 0
M  V30 5434 H 510.626 -5.64137 3.18831 0
M  V30 5435 N 504.032 -0.577932 -1.46621 0
M  V30 5436 C 505.281 -0.0594281 -2.01612 0
M  V30 5437 C 505.594 1.30663 -1.45556 0
M  V30 5438 O 506.8 1.91621 -1.92337 0
M  V30 5439 C 505.256 -0.0556666 -3.59857 0
M  V30 5440 C 504.864 -1.41975 -4.24908 0
M  V30 5441 C 506.608 0.409143 -4.22524 0
M  V30 5442 C 504.515 -1.37397 -5.75218 0
M  V30 5443 H 503.445 -0.0184469 -0.753774 0
M  V30 5444 H 506.096 -0.728869 -1.68404 0
M  V30 5445 H 504.478 0.679843 -3.90121 0
M  V30 5446 H 505.652 -2.17461 -4.0626 0
M  V30 5447 H 503.967 -1.82419 -3.74316 0
M  V30 5448 H 506.564 0.46211 -5.32699 0
M  V30 5449 H 506.907 1.42565 -3.91128 0
M  V30 5450 H 507.44 -0.272152 -3.96868 0
M  V30 5451 H 504.179 -2.36714 -6.11267 0
M  V30 5452 H 503.699 -0.661239 -5.96144 0
M  V30 5453 H 505.378 -1.08484 -6.3784 0
M  V30 5454 N 505.51 1.54411 -0.315457 0
M  V30 5455 C 506.458 2.25514 0.569771 0
M  V30 5456 C 507.452 1.2663 1.12522 0
M  V30 5457 O 508.658 1.44434 1.07419 0
M  V30 5458 H 505.033 0.724257 0.202376 0
M  V30 5459 H 507.004 2.98354 -0.0522895 0
M  V30 5460 C 505.753 3.02004 1.72305 0
M  V30 5461 H 505.076 3.77906 1.30488 0
M  V30 5462 H 506.516 3.55014 2.31821 0
M  V30 5463 C 504.975 2.09822 2.63583 0
M  V30 5464 O 505.505 1.67574 3.65078 0
M  V30 5465 N 503.711 1.75478 2.31637 0
M  V30 5466 H 503.258 2.10032 1.49145 0
M  V30 5467 H 503.216 1.14079 2.92973 0
M  V30 5468 N 506.988 0.0434614 1.5754 0
M  V30 5469 C 507.936 -0.951465 2.1225 0
M  V30 5470 C 508.93 -1.3274 1.05245 0
M  V30 5471 O 510.136 -1.30795 1.23663 0
M  V30 5472 H 506.511 -0.324667 0.678303 0
M  V30 5473 H 508.482 -0.464855 2.94757 0
M  V30 5474 C 507.231 -2.21972 2.67626 0
M  V30 5475 H 506.554 -1.93923 3.4962 0
M  V30 5476 H 507.994 -2.89765 3.09536 0
M  V30 5477 C 506.453 -2.95919 1.61038 0
M  V30 5478 O 506.983 -3.8857 1.01862 0
M  V30 5479 N 505.189 -2.58511 1.32741 0
M  V30 5480 H 504.736 -1.83244 1.81051 0
M  V30 5481 H 504.694 -3.08296 0.616531 0
M  V30 5482 N 508.466 -1.55915 -0.229846 0
M  V30 5483 C 509.712 -1.78807 -0.956868 0
M  V30 5484 C 510.045 -0.611687 -1.84315 0
M  V30 5485 O 509.32 0.389398 -1.90562 0
M  V30 5486 C 509.603 -3.11718 -1.80288 0
M  V30 5487 C 509.456 -4.3979 -0.943649 0
M  V30 5488 C 510.775 -3.40999 -2.78222 0
M  V30 5489 H 507.894 -0.6505 -0.346437 0
M  V30 5490 H 510.536 -1.88648 -0.226252 0
M  V30 5491 H 508.686 -3.03459 -2.42579 0
M  V30 5492 H 510.358 -4.60059 -0.338121 0
M  V30 5493 H 508.601 -4.33086 -0.248705 0
M  V30 5494 H 509.272 -5.29208 -1.5698 0
M  V30 5495 H 511.748 -3.49332 -2.26067 0
M  V30 5496 H 510.624 -4.35183 -3.34526 0
M  V30 5497 H 510.885 -2.62754 -3.55546 0
M  V30 5498 N 509.944 0.496216 -1.49584 0
M  V30 5499 C 511.36 0.827814 -1.36453 0
M  V30 5500 C 511.56 1.97464 -0.401285 0
M  V30 5501 O 510.616 2.51958 0.165296 0
M  V30 5502 C 511.929 1.16352 -2.77277 0
M  V30 5503 C 513.477 1.27145 -2.86013 0
M  V30 5504 C 513.952 1.64042 -4.27615 0
M  V30 5505 N 515.443 1.71082 -4.30448 0
M  V30 5506 C 516.178 2.01085 -5.36984 0
M  V30 5507 N 515.674 2.2928 -6.5376 0
M  V30 5508 N 517.467 2.02376 -5.24405 0
M  V30 5509 H 509.618 -0.259947 -2.10803 0
M  V30 5510 H 511.881 -0.0537163 -0.946477 0
M  V30 5511 H 511.587 0.394153 -3.49484 0
M  V30 5512 H 511.461 2.10582 -3.12946 0
M  V30 5513 H 513.848 2.03152 -2.1404 0
M  V30 5514 H 513.929 0.309542 -2.5392 0
M  V30 5515 H 513.573 0.88583 -5.00115 0
M  V30 5516 H 513.503 2.6134 -4.57175 0
M  V30 5517 H 515.994 1.51434 -3.46232 0
M  V30 5518 H 516.307 2.51376 -7.30774 0
M  V30 5519 H 514.652 2.26726 -6.56978 0
M  V30 5520 H 517.843 1.79829 -4.32179 0
M  V30 5521 H 518.016 2.25425 -6.07526 0
M  V30 5522 N 511.423 1.38739 0.74761 0
M  V30 5523 C 512.651 1.38521 1.53686 0
M  V30 5524 C 513.066 -0.0235129 1.88785 0
M  V30 5525 O 512.423 -0.991662 1.53207 0
M  V30 5526 C 512.474 2.24641 2.83229 0
M  V30 5527 O 512.195 3.60026 2.49625 0
M  V30 5528 C 513.696 2.32669 3.77333 0
M  V30 5529 H 510.916 0.473589 0.475347 0
M  V30 5530 H 513.46 1.82395 0.924786 0
M  V30 5531 H 511.615 1.84213 3.40799 0
M  V30 5532 H 512.029 4.05435 3.3275 0
M  V30 5533 H 513.503 2.97201 4.65162 0
M  V30 5534 H 513.98 1.3421 4.18192 0
M  V30 5535 H 514.586 2.73512 3.25685 0
M  V30 5536 N 512.901 -0.976442 1.23707 0
M  V30 5537 C 513.834 -2.06793 0.964973 0
M  V30 5538 C 514.812 -1.62304 -0.0981472 0
M  V30 5539 O 515.996 -1.88464 0.0369477 0
M  V30 5540 C 513.123 -3.35636 0.454522 0
M  V30 5541 C 512.169 -3.99069 1.50485 0
M  V30 5542 S 513.002 -4.37814 3.0835 0
M  V30 5543 C 514.158 -5.69805 2.58985 0
M  V30 5544 H 514.391 -2.29556 1.88922 0
M  V30 5545 H 511.924 -1.11317 1.06995 0
M  V30 5546 H 513.882 -4.10162 0.166626 0
M  V30 5547 H 512.543 -3.10876 -0.448871 0
M  V30 5548 H 511.736 -4.91896 1.09792 0
M  V30 5549 H 511.338 -3.30938 1.7423 0
M  V30 5550 H 513.63 -6.46919 2.01252 0
M  V30 5551 H 514.573 -6.15345 3.50366 0
M  V30 5552 H 514.981 -5.27994 1.99705 0
M  V30 5553 N 514.379 -1.04941 -1.1758 0
M  V30 5554 C 515.795 -0.770282 -1.39781 0
M  V30 5555 C 515.995 0.636417 -1.91186 0
M  V30 5556 O 515.051 1.39923 -2.10185 0
M  V30 5557 C 516.364 -1.82376 -2.3908 0
M  V30 5558 C 517.912 -1.84569 -2.52791 0
M  V30 5559 C 518.387 -2.88933 -3.55361 0
M  V30 5560 N 519.878 -2.8788 -3.62877 0
M  V30 5561 C 520.613 -3.65282 -4.41992 0
M  V30 5562 N 520.109 -4.52461 -5.24643 0
M  V30 5563 N 521.902 -3.53732 -4.36841 0
M  V30 5564 H 514.053 -1.95705 -0.825438 0
M  V30 5565 H 516.316 -0.847284 -0.425222 0
M  V30 5566 H 516.022 -2.83323 -2.08376 0
M  V30 5567 H 515.896 -1.66327 -3.38549 0
M  V30 5568 H 518.283 -0.842879 -2.82807 0
M  V30 5569 H 518.364 -2.04696 -1.53406 0
M  V30 5570 H 518.008 -3.89398 -3.26085 0
M  V30 5571 H 517.938 -2.66059 -4.54445 0
M  V30 5572 H 520.429 -2.24666 -3.03864 0
M  V30 5573 H 520.742 -5.08211 -5.82187 0
M  V30 5574 H 519.087 -4.56524 -5.24033 0
M  V30 5575 H 522.278 -2.85021 -3.71323 0
M  V30 5576 H 522.451 -4.14302 -4.98255 0
M  V30 5577 N 515.857 1.33968 -0.830081 0
M  V30 5578 C 517.105 1.97672 -0.420734 0
M  V30 5579 C 517.426 1.66111 1.02138 0
M  V30 5580 O 516.696 0.955503 1.71017 0
M  V30 5581 H 515.276 0.73125 -0.152587 0
M  V30 5582 H 517.938 1.63483 -1.0611 0
M  V30 5583 H 517.034 3.07294 -0.545588 0
M  V30 5584 N 517.335 0.585699 1.46312 0
M  V30 5585 C 518.265 -0.133556 2.33118 0
M  V30 5586 C 519.246 -0.880707 1.45525 0
M  V30 5587 O 520.431 -0.855579 1.74337 0
M  V30 5588 C 517.561 -1.14585 3.27853 0
M  V30 5589 C 516.515 -0.513341 4.2491 0
M  V30 5590 C 515.841 -1.63231 5.09175 0
M  V30 5591 C 517.141 0.551413 5.19381 0
M  V30 5592 H 518.835 0.59121 2.93505 0
M  V30 5593 H 516.381 0.285761 1.41136 0
M  V30 5594 H 518.334 -1.65741 3.87438 0
M  V30 5595 H 517.058 -1.90093 2.65579 0
M  V30 5596 H 515.717 -0.0228349 3.66593 0
M  V30 5597 H 515.365 -2.37713 4.43285 0
M  V30 5598 H 515.065 -1.21473 5.74907 0
M  V30 5599 H 516.589 -2.14658 5.71624 0
M  V30 5600 H 518.003 0.124804 5.73164 0
M  V30 5601 H 516.4 0.889486 5.93471 0
M  V30 5602 H 517.47 1.43655 4.63132 0
M  V30 5603 N 518.813 -1.54241 0.323641 0
M  V30 5604 C 519.745 -2.21836 -0.576311 0
M  V30 5605 C 520.758 -1.21837 -1.07979 0
M  V30 5606 O 521.947 -1.48306 -0.99336 0
M  V30 5607 C 519.047 -2.86923 -1.80356 0
M  V30 5608 C 518.22 -4.1306 -1.43875 0
M  V30 5609 C 517.279 -4.6174 -2.52353 0
M  V30 5610 O 516.305 -5.26421 -2.16494 0
M  V30 5611 N 517.507 -4.35974 -3.83284 0
M  V30 5612 H 520.272 -2.997 0.00247987 0
M  V30 5613 H 517.833 -1.61233 0.146848 0
M  V30 5614 H 519.825 -3.16414 -2.52318 0
M  V30 5615 H 518.395 -2.12765 -2.29019 0
M  V30 5616 H 517.615 -3.90334 -0.550752 0
M  V30 5617 H 518.903 -4.95148 -1.17071 0
M  V30 5618 H 518.301 -3.84203 -4.15216 0
M  V30 5619 H 516.858 -4.70119 -4.51477 0
M  V30 5620 N 520.291 -0.0518155 -1.57515 0
M  V30 5621 C 521.538 0.621823 -1.92716 0
M  V30 5622 C 521.866 1.70813 -0.930229 0
M  V30 5623 O 521.121 1.95616 0.0573708 0
M  V30 5624 C 521.42 1.25607 -3.34601 0
M  V30 5625 C 521.086 0.297901 -4.49915 0
M  V30 5626 C 519.748 0.034243 -4.81188 0
M  V30 5627 C 522.1 -0.358738 -5.19964 0
M  V30 5628 C 519.428 -0.893479 -5.79857 0
M  V30 5629 C 521.78 -1.27466 -6.19625 0
M  V30 5630 C 520.444 -1.54698 -6.49326 0
M  V30 5631 H 519.714 0.227541 -0.705199 0
M  V30 5632 H 522.361 -0.118432 -1.91133 0
M  V30 5633 H 520.666 2.07161 -3.32553 0
M  V30 5634 H 522.363 1.78424 -3.59118 0
M  V30 5635 H 518.953 0.513581 -4.25512 0
M  V30 5636 H 523.137 -0.168133 -4.96015 0
M  V30 5637 H 518.393 -1.11193 -6.01204 0
M  V30 5638 H 522.567 -1.78953 -6.73015 0
M  V30 5639 H 520.194 -2.26748 -7.25596 0
M  V30 5640 N 521.769 1.56035 0.221574 0
M  V30 5641 C 522.732 1.91584 1.2581 0
M  V30 5642 C 523.732 0.794425 1.39805 0
M  V30 5643 O 524.922 1.06217 1.38071 0
M  V30 5644 C 522.054 2.16663 2.63192 0
M  V30 5645 H 523.247 2.8429 0.954935 0
M  V30 5646 H 520.8 1.49316 0.461988 0
M  V30 5647 H 521.535 1.26508 2.98607 0
M  V30 5648 H 521.32 2.98358 2.5441 0
M  V30 5649 H 522.81 2.45262 3.37988 0
M  V30 5650 N 523.247 -0.488276 1.49845 0
M  V30 5651 C 524.157 -1.61451 1.70207 0
M  V30 5652 C 525.173 -1.63877 0.584846 0
M  V30 5653 O 526.349 -1.82063 0.861107 0
M  V30 5654 C 523.414 -2.9776 1.77594 0
M  V30 5655 C 522.475 -3.05861 3.01243 0
M  V30 5656 C 521.708 -4.35668 3.08268 0
M  V30 5657 O 521.931 -5.25197 2.22541 0
M  V30 5658 O 520.865 -4.49005 4.00847 0
M  V30 5659 H 524.691 -1.47199 2.65643 0
M  V30 5660 H 522.276 -0.665939 1.33737 0
M  V30 5661 H 524.158 -3.7875 1.84732 0
M  V30 5662 H 522.833 -3.12248 0.8534 0
M  V30 5663 H 521.74 -2.24012 2.99616 0
M  V30 5664 H 523.073 -2.96304 3.9302 0
M  V30 5665 N 524.725 -1.39134 -0.740242 0
M  V30 5666 C 526.002 -1.26584 -1.49117 0
M  V30 5667 C 526.382 0.126902 -2.10718 0
M  V30 5668 O 525.73 1.13765 -1.98166 0
M  V30 5669 C 525.94 -2.38619 -2.54681 0
M  V30 5670 C 527.288 -2.77685 -3.21211 0
M  V30 5671 O 528.312 -2.38029 -2.64991 0
M  V30 5672 O 527.171 -3.46115 -4.22926 0
M  V30 5673 H 524.265 -0.495769 -0.661923 0
M  V30 5674 H 526.811 -1.50995 -0.774514 0
M  V30 5675 H 525.583 -3.3175 -2.07504 0
M  V30 5676 H 525.206 -2.15845 -3.33911 0
M  V30 5677 N 526.204 0.969867 -1.24223 0
M  V30 5678 C 527.167 2.04564 -1.03373 0
M  V30 5679 C 528.167 1.60798 0.00819206 0
M  V30 5680 O 529.357 1.72641 -0.232567 0
M  V30 5681 C 526.489 3.36163 -0.566343 0
M  V30 5682 H 527.682 2.24494 -1.98853 0
M  V30 5683 H 525.235 1.1448 -1.06415 0
M  V30 5684 H 525.97 3.21925 0.391751 0
M  V30 5685 H 525.755 3.69273 -1.31834 0
M  V30 5686 H 527.245 4.1526 -0.441435 0
M  V30 5687 N 527.682 1.05563 1.17022 0
M  V30 5688 C 528.907 0.788437 1.91829 0
M  V30 5689 C 529.332 -0.650356 1.76499 0
M  V30 5690 O 528.69 -1.45229 1.08527 0
M  V30 5691 C 528.738 1.1786 3.40795 0
M  V30 5692 O 527.842 0.312965 4.11211 0
M  V30 5693 H 527.183 0.288794 0.597908 0
M  V30 5694 H 529.713 1.40948 1.48307 0
M  V30 5695 H 529.723 1.14697 3.91546 0
M  V30 5696 H 528.398 2.22666 3.51273 0
M  V30 5697 H 526.975 0.405515 3.70689 0
M  V30 5698 N 529.16 -1.33526 0.837174 0
M  V30 5699 C 530.571 -1.80182 0.489017 0
M  V30 5700 C 530.922 -1.69285 -0.991826 0
M  V30 5701 O 530.047 -1.24113 -1.77271 0
M  V30 5702 C 530.642 -3.27149 0.880866 0
M  V30 5703 C 529.201 -3.71828 0.584872 0
M  V30 5704 C 528.348 -2.54974 1.09011 0
M  V30 5705 H 531.299 -1.21071 1.02603 0
M  V30 5706 H 531.32 -3.80024 0.190239 0
M  V30 5707 H 530.832 -3.35048 1.95869 0
M  V30 5708 H 528.933 -3.69457 -0.48295 0
M  V30 5709 H 529.046 -4.65366 1.13892 0
M  V30 5710 H 527.41 -2.4952 0.511047 0
M  V30 5711 H 528.193 -2.65637 2.17467 0
M  V30 5712 N 530.638 -0.59345 -1.46 0
M  V30 5713 C 531.571 0.182196 -2.27472 0
M  V30 5714 C 532.549 0.886901 -1.36282 0
M  V30 5715 O 533.733 0.898627 -1.65701 0
M  V30 5716 C 530.86 1.26236 -3.14296 0
M  V30 5717 C 529.906 0.662331 -4.21326 0
M  V30 5718 S 530.739 -0.519017 -5.32979 0
M  V30 5719 C 531.895 0.562086 -6.23371 0
M  V30 5720 H 532.128 -0.509056 -2.92909 0
M  V30 5721 H 529.661 -0.380607 -1.49635 0
M  V30 5722 H 531.619 1.88075 -3.64881 0
M  V30 5723 H 530.28 1.92562 -2.48151 0
M  V30 5724 H 529.473 1.47461 -4.81945 0
M  V30 5725 H 529.075 0.119381 -3.73809 0
M  V30 5726 H 531.367 1.44494 -6.61912 0
M  V30 5727 H 532.31 -0.00760776 -7.081 0
M  V30 5728 H 532.718 0.871061 -5.57739 0
M  V30 5729 N 532.116 1.54067 -0.331816 0
M  V30 5730 C 533.079 2.23275 0.517768 0
M  V30 5731 C 534.079 1.22897 1.03697 0
M  V30 5732 O 535.269 1.47419 0.928084 0
M  V30 5733 C 532.401 2.94326 1.72004 0
M  V30 5734 H 533.594 2.99773 -0.0873507 0
M  V30 5735 H 531.147 1.56079 -0.0830042 0
M  V30 5736 H 531.882 2.21986 2.36417 0
M  V30 5737 H 531.667 3.67941 1.35507 0
M  V30 5738 H 533.157 3.47031 2.32291 0
M  V30 5739 N 533.594 0.0601682 1.57485 0
M  V30 5740 C 534.544 -0.920969 2.08572 0
M  V30 5741 C 535.528 -1.26617 0.992827 0
M  V30 5742 O 536.72 -1.24708 1.25606 0
M  V30 5743 C 533.849 -2.19267 2.64153 0
M  V30 5744 C 532.935 -1.87447 3.80427 0
M  V30 5745 N 533.326 -1.26025 4.89848 0
M  V30 5746 C 531.624 -2.17265 3.89502 0
M  V30 5747 C 532.325 -1.12036 5.70809 0
M  V30 5748 N 531.301 -1.62624 5.18705 0
M  V30 5749 H 535.103 -0.441561 2.90564 0
M  V30 5750 H 532.617 -0.144043 1.6176 0
M  V30 5751 H 534.614 -2.90462 2.99061 0
M  V30 5752 H 533.274 -2.67806 1.83603 0
M  V30 5753 H 534.285 -0.931336 5.09457 0
M  V30 5754 H 530.962 -2.68262 3.19909 0
M  V30 5755 H 532.352 -0.642783 6.68818 0
M  V30 5756 N 535.072 -1.5615 -0.213296 0
M  V30 5757 C 536.483 -1.69645 -0.779582 0
M  V30 5758 C 536.834 -0.663615 -1.84636 0
M  V30 5759 O 535.959 0.183633 -2.15619 0
M  V30 5760 C 536.554 -3.07567 -1.42084 0
M  V30 5761 C 535.113 -3.22889 -1.93442 0
M  V30 5762 C 534.26 -2.65581 -0.797612 0
M  V30 5763 H 537.211 -1.58696 0.0114951 0
M  V30 5764 H 537.232 -3.03884 -2.28986 0
M  V30 5765 H 536.744 -3.82716 -0.644187 0
M  V30 5766 H 534.845 -2.52623 -2.73884 0
M  V30 5767 H 534.958 -4.30197 -2.10872 0
M  V30 5768 H 533.322 -2.24278 -1.20712 0
M  V30 5769 H 534.105 -3.43284 -0.033494 0
M  V30 5770 N 536.55 0.480323 -1.50102 0
M  V30 5771 C 537.799 1.22979 -1.59872 0
M  V30 5772 C 538.112 1.93282 -0.30022 0
M  V30 5773 O 539.318 2.70086 -0.276709 0
M  V30 5774 C 537.774 2.23408 -2.82164 0
M  V30 5775 C 537.382 1.5895 -4.18854 0
M  V30 5776 C 539.126 2.99055 -3.01275 0
M  V30 5777 C 537.033 2.57611 -5.32344 0
M  V30 5778 H 535.963 0.462707 -0.59533 0
M  V30 5779 H 538.614 0.501291 -1.7652 0
M  V30 5780 H 536.996 2.99511 -2.59055 0
M  V30 5781 H 538.17 0.887 -4.52182 0
M  V30 5782 H 536.485 0.956191 -4.05273 0
M  V30 5783 H 539.082 3.72876 -3.83233 0
M  V30 5784 H 539.425 3.57897 -2.12639 0
M  V30 5785 H 539.958 2.30066 -3.24522 0
M  V30 5786 H 536.697 2.03521 -6.23105 0
M  V30 5787 H 536.217 3.26041 -5.03445 0
M  V30 5788 H 537.896 3.19627 -5.62537 0
M  V30 5789 N 538.028 1.39524 0.732853 0
M  V30 5790 C 539.444 1.21176 1.03868 0
M  V30 5791 C 539.644 0.0748448 2.01361 0
M  V30 5792 O 538.7 -0.57281 2.45917 0
M  V30 5793 C 540.013 2.54667 1.59892 0
M  V30 5794 C 541.561 2.6153 1.71962 0
M  V30 5795 C 542.036 3.95248 2.31394 0
M  V30 5796 N 543.527 3.96899 2.38801 0
M  V30 5797 C 544.262 4.97138 2.85729 0
M  V30 5798 N 543.758 6.07775 3.32537 0
M  V30 5799 N 545.551 4.84516 2.84957 0
M  V30 5800 H 537.702 2.12225 0.086304 0
M  V30 5801 H 539.965 0.942614 0.100907 0
M  V30 5802 H 539.671 3.38423 0.95721 0
M  V30 5803 H 539.545 2.74538 2.58668 0
M  V30 5804 H 541.932 1.78156 2.35254 0
M  V30 5805 H 542.013 2.45507 0.718327 0
M  V30 5806 H 541.657 4.79054 1.68729 0
M  V30 5807 H 541.587 4.08593 3.32204 0
M  V30 5808 H 544.078 3.16998 2.05719 0
M  V30 5809 H 544.391 6.8017 3.66862 0
M  V30 5810 H 542.736 6.11366 3.30541 0
M  V30 5811 H 545.927 3.97185 2.47713 0
M  V30 5812 H 546.1 5.62783 3.21215 0
M  V30 5813 N 539.506 -0.963266 1.24736 0
M  V30 5814 C 540.917 -1.52145 1.08207 0
M  V30 5815 C 541.268 -1.93142 -0.345061 0
M  V30 5816 O 540.393 -1.77769 -1.23399 0
M  V30 5817 C 540.988 -2.76486 1.95808 0
M  V30 5818 C 539.547 -3.28646 1.8349 0
M  V30 5819 C 538.694 -2.01529 1.90476 0
M  V30 5820 H 541.645 -0.781083 1.38148 0
M  V30 5821 H 541.666 -3.49986 1.49297 0
M  V30 5822 H 541.178 -2.46617 2.99669 0
M  V30 5823 H 539.279 -3.63357 0.824787 0
M  V30 5824 H 539.392 -3.97246 2.67829 0
M  V30 5825 H 537.756 -2.16442 1.34258 0
M  V30 5826 H 538.539 -1.7402 2.95926 0
M  V30 5827 N 540.985 -1.06182 -1.16461 0
M  V30 5828 C 542.262 -0.691364 -1.82974 0
M  V30 5829 C 542.642 0.827377 -1.9421 0
M  V30 5830 O 541.99 1.73723 -1.48434 0
M  V30 5831 C 542.2 -1.39199 -3.20038 0
M  V30 5832 C 543.548 -1.53647 -3.95825 0
M  V30 5833 O 544.572 -1.35181 -3.29552 0
M  V30 5834 O 543.431 -1.83932 -5.14618 0
M  V30 5835 H 540.525 -0.244605 -0.789998 0
M  V30 5836 H 543.071 -1.16203 -1.23673 0
M  V30 5837 H 541.843 -2.42766 -3.06888 0
M  V30 5838 H 541.466 -0.911335 -3.87015 0
M  V30 5839 N 542.463 1.3308 -0.844243 0
M  V30 5840 C 543.396 2.27075 -0.226279 0
M  V30 5841 C 544.374 1.49911 0.629716 0
M  V30 5842 O 545.558 1.79068 0.588803 0
M  V30 5843 C 542.685 3.31767 0.681782 0
M  V30 5844 C 541.731 4.26384 -0.0994565 0
M  V30 5845 S 542.564 5.15186 -1.46094 0
M  V30 5846 C 543.72 6.23405 -0.558319 0
M  V30 5847 H 543.953 2.79141 -1.02312 0
M  V30 5848 H 541.486 1.40452 -0.641292 0
M  V30 5849 H 543.444 3.92566 1.20008 0
M  V30 5850 H 542.105 2.78507 1.45234 0
M  V30 5851 H 541.298 5.00514 0.591733 0
M  V30 5852 H 540.9 3.69949 -0.548991 0
M  V30 5853 H 543.192 6.77069 0.241672 0
M  V30 5854 H 544.135 6.96619 -1.26995 0
M  V30 5855 H 544.543 5.64333 -0.13728 0
M  V30 5856 N 543.941 0.601185 1.45683 0
M  V30 5857 C 545.187 0.0940202 2.02582 0
M  V30 5858 C 545.52 -1.26972 1.46941 0
M  V30 5859 O 544.795 -1.83613 0.641612 0
M  V30 5860 C 545.078 0.0481715 3.60068 0
M  V30 5861 C 544.931 1.44212 4.26055 0
M  V30 5862 C 546.25 -0.642975 4.35378 0
M  V30 5863 H 543.369 0.0356404 0.736138 0
M  V30 5864 H 546.011 0.771929 1.73612 0
M  V30 5865 H 544.161 -0.529128 3.8488 0
M  V30 5866 H 545.833 2.06601 4.12449 0
M  V30 5867 H 544.076 2.00465 3.84703 0
M  V30 5868 H 544.747 1.36234 5.34925 0
M  V30 5869 H 547.223 -0.152351 4.15821 0
M  V30 5870 H 546.099 -0.644141 5.45107 0
M  V30 5871 H 546.36 -1.70785 4.0778 0
M  V30 5872 N 545.419 -1.53889 0.339982 0
M  V30 5873 C 546.668 -2.00035 -0.258604 0
M  V30 5874 C 546.981 -1.23179 -1.51942 0
M  V30 5875 O 548.187 -1.59784 -2.19503 0
M  V30 5876 C 546.643 -3.56249 -0.511359 0
M  V30 5877 C 546.251 -4.41957 0.733349 0
M  V30 5878 C 547.995 -4.1082 -1.069 0
M  V30 5879 C 545.902 -5.89673 0.451591 0
M  V30 5880 H 544.832 -0.747284 -0.10041 0
M  V30 5881 H 547.483 -1.77776 0.454758 0
M  V30 5882 H 545.865 -3.7456 -1.28533 0
M  V30 5883 H 547.039 -4.35421 1.50815 0
M  V30 5884 H 545.354 -3.9836 1.21237 0
M  V30 5885 H 547.951 -5.18789 -1.2947 0
M  V30 5886 H 548.294 -3.63817 -2.02343 0
M  V30 5887 H 548.827 -3.96205 -0.355817 0
M  V30 5888 H 545.566 -6.40903 1.37565 0
M  V30 5889 H 545.086 -5.99122 -0.285193 0
M  V30 5890 H 546.765 -6.46965 0.0675067 0
M  V30 5891 N 546.897 -0.0685191 -1.57451 0
M  V30 5892 C 547.807 0.914677 -2.16034 0
M  V30 5893 C 548.823 1.32938 -1.12265 0
M  V30 5894 O 549.999 1.40275 -1.44516 0
M  V30 5895 C 547.064 2.16519 -2.70777 0
M  V30 5896 C 546.125 1.80721 -3.89408 0
M  V30 5897 C 545.358 2.9981 -4.41531 0
M  V30 5898 O 545.581 4.13727 -3.92666 0
M  V30 5899 O 544.515 2.79817 -5.32903 0
M  V30 5900 H 548.341 0.446364 -3.00402 0
M  V30 5901 H 545.926 0.154367 -1.486 0
M  V30 5902 H 547.808 2.89856 -3.05878 0
M  V30 5903 H 546.483 2.62454 -1.89471 0
M  V30 5904 H 545.39 1.04646 -3.59166 0
M  V30 5905 H 546.723 1.39571 -4.71997 0
M  V30 5906 N 548.375 1.56261 0.205012 0
M  V30 5907 C 549.308 1.88797 1.28183 0
M  V30 5908 C 550.286 0.747018 1.44424 0
M  V30 5909 O 551.47 0.997039 1.59973 0
M  V30 5910 C 548.597 2.10949 2.64987 0
M  V30 5911 C 547.643 3.33649 2.6567 0
M  V30 5912 S 548.476 4.89078 2.18088 0
M  V30 5913 C 549.632 5.14286 3.56736 0
M  V30 5914 H 549.865 2.79837 1.00393 0
M  V30 5915 H 547.398 1.48911 0.408042 0
M  V30 5916 H 549.356 2.24395 3.4374 0
M  V30 5917 H 548.017 1.20678 2.89993 0
M  V30 5918 H 547.21 3.46245 3.66239 0
M  V30 5919 H 546.812 3.19146 1.94992 0
M  V30 5920 H 549.104 5.04198 4.52537 0
M  V30 5921 H 550.047 6.16096 3.49043 0
M  V30 5922 H 550.455 4.41957 3.51189 0
M  V30 5923 N 549.853 -0.472356 1.50355 0
M  V30 5924 C 550.801 -1.59126 1.69651 0
M  V30 5925 C 551.795 -1.59793 0.56237 0
M  V30 5926 O 553.001 -1.63957 0.742832 0
M  V30 5927 H 549.376 -0.528008 0.535454 0
M  V30 5928 H 551.347 -1.40013 2.63513 0
M  V30 5929 C 550.096 -2.97075 1.8067 0
M  V30 5930 H 549.419 -2.9728 2.67329 0
M  V30 5931 H 550.859 -3.74825 1.98197 0
M  V30 5932 C 549.318 -3.32247 0.558016 0
M  V30 5933 O 549.848 -4.00553 -0.303399 0
M  V30 5934 N 548.054 -2.87659 0.412415 0
M  V30 5935 H 547.601 -2.32246 1.11443 0
M  V30 5936 H 547.559 -3.11556 -0.421908 0
M  V30 5937 N 551.331 -1.39911 -0.725443 0
M  V30 5938 C 552.279 -1.39552 -1.86086 0
M  V30 5939 C 553.273 -0.277334 -1.67114 0
M  V30 5940 O 554.479 -0.447865 -1.74339 0
M  V30 5941 H 550.854 -0.435993 -0.612711 0
M  V30 5942 H 552.825 -2.35305 -1.83505 0
M  V30 5943 C 551.574 -1.26529 -3.2386 0
M  V30 5944 H 550.897 -2.11845 -3.3906 0
M  V30 5945 H 552.337 -1.30336 -4.03471 0
M  V30 5946 C 550.796 0.0254168 -3.3689 0
M  V30 5947 O 551.326 0.992048 -3.89257 0
M  V30 5948 N 549.532 0.0916528 -2.90455 0
M  V30 5949 H 549.079 -0.695675 -2.48028 0
M  V30 5950 H 549.037 0.954745 -2.99553 0
M  V30 5951 N 552.809 0.956637 -1.25245 0
M  V30 5952 C 554.056 1.701 -1.09874 0
M  V30 5953 C 554.384 1.91128 0.36062 0
M  V30 5954 O 553.639 1.47837 1.28229 0
M  V30 5955 C 553.938 3.08996 -1.79601 0
M  V30 5956 C 553.604 3.07774 -3.29523 0
M  V30 5957 C 552.266 3.07149 -3.70423 0
M  V30 5958 C 554.618 3.01257 -4.25316 0
M  V30 5959 C 551.946 2.97752 -5.0553 0
M  V30 5960 C 554.298 2.93403 -5.60444 0
M  V30 5961 C 552.962 2.91111 -6.00675 0
M  V30 5962 H 552.232 0.62244 -0.402056 0
M  V30 5963 H 554.879 1.1178 -1.55491 0
M  V30 5964 H 553.184 3.70848 -1.26408 0
M  V30 5965 H 554.881 3.65407 -1.65162 0
M  V30 5966 H 551.471 3.09032 -2.9698 0
M  V30 5967 H 555.655 3.00861 -3.9471 0
M  V30 5968 H 550.911 2.94346 -5.35883 0
M  V30 5969 H 555.085 2.87321 -6.34366 0
M  V30 5970 H 552.712 2.83586 -7.05325 0
M  V30 5971 N 554.287 1.06798 1.15896 0
M  V30 5972 C 555.517 0.807522 1.90165 0
M  V30 5973 C 555.925 -0.642417 1.7796 0
M  V30 5974 O 555.268 -1.45193 1.12537 0
M  V30 5975 C 555.33 1.12939 3.41299 0
M  V30 5976 C 554.994 2.57879 3.7729 0
M  V30 5977 C 555.991 3.56118 3.78782 0
M  V30 5978 C 553.676 2.93311 4.07767 0
M  V30 5979 C 555.67 4.87827 4.10248 0
M  V30 5980 C 553.357 4.25219 4.38899 0
M  V30 5981 C 554.355 5.22287 4.4012 0
M  V30 5982 O 554.043 6.51826 4.70508 0
M  V30 5983 H 553.775 0.291946 0.609708 0
M  V30 5984 H 556.329 1.42627 1.47806 0
M  V30 5985 H 554.559 0.45359 3.84031 0
M  V30 5986 H 556.248 0.852363 3.9685 0
M  V30 5987 H 557.014 3.30086 3.55342 0
M  V30 5988 H 552.893 2.18409 4.05979 0
M  V30 5989 H 556.437 5.63586 4.11116 0
M  V30 5990 H 552.334 4.51006 4.61805 0
M  V30 5991 H 553.102 6.56893 4.88298 0
M  V30 5992 N 555.766 -1.3263 0.851289 0
M  V30 5993 C 556.994 -2.01563 0.466899 0
M  V30 5994 C 557.409 -1.63996 -0.935447 0
M  V30 5995 O 556.766 -0.85957 -1.6099 0
M  V30 5996 C 556.817 -3.56613 0.592433 0
M  V30 5997 O 556.538 -3.92828 1.93954 0
M  V30 5998 C 558.039 -4.42818 0.206612 0
M  V30 5999 H 555.259 -0.645307 0.183902 0
M  V30 6000 H 557.803 -1.69285 1.1473 0
M  V30 6001 H 555.958 -3.87379 -0.0401936 0
M  V30 6002 H 556.372 -4.87545 1.9339 0
M  V30 6003 H 557.846 -5.50918 0.345462 0
M  V30 6004 H 558.323 -4.30844 -0.85264 0
M  V30 6005 H 558.929 -4.17434 0.814176 0
M  V30 6006 N 557.244 -0.608902 -1.45362 0
M  V30 6007 C 558.174 0.0964526 -2.33301 0
M  V30 6008 C 559.155 0.857444 -1.46908 0
M  V30 6009 O 560.34 0.827735 -1.75676 0
M  V30 6010 C 557.47 1.09354 -3.29635 0
M  V30 6011 C 556.424 0.445676 -4.25673 0
M  V30 6012 C 555.75 1.5511 -5.11708 0
M  V30 6013 C 557.05 -0.633972 -5.18438 0
M  V30 6014 H 558.744 -0.637829 -2.92527 0
M  V30 6015 H 556.29 -0.308178 -1.40664 0
M  V30 6016 H 558.243 1.59556 -3.90025 0
M  V30 6017 H 556.967 1.85843 -2.6857 0
M  V30 6018 H 555.626 -0.0354897 -3.66583 0
M  V30 6019 H 555.274 2.30631 -4.4701 0
M  V30 6020 H 554.974 1.12311 -5.76767 0
M  V30 6021 H 556.498 2.05537 -5.74967 0
M  V30 6022 H 557.912 -0.215974 -5.72893 0
M  V30 6023 H 556.309 -0.983789 -5.91981 0
M  V30 6024 H 557.379 -1.51005 -4.60788 0
M  V30 6025 N 558.722 1.53707 -0.348139 0
M  V30 6026 C 559.95 2.05406 0.248224 0
M  V30 6027 C 560.365 1.22282 1.43849 0
M  V30 6028 O 559.722 0.259244 1.80649 0
M  V30 6029 C 559.773 3.55446 0.658793 0
M  V30 6030 O 559.494 4.35417 -0.484149 0
M  V30 6031 C 560.995 4.23335 1.31539 0
M  V30 6032 H 558.215 0.669344 0.0471075 0
M  V30 6033 H 560.759 1.98257 -0.501456 0
M  V30 6034 H 558.914 3.62803 1.35841 0
M  V30 6035 H 559.328 5.24268 -0.155949 0
M  V30 6036 H 560.802 5.29692 1.55338 0
M  V30 6037 H 561.279 3.75967 2.27036 0
M  V30 6038 H 561.885 4.20184 0.657683 0
M  V30 6039 N 560.2 0.0768682 1.57412 0
M  V30 6040 C 561.446 -0.591961 1.93968 0
M  V30 6041 C 561.779 -1.68954 0.9575 0
M  V30 6042 O 561.054 -1.94496 -0.0124675 0
M  V30 6043 C 561.337 -1.16418 3.40762 0
M  V30 6044 C 561.19 -0.0728933 4.49741 0
M  V30 6045 C 562.509 -2.06814 3.88479 0
M  V30 6046 H 559.628 -0.213716 0.705333 0
M  V30 6047 H 562.27 0.14387 1.89455 0
M  V30 6048 H 560.42 -1.79128 3.4474 0
M  V30 6049 H 562.092 0.560446 4.57883 0
M  V30 6050 H 560.335 0.595859 4.29688 0
M  V30 6051 H 561.006 -0.513755 5.49604 0
M  V30 6052 H 563.482 -1.54033 3.8654 0
M  V30 6053 H 562.358 -2.43785 4.91793 0
M  V30 6054 H 562.619 -2.97844 3.26713 0
M  V30 6055 N 561.678 -1.56367 -0.196722 0
M  V30 6056 C 562.908 -1.84371 -0.932254 0
M  V30 6057 C 563.316 -0.657013 -1.77426 0
M  V30 6058 O 562.659 0.383576 -1.79651 0
M  V30 6059 C 562.721 -3.06454 -1.87952 0
M  V30 6060 C 562.385 -4.40425 -1.21962 0
M  V30 6061 C 563.382 -5.16457 -0.597343 0
M  V30 6062 C 561.067 -4.8716 -1.22396 0
M  V30 6063 C 563.061 -6.37399 0.0117913 0
M  V30 6064 C 560.748 -6.08038 -0.610995 0
M  V30 6065 C 561.746 -6.83 0.00580487 0
M  V30 6066 O 561.434 -8.01589 0.609173 0
M  V30 6067 H 561.166 -0.616377 -0.277589 0
M  V30 6068 H 563.72 -2.04329 -0.209452 0
M  V30 6069 H 561.95 -2.82377 -2.64197 0
M  V30 6070 H 563.639 -3.21118 -2.48271 0
M  V30 6071 H 564.405 -4.81445 -0.586142 0
M  V30 6072 H 560.284 -4.2877 -1.69345 0
M  V30 6073 H 563.828 -6.9585 0.493836 0
M  V30 6074 H 559.725 -6.42519 -0.619693 0
M  V30 6075 H 560.493 -8.16935 0.505919 0
M  V30 6076 N 563.156 0.464375 -1.50603 0
M  V30 6077 C 564.066 1.58723 -1.72754 0
M  V30 6078 C 565.082 1.62925 -0.610844 0
M  V30 6079 O 566.258 1.8067 -0.889963 0
M  V30 6080 C 563.323 2.94897 -1.82309 0
M  V30 6081 C 562.384 3.0103 -3.06071 0
M  V30 6082 C 561.617 4.30708 -3.1516 0
M  V30 6083 O 561.84 5.2159 -2.30868 0
M  V30 6084 O 560.774 4.42571 -4.0794 0
M  V30 6085 H 564.6 1.42954 -2.67951 0
M  V30 6086 H 562.185 0.644579 -1.3478 0
M  V30 6087 H 564.067 3.75764 -1.90735 0
M  V30 6088 H 562.742 3.10851 -0.902967 0
M  V30 6089 H 561.649 2.19217 -3.03142 0
M  V30 6090 H 562.982 2.90014 -3.97684 0
M  V30 6091 N 564.634 1.40294 0.718013 0
M  V30 6092 C 565.581 1.40367 1.8321 0
M  V30 6093 C 566.551 0.260952 1.64037 0
M  V30 6094 O 567.736 0.458648 1.85205 0
M  V30 6095 C 564.876 1.26965 3.20895 0
M  V30 6096 C 563.989 2.50922 3.51656 0
M  V30 6097 C 563.124 2.29981 4.78834 0
M  V30 6098 C 562.163 3.49527 5.02491 0
M  V30 6099 N 561.3 3.27796 6.20882 0
M  V30 6100 H 566.14 2.35593 1.82482 0
M  V30 6101 H 563.677 1.17012 0.891444 0
M  V30 6102 H 565.635 1.17202 4.00399 0
M  V30 6103 H 564.265 0.353591 3.20858 0
M  V30 6104 H 563.317 2.71223 2.66725 0
M  V30 6105 H 564.629 3.39913 3.65048 0
M  V30 6106 H 563.783 2.17558 5.66351 0
M  V30 6107 H 562.522 1.38411 4.67647 0
M  V30 6108 H 561.527 3.6243 4.1343 0
M  V30 6109 H 562.752 4.42021 5.15553 0
M  V30 6110 H 560.698 2.38906 6.1095 0
M  V30 6111 H 560.615 4.10351 6.34939 0
M  V30 6112 H 561.883 3.19101 7.11193 0
M  V30 6113 N 566.112 -0.949982 1.2575 0
M  V30 6114 C 567.36 -1.6918 1.10555 0
M  V30 6115 C 567.681 -1.91773 -0.353298 0
M  V30 6116 O 566.951 -1.50814 -1.25027 0
M  V30 6117 H 565.531 -0.626952 0.406129 0
M  V30 6118 H 568.193 -1.1419 1.57945 0
M  V30 6119 H 567.289 -2.66915 1.61749 0
M  V30 6120 N 567.59 -1.07411 -1.15328 0
M  V30 6121 C 568.553 -0.698914 -2.18284 0
M  V30 6122 C 569.553 0.261149 -1.58665 0
M  V30 6123 O 570.743 0.0420277 -1.74149 0
M  V30 6124 C 567.875 -0.0302427 -3.40887 0
M  V30 6125 H 569.068 -1.61045 -2.52991 0
M  V30 6126 H 566.621 -0.870724 -1.298 0
M  V30 6127 H 567.356 0.893505 -3.11748 0
M  V30 6128 H 567.141 -0.720759 -3.85419 0
M  V30 6129 H 568.631 0.21759 -4.17033 0
M  V30 6130 N 569.068 1.32177 -0.85831 0
M  V30 6131 C 569.978 2.32561 -0.308606 0
M  V30 6132 C 570.994 1.64209 0.575462 0
M  V30 6133 O 572.17 1.95719 0.474961 0
M  V30 6134 C 569.235 3.43207 0.490909 0
M  V30 6135 C 568.296 4.27243 -0.419733 0
M  V30 6136 C 567.529 5.32605 0.341719 0
M  V30 6137 O 567.752 5.48332 1.57125 0
M  V30 6138 O 566.686 6.0118 -0.294379 0
M  V30 6139 H 570.512 2.81477 -1.14037 0
M  V30 6140 H 568.097 1.35866 -0.621349 0
M  V30 6141 H 569.979 4.10677 0.944574 0
M  V30 6142 H 568.654 2.96474 1.29941 0
M  V30 6143 H 567.561 3.62569 -0.921652 0
M  V30 6144 H 568.894 4.7751 -1.19352 0
M  V30 6145 N 570.547 0.616602 1.45037 0
M  V30 6146 C 571.793 0.115501 2.02471 0
M  V30 6147 C 572.126 -1.25406 1.4828 0
M  V30 6148 O 571.401 -1.82922 0.661051 0
M  V30 6149 C 571.684 0.0863588 3.59996 0
M  V30 6150 C 571.537 1.48723 4.24501 0
M  V30 6151 C 572.856 -0.596762 4.36035 0
M  V30 6152 H 569.975 0.0434461 0.735718 0
M  V30 6153 H 572.617 0.7903 1.72784 0
M  V30 6154 H 570.767 -0.488277 3.85419 0
M  V30 6155 H 572.439 2.10964 4.10234 0
M  V30 6156 H 570.682 2.04534 3.82555 0
M  V30 6157 H 571.353 1.419 5.3345 0
M  V30 6158 H 573.829 -0.10824 4.15959 0
M  V30 6159 H 572.705 -0.586289 5.4576 0
M  V30 6160 H 572.966 -1.66451 4.09569 0
M  V30 6161 N 572.025 -1.5352 0.356285 0
M  V30 6162 C 573.274 -2.00298 -0.237373 0
M  V30 6163 C 573.587 -1.24784 -1.50627 0
M  V30 6164 O 574.793 -1.62103 -2.17795 0
M  V30 6165 C 573.249 -3.56771 -0.473545 0
M  V30 6166 C 572.857 -4.41154 0.780183 0
M  V30 6167 C 574.601 -4.1193 -1.02537 0
M  V30 6168 C 572.508 -5.89161 0.514108 0
M  V30 6169 H 571.438 -0.748307 -0.092478 0
M  V30 6170 H 574.089 -1.77283 0.473588 0
M  V30 6171 H 572.471 -3.75902 -1.24553 0
M  V30 6172 H 573.645 -4.33797 1.55425 0
M  V30 6173 H 571.96 -3.97052 1.25455 0
M  V30 6174 H 574.557 -5.20133 -1.2396 0
M  V30 6175 H 574.9 -3.65943 -1.98473 0
M  V30 6176 H 575.433 -3.96561 -0.313775 0
M  V30 6177 H 572.172 -6.39408 1.44355 0
M  V30 6178 H 571.692 -5.9939 -0.221632 0
M  V30 6179 H 573.371 -6.46857 0.136122 0
M  V30 6180 N 573.503 -0.0852151 -1.57369 0
M  V30 6181 C 574.919 0.271436 -1.57275 0
M  V30 6182 C 575.119 1.69109 -1.09565 0
M  V30 6183 O 574.175 2.40549 -0.767611 0
M  V30 6184 C 575.488 0.0688638 -3.00621 0
M  V30 6185 C 577.036 0.137373 -3.12698 0
M  V30 6186 C 577.511 -0.0370832 -4.57985 0
M  V30 6187 N 579.002 0.0180794 -4.63196 0
M  V30 6188 C 579.737 -0.0922953 -5.73326 0
M  V30 6189 N 579.233 -0.256948 -6.92323 0
M  V30 6190 N 581.026 -0.0342702 -5.6209 0
M  V30 6191 H 573.177 -1.01288 -1.86693 0
M  V30 6192 H 575.44 -0.396138 -0.861266 0
M  V30 6193 H 575.146 -0.911277 -3.39689 0
M  V30 6194 H 575.02 0.815442 -3.6828 0
M  V30 6195 H 577.407 1.10801 -2.73509 0
M  V30 6196 H 577.488 -0.640532 -2.47651 0
M  V30 6197 H 577.132 -1.00455 -4.97867 0
M  V30 6198 H 577.062 0.760392 -5.21081 0
M  V30 6199 H 579.553 0.143202 -3.77629 0
M  V30 6200 H 579.866 -0.332949 -7.72082 0
M  V30 6201 H 578.211 -0.292487 -6.94384 0
M  V30 6202 H 581.402 0.0931605 -4.68007 0
M  V30 6203 H 581.575 -0.12374 -6.47882 0
M  V30 6204 N 574.981 1.5647 0.188427 0
M  V30 6205 C 575.914 1.90146 1.26173 0
M  V30 6206 C 576.892 0.762294 1.43624 0
M  V30 6207 O 578.076 1.01395 1.58907 0
M  V30 6208 C 575.203 2.13748 2.62735 0
M  V30 6209 C 574.249 3.36448 2.62116 0
M  V30 6210 S 575.082 4.91364 2.12889 0
M  V30 6211 C 576.238 5.18041 3.51261 0
M  V30 6212 H 576.471 2.80886 0.974192 0
M  V30 6213 H 574.004 1.49335 0.392226 0
M  V30 6214 H 575.962 2.28028 3.41341 0
M  V30 6215 H 574.623 1.23747 2.88696 0
M  V30 6216 H 573.816 3.50109 3.62546 0
M  V30 6217 H 573.418 3.21196 1.91596 0
M  V30 6218 H 575.71 5.0897 4.47164 0
M  V30 6219 H 576.653 6.19764 3.42489 0
M  V30 6220 H 577.061 4.45657 3.46482 0
M  V30 6221 N 576.459 -0.456382 1.50847 0
M  V30 6222 C 577.708 -1.2042 1.61808 0
M  V30 6223 C 578.021 -1.9278 0.330932 0
M  V30 6224 O 579.227 -2.69612 0.319643 0
M  V30 6225 C 577.683 -2.18891 2.85683 0
M  V30 6226 C 577.291 -1.52267 4.2133 0
M  V30 6227 C 579.035 -2.94224 3.05994 0
M  V30 6228 C 576.942 -2.4911 5.36375 0
M  V30 6229 H 575.872 -0.453177 0.602616 0
M  V30 6230 H 578.523 -0.473144 1.77295 0
M  V30 6231 H 576.905 -2.95351 2.63787 0
M  V30 6232 H 578.079 -0.814949 4.53536 0
M  V30 6233 H 576.394 -0.891594 4.06743 0
M  V30 6234 H 578.991 -3.66732 3.89117 0
M  V30 6235 H 579.334 -3.54469 2.18306 0
M  V30 6236 H 579.867 -2.24874 3.28141 0
M  V30 6237 H 576.606 -1.93582 6.26264 0
M  V30 6238 H 576.126 -3.17991 5.08569 0
M  V30 6239 H 577.805 -3.10637 5.67551 0
M  V30 6240 N 577.937 -1.40673 -0.710563 0
M  V30 6241 C 578.887 -1.37812 -1.81636 0
M  V30 6242 C 579.871 -0.254853 -1.58869 0
M  V30 6243 O 581.063 -0.494356 -1.69956 0
M  V30 6244 C 578.192 -1.24802 -3.19811 0
M  V30 6245 C 577.278 -2.41931 -3.48325 0
M  V30 6246 N 577.669 -3.67411 -3.47625 0
M  V30 6247 C 575.967 -2.35419 -3.78806 0
M  V30 6248 C 576.668 -4.45008 -3.74623 0
M  V30 6249 N 575.644 -3.74916 -3.93623 0
M  V30 6250 H 579.446 -2.32766 -1.79436 0
M  V30 6251 H 576.96 -1.34516 -0.909909 0
M  V30 6252 H 578.957 -1.20835 -3.99004 0
M  V30 6253 H 577.617 -0.308202 -3.23234 0
M  V30 6254 H 578.628 -4.00503 -3.28356 0
M  V30 6255 H 575.305 -1.4983 -3.89689 0
M  V30 6256 H 576.695 -5.53884 -3.80344 0
M  V30 6257 N 579.415 0.9433 -1.26252 0
M  V30 6258 C 580.643 1.72367 -1.14443 0
M  V30 6259 C 581.058 1.86392 0.300572 0
M  V30 6260 O 580.415 1.36978 1.20596 0
M  V30 6261 C 580.466 3.13155 -1.806 0
M  V30 6262 O 580.187 2.99803 -3.19452 0
M  V30 6263 C 581.688 4.07417 -1.74717 0
M  V30 6264 H 578.908 0.539758 -0.398626 0
M  V30 6265 H 581.452 1.18268 -1.66832 0
M  V30 6266 H 579.607 3.64162 -1.32154 0
M  V30 6267 H 580.021 3.88697 -3.52158 0
M  V30 6268 H 581.495 5.03773 -2.25647 0
M  V30 6269 H 581.972 4.3337 -0.713244 0
M  V30 6270 H 582.578 3.6233 -2.22704 0
M  V30 6271 N 580.893 1.08022 1.14757 0
M  V30 6272 C 581.823 0.728248 2.21853 0
M  V30 6273 C 582.804 -0.287486 1.67653 0
M  V30 6274 O 583.989 -0.158727 1.9355 0
M  V30 6275 C 581.119 0.132549 3.47047 0
M  V30 6276 C 580.073 1.07619 4.14249 0
M  V30 6277 C 579.399 0.342907 5.33599 0
M  V30 6278 C 580.699 2.41268 4.63235 0
M  V30 6279 H 582.393 1.62365 2.51551 0
M  V30 6280 H 579.939 0.782125 1.20908 0
M  V30 6281 H 581.892 -0.125665 4.21213 0
M  V30 6282 H 580.616 -0.797971 3.16702 0
M  V30 6283 H 579.275 1.31944 3.42033 0
M  V30 6284 H 578.923 -0.59129 4.99513 0
M  V30 6285 H 578.623 0.971955 5.79506 0
M  V30 6286 H 580.147 0.0926538 6.1053 0
M  V30 6287 H 581.561 2.21232 5.28894 0
M  V30 6288 H 579.958 2.9983 5.19829 0
M  V30 6289 H 581.028 3.03079 3.78512 0
M  V30 6290 N 582.371 -1.3172 0.865308 0
M  V30 6291 C 583.301 -2.31109 0.333302 0
M  V30 6292 C 584.282 -1.60148 -0.573301 0
M  V30 6293 O 585.467 -1.87882 -0.491305 0
M  V30 6294 C 582.597 -3.44104 -0.470078 0
M  V30 6295 C 581.551 -4.26623 0.343021 0
M  V30 6296 C 580.877 -5.31482 -0.585756 0
M  V30 6297 C 582.177 -4.98001 1.57456 0
M  V30 6298 H 583.871 -2.75855 1.1638 0
M  V30 6299 H 581.417 -1.3262 0.561069 0
M  V30 6300 H 583.37 -4.12682 -0.852752 0
M  V30 6301 H 582.094 -2.98112 -1.33404 0
M  V30 6302 H 580.753 -3.59707 0.707583 0
M  V30 6303 H 580.401 -4.81741 -1.44686 0
M  V30 6304 H 580.101 -5.87582 -0.0456494 0
M  V30 6305 H 581.625 -6.0292 -0.965375 0
M  V30 6306 H 583.039 -5.59201 1.26359 0
M  V30 6307 H 581.436 -5.63876 2.05339 0
M  V30 6308 H 582.506 -4.25253 2.32997 0
M  V30 6309 N 583.85 -0.624285 -1.44708 0
M  V30 6310 C 585.098 -0.125802 -2.01708 0
M  V30 6311 C 585.418 1.2543 -1.49306 0
M  V30 6312 O 584.689 1.83198 -0.693924 0
M  V30 6313 H 583.269 -0.0435161 -0.745731 0
M  V30 6314 H 585.931 -0.809446 -1.77296 0
M  V30 6315 H 585.027 -0.0882734 -3.11975 0
M  V30 6316 N 585.328 1.53329 -0.364422 0
M  V30 6317 C 586.238 2.29414 0.490552 0
M  V30 6318 C 587.254 1.35335 1.09363 0
M  V30 6319 O 588.43 1.68391 1.10483 0
M  V30 6320 C 585.495 3.06772 1.61529 0
M  V30 6321 C 584.556 4.16516 1.03986 0
M  V30 6322 C 583.789 4.90176 2.111 0
M  V30 6323 O 584.012 4.63687 3.32191 0
M  V30 6324 O 582.946 5.76134 1.74222 0
M  V30 6325 H 586.772 3.03428 -0.12856 0
M  V30 6326 H 584.357 1.48843 -0.128837 0
M  V30 6327 H 586.239 3.55082 2.26924 0
M  V30 6328 H 584.914 2.35596 2.21983 0
M  V30 6329 H 583.821 3.7246 0.349856 0
M  V30 6330 H 585.154 4.89855 0.4799 0
M  V30 6331 N 586.806 0.0935595 1.57322 0
M  V30 6332 C 587.716 -0.880192 2.17462 0
M  V30 6333 C 588.732 -1.31135 1.14366 0
M  V30 6334 O 589.908 -1.37958 1.46729 0
M  V30 6335 C 586.973 -2.12184 2.74188 0
M  V30 6336 C 586.034 -1.74503 3.92234 0
M  V30 6337 C 585.267 -2.92748 4.46245 0
M  V30 6338 O 585.49 -4.07427 3.99198 0
M  V30 6339 O 584.424 -2.71303 5.37288 0
M  V30 6340 H 588.25 -0.398516 3.01074 0
M  V30 6341 H 585.835 -0.130707 1.48827 0
M  V30 6342 H 587.717 -2.84953 3.10451 0
M  V30 6343 H 586.392 -2.59407 1.93623 0
M  V30 6344 H 585.299 -0.989186 3.60785 0
M  V30 6345 H 586.632 -1.32044 4.74157 0
M  V30 6346 N 588.284 -1.56567 -0.180126 0
M  V30 6347 C 589.232 -1.96632 -1.24251 0
M  V30 6348 C 590.226 -0.853818 -1.46309 0
M  V30 6349 O 591.432 -1.0389 -1.46993 0
M  V30 6350 H 587.807 -0.625476 -0.417473 0
M  V30 6351 H 589.778 -2.85201 -0.877679 0
M  V30 6352 C 588.527 -2.33486 -2.57642 0
M  V30 6353 H 587.85 -3.18626 -2.4149 0
M  V30 6354 H 589.29 -2.65371 -3.30688 0
M  V30 6355 C 587.749 -1.17499 -3.15746 0
M  V30 6356 O 588.279 -0.457956 -3.99081 0
M  V30 6357 N 586.485 -0.94786 -2.74707 0
M  V30 6358 H 586.032 -1.53269 -2.07042 0
M  V30 6359 H 585.99 -0.173626 -3.1392 0
M  V30 6360 N 589.762 0.448376 -1.51087 0
M  V30 6361 C 591.009 1.19872 -1.63209 0
M  V30 6362 C 591.337 1.91451 -0.343062 0
M  V30 6363 O 590.592 1.83789 0.672321 0
M  V30 6364 C 590.891 2.24866 -2.77795 0
M  V30 6365 C 590.557 1.70378 -4.17471 0
M  V30 6366 C 589.219 1.55241 -4.55471 0
M  V30 6367 C 591.571 1.30203 -5.04675 0
M  V30 6368 C 588.899 0.983844 -5.78392 0
M  V30 6369 C 591.251 0.747798 -6.28165 0
M  V30 6370 C 589.915 0.583233 -6.64947 0
M  V30 6371 H 589.185 0.438642 -0.597222 0
M  V30 6372 H 591.832 0.49136 -1.85089 0
M  V30 6373 H 590.137 3.01598 -2.50092 0
M  V30 6374 H 591.834 2.82723 -2.84374 0
M  V30 6375 H 588.424 1.83134 -3.87505 0
M  V30 6376 H 592.608 1.40723 -4.75932 0
M  V30 6377 H 587.864 0.844007 -6.05546 0
M  V30 6378 H 592.038 0.427927 -6.95084 0
M  V30 6379 H 589.665 0.140532 -7.6007 0
M  V30 6380 N 591.24 1.41047 0.703093 0
M  V30 6381 C 592.172 1.38228 1.82827 0
M  V30 6382 C 593.185 0.285637 1.60275 0
M  V30 6383 O 594.374 0.54685 1.69917 0
M  V30 6384 C 591.474 1.13136 3.19458 0
M  V30 6385 C 590.647 2.34695 3.69103 0
M  V30 6386 C 589.706 2.05574 4.84382 0
M  V30 6387 O 588.732 2.78549 4.96386 0
M  V30 6388 N 589.934 1.04135 5.71083 0
M  V30 6389 H 592.699 2.35203 1.85741 0
M  V30 6390 H 590.26 1.35562 0.885125 0
M  V30 6391 H 592.252 0.916183 3.94193 0
M  V30 6392 H 590.822 0.247836 3.11616 0
M  V30 6393 H 590.042 2.71963 2.85359 0
M  V30 6394 H 591.33 3.15705 3.99009 0
M  V30 6395 H 590.728 0.43722 5.64008 0
M  V30 6396 H 589.285 0.886078 6.45749 0
M  V30 6397 N 592.718 -0.936591 1.26751 0
M  V30 6398 C 593.665 -2.03597 1.08706 0
M  V30 6399 C 594.635 -1.66097 -0.00926542 0
M  V30 6400 O 595.82 -1.90199 0.151377 0
M  V30 6401 C 592.96 -3.3727 0.73094 0
M  V30 6402 C 592.073 -3.87778 1.90399 0
M  V30 6403 C 591.208 -5.09859 1.49056 0
M  V30 6404 C 590.247 -5.5264 2.63164 0
M  V30 6405 N 589.384 -6.65921 2.22471 0
M  V30 6406 H 594.224 -2.18364 2.02784 0
M  V30 6407 H 591.761 -1.06985 1.00958 0
M  V30 6408 H 593.719 -4.14128 0.505328 0
M  V30 6409 H 592.349 -3.22337 -0.172868 0
M  V30 6410 H 591.401 -3.07279 2.2424 0
M  V30 6411 H 592.713 -4.15464 2.76028 0
M  V30 6412 H 591.867 -5.9419 1.22567 0
M  V30 6413 H 590.606 -4.8393 0.60524 0
M  V30 6414 H 589.611 -4.66863 2.90377 0
M  V30 6415 H 590.836 -5.80568 3.52303 0
M  V30 6416 H 588.782 -6.41667 1.36379 0
M  V30 6417 H 588.699 -6.93216 3.01641 0
M  V30 6418 H 589.967 -7.53616 1.99205 0
M  V30 6419 N 594.196 -1.08629 -1.14182 0
M  V30 6420 C 595.444 -0.815731 -1.84906 0
M  V30 6421 C 595.765 0.660441 -1.83475 0
M  V30 6422 O 595.035 1.47888 -1.28476 0
M  V30 6423 H 593.615 -0.298773 -0.684648 0
M  V30 6424 H 596.277 -1.37274 -1.38354 0
M  V30 6425 H 595.373 -1.16193 -2.89665 0
M  V30 6426 N 595.674 1.31259 -0.872281 0
M  V30 6427 C 596.607 2.26544 -0.274394 0
M  V30 6428 C 597.585 1.51213 0.597776 0
M  V30 6429 O 598.769 1.80277 0.550687 0
M  V30 6430 C 595.896 3.33139 0.611256 0
M  V30 6431 C 594.942 4.26077 -0.189876 0
M  V30 6432 S 595.775 5.11971 -1.56989 0
M  V30 6433 C 596.931 6.2208 -0.690427 0
M  V30 6434 H 597.164 2.76908 -1.0821 0
M  V30 6435 H 594.697 1.3906 -0.670939 0
M  V30 6436 H 596.655 3.95024 1.11654 0
M  V30 6437 H 595.316 2.81525 1.39294 0
M  V30 6438 H 594.509 5.01657 0.485433 0
M  V30 6439 H 594.111 3.68701 -0.627339 0
M  V30 6440 H 596.403 6.77429 0.098001 0
M  V30 6441 H 597.346 6.93768 -1.41742 0
M  V30 6442 H 597.754 5.63915 -0.256953 0
M  V30 6443 N 597.152 0.631951 1.44375 0
M  V30 6444 C 598.084 -0.110911 2.28931 0
M  V30 6445 C 599.097 -0.808086 1.41329 0
M  V30 6446 O 600.286 -0.669396 1.65473 0
M  V30 6447 C 597.386 -1.17928 3.1772 0
M  V30 6448 C 596.559 -0.564458 4.33743 0
M  V30 6449 C 595.618 -1.5269 5.0356 0
M  V30 6450 O 594.644 -1.04372 5.59549 0
M  V30 6451 N 595.846 -2.86123 5.05088 0
M  V30 6452 H 598.611 0.614758 2.93327 0
M  V30 6453 H 596.172 0.473171 1.54831 0
M  V30 6454 H 598.164 -1.82348 3.61291 0
M  V30 6455 H 596.734 -1.80717 2.55069 0
M  V30 6456 H 595.954 0.258373 3.93352 0
M  V30 6457 H 597.242 -0.134355 5.08623 0
M  V30 6458 H 596.64 -3.27959 4.60933 0
M  V30 6459 H 595.197 -3.45901 5.52445 0
M  V30 6460 N 598.631 -1.53133 0.372548 0
M  V30 6461 C 599.561 -2.28876 -0.462412 0
M  V30 6462 C 600.542 -1.31583 -1.07796 0
M  V30 6463 O 601.727 -1.60461 -1.09389 0
M  V30 6464 C 598.857 -3.08317 -1.59868 0
M  V30 6465 C 597.811 -4.13355 -1.11003 0
M  V30 6466 C 597.137 -4.8092 -2.33708 0
M  V30 6467 C 598.437 -5.21955 -0.18983 0
M  V30 6468 H 600.131 -2.9892 0.169511 0
M  V30 6469 H 597.677 -1.43761 0.0829658 0
M  V30 6470 H 599.63 -3.60055 -2.18949 0
M  V30 6471 H 598.354 -2.35976 -2.25794 0
M  V30 6472 H 597.013 -3.62573 -0.541869 0
M  V30 6473 H 596.661 -4.05144 -2.98106 0
M  V30 6474 H 596.361 -5.51904 -2.01682 0
M  V30 6475 H 597.885 -5.35455 -2.93462 0
M  V30 6476 H 599.299 -5.69153 -0.688319 0
M  V30 6477 H 597.696 -6.00087 0.0398887 0
M  V30 6478 H 598.766 -4.78811 0.766057 0
M  V30 6479 N 600.109 -0.101901 -1.5727 0
M  V30 6480 C 601.339 0.567568 -1.98651 0
M  V30 6481 C 601.747 1.61839 -0.980037 0
M  V30 6482 O 601.09 1.83661 0.0376564 0
M  V30 6483 C 601.152 1.26742 -3.36417 0
M  V30 6484 C 600.816 0.366561 -4.55528 0
M  V30 6485 C 601.813 -0.388022 -5.1845 0
M  V30 6486 C 599.498 0.282629 -5.01504 0
M  V30 6487 C 601.492 -1.21445 -6.25724 0
M  V30 6488 C 599.179 -0.547443 -6.08643 0
M  V30 6489 C 600.177 -1.29462 -6.70618 0
M  V30 6490 O 599.865 -2.11095 -7.7569 0
M  V30 6491 H 599.597 0.156282 -0.657687 0
M  V30 6492 H 602.151 -0.179912 -2.04611 0
M  V30 6493 H 600.381 2.06162 -3.27161 0
M  V30 6494 H 602.07 1.8321 -3.622 0
M  V30 6495 H 602.836 -0.332949 -4.83856 0
M  V30 6496 H 598.715 0.853868 -4.53023 0
M  V30 6497 H 602.259 -1.79814 -6.74027 0
M  V30 6498 H 598.156 -0.603971 -6.42668 0
M  V30 6499 H 598.924 -2.03851 -7.92709 0
M  V30 6500 N 601.587 1.56661 0.17182 0
M  V30 6501 C 602.834 1.81965 0.888529 0
M  V30 6502 C 603.162 0.6789 1.82267 0
M  V30 6503 O 602.417 -0.333875 1.92831 0
M  V30 6504 C 602.716 3.13435 1.71736 0
M  V30 6505 C 602.382 4.41159 0.932184 0
M  V30 6506 C 601.044 4.75851 0.715481 0
M  V30 6507 C 603.396 5.19803 0.381387 0
M  V30 6508 C 600.724 5.86666 -0.063126 0
M  V30 6509 C 603.076 6.31433 -0.384129 0
M  V30 6510 C 601.74 6.64692 -0.611637 0
M  V30 6511 H 601.01 0.665859 0.325136 0
M  V30 6512 H 603.657 1.90884 0.153495 0
M  V30 6513 H 601.962 2.99857 2.52177 0
M  V30 6514 H 603.659 3.30224 2.27493 0
M  V30 6515 H 600.249 4.13947 1.11112 0
M  V30 6516 H 604.433 4.93396 0.536148 0
M  V30 6517 H 599.689 6.10892 -0.249136 0
M  V30 6518 H 603.863 6.91577 -0.818185 0
M  V30 6519 H 601.49 7.50398 -1.21684 0
M  V30 6520 N 603.065 -0.440357 1.51323 0
M  V30 6521 C 603.975 -1.55955 1.75258 0
M  V30 6522 C 604.991 -1.61933 0.636687 0
M  V30 6523 O 606.167 -1.79231 0.918593 0
M  V30 6524 C 603.232 -2.9196 1.86977 0
M  V30 6525 C 602.293 -2.96122 3.10822 0
M  V30 6526 C 601.526 -4.2564 3.21973 0
M  V30 6527 O 601.749 -5.17851 2.39137 0
M  V30 6528 O 600.683 -4.36025 4.14929 0
M  V30 6529 H 604.509 -1.38673 2.70191 0
M  V30 6530 H 602.094 -0.623055 1.35788 0
M  V30 6531 H 603.976 -3.72682 1.96688 0
M  V30 6532 H 602.651 -3.09375 0.952307 0
M  V30 6533 H 601.558 -2.14366 3.06591 0
M  V30 6534 H 602.891 -2.83651 4.02247 0
M  V30 6535 N 604.543 -1.41418 -0.695603 0
M  V30 6536 C 605.959 -1.23887 -1.00619 0
M  V30 6537 C 606.159 -0.128206 -2.01092 0
M  V30 6538 O 605.215 0.507408 -2.47349 0
M  V30 6539 C 606.528 -2.58816 -1.53083 0
M  V30 6540 C 608.076 -2.65998 -1.64967 0
M  V30 6541 C 608.551 -4.01244 -2.20833 0
M  V30 6542 N 610.042 -4.0309 -2.28194 0
M  V30 6543 C 610.777 -5.04539 -2.72448 0
M  V30 6544 N 610.273 -6.16378 -3.16306 0
M  V30 6545 N 612.066 -4.91901 -2.72011 0
M  V30 6546 H 604.217 -2.12379 -0.0300061 0
M  V30 6547 H 606.48 -0.944958 -0.0758797 0
M  V30 6548 H 606.186 -3.40842 -0.867147 0
M  V30 6549 H 606.06 -2.81299 -2.51298 0
M  V30 6550 H 608.447 -1.84331 -2.30448 0
M  V30 6551 H 608.528 -2.47325 -0.652982 0
M  V30 6552 H 608.172 -4.83359 -1.55968 0
M  V30 6553 H 608.102 -4.17257 -3.21254 0
M  V30 6554 H 610.593 -3.22341 -1.97242 0
M  V30 6555 H 610.906 -6.89658 -3.487 0
M  V30 6556 H 609.251 -6.19914 -3.14215 0
M  V30 6557 H 612.442 -4.03613 -2.37095 0
M  V30 6558 H 612.615 -5.71102 -3.06181 0
M  V30 6559 N 606.021 0.929856 -1.27246 0
M  V30 6560 C 606.971 2.01629 -1.06442 0
M  V30 6561 C 607.955 1.60899 0.00687842 0
M  V30 6562 O 609.147 1.75733 -0.211407 0
M  V30 6563 C 606.276 3.35849 -0.711361 0
M  V30 6564 C 605.362 3.8303 -1.82069 0
M  V30 6565 N 605.753 4.02743 -3.05993 0
M  V30 6566 C 604.051 4.12046 -1.70687 0
M  V30 6567 C 604.752 4.42001 -3.78167 0
M  V30 6568 N 603.728 4.4935 -3.05918 0
M  V30 6569 H 607.53 2.14898 -2.00489 0
M  V30 6570 H 605.044 1.11654 -1.17929 0
M  V30 6571 H 607.041 4.13343 -0.543442 0
M  V30 6572 H 605.701 3.23944 0.221517 0
M  V30 6573 H 606.712 3.89112 -3.41778 0
M  V30 6574 H 603.389 4.08866 -0.844681 0
M  V30 6575 H 604.779 4.6535 -4.84664 0
M  V30 6576 N 607.499 1.09233 1.13605 0
M  V30 6577 C 608.776 0.739633 1.81077 0
M  V30 6578 C 609.156 -0.775595 1.96336 0
M  V30 6579 O 608.504 -1.69726 1.52988 0
M  V30 6580 C 608.714 1.47636 3.16235 0
M  V30 6581 C 610.062 1.64087 3.91613 0
M  V30 6582 O 611.086 1.43871 3.25852 0
M  V30 6583 O 609.945 1.97511 5.0956 0
M  V30 6584 H 607.039 0.265464 0.783236 0
M  V30 6585 H 609.585 1.19441 1.20549 0
M  V30 6586 H 608.357 2.50818 3.00344 0
M  V30 6587 H 607.98 1.01362 3.84462 0
M  V30 6588 N 608.977 -1.30795 0.87923 0
M  V30 6589 C 610.225 -1.95974 0.493809 0
M  V30 6590 C 610.546 -1.69787 -0.959021 0
M  V30 6591 O 609.816 -1.01832 -1.67353 0
M  V30 6592 H 608.396 -0.725083 0.179622 0
M  V30 6593 H 611.058 -1.59432 1.12105 0
M  V30 6594 H 610.154 -3.05058 0.659263 0
M  V30 6595 N 610.455 -0.639598 -1.44038 0
M  V30 6596 C 611.68 -0.153117 -2.06834 0
M  V30 6597 C 612.105 1.16676 -1.47541 0
M  V30 6598 O 611.463 1.71769 -0.580093 0
M  V30 6599 C 611.511 -0.0609169 -3.60549 0
M  V30 6600 O 610.615 0.98071 -4.00569 0
M  V30 6601 H 609.956 -0.0886402 -0.658057 0
M  V30 6602 H 612.486 -0.878674 -1.84771 0
M  V30 6603 H 612.496 0.126892 -4.07803 0
M  V30 6604 H 611.171 -1.0245 -4.03084 0
M  V30 6605 H 609.748 0.766789 -3.64931 0
M  V30 6606 N 611.933 1.52934 -0.380664 0
M  V30 6607 C 612.896 2.24809 0.446473 0
M  V30 6608 C 613.896 1.26133 0.997347 0
M  V30 6609 O 615.086 1.50297 0.880714 0
M  V30 6610 C 612.218 2.99649 1.62553 0
M  V30 6611 H 613.411 2.99343 -0.182677 0
M  V30 6612 H 610.964 1.55736 -0.132618 0
M  V30 6613 H 611.699 2.29395 2.29235 0
M  V30 6614 H 611.484 3.72066 1.23732 0
M  V30 6615 H 612.974 3.54246 2.21133 0
M  V30 6616 N 613.412 0.11024 1.57214 0
M  V30 6617 C 614.375 -0.828808 2.1369 0
M  V30 6618 C 615.375 -1.20059 1.06969 0
M  V30 6619 O 616.565 -1.12754 1.32786 0
M  V30 6620 C 613.697 -2.11959 2.66994 0
M  V30 6621 H 614.89 -0.338146 2.97988 0
M  V30 6622 H 612.443 -0.138913 1.55681 0
M  V30 6623 H 613.178 -2.65476 1.8626 0
M  V30 6624 H 612.963 -1.86258 3.45037 0
M  V30 6625 H 614.453 -2.79105 3.10629 0
M  V30 6626 N 614.89 -1.56749 -0.16351 0
M  V30 6627 C 616.118 -1.86577 -0.894233 0
M  V30 6628 C 616.533 -0.696543 -1.75481 0
M  V30 6629 O 615.89 0.334161 -1.79415 0
M  V30 6630 C 615.941 -3.15508 -1.76456 0
M  V30 6631 O 615.662 -4.27926 -0.938685 0
M  V30 6632 C 617.163 -3.58737 -2.60428 0
M  V30 6633 H 614.383 -0.618829 -0.259405 0
M  V30 6634 H 616.927 -2.03863 -0.161259 0
M  V30 6635 H 615.082 -3.00025 -2.45079 0
M  V30 6636 H 615.496 -5.01546 -1.53465 0
M  V30 6637 H 616.97 -4.51832 -3.17099 0
M  V30 6638 H 617.447 -2.83229 -3.35675 0
M  V30 6639 H 618.053 -3.76858 -1.97125 0
M  V30 6640 N 616.368 0.432326 -1.51554 0
M  V30 6641 C 617.608 1.19076 -1.66133 0
M  V30 6642 C 617.972 1.88364 -0.371873 0
M  V30 6643 O 619.173 2.65904 -0.39349 0
M  V30 6644 C 617.444 2.1768 -2.83461 0
M  V30 6645 S 619.003 3.01943 -3.18396 0
M  V30 6646 H 615.821 0.403735 -0.585251 0
M  V30 6647 H 618.423 0.481554 -1.89476 0
M  V30 6648 H 617.127 1.65424 -3.75583 0
M  V30 6649 H 616.658 2.93174 -2.62322 0
M  V30 6650 H 618.673 4.19373 -2.65219 0
M  V30 6651 N 617.846 1.41785 0.688094 0
M  V30 6652 C 619.123 1.32031 1.44316 0
M  V30 6653 C 619.503 -0.0486079 2.11044 0
M  V30 6654 O 618.851 -1.06332 2.02252 0
M  V30 6655 C 619.061 2.47906 2.45649 0
M  V30 6656 C 620.409 2.89415 3.10683 0
M  V30 6657 O 621.433 2.477 2.55975 0
M  V30 6658 O 620.292 3.61573 4.09789 0
M  V30 6659 H 617.386 0.519994 0.643067 0
M  V30 6660 H 619.932 1.53765 0.71794 0
M  V30 6661 H 618.704 3.39222 1.95048 0
M  V30 6662 H 618.327 2.28089 3.25671 0
M  V30 6663 N 619.324 -0.923095 1.27737 0
M  V30 6664 C 620.601 -1.64989 1.05062 0
M  V30 6665 C 620.981 -2.07018 -0.413124 0
M  V30 6666 O 620.329 -1.80797 -1.39731 0
M  V30 6667 C 620.539 -2.84847 2.01652 0
M  V30 6668 C 621.887 -3.56083 2.31279 0
M  V30 6669 O 622.911 -2.94981 1.99662 0
M  V30 6670 O 621.77 -4.66182 2.85196 0
M  V30 6671 H 618.864 -0.723357 0.400853 0
M  V30 6672 H 621.41 -0.973224 1.3902 0
M  V30 6673 H 620.182 -2.50814 3.00347 0
M  V30 6674 H 619.805 -3.60231 1.68284 0
M  V30 6675 N 620.802 -1.09834 -1.13024 0
M  V30 6676 C 622.049 -0.83695 -1.84395 0
M  V30 6677 C 622.377 0.637463 -1.83757 0
M  V30 6678 O 621.632 1.48554 -1.27398 0
M  V30 6679 C 621.931 -1.32263 -3.32026 0
M  V30 6680 C 621.597 -2.80739 -3.52841 0
M  V30 6681 C 620.259 -3.21286 -3.5823 0
M  V30 6682 C 622.611 -3.76449 -3.60466 0
M  V30 6683 C 619.939 -4.56308 -3.68781 0
M  V30 6684 C 622.291 -5.11266 -3.72546 0
M  V30 6685 C 620.955 -5.51397 -3.76189 0
M  V30 6686 H 620.225 -0.306262 -0.674748 0
M  V30 6687 H 622.872 -1.37385 -1.33408 0
M  V30 6688 H 621.177 -0.705618 -3.85394 0
M  V30 6689 H 622.874 -1.09695 -3.85705 0
M  V30 6690 H 619.464 -2.48363 -3.49305 0
M  V30 6691 H 623.648 -3.46234 -3.55578 0
M  V30 6692 H 618.904 -4.86832 -3.69871 0
M  V30 6693 H 623.078 -5.85279 -3.77388 0
M  V30 6694 H 620.705 -6.56017 -3.84117 0
M  V30 6695 N 622.28 1.30327 -0.886154 0
M  V30 6696 C 623.526 1.96388 -0.505941 0
M  V30 6697 C 623.859 1.69784 0.942712 0
M  V30 6698 O 623.134 1.00322 1.6663 0
M  V30 6699 C 623.417 3.51488 -0.782826 0
M  V30 6700 C 623.27 3.87603 -2.28219 0
M  V30 6701 C 624.589 4.39331 -0.260128 0
M  V30 6702 H 621.708 0.713327 -0.185292 0
M  V30 6703 H 624.35 1.54178 -1.11036 0
M  V30 6704 H 622.5 3.87572 -0.268399 0
M  V30 6705 H 624.172 3.61537 -2.86512 0
M  V30 6706 H 622.415 3.3563 -2.74837 0
M  V30 6707 H 623.086 4.95806 -2.42653 0
M  V30 6708 H 625.562 4.10162 -0.700444 0
M  V30 6709 H 624.438 5.46769 -0.483179 0
M  V30 6710 H 624.699 4.34072 0.838674 0
M  V30 6711 N 623.758 0.647228 1.43697 0
M  V30 6712 C 624.69 -0.0866232 2.29036 0
M  V30 6713 C 625.703 -0.793051 1.42178 0
M  V30 6714 O 626.892 -0.651807 1.66174 0
M  V30 6715 C 623.992 -1.14552 3.18953 0
M  V30 6716 C 623.165 -0.518422 4.34317 0
M  V30 6717 C 622.224 -1.4734 5.05151 0
M  V30 6718 O 621.25 -0.984312 5.60625 0
M  V30 6719 N 622.452 -2.8075 5.08094 0
M  V30 6720 H 625.217 0.645834 2.92659 0
M  V30 6721 H 622.778 0.489567 1.54321 0
M  V30 6722 H 624.77 -1.78505 3.63205 0
M  V30 6723 H 623.34 -1.78001 2.56971 0
M  V30 6724 H 622.56 0.300079 3.93056 0
M  V30 6725 H 623.848 -0.080401 5.08736 0
M  V30 6726 H 623.246 -3.23052 4.64386 0
M  V30 6727 H 621.803 -3.40022 5.56083 0
M  V30 6728 N 625.236 -1.5273 0.388769 0
M  V30 6729 C 626.199 -2.25043 -0.434544 0
M  V30 6730 C 627.199 -1.26661 -0.990644 0
M  V30 6731 O 628.389 -1.50762 -0.872731 0
M  V30 6732 C 625.521 -3.00507 -1.60961 0
M  V30 6733 H 626.714 -2.99242 0.198549 0
M  V30 6734 H 624.267 -1.55664 0.140875 0
M  V30 6735 H 625.002 -2.30607 -2.28015 0
M  V30 6736 H 624.787 -3.72716 -1.21757 0
M  V30 6737 H 626.277 -3.55413 -2.19251 0
M  V30 6738 N 626.714 -0.118576 -1.57153 0
M  V30 6739 C 627.647 0.869046 -2.11004 0
M  V30 6740 C 628.625 1.26115 -1.02634 0
M  V30 6741 O 629.809 1.36228 -1.30285 0
M  V30 6742 C 626.936 2.16297 -2.6064 0
M  V30 6743 C 625.982 1.91896 -3.80891 0
M  V30 6744 S 626.815 1.13562 -5.2332 0
M  V30 6745 C 627.971 2.44135 -5.76324 0
M  V30 6746 H 628.204 0.411005 -2.94445 0
M  V30 6747 H 625.737 0.0951891 -1.54106 0
M  V30 6748 H 627.695 2.90642 -2.89892 0
M  V30 6749 H 626.356 2.59219 -1.77382 0
M  V30 6750 H 625.549 2.8777 -4.13768 0
M  V30 6751 H 625.151 1.25672 -3.52253 0
M  V30 6752 H 627.443 3.39976 -5.86022 0
M  V30 6753 H 628.386 2.15803 -6.74414 0
M  V30 6754 H 628.794 2.53483 -5.04387 0
M  V30 6755 N 628.193 1.56834 0.155195 0
M  V30 6756 C 629.103 2.009 1.21146 0
M  V30 6757 C 630.119 0.923029 1.475 0
M  V30 6758 O 631.295 1.23189 1.59331 0
M  V30 6759 C 628.36 2.37378 2.52691 0
M  V30 6760 C 627.421 3.59883 2.34057 0
M  V30 6761 C 626.654 3.94612 3.59329 0
M  V30 6762 O 626.877 3.30104 4.65175 0
M  V30 6763 O 625.811 4.87895 3.52479 0
M  V30 6764 H 629.637 2.9105 0.867371 0
M  V30 6765 H 627.222 1.44916 0.363298 0
M  V30 6766 H 629.104 2.61737 3.3026 0
M  V30 6767 H 627.779 1.50385 2.86646 0
M  V30 6768 H 626.686 3.40722 1.54465 0
M  V30 6769 H 628.019 4.47468 2.0502 0
M  V30 6770 N 629.671 -0.424282 1.51781 0
M  V30 6771 C 630.948 -1.18464 1.55646 0
M  V30 6772 C 631.328 -2.08529 0.328438 0
M  V30 6773 O 630.676 -2.17969 -0.685693 0
M  V30 6774 C 630.886 -1.97514 2.87731 0
M  V30 6775 C 632.234 -2.54106 3.40169 0
M  V30 6776 O 633.258 -2.07711 2.89369 0
M  V30 6777 O 632.117 -3.38759 4.28841 0
M  V30 6778 H 629.211 -0.540055 0.626314 0
M  V30 6779 H 631.757 -0.432291 1.64102 0
M  V30 6780 H 630.529 -1.31444 3.68562 0
M  V30 6781 H 630.152 -2.79787 2.82498 0
M  V30 6782 N 631.149 -1.42148 -0.680565 0
M  V30 6783 C 632.112 -1.4488 -1.77602 0
M  V30 6784 C 633.112 -0.337209 -1.57224 0
M  V30 6785 O 634.302 -0.597778 -1.63622 0
M  V30 6786 C 631.434 -1.27483 -3.16166 0
M  V30 6787 H 632.627 -2.42412 -1.76568 0
M  V30 6788 H 630.18 -1.28511 -0.889645 0
M  V30 6789 H 630.915 -0.30851 -3.22829 0
M  V30 6790 H 630.7 -2.08037 -3.3236 0
M  V30 6791 H 632.19 -1.32265 -3.96101 0
M  V30 6792 N 632.627 0.916307 -1.28225 0
M  V30 6793 C 633.852 1.7043 -1.18188 0
M  V30 6794 C 634.277 1.86346 0.256274 0
M  V30 6795 O 633.635 1.37175 1.18544 0
M  V30 6796 C 633.683 3.07546 -1.88275 0
M  V30 6797 O 632.787 3.94904 -1.18848 0
M  V30 6798 H 632.128 0.521967 -0.410423 0
M  V30 6799 H 634.658 1.14589 -1.69501 0
M  V30 6800 H 634.668 3.57793 -1.96082 0
M  V30 6801 H 633.343 2.95279 -2.92887 0
M  V30 6802 H 631.92 3.53339 -1.19187 0
M  V30 6803 N 634.105 1.10431 1.1244 0
M  V30 6804 C 635.053 0.747974 2.20246 0
M  V30 6805 C 636.047 -0.255848 1.67457 0
M  V30 6806 O 637.253 -0.116221 1.79624 0
M  V30 6807 H 633.628 0.223946 0.71788 0
M  V30 6808 H 635.599 1.6661 2.47556 0
M  V30 6809 C 634.348 0.195957 3.47147 0
M  V30 6810 H 633.671 0.959606 3.88113 0
M  V30 6811 H 635.111 -0.0153154 4.23997 0
M  V30 6812 C 633.57 -1.07132 3.19413 0
M  V30 6813 O 634.1 -2.15284 3.3914 0
M  V30 6814 N 632.306 -0.98994 2.73219 0
M  V30 6815 H 631.853 -0.109736 2.57366 0
M  V30 6816 H 631.811 -1.83856 2.55038 0
M  V30 6817 N 635.583 -1.29855 0.893053 0
M  V30 6818 C 636.829 -1.96116 0.516349 0
M  V30 6819 C 637.162 -1.70281 -0.933695 0
M  V30 6820 O 636.437 -1.01205 -1.66096 0
M  V30 6821 C 636.72 -3.51068 0.801455 0
M  V30 6822 C 636.573 -3.86387 2.30272 0
M  V30 6823 C 637.892 -4.39186 0.283423 0
M  V30 6824 H 635.011 -0.712335 0.189072 0
M  V30 6825 H 637.653 -1.53587 1.11852 0
M  V30 6826 H 635.803 -3.87424 0.288949 0
M  V30 6827 H 637.475 -3.60012 2.88425 0
M  V30 6828 H 635.718 -3.34167 2.76613 0
M  V30 6829 H 636.389 -4.94512 2.45279 0
M  V30 6830 H 638.865 -4.09785 0.722187 0
M  V30 6831 H 637.741 -5.46505 0.512169 0
M  V30 6832 H 638.002 -4.34511 -0.815643 0
M  V30 6833 N 637.061 -0.65484 -1.43351 0
M  V30 6834 C 638.338 -0.0987371 -1.95351 0
M  V30 6835 C 638.718 1.38161 -1.59608 0
M  V30 6836 O 638.066 2.10791 -0.882021 0
M  V30 6837 C 638.276 -0.346684 -3.47274 0
M  V30 6838 C 639.624 -0.25249 -4.23849 0
M  V30 6839 O 640.648 -0.279332 -3.55103 0
M  V30 6840 O 639.507 -0.177584 -5.46211 0
M  V30 6841 H 636.601 0.0086829 -0.826954 0
M  V30 6842 H 639.147 -0.728189 -1.53282 0
M  V30 6843 H 637.919 -1.37296 -3.66423 0
M  V30 6844 H 637.542 0.315757 -3.96344 0
M  V30 6845 N 638.539 1.52521 -0.396863 0
M  V30 6846 C 639.469 2.29582 0.425941 0
M  V30 6847 C 640.45 1.33281 1.05689 0
M  V30 6848 O 641.635 1.62181 1.06823 0
M  V30 6849 C 638.765 3.10821 1.54943 0
M  V30 6850 C 637.719 4.15069 1.04413 0
M  V30 6851 C 637.045 4.84578 2.26028 0
M  V30 6852 C 638.345 5.22191 0.106767 0
M  V30 6853 H 640.039 2.98612 -0.217045 0
M  V30 6854 H 637.585 1.43611 -0.105826 0
M  V30 6855 H 639.538 3.63492 2.13193 0
M  V30 6856 H 638.262 2.39538 2.22011 0
M  V30 6857 H 636.921 3.63389 0.484118 0
M  V30 6858 H 636.569 4.09835 2.91623 0
M  V30 6859 H 636.269 5.55043 1.92876 0
M  V30 6860 H 637.793 5.40056 2.84906 0
M  V30 6861 H 639.207 5.70176 0.597685 0
M  V30 6862 H 637.604 5.99947 -0.135352 0
M  V30 6863 H 638.674 4.77531 -0.842134 0
M  V30 6864 N 640.017 0.126909 1.57088 0
M  V30 6865 C 641.242 -0.53997 2.00248 0
M  V30 6866 C 641.667 -1.58927 1.00618 0
M  V30 6867 O 641.025 -1.81288 -0.0210131 0
M  V30 6868 C 641.073 -1.13565 3.4225 0
M  V30 6869 O 640.177 -2.25103 3.45547 0
M  V30 6870 H 639.518 -0.13412 0.650314 0
M  V30 6871 H 642.048 0.217718 2.03438 0
M  V30 6872 H 642.058 -1.46925 3.80627 0
M  V30 6873 H 640.733 -0.367122 4.14277 0
M  V30 6874 H 639.31 -1.93123 3.18995 0
M  V30 6875 N 641.495 -1.56914 -0.146875 0
M  V30 6876 C 642.445 -1.94693 -1.18653 0
M  V30 6877 C 643.429 -0.81821 -1.38543 0
M  V30 6878 O 644.621 -1.08167 -1.40103 0
M  V30 6879 C 641.75 -2.33117 -2.52014 0
M  V30 6880 C 640.836 -3.5256 -2.35717 0
M  V30 6881 N 641.227 -4.69091 -1.89175 0
M  V30 6882 C 639.525 -3.57647 -2.66467 0
M  V30 6883 C 640.226 -5.51187 -1.85924 0
M  V30 6884 N 639.202 -4.92899 -2.29242 0
M  V30 6885 H 643.004 -2.82264 -0.81879 0
M  V30 6886 H 640.518 -1.58474 -0.354929 0
M  V30 6887 H 642.515 -2.58387 -3.27172 0
M  V30 6888 H 641.175 -1.46898 -2.89571 0
M  V30 6889 H 642.186 -4.92844 -1.59139 0
M  V30 6890 H 638.863 -2.81967 -3.07898 0
M  V30 6891 H 640.253 -6.54613 -1.51431 0
M  V30 6892 N 642.974 0.416227 -1.52004 0
M  V30 6893 C 644.221 1.16383 -1.65714 0
M  V30 6894 C 644.549 1.9068 -0.383594 0
M  V30 6895 O 643.804 1.85174 0.633185 0
M  V30 6896 C 644.103 2.18923 -2.82502 0
M  V30 6897 C 643.769 1.61485 -4.20991 0
M  V30 6898 C 642.431 1.45545 -4.58661 0
M  V30 6899 C 644.783 1.19468 -5.07323 0
M  V30 6900 C 642.111 0.860937 -5.80349 0
M  V30 6901 C 644.463 0.614386 -6.29609 0
M  V30 6902 C 643.127 0.442056 -6.66035 0
M  V30 6903 H 642.397 0.425875 -0.606392 0
M  V30 6904 H 645.044 0.45199 -1.8609 0
M  V30 6905 H 643.349 2.96225 -2.56433 0
M  V30 6906 H 645.046 2.76628 -2.90307 0
M  V30 6907 H 641.636 1.74873 -3.91302 0
M  V30 6908 H 645.82 1.30596 -4.78809 0
M  V30 6909 H 641.076 0.715372 -6.072 0
M  V30 6910 H 645.25 0.280393 -6.95835 0
M  V30 6911 H 642.877 -0.0207218 -7.60197 0
M  V30 6912 N 644.452 1.42507 0.673017 0
M  V30 6913 C 645.868 1.25472 0.986355 0
M  V30 6914 C 646.068 0.160181 2.00862 0
M  V30 6915 O 645.124 -0.467993 2.48125 0
M  V30 6916 C 646.437 2.61219 1.48947 0
M  V30 6917 C 647.985 2.68589 1.60715 0
M  V30 6918 C 648.46 4.04707 2.14422 0
M  V30 6919 N 649.951 4.0667 2.21752 0
M  V30 6920 C 650.686 5.0881 2.64386 0
M  V30 6921 N 650.182 6.21332 3.0646 0
M  V30 6922 N 651.975 4.96166 2.64151 0
M  V30 6923 H 644.126 2.124 -0.00378532 0
M  V30 6924 H 646.389 0.946046 0.0608367 0
M  V30 6925 H 646.095 3.42179 0.812812 0
M  V30 6926 H 645.969 2.85261 2.46791 0
M  V30 6927 H 648.356 1.87974 2.27486 0
M  V30 6928 H 648.437 2.48333 0.613552 0
M  V30 6929 H 648.081 4.8578 1.48258 0
M  V30 6930 H 648.011 4.22315 3.14575 0
M  V30 6931 H 650.502 3.25438 1.92089 0
M  V30 6932 H 650.815 6.95118 3.37684 0
M  V30 6933 H 649.16 6.24835 3.04313 0
M  V30 6934 H 652.351 4.07334 2.30644 0
M  V30 6935 H 652.524 5.759 2.97057 0
M  V30 6936 N 645.93 -0.909495 1.28709 0
M  V30 6937 C 647.346 -1.18862 1.06508 0
M  V30 6938 C 647.546 -2.00604 -0.189864 0
M  V30 6939 O 646.602 -2.36281 -0.890355 0
M  V30 6940 C 647.915 -1.91908 2.31499 0
M  V30 6941 C 649.463 -2.04773 2.36721 0
M  V30 6942 C 649.938 -2.81228 3.6149 0
M  V30 6943 N 651.429 -2.88787 3.62155 0
M  V30 6944 C 652.164 -3.48455 4.55375 0
M  V30 6945 N 651.66 -4.09369 5.58918 0
M  V30 6946 N 653.453 -3.46035 4.42963 0
M  V30 6947 H 645.604 -0.363867 2.0926 0
M  V30 6948 H 647.867 -0.223649 0.921241 0
M  V30 6949 H 647.573 -1.39275 3.22948 0
M  V30 6950 H 647.447 -2.92436 2.38245 0
M  V30 6951 H 649.834 -2.56585 1.45767 0
M  V30 6952 H 649.915 -1.03408 2.33967 0
M  V30 6953 H 649.559 -2.30094 4.5279 0
M  V30 6954 H 649.489 -3.82917 3.61499 0
M  V30 6955 H 651.98 -2.45514 2.87283 0
M  V30 6956 H 652.293 -4.52891 6.26187 0
M  V30 6957 H 650.638 -4.0786 5.62739 0
M  V30 6958 H 653.829 -2.9766 3.6127 0
M  V30 6959 H 654.002 -3.92244 5.15799 0
M  V30 6960 N 647.408 -1.11026 -1.11852 0
M  V30 6961 C 648.654 -0.867633 -1.83967 0
M  V30 6962 C 649.009 0.600309 -1.82795 0
M  V30 6963 O 648.302 1.43731 -1.26696 0
M  V30 6964 C 648.496 -1.35777 -3.30604 0
M  V30 6965 C 648.325 -2.87183 -3.46058 0
M  V30 6966 C 647.095 -3.55256 -3.59334 0
M  V30 6967 C 649.293 -3.85258 -3.40706 0
M  V30 6968 N 647.275 -4.94923 -3.63215 0
M  V30 6969 C 648.646 -5.1097 -3.51155 0
M  V30 6970 C 650.701 -3.77879 -3.2421 0
M  V30 6971 C 649.404 -6.30171 -3.46809 0
M  V30 6972 C 651.43 -4.96586 -3.2118 0
M  V30 6973 C 650.792 -6.21149 -3.32196 0
M  V30 6974 H 646.891 -0.370574 -0.688621 0
M  V30 6975 H 649.475 -1.41379 -1.33865 0
M  V30 6976 H 647.646 -0.83885 -3.79233 0
M  V30 6977 H 649.378 -1.05874 -3.90606 0
M  V30 6978 H 646.133 -3.05714 -3.61713 0
M  V30 6979 H 646.557 -5.67726 -3.68804 0
M  V30 6980 H 651.199 -2.82485 -3.14582 0
M  V30 6981 H 648.917 -7.25847 -3.55206 0
M  V30 6982 H 652.503 -4.92591 -3.09589 0
M  V30 6983 H 651.383 -7.11463 -3.29834 0
M  V30 6984 N 648.886 1.2938 -0.899927 0
M  V30 6985 C 650.116 1.99402 -0.540601 0
M  V30 6986 C 650.524 1.67534 0.87914 0
M  V30 6987 O 649.867 0.916821 1.59186 0
M  V30 6988 C 649.929 3.53514 -0.653326 0
M  V30 6989 C 649.593 4.08937 -2.04009 0
M  V30 6990 C 650.59 4.23815 -3.01126 0
M  V30 6991 C 648.275 4.43962 -2.34953 0
M  V30 6992 C 650.269 4.72951 -4.27313 0
M  V30 6993 C 647.956 4.92795 -3.61382 0
M  V30 6994 C 648.954 5.07244 -4.57376 0
M  V30 6995 O 648.642 5.55017 -5.8156 0
M  V30 6996 H 648.374 0.64383 -0.206057 0
M  V30 6997 H 650.928 1.65878 -1.21134 0
M  V30 6998 H 649.158 3.86628 0.0744449 0
M  V30 6999 H 650.847 4.04767 -0.303118 0
M  V30 7000 H 651.613 3.97043 -2.78535 0
M  V30 7001 H 647.492 4.31974 -1.60994 0
M  V30 7002 H 651.036 4.84144 -5.02245 0
M  V30 7003 H 646.933 5.19004 -3.83804 0
M  V30 7004 H 647.701 5.73331 -5.84153 0
M  V30 7005 N 650.364 0.662433 1.43002 0
M  V30 7006 C 651.589 0.186003 2.06564 0
M  V30 7007 C 652.014 -1.14314 1.49379 0
M  V30 7008 O 651.372 -1.70824 0.607346 0
M  V30 7009 C 651.42 0.118269 3.60406 0
M  V30 7010 O 650.524 -0.916859 4.02079 0
M  V30 7011 H 649.865 0.0990981 0.656563 0
M  V30 7012 H 652.395 0.907958 1.8335 0
M  V30 7013 H 652.405 -0.0619981 4.07953 0
M  V30 7014 H 651.08 1.08849 4.01403 0
M  V30 7015 H 649.657 -0.708635 3.66105 0
M  V30 7016 N 651.842 -1.52309 0.404946 0
M  V30 7017 C 652.774 -2.24579 -0.45791 0
M  V30 7018 C 653.787 -1.2739 -1.01369 0
M  V30 7019 O 654.976 -1.53363 -0.91335 0
M  V30 7020 C 652.076 -2.9608 -1.64893 0
M  V30 7021 C 651.249 -4.20106 -1.21777 0
M  V30 7022 C 650.308 -4.74468 -2.27523 0
M  V30 7023 O 649.334 -5.37157 -1.88285 0
M  V30 7024 N 650.536 -4.55678 -3.59635 0
M  V30 7025 H 653.301 -2.99265 0.161341 0
M  V30 7026 H 650.862 -1.60228 0.232107 0
M  V30 7027 H 652.854 -3.29344 -2.35191 0
M  V30 7028 H 651.424 -2.24606 -2.17419 0
M  V30 7029 H 650.644 -3.92704 -0.343071 0
M  V30 7030 H 651.932 -5.00658 -0.906596 0
M  V30 7031 H 651.33 -4.05673 -3.94266 0
M  V30 7032 H 649.887 -4.9339 -4.25922 0
M  V30 7033 N 653.32 -0.135238 -1.57019 0
M  V30 7034 C 654.545 0.529343 -2.00531 0
M  V30 7035 C 654.97 1.58391 -1.01459 0
M  V30 7036 O 654.328 1.81296 0.0113986 0
M  V30 7037 C 654.376 1.11748 -3.42848 0
M  V30 7038 O 653.48 2.23267 -3.46736 0
M  V30 7039 H 652.821 0.130669 -0.651016 0
M  V30 7040 H 655.351 -0.228503 -2.0332 0
M  V30 7041 H 655.361 1.44905 -3.81401 0
M  V30 7042 H 654.036 0.345147 -4.14465 0
M  V30 7043 H 652.613 1.91428 -3.20015 0
M  V30 7044 N 654.798 1.5699 0.138552 0
M  V30 7045 C 656.046 1.83446 0.848053 0
M  V30 7046 C 656.367 0.71744 1.81322 0
M  V30 7047 O 655.637 -0.260228 1.94164 0
M  V30 7048 H 654.217 0.676792 0.316166 0
M  V30 7049 H 656.879 1.94462 0.130538 0
M  V30 7050 H 655.975 2.78677 1.40518 0
M  V30 7051 N 656.276 -0.40816 1.52223 0
M  V30 7052 C 657.504 -1.17672 1.70179 0
M  V30 7053 C 657.919 -1.84257 0.411696 0
M  V30 7054 O 657.276 -1.7192 -0.612354 0
M  V30 7055 C 657.327 -2.23911 2.83806 0
M  V30 7056 O 657.048 -1.60044 4.0782 0
M  V30 7057 C 658.549 -3.1364 3.13281 0
M  V30 7058 H 655.769 -0.353562 0.570293 0
M  V30 7059 H 658.313 -0.480083 1.98785 0
M  V30 7060 H 656.468 -2.89242 2.57717 0
M  V30 7061 H 656.882 -2.30484 4.71145 0
M  V30 7062 H 658.356 -3.84255 3.96298 0
M  V30 7063 H 658.833 -3.76066 2.26872 0
M  V30 7064 H 659.439 -2.53977 3.41139 0
M  V30 7065 N 657.755 -1.42862 -0.66545 0
M  V30 7066 C 659.166 -1.3901 -1.24632 0
M  V30 7067 C 659.517 -0.0880285 -1.96002 0
M  V30 7068 O 658.642 0.812947 -2.0055 0
M  V30 7069 C 659.237 -2.51806 -2.2667 0
M  V30 7070 C 657.796 -2.51257 -2.80262 0
M  V30 7071 C 656.943 -2.30124 -1.5472 0
M  V30 7072 H 659.894 -1.5194 -0.458237 0
M  V30 7073 H 659.915 -2.22593 -3.08598 0
M  V30 7074 H 659.427 -3.46558 -1.74697 0
M  V30 7075 H 657.528 -1.60349 -3.36332 0
M  V30 7076 H 657.641 -3.48614 -3.28641 0
M  V30 7077 H 656.005 -1.7856 -1.81627 0
M  V30 7078 H 656.788 -3.26945 -1.04699 0
M  V30 7079 N 659.233 0.902656 -1.29189 0
M  V30 7080 C 660.482 1.6475 -1.16362 0
M  V30 7081 C 660.795 1.93517 0.284682 0
M  V30 7082 O 662.001 2.66192 0.534229 0
M  V30 7083 C 660.457 2.96848 -2.03493 0
M  V30 7084 C 660.065 2.75687 -3.5313 0
M  V30 7085 C 661.809 3.74762 -1.99383 0
M  V30 7086 C 659.716 4.03492 -4.32375 0
M  V30 7087 H 658.646 0.618041 -0.431904 0
M  V30 7088 H 661.297 1.0008 -1.53806 0
M  V30 7089 H 659.679 3.62715 -1.58916 0
M  V30 7090 H 660.853 2.18431 -4.05739 0
M  V30 7091 H 659.168 2.11171 -3.58881 0
M  V30 7092 H 661.765 4.69515 -2.5585 0
M  V30 7093 H 662.108 4.04767 -0.973123 0
M  V30 7094 H 662.641 3.15732 -2.41988 0
M  V30 7095 H 659.38 3.78656 -5.3507 0
M  V30 7096 H 658.9 4.60318 -3.84535 0
M  V30 7097 H 660.579 4.71662 -4.42881 0
M  V30 7098 N 660.711 1.11618 1.11262 0
M  V30 7099 C 661.957 0.867463 1.83311 0
M  V30 7100 C 662.29 -0.605366 1.84524 0
M  V30 7101 O 661.565 -1.44704 1.29965 0
M  V30 7102 C 661.848 1.43207 3.30399 0
M  V30 7103 C 661.701 2.97265 3.3757 0
M  V30 7104 C 663.02 1.08454 4.26528 0
M  V30 7105 H 660.139 0.316578 0.665543 0
M  V30 7106 H 662.781 1.38137 1.30454 0
M  V30 7107 H 660.931 0.994982 3.75543 0
M  V30 7108 H 662.603 3.49591 3.00971 0
M  V30 7109 H 660.846 3.33237 2.77733 0
M  V30 7110 H 661.517 3.31859 4.41105 0
M  V30 7111 H 663.993 1.4619 3.89574 0
M  V30 7112 H 662.869 1.50633 5.27826 0
M  V30 7113 H 663.13 -0.00444568 4.421 0
M  V30 7114 N 662.189 -1.289 0.906776 0
M  V30 7115 C 663.417 -1.99401 0.551969 0
M  V30 7116 C 663.832 -1.67816 -0.865048 0
M  V30 7117 O 663.189 -0.927078 -1.57199 0
M  V30 7118 C 663.24 -3.53779 0.743152 0
M  V30 7119 O 662.961 -3.84248 2.1044 0
M  V30 7120 C 664.462 -4.41543 0.39424 0
M  V30 7121 H 661.682 -0.636926 0.211106 0
M  V30 7122 H 664.226 -1.64266 1.21807 0
M  V30 7123 H 662.381 -3.87201 0.124143 0
M  V30 7124 H 662.795 -4.78904 2.13895 0
M  V30 7125 H 664.269 -5.48957 0.578814 0
M  V30 7126 H 664.746 -4.34073 -0.669137 0
M  V30 7127 H 665.352 -4.13605 0.990491 0
M  V30 7128 N 663.667 -0.670007 -1.42649 0
M  V30 7129 C 664.913 -0.190568 -2.01903 0
M  V30 7130 C 665.246 1.19817 -1.52832 0
M  V30 7131 O 664.521 1.80342 -0.728485 0
M  V30 7132 C 664.804 -0.21991 -3.59428 0
M  V30 7133 C 664.657 -1.64376 -4.18689 0
M  V30 7134 C 665.976 0.434519 -4.3795 0
M  V30 7135 H 663.095 -0.0707219 -0.733599 0
M  V30 7136 H 665.737 -0.853883 -1.69732 0
M  V30 7137 H 663.887 0.344894 -3.86966 0
M  V30 7138 H 665.559 -2.26044 -4.02122 0
M  V30 7139 H 663.802 -2.18591 -3.747 0
M  V30 7140 H 664.473 -1.61601 -5.27815 0
M  V30 7141 H 666.949 -0.0462156 -4.16074 0
M  V30 7142 H 665.825 0.38333 -5.4756 0
M  V30 7143 H 666.086 1.51135 -4.15464 0
M  V30 7144 N 665.145 1.52092 -0.413018 0
M  V30 7145 C 666.092 2.27119 0.410558 0
M  V30 7146 C 667.062 1.29692 1.03774 0
M  V30 7147 O 668.247 1.58561 1.06128 0
M  V30 7148 C 665.387 3.09863 1.51918 0
M  V30 7149 C 664.5 4.22252 0.912528 0
M  V30 7150 C 663.635 4.92348 1.99417 0
M  V30 7151 C 662.674 5.96694 1.36466 0
M  V30 7152 N 661.811 6.60292 2.38661 0
M  V30 7153 H 666.651 2.97067 -0.235661 0
M  V30 7154 H 664.188 1.46542 -0.128055 0
M  V30 7155 H 666.146 3.56144 2.17295 0
M  V30 7156 H 664.776 2.42078 2.13537 0
M  V30 7157 H 663.828 3.80113 0.147697 0
M  V30 7158 H 665.14 4.9709 0.412717 0
M  V30 7159 H 664.294 5.42054 2.72512 0
M  V30 7160 H 663.033 4.17087 2.52764 0
M  V30 7161 H 662.038 5.46304 0.61906 0
M  V30 7162 H 663.263 6.73899 0.838827 0
M  V30 7163 H 661.209 5.87858 2.91134 0
M  V30 7164 H 661.126 7.30816 1.93503 0
M  V30 7165 H 662.394 7.14635 3.11314 0
M  V30 7166 N 666.623 0.143563 1.56945 0
M  V30 7167 C 667.9 -0.553285 1.87612 0
M  V30 7168 C 668.28 -1.83195 1.04894 0
M  V30 7169 O 667.628 -2.28102 0.134773 0
M  V30 7170 C 667.838 -0.822055 3.3918 0
M  V30 7171 C 669.186 -1.16435 4.08324 0
M  V30 7172 O 670.21 -0.911522 3.4434 0
M  V30 7173 O 669.069 -1.63996 5.21313 0
M  V30 7174 H 666.163 -0.281851 0.777489 0
M  V30 7175 H 668.709 0.179916 1.68744 0
M  V30 7176 H 667.481 0.0830265 3.91212 0
M  V30 7177 H 667.104 -1.60956 3.63564 0
M  V30 7178 N 668.101 -1.57061 -0.130224 0
M  V30 7179 C 669.378 -1.75205 -0.869631 0
M  V30 7180 C 669.758 -0.716063 -1.98584 0
M  V30 7181 O 669.106 0.262032 -2.26993 0
M  V30 7182 C 669.316 -3.19835 -1.39666 0
M  V30 7183 C 670.664 -3.82011 -1.85345 0
M  V30 7184 O 671.688 -3.23368 -1.49371 0
M  V30 7185 O 670.547 -4.85064 -2.51744 0
M  V30 7186 H 667.641 -0.716977 -0.412157 0
M  V30 7187 H 670.187 -1.69311 -0.11484 0
M  V30 7188 H 668.959 -3.86745 -0.595288 0
M  V30 7189 H 668.582 -3.30222 -2.21448 0
M  V30 7190 N 669.579 0.400081 -1.52437 0
M  V30 7191 C 670.809 1.16598 -1.70553 0
M  V30 7192 C 671.217 1.8451 -0.418665 0
M  V30 7193 O 670.56 1.73069 0.615855 0
M  V30 7194 C 670.622 2.26517 -2.7916 0
M  V30 7195 C 670.286 1.78666 -4.20628 0
M  V30 7196 C 671.283 1.26946 -5.04163 0
M  V30 7197 C 668.968 1.85225 -4.66902 0
M  V30 7198 C 670.962 0.824187 -6.32049 0
M  V30 7199 C 668.649 1.40309 -5.94774 0
M  V30 7200 C 669.647 0.889922 -6.77178 0
M  V30 7201 O 669.335 0.447281 -8.02655 0
M  V30 7202 H 669.067 0.356023 -0.574651 0
M  V30 7203 H 671.621 0.475598 -1.99818 0
M  V30 7204 H 669.851 2.98946 -2.45292 0
M  V30 7205 H 671.54 2.88237 -2.85787 0
M  V30 7206 H 672.306 1.21244 -4.69601 0
M  V30 7207 H 668.185 2.24111 -4.02859 0
M  V30 7208 H 671.729 0.422958 -6.96317 0
M  V30 7209 H 667.626 1.45693 -6.28843 0
M  V30 7210 H 668.394 0.569768 -8.16514 0
M  V30 7211 N 671.057 1.43213 0.657864 0
M  V30 7212 C 672.005 1.48271 1.79216 0
M  V30 7213 C 672.999 0.35675 1.65601 0
M  V30 7214 O 674.205 0.530535 1.72004 0
M  V30 7215 H 670.58 0.464729 0.591211 0
M  V30 7216 H 672.551 2.43792 1.7207 0
M  V30 7217 C 671.3 1.41837 3.17455 0
M  V30 7218 H 670.623 2.27781 3.28567 0
M  V30 7219 H 672.063 1.49438 3.96793 0
M  V30 7220 C 670.522 0.135347 3.36628 0
M  V30 7221 O 671.052 -0.805199 3.93547 0
M  V30 7222 N 669.258 0.0470316 2.90562 0
M  V30 7223 H 668.805 0.813221 2.44427 0
M  V30 7224 H 668.763 -0.810737 3.03767 0
M  V30 7225 N 672.536 -0.895792 1.29666 0
M  V30 7226 C 673.947 -1.46195 1.1612 0
M  V30 7227 C 674.298 -1.94699 -0.242195 0
M  V30 7228 O 673.423 -1.8406 -1.13802 0
M  V30 7229 C 674.018 -2.65718 2.10189 0
M  V30 7230 C 672.577 -3.18458 2.00653 0
M  V30 7231 C 671.724 -1.91149 2.00891 0
M  V30 7232 H 674.675 -0.706756 1.42094 0
M  V30 7233 H 674.696 -3.4158 1.6764 0
M  V30 7234 H 674.208 -2.30386 3.12321 0
M  V30 7235 H 672.309 -3.58474 1.01623 0
M  V30 7236 H 672.422 -3.82491 2.88509 0
M  V30 7237 H 670.786 -2.09021 1.45542 0
M  V30 7238 H 671.569 -1.58089 3.04734 0
M  V30 7239 N 674.014 -1.12206 -1.10668 0
M  V30 7240 C 674.924 -0.800686 -2.20513 0
M  V30 7241 C 675.94 0.209512 -1.72734 0
M  V30 7242 O 677.116 0.043705 -2.01353 0
M  V30 7243 C 674.181 -0.257353 -3.45744 0
M  V30 7244 C 673.242 -1.32718 -4.0827 0
M  V30 7245 C 672.475 -0.809674 -5.27522 0
M  V30 7246 O 672.698 0.35742 -5.69279 0
M  V30 7247 O 671.632 -1.57816 -5.80842 0
M  V30 7248 H 675.458 -1.71807 -2.50432 0
M  V30 7249 H 673.043 -0.898546 -1.19359 0
M  V30 7250 H 674.925 0.0408849 -4.2138 0
M  V30 7251 H 673.6 0.632627 -3.17458 0
M  V30 7252 H 672.507 -1.67855 -3.34329 0
M  V30 7253 H 673.84 -2.19083 -4.40753 0
M  V30 7254 N 675.492 1.28418 -0.913599 0
M  V30 7255 C 676.72 1.99106 -0.562536 0
M  V30 7256 C 677.135 1.68273 0.856137 0
M  V30 7257 O 676.492 0.935401 1.56705 0
M  V30 7258 C 676.543 3.5338 -0.761903 0
M  V30 7259 O 676.264 3.83127 -2.12475 0
M  V30 7260 C 677.765 4.41328 -0.417651 0
M  V30 7261 H 674.985 0.635798 -0.214481 0
M  V30 7262 H 677.529 1.63618 -1.22676 0
M  V30 7263 H 675.684 3.8713 -0.144676 0
M  V30 7264 H 676.098 4.77763 -2.16431 0
M  V30 7265 H 677.572 5.48642 -0.607919 0
M  V30 7266 H 678.049 4.34422 0.646108 0
M  V30 7267 H 678.655 4.13074 -1.01241 0
M  V30 7268 N 676.97 0.677563 1.42291 0
M  V30 7269 C 677.88 0.000962654 2.346 0
M  V30 7270 C 678.896 -0.785833 1.55244 0
M  V30 7271 O 680.072 -0.727523 1.87801 0
M  V30 7272 C 677.137 -0.936746 3.33805 0
M  V30 7273 C 676.198 -0.144173 4.29058 0
M  V30 7274 C 675.431 -1.03722 5.23524 0
M  V30 7275 O 675.654 -2.27675 5.22992 0
M  V30 7276 O 674.588 -0.496542 5.99848 0
M  V30 7277 H 678.414 0.761397 2.94001 0
M  V30 7278 H 675.999 0.43781 1.42841 0
M  V30 7279 H 677.881 -1.47497 3.94744 0
M  V30 7280 H 676.556 -1.67698 2.76874 0
M  V30 7281 H 675.463 0.438224 3.71524 0
M  V30 7282 H 676.796 0.55701 4.89038 0
M  V30 7283 N 678.448 -1.51871 0.421078 0
M  V30 7284 C 679.38 -2.25052 -0.434065 0
M  V30 7285 C 680.393 -1.28458 -1.00013 0
M  V30 7286 O 681.582 -1.54323 -0.897033 0
M  V30 7287 C 678.682 -2.97813 -1.61743 0
M  V30 7288 C 677.855 -4.21374 -1.17315 0
M  V30 7289 C 676.914 -4.76854 -2.22478 0
M  V30 7290 O 675.94 -5.39123 -1.82577 0
M  V30 7291 N 677.142 -4.59467 -3.54782 0
M  V30 7292 H 679.907 -2.99077 0.193073 0
M  V30 7293 H 677.468 -1.59972 0.249088 0
M  V30 7294 H 679.46 -3.3182 -2.31685 0
M  V30 7295 H 678.03 -2.26899 -2.15024 0
M  V30 7296 H 677.25 -3.93046 -0.3014 0
M  V30 7297 H 678.538 -5.01591 -0.853444 0
M  V30 7298 H 677.936 -4.09832 -3.89941 0
M  V30 7299 H 676.493 -4.9788 -4.20665 0
M  V30 7300 N 679.926 -0.151884 -1.56866 0
M  V30 7301 C 681.156 0.504081 -2.00356 0
M  V30 7302 C 681.564 1.58639 -1.03103 0
M  V30 7303 O 680.907 1.83688 -0.0207931 0
M  V30 7304 C 680.969 1.15975 -3.40279 0
M  V30 7305 C 680.633 0.221453 -4.56463 0
M  V30 7306 C 681.63 -0.552766 -5.16953 0
M  V30 7307 C 679.315 0.122936 -5.0215 0
M  V30 7308 C 681.309 -1.4129 -6.21543 0
M  V30 7309 C 678.996 -0.740801 -6.06593 0
M  V30 7310 C 679.994 -1.50732 -6.6616 0
M  V30 7311 O 679.682 -2.35666 -7.68581 0
M  V30 7312 H 679.414 0.135279 -0.662326 0
M  V30 7313 H 681.968 -0.244916 -2.03935 0
M  V30 7314 H 680.198 1.95649 -3.33554 0
M  V30 7315 H 681.887 1.71594 -3.67846 0
M  V30 7316 H 682.653 -0.486716 -4.82552 0
M  V30 7317 H 678.532 0.70931 -4.5551 0
M  V30 7318 H 682.076 -2.01166 -6.67966 0
M  V30 7319 H 677.973 -0.808125 -6.40421 0
M  V30 7320 H 678.741 -2.28967 -7.85822 0
M  V30 7321 N 681.404 1.57128 0.121893 0
M  V30 7322 C 682.632 1.88883 0.844451 0
M  V30 7323 C 683.047 0.742824 1.73573 0
M  V30 7324 O 682.404 -0.286475 1.80238 0
M  V30 7325 C 682.455 3.20076 1.68029 0
M  V30 7326 O 682.176 4.30264 0.824898 0
M  V30 7327 C 683.677 3.65515 2.50826 0
M  V30 7328 H 680.897 0.62549 0.242907 0
M  V30 7329 H 683.441 2.04219 0.107151 0
M  V30 7330 H 681.596 3.06418 2.37038 0
M  V30 7331 H 682.01 5.05439 1.40113 0
M  V30 7332 H 683.484 4.60081 3.05008 0
M  V30 7333 H 683.961 2.92029 3.28048 0
M  V30 7334 H 684.567 3.81952 1.87064 0
M  V30 7335 N 682.882 -0.391992 1.52647 0
M  V30 7336 C 683.812 -1.48517 1.8018 0
M  V30 7337 C 684.793 -1.57039 0.653667 0
M  V30 7338 O 685.978 -1.72036 0.900962 0
M  V30 7339 C 683.108 -2.86161 1.96797 0
M  V30 7340 C 682.062 -2.92481 3.12472 0
M  V30 7341 C 681.388 -4.32546 3.14338 0
M  V30 7342 C 682.688 -2.624 4.51601 0
M  V30 7343 H 684.382 -1.25726 2.71723 0
M  V30 7344 H 681.928 -0.603387 1.30749 0
M  V30 7345 H 683.881 -3.62639 2.14641 0
M  V30 7346 H 682.605 -3.10283 1.01941 0
M  V30 7347 H 681.264 -2.18451 2.94406 0
M  V30 7348 H 680.912 -4.53703 2.1717 0
M  V30 7349 H 680.612 -4.37695 3.92042 0
M  V30 7350 H 682.136 -5.10934 3.34333 0
M  V30 7351 H 683.55 -3.28596 4.69785 0
M  V30 7352 H 681.947 -2.78903 5.3135 0
M  V30 7353 H 683.017 -1.57754 4.58521 0
M  V30 7354 N 684.36 -1.4356 -0.65026 0
M  V30 7355 C 685.588 -1.48779 -1.43779 0
M  V30 7356 C 686.003 -0.106593 -1.88499 0
M  V30 7357 O 685.36 0.883766 -1.59674 0
M  V30 7358 C 685.411 -2.43618 -2.67081 0
M  V30 7359 O 685.132 -3.76367 -2.24231 0
M  V30 7360 C 686.633 -2.5811 -3.60409 0
M  V30 7361 H 683.853 -0.50521 -0.441593 0
M  V30 7362 H 686.397 -1.88332 -0.796941 0
M  V30 7363 H 684.552 -2.07253 -3.273 0
M  V30 7364 H 684.966 -4.27394 -3.0403 0
M  V30 7365 H 686.44 -3.28539 -4.43583 0
M  V30 7366 H 686.917 -1.627 -4.07953 0
M  V30 7367 H 687.523 -2.95298 -3.0607 0
M  V30 7368 N 685.838 0.888903 -1.30139 0
M  V30 7369 C 687.087 1.63507 -1.18103 0
M  V30 7370 C 687.4 1.93808 0.264141 0
M  V30 7371 O 688.606 2.66744 0.505966 0
M  V30 7372 C 687.062 2.94673 -2.0663 0
M  V30 7373 C 686.67 2.71926 -3.56034 0
M  V30 7374 C 688.414 3.72626 -2.03346 0
M  V30 7375 C 686.321 3.98884 -4.3663 0
M  V30 7376 H 685.251 0.613426 -0.438435 0
M  V30 7377 H 687.902 0.984427 -1.54859 0
M  V30 7378 H 686.284 3.61009 -1.62754 0
M  V30 7379 H 687.458 2.14116 -4.08033 0
M  V30 7380 H 685.773 2.07353 -3.61101 0
M  V30 7381 H 688.37 4.66775 -2.60816 0
M  V30 7382 H 688.713 4.03712 -1.016 0
M  V30 7383 H 689.246 3.13147 -2.45324 0
M  V30 7384 H 685.985 3.72959 -5.39056 0
M  V30 7385 H 685.505 4.56214 -3.89396 0
M  V30 7386 H 687.184 4.66938 -4.47859 0
M  V30 7387 N 687.317 1.12792 1.10072 0
M  V30 7388 C 688.542 0.908838 1.86427 0
M  V30 7389 C 688.967 -0.536793 1.80278 0
M  V30 7390 O 688.325 -1.38033 1.17543 0
M  V30 7391 C 688.373 1.39295 3.3261 0
M  V30 7392 O 687.477 0.573846 4.08388 0
M  V30 7393 H 686.818 0.326234 0.578331 0
M  V30 7394 H 689.348 1.50094 1.39043 0
M  V30 7395 H 689.358 1.39366 3.83459 0
M  V30 7396 H 688.033 2.44555 3.36401 0
M  V30 7397 H 686.61 0.640438 3.67359 0
M  V30 7398 N 688.795 -1.27931 0.920396 0
M  V30 7399 C 689.727 -2.26175 0.371169 0
M  V30 7400 C 690.74 -1.55122 -0.494065 0
M  V30 7401 O 691.929 -1.75825 -0.30787 0
M  V30 7402 C 689.029 -3.35376 -0.487481 0
M  V30 7403 C 688.202 -4.35943 0.356772 0
M  V30 7404 C 687.261 -5.24374 -0.438042 0
M  V30 7405 O 686.287 -5.68998 0.151715 0
M  V30 7406 N 687.489 -5.53823 -1.73956 0
M  V30 7407 H 690.254 -2.73938 1.21564 0
M  V30 7408 H 687.815 -1.41482 0.787047 0
M  V30 7409 H 689.807 -3.91476 -1.02609 0
M  V30 7410 H 688.377 -2.87269 -1.23269 0
M  V30 7411 H 687.597 -3.7921 1.07672 0
M  V30 7412 H 688.885 -5.0015 0.934206 0
M  V30 7413 H 688.283 -5.19413 -2.24114 0
M  V30 7414 H 686.84 -6.12653 -2.22486 0
M  V30 7415 N 690.273 -0.685099 -1.4193 0
M  V30 7416 C 691.689 -0.355632 -1.55587 0
M  V30 7417 C 691.889 1.13823 -1.66273 0
M  V30 7418 O 690.945 1.92387 -1.63534 0
M  V30 7419 C 692.258 -1.09498 -2.80055 0
M  V30 7420 C 693.806 -1.07831 -2.93839 0
M  V30 7421 C 694.281 -1.79919 -4.21181 0
M  V30 7422 N 695.772 -1.76837 -4.28115 0
M  V30 7423 C 696.507 -2.29463 -5.25485 0
M  V30 7424 N 696.003 -2.90516 -6.28945 0
M  V30 7425 N 697.796 -2.19779 -5.17353 0
M  V30 7426 H 689.947 -1.65412 -1.33239 0
M  V30 7427 H 692.21 -0.697453 -0.642078 0
M  V30 7428 H 691.916 -2.14997 -2.78333 0
M  V30 7429 H 691.79 -0.666813 -3.71259 0
M  V30 7430 H 694.177 -0.0316152 -2.95083 0
M  V30 7431 H 694.258 -1.54545 -2.03837 0
M  V30 7432 H 693.902 -2.84562 -4.20698 0
M  V30 7433 H 693.832 -1.30647 -5.10136 0
M  V30 7434 H 696.323 -1.32315 -3.53979 0
M  V30 7435 H 696.636 -3.28266 -6.99615 0
M  V30 7436 H 694.981 -2.94589 -6.29478 0
M  V30 7437 H 698.172 -1.71763 -4.35448 0
M  V30 7438 H 698.345 -2.61097 -5.9307 0
M  V30 7439 N 691.751 1.51645 -0.429126 0
M  V30 7440 C 692.979 2.06433 0.138994 0
M  V30 7441 C 693.394 1.29735 1.37165 0
M  V30 7442 O 692.751 0.354638 1.79021 0
M  V30 7443 C 692.802 3.58439 0.469452 0
M  V30 7444 O 692.523 4.32238 -0.714273 0
M  V30 7445 C 694.024 4.29712 1.08914 0
M  V30 7446 H 691.244 0.6709 0.0115608 0
M  V30 7447 H 693.788 1.9532 -0.605843 0
M  V30 7448 H 691.943 3.69494 1.16419 0
M  V30 7449 H 692.357 5.22704 -0.433633 0
M  V30 7450 H 693.831 5.37182 1.27042 0
M  V30 7451 H 694.308 3.87473 2.06788 0
M  V30 7452 H 694.914 4.2308 0.434028 0
M  V30 7453 N 693.229 0.160201 1.56784 0
M  V30 7454 C 694.64 -0.358417 1.83227 0
M  V30 7455 C 694.991 -1.63831 1.07952 0
M  V30 7456 O 694.116 -2.13885 0.328995 0
M  V30 7457 C 694.711 -0.657058 3.32368 0
M  V30 7458 C 693.27 -1.12015 3.59346 0
M  V30 7459 C 692.417 -0.15015 2.76893 0
M  V30 7460 H 695.368 0.384669 1.53967 0
M  V30 7461 H 695.389 -1.51033 3.49241 0
M  V30 7462 H 694.901 0.274647 3.87127 0
M  V30 7463 H 693.002 -2.06734 3.09987 0
M  V30 7464 H 693.115 -1.037 4.67743 0
M  V30 7465 H 691.479 -0.645361 2.46388 0
M  V30 7466 H 692.262 0.775379 3.34429 0
M  V30 7467 N 694.707 -1.5719 -0.113559 0
M  V30 7468 C 695.67 -1.99796 -1.12314 0
M  V30 7469 C 696.67 -0.888847 -1.34001 0
M  V30 7470 O 697.86 -1.15476 -1.30426 0
M  V30 7471 C 694.992 -2.34279 -2.47641 0
M  V30 7472 H 696.185 -2.90193 -0.756825 0
M  V30 7473 H 693.738 -1.52144 -0.358029 0
M  V30 7474 H 694.473 -1.46778 -2.89183 0
M  V30 7475 H 694.258 -3.15175 -2.33253 0
M  V30 7476 H 695.748 -2.67963 -3.2029 0
M  V30 7477 N 696.185 0.383891 -1.52853 0
M  V30 7478 C 697.413 1.1495 -1.7203 0
M  V30 7479 C 697.828 1.83578 -0.440957 0
M  V30 7480 O 697.185 1.72872 0.584925 0
M  V30 7481 C 697.236 2.19368 -2.87333 0
M  V30 7482 O 696.957 1.53536 -4.10315 0
M  V30 7483 C 698.458 3.08616 -3.18231 0
M  V30 7484 H 695.678 0.344445 -0.575846 0
M  V30 7485 H 698.222 0.448397 -1.99524 0
M  V30 7486 H 696.377 2.85105 -2.62286 0
M  V30 7487 H 696.791 2.2296 -4.74752 0
M  V30 7488 H 698.265 3.77902 -4.02361 0
M  V30 7489 H 698.742 3.72409 -2.32826 0
M  V30 7490 H 699.348 2.48518 -3.45136 0
M  V30 7491 N 697.663 1.43903 0.642637 0
M  V30 7492 C 699.074 1.40975 1.22404 0
M  V30 7493 C 699.425 0.1192 1.95838 0
M  V30 7494 O 698.55 -0.780939 2.01818 0
M  V30 7495 C 699.145 2.5538 2.22636 0
M  V30 7496 C 697.704 2.55684 2.76229 0
M  V30 7497 C 696.851 2.32556 1.51039 0
M  V30 7498 H 699.802 1.5265 0.434006 0
M  V30 7499 H 699.823 2.27474 3.05017 0
M  V30 7500 H 699.335 3.49294 1.69161 0
M  V30 7501 H 697.436 1.65679 3.33738 0
M  V30 7502 H 697.549 3.53799 3.23053 0
M  V30 7503 H 695.913 1.81427 1.78764 0
M  V30 7504 H 696.696 3.28569 0.99484 0
M  V30 7505 N 699.141 -0.881989 1.30609 0
M  V30 7506 C 700.418 -1.61563 1.10258 0
M  V30 7507 C 700.798 -2.08228 -0.347053 0
M  V30 7508 O 700.146 -1.85151 -1.33908 0
M  V30 7509 C 700.356 -2.78287 2.10612 0
M  V30 7510 C 701.704 -3.48545 2.4249 0
M  V30 7511 O 702.728 -2.88479 2.08945 0
M  V30 7512 O 701.587 -4.56873 2.99883 0
M  V30 7513 H 698.681 -0.710238 0.423663 0
M  V30 7514 H 701.227 -0.928503 1.42045 0
M  V30 7515 H 699.999 -2.41131 3.08174 0
M  V30 7516 H 699.622 -3.54695 1.79659 0
M  V30 7517 N 700.619 -1.13374 -1.09472 0
M  V30 7518 C 701.551 -0.768466 -2.15933 0
M  V30 7519 C 702.564 0.209585 -1.61445 0
M  V30 7520 O 703.753 -0.010539 -1.78497 0
M  V30 7521 C 700.853 -0.118266 -3.38694 0
M  V30 7522 C 700.026 -1.12829 -4.22597 0
M  V30 7523 C 699.085 -0.503875 -5.23782 0
M  V30 7524 O 698.111 -1.16374 -5.57177 0
M  V30 7525 N 699.313 0.724288 -5.75964 0
M  V30 7526 H 702.078 -1.68457 -2.47876 0
M  V30 7527 H 699.639 -1.02668 -1.25183 0
M  V30 7528 H 701.631 0.311698 -4.03498 0
M  V30 7529 H 700.201 0.700769 -3.04644 0
M  V30 7530 H 699.421 -1.73556 -3.53938 0
M  V30 7531 H 700.709 -1.81095 -4.75481 0
M  V30 7532 H 700.107 1.27918 -5.51048 0
M  V30 7533 H 698.664 1.09692 -6.42504 0
M  V30 7534 N 702.098 1.27442 -0.927168 0
M  V30 7535 C 703.061 2.2512 -0.430525 0
M  V30 7536 C 704.061 1.54357 0.450619 0
M  V30 7537 O 705.251 1.72371 0.251774 0
M  V30 7538 C 702.383 3.38763 0.381144 0
M  V30 7539 H 703.576 2.70569 -1.29354 0
M  V30 7540 H 701.129 1.39355 -0.707806 0
M  V30 7541 H 701.864 2.98695 1.263 0
M  V30 7542 H 701.649 3.91298 -0.250618 0
M  V30 7543 H 703.139 4.11364 0.719012 0
M  V30 7544 N 703.576 0.692616 1.41565 0
M  V30 7545 C 704.486 0.0258451 2.34586 0
M  V30 7546 C 705.502 -0.769324 1.56069 0
M  V30 7547 O 706.678 -0.707563 1.88562 0
M  V30 7548 C 703.743 -0.901289 3.3478 0
M  V30 7549 C 702.804 -0.0986579 4.29187 0
M  V30 7550 C 702.037 -0.981634 5.24595 0
M  V30 7551 O 702.26 -2.22115 5.25377 0
M  V30 7552 O 701.194 -0.432892 6.00341 0
M  V30 7553 H 705.02 0.792537 2.93177 0
M  V30 7554 H 702.605 0.452935 1.42369 0
M  V30 7555 H 704.487 -1.43302 3.96286 0
M  V30 7556 H 703.162 -1.64752 2.78637 0
M  V30 7557 H 702.069 0.477604 3.71039 0
M  V30 7558 H 703.402 0.608848 4.8842 0
M  V30 7559 N 705.054 -1.51416 0.437162 0
M  V30 7560 C 706.001 -2.27743 -0.374374 0
M  V30 7561 C 706.971 -1.31327 -1.01698 0
M  V30 7562 O 708.156 -1.60229 -1.03592 0
M  V30 7563 C 705.296 -3.12241 -1.46969 0
M  V30 7564 C 704.409 -4.23651 -0.845236 0
M  V30 7565 C 703.544 -4.95458 -1.91559 0
M  V30 7566 C 702.583 -5.98789 -1.26956 0
M  V30 7567 N 701.72 -6.64005 -2.28126 0
M  V30 7568 H 706.56 -2.96654 0.282892 0
M  V30 7569 H 704.097 -1.46319 0.151352 0
M  V30 7570 H 706.055 -3.59556 -2.11602 0
M  V30 7571 H 704.685 -2.45445 -2.09659 0
M  V30 7572 H 703.737 -3.803 -0.0872059 0
M  V30 7573 H 705.049 -4.97683 -0.333582 0
M  V30 7574 H 704.203 -5.46321 -2.63854 0
M  V30 7575 H 702.942 -4.21055 -2.46097 0
M  V30 7576 H 701.947 -5.47219 -0.53207 0
M  V30 7577 H 703.172 -6.75149 -0.731509 0
M  V30 7578 H 701.118 -5.92415 -2.81745 0
M  V30 7579 H 701.035 -7.33802 -1.81852 0
M  V30 7580 H 702.303 -7.19498 -2.99905 0
M  V30 7581 N 706.532 -0.168513 -1.56696 0
M  V30 7582 C 707.464 0.794249 -2.14998 0
M  V30 7583 C 708.477 1.1957 -1.10485 0
M  V30 7584 O 709.666 1.13604 -1.37682 0
M  V30 7585 C 706.766 2.08018 -2.67547 0
M  V30 7586 C 705.939 1.84274 -3.96689 0
M  V30 7587 C 704.998 2.97059 -4.3433 0
M  V30 7588 O 704.024 2.67815 -5.02259 0
M  V30 7589 N 705.226 4.24775 -3.9566 0
M  V30 7590 H 707.991 0.295832 -2.98236 0
M  V30 7591 H 705.552 0.0143611 -1.61894 0
M  V30 7592 H 707.544 2.82559 -2.89729 0
M  V30 7593 H 706.114 2.49059 -1.88914 0
M  V30 7594 H 705.334 0.936528 -3.82914 0
M  V30 7595 H 706.622 1.65773 -4.81037 0
M  V30 7596 H 706.02 4.51395 -3.40968 0
M  V30 7597 H 704.577 4.96027 -4.22848 0
M  V30 7598 N 708.01 1.57248 0.105221 0
M  V30 7599 C 709.421 1.74612 0.660865 0
M  V30 7600 C 709.772 0.789231 1.79626 0
M  V30 7601 O 708.897 -0.0346611 2.16372 0
M  V30 7602 C 709.492 3.16624 1.20559 0
M  V30 7603 C 708.051 3.35447 1.7074 0
M  V30 7604 C 707.198 2.70445 0.612764 0
M  V30 7605 H 710.149 1.5824 -0.12079 0
M  V30 7606 H 710.17 3.18937 2.07508 0
M  V30 7607 H 709.682 3.86245 0.379012 0
M  V30 7608 H 707.783 2.7089 2.5583 0
M  V30 7609 H 707.896 4.43702 1.80736 0
M  V30 7610 H 706.26 2.32061 1.04975 0
M  V30 7611 H 707.043 3.42699 -0.203066 0
M  V30 7612 N 709.488 -0.375779 1.53054 0
M  V30 7613 C 710.418 -1.46598 1.81745 0
M  V30 7614 C 711.399 -1.56337 0.670286 0
M  V30 7615 O 712.584 -1.71071 0.919158 0
M  V30 7616 C 709.714 -2.84058 1.99821 0
M  V30 7617 C 708.668 -2.8915 3.15557 0
M  V30 7618 C 707.994 -4.29187 3.18908 0
M  V30 7619 C 709.294 -2.57595 4.54359 0
M  V30 7620 H 710.988 -1.22837 2.73041 0
M  V30 7621 H 708.534 -0.589485 1.31381 0
M  V30 7622 H 710.487 -3.60342 2.18475 0
M  V30 7623 H 709.211 -3.09184 1.05226 0
M  V30 7624 H 707.87 -2.15316 2.96706 0
M  V30 7625 H 707.518 -4.51374 2.2197 0
M  V30 7626 H 707.218 -4.33512 3.96662 0
M  V30 7627 H 708.742 -5.07359 3.39734 0
M  V30 7628 H 710.156 -3.23595 4.73243 0
M  V30 7629 H 708.553 -2.73252 5.34279 0
M  V30 7630 H 709.623 -1.52882 4.60169 0
M  V30 7631 N 710.966 -1.44241 -0.634997 0
M  V30 7632 C 711.916 -1.47247 -1.74076 0
M  V30 7633 C 712.9 -0.338708 -1.57295 0
M  V30 7634 O 714.092 -0.583751 -1.67097 0
M  V30 7635 C 711.221 -1.41579 -3.12746 0
M  V30 7636 C 710.307 -2.60055 -3.35011 0
M  V30 7637 N 710.698 -3.85321 -3.27661 0
M  V30 7638 C 708.996 -2.55168 -3.65794 0
M  V30 7639 C 709.697 -4.64241 -3.50508 0
M  V30 7640 N 708.673 -3.95254 -3.73196 0
M  V30 7641 H 712.475 -2.4195 -1.66845 0
M  V30 7642 H 709.989 -1.3915 -0.837326 0
M  V30 7643 H 711.986 -1.41816 -3.92038 0
M  V30 7644 H 710.646 -0.479108 -3.21146 0
M  V30 7645 H 711.657 -4.17345 -3.06665 0
M  V30 7646 H 708.334 -1.70276 -3.81198 0
M  V30 7647 H 709.724 -5.73267 -3.50449 0
M  V30 7648 N 712.444 0.87505 -1.31075 0
M  V30 7649 C 713.693 1.62245 -1.19831 0
M  V30 7650 C 714.006 1.94078 0.24357 0
M  V30 7651 O 715.212 2.67265 0.477646 0
M  V30 7652 C 713.668 2.92464 -2.09744 0
M  V30 7653 C 713.276 2.68134 -3.58898 0
M  V30 7654 C 715.02 3.70449 -2.07287 0
M  V30 7655 C 712.927 3.9423 -4.40836 0
M  V30 7656 H 711.857 0.608741 -0.444916 0
M  V30 7657 H 714.508 0.967947 -1.55894 0
M  V30 7658 H 712.89 3.59262 -1.66574 0
M  V30 7659 H 714.064 2.09776 -4.10281 0
M  V30 7660 H 712.379 2.03511 -3.6328 0
M  V30 7661 H 714.976 4.63983 -2.65752 0
M  V30 7662 H 715.319 4.02611 -1.05876 0
M  V30 7663 H 715.852 3.10528 -2.48631 0
M  V30 7664 H 712.591 3.67221 -5.42982 0
M  V30 7665 H 712.111 4.52058 -3.94213 0
M  V30 7666 H 713.79 4.62162 -4.52786 0
M  V30 7667 N 713.922 1.13953 1.08869 0
M  V30 7668 C 715.333 0.916649 1.62648 0
M  V30 7669 C 715.684 -0.545589 1.88462 0
M  V30 7670 O 714.809 -1.41351 1.63856 0
M  V30 7671 C 715.404 1.65751 2.95486 0
M  V30 7672 C 713.963 1.48034 3.46068 0
M  V30 7673 C 713.11 1.68305 2.20383 0
M  V30 7674 H 716.061 1.292 0.921572 0
M  V30 7675 H 716.082 1.11794 3.63707 0
M  V30 7676 H 715.594 2.72171 2.76667 0
M  V30 7677 H 713.695 0.439416 3.7 0
M  V30 7678 H 713.808 2.24719 4.23129 0
M  V30 7679 H 712.172 1.10833 2.29321 0
M  V30 7680 H 712.955 2.76057 2.04077 0
M  V30 7681 N 715.4 -1.26948 0.933913 0
M  V30 7682 C 716.647 -1.94087 0.577625 0
M  V30 7683 C 716.975 -1.73345 -0.88214 0
M  V30 7684 O 716.23 -1.05945 -1.64542 0
M  V30 7685 C 716.529 -3.46963 0.857406 0
M  V30 7686 C 716.195 -3.87834 2.2999 0
M  V30 7687 C 714.857 -3.98704 2.69423 0
M  V30 7688 C 717.209 -4.08442 3.23766 0
M  V30 7689 C 714.537 -4.27573 4.01744 0
M  V30 7690 C 716.889 -4.38798 4.55675 0
M  V30 7691 C 715.553 -4.47881 4.94934 0
M  V30 7692 H 714.823 -0.710215 0.211368 0
M  V30 7693 H 717.47 -1.50899 1.17905 0
M  V30 7694 H 715.775 -3.91416 0.173369 0
M  V30 7695 H 717.472 -3.97062 0.560615 0
M  V30 7696 H 714.062 -3.79916 1.98399 0
M  V30 7697 H 718.246 -3.99479 2.94499 0
M  V30 7698 H 713.502 -4.32815 4.31834 0
M  V30 7699 H 717.676 -4.5369 5.28335 0
M  V30 7700 H 715.303 -4.70005 5.97495 0
M  V30 7701 N 716.879 -0.700114 -1.41195 0
M  V30 7702 C 717.842 -0.0465706 -2.29153 0
M  V30 7703 C 718.842 0.703302 -1.44604 0
M  V30 7704 O 720.032 0.537513 -1.657 0
M  V30 7705 C 717.164 0.944324 -3.2756 0
M  V30 7706 H 718.357 -0.821064 -2.88442 0
M  V30 7707 H 715.91 -0.463869 -1.49258 0
M  V30 7708 H 716.645 1.74642 -2.73259 0
M  V30 7709 H 716.43 0.409701 -3.89954 0
M  V30 7710 H 717.92 1.39925 -3.9346 0
M  V30 7711 N 718.357 1.51182 -0.445186 0
M  V30 7712 C 719.606 2.01342 0.120189 0
M  V30 7713 C 719.919 1.33353 1.43095 0
M  V30 7714 O 721.125 1.74525 2.07974 0
M  V30 7715 C 719.581 3.58925 0.264732 0
M  V30 7716 C 719.189 4.35855 -1.03606 0
M  V30 7717 C 720.933 4.17208 0.783455 0
M  V30 7718 C 718.84 5.85162 -0.856731 0
M  V30 7719 H 717.77 0.752426 0.0486922 0
M  V30 7720 H 720.421 1.74221 -0.576143 0
M  V30 7721 H 718.803 3.82525 1.02425 0
M  V30 7722 H 719.977 4.23997 -1.80452 0
M  V30 7723 H 718.292 3.89062 -1.48391 0
M  V30 7724 H 720.889 5.26475 0.934239 0
M  V30 7725 H 721.232 3.76892 1.768 0
M  V30 7726 H 721.765 3.97715 0.0820346 0
M  V30 7727 H 718.504 6.29904 -1.81388 0
M  V30 7728 H 718.024 5.99663 -0.128206 0
M  V30 7729 H 719.703 6.44963 -0.513027 0
M  V30 7730 N 719.835 0.176821 1.56605 0
M  V30 7731 C 720.745 -0.763682 2.21822 0
M  V30 7732 C 721.761 -1.24889 1.21156 0
M  V30 7733 O 722.937 -1.29987 1.53836 0
M  V30 7734 C 720.002 -1.97352 2.8505 0
M  V30 7735 C 719.063 -1.53466 4.00932 0
M  V30 7736 C 718.296 -2.68682 4.61135 0
M  V30 7737 O 718.519 -3.85694 4.20234 0
M  V30 7738 O 717.453 -2.42442 5.50913 0
M  V30 7739 H 721.279 -0.238363 3.02763 0
M  V30 7740 H 718.864 -0.0516331 1.49311 0
M  V30 7741 H 720.746 -2.68096 3.25119 0
M  V30 7742 H 719.421 -2.48779 2.07101 0
M  V30 7743 H 718.328 -0.796551 3.65521 0
M  V30 7744 H 719.661 -1.06724 4.8049 0
M  V30 7745 N 721.313 -1.57302 -0.09688 0
M  V30 7746 C 722.243 -2.0497 -1.11846 0
M  V30 7747 C 723.224 -0.938278 -1.41882 0
M  V30 7748 O 724.409 -1.20943 -1.51942 0
M  V30 7749 C 721.539 -2.47264 -2.43881 0
M  V30 7750 C 720.493 -3.62053 -2.28257 0
M  V30 7751 C 719.819 -3.90318 -3.65453 0
M  V30 7752 C 721.119 -4.93005 -1.72461 0
M  V30 7753 H 722.813 -2.90567 -0.721888 0
M  V30 7754 H 720.359 -1.39786 -0.345803 0
M  V30 7755 H 722.312 -2.7922 -3.15617 0
M  V30 7756 H 721.036 -1.58664 -2.8547 0
M  V30 7757 H 719.695 -3.30341 -1.58967 0
M  V30 7758 H 719.343 -2.98889 -4.04567 0
M  V30 7759 H 719.043 -4.67597 -3.55846 0
M  V30 7760 H 720.567 -4.24747 -4.3866 0
M  V30 7761 H 721.981 -5.23354 -2.34036 0
M  V30 7762 H 720.378 -5.74436 -1.73618 0
M  V30 7763 H 721.448 -4.80053 -0.683898 0
M  V30 7764 N 722.791 0.367657 -1.53252 0
M  V30 7765 C 724.021 1.12955 -1.72988 0
M  V30 7766 C 724.429 1.8358 -0.457708 0
M  V30 7767 O 723.772 1.74336 0.579006 0
M  V30 7768 C 723.834 2.20545 -2.83902 0
M  V30 7769 C 723.498 1.69704 -4.24323 0
M  V30 7770 C 724.495 1.16223 -5.06743 0
M  V30 7771 C 722.18 1.7528 -4.70725 0
M  V30 7772 C 724.174 0.689935 -6.33655 0
M  V30 7773 C 721.861 1.27662 -5.97617 0
M  V30 7774 C 722.859 0.746083 -6.78913 0
M  V30 7775 O 722.547 0.276925 -8.03423 0
M  V30 7776 H 722.279 0.343753 -0.582074 0
M  V30 7777 H 724.833 0.433106 -2.00782 0
M  V30 7778 H 723.063 2.93676 -2.51577 0
M  V30 7779 H 724.752 2.82111 -2.91836 0
M  V30 7780 H 725.518 1.11256 -4.72067 0
M  V30 7781 H 721.397 2.15515 -4.07522 0
M  V30 7782 H 724.941 0.275164 -6.97057 0
M  V30 7783 H 720.838 1.32322 -6.31792 0
M  V30 7784 H 721.606 0.396445 -8.17539 0
M  V30 7785 N 724.269 1.44576 0.627338 0
M  V30 7786 C 725.546 1.38033 1.38586 0
M  V30 7787 C 725.926 0.0409468 2.1106 0
M  V30 7788 O 725.274 -0.976582 2.0658 0
M  V30 7789 C 725.484 2.58102 2.34913 0
M  V30 7790 C 726.832 3.02332 2.98129 0
M  V30 7791 O 727.856 2.58334 2.45238 0
M  V30 7792 O 726.715 3.78628 3.94085 0
M  V30 7793 H 723.809 0.546801 0.620434 0
M  V30 7794 H 726.355 1.56672 0.652077 0
M  V30 7795 H 725.127 3.4719 1.80485 0
M  V30 7796 H 724.75 2.41696 3.15703 0
M  V30 7797 N 725.747 -0.868086 1.31537 0
M  V30 7798 C 726.695 -1.99688 1.1928 0
M  V30 7799 C 727.689 -1.69101 0.100656 0
M  V30 7800 O 728.895 -1.78073 0.262677 0
M  V30 7801 H 725.27 -0.655032 0.369374 0
M  V30 7802 H 727.241 -2.07157 2.14776 0
M  V30 7803 C 725.99 -3.35338 0.918892 0
M  V30 7804 H 725.313 -3.59396 1.75142 0
M  V30 7805 H 726.753 -4.14909 0.873311 0
M  V30 7806 C 725.212 -3.34769 -0.378366 0
M  V30 7807 O 725.742 -3.76716 -1.39456 0
M  V30 7808 N 723.948 -2.87895 -0.39557 0
M  V30 7809 H 723.495 -2.53954 0.431889 0
M  V30 7810 H 723.453 -2.87897 -1.26344 0
M  V30 7811 N 727.225 -1.14528 -1.08264 0
M  V30 7812 C 728.135 -0.84728 -2.18765 0
M  V30 7813 C 729.151 0.172826 -1.7314 0
M  V30 7814 O 730.327 0.000985336 -2.014 0
M  V30 7815 C 727.392 -0.330633 -3.4512 0
M  V30 7816 C 726.453 -1.41348 -4.05363 0
M  V30 7817 C 725.686 -0.921387 -5.25686 0
M  V30 7818 O 725.909 0.236587 -5.69909 0
M  V30 7819 O 724.843 -1.70101 -5.77364 0
M  V30 7820 H 728.669 -1.7708 -2.46731 0
M  V30 7821 H 726.254 -0.923661 -1.17426 0
M  V30 7822 H 728.136 -0.0485053 -4.21372 0
M  V30 7823 H 726.811 0.565147 -3.18728 0
M  V30 7824 H 725.718 -1.74908 -3.30693 0
M  V30 7825 H 727.051 -2.28383 -4.36007 0
M  V30 7826 N 728.703 1.26451 -0.940633 0
M  V30 7827 C 729.951 1.93395 -0.586748 0
M  V30 7828 C 730.272 1.7417 0.876921 0
M  V30 7829 O 729.542 1.097 1.62304 0
M  V30 7830 H 728.122 0.715687 -0.214012 0
M  V30 7831 H 730.784 1.53902 -1.19584 0
M  V30 7832 H 729.88 3.01565 -0.804059 0
M  V30 7833 N 730.181 0.707592 1.40822 0
M  V30 7834 C 731.128 0.0499029 2.30746 0
M  V30 7835 C 732.098 -0.758718 1.47759 0
M  V30 7836 O 733.283 -0.724299 1.76518 0
M  V30 7837 C 730.423 -0.871756 3.33908 0
M  V30 7838 C 729.536 -0.0534655 4.31967 0
M  V30 7839 C 728.671 -0.973869 5.22197 0
M  V30 7840 C 727.71 -0.149194 6.11918 0
M  V30 7841 N 726.847 -1.02404 6.94592 0
M  V30 7842 H 731.687 0.822461 2.86426 0
M  V30 7843 H 729.224 0.417285 1.41057 0
M  V30 7844 H 731.182 -1.42028 3.9228 0
M  V30 7845 H 729.812 -1.61058 2.7975 0
M  V30 7846 H 728.864 0.612142 3.75442 0
M  V30 7847 H 730.176 0.585354 4.95353 0
M  V30 7848 H 729.33 -1.59121 5.85462 0
M  V30 7849 H 728.069 -1.64652 4.59065 0
M  V30 7850 H 727.074 0.481137 5.47691 0
M  V30 7851 H 728.299 0.519841 6.77107 0
M  V30 7852 H 726.245 -1.6825 6.34057 0
M  V30 7853 H 726.162 -0.441076 7.54712 0
M  V30 7854 H 727.43 -1.62782 7.62314 0
M  V30 7855 N 731.66 -1.50943 0.453197 0
M  V30 7856 C 732.906 -2.02512 -0.108082 0
M  V30 7857 C 733.239 -1.33574 -1.40967 0
M  V30 7858 O 732.514 -0.455671 -1.89087 0
M  V30 7859 C 732.797 -3.58759 -0.310453 0
M  V30 7860 C 732.65 -4.38293 1.0109 0
M  V30 7861 C 733.969 -4.26816 -1.07313 0
M  V30 7862 H 731.088 -0.73603 -0.0378064 0
M  V30 7863 H 733.73 -1.80433 0.595295 0
M  V30 7864 H 731.88 -3.77702 -0.909582 0
M  V30 7865 H 733.552 -4.30964 1.64523 0
M  V30 7866 H 731.795 -4.02745 1.61179 0
M  V30 7867 H 732.466 -5.45828 0.82315 0
M  V30 7868 H 734.942 -4.1224 -0.565473 0
M  V30 7869 H 733.818 -5.35989 -1.1835 0
M  V30 7870 H 734.079 -3.88757 -2.10525 0
M  V30 7871 N 733.138 -0.185124 -1.56509 0
M  V30 7872 C 734.387 0.456421 -1.96468 0
M  V30 7873 C 734.7 1.63448 -1.07444 0
M  V30 7874 O 735.906 2.34316 -1.37143 0
M  V30 7875 C 734.362 0.863404 -3.4939 0
M  V30 7876 C 733.97 -0.289815 -4.47062 0
M  V30 7877 C 735.714 1.47259 -3.98139 0
M  V30 7878 C 733.621 0.137571 -5.9124 0
M  V30 7879 H 732.551 0.17429 -0.733579 0
M  V30 7880 H 735.202 -0.275554 -1.81419 0
M  V30 7881 H 733.584 1.65176 -3.59907 0
M  V30 7882 H 734.758 -1.06728 -4.4827 0
M  V30 7883 H 733.073 -0.809851 -4.08449 0
M  V30 7884 H 735.67 1.80463 -5.03326 0
M  V30 7885 H 736.013 2.3755 -3.41871 0
M  V30 7886 H 736.546 0.748405 -3.90696 0
M  V30 7887 H 733.285 -0.730907 -6.51412 0
M  V30 7888 H 732.805 0.8801 -5.93308 0
M  V30 7889 H 734.484 0.576771 -6.44424 0
M  V30 7890 N 734.616 1.57351 0.0885366 0
M  V30 7891 C 736.027 1.75303 0.642308 0
M  V30 7892 C 736.378 0.808238 1.78779 0
M  V30 7893 O 735.503 -0.01171 2.16397 0
M  V30 7894 C 736.098 3.17885 1.17194 0
M  V30 7895 C 734.657 3.37239 1.67172 0
M  V30 7896 C 733.804 2.7108 0.584045 0
M  V30 7897 H 736.755 1.58103 -0.137567 0
M  V30 7898 H 736.776 3.2112 2.04114 0
M  V30 7899 H 736.288 3.86625 0.338024 0
M  V30 7900 H 734.389 2.73588 2.52943 0
M  V30 7901 H 734.502 4.45594 1.76019 0
M  V30 7902 H 732.866 2.33161 1.02508 0
M  V30 7903 H 733.649 3.42464 -0.239403 0
M  V30 7904 N 736.094 -0.359525 1.53444 0
M  V30 7905 C 737.024 -1.44662 1.8329 0
M  V30 7906 C 738.005 -1.55617 0.68683 0
M  V30 7907 O 739.19 -1.70086 0.93725 0
M  V30 7908 C 736.32 -2.81923 2.02822 0
M  V30 7909 C 735.274 -2.85787 3.18606 0
M  V30 7910 C 734.6 -4.25781 3.23442 0
M  V30 7911 C 735.9 -2.52762 4.57065 0
M  V30 7912 H 737.594 -1.19934 2.74329 0
M  V30 7913 H 735.14 -0.575517 1.31999 0
M  V30 7914 H 737.093 -3.58005 2.22285 0
M  V30 7915 H 735.817 -3.08051 1.085 0
M  V30 7916 H 734.476 -2.12157 2.98973 0
M  V30 7917 H 734.124 -4.48994 2.26745 0
M  V30 7918 H 733.824 -4.29281 4.01238 0
M  V30 7919 H 735.348 -5.03727 3.45096 0
M  V30 7920 H 736.762 -3.18557 4.76649 0
M  V30 7921 H 735.159 -2.67569 5.37147 0
M  V30 7922 H 736.229 -1.47993 4.61764 0
M  V30 7923 N 737.572 -1.44907 -0.619662 0
M  V30 7924 C 738.504 -1.48652 -1.74457 0
M  V30 7925 C 739.517 -0.378596 -1.58337 0
M  V30 7926 O 740.706 -0.644987 -1.6644 0
M  V30 7927 C 737.806 -1.31568 -3.12319 0
M  V30 7928 C 736.979 -2.55816 -3.54792 0
M  V30 7929 C 736.038 -2.33465 -4.71573 0
M  V30 7930 O 735.064 -3.07015 -4.79302 0
M  V30 7931 N 736.266 -1.37254 -5.6404 0
M  V30 7932 H 739.031 -2.45632 -1.71712 0
M  V30 7933 H 736.592 -1.40492 -0.804582 0
M  V30 7934 H 738.584 -1.14445 -3.88181 0
M  V30 7935 H 737.154 -0.429095 -3.09641 0
M  V30 7936 H 736.374 -2.88137 -2.69018 0
M  V30 7937 H 737.662 -3.38431 -3.79924 0
M  V30 7938 H 737.06 -0.765309 -5.60499 0
M  V30 7939 H 735.617 -1.26106 -6.39485 0
M  V30 7940 N 739.05 0.861098 -1.31996 0
M  V30 7941 C 739.997 1.96912 -1.20392 0
M  V30 7942 C 740.967 1.65869 -0.0875899 0
M  V30 7943 O 742.152 1.88992 -0.262011 0
M  V30 7944 C 739.292 3.32435 -0.926335 0
M  V30 7945 C 738.405 3.76018 -2.12684 0
M  V30 7946 C 737.54 5.00301 -1.78529 0
M  V30 7947 C 736.579 5.36357 -2.94937 0
M  V30 7948 N 735.716 6.51818 -2.60917 0
M  V30 7949 H 740.556 2.06169 -2.1517 0
M  V30 7950 H 738.093 1.00917 -1.07024 0
M  V30 7951 H 740.051 4.10478 -0.745917 0
M  V30 7952 H 738.681 3.22796 -0.0153578 0
M  V30 7953 H 737.733 2.93683 -2.41774 0
M  V30 7954 H 739.045 3.98664 -2.99781 0
M  V30 7955 H 738.199 5.86034 -1.57001 0
M  V30 7956 H 736.938 4.79578 -0.886356 0
M  V30 7957 H 735.943 4.49139 -3.17103 0
M  V30 7958 H 737.168 5.59041 -3.85552 0
M  V30 7959 H 735.114 6.32624 -1.73558 0
M  V30 7960 H 735.031 6.7445 -3.41544 0
M  V30 7961 H 736.299 7.4072 -2.42804 0
M  V30 7962 N 740.528 1.15101 1.07655 0
M  V30 7963 C 741.776 0.922149 1.79836 0
M  V30 7964 C 742.097 -0.552346 1.87014 0
M  V30 7965 O 741.367 -1.40145 1.3688 0
M  V30 7966 H 739.947 0.338182 0.666064 0
M  V30 7967 H 742.609 1.45107 1.30115 0
M  V30 7968 H 741.705 1.32883 2.82398 0
M  V30 7969 N 742.006 -1.2595 0.947325 0
M  V30 7970 C 743.254 -1.93081 0.596996 0
M  V30 7971 C 743.575 -1.74632 -0.867672 0
M  V30 7972 O 742.845 -1.1056 -1.6172 0
M  V30 7973 H 741.425 -0.714542 0.217805 0
M  V30 7974 H 744.087 -1.53265 1.20398 0
M  V30 7975 H 743.183 -3.01134 0.82004 0
M  V30 7976 N 743.484 -0.715051 -1.40445 0
M  V30 7977 C 744.434 -0.038591 -2.27967 0
M  V30 7978 C 745.418 0.733099 -1.43229 0
M  V30 7979 O 746.61 0.605388 -1.66325 0
M  V30 7980 C 743.739 0.882801 -3.31755 0
M  V30 7981 C 742.825 0.106325 -4.23967 0
M  V30 7982 N 743.216 -0.910143 -4.97544 0
M  V30 7983 C 741.514 0.33896 -4.4471 0
M  V30 7984 C 742.215 -1.37665 -5.65175 0
M  V30 7985 N 741.191 -0.698905 -5.39088 0
M  V30 7986 H 744.993 -0.81765 -2.82297 0
M  V30 7987 H 742.507 -0.547591 -1.5289 0
M  V30 7988 H 744.504 1.38273 -3.93302 0
M  V30 7989 H 743.164 1.66124 -2.78985 0
M  V30 7990 H 744.175 -1.29097 -5.01552 0
M  V30 7991 H 740.852 1.09377 -4.02918 0
M  V30 7992 H 742.242 -2.22122 -6.34123 0
M  V30 7993 N 744.962 1.50701 -0.461195 0
M  V30 7994 C 746.373 1.867 -0.00370227 0
M  V30 7995 C 746.724 1.37673 1.39787 0
M  V30 7996 O 745.849 0.737515 2.03445 0
M  V30 7997 C 746.444 3.388 5.75786e-05 0
M  V30 7998 C 745.003 3.74247 0.402044 0
M  V30 7999 C 744.15 2.74549 -0.389652 0
M  V30 8000 H 747.101 1.43585 -0.675942 0
M  V30 8001 H 747.122 3.719 0.804414 0
M  V30 8002 H 746.634 3.74452 -1.02015 0
M  V30 8003 H 744.735 3.44192 1.42697 0
M  V30 8004 H 744.848 4.78973 0.110265 0
M  V30 8005 H 743.212 2.54226 0.155314 0
M  V30 8006 H 743.995 3.13044 -1.40919 0
M  V30 8007 N 746.441 0.193421 1.56409 0
M  V30 8008 C 747.687 -0.446449 1.97825 0
M  V30 8009 C 748.02 -1.61386 1.08019 0
M  V30 8010 O 747.295 -1.94053 0.131839 0
M  V30 8011 C 747.578 -0.908199 3.48459 0
M  V30 8012 C 747.431 0.260914 4.49043 0
M  V30 8013 C 748.75 -1.77428 4.0275 0
M  V30 8014 H 745.869 -0.160807 0.719243 0
M  V30 8015 H 748.511 0.284006 1.87865 0
M  V30 8016 H 746.661 -1.53062 3.57077 0
M  V30 8017 H 748.333 0.898548 4.52464 0
M  V30 8018 H 746.576 0.912949 4.24085 0
M  V30 8019 H 747.247 -0.104657 5.51901 0
M  V30 8020 H 749.723 -1.24936 3.96901 0
M  V30 8021 H 748.599 -2.06633 5.08521 0
M  V30 8022 H 748.86 -2.72788 3.47907 0
M  V30 8023 N 747.919 -1.57396 -0.0801906 0
M  V30 8024 C 748.867 -2.04136 -1.11495 0
M  V30 8025 C 749.861 -0.945137 -1.40583 0
M  V30 8026 O 751.067 -1.13028 -1.40088 0
M  V30 8027 H 747.442 -0.65076 -0.37685 0
M  V30 8028 H 749.413 -2.90205 -0.694526 0
M  V30 8029 C 748.162 -2.49399 -2.42272 0
M  V30 8030 H 747.485 -3.33339 -2.20737 0
M  V30 8031 H 748.925 -2.85864 -3.13142 0
M  V30 8032 C 747.384 -1.37341 -3.07635 0
M  V30 8033 O 747.914 -0.710829 -3.95361 0
M  V30 8034 N 746.12 -1.12064 -2.68123 0
M  V30 8035 H 745.667 -1.66126 -1.96875 0
M  V30 8036 H 745.625 -0.372916 -3.12181 0
M  V30 8037 N 749.397 0.351382 -1.53633 0
M  V30 8038 C 750.622 1.11718 -1.74739 0
M  V30 8039 C 751.047 1.81829 -0.481657 0
M  V30 8040 O 750.405 1.72264 0.565233 0
M  V30 8041 C 750.453 2.11234 -2.92254 0
M  V30 8042 O 749.557 3.186 -2.61855 0
M  V30 8043 H 748.898 0.323482 -0.579875 0
M  V30 8044 H 751.428 0.404167 -2.00568 0
M  V30 8045 H 751.438 2.54591 -3.18822 0
M  V30 8046 H 750.113 1.59599 -3.84058 0
M  V30 8047 H 748.69 2.80115 -2.4615 0
M  V30 8048 N 750.875 1.45233 0.611969 0
M  V30 8049 C 752.121 1.49242 1.37312 0
M  V30 8050 C 752.454 0.131963 1.93751 0
M  V30 8051 O 751.729 -0.852999 1.74798 0
M  V30 8052 C 752.012 2.56811 2.52428 0
M  V30 8053 C 751.865 4.02284 2.01215 0
M  V30 8054 C 753.184 2.60705 3.54572 0
M  V30 8055 H 750.303 0.54336 0.497925 0
M  V30 8056 H 752.945 1.77019 0.690242 0
M  V30 8057 H 751.095 2.33256 3.10683 0
M  V30 8058 H 752.767 4.37035 1.47643 0
M  V30 8059 H 751.01 4.1315 1.32248 0
M  V30 8060 H 751.681 4.7323 2.84178 0
M  V30 8061 H 754.157 2.81799 3.06151 0
M  V30 8062 H 753.033 3.37841 4.32614 0
M  V30 8063 H 753.294 1.65627 4.09903 0
M  V30 8064 N 752.353 -0.854086 1.3245 0
M  V30 8065 C 753.283 -1.97827 1.24044 0
M  V30 8066 C 754.264 -1.69646 0.124166 0
M  V30 8067 O 755.449 -1.91687 0.31143 0
M  V30 8068 C 752.579 -3.33673 0.963324 0
M  V30 8069 C 751.533 -3.76207 2.04089 0
M  V30 8070 C 750.859 -5.0969 1.61618 0
M  V30 8071 C 752.159 -3.91612 3.45597 0
M  V30 8072 H 753.853 -2.05118 2.18099 0
M  V30 8073 H 751.399 -0.985489 1.04996 0
M  V30 8074 H 753.352 -4.11871 0.891061 0
M  V30 8075 H 752.076 -3.26597 -0.0128649 0
M  V30 8076 H 750.735 -3.0026 2.10332 0
M  V30 8077 H 750.383 -4.99072 0.627418 0
M  V30 8078 H 750.083 -5.3912 2.33717 0
M  V30 8079 H 751.607 -5.90381 1.55829 0
M  V30 8080 H 753.021 -4.60163 3.4194 0
M  V30 8081 H 751.418 -4.3246 4.16051 0
M  V30 8082 H 752.488 -2.9451 3.85217 0
M  V30 8083 N 753.831 -1.1567 -1.07043 0
M  V30 8084 C 754.779 -0.852204 -2.16426 0
M  V30 8085 C 755.773 0.175661 -1.68487 0
M  V30 8086 O 756.979 0.0303874 -1.79974 0
M  V30 8087 H 753.354 -0.257942 -0.706378 0
M  V30 8088 H 755.325 -1.78231 -2.39324 0
M  V30 8089 C 754.074 -0.361362 -3.45817 0
M  V30 8090 H 753.397 -1.14369 -3.83092 0
M  V30 8091 H 754.837 -0.186997 -4.23587 0
M  V30 8092 C 753.296 0.917703 -3.2416 0
M  V30 8093 O 753.826 1.98858 -3.49025 0
M  V30 8094 N 752.032 0.858456 -2.77631 0
M  V30 8095 H 751.579 -0.0131821 -2.57597 0
M  V30 8096 H 751.537 1.71478 -2.6352 0
M  V30 8097 N 755.309 1.25446 -0.953992 0
M  V30 8098 C 756.555 1.9343 -0.60933 0
M  V30 8099 C 756.888 1.74542 0.851388 0
M  V30 8100 O 756.163 1.09014 1.61078 0
M  V30 8101 C 756.446 3.46844 -0.968041 0
M  V30 8102 C 756.299 3.74961 -2.48444 0
M  V30 8103 C 757.618 4.37334 -0.492641 0
M  V30 8104 H 754.737 0.702502 -0.222844 0
M  V30 8105 H 757.379 1.48076 -1.19053 0
M  V30 8106 H 755.529 3.85604 -0.473465 0
M  V30 8107 H 757.201 3.45841 -3.05273 0
M  V30 8108 H 755.444 3.20589 -2.92241 0
M  V30 8109 H 756.115 4.82246 -2.68594 0
M  V30 8110 H 758.591 4.05873 -0.916878 0
M  V30 8111 H 757.467 5.43439 -0.772331 0
M  V30 8112 H 757.728 4.37908 0.607403 0
M  V30 8113 N 756.787 0.722489 1.40064 0
M  V30 8114 C 758.015 0.274838 2.05066 0
M  V30 8115 C 758.43 -1.08586 1.54449 0
M  V30 8116 O 757.787 -1.68375 0.704003 0
M  V30 8117 C 757.838 0.253673 3.60609 0
M  V30 8118 O 757.559 1.56064 4.0936 0
M  V30 8119 C 759.06 -0.211684 4.42794 0
M  V30 8120 H 756.28 0.12226 0.659768 0
M  V30 8121 H 758.824 0.982632 1.79345 0
M  V30 8122 H 756.979 -0.405137 3.85276 0
M  V30 8123 H 757.393 1.46576 5.03603 0
M  V30 8124 H 758.867 -0.175341 5.51721 0
M  V30 8125 H 759.344 -1.25493 4.2089 0
M  V30 8126 H 759.95 0.4171 4.2325 0
M  V30 8127 N 758.265 -1.50454 0.469181 0
M  V30 8128 C 759.197 -2.26319 -0.362247 0
M  V30 8129 C 760.21 -1.31574 -0.958751 0
M  V30 8130 O 761.399 -1.57099 -0.847482 0
M  V30 8131 C 758.499 -3.02808 -1.52187 0
M  V30 8132 C 757.672 -4.24893 -1.03849 0
M  V30 8133 C 756.731 -4.83691 -2.07194 0
M  V30 8134 O 755.757 -5.44659 -1.65333 0
M  V30 8135 N 756.959 -4.70522 -3.39985 0
M  V30 8136 H 759.724 -2.98312 0.288124 0
M  V30 8137 H 757.285 -1.59099 0.299856 0
M  V30 8138 H 759.277 -3.39023 -2.21011 0
M  V30 8139 H 757.847 -2.33625 -2.07697 0
M  V30 8140 H 757.067 -3.93806 -0.176203 0
M  V30 8141 H 758.355 -5.04053 -0.693435 0
M  V30 8142 H 757.753 -4.2203 -3.76706 0
M  V30 8143 H 756.31 -5.11011 -4.04612 0
M  V30 8144 N 759.743 -0.201713 -1.56304 0
M  V30 8145 C 760.706 0.702811 -2.18159 0
M  V30 8146 C 761.706 1.13619 -1.13787 0
M  V30 8147 O 762.896 1.0482 -1.39134 0
M  V30 8148 C 760.028 1.96032 -2.78898 0
M  V30 8149 H 761.221 0.163836 -2.99452 0
M  V30 8150 H 758.774 0.04791 -1.56227 0
M  V30 8151 H 759.509 2.54165 -2.01421 0
M  V30 8152 H 759.294 1.65824 -3.55309 0
M  V30 8153 H 760.784 2.60519 -3.26373 0
M  V30 8154 N 761.222 1.57436 0.0718424 0
M  V30 8155 C 762.132 2.07039 1.10326 0
M  V30 8156 C 763.148 0.999918 1.424 0
M  V30 8157 O 764.324 1.31462 1.52577 0
M  V30 8158 C 761.389 2.50439 2.39752 0
M  V30 8159 C 760.45 3.71784 2.14651 0
M  V30 8160 C 759.683 4.13104 3.37906 0
M  V30 8161 O 759.906 3.54298 4.47023 0
M  V30 8162 O 758.84 5.05894 3.26121 0
M  V30 8163 H 762.666 2.95239 0.711872 0
M  V30 8164 H 760.251 1.46638 0.28597 0
M  V30 8165 H 762.133 2.78876 3.15921 0
M  V30 8166 H 760.808 1.65368 2.78271 0
M  V30 8167 H 759.715 3.48431 1.36187 0
M  V30 8168 H 761.048 4.57707 1.81012 0
M  V30 8169 N 762.7 -0.34323 1.53817 0
M  V30 8170 C 763.632 -1.44216 1.78141 0
M  V30 8171 C 764.645 -1.48701 0.662721 0
M  V30 8172 O 765.834 -1.51778 0.939458 0
M  V30 8173 C 762.934 -2.82872 1.86646 0
M  V30 8174 C 762.107 -3.01824 3.16577 0
M  V30 8175 C 761.166 -4.20723 3.16036 0
M  V30 8176 O 760.192 -4.14824 3.89756 0
M  V30 8177 N 761.394 -5.29276 2.38427 0
M  V30 8178 H 764.159 -1.23721 2.72971 0
M  V30 8179 H 761.72 -0.53311 1.52871 0
M  V30 8180 H 763.712 -3.60588 1.83735 0
M  V30 8181 H 762.282 -2.96509 0.990014 0
M  V30 8182 H 761.502 -2.11575 3.3261 0
M  V30 8183 H 762.79 -3.11369 4.02402 0
M  V30 8184 H 762.188 -5.36938 1.78085 0
M  V30 8185 H 760.745 -6.05484 2.41313 0
M  V30 8186 N 764.178 -1.45556 -0.604258 0
M  V30 8187 C 765.406 -1.53278 -1.38973 0
M  V30 8188 C 765.821 -0.166509 -1.88064 0
M  V30 8189 O 765.178 0.832519 -1.62405 0
M  V30 8190 C 765.229 -2.51992 -2.59195 0
M  V30 8191 O 764.95 -3.8331 -2.12143 0
M  V30 8192 C 766.451 -2.69445 -3.52015 0
M  V30 8193 H 763.671 -0.519003 -0.425297 0
M  V30 8194 H 766.215 -1.90773 -0.736621 0
M  V30 8195 H 764.37 -2.17561 -3.2054 0
M  V30 8196 H 764.784 -4.3685 -2.90279 0
M  V30 8197 H 766.258 -3.42485 -4.32907 0
M  V30 8198 H 766.735 -1.75596 -4.0257 0
M  V30 8199 H 767.341 -3.04886 -2.9652 0
M  V30 8200 N 765.656 0.84705 -1.32902 0
M  V30 8201 C 766.903 1.60176 -1.23894 0
M  V30 8202 C 767.231 1.93496 0.197341 0
M  V30 8203 O 766.486 1.58173 1.15238 0
M  V30 8204 C 766.785 2.92663 -2.05142 0
M  V30 8205 C 766.451 2.7874 -3.54422 0
M  V30 8206 C 765.113 2.7465 -3.95121 0
M  V30 8207 C 767.465 2.64128 -4.49317 0
M  V30 8208 C 764.793 2.53837 -5.28946 0
M  V30 8209 C 767.145 2.44849 -5.83294 0
M  V30 8210 C 765.809 2.39156 -6.23186 0
M  V30 8211 H 765.079 0.586127 -0.453361 0
M  V30 8212 H 767.726 0.981994 -1.64405 0
M  V30 8213 H 766.031 3.588 -1.57383 0
M  V30 8214 H 767.728 3.50095 -1.95537 0
M  V30 8215 H 764.318 2.82751 -3.22102 0
M  V30 8216 H 768.502 2.66327 -4.18788 0
M  V30 8217 H 763.758 2.4787 -5.58901 0
M  V30 8218 H 767.932 2.32524 -6.56434 0
M  V30 8219 H 765.559 2.22789 -7.26821 0
M  V30 8220 N 767.134 1.16236 1.06428 0
M  V30 8221 C 768.38 0.944431 1.79467 0
M  V30 8222 C 768.713 -0.526558 1.86925 0
M  V30 8223 O 767.988 -1.39061 1.35986 0
M  V30 8224 C 768.271 1.57092 3.24028 0
M  V30 8225 C 768.124 3.11315 3.24658 0
M  V30 8226 C 769.443 1.26447 4.21544 0
M  V30 8227 H 766.562 0.344521 0.651517 0
M  V30 8228 H 769.204 1.43545 1.24478 0
M  V30 8229 H 767.354 1.15337 3.70985 0
M  V30 8230 H 769.026 3.62042 2.85873 0
M  V30 8231 H 767.269 3.44716 2.6335 0
M  V30 8232 H 767.94 3.50269 4.26633 0
M  V30 8233 H 770.416 1.62581 3.83023 0
M  V30 8234 H 769.292 1.72885 5.20963 0
M  V30 8235 H 769.553 0.183068 4.41721 0
M  V30 8236 N 768.612 -1.24939 0.960631 0
M  V30 8237 C 769.859 -1.92818 0.618663 0
M  V30 8238 C 770.187 -1.75177 -0.845173 0
M  V30 8239 O 769.442 -1.09412 -1.62258 0
M  V30 8240 C 769.741 -3.45066 0.930809 0
M  V30 8241 C 769.407 -3.82869 2.38164 0
M  V30 8242 C 768.069 -3.92899 2.7782 0
M  V30 8243 C 770.421 -4.01483 3.32356 0
M  V30 8244 C 767.749 -4.18955 4.10723 0
M  V30 8245 C 770.101 -4.29033 4.6488 0
M  V30 8246 C 768.765 -4.37282 5.04322 0
M  V30 8247 H 768.035 -0.705571 0.226385 0
M  V30 8248 H 770.682 -1.48365 1.21079 0
M  V30 8249 H 768.987 -3.9096 0.256355 0
M  V30 8250 H 770.684 -3.95783 0.644712 0
M  V30 8251 H 767.274 -3.75622 2.06413 0
M  V30 8252 H 771.458 -3.93143 3.02907 0
M  V30 8253 H 766.714 -4.23558 4.40918 0
M  V30 8254 H 770.888 -4.42381 5.3784 0
M  V30 8255 H 768.515 -4.57225 6.0733 0
M  V30 8256 N 770.09 -0.729906 -1.39679 0
M  V30 8257 C 771.367 -0.202149 -1.94553 0
M  V30 8258 C 771.747 1.29507 -1.66707 0
M  V30 8259 O 771.095 2.05819 -0.992517 0
M  V30 8260 C 771.305 -0.530279 -3.44948 0
M  V30 8261 C 772.653 -0.476808 -4.21914 0
M  V30 8262 O 773.677 -0.467171 -3.53123 0
M  V30 8263 O 772.536 -0.466869 -5.44502 0
M  V30 8264 H 769.63 -0.0351644 -0.826252 0
M  V30 8265 H 772.176 -0.808417 -1.49207 0
M  V30 8266 H 770.948 -1.56526 -3.5863 0
M  V30 8267 H 770.571 0.10522 -3.97461 0
M  V30 8268 N 771.568 1.50203 -0.477153 0
M  V30 8269 C 772.516 2.30278 0.327826 0
M  V30 8270 C 773.51 1.37831 0.984839 0
M  V30 8271 O 774.716 1.54994 0.915251 0
M  V30 8272 H 771.091 0.741612 0.124564 0
M  V30 8273 H 773.062 2.96124 -0.367853 0
M  V30 8274 C 771.811 3.18548 1.39365 0
M  V30 8275 H 771.134 3.89596 0.897475 0
M  V30 8276 H 772.574 3.77561 1.92934 0
M  V30 8277 C 771.033 2.36548 2.39889 0
M  V30 8278 O 771.563 2.05282 3.45286 0
M  V30 8279 N 769.769 1.99015 2.11758 0
M  V30 8280 H 769.316 2.24641 1.26071 0
M  V30 8281 H 769.274 1.44454 2.7925 0
M  V30 8282 N 773.046 0.209999 1.56195 0
M  V30 8283 C 774.292 -0.425442 1.98287 0
M  V30 8284 C 774.625 -1.60232 1.09724 0
M  V30 8285 O 773.9 -1.93902 0.152414 0
M  V30 8286 C 774.183 -0.871189 3.49403 0
M  V30 8287 C 774.036 0.308527 4.48741 0
M  V30 8288 C 775.355 -1.73146 4.04609 0
M  V30 8289 H 772.474 -0.153169 0.720908 0
M  V30 8290 H 775.116 0.303916 1.87554 0
M  V30 8291 H 773.266 -1.49266 3.58681 0
M  V30 8292 H 774.938 0.946487 4.51486 0
M  V30 8293 H 773.181 0.957878 4.23092 0
M  V30 8294 H 773.852 -0.0461143 5.51981 0
M  V30 8295 H 776.328 -1.2072 3.98203 0
M  V30 8296 H 775.204 -2.01228 5.10684 0
M  V30 8297 H 775.465 -2.69083 3.5078 0
M  V30 8298 N 774.524 -1.57472 -0.0634922 0
M  V30 8299 C 775.754 -1.91608 -0.772645 0
M  V30 8300 C 776.162 -0.805019 -1.71219 0
M  V30 8301 O 775.505 0.229941 -1.82255 0
M  V30 8302 C 775.567 -3.21281 -1.61304 0
M  V30 8303 C 775.231 -4.49177 -0.841973 0
M  V30 8304 C 776.228 -5.19661 -0.157494 0
M  V30 8305 C 773.913 -4.9578 -0.80669 0
M  V30 8306 C 775.907 -6.35006 0.551948 0
M  V30 8307 C 773.594 -6.11028 -0.0934812 0
M  V30 8308 C 774.592 -6.80493 0.58463 0
M  V30 8309 O 774.28 -7.93542 1.28633 0
M  V30 8310 H 774.012 -0.637685 -0.224352 0
M  V30 8311 H 776.566 -2.05369 -0.0355279 0
M  V30 8312 H 774.796 -3.03752 -2.39315 0
M  V30 8313 H 776.485 -3.41003 -2.20162 0
M  V30 8314 H 777.251 -4.84681 -0.176006 0
M  V30 8315 H 773.13 -4.41579 -1.32397 0
M  V30 8316 H 776.674 -6.89161 1.0818 0
M  V30 8317 H 772.571 -6.45459 -0.0729258 0
M  V30 8318 H 773.339 -8.09708 1.19646 0
M  V30 8319 N 776.003 0.335068 -1.53997 0
M  V30 8320 C 777.25 1.07435 -1.71651 0
M  V30 8321 C 777.578 1.88378 -0.48413 0
M  V30 8322 O 776.833 1.8827 0.534139 0
M  V30 8323 C 777.132 2.0364 -2.9371 0
M  V30 8324 C 776.798 1.38942 -4.28959 0
M  V30 8325 C 775.46 1.21027 -4.65732 0
M  V30 8326 C 777.812 0.924083 -5.12943 0
M  V30 8327 C 775.14 0.552097 -5.84097 0
M  V30 8328 C 777.492 0.27978 -6.31981 0
M  V30 8329 C 776.156 0.0883843 -6.67441 0
M  V30 8330 H 775.426 0.393133 -0.628114 0
M  V30 8331 H 778.073 0.352712 -1.88224 0
M  V30 8332 H 776.378 2.82215 -2.71775 0
M  V30 8333 H 778.075 2.6085 -3.04562 0
M  V30 8334 H 774.665 1.53885 -4.00022 0
M  V30 8335 H 778.849 1.05032 -4.85059 0
M  V30 8336 H 774.105 0.392502 -6.10139 0
M  V30 8337 H 778.279 -0.0888479 -6.96343 0
M  V30 8338 H 775.906 -0.423657 -7.59019 0
M  V30 8339 N 777.481 1.45874 0.596531 0
M  V30 8340 C 778.413 1.51408 1.7207 0
M  V30 8341 C 779.426 0.403738 1.57714 0
M  V30 8342 O 780.615 0.671384 1.65393 0
M  V30 8343 C 777.715 1.3652 3.10186 0
M  V30 8344 C 776.888 2.61428 3.50677 0
M  V30 8345 C 775.947 2.40937 4.67799 0
M  V30 8346 O 774.973 3.14602 4.74357 0
M  V30 8347 N 776.175 1.4621 5.61785 0
M  V30 8348 H 778.94 2.48333 1.67782 0
M  V30 8349 H 776.501 1.41755 0.782129 0
M  V30 8350 H 778.493 1.20606 3.86311 0
M  V30 8351 H 777.063 0.478302 3.08919 0
M  V30 8352 H 776.283 2.92381 2.644 0
M  V30 8353 H 777.571 3.44432 3.74491 0
M  V30 8354 H 776.969 0.854382 5.59211 0
M  V30 8355 H 775.526 1.36264 6.37397 0
M  V30 8356 N 778.959 -0.83999 1.33349 0
M  V30 8357 C 780.37 -1.41139 1.22216 0
M  V30 8358 C 780.721 -1.95551 -0.159398 0
M  V30 8359 O 779.846 -1.88721 -1.05893 0
M  V30 8360 C 780.441 -2.56564 2.21269 0
M  V30 8361 C 779 -3.09661 2.13979 0
M  V30 8362 C 778.147 -1.82457 2.08818 0
M  V30 8363 H 781.098 -0.645853 1.44964 0
M  V30 8364 H 781.119 -3.34163 1.81976 0
M  V30 8365 H 780.631 -2.16932 3.21811 0
M  V30 8366 H 778.732 -3.53841 1.16736 0
M  V30 8367 H 778.845 -3.6991 3.04472 0
M  V30 8368 H 777.209 -2.0266 1.54276 0
M  V30 8369 H 777.992 -1.45022 3.11165 0
M  V30 8370 N 780.437 -1.16799 -1.0581 0
M  V30 8371 C 781.683 -0.953935 -1.78963 0
M  V30 8372 C 782.016 0.516638 -1.87202 0
M  V30 8373 O 781.291 1.38338 -1.36721 0
M  V30 8374 C 781.574 -1.58808 -3.23191 0
M  V30 8375 C 781.427 -3.13032 -3.23003 0
M  V30 8376 C 782.746 -1.2868 -4.20867 0
M  V30 8377 H 779.865 -0.347972 -0.64968 0
M  V30 8378 H 782.507 -1.44204 -1.23715 0
M  V30 8379 H 780.657 -1.17303 -3.70368 0
M  V30 8380 H 782.329 -3.63553 -2.83949 0
M  V30 8381 H 780.572 -3.46108 -2.61518 0
M  V30 8382 H 781.243 -3.52527 -4.24769 0
M  V30 8383 H 783.719 -1.6461 -3.82155 0
M  V30 8384 H 782.595 -1.75645 -5.20038 0
M  V30 8385 H 782.856 -0.206491 -4.41618 0
M  V30 8386 N 781.915 1.24427 -0.967243 0
M  V30 8387 C 783.326 1.74349 -0.667785 0
M  V30 8388 C 783.677 1.78403 0.816509 0
M  V30 8389 O 782.802 1.41315 1.63887 0
M  V30 8390 C 783.397 3.16628 -1.20548 0
M  V30 8391 C 781.956 3.64059 -0.955934 0
M  V30 8392 C 781.103 2.42715 -1.34106 0
M  V30 8393 H 784.054 1.10136 -1.14262 0
M  V30 8394 H 784.075 3.76183 -0.571547 0
M  V30 8395 H 783.587 3.13646 -2.28578 0
M  V30 8396 H 781.688 3.72441 0.108858 0
M  V30 8397 H 781.801 4.51549 -1.60126 0
M  V30 8398 H 780.165 2.43114 -0.759452 0
M  V30 8399 H 780.948 2.42414 -2.43085 0
M  V30 8400 N 783.393 0.737304 1.3929 0
M  V30 8401 C 784.356 0.10731 2.28949 0
M  V30 8402 C 785.356 -0.664716 1.46418 0
M  V30 8403 O 786.546 -0.493392 1.67067 0
M  V30 8404 C 783.678 -0.857145 3.29948 0
M  V30 8405 H 784.871 0.89725 2.86163 0
M  V30 8406 H 782.424 0.503279 1.47976 0
M  V30 8407 H 783.159 -1.67336 2.77794 0
M  V30 8408 H 782.944 -0.306167 3.90903 0
M  V30 8409 H 784.434 -1.29444 3.97031 0
M  V30 8410 N 784.871 -1.49948 0.485112 0
M  V30 8411 C 785.801 -2.31675 -0.291364 0
M  V30 8412 C 786.782 -1.39216 -0.977383 0
M  V30 8413 O 787.967 -1.68133 -0.971855 0
M  V30 8414 C 785.097 -3.19326 -1.36558 0
M  V30 8415 C 784.051 -4.2045 -0.800359 0
M  V30 8416 C 783.377 -4.96931 -1.97391 0
M  V30 8417 C 784.677 -5.21925 0.197867 0
M  V30 8418 H 786.371 -2.96839 0.390775 0
M  V30 8419 H 783.917 -1.42749 0.189375 0
M  V30 8420 H 785.87 -3.75304 -1.91638 0
M  V30 8421 H 784.594 -2.52074 -2.07668 0
M  V30 8422 H 783.253 -3.65594 -0.271428 0
M  V30 8423 H 782.901 -4.26141 -2.67232 0
M  V30 8424 H 782.601 -5.65344 -1.60187 0
M  V30 8425 H 784.125 -5.55749 -2.52935 0
M  V30 8426 H 785.539 -5.72691 -0.264239 0
M  V30 8427 H 783.936 -5.98138 0.484908 0
M  V30 8428 H 785.006 -4.71809 1.11912 0
M  V30 8429 N 786.349 -0.21828 -1.56081 0
M  V30 8430 C 787.279 0.687922 -2.23136 0
M  V30 8431 C 788.26 1.20357 -1.202 0
M  V30 8432 O 789.445 1.24817 -1.48776 0
M  V30 8433 C 786.575 1.89762 -2.90874 0
M  V30 8434 C 785.529 1.51595 -4.00254 0
M  V30 8435 C 784.855 2.80415 -4.55271 0
M  V30 8436 C 786.155 0.708404 -5.17474 0
M  V30 8437 H 787.849 0.128854 -2.99123 0
M  V30 8438 H 785.395 0.0605354 -1.43873 0
M  V30 8439 H 787.348 2.53699 -3.36474 0
M  V30 8440 H 786.072 2.4816 -2.1233 0
M  V30 8441 H 784.731 0.900058 -3.55379 0
M  V30 8442 H 784.379 3.36951 -3.73461 0
M  V30 8443 H 784.079 2.55613 -5.2909 0
M  V30 8444 H 785.603 3.453 -5.03587 0
M  V30 8445 H 787.017 1.2514 -5.59476 0
M  V30 8446 H 785.414 0.557593 -5.97504 0
M  V30 8447 H 786.484 -0.285679 -4.84058 0
M  V30 8448 N 787.827 1.57504 0.0551401 0
M  V30 8449 C 789.067 1.89895 0.756252 0
M  V30 8450 C 789.431 0.813983 1.73892 0
M  V30 8451 O 790.632 1.02145 2.48636 0
M  V30 8452 C 788.903 3.27494 1.43116 0
M  V30 8453 S 790.462 3.81669 2.16504 0
M  V30 8454 H 787.28 0.665173 0.251129 0
M  V30 8455 H 789.882 1.95496 0.0117193 0
M  V30 8456 H 788.586 4.04345 0.702391 0
M  V30 8457 H 788.117 3.25132 2.21479 0
M  V30 8458 H 790.132 3.58295 3.43277 0
M  V30 8459 N 789.305 -0.326896 1.54172 0
M  V30 8460 C 790.215 -1.42525 1.86343 0
M  V30 8461 C 791.231 -1.56764 0.75505 0
M  V30 8462 O 792.407 -1.71924 1.04901 0
M  V30 8463 C 789.472 -2.77286 2.08119 0
M  V30 8464 C 788.533 -2.7225 3.31931 0
M  V30 8465 C 787.766 -4.00584 3.52659 0
M  V30 8466 O 787.989 -4.98686 2.76891 0
M  V30 8467 O 786.923 -4.04045 4.46129 0
M  V30 8468 H 790.749 -1.18249 2.79734 0
M  V30 8469 H 788.334 -0.520614 1.40036 0
M  V30 8470 H 790.216 -3.57065 2.23791 0
M  V30 8471 H 788.891 -3.01459 1.17917 0
M  V30 8472 H 787.798 -1.91033 3.21647 0
M  V30 8473 H 789.131 -2.53032 4.2218 0
M  V30 8474 N 790.784 -1.46188 -0.588786 0
M  V30 8475 C 792.031 -1.51184 -1.34721 0
M  V30 8476 C 792.359 -0.161084 -1.93832 0
M  V30 8477 O 791.614 0.842557 -1.76634 0
M  V30 8478 C 791.913 -2.55364 -2.50048 0
M  V30 8479 C 791.579 -3.99553 -2.08969 0
M  V30 8480 C 790.241 -4.38811 -1.9748 0
M  V30 8481 C 792.593 -4.90156 -1.77191 0
M  V30 8482 C 789.921 -5.66544 -1.52463 0
M  V30 8483 C 792.273 -6.1832 -1.33654 0
M  V30 8484 C 790.937 -6.5649 -1.20738 0
M  V30 8485 H 790.207 -0.55322 -0.49298 0
M  V30 8486 H 792.854 -1.79634 -0.663627 0
M  V30 8487 H 791.159 -2.20552 -3.23827 0
M  V30 8488 H 792.856 -2.5646 -3.08268 0
M  V30 8489 H 789.446 -3.68518 -2.18843 0
M  V30 8490 H 793.63 -4.60549 -1.84955 0
M  V30 8491 H 788.886 -5.94895 -1.411 0
M  V30 8492 H 793.06 -6.87956 -1.08117 0
M  V30 8493 H 790.687 -7.55362 -0.856307 0
M  V30 8494 N 792.262 0.832906 -1.33792 0
M  V30 8495 C 793.487 1.62568 -1.28788 0
M  V30 8496 C 793.912 1.87599 0.137246 0
M  V30 8497 O 793.27 1.44436 1.0958 0
M  V30 8498 C 793.318 2.9495 -2.07453 0
M  V30 8499 O 792.422 3.86546 -1.43722 0
M  V30 8500 H 791.763 0.494809 -0.442787 0
M  V30 8501 H 794.293 1.03578 -1.76445 0
M  V30 8502 H 794.303 3.44599 -2.1844 0
M  V30 8503 H 792.978 2.76055 -3.11073 0
M  V30 8504 H 791.555 3.45044 -1.41417 0
M  V30 8505 N 793.74 1.17359 1.05189 0
M  V30 8506 C 794.703 0.892604 2.11105 0
M  V30 8507 C 795.703 -0.117236 1.60372 0
M  V30 8508 O 796.893 0.114936 1.7382 0
M  V30 8509 C 794.025 0.337032 3.3923 0
M  V30 8510 H 795.218 1.83169 2.37464 0
M  V30 8511 H 792.771 0.984051 1.21434 0
M  V30 8512 H 793.506 -0.609198 3.18527 0
M  V30 8513 H 793.291 1.06484 3.77364 0
M  V30 8514 H 794.781 0.158763 4.17298 0
M  V30 8515 N 795.218 -1.23913 0.973828 0
M  V30 8516 C 796.629 -1.73992 0.677021 0
M  V30 8517 C 796.98 -1.78833 -0.807036 0
M  V30 8518 O 796.105 -1.42183 -1.63135 0
M  V30 8519 C 796.7 -3.15985 1.22226 0
M  V30 8520 C 795.259 -3.63547 0.975228 0
M  V30 8521 C 794.406 -2.42001 1.35392 0
M  V30 8522 H 797.357 -1.09529 1.14844 0
M  V30 8523 H 797.378 -3.75875 0.591489 0
M  V30 8524 H 796.89 -3.12429 2.30238 0
M  V30 8525 H 794.991 -3.72493 -0.0891047 0
M  V30 8526 H 795.104 -4.50693 1.62518 0
M  V30 8527 H 793.468 -2.42708 0.772334 0
M  V30 8528 H 794.251 -2.41122 2.44367 0
M  V30 8529 N 796.696 -0.74468 -1.38897 0
M  V30 8530 C 797.942 -0.297324 -2.00609 0
M  V30 8531 C 798.275 1.11547 -1.58968 0
M  V30 8532 O 797.55 1.76227 -0.823057 0
M  V30 8533 C 797.833 -0.410125 -3.57757 0
M  V30 8534 C 797.686 -1.86338 -4.09387 0
M  V30 8535 C 799.005 0.20176 -4.39637 0
M  V30 8536 H 796.124 -0.109509 -0.728819 0
M  V30 8537 H 798.766 -0.942653 -1.64967 0
M  V30 8538 H 796.916 0.139287 -3.8825 0
M  V30 8539 H 798.588 -2.47042 -3.89574 0
M  V30 8540 H 796.831 -2.38146 -3.62586 0
M  V30 8541 H 797.502 -1.89352 -5.18507 0
M  V30 8542 H 799.978 -0.266703 -4.15244 0
M  V30 8543 H 798.854 0.0925415 -5.48822 0
M  V30 8544 H 799.115 1.289 -4.22891 0
M  V30 8545 N 798.174 1.49689 -0.493057 0
M  V30 8546 C 799.121 2.28976 0.28959 0
M  V30 8547 C 800.091 1.35011 0.967536 0
M  V30 8548 O 801.276 1.63964 0.975736 0
M  V30 8549 C 798.416 3.1748 1.35279 0
M  V30 8550 C 797.529 4.26496 0.687418 0
M  V30 8551 C 796.664 5.02226 1.73038 0
M  V30 8552 C 795.703 6.03089 1.04645 0
M  V30 8553 N 794.84 6.72014 2.03325 0
M  V30 8554 H 799.68 2.954 -0.392798 0
M  V30 8555 H 797.217 1.45657 -0.205554 0
M  V30 8556 H 799.175 3.67162 1.98111 0
M  V30 8557 H 797.805 2.53057 2.00405 0
M  V30 8558 H 796.857 3.80362 -0.0540001 0
M  V30 8559 H 798.169 4.98578 0.14864 0
M  V30 8560 H 797.323 5.55737 2.43395 0
M  V30 8561 H 796.062 4.29899 2.303 0
M  V30 8562 H 795.067 5.48817 0.328606 0
M  V30 8563 H 796.292 6.77398 0.480428 0
M  V30 8564 H 794.238 6.02464 2.59564 0
M  V30 8565 H 794.155 7.40046 1.54492 0
M  V30 8566 H 795.423 7.30133 2.72995 0
M  V30 8567 N 799.652 0.226554 1.55963 0
M  V30 8568 C 800.582 -0.676079 2.23498 0
M  V30 8569 C 801.563 -1.19718 1.20837 0
M  V30 8570 O 802.748 -1.24027 1.49436 0
M  V30 8571 C 799.878 -1.88217 2.91876 0
M  V30 8572 C 798.832 -1.4947 4.01052 0
M  V30 8573 C 798.158 -2.77997 4.56751 0
M  V30 8574 C 799.458 -0.680951 5.17842 0
M  V30 8575 H 801.152 -0.112989 2.99187 0
M  V30 8576 H 798.698 -0.0529046 1.43903 0
M  V30 8577 H 800.651 -2.51911 3.37815 0
M  V30 8578 H 799.375 -2.47031 2.13643 0
M  V30 8579 H 798.034 -0.881199 3.55852 0
M  V30 8580 H 797.682 -3.34966 3.75243 0
M  V30 8581 H 797.382 -2.52803 5.30438 0
M  V30 8582 H 798.906 -3.42625 5.05411 0
M  V30 8583 H 800.32 -1.22171 5.60131 0
M  V30 8584 H 798.717 -0.525898 5.97791 0
M  V30 8585 H 799.787 0.311346 4.83899 0
M  V30 8586 N 801.13 -1.57531 -0.0467866 0
M  V30 8587 C 802.04 -2.08768 -1.07018 0
M  V30 8588 C 803.056 -1.02245 -1.40791 0
M  V30 8589 O 804.232 -1.33873 -1.50466 0
M  V30 8590 C 801.297 -2.54221 -2.35738 0
M  V30 8591 C 800.358 -3.75152 -2.08709 0
M  V30 8592 C 799.591 -4.18428 -3.31291 0
M  V30 8593 O 799.814 -3.61365 -4.4133 0
M  V30 8594 O 798.748 -5.11018 -3.18032 0
M  V30 8595 H 802.574 -2.96334 -0.664812 0
M  V30 8596 H 800.159 -1.47074 -0.262605 0
M  V30 8597 H 802.041 -2.83866 -3.11445 0
M  V30 8598 H 800.716 -1.69774 -2.75605 0
M  V30 8599 H 799.623 -3.50553 -1.30627 0
M  V30 8600 H 800.956 -4.60528 -1.73708 0
M  V30 8601 N 802.608 0.318715 -1.54344 0
M  V30 8602 C 803.838 1.07394 -1.76494 0
M  V30 8603 C 804.246 1.82031 -0.515881 0
M  V30 8604 O 803.589 1.7609 0.52325 0
M  V30 8605 C 803.651 2.11401 -2.90775 0
M  V30 8606 C 803.315 1.56118 -4.29507 0
M  V30 8607 C 804.312 1.00043 -5.10184 0
M  V30 8608 C 801.997 1.60215 -4.76063 0
M  V30 8609 C 803.991 0.487993 -6.35529 0
M  V30 8610 C 801.678 1.08584 -6.01376 0
M  V30 8611 C 802.676 0.529714 -6.80943 0
M  V30 8612 O 802.364 0.0211823 -8.03897 0
M  V30 8613 H 802.096 0.325061 -0.592715 0
M  V30 8614 H 804.65 0.36901 -2.02058 0
M  V30 8615 H 802.88 2.85524 -2.60793 0
M  V30 8616 H 804.569 2.72683 -3.00664 0
M  V30 8617 H 805.335 0.961811 -4.75367 0
M  V30 8618 H 801.214 2.02441 -4.14172 0
M  V30 8619 H 804.758 0.0532608 -6.9758 0
M  V30 8620 H 800.655 1.12155 -6.35682 0
M  V30 8621 H 801.423 0.136151 -8.18387 0
M  V30 8622 N 804.086 1.46499 0.581025 0
M  V30 8623 C 805.033 1.5719 1.68997 0
M  V30 8624 C 806.003 0.416114 1.60803 0
M  V30 8625 O 807.188 0.633086 1.79991 0
M  V30 8626 C 804.328 1.56973 3.07333 0
M  V30 8627 C 803.441 2.83298 3.26139 0
M  V30 8628 C 802.576 2.74574 4.54734 0
M  V30 8629 C 801.615 3.9583 4.66889 0
M  V30 8630 N 800.752 3.85482 5.86811 0
M  V30 8631 H 805.592 2.51914 1.59196 0
M  V30 8632 H 803.129 1.24975 0.775857 0
M  V30 8633 H 805.087 1.54832 3.87405 0
M  V30 8634 H 803.717 0.657803 3.16027 0
M  V30 8635 H 802.769 2.95411 2.3966 0
M  V30 8636 H 804.081 3.7316 3.30988 0
M  V30 8637 H 803.235 2.70548 5.43036 0
M  V30 8638 H 801.974 1.82354 4.52325 0
M  V30 8639 H 800.979 4.00186 3.77003 0
M  V30 8640 H 802.204 4.89148 4.71075 0
M  V30 8641 H 800.15 2.96051 5.85397 0
M  V30 8642 H 800.067 4.69002 5.92936 0
M  V30 8643 H 801.335 3.85434 6.7754 0
M  V30 8644 N 805.565 -0.825799 1.34232 0
M  V30 8645 C 806.811 -1.58379 1.27623 0
M  V30 8646 C 807.166 -1.91789 -0.15323 0
M  V30 8647 O 806.459 -1.56965 -1.09875 0
M  V30 8648 C 806.653 -2.89362 2.09772 0
M  V30 8649 C 806.482 -2.68747 3.60562 0
M  V30 8650 C 805.252 -2.6563 4.29848 0
M  V30 8651 C 807.45 -2.40463 4.54623 0
M  V30 8652 N 805.432 -2.3653 5.66504 0
M  V30 8653 C 806.803 -2.21032 5.79262 0
M  V30 8654 C 808.858 -2.26168 4.43568 0
M  V30 8655 C 807.561 -1.88754 6.94093 0
M  V30 8656 C 809.587 -1.95284 5.58228 0
M  V30 8657 C 808.949 -1.76674 6.81884 0
M  V30 8658 H 805.048 -0.582062 0.522234 0
M  V30 8659 H 807.632 -0.968308 1.68914 0
M  V30 8660 H 805.803 -3.48838 1.70783 0
M  V30 8661 H 807.535 -3.54716 1.94831 0
M  V30 8662 H 804.29 -2.79601 3.82257 0
M  V30 8663 H 804.714 -2.24827 6.38578 0
M  V30 8664 H 809.356 -2.39262 3.48588 0
M  V30 8665 H 807.074 -1.74397 7.89057 0
M  V30 8666 H 810.66 -1.84959 5.51617 0
M  V30 8667 H 809.54 -1.53123 7.69105 0
M  V30 8668 N 807.043 -1.17915 -1.04565 0
M  V30 8669 C 808.268 -0.996749 -1.81878 0
M  V30 8670 C 808.693 0.450169 -1.82634 0
M  V30 8671 O 808.051 1.32268 -1.23995 0
M  V30 8672 C 808.099 -1.55005 -3.25585 0
M  V30 8673 O 807.203 -0.76804 -4.05185 0
M  V30 8674 H 806.544 -0.353456 -0.562108 0
M  V30 8675 H 809.074 -1.56557 -1.31723 0
M  V30 8676 H 809.084 -1.57503 -3.76373 0
M  V30 8677 H 807.759 -2.60327 -3.2435 0
M  V30 8678 H 806.336 -0.81498 -3.63885 0
M  V30 8679 N 808.521 1.23394 -0.980386 0
M  V30 8680 C 809.798 1.87242 -0.565667 0
M  V30 8681 C 810.178 1.88151 0.957197 0
M  V30 8682 O 809.526 1.36309 1.8339 0
M  V30 8683 C 809.736 3.28743 -1.17172 0
M  V30 8684 C 811.084 4.05335 -1.26446 0
M  V30 8685 O 812.108 3.37962 -1.12517 0
M  V30 8686 O 810.967 5.25908 -1.48604 0
M  V30 8687 H 808.061 0.80477 -0.190459 0
M  V30 8688 H 810.607 1.3127 -1.07547 0
M  V30 8689 H 809.379 3.22647 -2.21392 0
M  V30 8690 H 809.002 3.92305 -0.646739 0
M  V30 8691 N 809.999 0.752036 1.385 0
M  V30 8692 C 810.931 0.0835089 2.29048 0
M  V30 8693 C 811.944 -0.685402 1.47669 0
M  V30 8694 O 813.133 -0.526748 1.70551 0
M  V30 8695 C 810.233 -0.905772 3.26572 0
M  V30 8696 C 809.406 -0.194828 4.36966 0
M  V30 8697 C 808.465 -1.09464 5.14688 0
M  V30 8698 O 807.491 -0.565743 5.66381 0
M  V30 8699 N 808.693 -2.42287 5.2752 0
M  V30 8700 H 811.458 0.861142 2.87062 0
M  V30 8701 H 809.019 0.602689 1.50264 0
M  V30 8702 H 811.011 -1.51072 3.75446 0
M  V30 8703 H 809.581 -1.58449 2.69467 0
M  V30 8704 H 808.801 0.590812 3.89747 0
M  V30 8705 H 810.089 0.297189 5.07931 0
M  V30 8706 H 809.487 -2.87715 4.8707 0
M  V30 8707 H 808.044 -2.97836 5.79773 0
M  V30 8708 N 811.477 -1.49425 0.500989 0
M  V30 8709 C 812.409 -2.27037 -0.314159 0
M  V30 8710 C 813.422 -1.33578 -0.930626 0
M  V30 8711 O 814.611 -1.58861 -0.813968 0
M  V30 8712 C 811.711 -3.05968 -1.45729 0
M  V30 8713 C 810.884 -4.27 -0.948135 0
M  V30 8714 C 809.943 -4.87977 -1.96888 0
M  V30 8715 O 808.969 -5.48044 -1.53743 0
M  V30 8716 N 810.171 -4.77627 -3.29928 0
M  V30 8717 H 812.936 -2.97634 0.351336 0
M  V30 8718 H 810.497 -1.58427 0.333536 0
M  V30 8719 H 812.489 -3.43634 -2.1377 0
M  V30 8720 H 811.059 -2.37978 -2.02695 0
M  V30 8721 H 810.279 -3.94091 -0.0926311 0
M  V30 8722 H 811.567 -5.0541 -0.586362 0
M  V30 8723 H 810.965 -4.29926 -3.67669 0
M  V30 8724 H 809.522 -5.19478 -3.93682 0
M  V30 8725 N 812.955 -0.234822 -1.55841 0
M  V30 8726 C 813.885 0.664217 -2.23854 0
M  V30 8727 C 814.866 1.19076 -1.2147 0
M  V30 8728 O 816.051 1.23232 -1.50091 0
M  V30 8729 C 813.181 1.86666 -2.9287 0
M  V30 8730 C 812.135 1.47341 -4.01839 0
M  V30 8731 C 811.461 2.75571 -4.58219 0
M  V30 8732 C 812.761 0.653479 -5.18196 0
M  V30 8733 H 814.455 0.0971213 -2.99242 0
M  V30 8734 H 812.001 0.0452724 -1.43929 0
M  V30 8735 H 813.954 2.50116 -3.39146 0
M  V30 8736 H 812.678 2.45894 -2.1495 0
M  V30 8737 H 811.337 0.862314 -3.56314 0
M  V30 8738 H 810.985 3.32971 -3.77014 0
M  V30 8739 H 810.685 2.49987 -5.31771 0
M  V30 8740 H 812.209 3.39939 -5.07221 0
M  V30 8741 H 813.623 1.19198 -5.60771 0
M  V30 8742 H 812.02 0.494188 -5.98062 0
M  V30 8743 H 813.09 -0.337004 -4.83728 0
M  V30 8744 N 814.433 1.57553 0.0384317 0
M  V30 8745 C 815.661 1.93093 0.743141 0
M  V30 8746 C 816.076 0.833787 1.69391 0
M  V30 8747 O 815.433 -0.190532 1.81503 0
M  V30 8748 C 815.484 3.28533 1.50826 0
M  V30 8749 O 815.205 4.34032 0.595665 0
M  V30 8750 C 816.706 3.78297 2.31098 0
M  V30 8751 H 813.926 0.637486 0.20941 0
M  V30 8752 H 816.47 2.045 -0.00125154 0
M  V30 8753 H 814.625 3.18552 2.20462 0
M  V30 8754 H 815.039 5.12155 1.13124 0
M  V30 8755 H 816.513 4.75602 2.80191 0
M  V30 8756 H 816.99 3.09008 3.12107 0
M  V30 8757 H 817.596 3.91331 1.66555 0
M  V30 8758 N 815.911 -0.310526 1.54511 0
M  V30 8759 C 817.158 -1.04691 1.73338 0
M  V30 8760 C 817.486 -1.87584 0.514038 0
M  V30 8761 O 816.741 -1.89096 -0.504119 0
M  V30 8762 C 817.04 -1.98942 2.96912 0
M  V30 8763 C 816.706 -1.321 4.31115 0
M  V30 8764 C 815.368 -1.13603 4.67598 0
M  V30 8765 C 817.72 -0.842362 5.14348 0
M  V30 8766 C 815.048 -0.459102 5.84901 0
M  V30 8767 C 817.4 -0.179202 6.32346 0
M  V30 8768 C 816.064 0.0178111 6.67498 0
M  V30 8769 H 815.334 -0.38309 0.634289 0
M  V30 8770 H 817.981 -0.322723 1.88761 0
M  V30 8771 H 816.286 -2.77856 2.76231 0
M  V30 8772 H 817.983 -2.55972 3.08674 0
M  V30 8773 H 814.573 -1.47502 4.02419 0
M  V30 8774 H 818.757 -0.973013 4.86668 0
M  V30 8775 H 814.013 -0.295385 6.10686 0
M  V30 8776 H 818.187 0.199619 6.96114 0
M  V30 8777 H 815.814 0.544356 7.58249 0
M  V30 8778 N 817.389 -1.46805 -0.573248 0
M  V30 8779 C 818.319 -1.60951 -1.69165 0
M  V30 8780 C 819.3 -0.45948 -1.63777 0
M  V30 8781 O 820.485 -0.68688 -1.81647 0
M  V30 8782 C 817.615 -1.60844 -3.07809 0
M  V30 8783 C 816.569 -2.74913 -3.28035 0
M  V30 8784 C 815.895 -2.59871 -4.67302 0
M  V30 8785 C 817.195 -4.16654 -3.14955 0
M  V30 8786 H 818.889 -2.54574 -1.57582 0
M  V30 8787 H 816.435 -1.22516 -0.756686 0
M  V30 8788 H 818.388 -1.69334 -3.85881 0
M  V30 8789 H 817.112 -0.637714 -3.20314 0
M  V30 8790 H 815.771 -2.65908 -2.52366 0
M  V30 8791 H 815.419 -1.60861 -4.76585 0
M  V30 8792 H 815.119 -3.36386 -4.81786 0
M  V30 8793 H 816.643 -2.70265 -5.4753 0
M  V30 8794 H 818.057 -4.26721 -3.82861 0
M  V30 8795 H 816.454 -4.93831 -3.40956 0
M  V30 8796 H 817.524 -4.36146 -2.11908 0
M  V30 8797 N 818.867 0.818669 -1.34668 0
M  V30 8798 C 819.8 1.93516 -1.20941 0
M  V30 8799 C 820.778 1.62292 -0.100061 0
M  V30 8800 O 821.962 1.86614 -0.265983 0
M  V30 8801 C 819.089 3.27612 -0.859524 0
M  V30 8802 C 818.135 3.77794 -1.97923 0
M  V30 8803 S 818.968 3.97043 -3.59329 0
M  V30 8804 C 820.124 5.3406 -3.2639 0
M  V30 8805 H 820.357 2.04864 -2.15449 0
M  V30 8806 H 817.89 0.974716 -1.19744 0
M  V30 8807 H 819.848 4.05087 -0.664444 0
M  V30 8808 H 818.509 3.14028 0.0672835 0
M  V30 8809 H 817.702 4.74883 -1.68827 0
M  V30 8810 H 817.304 3.0728 -2.13202 0
M  V30 8811 H 819.596 6.17626 -2.78469 0
M  V30 8812 H 820.539 5.68143 -4.22634 0
M  V30 8813 H 820.947 4.99773 -2.62464 0
M  V30 8814 N 820.346 1.18468 1.03938 0
M  V30 8815 C 821.762 0.934635 1.29371 0
M  V30 8816 C 821.962 -0.399067 1.97509 0
M  V30 8817 O 821.018 -1.13309 2.25648 0
M  V30 8818 C 822.331 2.10111 2.15114 0
M  V30 8819 C 823.879 2.13955 2.28456 0
M  V30 8820 C 824.354 3.30024 3.17566 0
M  V30 8821 N 825.845 3.29893 3.25153 0
M  V30 8822 C 826.58 4.16346 3.94263 0
M  V30 8823 N 826.076 5.12934 4.65693 0
M  V30 8824 N 827.869 4.04256 3.90556 0
M  V30 8825 H 820.02 2.04294 0.581185 0
M  V30 8826 H 822.283 0.892727 0.318971 0
M  V30 8827 H 821.989 3.06572 1.72355 0
M  V30 8828 H 821.863 2.06283 3.15796 0
M  V30 8829 H 824.25 1.18072 2.7045 0
M  V30 8830 H 824.331 2.2184 1.2736 0
M  V30 8831 H 823.975 4.26181 2.76283 0
M  V30 8832 H 823.905 3.19376 4.18697 0
M  V30 8833 H 826.396 2.59969 2.74271 0
M  V30 8834 H 826.709 5.75271 5.16026 0
M  V30 8835 H 825.054 5.16893 4.64593 0
M  V30 8836 H 828.245 3.28083 3.33885 0
M  V30 8837 H 828.418 4.71848 4.44144 0
M  V30 8838 N 821.824 -1.22873 0.986916 0
M  V30 8839 C 822.774 -2.2237 0.503547 0
M  V30 8840 C 823.758 -1.55186 -0.424998 0
M  V30 8841 O 824.95 -1.75186 -0.252791 0
M  V30 8842 C 822.079 -3.42794 -0.186355 0
M  V30 8843 C 821.165 -4.17196 0.762143 0
M  V30 8844 N 821.556 -4.68453 1.9075 0
M  V30 8845 C 819.854 -4.42255 0.576797 0
M  V30 8846 C 820.555 -5.25126 2.50235 0
M  V30 8847 N 819.531 -5.13437 1.7856 0
M  V30 8848 H 823.333 -2.59636 1.37718 0
M  V30 8849 H 820.847 -1.38476 0.848415 0
M  V30 8850 H 822.844 -4.13256 -0.549993 0
M  V30 8851 H 821.504 -3.07042 -1.05619 0
M  V30 8852 H 822.515 -4.64595 2.28848 0
M  V30 8853 H 819.192 -4.16766 -0.247474 0
M  V30 8854 H 820.582 -5.75363 3.46997 0
M  V30 8855 N 823.302 -0.75937 -1.38099 0
M  V30 8856 C 824.265 -0.14372 -2.28749 0
M  V30 8857 C 825.265 0.641338 -1.47457 0
M  V30 8858 O 826.455 0.466751 -1.67831 0
M  V30 8859 C 823.587 0.804545 -3.3127 0
M  V30 8860 H 824.78 -0.942663 -2.847 0
M  V30 8861 H 822.333 -0.526757 -1.47156 0
M  V30 8862 H 823.068 1.62895 -2.80421 0
M  V30 8863 H 822.853 0.243939 -3.9134 0
M  V30 8864 H 824.343 1.23111 -3.99041 0
M  V30 8865 N 824.78 1.49157 -0.508906 0
M  V30 8866 C 826.196 1.58741 -0.165372 0
M  V30 8867 C 826.396 1.5133 1.33047 0
M  V30 8868 O 825.452 1.39135 2.10707 0
M  V30 8869 C 826.765 2.91217 -0.749194 0
M  V30 8870 C 828.313 3.047 -0.716015 0
M  V30 8871 C 828.788 4.39807 -1.27804 0
M  V30 8872 N 830.279 4.46319 -1.23908 0
M  V30 8873 C 831.014 5.49325 -1.64406 0
M  V30 8874 N 830.51 6.59395 -2.12534 0
M  V30 8875 N 832.303 5.40084 -1.55773 0
M  V30 8876 H 824.454 1.52217 -1.48134 0
M  V30 8877 H 826.717 0.721514 -0.614915 0
M  V30 8878 H 826.423 3.02233 -1.79856 0
M  V30 8879 H 826.297 3.76592 -0.214144 0
M  V30 8880 H 828.684 2.9331 0.324535 0
M  V30 8881 H 828.765 2.2099 -1.2883 0
M  V30 8882 H 828.409 4.5195 -2.31741 0
M  V30 8883 H 828.339 5.2217 -0.681623 0
M  V30 8884 H 830.83 3.67354 -0.886537 0
M  V30 8885 H 831.143 7.34102 -2.41485 0
M  V30 8886 H 829.488 6.60414 -2.16513 0
M  V30 8887 H 832.679 4.52986 -1.17987 0
M  V30 8888 H 832.852 6.20233 -1.87657 0
M  V30 8889 N 826.258 0.243083 1.55714 0
M  V30 8890 C 827.206 -0.674349 2.2261 0
M  V30 8891 C 828.2 -1.18307 1.21243 0
M  V30 8892 O 829.406 -1.1404 1.39265 0
M  V30 8893 H 825.781 -0.235941 0.714028 0
M  V30 8894 H 827.752 -0.0869446 2.98273 0
M  V30 8895 C 826.501 -1.86206 2.93637 0
M  V30 8896 H 825.824 -1.47975 3.71407 0
M  V30 8897 H 827.264 -2.4813 3.43813 0
M  V30 8898 C 825.723 -2.73084 1.97298 0
M  V30 8899 O 826.253 -3.72497 1.50361 0
M  V30 8900 N 824.459 -2.39571 1.64482 0
M  V30 8901 H 824.006 -1.5878 2.02846 0
M  V30 8902 H 823.964 -2.97976 1.00288 0
M  V30 8903 N 827.736 -1.57571 -0.0300757 0
M  V30 8904 C 829.013 -1.80381 -0.756447 0
M  V30 8905 C 829.393 -0.840906 -1.93628 0
M  V30 8906 O 828.741 0.117143 -2.282 0
M  V30 8907 C 828.951 -3.2807 -1.19043 0
M  V30 8908 C 830.299 -3.93025 -1.60676 0
M  V30 8909 O 831.323 -3.32213 -1.28503 0
M  V30 8910 O 830.182 -5.00092 -2.20386 0
M  V30 8911 H 827.276 -0.741737 -0.365725 0
M  V30 8912 H 829.822 -1.69699 -0.00693177 0
M  V30 8913 H 828.594 -3.89748 -0.348128 0
M  V30 8914 H 828.217 -3.43637 -1.99999 0
M  V30 8915 N 829.214 0.302327 -1.54673 0
M  V30 8916 C 830.461 1.0377 -1.73891 0
M  V30 8917 C 830.789 1.87309 -0.523979 0
M  V30 8918 O 830.044 1.8936 0.494084 0
M  V30 8919 C 830.343 1.97365 -2.97963 0
M  V30 8920 C 830.009 1.29812 -4.3181 0
M  V30 8921 C 828.671 1.11121 -4.68194 0
M  V30 8922 C 831.023 0.815073 -5.14787 0
M  V30 8923 C 828.351 0.428077 -5.85136 0
M  V30 8924 C 830.703 0.145665 -6.32432 0
M  V30 8925 C 829.367 -0.0532098 -6.67479 0
M  V30 8926 H 828.637 0.379721 -0.636312 0
M  V30 8927 H 831.284 0.312708 -1.8893 0
M  V30 8928 H 829.589 2.76387 -2.777 0
M  V30 8929 H 831.286 2.54331 -3.10027 0
M  V30 8930 H 827.876 1.45366 -4.03196 0
M  V30 8931 H 832.06 0.947191 -4.87178 0
M  V30 8932 H 827.316 0.262995 -6.10834 0
M  V30 8933 H 831.49 -0.236533 -6.95998 0
M  V30 8934 H 829.117 -0.58456 -7.57949 0
M  V30 8935 N 830.692 1.47107 0.565454 0
M  V30 8936 C 831.917 1.57153 1.35343 0
M  V30 8937 C 832.342 0.219247 1.86818 0
M  V30 8938 O 831.7 -0.803539 1.62521 0
M  V30 8939 C 831.748 2.59387 2.50501 0
M  V30 8940 O 830.852 2.14086 3.52478 0
M  V30 8941 H 830.193 0.528209 0.402357 0
M  V30 8942 H 832.723 1.92821 0.684189 0
M  V30 8943 H 832.733 2.79546 2.97184 0
M  V30 8944 H 831.408 3.57579 2.12391 0
M  V30 8945 H 829.985 2.03991 3.12157 0
M  V30 8946 N 832.17 -0.811516 1.35101 0
M  V30 8947 C 833.586 -1.10634 1.15031 0
M  V30 8948 C 833.786 -2.01459 -0.0405379 0
M  V30 8949 O 832.842 -2.42235 -0.712635 0
M  V30 8950 C 834.155 -1.74207 2.45097 0
M  V30 8951 C 835.703 -1.8665 2.51258 0
M  V30 8952 C 836.178 -2.53638 3.81355 0
M  V30 8953 N 837.669 -2.61128 3.82579 0
M  V30 8954 C 838.404 -3.13717 4.79968 0
M  V30 8955 N 837.9 -3.66782 5.87744 0
M  V30 8956 N 839.693 -3.12224 4.67411 0
M  V30 8957 H 831.844 -0.207641 2.11383 0
M  V30 8958 H 834.107 -0.154697 0.935293 0
M  V30 8959 H 833.813 -1.14936 3.32389 0
M  V30 8960 H 833.687 -2.73958 2.59281 0
M  V30 8961 H 836.074 -2.45066 1.64398 0
M  V30 8962 H 836.155 -0.857678 2.40993 0
M  V30 8963 H 835.799 -1.95873 4.68611 0
M  V30 8964 H 835.729 -3.55047 3.88907 0
M  V30 8965 H 838.22 -2.23527 3.04703 0
M  V30 8966 H 838.533 -4.05194 6.58056 0
M  V30 8967 H 836.878 -3.64994 5.91443 0
M  V30 8968 H 840.069 -2.70042 3.82354 0
M  V30 8969 H 840.242 -3.52903 5.43474 0
M  V30 8970 N 833.648 -1.19017 -1.03309 0
M  V30 8971 C 834.894 -1.0017 -1.77024 0
M  V30 8972 C 835.249 0.463062 -1.86744 0
M  V30 8973 O 834.542 1.33937 -1.37009 0
M  V30 8974 C 834.736 -1.59927 -3.19622 0
M  V30 8975 C 834.565 -3.12062 -3.23802 0
M  V30 8976 C 833.335 -3.80932 -3.31992 0
M  V30 8977 C 835.533 -4.0947 -3.1119 0
M  V30 8978 N 833.515 -5.20502 -3.25502 0
M  V30 8979 C 834.886 -5.3561 -3.12285 0
M  V30 8980 C 836.941 -4.00887 -2.95287 0
M  V30 8981 C 835.644 -6.54161 -2.99109 0
M  V30 8982 C 837.67 -5.19042 -2.83459 0
M  V30 8983 C 837.032 -6.44079 -2.85205 0
M  V30 8984 H 833.131 -0.420633 -0.659236 0
M  V30 8985 H 835.715 -1.5092 -1.23009 0
M  V30 8986 H 833.886 -1.11785 -3.71966 0
M  V30 8987 H 835.618 -1.34557 -3.81676 0
M  V30 8988 H 832.373 -3.31702 -3.38039 0
M  V30 8989 H 832.797 -5.93519 -3.25675 0
M  V30 8990 H 837.439 -3.05042 -2.92762 0
M  V30 8991 H 835.157 -7.50196 -3.00386 0
M  V30 8992 H 838.743 -5.14199 -2.72197 0
M  V30 8993 H 837.623 -7.33969 -2.7615 0
M  V30 8994 N 835.127 1.22348 -0.993418 0
M  V30 8995 C 836.404 1.86632 -0.585495 0
M  V30 8996 C 836.784 1.89156 0.937187 0
M  V30 8997 O 836.132 1.38247 1.81934 0
M  V30 8998 C 836.342 3.27481 -1.20652 0
M  V30 8999 C 837.69 4.03971 -1.30738 0
M  V30 9000 O 838.714 3.3675 -1.16096 0
M  V30 9001 O 837.573 5.24302 -1.54173 0
M  V30 9002 H 834.667 0.802704 -0.198984 0
M  V30 9003 H 837.213 1.30122 -1.08933 0
M  V30 9004 H 835.985 3.20281 -2.24802 0
M  V30 9005 H 835.608 3.91597 -0.688312 0
M  V30 9006 N 836.605 0.766683 1.37694 0
M  V30 9007 C 837.568 0.155849 2.2867 0
M  V30 9008 C 838.568 -0.633509 1.47795 0
M  V30 9009 O 839.758 -0.457844 1.68076 0
M  V30 9010 C 836.89 -0.786965 3.31692 0
M  V30 9011 H 838.083 0.957748 2.84196 0
M  V30 9012 H 835.636 0.534554 1.46875 0
M  V30 9013 H 836.371 -1.61406 2.8128 0
M  V30 9014 H 836.156 -0.223182 3.91464 0
M  V30 9015 H 837.646 -1.20994 3.99688 0
M  V30 9016 N 838.083 -1.48885 0.516809 0
M  V30 9017 C 839.046 -2.27916 -0.242256 0
M  V30 9018 C 840.046 -1.34601 -0.879735 0
M  V30 9019 O 841.236 -1.57616 -0.74182 0
M  V30 9020 C 838.368 -3.13067 -1.34914 0
M  V30 9021 H 839.561 -2.96483 0.451444 0
M  V30 9022 H 837.114 -1.5391 0.272294 0
M  V30 9023 H 837.849 -2.49102 -2.07651 0
M  V30 9024 H 837.634 -3.81695 -0.897313 0
M  V30 9025 H 839.124 -3.72716 -1.88341 0
M  V30 9026 N 839.561 -0.251338 -1.55583 0
M  V30 9027 C 840.493 0.679167 -2.18906 0
M  V30 9028 C 841.506 1.13545 -1.16667 0
M  V30 9029 O 842.695 1.06146 -1.4351 0
M  V30 9030 C 839.795 1.93544 -2.78198 0
M  V30 9031 C 838.968 1.62987 -4.05899 0
M  V30 9032 C 838.027 2.73618 -4.49466 0
M  V30 9033 O 837.053 2.40815 -5.15749 0
M  V30 9034 N 838.255 4.03204 -4.1762 0
M  V30 9035 H 841.02 0.137328 -2.99385 0
M  V30 9036 H 838.581 -0.0714754 -1.61742 0
M  V30 9037 H 840.573 2.66804 -3.04299 0
M  V30 9038 H 839.143 2.38695 -2.0185 0
M  V30 9039 H 838.363 0.732237 -3.8734 0
M  V30 9040 H 839.651 1.40041 -4.89148 0
M  V30 9041 H 839.049 4.32686 -3.64416 0
M  V30 9042 H 837.606 4.72916 -4.48547 0
M  V30 9043 N 841.039 1.57585 0.0217189 0
M  V30 9044 C 842.264 1.94267 0.726309 0
M  V30 9045 C 842.689 0.851904 1.67703 0
M  V30 9046 O 842.047 -0.191792 1.80283 0
M  V30 9047 C 842.095 3.30023 1.45318 0
M  V30 9048 O 841.199 3.22791 2.5667 0
M  V30 9049 H 840.54 0.634777 0.194818 0
M  V30 9050 H 843.07 2.04585 -0.0249985 0
M  V30 9051 H 843.08 3.65084 1.82147 0
M  V30 9052 H 841.755 4.08972 0.755962 0
M  V30 9053 H 840.332 2.99373 2.2233 0
M  V30 9054 N 842.517 -0.29412 1.54831 0
M  V30 9055 C 843.447 -1.36757 1.89261 0
M  V30 9056 C 844.428 -1.52564 0.752214 0
M  V30 9057 O 845.613 -1.65958 1.00855 0
M  V30 9058 C 842.743 -2.73066 2.14597 0
M  V30 9059 C 841.697 -2.72017 3.3044 0
M  V30 9060 C 841.023 -4.11679 3.4121 0
M  V30 9061 C 842.323 -2.33149 4.67375 0
M  V30 9062 H 844.017 -1.08191 2.79169 0
M  V30 9063 H 841.563 -0.519014 1.34321 0
M  V30 9064 H 843.516 -3.48255 2.37269 0
M  V30 9065 H 842.24 -3.03172 1.21467 0
M  V30 9066 H 840.899 -1.99285 3.07703 0
M  V30 9067 H 840.547 -4.38973 2.45584 0
M  V30 9068 H 840.247 -4.11877 4.19084 0
M  V30 9069 H 841.771 -4.88637 3.6615 0
M  V30 9070 H 843.185 -2.98054 4.89731 0
M  V30 9071 H 841.582 -2.44546 5.48012 0
M  V30 9072 H 842.652 -1.28275 4.67626 0
M  V30 9073 N 843.995 -1.47404 -0.557645 0
M  V30 9074 C 844.925 -1.62736 -1.67449 0
M  V30 9075 C 845.906 -0.476824 -1.6328 0
M  V30 9076 O 847.091 -0.706108 -1.80908 0
M  V30 9077 C 844.221 -1.641 -3.06086 0
M  V30 9078 C 843.175 -2.78377 -3.25101 0
M  V30 9079 C 842.501 -2.64812 -4.6452 0
M  V30 9080 C 843.801 -4.19971 -3.10518 0
M  V30 9081 H 845.495 -2.56232 -1.54873 0
M  V30 9082 H 843.041 -1.23312 -0.743649 0
M  V30 9083 H 844.994 -1.73417 -3.84063 0
M  V30 9084 H 843.718 -0.671652 -3.19619 0
M  V30 9085 H 842.377 -2.6857 -2.49531 0
M  V30 9086 H 842.025 -1.65906 -4.74852 0
M  V30 9087 H 841.725 -3.41477 -4.78191 0
M  V30 9088 H 843.249 -2.76057 -5.44633 0
M  V30 9089 H 844.663 -4.30757 -3.78313 0
M  V30 9090 H 843.06 -4.97419 -3.35699 0
M  V30 9091 H 844.13 -4.38369 -2.0727 0
M  V30 9092 N 845.473 0.80434 -1.35529 0
M  V30 9093 C 846.436 1.89788 -1.28503 0
M  V30 9094 C 847.436 1.59601 -0.195983 0
M  V30 9095 O 848.626 1.68292 -0.449827 0
M  V30 9096 C 845.758 3.26255 -0.98847 0
M  V30 9097 H 846.951 1.97436 -2.25741 0
M  V30 9098 H 844.504 1.00046 -1.20086 0
M  V30 9099 H 845.239 3.24294 -0.0200541 0
M  V30 9100 H 845.024 3.49551 -1.77641 0
M  V30 9101 H 846.514 4.06298 -0.964975 0
M  V30 9102 N 846.951 1.19563 1.02676 0
M  V30 9103 C 848.179 1.02488 1.79732 0
M  V30 9104 C 848.594 -0.426302 1.83924 0
M  V30 9105 O 847.951 -1.29609 1.28483 0
M  V30 9106 C 848.002 1.58944 3.24683 0
M  V30 9107 O 847.723 2.98382 3.2078 0
M  V30 9108 C 849.224 1.46681 4.1833 0
M  V30 9109 H 846.444 0.361098 0.565552 0
M  V30 9110 H 848.988 1.58426 1.29311 0
M  V30 9111 H 847.143 1.0715 3.72287 0
M  V30 9112 H 847.557 3.24983 4.11687 0
M  V30 9113 H 849.031 1.90959 5.17918 0
M  V30 9114 H 849.508 0.417663 4.3721 0
M  V30 9115 H 850.114 1.97616 3.76601 0
M  V30 9116 N 848.429 -1.21819 0.999893 0
M  V30 9117 C 849.659 -1.94475 0.697346 0
M  V30 9118 C 850.067 -1.73991 -0.743228 0
M  V30 9119 O 849.41 -1.04042 -1.51397 0
M  V30 9120 C 849.472 -3.47204 0.932181 0
M  V30 9121 C 849.136 -3.91432 2.3586 0
M  V30 9122 C 850.133 -3.98545 3.33853 0
M  V30 9123 C 847.818 -4.23888 2.69489 0
M  V30 9124 C 849.812 -4.37499 4.63545 0
M  V30 9125 C 847.499 -4.62519 3.99399 0
M  V30 9126 C 848.497 -4.69294 4.96238 0
M  V30 9127 O 848.185 -5.07048 6.23825 0
M  V30 9128 H 847.917 -0.625419 0.256567 0
M  V30 9129 H 850.471 -1.55728 1.33933 0
M  V30 9130 H 848.701 -3.85997 0.233025 0
M  V30 9131 H 850.39 -4.01078 0.623807 0
M  V30 9132 H 851.156 -3.73654 3.09205 0
M  V30 9133 H 847.035 -4.17815 1.94812 0
M  V30 9134 H 850.579 -4.42702 5.3913 0
M  V30 9135 H 846.476 -4.86864 4.23833 0
M  V30 9136 H 847.244 -5.25098 6.27865 0
M  V30 9137 N 849.908 -0.773975 -1.37286 0
M  V30 9138 C 851.157 -0.335977 -1.98882 0
M  V30 9139 C 851.47 1.09416 -1.62134 0
M  V30 9140 O 852.676 1.63366 -2.1685 0
M  V30 9141 C 851.132 -0.549756 -3.55676 0
M  V30 9142 C 850.74 -1.9903 -4.01361 0
M  V30 9143 C 852.484 -0.175493 -4.24137 0
M  V30 9144 C 850.391 -2.15156 -5.50874 0
M  V30 9145 H 849.321 -0.121877 -0.744085 0
M  V30 9146 H 851.972 -0.953419 -1.56787 0
M  V30 9147 H 850.354 0.137175 -3.95762 0
M  V30 9148 H 851.528 -2.71237 -3.72515 0
M  V30 9149 H 849.843 -2.32137 -3.4569 0
M  V30 9150 H 852.44 -0.274463 -5.33995 0
M  V30 9151 H 852.783 0.874524 -4.07011 0
M  V30 9152 H 853.316 -0.815058 -3.89361 0
M  V30 9153 H 850.055 -3.18485 -5.72929 0
M  V30 9154 H 849.575 -1.47435 -5.81397 0
M  V30 9155 H 851.254 -1.95124 -6.16876 0
M  V30 9156 N 851.386 1.48609 -0.524698 0
M  V30 9157 C 852.333 2.29539 0.240956 0
M  V30 9158 C 853.303 1.37033 0.938681 0
M  V30 9159 O 854.488 1.65996 0.940737 0
M  V30 9160 C 851.628 3.20278 1.28514 0
M  V30 9161 C 850.741 4.27858 0.596798 0
M  V30 9162 C 849.876 5.05784 1.62346 0
M  V30 9163 C 848.915 6.05173 0.918287 0
M  V30 9164 N 848.052 6.76176 1.89025 0
M  V30 9165 H 852.892 2.945 -0.455368 0
M  V30 9166 H 850.429 1.45188 -0.236403 0
M  V30 9167 H 852.387 3.71281 1.90279 0
M  V30 9168 H 851.017 2.57251 1.94992 0
M  V30 9169 H 850.069 3.80162 -0.134668 0
M  V30 9170 H 851.381 4.98782 0.0428506 0
M  V30 9171 H 850.535 5.60775 2.31553 0
M  V30 9172 H 849.274 4.34687 2.2113 0
M  V30 9173 H 848.279 5.49391 0.21212 0
M  V30 9174 H 849.504 6.78265 0.336633 0
M  V30 9175 H 847.45 6.07834 2.46726 0
M  V30 9176 H 847.367 7.43157 1.3876 0
M  V30 9177 H 848.635 7.35759 2.57446 0
M  V30 9178 N 852.864 0.259585 1.55447 0
M  V30 9179 C 853.794 -0.62852 2.24882 0
M  V30 9180 C 854.775 -1.17128 1.23349 0
M  V30 9181 O 855.96 -1.20829 1.52033 0
M  V30 9182 C 853.09 -1.81983 2.95803 0
M  V30 9183 C 852.044 -1.40929 4.04132 0
M  V30 9184 C 851.37 -2.68246 4.62545 0
M  V30 9185 C 852.67 -0.570956 5.1917 0
M  V30 9186 H 854.364 -0.0495021 2.99359 0
M  V30 9187 H 851.91 -0.0223688 1.43983 0
M  V30 9188 H 853.863 -2.44689 3.43082 0
M  V30 9189 H 852.587 -2.42444 2.18835 0
M  V30 9190 H 851.246 -0.805519 3.57641 0
M  V30 9191 H 850.894 -3.26931 3.82263 0
M  V30 9192 H 850.594 -2.41495 5.35681 0
M  V30 9193 H 852.118 -3.31827 5.12565 0
M  V30 9194 H 853.532 -1.10262 5.62597 0
M  V30 9195 H 851.929 -0.398979 5.98772 0
M  V30 9196 H 852.999 0.413918 4.8313 0
M  V30 9197 N 854.342 -1.57594 -0.0133615 0
M  V30 9198 C 855.29 -2.08682 -1.02736 0
M  V30 9199 C 856.284 -1.00391 -1.36448 0
M  V30 9200 O 857.49 -1.18868 -1.35168 0
M  V30 9201 H 853.865 -0.666158 -0.34891 0
M  V30 9202 H 855.836 -2.9289 -0.570815 0
M  V30 9203 C 854.585 -2.5945 -2.31476 0
M  V30 9204 H 853.908 -3.42401 -2.06401 0
M  V30 9205 H 855.348 -2.98888 -3.00735 0
M  V30 9206 C 853.807 -1.50266 -3.01533 0
M  V30 9207 O 854.337 -0.877875 -3.9199 0
M  V30 9208 N 852.543 -1.23336 -2.63129 0
M  V30 9209 H 852.09 -1.74327 -1.89652 0
M  V30 9210 H 852.048 -0.504987 -3.10318 0
M  V30 9211 N 855.82 0.285905 -1.54985 0
M  V30 9212 C 857.066 1.02071 -1.75241 0
M  V30 9213 C 857.399 1.864 -0.544842 0
M  V30 9214 O 856.674 1.89034 0.457844 0
M  V30 9215 C 856.957 1.91409 -3.05016 0
M  V30 9216 C 856.81 1.10158 -4.36102 0
M  V30 9217 C 858.129 2.90335 -3.30747 0
M  V30 9218 H 855.248 0.369663 -0.637588 0
M  V30 9219 H 857.89 0.294114 -1.8771 0
M  V30 9220 H 856.04 2.53362 -2.94517 0
M  V30 9221 H 857.712 0.503756 -4.58541 0
M  V30 9222 H 855.955 0.404675 -4.31908 0
M  V30 9223 H 856.626 1.75956 -5.23205 0
M  V30 9224 H 859.102 2.38514 -3.40955 0
M  V30 9225 H 857.978 3.49997 -4.2284 0
M  V30 9226 H 858.239 3.64787 -2.49765 0
M  V30 9227 N 857.298 1.47698 0.54982 0
M  V30 9228 C 858.261 1.60282 1.63837 0
M  V30 9229 C 859.261 0.477394 1.5355 0
M  V30 9230 O 860.451 0.742665 1.57576 0
M  V30 9231 C 857.583 1.55431 3.03404 0
M  V30 9232 H 858.776 2.57325 1.54026 0
M  V30 9233 H 856.329 1.35999 0.770329 0
M  V30 9234 H 857.064 0.597912 3.1874 0
M  V30 9235 H 856.849 2.37116 3.12279 0
M  V30 9236 H 858.339 1.6739 3.82584 0
M  V30 9237 N 858.776 -0.797141 1.35954 0
M  V30 9238 C 860.192 -1.09408 1.16198 0
M  V30 9239 C 860.392 -2.01491 -0.0191682 0
M  V30 9240 O 859.448 -2.42977 -0.686902 0
M  V30 9241 C 860.761 -1.71597 2.46931 0
M  V30 9242 C 862.309 -1.83974 2.53224 0
M  V30 9243 C 862.784 -2.49579 3.84024 0
M  V30 9244 N 864.275 -2.57055 3.85327 0
M  V30 9245 C 865.01 -3.08608 4.83268 0
M  V30 9246 N 864.506 -3.60527 5.91601 0
M  V30 9247 N 866.299 -3.07249 4.70696 0
M  V30 9248 H 858.45 -0.185209 2.11591 0
M  V30 9249 H 860.713 -0.144768 0.936881 0
M  V30 9250 H 860.419 -1.11404 3.3359 0
M  V30 9251 H 860.293 -2.71193 2.62172 0
M  V30 9252 H 862.68 -2.43308 1.66988 0
M  V30 9253 H 862.761 -0.83207 2.41889 0
M  V30 9254 H 862.405 -1.90892 4.70662 0
M  V30 9255 H 862.335 -3.50902 3.92651 0
M  V30 9256 H 864.826 -2.20283 3.07057 0
M  V30 9257 H 865.139 -3.98192 6.62317 0
M  V30 9258 H 863.484 -3.587 5.95281 0
M  V30 9259 H 866.675 -2.65972 3.85197 0
M  V30 9260 H 866.848 -3.47119 5.47186 0
M  V30 9261 N 860.254 -1.20106 -1.0204 0
M  V30 9262 C 861.204 -0.914145 -2.08872 0
M  V30 9263 C 862.188 0.124503 -1.60418 0
M  V30 9264 O 863.38 -0.0823521 -1.76808 0
M  V30 9265 C 860.509 -0.463897 -3.40151 0
M  V30 9266 C 859.595 -1.53576 -3.95317 0
M  V30 9267 N 859.986 -2.75726 -4.24038 0
M  V30 9268 C 858.284 -1.40103 -4.23423 0
M  V30 9269 C 858.985 -3.44838 -4.68468 0
M  V30 9270 N 857.961 -2.72245 -4.70514 0
M  V30 9271 H 861.763 -1.8424 -2.28982 0
M  V30 9272 H 859.277 -1.0945 -1.19977 0
M  V30 9273 H 861.274 -0.239766 -4.1621 0
M  V30 9274 H 859.934 0.457779 -3.21457 0
M  V30 9275 H 860.945 -3.12412 -4.13061 0
M  V30 9276 H 857.622 -0.543472 -4.13948 0
M  V30 9277 H 859.012 -4.49342 -4.99541 0
M  V30 9278 N 861.732 1.21287 -1.00634 0
M  V30 9279 C 862.664 2.2308 -0.526094 0
M  V30 9280 C 863.677 1.58157 0.386031 0
M  V30 9281 O 864.866 1.77528 0.186016 0
M  V30 9282 C 861.966 3.37937 0.255289 0
M  V30 9283 C 861.139 4.32449 -0.656236 0
M  V30 9284 C 860.198 5.26145 0.0757714 0
M  V30 9285 O 859.224 5.66601 -0.543325 0
M  V30 9286 N 860.426 5.6449 1.35391 0
M  V30 9287 H 863.191 2.64913 -1.40147 0
M  V30 9288 H 860.752 1.35724 -0.882641 0
M  V30 9289 H 862.744 3.97614 0.753977 0
M  V30 9290 H 861.314 2.95078 1.03187 0
M  V30 9291 H 860.534 3.70892 -1.3354 0
M  V30 9292 H 861.822 4.92526 -1.27653 0
M  V30 9293 H 861.22 5.33617 1.878 0
M  V30 9294 H 859.777 6.26524 1.79753 0
M  V30 9295 N 863.21 0.781244 1.36873 0
M  V30 9296 C 864.142 0.132075 2.28819 0
M  V30 9297 C 865.155 -0.653925 1.49089 0
M  V30 9298 O 866.344 -0.490453 1.7163 0
M  V30 9299 C 863.444 -0.836297 3.28419 0
M  V30 9300 C 862.617 -0.102097 4.37281 0
M  V30 9301 C 861.676 -0.985217 5.16894 0
M  V30 9302 O 860.702 -0.445478 5.67454 0
M  V30 9303 N 861.904 -2.31043 5.3254 0
M  V30 9304 H 864.669 0.921838 2.85171 0
M  V30 9305 H 862.23 0.634427 1.48952 0
M  V30 9306 H 864.222 -1.43074 3.78566 0
M  V30 9307 H 862.792 -1.52698 2.72767 0
M  V30 9308 H 862.012 0.67335 3.88407 0
M  V30 9309 H 863.3 0.404862 5.07187 0
M  V30 9310 H 862.698 -2.77318 4.93063 0
M  V30 9311 H 861.255 -2.85472 5.8596 0
M  V30 9312 N 864.689 -1.48329 0.532571 0
M  V30 9313 C 865.937 -2.021 -0.000581206 0
M  V30 9314 C 866.258 -1.4117 -1.34522 0
M  V30 9315 O 865.528 -0.578005 -1.87179 0
M  V30 9316 H 864.108 -0.746993 -0.00320281 0
M  V30 9317 H 866.77 -1.82011 0.696991 0
M  V30 9318 H 865.866 -3.11917 -0.106991 0
M  V30 9319 N 866.167 -0.267825 -1.55308 0
M  V30 9320 C 867.099 0.65591 -2.19614 0
M  V30 9321 C 868.112 1.12302 -1.17865 0
M  V30 9322 O 869.301 1.04618 -1.44628 0
M  V30 9323 C 866.401 1.90582 -2.80235 0
M  V30 9324 C 865.574 1.58673 -4.07605 0
M  V30 9325 C 864.633 2.68836 -4.52343 0
M  V30 9326 O 863.659 2.35331 -5.18274 0
M  V30 9327 N 864.861 3.98752 -4.21873 0
M  V30 9328 H 867.626 0.105566 -2.99514 0
M  V30 9329 H 865.187 -0.0886263 -1.61657 0
M  V30 9330 H 867.179 2.63561 -3.07112 0
M  V30 9331 H 865.749 2.3654 -2.04371 0
M  V30 9332 H 864.969 0.691113 -3.88094 0
M  V30 9333 H 866.257 1.34845 -4.90606 0
M  V30 9334 H 865.655 4.28797 -3.68985 0
M  V30 9335 H 864.212 4.68131 -4.53537 0
M  V30 9336 N 867.645 1.57599 0.00500368 0
M  V30 9337 C 869.056 1.78462 0.54848 0
M  V30 9338 C 869.407 0.901869 1.74243 0
M  V30 9339 O 868.532 0.103014 2.16155 0
M  V30 9340 C 869.127 3.2365 1.00179 0
M  V30 9341 C 867.686 3.45627 1.49061 0
M  V30 9342 C 866.833 2.73794 0.439531 0
M  V30 9343 H 869.784 1.57151 -0.22118 0
M  V30 9344 H 869.805 3.31488 1.86805 0
M  V30 9345 H 869.317 3.87873 0.132607 0
M  V30 9346 H 867.418 2.86612 2.38085 0
M  V30 9347 H 867.531 4.54298 1.52152 0
M  V30 9348 H 865.895 2.38267 0.900043 0
M  V30 9349 H 866.678 3.40714 -0.420599 0
M  V30 9350 N 869.123 -0.277682 1.55134 0
M  V30 9351 C 870.053 -1.34742 1.90701 0
M  V30 9352 C 871.034 -1.51757 0.768354 0
M  V30 9353 O 872.219 -1.64879 1.02609 0
M  V30 9354 C 869.349 -2.70775 2.17481 0
M  V30 9355 C 868.303 -2.68497 3.33307 0
M  V30 9356 C 867.629 -4.08037 3.45557 0
M  V30 9357 C 868.929 -2.28178 4.69821 0
M  V30 9358 H 870.623 -1.05224 2.803 0
M  V30 9359 H 868.169 -0.504738 1.34864 0
M  V30 9360 H 870.122 -3.45719 2.40949 0
M  V30 9361 H 868.846 -3.01867 1.24676 0
M  V30 9362 H 867.505 -1.9601 3.09799 0
M  V30 9363 H 867.153 -4.36344 2.50226 0
M  V30 9364 H 866.853 -4.07409 4.23429 0
M  V30 9365 H 868.377 -4.84726 3.71312 0
M  V30 9366 H 869.791 -2.92843 4.92865 0
M  V30 9367 H 868.188 -2.3872 5.50575 0
M  V30 9368 H 869.258 -1.23308 4.6896 0
M  V30 9369 N 870.601 -1.47988 -0.541979 0
M  V30 9370 C 871.826 -1.59286 -1.32826 0
M  V30 9371 C 872.251 -0.24894 -1.86445 0
M  V30 9372 O 871.609 0.777581 -1.63778 0
M  V30 9373 C 871.657 -2.6334 -2.46343 0
M  V30 9374 O 870.761 -2.19667 -3.49028 0
M  V30 9375 H 870.102 -0.534543 -0.393903 0
M  V30 9376 H 872.632 -1.93885 -0.653427 0
M  V30 9377 H 872.642 -2.84238 -2.92699 0
M  V30 9378 H 871.317 -3.60913 -2.06675 0
M  V30 9379 H 869.894 -2.08932 -3.08872 0
M  V30 9380 N 872.079 0.78992 -1.36375 0
M  V30 9381 C 873.009 1.91683 -1.33341 0
M  V30 9382 C 873.99 1.68861 -0.204965 0
M  V30 9383 O 875.175 1.89982 -0.402531 0
M  V30 9384 C 872.305 3.28696 -1.12143 0
M  V30 9385 C 871.259 3.66041 -2.21806 0
M  V30 9386 C 870.585 5.01399 -1.85751 0
M  V30 9387 C 871.885 3.74677 -3.63888 0
M  V30 9388 H 873.579 1.94478 -2.27637 0
M  V30 9389 H 871.125 0.934271 -1.09578 0
M  V30 9390 H 873.078 4.07151 -1.08656 0
M  V30 9391 H 871.802 3.26287 -0.142974 0
M  V30 9392 H 870.461 2.89883 -2.24418 0
M  V30 9393 H 870.109 4.9551 -0.864817 0
M  V30 9394 H 869.809 5.27355 -2.59173 0
M  V30 9395 H 871.333 5.82274 -1.83819 0
M  V30 9396 H 872.747 4.43324 -3.63506 0
M  V30 9397 H 871.144 4.12118 -4.3621 0
M  V30 9398 H 872.214 2.75795 -3.9883 0
M  V30 9399 N 873.557 1.20646 1.01402 0
M  V30 9400 C 874.968 1.01823 1.56489 0
M  V30 9401 C 875.319 -0.42463 1.9155 0
M  V30 9402 O 874.444 -1.30644 1.72514 0
M  V30 9403 C 875.039 1.84208 2.84347 0
M  V30 9404 C 873.598 1.69743 3.35953 0
M  V30 9405 C 872.745 1.8198 2.09233 0
M  V30 9406 H 875.696 1.348 0.837539 0
M  V30 9407 H 875.717 1.34698 3.55861 0
M  V30 9408 H 875.229 2.89215 2.58798 0
M  V30 9409 H 873.33 0.673833 3.66456 0
M  V30 9410 H 873.443 2.51173 4.07981 0
M  V30 9411 H 871.807 1.25193 2.21808 0
M  V30 9412 H 872.59 2.88477 1.86107 0
M  V30 9413 N 875.035 -1.20752 1.01276 0
M  V30 9414 C 876.281 -1.90302 0.700924 0
M  V30 9415 C 876.614 -1.78406 -0.767142 0
M  V30 9416 O 875.889 -1.16575 -1.55694 0
M  V30 9417 C 876.172 -3.41831 1.13242 0
M  V30 9418 C 876.025 -3.6268 2.66051 0
M  V30 9419 C 877.344 -4.34486 0.700738 0
M  V30 9420 H 874.463 -0.69107 0.256107 0
M  V30 9421 H 877.105 -1.42227 1.25982 0
M  V30 9422 H 875.255 -3.82906 0.656902 0
M  V30 9423 H 876.927 -3.30882 3.21426 0
M  V30 9424 H 875.17 -3.06281 3.07204 0
M  V30 9425 H 875.841 -4.68882 2.91296 0
M  V30 9426 H 878.317 -4.01036 1.10948 0
M  V30 9427 H 877.193 -5.39136 1.03073 0
M  V30 9428 H 877.454 -4.40307 -0.39778 0
M  V30 9429 N 876.513 -0.788492 -1.36457 0
M  V30 9430 C 877.463 -0.159377 -2.27442 0
M  V30 9431 C 878.447 0.656146 -1.46913 0
M  V30 9432 O 879.639 0.516372 -1.693 0
M  V30 9433 C 876.768 0.705703 -3.35968 0
M  V30 9434 C 875.854 -0.11856 -4.23934 0
M  V30 9435 N 876.245 -1.1726 -4.9202 0
M  V30 9436 C 874.543 0.102752 -4.45882 0
M  V30 9437 C 875.244 -1.6743 -5.57083 0
M  V30 9438 N 874.22 -0.983682 -5.34626 0
M  V30 9439 H 878.022 -0.96614 -2.77566 0
M  V30 9440 H 875.536 -0.627864 -1.49772 0
M  V30 9441 H 877.533 1.17231 -4.00078 0
M  V30 9442 H 876.193 1.51102 -2.87399 0
M  V30 9443 H 877.204 -1.55502 -4.94004 0
M  V30 9444 H 873.881 0.878651 -4.08149 0
M  V30 9445 H 875.271 -2.55423 -6.21457 0
M  V30 9446 N 877.991 1.48044 -0.54043 0
M  V30 9447 C 879.237 2.02797 -0.0101718 0
M  V30 9448 C 879.57 1.41565 1.32939 0
M  V30 9449 O 878.845 0.565139 1.86109 0
M  V30 9450 C 879.128 3.59959 0.100758 0
M  V30 9451 C 878.981 4.31654 -1.26471 0
M  V30 9452 C 880.3 4.32347 0.822455 0
M  V30 9453 H 877.419 0.736982 -0.00517052 0
M  V30 9454 H 880.061 1.76656 -0.69948 0
M  V30 9455 H 878.211 3.82363 0.687824 0
M  V30 9456 H 879.883 4.20639 -1.89369 0
M  V30 9457 H 878.126 3.92663 -1.84386 0
M  V30 9458 H 878.797 5.401 -1.13998 0
M  V30 9459 H 881.273 4.14835 0.324164 0
M  V30 9460 H 880.149 5.41978 0.868993 0
M  V30 9461 H 880.41 4.00369 1.87501 0
M  V30 9462 N 879.47 0.276058 1.55163 0
M  V30 9463 C 880.433 -0.597924 2.21263 0
M  V30 9464 C 881.433 -1.0806 1.19078 0
M  V30 9465 O 882.623 -0.980626 1.43977 0
M  V30 9466 C 879.755 -1.82503 2.87933 0
M  V30 9467 H 880.948 -0.0207769 2.99893 0
M  V30 9468 H 878.501 0.0266823 1.56277 0
M  V30 9469 H 879.236 -2.44266 2.13318 0
M  V30 9470 H 879.021 -1.48683 3.62816 0
M  V30 9471 H 880.511 -2.44651 3.38431 0
M  V30 9472 N 880.948 -1.576 0.00335426 0
M  V30 9473 C 882.225 -1.81945 -0.718015 0
M  V30 9474 C 882.605 -0.881788 -1.91801 0
M  V30 9475 O 881.953 0.0687118 -2.28397 0
M  V30 9476 C 882.163 -3.30521 -1.12058 0
M  V30 9477 C 883.511 -3.96345 -1.52303 0
M  V30 9478 O 884.535 -3.34864 -1.21428 0
M  V30 9479 O 883.394 -5.04655 -2.09728 0
M  V30 9480 H 880.488 -0.749328 -0.34991 0
M  V30 9481 H 883.034 -1.69675 0.0290654 0
M  V30 9482 H 881.806 -3.90399 -0.265378 0
M  V30 9483 H 881.429 -3.47802 -1.92665 0
M  V30 9484 N 882.426 0.269451 -1.5528 0
M  V30 9485 C 883.389 1.31642 -1.87625 0
M  V30 9486 C 884.389 1.42182 -0.751058 0
M  V30 9487 O 885.579 1.41272 -1.01921 0
M  V30 9488 C 882.711 2.6973 -2.08467 0
M  V30 9489 H 883.904 1.0419 -2.81219 0
M  V30 9490 H 881.457 0.507685 -1.47825 0
M  V30 9491 H 882.192 3.02356 -1.17266 0
M  V30 9492 H 881.977 2.63465 -2.90394 0
M  V30 9493 H 883.467 3.4537 -2.34753 0
M  V30 9494 N 883.904 1.48273 0.534124 0
M  V30 9495 C 885.151 1.56079 1.29017 0
M  V30 9496 C 885.479 0.232912 1.931 0
M  V30 9497 O 884.734 -0.77642 1.79639 0
M  V30 9498 C 885.033 2.64468 2.40398 0
M  V30 9499 C 884.699 4.07034 1.93995 0
M  V30 9500 C 883.361 4.45838 1.81058 0
M  V30 9501 C 885.713 4.96395 1.58877 0
M  V30 9502 C 883.041 5.71812 1.31331 0
M  V30 9503 C 885.393 6.22854 1.10614 0
M  V30 9504 C 884.057 6.60518 0.962895 0
M  V30 9505 H 883.327 0.571135 0.472108 0
M  V30 9506 H 885.974 1.81973 0.5965 0
M  V30 9507 H 884.279 2.32419 3.15418 0
M  V30 9508 H 885.976 2.67725 2.98537 0
M  V30 9509 H 882.566 3.76387 2.05015 0
M  V30 9510 H 886.75 4.67096 1.67734 0
M  V30 9511 H 882.006 5.99722 1.18924 0
M  V30 9512 H 886.18 6.91495 0.825095 0
M  V30 9513 H 883.807 7.58019 0.575369 0
M  V30 9514 N 885.382 -0.782676 1.36792 0
M  V30 9515 C 886.798 -1.08169 1.17352 0
M  V30 9516 C 886.998 -2.015 0.0022037 0
M  V30 9517 O 886.054 -2.43692 -0.661093 0
M  V30 9518 C 887.367 -1.68969 2.48737 0
M  V30 9519 C 888.915 -1.81278 2.55161 0
M  V30 9520 C 889.39 -2.45492 3.86649 0
M  V30 9521 N 890.881 -2.52954 3.88032 0
M  V30 9522 C 891.616 -3.03465 4.86515 0
M  V30 9523 N 891.112 -3.54232 5.95392 0
M  V30 9524 N 892.905 -3.02239 4.73928 0
M  V30 9525 H 885.056 -0.162757 2.11775 0
M  V30 9526 H 887.319 -0.134823 0.938364 0
M  V30 9527 H 887.025 -1.07859 3.34753 0
M  V30 9528 H 886.899 -2.68397 2.65034 0
M  V30 9529 H 889.286 -2.41524 1.69559 0
M  V30 9530 H 889.367 -0.806367 2.42758 0
M  V30 9531 H 889.011 -1.85889 4.7266 0
M  V30 9532 H 888.941 -3.46718 3.96351 0
M  V30 9533 H 891.432 -2.17014 3.09376 0
M  V30 9534 H 891.745 -3.91145 6.66503 0
M  V30 9535 H 890.09 -3.52366 5.99052 0
M  V30 9536 H 893.281 -2.61871 3.87996 0
M  V30 9537 H 893.454 -3.41295 5.50837 0
M  V30 9538 N 886.86 -1.21182 -1.00761 0
M  V30 9539 C 887.823 -0.970339 -2.07646 0
M  V30 9540 C 888.823 0.0576345 -1.60697 0
M  V30 9541 O 890.013 -0.179369 -1.73274 0
M  V30 9542 C 887.145 -0.462703 -3.37745 0
M  V30 9543 H 888.338 -1.91856 -2.30502 0
M  V30 9544 H 885.891 -1.02844 -1.17698 0
M  V30 9545 H 886.626 0.490559 -3.20568 0
M  V30 9546 H 886.411 -1.20416 -3.73152 0
M  V30 9547 H 887.901 -0.313531 -4.16421 0
M  V30 9548 N 888.338 1.20213 -1.01915 0
M  V30 9549 C 889.584 1.89928 -0.711007 0
M  V30 9550 C 889.917 1.7881 0.75767 0
M  V30 9551 O 889.192 1.17399 1.55073 0
M  V30 9552 C 889.475 3.41225 -1.15053 0
M  V30 9553 C 889.328 3.61264 -2.67971 0
M  V30 9554 C 890.647 4.34108 -0.72377 0
M  V30 9555 H 887.766 0.689702 -0.259768 0
M  V30 9556 H 890.408 1.41557 -1.26734 0
M  V30 9557 H 888.558 3.82552 -0.677199 0
M  V30 9558 H 890.23 3.29173 -3.23176 0
M  V30 9559 H 888.473 3.04647 -3.08824 0
M  V30 9560 H 889.144 4.67331 -2.93779 0
M  V30 9561 H 891.62 4.00442 -1.13073 0
M  V30 9562 H 890.496 5.38581 -1.05931 0
M  V30 9563 H 890.757 4.40512 0.374424 0
M  V30 9564 N 889.816 0.795718 1.36037 0
M  V30 9565 C 890.746 0.212803 2.32528 0
M  V30 9566 C 891.727 -0.655716 1.56953 0
M  V30 9567 O 892.912 -0.588238 1.85077 0
M  V30 9568 C 890.042 -0.648189 3.41198 0
M  V30 9569 C 888.996 0.120948 4.27829 0
M  V30 9570 C 888.322 -0.861044 5.27722 0
M  V30 9571 C 889.622 1.31375 5.05508 0
M  V30 9572 H 891.316 1.01893 2.81528 0
M  V30 9573 H 888.862 0.491422 1.35355 0
M  V30 9574 H 890.815 -1.06597 4.07695 0
M  V30 9575 H 889.539 -1.48709 2.9078 0
M  V30 9576 H 888.198 0.519777 3.62897 0
M  V30 9577 H 887.846 -1.69515 4.73575 0
M  V30 9578 H 887.546 -0.350808 5.86552 0
M  V30 9579 H 889.07 -1.27726 5.97092 0
M  V30 9580 H 890.484 0.971406 5.6501 0
M  V30 9581 H 888.881 1.75772 5.73781 0
M  V30 9582 H 889.951 2.10593 4.36782 0
M  V30 9583 N 891.294 -1.47756 0.548274 0
M  V30 9584 C 892.224 -2.32702 -0.19284 0
M  V30 9585 C 893.205 -1.43237 -0.917457 0
M  V30 9586 O 894.39 -1.72103 -0.89967 0
M  V30 9587 C 891.52 -3.24831 -1.22891 0
M  V30 9588 C 890.474 -4.23466 -0.621312 0
M  V30 9589 C 889.8 -5.04856 -1.76137 0
M  V30 9590 C 891.1 -5.20616 0.419055 0
M  V30 9591 H 892.794 -2.94914 0.516323 0
M  V30 9592 H 890.34 -1.41818 0.24975 0
M  V30 9593 H 892.293 -3.83094 -1.75547 0
M  V30 9594 H 891.017 -2.60656 -1.9679 0
M  V30 9595 H 889.676 -3.66416 -0.116123 0
M  V30 9596 H 889.324 -4.37091 -2.48918 0
M  V30 9597 H 889.024 -5.71629 -1.36065 0
M  V30 9598 H 890.548 -5.65976 -2.29136 0
M  V30 9599 H 891.962 -5.73296 -0.0211034 0
M  V30 9600 H 890.359 -5.95543 0.738163 0
M  V30 9601 H 891.429 -4.66638 1.31822 0
M  V30 9602 N 892.772 -0.284283 -1.55015 0
M  V30 9603 C 894.049 0.382125 -1.91831 0
M  V30 9604 C 894.429 1.73007 -1.20962 0
M  V30 9605 O 893.777 2.25962 -0.339594 0
M  V30 9606 C 893.987 0.513341 -3.45204 0
M  V30 9607 C 895.335 0.791989 -4.17148 0
M  V30 9608 O 896.359 0.597799 -3.51148 0
M  V30 9609 O 895.218 1.16394 -5.33961 0
M  V30 9610 H 892.312 0.210707 -0.799707 0
M  V30 9611 H 894.858 -0.331111 -1.66438 0
M  V30 9612 H 893.63 -0.434911 -3.88876 0
M  V30 9613 H 893.253 1.27569 -3.76579 0
M  V30 9614 N 894.251 1.57596 -0.0117121 0
M  V30 9615 C 895.161 2.12596 0.991964 0
M  V30 9616 C 896.177 1.07399 1.36899 0
M  V30 9617 O 897.353 1.39365 1.45394 0
M  V30 9618 C 894.418 2.62796 2.2614 0
M  V30 9619 C 893.479 3.8264 1.94642 0
M  V30 9620 C 892.712 4.30435 3.15533 0
M  V30 9621 O 892.935 3.77495 4.27614 0
M  V30 9622 O 891.869 5.22469 2.98847 0
M  V30 9623 H 895.695 2.98597 0.554371 0
M  V30 9624 H 893.28 1.47947 0.207839 0
M  V30 9625 H 895.162 2.9523 3.00695 0
M  V30 9626 H 893.837 1.79886 2.69114 0
M  V30 9627 H 892.744 3.5516 1.17526 0
M  V30 9628 H 894.077 4.66658 1.56496 0
M  V30 9629 N 895.729 -0.261212 1.5542 0
M  V30 9630 C 896.676 -1.32315 1.89107 0
M  V30 9631 C 897.646 -1.48517 0.743767 0
M  V30 9632 O 898.831 -1.62733 0.996123 0
M  V30 9633 C 895.971 -2.67626 2.17877 0
M  V30 9634 C 895.084 -2.59549 3.45338 0
M  V30 9635 C 894.219 -3.87118 3.63748 0
M  V30 9636 C 893.258 -3.736 4.8486 0
M  V30 9637 N 892.395 -4.93029 4.99867 0
M  V30 9638 H 897.235 -1.02886 2.79675 0
M  V30 9639 H 894.772 -0.496812 1.38456 0
M  V30 9640 H 896.73 -3.4637 2.32559 0
M  V30 9641 H 895.36 -2.95232 1.30529 0
M  V30 9642 H 894.412 -1.72452 3.39064 0
M  V30 9643 H 895.724 -2.45465 4.34222 0
M  V30 9644 H 894.878 -4.74305 3.78312 0
M  V30 9645 H 893.617 -4.04084 2.73071 0
M  V30 9646 H 892.622 -2.84797 4.70288 0
M  V30 9647 H 893.847 -3.58143 5.76984 0
M  V30 9648 H 891.793 -5.10383 4.12123 0
M  V30 9649 H 891.71 -4.81521 5.82815 0
M  V30 9650 H 892.978 -5.81754 5.18828 0
M  V30 9651 N 897.207 -1.48554 -0.526253 0
M  V30 9652 C 898.456 -1.56014 -1.27837 0
M  V30 9653 C 898.769 -0.240643 -1.94114 0
M  V30 9654 O 899.975 -0.193525 -2.70809 0
M  V30 9655 C 898.431 -2.75161 -2.31979 0
M  V30 9656 C 898.039 -4.13768 -1.71755 0
M  V30 9657 C 899.783 -2.91936 -3.08178 0
M  V30 9658 C 897.69 -5.24171 -2.7386 0
M  V30 9659 H 896.62 -0.58082 -0.480795 0
M  V30 9660 H 899.271 -1.74895 -0.555335 0
M  V30 9661 H 897.653 -2.49722 -3.07335 0
M  V30 9662 H 898.827 -4.49241 -1.02563 0
M  V30 9663 H 897.142 -4.02141 -1.08036 0
M  V30 9664 H 899.739 -3.71586 -3.84484 0
M  V30 9665 H 900.082 -2.01533 -3.64267 0
M  V30 9666 H 900.615 -3.17294 -2.39937 0
M  V30 9667 H 897.354 -6.16552 -2.22586 0
M  V30 9668 H 896.874 -4.93181 -3.41368 0
M  V30 9669 H 898.553 -5.52442 -3.36774 0
M  V30 9670 N 898.685 0.775411 -1.37205 0
M  V30 9671 C 899.962 1.5229 -1.22748 0
M  V30 9672 C 900.342 2.10327 0.180487 0
M  V30 9673 O 899.69 1.95206 1.18772 0
M  V30 9674 C 899.9 2.60671 -2.3206 0
M  V30 9675 C 901.248 3.28173 -2.6942 0
M  V30 9676 O 902.272 2.70963 -2.31208 0
M  V30 9677 O 901.131 4.31598 -3.3524 0
M  V30 9678 H 898.225 0.674326 -0.478762 0
M  V30 9679 H 900.771 0.812691 -1.48975 0
M  V30 9680 H 899.543 2.1588 -3.26361 0
M  V30 9681 H 899.166 3.39296 -2.07277 0
M  V30 9682 N 900.163 1.21714 1.00117 0
M  V30 9683 C 901.574 1.03477 1.55401 0
M  V30 9684 C 901.925 -0.40429 1.91989 0
M  V30 9685 O 901.05 -1.28807 1.7389 0
M  V30 9686 C 901.645 1.87213 2.82377 0
M  V30 9687 C 900.204 1.73297 3.34133 0
M  V30 9688 C 899.351 1.84189 2.07291 0
M  V30 9689 H 902.302 1.3568 0.823195 0
M  V30 9690 H 902.323 1.38465 3.54412 0
M  V30 9691 H 901.835 2.91944 2.55715 0
M  V30 9692 H 899.936 0.712662 3.65721 0
M  V30 9693 H 900.049 2.55486 4.05294 0
M  V30 9694 H 898.413 1.27538 2.20468 0
M  V30 9695 H 899.196 2.90435 1.83037 0
M  V30 9696 N 901.641 -1.19671 1.02551 0
M  V30 9697 C 902.604 -2.20987 0.608055 0
M  V30 9698 C 903.604 -1.5745 -0.326534 0
M  V30 9699 O 904.794 -1.73827 -0.114003 0
M  V30 9700 C 901.926 -3.4072 -0.11074 0
M  V30 9701 H 903.119 -2.59434 1.50446 0
M  V30 9702 H 900.672 -1.3329 0.816307 0
M  V30 9703 H 901.407 -3.07787 -1.02165 0
M  V30 9704 H 901.192 -3.88069 0.560772 0
M  V30 9705 H 902.682 -4.15776 -0.389848 0
M  V30 9706 N 903.119 -0.802921 -1.35613 0
M  V30 9707 C 904.049 -0.225131 -2.32412 0
M  V30 9708 C 905.03 0.647383 -1.57299 0
M  V30 9709 O 906.215 0.578414 -1.85386 0
M  V30 9710 C 903.345 0.630085 -3.41537 0
M  V30 9711 C 902.299 -0.143635 -4.27759 0
M  V30 9712 C 901.625 0.833046 -5.28171 0
M  V30 9713 C 902.925 -1.34054 -5.04804 0
M  V30 9714 H 904.619 -1.03385 -2.80984 0
M  V30 9715 H 902.165 -0.498593 -1.35093 0
M  V30 9716 H 904.118 1.04433 -4.08254 0
M  V30 9717 H 902.842 1.47165 -2.91565 0
M  V30 9718 H 901.501 -0.539015 -3.62616 0
M  V30 9719 H 901.149 1.67001 -4.74468 0
M  V30 9720 H 900.849 0.319697 -5.8673 0
M  V30 9721 H 902.373 1.24558 -5.97761 0
M  V30 9722 H 903.787 -1.00136 -5.64487 0
M  V30 9723 H 902.184 -1.78812 -5.72841 0
M  V30 9724 H 903.254 -2.12906 -4.35659 0
M  V30 9725 N 904.597 1.47463 -0.556102 0
M  V30 9726 C 905.56 2.28478 0.181743 0
M  V30 9727 C 906.56 1.36886 0.843738 0
M  V30 9728 O 907.75 1.59527 0.69977 0
M  V30 9729 C 904.882 3.16534 1.26566 0
M  V30 9730 H 906.075 2.95182 -0.529892 0
M  V30 9731 H 903.628 1.53134 -0.313005 0
M  V30 9732 H 904.363 2.5452 2.00973 0
M  V30 9733 H 904.148 3.83939 0.795798 0
M  V30 9734 H 905.638 3.77579 1.78393 0
M  V30 9735 N 906.075 0.2925 1.54862 0
M  V30 9736 C 907.038 -0.574423 2.21885 0
M  V30 9737 C 908.038 -1.06791 1.20218 0
M  V30 9738 O 909.228 -0.9653 1.45009 0
M  V30 9739 C 906.36 -1.79438 2.89853 0
M  V30 9740 H 907.553 0.0110319 2.99898 0
M  V30 9741 H 905.106 0.043256 1.5624 0
M  V30 9742 H 905.841 -2.4199 2.15897 0
M  V30 9743 H 905.626 -1.44827 3.64373 0
M  V30 9744 H 907.116 -2.41048 3.41007 0
M  V30 9745 N 907.553 -1.57587 0.0200696 0
M  V30 9746 C 908.463 -2.13119 -0.980676 0
M  V30 9747 C 909.479 -1.08124 -1.36328 0
M  V30 9748 O 910.655 -1.40134 -1.44653 0
M  V30 9749 C 907.72 -2.63991 -2.24743 0
M  V30 9750 C 906.781 -3.83667 -1.9261 0
M  V30 9751 C 906.014 -4.32103 -3.13246 0
M  V30 9752 O 906.237 -3.79758 -4.25606 0
M  V30 9753 O 905.171 -5.24047 -2.96072 0
M  V30 9754 H 908.997 -2.98887 -0.538528 0
M  V30 9755 H 906.582 -1.48055 -0.19999 0
M  V30 9756 H 908.464 -2.9682 -2.99125 0
M  V30 9757 H 907.139 -1.81311 -2.68157 0
M  V30 9758 H 906.046 -3.55778 -1.15641 0
M  V30 9759 H 907.379 -4.67482 -1.54019 0
M  V30 9760 N 909.032 0.252966 -1.55557 0
M  V30 9761 C 910.281 0.979736 -1.76307 0
M  V30 9762 C 910.594 1.86714 -0.582871 0
M  V30 9763 O 911.8 2.6302 -0.673247 0
M  V30 9764 C 910.256 1.79205 -3.12112 0
M  V30 9765 C 909.864 0.952333 -4.37761 0
M  V30 9766 C 911.608 2.51191 -3.42203 0
M  V30 9767 C 909.515 1.76018 -5.64599 0
M  V30 9768 H 908.445 0.369538 -0.657235 0
M  V30 9769 H 911.096 0.234619 -1.81994 0
M  V30 9770 H 909.478 2.57888 -3.00515 0
M  V30 9771 H 910.652 0.208251 -4.60329 0
M  V30 9772 H 908.967 0.346082 -4.14959 0
M  V30 9773 H 911.564 3.12074 -4.34182 0
M  V30 9774 H 911.907 3.22499 -2.63249 0
M  V30 9775 H 912.44 1.79523 -3.54988 0
M  V30 9776 H 909.179 1.09095 -6.46358 0
M  V30 9777 H 908.699 2.4797 -5.46142 0
M  V30 9778 H 910.378 2.32884 -6.03634 0
M  V30 9779 N 910.51 1.48831 0.518367 0
M  V30 9780 C 911.44 1.67119 1.63075 0
M  V30 9781 C 912.421 0.519948 1.61958 0
M  V30 9782 O 913.606 0.753824 1.78972 0
M  V30 9783 C 910.736 1.72158 3.01627 0
M  V30 9784 C 909.69 2.86898 3.17606 0
M  V30 9785 C 909.016 2.77035 4.57335 0
M  V30 9786 C 910.316 4.28057 2.99274 0
M  V30 9787 H 912.01 2.60248 1.48025 0
M  V30 9788 H 909.556 1.2524 0.710694 0
M  V30 9789 H 911.509 1.83539 3.7933 0
M  V30 9790 H 910.233 0.756157 3.17726 0
M  V30 9791 H 908.892 2.75091 2.42323 0
M  V30 9792 H 908.54 1.78438 4.70286 0
M  V30 9793 H 908.24 3.54036 4.6897 0
M  V30 9794 H 909.764 2.904 5.37122 0
M  V30 9795 H 911.178 4.40636 3.6676 0
M  V30 9796 H 909.575 5.06145 3.22393 0
M  V30 9797 H 910.645 4.4371 1.95574 0
M  V30 9798 N 911.988 -0.768124 1.37614 0
M  V30 9799 C 913.216 -1.55726 1.36224 0
M  V30 9800 C 913.631 -1.8873 -0.0515357 0
M  V30 9801 O 912.988 -1.51718 -1.0143 0
M  V30 9802 C 913.039 -2.86533 2.20412 0
M  V30 9803 O 912.76 -2.54942 3.56281 0
M  V30 9804 C 914.261 -3.80745 2.27041 0
M  V30 9805 H 911.481 -0.482325 0.46648 0
M  V30 9806 H 914.025 -0.95176 1.81002 0
M  V30 9807 H 912.18 -3.43496 1.79134 0
M  V30 9808 H 912.594 -3.38732 4.00451 0
M  V30 9809 H 914.068 -4.69523 2.90263 0
M  V30 9810 H 914.545 -4.20138 1.27987 0
M  V30 9811 H 915.151 -3.2971 2.68647 0
M  V30 9812 N 913.466 -1.22244 -0.994698 0
M  V30 9813 C 914.396 -1.01513 -2.10279 0
M  V30 9814 C 915.377 0.0633365 -1.69982 0
M  V30 9815 O 916.562 -0.0985268 -1.9395 0
M  V30 9816 C 913.692 -0.59016 -3.42249 0
M  V30 9817 C 912.646 -1.61436 -3.96387 0
M  V30 9818 C 911.972 -1.04528 -5.24383 0
M  V30 9819 C 913.272 -3.00388 -4.27276 0
M  V30 9820 H 914.966 -1.94194 -2.2788 0
M  V30 9821 H 912.512 -0.935094 -1.09508 0
M  V30 9822 H 914.465 -0.432254 -4.19177 0
M  V30 9823 H 913.189 0.372308 -3.24471 0
M  V30 9824 H 911.848 -1.76001 -3.21589 0
M  V30 9825 H 911.496 -0.0742225 -5.02945 0
M  V30 9826 H 911.196 -1.72949 -5.61571 0
M  V30 9827 H 912.72 -0.898922 -6.03947 0
M  V30 9828 H 914.134 -2.89207 -4.95007 0
M  V30 9829 H 912.531 -3.65916 -4.75631 0
M  V30 9830 H 913.601 -3.50456 -3.35125 0
M  V30 9831 N 914.944 1.19125 -1.03184 0
M  V30 9832 C 916.355 1.70564 -0.759264 0
M  V30 9833 C 916.706 1.8248 0.720794 0
M  V30 9834 O 915.831 1.49804 1.56166 0
M  V30 9835 C 916.426 3.09793 -1.37163 0
M  V30 9836 C 914.985 3.5848 -1.14757 0
M  V30 9837 C 914.132 2.35265 -1.46784 0
M  V30 9838 H 917.083 1.03925 -1.19939 0
M  V30 9839 H 917.104 3.72624 -0.77015 0
M  V30 9840 H 916.616 3.01088 -2.44882 0
M  V30 9841 H 914.717 3.72494 -0.0887182 0
M  V30 9842 H 914.83 4.42426 -1.83836 0
M  V30 9843 H 913.194 2.38747 -0.887254 0
M  V30 9844 H 913.977 2.29188 -2.55593 0
M  V30 9845 N 916.422 0.810101 1.35185 0
M  V30 9846 C 917.647 0.40364 2.03434 0
M  V30 9847 C 918.072 -0.97857 1.60641 0
M  V30 9848 O 917.43 -1.63435 0.784779 0
M  V30 9849 C 917.478 0.499154 3.57129 0
M  V30 9850 O 916.582 -0.486039 4.09526 0
M  V30 9851 H 915.923 0.168049 0.642383 0
M  V30 9852 H 918.453 1.09696 1.72708 0
M  V30 9853 H 918.463 0.370236 4.06317 0
M  V30 9854 H 917.138 1.50733 3.87624 0
M  V30 9855 H 915.715 -0.31707 3.7155 0
M  V30 9856 N 917.9 -1.47166 0.563914 0
M  V30 9857 C 919.146 -2.02756 0.0424338 0
M  V30 9858 C 919.479 -1.43662 -1.3067 0
M  V30 9859 O 918.754 -0.594676 -1.85186 0
M  V30 9860 C 919.037 -3.60074 -0.0434793 0
M  V30 9861 C 918.89 -4.29587 1.33323 0
M  V30 9862 C 920.209 -4.336 -0.753568 0
M  V30 9863 H 917.328 -0.736806 0.0168946 0
M  V30 9864 H 919.97 -1.75521 0.727496 0
M  V30 9865 H 918.12 -3.83409 -0.626906 0
M  V30 9866 H 919.792 -4.17573 1.96037 0
M  V30 9867 H 918.035 -3.8968 1.9061 0
M  V30 9868 H 918.706 -5.38218 1.22576 0
M  V30 9869 H 921.182 -4.15299 -0.258126 0
M  V30 9870 H 920.058 -5.43291 -0.782659 0
M  V30 9871 H 920.319 -4.03302 -1.81108 0
M  V30 9872 N 919.378 -0.300708 -1.54705 0
M  V30 9873 C 920.326 0.591264 -2.2496 0
M  V30 9874 C 921.32 1.13725 -1.2555 0
M  V30 9875 O 922.526 1.08793 -1.43402 0
M  V30 9876 H 918.901 0.209278 -0.722293 0
M  V30 9877 H 920.872 -0.0238175 -2.9839 0
M  V30 9878 C 919.621 1.75179 -3.00346 0
M  V30 9879 H 918.944 1.34089 -3.76643 0
M  V30 9880 H 920.384 2.35198 -3.52786 0
M  V30 9881 C 918.843 2.65574 -2.07298 0
M  V30 9882 O 919.373 3.6666 -1.64083 0
M  V30 9883 N 917.579 2.33301 -1.7326 0
M  V30 9884 H 917.126 1.51142 -2.08599 0
M  V30 9885 H 917.084 2.94049 -1.11278 0
M  V30 9886 N 920.856 1.57574 -0.0284266 0
M  V30 9887 C 921.766 2.13637 0.96936 0
M  V30 9888 C 922.782 1.08845 1.35752 0
M  V30 9889 O 923.958 1.40899 1.43908 0
M  V30 9890 C 921.023 2.65179 2.2334 0
M  V30 9891 C 920.084 3.84683 1.90572 0
M  V30 9892 C 919.317 4.33758 3.1095 0
M  V30 9893 O 919.54 3.82009 4.23586 0
M  V30 9894 O 918.474 5.2561 2.93288 0
M  V30 9895 H 922.3 2.99169 0.52267 0
M  V30 9896 H 919.885 1.48159 0.192135 0
M  V30 9897 H 921.767 2.98402 2.97547 0
M  V30 9898 H 920.442 1.82731 2.67191 0
M  V30 9899 H 919.349 3.56386 1.13753 0
M  V30 9900 H 920.682 4.68292 1.51538 0
M  V30 9901 N 922.334 -0.244713 1.55689 0
M  V30 9902 C 923.267 -1.32946 1.85474 0
M  V30 9903 C 924.245 -1.46279 0.710021 0
M  V30 9904 O 925.429 -1.62459 0.956004 0
M  V30 9905 C 922.556 -2.7027 2.04137 0
M  V30 9906 C 921.602 -2.74075 3.2678 0
M  V30 9907 S 922.435 -2.30465 4.8337 0
M  V30 9908 C 923.591 -3.69709 5.05041 0
M  V30 9909 H 923.824 -1.07482 2.77191 0
M  V30 9910 H 921.357 -0.445807 1.47824 0
M  V30 9911 H 923.315 -3.4934 2.15574 0
M  V30 9912 H 921.976 -2.9297 1.13259 0
M  V30 9913 H 921.169 -3.74932 3.36812 0
M  V30 9914 H 920.771 -2.03051 3.1408 0
M  V30 9915 H 923.063 -4.65222 4.92518 0
M  V30 9916 H 924.006 -3.6461 6.07014 0
M  V30 9917 H 924.414 -3.62323 4.32877 0
M  V30 9918 N 923.813 -1.49104 -0.510467 0
M  V30 9919 C 924.776 -1.64569 -1.59529 0
M  V30 9920 C 925.776 -0.517937 -1.5223 0
M  V30 9921 O 926.966 -0.784183 -1.55551 0
M  V30 9922 C 924.098 -1.6342 -2.99177 0
M  V30 9923 H 925.291 -2.61318 -1.4715 0
M  V30 9924 H 922.844 -1.37993 -0.734001 0
M  V30 9925 H 923.579 -0.68221 -3.17043 0
M  V30 9926 H 923.364 -2.45312 -3.05883 0
M  V30 9927 H 924.854 -1.77474 -3.78011 0
M  V30 9928 N 925.291 0.760815 -1.38019 0
M  V30 9929 C 926.201 1.90526 -1.36884 0
M  V30 9930 C 927.217 1.71941 -0.266908 0
M  V30 9931 O 928.393 1.94988 -0.50413 0
M  V30 9932 C 925.458 3.25799 -1.18558 0
M  V30 9933 C 924.519 3.56961 -2.3849 0
M  V30 9934 C 923.752 4.8578 -2.21029 0
M  V30 9935 O 923.975 5.57629 -1.20023 0
M  V30 9936 O 922.909 5.16254 -3.0946 0
M  V30 9937 H 926.735 1.94437 -2.33298 0
M  V30 9938 H 924.32 0.905091 -1.18863 0
M  V30 9939 H 926.202 4.0669 -1.1037 0
M  V30 9940 H 924.877 3.22716 -0.252241 0
M  V30 9941 H 923.784 2.7626 -2.52252 0
M  V30 9942 H 925.117 3.64798 -3.30429 0
M  V30 9943 N 926.769 1.22769 0.988202 0
M  V30 9944 C 927.699 1.02627 2.09738 0
M  V30 9945 C 928.68 -0.0543211 1.70013 0
M  V30 9946 O 929.865 0.108811 1.93895 0
M  V30 9947 C 926.995 0.608302 3.41931 0
M  V30 9948 C 925.949 1.63536 3.95525 0
M  V30 9949 C 925.275 1.07308 5.23822 0
M  V30 9950 C 926.575 3.02649 4.25677 0
M  V30 9951 H 928.269 1.954 2.26847 0
M  V30 9952 H 925.815 0.940888 1.09011 0
M  V30 9953 H 927.768 0.454478 4.18942 0
M  V30 9954 H 926.492 -0.355095 3.24664 0
M  V30 9955 H 925.151 1.77704 3.20651 0
M  V30 9956 H 924.799 0.100894 5.02899 0
M  V30 9957 H 924.499 1.75925 5.60646 0
M  V30 9958 H 926.023 0.930938 6.03462 0
M  V30 9959 H 927.437 2.91828 4.93467 0
M  V30 9960 H 925.834 3.68434 4.73684 0
M  V30 9961 H 926.904 3.52228 3.33262 0
M  V30 9962 N 928.247 -1.18576 1.03814 0
M  V30 9963 C 929.494 -1.88493 0.740036 0
M  V30 9964 C 929.822 -1.80198 -0.732056 0
M  V30 9965 O 929.077 -1.19509 -1.54971 0
M  V30 9966 C 929.376 -3.38448 1.14837 0
M  V30 9967 C 929.042 -3.66947 2.62031 0
M  V30 9968 C 927.704 -3.74435 3.02244 0
M  V30 9969 C 930.056 -3.79534 3.57217 0
M  V30 9970 C 927.384 -3.91986 4.36536 0
M  V30 9971 C 929.736 -3.986 4.91223 0
M  V30 9972 C 928.4 -4.04323 5.31111 0
M  V30 9973 H 927.67 -0.689746 0.270798 0
M  V30 9974 H 930.317 -1.40364 1.3027 0
M  V30 9975 H 928.622 -3.88539 0.504472 0
M  V30 9976 H 930.319 -3.90882 0.89511 0
M  V30 9977 H 926.909 -3.61734 2.29883 0
M  V30 9978 H 931.093 -3.73083 3.27296 0
M  V30 9979 H 926.349 -3.9466 4.66962 0
M  V30 9980 H 930.523 -4.07281 5.64885 0
M  V30 9981 H 928.15 -4.17676 6.35178 0
M  V30 9982 N 929.725 -0.817259 -1.34754 0
M  V30 9983 C 931.002 -0.325468 -1.92873 0
M  V30 9984 C 931.382 1.18643 -1.74606 0
M  V30 9985 O 930.73 1.9909 -1.1214 0
M  V30 9986 C 930.94 -0.74858 -3.40877 0
M  V30 9987 C 932.288 -0.744165 -4.18028 0
M  V30 9988 O 933.312 -0.690799 -3.49437 0
M  V30 9989 O 932.171 -0.812207 -5.40431 0
M  V30 9990 H 929.265 -0.0876397 -0.822343 0
M  V30 9991 H 931.811 -0.901671 -1.43764 0
M  V30 9992 H 930.583 -1.79017 -3.47949 0
M  V30 9993 H 930.206 -0.147764 -3.97325 0
M  V30 9994 N 931.203 1.46865 -0.571711 0
M  V30 9995 C 932.452 2.01636 -0.050881 0
M  V30 9996 C 932.765 1.45001 1.31279 0
M  V30 9997 O 933.971 1.91523 1.92435 0
M  V30 9998 C 932.427 3.59877 -0.0404114 0
M  V30 9999 C 932.035 4.25506 -1.40172 0
M  V30 10000 C 933.779 4.22346 0.42705 0
M  V30 10001 C 931.686 5.75795 -1.34958 0
M  V30 10002 H 930.616 0.753846 -0.0152514 0
M  V30 10003 H 933.267 1.68711 -0.721723 0
M  V30 10004 H 931.649 3.89829 0.696374 0
M  V30 10005 H 932.823 4.07178 -2.15737 0
M  V30 10006 H 931.138 3.75086 -1.8083 0
M  V30 10007 H 933.735 5.32499 0.484688 0
M  V30 10008 H 934.078 3.9052 1.44222 0
M  V30 10009 H 934.611 3.9698 -0.255326 0
M  V30 10010 H 931.35 6.12265 -2.3412 0
M  V30 10011 H 930.87 5.96419 -0.635962 0
M  V30 10012 H 932.549 6.38294 -1.05779 0
M  V30 10013 N 932.681 0.308908 1.54543 0
M  V30 10014 C 933.93 -0.298854 1.99474 0
M  V30 10015 C 934.243 -1.54393 1.20093 0
M  V30 10016 O 935.449 -2.22677 1.55329 0
M  V30 10017 C 933.905 -0.58303 3.55146 0
M  V30 10018 C 933.513 0.644157 4.43345 0
M  V30 10019 C 935.257 -1.15155 4.08582 0
M  V30 10020 C 933.164 0.332694 5.90463 0
M  V30 10021 H 932.094 -0.115445 0.74511 0
M  V30 10022 H 934.745 0.418848 1.78656 0
M  V30 10023 H 933.127 -1.36053 3.71894 0
M  V30 10024 H 934.301 1.42012 4.38371 0
M  V30 10025 H 932.616 1.13186 4.00722 0
M  V30 10026 H 935.213 -1.39896 5.16075 0
M  V30 10027 H 935.556 -2.09632 3.59667 0
M  V30 10028 H 936.089 -0.435571 3.95408 0
M  V30 10029 H 932.828 1.24624 6.43544 0
M  V30 10030 H 932.348 -0.405844 5.98425 0
M  V30 10031 H 934.027 -0.0628545 6.46969 0
M  V30 10032 N 934.159 -1.57557 0.0367827 0
M  V30 10033 C 935.436 -1.83427 -0.679261 0
M  V30 10034 C 935.816 -0.922274 -1.89888 0
M  V30 10035 O 935.164 0.02025 -2.28491 0
M  V30 10036 C 935.374 -3.32823 -1.05022 0
M  V30 10037 C 936.722 -3.99486 -1.43861 0
M  V30 10038 O 937.746 -3.37364 -1.14297 0
M  V30 10039 O 936.605 -5.0899 -1.98977 0
M  V30 10040 H 933.699 -0.756581 -0.333936 0
M  V30 10041 H 936.245 -1.69575 0.0650494 0
M  V30 10042 H 935.017 -3.90874 -0.182509 0
M  V30 10043 H 934.64 -3.5181 -1.85244 0
M  V30 10044 N 935.637 0.236453 -1.55816 0
M  V30 10045 C 937.048 0.80468 -1.68469 0
M  V30 10046 C 937.399 1.85601 -0.636133 0
M  V30 10047 O 936.524 2.15323 0.215622 0
M  V30 10048 C 937.119 1.46634 -3.05424 0
M  V30 10049 C 935.678 1.98214 -3.19981 0
M  V30 10050 C 934.825 0.83695 -2.64368 0
M  V30 10051 H 937.776 0.0120647 -1.58695 0
M  V30 10052 H 937.797 2.33472 -3.00451 0
M  V30 10053 H 937.309 0.700931 -3.81718 0
M  V30 10054 H 935.41 2.77604 -2.4853 0
M  V30 10055 H 935.523 2.17235 -4.2702 0
M  V30 10056 H 933.887 1.24028 -2.22462 0
M  V30 10057 H 934.67 0.084451 -3.43196 0
M  V30 10058 N 937.115 1.49373 0.502552 0
M  V30 10059 C 938.364 1.58028 1.25339 0
M  V30 10060 C 938.677 0.271494 1.93707 0
M  V30 10061 O 939.883 0.236584 2.70467 0
M  V30 10062 C 938.339 2.78817 2.27572 0
M  V30 10063 C 937.947 4.16448 1.65151 0
M  V30 10064 C 939.691 2.96802 3.03494 0
M  V30 10065 C 937.598 5.28461 2.65486 0
M  V30 10066 H 936.528 0.588396 0.471494 0
M  V30 10067 H 939.179 1.75756 0.52744 0
M  V30 10068 H 937.561 2.5458 3.03323 0
M  V30 10069 H 938.735 4.50816 0.954029 0
M  V30 10070 H 937.05 4.03809 1.01625 0
M  V30 10071 H 939.647 3.77656 3.78524 0
M  V30 10072 H 939.99 2.07303 3.61014 0
M  V30 10073 H 940.523 3.21071 2.34858 0
M  V30 10074 H 937.262 6.20015 2.12749 0
M  V30 10075 H 936.782 4.9855 3.33479 0
M  V30 10076 H 938.461 5.5773 3.27943 0
M  V30 10077 N 938.594 -0.753485 1.38421 0
M  V30 10078 C 939.557 -1.84888 1.35459 0
M  V30 10079 C 940.557 -1.58764 0.255083 0
M  V30 10080 O 941.747 -1.66507 0.511978 0
M  V30 10081 C 938.879 -3.22361 1.10888 0
M  V30 10082 H 940.072 -1.88922 2.32913 0
M  V30 10083 H 937.625 -0.955199 1.23716 0
M  V30 10084 H 938.36 -3.23996 0.1404 0
M  V30 10085 H 938.145 -3.42717 1.90492 0
M  V30 10086 H 939.635 -4.02437 1.1151 0
M  V30 10087 N 940.072 -1.23292 -0.981677 0
M  V30 10088 C 941.321 -1.05832 -1.71705 0
M  V30 10089 C 941.634 0.40514 -1.91358 0
M  V30 10090 O 942.84 0.699645 -2.6233 0
M  V30 10091 C 941.296 -1.84532 -3.08992 0
M  V30 10092 C 940.904 -3.35199 -2.9723 0
M  V30 10093 C 942.648 -1.75557 -3.86497 0
M  V30 10094 C 940.555 -4.06296 -4.29741 0
M  V30 10095 H 939.485 -0.39241 -0.64384 0
M  V30 10096 H 942.136 -1.47247 -1.09502 0
M  V30 10097 H 940.518 -1.35923 -3.71942 0
M  V30 10098 H 941.692 -3.91286 -2.43377 0
M  V30 10099 H 940.007 -3.44973 -2.332 0
M  V30 10100 H 942.604 -2.25989 -4.84596 0
M  V30 10101 H 942.947 -0.718101 -4.1006 0
M  V30 10102 H 943.48 -2.21771 -3.30246 0
M  V30 10103 H 940.219 -5.10344 -4.11375 0
M  V30 10104 H 939.739 -3.54997 -4.83464 0
M  V30 10105 H 941.418 -4.12519 -4.98434 0
M  V30 10106 N 941.55 1.18024 -1.04442 0
M  V30 10107 C 942.513 2.19992 -0.643136 0
M  V30 10108 C 943.513 1.57949 0.301444 0
M  V30 10109 O 944.703 1.73986 0.0863341 0
M  V30 10110 C 941.835 3.40853 0.0565208 0
M  V30 10111 H 943.028 2.57008 -1.54554 0
M  V30 10112 H 940.581 1.31974 -0.837408 0
M  V30 10113 H 941.316 3.09373 0.972553 0
M  V30 10114 H 941.101 3.87128 -0.622439 0
M  V30 10115 H 942.591 4.16344 0.323652 0
M  V30 10116 N 943.028 0.824394 1.34319 0
M  V30 10117 C 943.938 0.24932 2.33271 0
M  V30 10118 C 944.954 -0.617066 1.62691 0
M  V30 10119 O 946.13 -0.524616 1.94447 0
M  V30 10120 C 943.195 -0.578094 3.41846 0
M  V30 10121 C 942.256 0.310866 4.28173 0
M  V30 10122 C 941.489 -0.477153 5.31563 0
M  V30 10123 O 941.712 -1.71028 5.44156 0
M  V30 10124 O 940.646 0.141287 6.01734 0
M  V30 10125 H 944.472 1.06837 2.84288 0
M  V30 10126 H 942.057 0.58657 1.37403 0
M  V30 10127 H 943.939 -1.04878 4.0814 0
M  V30 10128 H 942.614 -1.37444 2.93071 0
M  V30 10129 H 941.521 0.829081 3.64797 0
M  V30 10130 H 942.854 1.07161 4.80393 0
M  V30 10131 N 944.506 -1.46559 0.579492 0
M  V30 10132 C 945.752 -2.02699 0.0639363 0
M  V30 10133 C 946.085 -1.4504 -1.29139 0
M  V30 10134 O 945.36 -0.614284 -1.84545 0
M  V30 10135 C 945.643 -3.601 -0.00528618 0
M  V30 10136 C 945.496 -4.28149 1.37871 0
M  V30 10137 C 946.815 -4.34375 -0.707537 0
M  V30 10138 H 943.934 -0.736586 0.0247085 0
M  V30 10139 H 946.576 -1.74739 0.746071 0
M  V30 10140 H 944.726 -3.84052 -0.586206 0
M  V30 10141 H 946.398 -4.1547 2.00455 0
M  V30 10142 H 944.641 -3.87636 1.94732 0
M  V30 10143 H 945.312 -5.36888 1.28278 0
M  V30 10144 H 947.788 -4.15549 -0.214064 0
M  V30 10145 H 946.664 -5.44091 -0.724992 0
M  V30 10146 H 946.925 -4.052 -1.7682 0
M  V30 10147 N 945.984 -0.3171 -1.54377 0
M  V30 10148 C 947.4 0.035766 -1.5956 0
M  V30 10149 C 947.6 1.51038 -1.33378 0
M  V30 10150 O 946.656 2.26546 -1.11505 0
M  V30 10151 C 947.969 -0.376652 -2.98332 0
M  V30 10152 C 949.517 -0.326765 -3.1129 0
M  V30 10153 C 949.992 -0.714247 -4.52396 0
M  V30 10154 N 951.483 -0.667402 -4.58367 0
M  V30 10155 C 952.218 -0.939494 -5.65651 0
M  V30 10156 N 951.714 -1.27839 -6.80903 0
M  V30 10157 N 953.507 -0.865484 -5.55397 0
M  V30 10158 H 945.658 -1.27794 -1.69654 0
M  V30 10159 H 947.921 -0.5192 -0.79318 0
M  V30 10160 H 947.627 -1.40381 -3.22469 0
M  V30 10161 H 947.501 0.261611 -3.76292 0
M  V30 10162 H 949.888 0.69117 -2.86892 0
M  V30 10163 H 949.969 -0.999873 -2.35449 0
M  V30 10164 H 949.613 -1.73007 -4.77526 0
M  V30 10165 H 949.543 -0.0188962 -5.26597 0
M  V30 10166 H 952.034 -0.417062 -3.75592 0
M  V30 10167 H 952.347 -1.47155 -7.5866 0
M  V30 10168 H 950.692 -1.31658 -6.82416 0
M  V30 10169 H 953.883 -0.600265 -4.64235 0
M  V30 10170 H 954.056 -1.0809 -6.38921 0
M  V30 10171 N 947.462 1.57535 -0.0451378 0
M  V30 10172 C 948.372 2.14653 0.946646 0
M  V30 10173 C 949.388 1.10279 1.3459 0
M  V30 10174 O 950.564 1.42417 1.42405 0
M  V30 10175 C 947.629 2.67533 2.20515 0
M  V30 10176 C 946.69 3.86682 1.86481 0
M  V30 10177 C 945.923 4.37031 3.06332 0
M  V30 10178 O 946.146 3.86481 4.1951 0
M  V30 10179 O 945.08 5.28691 2.87697 0
M  V30 10180 H 948.906 2.99706 0.49091 0
M  V30 10181 H 946.491 1.48355 0.17641 0
M  V30 10182 H 948.373 3.01542 2.94365 0
M  V30 10183 H 947.048 1.85554 2.65238 0
M  V30 10184 H 945.955 3.57573 1.09966 0
M  V30 10185 H 947.288 4.69873 1.46562 0
M  V30 10186 N 948.94 -0.228186 1.55939 0
M  V30 10187 C 949.903 -1.26621 1.91049 0
M  V30 10188 C 950.903 -1.40141 0.788491 0
M  V30 10189 O 952.093 -1.3852 1.05631 0
M  V30 10190 C 949.225 -2.64108 2.15545 0
M  V30 10191 H 950.418 -0.966978 2.83883 0
M  V30 10192 H 947.971 -0.468313 1.49119 0
M  V30 10193 H 948.706 -2.99141 1.25241 0
M  V30 10194 H 948.491 -2.55673 2.97277 0
M  V30 10195 H 949.981 -3.39025 2.43827 0
M  V30 10196 N 950.418 -1.49637 -0.494624 0
M  V30 10197 C 951.348 -1.69692 -1.60396 0
M  V30 10198 C 952.329 -0.545648 -1.61111 0
M  V30 10199 O 953.514 -0.782202 -1.77751 0
M  V30 10200 C 950.644 -1.76934 -2.9885 0
M  V30 10201 C 949.598 -2.91915 -3.13001 0
M  V30 10202 C 948.924 -2.84276 -4.5287 0
M  V30 10203 C 950.224 -4.32764 -2.92426 0
M  V30 10204 H 951.918 -2.6257 -1.43866 0
M  V30 10205 H 949.464 -1.26355 -0.690679 0
M  V30 10206 H 951.417 -1.8955 -3.76362 0
M  V30 10207 H 950.141 -0.806609 -3.16483 0
M  V30 10208 H 948.8 -2.78911 -2.37916 0
M  V30 10209 H 948.448 -1.85897 -4.67388 0
M  V30 10210 H 948.148 -3.61452 -4.63278 0
M  V30 10211 H 949.672 -2.98909 -5.32434 0
M  V30 10212 H 951.086 -4.46415 -3.59703 0
M  V30 10213 H 949.483 -5.1121 -3.143 0
M  V30 10214 H 950.553 -4.46765 -1.88491 0
M  V30 10215 N 951.896 0.746133 -1.38819 0
M  V30 10216 C 953.124 1.53539 -1.38685 0
M  V30 10217 C 953.539 1.88788 0.0215039 0
M  V30 10218 O 952.896 1.53312 0.990031 0
M  V30 10219 C 952.947 2.8299 -2.24942 0
M  V30 10220 O 952.668 2.49242 -3.60292 0
M  V30 10221 C 954.169 3.77085 -2.3307 0
M  V30 10222 H 951.389 0.474842 -0.474095 0
M  V30 10223 H 953.933 0.922844 -1.82493 0
M  V30 10224 H 952.088 3.40603 -1.84576 0
M  V30 10225 H 952.502 3.32319 -4.05789 0
M  V30 10226 H 953.976 4.64845 -2.97696 0
M  V30 10227 H 954.453 4.18049 -1.34655 0
M  V30 10228 H 955.059 3.25394 -2.73859 0
M  V30 10229 N 953.375 1.23811 0.975125 0
M  V30 10230 C 954.791 1.0019 1.24234 0
M  V30 10231 C 954.991 -0.293811 1.99346 0
M  V30 10232 O 954.047 -1.01189 2.31337 0
M  V30 10233 C 955.36 2.21218 2.03674 0
M  V30 10234 C 956.908 2.25764 2.16793 0
M  V30 10235 C 957.383 3.46394 2.99626 0
M  V30 10236 N 958.874 3.46665 3.07209 0
M  V30 10237 C 959.609 4.3666 3.71639 0
M  V30 10238 N 959.105 5.36899 4.37849 0
M  V30 10239 N 960.898 4.2439 3.68578 0
M  V30 10240 H 953.049 2.07087 0.472076 0
M  V30 10241 H 955.312 0.90838 0.271201 0
M  V30 10242 H 955.018 3.15277 1.55862 0
M  V30 10243 H 954.892 2.22733 3.04417 0
M  V30 10244 H 957.279 1.32242 2.63811 0
M  V30 10245 H 957.36 2.28279 1.15422 0
M  V30 10246 H 957.004 4.40227 2.53304 0
M  V30 10247 H 956.934 3.41121 4.01178 0
M  V30 10248 H 959.425 2.74142 2.60105 0
M  V30 10249 H 959.738 6.01816 4.84807 0
M  V30 10250 H 958.083 5.40793 4.36541 0
M  V30 10251 H 961.274 3.4532 3.16025 0
M  V30 10252 H 961.447 4.94727 4.18508 0
M  V30 10253 N 954.853 -1.17469 1.05066 0
M  V30 10254 C 956.081 -1.9162 0.780334 0
M  V30 10255 C 956.496 -1.76745 -0.663817 0
M  V30 10256 O 955.853 -1.10377 -1.45338 0
M  V30 10257 C 955.904 -3.42723 1.14992 0
M  V30 10258 O 955.625 -3.57139 2.53739 0
M  V30 10259 C 957.126 -4.33952 0.905549 0
M  V30 10260 H 954.346 -0.608022 0.283814 0
M  V30 10261 H 956.89 -1.4897 1.401 0
M  V30 10262 H 955.045 -3.83124 0.57403 0
M  V30 10263 H 955.459 -4.5075 2.68189 0
M  V30 10264 H 956.933 -5.38487 1.21391 0
M  V30 10265 H 957.41 -4.38911 -0.159295 0
M  V30 10266 H 958.016 -3.99263 1.46522 0
M  V30 10267 N 956.331 -0.831506 -1.3388 0
M  V30 10268 C 957.261 -0.274378 -2.31882 0
M  V30 10269 C 958.242 0.613872 -1.58637 0
M  V30 10270 O 959.427 0.538961 -1.86571 0
M  V30 10271 C 956.557 0.557498 -3.42796 0
M  V30 10272 C 955.511 -0.234337 -4.27358 0
M  V30 10273 C 954.837 0.720825 -5.29819 0
M  V30 10274 C 956.137 -1.44732 -5.01847 0
M  V30 10275 H 957.831 -1.09322 -2.78728 0
M  V30 10276 H 955.377 -0.527136 -1.34005 0
M  V30 10277 H 957.33 0.957501 -4.10378 0
M  V30 10278 H 956.054 1.40947 -2.94621 0
M  V30 10279 H 954.713 -0.61581 -3.61391 0
M  V30 10280 H 954.361 1.569 -4.77903 0
M  V30 10281 H 954.061 0.195171 -5.87276 0
M  V30 10282 H 955.585 1.1185 -6.00268 0
M  V30 10283 H 956.999 -1.12087 -5.62236 0
M  V30 10284 H 955.396 -1.90923 -5.68919 0
M  V30 10285 H 956.466 -2.22099 -4.31045 0
M  V30 10286 N 957.809 1.4625 -0.587256 0
M  V30 10287 C 958.772 2.28812 0.133238 0
M  V30 10288 C 959.772 1.38645 0.814513 0
M  V30 10289 O 960.962 1.60975 0.665774 0
M  V30 10290 C 958.094 3.19147 1.19824 0
M  V30 10291 H 959.287 2.93991 -0.592386 0
M  V30 10292 H 956.84 1.52435 -0.345416 0
M  V30 10293 H 957.575 2.58725 1.95529 0
M  V30 10294 H 957.36 3.85541 0.71418 0
M  V30 10295 H 958.85 3.81278 1.70344 0
M  V30 10296 N 959.287 0.325282 1.54207 0
M  V30 10297 C 960.515 -0.27869 2.05014 0
M  V30 10298 C 960.93 -1.45649 1.20133 0
M  V30 10299 O 960.287 -1.81014 0.232398 0
M  V30 10300 C 960.338 -0.711486 3.54429 0
M  V30 10301 O 960.059 0.419458 4.36087 0
M  V30 10302 C 961.56 -1.37809 4.21336 0
M  V30 10303 H 958.78 -0.0570388 0.668571 0
M  V30 10304 H 961.324 0.47197 1.98979 0
M  V30 10305 H 959.479 -1.41212 3.60746 0
M  V30 10306 H 959.893 0.0781037 5.24442 0
M  V30 10307 H 961.367 -1.63184 5.27328 0
M  V30 10308 H 961.844 -2.32593 3.72555 0
M  V30 10309 H 962.45 -0.719987 4.19161 0
M  V30 10310 N 960.765 -1.57509 0.0534917 0
M  V30 10311 C 961.675 -2.15152 -0.935249 0
M  V30 10312 C 962.691 -1.10991 -1.34003 0
M  V30 10313 O 963.867 -1.43171 -1.41648 0
M  V30 10314 C 960.932 -2.68699 -2.19093 0
M  V30 10315 C 959.993 -3.87666 -1.84428 0
M  V30 10316 C 959.226 -4.3865 -3.0401 0
M  V30 10317 O 959.449 -3.887 -4.17455 0
M  V30 10318 O 958.383 -5.30209 -2.84889 0
M  V30 10319 H 962.209 -2.99962 -0.475009 0
M  V30 10320 H 959.794 -1.48446 -0.16854 0
M  V30 10321 H 961.676 -3.03098 -2.92762 0
M  V30 10322 H 960.351 -1.86958 -2.6425 0
M  V30 10323 H 959.258 -3.58151 -1.08068 0
M  V30 10324 H 960.591 -4.70643 -1.44068 0
M  V30 10325 N 962.243 0.219913 -1.56058 0
M  V30 10326 C 963.173 1.27572 -1.9557 0
M  V30 10327 C 964.154 1.48801 -0.824148 0
M  V30 10328 O 965.339 1.60957 -1.08658 0
M  V30 10329 C 962.469 2.62517 -2.27381 0
M  V30 10330 C 961.423 2.55941 -3.43042 0
M  V30 10331 C 960.749 3.94931 -3.60463 0
M  V30 10332 C 962.049 2.10584 -4.77966 0
M  V30 10333 H 963.743 0.947482 -2.84013 0
M  V30 10334 H 961.289 0.454337 -1.36645 0
M  V30 10335 H 963.242 3.36538 -2.53615 0
M  V30 10336 H 961.966 2.97031 -1.35794 0
M  V30 10337 H 960.625 1.84377 -3.1686 0
M  V30 10338 H 960.273 4.26756 -2.66249 0
M  V30 10339 H 959.973 3.91413 -4.38258 0
M  V30 10340 H 961.497 4.70611 -3.89046 0
M  V30 10341 H 962.911 2.74349 -5.03394 0
M  V30 10342 H 961.308 2.18122 -5.59055 0
M  V30 10343 H 962.378 1.05818 -4.73213 0
M  V30 10344 N 963.721 1.49897 0.486681 0
M  V30 10345 C 964.684 1.67086 1.56891 0
M  V30 10346 C 965.684 0.54209 1.51387 0
M  V30 10347 O 966.874 0.80883 1.54284 0
M  V30 10348 C 964.006 1.68159 2.96539 0
M  V30 10349 H 965.199 2.63626 1.42974 0
M  V30 10350 H 962.752 1.39143 0.711954 0
M  V30 10351 H 963.487 0.732562 3.15918 0
M  V30 10352 H 963.272 2.50147 3.01942 0
M  V30 10353 H 964.762 1.83466 3.7514 0
M  V30 10354 N 965.199 -0.738761 1.39212 0
M  V30 10355 C 966.476 -1.48982 1.26742 0
M  V30 10356 C 966.856 -2.10732 -0.12466 0
M  V30 10357 O 966.204 -1.98287 -1.13554 0
M  V30 10358 C 966.414 -2.54427 2.38889 0
M  V30 10359 C 967.762 -3.20915 2.78027 0
M  V30 10360 O 968.786 -2.64738 2.38311 0
M  V30 10361 O 967.645 -4.22558 3.46565 0
M  V30 10362 H 964.739 -0.661395 0.496473 0
M  V30 10363 H 967.285 -0.772907 1.51077 0
M  V30 10364 H 966.057 -2.07151 3.3197 0
M  V30 10365 H 965.68 -3.33682 2.162 0
M  V30 10366 N 966.677 -1.24326 -0.968545 0
M  V30 10367 C 967.587 -1.05194 -2.09694 0
M  V30 10368 C 968.603 0.00701291 -1.73999 0
M  V30 10369 O 969.779 -0.190981 -2.00492 0
M  V30 10370 C 966.844 -0.658075 -3.40397 0
M  V30 10371 C 965.905 -1.79341 -3.90045 0
M  V30 10372 C 965.138 -1.41824 -5.14511 0
M  V30 10373 O 965.361 -0.307693 -5.69569 0
M  V30 10374 O 964.295 -2.24358 -5.58522 0
M  V30 10375 H 968.121 -1.99791 -2.2873 0
M  V30 10376 H 965.706 -1.03138 -1.08088 0
M  V30 10377 H 967.588 -0.449911 -4.18991 0
M  V30 10378 H 966.263 0.258782 -3.22664 0
M  V30 10379 H 965.17 -2.05632 -3.12516 0
M  V30 10380 H 966.503 -2.68901 -4.12254 0
M  V30 10381 N 968.156 1.1691 -1.05688 0
M  V30 10382 C 969.086 2.23275 -0.683402 0
M  V30 10383 C 970.067 1.6704 0.321206 0
M  V30 10384 O 971.252 1.93191 0.197691 0
M  V30 10385 C 968.382 3.47244 -0.0626006 0
M  V30 10386 C 967.336 4.16333 -0.992513 0
M  V30 10387 C 966.662 5.34182 -0.23533 0
M  V30 10388 C 967.962 4.68002 -2.31886 0
M  V30 10389 H 969.656 2.54771 -1.57264 0
M  V30 10390 H 967.202 1.2246 -0.757606 0
M  V30 10391 H 969.155 4.20874 0.210503 0
M  V30 10392 H 967.879 3.1503 0.861616 0
M  V30 10393 H 966.538 3.44622 -1.25026 0
M  V30 10394 H 966.186 4.9822 0.69181 0
M  V30 10395 H 965.886 5.81346 -0.855002 0
M  V30 10396 H 967.41 6.10592 0.0303717 0
M  V30 10397 H 968.824 5.33244 -2.10531 0
M  V30 10398 H 967.221 5.25764 -2.89296 0
M  V30 10399 H 968.291 3.84541 -2.95391 0
M  V30 10400 N 969.634 0.838594 1.33437 0
M  V30 10401 C 970.564 0.286672 2.31734 0
M  V30 10402 C 971.545 -0.605451 1.5896 0
M  V30 10403 O 972.73 -0.529059 1.86854 0
M  V30 10404 C 969.86 -0.539311 3.43087 0
M  V30 10405 C 968.814 0.256997 4.27228 0
M  V30 10406 C 968.14 -0.692718 5.30194 0
M  V30 10407 C 969.44 1.47391 5.01072 0
M  V30 10408 H 971.134 1.10798 2.78144 0
M  V30 10409 H 968.68 0.534235 1.33723 0
M  V30 10410 H 970.633 -0.935724 4.1088 0
M  V30 10411 H 969.357 -1.39383 2.95364 0
M  V30 10412 H 968.016 0.634967 3.61059 0
M  V30 10413 H 967.664 -1.54363 4.78729 0
M  V30 10414 H 967.364 -0.164023 5.87371 0
M  V30 10415 H 968.888 -1.08665 6.00853 0
M  V30 10416 H 970.302 1.15067 5.61634 0
M  V30 10417 H 968.699 1.93937 5.67898 0
M  V30 10418 H 969.769 2.24382 4.29861 0
M  V30 10419 N 971.112 -1.45937 0.595003 0
M  V30 10420 C 972.075 -2.2888 -0.121102 0
M  V30 10421 C 973.075 -1.39075 -0.807149 0
M  V30 10422 O 974.265 -1.61326 -0.657228 0
M  V30 10423 C 971.397 -3.19778 -1.1813 0
M  V30 10424 H 972.59 -2.93673 0.607968 0
M  V30 10425 H 970.143 -1.5225 0.353495 0
M  V30 10426 H 970.878 -2.59759 -1.94154 0
M  V30 10427 H 970.663 -3.85914 -0.693724 0
M  V30 10428 H 972.153 -3.82176 -1.68319 0
M  V30 10429 N 972.59 -0.333456 -1.54032 0
M  V30 10430 C 973.839 0.267081 -1.99924 0
M  V30 10431 C 974.152 1.52463 -1.22534 0
M  V30 10432 O 975.358 2.20178 -1.58852 0
M  V30 10433 C 973.814 0.526456 -3.56029 0
M  V30 10434 C 973.422 -0.714607 -4.42264 0
M  V30 10435 C 975.166 1.0864 -4.10363 0
M  V30 10436 C 973.073 -0.42659 -5.89859 0
M  V30 10437 H 972.003 0.103577 -0.746852 0
M  V30 10438 H 974.654 -0.447218 -1.77967 0
M  V30 10439 H 973.036 1.3012 -3.74012 0
M  V30 10440 H 974.21 -1.48968 -4.36056 0
M  V30 10441 H 972.525 -1.19547 -3.9887 0
M  V30 10442 H 975.122 1.31668 -5.18235 0
M  V30 10443 H 975.465 2.03884 -3.62956 0
M  V30 10444 H 975.998 0.37261 -3.96051 0
M  V30 10445 H 972.737 -1.34847 -6.4148 0
M  V30 10446 H 972.257 0.310588 -5.98995 0
M  V30 10447 H 973.936 -0.0400807 -6.46988 0
M  V30 10448 N 974.068 1.57479 -0.061844 0
M  V30 10449 C 975.298 1.97142 0.61794 0
M  V30 10450 C 975.706 0.938533 1.64281 0
M  V30 10451 O 975.049 -0.084385 1.83506 0
M  V30 10452 C 975.111 3.33083 1.35263 0
M  V30 10453 C 974.775 4.54447 0.482372 0
M  V30 10454 C 975.772 5.1927 -0.255954 0
M  V30 10455 C 973.457 5.00623 0.410167 0
M  V30 10456 C 975.451 6.28612 -1.05481 0
M  V30 10457 C 973.138 6.09839 -0.392369 0
M  V30 10458 C 974.136 6.73696 -1.12354 0
M  V30 10459 O 973.824 7.80811 -1.91285 0
M  V30 10460 H 973.556 0.653497 0.172969 0
M  V30 10461 H 976.11 2.05002 -0.127781 0
M  V30 10462 H 974.34 3.21808 2.14421 0
M  V30 10463 H 976.029 3.5742 1.92368 0
M  V30 10464 H 976.795 4.84546 -0.209703 0
M  V30 10465 H 972.674 4.50704 0.968883 0
M  V30 10466 H 976.218 6.78385 -1.62602 0
M  V30 10467 H 972.115 6.43997 -0.44022 0
M  V30 10468 H 972.883 7.9764 -1.83611 0
M  V30 10469 N 975.546 -0.211634 1.56173 0
M  V30 10470 C 976.494 -1.28188 1.94089 0
M  V30 10471 C 977.488 -1.47999 0.824167 0
M  V30 10472 O 978.694 -1.49056 1.00907 0
M  V30 10473 H 975.069 -0.42999 0.616938 0
M  V30 10474 H 977.04 -0.934962 2.83374 0
M  V30 10475 C 975.789 -2.62294 2.28248 0
M  V30 10476 H 975.112 -2.4786 3.13696 0
M  V30 10477 H 976.552 -3.35967 2.58655 0
M  V30 10478 C 975.011 -3.18049 1.11113 0
M  V30 10479 O 975.541 -3.99923 0.377458 0
M  V30 10480 N 973.747 -2.76561 0.892321 0
M  V30 10481 H 973.294 -2.10088 1.49067 0
M  V30 10482 H 973.252 -3.14206 0.110344 0
M  V30 10483 N 977.024 -1.50153 -0.478725 0
M  V30 10484 C 977.987 -1.67916 -1.56003 0
M  V30 10485 C 978.987 -0.550111 -1.51097 0
M  V30 10486 O 980.177 -0.817001 -1.53853 0
M  V30 10487 C 977.309 -1.6973 -2.95643 0
M  V30 10488 H 978.502 -2.6438 -1.41573 0
M  V30 10489 H 976.055 -1.39519 -0.704565 0
M  V30 10490 H 976.79 -0.749306 -3.15525 0
M  V30 10491 H 976.575 -2.51745 -3.00611 0
M  V30 10492 H 978.065 -1.85453 -3.74162 0
M  V30 10493 N 978.502 0.731368 -1.39602 0
M  V30 10494 C 979.45 1.86676 -1.38761 0
M  V30 10495 C 980.444 1.6723 -0.270247 0
M  V30 10496 O 981.65 1.74528 -0.440471 0
M  V30 10497 H 978.025 0.614553 -0.433391 0
M  V30 10498 H 979.996 1.84501 -2.34525 0
M  V30 10499 C 978.745 3.24394 -1.25155 0
M  V30 10500 H 978.068 3.39955 -2.10406 0
M  V30 10501 H 979.508 4.04019 -1.28625 0
M  V30 10502 C 977.967 3.36877 0.0396976 0
M  V30 10503 O 978.497 3.88833 1.00854 0
M  V30 10504 N 976.703 2.90414 0.103965 0
M  V30 10505 H 976.25 2.48321 -0.685155 0
M  V30 10506 H 976.208 2.99146 0.967435 0
M  V30 10507 N 979.98 1.24838 0.961938 0
M  V30 10508 C 981.21 1.11709 1.73795 0
M  V30 10509 C 981.618 -0.33263 1.86253 0
M  V30 10510 O 980.961 -1.24101 1.35443 0
M  V30 10511 C 981.023 1.68959 3.17322 0
M  V30 10512 C 980.687 3.17895 3.28316 0
M  V30 10513 C 981.684 4.14975 3.13196 0
M  V30 10514 C 979.369 3.57966 3.52372 0
M  V30 10515 C 981.363 5.50107 3.21965 0
M  V30 10516 C 979.05 4.93237 3.60778 0
M  V30 10517 C 980.048 5.89116 3.45588 0
M  V30 10518 O 979.736 7.21927 3.53662 0
M  V30 10519 H 979.468 0.390726 0.551642 0
M  V30 10520 H 982.022 1.65541 1.21594 0
M  V30 10521 H 980.252 1.09567 3.70853 0
M  V30 10522 H 981.941 1.51036 3.76753 0
M  V30 10523 H 982.707 3.85359 2.94489 0
M  V30 10524 H 978.586 2.83837 3.63259 0
M  V30 10525 H 982.13 6.24924 3.10025 0
M  V30 10526 H 978.027 5.22522 3.79 0
M  V30 10527 H 978.795 7.29925 3.7034 0
M  V30 10528 N 981.458 -1.16348 1.06306 0
M  V30 10529 C 982.39 -2.20316 0.631929 0
M  V30 10530 C 983.403 -1.59819 -0.310133 0
M  V30 10531 O 984.592 -1.78213 -0.101103 0
M  V30 10532 C 981.692 -3.3877 -0.0937645 0
M  V30 10533 C 980.865 -4.28826 0.861816 0
M  V30 10534 C 979.924 -5.25908 0.175346 0
M  V30 10535 O 978.95 -5.63363 0.813039 0
M  V30 10536 N 980.152 -5.70307 -1.08305 0
M  V30 10537 H 982.917 -2.57925 1.52626 0
M  V30 10538 H 980.478 -1.31358 0.946392 0
M  V30 10539 H 982.47 -4.00759 -0.563412 0
M  V30 10540 H 981.04 -2.99666 -0.889904 0
M  V30 10541 H 980.26 -3.64098 1.51083 0
M  V30 10542 H 981.548 -4.85875 1.51007 0
M  V30 10543 H 980.946 -5.4197 -1.62127 0
M  V30 10544 H 979.503 -6.34387 -1.49656 0
M  V30 10545 N 982.937 -0.845659 -1.3299 0
M  V30 10546 C 984.162 -0.457435 -2.02293 0
M  V30 10547 C 984.587 0.935634 -1.63179 0
M  V30 10548 O 983.945 1.61297 -0.827835 0
M  V30 10549 C 983.993 -0.593665 -3.5568 0
M  V30 10550 O 983.097 0.37729 -4.10671 0
M  V30 10551 H 982.438 -0.185022 -0.637701 0
M  V30 10552 H 984.968 -1.14237 -1.69738 0
M  V30 10553 H 984.978 -0.477834 -4.05192 0
M  V30 10554 H 983.653 -1.60957 -3.83491 0
M  V30 10555 H 982.23 0.218448 -3.7226 0
M  V30 10556 N 984.415 1.45619 -0.602734 0
M  V30 10557 C 985.325 2.34288 0.120902 0
M  V30 10558 C 986.341 1.50952 0.865414 0
M  V30 10559 O 987.517 1.83768 0.824094 0
M  V30 10560 C 984.582 3.28489 1.10888 0
M  V30 10561 C 983.643 4.2773 0.366853 0
M  V30 10562 C 982.876 5.17429 1.30776 0
M  V30 10563 O 983.099 5.10459 2.54535 0
M  V30 10564 O 982.033 5.96459 0.807464 0
M  V30 10565 H 985.859 2.97559 -0.60765 0
M  V30 10566 H 983.444 1.44922 -0.363019 0
M  V30 10567 H 985.326 3.86549 1.67803 0
M  V30 10568 H 984.001 2.67789 1.81854 0
M  V30 10569 H 982.908 3.73299 -0.244643 0
M  V30 10570 H 984.241 4.91271 -0.302226 0
M  V30 10571 N 985.893 0.34162 1.53853 0
M  V30 10572 C 987.123 -0.256557 2.05001 0
M  V30 10573 C 987.531 -1.44916 1.21639 0
M  V30 10574 O 986.874 -1.8207 0.244138 0
M  V30 10575 C 986.936 -0.737109 3.51862 0
M  V30 10576 C 986.6 0.335584 4.55766 0
M  V30 10577 C 987.597 1.17765 5.06387 0
M  V30 10578 C 985.282 0.488958 4.99914 0
M  V30 10579 C 987.276 2.15865 5.99734 0
M  V30 10580 C 984.963 1.47336 5.93073 0
M  V30 10581 C 985.961 2.30666 6.4287 0
M  V30 10582 O 985.649 3.2743 7.34197 0
M  V30 10583 H 985.381 -0.0536867 0.673865 0
M  V30 10584 H 987.935 0.49123 1.99439 0
M  V30 10585 H 986.165 -1.53611 3.54881 0
M  V30 10586 H 987.854 -1.25562 3.85991 0
M  V30 10587 H 988.62 1.07023 4.73044 0
M  V30 10588 H 984.499 -0.149807 4.60757 0
M  V30 10589 H 988.043 2.80945 6.38526 0
M  V30 10590 H 983.94 1.58134 6.25831 0
M  V30 10591 H 984.708 3.22879 7.52125 0
M  V30 10592 N 987.371 -1.57444 0.0701946 0
M  V30 10593 C 988.787 -1.57009 -0.286431 0
M  V30 10594 C 988.987 -1.07946 -1.70147 0
M  V30 10595 O 988.043 -0.744622 -2.41271 0
M  V30 10596 C 989.356 -3.00542 -0.0975466 0
M  V30 10597 C 990.904 -3.12553 -0.167205 0
M  V30 10598 C 991.379 -4.58 -0.00662047 0
M  V30 10599 N 992.87 -4.63158 -0.0622778 0
M  V30 10600 C 993.605 -5.73388 0.0375831 0
M  V30 10601 N 993.101 -6.92537 0.190873 0
M  V30 10602 N 994.894 -5.62097 -0.0193672 0
M  V30 10603 H 987.045 -1.87651 0.995023 0
M  V30 10604 H 989.308 -0.865006 0.387902 0
M  V30 10605 H 989.014 -3.40543 0.878822 0
M  V30 10606 H 988.888 -3.67485 -0.850547 0
M  V30 10607 H 991.275 -2.72439 -1.13406 0
M  V30 10608 H 991.356 -2.48251 0.616871 0
M  V30 10609 H 991 -4.98803 0.956992 0
M  V30 10610 H 990.93 -5.20332 -0.810081 0
M  V30 10611 H 993.421 -3.77475 -0.179229 0
M  V30 10612 H 993.734 -7.72365 0.25926 0
M  V30 10613 H 992.079 -6.94632 0.226214 0
M  V30 10614 H 995.27 -4.67897 -0.137815 0
M  V30 10615 H 995.443 -6.4797 0.0619121 0
M  V30 10616 N 988.849 0.203349 -1.56283 0
M  V30 10617 C 990.095 0.926381 -1.80405 0
M  V30 10618 C 990.428 1.8325 -0.642883 0
M  V30 10619 O 989.703 1.91196 0.356998 0
M  V30 10620 C 989.986 1.74972 -3.14733 0
M  V30 10621 C 989.839 0.868866 -4.41328 0
M  V30 10622 C 991.158 2.72394 -3.45672 0
M  V30 10623 H 988.277 0.335346 -0.656286 0
M  V30 10624 H 990.919 0.1942 -1.89005 0
M  V30 10625 H 989.069 2.37394 -3.07533 0
M  V30 10626 H 990.741 0.259986 -4.60567 0
M  V30 10627 H 988.984 0.175161 -4.33446 0
M  V30 10628 H 989.655 1.47975 -5.31796 0
M  V30 10629 H 992.131 2.20105 -3.53119 0
M  V30 10630 H 991.007 3.27091 -4.40798 0
M  V30 10631 H 991.268 3.51035 -2.6875 0
M  V30 10632 N 990.327 1.50405 0.470755 0
M  V30 10633 C 991.237 1.7208 1.59454 0
M  V30 10634 C 992.253 0.603932 1.63183 0
M  V30 10635 O 993.429 0.882296 1.81046 0
M  V30 10636 C 990.494 1.81057 2.95667 0
M  V30 10637 C 989.555 3.04792 3.02324 0
M  V30 10638 C 988.788 3.13332 4.3204 0
M  V30 10639 O 989.011 2.28655 5.22564 0
M  V30 10640 O 987.945 4.0606 4.44296 0
M  V30 10641 H 991.771 2.67343 1.44089 0
M  V30 10642 H 989.356 1.34505 0.650286 0
M  V30 10643 H 991.238 1.8914 3.76569 0
M  V30 10644 H 989.913 0.889782 3.11231 0
M  V30 10645 H 988.82 3.0221 2.205 0
M  V30 10646 H 990.153 3.96451 2.91698 0
M  V30 10647 N 991.805 -0.723954 1.39988 0
M  V30 10648 C 992.755 -1.82943 1.36073 0
M  V30 10649 C 993.739 -1.59105 0.239682 0
M  V30 10650 O 994.931 -1.7042 0.478116 0
M  V30 10651 C 992.06 -3.20988 1.21745 0
M  V30 10652 C 991.146 -3.50618 2.38596 0
M  V30 10653 N 991.537 -3.51115 3.64077 0
M  V30 10654 C 989.835 -3.81035 2.31794 0
M  V30 10655 C 990.536 -3.78852 4.41413 0
M  V30 10656 N 989.512 -3.97182 3.71143 0
M  V30 10657 H 993.314 -1.81649 2.31043 0
M  V30 10658 H 990.828 -0.922703 1.33641 0
M  V30 10659 H 992.825 -4.00139 1.17022 0
M  V30 10660 H 991.485 -3.23513 0.277344 0
M  V30 10661 H 992.496 -3.32163 3.97351 0
M  V30 10662 H 989.173 -3.911 1.46105 0
M  V30 10663 H 990.563 -3.85612 5.5023 0
M  V30 10664 N 993.283 -1.25346 -0.955304 0
M  V30 10665 C 994.193 -1.07412 -2.08566 0
M  V30 10666 C 995.209 -0.0114424 -1.73996 0
M  V30 10667 O 996.385 -0.212236 -2.00279 0
M  V30 10668 C 993.45 -0.694141 -3.3968 0
M  V30 10669 C 992.511 -1.83468 -3.88121 0
M  V30 10670 C 991.744 -1.47274 -5.12978 0
M  V30 10671 O 991.967 -0.368086 -5.69211 0
M  V30 10672 O 990.901 -2.30269 -5.56111 0
M  V30 10673 H 994.727 -2.02206 -2.26598 0
M  V30 10674 H 992.312 -1.04279 -1.06988 0
M  V30 10675 H 994.194 -0.494325 -4.18491 0
M  V30 10676 H 992.869 0.224545 -3.2292 0
M  V30 10677 H 991.776 -2.08935 -3.10318 0
M  V30 10678 H 993.109 -2.73258 -4.09379 0
M  V30 10679 N 994.761 1.15782 -1.06922 0
M  V30 10680 C 996.038 1.8253 -0.703 0
M  V30 10681 C 996.418 1.94733 0.814994 0
M  V30 10682 O 995.766 1.49537 1.72774 0
M  V30 10683 C 995.976 3.19145 -1.41234 0
M  V30 10684 C 997.324 3.94839 -1.56164 0
M  V30 10685 O 998.348 3.28685 -1.37277 0
M  V30 10686 O 997.207 5.13436 -1.87205 0
M  V30 10687 H 994.301 0.788425 -0.24963 0
M  V30 10688 H 996.847 1.22931 -1.16988 0
M  V30 10689 H 995.619 3.05336 -2.44715 0
M  V30 10690 H 995.242 3.86427 -0.935959 0
M  V30 10691 N 996.239 0.8527 1.3254 0
M  V30 10692 C 997.488 0.45136 1.96585 0
M  V30 10693 C 997.801 -0.997773 1.68237 0
M  V30 10694 O 999.007 -1.50445 2.26006 0
M  V30 10695 C 997.463 0.75619 3.51866 0
M  V30 10696 C 997.071 2.22092 3.89075 0
M  V30 10697 C 998.815 0.422478 4.22392 0
M  V30 10698 C 996.722 2.46908 5.37392 0
M  V30 10699 H 995.652 0.165052 0.735713 0
M  V30 10700 H 998.303 1.04321 1.50962 0
M  V30 10701 H 996.685 0.0937988 3.95889 0
M  V30 10702 H 997.859 2.92494 3.56067 0
M  V30 10703 H 996.174 2.51896 3.31568 0
M  V30 10704 H 998.771 0.58533 5.31487 0
M  V30 10705 H 999.114 -0.635737 4.11417 0
M  V30 10706 H 999.647 1.04068 3.83946 0
M  V30 10707 H 996.386 3.51346 5.53386 0
M  V30 10708 H 995.906 1.81082 5.71812 0
M  V30 10709 H 997.585 2.30758 6.0445 0
M  V30 10710 N 997.718 -1.45297 0.610449 0
M  V30 10711 C 998.681 -2.28995 -0.0968194 0
M  V30 10712 C 999.681 -1.39923 -0.792353 0
M  V30 10713 O 1000.87 -1.62014 -0.64008 0
M  V30 10714 C 998.003 -3.21013 -1.14731 0
M  V30 10715 H 999.196 -2.93012 0.639082 0
M  V30 10716 H 996.749 -1.51867 0.369624 0
M  V30 10717 H 997.484 -2.61803 -1.91388 0
M  V30 10718 H 997.269 -3.86628 -0.652753 0
M  V30 10719 H 998.759 -3.8394 -1.64256 0
M  V30 10720 N 999.196 -0.349774 -1.5367 0
M  V30 10721 C 1000.14 0.504121 -2.25227 0
M  V30 10722 C 1001.11 1.09048 -1.2529 0
M  V30 10723 O 1002.3 1.12594 -1.54037 0
M  V30 10724 C 999.438 1.64601 -3.03316 0
M  V30 10725 C 998.551 1.08635 -4.18118 0
M  V30 10726 C 997.686 2.19605 -4.83681 0
M  V30 10727 C 996.725 1.61023 -5.90541 0
M  V30 10728 N 995.862 2.6576 -6.49858 0
M  V30 10729 H 1000.7 -0.112621 -2.97787 0
M  V30 10730 H 998.239 -0.0673503 -1.46946 0
M  V30 10731 H 1000.2 2.31836 -3.46854 0
M  V30 10732 H 998.827 2.23364 -2.33041 0
M  V30 10733 H 997.879 0.304748 -3.79177 0
M  V30 10734 H 999.191 0.617911 -4.94958 0
M  V30 10735 H 998.345 2.94693 -5.30322 0
M  V30 10736 H 997.084 2.69795 -4.06278 0
M  V30 10737 H 996.089 0.844428 -5.43277 0
M  V30 10738 H 997.314 1.11677 -6.69855 0
M  V30 10739 H 995.26 3.15193 -5.75317 0
M  V30 10740 H 995.177 2.23557 -7.2219 0
M  V30 10741 H 996.445 3.40598 -7.01151 0
M  V30 10742 N 1000.67 1.57404 -0.0785433 0
M  V30 10743 C 1002.09 1.57158 0.2781 0
M  V30 10744 C 1002.29 1.08847 1.69572 0
M  V30 10745 O 1001.35 0.757407 2.40873 0
M  V30 10746 C 1002.66 3.00589 0.0816067 0
M  V30 10747 C 1004.21 3.12637 0.150627 0
M  V30 10748 C 1004.68 4.57997 -0.0176685 0
M  V30 10749 N 1006.17 4.63185 0.0377145 0
M  V30 10750 C 1006.91 5.7336 -0.0679907 0
M  V30 10751 N 1006.4 6.92426 -0.227598 0
M  V30 10752 N 1008.2 5.62099 -0.0104424 0
M  V30 10753 H 1000.35 1.87121 -1.00496 0
M  V30 10754 H 1002.61 0.862937 -0.392484 0
M  V30 10755 H 1002.32 3.40072 -0.896869 0
M  V30 10756 H 1002.19 3.67931 0.831046 0
M  V30 10757 H 1004.58 2.73037 1.11959 0
M  V30 10758 H 1004.66 2.4792 -0.630028 0
M  V30 10759 H 1004.3 4.98288 -0.983431 0
M  V30 10760 H 1004.23 5.20754 0.782475 0
M  V30 10761 H 1006.72 3.77564 0.159208 0
M  V30 10762 H 1007.04 7.72217 -0.300217 0
M  V30 10763 H 1005.38 6.94502 -0.263049 0
M  V30 10764 H 1008.57 4.67964 0.112999 0
M  V30 10765 H 1008.75 6.47928 -0.0962747 0
M  V30 10766 N 1002.15 -0.195058 1.56388 0
M  V30 10767 C 1003.38 -0.931642 1.84738 0
M  V30 10768 C 1003.79 -1.76849 0.661046 0
M  V30 10769 O 1003.15 -1.78705 -0.370241 0
M  V30 10770 C 1003.2 -1.82777 3.11889 0
M  V30 10771 O 1002.92 -1.02471 4.25948 0
M  V30 10772 C 1004.42 -2.67603 3.53417 0
M  V30 10773 H 1001.64 -0.271821 0.613477 0
M  V30 10774 H 1004.19 -0.202299 2.03497 0
M  V30 10775 H 1002.34 -2.51074 2.95027 0
M  V30 10776 H 1002.76 -1.63539 4.98353 0
M  V30 10777 H 1004.23 -3.26138 4.45352 0
M  V30 10778 H 1004.71 -3.41314 2.76408 0
M  V30 10779 H 1005.31 -2.04678 3.7281 0
M  V30 10780 N 1003.63 -1.50653 -0.462772 0
M  V30 10781 C 1004.56 -1.73056 -1.5676 0
M  V30 10782 C 1005.54 -0.579699 -1.59917 0
M  V30 10783 O 1006.73 -0.819729 -1.76051 0
M  V30 10784 C 1003.86 -1.83234 -2.9503 0
M  V30 10785 C 1002.81 -2.98488 -3.06739 0
M  V30 10786 C 1002.14 -2.93818 -4.46738 0
M  V30 10787 C 1003.44 -4.38869 -2.83181 0
M  V30 10788 H 1005.13 -2.65562 -1.38265 0
M  V30 10789 H 1002.68 -1.27792 -0.663722 0
M  V30 10790 H 1004.63 -1.97491 -3.72257 0
M  V30 10791 H 1003.35 -0.873558 -3.14701 0
M  V30 10792 H 1002.01 -2.83895 -2.31946 0
M  V30 10793 H 1001.66 -1.95769 -4.63339 0
M  V30 10794 H 1001.36 -3.71197 -4.55507 0
M  V30 10795 H 1002.88 -3.10135 -5.25974 0
M  V30 10796 H 1004.3 -4.53945 -3.50153 0
M  V30 10797 H 1002.69 -5.17762 -3.03386 0
M  V30 10798 H 1003.76 -4.50663 -1.78972 0
M  V30 10799 N 1005.11 0.71652 -1.4037 0
M  V30 10800 C 1006.52 1.02447 -1.22379 0
M  V30 10801 C 1006.72 2.0126 -0.0983394 0
M  V30 10802 O 1005.78 2.46569 0.544071 0
M  V30 10803 C 1007.09 1.56909 -2.56515 0
M  V30 10804 C 1008.64 1.68898 -2.6352 0
M  V30 10805 C 1009.12 2.26765 -3.97922 0
M  V30 10806 N 1010.61 2.34152 -3.99658 0
M  V30 10807 C 1011.34 2.79907 -5.00439 0
M  V30 10808 N 1010.84 3.25422 -6.11615 0
M  V30 10809 N 1012.63 2.79283 -4.87809 0
M  V30 10810 H 1004.78 0.0615306 -2.12311 0
M  V30 10811 H 1007.05 0.0898994 -0.943728 0
M  V30 10812 H 1006.75 0.917649 -3.39517 0
M  V30 10813 H 1006.63 2.55446 -2.77538 0
M  V30 10814 H 1009.01 2.33159 -1.8089 0
M  V30 10815 H 1009.09 0.689626 -2.46329 0
M  V30 10816 H 1008.74 1.63126 -4.80991 0
M  V30 10817 H 1008.67 3.27413 -4.12442 0
M  V30 10818 H 1011.16 2.02006 -3.19378 0
M  V30 10819 H 1011.47 3.58899 -6.84406 0
M  V30 10820 H 1009.82 3.23383 -6.15181 0
M  V30 10821 H 1013.01 2.43061 -4.00049 0
M  V30 10822 H 1013.18 3.14626 -5.66493 0
M  V30 10823 N 1006.59 1.25851 0.948643 0
M  V30 10824 C 1007.53 1.06559 2.06756 0
M  V30 10825 C 1008.53 -0.00528632 1.69399 0
M  V30 10826 O 1009.73 0.150806 1.79367 0
M  V30 10827 H 1006.11 0.327689 0.676848 0
M  V30 10828 H 1008.08 2.01401 2.20182 0
M  V30 10829 C 1006.83 0.707392 3.40428 0
M  V30 10830 H 1006.15 1.52324 3.69645 0
M  V30 10831 H 1007.59 0.612142 4.19558 0
M  V30 10832 C 1006.05 -0.58697 3.31747 0
M  V30 10833 O 1006.58 -1.62741 3.67258 0
M  V30 10834 N 1004.79 -0.574828 2.84858 0
M  V30 10835 H 1004.33 0.272236 2.56157 0
M  V30 10836 H 1004.29 -1.441 2.79432 0
M  V30 10837 N 1008.06 -1.15214 1.07534 0
M  V30 10838 C 1009.03 -2.18209 0.701237 0
M  V30 10839 C 1010.03 -1.58693 -0.25946 0
M  V30 10840 O 1011.22 -1.74154 -0.0401744 0
M  V30 10841 C 1008.35 -3.40883 0.0338703 0
M  V30 10842 H 1009.54 -2.5282 1.61314 0
M  V30 10843 H 1007.1 -1.29707 0.872105 0
M  V30 10844 H 1007.83 -3.11843 -0.890187 0
M  V30 10845 H 1007.62 -3.85342 0.72486 0
M  V30 10846 H 1009.11 -4.17056 -0.213152 0
M  V30 10847 N 1009.54 -0.859717 -1.32086 0
M  V30 10848 C 1010.78 -0.471939 -1.98877 0
M  V30 10849 C 1011.15 0.955689 -1.66525 0
M  V30 10850 O 1012.35 1.44829 -2.26447 0
M  V30 10851 C 1010.62 -0.710016 -3.50276 0
M  V30 10852 S 1012.18 -0.420566 -4.3678 0
M  V30 10853 H 1009 -0.176588 -0.688722 0
M  V30 10854 H 1011.6 -1.11352 -1.60689 0
M  V30 10855 H 1010.3 -1.74803 -3.71311 0
M  V30 10856 H 1009.83 -0.0550429 -3.93361 0
M  V30 10857 H 1011.85 0.751362 -4.90478 0
M  V30 10858 N 1011.02 1.44971 -0.618145 0
M  V30 10859 C 1011.95 2.33357 0.0815955 0
M  V30 10860 C 1012.93 1.47451 0.848072 0
M  V30 10861 O 1014.12 1.762 0.816532 0
M  V30 10862 C 1011.25 3.30324 1.07253 0
M  V30 10863 C 1010.2 4.25948 0.418563 0
M  V30 10864 C 1009.53 5.12685 1.51849 0
M  V30 10865 C 1010.83 5.18024 -0.66697 0
M  V30 10866 H 1012.52 2.92115 -0.656442 0
M  V30 10867 H 1010.07 1.40465 -0.317129 0
M  V30 10868 H 1012.02 3.91033 1.57069 0
M  V30 10869 H 1010.74 2.69748 1.8413 0
M  V30 10870 H 1009.4 3.66553 -0.0588308 0
M  V30 10871 H 1009.05 4.4847 2.2778 0
M  V30 10872 H 1008.75 5.7747 1.08637 0
M  V30 10873 H 1010.27 5.76264 2.01871 0
M  V30 10874 H 1011.69 5.72744 -0.252448 0
M  V30 10875 H 1010.09 5.91343 -1.02146 0
M  V30 10876 H 1011.16 4.59817 -1.53936 0
M  V30 10877 N 1012.5 0.357919 1.53482 0
M  V30 10878 C 1013.91 0.00655107 1.59599 0
M  V30 10879 C 1014.11 -1.47449 1.37336 0
M  V30 10880 O 1013.17 -2.2351 1.17472 0
M  V30 10881 C 1014.48 0.455617 2.97228 0
M  V30 10882 C 1016.03 0.409183 3.10314 0
M  V30 10883 C 1016.51 0.833941 4.50344 0
M  V30 10884 N 1018 0.788695 4.56436 0
M  V30 10885 C 1018.73 1.08914 5.62961 0
M  V30 10886 N 1018.23 1.45847 6.77274 0
M  V30 10887 N 1020.02 1.01243 5.52907 0
M  V30 10888 H 1012.17 1.32248 1.66206 0
M  V30 10889 H 1014.44 0.540047 0.779136 0
M  V30 10890 H 1014.14 1.48881 3.18634 0
M  V30 10891 H 1014.02 -0.161751 3.76853 0
M  V30 10892 H 1016.4 -0.614863 2.88623 0
M  V30 10893 H 1016.48 1.06195 2.32715 0
M  V30 10894 H 1016.13 1.85607 4.72771 0
M  V30 10895 H 1016.06 0.158507 5.26361 0
M  V30 10896 H 1018.55 0.516497 3.74354 0
M  V30 10897 H 1018.86 1.67218 7.54492 0
M  V30 10898 H 1017.21 1.49705 6.78685 0
M  V30 10899 H 1020.4 0.723137 4.62481 0
M  V30 10900 H 1020.57 1.24991 6.35831 0
M  V30 10901 N 1013.98 -1.5736 0.0868897 0
M  V30 10902 C 1015.22 -1.94054 -0.578741 0
M  V30 10903 C 1015.55 -0.968047 -1.68698 0
M  V30 10904 O 1014.81 0.0137824 -1.95695 0
M  V30 10905 C 1015.11 -3.37316 -1.18123 0
M  V30 10906 C 1014.77 -4.50467 -0.197607 0
M  V30 10907 C 1013.43 -4.81145 0.072952 0
M  V30 10908 C 1015.79 -5.19036 0.474473 0
M  V30 10909 C 1013.11 -5.77723 1.02242 0
M  V30 10910 C 1015.47 -6.16632 1.41236 0
M  V30 10911 C 1014.13 -6.45719 1.69124 0
M  V30 10912 H 1013.4 -0.710093 -0.211776 0
M  V30 10913 H 1016.05 -1.90822 0.160978 0
M  V30 10914 H 1014.35 -3.37085 -1.99701 0
M  V30 10915 H 1016.05 -3.63003 -1.7038 0
M  V30 10916 H 1012.64 -4.2655 -0.418669 0
M  V30 10917 H 1016.82 -4.95518 0.278581 0
M  V30 10918 H 1012.08 -5.98578 1.24557 0
M  V30 10919 H 1016.25 -6.68862 1.939 0
M  V30 10920 H 1013.88 -7.20365 2.42855 0
M  V30 10921 N 1015.45 0.186762 -1.56489 0
M  V30 10922 C 1016.38 1.23395 -1.98232 0
M  V30 10923 C 1017.37 1.4702 -0.855526 0
M  V30 10924 O 1018.55 1.58616 -1.12048 0
M  V30 10925 C 1015.68 2.57635 -2.32898 0
M  V30 10926 C 1014.63 2.48607 -3.48394 0
M  V30 10927 C 1013.96 3.87196 -3.68759 0
M  V30 10928 C 1015.26 2.00398 -4.82325 0
M  V30 10929 H 1016.95 0.887026 -2.85958 0
M  V30 10930 H 1014.5 0.42525 -1.37578 0
M  V30 10931 H 1016.45 3.31082 -2.60696 0
M  V30 10932 H 1015.18 2.94084 -1.42064 0
M  V30 10933 H 1013.84 1.77615 -3.207 0
M  V30 10934 H 1013.48 4.21012 -2.75241 0
M  V30 10935 H 1013.18 3.82029 -4.46462 0
M  V30 10936 H 1014.71 4.62253 -3.98941 0
M  V30 10937 H 1016.12 2.6361 -5.091 0
M  V30 10938 H 1014.52 2.06214 -5.63556 0
M  V30 10939 H 1015.59 0.957562 -4.75351 0
M  V30 10940 N 1016.93 1.50896 0.454776 0
M  V30 10941 C 1017.9 1.70377 1.53312 0
M  V30 10942 C 1018.9 0.57408 1.50203 0
M  V30 10943 O 1020.09 0.841374 1.52534 0
M  V30 10944 C 1017.22 1.74411 2.92905 0
M  V30 10945 H 1018.41 2.66599 1.37349 0
M  V30 10946 H 1015.96 1.40622 0.68228 0
M  V30 10947 H 1016.7 0.799408 3.14293 0
M  V30 10948 H 1016.48 2.56496 2.96568 0
M  V30 10949 H 1017.97 1.91382 3.71164 0
M  V30 10950 N 1018.41 -0.709066 1.40748 0
M  V30 10951 C 1019.66 -1.46901 1.39378 0
M  V30 10952 C 1019.99 -1.945 -0.0016993 0
M  V30 10953 O 1019.24 -1.68963 -0.987426 0
M  V30 10954 C 1019.54 -2.70543 2.33541 0
M  V30 10955 C 1019.21 -2.41674 3.80663 0
M  V30 10956 C 1017.87 -2.33511 4.20745 0
M  V30 10957 C 1020.22 -2.1759 4.73607 0
M  V30 10958 C 1017.55 -1.99342 5.51797 0
M  V30 10959 C 1019.9 -1.84933 6.04965 0
M  V30 10960 C 1018.56 -1.75256 6.44082 0
M  V30 10961 H 1017.83 -0.537549 0.510021 0
M  V30 10962 H 1020.48 -0.811635 1.7345 0
M  V30 10963 H 1018.79 -3.41149 1.92677 0
M  V30 10964 H 1020.48 -3.2865 2.29761 0
M  V30 10965 H 1017.07 -2.48917 3.4891 0
M  V30 10966 H 1021.26 -2.22849 4.43454 0
M  V30 10967 H 1016.51 -1.90392 5.81 0
M  V30 10968 H 1020.69 -1.65313 6.76494 0
M  V30 10969 H 1018.31 -1.48547 7.45545 0
M  V30 10970 N 1019.89 -1.26353 -0.941956 0
M  V30 10971 C 1021.14 -1.1163 -1.68473 0
M  V30 10972 C 1021.46 0.34108 -1.91994 0
M  V30 10973 O 1020.73 1.24065 -1.51607 0
M  V30 10974 H 1019.31 -0.410113 -0.624353 0
M  V30 10975 H 1021.97 -1.58669 -1.13182 0
M  V30 10976 H 1021.07 -1.63445 -2.6588 0
M  V30 10977 N 1021.37 1.14642 -1.08144 0
M  V30 10978 C 1022.28 2.23257 -0.720668 0
M  V30 10979 C 1023.29 1.71866 0.271648 0
M  V30 10980 O 1024.47 2.01064 0.116266 0
M  V30 10981 C 1021.53 3.46447 -0.132542 0
M  V30 10982 C 1020.6 4.12789 -1.17913 0
M  V30 10983 C 1019.83 5.30099 -0.618971 0
M  V30 10984 O 1020.05 5.6762 0.562418 0
M  V30 10985 O 1018.99 5.86154 -1.36774 0
M  V30 10986 H 1022.81 2.56463 -1.62667 0
M  V30 10987 H 1020.4 1.22521 -0.854932 0
M  V30 10988 H 1022.28 4.20959 0.19277 0
M  V30 10989 H 1020.95 3.14971 0.746662 0
M  V30 10990 H 1019.86 3.40163 -1.55693 0
M  V30 10991 H 1021.19 4.48365 -2.03051 0
M  V30 10992 N 1022.85 0.866709 1.31628 0
M  V30 10993 C 1024.07 0.49039 2.01004 0
M  V30 10994 C 1024.49 -0.916244 1.65077 0
M  V30 10995 O 1023.85 -1.59975 0.8783 0
M  V30 10996 C 1023.9 0.634011 3.55897 0
M  V30 10997 O 1023.62 1.98525 3.90537 0
M  V30 10998 C 1025.12 0.258277 4.42547 0
M  V30 10999 H 1022.34 0.191421 0.643117 0
M  V30 11000 H 1024.88 1.16698 1.67934 0
M  V30 11001 H 1023.04 0.00501801 3.874 0
M  V30 11002 H 1023.45 1.99067 4.85255 0
M  V30 11003 H 1024.93 0.409733 5.50477 0
M  V30 11004 H 1025.4 -0.802301 4.3181 0
M  V30 11005 H 1026.01 0.862837 4.16456 0
M  V30 11006 N 1024.32 -1.44642 0.625825 0
M  V30 11007 C 1025.27 -2.27762 -0.104042 0
M  V30 11008 C 1026.26 -1.38364 -0.821232 0
M  V30 11009 O 1027.45 -1.62214 -0.708213 0
M  V30 11010 C 1024.58 -3.25585 -1.08853 0
M  V30 11011 C 1023.66 -4.22472 -0.371241 0
M  V30 11012 N 1024.06 -5.02262 0.597226 0
M  V30 11013 C 1022.35 -4.4172 -0.616392 0
M  V30 11014 C 1023.05 -5.72678 1.02053 0
M  V30 11015 N 1022.03 -5.42404 0.360423 0
M  V30 11016 H 1025.83 -2.86858 0.639517 0
M  V30 11017 H 1023.35 -1.56015 0.450911 0
M  V30 11018 H 1025.34 -3.83885 -1.62597 0
M  V30 11019 H 1024 -2.68051 -1.83245 0
M  V30 11020 H 1025.01 -5.08643 0.974803 0
M  V30 11021 H 1021.69 -3.9529 -1.34359 0
M  V30 11022 H 1023.08 -6.46772 1.82033 0
M  V30 11023 N 1025.8 -0.366053 -1.5329 0
M  V30 11024 C 1026.73 0.47211 -2.28677 0
M  V30 11025 C 1027.71 1.08353 -1.31125 0
M  V30 11026 O 1028.9 1.10069 -1.59995 0
M  V30 11027 C 1026.03 1.61174 -3.07637 0
M  V30 11028 C 1024.98 1.12755 -4.12881 0
M  V30 11029 C 1024.31 2.35745 -4.79925 0
M  V30 11030 C 1025.61 0.211954 -5.2187 0
M  V30 11031 H 1027.3 -0.156838 -2.98989 0
M  V30 11032 H 1024.85 -0.0768709 -1.43795 0
M  V30 11033 H 1026.8 2.20473 -3.59123 0
M  V30 11034 H 1025.52 2.26793 -2.35016 0
M  V30 11035 H 1024.18 0.557234 -3.6234 0
M  V30 11036 H 1023.83 2.99821 -4.03877 0
M  V30 11037 H 1023.53 2.04019 -5.51044 0
M  V30 11038 H 1025.06 2.95729 -5.34207 0
M  V30 11039 H 1026.47 0.71244 -5.68856 0
M  V30 11040 H 1024.87 -0.0144501 -6.00098 0
M  V30 11041 H 1025.94 -0.745753 -4.79131 0
M  V30 11042 N 1027.28 1.57312 -0.0952337 0
M  V30 11043 C 1028.24 2.12889 0.849161 0
M  V30 11044 C 1029.24 1.05819 1.21075 0
M  V30 11045 O 1030.43 1.31704 1.14016 0
M  V30 11046 C 1027.56 2.6496 2.14498 0
M  V30 11047 H 1028.76 2.97651 0.366566 0
M  V30 11048 H 1026.31 1.55542 0.153762 0
M  V30 11049 H 1027.05 1.83718 2.67242 0
M  V30 11050 H 1026.83 3.43244 1.89542 0
M  V30 11051 H 1028.32 3.07952 2.82056 0
M  V30 11052 N 1028.76 -0.17846 1.56586 0
M  V30 11053 C 1030.03 -0.923096 1.72448 0
M  V30 11054 C 1030.41 -2.00692 0.654659 0
M  V30 11055 O 1029.76 -2.26079 -0.33171 0
M  V30 11056 C 1029.97 -1.49435 3.15389 0
M  V30 11057 C 1031.32 -1.97005 3.76131 0
M  V30 11058 O 1032.34 -1.59244 3.18622 0
M  V30 11059 O 1031.2 -2.66541 4.77094 0
M  V30 11060 H 1028.3 -0.434009 0.703964 0
M  V30 11061 H 1030.84 -0.16685 1.68878 0
M  V30 11062 H 1029.62 -0.713933 3.84732 0
M  V30 11063 H 1029.24 -2.31498 3.23256 0
M  V30 11064 N 1030.24 -1.51135 -0.446768 0
M  V30 11065 C 1031.48 -1.63578 -1.19875 0
M  V30 11066 C 1031.81 -0.346478 -1.91084 0
M  V30 11067 O 1031.09 0.653447 -1.83195 0
M  V30 11068 C 1031.37 -2.83275 -2.22323 0
M  V30 11069 C 1031.23 -4.22155 -1.55259 0
M  V30 11070 C 1032.54 -2.98496 -3.23401 0
M  V30 11071 H 1029.66 -0.595333 -0.434452 0
M  V30 11072 H 1032.31 -1.83593 -0.48923 0
M  V30 11073 H 1030.46 -2.6634 -2.82834 0
M  V30 11074 H 1032.13 -4.50736 -0.981571 0
M  V30 11075 H 1030.37 -4.25288 -0.855122 0
M  V30 11076 H 1031.04 -5.01882 -2.29823 0
M  V30 11077 H 1033.52 -3.14079 -2.72935 0
M  V30 11078 H 1032.39 -3.83828 -3.92386 0
M  V30 11079 H 1032.65 -2.10157 -3.88956 0
M  V30 11080 N 1031.71 0.701592 -1.41122 0
M  V30 11081 C 1032.64 1.82815 -1.45262 0
M  V30 11082 C 1033.62 1.67215 -0.311939 0
M  V30 11083 O 1034.81 1.87038 -0.522538 0
M  V30 11084 C 1031.94 3.20899 -1.32819 0
M  V30 11085 C 1030.89 3.51194 -2.44636 0
M  V30 11086 C 1030.22 4.8857 -2.17263 0
M  V30 11087 C 1031.52 3.50777 -3.86979 0
M  V30 11088 H 1033.21 1.79608 -2.39544 0
M  V30 11089 H 1030.76 0.862693 -1.15298 0
M  V30 11090 H 1032.71 3.99417 -1.34329 0
M  V30 11091 H 1031.44 3.24717 -0.350191 0
M  V30 11092 H 1030.1 2.75024 -2.42399 0
M  V30 11093 H 1029.74 4.89007 -1.17819 0
M  V30 11094 H 1029.44 5.09805 -2.92186 0
M  V30 11095 H 1030.97 5.69405 -2.20478 0
M  V30 11096 H 1032.38 4.19309 -3.90964 0
M  V30 11097 H 1030.78 3.83542 -4.61536 0
M  V30 11098 H 1031.85 2.49873 -4.15562 0
M  V30 11099 N 1033.19 1.2685 0.935242 0
M  V30 11100 C 1034.44 1.12912 1.6846 0
M  V30 11101 C 1034.77 -0.325708 1.91449 0
M  V30 11102 O 1034.05 -1.23884 1.49944 0
M  V30 11103 C 1034.33 1.90513 3.05576 0
M  V30 11104 C 1034.18 3.43936 2.89876 0
M  V30 11105 C 1035.5 1.70363 4.05789 0
M  V30 11106 H 1032.62 0.411559 0.611382 0
M  V30 11107 H 1035.26 1.55917 1.08582 0
M  V30 11108 H 1033.41 1.53963 3.5669 0
M  V30 11109 H 1035.08 3.90272 2.45939 0
M  V30 11110 H 1033.33 3.70659 2.25376 0
M  V30 11111 H 1034 3.93467 3.87153 0
M  V30 11112 H 1036.47 2.02217 3.63659 0
M  V30 11113 H 1035.35 2.27066 4.99732 0
M  V30 11114 H 1035.61 0.649674 4.373 0
M  V30 11115 N 1034.67 -1.14067 1.0875 0
M  V30 11116 C 1035.9 -1.89582 0.841038 0
M  V30 11117 C 1036.32 -1.78226 -0.601436 0
M  V30 11118 O 1035.68 -1.12491 -1.42181 0
M  V30 11119 C 1035.73 -3.37415 1.27213 0
M  V30 11120 O 1034.83 -4.10191 0.426246 0
M  V30 11121 H 1034.17 -0.589716 0.305173 0
M  V30 11122 H 1036.7 -1.44364 1.44984 0
M  V30 11123 H 1036.71 -3.88234 1.25451 0
M  V30 11124 H 1035.39 -3.44999 2.32268 0
M  V30 11125 H 1033.96 -3.69429 0.507585 0
M  V30 11126 N 1036.15 -0.873678 -1.31166 0
M  V30 11127 C 1037.1 -0.330288 -2.28424 0
M  V30 11128 C 1038.07 0.573299 -1.55893 0
M  V30 11129 O 1039.25 0.504143 -1.84019 0
M  V30 11130 C 1036.39 0.459004 -3.42034 0
M  V30 11131 C 1035.5 -0.472519 -4.29408 0
M  V30 11132 C 1034.64 0.331261 -5.30166 0
M  V30 11133 C 1033.68 -0.596453 -6.09187 0
M  V30 11134 N 1032.81 0.171305 -7.01891 0
M  V30 11135 H 1037.65 -1.16485 -2.7429 0
M  V30 11136 H 1035.19 -0.585813 -1.34932 0
M  V30 11137 H 1037.15 0.932432 -4.06647 0
M  V30 11138 H 1035.78 1.25824 -2.97268 0
M  V30 11139 H 1034.83 -1.06441 -3.65205 0
M  V30 11140 H 1036.14 -1.18372 -4.84551 0
M  V30 11141 H 1035.3 0.867038 -6.00473 0
M  V30 11142 H 1034.04 1.07573 -4.75688 0
M  V30 11143 H 1033.04 -1.14395 -5.37767 0
M  V30 11144 H 1034.27 -1.33983 -6.65752 0
M  V30 11145 H 1032.21 0.89852 -6.49817 0
M  V30 11146 H 1032.13 -0.480481 -7.54472 0
M  V30 11147 H 1033.4 0.688192 -7.76456 0
M  V30 11148 N 1037.63 1.44308 -0.633487 0
M  V30 11149 C 1038.56 2.28943 0.108474 0
M  V30 11150 C 1039.57 1.41415 0.806582 0
M  V30 11151 O 1040.76 1.65544 0.667634 0
M  V30 11152 C 1037.86 3.17845 1.1759 0
M  V30 11153 C 1037.03 4.33802 0.559842 0
M  V30 11154 C 1036.09 5.03722 1.52154 0
M  V30 11155 O 1035.12 5.5966 1.03776 0
M  V30 11156 N 1036.32 5.05392 2.85586 0
M  V30 11157 H 1039.09 2.93262 -0.617879 0
M  V30 11158 H 1036.65 1.54781 -0.474819 0
M  V30 11159 H 1038.64 3.61485 1.81963 0
M  V30 11160 H 1037.21 2.55261 1.80445 0
M  V30 11161 H 1036.43 3.93325 -0.262559 0
M  V30 11162 H 1037.72 5.08637 0.128942 0
M  V30 11163 H 1037.11 4.61282 3.27468 0
M  V30 11164 H 1035.67 5.52813 3.45313 0
M  V30 11165 N 1039.1 0.374177 1.53094 0
M  V30 11166 C 1040.35 -0.212816 2.01379 0
M  V30 11167 C 1040.68 -1.48069 1.26118 0
M  V30 11168 O 1039.93 -1.92625 0.345561 0
M  V30 11169 C 1040.23 -0.542179 3.53264 0
M  V30 11170 C 1039.9 0.632375 4.46444 0
M  V30 11171 C 1038.56 0.954635 4.71636 0
M  V30 11172 C 1040.91 1.41887 5.01515 0
M  V30 11173 C 1038.24 2.06521 5.4915 0
M  V30 11174 C 1040.59 2.51993 5.80243 0
M  V30 11175 C 1039.26 2.84744 6.03719 0
M  V30 11176 H 1038.53 -0.0778749 0.736897 0
M  V30 11177 H 1041.17 0.508412 1.84628 0
M  V30 11178 H 1039.48 -1.34454 3.68007 0
M  V30 11179 H 1041.18 -1.00874 3.88105 0
M  V30 11180 H 1037.77 0.371179 4.2699 0
M  V30 11181 H 1041.95 1.18315 4.81991 0
M  V30 11182 H 1037.21 2.32284 5.65557 0
M  V30 11183 H 1041.38 3.13346 6.21922 0
M  V30 11184 H 1039.01 3.70921 6.63568 0
M  V30 11185 N 1040.58 -1.57259 0.103575 0
M  V30 11186 C 1041.53 -2.11032 -0.863101 0
M  V30 11187 C 1042.52 -1.02737 -1.2383 0
M  V30 11188 O 1043.71 -1.28997 -1.21197 0
M  V30 11189 C 1040.84 -2.70099 -2.11899 0
M  V30 11190 C 1039.92 -3.85451 -1.76885 0
M  V30 11191 N 1040.31 -4.93137 -1.12469 0
M  V30 11192 C 1038.61 -3.95346 -2.06441 0
M  V30 11193 C 1039.31 -5.73681 -0.962527 0
M  V30 11194 N 1038.29 -5.22992 -1.48258 0
M  V30 11195 H 1042.09 -2.91671 -0.361264 0
M  V30 11196 H 1039.61 -1.62096 -0.0993794 0
M  V30 11197 H 1041.6 -3.06957 -2.82104 0
M  V30 11198 H 1040.26 -1.90918 -2.62641 0
M  V30 11199 H 1041.27 -5.11832 -0.790489 0
M  V30 11200 H 1037.95 -3.27185 -2.59338 0
M  V30 11201 H 1039.34 -6.70337 -0.458098 0
M  V30 11202 N 1042.06 0.170153 -1.56679 0
M  V30 11203 C 1042.97 1.23057 -1.99735 0
M  V30 11204 C 1043.99 1.48374 -0.908912 0
M  V30 11205 O 1045.16 1.60499 -1.21663 0
M  V30 11206 C 1042.23 2.54944 -2.34956 0
M  V30 11207 C 1041.29 2.3748 -3.57634 0
M  V30 11208 C 1040.52 3.63078 -3.91165 0
M  V30 11209 O 1040.74 4.68304 -3.2565 0
M  V30 11210 O 1039.68 3.57119 -4.8451 0
M  V30 11211 H 1043.5 0.895104 -2.9021 0
M  V30 11212 H 1041.09 0.377109 -1.44562 0
M  V30 11213 H 1042.97 3.32742 -2.58574 0
M  V30 11214 H 1041.65 2.88068 -1.47643 0
M  V30 11215 H 1040.55 1.57709 -3.39232 0
M  V30 11216 H 1041.89 2.0928 -4.45491 0
M  V30 11217 N 1043.54 1.5137 0.438746 0
M  V30 11218 C 1044.5 1.71993 1.51496 0
M  V30 11219 C 1045.5 0.589978 1.49586 0
M  V30 11220 O 1046.69 0.857505 1.51633 0
M  V30 11221 C 1043.82 1.77508 2.91039 0
M  V30 11222 H 1045.02 2.68041 1.34514 0
M  V30 11223 H 1042.57 1.41338 0.667326 0
M  V30 11224 H 1043.3 0.832698 3.13427 0
M  V30 11225 H 1043.09 2.59627 2.9383 0
M  V30 11226 H 1044.58 1.95308 3.69113 0
M  V30 11227 N 1045.02 -0.694098 1.41492 0
M  V30 11228 C 1045.96 -1.82932 1.43662 0
M  V30 11229 C 1046.96 -1.66455 0.31449 0
M  V30 11230 O 1048.16 -1.73298 0.486589 0
M  V30 11231 H 1044.54 -0.602847 0.449533 0
M  V30 11232 H 1046.51 -1.78218 2.39334 0
M  V30 11233 C 1045.26 -3.20962 1.33712 0
M  V30 11234 H 1044.58 -3.34257 2.19345 0
M  V30 11235 H 1046.02 -4.00467 1.39291 0
M  V30 11236 C 1044.48 -3.36863 0.0496332 0
M  V30 11237 O 1045.01 -3.91371 -0.905093 0
M  V30 11238 N 1043.22 -2.90588 -0.0269299 0
M  V30 11239 H 1042.76 -2.46417 0.750752 0
M  V30 11240 H 1042.72 -3.01605 -0.887781 0
M  V30 11241 N 1046.49 -1.27344 -0.928501 0
M  V30 11242 C 1047.44 -1.09835 -2.05034 0
M  V30 11243 C 1048.44 -0.0216643 -1.69386 0
M  V30 11244 O 1049.64 -0.179323 -1.79105 0
M  V30 11245 H 1046.02 -0.338416 -0.671549 0
M  V30 11246 H 1047.99 -2.04879 -2.1695 0
M  V30 11247 C 1046.74 -0.761462 -3.3926 0
M  V30 11248 H 1046.06 -1.58186 -3.67175 0
M  V30 11249 H 1047.5 -0.678812 -4.18531 0
M  V30 11250 C 1045.96 0.534118 -3.32639 0
M  V30 11251 O 1046.49 1.56877 -3.69801 0
M  V30 11252 N 1044.7 0.529437 -2.85736 0
M  V30 11253 H 1044.24 -0.312954 -2.55692 0
M  V30 11254 H 1044.2 1.39637 -2.81689 0
M  V30 11255 N 1047.97 1.13488 -1.09353 0
M  V30 11256 C 1048.91 2.17951 -0.67622 0
M  V30 11257 C 1049.88 1.59482 0.316906 0
M  V30 11258 O 1051.07 1.8723 0.218459 0
M  V30 11259 C 1048.19 3.387 0.00391024 0
M  V30 11260 C 1047.24 4.15764 -0.950906 0
M  V30 11261 S 1048.07 4.75517 -2.46259 0
M  V30 11262 C 1049.23 5.99613 -1.79485 0
M  V30 11263 H 1049.46 2.53012 -1.56115 0
M  V30 11264 H 1047 1.24773 -0.909447 0
M  V30 11265 H 1048.95 4.08643 0.39002 0
M  V30 11266 H 1047.61 3.01941 0.86548 0
M  V30 11267 H 1046.81 5.02229 -0.422086 0
M  V30 11268 H 1046.41 3.51473 -1.27838 0
M  V30 11269 H 1048.7 6.68204 -1.11846 0
M  V30 11270 H 1049.64 6.57102 -2.63862 0
M  V30 11271 H 1050.05 5.50165 -1.26409 0
M  V30 11272 N 1049.45 0.880621 1.30701 0
M  V30 11273 C 1050.68 0.511682 2.00473 0
M  V30 11274 C 1051.09 -0.898684 1.6604 0
M  V30 11275 O 1050.45 -1.59035 0.895218 0
M  V30 11276 C 1050.5 0.671723 3.55204 0
M  V30 11277 O 1050.22 2.02656 3.8841 0
M  V30 11278 C 1051.72 0.3052 4.42248 0
M  V30 11279 H 1048.94 0.198231 0.64105 0
M  V30 11280 H 1051.49 1.18472 1.66687 0
M  V30 11281 H 1049.64 0.0461066 3.87373 0
M  V30 11282 H 1050.06 2.04202 4.83117 0
M  V30 11283 H 1051.53 0.468095 5.50012 0
M  V30 11284 H 1052.01 -0.756456 4.32637 0
M  V30 11285 H 1052.61 0.906959 4.15517 0
M  V30 11286 N 1050.93 -1.4397 0.641131 0
M  V30 11287 C 1052.21 -1.95436 0.0800918 0
M  V30 11288 C 1052.59 -1.58282 -1.39678 0
M  V30 11289 O 1051.93 -0.861867 -2.11623 0
M  V30 11290 C 1052.14 -3.47589 0.313531 0
M  V30 11291 C 1053.49 -4.2407 0.212034 0
M  V30 11292 O 1054.52 -3.55353 0.245434 0
M  V30 11293 O 1053.38 -5.46356 0.125455 0
M  V30 11294 H 1050.47 -0.826834 -0.0165735 0
M  V30 11295 H 1053.02 -1.5397 0.71353 0
M  V30 11296 H 1051.79 -3.67716 1.33793 0
M  V30 11297 H 1051.41 -3.96025 -0.353563 0
M  V30 11298 N 1052.41 -0.382291 -1.52893 0
M  V30 11299 C 1053.37 0.44408 -2.24857 0
M  V30 11300 C 1054.37 0.996004 -1.26239 0
M  V30 11301 O 1055.56 0.879114 -1.5039 0
M  V30 11302 C 1052.69 1.62234 -2.99822 0
M  V30 11303 H 1053.89 -0.185862 -2.99324 0
M  V30 11304 H 1051.44 -0.134275 -1.55722 0
M  V30 11305 H 1052.17 2.28991 -2.29638 0
M  V30 11306 H 1051.96 1.23336 -3.72197 0
M  V30 11307 H 1053.45 2.20756 -3.54481 0
M  V30 11308 N 1053.89 1.57202 -0.111913 0
M  V30 11309 C 1054.82 2.17957 0.837683 0
M  V30 11310 C 1055.8 1.1176 1.28233 0
M  V30 11311 O 1056.98 1.39967 1.34621 0
M  V30 11312 C 1054.11 2.77333 2.09054 0
M  V30 11313 C 1053.07 3.8905 1.78393 0
M  V30 11314 C 1052.39 4.35203 3.10649 0
M  V30 11315 C 1053.69 5.11477 1.05775 0
M  V30 11316 H 1055.39 2.9756 0.331441 0
M  V30 11317 H 1052.93 1.43131 0.157979 0
M  V30 11318 H 1054.88 3.18492 2.75936 0
M  V30 11319 H 1053.61 1.95009 2.6199 0
M  V30 11320 H 1052.27 3.48456 1.13903 0
M  V30 11321 H 1051.92 3.49747 3.61506 0
M  V30 11322 H 1051.62 5.10534 2.9091 0
M  V30 11323 H 1053.14 4.79007 3.78661 0
M  V30 11324 H 1054.55 5.497 1.62798 0
M  V30 11325 H 1052.95 5.92346 0.961573 0
M  V30 11326 H 1054.02 4.84881 0.043297 0
M  V30 11327 N 1055.36 -0.161842 1.56767 0
M  V30 11328 C 1056.33 -1.18404 1.96247 0
M  V30 11329 C 1057.33 -1.3667 0.84722 0
M  V30 11330 O 1058.52 -1.33915 1.11411 0
M  V30 11331 C 1055.65 -2.54728 2.26553 0
M  V30 11332 H 1056.84 -0.845703 2.87729 0
M  V30 11333 H 1054.39 -0.404645 1.50971 0
M  V30 11334 H 1055.13 -2.93559 1.37816 0
M  V30 11335 H 1054.91 -2.42834 3.07854 0
M  V30 11336 H 1056.4 -3.28378 2.57987 0
M  V30 11337 N 1056.84 -1.516 -0.430713 0
M  V30 11338 C 1057.8 -1.72794 -1.50582 0
M  V30 11339 C 1058.8 -0.597903 -1.49271 0
M  V30 11340 O 1059.99 -0.865535 -1.51176 0
M  V30 11341 C 1057.13 -1.79049 -2.90093 0
M  V30 11342 H 1058.32 -2.68751 -1.33091 0
M  V30 11343 H 1055.87 -1.4169 -0.659822 0
M  V30 11344 H 1056.61 -0.849309 -3.12981 0
M  V30 11345 H 1056.39 -2.61181 -2.92449 0
M  V30 11346 H 1057.88 -1.97262 -3.68072 0
M  V30 11347 N 1058.32 0.686584 -1.41858 0
M  V30 11348 C 1059.25 1.81264 -1.47193 0
M  V30 11349 C 1060.23 1.66875 -0.329657 0
M  V30 11350 O 1061.42 1.86473 -0.542347 0
M  V30 11351 C 1058.55 3.19472 -1.36216 0
M  V30 11352 C 1057.5 3.4858 -2.48347 0
M  V30 11353 C 1056.83 4.86239 -2.22432 0
M  V30 11354 C 1058.13 3.46653 -3.90678 0
M  V30 11355 H 1059.82 1.77057 -2.41436 0
M  V30 11356 H 1057.37 0.850415 -1.16206 0
M  V30 11357 H 1059.32 3.97969 -1.38558 0
M  V30 11358 H 1058.04 3.24327 -0.384611 0
M  V30 11359 H 1056.7 2.72437 -2.45303 0
M  V30 11360 H 1056.35 4.8773 -1.22999 0
M  V30 11361 H 1056.05 5.06677 -2.97577 0
M  V30 11362 H 1057.57 5.67034 -2.26505 0
M  V30 11363 H 1058.99 4.15139 -3.95389 0
M  V30 11364 H 1057.38 3.78625 -4.65578 0
M  V30 11365 H 1058.45 2.45451 -4.18189 0
M  V30 11366 N 1059.8 1.27835 0.921735 0
M  V30 11367 C 1061.02 1.17465 1.70929 0
M  V30 11368 C 1061.45 -0.264171 1.86236 0
M  V30 11369 O 1060.81 -1.19124 1.36671 0
M  V30 11370 C 1060.85 1.8697 3.08342 0
M  V30 11371 O 1059.96 1.17173 3.95404 0
M  V30 11372 H 1059.3 0.408206 0.523702 0
M  V30 11373 H 1061.83 1.69013 1.15307 0
M  V30 11374 H 1061.84 1.94564 3.58621 0
M  V30 11375 H 1060.51 2.91633 2.96518 0
M  V30 11376 H 1059.09 1.17688 3.53842 0
M  V30 11377 N 1061.28 -1.12907 1.09954 0
M  V30 11378 C 1062.24 -2.16673 0.747364 0
M  V30 11379 C 1063.24 -1.59208 -0.225741 0
M  V30 11380 O 1064.43 -1.742 -0.00322482 0
M  V30 11381 C 1061.56 -3.40735 0.106169 0
M  V30 11382 H 1062.75 -2.49341 1.6664 0
M  V30 11383 H 1060.31 -1.27828 0.899421 0
M  V30 11384 H 1061.04 -3.13661 -0.82384 0
M  V30 11385 H 1060.83 -3.83717 0.806434 0
M  V30 11386 H 1062.32 -4.17414 -0.12464 0
M  V30 11387 N 1062.75 -0.88754 -1.30232 0
M  V30 11388 C 1063.72 -0.361095 -2.26338 0
M  V30 11389 C 1064.72 0.497871 -1.52898 0
M  V30 11390 O 1065.91 0.30466 -1.71515 0
M  V30 11391 C 1063.04 0.485135 -3.3743 0
M  V30 11392 H 1064.23 -1.20973 -2.74419 0
M  V30 11393 H 1061.78 -0.664619 -1.41466 0
M  V30 11394 H 1062.52 1.35425 -2.9467 0
M  V30 11395 H 1062.3 -0.130173 -3.91884 0
M  V30 11396 H 1063.79 0.845169 -4.08958 0
M  V30 11397 N 1064.23 1.43628 -0.648757 0
M  V30 11398 C 1065.48 2.02163 -0.160574 0
M  V30 11399 C 1065.81 1.51037 1.22072 0
M  V30 11400 O 1065.09 0.701633 1.81404 0
M  V30 11401 C 1065.37 3.59715 -0.166528 0
M  V30 11402 C 1065.22 4.21083 -1.58142 0
M  V30 11403 C 1066.54 4.37256 0.499485 0
M  V30 11404 H 1063.66 0.734568 -0.0598238 0
M  V30 11405 H 1066.3 1.70981 -0.828592 0
M  V30 11406 H 1064.45 3.86411 0.402302 0
M  V30 11407 H 1066.12 4.05433 -2.2005 0
M  V30 11408 H 1064.37 3.77904 -2.13005 0
M  V30 11409 H 1065.04 5.30156 -1.53748 0
M  V30 11410 H 1067.51 4.16097 0.0155561 0
M  V30 11411 H 1066.39 5.4693 0.464574 0
M  V30 11412 H 1066.65 4.13175 1.57286 0
M  V30 11413 N 1065.71 0.390394 1.52688 0
M  V30 11414 C 1066.67 -0.432149 2.25089 0
M  V30 11415 C 1067.67 -0.989296 1.26766 0
M  V30 11416 O 1068.86 -0.871126 1.50854 0
M  V30 11417 C 1066 -1.60642 3.00678 0
M  V30 11418 H 1067.19 0.201734 2.99221 0
M  V30 11419 H 1064.74 0.142531 1.55649 0
M  V30 11420 H 1065.48 -2.2777 2.3085 0
M  V30 11421 H 1065.26 -1.21361 3.72846 0
M  V30 11422 H 1066.75 -2.18873 3.55647 0
M  V30 11423 N 1067.19 -1.57141 0.120249 0
M  V30 11424 C 1068.15 -2.14213 -0.815185 0
M  V30 11425 C 1069.15 -1.07731 -1.19376 0
M  V30 11426 O 1070.34 -1.33502 -1.11906 0
M  V30 11427 C 1067.47 -2.68339 -2.10255 0
M  V30 11428 H 1068.67 -2.98197 -0.319166 0
M  V30 11429 H 1066.22 -1.55767 -0.128997 0
M  V30 11430 H 1066.95 -1.87946 -2.64285 0
M  V30 11431 H 1066.74 -3.46216 -1.84057 0
M  V30 11432 H 1068.23 -3.124 -2.77121 0
M  V30 11433 N 1068.67 0.153526 -1.5685 0
M  V30 11434 C 1069.6 1.2147 -1.94365 0
M  V30 11435 C 1070.61 1.39532 -0.838726 0
M  V30 11436 O 1071.8 1.39219 -1.11715 0
M  V30 11437 C 1068.9 2.5806 -2.19677 0
M  V30 11438 C 1068.07 2.61062 -3.50949 0
M  V30 11439 C 1067.13 3.79144 -3.64878 0
M  V30 11440 O 1066.16 3.64319 -4.37333 0
M  V30 11441 N 1067.36 4.96333 -3.01054 0
M  V30 11442 H 1070.13 0.895889 -2.85996 0
M  V30 11443 H 1067.69 0.343147 -1.58222 0
M  V30 11444 H 1069.68 3.35553 -2.26243 0
M  V30 11445 H 1068.25 2.8226 -1.34343 0
M  V30 11446 H 1067.47 1.69533 -3.55882 0
M  V30 11447 H 1068.76 2.60094 -4.37297 0
M  V30 11448 H 1068.15 5.1128 -2.42093 0
M  V30 11449 H 1066.71 5.71625 -3.13191 0
M  V30 11450 N 1070.14 1.51827 0.422667 0
M  V30 11451 C 1071.07 1.77152 1.52117 0
M  V30 11452 C 1072.06 0.621895 1.58324 0
M  V30 11453 O 1073.24 0.866118 1.73816 0
M  V30 11454 C 1070.37 1.90991 2.90068 0
M  V30 11455 C 1069.32 3.06516 2.98717 0
M  V30 11456 C 1068.65 3.05559 4.38791 0
M  V30 11457 C 1069.95 4.46223 2.71445 0
M  V30 11458 H 1071.64 2.69135 1.31175 0
M  V30 11459 H 1069.19 1.29507 0.629607 0
M  V30 11460 H 1071.14 2.07291 3.6689 0
M  V30 11461 H 1069.87 0.956688 3.12274 0
M  V30 11462 H 1068.53 2.89945 2.24338 0
M  V30 11463 H 1068.17 2.07985 4.57986 0
M  V30 11464 H 1067.87 3.83144 4.45505 0
M  V30 11465 H 1069.4 3.23971 5.17566 0
M  V30 11466 H 1070.81 4.63069 3.37994 0
M  V30 11467 H 1069.21 5.25623 2.89552 0
M  V30 11468 H 1070.28 4.5525 1.6696 0
M  V30 11469 N 1071.62 -0.679052 1.4222 0
M  V30 11470 C 1073.03 -1.25953 1.37815 0
M  V30 11471 C 1073.38 -1.96077 0.0693215 0
M  V30 11472 O 1072.51 -1.99765 -0.832047 0
M  V30 11473 C 1073.1 -2.29063 2.49631 0
M  V30 11474 C 1071.66 -2.82647 2.48571 0
M  V30 11475 C 1070.81 -1.56909 2.28637 0
M  V30 11476 H 1073.76 -0.472714 1.51496 0
M  V30 11477 H 1073.78 -3.10708 2.19638 0
M  V30 11478 H 1073.29 -1.77996 3.44876 0
M  V30 11479 H 1071.4 -3.37846 1.57132 0
M  V30 11480 H 1071.51 -3.31952 3.45463 0
M  V30 11481 H 1069.87 -1.83323 1.76819 0
M  V30 11482 H 1070.66 -1.07814 3.25931 0
M  V30 11483 N 1073.1 -1.28322 -0.914942 0
M  V30 11484 C 1074.34 -1.16657 -1.6784 0
M  V30 11485 C 1074.7 0.280473 -1.8994 0
M  V30 11486 O 1075.91 0.519801 -2.63726 0
M  V30 11487 C 1074.18 -1.94185 -3.00045 0
M  V30 11488 S 1075.74 -1.98881 -3.91141 0
M  V30 11489 H 1072.55 -0.416232 -0.57643 0
M  V30 11490 H 1075.16 -1.62405 -1.08834 0
M  V30 11491 H 1073.86 -2.98488 -2.81661 0
M  V30 11492 H 1073.39 -1.48982 -3.64099 0
M  V30 11493 H 1075.41 -1.09445 -4.8398 0
M  V30 11494 N 1074.58 1.12322 -1.10551 0
M  V30 11495 C 1075.99 1.35858 -0.837543 0
M  V30 11496 C 1076.19 1.94062 0.54241 0
M  V30 11497 O 1075.25 2.1676 1.29505 0
M  V30 11498 C 1076.56 2.299 -1.9382 0
M  V30 11499 C 1078.11 2.43488 -1.96679 0
M  V30 11500 C 1078.59 3.40846 -3.05922 0
M  V30 11501 N 1080.08 3.48404 -3.05236 0
M  V30 11502 C 1080.81 4.2365 -3.86405 0
M  V30 11503 N 1080.31 5.01951 -4.77512 0
M  V30 11504 N 1082.1 4.19068 -3.74618 0
M  V30 11505 H 1074.25 0.729002 -1.99498 0
M  V30 11506 H 1076.52 0.38339 -0.867016 0
M  V30 11507 H 1076.22 1.94309 -2.9315 0
M  V30 11508 H 1076.1 3.30033 -1.82641 0
M  V30 11509 H 1078.48 2.78359 -0.979813 0
M  V30 11510 H 1078.56 1.43239 -2.11934 0
M  V30 11511 H 1078.21 3.06704 -4.04839 0
M  V30 11512 H 1078.14 4.40927 -2.87907 0
M  V30 11513 H 1080.63 2.92545 -2.39219 0
M  V30 11514 H 1080.94 5.56707 -5.36002 0
M  V30 11515 H 1079.29 5.01143 -4.8154 0
M  V30 11516 H 1082.48 3.5698 -3.02792 0
M  V30 11517 H 1082.65 4.77455 -4.38111 0
M  V30 11518 N 1076.06 0.894434 1.2976 0
M  V30 11519 C 1077.33 0.437365 1.90648 0
M  V30 11520 C 1077.71 -1.08261 1.81226 0
M  V30 11521 O 1077.06 -1.92213 1.23557 0
M  V30 11522 C 1077.27 0.946047 3.35933 0
M  V30 11523 C 1078.62 0.986621 4.12978 0
M  V30 11524 O 1079.64 0.893356 3.44815 0
M  V30 11525 O 1078.5 1.12591 5.34776 0
M  V30 11526 H 1075.6 0.135436 0.815835 0
M  V30 11527 H 1078.14 0.983955 1.38262 0
M  V30 11528 H 1076.91 1.98998 3.3692 0
M  V30 11529 H 1076.54 0.379164 3.95788 0
M  V30 11530 N 1077.53 -1.43282 0.656365 0
M  V30 11531 C 1078.5 -2.29188 -0.0239173 0
M  V30 11532 C 1079.5 -1.42373 -0.747436 0
M  V30 11533 O 1080.69 -1.63969 -0.588213 0
M  V30 11534 C 1077.82 -3.24501 -1.0446 0
M  V30 11535 H 1079.01 -2.9083 0.731978 0
M  V30 11536 H 1076.57 -1.50614 0.417752 0
M  V30 11537 H 1077.3 -2.6776 -1.82962 0
M  V30 11538 H 1077.09 -3.88509 -0.52942 0
M  V30 11539 H 1078.58 -3.88971 -1.51958 0
M  V30 11540 N 1079.01 -0.398486 -1.52479 0
M  V30 11541 C 1079.94 0.423498 -2.29627 0
M  V30 11542 C 1080.92 1.05547 -1.33394 0
M  V30 11543 O 1082.11 1.0665 -1.62294 0
M  V30 11544 C 1079.24 1.54612 -3.10986 0
M  V30 11545 C 1078.19 1.03971 -4.15179 0
M  V30 11546 C 1077.52 2.25512 -4.84818 0
M  V30 11547 C 1078.82 0.10121 -5.22202 0
M  V30 11548 H 1080.51 -0.220222 -2.98589 0
M  V30 11549 H 1078.06 -0.107355 -1.43599 0
M  V30 11550 H 1080.01 2.12806 -3.63719 0
M  V30 11551 H 1078.74 2.21756 -2.39774 0
M  V30 11552 H 1077.4 0.480251 -3.63441 0
M  V30 11553 H 1077.04 2.91187 -4.10145 0
M  V30 11554 H 1076.74 1.92285 -5.55248 0
M  V30 11555 H 1078.27 2.84331 -5.40359 0
M  V30 11556 H 1079.68 0.591617 -5.70239 0
M  V30 11557 H 1078.08 -0.141737 -5.99933 0
M  V30 11558 H 1079.15 -0.847216 -4.77441 0
M  V30 11559 N 1080.49 1.57075 -0.12858 0
M  V30 11560 C 1081.42 2.11553 0.855593 0
M  V30 11561 C 1082.4 1.03435 1.25459 0
M  V30 11562 O 1083.59 1.3115 1.35395 0
M  V30 11563 C 1080.71 2.62012 2.14633 0
M  V30 11564 C 1079.76 3.82105 1.89467 0
M  V30 11565 S 1080.59 5.24033 1.10228 0
M  V30 11566 C 1081.75 5.77867 2.4046 0
M  V30 11567 H 1081.98 2.94701 0.392248 0
M  V30 11568 H 1079.51 1.54164 0.0853746 0
M  V30 11569 H 1081.47 2.91737 2.8879 0
M  V30 11570 H 1080.13 1.79029 2.58084 0
M  V30 11571 H 1079.33 4.15592 2.8513 0
M  V30 11572 H 1078.93 3.53047 1.23427 0
M  V30 11573 H 1081.22 5.88175 3.36238 0
M  V30 11574 H 1082.16 6.75775 2.11504 0
M  V30 11575 H 1082.57 5.05991 2.50266 0
M  V30 11576 N 1081.97 -0.145205 1.5693 0
M  V30 11577 C 1082.9 -1.20438 1.95006 0
M  V30 11578 C 1083.91 -1.39085 0.846114 0
M  V30 11579 O 1085.1 -1.38625 1.12452 0
M  V30 11580 C 1082.2 -2.56892 2.21043 0
M  V30 11581 C 1081.38 -2.59197 3.52329 0
M  V30 11582 C 1080.44 -3.77204 3.66884 0
M  V30 11583 O 1079.46 -3.61995 4.39259 0
M  V30 11584 N 1080.66 -4.9473 3.03682 0
M  V30 11585 H 1083.43 -0.880709 2.86467 0
M  V30 11586 H 1080.99 -0.334751 1.58401 0
M  V30 11587 H 1082.98 -3.34349 2.2802 0
M  V30 11588 H 1081.55 -2.81544 1.35838 0
M  V30 11589 H 1080.77 -1.67644 3.56776 0
M  V30 11590 H 1082.06 -2.57771 4.3867 0
M  V30 11591 H 1081.46 -5.09989 2.44801 0
M  V30 11592 H 1080.01 -5.69956 3.16218 0
M  V30 11593 N 1083.45 -1.52049 -0.414609 0
M  V30 11594 C 1084.36 -1.7788 -1.52958 0
M  V30 11595 C 1085.37 -0.66408 -1.60829 0
M  V30 11596 O 1086.55 -0.948882 -1.77646 0
M  V30 11597 C 1083.61 -1.91906 -2.88744 0
M  V30 11598 C 1082.68 -3.15803 -2.90804 0
M  V30 11599 C 1081.91 -3.29151 -4.20114 0
M  V30 11600 O 1082.13 -2.47892 -5.13718 0
M  V30 11601 O 1081.07 -4.2227 -4.28919 0
M  V30 11602 H 1084.89 -2.72506 -1.34067 0
M  V30 11603 H 1082.48 -1.36826 -0.599918 0
M  V30 11604 H 1084.36 -2.02986 -3.6929 0
M  V30 11605 H 1083.03 -1.00468 -3.07714 0
M  V30 11606 H 1081.94 -3.10185 -2.09131 0
M  V30 11607 H 1083.27 -4.07004 -2.76783 0
M  V30 11608 N 1084.93 0.6715 -1.42579 0
M  V30 11609 C 1086.16 1.4576 -1.46416 0
M  V30 11610 C 1086.56 1.89051 -0.0749843 0
M  V30 11611 O 1085.91 1.58927 0.921296 0
M  V30 11612 C 1085.97 2.7365 -2.33144 0
M  V30 11613 C 1085.63 2.52414 -3.80968 0
M  V30 11614 C 1086.63 2.16804 -4.72538 0
M  V30 11615 C 1084.31 2.67306 -4.25268 0
M  V30 11616 C 1086.31 1.96358 -6.06401 0
M  V30 11617 C 1084 2.46475 -5.5919 0
M  V30 11618 C 1084.99 2.11055 -6.49573 0
M  V30 11619 O 1084.68 1.90428 -7.8102 0
M  V30 11620 H 1084.41 0.454896 -0.500045 0
M  V30 11621 H 1086.97 0.832198 -1.87786 0
M  V30 11622 H 1085.2 3.38684 -1.86629 0
M  V30 11623 H 1086.89 3.35543 -2.28398 0
M  V30 11624 H 1087.65 2.04891 -4.39596 0
M  V30 11625 H 1083.53 2.93854 -3.55206 0
M  V30 11626 H 1087.08 1.68634 -6.76911 0
M  V30 11627 H 1082.97 2.57985 -5.91704 0
M  V30 11628 H 1083.74 2.05 -7.92412 0
M  V30 11629 N 1086.4 1.28806 0.908124 0
M  V30 11630 C 1087.68 1.06981 1.63751 0
M  V30 11631 C 1088.06 -0.388936 2.07486 0
M  V30 11632 O 1087.41 -1.37611 1.82415 0
M  V30 11633 C 1087.62 2.04962 2.82474 0
M  V30 11634 C 1088.97 2.35418 3.5336 0
M  V30 11635 O 1089.99 2.03091 2.92631 0
M  V30 11636 O 1088.85 2.90617 4.62822 0
M  V30 11637 H 1085.94 0.409267 0.71863 0
M  V30 11638 H 1088.49 1.40146 0.956934 0
M  V30 11639 H 1087.26 3.03254 2.47291 0
M  V30 11640 H 1086.88 1.72476 3.58242 0
M  V30 11641 N 1087.88 -1.11734 1.11145 0
M  V30 11642 C 1089.16 -1.79795 0.770261 0
M  V30 11643 C 1089.54 -1.97624 -0.742158 0
M  V30 11644 O 1088.89 -1.55847 -1.67105 0
M  V30 11645 C 1089.1 -3.13684 1.52982 0
M  V30 11646 C 1090.44 -3.88771 1.70711 0
M  V30 11647 O 1091.47 -3.23363 1.49381 0
M  V30 11648 O 1090.33 -5.06134 2.06132 0
M  V30 11649 H 1087.42 -0.778617 0.27872 0
M  V30 11650 H 1089.97 -1.18504 1.2147 0
M  V30 11651 H 1088.74 -2.96043 2.55879 0
M  V30 11652 H 1088.36 -3.82687 1.07873 0
M  V30 11653 N 1089.36 -0.901303 -1.29284 0
M  V30 11654 C 1090.31 -0.378666 -2.27672 0
M  V30 11655 C 1091.28 0.540102 -1.57074 0
M  V30 11656 O 1092.46 0.464997 -1.85047 0
M  V30 11657 C 1089.6 0.38635 -3.42931 0
M  V30 11658 C 1088.71 -0.563496 -4.28309 0
M  V30 11659 C 1087.85 0.218731 -5.30749 0
M  V30 11660 C 1086.89 -0.725536 -6.07785 0
M  V30 11661 N 1086.03 0.0223854 -7.02096 0
M  V30 11662 H 1090.87 -1.22277 -2.71758 0
M  V30 11663 H 1088.4 -0.614302 -1.33659 0
M  V30 11664 H 1090.36 0.845967 -4.08533 0
M  V30 11665 H 1088.99 1.1949 -2.9987 0
M  V30 11666 H 1088.04 -1.14163 -3.62865 0
M  V30 11667 H 1089.35 -1.28623 -4.81931 0
M  V30 11668 H 1088.51 0.739473 -6.02177 0
M  V30 11669 H 1087.25 0.97459 -4.77863 0
M  V30 11670 H 1086.25 -1.25776 -5.3522 0
M  V30 11671 H 1087.48 -1.48075 -6.6276 0
M  V30 11672 H 1085.42 0.760482 -6.51577 0
M  V30 11673 H 1085.34 -0.640408 -7.53283 0
M  V30 11674 H 1086.61 0.523339 -7.77741 0
M  V30 11675 N 1090.84 1.42931 -0.663954 0
M  V30 11676 C 1092.08 2.02505 -0.190647 0
M  V30 11677 C 1092.44 1.51506 1.18591 0
M  V30 11678 O 1091.73 0.702962 1.78239 0
M  V30 11679 C 1091.93 3.57072 -0.153163 0
M  V30 11680 C 1091.75 4.23069 -1.52454 0
M  V30 11681 C 1090.52 4.58694 -2.11961 0
M  V30 11682 C 1092.72 4.51373 -2.46509 0
M  V30 11683 N 1090.7 5.09818 -3.41993 0
M  V30 11684 C 1092.08 5.03931 -3.61184 0
M  V30 11685 C 1094.13 4.33351 -2.45176 0
M  V30 11686 C 1092.83 5.40362 -4.74765 0
M  V30 11687 C 1094.86 4.70851 -3.57845 0
M  V30 11688 C 1094.22 5.23551 -4.71246 0
M  V30 11689 H 1090.32 0.773581 -0.114438 0
M  V30 11690 H 1092.9 1.73951 -0.874589 0
M  V30 11691 H 1091.08 3.85166 0.500156 0
M  V30 11692 H 1092.81 4.03336 0.332015 0
M  V30 11693 H 1089.56 4.44091 -1.6456 0
M  V30 11694 H 1089.99 5.39821 -4.08561 0
M  V30 11695 H 1094.63 3.91871 -1.58735 0
M  V30 11696 H 1092.35 5.8078 -5.6189 0
M  V30 11697 H 1095.93 4.58593 -3.58028 0
M  V30 11698 H 1094.81 5.52029 -5.56986 0
M  V30 11699 N 1092.32 0.406567 1.52266 0
M  V30 11700 C 1093.27 -0.437483 2.23763 0
M  V30 11701 C 1094.25 -1.01557 1.248 0
M  V30 11702 O 1095.44 -0.938813 1.50051 0
M  V30 11703 C 1092.57 -1.55499 3.06064 0
M  V30 11704 C 1091.66 -0.987799 4.12436 0
M  V30 11705 N 1092.05 -0.147044 5.05586 0
M  V30 11706 C 1090.35 -1.25857 4.27874 0
M  V30 11707 C 1091.05 0.168229 5.81457 0
M  V30 11708 N 1090.02 -0.440245 5.41814 0
M  V30 11709 H 1093.82 0.211203 2.9314 0
M  V30 11710 H 1091.34 0.216843 1.60946 0
M  V30 11711 H 1093.34 -2.17224 3.55836 0
M  V30 11712 H 1092 -2.20632 2.38226 0
M  V30 11713 H 1093.01 0.217062 5.17445 0
M  V30 11714 H 1089.68 -1.90967 3.71265 0
M  V30 11715 H 1091.07 0.850516 6.66495 0
M  V30 11716 N 1093.79 -1.57004 0.136909 0
M  V30 11717 C 1094.73 -2.13355 -0.837405 0
M  V30 11718 C 1095.74 -1.08053 -1.21772 0
M  V30 11719 O 1096.93 -1.35365 -1.16355 0
M  V30 11720 C 1094.03 -2.63302 -2.13366 0
M  V30 11721 C 1093.2 -3.92896 -1.92228 0
M  V30 11722 C 1092.26 -4.28257 -3.05749 0
M  V30 11723 O 1091.29 -4.96761 -2.7788 0
M  V30 11724 N 1092.49 -3.87021 -4.3266 0
M  V30 11725 H 1095.25 -2.9758 -0.35586 0
M  V30 11726 H 1092.81 -1.61832 -0.0469758 0
M  V30 11727 H 1094.81 -2.83977 -2.88339 0
M  V30 11728 H 1093.38 -1.83858 -2.52814 0
M  V30 11729 H 1092.6 -3.80949 -1.01349 0
M  V30 11730 H 1093.88 -4.776 -1.75431 0
M  V30 11731 H 1093.28 -3.31804 -4.58173 0
M  V30 11732 H 1091.84 -4.12768 -5.04446 0
M  V30 11733 N 1095.27 0.136881 -1.57004 0
M  V30 11734 C 1096.22 1.18782 -1.99984 0
M  V30 11735 C 1097.21 1.43899 -0.893841 0
M  V30 11736 O 1098.42 1.44072 -1.07904 0
M  V30 11737 H 1094.8 0.400065 -0.636751 0
M  V30 11738 H 1096.77 0.798696 -2.87512 0
M  V30 11739 C 1095.52 2.51105 -2.40502 0
M  V30 11740 H 1094.84 2.32611 -3.25165 0
M  V30 11741 H 1096.28 3.23244 -2.74389 0
M  V30 11742 C 1094.74 3.12386 -1.26161 0
M  V30 11743 O 1095.27 3.97666 -0.567836 0
M  V30 11744 N 1093.47 2.71989 -1.02326 0
M  V30 11745 H 1093.02 2.02736 -1.58921 0
M  V30 11746 H 1092.98 3.13322 -0.26013 0
M  V30 11747 N 1096.75 1.52266 0.40654 0
M  V30 11748 C 1098 1.66123 1.15097 0
M  V30 11749 C 1098.32 0.394836 1.90961 0
M  V30 11750 O 1097.59 -0.590349 1.86793 0
M  V30 11751 H 1096.17 0.612317 0.427875 0
M  V30 11752 H 1098.83 1.89318 0.463106 0
M  V30 11753 H 1097.93 2.50351 1.86361 0
M  V30 11754 N 1098.23 -0.663929 1.42933 0
M  V30 11755 C 1099.16 -1.78899 1.50058 0
M  V30 11756 C 1100.14 -1.66329 0.356164 0
M  V30 11757 O 1101.32 -1.85587 0.571944 0
M  V30 11758 C 1098.45 -3.17265 1.41281 0
M  V30 11759 C 1097.41 -3.44584 2.53861 0
M  V30 11760 C 1096.73 -4.82638 2.3014 0
M  V30 11761 C 1098.03 -3.40394 3.96143 0
M  V30 11762 H 1099.73 -1.73194 2.44222 0
M  V30 11763 H 1097.27 -0.83182 1.17545 0
M  V30 11764 H 1099.23 -3.95715 1.44872 0
M  V30 11765 H 1097.95 -3.23675 0.43616 0
M  V30 11766 H 1096.61 -2.685 2.49606 0
M  V30 11767 H 1096.26 -4.85711 1.30743 0
M  V30 11768 H 1095.96 -5.01879 3.056 0
M  V30 11769 H 1097.48 -5.63359 2.35497 0
M  V30 11770 H 1098.9 -4.08796 4.01943 0
M  V30 11771 H 1097.29 -3.7117 4.71543 0
M  V30 11772 H 1098.36 -2.38767 4.22041 0
M  V30 11773 N 1099.71 -1.29285 -0.901281 0
M  V30 11774 C 1100.95 -1.17339 -1.65407 0
M  V30 11775 C 1101.29 0.274834 -1.92245 0
M  V30 11776 O 1100.56 1.19865 -1.53176 0
M  V30 11777 C 1100.84 -1.98547 -3.00418 0
M  V30 11778 C 1100.7 -3.51501 -2.80655 0
M  V30 11779 C 1102.02 -1.81062 -4.01129 0
M  V30 11780 H 1099.13 -0.427624 -0.600255 0
M  V30 11781 H 1101.78 -1.58741 -1.0441 0
M  V30 11782 H 1099.93 -1.63366 -3.52482 0
M  V30 11783 H 1101.6 -3.96655 -2.35505 0
M  V30 11784 H 1099.84 -3.76504 -2.15469 0
M  V30 11785 H 1100.51 -4.03593 -3.76585 0
M  V30 11786 H 1102.99 -2.11788 -3.58169 0
M  V30 11787 H 1101.86 -2.40235 -4.93536 0
M  V30 11788 H 1102.13 -0.765388 -4.35424 0
M  V30 11789 N 1101.18 1.11143 -1.11736 0
M  V30 11790 C 1102.12 2.16467 -0.722299 0
M  V30 11791 C 1103.1 1.60118 0.283006 0
M  V30 11792 O 1104.28 1.87651 0.178696 0
M  V30 11793 C 1101.41 3.38632 -0.0679339 0
M  V30 11794 C 1100.45 4.13654 -1.03888 0
M  V30 11795 S 1101.29 4.70187 -2.5629 0
M  V30 11796 C 1102.44 5.95671 -1.92163 0
M  V30 11797 H 1102.67 2.49644 -1.61447 0
M  V30 11798 H 1100.21 1.22816 -0.935708 0
M  V30 11799 H 1102.17 4.09378 0.303253 0
M  V30 11800 H 1100.83 3.03709 0.80124 0
M  V30 11801 H 1100.02 5.01221 -0.528522 0
M  V30 11802 H 1099.62 3.48683 -1.35265 0
M  V30 11803 H 1101.91 6.65681 -1.25994 0
M  V30 11804 H 1102.86 6.51357 -2.77741 0
M  V30 11805 H 1103.26 5.47359 -1.3805 0
M  V30 11806 N 1102.66 0.908147 1.28804 0
M  V30 11807 C 1103.94 0.457561 1.90173 0
M  V30 11808 C 1104.32 -1.06333 1.82364 0
M  V30 11809 O 1103.67 -1.90892 1.25589 0
M  V30 11810 C 1103.88 0.981624 3.34911 0
M  V30 11811 C 1105.23 1.03037 4.11908 0
M  V30 11812 O 1106.25 0.929878 3.43848 0
M  V30 11813 O 1105.11 1.18257 5.33552 0
M  V30 11814 H 1102.2 0.144081 0.814352 0
M  V30 11815 H 1104.75 0.998565 1.37211 0
M  V30 11816 H 1103.52 2.02561 3.34791 0
M  V30 11817 H 1103.14 0.421122 3.95364 0
M  V30 11818 N 1104.14 -1.42577 0.671525 0
M  V30 11819 C 1105.09 -2.30798 -0.00883676 0
M  V30 11820 C 1106.06 -1.4578 -0.796076 0
M  V30 11821 O 1107.24 -1.74617 -0.768987 0
M  V30 11822 C 1104.38 -3.31581 -0.956452 0
M  V30 11823 C 1103.5 -4.31691 -0.163381 0
M  V30 11824 C 1102.63 -5.19549 -1.10645 0
M  V30 11825 C 1101.67 -6.1134 -0.304876 0
M  V30 11826 N 1100.81 -6.91761 -1.20048 0
M  V30 11827 H 1105.65 -2.88426 0.749301 0
M  V30 11828 H 1103.18 -1.42074 0.381251 0
M  V30 11829 H 1105.14 -3.88539 -1.51966 0
M  V30 11830 H 1103.77 -2.75561 -1.68126 0
M  V30 11831 H 1102.82 -3.76879 0.516396 0
M  V30 11832 H 1104.14 -4.96683 0.459099 0
M  V30 11833 H 1103.29 -5.81223 -1.73969 0
M  V30 11834 H 1102.03 -4.54726 -1.76282 0
M  V30 11835 H 1101.03 -5.48738 0.341597 0
M  V30 11836 H 1102.26 -6.78211 0.347352 0
M  V30 11837 H 1100.2 -6.2957 -1.84331 0
M  V30 11838 H 1100.12 -7.53345 -0.633003 0
M  V30 11839 H 1101.39 -7.57924 -1.82129 0
M  V30 11840 N 1105.62 -0.414636 -1.52048 0
M  V30 11841 C 1106.86 0.151945 -2.02832 0
M  V30 11842 C 1107.22 1.42337 -1.29452 0
M  V30 11843 O 1106.51 1.87509 -0.39383 0
M  V30 11844 C 1106.71 0.448327 -3.54577 0
M  V30 11845 C 1106.54 -0.792827 -4.42656 0
M  V30 11846 C 1105.31 -1.31966 -4.87763 0
M  V30 11847 C 1107.5 -1.67252 -4.86345 0
M  V30 11848 N 1105.49 -2.51572 -5.59986 0
M  V30 11849 C 1106.86 -2.71479 -5.57404 0
M  V30 11850 C 1108.91 -1.68963 -4.68354 0
M  V30 11851 C 1107.61 -3.77334 -6.12382 0
M  V30 11852 C 1109.64 -2.7374 -5.24233 0
M  V30 11853 C 1109 -3.76687 -5.95219 0
M  V30 11854 H 1105.1 0.0170247 -0.781815 0
M  V30 11855 H 1107.69 -0.570219 -1.86163 0
M  V30 11856 H 1105.86 1.13953 -3.71307 0
M  V30 11857 H 1107.59 1.00427 -3.92041 0
M  V30 11858 H 1104.34 -0.876885 -4.65411 0
M  V30 11859 H 1104.77 -3.12161 -6.00737 0
M  V30 11860 H 1109.41 -0.907103 -4.12955 0
M  V30 11861 H 1107.13 -4.56439 -6.6685 0
M  V30 11862 H 1110.71 -2.75978 -5.12179 0
M  V30 11863 H 1109.59 -4.56431 -6.37684 0
M  V30 11864 N 1107.1 1.56929 -0.145233 0
M  V30 11865 C 1108.34 1.96068 0.50632 0
M  V30 11866 C 1108.67 1.02999 1.64989 0
M  V30 11867 O 1107.93 0.0588581 1.95611 0
M  V30 11868 C 1108.23 3.41467 1.05522 0
M  V30 11869 C 1107.89 4.5089 0.0302827 0
M  V30 11870 C 1106.55 4.80542 -0.251475 0
M  V30 11871 C 1108.91 5.16917 -0.666783 0
M  V30 11872 C 1106.23 5.7353 -1.23614 0
M  V30 11873 C 1108.59 6.10965 -1.64025 0
M  V30 11874 C 1107.25 6.38998 -1.92973 0
M  V30 11875 H 1106.52 0.717464 0.185276 0
M  V30 11876 H 1109.17 1.90093 -0.23169 0
M  V30 11877 H 1107.47 3.44265 1.87053 0
M  V30 11878 H 1109.17 3.69077 1.5679 0
M  V30 11879 H 1105.76 4.2781 0.260069 0
M  V30 11880 H 1109.94 4.94142 -0.462297 0
M  V30 11881 H 1105.2 5.93543 -1.46687 0
M  V30 11882 H 1109.37 6.61204 -2.18591 0
M  V30 11883 H 1107 7.10855 -2.69423 0
M  V30 11884 N 1108.58 -0.128553 1.57075 0
M  V30 11885 C 1109.82 -0.836536 1.83535 0
M  V30 11886 C 1110.14 -1.81491 0.7294 0
M  V30 11887 O 1111.34 -2.56838 0.880128 0
M  V30 11888 C 1109.8 -1.53836 3.25365 0
M  V30 11889 C 1109.41 -0.601454 4.43944 0
M  V30 11890 C 1111.15 -2.23204 3.61082 0
M  V30 11891 C 1109.06 -1.30596 5.768 0
M  V30 11892 H 1107.99 -0.316142 0.684522 0
M  V30 11893 H 1110.64 -0.0892555 1.83283 0
M  V30 11894 H 1109.02 -2.33192 3.20058 0
M  V30 11895 H 1110.2 0.158209 4.60528 0
M  V30 11896 H 1108.51 -0.0152393 4.16397 0
M  V30 11897 H 1111.11 -2.76585 4.57608 0
M  V30 11898 H 1111.45 -3.0056 2.88044 0
M  V30 11899 H 1111.98 -1.50746 3.68131 0
M  V30 11900 H 1108.72 -0.573874 6.52983 0
M  V30 11901 H 1108.24 -2.03787 5.6412 0
M  V30 11902 H 1109.92 -1.8418 6.20231 0
M  V30 11903 N 1110.05 -1.5248 -0.398459 0
M  V30 11904 C 1110.98 -1.79549 -1.49279 0
M  V30 11905 C 1111.96 -0.647004 -1.57315 0
M  V30 11906 O 1113.15 -0.893661 -1.72416 0
M  V30 11907 C 1110.28 -1.95582 -2.86993 0
M  V30 11908 C 1109.23 -3.1123 -2.93803 0
M  V30 11909 C 1108.56 -3.12501 -4.33874 0
M  V30 11910 C 1109.86 -4.50485 -2.64312 0
M  V30 11911 H 1111.55 -2.71187 -1.26877 0
M  V30 11912 H 1109.1 -1.30492 -0.608924 0
M  V30 11913 H 1111.05 -2.13102 -3.63546 0
M  V30 11914 H 1109.78 -1.00625 -3.10712 0
M  V30 11915 H 1108.44 -2.93477 -2.19697 0
M  V30 11916 H 1108.08 -2.15245 -4.54619 0
M  V30 11917 H 1107.78 -3.90183 -4.39353 0
M  V30 11918 H 1109.31 -3.32164 -5.12347 0
M  V30 11919 H 1110.72 -4.68387 -3.30585 0
M  V30 11920 H 1109.12 -5.30163 -2.81153 0
M  V30 11921 H 1110.19 -4.57848 -1.59696 0
M  V30 11922 N 1111.53 0.65634 -1.43283 0
M  V30 11923 C 1112.46 1.78184 -1.44164 0
M  V30 11924 C 1113.48 1.59249 -0.338177 0
M  V30 11925 O 1114.67 1.68027 -0.60242 0
M  V30 11926 C 1111.77 3.15566 -1.23577 0
M  V30 11927 C 1110.94 3.61187 -2.46704 0
M  V30 11928 C 1110 4.77361 -2.21388 0
M  V30 11929 O 1109.02 4.8696 -2.94718 0
M  V30 11930 N 1110.23 5.67351 -1.22855 0
M  V30 11931 H 1112.99 1.77907 -2.41183 0
M  V30 11932 H 1110.55 0.840076 -1.38399 0
M  V30 11933 H 1112.54 3.90968 -1.04529 0
M  V30 11934 H 1111.11 3.10633 -0.350155 0
M  V30 11935 H 1110.33 2.76263 -2.81198 0
M  V30 11936 H 1111.62 3.88413 -3.28652 0
M  V30 11937 H 1111.02 5.62265 -0.622417 0
M  V30 11938 H 1109.58 6.42487 -1.09791 0
M  V30 11939 N 1113.01 1.29761 0.894412 0
M  V30 11940 C 1113.97 1.15335 1.98067 0
M  V30 11941 C 1114.97 0.0872804 1.60563 0
M  V30 11942 O 1116.16 0.334645 1.70955 0
M  V30 11943 C 1113.29 0.764907 3.32208 0
M  V30 11944 H 1114.49 2.11829 2.12293 0
M  V30 11945 H 1112.04 1.13023 1.0796 0
M  V30 11946 H 1112.78 -0.199948 3.23683 0
M  V30 11947 H 1112.56 1.53523 3.60795 0
M  V30 11948 H 1114.05 0.687176 4.11907 0
M  V30 11949 N 1114.49 -1.10549 1.12324 0
M  V30 11950 C 1115.72 -1.8627 0.900618 0
M  V30 11951 C 1116.13 -1.80609 -0.550069 0
M  V30 11952 O 1115.49 -1.19396 -1.38025 0
M  V30 11953 C 1115.54 -3.34716 1.36556 0
M  V30 11954 O 1115.26 -3.40279 2.75938 0
M  V30 11955 C 1116.76 -4.27315 1.17969 0
M  V30 11956 H 1113.98 -0.588741 0.321908 0
M  V30 11957 H 1116.52 -1.39759 1.49291 0
M  V30 11958 H 1114.68 -3.78697 0.81652 0
M  V30 11959 H 1115.09 -4.32781 2.96312 0
M  V30 11960 H 1116.57 -5.29677 1.55391 0
M  V30 11961 H 1117.04 -4.39036 0.120158 0
M  V30 11962 H 1117.65 -3.89137 1.71617 0
M  V30 11963 N 1115.97 -0.914965 -1.28321 0
M  V30 11964 C 1117.19 -0.564023 -1.99583 0
M  V30 11965 C 1117.62 0.847821 -1.6791 0
M  V30 11966 O 1116.97 1.56682 -0.912171 0
M  V30 11967 C 1117.02 -0.781368 -3.52033 0
M  V30 11968 O 1116.13 0.159072 -4.12093 0
M  V30 11969 H 1115.47 -0.218565 -0.626997 0
M  V30 11970 H 1118 -1.23074 -1.63444 0
M  V30 11971 H 1118.01 -0.691946 -4.0209 0
M  V30 11972 H 1116.68 -1.81059 -3.7442 0
M  V30 11973 H 1115.26 0.0208145 -3.72894 0
M  V30 11974 N 1117.44 1.42219 -0.679077 0
M  V30 11975 C 1118.85 1.8459 -0.279877 0
M  V30 11976 C 1119.21 1.56839 1.17881 0
M  V30 11977 O 1118.33 1.03039 1.90294 0
M  V30 11978 C 1118.93 3.35072 -0.501185 0
M  V30 11979 C 1117.48 3.76076 -0.156065 0
M  V30 11980 C 1116.63 2.65763 -0.791549 0
M  V30 11981 H 1119.58 1.32005 -0.880932 0
M  V30 11982 H 1119.6 3.79708 0.245349 0
M  V30 11983 H 1119.12 3.55239 -1.56291 0
M  V30 11984 H 1117.22 3.61516 0.90205 0
M  V30 11985 H 1117.33 4.75334 -0.599572 0
M  V30 11986 H 1115.69 2.53726 -0.222514 0
M  V30 11987 H 1116.48 2.88751 -1.85682 0
M  V30 11988 N 1118.92 0.422693 1.51826 0
M  V30 11989 C 1119.88 -0.384307 2.25955 0
M  V30 11990 C 1120.88 -0.962184 1.28836 0
M  V30 11991 O 1122.07 -0.838931 1.52668 0
M  V30 11992 C 1119.21 -1.54228 3.04018 0
M  V30 11993 H 1120.4 0.265157 2.98726 0
M  V30 11994 H 1117.95 0.175515 1.55311 0
M  V30 11995 H 1118.69 -2.22822 2.35629 0
M  V30 11996 H 1118.47 -1.13425 3.75336 0
M  V30 11997 H 1119.96 -2.1128 3.60209 0
M  V30 11998 N 1120.4 -1.5685 0.153553 0
M  V30 11999 C 1121.36 -2.15894 -0.769564 0
M  V30 12000 C 1122.36 -1.10239 -1.17064 0
M  V30 12001 O 1123.55 -1.35845 -1.09049 0
M  V30 12002 C 1120.68 -2.72738 -2.04516 0
M  V30 12003 H 1121.88 -2.98807 -0.255842 0
M  V30 12004 H 1119.43 -1.56005 -0.0959279 0
M  V30 12005 H 1120.17 -1.9351 -2.60239 0
M  V30 12006 H 1119.95 -3.50042 -1.76672 0
M  V30 12007 H 1121.44 -3.18208 -2.70432 0
M  V30 12008 N 1121.88 0.120221 -1.57141 0
M  V30 12009 C 1122.83 1.16654 -2.01233 0
M  V30 12010 C 1123.82 1.42943 -0.909053 0
M  V30 12011 O 1125.03 1.4292 -1.09426 0
M  V30 12012 H 1121.4 0.393289 -0.640958 0
M  V30 12013 H 1123.37 0.768156 -2.88343 0
M  V30 12014 C 1122.12 2.4854 -2.43152 0
M  V30 12015 H 1121.44 2.29149 -3.27614 0
M  V30 12016 H 1122.88 3.20315 -2.77802 0
M  V30 12017 C 1121.34 3.1103 -1.29468 0
M  V30 12018 O 1121.87 3.97042 -0.609982 0
M  V30 12019 N 1120.08 2.70888 -1.05205 0
M  V30 12020 H 1119.63 2.01039 -1.61062 0
M  V30 12021 H 1119.58 3.13028 -0.293347 0
M  V30 12022 N 1123.36 1.52689 0.390367 0
M  V30 12023 C 1124.6 1.67914 1.13722 0
M  V30 12024 C 1124.94 0.417159 1.89667 0
M  V30 12025 O 1124.21 -0.585005 1.85494 0
M  V30 12026 C 1124.49 2.91331 2.11656 0
M  V30 12027 C 1124.35 4.27626 1.39484 0
M  V30 12028 C 1125.67 3.10293 3.12099 0
M  V30 12029 H 1122.78 0.611047 0.412057 0
M  V30 12030 H 1125.43 1.85283 0.420753 0
M  V30 12031 H 1123.58 2.76654 2.72754 0
M  V30 12032 H 1125.25 4.54068 0.813607 0
M  V30 12033 H 1123.49 4.28169 0.69669 0
M  V30 12034 H 1124.16 5.10066 2.11038 0
M  V30 12035 H 1126.64 3.23992 2.6109 0
M  V30 12036 H 1125.51 3.98127 3.7787 0
M  V30 12037 H 1125.78 2.24448 3.80888 0
M  V30 12038 N 1124.83 -0.648732 1.43629 0
M  V30 12039 C 1125.76 -1.77298 1.51947 0
M  V30 12040 C 1126.75 -1.65942 0.373785 0
M  V30 12041 O 1127.93 -1.8497 0.591596 0
M  V30 12042 C 1125.06 -3.15749 1.44638 0
M  V30 12043 C 1124.01 -3.41872 2.57502 0
M  V30 12044 C 1123.34 -4.8017 2.35246 0
M  V30 12045 C 1124.64 -3.36173 3.99731 0
M  V30 12046 H 1126.33 -1.70594 2.46045 0
M  V30 12047 H 1123.88 -0.819306 1.1842 0
M  V30 12048 H 1125.83 -3.94156 1.4906 0
M  V30 12049 H 1124.56 -3.23194 0.470466 0
M  V30 12050 H 1123.22 -2.65838 2.5244 0
M  V30 12051 H 1122.86 -4.84297 1.35887 0
M  V30 12052 H 1122.56 -4.9861 3.10906 0
M  V30 12053 H 1124.09 -5.6083 2.41459 0
M  V30 12054 H 1125.5 -4.0451 4.06257 0
M  V30 12055 H 1123.9 -3.66148 4.75453 0
M  V30 12056 H 1124.97 -2.34277 4.24549 0
M  V30 12057 N 1126.31 -1.30234 -0.887518 0
M  V30 12058 C 1127.22 -1.18316 -2.02579 0
M  V30 12059 C 1128.24 -0.103658 -1.73691 0
M  V30 12060 O 1129.41 -0.3181 -1.98872 0
M  V30 12061 C 1126.48 -0.873222 -3.35523 0
M  V30 12062 C 1125.54 -2.03783 -3.7785 0
M  V30 12063 C 1124.77 -1.74258 -5.0445 0
M  V30 12064 O 1125 -0.669295 -5.6646 0
M  V30 12065 O 1123.93 -2.59423 -5.43124 0
M  V30 12066 H 1127.76 -2.13933 -2.15561 0
M  V30 12067 H 1125.34 -1.09803 -1.0131 0
M  V30 12068 H 1127.22 -0.715463 -4.15282 0
M  V30 12069 H 1125.9 0.053056 -3.23657 0
M  V30 12070 H 1124.81 -2.2509 -2.98806 0
M  V30 12071 H 1126.14 -2.94574 -3.94318 0
M  V30 12072 N 1127.79 1.09952 -1.12909 0
M  V30 12073 C 1129.02 1.8579 -0.910483 0
M  V30 12074 C 1129.43 1.80898 0.540484 0
M  V30 12075 O 1128.79 1.20126 1.3739 0
M  V30 12076 C 1128.84 3.33987 -1.38329 0
M  V30 12077 O 1128.56 3.38811 -2.77739 0
M  V30 12078 C 1130.06 4.26683 -1.20234 0
M  V30 12079 H 1127.28 0.587026 -0.325025 0
M  V30 12080 H 1129.83 1.38965 -1.5003 0
M  V30 12081 H 1127.98 3.78259 -0.836592 0
M  V30 12082 H 1128.4 4.31204 -2.98603 0
M  V30 12083 H 1129.87 5.28846 -1.58197 0
M  V30 12084 H 1130.35 4.38966 -0.14344 0
M  V30 12085 H 1130.95 3.88221 -1.73679 0
M  V30 12086 N 1129.27 0.921757 1.27833 0
M  V30 12087 C 1130.51 0.559906 1.94918 0
M  V30 12088 C 1130.85 -0.895532 1.72319 0
M  V30 12089 O 1130.12 -1.638 1.04879 0
M  V30 12090 C 1130.41 0.879458 3.49196 0
M  V30 12091 C 1130.26 2.38821 3.81162 0
M  V30 12092 C 1131.58 0.381183 4.38446 0
M  V30 12093 H 1128.7 0.204893 0.707946 0
M  V30 12094 H 1131.34 1.15246 1.51058 0
M  V30 12095 H 1129.49 0.375177 3.86684 0
M  V30 12096 H 1131.16 2.96373 3.53498 0
M  V30 12097 H 1129.4 2.83988 3.27923 0
M  V30 12098 H 1130.07 2.56234 4.88926 0
M  V30 12099 H 1132.55 0.813289 4.08075 0
M  V30 12100 H 1131.43 0.633778 5.45229 0
M  V30 12101 H 1131.69 -0.718651 4.3622 0
M  V30 12102 N 1130.75 -1.41857 0.686609 0
M  V30 12103 C 1132.16 -1.55549 0.357288 0
M  V30 12104 C 1132.36 -1.66394 -1.13646 0
M  V30 12105 O 1131.42 -1.63739 -1.92213 0
M  V30 12106 C 1132.73 -2.79938 1.09796 0
M  V30 12107 C 1134.28 -2.93724 1.08143 0
M  V30 12108 C 1134.75 -4.20989 1.80367 0
M  V30 12109 N 1136.25 -4.27927 1.77293 0
M  V30 12110 C 1136.98 -5.2524 2.30022 0
M  V30 12111 N 1136.48 -6.28636 2.91185 0
M  V30 12112 N 1138.27 -5.17118 2.20329 0
M  V30 12113 H 1130.42 -1.33063 1.65554 0
M  V30 12114 H 1132.68 -0.641335 0.698135 0
M  V30 12115 H 1132.39 -2.78104 2.15293 0
M  V30 12116 H 1132.26 -3.71188 0.670763 0
M  V30 12117 H 1134.65 -2.9508 0.0347554 0
M  V30 12118 H 1134.73 -2.03673 1.54761 0
M  V30 12119 H 1134.38 -4.20395 2.85009 0
M  V30 12120 H 1134.31 -5.09997 1.3119 0
M  V30 12121 H 1136.8 -3.53838 1.32692 0
M  V30 12122 H 1137.11 -6.99265 3.29011 0
M  V30 12123 H 1135.45 -6.29164 2.95259 0
M  V30 12124 H 1138.65 -4.35265 1.72226 0
M  V30 12125 H 1138.82 -5.92792 2.61728 0
M  V30 12126 N 1132.22 -0.430739 -1.51599 0
M  V30 12127 C 1133.47 0.137657 -2.01631 0
M  V30 12128 C 1133.79 1.43787 -1.31721 0
M  V30 12129 O 1133.06 1.90668 -0.449717 0
M  V30 12130 H 1131.64 0.0538611 -0.745056 0
M  V30 12131 H 1134.31 -0.571935 -1.86319 0
M  V30 12132 H 1133.4 0.318305 -3.10473 0
M  V30 12133 N 1133.7 1.56767 -0.161869 0
M  V30 12134 C 1134.63 2.20511 0.767918 0
M  V30 12135 C 1135.61 1.15783 1.24612 0
M  V30 12136 O 1136.8 1.44179 1.301 0
M  V30 12137 C 1133.93 2.83844 2.00125 0
M  V30 12138 C 1132.88 3.94528 1.65926 0
M  V30 12139 C 1132.21 4.44866 2.96646 0
M  V30 12140 C 1133.51 5.14583 0.894497 0
M  V30 12141 H 1135.2 2.98464 0.236607 0
M  V30 12142 H 1132.75 1.43561 0.112363 0
M  V30 12143 H 1134.7 3.27109 2.65664 0
M  V30 12144 H 1133.43 2.03246 2.55654 0
M  V30 12145 H 1132.08 3.51904 1.02759 0
M  V30 12146 H 1131.73 3.61071 3.50196 0
M  V30 12147 H 1131.43 5.19531 2.74521 0
M  V30 12148 H 1132.96 4.90812 3.6323 0
M  V30 12149 H 1134.37 5.54601 1.45228 0
M  V30 12150 H 1132.77 5.95105 0.772636 0
M  V30 12151 H 1133.84 4.84773 -0.110986 0
M  V30 12152 N 1135.18 -0.111886 1.57202 0
M  V30 12153 C 1136.11 -1.13796 2.03894 0
M  V30 12154 C 1137.09 -1.4277 0.924696 0
M  V30 12155 O 1138.28 -1.53089 1.19488 0
M  V30 12156 C 1135.41 -2.46229 2.44925 0
M  V30 12157 C 1134.36 -2.31702 3.59859 0
M  V30 12158 C 1133.69 -3.69161 3.86813 0
M  V30 12159 C 1134.99 -1.77158 4.91337 0
M  V30 12160 H 1136.68 -0.749581 2.89865 0
M  V30 12161 H 1134.23 -0.359126 1.3945 0
M  V30 12162 H 1136.18 -3.18267 2.76195 0
M  V30 12163 H 1134.9 -2.86971 1.55933 0
M  V30 12164 H 1133.56 -1.62112 3.28809 0
M  V30 12165 H 1133.21 -4.07401 2.95015 0
M  V30 12166 H 1132.91 -3.60292 4.6418 0
M  V30 12167 H 1134.43 -4.42693 4.20542 0
M  V30 12168 H 1135.85 -2.3902 5.21097 0
M  V30 12169 H 1134.25 -1.79091 5.72753 0
M  V30 12170 H 1135.32 -0.729675 4.79379 0
M  V30 12171 N 1136.66 -1.52894 -0.382264 0
M  V30 12172 C 1137.59 -1.74413 -1.48703 0
M  V30 12173 C 1138.6 -0.624663 -1.50339 0
M  V30 12174 O 1139.79 -0.900527 -1.54119 0
M  V30 12175 C 1136.89 -1.79387 -2.8753 0
M  V30 12176 C 1136.07 -3.08794 -3.09783 0
M  V30 12177 C 1135.12 -3.05226 -4.2863 0
M  V30 12178 O 1134.15 -3.79073 -4.24609 0
M  V30 12179 N 1135.35 -2.2488 -5.35172 0
M  V30 12180 H 1138.12 -2.69734 -1.30628 0
M  V30 12181 H 1135.68 -1.51465 -0.571842 0
M  V30 12182 H 1137.67 -1.74498 -3.65147 0
M  V30 12183 H 1136.24 -0.914233 -2.98932 0
M  V30 12184 H 1135.46 -3.27118 -2.19971 0
M  V30 12185 H 1136.75 -3.94347 -3.21509 0
M  V30 12186 H 1136.15 -1.64363 -5.41296 0
M  V30 12187 H 1134.7 -2.25825 -6.1143 0
M  V30 12188 N 1138.14 0.641106 -1.43971 0
M  V30 12189 C 1139.09 1.74699 -1.46507 0
M  V30 12190 C 1140.07 1.57437 -0.332037 0
M  V30 12191 O 1141.26 1.67343 -0.576663 0
M  V30 12192 C 1138.39 3.13344 -1.40252 0
M  V30 12193 C 1137.48 3.3611 -2.58632 0
M  V30 12194 N 1137.87 3.29291 -3.83929 0
M  V30 12195 C 1136.17 3.66873 -2.53615 0
M  V30 12196 C 1136.87 3.52472 -4.62751 0
M  V30 12197 N 1135.84 3.74868 -3.93668 0
M  V30 12198 H 1139.65 1.67869 -2.41241 0
M  V30 12199 H 1137.16 0.843217 -1.38793 0
M  V30 12200 H 1139.16 3.92636 -1.40153 0
M  V30 12201 H 1137.82 3.21346 -0.46549 0
M  V30 12202 H 1138.83 3.08431 -4.16041 0
M  V30 12203 H 1135.51 3.81917 -1.68659 0
M  V30 12204 H 1136.9 3.52876 -5.71776 0
M  V30 12205 N 1139.62 1.30703 0.880598 0
M  V30 12206 C 1141.03 1.09129 1.1646 0
M  V30 12207 C 1141.23 -0.145131 2.00977 0
M  V30 12208 O 1140.29 -0.837502 2.38206 0
M  V30 12209 C 1141.6 2.35717 1.86703 0
M  V30 12210 C 1143.15 2.41224 1.9945 0
M  V30 12211 C 1143.62 3.67665 2.73105 0
M  V30 12212 N 1145.11 3.68498 2.80648 0
M  V30 12213 C 1145.85 4.63024 3.38225 0
M  V30 12214 N 1145.35 5.67898 3.96817 0
M  V30 12215 N 1147.14 4.50561 3.36082 0
M  V30 12216 H 1139.29 2.10019 0.317164 0
M  V30 12217 H 1141.55 0.925994 0.203072 0
M  V30 12218 H 1141.26 3.2597 1.32046 0
M  V30 12219 H 1141.13 2.447 2.87057 0
M  V30 12220 H 1143.52 1.51446 2.53275 0
M  V30 12221 H 1143.6 2.36212 0.981704 0
M  V30 12222 H 1143.24 4.57803 2.19951 0
M  V30 12223 H 1143.17 3.69939 3.7477 0
M  V30 12224 H 1145.67 2.92681 2.39053 0
M  V30 12225 H 1145.98 6.3612 4.3883 0
M  V30 12226 H 1144.32 5.71685 3.95223 0
M  V30 12227 H 1147.51 3.67811 2.89539 0
M  V30 12228 H 1147.69 5.24408 3.80657 0
M  V30 12229 N 1141.09 -1.09351 1.1349 0
M  V30 12230 C 1142.32 -1.85844 0.92069 0
M  V30 12231 C 1142.74 -1.80616 -0.525303 0
M  V30 12232 O 1142.1 -1.1842 -1.37282 0
M  V30 12233 C 1142.15 -3.31716 1.4141 0
M  V30 12234 O 1141.25 -4.08014 0.599838 0
M  V30 12235 H 1140.59 -0.576242 0.32991 0
M  V30 12236 H 1143.12 -1.38084 1.50976 0
M  V30 12237 H 1143.13 -3.82564 1.41805 0
M  V30 12238 H 1141.81 -3.34837 2.46692 0
M  V30 12239 H 1140.39 -3.66944 0.663816 0
M  V30 12240 N 1142.57 -0.928524 -1.27343 0
M  V30 12241 C 1143.82 -0.569392 -1.9433 0
M  V30 12242 C 1144.15 0.889481 -1.7297 0
M  V30 12243 O 1143.4 1.6499 -1.05247 0
M  V30 12244 C 1143.7 -0.84269 -3.47323 0
M  V30 12245 C 1143.37 -2.28344 -3.88806 0
M  V30 12246 C 1142.03 -2.67731 -3.99842 0
M  V30 12247 C 1144.38 -3.22031 -4.09811 0
M  V30 12248 C 1141.71 -3.99928 -4.29272 0
M  V30 12249 C 1144.06 -4.5381 -4.40725 0
M  V30 12250 C 1142.72 -4.93031 -4.49975 0
M  V30 12251 H 1141.99 -0.208355 -0.711104 0
M  V30 12252 H 1144.64 -1.17264 -1.51398 0
M  V30 12253 H 1142.95 -0.156775 -3.91486 0
M  V30 12254 H 1144.64 -0.543779 -3.97296 0
M  V30 12255 H 1141.23 -1.96787 -3.80753 0
M  V30 12256 H 1145.42 -2.92803 -4.00724 0
M  V30 12257 H 1140.67 -4.29996 -4.34642 0
M  V30 12258 H 1144.85 -5.26407 -4.55926 0
M  V30 12259 H 1142.47 -5.95497 -4.72533 0
M  V30 12260 N 1144.05 1.41491 -0.694123 0
M  V30 12261 C 1145.28 2.05579 -0.233466 0
M  V30 12262 C 1145.69 1.5223 1.11675 0
M  V30 12263 O 1145.05 0.669937 1.69759 0
M  V30 12264 C 1145.1 3.61047 -0.180967 0
M  V30 12265 O 1144.82 4.12421 -1.47785 0
M  V30 12266 C 1146.32 4.42278 0.300853 0
M  V30 12267 H 1143.54 0.662097 -0.108943 0
M  V30 12268 H 1146.09 1.81288 -0.946299 0
M  V30 12269 H 1144.24 3.84381 0.482678 0
M  V30 12270 H 1144.66 5.06454 -1.364 0
M  V30 12271 H 1146.13 5.51256 0.286464 0
M  V30 12272 H 1146.61 4.18276 1.33948 0
M  V30 12273 H 1147.21 4.24004 -0.331741 0
M  V30 12274 N 1145.53 0.438773 1.51369 0
M  V30 12275 C 1146.46 -0.417215 2.24354 0
M  V30 12276 C 1147.44 -1.02351 1.26345 0
M  V30 12277 O 1148.62 -1.06569 1.55484 0
M  V30 12278 C 1145.75 -1.58163 2.99503 0
M  V30 12279 C 1144.8 -1.09588 4.1218 0
M  V30 12280 S 1145.63 -0.0367491 5.35487 0
M  V30 12281 C 1146.78 -1.2058 6.14175 0
M  V30 12282 H 1147.02 0.202416 2.9661 0
M  V30 12283 H 1144.55 0.223306 1.52777 0
M  V30 12284 H 1146.51 -2.24917 3.43399 0
M  V30 12285 H 1145.17 -2.17268 2.26833 0
M  V30 12286 H 1144.36 -1.96667 4.64045 0
M  V30 12287 H 1143.96 -0.506564 3.70554 0
M  V30 12288 H 1146.26 -2.12387 6.43349 0
M  V30 12289 H 1147.2 -0.727087 7.04357 0
M  V30 12290 H 1147.61 -1.44501 5.45692 0
M  V30 12291 N 1147.01 -1.56678 0.170181 0
M  V30 12292 C 1148.23 -2.0166 -0.484543 0
M  V30 12293 C 1148.66 -1.04962 -1.56091 0
M  V30 12294 O 1148.01 -0.0289887 -1.81277 0
M  V30 12295 C 1148.06 -3.45252 -1.04084 0
M  V30 12296 O 1147.17 -3.51623 -2.15488 0
M  V30 12297 H 1146.51 -0.653765 -0.116135 0
M  V30 12298 H 1149.04 -2.02761 0.273737 0
M  V30 12299 H 1149.05 -3.84534 -1.36373 0
M  V30 12300 H 1147.72 -4.15131 -0.252738 0
M  V30 12301 H 1146.3 -3.242 -1.84252 0
M  V30 12302 N 1148.48 0.103547 -1.57259 0
M  V30 12303 C 1149.43 1.14513 -2.02459 0
M  V30 12304 C 1150.43 1.4197 -0.924163 0
M  V30 12305 O 1151.63 1.41751 -1.10936 0
M  V30 12306 H 1148.01 0.386469 -0.645094 0
M  V30 12307 H 1149.98 0.737531 -2.89142 0
M  V30 12308 C 1148.73 2.45948 -2.45775 0
M  V30 12309 H 1148.05 2.25662 -3.30026 0
M  V30 12310 H 1149.49 3.17351 -2.81184 0
M  V30 12311 C 1147.95 3.09639 -1.32759 0
M  V30 12312 O 1148.48 3.96372 -0.652059 0
M  V30 12313 N 1146.68 2.69757 -1.08072 0
M  V30 12314 H 1146.23 1.9932 -1.63185 0
M  V30 12315 H 1146.19 3.127 -0.326532 0
M  V30 12316 N 1149.96 1.53094 0.37415 0
M  V30 12317 C 1151.37 1.60641 0.951381 0
M  V30 12318 C 1151.72 0.468474 1.90525 0
M  V30 12319 O 1150.85 -0.406347 2.12551 0
M  V30 12320 C 1151.44 2.91166 1.73228 0
M  V30 12321 C 1150 3.01077 2.25898 0
M  V30 12322 C 1149.15 2.55873 1.06885 0
M  V30 12323 H 1152.1 1.57959 0.153214 0
M  V30 12324 H 1152.12 2.78487 2.59278 0
M  V30 12325 H 1151.63 3.73968 1.03778 0
M  V30 12326 H 1149.73 2.22844 2.98615 0
M  V30 12327 H 1149.85 4.05998 2.54367 0
M  V30 12328 H 1148.21 2.10544 1.43329 0
M  V30 12329 H 1148.99 3.41084 0.38947 0
M  V30 12330 N 1151.44 -0.633461 1.44309 0
M  V30 12331 C 1152.39 -1.76674 1.51292 0
M  V30 12332 C 1153.38 -1.64972 0.384807 0
M  V30 12333 O 1154.59 -1.71079 0.559653 0
M  V30 12334 H 1150.96 -0.583238 0.474697 0
M  V30 12335 H 1152.93 -1.67907 2.46678 0
M  V30 12336 C 1151.68 -3.15002 1.47205 0
M  V30 12337 H 1151.01 -3.24653 2.33325 0
M  V30 12338 H 1152.45 -3.94199 1.56151 0
M  V30 12339 C 1150.9 -3.3635 0.192464 0
M  V30 12340 O 1151.43 -3.94857 -0.738285 0
M  V30 12341 N 1149.64 -2.9044 0.0963424 0
M  V30 12342 H 1149.19 -2.43011 0.85459 0
M  V30 12343 H 1149.15 -3.05099 -0.759061 0
M  V30 12344 N 1152.92 -1.31168 -0.873655 0
M  V30 12345 C 1154.33 -1.09745 -1.1588 0
M  V30 12346 C 1154.53 0.134471 -2.01051 0
M  V30 12347 O 1153.59 0.824857 -2.38647 0
M  V30 12348 C 1154.9 -2.36704 -1.85451 0
M  V30 12349 C 1156.45 -2.42278 -1.98167 0
M  V30 12350 C 1156.93 -3.69108 -2.71152 0
M  V30 12351 N 1158.42 -3.69981 -2.7869 0
M  V30 12352 C 1159.15 -4.64811 -3.35765 0
M  V30 12353 N 1158.65 -5.69995 -3.938 0
M  V30 12354 N 1160.44 -4.52337 -3.33688 0
M  V30 12355 H 1152.59 -2.10184 -0.306021 0
M  V30 12356 H 1154.86 -0.927058 -0.198159 0
M  V30 12357 H 1154.56 -3.26666 -1.30316 0
M  V30 12358 H 1154.44 -2.46219 -2.85755 0
M  V30 12359 H 1156.82 -1.52787 -2.52468 0
M  V30 12360 H 1156.9 -2.3673 -0.969164 0
M  V30 12361 H 1156.55 -4.58963 -2.1752 0
M  V30 12362 H 1156.48 -3.71922 -3.72803 0
M  V30 12363 H 1158.97 -2.93944 -2.37498 0
M  V30 12364 H 1159.28 -6.38438 -4.3545 0
M  V30 12365 H 1157.63 -5.73773 -3.92186 0
M  V30 12366 H 1160.82 -3.69341 -2.87584 0
M  V30 12367 H 1160.99 -5.2642 -3.77871 0
M  V30 12368 N 1154.4 1.08748 -1.14068 0
M  V30 12369 C 1155.65 1.8044 -0.901352 0
M  V30 12370 C 1155.96 1.86995 0.573791 0
M  V30 12371 O 1157.16 2.55065 0.930275 0
M  V30 12372 C 1155.62 3.24185 -1.56308 0
M  V30 12373 C 1155.23 3.25875 -3.07424 0
M  V30 12374 C 1156.97 4.00584 -1.40473 0
M  V30 12375 C 1154.88 4.64186 -3.66449 0
M  V30 12376 H 1153.81 0.676201 -0.333569 0
M  V30 12377 H 1156.46 1.22169 -1.3692 0
M  V30 12378 H 1154.84 3.82561 -1.0229 0
M  V30 12379 H 1156.02 2.77225 -3.6808 0
M  V30 12380 H 1154.33 2.62969 -3.22856 0
M  V30 12381 H 1156.93 5.02781 -1.81976 0
M  V30 12382 H 1157.27 4.14823 -0.350408 0
M  V30 12383 H 1157.8 3.48668 -1.91508 0
M  V30 12384 H 1154.54 4.5515 -4.71719 0
M  V30 12385 H 1154.06 5.13132 -3.10574 0
M  V30 12386 H 1155.74 5.33161 -3.66536 0
M  V30 12387 N 1155.87 0.935264 1.26849 0
M  V30 12388 C 1157.29 0.636661 1.46352 0
M  V30 12389 C 1157.49 -0.811823 1.84423 0
M  V30 12390 O 1156.55 -1.58902 1.9623 0
M  V30 12391 C 1157.86 1.59301 2.55036 0
M  V30 12392 C 1159.41 1.60207 2.68892 0
M  V30 12393 C 1159.88 2.54558 3.80742 0
M  V30 12394 N 1161.37 2.52809 3.88126 0
M  V30 12395 C 1162.11 3.225 4.74111 0
M  V30 12396 N 1161.6 4.01598 5.64527 0
M  V30 12397 N 1163.4 3.11481 4.67906 0
M  V30 12398 H 1155.55 1.8716 1.00423 0
M  V30 12399 H 1157.81 0.803968 0.502334 0
M  V30 12400 H 1157.52 2.62671 2.33874 0
M  V30 12401 H 1157.39 1.34052 3.52576 0
M  V30 12402 H 1159.78 0.575649 2.89431 0
M  V30 12403 H 1159.86 1.89508 1.71815 0
M  V30 12404 H 1159.5 3.57314 3.60956 0
M  V30 12405 H 1159.43 2.22549 4.77263 0
M  V30 12406 H 1161.92 1.9537 3.2348 0
M  V30 12407 H 1162.24 4.51742 6.27016 0
M  V30 12408 H 1160.58 4.057 5.64298 0
M  V30 12409 H 1163.77 2.49175 3.9627 0
M  V30 12410 H 1163.95 3.66064 5.34697 0
M  V30 12411 N 1157.35 -1.41121 0.701616 0
M  V30 12412 C 1158.58 -2.05973 0.242896 0
M  V30 12413 C 1159 -1.52474 -1.10151 0
M  V30 12414 O 1158.36 -0.654224 -1.69085 0
M  V30 12415 C 1158.41 -3.59943 0.217614 0
M  V30 12416 O 1157.51 -4.04454 -0.805629 0
M  V30 12417 H 1156.85 -0.653581 0.117166 0
M  V30 12418 H 1159.38 -1.80777 0.958175 0
M  V30 12419 H 1159.39 -4.07969 0.0505267 0
M  V30 12420 H 1158.07 -3.98249 1.19877 0
M  V30 12421 H 1156.65 -3.6792 -0.607404 0
M  V30 12422 N 1158.83 -0.446794 -1.51134 0
M  V30 12423 C 1159.76 0.350229 -2.30858 0
M  V30 12424 C 1160.74 1.0125 -1.36684 0
M  V30 12425 O 1161.93 1.01433 -1.65605 0
M  V30 12426 C 1159.06 1.4464 -3.15748 0
M  V30 12427 C 1158.01 0.907102 -4.18277 0
M  V30 12428 C 1157.34 2.09974 -4.91747 0
M  V30 12429 C 1158.64 -0.0649758 -5.2226 0
M  V30 12430 H 1160.33 -0.315105 -2.97737 0
M  V30 12431 H 1157.88 -0.152985 -1.43185 0
M  V30 12432 H 1159.83 2.01127 -3.70305 0
M  V30 12433 H 1158.55 2.14016 -2.46708 0
M  V30 12434 H 1157.21 0.364382 -3.64785 0
M  V30 12435 H 1156.86 2.77991 -4.19202 0
M  V30 12436 H 1156.56 1.74523 -5.61084 0
M  V30 12437 H 1158.08 2.66996 -5.49131 0
M  V30 12438 H 1159.5 0.4099 -5.71833 0
M  V30 12439 H 1157.9 -0.332529 -5.99178 0
M  V30 12440 H 1158.97 -0.998681 -4.74504 0
M  V30 12441 N 1160.31 1.56586 -0.178487 0
M  V30 12442 C 1161.56 1.96273 0.464745 0
M  V30 12443 C 1161.87 1.0675 1.63902 0
M  V30 12444 O 1163.08 1.36148 2.34896 0
M  V30 12445 C 1161.53 3.49021 0.878207 0
M  V30 12446 C 1161.14 4.4718 -0.270861 0
M  V30 12447 C 1162.88 3.97512 1.48946 0
M  V30 12448 C 1160.79 5.91176 0.162632 0
M  V30 12449 H 1159.72 0.732834 0.177398 0
M  V30 12450 H 1162.37 1.81534 -0.267861 0
M  V30 12451 H 1160.75 3.59203 1.667 0
M  V30 12452 H 1161.93 4.48718 -1.04826 0
M  V30 12453 H 1160.24 4.08788 -0.792529 0
M  V30 12454 H 1162.84 5.02556 1.82595 0
M  V30 12455 H 1163.18 3.40861 2.38997 0
M  V30 12456 H 1163.72 3.90376 0.76496 0
M  V30 12457 H 1160.46 6.51716 -0.703286 0
M  V30 12458 H 1159.98 5.9293 0.905243 0
M  V30 12459 H 1161.65 6.44174 0.604084 0
M  V30 12460 N 1161.79 -0.095206 1.57312 0
M  V30 12461 C 1163.03 -0.797142 1.85715 0
M  V30 12462 C 1163.36 -1.79275 0.767171 0
M  V30 12463 O 1162.63 -1.94808 -0.206584 0
M  V30 12464 H 1161.21 -0.297382 0.685254 0
M  V30 12465 H 1163.87 -0.0768617 1.94748 0
M  V30 12466 H 1162.96 -1.32779 2.82447 0
M  V30 12467 N 1163.26 -1.53291 -0.366026 0
M  V30 12468 C 1164.23 -1.79025 -1.43117 0
M  V30 12469 C 1165.23 -0.660676 -1.46601 0
M  V30 12470 O 1166.42 -0.928875 -1.47369 0
M  V30 12471 C 1163.55 -1.91192 -2.82238 0
M  V30 12472 H 1164.74 -2.74154 -1.21572 0
M  V30 12473 H 1162.3 -1.44361 -0.599132 0
M  V30 12474 H 1163.03 -0.98129 -3.09097 0
M  V30 12475 H 1162.82 -2.7335 -2.81109 0
M  V30 12476 H 1164.31 -2.12696 -3.59375 0
M  V30 12477 N 1164.74 0.6258 -1.44643 0
M  V30 12478 C 1165.99 1.38525 -1.47706 0
M  V30 12479 C 1166.32 1.94179 -0.111703 0
M  V30 12480 O 1165.57 1.74432 0.887237 0
M  V30 12481 C 1165.87 2.56466 -2.48917 0
M  V30 12482 C 1165.54 2.19069 -3.94106 0
M  V30 12483 C 1164.2 2.08583 -4.33643 0
M  V30 12484 C 1166.55 1.89608 -4.85488 0
M  V30 12485 C 1163.88 1.66831 -5.6248 0
M  V30 12486 C 1166.23 1.49347 -6.14718 0
M  V30 12487 C 1164.9 1.37406 -6.53204 0
M  V30 12488 H 1164.17 0.506899 -0.540494 0
M  V30 12489 H 1166.81 0.709128 -1.77887 0
M  V30 12490 H 1165.12 3.29335 -2.12239 0
M  V30 12491 H 1166.81 3.14695 -2.48532 0
M  V30 12492 H 1163.4 2.28151 -3.62829 0
M  V30 12493 H 1167.59 1.96616 -4.55693 0
M  V30 12494 H 1162.84 1.56195 -5.91112 0
M  V30 12495 H 1167.02 1.2559 -6.84982 0
M  V30 12496 H 1164.65 1.04826 -7.52938 0
M  V30 12497 N 1166.22 1.31629 0.866686 0
M  V30 12498 C 1167.18 1.1951 1.95576 0
M  V30 12499 C 1168.18 0.121319 1.60342 0
M  V30 12500 O 1169.37 0.370832 1.70207 0
M  V30 12501 C 1166.51 0.835201 3.30511 0
M  V30 12502 H 1167.7 2.16285 2.07752 0
M  V30 12503 H 1165.25 1.15288 1.05539 0
M  V30 12504 H 1165.99 -0.131245 3.24034 0
M  V30 12505 H 1165.77 1.61142 3.57457 0
M  V30 12506 H 1167.26 0.774393 4.10357 0
M  V30 12507 N 1167.7 -1.08142 1.14644 0
M  V30 12508 C 1168.95 -1.80225 0.914517 0
M  V30 12509 C 1169.27 -1.86778 -0.560269 0
M  V30 12510 O 1168.54 -1.36284 -1.40724 0
M  V30 12511 H 1167.12 -0.667492 0.335356 0
M  V30 12512 H 1169.78 -1.30729 1.44554 0
M  V30 12513 H 1168.88 -2.82958 1.31685 0
M  V30 12514 N 1169.18 -0.941978 -1.26351 0
M  V30 12515 C 1170.4 -0.606231 -1.98342 0
M  V30 12516 C 1170.83 0.812014 -1.6967 0
M  V30 12517 O 1170.19 1.54712 -0.9452 0
M  V30 12518 C 1170.23 -0.855864 -3.50296 0
M  V30 12519 O 1169.34 0.0716251 -4.12338 0
M  V30 12520 H 1168.68 -0.231815 -0.62222 0
M  V30 12521 H 1171.21 -1.26513 -1.60797 0
M  V30 12522 H 1171.22 -0.777079 -4.00531 0
M  V30 12523 H 1169.89 -1.8896 -3.70496 0
M  V30 12524 H 1168.47 -0.0582866 -3.72854 0
M  V30 12525 N 1170.66 1.40747 -0.709091 0
M  V30 12526 C 1171.6 2.32564 -0.0411392 0
M  V30 12527 C 1172.6 1.51692 0.75404 0
M  V30 12528 O 1173.8 1.67537 0.658139 0
M  V30 12529 H 1170.18 0.75198 0.00549889 0
M  V30 12530 H 1172.15 2.86556 -0.83235 0
M  V30 12531 C 1170.9 3.36604 0.871378 0
M  V30 12532 H 1170.22 3.98895 0.268912 0
M  V30 12533 H 1171.66 4.03359 1.30682 0
M  V30 12534 C 1170.12 2.71566 1.99384 0
M  V30 12535 O 1170.65 2.57392 3.08403 0
M  V30 12536 N 1168.86 2.3005 1.77554 0
M  V30 12537 H 1168.4 2.41778 0.888898 0
M  V30 12538 H 1168.36 1.8687 2.52838 0
M  V30 12539 N 1172.13 0.454803 1.50895 0
M  V30 12540 C 1173.54 -0.00421212 1.867 0
M  V30 12541 C 1173.9 -1.4037 1.3708 0
M  V30 12542 O 1173.02 -2.03755 0.728884 0
M  V30 12543 C 1173.62 -0.0144196 3.38797 0
M  V30 12544 C 1172.17 -0.417905 3.74073 0
M  V30 12545 C 1171.32 0.37801 2.74711 0
M  V30 12546 H 1174.27 0.669849 1.4387 0
M  V30 12547 H 1174.29 -0.820172 3.71555 0
M  V30 12548 H 1173.81 1.00427 3.74881 0
M  V30 12549 H 1171.91 -1.44155 3.43584 0
M  V30 12550 H 1172.02 -0.130568 4.78922 0
M  V30 12551 H 1170.38 -0.166089 2.54158 0
M  V30 12552 H 1171.17 1.3959 3.13639 0
M  V30 12553 N 1173.61 -1.56489 0.186789 0
M  V30 12554 C 1174.57 -2.17478 -0.723596 0
M  V30 12555 C 1175.57 -1.12698 -1.14699 0
M  V30 12556 O 1176.76 -1.38128 -1.06143 0
M  V30 12557 C 1173.9 -2.77015 -1.98685 0
M  V30 12558 H 1175.09 -2.99282 -0.192403 0
M  V30 12559 H 1172.64 -1.56174 -0.0628153 0
M  V30 12560 H 1173.38 -1.98987 -2.56076 0
M  V30 12561 H 1173.16 -3.53711 -1.69207 0
M  V30 12562 H 1174.65 -3.23872 -2.63622 0
M  V30 12563 N 1175.09 0.086862 -1.5736 0
M  V30 12564 C 1176.05 1.08906 -2.01673 0
M  V30 12565 C 1177.05 1.32473 -0.911463 0
M  V30 12566 O 1178.24 1.28447 -1.17673 0
M  V30 12567 C 1175.37 2.43629 -2.38449 0
M  V30 12568 H 1176.57 0.707461 -2.91436 0
M  V30 12569 H 1174.12 0.332154 -1.5273 0
M  V30 12570 H 1174.86 2.8665 -1.51665 0
M  V30 12571 H 1174.64 2.2787 -3.19089 0
M  V30 12572 H 1176.13 3.15695 -2.73361 0
M  V30 12573 N 1176.57 1.53483 0.357892 0
M  V30 12574 C 1177.81 1.70037 1.09971 0
M  V30 12575 C 1178.14 0.456112 1.89076 0
M  V30 12576 O 1177.4 -0.562029 1.87456 0
M  V30 12577 C 1177.7 2.90654 2.07978 0
M  V30 12578 C 1177.36 4.26849 1.45295 0
M  V30 12579 C 1176.02 4.63884 1.27928 0
M  V30 12580 C 1178.38 5.11514 1.00013 0
M  V30 12581 C 1175.7 5.83213 0.638745 0
M  V30 12582 C 1178.06 6.31496 0.373568 0
M  V30 12583 C 1176.72 6.67237 0.187457 0
M  V30 12584 H 1175.99 0.622209 0.402414 0
M  V30 12585 H 1178.64 1.87679 0.380615 0
M  V30 12586 H 1176.94 2.67556 2.86219 0
M  V30 12587 H 1178.64 3.00656 2.65343 0
M  V30 12588 H 1175.23 3.97693 1.59807 0
M  V30 12589 H 1179.41 4.83446 1.12221 0
M  V30 12590 H 1174.67 6.09489 0.483035 0
M  V30 12591 H 1178.84 6.96398 0.0145346 0
M  V30 12592 H 1176.47 7.59564 -0.310933 0
M  V30 12593 N 1178.05 -0.61812 1.44973 0
M  V30 12594 C 1179 -1.72346 1.49268 0
M  V30 12595 C 1179.98 -1.56889 0.357042 0
M  V30 12596 O 1181.17 -1.66404 0.603212 0
M  V30 12597 C 1178.3 -3.11073 1.4522 0
M  V30 12598 C 1177.39 -3.31953 2.63947 0
M  V30 12599 N 1177.78 -3.23141 3.89119 0
M  V30 12600 C 1176.08 -3.62791 2.59419 0
M  V30 12601 C 1176.78 -3.45066 4.683 0
M  V30 12602 N 1175.75 -3.68558 3.99582 0
M  V30 12603 H 1179.55 -1.6401 2.43881 0
M  V30 12604 H 1177.07 -0.821029 1.40117 0
M  V30 12605 H 1179.07 -3.90356 1.46381 0
M  V30 12606 H 1177.73 -3.20565 0.516555 0
M  V30 12607 H 1178.74 -3.01773 4.20896 0
M  V30 12608 H 1175.41 -3.79185 1.74713 0
M  V30 12609 H 1176.8 -3.43735 5.77318 0
M  V30 12610 N 1179.52 -1.32087 -0.859693 0
M  V30 12611 C 1180.49 -1.20546 -1.94939 0
M  V30 12612 C 1181.49 -0.12982 -1.60275 0
M  V30 12613 O 1182.68 -0.379853 -1.70008 0
M  V30 12614 C 1179.81 -0.852717 -3.30063 0
M  V30 12615 H 1181 -2.17384 -2.06602 0
M  V30 12616 H 1178.55 -1.15846 -1.04926 0
M  V30 12617 H 1179.29 0.114059 -3.24099 0
M  V30 12618 H 1179.07 -1.63035 -3.56598 0
M  V30 12619 H 1180.56 -0.796145 -4.09941 0
M  V30 12620 N 1181 1.07532 -1.15215 0
M  V30 12621 C 1181.91 2.18222 -0.861192 0
M  V30 12622 C 1182.93 1.73246 0.161798 0
M  V30 12623 O 1184.1 2.01397 -0.0118386 0
M  V30 12624 C 1181.17 3.44902 -0.352601 0
M  V30 12625 C 1180.23 4.04455 -1.43926 0
M  V30 12626 C 1179.46 5.25089 -0.954841 0
M  V30 12627 O 1179.69 5.70048 0.200294 0
M  V30 12628 O 1178.62 5.76269 -1.73774 0
M  V30 12629 H 1182.45 2.45599 -1.78648 0
M  V30 12630 H 1180.03 1.16835 -0.93112 0
M  V30 12631 H 1181.91 4.21333 -0.0753347 0
M  V30 12632 H 1180.59 3.19082 0.544841 0
M  V30 12633 H 1179.49 3.29573 -1.7701 0
M  V30 12634 H 1180.83 4.34544 -2.31155 0
M  V30 12635 N 1182.48 0.948665 1.2585 0
M  V30 12636 C 1183.76 0.517832 1.88621 0
M  V30 12637 C 1184.14 -1.00477 1.85654 0
M  V30 12638 O 1183.49 -1.868 1.31598 0
M  V30 12639 C 1183.7 1.08768 3.31618 0
M  V30 12640 C 1185.04 1.16089 4.08422 0
M  V30 12641 O 1186.07 1.0388 3.40716 0
M  V30 12642 O 1184.93 1.35172 5.29519 0
M  V30 12643 H 1182.02 0.169916 0.809356 0
M  V30 12644 H 1184.57 1.04171 1.33964 0
M  V30 12645 H 1183.34 2.13109 3.28177 0
M  V30 12646 H 1182.96 0.54669 3.93824 0
M  V30 12647 N 1183.96 -1.40369 0.716545 0
M  V30 12648 C 1185.21 -2.00473 0.255959 0
M  V30 12649 C 1185.53 -1.57104 -1.15514 0
M  V30 12650 O 1184.8 -0.810925 -1.78328 0
M  V30 12651 H 1183.38 -0.741357 0.0916427 0
M  V30 12652 H 1186.04 -1.71692 0.922389 0
M  V30 12653 H 1185.14 -3.10752 0.289806 0
M  V30 12654 N 1185.44 -0.462799 -1.50652 0
M  V30 12655 C 1186.66 0.0952726 -2.07181 0
M  V30 12656 C 1187.09 1.33479 -1.32533 0
M  V30 12657 O 1186.44 1.77473 -0.370564 0
M  V30 12658 C 1186.49 0.370592 -3.58691 0
M  V30 12659 O 1185.6 1.4526 -3.85971 0
M  V30 12660 H 1184.94 -0.00932702 -0.663934 0
M  V30 12661 H 1187.47 -0.651458 -1.93951 0
M  V30 12662 H 1187.48 0.613551 -4.0336 0
M  V30 12663 H 1186.15 -0.535219 -4.12442 0
M  V30 12664 H 1184.73 1.1976 -3.53146 0
M  V30 12665 N 1186.91 1.56388 -0.195085 0
M  V30 12666 C 1188.16 1.97189 0.44281 0
M  V30 12667 C 1188.48 1.08312 1.62153 0
M  V30 12668 O 1187.75 0.154404 1.95291 0
M  V30 12669 H 1186.33 0.728188 0.166585 0
M  V30 12670 H 1189 1.92852 -0.281815 0
M  V30 12671 H 1188.09 3.02016 0.786945 0
M  V30 12672 N 1188.39 -0.0785156 1.57404 0
M  V30 12673 C 1189.62 -0.790893 1.90862 0
M  V30 12674 C 1190.03 -1.7198 0.788644 0
M  V30 12675 O 1189.37 -1.82027 -0.247322 0
M  V30 12676 C 1189.44 -1.64362 3.19727 0
M  V30 12677 C 1189.1 -0.884796 4.48353 0
M  V30 12678 C 1190.1 -0.207074 5.19487 0
M  V30 12679 C 1187.78 -0.853962 4.94988 0
M  V30 12680 C 1189.78 0.491329 6.35504 0
M  V30 12681 C 1187.46 -0.151783 6.10911 0
M  V30 12682 C 1188.46 0.519669 6.8102 0
M  V30 12683 O 1188.15 1.21055 7.94733 0
M  V30 12684 H 1187.88 -0.230427 0.635515 0
M  V30 12685 H 1190.43 -0.0551231 2.05326 0
M  V30 12686 H 1188.66 -2.42203 3.01454 0
M  V30 12687 H 1190.35 -2.23406 3.38887 0
M  V30 12688 H 1191.12 -0.222247 4.84491 0
M  V30 12689 H 1187 -1.36605 4.40296 0
M  V30 12690 H 1190.54 1.01598 6.90162 0
M  V30 12691 H 1186.44 -0.134514 6.4536 0
M  V30 12692 H 1187.21 1.11914 8.10813 0
M  V30 12693 N 1189.87 -1.5367 -0.349747 0
M  V30 12694 C 1190.8 -1.84208 -1.43492 0
M  V30 12695 C 1191.78 -0.696725 -1.55177 0
M  V30 12696 O 1192.97 -0.948061 -1.69486 0
M  V30 12697 C 1190.1 -2.04613 -2.80625 0
M  V30 12698 C 1189.05 -3.20419 -2.83753 0
M  V30 12699 C 1188.38 -3.26147 -4.23713 0
M  V30 12700 C 1189.68 -4.58666 -2.49846 0
M  V30 12701 H 1191.37 -2.75087 -1.18185 0
M  V30 12702 H 1188.92 -1.32363 -0.567101 0
M  V30 12703 H 1190.87 -2.2456 -3.56582 0
M  V30 12704 H 1189.59 -1.10459 -3.07354 0
M  V30 12705 H 1188.25 -3.00318 -2.10249 0
M  V30 12706 H 1187.9 -2.29599 -4.47541 0
M  V30 12707 H 1187.6 -4.03963 -4.26717 0
M  V30 12708 H 1189.12 -3.48296 -5.0152 0
M  V30 12709 H 1190.54 -4.78668 -3.15516 0
M  V30 12710 H 1188.94 -5.3884 -2.64144 0
M  V30 12711 H 1190.01 -4.62697 -1.4505 0
M  V30 12712 N 1191.35 0.610423 -1.45298 0
M  V30 12713 C 1192.6 1.36951 -1.49167 0
M  V30 12714 C 1192.92 1.9405 -0.132292 0
M  V30 12715 O 1192.18 1.75363 0.868686 0
M  V30 12716 C 1192.48 2.53812 -2.51623 0
M  V30 12717 C 1192.14 2.14877 -3.96407 0
M  V30 12718 C 1190.81 2.03972 -4.35831 0
M  V30 12719 C 1193.16 1.84448 -4.87472 0
M  V30 12720 C 1190.49 1.60856 -5.64218 0
M  V30 12721 C 1192.84 1.42818 -6.16268 0
M  V30 12722 C 1191.5 1.3047 -6.54625 0
M  V30 12723 H 1190.77 0.501138 -0.54584 0
M  V30 12724 H 1193.42 0.690221 -1.78629 0
M  V30 12725 H 1191.72 3.27066 -2.1572 0
M  V30 12726 H 1193.42 3.12041 -2.51856 0
M  V30 12727 H 1190.01 2.2429 -3.65229 0
M  V30 12728 H 1194.19 1.91771 -4.57753 0
M  V30 12729 H 1189.45 1.49916 -5.92735 0
M  V30 12730 H 1193.62 1.18318 -6.86275 0
M  V30 12731 H 1191.25 0.968347 -7.54007 0
M  V30 12732 N 1192.83 1.32541 0.852676 0
M  V30 12733 C 1193.76 1.24254 1.97694 0
M  V30 12734 C 1194.74 0.125971 1.69633 0
M  V30 12735 O 1195.92 0.31347 1.91653 0
M  V30 12736 C 1193.05 0.966874 3.3357 0
M  V30 12737 C 1192.01 2.0449 3.75989 0
M  V30 12738 C 1191.33 1.6216 5.09518 0
M  V30 12739 C 1192.63 3.46013 3.91244 0
M  V30 12740 H 1194.33 2.18317 2.04886 0
M  V30 12741 H 1191.87 1.05101 0.984371 0
M  V30 12742 H 1193.83 0.895444 4.11776 0
M  V30 12743 H 1192.55 -0.0093893 3.26599 0
M  V30 12744 H 1191.21 2.10651 3.00036 0
M  V30 12745 H 1190.86 0.632729 4.99005 0
M  V30 12746 H 1190.56 2.3429 5.38871 0
M  V30 12747 H 1192.08 1.56457 5.90215 0
M  V30 12748 H 1193.49 3.4243 4.59799 0
M  V30 12749 H 1191.89 4.1651 4.32017 0
M  V30 12750 H 1192.96 3.8553 2.941 0
M  V30 12751 N 1194.3 -1.0692 1.15784 0
M  V30 12752 C 1195.55 -1.79866 0.936815 0
M  V30 12753 C 1195.88 -1.867 -0.534477 0
M  V30 12754 O 1195.16 -1.35395 -1.39637 0
M  V30 12755 C 1195.44 -3.24691 1.55717 0
M  V30 12756 C 1195.29 -3.25975 3.09936 0
M  V30 12757 C 1196.61 -4.22076 1.24658 0
M  V30 12758 H 1193.73 -0.652971 0.341756 0
M  V30 12759 H 1196.37 -1.25085 1.43016 0
M  V30 12760 H 1194.52 -3.7147 1.13763 0
M  V30 12761 H 1196.2 -2.87405 3.60827 0
M  V30 12762 H 1194.44 -2.64808 3.43597 0
M  V30 12763 H 1195.11 -4.28114 3.48458 0
M  V30 12764 H 1197.59 -3.83709 1.60956 0
M  V30 12765 H 1196.46 -5.21691 1.70675 0
M  V30 12766 H 1196.72 -4.41794 0.164341 0
M  V30 12767 N 1195.78 -0.955326 -1.25345 0
M  V30 12768 C 1196.69 -0.482707 -2.2958 0
M  V30 12769 C 1197.71 0.450283 -1.68073 0
M  V30 12770 O 1198.88 0.326358 -1.98738 0
M  V30 12771 C 1195.95 0.231293 -3.45928 0
M  V30 12772 C 1195.01 -0.739995 -4.22874 0
M  V30 12773 C 1194.24 -0.0599748 -5.33666 0
M  V30 12774 O 1194.47 1.15423 -5.586 0
M  V30 12775 O 1193.4 -0.745865 -5.97261 0
M  V30 12776 H 1197.23 -1.34892 -2.72099 0
M  V30 12777 H 1194.81 -0.721812 -1.30806 0
M  V30 12778 H 1196.69 0.632908 -4.1662 0
M  V30 12779 H 1195.37 1.07267 -3.0541 0
M  V30 12780 H 1194.28 -1.19183 -3.54607 0
M  V30 12781 H 1195.61 -1.54941 -4.67177 0
M  V30 12782 N 1197.26 1.39987 -0.723979 0
M  V30 12783 C 1198.19 2.28185 -0.0257726 0
M  V30 12784 C 1199.17 1.43795 0.75907 0
M  V30 12785 O 1200.36 1.73198 0.743948 0
M  V30 12786 C 1197.48 3.24489 0.970811 0
M  V30 12787 C 1196.53 4.25607 0.275778 0
M  V30 12788 S 1197.36 5.26035 -1.00237 0
M  V30 12789 C 1198.52 6.25899 -0.00809987 0
M  V30 12790 H 1198.75 2.87054 -0.773761 0
M  V30 12791 H 1196.28 1.45546 -0.515332 0
M  V30 12792 H 1198.24 3.80496 1.54055 0
M  V30 12793 H 1196.9 2.6466 1.69156 0
M  V30 12794 H 1196.1 4.93374 1.02946 0
M  V30 12795 H 1195.7 3.73343 -0.22163 0
M  V30 12796 H 1197.99 6.72323 0.835971 0
M  V30 12797 H 1198.93 7.05086 -0.652607 0
M  V30 12798 H 1199.34 5.63355 0.359377 0
M  V30 12799 N 1198.74 0.470782 1.50404 0
M  V30 12800 C 1199.67 -0.313458 2.31386 0
M  V30 12801 C 1200.65 -0.990623 1.38278 0
M  V30 12802 O 1201.84 -0.987854 1.67198 0
M  V30 12803 C 1198.97 -1.39599 3.18009 0
M  V30 12804 C 1197.92 -0.840443 4.19667 0
M  V30 12805 C 1197.25 -2.02124 4.95025 0
M  V30 12806 C 1198.55 0.148055 5.2209 0
M  V30 12807 H 1200.24 0.362432 2.97198 0
M  V30 12808 H 1197.79 0.175745 1.42924 0
M  V30 12809 H 1199.74 -1.9521 3.73458 0
M  V30 12810 H 1198.46 -2.10064 2.50081 0
M  V30 12811 H 1197.12 -0.306302 3.65318 0
M  V30 12812 H 1196.77 -2.71286 4.23571 0
M  V30 12813 H 1196.47 -1.65574 5.6379 0
M  V30 12814 H 1197.99 -2.58226 5.5331 0
M  V30 12815 H 1199.41 -0.318874 5.72413 0
M  V30 12816 H 1197.8 0.427811 5.98573 0
M  V30 12817 H 1198.87 1.07404 4.72855 0
M  V30 12818 N 1200.22 -1.56282 0.203376 0
M  V30 12819 C 1201.45 -2.02198 -0.438572 0
M  V30 12820 C 1201.86 -1.08343 -1.54619 0
M  V30 12821 O 1201.22 -0.0897594 -1.82279 0
M  V30 12822 C 1201.27 -3.4776 -0.987184 0
M  V30 12823 O 1200.99 -4.38034 0.0762552 0
M  V30 12824 C 1202.49 -4.09234 -1.70419 0
M  V30 12825 H 1199.71 -0.662041 -0.109282 0
M  V30 12826 H 1202.25 -2.02067 0.314509 0
M  V30 12827 H 1200.41 -3.48564 -1.69061 0
M  V30 12828 H 1200.82 -5.2344 -0.333322 0
M  V30 12829 H 1202.3 -5.1291 -2.04027 0
M  V30 12830 H 1202.77 -3.53172 -2.61087 0
M  V30 12831 H 1203.38 -4.12226 -1.04641 0
M  V30 12832 N 1201.7 0.070167 -1.57444 0
M  V30 12833 C 1202.97 0.802108 -1.78397 0
M  V30 12834 C 1203.35 1.95706 -0.791356 0
M  V30 12835 O 1202.7 2.27827 0.17518 0
M  V30 12836 C 1202.91 1.27354 -3.24934 0
M  V30 12837 C 1204.26 1.70626 -3.88808 0
M  V30 12838 O 1205.28 1.36916 -3.28835 0
M  V30 12839 O 1204.14 2.33041 -4.94322 0
M  V30 12840 H 1201.24 0.384483 -0.73219 0
M  V30 12841 H 1203.78 0.0501168 -1.69626 0
M  V30 12842 H 1202.55 0.447204 -3.88736 0
M  V30 12843 H 1202.18 2.0868 -3.38435 0
M  V30 12844 N 1203.17 1.53854 0.341593 0
M  V30 12845 C 1204.1 1.84966 1.42513 0
M  V30 12846 C 1205.08 0.704944 1.54805 0
M  V30 12847 O 1206.27 0.957036 1.68981 0
M  V30 12848 C 1203.4 2.06099 2.79536 0
M  V30 12849 C 1202.35 3.21919 2.82049 0
M  V30 12850 C 1201.68 3.28389 4.21977 0
M  V30 12851 C 1202.98 4.59984 2.4741 0
M  V30 12852 H 1204.67 2.7571 1.16724 0
M  V30 12853 H 1202.22 1.32662 0.560073 0
M  V30 12854 H 1204.17 2.26448 3.55386 0
M  V30 12855 H 1202.9 1.12087 3.06764 0
M  V30 12856 H 1201.56 3.01429 2.08653 0
M  V30 12857 H 1201.2 2.3197 4.46317 0
M  V30 12858 H 1200.9 4.0622 4.24569 0
M  V30 12859 H 1202.43 3.50951 4.99666 0
M  V30 12860 H 1203.84 4.80334 3.12973 0
M  V30 12861 H 1202.24 5.40233 2.61282 0
M  V30 12862 H 1203.31 4.6346 1.42594 0
M  V30 12863 N 1204.65 -0.602709 1.4562 0
M  V30 12864 C 1205.6 -1.73425 1.55005 0
M  V30 12865 C 1206.59 -1.64118 0.419713 0
M  V30 12866 O 1207.8 -1.69853 0.595815 0
M  V30 12867 H 1204.17 -0.573038 0.486962 0
M  V30 12868 H 1206.15 -1.62637 2.50184 0
M  V30 12869 C 1204.89 -3.11808 1.53853 0
M  V30 12870 H 1204.22 -3.19631 2.40158 0
M  V30 12871 H 1205.66 -3.90798 1.64477 0
M  V30 12872 C 1204.12 -3.35866 0.263765 0
M  V30 12873 O 1204.65 -3.96334 -0.654364 0
M  V30 12874 N 1202.85 -2.90171 0.157927 0
M  V30 12875 H 1202.4 -2.41144 0.905944 0
M  V30 12876 H 1202.36 -3.06641 -0.694175 0
M  V30 12877 N 1206.13 -1.32992 -0.845635 0
M  V30 12878 C 1207.35 -1.27231 -1.6379 0
M  V30 12879 C 1207.78 0.155141 -1.87459 0
M  V30 12880 O 1207.14 1.10953 -1.43384 0
M  V30 12881 C 1207.19 -2.04629 -2.96916 0
M  V30 12882 O 1206.29 -1.40027 -3.879 0
M  V30 12883 H 1205.63 -0.438045 -0.499011 0
M  V30 12884 H 1208.16 -1.75448 -1.05257 0
M  V30 12885 H 1208.17 -2.15141 -3.46667 0
M  V30 12886 H 1206.85 -3.08425 -2.79011 0
M  V30 12887 H 1205.42 -1.38118 -3.46378 0
M  V30 12888 N 1207.61 1.06304 -1.1635 0
M  V30 12889 C 1209.02 1.31227 -0.90838 0
M  V30 12890 C 1209.22 1.96665 0.438779 0
M  V30 12891 O 1208.28 2.2332 1.17833 0
M  V30 12892 C 1209.59 2.19303 -2.05734 0
M  V30 12893 C 1211.14 2.3272 -2.09309 0
M  V30 12894 C 1211.62 3.24151 -3.23559 0
M  V30 12895 N 1213.11 3.31734 -3.23275 0
M  V30 12896 C 1213.84 4.02572 -4.08318 0
M  V30 12897 N 1213.34 4.75933 -5.03448 0
M  V30 12898 N 1215.13 3.98621 -3.96305 0
M  V30 12899 H 1207.28 0.622228 -2.03081 0
M  V30 12900 H 1209.54 0.336892 -0.886119 0
M  V30 12901 H 1209.25 1.78497 -3.03037 0
M  V30 12902 H 1209.12 3.19888 -1.99879 0
M  V30 12903 H 1211.51 2.72774 -1.12599 0
M  V30 12904 H 1211.59 1.31804 -2.19229 0
M  V30 12905 H 1211.24 2.84813 -4.20528 0
M  V30 12906 H 1211.17 4.25046 -3.10875 0
M  V30 12907 H 1213.66 2.79453 -2.5439 0
M  V30 12908 H 1213.97 5.27512 -5.64758 0
M  V30 12909 H 1212.32 4.74913 -5.07427 0
M  V30 12910 H 1215.51 3.40427 -3.21289 0
M  V30 12911 H 1215.68 4.5356 -4.62804 0
M  V30 12912 N 1209.09 0.96196 1.24836 0
M  V30 12913 C 1210.03 0.479282 2.27609 0
M  V30 12914 C 1211.03 -0.454224 1.63197 0
M  V30 12915 O 1212.23 -0.330146 1.76946 0
M  V30 12916 H 1208.61 0.13651 0.739506 0
M  V30 12917 H 1210.58 1.35817 2.657 0
M  V30 12918 C 1209.33 -0.220499 3.47 0
M  V30 12919 H 1208.65 0.488694 3.96802 0
M  V30 12920 H 1210.09 -0.522137 4.20773 0
M  V30 12921 C 1208.55 -1.44552 3.04313 0
M  V30 12922 O 1209.08 -2.54287 3.10967 0
M  V30 12923 N 1207.29 -1.3095 2.59423 0
M  V30 12924 H 1206.83 -0.416656 2.54208 0
M  V30 12925 H 1206.79 -2.13029 2.31227 0
M  V30 12926 N 1210.56 -1.39601 0.731392 0
M  V30 12927 C 1211.97 -1.83424 0.348194 0
M  V30 12928 C 1212.33 -1.61106 -1.11979 0
M  V30 12929 O 1211.45 -1.1003 -1.86339 0
M  V30 12930 C 1212.05 -3.32982 0.6252 0
M  V30 12931 C 1210.6 -3.75238 0.295536 0
M  V30 12932 C 1209.75 -2.62642 0.88964 0
M  V30 12933 H 1212.7 -1.28644 0.929318 0
M  V30 12934 H 1212.72 -3.80357 -0.104254 0
M  V30 12935 H 1212.24 -3.49193 1.69368 0
M  V30 12936 H 1210.34 -3.64615 -0.767254 0
M  V30 12937 H 1210.45 -4.72781 0.775576 0
M  V30 12938 H 1208.81 -2.52726 0.316529 0
M  V30 12939 H 1209.6 -2.81661 1.96271 0
M  V30 12940 N 1212.04 -0.478751 -1.50152 0
M  V30 12941 C 1212.97 0.347829 -2.26545 0
M  V30 12942 C 1213.99 0.950354 -1.32182 0
M  V30 12943 O 1215.18 0.837462 -1.57635 0
M  V30 12944 C 1212.28 1.50255 -3.0377 0
M  V30 12945 C 1211.45 1.01142 -4.25546 0
M  V30 12946 C 1210.51 2.0411 -4.85 0
M  V30 12947 O 1209.53 1.61862 -5.45701 0
M  V30 12948 N 1210.74 3.36982 -4.72677 0
M  V30 12949 H 1213.5 -0.307113 -2.98122 0
M  V30 12950 H 1211.06 -0.309981 -1.58905 0
M  V30 12951 H 1213.05 2.18848 -3.40423 0
M  V30 12952 H 1211.62 2.06205 -2.34943 0
M  V30 12953 H 1210.84 0.151124 -3.9391 0
M  V30 12954 H 1212.13 0.661326 -5.04484 0
M  V30 12955 H 1211.53 3.74011 -4.2442 0
M  V30 12956 H 1210.09 4.0135 -5.13577 0
M  V30 12957 N 1213.52 1.56172 -0.211661 0
M  V30 12958 C 1214.77 1.98332 0.423332 0
M  V30 12959 C 1215.1 1.09895 1.60115 0
M  V30 12960 O 1214.37 0.154477 1.93886 0
M  V30 12961 C 1214.66 3.49495 0.86747 0
M  V30 12962 C 1214.51 4.48708 -0.313302 0
M  V30 12963 C 1215.83 4.04793 1.72716 0
M  V30 12964 H 1212.95 0.72107 0.152402 0
M  V30 12965 H 1215.59 1.87521 -0.305912 0
M  V30 12966 H 1213.74 3.58839 1.48885 0
M  V30 12967 H 1215.41 4.51385 -0.951291 0
M  V30 12968 H 1213.66 4.2299 -0.96238 0
M  V30 12969 H 1214.33 5.51985 0.0402402 0
M  V30 12970 H 1216.8 3.98332 1.20296 0
M  V30 12971 H 1215.68 5.10898 2.00684 0
M  V30 12972 H 1215.94 3.51067 2.68709 0
M  V30 12973 N 1215 -0.0618163 1.57479 0
M  V30 12974 C 1215.96 -1.05684 2.0338 0
M  V30 12975 C 1216.96 -1.31006 0.932423 0
M  V30 12976 O 1218.15 -1.26559 1.19702 0
M  V30 12977 C 1215.28 -2.39805 2.42294 0
M  V30 12978 H 1216.48 -0.661006 2.92525 0
M  V30 12979 H 1214.03 -0.307814 1.53239 0
M  V30 12980 H 1214.76 -2.84201 1.56207 0
M  V30 12981 H 1214.55 -2.22764 3.22674 0
M  V30 12982 H 1216.04 -3.11307 2.78349 0
M  V30 12983 N 1216.48 -1.54033 -0.333429 0
M  V30 12984 C 1217.7 -1.76031 -1.09672 0
M  V30 12985 C 1218.13 -0.502844 -1.81254 0
M  V30 12986 O 1217.48 0.54509 -1.72912 0
M  V30 12987 C 1217.53 -2.947 -2.07809 0
M  V30 12988 O 1216.64 -2.65555 -3.15522 0
M  V30 12989 H 1215.98 -0.583611 -0.316692 0
M  V30 12990 H 1218.51 -2.01026 -0.380732 0
M  V30 12991 H 1218.52 -3.21771 -2.50853 0
M  V30 12992 H 1217.19 -3.85895 -1.55106 0
M  V30 12993 H 1215.77 -2.49403 -2.77223 0
M  V30 12994 N 1217.95 0.594978 -1.45938 0
M  V30 12995 C 1219.37 0.917069 -1.30622 0
M  V30 12996 C 1219.57 1.99702 -0.268554 0
M  V30 12997 O 1218.63 2.50293 0.333146 0
M  V30 12998 C 1219.94 1.34604 -2.68891 0
M  V30 12999 C 1221.49 1.45957 -2.76886 0
M  V30 13000 C 1221.96 1.92225 -4.15708 0
M  V30 13001 N 1223.45 1.99439 -4.18065 0
M  V30 13002 C 1224.19 2.36488 -5.22361 0
M  V30 13003 N 1223.68 2.72416 -6.36994 0
M  V30 13004 N 1225.48 2.36936 -5.09723 0
M  V30 13005 H 1217.63 -0.118625 -2.12068 0
M  V30 13006 H 1219.89 0.00959453 -0.947951 0
M  V30 13007 H 1219.6 0.626605 -3.46073 0
M  V30 13008 H 1219.47 2.31006 -2.98188 0
M  V30 13009 H 1221.86 2.16989 -1.99999 0
M  V30 13010 H 1221.94 0.47838 -2.51287 0
M  V30 13011 H 1221.58 1.21775 -4.93085 0
M  V30 13012 H 1221.51 2.9128 -4.38707 0
M  V30 13013 H 1224 1.74212 -3.35349 0
M  V30 13014 H 1224.32 2.99604 -7.1236 0
M  V30 13015 H 1222.66 2.70083 -6.40375 0
M  V30 13016 H 1225.85 2.08282 -4.19209 0
M  V30 13017 H 1226.03 2.65483 -5.9112 0
M  V30 13018 N 1219.43 1.33438 0.838571 0
M  V30 13019 C 1220.36 1.26344 1.96365 0
M  V30 13020 C 1221.34 0.143956 1.6949 0
M  V30 13021 O 1222.53 0.333779 1.9131 0
M  V30 13022 C 1219.66 1.0022 3.32526 0
M  V30 13023 C 1218.61 2.08466 3.73799 0
M  V30 13024 C 1217.94 1.67555 5.07769 0
M  V30 13025 C 1219.24 3.50144 3.87552 0
M  V30 13026 H 1220.93 2.20478 2.02558 0
M  V30 13027 H 1218.48 1.06139 0.973168 0
M  V30 13028 H 1220.43 0.939068 4.10803 0
M  V30 13029 H 1219.16 0.0252514 3.2659 0
M  V30 13030 H 1217.81 2.13822 2.97785 0
M  V30 13031 H 1217.46 0.685619 4.98305 0
M  V30 13032 H 1217.16 2.39993 5.36356 0
M  V30 13033 H 1218.69 1.62708 5.88522 0
M  V30 13034 H 1220.1 3.47287 4.56141 0
M  V30 13035 H 1218.5 4.21069 4.27575 0
M  V30 13036 H 1219.57 3.88628 2.89994 0
M  V30 13037 N 1220.91 -1.05686 1.16912 0
M  V30 13038 C 1222.16 -1.77987 0.948875 0
M  V30 13039 C 1222.47 -1.8845 -0.524011 0
M  V30 13040 O 1223.68 -2.57442 -0.862322 0
M  V30 13041 C 1222.13 -3.19927 1.64848 0
M  V30 13042 C 1221.74 -3.1761 3.15956 0
M  V30 13043 C 1223.49 -3.96719 1.51044 0
M  V30 13044 C 1221.39 -4.54307 3.78628 0
M  V30 13045 H 1220.32 -0.667119 0.35138 0
M  V30 13046 H 1222.97 -1.18496 1.40111 0
M  V30 13047 H 1221.36 -3.79714 1.12397 0
M  V30 13048 H 1222.53 -2.67369 3.75301 0
M  V30 13049 H 1220.85 -2.54317 3.29715 0
M  V30 13050 H 1223.44 -4.97779 1.95243 0
M  V30 13051 H 1223.79 -4.13748 0.460268 0
M  V30 13052 H 1224.32 -3.43468 2.00685 0
M  V30 13053 H 1221.06 -4.42484 4.8362 0
M  V30 13054 H 1220.58 -5.04717 3.24069 0
M  V30 13055 H 1222.26 -5.23255 3.80543 0
M  V30 13056 N 1222.39 -0.968567 -1.24324 0
M  V30 13057 C 1223.3 -0.50703 -2.29055 0
M  V30 13058 C 1224.31 0.432431 -1.68541 0
M  V30 13059 O 1225.49 0.30526 -1.99073 0
M  V30 13060 C 1222.56 0.194589 -3.46153 0
M  V30 13061 C 1221.62 -0.784805 -4.22066 0
M  V30 13062 C 1220.85 -0.116574 -5.33573 0
M  V30 13063 O 1221.07 1.09492 -5.59792 0
M  V30 13064 O 1220.01 -0.809171 -5.96436 0
M  V30 13065 H 1223.83 -1.3777 -2.70653 0
M  V30 13066 H 1221.42 -0.735645 -1.30033 0
M  V30 13067 H 1223.3 0.588684 -4.17268 0
M  V30 13068 H 1221.97 1.04021 -3.06531 0
M  V30 13069 H 1220.88 -1.22938 -3.53323 0
M  V30 13070 H 1222.21 -1.59887 -4.65507 0
M  V30 13071 N 1223.87 1.39211 -0.738786 0
M  V30 13072 C 1225.28 1.83237 -0.357916 0
M  V30 13073 C 1225.63 1.61698 1.11123 0
M  V30 13074 O 1224.75 1.11017 1.85753 0
M  V30 13075 C 1225.35 3.32645 -0.64285 0
M  V30 13076 C 1223.91 3.75076 -0.315432 0
M  V30 13077 C 1223.05 2.62166 -0.903556 0
M  V30 13078 H 1226.01 1.2815 -0.936127 0
M  V30 13079 H 1226.03 3.80407 0.0840812 0
M  V30 13080 H 1225.54 3.4829 -1.71218 0
M  V30 13081 H 1223.64 3.65017 0.747907 0
M  V30 13082 H 1223.75 4.72363 -0.800638 0
M  V30 13083 H 1222.12 2.52554 -0.329927 0
M  V30 13084 H 1222.9 2.80616 -1.97761 0
M  V30 13085 N 1225.34 0.486708 1.49896 0
M  V30 13086 C 1226.27 -0.288898 2.31706 0
M  V30 13087 C 1227.26 -0.975901 1.3932 0
M  V30 13088 O 1228.44 -0.970065 1.68236 0
M  V30 13089 C 1225.57 -1.36218 3.19471 0
M  V30 13090 C 1224.52 -0.795884 4.20535 0
M  V30 13091 C 1223.85 -1.96862 4.97141 0
M  V30 13092 C 1225.15 0.203421 5.21904 0
M  V30 13093 H 1226.84 0.393934 2.96797 0
M  V30 13094 H 1224.39 0.190894 1.42729 0
M  V30 13095 H 1226.34 -1.91238 3.75508 0
M  V30 13096 H 1225.07 -2.074 2.52295 0
M  V30 13097 H 1223.73 -0.267538 3.65622 0
M  V30 13098 H 1223.37 -2.66779 4.26425 0
M  V30 13099 H 1223.07 -1.59585 5.65514 0
M  V30 13100 H 1224.6 -2.52343 5.56017 0
M  V30 13101 H 1226.01 -0.258144 5.72719 0
M  V30 13102 H 1224.41 0.491273 5.98086 0
M  V30 13103 H 1225.48 1.12414 4.7169 0
M  V30 13104 N 1226.82 -1.56058 0.219941 0
M  V30 13105 C 1228.07 -1.97436 -0.412543 0
M  V30 13106 C 1228.39 -1.11058 -1.61014 0
M  V30 13107 O 1229.59 -1.42328 -2.31203 0
M  V30 13108 C 1228.05 -3.51227 -0.785362 0
M  V30 13109 C 1227.66 -4.46305 0.389328 0
M  V30 13110 C 1229.4 -4.01321 -1.38354 0
M  V30 13111 C 1227.31 -5.914 -0.00583531 0
M  V30 13112 H 1226.24 -0.73728 -0.157906 0
M  V30 13113 H 1228.89 -1.8076 0.315898 0
M  V30 13114 H 1227.27 -3.63497 -1.57118 0
M  V30 13115 H 1228.44 -4.45781 1.16686 0
M  V30 13116 H 1226.76 -4.06543 0.900633 0
M  V30 13117 H 1229.36 -5.07221 -1.69207 0
M  V30 13118 H 1229.7 -3.47077 -2.29876 0
M  V30 13119 H 1230.23 -3.92267 -0.66119 0
M  V30 13120 H 1226.97 -6.49623 0.87583 0
M  V30 13121 H 1226.49 -5.95121 -0.74772 0
M  V30 13122 H 1228.17 -6.45549 -0.43308 0
M  V30 13123 N 1228.3 0.053464 -1.57509 0
M  V30 13124 C 1229.72 0.408651 -1.5428 0
M  V30 13125 C 1229.92 1.78086 -0.942735 0
M  V30 13126 O 1228.97 2.46366 -0.553163 0
M  V30 13127 C 1230.29 0.332884 -2.98852 0
M  V30 13128 C 1231.83 0.411745 -3.1028 0
M  V30 13129 C 1232.31 0.365691 -4.56538 0
M  V30 13130 N 1233.8 0.425222 -4.61244 0
M  V30 13131 C 1234.54 0.412093 -5.71917 0
M  V30 13132 N 1234.03 0.352693 -6.91902 0
M  V30 13133 N 1235.82 0.460016 -5.60214 0
M  V30 13134 H 1227.98 -0.844834 -1.94875 0
M  V30 13135 H 1230.24 -0.318888 -0.892757 0
M  V30 13136 H 1229.94 -0.609116 -3.46385 0
M  V30 13137 H 1229.82 1.13605 -3.59686 0
M  V30 13138 H 1232.21 1.34417 -2.62709 0
M  V30 13139 H 1232.29 -0.420333 -2.52323 0
M  V30 13140 H 1231.93 -0.562963 -5.0477 0
M  V30 13141 H 1231.86 1.21555 -5.12379 0
M  V30 13142 H 1234.35 0.474634 -3.74908 0
M  V30 13143 H 1234.66 0.347105 -7.7202 0
M  V30 13144 H 1233.01 0.319104 -6.94267 0
M  V30 13145 H 1236.2 0.504242 -4.65376 0
M  V30 13146 H 1236.37 0.446315 -6.46461 0
M  V30 13147 N 1229.78 1.54207 0.325255 0
M  V30 13148 C 1230.71 1.86467 1.40543 0
M  V30 13149 C 1231.69 0.721324 1.54048 0
M  V30 13150 O 1232.88 0.974905 1.67956 0
M  V30 13151 C 1230.01 2.09052 2.77335 0
M  V30 13152 C 1228.96 3.24893 2.78619 0
M  V30 13153 C 1228.29 3.32846 4.1847 0
M  V30 13154 C 1229.59 4.62582 2.42518 0
M  V30 13155 H 1231.28 2.76932 1.13794 0
M  V30 13156 H 1228.83 1.33248 0.545971 0
M  V30 13157 H 1230.78 2.30204 3.52964 0
M  V30 13158 H 1229.5 1.15335 3.05558 0
M  V30 13159 H 1228.16 3.03625 2.05444 0
M  V30 13160 H 1227.81 2.3669 4.43832 0
M  V30 13161 H 1227.51 4.10701 4.20237 0
M  V30 13162 H 1229.03 3.56231 4.95915 0
M  V30 13163 H 1230.45 4.83627 3.07861 0
M  V30 13164 H 1228.84 5.42974 2.55538 0
M  V30 13165 H 1229.91 4.64946 1.3767 0
M  V30 13166 N 1231.26 -0.58723 1.46251 0
M  V30 13167 C 1232.2 -1.69662 1.56472 0
M  V30 13168 C 1233.17 -1.60978 0.409294 0
M  V30 13169 O 1234.36 -1.80257 0.625451 0
M  V30 13170 C 1231.5 -3.07996 1.55669 0
M  V30 13171 C 1230.61 -3.27337 2.81913 0
M  V30 13172 C 1229.75 -4.55894 2.72644 0
M  V30 13173 C 1228.79 -4.68562 3.93847 0
M  V30 13174 N 1227.92 -5.8844 3.82991 0
M  V30 13175 H 1232.76 -1.60262 2.51237 0
M  V30 13176 H 1230.3 -0.781148 1.24645 0
M  V30 13177 H 1232.26 -3.88058 1.53189 0
M  V30 13178 H 1230.89 -3.16303 0.6444 0
M  V30 13179 H 1229.94 -2.4091 2.94392 0
M  V30 13180 H 1231.25 -3.32567 3.71754 0
M  V30 13181 H 1230.41 -5.44178 2.68244 0
M  V30 13182 H 1229.15 -4.53094 1.80435 0
M  V30 13183 H 1228.15 -3.78696 3.98584 0
M  V30 13184 H 1229.38 -4.73144 4.87146 0
M  V30 13185 H 1227.32 -5.86647 2.93566 0
M  V30 13186 H 1227.24 -5.94919 4.66484 0
M  V30 13187 H 1228.51 -6.79168 3.82559 0
M  V30 13188 N 1232.74 -1.33881 -0.831482 0
M  V30 13189 C 1234.15 -1.13376 -1.1233 0
M  V30 13190 C 1234.35 0.0704402 -2.01377 0
M  V30 13191 O 1233.41 0.748516 -2.4115 0
M  V30 13192 C 1234.72 -2.42484 -1.77826 0
M  V30 13193 C 1236.27 -2.4846 -1.90359 0
M  V30 13194 C 1236.74 -3.77548 -2.59272 0
M  V30 13195 N 1238.23 -3.7866 -2.66778 0
M  V30 13196 C 1238.97 -4.75258 -3.20807 0
M  V30 13197 N 1238.47 -5.82234 -3.75466 0
M  V30 13198 N 1240.26 -4.62724 -3.19128 0
M  V30 13199 H 1232.41 -2.11051 -0.238998 0
M  V30 13200 H 1234.67 -0.932893 -0.168565 0
M  V30 13201 H 1234.38 -3.30647 -1.19857 0
M  V30 13202 H 1234.25 -2.55186 -2.77777 0
M  V30 13203 H 1236.64 -1.60742 -2.47479 0
M  V30 13204 H 1236.72 -2.39693 -0.893359 0
M  V30 13205 H 1236.36 -4.65651 -2.02808 0
M  V30 13206 H 1236.29 -3.83594 -3.60781 0
M  V30 13207 H 1238.79 -3.01351 -2.28026 0
M  V30 13208 H 1239.1 -6.51968 -4.14918 0
M  V30 13209 H 1237.44 -5.85959 -3.73733 0
M  V30 13210 H 1240.63 -3.78303 -2.75688 0
M  V30 13211 H 1240.81 -5.38175 -3.60932 0
M  V30 13212 N 1234.21 1.05064 -1.1747 0
M  V30 13213 C 1235.44 1.81497 -0.987031 0
M  V30 13214 C 1235.85 1.83323 0.467921 0
M  V30 13215 O 1235.19 1.26006 1.33672 0
M  V30 13216 C 1235.26 3.28826 -1.45306 0
M  V30 13217 C 1234.92 3.50681 -2.93039 0
M  V30 13218 C 1235.92 3.42699 -3.90965 0
M  V30 13219 C 1233.6 3.77602 -3.31243 0
M  V30 13220 C 1235.6 3.61325 -5.25093 0
M  V30 13221 C 1233.28 3.95876 -4.65538 0
M  V30 13222 C 1234.28 3.87737 -5.62271 0
M  V30 13223 O 1233.97 4.055 -6.94136 0
M  V30 13224 H 1233.7 0.578734 -0.349347 0
M  V30 13225 H 1236.26 1.33373 -1.56208 0
M  V30 13226 H 1234.49 3.77872 -0.821581 0
M  V30 13227 H 1236.17 3.86788 -1.23085 0
M  V30 13228 H 1236.94 3.21877 -3.62795 0
M  V30 13229 H 1232.82 3.8304 -2.56517 0
M  V30 13230 H 1236.36 3.54888 -6.00583 0
M  V30 13231 H 1232.26 4.16191 -4.93412 0
M  V30 13232 H 1233.03 4.22718 -7.00894 0
M  V30 13233 N 1235.69 0.975146 1.23809 0
M  V30 13234 C 1236.97 0.557725 1.8748 0
M  V30 13235 C 1237.35 -0.965164 1.87744 0
M  V30 13236 O 1236.7 -1.83966 1.35531 0
M  V30 13237 C 1236.91 1.15777 3.29236 0
M  V30 13238 C 1238.25 1.24726 4.05868 0
M  V30 13239 O 1239.28 1.11084 3.38436 0
M  V30 13240 O 1238.14 1.46373 5.26533 0
M  V30 13241 H 1235.23 0.187045 0.80557 0
M  V30 13242 H 1237.78 1.06989 1.31725 0
M  V30 13243 H 1236.55 2.20023 3.23583 0
M  V30 13244 H 1236.17 0.630103 3.92575 0
M  V30 13245 N 1237.17 -1.38817 0.746158 0
M  V30 13246 C 1238.13 -2.28876 0.121886 0
M  V30 13247 C 1239.13 -1.46838 -0.655379 0
M  V30 13248 O 1240.32 -1.67377 -0.482744 0
M  V30 13249 C 1237.45 -3.30487 -0.836118 0
M  V30 13250 H 1238.65 -2.85586 0.915453 0
M  V30 13251 H 1236.2 -1.47652 0.512691 0
M  V30 13252 H 1236.94 -2.78853 -1.65563 0
M  V30 13253 H 1236.72 -3.9109 -0.281271 0
M  V30 13254 H 1238.21 -3.97848 -1.26914 0
M  V30 13255 N 1238.65 -0.49465 -1.49636 0
M  V30 13256 C 1239.59 0.287153 -2.29007 0
M  V30 13257 C 1240.56 0.966099 -1.35114 0
M  V30 13258 O 1241.75 0.973991 -1.64067 0
M  V30 13259 C 1238.89 1.34941 -3.17624 0
M  V30 13260 C 1238 0.682879 -4.26569 0
M  V30 13261 C 1237.14 1.72503 -5.0241 0
M  V30 13262 C 1236.18 1.04003 -6.032 0
M  V30 13263 N 1235.31 2.0261 -6.7223 0
M  V30 13264 H 1240.15 -0.395941 -2.95358 0
M  V30 13265 H 1237.69 -0.207103 -1.45635 0
M  V30 13266 H 1239.65 1.9772 -3.67372 0
M  V30 13267 H 1238.28 2.00135 -2.5327 0
M  V30 13268 H 1237.33 -0.0580477 -3.80356 0
M  V30 13269 H 1238.64 0.143334 -4.98594 0
M  V30 13270 H 1237.8 2.42804 -5.55996 0
M  V30 13271 H 1236.54 2.29843 -4.30144 0
M  V30 13272 H 1235.54 0.322765 -5.48852 0
M  V30 13273 H 1236.77 0.473219 -6.77449 0
M  V30 13274 H 1234.71 2.58922 -6.0274 0
M  V30 13275 H 1234.63 1.53704 -7.4021 0
M  V30 13276 H 1235.9 2.72218 -7.30423 0
M  V30 13277 N 1240.13 1.55939 -0.228214 0
M  V30 13278 C 1241.54 1.59094 0.12704 0
M  V30 13279 C 1241.74 1.24514 1.58425 0
M  V30 13280 O 1240.8 0.983544 2.32557 0
M  V30 13281 C 1242.11 2.99999 -0.205268 0
M  V30 13282 C 1243.66 3.1265 -0.148046 0
M  V30 13283 C 1244.13 4.55743 -0.454122 0
M  V30 13284 N 1245.62 4.61435 -0.403937 0
M  V30 13285 C 1246.36 5.70101 -0.614173 0
M  V30 13286 N 1245.86 6.87104 -0.88654 0
M  V30 13287 N 1247.65 5.5944 -0.546153 0
M  V30 13288 H 1239.8 1.7669 -1.17874 0
M  V30 13289 H 1242.06 0.821599 -0.472947 0
M  V30 13290 H 1241.77 3.29976 -1.21692 0
M  V30 13291 H 1241.64 3.74177 0.476573 0
M  V30 13292 H 1244.03 2.82465 0.854255 0
M  V30 13293 H 1244.11 2.40786 -0.863462 0
M  V30 13294 H 1243.75 4.86646 -1.45389 0
M  V30 13295 H 1243.68 5.25841 0.282561 0
M  V30 13296 H 1246.18 3.77363 -0.201388 0
M  V30 13297 H 1246.49 7.65839 -1.03488 0
M  V30 13298 H 1244.83 6.88833 -0.923808 0
M  V30 13299 H 1248.02 4.6691 -0.33355 0
M  V30 13300 H 1248.2 6.44061 -0.713402 0
M  V30 13301 N 1241.6 -0.0451101 1.57535 0
M  V30 13302 C 1242.54 -1.07792 2.02271 0
M  V30 13303 C 1243.55 -1.33423 0.932854 0
M  V30 13304 O 1244.74 -1.31193 1.2104 0
M  V30 13305 C 1241.84 -2.42314 2.36933 0
M  V30 13306 C 1241.01 -2.36266 3.68099 0
M  V30 13307 C 1240.07 -3.53108 3.9013 0
M  V30 13308 O 1239.1 -3.33327 4.61391 0
M  V30 13309 N 1240.3 -4.74415 3.3453 0
M  V30 13310 H 1243.06 -0.696744 2.91489 0
M  V30 13311 H 1240.62 -0.233336 1.6021 0
M  V30 13312 H 1242.62 -3.19171 2.48821 0
M  V30 13313 H 1241.19 -2.72335 1.53468 0
M  V30 13314 H 1240.41 -1.44615 3.66715 0
M  V30 13315 H 1241.69 -2.29351 4.54175 0
M  V30 13316 H 1241.09 -4.93388 2.76739 0
M  V30 13317 H 1239.65 -5.48692 3.51825 0
M  V30 13318 N 1243.08 -1.54377 -0.317073 0
M  V30 13319 C 1243.99 -1.87247 -1.41335 0
M  V30 13320 C 1245.01 -0.765017 -1.5628 0
M  V30 13321 O 1246.18 -1.05994 -1.71252 0
M  V30 13322 C 1243.25 -2.0988 -2.75955 0
M  V30 13323 C 1242.31 -3.33658 -2.70131 0
M  V30 13324 C 1241.54 -3.55202 -3.9833 0
M  V30 13325 O 1241.77 -2.80061 -4.96913 0
M  V30 13326 O 1240.7 -4.48693 -4.01196 0
M  V30 13327 H 1244.53 -2.80481 -1.16465 0
M  V30 13328 H 1242.11 -1.40364 -0.511687 0
M  V30 13329 H 1243.99 -2.2606 -3.55633 0
M  V30 13330 H 1242.67 -1.19834 -3.00702 0
M  V30 13331 H 1241.58 -3.22857 -1.88981 0
M  V30 13332 H 1242.91 -4.23782 -2.50338 0
M  V30 13333 N 1244.56 0.579466 -1.4656 0
M  V30 13334 C 1245.51 1.68829 -1.5737 0
M  V30 13335 C 1246.48 1.60759 -0.417825 0
M  V30 13336 O 1247.66 1.79923 -0.635001 0
M  V30 13337 C 1244.8 3.07166 -1.573 0
M  V30 13338 C 1243.92 3.25837 -2.83645 0
M  V30 13339 C 1243.05 4.54441 -2.75057 0
M  V30 13340 C 1242.09 4.66467 -3.96327 0
M  V30 13341 N 1241.23 5.86401 -3.86107 0
M  V30 13342 H 1246.07 1.58928 -2.52083 0
M  V30 13343 H 1243.6 0.774526 -1.25058 0
M  V30 13344 H 1245.56 3.8724 -1.55245 0
M  V30 13345 H 1244.19 3.15956 -0.661166 0
M  V30 13346 H 1243.24 2.39345 -2.95666 0
M  V30 13347 H 1244.56 3.30591 -3.73512 0
M  V30 13348 H 1243.71 5.42748 -2.71126 0
M  V30 13349 H 1242.45 4.52131 -1.82836 0
M  V30 13350 H 1241.45 3.76577 -4.00587 0
M  V30 13351 H 1242.68 4.70554 -4.89649 0
M  V30 13352 H 1240.62 5.85082 -2.96673 0
M  V30 13353 H 1240.54 5.92437 -4.69632 0
M  V30 13354 H 1241.81 6.7713 -3.86155 0
M  V30 13355 N 1246.04 1.3432 0.824371 0
M  V30 13356 C 1246.97 1.2012 1.94027 0
M  V30 13357 C 1247.95 0.0931808 1.62333 0
M  V30 13358 O 1249.13 0.258069 1.86725 0
M  V30 13359 C 1246.26 0.845628 3.27974 0
M  V30 13360 C 1245.31 1.9632 3.7863 0
M  V30 13361 S 1246.14 3.57642 3.98563 0
M  V30 13362 C 1247.3 3.24124 5.35439 0
M  V30 13363 H 1247.53 2.14579 2.05775 0
M  V30 13364 H 1245.06 1.1933 0.979783 0
M  V30 13365 H 1247.02 0.647266 4.05365 0
M  V30 13366 H 1245.68 -0.0805948 3.13997 0
M  V30 13367 H 1244.87 1.66812 4.75594 0
M  V30 13368 H 1244.48 2.11897 3.08181 0
M  V30 13369 H 1246.77 2.75848 6.188 0
M  V30 13370 H 1247.71 4.20222 5.69929 0
M  V30 13371 H 1248.12 2.60343 5.00881 0
M  V30 13372 N 1247.52 -1.0444 1.18026 0
M  V30 13373 C 1248.93 -1.29766 0.929143 0
M  V30 13374 C 1249.13 -1.97338 -0.407436 0
M  V30 13375 O 1248.19 -2.25166 -1.14265 0
M  V30 13376 C 1249.5 -2.16002 2.09197 0
M  V30 13377 C 1251.05 -2.29361 2.12985 0
M  V30 13378 C 1251.52 -3.18962 3.28675 0
M  V30 13379 N 1253.02 -3.26549 3.28512 0
M  V30 13380 C 1253.75 -3.96025 4.14671 0
M  V30 13381 N 1253.25 -4.67863 5.10956 0
M  V30 13382 N 1255.04 -3.92266 4.02597 0
M  V30 13383 H 1247.19 -0.58984 2.04046 0
M  V30 13384 H 1249.45 -0.322752 0.891367 0
M  V30 13385 H 1249.16 -1.73653 3.05839 0
M  V30 13386 H 1249.03 -3.16667 2.04943 0
M  V30 13387 H 1251.42 -2.70948 1.16924 0
M  V30 13388 H 1251.5 -1.28299 2.21298 0
M  V30 13389 H 1251.15 -2.78087 4.25006 0
M  V30 13390 H 1251.08 -4.20047 3.17598 0
M  V30 13391 H 1253.57 -2.75371 2.58804 0
M  V30 13392 H 1253.88 -5.1846 5.73079 0
M  V30 13393 H 1252.22 -4.6678 5.14919 0
M  V30 13394 H 1255.42 -3.35273 3.26665 0
M  V30 13395 H 1255.59 -4.4614 4.69961 0
M  V30 13396 N 1248.99 -0.981699 -1.2329 0
M  V30 13397 C 1249.96 -0.527992 -2.23036 0
M  V30 13398 C 1250.96 0.383083 -1.5617 0
M  V30 13399 O 1252.15 0.176595 -1.73303 0
M  V30 13400 C 1249.28 0.233501 -3.40099 0
M  V30 13401 H 1250.47 -1.40995 -2.64689 0
M  V30 13402 H 1248.03 -0.767724 -1.36146 0
M  V30 13403 H 1248.76 1.13194 -3.03904 0
M  V30 13404 H 1248.55 -0.420505 -3.89839 0
M  V30 13405 H 1250.04 0.539485 -4.14101 0
M  V30 13406 N 1250.47 1.3842 -0.753509 0
M  V30 13407 C 1251.44 2.28808 -0.134022 0
M  V30 13408 C 1252.44 1.47184 0.647583 0
M  V30 13409 O 1253.63 1.67631 0.473861 0
M  V30 13410 C 1250.76 3.30926 0.81858 0
M  V30 13411 H 1251.95 2.85097 -0.930586 0
M  V30 13412 H 1249.5 1.47378 -0.520514 0
M  V30 13413 H 1250.24 2.79728 1.64082 0
M  V30 13414 H 1250.02 3.91234 0.260526 0
M  V30 13415 H 1251.51 3.98515 1.24802 0
M  V30 13416 N 1251.95 0.502579 1.49372 0
M  V30 13417 C 1252.88 -0.264307 2.31999 0
M  V30 13418 C 1253.86 -0.96107 1.40348 0
M  V30 13419 O 1255.05 -0.952167 1.69255 0
M  V30 13420 C 1252.18 -1.32822 3.20898 0
M  V30 13421 C 1251.13 -0.751236 4.21355 0
M  V30 13422 C 1250.46 -1.91578 4.99201 0
M  V30 13423 C 1251.76 0.258764 5.21659 0
M  V30 13424 H 1253.45 0.425391 2.96363 0
M  V30 13425 H 1251 0.206022 1.42519 0
M  V30 13426 H 1252.95 -1.87245 3.77515 0
M  V30 13427 H 1251.67 -2.04712 2.54481 0
M  V30 13428 H 1250.33 -0.228743 3.65886 0
M  V30 13429 H 1249.98 -2.62241 4.2923 0
M  V30 13430 H 1249.68 -1.53578 5.67175 0
M  V30 13431 H 1251.2 -2.46432 5.58663 0
M  V30 13432 H 1252.62 -0.197385 5.7296 0
M  V30 13433 H 1251.02 0.554681 5.97531 0
M  V30 13434 H 1252.09 1.1741 4.70471 0
M  V30 13435 N 1253.43 -1.55816 0.23648 0
M  V30 13436 C 1254.34 -2.24576 -0.678439 0
M  V30 13437 C 1255.35 -1.25836 -1.20172 0
M  V30 13438 O 1256.53 -1.58686 -1.24019 0
M  V30 13439 C 1253.6 -2.92376 -1.86325 0
M  V30 13440 C 1252.66 -4.06499 -1.38047 0
M  V30 13441 C 1251.89 -4.71057 -2.50881 0
M  V30 13442 O 1252.11 -4.34652 -3.69369 0
M  V30 13443 O 1251.05 -5.59768 -2.21232 0
M  V30 13444 H 1254.87 -3.03452 -0.122601 0
M  V30 13445 H 1252.46 -1.49399 0.00540803 0
M  V30 13446 H 1254.34 -3.35117 -2.55488 0
M  V30 13447 H 1253.01 -2.16448 -2.40691 0
M  V30 13448 H 1251.92 -3.68296 -0.656422 0
M  V30 13449 H 1253.25 -4.84214 -0.883024 0
M  V30 13450 N 1254.91 0.036755 -1.57557 0
M  V30 13451 C 1255.84 1.06718 -2.0284 0
M  V30 13452 C 1256.85 1.32926 -0.939917 0
M  V30 13453 O 1258.04 1.30549 -1.21734 0
M  V30 13454 C 1255.14 2.41054 -2.38214 0
M  V30 13455 C 1254.31 2.3431 -3.69347 0
M  V30 13456 C 1253.37 3.51034 -3.91997 0
M  V30 13457 O 1252.4 3.30875 -4.63152 0
M  V30 13458 N 1253.6 4.72634 -3.37042 0
M  V30 13459 H 1256.37 0.681275 -2.91854 0
M  V30 13460 H 1253.93 0.224836 -1.60331 0
M  V30 13461 H 1255.92 3.17847 -2.5051 0
M  V30 13462 H 1254.49 2.71517 -1.5491 0
M  V30 13463 H 1253.71 1.42668 -3.67477 0
M  V30 13464 H 1255 2.2694 -4.55385 0
M  V30 13465 H 1254.39 4.91914 -2.79352 0
M  V30 13466 H 1252.95 5.46818 -3.5473 0
M  V30 13467 N 1256.39 1.54543 0.308881 0
M  V30 13468 C 1257.32 1.87947 1.38557 0
M  V30 13469 C 1258.3 0.737622 1.53275 0
M  V30 13470 O 1259.48 0.992664 1.66913 0
M  V30 13471 C 1256.61 2.11982 2.75102 0
M  V30 13472 C 1255.57 3.2783 2.75158 0
M  V30 13473 C 1254.89 3.37266 4.14917 0
M  V30 13474 C 1256.19 4.65129 2.37598 0
M  V30 13475 H 1257.89 2.78123 1.1085 0
M  V30 13476 H 1255.43 1.3382 0.531808 0
M  V30 13477 H 1257.38 2.33935 3.50503 0
M  V30 13478 H 1256.11 1.18569 3.04317 0
M  V30 13479 H 1254.77 3.05787 2.02212 0
M  V30 13480 H 1254.42 2.41384 4.41296 0
M  V30 13481 H 1254.12 4.15135 4.15857 0
M  V30 13482 H 1255.64 3.61471 4.92109 0
M  V30 13483 H 1257.05 4.86865 3.02714 0
M  V30 13484 H 1255.45 5.45653 2.49765 0
M  V30 13485 H 1256.52 4.6638 1.32731 0
M  V30 13486 N 1257.86 -0.571685 1.46866 0
M  V30 13487 C 1258.81 -1.67992 1.58263 0
M  V30 13488 C 1259.78 -1.60535 0.426345 0
M  V30 13489 O 1260.97 -1.79584 0.644534 0
M  V30 13490 C 1258.11 -3.06327 1.58927 0
M  V30 13491 C 1257.22 -3.24328 2.85369 0
M  V30 13492 C 1256.35 -4.52976 2.77464 0
M  V30 13493 C 1255.39 -4.64359 3.98795 0
M  V30 13494 N 1254.53 -5.84345 3.89211 0
M  V30 13495 H 1259.37 -1.57589 2.52922 0
M  V30 13496 H 1256.91 -0.767883 1.25467 0
M  V30 13497 H 1258.86 -3.86411 1.57296 0
M  V30 13498 H 1257.49 -3.15601 0.677912 0
M  V30 13499 H 1256.55 -2.37774 2.96931 0
M  V30 13500 H 1257.86 -3.28605 3.7526 0
M  V30 13501 H 1257.01 -5.41303 2.74001 0
M  V30 13502 H 1255.75 -4.51155 1.85231 0
M  V30 13503 H 1254.76 -3.74448 4.02578 0
M  V30 13504 H 1255.98 -4.6795 4.92137 0
M  V30 13505 H 1253.93 -5.835 2.99772 0
M  V30 13506 H 1253.84 -5.89938 4.72768 0
M  V30 13507 H 1255.11 -6.75072 3.89741 0
M  V30 13508 N 1259.34 -1.34755 -0.817236 0
M  V30 13509 C 1260.59 -1.2718 -1.57066 0
M  V30 13510 C 1260.91 0.156531 -1.94371 0
M  V30 13511 O 1260.18 1.09049 -1.62742 0
M  V30 13512 H 1258.76 -0.467755 -0.582421 0
M  V30 13513 H 1261.42 -1.68734 -0.975438 0
M  V30 13514 H 1260.52 -1.88043 -2.49091 0
M  V30 13515 N 1260.82 1.03812 -1.18578 0
M  V30 13516 C 1261.75 2.13802 -0.938665 0
M  V30 13517 C 1262.73 1.69643 0.124575 0
M  V30 13518 O 1263.92 1.94179 -0.0285421 0
M  V30 13519 C 1261.05 3.44154 -0.466392 0
M  V30 13520 C 1260 4.01949 -1.47041 0
M  V30 13521 C 1259.33 5.27811 -0.855558 0
M  V30 13522 C 1260.63 4.37827 -2.84789 0
M  V30 13523 H 1262.32 2.34732 -1.85852 0
M  V30 13524 H 1259.87 1.12808 -0.895007 0
M  V30 13525 H 1261.82 4.20463 -0.280856 0
M  V30 13526 H 1260.54 3.22918 0.489041 0
M  V30 13527 H 1259.2 3.27725 -1.64293 0
M  V30 13528 H 1258.85 5.02886 0.107142 0
M  V30 13529 H 1258.55 5.67441 -1.52592 0
M  V30 13530 H 1260.07 6.06795 -0.680609 0
M  V30 13531 H 1261.49 5.05112 -2.71173 0
M  V30 13532 H 1259.88 4.88514 -3.48532 0
M  V30 13533 H 1260.95 3.47541 -3.38147 0
M  V30 13534 N 1262.3 0.988223 1.22768 0
M  V30 13535 C 1263.21 0.543407 2.2822 0
M  V30 13536 C 1264.22 -0.405563 1.69208 0
M  V30 13537 O 1265.4 -0.273551 1.99534 0
M  V30 13538 C 1262.46 -0.139495 3.46419 0
M  V30 13539 C 1261.53 0.851853 4.20764 0
M  V30 13540 C 1260.76 0.201446 5.3332 0
M  V30 13541 O 1260.98 -1.00573 5.61464 0
M  V30 13542 O 1259.92 0.903956 5.95073 0
M  V30 13543 H 1263.74 1.42059 2.68427 0
M  V30 13544 H 1261.33 0.756239 1.28846 0
M  V30 13545 H 1263.21 -0.522226 4.18152 0
M  V30 13546 H 1261.88 -0.991315 3.08147 0
M  V30 13547 H 1260.79 1.28543 3.51322 0
M  V30 13548 H 1262.12 1.67273 4.62905 0
M  V30 13549 N 1263.78 -1.38018 0.760839 0
M  V30 13550 C 1264.72 -2.32251 0.127425 0
M  V30 13551 C 1265.72 -1.54387 -0.69722 0
M  V30 13552 O 1266.92 -1.69864 -0.595505 0
M  V30 13553 H 1263.3 -0.751666 0.0224141 0
M  V30 13554 H 1265.27 -2.8327 0.93813 0
M  V30 13555 C 1264.02 -3.39606 -0.745849 0
M  V30 13556 H 1263.34 -3.99618 -0.120679 0
M  V30 13557 H 1264.78 -4.07931 -1.15621 0
M  V30 13558 C 1263.24 -2.78778 -1.89167 0
M  V30 13559 O 1263.77 -2.68661 -2.98637 0
M  V30 13560 N 1261.98 -2.36481 -1.68894 0
M  V30 13561 H 1261.52 -2.4491 -0.798551 0
M  V30 13562 H 1261.48 -1.96126 -2.45728 0
M  V30 13563 N 1265.25 -0.510493 -1.49103 0
M  V30 13564 C 1266.18 0.251999 -2.32136 0
M  V30 13565 C 1267.16 0.953613 -1.40855 0
M  V30 13566 O 1268.35 0.943178 -1.69758 0
M  V30 13567 C 1265.48 1.31118 -3.21598 0
M  V30 13568 C 1264.43 0.72888 -4.21748 0
M  V30 13569 C 1263.76 1.88928 -5.0021 0
M  V30 13570 C 1265.06 -0.286425 -5.21514 0
M  V30 13571 H 1266.75 -0.441102 -2.96133 0
M  V30 13572 H 1264.3 -0.213577 -1.42407 0
M  V30 13573 H 1266.25 1.8524 -3.78503 0
M  V30 13574 H 1264.98 2.0336 -2.55563 0
M  V30 13575 H 1263.64 0.209336 -3.66002 0
M  V30 13576 H 1263.28 2.59961 -4.30615 0
M  V30 13577 H 1262.98 1.50568 -5.67981 0
M  V30 13578 H 1264.51 2.43465 -5.59962 0
M  V30 13579 H 1265.92 0.166997 -5.73057 0
M  V30 13580 H 1264.32 -0.586361 -5.97228 0
M  V30 13581 H 1265.39 -1.19904 -4.69842 0
M  V30 13582 N 1266.73 1.55688 -0.24474 0
M  V30 13583 C 1267.96 2.03743 0.387776 0
M  V30 13584 C 1268.38 1.1229 1.50906 0
M  V30 13585 O 1267.74 0.115445 1.80932 0
M  V30 13586 C 1267.79 3.49825 0.874927 0
M  V30 13587 O 1266.89 3.61504 1.98466 0
M  V30 13588 H 1266.23 0.658561 0.0848107 0
M  V30 13589 H 1268.76 2.01224 -0.370165 0
M  V30 13590 H 1268.77 3.90603 1.17871 0
M  V30 13591 H 1267.45 4.15864 0.0543852 0
M  V30 13592 H 1266.02 3.32622 1.68574 0
M  V30 13593 N 1268.21 -0.0283989 1.57574 0
M  V30 13594 C 1269.46 -0.717656 1.88929 0
M  V30 13595 C 1269.78 -1.7586 0.842517 0
M  V30 13596 O 1269.05 -1.95509 -0.123774 0
M  V30 13597 H 1267.63 -0.268051 0.69725 0
M  V30 13598 H 1270.29 0.00580691 1.94899 0
M  V30 13599 H 1269.39 -1.2068 2.87824 0
M  V30 13600 N 1269.69 -1.54705 -0.300681 0
M  V30 13601 C 1270.96 -1.6468 -1.05546 0
M  V30 13602 C 1271.34 -0.495292 -2.05207 0
M  V30 13603 O 1270.69 0.507944 -2.22783 0
M  V30 13604 C 1270.9 -3.02702 -1.73703 0
M  V30 13605 C 1272.25 -3.59527 -2.25888 0
M  V30 13606 O 1273.27 -3.05156 -1.83735 0
M  V30 13607 O 1272.13 -4.54727 -3.03126 0
M  V30 13608 H 1269.23 -0.667769 -0.487867 0
M  V30 13609 H 1271.77 -1.6705 -0.298743 0
M  V30 13610 H 1270.55 -3.7795 -1.01338 0
M  V30 13611 H 1270.17 -3.0411 -2.5613 0
M  V30 13612 N 1271.17 0.563888 -1.47167 0
M  V30 13613 C 1272.1 1.68137 -1.62025 0
M  V30 13614 C 1273.08 1.63481 -0.469899 0
M  V30 13615 O 1274.26 1.81206 -0.698432 0
M  V30 13616 C 1271.39 3.06779 -1.62801 0
M  V30 13617 C 1270.35 3.26278 -2.76996 0
M  V30 13618 C 1269.67 4.65638 -2.62841 0
M  V30 13619 C 1270.97 3.12295 -4.18651 0
M  V30 13620 H 1272.67 1.55958 -2.55573 0
M  V30 13621 H 1270.21 0.74887 -1.22996 0
M  V30 13622 H 1272.17 3.84795 -1.71787 0
M  V30 13623 H 1270.89 3.19901 -0.658097 0
M  V30 13624 H 1269.55 2.50668 -2.67509 0
M  V30 13625 H 1269.2 4.75551 -1.63892 0
M  V30 13626 H 1268.9 4.79635 -3.39447 0
M  V30 13627 H 1270.42 5.45798 -2.73746 0
M  V30 13628 H 1271.83 3.80136 -4.2915 0
M  V30 13629 H 1270.23 3.37805 -4.95992 0
M  V30 13630 H 1271.3 2.09126 -4.37486 0
M  V30 13631 N 1272.64 1.35187 0.810078 0
M  V30 13632 C 1273.87 1.31181 1.59609 0
M  V30 13633 C 1274.28 -0.113556 1.88859 0
M  V30 13634 O 1273.63 -1.07491 1.48968 0
M  V30 13635 C 1273.69 2.04749 2.95496 0
M  V30 13636 C 1273.35 3.53952 2.89079 0
M  V30 13637 C 1274.35 4.48612 2.6276 0
M  V30 13638 C 1272.03 3.96551 3.08306 0
M  V30 13639 C 1274.03 5.83846 2.5574 0
M  V30 13640 C 1271.71 5.31881 3.00909 0
M  V30 13641 C 1272.71 6.2534 2.74661 0
M  V30 13642 O 1272.4 7.58188 2.6722 0
M  V30 13643 H 1272.13 0.452285 0.502408 0
M  V30 13644 H 1274.69 1.78571 1.01497 0
M  V30 13645 H 1272.92 1.51992 3.55577 0
M  V30 13646 H 1274.61 1.93866 3.5661 0
M  V30 13647 H 1275.37 4.1702 2.47628 0
M  V30 13648 H 1271.25 3.24194 3.27749 0
M  V30 13649 H 1274.79 6.56765 2.35172 0
M  V30 13650 H 1270.69 5.63088 3.15598 0
M  V30 13651 H 1271.46 7.68073 2.82853 0
M  V30 13652 N 1274.12 -1.03182 1.19127 0
M  V30 13653 C 1275.03 -2.14875 0.94159 0
M  V30 13654 C 1276.05 -1.73727 -0.0973872 0
M  V30 13655 O 1277.22 -2.01214 0.0865775 0
M  V30 13656 C 1274.29 -3.43356 0.480366 0
M  V30 13657 C 1273.35 -3.98835 1.58838 0
M  V30 13658 C 1272.58 -5.21183 1.14907 0
M  V30 13659 O 1272.81 -5.70399 0.0114141 0
M  V30 13660 O 1271.74 -5.69423 1.95042 0
M  V30 13661 H 1275.57 -2.38799 1.8764 0
M  V30 13662 H 1273.15 -1.13299 0.973841 0
M  V30 13663 H 1275.03 -4.20763 0.231658 0
M  V30 13664 H 1273.71 -3.20884 -0.426041 0
M  V30 13665 H 1272.62 -3.22776 1.8912 0
M  V30 13666 H 1273.95 -4.25665 2.47123 0
M  V30 13667 N 1275.6 -0.99472 -1.22242 0
M  V30 13668 C 1276.55 -0.546504 -2.24236 0
M  V30 13669 C 1277.52 0.422101 -1.60647 0
M  V30 13670 O 1278.7 0.326452 -1.87987 0
M  V30 13671 C 1275.84 0.130909 -3.44852 0
M  V30 13672 C 1274.96 -0.879653 -4.22949 0
M  V30 13673 C 1274.09 -0.175569 -5.3091 0
M  V30 13674 C 1273.13 -1.17438 -6.00729 0
M  V30 13675 N 1272.27 -0.498474 -7.00328 0
M  V30 13676 H 1277.11 -1.42099 -2.61939 0
M  V30 13677 H 1274.64 -0.711755 -1.28734 0
M  V30 13678 H 1276.6 0.540596 -4.13683 0
M  V30 13679 H 1275.23 0.96917 -3.07907 0
M  V30 13680 H 1274.28 -1.40765 -3.53397 0
M  V30 13681 H 1275.6 -1.64017 -4.71062 0
M  V30 13682 H 1274.75 0.290756 -6.06003 0
M  V30 13683 H 1273.49 0.617438 -4.83776 0
M  V30 13684 H 1272.49 -1.65131 -5.24416 0
M  V30 13685 H 1273.72 -1.96829 -6.4995 0
M  V30 13686 H 1271.66 0.275063 -6.55423 0
M  V30 13687 H 1271.58 -1.19741 -7.46457 0
M  V30 13688 H 1272.85 -0.0550119 -7.79481 0
M  V30 13689 N 1277.08 1.37613 -0.768148 0
M  V30 13690 C 1278.33 1.99023 -0.327543 0
M  V30 13691 C 1278.64 1.61669 1.10103 0
M  V30 13692 O 1279.85 2.16155 1.64284 0
M  V30 13693 C 1278.3 3.55906 -0.534674 0
M  V30 13694 C 1277.91 4.02201 -1.97327 0
M  V30 13695 C 1279.65 4.24208 -0.157512 0
M  V30 13696 C 1277.56 5.51781 -2.12819 0
M  V30 13697 H 1276.49 0.744595 -0.118722 0
M  V30 13698 H 1279.14 1.5719 -0.946764 0
M  V30 13699 H 1277.52 3.95701 0.153951 0
M  V30 13700 H 1278.7 3.73661 -2.69655 0
M  V30 13701 H 1277.01 3.46671 -2.30669 0
M  V30 13702 H 1279.61 5.34107 -0.251824 0
M  V30 13703 H 1279.95 4.06636 0.89177 0
M  V30 13704 H 1280.49 3.89703 -0.798546 0
M  V30 13705 H 1277.23 5.74274 -3.16053 0
M  V30 13706 H 1276.75 5.82017 -1.4497 0
M  V30 13707 H 1278.42 6.17697 -1.92508 0
M  V30 13708 N 1278.56 0.518393 1.4883 0
M  V30 13709 C 1279.78 -0.0162 2.06894 0
M  V30 13710 C 1280.2 -1.29222 1.37649 0
M  V30 13711 O 1279.56 -1.766 0.460288 0
M  V30 13712 C 1279.61 -0.255836 3.60594 0
M  V30 13713 O 1279.33 0.969612 4.27235 0
M  V30 13714 C 1280.83 -0.832117 4.3542 0
M  V30 13715 H 1278.05 0.0282877 0.670403 0
M  V30 13716 H 1280.59 0.720726 1.91379 0
M  V30 13717 H 1278.75 -0.942782 3.75753 0
M  V30 13718 H 1279.16 0.743172 5.19208 0
M  V30 13719 H 1280.64 -0.949279 5.43776 0
M  V30 13720 H 1281.11 -1.83421 3.99066 0
M  V30 13721 H 1281.72 -0.1821 4.2491 0
M  V30 13722 N 1280.03 -1.55556 0.252993 0
M  V30 13723 C 1280.98 -2.21634 -0.643979 0
M  V30 13724 C 1281.95 -1.18226 -1.1667 0
M  V30 13725 O 1283.14 -1.46694 -1.22006 0
M  V30 13726 C 1280.28 -2.92429 -1.83246 0
M  V30 13727 C 1279.39 -4.10506 -1.34569 0
M  V30 13728 C 1278.52 -4.69001 -2.49421 0
M  V30 13729 C 1277.56 -5.79315 -1.97636 0
M  V30 13730 N 1276.7 -6.31967 -3.05878 0
M  V30 13731 H 1281.54 -2.97909 -0.0738178 0
M  V30 13732 H 1279.08 -1.47079 -0.0246728 0
M  V30 13733 H 1281.04 -3.31678 -2.53072 0
M  V30 13734 H 1279.67 -2.18617 -2.375 0
M  V30 13735 H 1278.72 -3.76529 -0.541268 0
M  V30 13736 H 1280.03 -4.90125 -0.92622 0
M  V30 13737 H 1279.18 -5.10855 -3.27279 0
M  V30 13738 H 1277.92 -3.88612 -2.94673 0
M  V30 13739 H 1276.93 -5.36933 -1.18251 0
M  V30 13740 H 1278.15 -6.6156 -1.53347 0
M  V30 13741 H 1276.1 -5.5448 -3.50553 0
M  V30 13742 H 1276.02 -7.06797 -2.68281 0
M  V30 13743 H 1277.28 -6.7848 -3.83777 0
M  V30 13744 N 1281.51 0.0200419 -1.57587 0
M  V30 13745 C 1282.48 1.00255 -2.06111 0
M  V30 13746 C 1283.48 1.28488 -0.966829 0
M  V30 13747 O 1284.67 1.2334 -1.23015 0
M  V30 13748 C 1281.8 2.33296 -2.48567 0
M  V30 13749 H 1282.99 0.583216 -2.94174 0
M  V30 13750 H 1280.54 0.267077 -1.54001 0
M  V30 13751 H 1281.28 2.79959 -1.63687 0
M  V30 13752 H 1281.06 2.14131 -3.28467 0
M  V30 13753 H 1282.55 3.03817 -2.86505 0
M  V30 13754 N 1282.99 1.54862 0.292472 0
M  V30 13755 C 1283.92 1.89406 1.36556 0
M  V30 13756 C 1284.9 0.753838 1.52484 0
M  V30 13757 O 1286.09 1.01031 1.6585 0
M  V30 13758 C 1283.22 2.14888 2.72838 0
M  V30 13759 C 1282.17 3.3073 2.71665 0
M  V30 13760 C 1281.5 3.41648 4.11316 0
M  V30 13761 C 1282.8 4.67622 2.32651 0
M  V30 13762 H 1284.49 2.79284 1.07894 0
M  V30 13763 H 1282.04 1.34377 0.517585 0
M  V30 13764 H 1283.99 2.3764 3.48002 0
M  V30 13765 H 1282.71 1.2179 3.03042 0
M  V30 13766 H 1281.37 3.07915 1.98958 0
M  V30 13767 H 1281.02 2.46051 4.38711 0
M  V30 13768 H 1280.72 4.19522 4.11431 0
M  V30 13769 H 1282.24 3.6667 4.88248 0
M  V30 13770 H 1283.66 4.90048 2.97533 0
M  V30 13771 H 1282.06 5.48272 2.43963 0
M  V30 13772 H 1283.13 4.67762 1.27777 0
M  V30 13773 N 1284.47 -0.556076 1.47464 0
M  V30 13774 C 1285.43 -1.64515 1.59586 0
M  V30 13775 C 1286.43 -1.53751 0.470881 0
M  V30 13776 O 1287.62 -1.57889 0.735979 0
M  V30 13777 C 1284.75 -3.0406 1.54143 0
M  V30 13778 H 1285.95 -1.55116 2.56669 0
M  V30 13779 H 1283.5 -0.776087 1.35671 0
M  V30 13780 H 1284.23 -3.18991 0.584395 0
M  V30 13781 H 1284.02 -3.13282 2.3579 0
M  V30 13782 H 1285.51 -3.8329 1.65766 0
M  V30 13783 O 1285.99 -1.45506 -0.700736 0
M  V30 13784 H 1286.68 -1.3868 -1.35231 0
M  V30 END ATOM
M  V30 BEGIN BOND
M  V30 END BOND
M  V30 END CTAB
M  END
$$$$
