drugbank_target|P04936 Genome polyprotein (DB02313; DB03017)
 OpenBabel12092119553D

  0  0  0     0  0            999 V3000
M  V30 BEGIN CTAB
M  V30 COUNTS 33904 34323 0 0 0
M  V30 BEGIN ATOM
M  V30 1 H -0.908 1.98254 -0.117106 0
M  V30 2 N 0 1.576 0 0
M  V30 3 C 0.933 2.03868 1.02534 0
M  V30 4 C 1.911 0.928543 1.3348 0
M  V30 5 O 3.095 1.19667 1.45644 0
M  V30 6 C 0.222 2.43627 2.35294 0
M  V30 7 C -0.732 3.65373 2.2001 0
M  V30 8 S 0.101 5.13292 1.52614 0
M  V30 9 C 1.257 5.56322 2.86805 0
M  V30 10 H 1.49 2.90518 0.631377 0
M  V30 11 H -0.977 1.52953 0.210867 0
M  V30 12 H 0.981 2.67203 3.11629 0
M  V30 13 H -0.358 1.57376 2.7183 0
M  V30 14 H -1.165 3.90944 3.18086 0
M  V30 15 H -1.563 3.418 1.51819 0
M  V30 16 H 0.729 5.58782 3.83104 0
M  V30 17 H 1.672 6.56266 2.65933 0
M  V30 18 H 2.08 4.83886 2.90714 0
M  V30 19 N 1.4781 -0.272755 1.55222 0
M  V30 20 C 2.7261 -1.00234 1.75492 0
M  V30 21 C 3.0471 -1.8681 0.5592 0
M  V30 22 O 2.3171 -1.91215 -0.425882 0
M  V30 23 H 0.8971 -0.373076 0.647166 0
M  V30 24 H 3.5591 -0.296926 1.92625 0
M  V30 25 H 2.6551 -1.63913 2.65592 0
M  V30 26 N 2.9562 -1.48159 -0.537278 0
M  V30 27 C 3.9192 -1.61665 -1.62472 0
M  V30 28 C 4.9192 -0.490395 -1.5314 0
M  V30 29 O 6.1092 -0.755998 -1.5694 0
M  V30 30 C 3.2412 -1.57997 -3.02076 0
M  V30 31 H 4.4342 -2.58621 -1.51839 0
M  V30 32 H 1.9872 -1.36647 -0.758771 0
M  V30 33 H 2.7222 -0.624913 -3.18222 0
M  V30 34 H 2.5072 -2.39755 -3.10258 0
M  V30 35 H 3.9972 -1.70627 -3.81151 0
M  V30 36 N 4.4343 0.785586 -1.36625 0
M  V30 37 C 5.3663 1.90711 -1.2713 0
M  V30 38 C 6.3793 1.61688 -0.189986 0
M  V30 39 O 7.5683 1.72864 -0.445014 0
M  V30 40 C 4.6683 3.25611 -0.939713 0
M  V30 41 C 3.8413 3.82385 -2.12369 0
M  V30 42 C 2.9003 4.95732 -1.76456 0
M  V30 43 O 1.9263 5.12047 -2.48589 0
M  V30 44 N 3.1283 5.76258 -0.700492 0
M  V30 45 H 5.8933 1.99376 -2.23762 0
M  V30 46 H 3.4543 0.964041 -1.30069 0
M  V30 47 H 5.4463 3.98937 -0.680554 0
M  V30 48 H 4.0163 3.12538 -0.0624074 0
M  V30 49 H 3.2363 3.01001 -2.54543 0
M  V30 50 H 4.5243 4.17047 -2.9146 0
M  V30 51 H 3.9223 5.65609 -0.101624 0
M  V30 52 H 2.4793 6.4987 -0.501165 0
M  V30 53 N 5.9124 1.20967 1.01018 0
M  V30 54 C 7.1584 1.02526 1.74975 0
M  V30 55 C 7.4914 -0.4408 1.89131 0
M  V30 56 O 6.7664 -1.32718 1.42184 0
M  V30 57 C 7.0494 1.71699 3.1653 0
M  V30 58 C 6.9024 3.25791 3.10129 0
M  V30 59 C 8.2214 1.45531 4.15342 0
M  V30 60 H 5.3404 0.373863 0.635134 0
M  V30 61 H 7.9824 1.49071 1.17805 0
M  V30 62 H 6.1324 1.32128 3.65341 0
M  V30 63 H 7.8044 3.74697 2.69072 0
M  V30 64 H 6.0474 3.56363 2.47362 0
M  V30 65 H 6.7184 3.69353 4.10222 0
M  V30 66 H 9.1944 1.79872 3.75213 0
M  V30 67 H 8.0704 1.96453 5.1254 0
M  V30 68 H 8.3314 0.384237 4.40427 0
M  V30 69 N 7.3905 -1.2043 1.01659 0
M  V30 70 C 8.6155 -1.94318 0.724942 0
M  V30 71 C 9.0405 -1.74266 -0.708034 0
M  V30 72 O 8.3985 -1.03694 -1.48719 0
M  V30 73 C 8.4465 -3.44486 1.06591 0
M  V30 74 O 7.5505 -4.12017 0.177599 0
M  V30 75 H 6.8915 -0.60708 0.26898 0
M  V30 76 H 9.4215 -1.52861 1.35995 0
M  V30 77 H 9.4315 -3.95106 1.01762 0
M  V30 78 H 8.1065 -3.58404 2.10997 0
M  V30 79 H 6.6835 -3.71821 0.283421 0
M  V30 80 N 8.8686 -0.792821 -1.36206 0
M  V30 81 C 10.2846 -0.474903 -1.52371 0
M  V30 82 C 10.4846 1.00622 -1.74578 0
M  V30 83 O 9.5406 1.79162 -1.77924 0
M  V30 84 C 10.8536 -1.3083 -2.70747 0
M  V30 85 C 12.4016 -1.30234 -2.84619 0
M  V30 86 C 12.8766 -2.11956 -4.06004 0
M  V30 87 N 14.3676 -2.09419 -4.13156 0
M  V30 88 C 15.1026 -2.69419 -5.06163 0
M  V30 89 N 14.5986 -3.3829 -6.04592 0
M  V30 90 N 16.3916 -2.59134 -4.98804 0
M  V30 91 H 8.5426 -1.75222 -1.20046 0
M  V30 92 H 10.8056 -0.745024 -0.586211 0
M  V30 93 H 10.5116 -2.35881 -2.6087 0
M  V30 94 H 10.3856 -0.95196 -3.6499 0
M  V30 95 H 12.7726 -0.259748 -2.93955 0
M  V30 96 H 12.8536 -1.69847 -1.91274 0
M  V30 97 H 12.4976 -3.16248 -3.97429 0
M  V30 98 H 12.4276 -1.69711 -4.98503 0
M  V30 99 H 14.9186 -1.59297 -3.42685 0
M  V30 100 H 15.2316 -3.81394 -6.7213 0
M  V30 101 H 13.5766 -3.42393 -6.04807 0
M  V30 102 H 16.7676 -2.04927 -4.20859 0
M  V30 103 H 16.9406 -3.06185 -5.711 0
M  V30 104 N 10.3467 1.47872 -0.545128 0
M  V30 105 C 11.2787 2.27869 0.246621 0
M  V30 106 C 12.2917 1.36282 0.890561 0
M  V30 107 O 13.4807 1.61207 0.766449 0
M  V30 108 C 10.5807 3.10159 1.36582 0
M  V30 109 C 9.7537 4.29627 0.820954 0
M  V30 110 C 8.8127 4.93607 1.82314 0
M  V30 111 O 7.8387 5.52366 1.37406 0
M  V30 112 N 9.0407 4.87211 3.15603 0
M  V30 113 H 11.8057 2.96459 -0.439539 0
M  V30 114 H 9.3667 1.57367 -0.380421 0
M  V30 115 H 11.3587 3.49829 2.03474 0
M  V30 116 H 9.9287 2.43891 1.9554 0
M  V30 117 H 9.1487 3.94192 -0.0244032 0
M  V30 118 H 10.4367 5.06928 0.436063 0
M  V30 119 H 9.8347 4.40651 3.54744 0
M  V30 120 H 8.3917 5.30937 3.78087 0
M  V30 121 N 11.8248 0.280983 1.55075 0
M  V30 122 C 12.7728 -0.619864 2.24188 0
M  V30 123 C 13.7668 -1.15315 1.24092 0
M  V30 124 O 14.9728 -1.1061 1.42005 0
M  V30 125 H 11.3478 -0.218459 0.719569 0
M  V30 126 H 13.3188 -0.0141831 2.98397 0
M  V30 127 C 12.0678 -1.7899 2.98091 0
M  V30 128 H 11.3908 -1.38874 3.74905 0
M  V30 129 H 12.8308 -2.39672 3.49762 0
M  V30 130 C 11.2898 -2.68192 2.03899 0
M  V30 131 O 11.8198 -3.6872 1.594 0
M  V30 132 N 10.0258 -2.35488 1.70275 0
M  V30 133 H 9.5728 -1.53787 2.06658 0
M  V30 134 H 9.5308 -2.95442 1.07524 0
M  V30 135 N 13.3029 -1.57598 0.00835791 0
M  V30 136 C 14.5489 -1.91211 -0.675732 0
M  V30 137 C 14.8819 -0.883139 -1.72958 0
M  V30 138 O 14.1569 0.097016 -1.94258 0
M  V30 139 C 14.4399 -3.35379 -1.31123 0
M  V30 140 C 14.2929 -4.48999 -0.268356 0
M  V30 141 C 15.6119 -3.7912 -2.23508 0
M  V30 142 H 12.7309 -0.695374 -0.244179 0
M  V30 143 H 15.3729 -1.89901 0.0613655 0
M  V30 144 H 13.5229 -3.36626 -1.93946 0
M  V30 145 H 15.1949 -4.59887 0.360844 0
M  V30 146 H 13.4379 -4.31873 0.408482 0
M  V30 147 H 14.1089 -5.46851 -0.752218 0
M  V30 148 H 16.5849 -3.79477 -1.70693 0
M  V30 149 H 15.4609 -4.80729 -2.64936 0
M  V30 150 H 15.7219 -3.13455 -3.11766 0
M  V30 151 N 14.781 0.264519 -1.55364 0
M  V30 152 C 16.029 0.993021 -1.76021 0
M  V30 153 C 16.35 1.86511 -0.569099 0
M  V30 154 O 15.62 1.91438 0.415735 0
M  V30 155 H 14.2 0.369639 -0.649135 0
M  V30 156 H 16.862 0.286707 -1.9278 0
M  V30 157 H 15.958 1.62502 -2.66457 0
M  V30 158 N 16.2591 1.48442 0.529413 0
M  V30 159 C 17.4871 1.60151 1.30994 0
M  V30 160 C 17.9021 0.261985 1.86973 0
M  V30 161 O 17.2591 -0.748805 1.66431 0
M  V30 162 C 17.3101 2.64854 2.46038 0
M  V30 163 O 17.0311 3.93608 1.92365 0
M  V30 164 C 18.5321 2.87007 3.37849 0
M  V30 165 H 15.7521 0.539971 0.398338 0
M  V30 166 H 18.2961 1.94273 0.638597 0
M  V30 167 H 16.4511 2.33589 3.09055 0
M  V30 168 H 16.8651 4.51055 2.67675 0
M  V30 169 H 18.3391 3.64068 4.14919 0
M  V30 170 H 18.8161 1.95852 3.93114 0
M  V30 171 H 19.4221 3.19579 2.80623 0
M  V30 172 N 17.7372 -0.778329 1.37039 0
M  V30 173 C 18.6872 -1.88142 1.28789 0
M  V30 174 C 19.6712 -1.59923 0.177063 0
M  V30 175 O 20.8632 -1.72165 0.410873 0
M  V30 176 C 17.9922 -3.25518 1.09055 0
M  V30 177 C 17.0782 -3.5971 2.24654 0
M  V30 178 N 17.4692 -3.65131 3.50018 0
M  V30 179 C 15.7672 -3.89837 2.16663 0
M  V30 180 C 16.4682 -3.95882 4.26207 0
M  V30 181 N 15.4442 -4.11441 3.55271 0
M  V30 182 H 19.2462 -1.90575 2.23737 0
M  V30 183 H 16.7602 -0.974435 1.29917 0
M  V30 184 H 18.7572 -4.04423 1.0123 0
M  V30 185 H 17.4172 -3.24353 0.15018 0
M  V30 186 H 18.4282 -3.475 3.84011 0
M  V30 187 H 15.1052 -3.96533 1.30645 0
M  V30 188 H 16.4952 -4.06907 5.34674 0
M  V30 189 N 19.2153 -1.21501 -1.00376 0
M  V30 190 C 20.4403 -1.05977 -1.78279 0
M  V30 191 C 20.8653 0.385994 -1.84097 0
M  V30 192 O 20.2233 1.27849 -1.28547 0
M  V30 193 C 20.2713 -1.66302 -3.19963 0
M  V30 194 O 19.3753 -0.909333 -4.0225 0
M  V30 195 H 18.7163 -0.372906 -0.549397 0
M  V30 196 H 21.2463 -1.6107 -1.26165 0
M  V30 197 H 21.2563 -1.70574 -3.70632 0
M  V30 198 H 19.9313 -2.71515 -3.15043 0
M  V30 199 H 18.5083 -0.941795 -3.60811 0
M  V30 200 N 20.6934 1.19889 -1.02296 0
M  V30 201 C 21.9214 1.9339 -0.735399 0
M  V30 202 C 22.3364 1.75148 0.704887 0
M  V30 203 O 21.6934 1.06954 1.47875 0
M  V30 204 C 21.7444 3.45313 -1.06962 0
M  V30 205 O 21.4654 3.62964 -2.45334 0
M  V30 206 C 22.9664 4.35948 -0.804021 0
M  V30 207 H 20.1864 0.61448 -0.269546 0
M  V30 208 H 22.7304 1.522 -1.36585 0
M  V30 209 H 20.8854 3.84359 -0.484455 0
M  V30 210 H 21.2994 4.56886 -2.57595 0
M  V30 211 H 22.7734 5.41174 -1.0879 0
M  V30 212 H 23.2504 4.3842 0.261691 0
M  V30 213 H 23.8564 4.02574 -1.37164 0
M  V30 214 N 22.1715 0.800033 1.35784 0
M  V30 215 C 23.1035 0.163596 2.28615 0
M  V30 216 C 24.1165 -0.633317 1.49976 0
M  V30 217 O 25.3055 -0.466754 1.72289 0
M  V30 218 C 22.4055 -0.790958 3.29541 0
M  V30 219 C 21.5785 -0.0418255 4.3738 0
M  V30 220 C 20.6375 -0.91389 5.18203 0
M  V30 221 O 19.6635 -0.367234 5.68014 0
M  V30 222 N 20.8655 -2.23682 5.35674 0
M  V30 223 H 23.6305 0.96105 2.83873 0
M  V30 224 H 21.1915 0.654894 1.48063 0
M  V30 225 H 23.1835 -1.37844 3.80501 0
M  V30 226 H 21.7535 -1.48925 2.74846 0
M  V30 227 H 20.9735 0.726813 3.87442 0
M  V30 228 H 22.2615 0.474719 5.06581 0
M  V30 229 H 21.6595 -2.70497 4.96838 0
M  V30 230 H 20.2165 -2.77369 5.89839 0
M  V30 231 N 23.6496 -1.47581 0.552962 0
M  V30 232 C 24.5976 -2.31648 -0.21023 0
M  V30 233 C 25.5916 -1.42663 -0.913432 0
M  V30 234 O 26.7976 -1.5945 -0.835201 0
M  V30 235 H 23.1726 -0.746989 -0.0866676 0
M  V30 236 H 25.1436 -2.93869 0.518051 0
M  V30 237 C 23.8926 -3.25226 -1.22976 0
M  V30 238 H 23.2156 -3.93658 -0.698077 0
M  V30 239 H 24.6556 -3.86889 -1.73473 0
M  V30 240 C 23.1146 -2.48448 -2.27542 0
M  V30 241 O 23.6446 -2.22585 -3.34393 0
M  V30 242 N 21.8506 -2.09532 -2.01357 0
M  V30 243 H 21.3976 -2.30765 -1.14478 0
M  V30 244 H 21.3556 -1.58476 -2.71538 0
M  V30 245 N 25.1277 -0.289203 -1.54924 0
M  V30 246 C 26.3527 0.329299 -2.04769 0
M  V30 247 C 26.7777 1.4763 -1.16564 0
M  V30 248 O 26.1357 1.80527 -0.167186 0
M  V30 249 C 26.1837 0.774438 -3.52186 0
M  V30 250 O 25.2877 1.88038 -3.67036 0
M  V30 251 H 24.6287 0.0659259 -0.660719 0
M  V30 252 H 27.1587 -0.42761 -2.00082 0
M  V30 253 H 27.1687 1.06642 -3.93816 0
M  V30 254 H 25.8437 -0.0646707 -4.1585 0
M  V30 255 H 24.4207 1.58985 -3.3731 0
M  V30 256 N 26.6058 1.57591 -0.0167156 0
M  V30 257 C 27.8518 1.91567 0.665582 0
M  V30 258 C 28.1848 0.892298 1.72487 0
M  V30 259 O 27.4598 -0.0867127 1.94307 0
M  V30 260 C 27.7428 3.36069 1.29342 0
M  V30 261 C 27.5958 4.49135 0.244541 0
M  V30 262 C 28.9148 3.803 2.21495 0
M  V30 263 H 26.0338 0.69666 0.240488 0
M  V30 264 H 28.6758 1.89866 -0.0714356 0
M  V30 265 H 26.8258 3.3765 1.92158 0
M  V30 266 H 28.4978 4.59689 -0.385228 0
M  V30 267 H 26.7408 4.3165 -0.431379 0
M  V30 268 H 27.4118 5.47242 0.723207 0
M  V30 269 H 29.8878 3.80377 1.68678 0
M  V30 270 H 28.7638 4.82127 2.62382 0
M  V30 271 H 29.0248 3.15104 3.101 0
M  V30 272 N 28.0839 -0.256276 1.55502 0
M  V30 273 C 29.3089 -1.00766 1.81276 0
M  V30 274 C 29.7339 -1.78524 0.59252 0
M  V30 275 O 29.0919 -1.75413 -0.45827 0
M  V30 276 C 29.1399 -1.92869 3.04687 0
M  V30 277 O 28.2439 -3.019 2.80945 0
M  V30 278 H 27.5849 -0.287224 0.598664 0
M  V30 279 H 30.1149 -0.280109 2.02674 0
M  V30 280 H 30.1249 -2.34511 3.33869 0
M  V30 281 H 28.7999 -1.35689 3.93143 0
M  V30 282 H 27.3769 -2.64454 2.62904 0
M  V30 283 N 29.562 -1.4872 -0.521534 0
M  V30 284 C 30.51 -1.64328 -1.64618 0
M  V30 285 C 31.504 -0.50953 -1.61555 0
M  V30 286 O 32.71 -0.688525 -1.66311 0
M  V30 287 H 29.085 -0.517805 -0.545328 0
M  V30 288 H 31.056 -2.58767 -1.48601 0
M  V30 289 C 29.805 -1.70805 -3.02855 0
M  V30 290 H 29.128 -2.5741 -3.05909 0
M  V30 291 H 30.568 -1.85766 -3.81139 0
M  V30 292 C 29.027 -0.448479 -3.33902 0
M  V30 293 O 29.557 0.434928 -3.99339 0
M  V30 294 N 27.763 -0.317616 -2.88859 0
M  V30 295 H 27.31 -1.03748 -2.35784 0
M  V30 296 H 27.268 0.524113 -3.10001 0
M  V30 297 N 31.0401 0.771051 -1.3745 0
M  V30 298 C 32.2881 1.52661 -1.32435 0
M  V30 299 C 32.6091 1.9479 0.0905024 0
M  V30 300 O 31.8791 1.66348 1.03466 0
M  V30 301 H 30.4591 0.566218 -0.487244 0
M  V30 302 H 33.1211 0.917636 -1.71946 0
M  V30 303 H 32.2171 2.42568 -1.96385 0
M  V30 304 N 32.5182 1.22032 0.997298 0
M  V30 305 C 33.7432 1.06921 1.77715 0
M  V30 306 C 34.1682 -0.376226 1.84299 0
M  V30 307 O 33.5262 -1.27165 1.29223 0
M  V30 308 C 33.5742 1.67996 3.19076 0
M  V30 309 O 32.6782 0.930653 4.01762 0
M  V30 310 H 32.0192 0.375814 0.547412 0
M  V30 311 H 34.5492 1.61737 1.25309 0
M  V30 312 H 34.5592 1.72538 3.69723 0
M  V30 313 H 33.2342 2.73182 3.13599 0
M  V30 314 H 31.8112 0.960917 3.60307 0
M  V30 315 N 33.9963 -1.19345 1.0293 0
M  V30 316 C 35.2213 -1.93538 0.745511 0
M  V30 317 C 35.6463 -1.75007 -0.689511 0
M  V30 318 O 35.0043 -1.05265 -1.47611 0
M  V30 319 C 35.0523 -3.43336 1.10239 0
M  V30 320 O 34.1563 -4.11806 0.221289 0
M  V30 321 H 33.4973 -0.604193 0.275404 0
M  V30 322 H 36.0273 -1.5141 1.37609 0
M  V30 323 H 36.0373 -3.94004 1.05947 0
M  V30 324 H 34.7123 -3.56146 2.14786 0
M  V30 325 H 33.2893 -3.715 0.322842 0
M  V30 326 N 35.4744 -0.807222 -1.35358 0
M  V30 327 C 36.4044 -0.232509 -2.3234 0
M  V30 328 C 37.3854 0.642386 -1.57504 0
M  V30 329 O 38.5704 0.572526 -1.85569 0
M  V30 330 C 35.7004 0.619238 -3.41735 0
M  V30 331 C 34.6544 -0.157215 -4.27711 0
M  V30 332 C 33.9804 0.816273 -5.28433 0
M  V30 333 C 35.2804 -1.35656 -5.04376 0
M  V30 334 H 36.9744 -1.04276 -2.80654 0
M  V30 335 H 34.5204 -0.50288 -1.34934 0
M  V30 336 H 36.4734 1.03137 -4.08584 0
M  V30 337 H 35.1974 1.46239 -2.92031 0
M  V30 338 H 33.8564 -0.550525 -3.62443 0
M  V30 339 H 33.5044 1.65494 -4.74996 0
M  V30 340 H 33.2044 0.301067 -5.86828 0
M  V30 341 H 34.7284 1.22659 -5.98153 0
M  V30 342 H 36.1424 -1.01927 -5.64166 0
M  V30 343 H 34.5394 -1.8063 -5.7227 0
M  V30 344 H 35.6094 -2.14288 -4.34981 0
M  V30 345 N 36.9525 1.47285 -0.560781 0
M  V30 346 C 37.9005 2.31756 0.197942 0
M  V30 347 C 38.8945 1.43146 0.905854 0
M  V30 348 O 40.1005 1.59891 0.826733 0
M  V30 349 H 36.4755 0.747438 0.0827049 0
M  V30 350 H 38.4465 2.9359 -0.533629 0
M  V30 351 C 37.1955 3.25874 1.21249 0
M  V30 352 H 36.5185 3.94023 0.67719 0
M  V30 353 H 37.9585 3.87803 1.71419 0
M  V30 354 C 36.4175 2.49651 2.26221 0
M  V30 355 O 36.9475 2.24355 3.33208 0
M  V30 356 N 35.1535 2.10597 2.00243 0
M  V30 357 H 34.7005 2.31369 1.13252 0
M  V30 358 H 34.6585 1.59913 2.70694 0
M  V30 359 N 38.4306 0.297415 1.54768 0
M  V30 360 C 39.6606 -0.315165 2.04182 0
M  V30 361 C 40.0686 -1.4834 1.17439 0
M  V30 362 O 39.4116 -1.82695 0.191891 0
M  V30 363 C 39.4736 -0.837583 3.49607 0
M  V30 364 C 39.1376 0.204912 4.5654 0
M  V30 365 C 40.1346 1.03214 5.09552 0
M  V30 366 C 37.8196 0.345578 5.0111 0
M  V30 367 C 39.8136 1.986 6.05671 0
M  V30 368 C 37.5006 1.30289 5.97049 0
M  V30 369 C 38.4986 2.12159 6.49213 0
M  V30 370 O 38.1866 3.06268 7.43273 0
M  V30 371 H 37.9186 -0.0729646 0.672051 0
M  V30 372 H 40.4726 0.433907 2.00765 0
M  V30 373 H 38.7026 -1.63712 3.50336 0
M  V30 374 H 40.3916 -1.36566 3.82236 0
M  V30 375 H 41.1576 0.934312 4.75916 0
M  V30 376 H 37.0366 -0.28171 4.60138 0
M  V30 377 H 40.5806 2.62542 6.46311 0
M  V30 378 H 36.4776 1.40145 6.30103 0
M  V30 379 H 37.2456 3.01205 7.61064 0
M  V30 380 N 39.9087 -1.5758 0.0250728 0
M  V30 381 C 41.1557 -1.91633 -0.654444 0
M  V30 382 C 41.4837 -0.901103 -1.72367 0
M  V30 383 O 40.7387 0.0905647 -1.9549 0
M  V30 384 C 41.0377 -3.32421 -1.31268 0
M  V30 385 C 40.7037 -4.49344 -0.374223 0
M  V30 386 C 39.3657 -4.8106 -0.115911 0
M  V30 387 C 41.7177 -5.20498 0.270432 0
M  V30 388 C 39.0457 -5.8129 0.79493 0
M  V30 389 C 41.3977 -6.21699 1.1693 0
M  V30 390 C 40.0617 -6.51859 1.43655 0
M  V30 391 H 39.3317 -0.701236 -0.239478 0
M  V30 392 H 41.9787 -1.91307 0.0859734 0
M  V30 393 H 40.2837 -3.28989 -2.12775 0
M  V30 394 H 41.9807 -3.56038 -1.84494 0
M  V30 395 H 38.5707 -4.24579 -0.58573 0
M  V30 396 H 42.7547 -4.96229 0.0839194 0
M  V30 397 H 38.0107 -6.03005 1.00973 0
M  V30 398 H 42.1847 -6.75955 1.67504 0
M  V30 399 H 39.8117 -7.2934 2.144 0
M  V30 400 N 41.3868 0.248026 -1.55636 0
M  V30 401 C 42.3348 1.32683 -1.91045 0
M  V30 402 C 43.3288 1.49883 -0.789401 0
M  V30 403 O 44.5348 1.51371 -0.974007 0
M  V30 404 H 40.9098 0.444272 -0.606734 0
M  V30 405 H 42.8808 1.00085 -2.81115 0
M  V30 406 C 41.6298 2.6755 -2.22064 0
M  V30 407 H 40.9528 2.55114 -3.07826 0
M  V30 408 H 42.3928 3.41912 -2.50743 0
M  V30 409 C 40.8518 3.20556 -1.0366 0
M  V30 410 O 41.3818 4.00695 -0.284016 0
M  V30 411 N 39.5878 2.78568 -0.82753 0
M  V30 412 H 39.1348 2.1351 -1.44123 0
M  V30 413 H 39.0928 3.14378 -0.0369803 0
M  V30 414 N 42.8649 1.48995 0.513639 0
M  V30 415 C 44.1139 1.57093 1.2651 0
M  V30 416 C 44.4269 0.257091 1.93903 0
M  V30 417 O 45.6329 0.216478 2.70636 0
M  V30 418 C 44.0889 2.77118 2.29638 0
M  V30 419 C 43.6969 4.15209 1.68241 0
M  V30 420 C 45.4409 2.94538 3.05692 0
M  V30 421 C 43.3479 5.26474 2.69406 0
M  V30 422 H 42.2779 0.584876 0.475854 0
M  V30 423 H 44.9289 1.7536 0.540487 0
M  V30 424 H 43.3109 2.52319 3.05207 0
M  V30 425 H 44.4849 4.50094 0.987505 0
M  V30 426 H 42.7999 4.03042 1.04623 0
M  V30 427 H 45.3969 3.74832 3.8132 0
M  V30 428 H 45.7399 2.04614 3.62545 0
M  V30 429 H 46.2729 3.19316 2.37238 0
M  V30 430 H 43.0119 6.18417 2.17351 0
M  V30 431 H 42.5319 4.96058 3.37175 0
M  V30 432 H 44.2109 5.55277 3.32078 0
M  V30 433 N 44.343 -0.763751 1.37857 0
M  V30 434 C 45.291 -1.89864 1.34367 0
M  V30 435 C 46.285 -1.67816 0.231143 0
M  V30 436 O 47.491 -1.75508 0.399617 0
M  V30 437 H 43.866 -0.624501 0.41893 0
M  V30 438 H 45.837 -1.89925 2.30155 0
M  V30 439 C 44.586 -3.27227 1.1755 0
M  V30 440 H 43.909 -3.44773 2.02414 0
M  V30 441 H 45.349 -4.06911 1.1916 0
M  V30 442 C 43.808 -3.36692 -0.118311 0
M  V30 443 O 44.338 -3.86374 -1.09902 0
M  V30 444 N 42.544 -2.90092 -0.171717 0
M  V30 445 H 42.091 -2.49853 0.627012 0
M  V30 446 H 42.049 -2.96806 -1.03699 0
M  V30 447 N 45.8211 -1.22559 -0.990812 0
M  V30 448 C 47.0511 -1.07623 -1.76355 0
M  V30 449 C 47.4591 0.37601 -1.85426 0
M  V30 450 O 46.8021 1.27228 -1.32509 0
M  V30 451 C 46.8641 -1.61507 -3.21179 0
M  V30 452 C 46.5281 -3.10146 -3.35646 0
M  V30 453 C 47.5251 -4.07553 -3.22796 0
M  V30 454 C 45.2101 -3.49644 -3.60631 0
M  V30 455 C 47.2041 -5.42442 -3.34716 0
M  V30 456 C 44.8911 -4.84682 -3.72192 0
M  V30 457 C 45.8891 -5.8089 -3.59243 0
M  V30 458 O 45.5771 -7.13476 -3.70415 0
M  V30 459 H 45.3091 -0.377745 -0.560611 0
M  V30 460 H 47.8631 -1.62658 -1.25425 0
M  V30 461 H 46.0931 -1.00881 -3.73309 0
M  V30 462 H 47.7821 -1.42202 -3.80175 0
M  V30 463 H 48.5481 -3.78381 -3.03403 0
M  V30 464 H 44.4271 -2.75282 -3.69785 0
M  V30 465 H 47.9711 -6.17518 -3.24526 0
M  V30 466 H 43.8681 -5.13534 -3.91092 0
M  V30 467 H 44.6361 -7.21083 -3.87275 0
M  V30 468 N 47.2992 1.18797 -1.03562 0
M  V30 469 C 48.5462 1.8865 -0.736023 0
M  V30 470 C 48.8742 1.80041 0.735889 0
M  V30 471 O 48.1292 1.19179 1.55225 0
M  V30 472 C 48.4282 3.38692 -1.14117 0
M  V30 473 C 48.0942 3.67504 -2.6125 0
M  V30 474 C 46.7562 3.75078 -3.01447 0
M  V30 475 C 49.1082 3.80293 -3.56408 0
M  V30 476 C 46.4362 3.92915 -4.35701 0
M  V30 477 C 48.7882 3.99645 -4.90374 0
M  V30 478 C 47.4522 4.05453 -5.30249 0
M  V30 479 H 46.7222 0.690321 -0.26933 0
M  V30 480 H 49.3692 1.40641 -1.29971 0
M  V30 481 H 47.6742 3.88645 -0.496202 0
M  V30 482 H 49.3712 3.91072 -0.886789 0
M  V30 483 H 45.9612 3.62223 -2.29113 0
M  V30 484 H 50.1452 3.73779 -3.26501 0
M  V30 485 H 45.4012 3.95653 -4.66121 0
M  V30 486 H 49.5752 4.08482 -5.64017 0
M  V30 487 H 47.2022 4.19027 -6.34288 0
M  V30 488 N 48.7773 0.814389 1.34928 0
M  V30 489 C 49.7243 0.22822 2.29669 0
M  V30 490 C 50.6943 -0.642164 1.53184 0
M  V30 491 O 51.8793 -0.585605 1.81591 0
M  V30 492 C 49.0193 -0.61089 3.3965 0
M  V30 493 C 48.1323 0.280792 4.31086 0
M  V30 494 C 47.2673 -0.567067 5.28165 0
M  V30 495 C 46.3063 0.324531 6.11239 0
M  V30 496 N 45.4433 -0.483756 7.00431 0
M  V30 497 H 50.2833 1.04153 2.79206 0
M  V30 498 H 47.8203 0.525133 1.37407 0
M  V30 499 H 49.7783 -1.11263 4.0209 0
M  V30 500 H 48.4083 -1.38939 2.91369 0
M  V30 501 H 47.4603 0.900688 3.69583 0
M  V30 502 H 48.7723 0.966723 4.89342 0
M  V30 503 H 47.9263 -1.13363 5.96015 0
M  V30 504 H 46.6653 -1.28654 4.70425 0
M  V30 505 H 45.6703 0.903298 5.42329 0
M  V30 506 H 46.8953 1.04198 6.71059 0
M  V30 507 H 44.8413 -1.18706 6.45171 0
M  V30 508 H 44.7583 0.143965 7.55863 0
M  V30 509 H 46.0263 -1.03334 7.7262 0
M  V30 510 N 50.2554 -1.46986 0.568584 0
M  V30 511 C 51.5324 -1.95592 -0.0174074 0
M  V30 512 C 51.9124 -1.51124 -1.47393 0
M  V30 513 O 51.2604 -0.755329 -2.15655 0
M  V30 514 C 51.4704 -3.48719 0.139913 0
M  V30 515 C 52.8184 -4.246 0.000426376 0
M  V30 516 O 53.8424 -3.56135 0.0680316 0
M  V30 517 O 52.7014 -5.46302 -0.146988 0
M  V30 518 H 49.7954 -0.82498 -0.0577599 0
M  V30 519 H 52.3414 -1.57335 0.635909 0
M  V30 520 H 51.1134 -3.73927 1.15301 0
M  V30 521 H 50.7364 -3.93771 -0.550491 0
M  V30 522 N 51.7335 -0.305618 -1.54608 0
M  V30 523 C 52.6965 0.555591 -2.22364 0
M  V30 524 C 53.6965 1.05768 -1.21119 0
M  V30 525 O 54.8865 0.952972 -1.45822 0
M  V30 526 C 52.0185 1.76974 -2.91364 0
M  V30 527 H 53.2115 -0.0364572 -2.99878 0
M  V30 528 H 50.7645 -0.0565007 -1.56198 0
M  V30 529 H 51.4995 2.40151 -2.17941 0
M  V30 530 H 51.2845 1.41732 -3.65588 0
M  V30 531 H 52.7745 2.38148 -3.43038 0
M  V30 532 N 53.2116 1.57565 -0.0334293 0
M  V30 533 C 54.1746 2.09393 0.932048 0
M  V30 534 C 55.1746 1.00986 1.25134 0
M  V30 535 O 56.3646 1.27129 1.19096 0
M  V30 536 C 53.4966 2.56338 2.2473 0
M  V30 537 H 54.6896 2.95984 0.483085 0
M  V30 538 H 52.2426 1.54819 0.21468 0
M  V30 539 H 52.9776 1.7309 2.74245 0
M  V30 540 H 52.7626 3.35542 2.02865 0
M  V30 541 H 54.2526 2.96646 2.93923 0
M  V30 542 N 54.6897 -0.239769 1.55765 0
M  V30 543 C 55.9147 -0.988373 1.82335 0
M  V30 544 C 56.3397 -1.77886 0.611421 0
M  V30 545 O 55.6977 -1.75889 -0.439639 0
M  V30 546 C 55.7457 -1.89627 3.06715 0
M  V30 547 O 54.8497 -2.98904 2.84131 0
M  V30 548 H 54.1907 -0.280858 0.601677 0
M  V30 549 H 56.7207 -0.258597 2.02959 0
M  V30 550 H 56.7307 -2.30957 3.36338 0
M  V30 551 H 55.4057 -1.31511 3.9456 0
M  V30 552 H 53.9827 -2.61651 2.65694 0
M  V30 553 N 56.1678 -1.49265 -0.50573 0
M  V30 554 C 57.1158 -1.66065 -1.62866 0
M  V30 555 C 58.1098 -0.526636 -1.61006 0
M  V30 556 O 59.3158 -0.706126 -1.65571 0
M  V30 557 H 55.6908 -0.52356 -0.539805 0
M  V30 558 H 57.6618 -2.60329 -1.45848 0
M  V30 559 C 56.4108 -1.74008 -3.01026 0
M  V30 560 H 55.7338 -2.6064 -3.03161 0
M  V30 561 H 57.1738 -1.89798 -3.79147 0
M  V30 562 C 55.6328 -0.483868 -3.33407 0
M  V30 563 O 56.1628 0.392548 -3.99777 0
M  V30 564 N 54.3688 -0.348236 -2.88506 0
M  V30 565 H 53.9158 -1.06242 -2.34671 0
M  V30 566 H 53.8738 0.491204 -3.10539 0
M  V30 567 N 57.6459 0.756429 -1.3826 0
M  V30 568 C 58.8939 1.51248 -1.34047 0
M  V30 569 C 59.2149 1.94875 0.0698372 0
M  V30 570 O 58.4849 1.67436 1.01696 0
M  V30 571 H 57.0649 0.561018 -0.493222 0
M  V30 572 H 59.7269 0.899347 -1.7291 0
M  V30 573 H 58.8229 2.40472 -1.98947 0
M  V30 574 N 59.124 1.23083 0.984299 0
M  V30 575 C 60.087 1.00979 2.05757 0
M  V30 576 C 61.087 -0.0269573 1.60777 0
M  V30 577 O 62.277 0.212403 1.729 0
M  V30 578 C 59.409 0.527072 3.36801 0
M  V30 579 H 60.602 1.9622 2.26799 0
M  V30 580 H 58.155 1.05072 1.15714 0
M  V30 581 H 58.89 -0.429294 3.21446 0
M  V30 582 H 58.675 1.27515 3.70786 0
M  V30 583 H 60.165 0.392942 4.15747 0
M  V30 584 N 60.6021 -1.18246 1.0419 0
M  V30 585 C 61.8271 -1.92736 0.765996 0
M  V30 586 C 62.2521 -1.75728 -0.67091 0
M  V30 587 O 61.6101 -1.06825 -1.46486 0
M  V30 588 C 61.6581 -3.42148 1.13875 0
M  V30 589 O 60.7621 -4.11548 0.264954 0
M  V30 590 H 60.1031 -0.601238 0.281797 0
M  V30 591 H 62.6331 -1.49942 1.39207 0
M  V30 592 H 62.6431 -3.92858 1.1012 0
M  V30 593 H 61.3181 -3.53848 2.18551 0
M  V30 594 H 59.8951 -3.71137 0.362226 0
M  V30 595 N 62.0802 -0.821533 -1.34494 0
M  V30 596 C 63.0272 -0.240397 -2.29545 0
M  V30 597 C 63.9972 0.634031 -1.53523 0
M  V30 598 O 65.1822 0.575966 -1.81899 0
M  V30 599 C 62.3222 0.592869 -3.39969 0
M  V30 600 C 61.4352 -0.30365 -4.30932 0
M  V30 601 C 60.5702 0.539049 -5.28458 0
M  V30 602 C 59.6092 -0.356942 -6.11058 0
M  V30 603 N 58.7462 0.446603 -7.00678 0
M  V30 604 H 63.5862 -1.05632 -2.7865 0
M  V30 605 H 61.1232 -0.532413 -1.37127 0
M  V30 606 H 63.0812 1.09129 -4.02675 0
M  V30 607 H 61.7112 1.37392 -2.92102 0
M  V30 608 H 60.7632 -0.920276 -3.691 0
M  V30 609 H 62.0752 -0.992661 -4.88823 0
M  V30 610 H 61.2292 1.102 -5.96608 0
M  V30 611 H 59.9682 1.26157 -4.71101 0
M  V30 612 H 58.9732 -0.932047 -5.41842 0
M  V30 613 H 60.1982 -1.07755 -6.70497 0
M  V30 614 H 58.1442 1.15282 -6.45791 0
M  V30 615 H 58.0612 -0.184048 -7.55776 0
M  V30 616 H 59.3292 0.992352 -7.73158 0
M  V30 617 N 63.5583 1.46682 -0.576371 0
M  V30 618 C 64.4883 2.33028 0.148397 0
M  V30 619 C 65.4693 1.44961 0.889956 0
M  V30 620 O 66.6543 1.73789 0.866662 0
M  V30 621 C 63.7843 3.27117 1.1667 0
M  V30 622 C 62.7383 4.24575 0.540386 0
M  V30 623 C 62.0643 5.08126 1.6647 0
M  V30 624 C 63.3643 5.19722 -0.518331 0
M  V30 625 H 65.0583 2.93875 -0.572509 0
M  V30 626 H 62.6043 1.41315 -0.276768 0
M  V30 627 H 64.5573 3.86374 1.68204 0
M  V30 628 H 63.2813 2.64364 1.9178 0
M  V30 629 H 61.9403 3.66571 0.0461769 0
M  V30 630 H 61.5883 4.41762 2.40531 0
M  V30 631 H 61.2883 5.74122 1.25131 0
M  V30 632 H 62.8123 5.70246 2.18293 0
M  V30 633 H 64.2263 5.73232 -0.0883058 0
M  V30 634 H 62.6233 5.94026 -0.851679 0
M  V30 635 H 63.6933 4.64037 -1.40703 0
M  V30 636 N 65.0364 0.313813 1.54444 0
M  V30 637 C 65.9464 -0.565714 2.27677 0
M  V30 638 C 66.9624 -1.13754 1.31666 0
M  V30 639 O 68.1384 -1.15959 1.64668 0
M  V30 640 C 65.2034 -1.71528 3.01296 0
M  V30 641 C 64.2644 -1.17624 4.12872 0
M  V30 642 C 63.4974 -2.27102 4.8297 0
M  V30 643 O 63.7204 -3.47256 4.52514 0
M  V30 644 O 62.6544 -1.9307 5.70094 0
M  V30 645 H 66.4804 0.0287296 3.03686 0
M  V30 646 H 64.0654 0.0798312 1.49187 0
M  V30 647 H 65.9474 -2.38476 3.4743 0
M  V30 648 H 64.6224 -2.29608 2.2817 0
M  V30 649 H 63.5294 -0.472124 3.71109 0
M  V30 650 H 64.8624 -0.640695 4.88012 0
M  V30 651 N 66.5145 -1.57545 0.0417849 0
M  V30 652 C 67.7615 -1.92317 -0.634082 0
M  V30 653 C 68.0895 -0.919334 -1.71402 0
M  V30 654 O 67.3445 0.0698253 -1.95575 0
M  V30 655 C 67.6435 -3.33794 -1.27735 0
M  V30 656 C 67.3095 -4.49716 -0.326543 0
M  V30 657 C 65.9715 -4.81156 -0.0648814 0
M  V30 658 C 68.3235 -5.20182 0.325623 0
M  V30 659 C 65.6515 -5.80414 0.856539 0
M  V30 660 C 68.0035 -6.20424 1.23518 0
M  V30 661 C 66.6675 -6.50298 1.5056 0
M  V30 662 H 65.9375 -0.703736 -0.232027 0
M  V30 663 H 68.5845 -1.91205 0.106259 0
M  V30 664 H 66.8895 -3.31228 -2.09274 0
M  V30 665 H 68.5865 -3.57975 -1.80707 0
M  V30 666 H 65.1765 -4.25176 -0.540665 0
M  V30 667 H 69.3605 -4.96112 0.136546 0
M  V30 668 H 64.6165 -6.019 1.07363 0
M  V30 669 H 68.7905 -6.74141 1.74664 0
M  V30 670 H 66.4175 -7.27025 2.22123 0
M  V30 671 N 67.9926 0.231505 -1.5589 0
M  V30 672 C 69.2206 0.974505 -1.82513 0
M  V30 673 C 69.6356 1.78344 -0.619591 0
M  V30 674 O 68.9926 1.77792 0.411848 0
M  V30 675 C 69.0436 1.90007 -3.07538 0
M  V30 676 O 68.7646 1.12385 -4.2344 0
M  V30 677 C 70.2656 2.75779 -3.47075 0
M  V30 678 H 67.4856 0.286065 -0.606966 0
M  V30 679 H 70.0296 0.249739 -2.02969 0
M  V30 680 H 68.1846 2.57891 -2.89086 0
M  V30 681 H 68.5986 1.75125 -4.944 0
M  V30 682 H 70.0726 3.36443 -4.37619 0
M  V30 683 H 70.5496 3.47672 -2.68367 0
M  V30 684 H 71.1556 2.13323 -3.67931 0
M  V30 685 N 69.4707 1.49531 0.497807 0
M  V30 686 C 70.4027 1.62559 1.61578 0
M  V30 687 C 71.4157 0.508134 1.54667 0
M  V30 688 O 72.6047 0.780309 1.60541 0
M  V30 689 C 69.7047 1.56925 3.00379 0
M  V30 690 C 68.8777 2.84257 3.3244 0
M  V30 691 C 67.9367 2.71632 4.50669 0
M  V30 692 O 66.9627 3.4557 4.52294 0
M  V30 693 N 68.1647 1.83391 5.5077 0
M  V30 694 H 70.9297 2.58981 1.50828 0
M  V30 695 H 68.4907 1.4666 0.685743 0
M  V30 696 H 70.4827 1.46129 3.77397 0
M  V30 697 H 69.0527 0.683483 3.05037 0
M  V30 698 H 68.2727 3.09381 2.44289 0
M  V30 699 H 69.5607 3.68666 3.5066 0
M  V30 700 H 68.9587 1.22583 5.52259 0
M  V30 701 H 67.5157 1.78515 6.26878 0
M  V30 702 N 70.9488 -0.749086 1.3866 0
M  V30 703 C 72.2258 -1.4992 1.25632 0
M  V30 704 C 72.6058 -2.10633 -0.140317 0
M  V30 705 O 71.9538 -1.97437 -1.15025 0
M  V30 706 C 72.1638 -2.56195 2.36992 0
M  V30 707 C 73.5118 -3.22972 2.75634 0
M  V30 708 O 74.5358 -2.66502 2.36337 0
M  V30 709 O 73.3948 -4.25122 3.43415 0
M  V30 710 H 70.4888 -0.665067 0.491544 0
M  V30 711 H 73.0348 -0.784113 1.50498 0
M  V30 712 H 71.8068 -2.09612 3.30422 0
M  V30 713 H 71.4298 -3.35279 2.13714 0
M  V30 714 N 72.4269 -1.23603 -0.977757 0
M  V30 715 C 73.8379 -1.06424 -1.53398 0
M  V30 716 C 74.1889 0.367578 -1.92726 0
M  V30 717 O 73.3139 1.25465 -1.76316 0
M  V30 718 C 73.9089 -1.92568 -2.78753 0
M  V30 719 C 72.4679 -1.79642 -3.30765 0
M  V30 720 C 71.6149 -1.88111 -2.03739 0
M  V30 721 H 74.5659 -1.37227 -0.797152 0
M  V30 722 H 74.5869 -1.45203 -3.51705 0
M  V30 723 H 74.0989 -2.96771 -2.50098 0
M  V30 724 H 72.1999 -0.782325 -3.64294 0
M  V30 725 H 72.3129 -2.63174 -4.00345 0
M  V30 726 H 70.6769 -1.31723 -2.17994 0
M  V30 727 H 71.4599 -2.93875 -1.77461 0
M  V30 728 N 73.905 1.17692 -1.04816 0
M  V30 729 C 75.13 1.92327 -0.776207 0
M  V30 730 C 75.555 1.76082 0.661581 0
M  V30 731 O 74.913 1.076 1.45917 0
M  V30 732 C 74.961 3.41539 -1.15687 0
M  V30 733 O 74.065 4.11402 -0.286775 0
M  V30 734 H 73.406 0.599735 -0.284981 0
M  V30 735 H 75.936 1.49201 -1.4 0
M  V30 736 H 75.946 3.92269 -1.12202 0
M  V30 737 H 74.621 3.52684 -2.20425 0
M  V30 738 H 73.198 3.70939 -0.381903 0
M  V30 739 N 75.3831 0.828654 1.34056 0
M  V30 740 C 76.3301 0.252567 2.29414 0
M  V30 741 C 77.3001 -0.62588 1.53857 0
M  V30 742 O 78.4851 -0.566312 1.82202 0
M  V30 743 C 75.6251 -0.574831 3.40279 0
M  V30 744 C 74.7381 0.326499 4.30764 0
M  V30 745 C 73.8731 -0.511016 5.28736 0
M  V30 746 C 72.9121 0.389342 6.1086 0
M  V30 747 N 72.0491 -0.409439 7.00905 0
M  V30 748 H 76.8891 1.07108 2.78086 0
M  V30 749 H 74.4261 0.539677 1.36843 0
M  V30 750 H 76.3841 -1.06992 4.03248 0
M  V30 751 H 75.0141 -1.35841 2.92826 0
M  V30 752 H 74.0661 0.939837 3.68607 0
M  V30 753 H 75.3781 1.01857 4.88289 0
M  V30 754 H 74.5321 -1.07035 5.97184 0
M  V30 755 H 73.2711 -1.23657 4.71763 0
M  V30 756 H 72.2761 0.960769 5.4134 0
M  V30 757 H 73.5011 1.1131 6.69916 0
M  V30 758 H 71.4471 -1.11856 6.46393 0
M  V30 759 H 71.3641 0.224126 7.55668 0
M  V30 760 H 72.6321 -0.951336 7.73673 0
M  V30 761 N 76.8612 -1.46375 0.584142 0
M  V30 762 C 78.1082 -2.02378 0.0702675 0
M  V30 763 C 78.4362 -1.45545 -1.29023 0
M  V30 764 O 77.6912 -0.610967 -1.85918 0
M  V30 765 C 77.9902 -3.57373 -0.0439342 0
M  V30 766 C 77.6562 -4.33252 1.24915 0
M  V30 767 C 76.3182 -4.53701 1.60341 0
M  V30 768 C 78.6702 -4.7681 2.1048 0
M  V30 769 C 75.9982 -5.1496 2.81128 0
M  V30 770 C 78.3502 -5.39404 3.30494 0
M  V30 771 C 77.0142 -5.5808 3.66201 0
M  V30 772 H 76.2842 -0.740554 0.0257127 0
M  V30 773 H 78.9312 -1.75727 0.761065 0
M  V30 774 H 77.2362 -3.83169 -0.817869 0
M  V30 775 H 78.9332 -3.98384 -0.457318 0
M  V30 776 H 75.5232 -4.17633 0.963364 0
M  V30 777 H 79.7072 -4.60766 1.84414 0
M  V30 778 H 74.9632 -5.27611 3.08928 0
M  V30 779 H 79.1372 -5.72114 3.97063 0
M  V30 780 H 76.7642 -6.05318 4.59885 0
M  V30 781 N 78.3393 -0.321999 -1.54275 0
M  V30 782 C 79.5673 0.283052 -2.04955 0
M  V30 783 C 79.9823 1.45904 -1.19823 0
M  V30 784 O 79.3393 1.81063 -0.228545 0
M  V30 785 C 79.3903 0.719028 -3.54277 0
M  V30 786 O 79.1113 -0.410175 -4.36176 0
M  V30 787 C 80.6123 1.38705 -4.21041 0
M  V30 788 H 77.8323 0.0584616 -0.668448 0
M  V30 789 H 80.3763 -0.467734 -1.99079 0
M  V30 790 H 78.5313 1.41979 -3.60445 0
M  V30 791 H 78.9453 -0.0669416 -5.24457 0
M  V30 792 H 80.4193 1.64306 -5.2698 0
M  V30 793 H 80.8963 2.33385 -3.72059 0
M  V30 794 H 81.5023 0.728906 -4.19007 0
M  V30 795 N 79.8174 1.5752 -0.0501392 0
M  V30 796 C 81.0944 1.83996 0.663685 0
M  V30 797 C 81.4744 0.938339 1.89099 0
M  V30 798 O 80.8224 -0.00087759 2.285 0
M  V30 799 C 81.0324 3.33702 1.02196 0
M  V30 800 C 82.3804 4.00691 1.40469 0
M  V30 801 O 83.4044 3.38321 1.11433 0
M  V30 802 O 82.2634 5.10658 1.94654 0
M  V30 803 H 79.3574 0.759385 0.32751 0
M  V30 804 H 81.9034 1.69514 -0.0794238 0
M  V30 805 H 80.6754 3.91015 0.149364 0
M  V30 806 H 80.2984 3.53368 1.82255 0
M  V30 807 N 81.2955 -0.223234 1.56011 0
M  V30 808 C 82.7065 -0.790368 1.69145 0
M  V30 809 C 83.0575 -1.85055 0.651845 0
M  V30 810 O 82.1825 -2.15498 -0.197359 0
M  V30 811 C 82.7775 -1.4404 3.06656 0
M  V30 812 C 81.3365 -1.95494 3.2165 0
M  V30 813 C 80.4835 -0.814506 2.65068 0
M  V30 814 H 83.4345 0.00139011 1.587 0
M  V30 815 H 83.4555 -2.30916 3.0242 0
M  V30 816 H 82.9675 -0.668543 3.82298 0
M  V30 817 H 81.0685 -2.75487 2.50874 0
M  V30 818 H 81.1815 -2.13607 4.28846 0
M  V30 819 H 79.5455 -1.22137 2.23505 0
M  V30 820 H 80.3285 -0.0553515 3.43255 0
M  V30 821 N 82.7736 -1.49793 -0.48987 0
M  V30 822 C 84.0196 -1.60078 -1.24511 0
M  V30 823 C 84.3526 -0.291608 -1.91998 0
M  V30 824 O 83.6276 0.705647 -1.81248 0
M  V30 825 C 83.9106 -2.76791 -2.30345 0
M  V30 826 C 83.7636 -4.17535 -1.67286 0
M  V30 827 C 85.0826 -2.89111 -3.31817 0
M  V30 828 H 82.2016 -0.582645 -0.451324 0
M  V30 829 H 84.8436 -1.82117 -0.541612 0
M  V30 830 H 82.9936 -2.5813 -2.90346 0
M  V30 831 H 84.6656 -4.4774 -1.11026 0
M  V30 832 H 82.9086 -4.22665 -0.976577 0
M  V30 833 H 83.5796 -4.95094 -2.44103 0
M  V30 834 H 86.0556 -3.06133 -2.81819 0
M  V30 835 H 84.9316 -3.72433 -4.03219 0
M  V30 836 H 85.1926 -1.9893 -3.94815 0
M  V30 837 N 84.2517 0.741722 -1.39055 0
M  V30 838 C 85.1987 1.85566 -1.37237 0
M  V30 839 C 86.1687 1.64457 -0.233072 0
M  V30 840 O 87.3537 1.85957 -0.427147 0
M  V30 841 C 84.4937 3.23004 -1.215 0
M  V30 842 C 83.6067 3.55864 -2.44918 0
M  V30 843 C 82.7417 4.82669 -2.21821 0
M  V30 844 C 81.7807 5.08351 -3.40948 0
M  V30 845 N 80.9177 6.26356 -3.17211 0
M  V30 846 H 85.7577 1.86455 -2.32462 0
M  V30 847 H 83.2947 0.911176 -1.15482 0
M  V30 848 H 85.2527 4.02331 -1.10389 0
M  V30 849 H 83.8827 3.21411 -0.29908 0
M  V30 850 H 82.9347 2.7129 -2.66657 0
M  V30 851 H 84.2467 3.70765 -3.33668 0
M  V30 852 H 83.4007 5.69962 -2.07914 0
M  V30 853 H 82.1397 4.69929 -1.30454 0
M  V30 854 H 81.1447 4.19522 -3.55361 0
M  V30 855 H 82.3697 5.22981 -4.33207 0
M  V30 856 H 80.3157 6.14917 -2.28502 0
M  V30 857 H 80.2327 6.41813 -3.99515 0
M  V30 858 H 81.5007 7.16506 -3.06984 0
M  V30 859 N 85.7298 1.2412 0.971189 0
M  V30 860 C 87.0068 0.986867 1.6888 0
M  V30 861 C 87.3868 -0.491857 2.0529 0
M  V30 862 O 86.7348 -1.46531 1.75331 0
M  V30 863 C 86.9448 1.9063 2.92338 0
M  V30 864 C 88.2928 2.17515 3.64654 0
M  V30 865 O 89.3168 1.88254 3.02388 0
M  V30 866 O 88.1758 2.6719 4.7673 0
M  V30 867 H 85.2698 0.372944 0.738134 0
M  V30 868 H 87.8158 1.35203 1.02559 0
M  V30 869 H 86.5878 2.90552 2.62097 0
M  V30 870 H 86.2108 1.54408 3.66393 0
M  V30 871 N 87.2079 -1.17134 1.05439 0
M  V30 872 C 88.4539 -1.87733 0.767077 0
M  V30 873 C 88.7869 -1.8098 -0.704253 0
M  V30 874 O 88.0619 -1.21951 -1.5152 0
M  V30 875 C 88.3449 -3.37659 1.25133 0
M  V30 876 C 88.1979 -3.53149 2.78578 0
M  V30 877 C 89.5169 -4.31768 0.852324 0
M  V30 878 H 86.6359 -0.681687 0.280129 0
M  V30 879 H 89.2779 -1.37732 1.30881 0
M  V30 880 H 87.4279 -3.80373 0.790469 0
M  V30 881 H 89.0999 -3.19434 3.32806 0
M  V30 882 H 87.3429 -2.95345 3.17732 0
M  V30 883 H 88.0139 -4.58403 3.07523 0
M  V30 884 H 90.4899 -3.96909 1.24911 0
M  V30 885 H 89.3659 -5.35199 1.21873 0
M  V30 886 H 89.6269 -4.41429 -0.243485 0
M  V30 887 N 88.686 -0.835752 -1.33615 0
M  V30 888 C 89.616 -0.281739 -2.31794 0
M  V30 889 C 90.597 0.608833 -1.58831 0
M  V30 890 O 91.782 0.533035 -1.86741 0
M  V30 891 C 88.912 0.546612 -3.42971 0
M  V30 892 C 87.866 -0.247904 -4.27281 0
M  V30 893 C 87.192 0.704001 -5.30045 0
M  V30 894 C 88.492 -1.46324 -5.01385 0
M  V30 895 H 90.186 -1.10206 -2.78379 0
M  V30 896 H 87.732 -0.531388 -1.33837 0
M  V30 897 H 89.685 0.944467 -4.1068 0
M  V30 898 H 88.409 1.40011 -2.95067 0
M  V30 899 H 87.068 -0.627281 -3.61194 0
M  V30 900 H 86.716 1.55381 -4.78399 0
M  V30 901 H 86.416 0.176524 -5.87335 0
M  V30 902 H 87.94 1.09944 -6.0062 0
M  V30 903 H 89.354 -1.13871 -5.61877 0
M  V30 904 H 87.751 -1.92728 -5.6831 0
M  V30 905 H 88.821 -2.23467 -4.30338 0
M  V30 906 N 90.1641 1.46063 -0.591896 0
M  V30 907 C 91.0741 2.34192 0.13831 0
M  V30 908 C 92.0901 1.50305 0.876608 0
M  V30 909 O 93.2661 1.8315 0.837728 0
M  V30 910 C 90.3311 3.27656 1.13326 0
M  V30 911 C 89.3921 4.27445 0.39863 0
M  V30 912 C 88.6251 5.16443 1.34618 0
M  V30 913 O 88.8481 5.08553 2.58321 0
M  V30 914 O 87.7821 5.95843 0.851768 0
M  V30 915 H 91.6081 2.98002 -0.58552 0
M  V30 916 H 89.1931 1.45188 -0.352239 0
M  V30 917 H 91.0751 3.85291 1.70671 0
M  V30 918 H 89.7501 2.6643 1.83839 0
M  V30 919 H 88.6571 3.73471 -0.216895 0
M  V30 920 H 89.9901 4.91482 -0.265709 0
M  V30 921 N 91.6422 0.330177 1.54103 0
M  V30 922 C 92.5892 -0.532762 2.24567 0
M  V30 923 C 93.5592 -1.10635 1.23892 0
M  V30 924 O 94.7442 -1.14546 1.5259 0
M  V30 925 C 91.8842 -1.6845 3.01195 0
M  V30 926 C 90.9972 -1.13951 4.167 0
M  V30 927 C 90.1322 -2.25746 4.80845 0
M  V30 928 C 89.1712 -1.6853 5.88442 0
M  V30 929 N 88.3082 -2.74014 6.46421 0
M  V30 930 H 93.1482 0.0746905 2.97906 0
M  V30 931 H 90.6852 0.048632 1.4702 0
M  V30 932 H 92.6432 -2.36234 3.43874 0
M  V30 933 H 91.2732 -2.26314 2.30178 0
M  V30 934 H 90.3252 -0.35301 3.78758 0
M  V30 935 H 91.6372 -0.680892 4.94131 0
M  V30 936 H 90.7912 -3.01422 5.26526 0
M  V30 937 H 89.5302 -2.74947 4.0281 0
M  V30 938 H 88.5352 -0.913543 5.42157 0
M  V30 939 H 89.7602 -1.20198 6.68378 0
M  V30 940 H 87.7062 -3.22494 5.71256 0
M  V30 941 H 87.6232 -2.32735 7.19285 0
M  V30 942 H 88.8912 -3.49499 6.96757 0
M  V30 943 N 93.1203 -1.57491 0.0584922 0
M  V30 944 C 94.3683 -1.92597 -0.612436 0
M  V30 945 C 94.6893 -0.938162 -1.70949 0
M  V30 946 O 93.9593 0.0158301 -1.95894 0
M  V30 947 H 92.5393 -0.710964 -0.229214 0
M  V30 948 H 95.2013 -1.94571 0.113218 0
M  V30 949 H 94.2973 -2.94038 -1.04633 0
M  V30 950 N 94.5984 0.214957 -1.56127 0
M  V30 951 C 95.8474 0.936451 -1.78643 0
M  V30 952 C 96.1604 1.85237 -0.628229 0
M  V30 953 O 97.3664 2.613 -0.737186 0
M  V30 954 C 95.8224 1.7154 -3.16389 0
M  V30 955 C 95.4304 0.845299 -4.39953 0
M  V30 956 C 97.1744 2.42772 -3.48227 0
M  V30 957 C 95.0814 1.62198 -5.68723 0
M  V30 958 H 94.0114 0.353401 -0.666051 0
M  V30 959 H 96.6624 0.190169 -1.82512 0
M  V30 960 H 95.0444 2.50484 -3.06715 0
M  V30 961 H 96.2184 0.0959353 -4.607 0
M  V30 962 H 94.5334 0.244789 -4.1568 0
M  V30 963 H 97.1304 3.01394 -4.41663 0
M  V30 964 H 97.4734 3.15984 -2.71035 0
M  V30 965 H 98.0064 1.70813 -3.5926 0
M  V30 966 H 94.7454 0.933011 -6.48826 0
M  V30 967 H 94.2654 2.34579 -5.52026 0
M  V30 968 H 95.9444 2.18095 -6.09133 0
M  V30 969 N 96.0765 1.50051 0.48192 0
M  V30 970 C 97.4875 1.5348 1.06305 0
M  V30 971 C 97.8385 0.331997 1.93371 0
M  V30 972 O 96.9635 -0.556256 2.09129 0
M  V30 973 C 97.5585 2.7813 1.93466 0
M  V30 974 C 96.1175 2.84275 2.46707 0
M  V30 975 C 95.2645 2.47637 1.24785 0
M  V30 976 H 98.2155 1.56472 0.264995 0
M  V30 977 H 98.2365 2.59372 2.78399 0
M  V30 978 H 97.7485 3.65654 1.30072 0
M  V30 979 H 95.8495 2.01077 3.13686 0
M  V30 980 H 95.9625 3.8691 2.82555 0
M  V30 981 H 94.3265 1.99835 1.57918 0
M  V30 982 H 95.1095 3.37457 0.630694 0
M  V30 983 N 97.5546 -0.734337 1.39446 0
M  V30 984 C 98.7826 -1.52358 1.39981 0
M  V30 985 C 99.1976 -1.88799 -0.0054975 0
M  V30 986 O 98.5546 -1.54146 -0.976998 0
M  V30 987 C 98.6056 -2.81072 2.27333 0
M  V30 988 O 98.3266 -2.46178 3.62392 0
M  V30 989 C 99.8276 -3.75096 2.36259 0
M  V30 990 H 97.0476 -0.470806 0.478103 0
M  V30 991 H 99.5916 -0.907339 1.83269 0
M  V30 992 H 97.7466 -3.39026 1.87457 0
M  V30 993 H 98.1606 -3.28866 4.08592 0
M  V30 994 H 99.6346 -4.62305 3.01626 0
M  V30 995 H 100.112 -4.16892 1.38194 0
M  V30 996 H 100.718 -3.23061 2.76608 0
M  V30 997 N 99.0327 -1.24633 -0.964593 0
M  V30 998 C 99.9627 -1.06611 -2.07741 0
M  V30 999 C 100.944 0.0218666 -1.70086 0
M  V30 1000 O 102.129 -0.145793 -1.93652 0
M  V30 1001 C 99.2587 -0.673444 -3.40708 0
M  V30 1002 C 98.2127 -1.71054 -3.92332 0
M  V30 1003 C 97.5387 -1.17285 -5.21678 0
M  V30 1004 C 98.8387 -3.10718 -4.19824 0
M  V30 1005 H 100.533 -1.99693 -2.23076 0
M  V30 1006 H 98.0787 -0.96152 -1.07195 0
M  V30 1007 H 100.032 -0.534345 -4.17998 0
M  V30 1008 H 98.7557 0.293073 -3.25282 0
M  V30 1009 H 97.4147 -1.83791 -3.17201 0
M  V30 1010 H 97.0627 -0.196847 -5.02615 0
M  V30 1011 H 96.7627 -1.86592 -5.57187 0
M  V30 1012 H 98.2867 -1.04593 -6.01575 0
M  V30 1013 H 99.7007 -3.01192 -4.87808 0
M  V30 1014 H 98.0977 -3.77406 -4.66567 0
M  V30 1015 H 99.1677 -3.58524 -3.26479 0
M  V30 1016 N 100.511 1.16574 -1.06058 0
M  V30 1017 C 101.443 2.2045 -0.627239 0
M  V30 1018 C 102.456 1.59752 0.313534 0
M  V30 1019 O 103.645 1.78192 0.104896 0
M  V30 1020 C 100.745 3.3875 0.100974 0
M  V30 1021 C 99.9178 4.29008 -0.852687 0
M  V30 1022 C 98.9768 5.25944 -0.164152 0
M  V30 1023 O 98.0028 5.63535 -0.801047 0
M  V30 1024 N 99.2048 5.70075 1.09518 0
M  V30 1025 H 101.97 2.58249 -1.52077 0
M  V30 1026 H 99.5308 1.3156 -0.943594 0
M  V30 1027 H 101.523 4.00638 0.57194 0
M  V30 1028 H 100.093 2.99476 0.89628 0
M  V30 1029 H 99.3128 3.64419 -1.50308 0
M  V30 1030 H 100.601 4.86195 -1.49972 0
M  V30 1031 H 99.9988 5.41624 1.6328 0
M  V30 1032 H 98.5558 6.34067 1.51006 0
M  V30 1033 N 101.989 0.842826 1.3317 0
M  V30 1034 C 103.214 0.453129 2.02389 0
M  V30 1035 C 103.639 -0.939105 1.6298 0
M  V30 1036 O 102.997 -1.61472 0.8244 0
M  V30 1037 C 103.045 0.586094 3.55805 0
M  V30 1038 O 102.149 -0.386029 4.10589 0
M  V30 1039 H 101.49 0.183664 0.638094 0
M  V30 1040 H 104.02 1.13875 1.69981 0
M  V30 1041 H 104.03 0.469209 4.05293 0
M  V30 1042 H 102.705 1.6014 3.83833 0
M  V30 1043 H 101.282 -0.226371 3.72212 0
M  V30 1044 N 103.467 -1.45747 0.599634 0
M  V30 1045 C 104.878 -1.85853 0.177681 0
M  V30 1046 C 105.229 -1.50102 -1.26348 0
M  V30 1047 O 104.354 -0.923905 -1.95686 0
M  V30 1048 C 104.949 -3.37326 0.315688 0
M  V30 1049 C 103.508 -3.76365 -0.0515144 0
M  V30 1050 C 102.655 -2.69722 0.643822 0
M  V30 1051 H 105.606 -1.36661 0.806814 0
M  V30 1052 H 105.627 -3.77778 -0.454321 0
M  V30 1053 H 105.139 -3.63315 1.36468 0
M  V30 1054 H 103.24 -3.55993 -1.09999 0
M  V30 1055 H 103.353 -4.77916 0.336594 0
M  V30 1056 H 101.717 -2.54567 0.0822881 0
M  V30 1057 H 102.5 -2.98549 1.6948 0
M  V30 1058 N 104.945 -0.338344 -1.53925 0
M  V30 1059 C 106.173 0.261298 -2.05243 0
M  V30 1060 C 106.588 1.44625 -1.21363 0
M  V30 1061 O 105.945 1.80811 -0.247736 0
M  V30 1062 C 105.996 0.681412 -3.5502 0
M  V30 1063 O 105.717 -0.456414 -4.35716 0
M  V30 1064 C 107.218 1.34232 -4.22489 0
M  V30 1065 H 104.438 0.0513685 -0.669031 0
M  V30 1066 H 106.982 -0.488822 -1.98572 0
M  V30 1067 H 105.137 1.38148 -3.61931 0
M  V30 1068 H 105.551 -0.122564 -5.24357 0
M  V30 1069 H 107.025 1.58708 -5.28693 0
M  V30 1070 H 107.502 2.29426 -3.74514 0
M  V30 1071 H 108.108 0.684424 -4.19757 0
M  V30 1072 N 106.423 1.57458 -0.0668435 0
M  V30 1073 C 107.669 1.93587 0.6043 0
M  V30 1074 C 108.002 0.946722 1.69561 0
M  V30 1075 O 107.277 -0.0248516 1.94484 0
M  V30 1076 C 107.56 3.40014 1.18585 0
M  V30 1077 C 107.413 4.49685 0.101529 0
M  V30 1078 C 108.732 3.87154 2.09284 0
M  V30 1079 H 105.851 0.703958 0.218202 0
M  V30 1080 H 108.493 1.89542 -0.131804 0
M  V30 1081 H 106.643 3.43592 1.81319 0
M  V30 1082 H 108.315 4.5823 -0.531279 0
M  V30 1083 H 106.558 4.30059 -0.568487 0
M  V30 1084 H 107.229 5.49266 0.54874 0
M  V30 1085 H 109.705 3.85551 1.56491 0
M  V30 1086 H 108.581 4.90231 2.46911 0
M  V30 1087 H 108.842 3.2481 2.99918 0
M  V30 1088 N 107.901 -0.206675 1.56239 0
M  V30 1089 C 108.811 -1.27686 1.96808 0
M  V30 1090 C 109.827 -1.50455 0.874035 0
M  V30 1091 O 111.003 -1.63295 1.17884 0
M  V30 1092 C 108.068 -2.60358 2.28942 0
M  V30 1093 C 107.129 -2.45762 3.51994 0
M  V30 1094 C 106.362 -3.72108 3.82585 0
M  V30 1095 O 106.585 -4.75776 3.14631 0
M  V30 1096 O 105.519 -3.6833 4.76043 0
M  V30 1097 H 109.345 -0.962593 2.88041 0
M  V30 1098 H 106.93 -0.410746 1.43643 0
M  V30 1099 H 108.812 -3.38687 2.50737 0
M  V30 1100 H 107.487 -2.91435 1.4088 0
M  V30 1101 H 106.394 -1.65584 3.35459 0
M  V30 1102 H 107.727 -2.19621 4.40486 0
M  V30 1103 N 109.379 -1.50304 -0.473955 0
M  V30 1104 C 110.342 -1.6841 -1.55469 0
M  V30 1105 C 111.342 -0.554905 -1.50922 0
M  V30 1106 O 112.532 -0.821882 -1.53593 0
M  V30 1107 C 109.664 -1.70667 -2.95102 0
M  V30 1108 H 110.857 -2.64828 -1.40733 0
M  V30 1109 H 108.41 -1.39742 -0.700132 0
M  V30 1110 H 109.145 -0.75932 -3.15285 0
M  V30 1111 H 108.93 -2.52698 -2.9981 0
M  V30 1112 H 110.42 -1.8664 -3.73571 0
M  V30 1113 N 110.857 0.726932 -1.39834 0
M  V30 1114 C 112.097 1.4992 -1.38936 0
M  V30 1115 C 112.461 1.91996 0.0126883 0
M  V30 1116 O 113.662 2.68399 0.146715 0
M  V30 1117 C 111.933 2.70013 -2.34153 0
M  V30 1118 S 113.492 3.59563 -2.51515 0
M  V30 1119 H 110.31 0.51271 -0.492595 0
M  V30 1120 H 112.912 0.85107 -1.76003 0
M  V30 1121 H 111.616 2.37254 -3.34871 0
M  V30 1122 H 111.147 3.39748 -1.98331 0
M  V30 1123 H 113.162 4.63973 -1.75909 0
M  V30 1124 N 112.336 1.25143 0.95797 0
M  V30 1125 C 113.584 1.09476 1.69881 0
M  V30 1126 C 113.905 -0.365502 1.91544 0
M  V30 1127 O 113.175 -1.25985 1.50015 0
M  V30 1128 H 111.755 0.402128 0.629525 0
M  V30 1129 H 114.417 1.57214 1.15194 0
M  V30 1130 H 113.513 1.60046 2.6794 0
M  V30 1131 N 113.814 -1.1601 1.06675 0
M  V30 1132 C 115.044 -1.90251 0.805497 0
M  V30 1133 C 115.452 -1.77891 -0.64431 0
M  V30 1134 O 114.795 -1.12383 -1.45313 0
M  V30 1135 C 114.857 -3.41419 1.12576 0
M  V30 1136 C 114.521 -3.77564 2.57477 0
M  V30 1137 C 115.518 -3.79161 3.55715 0
M  V30 1138 C 113.203 -4.08079 2.92877 0
M  V30 1139 C 115.197 -4.10767 4.8739 0
M  V30 1140 C 112.884 -4.39351 4.24751 0
M  V30 1141 C 113.882 -4.40675 5.21818 0
M  V30 1142 O 113.57 -4.71202 6.51325 0
M  V30 1143 H 113.302 -0.610018 0.291297 0
M  V30 1144 H 115.856 -1.47958 1.4247 0
M  V30 1145 H 114.086 -3.84079 0.449503 0
M  V30 1146 H 115.775 -3.9694 0.84814 0
M  V30 1147 H 116.541 -3.55693 3.29708 0
M  V30 1148 H 112.42 -4.06211 2.17976 0
M  V30 1149 H 115.964 -4.11715 5.63148 0
M  V30 1150 H 111.861 -4.62285 4.50514 0
M  V30 1151 H 112.629 -4.88996 6.56373 0
M  V30 1152 N 115.292 -0.849877 -1.32721 0
M  V30 1153 C 116.517 -0.463856 -2.02146 0
M  V30 1154 C 116.942 0.930449 -1.63476 0
M  V30 1155 O 116.3 1.61033 -0.832952 0
M  V30 1156 C 116.348 -0.604955 -3.55489 0
M  V30 1157 O 115.452 0.36425 -4.10788 0
M  V30 1158 H 114.793 -0.187046 -0.637111 0
M  V30 1159 H 117.323 -1.14775 -1.69375 0
M  V30 1160 H 117.333 -0.490696 -4.05038 0
M  V30 1161 H 116.008 -1.62174 -3.82978 0
M  V30 1162 H 114.585 0.206628 -3.72327 0
M  V30 1163 N 116.77 1.45427 -0.607355 0
M  V30 1164 C 118.047 1.9557 -0.0344566 0
M  V30 1165 C 118.427 1.54979 1.43334 0
M  V30 1166 O 117.775 0.812241 2.13576 0
M  V30 1167 C 117.985 3.48226 -0.232321 0
M  V30 1168 C 119.333 4.2445 -0.113001 0
M  V30 1169 O 120.357 3.55829 -0.162431 0
M  V30 1170 O 119.216 5.465 0.00209442 0
M  V30 1171 H 116.31 0.826222 0.0358667 0
M  V30 1172 H 118.856 1.55594 -0.6774 0
M  V30 1173 H 117.628 3.70739 -1.25174 0
M  V30 1174 H 117.251 3.95092 0.445896 0
M  V30 1175 N 118.248 0.346503 1.53744 0
M  V30 1176 C 119.664 -0.00530975 1.59599 0
M  V30 1177 C 119.864 -1.48465 1.36236 0
M  V30 1178 O 118.92 -2.24376 1.15808 0
M  V30 1179 C 120.233 0.433516 2.97559 0
M  V30 1180 C 121.781 0.386111 3.10609 0
M  V30 1181 C 122.256 0.800451 4.50951 0
M  V30 1182 N 123.747 0.754753 4.5701 0
M  V30 1183 C 124.482 1.04727 5.63755 0
M  V30 1184 N 123.978 1.4081 6.7834 0
M  V30 1185 N 125.771 0.971316 5.53644 0
M  V30 1186 H 117.922 1.31009 1.67184 0
M  V30 1187 H 120.185 0.534242 0.783128 0
M  V30 1188 H 119.891 1.46509 3.19731 0
M  V30 1189 H 119.765 -0.189753 3.76722 0
M  V30 1190 H 122.152 -0.636295 2.88158 0
M  V30 1191 H 122.233 1.04462 2.33498 0
M  V30 1192 H 121.877 1.82088 4.74137 0
M  V30 1193 H 121.807 0.119386 5.26465 0
M  V30 1194 H 124.298 0.488662 3.74727 0
M  V30 1195 H 124.611 1.61607 7.55714 0
M  V30 1196 H 122.956 1.44657 6.79779 0
M  V30 1197 H 126.147 0.688748 4.63005 0
M  V30 1198 H 126.32 1.20263 6.36742 0
M  V30 1199 N 119.726 -1.57421 0.075193 0
M  V30 1200 C 120.975 -1.92794 -0.592731 0
M  V30 1201 C 121.288 -0.957478 -1.70563 0
M  V30 1202 O 122.494 -1.20417 -2.43335 0
M  V30 1203 C 120.95 -3.42495 -1.10569 0
M  V30 1204 C 120.558 -4.47994 -0.0236121 0
M  V30 1205 C 122.302 -3.86864 -1.74748 0
M  V30 1206 C 120.209 -5.88829 -0.550803 0
M  V30 1207 H 119.139 -0.719591 -0.225177 0
M  V30 1208 H 121.79 -1.82902 0.147978 0
M  V30 1209 H 120.172 -3.47471 -1.89947 0
M  V30 1210 H 121.346 -4.54637 0.751099 0
M  V30 1211 H 119.661 -4.13113 0.522159 0
M  V30 1212 H 122.258 -4.8947 -2.15229 0
M  V30 1213 H 122.601 -3.24417 -2.60882 0
M  V30 1214 H 123.134 -3.84504 -1.01986 0
M  V30 1215 H 119.873 -6.54929 0.273457 0
M  V30 1216 H 119.393 -5.85698 -1.29296 0
M  V30 1217 H 121.072 -6.38811 -1.02613 0
M  V30 1218 N 121.204 0.198386 -1.56346 0
M  V30 1219 C 122.453 0.917451 -1.79627 0
M  V30 1220 C 122.766 1.8456 -0.64784 0
M  V30 1221 O 123.972 2.60504 -0.764859 0
M  V30 1222 C 122.428 1.68175 -3.18191 0
M  V30 1223 C 122.036 0.798589 -4.40825 0
M  V30 1224 C 123.78 2.39065 -3.50782 0
M  V30 1225 C 121.687 1.56157 -5.70411 0
M  V30 1226 H 120.617 0.346317 -0.669762 0
M  V30 1227 H 123.268 0.170801 -1.82703 0
M  V30 1228 H 121.65 2.47216 -3.09354 0
M  V30 1229 H 122.824 0.0470665 -4.60776 0
M  V30 1230 H 121.139 0.200686 -4.15916 0
M  V30 1231 H 123.736 2.96692 -4.44835 0
M  V30 1232 H 124.079 3.13091 -2.74371 0
M  V30 1233 H 124.612 1.66993 -3.61052 0
M  V30 1234 H 121.351 0.864142 -6.49779 0
M  V30 1235 H 120.871 2.2871 -5.54483 0
M  V30 1236 H 122.55 2.11622 -6.11412 0
M  V30 1237 N 122.682 1.50554 0.465978 0
M  V30 1238 C 123.614 1.65949 1.58093 0
M  V30 1239 C 124.627 0.540827 1.53554 0
M  V30 1240 O 125.816 0.814187 1.5885 0
M  V30 1241 C 122.916 1.63261 2.96983 0
M  V30 1242 C 122.089 2.91245 3.26336 0
M  V30 1243 C 121.148 2.8113 4.44806 0
M  V30 1244 O 120.174 3.55086 4.44862 0
M  V30 1245 N 121.376 1.95032 5.46756 0
M  V30 1246 H 124.141 2.62122 1.45301 0
M  V30 1247 H 121.702 1.48082 0.65448 0
M  V30 1248 H 123.694 1.54101 3.74212 0
M  V30 1249 H 122.264 0.748032 3.03518 0
M  V30 1250 H 121.484 3.14493 2.37672 0
M  V30 1251 H 122.772 3.76022 3.42761 0
M  V30 1252 H 122.17 1.3427 5.49534 0
M  V30 1253 H 120.727 1.91772 6.2295 0
M  V30 1254 N 124.16 -0.719506 1.40217 0
M  V30 1255 C 125.409 -1.47486 1.37589 0
M  V30 1256 C 125.722 -1.9559 -0.0201568 0
M  V30 1257 O 126.928 -2.70973 -0.169049 0
M  V30 1258 C 125.384 -2.66575 2.41796 0
M  V30 1259 C 124.992 -2.25358 3.87192 0
M  V30 1260 C 126.736 -3.4433 2.48269 0
M  V30 1261 C 124.643 -3.41262 4.83005 0
M  V30 1262 H 123.573 -0.553901 0.511576 0
M  V30 1263 H 126.224 -0.783427 1.65936 0
M  V30 1264 H 124.606 -3.3787 2.06543 0
M  V30 1265 H 125.78 -1.61509 4.31569 0
M  V30 1266 H 124.095 -1.60657 3.84159 0
M  V30 1267 H 126.692 -4.30569 3.17041 0
M  V30 1268 H 127.035 -3.87872 1.51198 0
M  V30 1269 H 127.568 -2.80076 2.82493 0
M  V30 1270 H 124.307 -3.02755 5.81394 0
M  V30 1271 H 123.827 -4.0404 4.43297 0
M  V30 1272 H 125.506 -4.07383 5.02641 0
M  V30 1273 N 125.638 -1.25649 -0.95132 0
M  V30 1274 C 126.866 -1.13343 -1.73092 0
M  V30 1275 C 127.281 0.312434 -1.86197 0
M  V30 1276 O 126.638 1.21465 -1.36207 0
M  V30 1277 C 126.689 -1.78602 -3.14299 0
M  V30 1278 O 126.41 -3.17537 -3.01831 0
M  V30 1279 C 127.911 -1.72119 -4.08522 0
M  V30 1280 H 125.131 -0.395181 -0.542285 0
M  V30 1281 H 127.675 -1.66076 -1.19328 0
M  V30 1282 H 125.83 -1.29832 -3.64996 0
M  V30 1283 H 126.244 -3.49676 -3.90931 0
M  V30 1284 H 127.718 -2.22435 -5.052 0
M  V30 1285 H 128.195 -0.685635 -4.33815 0
M  V30 1286 H 128.801 -2.20393 -3.63741 0
M  V30 1287 N 127.117 1.15442 -1.07289 0
M  V30 1288 C 128.533 1.38201 -0.798288 0
M  V30 1289 C 128.733 1.92429 0.597769 0
M  V30 1290 O 127.789 2.12962 1.3566 0
M  V30 1291 C 129.102 2.35357 -1.87156 0
M  V30 1292 C 130.65 2.49021 -1.89624 0
M  V30 1293 C 131.125 3.49468 -2.96034 0
M  V30 1294 N 132.616 3.57003 -2.95132 0
M  V30 1295 C 133.351 4.34543 -3.74112 0
M  V30 1296 N 132.847 5.15421 -4.6294 0
M  V30 1297 N 134.64 4.29625 -3.62462 0
M  V30 1298 H 126.791 0.78584 -1.97328 0
M  V30 1299 H 129.054 0.408065 -0.855679 0
M  V30 1300 H 128.76 2.02626 -2.87464 0
M  V30 1301 H 128.634 3.35129 -1.73114 0
M  V30 1302 H 131.021 2.81051 -0.899687 0
M  V30 1303 H 131.102 1.4925 -2.07745 0
M  V30 1304 H 130.746 3.18173 -3.95889 0
M  V30 1305 H 130.676 4.48992 -2.75161 0
M  V30 1306 H 133.167 2.99276 -2.30743 0
M  V30 1307 H 133.48 5.7183 -5.19837 0
M  V30 1308 H 131.825 5.14729 -4.66989 0
M  V30 1309 H 135.016 3.65505 -2.92444 0
M  V30 1310 H 135.189 4.89807 -4.24256 0
M  V30 1311 N 128.595 0.856903 1.32268 0
M  V30 1312 C 129.843 0.460474 1.96784 0
M  V30 1313 C 130.164 -0.987701 1.68135 0
M  V30 1314 O 129.434 -1.69058 0.989765 0
M  V30 1315 H 128.014 0.167289 0.728027 0
M  V30 1316 H 130.676 1.09383 1.61312 0
M  V30 1317 H 129.772 0.60739 3.06133 0
M  V30 1318 N 130.073 -1.45103 0.615059 0
M  V30 1319 C 131.35 -1.95549 0.0448276 0
M  V30 1320 C 131.73 -1.55737 -1.4251 0
M  V30 1321 O 131.078 -0.823556 -2.13143 0
M  V30 1322 C 131.288 -3.48098 0.250785 0
M  V30 1323 C 132.636 -4.24384 0.135509 0
M  V30 1324 O 133.66 -3.55738 0.181299 0
M  V30 1325 O 132.519 -5.46493 0.0268878 0
M  V30 1326 H 129.613 -0.8264 -0.0314845 0
M  V30 1327 H 132.159 -1.55232 0.685642 0
M  V30 1328 H 130.931 -3.7007 1.27139 0
M  V30 1329 H 130.554 -3.95323 -0.424937 0
M  V30 1330 N 131.551 -0.354651 -1.53558 0
M  V30 1331 C 132.776 0.242153 -2.05981 0
M  V30 1332 C 133.201 1.42553 -1.2272 0
M  V30 1333 O 132.559 1.79656 -0.243604 0
M  V30 1334 C 132.607 0.624367 -3.55154 0
M  V30 1335 O 131.711 1.72301 -3.74681 0
M  V30 1336 H 131.052 0.0378432 -0.662921 0
M  V30 1337 H 133.582 -0.512087 -1.98088 0
M  V30 1338 H 133.592 0.898433 -3.97985 0
M  V30 1339 H 132.267 -0.240989 -4.15201 0
M  V30 1340 H 130.844 1.44535 -3.4375 0
M  V30 1341 N 133.029 1.57378 -0.0835403 0
M  V30 1342 C 134.257 1.98263 0.59157 0
M  V30 1343 C 134.672 0.962302 1.62435 0
M  V30 1344 O 134.029 -0.049581 1.82433 0
M  V30 1345 C 134.08 3.39214 1.24965 0
M  V30 1346 O 133.801 4.37339 0.258186 0
M  V30 1347 C 135.302 3.95038 2.01147 0
M  V30 1348 H 132.522 0.651773 0.159477 0
M  V30 1349 H 135.066 2.03878 -0.159415 0
M  V30 1350 H 133.221 3.34649 1.95164 0
M  V30 1351 H 133.635 5.19371 0.731734 0
M  V30 1352 H 135.109 4.95848 2.42567 0
M  V30 1353 H 135.586 3.32222 2.87272 0
M  V30 1354 H 136.192 4.0304 1.35789 0
M  V30 1355 N 134.507 -0.190092 1.56449 0
M  V30 1356 C 135.756 -0.907912 1.80111 0
M  V30 1357 C 136.069 -1.84214 0.657619 0
M  V30 1358 O 137.275 -2.60094 0.778663 0
M  V30 1359 C 135.731 -1.66485 3.19078 0
M  V30 1360 C 135.339 -0.7752 4.41242 0
M  V30 1361 C 137.083 -2.37201 3.52045 0
M  V30 1362 C 134.99 -1.53129 5.71231 0
M  V30 1363 H 133.92 -0.34276 0.671589 0
M  V30 1364 H 136.571 -0.161109 1.82791 0
M  V30 1365 H 134.953 -2.45572 3.10661 0
M  V30 1366 H 136.127 -0.0226298 4.60794 0
M  V30 1367 H 134.442 -0.178627 4.16017 0
M  V30 1368 H 137.039 -2.94329 4.46402 0
M  V30 1369 H 137.382 -3.11632 2.76028 0
M  V30 1370 H 137.915 -1.65075 3.61932 0
M  V30 1371 H 134.654 -0.82967 6.50228 0
M  V30 1372 H 134.174 -2.25767 5.55688 0
M  V30 1373 H 135.853 -2.08377 6.12526 0
M  V30 1374 N 135.985 -1.50799 -0.457987 0
M  V30 1375 C 137.213 -1.66218 -1.23203 0
M  V30 1376 C 137.628 -0.350894 -1.85511 0
M  V30 1377 O 136.985 0.668546 -1.69814 0
M  V30 1378 C 137.036 -2.76291 -2.33121 0
M  V30 1379 O 136.757 -4.02338 -1.73366 0
M  V30 1380 C 138.258 -3.028 -3.2377 0
M  V30 1381 H 135.478 -0.558361 -0.372121 0
M  V30 1382 H 138.022 -1.97099 -0.545179 0
M  V30 1383 H 136.177 -2.48068 -2.97558 0
M  V30 1384 H 136.591 -4.63312 -2.4585 0
M  V30 1385 H 138.065 -3.8345 -3.97077 0
M  V30 1386 H 138.542 -2.14385 -3.83322 0
M  V30 1387 H 139.148 -3.32604 -2.65056 0
M  V30 1388 N 137.463 0.71206 -1.40597 0
M  V30 1389 C 138.688 1.50617 -1.42581 0
M  V30 1390 C 139.113 1.88079 -0.0282102 0
M  V30 1391 O 138.471 1.53511 0.964579 0
M  V30 1392 C 138.519 2.7557 -2.3258 0
M  V30 1393 O 137.623 3.72414 -1.77148 0
M  V30 1394 H 136.964 0.453966 -0.484573 0
M  V30 1395 H 139.494 0.876649 -1.84868 0
M  V30 1396 H 139.504 3.2406 -2.47889 0
M  V30 1397 H 138.179 2.47639 -3.34138 0
M  V30 1398 H 136.756 3.31276 -1.71204 0
M  V30 1399 N 138.941 1.26152 0.944643 0
M  V30 1400 C 139.873 1.03199 2.04652 0
M  V30 1401 C 140.886 -0.00642356 1.62799 0
M  V30 1402 O 142.075 0.233263 1.76969 0
M  V30 1403 C 139.175 0.540111 3.34568 0
M  V30 1404 C 138.348 1.64697 4.05208 0
M  V30 1405 C 137.407 1.15374 5.13396 0
M  V30 1406 O 136.433 1.85013 5.38293 0
M  V30 1407 N 137.635 0.00031529 5.805 0
M  V30 1408 H 140.4 1.9808 2.2491 0
M  V30 1409 H 137.961 1.17491 1.11389 0
M  V30 1410 H 139.953 0.194401 4.04233 0
M  V30 1411 H 138.523 -0.315021 3.11009 0
M  V30 1412 H 137.743 2.16379 3.29506 0
M  V30 1413 H 139.031 2.3903 4.49157 0
M  V30 1414 H 138.429 -0.581336 5.62705 0
M  V30 1415 H 136.986 -0.286346 6.51171 0
M  V30 1416 N 140.419 -1.14872 1.07899 0
M  V30 1417 C 141.696 -1.81928 0.71845 0
M  V30 1418 C 142.076 -1.95417 -0.798455 0
M  V30 1419 O 141.424 -1.50997 -1.715 0
M  V30 1420 C 141.634 -3.17937 1.43935 0
M  V30 1421 C 142.982 -3.93501 1.59506 0
M  V30 1422 O 144.006 -3.27509 1.40058 0
M  V30 1423 O 142.865 -5.1183 1.91551 0
M  V30 1424 H 139.959 -0.78628 0.256305 0
M  V30 1425 H 142.505 -1.21934 1.18026 0
M  V30 1426 H 141.277 -3.0325 2.47295 0
M  V30 1427 H 140.9 -3.85619 0.968687 0
M  V30 1428 N 141.898 -0.863906 -1.31812 0
M  V30 1429 C 143.144 -0.472535 -1.97218 0
M  V30 1430 C 143.477 0.971394 -1.68159 0
M  V30 1431 O 142.752 1.68309 -0.974798 0
M  V30 1432 C 143.035 -0.723054 -3.52766 0
M  V30 1433 C 142.888 -2.21608 -3.91421 0
M  V30 1434 C 144.207 -0.185522 -4.39709 0
M  V30 1435 H 141.326 -0.173158 -0.71637 0
M  V30 1436 H 143.968 -1.08403 -1.56041 0
M  V30 1437 H 142.118 -0.202577 -3.87971 0
M  V30 1438 H 143.79 -2.80334 -3.66347 0
M  V30 1439 H 142.033 -2.691 -3.40246 0
M  V30 1440 H 142.704 -2.34203 -4.99853 0
M  V30 1441 H 145.18 -0.630726 -4.11292 0
M  V30 1442 H 144.056 -0.390306 -5.47511 0
M  V30 1443 H 144.317 0.912229 -4.32586 0
M  V30 1444 N 143.376 1.44774 -0.622745 0
M  V30 1445 C 144.339 2.29069 0.0774015 0
M  V30 1446 C 145.339 1.4059 0.780461 0
M  V30 1447 O 146.529 1.62551 0.626322 0
M  V30 1448 C 143.661 3.21974 1.12006 0
M  V30 1449 H 144.854 2.92459 -0.663901 0
M  V30 1450 H 142.407 1.51548 -0.382486 0
M  V30 1451 H 143.142 2.63417 1.89162 0
M  V30 1452 H 142.927 3.87168 0.619951 0
M  V30 1453 H 144.417 3.85318 1.60995 0
M  V30 1454 N 144.854 0.36279 1.53368 0
M  V30 1455 C 145.802 -0.500155 2.27159 0
M  V30 1456 C 146.796 -1.08575 1.3003 0
M  V30 1457 O 148.002 -1.02927 1.47668 0
M  V30 1458 H 144.377 -0.180009 0.730138 0
M  V30 1459 H 146.348 0.14401 2.98052 0
M  V30 1460 C 145.097 -1.62937 3.07159 0
M  V30 1461 H 144.42 -1.18806 3.8174 0
M  V30 1462 H 145.86 -2.20795 3.61975 0
M  V30 1463 C 144.319 -2.57007 2.17829 0
M  V30 1464 O 144.849 -3.59752 1.78721 0
M  V30 1465 N 143.055 -2.26131 1.82518 0
M  V30 1466 H 142.602 -1.42616 2.14519 0
M  V30 1467 H 142.56 -2.89327 1.23034 0
M  V30 1468 N 146.332 -1.57332 0.0918853 0
M  V30 1469 C 147.295 -2.12708 -0.85369 0
M  V30 1470 C 148.295 -1.05561 -1.213 0
M  V30 1471 O 149.485 -1.31461 -1.14296 0
M  V30 1472 C 146.617 -2.64503 -2.15061 0
M  V30 1473 H 147.81 -2.97573 -0.3729 0
M  V30 1474 H 145.363 -1.55509 -0.157072 0
M  V30 1475 H 146.098 -1.83149 -2.67632 0
M  V30 1476 H 145.883 -3.4284 -1.90272 0
M  V30 1477 H 147.373 -3.07351 -2.82711 0
M  V30 1478 N 147.81 0.181792 -1.56548 0
M  V30 1479 C 149.059 0.898348 -1.8059 0
M  V30 1480 C 149.372 1.83862 -0.667379 0
M  V30 1481 O 150.578 2.59678 -0.792446 0
M  V30 1482 C 149.034 1.64791 -3.19956 0
M  V30 1483 C 148.642 0.751789 -4.41647 0
M  V30 1484 C 150.386 2.35331 -3.53298 0
M  V30 1485 C 148.293 1.50098 -5.72035 0
M  V30 1486 H 147.223 0.339194 -0.673397 0
M  V30 1487 H 149.874 0.151413 -1.82874 0
M  V30 1488 H 148.256 2.43921 -3.11959 0
M  V30 1489 H 149.43 -0.0018076 -4.608 0
M  V30 1490 H 147.745 0.156562 -4.16106 0
M  V30 1491 H 150.342 2.91958 -4.47956 0
M  V30 1492 H 150.685 3.10164 -2.77676 0
M  V30 1493 H 151.218 1.63154 -3.62803 0
M  V30 1494 H 147.957 0.795175 -6.50659 0
M  V30 1495 H 147.477 2.22817 -5.56878 0
M  V30 1496 H 149.156 2.05125 -6.13622 0
M  V30 1497 N 149.288 1.51039 0.449983 0
M  V30 1498 C 150.534 1.63322 1.20223 0
M  V30 1499 C 150.867 0.34241 1.91158 0
M  V30 1500 O 150.142 -0.657344 1.83055 0
M  V30 1501 C 150.425 2.82801 2.22925 0
M  V30 1502 C 150.278 4.21823 1.56157 0
M  V30 1503 C 151.597 2.97807 3.24035 0
M  V30 1504 H 148.716 0.594407 0.435718 0
M  V30 1505 H 151.358 1.83489 0.493136 0
M  V30 1506 H 149.508 2.65738 2.834 0
M  V30 1507 H 151.18 4.50526 0.991162 0
M  V30 1508 H 149.423 4.25105 0.864172 0
M  V30 1509 H 150.094 5.01391 2.30891 0
M  V30 1510 H 152.57 3.13497 2.73603 0
M  V30 1511 H 151.446 3.82992 3.93202 0
M  V30 1512 H 151.707 2.09328 3.89402 0
M  V30 1513 N 150.766 -0.704594 1.40972 0
M  V30 1514 C 151.729 -1.80035 1.41845 0
M  V30 1515 C 152.729 -1.57774 0.310474 0
M  V30 1516 O 153.919 -1.64613 0.56992 0
M  V30 1517 C 151.051 -3.18284 1.22098 0
M  V30 1518 H 152.244 -1.80658 2.3938 0
M  V30 1519 H 149.797 -0.911329 1.26982 0
M  V30 1520 H 150.532 -3.23306 0.253672 0
M  V30 1521 H 150.317 -3.35843 2.02366 0
M  V30 1522 H 151.807 -3.98289 1.25522 0
M  V30 1523 N 152.244 -1.26651 -0.937939 0
M  V30 1524 C 153.474 -1.15006 -1.71631 0
M  V30 1525 C 153.882 0.297026 -1.86854 0
M  V30 1526 O 153.225 1.21493 -1.37786 0
M  V30 1527 C 153.287 -1.74984 -3.14039 0
M  V30 1528 C 152.951 -3.24103 -3.2219 0
M  V30 1529 C 153.948 -4.20877 -3.05219 0
M  V30 1530 C 151.633 -3.64625 -3.45476 0
M  V30 1531 C 153.627 -5.56151 -3.11408 0
M  V30 1532 C 151.314 -5.00032 -3.513 0
M  V30 1533 C 152.312 -5.95604 -3.34282 0
M  V30 1534 O 152 -7.28545 -3.3982 0
M  V30 1535 H 151.732 -0.401183 -0.544085 0
M  V30 1536 H 154.286 -1.67832 -1.18413 0
M  V30 1537 H 152.516 -1.16624 -3.68695 0
M  V30 1538 H 154.205 -1.58199 -3.73802 0
M  V30 1539 H 154.971 -3.90908 -2.87081 0
M  V30 1540 H 150.85 -2.90718 -3.57777 0
M  V30 1541 H 154.394 -6.30727 -2.98043 0
M  V30 1542 H 150.291 -5.29659 -3.68959 0
M  V30 1543 H 151.059 -7.3686 -3.56343 0
M  V30 1544 N 153.722 1.14298 -1.08507 0
M  V30 1545 C 154.97 1.84993 -0.813763 0
M  V30 1546 C 155.291 1.83405 0.662393 0
M  V30 1547 O 154.561 1.28319 1.48024 0
M  V30 1548 H 153.141 0.684966 -0.298045 0
M  V30 1549 H 155.803 1.385 -1.37126 0
M  V30 1550 H 154.899 2.89788 -1.15884 0
M  V30 1551 N 155.201 0.870884 1.31352 0
M  V30 1552 C 156.447 0.482987 1.96965 0
M  V30 1553 C 156.78 -0.962462 1.68672 0
M  V30 1554 O 156.055 -1.6779 0.98371 0
M  V30 1555 C 156.338 0.741752 3.52378 0
M  V30 1556 C 156.191 2.2368 3.9024 0
M  V30 1557 C 157.51 0.208838 4.39604 0
M  V30 1558 H 154.629 0.176955 0.715441 0
M  V30 1559 H 157.271 1.09229 1.55464 0
M  V30 1560 H 155.421 0.223149 3.87859 0
M  V30 1561 H 157.093 2.82273 3.64856 0
M  V30 1562 H 155.336 2.70901 3.38814 0
M  V30 1563 H 156.007 2.3685 4.98604 0
M  V30 1564 H 158.483 0.652529 4.10952 0
M  V30 1565 H 157.359 0.419336 5.47296 0
M  V30 1566 H 157.62 -0.889275 4.33064 0
M  V30 1567 N 156.679 -1.44442 0.630414 0
M  V30 1568 C 157.925 -2.02894 0.143332 0
M  V30 1569 C 158.28 -1.48697 -1.22094 0
M  V30 1570 O 157.573 -0.661171 -1.79831 0
M  V30 1571 C 157.767 -3.57332 0.0697835 0
M  V30 1572 C 157.596 -4.26512 1.42539 0
M  V30 1573 C 156.366 -4.63516 2.01198 0
M  V30 1574 C 158.564 -4.57004 2.35907 0
M  V30 1575 N 156.546 -5.17661 3.30001 0
M  V30 1576 C 157.917 -5.12223 3.49324 0
M  V30 1577 C 159.972 -4.38955 2.34995 0
M  V30 1578 C 158.675 -5.51295 4.62024 0
M  V30 1579 C 160.701 -4.79075 3.46758 0
M  V30 1580 C 160.063 -5.34407 4.58899 0
M  V30 1581 H 156.162 -0.776041 0.0963523 0
M  V30 1582 H 158.746 -1.75945 0.833752 0
M  V30 1583 H 156.917 -3.83894 -0.589915 0
M  V30 1584 H 158.649 -4.02451 -0.42606 0
M  V30 1585 H 155.404 -4.47811 1.54151 0
M  V30 1586 H 155.828 -5.4921 3.95851 0
M  V30 1587 H 160.47 -3.95469 1.49545 0
M  V30 1588 H 158.188 -5.93736 5.48182 0
M  V30 1589 H 161.774 -4.66824 3.47227 0
M  V30 1590 H 160.654 -5.64878 5.4395 0
M  V30 1591 N 158.157 -0.370918 -1.53173 0
M  V30 1592 C 159.568 0.107139 -1.86392 0
M  V30 1593 C 159.919 1.47714 -1.29132 0
M  V30 1594 O 159.044 2.07464 -0.615439 0
M  V30 1595 C 159.639 0.201187 -3.38202 0
M  V30 1596 C 158.198 0.623507 -3.712 0
M  V30 1597 C 157.345 -0.225978 -2.76378 0
M  V30 1598 H 160.296 -0.58951 -1.47345 0
M  V30 1599 H 160.317 1.02377 -3.66468 0
M  V30 1600 H 159.829 -0.796058 -3.79848 0
M  V30 1601 H 157.93 1.62879 -3.35114 0
M  V30 1602 H 158.043 0.394414 -4.77474 0
M  V30 1603 H 156.407 0.305962 -2.52856 0
M  V30 1604 H 157.19 -1.22086 -3.20858 0
M  V30 1605 N 159.635 1.57281 -0.100228 0
M  V30 1606 C 160.585 2.10848 0.86759 0
M  V30 1607 C 161.569 1.02473 1.24049 0
M  V30 1608 O 162.761 1.28739 1.21471 0
M  V30 1609 C 159.89 2.69648 2.12474 0
M  V30 1610 C 158.976 3.85074 1.77704 0
M  V30 1611 N 159.367 4.92897 1.13518 0
M  V30 1612 C 157.665 3.94905 2.07282 0
M  V30 1613 C 158.366 5.73475 0.974735 0
M  V30 1614 N 157.342 5.22675 1.4937 0
M  V30 1615 H 161.144 2.91594 0.367471 0
M  V30 1616 H 158.658 1.62074 0.102829 0
M  V30 1617 H 160.655 3.06356 2.82757 0
M  V30 1618 H 159.315 1.90359 2.63047 0
M  V30 1619 H 160.326 5.11662 0.801381 0
M  V30 1620 H 157.003 3.26633 2.60033 0
M  V30 1621 H 158.393 6.70238 0.472364 0
M  V30 1622 N 161.113 -0.173488 1.56642 0
M  V30 1623 C 162.343 -0.904781 1.85734 0
M  V30 1624 C 162.751 -1.76431 0.68328 0
M  V30 1625 O 162.094 -1.802 -0.356865 0
M  V30 1626 C 162.156 -1.83382 3.09211 0
M  V30 1627 C 161.82 -1.15411 4.42187 0
M  V30 1628 C 162.817 -0.520609 5.17287 0
M  V30 1629 C 160.502 -1.15151 4.88923 0
M  V30 1630 C 162.496 0.106412 6.37311 0
M  V30 1631 C 160.183 -0.520664 6.08878 0
M  V30 1632 C 161.181 0.107196 6.82916 0
M  V30 1633 O 160.869 0.728102 8.00596 0
M  V30 1634 H 160.601 -0.268408 0.62043 0
M  V30 1635 H 163.155 -0.179096 2.04618 0
M  V30 1636 H 161.385 -2.59976 2.86268 0
M  V30 1637 H 163.074 -2.43476 3.24768 0
M  V30 1638 H 163.84 -0.514606 4.82262 0
M  V30 1639 H 159.719 -1.62961 4.31236 0
M  V30 1640 H 163.263 0.597081 6.9504 0
M  V30 1641 H 159.16 -0.524242 6.43368 0
M  V30 1642 H 159.928 0.627138 8.16094 0
M  V30 1643 N 162.591 -1.51276 -0.441967 0
M  V30 1644 C 163.521 -1.752 -1.54361 0
M  V30 1645 C 164.502 -0.601682 -1.59103 0
M  V30 1646 O 165.687 -0.843913 -1.74905 0
M  V30 1647 C 162.817 -1.87282 -2.92477 0
M  V30 1648 C 161.771 -3.02687 -3.02596 0
M  V30 1649 C 161.097 -2.99947 -4.42647 0
M  V30 1650 C 162.397 -4.4273 -2.77106 0
M  V30 1651 H 164.091 -2.67442 -1.34592 0
M  V30 1652 H 161.637 -1.28694 -0.646048 0
M  V30 1653 H 163.59 -2.02602 -3.695 0
M  V30 1654 H 162.314 -0.916844 -3.13467 0
M  V30 1655 H 160.973 -2.87065 -2.28012 0
M  V30 1656 H 160.621 -2.02136 -4.60597 0
M  V30 1657 H 160.321 -3.77439 -4.50348 0
M  V30 1658 H 161.845 -3.17354 -5.2165 0
M  V30 1659 H 163.259 -4.58727 -3.43864 0
M  V30 1660 H 161.656 -5.21893 -2.96222 0
M  V30 1661 H 162.726 -4.53087 -1.72744 0
M  V30 1662 N 164.069 0.697108 -1.41344 0
M  V30 1663 C 165.294 1.49096 -1.44171 0
M  V30 1664 C 165.719 1.88038 -0.0481568 0
M  V30 1665 O 165.077 1.54525 0.948243 0
M  V30 1666 C 165.125 2.73088 -2.3549 0
M  V30 1667 O 164.229 3.70514 -1.81088 0
M  V30 1668 H 163.57 0.448801 -0.489361 0
M  V30 1669 H 166.1 0.856992 -1.85787 0
M  V30 1670 H 166.11 3.21413 -2.51312 0
M  V30 1671 H 164.785 2.44081 -3.36745 0
M  V30 1672 H 163.362 3.29441 -1.74708 0
M  V30 1673 N 165.547 1.27147 0.931209 0
M  V30 1674 C 166.772 1.16191 1.71797 0
M  V30 1675 C 167.197 -0.278004 1.86034 0
M  V30 1676 O 166.555 -1.20137 1.35782 0
M  V30 1677 C 166.603 1.84673 3.09723 0
M  V30 1678 O 165.707 1.14231 3.96264 0
M  V30 1679 H 165.048 0.404303 0.526721 0
M  V30 1680 H 167.578 1.68152 1.1656 0
M  V30 1681 H 167.588 1.91893 3.60057 0
M  V30 1682 H 166.263 2.89421 2.98677 0
M  V30 1683 H 164.84 1.15056 3.54706 0
M  V30 1684 N 167.025 -1.13721 1.09112 0
M  V30 1685 C 167.972 -2.19031 0.727591 0
M  V30 1686 C 168.942 -1.63555 -0.289656 0
M  V30 1687 O 170.127 -1.90023 -0.172026 0
M  V30 1688 C 167.267 -3.4477 0.15082 0
M  V30 1689 C 166.38 -4.14365 1.22172 0
M  V30 1690 C 165.515 -5.27709 0.608042 0
M  V30 1691 C 164.554 -5.89147 1.66047 0
M  V30 1692 N 163.691 -6.93929 1.06806 0
M  V30 1693 H 168.531 -2.49475 1.62991 0
M  V30 1694 H 166.068 -1.22499 0.81439 0
M  V30 1695 H 168.026 -4.16714 -0.201358 0
M  V30 1696 H 166.656 -3.14787 -0.714783 0
M  V30 1697 H 165.708 -3.40737 1.69122 0
M  V30 1698 H 167.02 -4.56114 2.01895 0
M  V30 1699 H 166.174 -6.06355 0.204523 0
M  V30 1700 H 164.913 -4.872 -0.220769 0
M  V30 1701 H 163.918 -5.09198 2.07357 0
M  V30 1702 H 165.143 -6.31729 2.49189 0
M  V30 1703 H 163.089 -6.55483 0.260476 0
M  V30 1704 H 163.006 -7.34202 1.8023 0
M  V30 1705 H 164.274 -7.76434 0.690644 0
M  V30 1706 N 168.503 -0.877838 -1.30888 0
M  V30 1707 C 169.78 -0.413052 -1.91189 0
M  V30 1708 C 170.16 1.1056 -1.79832 0
M  V30 1709 O 169.508 1.93771 -1.21099 0
M  V30 1710 C 169.718 -0.903191 -3.3711 0
M  V30 1711 C 171.066 -0.93395 -4.14201 0
M  V30 1712 O 172.09 -0.849373 -3.45925 0
M  V30 1713 O 170.949 -1.05772 -5.36167 0
M  V30 1714 H 168.043 -0.125035 -0.817493 0
M  V30 1715 H 170.589 -0.966269 -1.39504 0
M  V30 1716 H 169.361 -1.94692 -3.39427 0
M  V30 1717 H 168.984 -0.328732 -3.96239 0
M  V30 1718 N 169.982 1.44106 -0.638065 0
M  V30 1719 C 170.945 2.29138 0.0531013 0
M  V30 1720 C 171.945 1.41409 0.765506 0
M  V30 1721 O 173.135 1.63206 0.609046 0
M  V30 1722 C 170.267 3.23144 1.08584 0
M  V30 1723 H 171.46 2.91739 -0.694883 0
M  V30 1724 H 169.013 1.51134 -0.398538 0
M  V30 1725 H 169.748 2.65408 1.86357 0
M  V30 1726 H 169.533 3.87804 0.578852 0
M  V30 1727 H 171.023 3.87004 1.56899 0
M  V30 1728 N 171.46 0.379036 1.52974 0
M  V30 1729 C 172.685 -0.209353 2.06341 0
M  V30 1730 C 173.11 -1.40583 1.24972 0
M  V30 1731 O 172.468 -1.79246 0.272155 0
M  V30 1732 C 172.516 -0.567786 3.56102 0
M  V30 1733 O 171.62 -1.66318 3.77375 0
M  V30 1734 H 170.961 -0.0272919 0.663439 0
M  V30 1735 H 173.491 0.543536 1.97248 0
M  V30 1736 H 173.501 -0.835003 3.99364 0
M  V30 1737 H 172.176 0.307013 4.14765 0
M  V30 1738 H 170.753 -1.39048 3.46006 0
M  V30 1739 N 172.938 -1.57226 0.108567 0
M  V30 1740 C 173.901 -2.13602 -0.831082 0
M  V30 1741 C 174.901 -1.06841 -1.20173 0
M  V30 1742 O 176.091 -1.32666 -1.12895 0
M  V30 1743 C 173.223 -2.66769 -2.12243 0
M  V30 1744 H 174.416 -2.97951 -0.341317 0
M  V30 1745 H 171.969 -1.55667 -0.14057 0
M  V30 1746 H 172.704 -1.85977 -2.65675 0
M  V30 1747 H 172.489 -3.44839 -1.86625 0
M  V30 1748 H 173.979 -3.10332 -2.79435 0
M  V30 1749 N 174.416 0.165178 -1.56732 0
M  V30 1750 C 175.665 0.879143 -1.81532 0
M  V30 1751 C 175.978 1.83144 -0.686842 0
M  V30 1752 O 177.184 2.58823 -0.819944 0
M  V30 1753 C 175.64 1.61388 -3.21686 0
M  V30 1754 C 175.248 0.704904 -4.4242 0
M  V30 1755 C 176.992 2.3157 -3.55774 0
M  V30 1756 C 174.899 1.44022 -5.73595 0
M  V30 1757 H 173.829 0.332033 -0.676957 0
M  V30 1758 H 176.48 0.132008 -1.83025 0
M  V30 1759 H 174.862 2.40599 -3.14529 0
M  V30 1760 H 176.036 -0.0506815 -4.60772 0
M  V30 1761 H 174.351 0.112419 -4.16248 0
M  V30 1762 H 176.948 2.8719 -4.51028 0
M  V30 1763 H 177.291 3.07201 -2.8095 0
M  V30 1764 H 177.824 1.59297 -3.64513 0
M  V30 1765 H 174.563 0.72612 -6.51466 0
M  V30 1766 H 174.083 2.16898 -5.5921 0
M  V30 1767 H 175.762 1.98606 -6.15764 0
M  V30 1768 N 175.894 1.51508 0.433938 0
M  V30 1769 C 177.171 1.54888 1.19453 0
M  V30 1770 C 177.551 0.315154 2.08734 0
M  V30 1771 O 176.899 -0.699558 2.17528 0
M  V30 1772 C 177.109 2.86467 1.99342 0
M  V30 1773 C 178.457 3.38545 2.56267 0
M  V30 1774 O 179.481 2.88041 2.0955 0
M  V30 1775 O 178.34 4.26675 3.41483 0
M  V30 1776 H 175.434 0.622863 0.544032 0
M  V30 1777 H 177.98 1.63823 0.442732 0
M  V30 1778 H 176.752 3.67718 1.33788 0
M  V30 1779 H 176.375 2.8071 2.8158 0
M  V30 1780 N 177.372 -0.689602 1.41712 0
M  V30 1781 C 178.319 -1.80345 1.44029 0
M  V30 1782 C 179.289 -1.63478 0.293948 0
M  V30 1783 O 180.474 -1.84244 0.495869 0
M  V30 1784 C 177.614 -3.18272 1.33405 0
M  V30 1785 C 176.727 -3.46529 2.57956 0
M  V30 1786 C 175.862 -4.74103 2.39582 0
M  V30 1787 C 174.901 -4.95347 3.5958 0
M  V30 1788 N 174.038 -6.14151 3.40239 0
M  V30 1789 H 178.878 -1.77698 2.39222 0
M  V30 1790 H 176.415 -0.867688 1.18784 0
M  V30 1791 H 178.373 -3.97956 1.25246 0
M  V30 1792 H 177.003 -3.2008 0.418164 0
M  V30 1793 H 176.055 -2.61207 2.76542 0
M  V30 1794 H 177.367 -3.58126 3.47199 0
M  V30 1795 H 176.521 -5.61853 2.28924 0
M  V30 1796 H 175.26 -4.64763 1.47805 0
M  V30 1797 H 174.265 -4.06044 3.70686 0
M  V30 1798 H 175.49 -5.06542 4.52318 0
M  V30 1799 H 173.436 -6.06013 2.51167 0
M  V30 1800 H 173.353 -6.26543 4.23061 0
M  V30 1801 H 174.621 -7.04619 3.33365 0
M  V30 1802 N 178.85 -1.27639 -0.924453 0
M  V30 1803 C 180.261 -1.12834 -1.48746 0
M  V30 1804 C 180.612 0.285505 -1.94112 0
M  V30 1805 O 179.737 1.17874 -1.81479 0
M  V30 1806 C 180.332 -2.04217 -2.70334 0
M  V30 1807 C 178.891 -1.93509 -3.22848 0
M  V30 1808 C 178.038 -1.96583 -1.95577 0
M  V30 1809 H 180.989 -1.40484 -0.738233 0
M  V30 1810 H 181.01 -1.59989 -3.4523 0
M  V30 1811 H 180.522 -3.07111 -2.37285 0
M  V30 1812 H 178.623 -0.936131 -3.60649 0
M  V30 1813 H 178.736 -2.79917 -3.88823 0
M  V30 1814 H 177.1 -1.4085 -2.12211 0
M  V30 1815 H 177.883 -3.01137 -1.64837 0
M  V30 1816 N 180.328 1.1314 -1.09713 0
M  V30 1817 C 181.553 1.88862 -0.857081 0
M  V30 1818 C 181.978 1.78729 0.586304 0
M  V30 1819 O 181.336 1.13692 1.41222 0
M  V30 1820 C 181.384 3.36325 -1.30069 0
M  V30 1821 O 180.488 4.09815 -0.461007 0
M  V30 1822 H 179.829 0.587108 -0.310162 0
M  V30 1823 H 182.359 1.43129 -1.46203 0
M  V30 1824 H 182.369 3.87157 -1.28738 0
M  V30 1825 H 181.044 3.43017 -2.35185 0
M  V30 1826 H 179.621 3.68986 -0.538888 0
M  V30 1827 N 181.806 0.884767 1.30421 0
M  V30 1828 C 182.738 0.308655 2.27112 0
M  V30 1829 C 183.751 -0.536655 1.53701 0
M  V30 1830 O 184.94 -0.35624 1.74909 0
M  V30 1831 C 182.04 -0.579782 3.33904 0
M  V30 1832 C 181.213 0.236417 4.36761 0
M  V30 1833 C 180.272 -0.582482 5.22966 0
M  V30 1834 O 179.298 -0.00525502 5.692 0
M  V30 1835 N 180.5 -1.89163 5.48815 0
M  V30 1836 H 183.265 1.13964 2.77186 0
M  V30 1837 H 180.826 0.747731 1.43599 0
M  V30 1838 H 182.818 -1.13366 3.88497 0
M  V30 1839 H 181.388 -1.31144 2.83761 0
M  V30 1840 H 180.608 0.97174 3.82035 0
M  V30 1841 H 181.896 0.795924 5.02536 0
M  V30 1842 H 181.294 -2.38352 5.13035 0
M  V30 1843 H 179.851 -2.39296 6.06284 0
M  V30 1844 N 183.284 -1.43765 0.645699 0
M  V30 1845 C 184.695 -1.85193 0.236719 0
M  V30 1846 C 185.046 -1.54045 -1.21509 0
M  V30 1847 O 184.171 -0.985694 -1.92647 0
M  V30 1848 C 184.766 -3.36151 0.422845 0
M  V30 1849 C 183.325 -3.76338 0.0682492 0
M  V30 1850 C 182.472 -2.67538 0.729306 0
M  V30 1851 H 185.423 -1.34025 0.849883 0
M  V30 1852 H 185.444 -3.79032 -0.333904 0
M  V30 1853 H 184.956 -3.5879 1.47958 0
M  V30 1854 H 183.057 -3.59312 -0.986179 0
M  V30 1855 H 183.17 -4.76603 0.488469 0
M  V30 1856 H 181.534 -2.54176 0.163235 0
M  V30 1857 H 182.317 -2.93006 1.78892 0
M  V30 1858 N 184.763 -0.387143 -1.52771 0
M  V30 1859 C 186.04 0.253197 -1.93954 0
M  V30 1860 C 186.42 1.64545 -1.32243 0
M  V30 1861 O 185.768 2.23191 -0.489699 0
M  V30 1862 C 185.978 0.281722 -3.47861 0
M  V30 1863 C 187.326 0.511715 -4.21505 0
M  V30 1864 O 188.35 0.362023 -3.54356 0
M  V30 1865 O 187.209 0.804847 -5.40541 0
M  V30 1866 H 184.303 0.156845 -0.811991 0
M  V30 1867 H 186.849 -0.441494 -1.63856 0
M  V30 1868 H 185.621 -0.693571 -3.85104 0
M  V30 1869 H 185.244 1.02142 -3.84256 0
M  V30 1870 N 186.241 1.57166 -0.116904 0
M  V30 1871 C 187.469 1.99473 0.549383 0
M  V30 1872 C 187.884 0.996541 1.60357 0
M  V30 1873 O 187.241 -0.0108731 1.82497 0
M  V30 1874 C 187.292 3.41788 1.17741 0
M  V30 1875 O 187.013 4.37788 0.165362 0
M  V30 1876 C 188.514 3.99216 1.92722 0
M  V30 1877 H 185.734 0.655009 0.145616 0
M  V30 1878 H 188.278 2.03494 -0.202625 0
M  V30 1879 H 186.433 3.38713 1.88021 0
M  V30 1880 H 186.847 5.20806 0.621403 0
M  V30 1881 H 188.321 5.00882 2.31995 0
M  V30 1882 H 188.798 3.3824 2.80161 0
M  V30 1883 H 189.404 4.0583 1.27209 0
M  V30 1884 N 187.719 -0.156864 1.56817 0
M  V30 1885 C 188.944 -0.890331 1.87318 0
M  V30 1886 C 189.369 -1.74394 0.704855 0
M  V30 1887 O 188.727 -1.77972 -0.345786 0
M  V30 1888 C 188.775 -1.73102 3.16336 0
M  V30 1889 O 187.879 -2.83422 2.99576 0
M  V30 1890 H 187.22 -0.24857 0.615718 0
M  V30 1891 H 189.75 -0.150649 2.04045 0
M  V30 1892 H 189.76 -2.12803 3.48107 0
M  V30 1893 H 188.435 -1.10412 4.00976 0
M  V30 1894 H 187.012 -2.47199 2.7919 0
M  V30 1895 N 189.197 -1.51736 -0.425897 0
M  V30 1896 C 190.422 -1.69082 -1.20108 0
M  V30 1897 C 190.847 -0.392398 -1.83962 0
M  V30 1898 O 190.205 0.64858 -1.69302 0
M  V30 1899 C 190.253 -2.81604 -2.25237 0
M  V30 1900 O 189.357 -2.46004 -3.30992 0
M  V30 1901 H 188.698 -0.563408 -0.35138 0
M  V30 1902 H 191.228 -1.98358 -0.501512 0
M  V30 1903 H 191.238 -3.06025 -2.69838 0
M  V30 1904 H 189.913 -3.75817 -1.78142 0
M  V30 1905 H 188.49 -2.32195 -2.91787 0
M  V30 1906 N 190.675 0.682077 -1.42076 0
M  V30 1907 C 191.623 1.81707 -1.45208 0
M  V30 1908 C 192.617 1.66183 -0.328591 0
M  V30 1909 O 193.823 1.7288 -0.501264 0
M  V30 1910 H 190.198 0.599014 -0.454628 0
M  V30 1911 H 192.169 1.76183 -2.40836 0
M  V30 1912 C 190.918 3.19816 -1.36428 0
M  V30 1913 H 190.241 3.32385 -2.22171 0
M  V30 1914 H 191.681 3.99272 -1.42681 0
M  V30 1915 C 190.14 3.36809 -0.078191 0
M  V30 1916 O 190.67 3.92124 0.87188 0
M  V30 1917 N 188.876 2.906 0.00229266 0
M  V30 1918 H 188.423 2.45772 -0.771616 0
M  V30 1919 H 188.381 3.02347 0.862179 0
M  V30 1920 N 192.153 1.28127 0.917671 0
M  V30 1921 C 193.569 1.05749 1.19538 0
M  V30 1922 C 193.769 -0.202633 2.00479 0
M  V30 1923 O 192.825 -0.905382 2.3571 0
M  V30 1924 C 194.138 2.30273 1.93378 0
M  V30 1925 C 195.686 2.35412 2.06277 0
M  V30 1926 C 196.161 3.59692 2.83524 0
M  V30 1927 N 197.652 3.60309 2.91087 0
M  V30 1928 C 198.387 4.53147 3.51348 0
M  V30 1929 N 197.883 5.563 4.12919 0
M  V30 1930 N 199.676 4.40751 3.48849 0
M  V30 1931 H 191.827 2.09024 0.377184 0
M  V30 1932 H 194.09 0.919798 0.22951 0
M  V30 1933 H 193.796 3.22055 1.41328 0
M  V30 1934 H 193.67 2.36378 2.93947 0
M  V30 1935 H 196.057 1.4413 2.57508 0
M  V30 1936 H 196.138 2.33304 1.04895 0
M  V30 1937 H 195.782 4.51316 2.32973 0
M  V30 1938 H 195.712 3.59054 3.85211 0
M  V30 1939 H 198.203 2.85714 2.47338 0
M  V30 1940 H 198.516 6.2329 4.56869 0
M  V30 1941 H 196.861 5.60131 4.11435 0
M  V30 1942 H 200.052 3.59367 2.99955 0
M  V30 1943 H 200.225 5.13291 3.9552 0
M  V30 1944 N 193.631 -1.12557 1.10312 0
M  V30 1945 C 194.878 -1.84038 0.844759 0
M  V30 1946 C 195.206 -1.84026 -0.629668 0
M  V30 1947 O 194.461 -1.28026 -1.48013 0
M  V30 1948 C 194.76 -3.31462 1.33669 0
M  V30 1949 C 194.426 -3.51647 2.82232 0
M  V30 1950 C 193.088 -3.56864 3.22802 0
M  V30 1951 C 195.44 -3.58867 3.77974 0
M  V30 1952 C 192.768 -3.66844 4.57867 0
M  V30 1953 C 195.12 -3.70375 5.1284 0
M  V30 1954 C 193.784 -3.73848 5.52986 0
M  V30 1955 H 193.054 -0.673444 0.309119 0
M  V30 1956 H 195.701 -1.32824 1.37949 0
M  V30 1957 H 194.006 -3.85091 0.721949 0
M  V30 1958 H 195.703 -3.85236 1.11329 0
M  V30 1959 H 192.293 -3.48249 2.49842 0
M  V30 1960 H 196.477 -3.54107 3.47738 0
M  V30 1961 H 191.733 -3.67804 4.88396 0
M  V30 1962 H 195.907 -3.74904 5.86873 0
M  V30 1963 H 193.534 -3.81333 6.57639 0
M  V30 1964 N 195.109 -0.891671 -1.2995 0
M  V30 1965 C 196.339 -0.527893 -1.99742 0
M  V30 1966 C 196.747 0.88979 -1.66971 0
M  V30 1967 O 196.09 1.59766 -0.906667 0
M  V30 1968 C 196.152 -0.630804 -3.53922 0
M  V30 1969 C 195.816 -2.01401 -4.10228 0
M  V30 1970 C 196.813 -2.98422 -4.25724 0
M  V30 1971 C 194.498 -2.32121 -4.45449 0
M  V30 1972 C 196.492 -4.24293 -4.75662 0
M  V30 1973 C 194.179 -3.58237 -4.95086 0
M  V30 1974 C 195.177 -4.54137 -5.10146 0
M  V30 1975 O 194.865 -5.78014 -5.58708 0
M  V30 1976 H 194.597 -0.201953 -0.645129 0
M  V30 1977 H 197.151 -1.20076 -1.66646 0
M  V30 1978 H 195.381 0.0990616 -3.86573 0
M  V30 1979 H 197.07 -0.277338 -4.04951 0
M  V30 1980 H 197.836 -2.76001 -3.98809 0
M  V30 1981 H 193.715 -1.5824 -4.32991 0
M  V30 1982 H 197.259 -4.99153 -4.87332 0
M  V30 1983 H 193.156 -3.80491 -5.21437 0
M  V30 1984 H 193.924 -5.8049 -5.77039 0
M  V30 1985 N 196.587 1.43421 -0.653314 0
M  V30 1986 C 197.815 2.06163 -0.174491 0
M  V30 1987 C 198.23 1.48969 1.1599 0
M  V30 1988 O 197.587 0.621042 1.71608 0
M  V30 1989 C 197.638 3.61417 -0.0774865 0
M  V30 1990 O 197.359 4.16485 -1.35912 0
M  V30 1991 C 198.86 4.41235 0.427402 0
M  V30 1992 H 196.08 0.664946 -0.0899353 0
M  V30 1993 H 198.624 1.83924 -0.893988 0
M  V30 1994 H 196.779 3.82841 0.59257 0
M  V30 1995 H 197.193 5.10153 -1.21839 0
M  V30 1996 H 198.667 5.5021 0.44423 0
M  V30 1997 H 199.144 4.14268 1.45873 0
M  V30 1998 H 199.75 4.2478 -0.210167 0
M  V30 1999 N 198.065 0.39524 1.52563 0
M  V30 2000 C 198.995 -0.428384 2.29537 0
M  V30 2001 C 199.976 -1.05831 1.33169 0
M  V30 2002 O 201.161 -1.06995 1.62067 0
M  V30 2003 C 198.291 -1.55274 3.10656 0
M  V30 2004 C 197.245 -1.04855 4.14957 0
M  V30 2005 C 196.571 -2.26543 4.84337 0
M  V30 2006 C 197.871 -0.112324 5.22179 0
M  V30 2007 H 199.565 0.213867 2.98635 0
M  V30 2008 H 197.111 0.104298 1.43622 0
M  V30 2009 H 199.064 -2.1358 3.63265 0
M  V30 2010 H 197.788 -2.22266 2.39302 0
M  V30 2011 H 196.447 -0.487985 3.63338 0
M  V30 2012 H 196.095 -2.92059 4.09525 0
M  V30 2013 H 195.795 -1.93466 5.54837 0
M  V30 2014 H 197.319 -2.85481 5.39753 0
M  V30 2015 H 198.733 -0.603752 5.70112 0
M  V30 2016 H 197.13 0.128968 5.99961 0
M  V30 2017 H 198.2 0.837052 4.77621 0
M  V30 2018 N 199.544 -1.57102 0.125237 0
M  V30 2019 C 200.96 -1.57915 -0.231322 0
M  V30 2020 C 201.16 -1.13833 -1.66266 0
M  V30 2021 O 200.216 -0.828581 -2.38518 0
M  V30 2022 C 201.529 -3.00699 0.00766489 0
M  V30 2023 C 203.077 -3.12947 -0.0577483 0
M  V30 2024 C 203.552 -4.57742 0.153626 0
M  V30 2025 N 205.043 -4.63092 0.0998073 0
M  V30 2026 C 205.778 -5.72905 0.238174 0
M  V30 2027 N 205.274 -6.91445 0.433057 0
M  V30 2028 N 207.067 -5.6182 0.177308 0
M  V30 2029 H 199.218 -1.84055 1.06007 0
M  V30 2030 H 201.481 -0.850905 0.417929 0
M  V30 2031 H 201.187 -3.3726 0.997431 0
M  V30 2032 H 201.061 -3.70236 -0.721452 0
M  V30 2033 H 203.448 -2.7624 -1.03804 0
M  V30 2034 H 203.529 -2.4594 0.70335 0
M  V30 2035 H 203.173 -4.95149 1.13092 0
M  V30 2036 H 203.103 -5.22848 -0.627534 0
M  V30 2037 H 205.594 -3.77871 -0.047051 0
M  V30 2038 H 205.907 -7.70985 0.529332 0
M  V30 2039 H 204.252 -6.93415 0.469109 0
M  V30 2040 H 207.443 -4.68093 0.0259748 0
M  V30 2041 H 207.616 -6.47357 0.288582 0
M  V30 2042 N 201.022 0.148545 -1.56898 0
M  V30 2043 C 202.247 0.880385 -1.87787 0
M  V30 2044 C 202.672 1.74018 -0.714093 0
M  V30 2045 O 202.03 1.78153 0.336343 0
M  V30 2046 C 202.078 1.71422 -3.17249 0
M  V30 2047 O 201.182 2.8183 -3.01074 0
M  V30 2048 H 200.523 0.245301 -0.617028 0
M  V30 2049 H 203.053 0.139826 -2.04122 0
M  V30 2050 H 203.063 2.10954 -3.49231 0
M  V30 2051 H 201.738 1.08284 -4.01556 0
M  V30 2052 H 200.315 2.45715 -2.80497 0
M  V30 2053 N 202.5 1.5196 0.417844 0
M  V30 2054 C 203.746 1.65836 1.16732 0
M  V30 2055 C 204.079 0.382881 1.90388 0
M  V30 2056 O 203.354 -0.618368 1.84408 0
M  V30 2057 C 203.637 2.87466 2.16876 0
M  V30 2058 C 203.49 4.25041 1.47174 0
M  V30 2059 C 204.809 3.04613 3.17646 0
M  V30 2060 H 201.928 0.603515 0.423011 0
M  V30 2061 H 204.57 1.84494 0.454105 0
M  V30 2062 H 202.72 2.71689 2.777 0
M  V30 2063 H 204.392 4.52527 0.895376 0
M  V30 2064 H 202.635 4.26843 0.773806 0
M  V30 2065 H 203.306 5.06176 2.20204 0
M  V30 2066 H 205.782 3.1923 2.66892 0
M  V30 2067 H 204.658 3.91247 3.8499 0
M  V30 2068 H 204.919 2.17541 3.84874 0
M  V30 2069 N 203.978 -0.674533 1.42435 0
M  V30 2070 C 205.206 -1.46283 1.46317 0
M  V30 2071 C 205.621 -1.88653 0.0745836 0
M  V30 2072 O 204.978 -1.58151 -0.91074 0
M  V30 2073 C 205.029 -2.71178 2.3905 0
M  V30 2074 O 204.75 -2.30586 3.72507 0
M  V30 2075 C 206.251 -3.64738 2.51955 0
M  V30 2076 H 203.471 -0.450104 0.497642 0
M  V30 2077 H 206.015 -0.828792 1.86953 0
M  V30 2078 H 204.17 -3.3077 2.01667 0
M  V30 2079 H 204.584 -3.11241 4.22172 0
M  V30 2080 H 206.058 -4.49096 3.20962 0
M  V30 2081 H 206.535 -4.10656 1.55752 0
M  V30 2082 H 207.141 -3.11038 2.90061 0
M  V30 2083 N 205.456 -1.28612 -0.910864 0
M  V30 2084 C 206.702 -1.17116 -1.66299 0
M  V30 2085 C 207.057 0.276917 -1.90397 0
M  V30 2086 O 206.35 1.19795 -1.49532 0
M  V30 2087 C 206.544 -1.90624 -3.0232 0
M  V30 2088 C 206.373 -3.42431 -2.91498 0
M  V30 2089 C 205.143 -4.11773 -2.92867 0
M  V30 2090 C 207.341 -4.38124 -2.69355 0
M  V30 2091 N 205.323 -5.50025 -2.72664 0
M  V30 2092 C 206.694 -5.63759 -2.58023 0
M  V30 2093 C 208.749 -4.28016 -2.54375 0
M  V30 2094 C 207.452 -6.80436 -2.33238 0
M  V30 2095 C 209.478 -5.44433 -2.30969 0
M  V30 2096 C 208.84 -6.69034 -2.20394 0
M  V30 2097 H 204.939 -0.483506 -0.61461 0
M  V30 2098 H 207.523 -1.62299 -1.0755 0
M  V30 2099 H 205.694 -1.4787 -3.5915 0
M  V30 2100 H 207.426 -1.71488 -3.66571 0
M  V30 2101 H 204.181 -3.63378 -3.03732 0
M  V30 2102 H 204.605 -6.22705 -2.65646 0
M  V30 2103 H 209.247 -3.32388 -2.613 0
M  V30 2104 H 206.965 -7.7613 -2.25051 0
M  V30 2105 H 210.551 -5.38504 -2.20238 0
M  V30 2106 H 209.431 -7.57595 -2.02531 0
M  V30 2107 N 206.934 1.1197 -1.10907 0
M  V30 2108 C 208.159 1.87942 -0.877064 0
M  V30 2109 C 208.584 1.79341 0.567314 0
M  V30 2110 O 207.942 1.15184 1.40009 0
M  V30 2111 C 207.99 3.34926 -1.33629 0
M  V30 2112 O 207.094 4.09303 -0.504447 0
M  V30 2113 H 206.435 0.583785 -0.316371 0
M  V30 2114 H 208.965 1.4157 -1.47712 0
M  V30 2115 H 208.975 3.8577 -1.32837 0
M  V30 2116 H 207.65 3.40504 -2.3881 0
M  V30 2117 H 206.227 3.68393 -0.577993 0
M  V30 2118 N 208.412 0.89855 1.29475 0
M  V30 2119 C 209.637 0.538561 2.00285 0
M  V30 2120 C 210.062 -0.869135 1.66816 0
M  V30 2121 O 209.42 -1.57831 0.892145 0
M  V30 2122 C 209.468 0.736475 3.52999 0
M  V30 2123 O 208.572 -0.211537 4.11857 0
M  V30 2124 H 207.913 0.210563 0.62973 0
M  V30 2125 H 210.443 1.20982 1.64998 0
M  V30 2126 H 210.453 0.640685 4.02938 0
M  V30 2127 H 209.128 1.76276 3.76696 0
M  V30 2128 H 207.705 -0.0682991 3.72837 0
M  V30 2129 N 209.89 -1.43072 0.660911 0
M  V30 2130 C 211.115 -2.06584 0.183805 0
M  V30 2131 C 211.54 -1.49257 -1.14472 0
M  V30 2132 O 210.898 -0.605528 -1.70889 0
M  V30 2133 C 210.946 -3.60418 0.114434 0
M  V30 2134 O 210.05 -4.01981 -0.921137 0
M  V30 2135 H 209.391 -0.656669 0.0983994 0
M  V30 2136 H 211.921 -1.83447 0.906006 0
M  V30 2137 H 211.931 -4.07946 -0.0663394 0
M  V30 2138 H 210.606 -4.01519 1.08422 0
M  V30 2139 H 209.183 -3.66029 -0.71253 0
M  V30 2140 N 211.368 -0.403325 -1.52352 0
M  V30 2141 C 212.593 0.176499 -2.06648 0
M  V30 2142 C 213.018 1.38577 -1.27193 0
M  V30 2143 O 212.376 1.7879 -0.300637 0
M  V30 2144 C 212.424 0.511061 -3.5696 0
M  V30 2145 O 211.528 1.60294 -3.79973 0
M  V30 2146 H 210.869 0.0167337 -0.663789 0
M  V30 2147 H 213.399 -0.574848 -1.96359 0
M  V30 2148 H 213.409 0.771362 -4.00642 0
M  V30 2149 H 212.084 -0.37296 -4.14224 0
M  V30 2150 H 210.661 1.33526 -3.48174 0
M  V30 2151 N 212.846 1.57033 -0.133567 0
M  V30 2152 C 213.793 2.16074 0.811208 0
M  V30 2153 C 214.763 1.08979 1.2535 0
M  V30 2154 O 215.948 1.36958 1.32843 0
M  V30 2155 C 213.088 2.77595 2.05024 0
M  V30 2156 C 212.201 3.99042 1.65498 0
M  V30 2157 C 211.336 4.48603 2.84479 0
M  V30 2158 C 210.375 5.62547 2.41262 0
M  V30 2159 N 209.512 6.06787 3.53206 0
M  V30 2160 H 214.352 2.96477 0.300906 0
M  V30 2161 H 211.889 1.46462 0.136822 0
M  V30 2162 H 213.847 3.11402 2.77642 0
M  V30 2163 H 212.477 1.99859 2.53488 0
M  V30 2164 H 211.529 3.71302 0.826981 0
M  V30 2165 H 212.841 4.81629 1.29748 0
M  V30 2166 H 211.995 4.84395 3.65303 0
M  V30 2167 H 210.734 3.64995 3.23465 0
M  V30 2168 H 209.739 5.26345 1.58874 0
M  V30 2169 H 210.964 6.47931 2.03377 0
M  V30 2170 H 208.91 5.26117 3.91838 0
M  V30 2171 H 208.827 6.84266 3.21427 0
M  V30 2172 H 210.095 6.4722 4.34427 0
M  V30 2173 N 214.325 -0.140222 1.56975 0
M  V30 2174 C 215.573 -0.850005 1.83356 0
M  V30 2175 C 215.894 -1.81399 0.71551 0
M  V30 2176 O 215.164 -1.94136 -0.262294 0
M  V30 2177 H 213.744 -0.316886 0.676456 0
M  V30 2178 H 216.406 -0.132608 1.94448 0
M  V30 2179 H 215.502 -1.40814 2.78528 0
M  V30 2180 N 215.803 -1.52179 -0.40978 0
M  V30 2181 C 217.049 -1.67408 -1.15525 0
M  V30 2182 C 217.404 -0.398746 -1.88223 0
M  V30 2183 O 216.697 0.60678 -1.81738 0
M  V30 2184 C 216.891 -2.83428 -2.17723 0
M  V30 2185 C 216.72 -4.22121 -1.55061 0
M  V30 2186 C 215.49 -4.87657 -1.3236 0
M  V30 2187 C 217.688 -5.04248 -1.01185 0
M  V30 2188 N 215.67 -6.10387 -0.655834 0
M  V30 2189 C 217.041 -6.18209 -0.470963 0
M  V30 2190 C 219.096 -4.89583 -0.906252 0
M  V30 2191 C 217.799 -7.1911 0.165172 0
M  V30 2192 C 219.825 -5.90718 -0.28397 0
M  V30 2193 C 219.187 -7.03969 0.246243 0
M  V30 2194 H 215.286 -0.666251 -0.409431 0
M  V30 2195 H 217.87 -1.89482 -0.447729 0
M  V30 2196 H 216.041 -2.6297 -2.85834 0
M  V30 2197 H 217.773 -2.87697 -2.84627 0
M  V30 2198 H 214.528 -4.46007 -1.59294 0
M  V30 2199 H 214.952 -6.76153 -0.338596 0
M  V30 2200 H 219.594 -4.02253 -1.302 0
M  V30 2201 H 217.312 -8.06066 0.572986 0
M  V30 2202 H 220.898 -5.81443 -0.203792 0
M  V30 2203 H 219.778 -7.80886 0.720173 0
M  V30 2204 N 217.281 0.66697 -1.42791 0
M  V30 2205 C 218.527 1.42754 -1.44889 0
M  V30 2206 C 218.882 1.92283 -0.0669755 0
M  V30 2207 O 218.175 1.68494 0.912154 0
M  V30 2208 C 218.369 2.6349 -2.4147 0
M  V30 2209 C 218.198 2.25776 -3.88915 0
M  V30 2210 C 216.968 2.1476 -4.57391 0
M  V30 2211 C 219.166 1.86927 -4.79127 0
M  V30 2212 N 217.148 1.70232 -5.89826 0
M  V30 2213 C 218.519 1.53378 -6.00729 0
M  V30 2214 C 220.574 1.73989 -4.66511 0
M  V30 2215 C 219.277 1.08187 -7.11117 0
M  V30 2216 C 221.303 1.30203 -5.76889 0
M  V30 2217 C 220.665 0.975818 -6.97608 0
M  V30 2218 H 216.764 0.518559 -0.585338 0
M  V30 2219 H 219.348 0.768906 -1.78874 0
M  V30 2220 H 217.519 3.27033 -2.09533 0
M  V30 2221 H 219.251 3.30123 -2.34096 0
M  V30 2222 H 216.006 2.3408 -4.11708 0
M  V30 2223 H 216.43 1.50369 -6.6009 0
M  V30 2224 H 221.072 1.97853 -3.7365 0
M  V30 2225 H 218.79 0.830701 -8.03819 0
M  V30 2226 H 222.376 1.20701 -5.69142 0
M  V30 2227 H 221.256 0.642157 -7.81566 0
M  V30 2228 N 218.759 1.29093 0.90403 0
M  V30 2229 C 220.005 1.17996 1.65676 0
M  V30 2230 C 220.36 -0.266816 1.90541 0
M  V30 2231 O 219.653 -1.19 1.50165 0
M  V30 2232 C 219.847 1.92224 3.01305 0
M  V30 2233 C 219.676 3.43972 2.89678 0
M  V30 2234 C 218.446 4.1332 2.90679 0
M  V30 2235 C 220.644 4.39546 2.67028 0
M  V30 2236 N 218.626 5.51463 2.69743 0
M  V30 2237 C 219.997 5.65119 2.5503 0
M  V30 2238 C 222.052 4.29359 2.52101 0
M  V30 2239 C 220.755 6.81663 2.29626 0
M  V30 2240 C 222.781 5.4565 2.28079 0
M  V30 2241 C 222.143 6.70193 2.16843 0
M  V30 2242 H 218.242 0.486759 0.612037 0
M  V30 2243 H 220.826 1.62868 1.06688 0
M  V30 2244 H 218.997 1.49773 3.58361 0
M  V30 2245 H 220.729 1.73429 3.65656 0
M  V30 2246 H 217.484 3.64984 3.01801 0
M  V30 2247 H 217.908 6.24105 2.6234 0
M  V30 2248 H 222.55 3.33769 2.59534 0
M  V30 2249 H 220.268 7.77313 2.20932 0
M  V30 2250 H 223.854 5.39664 2.1738 0
M  V30 2251 H 222.734 7.58659 1.98511 0
M  V30 2252 N 220.237 -1.11381 1.11499 0
M  V30 2253 C 221.184 -2.17439 0.773887 0
M  V30 2254 C 222.154 -1.64132 -0.254899 0
M  V30 2255 O 223.339 -1.90345 -0.13168 0
M  V30 2256 C 220.479 -3.44373 0.223917 0
M  V30 2257 C 219.592 -4.1168 1.30934 0
M  V30 2258 C 218.727 -5.263 0.71984 0
M  V30 2259 C 217.766 -5.85493 1.78507 0
M  V30 2260 N 216.903 -6.91507 1.21502 0
M  V30 2261 H 221.743 -2.45962 1.68246 0
M  V30 2262 H 219.28 -1.20744 0.840191 0
M  V30 2263 H 221.238 -4.17047 -0.112921 0
M  V30 2264 H 219.868 -3.16232 -0.647851 0
M  V30 2265 H 218.92 -3.37073 1.76312 0
M  V30 2266 H 220.232 -4.51729 2.11524 0
M  V30 2267 H 219.386 -6.05785 0.333094 0
M  V30 2268 H 218.125 -4.87559 -0.117377 0
M  V30 2269 H 217.13 -5.04686 2.18111 0
M  V30 2270 H 218.355 -6.26301 2.62533 0
M  V30 2271 H 216.301 -6.54783 0.399455 0
M  V30 2272 H 216.218 -7.30214 1.95763 0
M  V30 2273 H 217.486 -7.74795 0.855181 0
M  V30 2274 N 221.715 -0.905404 -1.28997 0
M  V30 2275 C 222.645 -0.404212 -2.29975 0
M  V30 2276 C 223.626 0.523784 -1.61835 0
M  V30 2277 O 224.811 0.433298 -1.89304 0
M  V30 2278 C 221.941 0.364042 -3.45387 0
M  V30 2279 C 220.895 -0.474048 -4.25367 0
M  V30 2280 C 220.221 0.422045 -5.33032 0
M  V30 2281 C 221.521 -1.72696 -4.92923 0
M  V30 2282 H 223.215 -1.24807 -2.72146 0
M  V30 2283 H 220.761 -0.601585 -1.30832 0
M  V30 2284 H 222.714 0.725447 -4.15109 0
M  V30 2285 H 221.438 1.24174 -3.02074 0
M  V30 2286 H 220.097 -0.81786 -3.57361 0
M  V30 2287 H 219.745 1.29804 -4.85963 0
M  V30 2288 H 219.445 -0.135057 -5.87445 0
M  V30 2289 H 220.969 0.779517 -6.05604 0
M  V30 2290 H 222.383 -1.43495 -5.55051 0
M  V30 2291 H 220.78 -2.22582 -5.57295 0
M  V30 2292 H 221.85 -2.45964 -4.17887 0
M  V30 2293 N 223.193 1.4272 -0.668489 0
M  V30 2294 C 224.604 1.84793 -0.266151 0
M  V30 2295 C 224.955 1.55959 1.19043 0
M  V30 2296 O 224.08 1.01622 1.91055 0
M  V30 2297 C 224.675 3.35436 -0.476271 0
M  V30 2298 C 223.234 3.76182 -0.128113 0
M  V30 2299 C 222.381 2.66344 -0.771777 0
M  V30 2300 H 225.332 1.32656 -0.871098 0
M  V30 2301 H 225.353 3.79515 0.273561 0
M  V30 2302 H 224.865 3.5639 -1.53647 0
M  V30 2303 H 222.966 3.60836 0.928891 0
M  V30 2304 H 223.079 4.75766 -0.564231 0
M  V30 2305 H 221.443 2.53885 -0.203652 0
M  V30 2306 H 222.226 2.90123 -1.83531 0
M  V30 2307 N 224.671 0.411399 1.52136 0
M  V30 2308 C 225.948 -0.222308 1.94333 0
M  V30 2309 C 226.328 -1.6242 1.34844 0
M  V30 2310 O 225.676 -2.22384 0.525145 0
M  V30 2311 C 225.886 -0.226345 3.48265 0
M  V30 2312 C 227.234 -0.444592 4.22266 0
M  V30 2313 O 228.258 -0.305602 3.54887 0
M  V30 2314 O 227.117 -0.718749 5.41753 0
M  V30 2315 H 224.211 -0.143907 0.814383 0
M  V30 2316 H 226.757 0.467506 1.63133 0
M  V30 2317 H 225.529 0.75475 3.83952 0
M  V30 2318 H 225.152 -0.960163 3.85832 0
M  V30 2319 N 226.149 -1.5696 0.141893 0
M  V30 2320 C 227.112 -2.15316 -0.785587 0
M  V30 2321 C 228.112 -1.09366 -1.1788 0
M  V30 2322 O 229.302 -1.35031 -1.10056 0
M  V30 2323 C 226.434 -2.71211 -2.06537 0
M  V30 2324 H 227.627 -2.98608 -0.278041 0
M  V30 2325 H 225.18 -1.5593 -0.107519 0
M  V30 2326 H 225.915 -1.91571 -2.6167 0
M  V30 2327 H 225.7 -3.4872 -1.79268 0
M  V30 2328 H 227.19 -3.16189 -2.72789 0
M  V30 2329 N 227.627 0.131896 -1.57047 0
M  V30 2330 C 228.557 1.16384 -2.02428 0
M  V30 2331 C 229.538 1.43936 -0.90644 0
M  V30 2332 O 230.723 1.54599 -1.17528 0
M  V30 2333 C 227.853 2.49328 -2.4177 0
M  V30 2334 C 226.807 2.36266 -3.56879 0
M  V30 2335 C 226.133 3.74057 -3.8208 0
M  V30 2336 C 227.433 1.834 -4.89042 0
M  V30 2337 H 229.127 0.786433 -2.88887 0
M  V30 2338 H 226.673 0.376855 -1.38981 0
M  V30 2339 H 228.626 3.21759 -2.7212 0
M  V30 2340 H 227.35 2.88934 -1.52266 0
M  V30 2341 H 226.009 1.66286 -3.26718 0
M  V30 2342 H 225.657 4.11125 -2.89803 0
M  V30 2343 H 225.357 3.66174 -4.59554 0
M  V30 2344 H 226.881 4.48012 -4.1487 0
M  V30 2345 H 228.295 2.45636 -5.18011 0
M  V30 2346 H 226.692 1.8637 -5.70426 0
M  V30 2347 H 227.762 0.790662 -4.7841 0
M  V30 2348 N 229.106 1.52395 0.401703 0
M  V30 2349 C 230.053 1.76268 1.48991 0
M  V30 2350 C 231.023 0.605386 1.54675 0
M  V30 2351 O 232.208 0.843742 1.7113 0
M  V30 2352 C 229.348 1.92592 2.86361 0
M  V30 2353 C 228.461 3.20259 2.89928 0
M  V30 2354 C 227.596 3.26972 4.18644 0
M  V30 2355 C 226.635 4.48812 4.16214 0
M  V30 2356 N 225.772 4.52877 5.36514 0
M  V30 2357 H 230.612 2.6914 1.27935 0
M  V30 2358 H 228.149 1.33355 0.620871 0
M  V30 2359 H 230.107 2.0004 3.66115 0
M  V30 2360 H 228.737 1.03093 3.05895 0
M  V30 2361 H 227.789 3.21945 2.02621 0
M  V30 2362 H 229.101 4.10056 2.83999 0
M  V30 2363 H 228.255 3.33533 5.06794 0
M  V30 2364 H 226.994 2.35126 4.27278 0
M  V30 2365 H 225.999 4.4239 3.26453 0
M  V30 2366 H 227.224 5.41961 4.09213 0
M  V30 2367 H 225.17 3.63917 5.45802 0
M  V30 2368 H 225.087 5.36529 5.32609 0
M  V30 2369 H 226.355 4.63676 6.26597 0
M  V30 2370 N 230.584 -0.659388 1.43143 0
M  V30 2371 C 231.861 -1.41627 1.34912 0
M  V30 2372 C 232.241 -2.11099 -0.00607785 0
M  V30 2373 O 231.589 -2.04353 -1.02236 0
M  V30 2374 C 231.799 -2.40604 2.52805 0
M  V30 2375 C 233.147 -3.04789 2.95616 0
M  V30 2376 O 234.171 -2.50932 2.52807 0
M  V30 2377 O 233.03 -4.02421 3.69756 0
M  V30 2378 H 230.124 -0.63246 0.532844 0
M  V30 2379 H 232.67 -0.686814 1.5518 0
M  V30 2380 H 231.442 -1.88174 3.43083 0
M  V30 2381 H 231.065 -3.21009 2.34604 0
M  V30 2382 N 232.062 -1.29571 -0.897171 0
M  V30 2383 C 232.995 -1.0924 -2.00354 0
M  V30 2384 C 233.973 -0.00354011 -1.626 0
M  V30 2385 O 235.157 -0.15473 -1.87864 0
M  V30 2386 C 232.284 -0.66352 -3.32137 0
M  V30 2387 C 231.33 -1.75146 -3.88878 0
M  V30 2388 S 232.163 -3.35124 -4.17674 0
M  V30 2389 C 233.319 -2.9411 -5.52494 0
M  V30 2390 H 233.552 -2.02907 -2.17292 0
M  V30 2391 H 231.085 -1.13746 -1.04408 0
M  V30 2392 H 233.043 -0.422791 -4.08317 0
M  V30 2393 H 231.704 0.253588 -3.13075 0
M  V30 2394 H 230.897 -1.40337 -4.84068 0
M  V30 2395 H 230.499 -1.94584 -3.19395 0
M  V30 2396 H 232.791 -2.41312 -6.33068 0
M  V30 2397 H 233.734 -3.88161 -5.9223 0
M  V30 2398 H 234.142 -2.32332 -5.14473 0
M  V30 2399 N 233.54 1.10788 -1.12088 0
M  V30 2400 C 234.788 1.8231 -0.872205 0
M  V30 2401 C 235.109 1.85419 0.603709 0
M  V30 2402 O 234.379 1.32963 1.43867 0
M  V30 2403 H 232.959 0.675137 -0.319686 0
M  V30 2404 H 235.621 1.34068 -1.41463 0
M  V30 2405 H 234.717 2.85955 -1.25045 0
M  V30 2406 N 235.018 0.912232 1.28515 0
M  V30 2407 C 236.267 0.540504 1.94323 0
M  V30 2408 C 236.58 -0.920044 1.72611 0
M  V30 2409 O 237.786 -1.39986 2.32629 0
M  V30 2410 C 236.242 0.915803 3.48053 0
M  V30 2411 C 235.85 2.39598 3.78546 0
M  V30 2412 C 237.594 0.614588 4.20027 0
M  V30 2413 C 235.501 2.71148 5.25578 0
M  V30 2414 H 234.431 0.198418 0.727424 0
M  V30 2415 H 237.082 1.11094 1.46049 0
M  V30 2416 H 235.464 0.274168 3.9505 0
M  V30 2417 H 236.638 3.08422 3.42364 0
M  V30 2418 H 234.953 2.66749 3.1974 0
M  V30 2419 H 237.55 0.827002 5.28266 0
M  V30 2420 H 237.893 -0.447531 4.13887 0
M  V30 2421 H 238.426 1.21462 3.78803 0
M  V30 2422 H 235.165 3.76207 5.36794 0
M  V30 2423 H 234.685 2.0696 5.62963 0
M  V30 2424 H 236.364 2.58072 5.93302 0
M  V30 2425 N 236.496 -1.42363 0.676048 0
M  V30 2426 C 237.743 -2.01522 0.19883 0
M  V30 2427 C 238.071 -1.53456 -1.19505 0
M  V30 2428 O 237.326 -0.727967 -1.81657 0
M  V30 2429 C 237.625 -3.56929 0.183431 0
M  V30 2430 C 237.291 -4.24431 1.52215 0
M  V30 2431 C 235.953 -4.42585 1.8887 0
M  V30 2432 C 238.305 -4.62459 2.40377 0
M  V30 2433 C 235.633 -4.96039 3.13309 0
M  V30 2434 C 237.985 -5.17294 3.64129 0
M  V30 2435 C 236.649 -5.33661 4.00951 0
M  V30 2436 H 235.919 -0.737419 0.0727571 0
M  V30 2437 H 238.566 -1.70531 0.871281 0
M  V30 2438 H 236.871 -3.87594 -0.572532 0
M  V30 2439 H 238.568 -4.00486 -0.203035 0
M  V30 2440 H 235.158 -4.10661 1.22701 0
M  V30 2441 H 239.342 -4.48105 2.13343 0
M  V30 2442 H 234.598 -5.06896 3.41857 0
M  V30 2443 H 238.772 -5.45704 4.32644 0
M  V30 2444 H 236.399 -5.74845 4.9745 0
M  V30 2445 N 237.974 -0.419461 -1.51915 0
M  V30 2446 C 239.222 0.152637 -2.01523 0
M  V30 2447 C 239.543 1.44762 -1.30649 0
M  V30 2448 O 238.813 1.90997 -0.435535 0
M  V30 2449 H 237.393 0.0593966 -0.744635 0
M  V30 2450 H 240.055 -0.558073 -1.86739 0
M  V30 2451 H 239.151 0.341369 -3.10227 0
M  V30 2452 N 239.452 1.56882 -0.150215 0
M  V30 2453 C 240.362 2.20494 0.801222 0
M  V30 2454 C 241.378 1.19019 1.26927 0
M  V30 2455 O 242.554 1.51607 1.32579 0
M  V30 2456 C 239.619 2.81659 2.02161 0
M  V30 2457 C 238.68 3.9827 1.60249 0
M  V30 2458 C 237.913 4.56508 2.7647 0
M  V30 2459 O 238.136 4.13627 3.92771 0
M  V30 2460 O 237.07 5.46719 2.51757 0
M  V30 2461 H 240.896 3.02315 0.289717 0
M  V30 2462 H 238.481 1.49202 0.0769684 0
M  V30 2463 H 240.363 3.20522 2.73576 0
M  V30 2464 H 239.038 2.02849 2.52258 0
M  V30 2465 H 237.945 3.64117 0.858477 0
M  V30 2466 H 239.278 4.78609 1.14864 0
M  V30 2467 N 240.93 -0.123565 1.57115 0
M  V30 2468 C 241.878 -1.17082 2.00984 0
M  V30 2469 C 242.872 -1.43136 0.906009 0
M  V30 2470 O 244.078 -1.43152 1.09121 0
M  V30 2471 H 240.453 -0.394653 0.64012 0
M  V30 2472 H 242.424 -0.774292 2.88179 0
M  V30 2473 C 241.173 -2.49057 2.42623 0
M  V30 2474 H 240.496 -2.29846 3.27125 0
M  V30 2475 H 241.936 -3.20906 2.7712 0
M  V30 2476 C 240.395 -3.11305 1.28805 0
M  V30 2477 O 240.925 -3.97171 0.60153 0
M  V30 2478 N 239.131 -2.71111 1.04628 0
M  V30 2479 H 238.678 -2.01382 1.60634 0
M  V30 2480 H 238.636 -3.1309 0.286685 0
M  V30 2481 N 242.408 -1.52605 -0.393616 0
M  V30 2482 C 243.341 -1.71798 -1.50202 0
M  V30 2483 C 244.319 -0.565743 -1.52441 0
M  V30 2484 O 245.503 -0.794987 -1.70916 0
M  V30 2485 C 242.63 -1.7714 -2.88685 0
M  V30 2486 C 241.676 -2.98845 -3.04292 0
M  V30 2487 S 242.509 -4.58909 -2.75976 0
M  V30 2488 C 243.665 -4.6706 -4.1666 0
M  V30 2489 H 243.898 -2.65542 -1.33696 0
M  V30 2490 H 241.431 -1.42839 -0.586195 0
M  V30 2491 H 243.389 -1.80903 -3.68489 0
M  V30 2492 H 242.05 -0.844969 -3.02521 0
M  V30 2493 H 241.243 -2.99111 -4.05646 0
M  V30 2494 H 240.845 -2.9305 -2.32374 0
M  V30 2495 H 243.137 -4.45391 -5.10523 0
M  V30 2496 H 244.08 -5.6905 -4.21412 0
M  V30 2497 H 244.488 -3.95944 -4.02354 0
M  V30 2498 N 243.887 0.651787 -1.4349 0
M  V30 2499 C 245.134 1.41167 -1.45183 0
M  V30 2500 C 245.462 1.94349 -0.0766601 0
M  V30 2501 O 244.717 1.72804 0.918555 0
M  V30 2502 C 245.016 2.60914 -2.44251 0
M  V30 2503 C 244.682 2.26142 -3.9009 0
M  V30 2504 C 243.344 2.16371 -4.2981 0
M  V30 2505 C 245.696 1.98334 -4.81989 0
M  V30 2506 C 243.024 1.7695 -5.5938 0
M  V30 2507 C 245.376 1.6041 -6.11924 0
M  V30 2508 C 244.04 1.49166 -6.5062 0
M  V30 2509 H 243.31 0.516566 -0.531263 0
M  V30 2510 H 245.957 0.741099 -1.76579 0
M  V30 2511 H 244.262 3.3311 -2.06265 0
M  V30 2512 H 245.959 3.19127 -2.42815 0
M  V30 2513 H 242.549 2.34658 -3.58655 0
M  V30 2514 H 246.733 2.04803 -4.52072 0
M  V30 2515 H 241.989 1.66831 -5.88198 0
M  V30 2516 H 246.163 1.37925 -6.82605 0
M  V30 2517 H 243.79 1.1839 -7.50925 0
M  V30 2518 N 245.365 1.30045 0.890287 0
M  V30 2519 C 246.595 1.21296 1.67245 0
M  V30 2520 C 247.003 -0.227471 1.87828 0
M  V30 2521 O 246.346 -1.16296 1.422 0
M  V30 2522 C 246.408 1.86519 3.07329 0
M  V30 2523 C 246.072 3.35837 3.09939 0
M  V30 2524 C 247.069 4.31915 2.89389 0
M  V30 2525 C 244.754 3.77196 3.31706 0
M  V30 2526 C 246.748 5.67325 2.90552 0
M  V30 2527 C 244.435 5.12725 3.32499 0
M  V30 2528 C 245.433 6.076 3.11947 0
M  V30 2529 O 245.121 7.40655 3.12547 0
M  V30 2530 H 244.853 0.4211 0.528821 0
M  V30 2531 H 247.407 1.72111 1.12103 0
M  V30 2532 H 245.637 1.30228 3.64112 0
M  V30 2533 H 247.326 1.71963 3.67673 0
M  V30 2534 H 248.092 4.01294 2.72375 0
M  V30 2535 H 243.971 3.03796 3.4674 0
M  V30 2536 H 247.515 6.41354 2.74429 0
M  V30 2537 H 243.412 5.42988 3.49047 0
M  V30 2538 H 244.18 7.49577 3.28749 0
M  V30 2539 N 246.843 -1.10192 1.12674 0
M  V30 2540 C 247.793 -2.14754 0.765801 0
M  V30 2541 C 248.777 -1.59154 -0.236409 0
M  V30 2542 O 249.969 -1.76951 -0.0415261 0
M  V30 2543 C 247.098 -3.42563 0.224827 0
M  V30 2544 C 246.184 -4.05091 1.25548 0
M  V30 2545 N 246.575 -4.42287 2.4539 0
M  V30 2546 C 244.873 -4.32186 1.10142 0
M  V30 2547 C 245.574 -4.91441 3.11224 0
M  V30 2548 N 244.55 -4.88405 2.38666 0
M  V30 2549 H 248.352 -2.41309 1.67772 0
M  V30 2550 H 245.866 -1.27339 1.00789 0
M  V30 2551 H 247.863 -4.16868 -0.0519578 0
M  V30 2552 H 246.523 -3.17467 -0.681515 0
M  V30 2553 H 247.534 -4.33902 2.82754 0
M  V30 2554 H 244.211 -4.16735 0.252587 0
M  V30 2555 H 245.601 -5.29749 4.13298 0
M  V30 2556 N 248.321 -0.919034 -1.28029 0
M  V30 2557 C 249.551 -0.570143 -1.98577 0
M  V30 2558 C 249.959 0.854172 -1.68821 0
M  V30 2559 O 249.302 1.57807 -0.940351 0
M  V30 2560 C 249.364 -0.705734 -3.52505 0
M  V30 2561 C 249.028 -2.10057 -4.05863 0
M  V30 2562 C 250.025 -3.07385 -4.19298 0
M  V30 2563 C 247.71 -2.41517 -4.40426 0
M  V30 2564 C 249.704 -4.34287 -4.66555 0
M  V30 2565 C 247.391 -3.68657 -4.87376 0
M  V30 2566 C 248.389 -4.64856 -5.00398 0
M  V30 2567 O 248.077 -5.89735 -5.46322 0
M  V30 2568 H 247.809 -0.215592 -0.6407 0
M  V30 2569 H 250.363 -1.23583 -1.64062 0
M  V30 2570 H 248.593 0.0170414 -3.86696 0
M  V30 2571 H 250.282 -0.363172 -4.04272 0
M  V30 2572 H 251.048 -2.84398 -3.92865 0
M  V30 2573 H 246.927 -1.67389 -4.29537 0
M  V30 2574 H 250.471 -5.09377 -4.76635 0
M  V30 2575 H 246.368 -3.91466 -5.13249 0
M  V30 2576 H 247.136 -5.92599 -5.64596 0
M  V30 2577 N 249.799 1.42003 -0.683588 0
M  V30 2578 C 250.729 2.33487 -0.024866 0
M  V30 2579 C 251.71 1.51163 0.779975 0
M  V30 2580 O 252.895 1.79739 0.735362 0
M  V30 2581 C 250.025 3.3487 0.920836 0
M  V30 2582 C 248.979 4.27414 0.223958 0
M  V30 2583 C 248.305 5.19074 1.2832 0
M  V30 2584 C 249.605 5.14445 -0.90242 0
M  V30 2585 H 251.299 2.88819 -0.788921 0
M  V30 2586 H 248.845 1.38873 -0.38083 0
M  V30 2587 H 250.798 3.97787 1.39081 0
M  V30 2588 H 249.522 2.77861 1.71642 0
M  V30 2589 H 248.181 3.65904 -0.225864 0
M  V30 2590 H 247.829 4.58387 2.071 0
M  V30 2591 H 247.529 5.81822 0.821995 0
M  V30 2592 H 249.053 5.84867 1.75392 0
M  V30 2593 H 250.467 5.70998 -0.513272 0
M  V30 2594 H 248.864 5.86072 -1.28997 0
M  V30 2595 H 249.934 4.52322 -1.74737 0
M  V30 2596 N 251.277 0.427512 1.51691 0
M  V30 2597 C 252.525 -0.141948 2.01601 0
M  V30 2598 C 252.846 -1.44067 1.31414 0
M  V30 2599 O 252.116 -1.90763 0.445658 0
M  V30 2600 H 250.696 -0.0554468 0.744939 0
M  V30 2601 H 253.358 0.567968 1.86441 0
M  V30 2602 H 252.454 -0.324913 3.10404 0
M  V30 2603 N 252.755 -1.56801 0.158532 0
M  V30 2604 C 254.171 -1.5837 -0.197774 0
M  V30 2605 C 254.371 -1.17334 -1.63814 0
M  V30 2606 O 253.427 -0.878988 -2.36707 0
M  V30 2607 C 254.74 -3.00615 0.0714459 0
M  V30 2608 C 256.288 -3.12999 0.00864533 0
M  V30 2609 C 256.763 -4.57313 0.250685 0
M  V30 2610 N 258.254 -4.62777 0.198014 0
M  V30 2611 C 258.989 -5.72271 0.359642 0
M  V30 2612 N 258.485 -6.90371 0.579625 0
M  V30 2613 N 260.278 -5.61318 0.296438 0
M  V30 2614 H 252.429 -1.81765 1.09887 0
M  V30 2615 H 254.692 -0.841849 0.435884 0
M  V30 2616 H 254.398 -3.35068 1.06874 0
M  V30 2617 H 254.272 -3.71683 -0.642757 0
M  V30 2618 H 256.659 -2.7838 -0.979217 0
M  V30 2619 H 256.74 -2.44393 0.755359 0
M  V30 2620 H 256.384 -4.92639 1.2357 0
M  V30 2621 H 256.314 -5.24061 -0.516489 0
M  V30 2622 H 258.805 -3.77885 0.0331115 0
M  V30 2623 H 259.118 -7.69689 0.69275 0
M  V30 2624 H 257.463 -6.92264 0.616087 0
M  V30 2625 H 260.654 -4.67932 0.125258 0
M  V30 2626 H 260.827 -6.46599 0.425831 0
M  V30 2627 N 254.233 0.115231 -1.57178 0
M  V30 2628 C 255.458 0.840354 -1.89612 0
M  V30 2629 C 255.883 1.72464 -0.750845 0
M  V30 2630 O 255.241 1.78826 0.298478 0
M  V30 2631 C 255.289 1.64654 -3.20814 0
M  V30 2632 O 254.393 2.7538 -3.06985 0
M  V30 2633 H 253.734 0.232158 -0.622092 0
M  V30 2634 H 256.264 0.0964977 -2.04372 0
M  V30 2635 H 256.274 2.03499 -3.53627 0
M  V30 2636 H 254.949 0.997416 -4.03763 0
M  V30 2637 H 253.526 2.3971 -2.85646 0
M  V30 2638 N 255.711 1.52812 0.385517 0
M  V30 2639 C 256.959 1.67694 1.12797 0
M  V30 2640 C 257.28 0.421115 1.90399 0
M  V30 2641 O 256.55 -0.564551 1.87589 0
M  V30 2642 H 255.13 0.618155 0.419396 0
M  V30 2643 H 257.792 1.89938 0.436972 0
M  V30 2644 H 256.888 2.52896 1.82894 0
M  V30 2645 N 257.189 -0.644168 1.43834 0
M  V30 2646 C 258.419 -1.42939 1.49171 0
M  V30 2647 C 258.827 -1.88874 0.111048 0
M  V30 2648 O 258.17 -1.60656 -0.8908 0
M  V30 2649 C 258.232 -2.69151 2.38324 0
M  V30 2650 C 257.896 -2.45097 3.85715 0
M  V30 2651 C 258.893 -2.07747 4.76589 0
M  V30 2652 C 256.578 -2.59141 4.30292 0
M  V30 2653 C 258.572 -1.8475 6.10038 0
M  V30 2654 C 256.259 -2.35759 5.63792 0
M  V30 2655 C 257.257 -1.9862 6.53482 0
M  V30 2656 O 256.945 -1.75489 7.84512 0
M  V30 2657 H 256.677 -0.445271 0.508635 0
M  V30 2658 H 259.231 -0.79621 1.8934 0
M  V30 2659 H 257.461 -3.3506 1.93058 0
M  V30 2660 H 259.15 -3.31123 2.3476 0
M  V30 2661 H 259.916 -1.96465 4.43426 0
M  V30 2662 H 255.795 -2.87022 3.60749 0
M  V30 2663 H 259.339 -1.55686 6.80006 0
M  V30 2664 H 255.236 -2.46646 5.9652 0
M  V30 2665 H 256.004 -1.89841 7.9618 0
M  V30 2666 N 258.668 -1.30515 -0.883378 0
M  V30 2667 C 259.896 -1.22359 -1.66841 0
M  V30 2668 C 260.311 0.213296 -1.87591 0
M  V30 2669 O 259.668 1.14075 -1.42454 0
M  V30 2670 C 259.719 -1.95011 -3.04389 0
M  V30 2671 O 259.44 -3.3309 -2.84575 0
M  V30 2672 C 260.941 -1.93532 -3.98824 0
M  V30 2673 H 258.161 -0.423371 -0.520575 0
M  V30 2674 H 260.705 -1.72167 -1.10357 0
M  V30 2675 H 258.86 -1.48997 -3.57601 0
M  V30 2676 H 259.274 -3.69907 -3.71846 0
M  V30 2677 H 260.748 -2.48902 -4.92699 0
M  V30 2678 H 261.225 -0.914627 -4.29571 0
M  V30 2679 H 261.831 -2.39364 -3.51547 0
M  V30 2680 N 260.146 1.09593 -1.13257 0
M  V30 2681 C 261.395 1.81105 -0.887917 0
M  V30 2682 C 261.708 1.86563 0.587672 0
M  V30 2683 O 262.914 2.54367 0.949204 0
M  V30 2684 C 261.37 3.25338 -1.53895 0
M  V30 2685 C 260.978 3.28151 -3.04994 0
M  V30 2686 C 262.722 4.01617 -1.37492 0
M  V30 2687 C 260.629 4.66897 -3.6299 0
M  V30 2688 H 259.559 0.678661 -0.328534 0
M  V30 2689 H 262.21 1.23183 -1.36008 0
M  V30 2690 H 260.592 3.8331 -0.994446 0
M  V30 2691 H 261.766 2.79953 -3.66009 0
M  V30 2692 H 260.081 2.65361 -3.20893 0
M  V30 2693 H 262.678 5.04119 -1.78235 0
M  V30 2694 H 263.021 4.15072 -0.31957 0
M  V30 2695 H 263.554 3.50082 -1.88912 0
M  V30 2696 H 260.293 4.58643 -4.68323 0
M  V30 2697 H 259.813 5.15426 -3.06752 0
M  V30 2698 H 261.492 5.3587 -3.62563 0
M  V30 2699 N 261.624 0.925811 1.2754 0
M  V30 2700 C 262.574 0.394488 2.24561 0
M  V30 2701 C 263.558 -0.500183 1.52928 0
M  V30 2702 O 264.75 -0.337936 1.73744 0
M  V30 2703 C 261.879 -0.353328 3.41477 0
M  V30 2704 C 260.965 0.557752 4.20416 0
M  V30 2705 N 261.356 1.67674 4.77199 0
M  V30 2706 C 259.654 0.360404 4.44541 0
M  V30 2707 C 260.355 2.24324 5.36706 0
M  V30 2708 N 259.331 1.53305 5.21535 0
M  V30 2709 H 263.133 1.2489 2.66045 0
M  V30 2710 H 260.647 0.779864 1.4245 0
M  V30 2711 H 262.644 -0.7509 4.10082 0
M  V30 2712 H 261.304 -1.20469 3.01525 0
M  V30 2713 H 262.315 2.05915 4.75204 0
M  V30 2714 H 258.992 -0.450454 4.15063 0
M  V30 2715 H 260.382 3.18521 5.91603 0
M  V30 2716 N 263.102 -1.41638 0.69111 0
M  V30 2717 C 264.348 -2.01598 0.220519 0
M  V30 2718 C 264.681 -1.54594 -1.17535 0
M  V30 2719 O 263.956 -0.755177 -1.79241 0
M  V30 2720 C 264.239 -3.59062 0.273243 0
M  V30 2721 C 264.092 -4.16203 1.70573 0
M  V30 2722 C 265.411 -4.38546 -0.369457 0
M  V30 2723 H 262.53 -0.732468 0.0816045 0
M  V30 2724 H 265.172 -1.68445 0.878986 0
M  V30 2725 H 263.322 -3.87435 -0.287411 0
M  V30 2726 H 264.994 -3.98722 2.31989 0
M  V30 2727 H 263.237 -3.71414 2.2413 0
M  V30 2728 H 263.908 -5.25358 1.69419 0
M  V30 2729 H 266.384 -4.1596 0.107977 0
M  V30 2730 H 265.26 -5.48069 -0.302002 0
M  V30 2731 H 265.521 -4.17662 -1.44951 0
M  V30 2732 N 264.58 -0.43555 -1.51462 0
M  V30 2733 C 265.512 0.41257 -2.25456 0
M  V30 2734 C 266.525 0.987822 -1.29406 0
M  V30 2735 O 267.714 0.882266 -1.55172 0
M  V30 2736 C 264.814 1.58894 -2.99342 0
M  V30 2737 C 263.987 1.13288 -4.22474 0
M  V30 2738 C 263.046 2.17917 -4.78956 0
M  V30 2739 O 262.072 1.77425 -5.40841 0
M  V30 2740 N 263.274 3.50382 -4.62832 0
M  V30 2741 H 266.039 -0.221603 -2.9888 0
M  V30 2742 H 263.6 -0.264342 -1.59727 0
M  V30 2743 H 265.592 2.28508 -3.34015 0
M  V30 2744 H 264.162 2.12849 -2.28941 0
M  V30 2745 H 263.382 0.263881 -3.93316 0
M  V30 2746 H 264.67 0.805542 -5.02383 0
M  V30 2747 H 264.068 3.86013 -4.13534 0
M  V30 2748 H 262.625 4.15895 -5.01871 0
M  V30 2749 N 266.058 1.56714 -0.166846 0
M  V30 2750 C 267.298 1.98641 0.481763 0
M  V30 2751 C 267.662 1.05038 1.6072 0
M  V30 2752 O 268.863 1.36087 2.31805 0
M  V30 2753 C 267.134 3.44362 0.956517 0
M  V30 2754 S 268.693 4.08317 1.60694 0
M  V30 2755 H 265.511 0.693873 0.155116 0
M  V30 2756 H 268.113 1.93719 -0.263251 0
M  V30 2757 H 266.817 4.10204 0.126936 0
M  V30 2758 H 266.348 3.53041 1.73568 0
M  V30 2759 H 268.363 4.02999 2.89494 0
M  V30 2760 N 267.536 -0.106894 1.57237 0
M  V30 2761 C 268.484 -1.14944 2.02215 0
M  V30 2762 C 269.478 -1.42167 0.92114 0
M  V30 2763 O 270.684 -1.41987 1.10634 0
M  V30 2764 H 267.059 -0.387841 0.64427 0
M  V30 2765 H 269.03 -0.743683 2.88984 0
M  V30 2766 C 267.779 -2.4647 2.4525 0
M  V30 2767 H 267.102 -2.26363 3.29545 0
M  V30 2768 H 268.542 -3.17948 2.80508 0
M  V30 2769 C 267.001 -3.09921 1.321 0
M  V30 2770 O 267.531 -3.9651 0.643622 0
M  V30 2771 N 265.737 -2.69986 1.07497 0
M  V30 2772 H 265.284 -1.99667 1.62761 0
M  V30 2773 H 265.242 -3.12769 0.319876 0
M  V30 2774 N 269.014 -1.53014 -0.377408 0
M  V30 2775 C 269.977 -1.77957 -1.44444 0
M  V30 2776 C 270.977 -0.649763 -1.47087 0
M  V30 2777 O 272.167 -0.917897 -1.48055 0
M  V30 2778 C 269.299 -1.89089 -2.83651 0
M  V30 2779 H 270.492 -2.73243 -1.23606 0
M  V30 2780 H 268.045 -1.43912 -0.609844 0
M  V30 2781 H 268.78 -0.958293 -3.09818 0
M  V30 2782 H 268.565 -2.71254 -2.83132 0
M  V30 2783 H 270.055 -2.1002 -3.60945 0
M  V30 2784 N 270.492 0.636531 -1.44174 0
M  V30 2785 C 271.717 1.42847 -1.50364 0
M  V30 2786 C 272.142 1.87665 -0.127867 0
M  V30 2787 O 271.5 1.58408 0.88185 0
M  V30 2788 C 271.548 2.62854 -2.4686 0
M  V30 2789 O 270.652 3.62501 -1.9664 0
M  V30 2790 H 269.993 0.427642 -0.507955 0
M  V30 2791 H 272.523 0.777422 -1.89255 0
M  V30 2792 H 272.533 3.10465 -2.64718 0
M  V30 2793 H 271.208 2.29578 -3.46795 0
M  V30 2794 H 269.785 3.21735 -1.88523 0
M  V30 2795 N 271.97 1.30982 0.876444 0
M  V30 2796 C 272.917 1.18085 1.98304 0
M  V30 2797 C 273.887 0.0682263 1.6596 0
M  V30 2798 O 275.072 0.239937 1.89285 0
M  V30 2799 C 272.212 0.887475 3.33493 0
M  V30 2800 C 271.325 2.08281 3.78475 0
M  V30 2801 C 270.46 1.72678 5.0235 0
M  V30 2802 C 269.499 2.88657 5.39762 0
M  V30 2803 N 268.636 2.53292 6.54819 0
M  V30 2804 H 273.476 2.1275 2.08666 0
M  V30 2805 H 271.013 1.05839 1.02159 0
M  V30 2806 H 272.971 0.697961 4.1132 0
M  V30 2807 H 271.601 -0.022315 3.22792 0
M  V30 2808 H 270.653 2.3833 2.96484 0
M  V30 2809 H 271.965 2.95108 4.02135 0
M  V30 2810 H 271.119 1.50151 5.87826 0
M  V30 2811 H 269.858 0.830327 4.8058 0
M  V30 2812 H 268.863 3.1184 4.52809 0
M  V30 2813 H 270.088 3.79002 5.63502 0
M  V30 2814 H 268.034 1.66163 6.34607 0
M  V30 2815 H 267.951 3.3365 6.7839 0
M  V30 2816 H 269.219 2.34143 7.43503 0
M  V30 2817 N 273.449 -1.08991 1.13837 0
M  V30 2818 C 274.696 -1.81258 0.902882 0
M  V30 2819 C 275.024 -1.85936 -0.570803 0
M  V30 2820 O 274.279 -1.3267 -1.43865 0
M  V30 2821 C 274.578 -3.27042 1.44147 0
M  V30 2822 C 274.244 -3.4249 2.93276 0
M  V30 2823 C 272.906 -3.46414 3.33992 0
M  V30 2824 C 275.258 -3.4666 3.892 0
M  V30 2825 C 272.586 -3.52091 4.69307 0
M  V30 2826 C 274.938 -3.53872 5.24364 0
M  V30 2827 C 273.602 -3.56066 5.646 0
M  V30 2828 H 272.872 -0.663268 0.330388 0
M  V30 2829 H 275.519 -1.28368 1.42105 0
M  V30 2830 H 273.824 -3.82599 0.844097 0
M  V30 2831 H 275.521 -3.81499 1.23528 0
M  V30 2832 H 272.111 -3.40124 2.60794 0
M  V30 2833 H 276.295 -3.42865 3.58828 0
M  V30 2834 H 271.551 -3.52079 4.9985 0
M  V30 2835 H 275.725 -3.56043 5.98503 0
M  V30 2836 H 273.352 -3.60218 6.69438 0
M  V30 2837 N 274.927 -0.932562 -1.27047 0
M  V30 2838 C 275.877 -0.406392 -2.24349 0
M  V30 2839 C 276.861 0.492066 -1.53191 0
M  V30 2840 O 278.053 0.328717 -1.73921 0
M  V30 2841 C 275.182 0.335214 -3.41659 0
M  V30 2842 C 274.268 -0.58004 -4.20115 0
M  V30 2843 N 274.659 -1.70203 -4.76303 0
M  V30 2844 C 272.957 -0.383974 -4.44344 0
M  V30 2845 C 273.658 -2.27167 -5.35509 0
M  V30 2846 N 272.634 -1.56068 -5.20715 0
M  V30 2847 H 276.436 -1.26299 -2.65378 0
M  V30 2848 H 273.95 -0.787408 -1.42034 0
M  V30 2849 H 275.947 0.729142 -4.10474 0
M  V30 2850 H 274.607 1.18868 -3.0216 0
M  V30 2851 H 275.618 -2.08433 -4.74106 0
M  V30 2852 H 272.295 0.428436 -4.15296 0
M  V30 2853 H 273.685 -3.21654 -5.89905 0
M  V30 2854 N 276.405 1.4127 -0.698611 0
M  V30 2855 C 277.337 2.292 0.00399731 0
M  V30 2856 C 278.35 1.44944 0.741279 0
M  V30 2857 O 279.539 1.68416 0.591477 0
M  V30 2858 C 276.639 3.22875 1.02979 0
M  V30 2859 C 275.812 4.35904 0.36151 0
M  V30 2860 C 274.871 5.10134 1.29033 0
M  V30 2861 O 273.897 5.63809 0.781562 0
M  V30 2862 N 275.099 5.17885 2.6225 0
M  V30 2863 H 277.864 2.9014 -0.750921 0
M  V30 2864 H 275.425 1.52455 -0.544882 0
M  V30 2865 H 277.417 3.69404 1.65296 0
M  V30 2866 H 275.987 2.63221 1.68622 0
M  V30 2867 H 275.207 3.91719 -0.441584 0
M  V30 2868 H 276.495 5.08696 -0.103055 0
M  V30 2869 H 275.893 4.7573 3.061 0
M  V30 2870 H 274.45 5.6798 3.19754 0
M  V30 2871 N 277.883 0.443576 1.51229 0
M  V30 2872 C 279.131 -0.120557 2.0174 0
M  V30 2873 C 279.452 -1.42665 1.32935 0
M  V30 2874 O 278.722 -1.9028 0.465866 0
M  V30 2875 H 277.302 -0.0475426 0.745486 0
M  V30 2876 H 279.964 0.587711 1.85828 0
M  V30 2877 H 279.06 -0.291972 3.10731 0
M  V30 2878 N 279.361 -1.56624 0.175154 0
M  V30 2879 C 280.589 -2.01374 -0.474971 0
M  V30 2880 C 281.004 -1.05537 -1.56548 0
M  V30 2881 O 280.361 -0.0568668 -1.82411 0
M  V30 2882 C 280.412 -3.45923 -1.04975 0
M  V30 2883 O 280.133 -4.381 -0.00276605 0
M  V30 2884 C 281.634 -4.06093 -1.77773 0
M  V30 2885 H 278.854 -0.659962 -0.121206 0
M  V30 2886 H 281.398 -2.02601 0.27801 0
M  V30 2887 H 279.553 -3.45458 -1.75321 0
M  V30 2888 H 279.967 -5.22753 -0.427681 0
M  V30 2889 H 281.441 -5.09147 -2.13245 0
M  V30 2890 H 281.918 -3.48405 -2.67414 0
M  V30 2891 H 282.524 -4.10272 -1.12059 0
M  V30 2892 N 280.839 0.0985539 -1.57292 0
M  V30 2893 C 281.769 1.12064 -2.04851 0
M  V30 2894 C 282.75 1.41981 -0.936767 0
M  V30 2895 O 283.935 1.52071 -1.20781 0
M  V30 2896 C 281.065 2.44144 -2.47004 0
M  V30 2897 C 280.019 2.28643 -3.6181 0
M  V30 2898 C 279.345 3.65869 -3.89929 0
M  V30 2899 C 280.645 1.72986 -4.92822 0
M  V30 2900 H 282.339 0.724979 -2.9049 0
M  V30 2901 H 279.885 0.34729 -1.39749 0
M  V30 2902 H 281.838 3.15914 -2.78884 0
M  V30 2903 H 280.562 2.85639 -1.5836 0
M  V30 2904 H 279.221 1.59318 -3.30172 0
M  V30 2905 H 278.869 4.04885 -2.98458 0
M  V30 2906 H 278.569 3.56344 -4.67218 0
M  V30 2907 H 280.093 4.39112 -4.2428 0
M  V30 2908 H 281.507 2.34593 -5.23105 0
M  V30 2909 H 279.904 1.74229 -5.74251 0
M  V30 2910 H 280.974 0.689007 -4.7998 0
M  V30 2911 N 282.317 1.53212 0.369288 0
M  V30 2912 C 283.566 1.68436 1.10961 0
M  V30 2913 C 283.879 0.440738 1.9057 0
M  V30 2914 O 285.085 0.473446 2.6734 0
M  V30 2915 C 283.541 2.97744 2.0218 0
M  V30 2916 C 283.149 4.29355 1.279 0
M  V30 2917 C 284.893 3.22334 2.76226 0
M  V30 2918 C 282.8 5.49755 2.17999 0
M  V30 2919 H 281.73 0.627568 0.41794 0
M  V30 2920 H 284.381 1.79713 0.370884 0
M  V30 2921 H 282.763 2.8026 2.79768 0
M  V30 2922 H 283.937 4.57458 0.554007 0
M  V30 2923 H 282.252 4.11179 0.657311 0
M  V30 2924 H 284.849 4.09471 3.43857 0
M  V30 2925 H 285.192 2.38238 3.41392 0
M  V30 2926 H 285.725 3.40475 2.05723 0
M  V30 2927 H 282.464 6.36318 1.57417 0
M  V30 2928 H 281.984 5.25937 2.88359 0
M  V30 2929 H 283.663 5.84401 2.77641 0
M  V30 2930 N 283.795 -0.628877 1.44509 0
M  V30 2931 C 285.041 -1.39045 1.47629 0
M  V30 2932 C 285.374 -1.93892 0.109343 0
M  V30 2933 O 284.649 -1.7379 -0.87334 0
M  V30 2934 C 284.932 -2.55408 2.53848 0
M  V30 2935 C 284.785 -2.05896 3.99909 0
M  V30 2936 C 286.104 -3.5759 2.56549 0
M  V30 2937 H 283.223 -0.504232 0.537512 0
M  V30 2938 H 285.865 -0.710854 1.76201 0
M  V30 2939 H 284.015 -3.13384 2.29615 0
M  V30 2940 H 285.687 -1.52734 4.35282 0
M  V30 2941 H 283.93 -1.37061 4.11578 0
M  V30 2942 H 284.601 -2.89681 4.69882 0
M  V30 2943 H 287.077 -3.09419 2.78207 0
M  V30 2944 H 285.953 -4.36527 3.32769 0
M  V30 2945 H 286.214 -4.11808 1.60832 0
M  V30 2946 N 285.273 -1.31445 -0.869486 0
M  V30 2947 C 286.236 -1.19094 -1.9583 0
M  V30 2948 C 287.236 -0.117906 -1.60367 0
M  V30 2949 O 288.426 -0.367208 -1.70286 0
M  V30 2950 C 285.558 -0.828165 -3.30688 0
M  V30 2951 H 286.751 -2.15842 -2.08212 0
M  V30 2952 H 284.304 -1.15063 -1.05784 0
M  V30 2953 H 285.039 0.138142 -3.24006 0
M  V30 2954 H 284.824 -1.6038 -3.578 0
M  V30 2955 H 286.314 -0.765658 -4.10521 0
M  V30 2956 N 286.751 1.08385 -1.14413 0
M  V30 2957 C 287.681 2.17321 -0.854044 0
M  V30 2958 C 288.662 1.69024 0.191049 0
M  V30 2959 O 289.847 1.94141 0.0476779 0
M  V30 2960 C 286.977 3.45719 -0.330983 0
M  V30 2961 C 285.931 4.07409 -1.31155 0
M  V30 2962 C 285.257 5.30762 -0.64778 0
M  V30 2963 C 286.557 4.48665 -2.67388 0
M  V30 2964 H 288.251 2.41845 -1.76498 0
M  V30 2965 H 285.797 1.16233 -0.850051 0
M  V30 2966 H 287.75 4.21241 -0.115645 0
M  V30 2967 H 286.474 3.2075 0.615381 0
M  V30 2968 H 285.133 3.33919 -1.51306 0
M  V30 2969 H 284.781 5.02078 0.304398 0
M  V30 2970 H 284.481 5.72992 -1.30207 0
M  V30 2971 H 286.005 6.08998 -0.441972 0
M  V30 2972 H 287.419 5.15364 -2.51143 0
M  V30 2973 H 285.816 5.01814 -3.29093 0
M  V30 2974 H 286.886 3.60543 -3.24248 0
M  V30 2975 N 288.23 0.939286 1.26551 0
M  V30 2976 C 289.479 0.581601 1.93133 0
M  V30 2977 C 289.792 -0.883224 1.74524 0
M  V30 2978 O 290.998 -1.3502 2.35546 0
M  V30 2979 C 289.454 0.989425 3.46032 0
M  V30 2980 C 289.062 2.47573 3.73379 0
M  V30 2981 C 290.806 0.703544 4.18629 0
M  V30 2982 C 288.713 2.82235 5.19709 0
M  V30 2983 H 287.643 0.213803 0.723052 0
M  V30 2984 H 290.294 1.14167 1.4366 0
M  V30 2985 H 288.676 0.357902 3.94379 0
M  V30 2986 H 289.85 3.15614 3.35744 0
M  V30 2987 H 288.165 2.73471 3.1401 0
M  V30 2988 H 290.762 0.938869 5.26393 0
M  V30 2989 H 291.105 -0.359639 4.14744 0
M  V30 2990 H 291.638 1.2947 3.76141 0
M  V30 2991 H 288.377 3.87509 5.28694 0
M  V30 2992 H 287.897 2.18854 5.58447 0
M  V30 2993 H 289.576 2.70599 5.87695 0
M  V30 2994 N 289.708 -1.40897 0.706093 0
M  V30 2995 C 291.119 -1.84023 0.315052 0
M  V30 2996 C 291.47 -1.5906 -1.14866 0
M  V30 2997 O 290.595 -1.06651 -1.88293 0
M  V30 2998 C 291.19 -3.34055 0.565038 0
M  V30 2999 C 289.749 -3.7571 0.227806 0
M  V30 3000 C 288.896 -2.64204 0.842122 0
M  V30 3001 H 291.847 -1.303 0.905963 0
M  V30 3002 H 291.868 -3.80107 -0.172843 0
M  V30 3003 H 291.38 -3.52192 1.63042 0
M  V30 3004 H 289.481 -3.63172 -0.832895 0
M  V30 3005 H 289.594 -4.74103 0.690174 0
M  V30 3006 H 287.958 -2.53255 0.270893 0
M  V30 3007 H 288.741 -2.85155 1.91158 0
M  V30 3008 N 291.186 -0.45159 -1.50991 0
M  V30 3009 C 292.096 0.358431 -2.31846 0
M  V30 3010 C 293.112 1.01438 -1.41373 0
M  V30 3011 O 294.288 1.00663 -1.74439 0
M  V30 3012 C 291.353 1.43704 -3.15515 0
M  V30 3013 C 290.414 0.799742 -4.21785 0
M  V30 3014 C 289.647 1.82696 -5.01456 0
M  V30 3015 O 289.87 3.05105 -4.81941 0
M  V30 3016 O 288.804 1.40958 -5.85162 0
M  V30 3017 H 292.63 -0.302032 -3.02194 0
M  V30 3018 H 290.215 -0.213825 -1.47862 0
M  V30 3019 H 292.097 2.06227 -3.67489 0
M  V30 3020 H 290.772 2.08133 -2.47916 0
M  V30 3021 H 289.679 0.136084 -3.73852 0
M  V30 3022 H 291.012 0.198718 -4.91799 0
M  V30 3023 N 292.664 1.56529 -0.183458 0
M  V30 3024 C 293.614 2.1515 0.754605 0
M  V30 3025 C 294.598 1.08904 1.18443 0
M  V30 3026 O 295.79 1.34997 1.14476 0
M  V30 3027 C 292.919 2.80531 1.97881 0
M  V30 3028 C 292.005 3.93952 1.57043 0
M  V30 3029 N 292.396 4.98221 0.87231 0
M  V30 3030 C 290.694 4.05338 1.86057 0
M  V30 3031 C 291.395 5.77836 0.669377 0
M  V30 3032 N 290.371 5.29858 1.21454 0
M  V30 3033 H 294.173 2.93132 0.212387 0
M  V30 3034 H 291.687 1.62391 0.0167725 0
M  V30 3035 H 293.684 3.20914 2.6612 0
M  V30 3036 H 292.344 2.04035 2.52586 0
M  V30 3037 H 293.355 5.15191 0.529033 0
M  V30 3038 H 290.032 3.39957 2.42354 0
M  V30 3039 H 291.422 6.71799 0.116422 0
M  V30 3040 N 294.142 -0.090211 1.57342 0
M  V30 3041 C 295.074 -1.13541 1.99101 0
M  V30 3042 C 296.087 -1.3604 0.894258 0
M  V30 3043 O 297.276 -1.34606 1.17233 0
M  V30 3044 C 294.376 -2.49001 2.29895 0
M  V30 3045 C 293.549 -2.46712 3.61182 0
M  V30 3046 C 292.608 -3.64136 3.79857 0
M  V30 3047 O 291.634 -3.46405 4.51655 0
M  V30 3048 N 292.836 -4.83802 3.20806 0
M  V30 3049 H 295.601 -0.779942 2.89373 0
M  V30 3050 H 293.162 -0.279125 1.59476 0
M  V30 3051 H 295.154 -3.26166 2.39578 0
M  V30 3052 H 293.724 -2.76619 1.45605 0
M  V30 3053 H 292.944 -1.55058 3.62423 0
M  V30 3054 H 294.232 -2.42265 4.4742 0
M  V30 3055 H 293.63 -5.01112 2.62494 0
M  V30 3056 H 292.187 -5.58543 3.35966 0
M  V30 3057 N 295.62 -1.53406 -0.361157 0
M  V30 3058 C 296.869 -1.69022 -1.10066 0
M  V30 3059 C 297.182 -0.450838 -1.90333 0
M  V30 3060 O 298.388 -0.487617 -2.67085 0
M  V30 3061 C 296.844 -2.98812 -2.00598 0
M  V30 3062 C 296.452 -4.30027 -1.25621 0
M  V30 3063 C 298.196 -3.23795 -2.74513 0
M  V30 3064 C 296.103 -5.50903 -2.1508 0
M  V30 3065 H 295.033 -0.629776 -0.414606 0
M  V30 3066 H 297.684 -1.79907 -0.361348 0
M  V30 3067 H 296.066 -2.8174 -2.78278 0
M  V30 3068 H 297.24 -4.57745 -0.529739 0
M  V30 3069 H 295.555 -4.11522 -0.635496 0
M  V30 3070 H 298.152 -4.11289 -3.41681 0
M  V30 3071 H 298.495 -2.40045 -3.40123 0
M  V30 3072 H 299.028 -3.41561 -2.03914 0
M  V30 3073 H 295.767 -6.37143 -1.54041 0
M  V30 3074 H 295.287 -5.27459 -2.85565 0
M  V30 3075 H 296.966 -5.85865 -2.74538 0
M  V30 3076 N 297.098 0.621204 -1.44841 0
M  V30 3077 C 298.061 1.71459 -1.521 0
M  V30 3078 C 299.061 1.55696 -0.401933 0
M  V30 3079 O 300.251 1.61011 -0.664925 0
M  V30 3080 C 297.383 3.10624 -1.40447 0
M  V30 3081 H 298.576 1.66394 -2.49506 0
M  V30 3082 H 296.129 0.835745 -1.3208 0
M  V30 3083 H 296.864 3.21277 -0.441737 0
M  V30 3084 H 296.649 3.23473 -2.21602 0
M  V30 3085 H 298.139 3.90293 -1.4853 0
M  V30 3086 N 298.576 1.31904 0.862503 0
M  V30 3087 C 299.801 1.25135 1.65397 0
M  V30 3088 C 300.226 -0.179 1.87246 0
M  V30 3089 O 299.584 -1.1277 1.4196 0
M  V30 3090 C 299.632 2.00832 2.99498 0
M  V30 3091 O 298.736 1.35075 3.89652 0
M  V30 3092 H 298.077 0.431655 0.504549 0
M  V30 3093 H 300.607 1.74094 1.07483 0
M  V30 3094 H 300.617 2.10709 3.49379 0
M  V30 3095 H 299.292 3.04847 2.82916 0
M  V30 3096 H 297.869 1.33696 3.48109 0
M  V30 3097 N 300.054 -1.07777 1.14986 0
M  V30 3098 C 301.017 -2.13041 0.845358 0
M  V30 3099 C 302.017 -1.60071 -0.152931 0
M  V30 3100 O 303.207 -1.74033 0.0761879 0
M  V30 3101 C 300.339 -3.39896 0.261383 0
M  V30 3102 H 301.532 -2.41485 1.77834 0
M  V30 3103 H 299.085 -1.23595 0.956757 0
M  V30 3104 H 299.82 -3.17091 -0.68 0
M  V30 3105 H 299.605 -3.79642 0.980514 0
M  V30 3106 H 301.095 -4.17548 0.0657687 0
M  V30 3107 N 301.532 -0.945985 -1.26051 0
M  V30 3108 C 302.462 -0.477172 -2.28572 0
M  V30 3109 C 303.443 0.472032 -1.63419 0
M  V30 3110 O 304.628 0.372853 -1.90587 0
M  V30 3111 C 301.758 0.253975 -3.4637 0
M  V30 3112 C 300.712 -0.609135 -4.23643 0
M  V30 3113 C 300.038 0.252252 -5.34105 0
M  V30 3114 C 301.338 -1.8829 -4.8718 0
M  V30 3115 H 303.032 -1.33402 -2.68038 0
M  V30 3116 H 300.578 -0.642904 -1.28852 0
M  V30 3117 H 302.531 0.593016 -4.17207 0
M  V30 3118 H 301.255 1.145 -3.05871 0
M  V30 3119 H 299.914 -0.931138 -3.54578 0
M  V30 3120 H 299.562 1.14278 -4.89846 0
M  V30 3121 H 299.262 -0.32188 -5.86718 0
M  V30 3122 H 300.786 0.586454 -6.07777 0
M  V30 3123 H 302.2 -1.61081 -5.50205 0
M  V30 3124 H 300.597 -2.40199 -5.49931 0
M  V30 3125 H 301.667 -2.59134 -4.09851 0
M  V30 3126 N 303.011 1.40521 -0.713556 0
M  V30 3127 C 303.961 2.27971 -0.036165 0
M  V30 3128 C 304.945 1.43151 0.734623 0
M  V30 3129 O 306.137 1.66261 0.607158 0
M  V30 3130 C 303.266 3.31661 0.886331 0
M  V30 3131 C 302.352 4.23955 0.110836 0
M  V30 3132 N 302.743 4.97641 -0.904847 0
M  V30 3133 C 301.041 4.44674 0.343692 0
M  V30 3134 C 301.742 5.65322 -1.37064 0
M  V30 3135 N 300.718 5.39162 -0.693168 0
M  V30 3136 H 304.52 2.82384 -0.814645 0
M  V30 3137 H 302.034 1.52948 -0.545963 0
M  V30 3138 H 304.031 3.93154 1.38692 0
M  V30 3139 H 302.691 2.78808 1.66421 0
M  V30 3140 H 303.702 5.01689 -1.28563 0
M  V30 3141 H 300.379 4.02801 1.09805 0
M  V30 3142 H 301.769 6.34359 -2.21447 0
M  V30 3143 N 304.489 0.459591 1.5075 0
M  V30 3144 C 305.737 -0.0991532 2.01857 0
M  V30 3145 C 306.058 -1.41247 1.34441 0
M  V30 3146 O 305.328 -1.89775 0.486022 0
M  V30 3147 H 303.908 -0.039633 0.745948 0
M  V30 3148 H 306.57 0.607387 1.85194 0
M  V30 3149 H 305.666 -0.258998 3.11023 0
M  V30 3150 N 305.967 -1.56429 0.191757 0
M  V30 3151 C 306.915 -2.20273 -0.747174 0
M  V30 3152 C 307.909 -1.17288 -1.22229 0
M  V30 3153 O 309.115 -1.35441 -1.18557 0
M  V30 3154 H 305.49 -0.705885 -0.259289 0
M  V30 3155 H 307.461 -2.97826 -0.184963 0
M  V30 3156 C 306.21 -2.87356 -1.95759 0
M  V30 3157 H 305.533 -3.66341 -1.60106 0
M  V30 3158 H 306.973 -3.3547 -2.59299 0
M  V30 3159 C 305.432 -1.88213 -2.79423 0
M  V30 3160 O 305.962 -1.38033 -3.7724 0
M  V30 3161 N 304.168 -1.56516 -2.44849 0
M  V30 3162 H 303.715 -1.97516 -1.65364 0
M  V30 3163 H 303.673 -0.904369 -3.01112 0
M  V30 3164 N 307.445 0.0818655 -1.57387 0
M  V30 3165 C 308.691 0.784074 -1.8703 0
M  V30 3166 C 309.024 1.77729 -0.782689 0
M  V30 3167 O 308.299 1.93384 0.208051 0
M  V30 3168 C 308.582 1.50105 -3.27323 0
M  V30 3169 C 308.435 0.524925 -4.46727 0
M  V30 3170 C 309.754 2.44843 -3.65705 0
M  V30 3171 H 306.873 0.283582 -0.680257 0
M  V30 3172 H 309.515 0.0474352 -1.89941 0
M  V30 3173 H 307.665 2.12897 -3.24972 0
M  V30 3174 H 309.337 -0.0970111 -4.61198 0
M  V30 3175 H 307.58 -0.160606 -4.33503 0
M  V30 3176 H 308.251 1.064 -5.41648 0
M  V30 3177 H 310.727 1.92135 -3.69085 0
M  V30 3178 H 309.603 2.92018 -4.64776 0
M  V30 3179 H 309.864 3.29197 -2.95096 0
M  V30 3180 N 308.923 1.53595 0.353017 0
M  V30 3181 C 309.871 1.81605 1.45335 0
M  V30 3182 C 310.865 0.685923 1.54892 0
M  V30 3183 O 312.071 0.869095 1.57628 0
M  V30 3184 H 308.446 0.575204 0.484401 0
M  V30 3185 H 310.417 2.73679 1.18921 0
M  V30 3186 C 309.166 2.03406 2.81995 0
M  V30 3187 H 308.489 2.89814 2.75405 0
M  V30 3188 H 309.929 2.26975 3.58132 0
M  V30 3189 C 308.388 0.816794 3.26849 0
M  V30 3190 O 308.918 0.0115856 4.01698 0
M  V30 3191 N 307.124 0.636682 2.8354 0
M  V30 3192 H 306.671 1.2931 2.22793 0
M  V30 3193 H 306.629 -0.176336 3.13905 0
M  V30 3194 N 310.401 -0.613514 1.45168 0
M  V30 3195 C 311.647 -1.37471 1.49096 0
M  V30 3196 C 311.98 -1.93765 0.129901 0
M  V30 3197 O 311.255 -1.74707 -0.854858 0
M  V30 3198 C 311.538 -2.52701 2.56542 0
M  V30 3199 C 311.391 -2.01643 4.0207 0
M  V30 3200 C 312.71 -3.54849 2.60327 0
M  V30 3201 H 309.829 -0.498502 0.54283 0
M  V30 3202 H 312.471 -0.692125 1.76945 0
M  V30 3203 H 310.621 -3.10931 2.32926 0
M  V30 3204 H 312.293 -1.48108 4.36877 0
M  V30 3205 H 310.536 -1.32688 4.13009 0
M  V30 3206 H 311.207 -2.84681 4.72928 0
M  V30 3207 H 313.683 -3.0645 2.81474 0
M  V30 3208 H 312.559 -4.32973 3.37381 0
M  V30 3209 H 312.82 -4.10079 1.6519 0
M  V30 3210 N 311.879 -1.3236 -0.855495 0
M  V30 3211 C 313.127 -1.22629 -1.60644 0
M  V30 3212 C 313.448 0.212136 -1.93843 0
M  V30 3213 O 312.718 1.13666 -1.59552 0
M  V30 3214 H 311.298 -0.450882 -0.595579 0
M  V30 3215 H 313.96 -1.65871 -1.02337 0
M  V30 3216 H 313.056 -1.80832 -2.54374 0
M  V30 3217 N 313.357 1.07166 -1.15556 0
M  V30 3218 C 314.587 1.83248 -0.954133 0
M  V30 3219 C 314.995 1.82449 0.500911 0
M  V30 3220 O 314.338 1.23575 1.35923 0
M  V30 3221 C 314.4 3.31393 -1.39351 0
M  V30 3222 C 314.064 3.5591 -2.86666 0
M  V30 3223 C 315.061 3.49695 -3.8472 0
M  V30 3224 C 312.746 3.83515 -3.24379 0
M  V30 3225 C 314.74 3.70737 -5.18491 0
M  V30 3226 C 312.427 4.04209 -4.58321 0
M  V30 3227 C 313.425 3.97815 -5.55186 0
M  V30 3228 O 313.113 4.17954 -6.86709 0
M  V30 3229 H 312.845 0.584941 -0.338851 0
M  V30 3230 H 315.399 1.36169 -1.53777 0
M  V30 3231 H 313.629 3.79292 -0.75329 0
M  V30 3232 H 315.318 3.88945 -1.16089 0
M  V30 3233 H 316.084 3.28368 -3.56931 0
M  V30 3234 H 311.963 3.87605 -2.49567 0
M  V30 3235 H 315.507 3.65663 -5.94085 0
M  V30 3236 H 311.404 4.25023 -4.85825 0
M  V30 3237 H 312.172 4.35291 -6.93155 0
M  V30 3238 N 314.835 0.952656 1.25548 0
M  V30 3239 C 315.783 0.462354 2.27958 0
M  V30 3240 C 316.777 -0.46634 1.62855 0
M  V30 3241 O 317.983 -0.343287 1.76696 0
M  V30 3242 H 314.358 0.13101 0.7405 0
M  V30 3243 H 316.329 1.33839 2.66702 0
M  V30 3244 C 315.078 -0.24628 3.46827 0
M  V30 3245 H 314.401 0.459192 3.97154 0
M  V30 3246 H 315.841 -0.553393 4.20373 0
M  V30 3247 C 314.3 -1.4681 3.0323 0
M  V30 3248 O 314.83 -2.56591 3.09069 0
M  V30 3249 N 313.036 -1.32874 2.58443 0
M  V30 3250 H 312.583 -0.435536 2.53891 0
M  V30 3251 H 312.541 -2.14742 2.29637 0
M  V30 3252 N 316.313 -1.40141 0.720998 0
M  V30 3253 C 317.543 -2.04798 0.27226 0
M  V30 3254 C 317.951 -1.54442 -1.09289 0
M  V30 3255 O 317.294 -0.698342 -1.69908 0
M  V30 3256 C 317.356 -3.59048 0.18027 0
M  V30 3257 C 317.02 -4.32317 1.48159 0
M  V30 3258 C 318.017 -4.59902 2.42458 0
M  V30 3259 C 315.702 -4.71125 1.74202 0
M  V30 3260 C 317.696 -5.25288 3.61042 0
M  V30 3261 C 315.383 -5.36242 2.93066 0
M  V30 3262 C 316.381 -5.63254 3.86308 0
M  V30 3263 O 316.069 -6.27024 5.03086 0
M  V30 3264 H 315.801 -0.665419 0.119139 0
M  V30 3265 H 318.355 -1.80436 0.981432 0
M  V30 3266 H 316.585 -3.82251 -0.58489 0
M  V30 3267 H 318.274 -4.05221 -0.234618 0
M  V30 3268 H 319.04 -4.30379 2.23604 0
M  V30 3269 H 314.919 -4.49466 1.02477 0
M  V30 3270 H 318.463 -5.46289 4.33837 0
M  V30 3271 H 314.36 -5.65185 3.11826 0
M  V30 3272 H 315.128 -6.4552 5.03235 0
M  V30 3273 N 317.792 -0.46758 -1.50504 0
M  V30 3274 C 319.02 0.0864133 -2.06719 0
M  V30 3275 C 319.435 1.33819 -1.33184 0
M  V30 3276 O 318.792 1.78061 -0.400083 0
M  V30 3277 C 318.843 0.378079 -3.59517 0
M  V30 3278 O 318.564 -0.824044 -4.3028 0
M  V30 3279 C 320.065 0.979426 -4.32345 0
M  V30 3280 H 317.285 -0.00551697 -0.670977 0
M  V30 3281 H 319.829 -0.655354 -1.93715 0
M  V30 3282 H 317.984 1.06977 -3.72337 0
M  V30 3283 H 318.398 -0.566518 -5.21432 0
M  V30 3284 H 319.872 1.1333 -5.40241 0
M  V30 3285 H 320.349 1.9686 -3.9261 0
M  V30 3286 H 320.955 0.326216 -4.24047 0
M  V30 3287 N 319.27 1.56325 -0.20005 0
M  V30 3288 C 320.22 2.15939 0.731743 0
M  V30 3289 C 321.204 1.10154 1.17281 0
M  V30 3290 O 322.396 1.36203 1.13038 0
M  V30 3291 C 319.525 2.82614 1.94895 0
M  V30 3292 C 318.611 3.95596 1.52855 0
M  V30 3293 N 319.002 4.99118 0.819418 0
M  V30 3294 C 317.3 4.07288 1.81748 0
M  V30 3295 C 318.001 5.78513 0.608053 0
M  V30 3296 N 316.977 5.31117 1.15828 0
M  V30 3297 H 320.779 2.9334 0.181285 0
M  V30 3298 H 318.293 1.624 -0.000452172 0
M  V30 3299 H 320.29 3.23718 2.62702 0
M  V30 3300 H 318.95 2.06702 2.50408 0
M  V30 3301 H 319.961 5.15723 0.47436 0
M  V30 3302 H 316.638 3.42509 2.38734 0
M  V30 3303 H 318.028 6.71885 0.0451619 0
M  V30 3304 N 320.748 -0.0735177 1.57428 0
M  V30 3305 C 322.159 -0.625551 1.75908 0
M  V30 3306 C 322.51 -1.78 0.825261 0
M  V30 3307 O 321.635 -2.16398 0.00893964 0
M  V30 3308 C 322.23 -1.14155 3.18989 0
M  V30 3309 C 320.789 -1.63946 3.38819 0
M  V30 3310 C 319.936 -0.558151 2.71625 0
M  V30 3311 H 322.887 0.152647 1.57964 0
M  V30 3312 H 322.908 -2.0104 3.23053 0
M  V30 3313 H 322.42 -0.301116 3.8693 0
M  V30 3314 H 320.521 -2.50321 2.7599 0
M  V30 3315 H 320.634 -1.71759 4.47253 0
M  V30 3316 H 318.998 -1.00278 2.34129 0
M  V30 3317 H 319.781 0.272071 3.4222 0
M  V30 3318 N 322.226 -1.5378 -0.344866 0
M  V30 3319 C 323.474 -1.70625 -1.08311 0
M  V30 3320 C 323.795 -0.471447 -1.89215 0
M  V30 3321 O 323.065 0.514616 -1.8902 0
M  V30 3322 H 321.645 -0.629058 -0.402859 0
M  V30 3323 H 324.307 -1.9103 -0.386459 0
M  V30 3324 H 323.403 -2.57656 -1.76124 0
M  V30 3325 N 323.704 0.605807 -1.45491 0
M  V30 3326 C 324.614 1.74466 -1.56839 0
M  V30 3327 C 325.63 1.68006 -0.452772 0
M  V30 3328 O 326.806 1.8833 -0.713708 0
M  V30 3329 C 323.871 3.10931 -1.53371 0
M  V30 3330 C 322.932 3.28832 -2.75986 0
M  V30 3331 C 322.165 4.58787 -2.72673 0
M  V30 3332 O 322.388 5.4122 -1.80102 0
M  V30 3333 O 321.322 4.79438 -3.63899 0
M  V30 3334 H 325.148 1.67843 -2.53106 0
M  V30 3335 H 322.733 0.770108 -1.28022 0
M  V30 3336 H 324.615 3.92233 -1.54051 0
M  V30 3337 H 323.29 3.18042 -0.602572 0
M  V30 3338 H 322.197 2.47112 -2.80867 0
M  V30 3339 H 323.53 3.26599 -3.68231 0
M  V30 3340 N 325.182 1.32811 0.848464 0
M  V30 3341 C 326.41 1.26739 1.63538 0
M  V30 3342 C 326.825 -0.163484 1.88091 0
M  V30 3343 O 326.182 -1.10258 1.45429 0
M  V30 3344 C 326.233 2.03013 2.99112 0
M  V30 3345 O 325.954 3.40518 2.75643 0
M  V30 3346 C 327.455 2.04038 3.93552 0
M  V30 3347 H 324.675 0.437024 0.509167 0
M  V30 3348 H 327.219 1.75033 1.05753 0
M  V30 3349 H 325.374 1.58426 3.53525 0
M  V30 3350 H 325.788 3.79635 3.61908 0
M  V30 3351 H 327.262 2.61877 4.85926 0
M  V30 3352 H 327.739 1.0282 4.26995 0
M  V30 3353 H 328.345 2.486 3.45077 0
M  V30 3354 N 326.66 -1.06551 1.16123 0
M  V30 3355 C 327.908 -1.78947 0.939267 0
M  V30 3356 C 328.229 -1.87532 -0.534476 0
M  V30 3357 O 327.499 -1.38211 -1.38833 0
M  V30 3358 H 326.079 -0.662807 0.344523 0
M  V30 3359 H 328.741 -1.28725 1.46342 0
M  V30 3360 H 327.837 -2.81117 1.35572 0
M  V30 3361 N 328.138 -0.959301 -1.25041 0
M  V30 3362 C 329.554 -0.664474 -1.4511 0
M  V30 3363 C 329.754 0.776481 -1.85938 0
M  V30 3364 O 328.81 1.55128 -1.99227 0
M  V30 3365 C 330.123 -1.64139 -2.5195 0
M  V30 3366 C 331.671 -1.65309 -2.65786 0
M  V30 3367 C 332.146 -2.61777 -3.75815 0
M  V30 3368 N 333.637 -2.60169 -3.83231 0
M  V30 3369 C 334.372 -3.31489 -4.6787 0
M  V30 3370 N 333.868 -4.12298 -5.56761 0
M  V30 3371 N 335.661 -3.20354 -4.61876 0
M  V30 3372 H 327.812 -1.89043 -0.968332 0
M  V30 3373 H 330.075 -0.813408 -0.4869 0
M  V30 3374 H 329.781 -2.67086 -2.28819 0
M  V30 3375 H 329.655 -1.40756 -3.49954 0
M  V30 3376 H 332.042 -0.630778 -2.8828 0
M  V30 3377 H 332.123 -1.92753 -1.68167 0
M  V30 3378 H 331.767 -3.64137 -3.54071 0
M  V30 3379 H 331.697 -2.31616 -4.72929 0
M  V30 3380 H 334.188 -2.01507 -3.19692 0
M  V30 3381 H 334.501 -4.63625 -6.18281 0
M  V30 3382 H 332.846 -4.16395 -5.56454 0
M  V30 3383 H 336.037 -2.56692 -3.91442 0
M  V30 3384 H 336.21 -3.76201 -5.27614 0
M  V30 3385 N 329.616 1.39756 -0.72842 0
M  V30 3386 C 330.526 2.34444 -0.0855374 0
M  V30 3387 C 331.542 1.57976 0.729356 0
M  V30 3388 O 332.718 1.90301 0.659346 0
M  V30 3389 C 329.783 3.36965 0.815798 0
M  V30 3390 C 328.844 4.29299 -0.0105996 0
M  V30 3391 C 328.077 5.26923 0.84781 0
M  V30 3392 O 328.3 5.30859 2.08673 0
M  V30 3393 O 327.234 6.01249 0.279969 0
M  V30 3394 H 331.06 2.91065 -0.866892 0
M  V30 3395 H 328.645 1.4117 -0.48902 0
M  V30 3396 H 330.527 3.99804 1.33171 0
M  V30 3397 H 329.202 2.82739 1.57608 0
M  V30 3398 H 328.109 3.69703 -0.571877 0
M  V30 3399 H 329.442 4.86712 -0.73295 0
M  V30 3400 N 331.094 0.475555 1.50254 0
M  V30 3401 C 332.34 -0.0780073 2.0265 0
M  V30 3402 C 332.673 -1.38968 1.35652 0
M  V30 3403 O 331.948 -1.8839 0.483691 0
M  V30 3404 C 332.231 -0.257161 3.59181 0
M  V30 3405 C 332.084 1.07585 4.36744 0
M  V30 3406 C 333.403 -1.00965 4.28362 0
M  V30 3407 H 330.522 -0.0268758 0.73651 0
M  V30 3408 H 333.164 0.622015 1.7953 0
M  V30 3409 H 331.314 -0.853412 3.79011 0
M  V30 3410 H 332.986 1.70902 4.28474 0
M  V30 3411 H 331.229 1.6714 4.00308 0
M  V30 3412 H 331.9 0.904088 5.44546 0
M  V30 3413 H 334.376 -0.504214 4.13034 0
M  V30 3414 H 333.252 -1.10381 5.37687 0
M  V30 3415 H 333.513 -2.04731 3.91839 0
M  V30 3416 N 332.573 -1.56217 0.208337 0
M  V30 3417 C 333.52 -2.19699 -0.707192 0
M  V30 3418 C 334.49 -1.14836 -1.20008 0
M  V30 3419 O 335.675 -1.4314 -1.26157 0
M  V30 3420 C 332.815 -2.87061 -1.91546 0
M  V30 3421 C 331.928 -4.06483 -1.46271 0
M  V30 3422 C 331.063 -4.61665 -2.62752 0
M  V30 3423 C 330.102 -5.73417 -2.14147 0
M  V30 3424 N 329.239 -6.22948 -3.23853 0
M  V30 3425 H 334.079 -2.97575 -0.159111 0
M  V30 3426 H 331.616 -1.46948 -0.0667874 0
M  V30 3427 H 333.574 -3.24294 -2.62468 0
M  V30 3428 H 332.204 -2.11725 -2.43664 0
M  V30 3429 H 331.256 -3.74825 -0.648886 0
M  V30 3430 H 332.568 -4.87271 -1.06622 0
M  V30 3431 H 331.722 -5.01272 -3.41776 0
M  V30 3432 H 330.461 -3.80013 -3.05682 0
M  V30 3433 H 329.466 -5.33326 -1.33581 0
M  V30 3434 H 330.691 -6.56897 -1.72232 0
M  V30 3435 H 328.637 -5.44213 -3.6629 0
M  V30 3436 H 328.554 -6.98823 -2.88414 0
M  V30 3437 H 329.822 -6.6721 -4.03052 0
M  V30 3438 N 334.051 0.0651679 -1.57465 0
M  V30 3439 C 335.014 1.06117 -2.03155 0
M  V30 3440 C 336.014 1.31204 -0.929632 0
M  V30 3441 O 337.204 1.26813 -1.19432 0
M  V30 3442 C 334.336 2.4032 -2.41783 0
M  V30 3443 H 335.529 0.667231 -2.92383 0
M  V30 3444 H 333.082 0.311075 -1.53173 0
M  V30 3445 H 333.817 2.84532 -1.55601 0
M  V30 3446 H 333.602 2.23451 -3.22199 0
M  V30 3447 H 335.092 3.11898 -2.77685 0
M  V30 3448 N 335.529 1.53961 0.336706 0
M  V30 3449 C 336.439 1.85432 1.43708 0
M  V30 3450 C 337.455 0.745053 1.57242 0
M  V30 3451 O 338.631 1.03804 1.72588 0
M  V30 3452 C 335.696 2.06349 2.78605 0
M  V30 3453 C 334.757 3.30191 2.74358 0
M  V30 3454 C 333.99 3.50101 4.02822 0
M  V30 3455 O 334.213 2.7371 5.00439 0
M  V30 3456 O 333.147 4.43547 4.06878 0
M  V30 3457 H 336.973 2.78975 1.20028 0
M  V30 3458 H 334.558 1.39701 0.52952 0
M  V30 3459 H 336.44 2.21513 3.58483 0
M  V30 3460 H 335.115 1.15995 3.02203 0
M  V30 3461 H 334.022 3.20425 1.93078 0
M  V30 3462 H 335.355 4.2056 2.55715 0
M  V30 3463 N 337.007 -0.598083 1.45811 0
M  V30 3464 C 338.235 -1.38322 1.53866 0
M  V30 3465 C 338.65 -1.87992 0.174479 0
M  V30 3466 O 338.007 -1.62756 -0.825627 0
M  V30 3467 C 338.058 -2.58125 2.53089 0
M  V30 3468 O 337.779 -2.10516 3.84206 0
M  V30 3469 C 339.28 -3.50869 2.70935 0
M  V30 3470 H 336.5 -0.423093 0.520801 0
M  V30 3471 H 339.044 -0.728527 1.91083 0
M  V30 3472 H 337.199 -3.19615 2.18917 0
M  V30 3473 H 337.613 -2.88425 4.38077 0
M  V30 3474 H 339.087 -4.31451 3.44317 0
M  V30 3475 H 339.564 -4.01822 1.77301 0
M  V30 3476 H 340.17 -2.95225 3.06141 0
M  V30 3477 N 338.485 -1.33259 -0.841409 0
M  V30 3478 C 339.901 -1.12538 -1.13169 0
M  V30 3479 C 340.101 0.0854037 -2.01319 0
M  V30 3480 O 339.157 0.766417 -2.40587 0
M  V30 3481 C 340.47 -2.41156 -1.79623 0
M  V30 3482 C 342.018 -2.47038 -1.922 0
M  V30 3483 C 342.493 -3.7561 -2.6207 0
M  V30 3484 N 343.984 -3.76667 -2.69585 0
M  V30 3485 C 344.719 -4.72861 -3.2433 0
M  V30 3486 N 344.215 -5.79428 -3.79783 0
M  V30 3487 N 346.008 -4.6034 -3.22558 0
M  V30 3488 H 338.159 -2.10868 -0.254676 0
M  V30 3489 H 340.422 -0.931615 -0.175493 0
M  V30 3490 H 340.128 -3.29747 -1.22311 0
M  V30 3491 H 340.002 -2.53114 -2.79666 0
M  V30 3492 H 342.389 -1.58898 -2.48667 0
M  V30 3493 H 342.47 -2.39022 -0.911148 0
M  V30 3494 H 342.114 -4.64131 -2.06263 0
M  V30 3495 H 342.044 -3.80902 -3.63622 0
M  V30 3496 H 344.535 -2.99648 -2.30259 0
M  V30 3497 H 344.848 -6.48867 -4.19752 0
M  V30 3498 H 343.193 -5.83166 -3.78078 0
M  V30 3499 H 346.384 -3.76244 -2.78492 0
M  V30 3500 H 346.557 -5.35478 -3.64921 0
M  V30 3501 N 339.963 1.05934 -1.16686 0
M  V30 3502 C 340.893 2.1546 -0.899949 0
M  V30 3503 C 341.874 1.69391 0.155154 0
M  V30 3504 O 343.059 1.94199 0.00648693 0
M  V30 3505 C 340.189 3.44939 -0.404241 0
M  V30 3506 C 339.143 4.04536 -1.39767 0
M  V30 3507 C 338.469 5.29268 -0.760216 0
M  V30 3508 C 339.769 4.42893 -2.76845 0
M  V30 3509 H 341.463 2.38046 -1.81588 0
M  V30 3510 H 339.009 1.14404 -0.874514 0
M  V30 3511 H 340.962 4.20901 -0.204971 0
M  V30 3512 H 339.686 3.21983 0.547206 0
M  V30 3513 H 338.345 3.30635 -1.58355 0
M  V30 3514 H 337.993 5.02611 0.197831 0
M  V30 3515 H 337.693 5.70101 -1.42332 0
M  V30 3516 H 339.217 6.07924 -0.57105 0
M  V30 3517 H 340.631 5.09921 -2.62019 0
M  V30 3518 H 339.028 4.94721 -3.39663 0
M  V30 3519 H 340.098 3.53584 -3.31823 0
M  V30 3520 N 341.441 0.965919 1.2453 0
M  V30 3521 C 342.389 0.486506 2.27455 0
M  V30 3522 C 343.383 -0.449041 1.6334 0
M  V30 3523 O 344.589 -0.324527 1.7705 0
M  V30 3524 H 340.964 0.138857 0.739069 0
M  V30 3525 H 342.935 1.3666 2.65267 0
M  V30 3526 C 341.684 -0.209481 3.47068 0
M  V30 3527 H 341.007 0.50129 3.96645 0
M  V30 3528 H 342.447 -0.508775 4.20936 0
M  V30 3529 C 340.906 -1.43586 3.0477 0
M  V30 3530 O 341.436 -2.53299 3.11773 0
M  V30 3531 N 339.642 -1.30126 2.59838 0
M  V30 3532 H 339.189 -0.408583 2.54339 0
M  V30 3533 H 339.147 -2.12294 2.31902 0
M  V30 3534 N 342.919 -1.39368 0.735821 0
M  V30 3535 C 344.33 -1.83313 0.354015 0
M  V30 3536 C 344.681 -1.61461 -1.11466 0
M  V30 3537 O 343.806 -1.10621 -1.85989 0
M  V30 3538 C 344.401 -3.32781 0.635769 0
M  V30 3539 C 342.96 -3.75142 0.307448 0
M  V30 3540 C 342.107 -2.62358 0.897974 0
M  V30 3541 H 345.058 -1.28349 0.933398 0
M  V30 3542 H 345.079 -3.80388 -0.0921773 0
M  V30 3543 H 344.591 -3.48654 1.70476 0
M  V30 3544 H 342.692 -3.64857 -0.755674 0
M  V30 3545 H 342.805 -4.72532 0.790583 0
M  V30 3546 H 341.169 -2.52624 0.324551 0
M  V30 3547 H 341.952 -2.81036 1.97164 0
M  V30 3548 N 344.397 -0.483516 -1.5 0
M  V30 3549 C 345.674 0.129337 -1.95172 0
M  V30 3550 C 346.054 1.55802 -1.4244 0
M  V30 3551 O 345.402 2.19625 -0.630649 0
M  V30 3552 C 345.612 0.0599251 -3.48949 0
M  V30 3553 C 346.96 0.242617 -4.23906 0
M  V30 3554 O 347.984 0.135933 -3.55941 0
M  V30 3555 O 346.843 0.459454 -5.44565 0
M  V30 3556 H 343.937 0.104887 -0.820322 0
M  V30 3557 H 346.483 -0.544807 -1.60717 0
M  V30 3558 H 345.255 -0.937079 -3.79914 0
M  V30 3559 H 344.878 0.774984 -3.89974 0
M  V30 3560 N 345.875 1.56104 -0.216619 0
M  V30 3561 C 346.805 2.23063 0.690296 0
M  V30 3562 C 347.786 1.20072 1.20485 0
M  V30 3563 O 348.971 1.48643 1.24976 0
M  V30 3564 C 346.101 2.90672 1.90072 0
M  V30 3565 C 345.055 4.00092 1.5202 0
M  V30 3566 C 344.381 4.54972 2.80899 0
M  V30 3567 C 345.681 5.17398 0.71391 0
M  V30 3568 H 347.375 2.99109 0.132038 0
M  V30 3569 H 344.921 1.43866 0.0620664 0
M  V30 3570 H 346.874 3.36204 2.54057 0
M  V30 3571 H 345.598 2.12066 2.48386 0
M  V30 3572 H 344.257 3.55283 0.903839 0
M  V30 3573 H 343.905 3.73102 3.37348 0
M  V30 3574 H 343.605 5.28817 2.56176 0
M  V30 3575 H 345.129 5.0322 3.45836 0
M  V30 3576 H 346.543 5.59342 1.25735 0
M  V30 3577 H 344.94 5.97444 0.563951 0
M  V30 3578 H 346.01 4.84088 -0.280527 0
M  V30 3579 N 347.353 -0.0568162 1.57498 0
M  V30 3580 C 348.285 -1.09292 2.01464 0
M  V30 3581 C 349.298 -1.34112 0.922913 0
M  V30 3582 O 350.487 -1.32089 1.20062 0
M  V30 3583 C 347.587 -2.44068 2.35125 0
M  V30 3584 C 346.76 -2.38995 3.66333 0
M  V30 3585 C 345.819 -3.55997 3.87495 0
M  V30 3586 O 344.845 -3.36746 4.58901 0
M  V30 3587 N 346.047 -4.76888 3.30996 0
M  V30 3588 H 348.812 -0.718386 2.90963 0
M  V30 3589 H 346.373 -0.245235 1.60032 0
M  V30 3590 H 348.365 -3.21011 2.46443 0
M  V30 3591 H 346.935 -2.73468 1.5144 0
M  V30 3592 H 346.155 -1.47336 3.65631 0
M  V30 3593 H 347.443 -2.3272 4.52458 0
M  V30 3594 H 346.841 -4.95431 2.73065 0
M  V30 3595 H 345.398 -5.51291 3.47738 0
M  V30 3596 N 348.832 -1.54138 -0.328536 0
M  V30 3597 C 350.243 -1.63395 -0.903272 0
M  V30 3598 C 350.594 -0.524828 -1.8905 0
M  V30 3599 O 349.719 0.343068 -2.13663 0
M  V30 3600 C 350.314 -2.9618 -1.64507 0
M  V30 3601 C 348.873 -3.0765 -2.1686 0
M  V30 3602 C 348.02 -2.58933 -0.992416 0
M  V30 3603 H 350.971 -1.58344 -0.106253 0
M  V30 3604 H 350.992 -2.86061 -2.50897 0
M  V30 3605 H 350.504 -3.76884 -0.926302 0
M  V30 3606 H 348.605 -2.31611 -2.91868 0
M  V30 3607 H 348.718 -4.1337 -2.42202 0
M  V30 3608 H 347.082 -2.14706 -1.37016 0
M  V30 3609 H 347.865 -3.42089 -0.288041 0
M  V30 3610 N 350.31 0.590341 -1.46126 0
M  V30 3611 C 351.538 1.37504 -1.54597 0
M  V30 3612 C 351.953 1.87897 -0.184447 0
M  V30 3613 O 351.31 1.63192 0.816984 0
M  V30 3614 C 351.361 2.56779 -2.54454 0
M  V30 3615 O 351.082 2.08476 -3.85317 0
M  V30 3616 C 352.583 3.49427 -2.72792 0
M  V30 3617 H 349.803 0.420325 -0.523037 0
M  V30 3618 H 352.347 0.718383 -1.91467 0
M  V30 3619 H 350.502 3.1845 -2.20609 0
M  V30 3620 H 350.916 2.86097 -4.396 0
M  V30 3621 H 352.39 4.29619 -3.466 0
M  V30 3622 H 352.867 4.00876 -1.79429 0
M  V30 3623 H 353.473 2.93598 -3.07702 0
M  V30 3624 N 351.788 1.33704 0.83433 0
M  V30 3625 C 352.698 1.26382 1.97648 0
M  V30 3626 C 353.714 0.173548 1.73132 0
M  V30 3627 O 354.89 0.397962 1.97429 0
M  V30 3628 C 351.955 1.00769 3.31733 0
M  V30 3629 C 351.016 2.1884 3.69334 0
M  V30 3630 C 350.249 1.9444 4.9702 0
M  V30 3631 O 350.472 0.896961 5.63303 0
M  V30 3632 O 349.406 2.81093 5.32231 0
M  V30 3633 H 353.232 2.22444 2.06767 0
M  V30 3634 H 350.817 1.13795 0.968037 0
M  V30 3635 H 352.699 0.882186 4.12062 0
M  V30 3636 H 351.374 0.0773783 3.23608 0
M  V30 3637 H 350.281 2.36946 2.89495 0
M  V30 3638 H 351.614 3.10221 3.82131 0
M  V30 3639 N 353.266 -1.05314 1.17247 0
M  V30 3640 C 354.176 -2.16538 0.90268 0
M  V30 3641 C 355.192 -1.73523 -0.128707 0
M  V30 3642 O 356.368 -2.01337 0.0502701 0
M  V30 3643 C 353.433 -3.44167 0.418356 0
M  V30 3644 C 352.494 -4.01635 1.51618 0
M  V30 3645 C 351.727 -5.23171 1.05487 0
M  V30 3646 O 351.95 -5.70327 -0.0914715 0
M  V30 3647 O 350.884 -5.72848 1.8474 0
M  V30 3648 H 354.71 -2.42145 1.83302 0
M  V30 3649 H 352.295 -1.15037 0.953246 0
M  V30 3650 H 354.177 -4.21112 0.155726 0
M  V30 3651 H 352.852 -3.20063 -0.48385 0
M  V30 3652 H 351.759 -3.26135 1.83268 0
M  V30 3653 H 353.092 -4.30053 2.39405 0
M  V30 3654 N 354.744 -0.972509 -1.24016 0
M  V30 3655 C 355.974 -0.653853 -1.9598 0
M  V30 3656 C 356.382 0.781801 -1.72292 0
M  V30 3657 O 355.725 1.53677 -1.00644 0
M  V30 3658 C 355.787 -0.854608 -3.49194 0
M  V30 3659 C 355.451 -2.27082 -3.96589 0
M  V30 3660 C 356.448 -3.24892 -4.05883 0
M  V30 3661 C 354.133 -2.5998 -4.29786 0
M  V30 3662 C 356.127 -4.53684 -4.47716 0
M  V30 3663 C 353.814 -3.88997 -4.71301 0
M  V30 3664 C 354.812 -4.85661 -4.80232 0
M  V30 3665 O 354.5 -6.12376 -5.20818 0
M  V30 3666 H 354.232 -0.242572 -0.630979 0
M  V30 3667 H 356.786 -1.30431 -1.58673 0
M  V30 3668 H 355.016 -0.146985 -3.86421 0
M  V30 3669 H 356.705 -0.534311 -4.02368 0
M  V30 3670 H 357.471 -3.00805 -3.80449 0
M  V30 3671 H 353.35 -1.85457 -4.22051 0
M  V30 3672 H 356.894 -5.29135 -4.54601 0
M  V30 3673 H 352.791 -4.12882 -4.96184 0
M  V30 3674 H 353.559 -6.16013 -5.38953 0
M  V30 3675 N 356.222 1.38976 -0.743202 0
M  V30 3676 C 357.468 2.01114 -0.304109 0
M  V30 3677 C 357.823 1.57929 1.09892 0
M  V30 3678 O 357.116 0.801983 1.74008 0
M  V30 3679 C 357.31 3.55647 -0.353517 0
M  V30 3680 C 357.139 4.13837 -1.75981 0
M  V30 3681 C 355.909 4.46062 -2.37395 0
M  V30 3682 C 358.107 4.36812 -2.71477 0
M  V30 3683 N 356.089 4.898 -3.70093 0
M  V30 3684 C 357.46 4.82844 -3.88923 0
M  V30 3685 C 359.515 4.18893 -2.69134 0
M  V30 3686 C 358.218 5.12837 -5.04371 0
M  V30 3687 C 360.244 4.50005 -3.83731 0
M  V30 3688 C 359.606 4.96251 -4.99914 0
M  V30 3689 H 355.705 0.765931 -0.157716 0
M  V30 3690 H 358.289 1.68763 -0.970931 0
M  V30 3691 H 356.46 3.87368 0.282987 0
M  V30 3692 H 358.192 4.04564 0.104904 0
M  V30 3693 H 354.947 4.34145 -1.89248 0
M  V30 3694 H 355.371 5.16016 -4.38242 0
M  V30 3695 H 360.013 3.82335 -1.80499 0
M  V30 3696 H 357.731 5.48297 -5.9363 0
M  V30 3697 H 361.317 4.37755 -3.83225 0
M  V30 3698 H 360.197 5.19867 -5.87118 0
M  V30 3699 N 357.7 0.491464 1.49741 0
M  V30 3700 C 358.63 -0.28154 2.31796 0
M  V30 3701 C 359.611 -0.971473 1.3963 0
M  V30 3702 O 360.796 -0.964719 1.68543 0
M  V30 3703 C 357.926 -1.35203 3.19902 0
M  V30 3704 C 356.88 -0.782529 4.20786 0
M  V30 3705 C 356.206 -1.95283 4.97764 0
M  V30 3706 C 357.506 0.21999 5.21837 0
M  V30 3707 H 359.2 0.403355 2.96671 0
M  V30 3708 H 356.746 0.195425 1.42668 0
M  V30 3709 H 358.699 -1.90045 3.76113 0
M  V30 3710 H 357.423 -2.06598 2.52953 0
M  V30 3711 H 356.082 -0.255928 3.65706 0
M  V30 3712 H 355.73 -2.65423 4.2727 0
M  V30 3713 H 355.43 -1.57789 5.66018 0
M  V30 3714 H 356.954 -2.50577 5.56816 0
M  V30 3715 H 358.368 -0.23996 5.72798 0
M  V30 3716 H 356.765 0.51026 5.97927 0
M  V30 3717 H 357.835 1.13911 4.7133 0
M  V30 3718 N 359.178 -1.55987 0.224894 0
M  V30 3719 C 360.126 -2.21808 -0.700283 0
M  V30 3720 C 361.12 -1.19854 -1.19714 0
M  V30 3721 O 362.326 -1.37925 -1.15658 0
M  V30 3722 H 358.701 -0.711226 -0.244258 0
M  V30 3723 H 360.672 -2.98152 -0.121749 0
M  V30 3724 C 359.421 -2.91444 -1.8962 0
M  V30 3725 H 358.744 -3.69655 -1.52299 0
M  V30 3726 H 360.184 -3.40894 -2.52125 0
M  V30 3727 C 358.643 -1.94098 -2.75368 0
M  V30 3728 O 359.173 -1.46004 -3.74227 0
M  V30 3729 N 357.379 -1.61675 -2.41474 0
M  V30 3730 H 356.926 -2.00979 -1.61137 0
M  V30 3731 H 356.884 -0.968036 -2.99126 0
M  V30 3732 N 360.656 0.0484629 -1.57525 0
M  V30 3733 C 361.903 0.743125 -1.88372 0
M  V30 3734 C 362.231 1.76383 -0.819715 0
M  V30 3735 O 361.486 1.94855 0.181659 0
M  V30 3736 C 361.785 1.46632 -3.25935 0
M  V30 3737 C 361.451 0.583427 -4.4711 0
M  V30 3738 C 360.113 0.340191 -4.79996 0
M  V30 3739 C 362.465 -0.0273345 -5.21193 0
M  V30 3740 C 359.793 -0.522903 -5.84365 0
M  V30 3741 C 362.145 -0.878017 -6.26477 0
M  V30 3742 C 360.809 -1.1309 -6.5785 0
M  V30 3743 H 360.079 0.271929 -0.689301 0
M  V30 3744 H 362.726 0.00336166 -1.915 0
M  V30 3745 H 361.031 2.2789 -3.18706 0
M  V30 3746 H 362.728 2.00902 -3.47044 0
M  V30 3747 H 359.318 0.783151 -4.21384 0
M  V30 3748 H 363.502 0.147654 -4.9608 0
M  V30 3749 H 358.758 -0.727335 -6.07058 0
M  V30 3750 H 362.932 -1.35789 -6.83033 0
M  V30 3751 H 360.559 -1.80144 -7.38547 0
M  V30 3752 N 362.134 1.5431 0.320358 0
M  V30 3753 C 363.411 1.63322 1.07635 0
M  V30 3754 C 363.791 0.46912 2.05821 0
M  V30 3755 O 363.139 -0.536274 2.22118 0
M  V30 3756 C 363.349 3.00465 1.77544 0
M  V30 3757 C 364.697 3.56621 2.30449 0
M  V30 3758 O 365.721 3.02791 1.87606 0
M  V30 3759 O 364.58 4.5083 3.08892 0
M  V30 3760 H 361.674 0.661502 0.496331 0
M  V30 3761 H 364.22 1.66656 0.319992 0
M  V30 3762 H 362.992 3.76629 1.06143 0
M  V30 3763 H 362.615 3.00824 2.59982 0
M  V30 3764 N 363.613 -0.582584 1.46437 0
M  V30 3765 C 364.861 -1.33814 1.51453 0
M  V30 3766 C 365.182 -1.94277 0.167792 0
M  V30 3767 O 364.452 -1.78566 -0.805677 0
M  V30 3768 H 363.032 -0.496838 0.557818 0
M  V30 3769 H 365.694 -0.682281 1.82568 0
M  V30 3770 H 364.79 -2.14479 2.26728 0
M  V30 3771 N 365.091 -1.34144 -0.827227 0
M  V30 3772 C 366.319 -1.29325 -1.61501 0
M  V30 3773 C 366.734 0.13354 -1.88327 0
M  V30 3774 O 366.091 1.0793 -1.47164 0
M  V30 3775 C 366.142 -2.07746 -2.95844 0
M  V30 3776 O 365.863 -3.4486 -2.70191 0
M  V30 3777 C 367.364 -2.10273 -3.90256 0
M  V30 3778 H 364.584 -0.445069 -0.50215 0
M  V30 3779 H 367.128 -1.76693 -1.02955 0
M  V30 3780 H 365.283 -1.6403 -3.5096 0
M  V30 3781 H 365.697 -3.85345 -3.55822 0
M  V30 3782 H 367.171 -2.69575 -4.81698 0
M  V30 3783 H 367.648 -1.096 -4.25305 0
M  V30 3784 H 368.254 -2.54059 -3.41078 0
M  V30 3785 N 366.569 1.04691 -1.17803 0
M  V30 3786 C 367.499 2.14494 -0.92275 0
M  V30 3787 C 368.48 1.69546 0.137179 0
M  V30 3788 O 369.665 1.94195 -0.0141108 0
M  V30 3789 C 366.795 3.44491 -0.440803 0
M  V30 3790 C 365.749 4.03031 -1.4405 0
M  V30 3791 C 365.075 5.28432 -0.81631 0
M  V30 3792 C 366.375 4.39932 -2.81527 0
M  V30 3793 H 368.069 2.36107 -1.84103 0
M  V30 3794 H 365.615 1.1347 -0.886599 0
M  V30 3795 H 367.568 4.2066 -0.249602 0
M  V30 3796 H 366.292 3.22546 0.513025 0
M  V30 3797 H 364.951 3.28937 -1.61853 0
M  V30 3798 H 364.599 5.02792 0.144511 0
M  V30 3799 H 364.299 5.68559 -1.48371 0
M  V30 3800 H 365.823 6.07284 -0.635496 0
M  V30 3801 H 367.237 5.07113 -2.67412 0
M  V30 3802 H 365.634 4.9109 -3.44892 0
M  V30 3803 H 366.704 3.50045 -3.35554 0
M  V30 3804 N 368.047 0.979072 1.23499 0
M  V30 3805 C 368.977 0.537606 2.27227 0
M  V30 3806 C 369.958 -0.428539 1.64613 0
M  V30 3807 O 371.143 -0.322191 1.91509 0
M  V30 3808 C 368.273 -0.162052 3.46922 0
M  V30 3809 C 367.227 0.721242 4.21879 0
M  V30 3810 C 366.553 -0.110555 5.34586 0
M  V30 3811 C 367.853 2.01141 4.82016 0
M  V30 3812 H 369.547 1.40462 2.64406 0
M  V30 3813 H 367.093 0.67684 1.27102 0
M  V30 3814 H 369.046 -0.482192 4.18632 0
M  V30 3815 H 367.77 -1.06351 3.08799 0
M  V30 3816 H 366.429 1.02482 3.51984 0
M  V30 3817 H 366.077 -1.0125 4.92704 0
M  V30 3818 H 365.777 0.477325 5.85658 0
M  V30 3819 H 367.301 -0.425107 6.09118 0
M  V30 3820 H 368.715 1.75612 5.45741 0
M  V30 3821 H 367.112 2.54695 5.43369 0
M  V30 3822 H 368.182 2.69909 4.02836 0
M  V30 3823 N 369.525 -1.3858 0.750561 0
M  V30 3824 C 370.773 -1.99789 0.30477 0
M  V30 3825 C 371.094 -1.59874 -1.11649 0
M  V30 3826 O 370.364 -0.85417 -1.76297 0
M  V30 3827 H 368.944 -0.738902 0.109694 0
M  V30 3828 H 371.606 -1.69391 0.963983 0
M  V30 3829 H 370.702 -3.09952 0.365499 0
M  V30 3830 N 371.003 -0.499398 -1.49478 0
M  V30 3831 C 371.951 0.293604 -2.3074 0
M  V30 3832 C 372.945 0.96427 -1.39277 0
M  V30 3833 O 374.151 0.892141 -1.56336 0
M  V30 3834 H 370.526 0.113541 -0.743379 0
M  V30 3835 H 372.497 -0.411772 -2.95545 0
M  V30 3836 C 371.246 1.3462 -3.20582 0
M  V30 3837 H 370.569 0.83954 -3.90886 0
M  V30 3838 H 372.009 1.87308 -3.80384 0
M  V30 3839 C 370.468 2.36351 -2.40083 0
M  V30 3840 O 370.998 3.422 -2.10385 0
M  V30 3841 N 369.204 2.0878 -2.02137 0
M  V30 3842 H 368.751 1.22723 -2.26488 0
M  V30 3843 H 368.709 2.77075 -1.48583 0
M  V30 3844 N 372.481 1.55866 -0.233164 0
M  V30 3845 C 373.73 1.97779 0.39579 0
M  V30 3846 C 374.043 1.12419 1.60066 0
M  V30 3847 O 375.249 1.44283 2.29988 0
M  V30 3848 C 373.705 3.5188 0.755556 0
M  V30 3849 C 373.313 4.45959 -0.427152 0
M  V30 3850 C 375.057 4.02479 1.34946 0
M  V30 3851 C 372.964 5.91383 -0.0443043 0
M  V30 3852 H 371.894 0.738592 0.15165 0
M  V30 3853 H 374.545 1.80486 -0.331212 0
M  V30 3854 H 372.927 3.64816 1.5403 0
M  V30 3855 H 374.101 4.44776 -1.20462 0
M  V30 3856 H 372.416 4.05765 -0.935068 0
M  V30 3857 H 375.013 5.08637 1.649 0
M  V30 3858 H 375.356 3.49014 2.26925 0
M  V30 3859 H 375.889 3.92813 0.62791 0
M  V30 3860 H 372.628 6.48857 -0.930874 0
M  V30 3861 H 372.148 5.95734 0.697238 0
M  V30 3862 H 373.827 6.45893 0.378334 0
M  V30 3863 N 373.959 -0.0401083 1.57549 0
M  V30 3864 C 375.187 -0.745196 1.93014 0
M  V30 3865 C 375.602 -1.6948 0.831984 0
M  V30 3866 O 374.959 -1.81482 -0.192463 0
M  V30 3867 C 375.01 -1.51176 3.28372 0
M  V30 3868 O 374.731 -0.600284 4.33968 0
M  V30 3869 C 376.232 -2.315 3.78051 0
M  V30 3870 H 373.452 -0.210088 0.637263 0
M  V30 3871 H 375.996 -0.000924689 2.045 0
M  V30 3872 H 374.151 -2.20801 3.18317 0
M  V30 3873 H 374.565 -1.13669 5.12035 0
M  V30 3874 H 376.039 -2.80697 4.75303 0
M  V30 3875 H 376.516 -3.12436 3.08675 0
M  V30 3876 H 377.122 -1.66971 3.91153 0
M  V30 3877 N 375.437 -1.54477 -0.31217 0
M  V30 3878 C 376.686 -1.72438 -1.04633 0
M  V30 3879 C 376.999 -0.511163 -1.88803 0
M  V30 3880 O 378.205 -0.572341 -2.65399 0
M  V30 3881 C 376.661 -3.05043 -1.9099 0
M  V30 3882 C 376.269 -4.33806 -1.11877 0
M  V30 3883 C 378.013 -3.32364 -2.64073 0
M  V30 3884 C 375.92 -5.57467 -1.97445 0
M  V30 3885 H 374.85 -0.642647 -0.394361 0
M  V30 3886 H 377.501 -1.80966 -0.303929 0
M  V30 3887 H 375.883 -2.90451 -2.69173 0
M  V30 3888 H 377.057 -4.59199 -0.383843 0
M  V30 3889 H 375.372 -4.13336 -0.504252 0
M  V30 3890 H 377.969 -4.21951 -3.28423 0
M  V30 3891 H 378.312 -2.50745 -3.32314 0
M  V30 3892 H 378.845 -3.47875 -1.92944 0
M  V30 3893 H 375.584 -6.41722 -1.33692 0
M  V30 3894 H 375.104 -5.36277 -2.6864 0
M  V30 3895 H 376.783 -5.94303 -2.5576 0
M  V30 3896 N 376.915 0.57481 -1.46744 0
M  V30 3897 C 378.162 1.33272 -1.52462 0
M  V30 3898 C 378.49 1.93669 -0.179572 0
M  V30 3899 O 377.745 1.7743 0.825664 0
M  V30 3900 C 378.044 2.476 -2.57738 0
M  V30 3901 C 377.71 2.05146 -4.01529 0
M  V30 3902 C 376.372 1.93284 -4.40676 0
M  V30 3903 C 378.724 1.72506 -4.91824 0
M  V30 3904 C 376.052 1.47049 -5.67973 0
M  V30 3905 C 378.404 1.27748 -6.19567 0
M  V30 3906 C 377.068 1.14468 -6.57612 0
M  V30 3907 H 376.338 0.487678 -0.557899 0
M  V30 3908 H 378.985 0.646456 -1.80259 0
M  V30 3909 H 377.29 3.21708 -2.23632 0
M  V30 3910 H 378.987 3.05807 -2.5939 0
M  V30 3911 H 375.577 2.15316 -3.7059 0
M  V30 3912 H 379.761 1.80552 -4.62293 0
M  V30 3913 H 375.017 1.35417 -5.96215 0
M  V30 3914 H 379.191 1.01547 -6.88957 0
M  V30 3915 H 376.818 0.78419 -7.56145 0
M  V30 3916 N 378.394 1.34581 0.820102 0
M  V30 3917 C 379.805 1.24298 1.39309 0
M  V30 3918 C 380.156 -0.130351 1.95767 0
M  V30 3919 O 379.281 -1.0308 1.90272 0
M  V30 3920 C 379.876 2.25054 2.53251 0
M  V30 3921 C 378.435 2.18552 3.0645 0
M  V30 3922 C 377.582 2.11503 1.79337 0
M  V30 3923 H 380.533 1.45906 0.624262 0
M  V30 3924 H 380.554 1.86917 3.31425 0
M  V30 3925 H 380.066 3.24996 2.1213 0
M  V30 3926 H 378.167 1.21976 3.52069 0
M  V30 3927 H 378.28 3.0993 3.65349 0
M  V30 3928 H 376.644 1.57268 2.00347 0
M  V30 3929 H 377.427 3.13284 1.40386 0
M  V30 3930 N 379.872 -1.04064 1.18357 0
M  V30 3931 C 380.822 -2.10393 0.878561 0
M  V30 3932 C 381.806 -1.60183 -0.151713 0
M  V30 3933 O 382.998 -1.76923 0.0523303 0
M  V30 3934 C 380.127 -3.4089 0.406096 0
M  V30 3935 C 379.213 -3.97866 1.46844 0
M  V30 3936 N 379.604 -4.28657 2.68489 0
M  V30 3937 C 377.902 -4.2574 1.32896 0
M  V30 3938 C 378.603 -4.74253 3.36836 0
M  V30 3939 N 377.579 -4.75068 2.64219 0
M  V30 3940 H 381.381 -2.32076 1.80327 0
M  V30 3941 H 378.895 -1.21818 1.07397 0
M  V30 3942 H 380.892 -4.16557 0.169088 0
M  V30 3943 H 379.552 -3.20633 -0.512275 0
M  V30 3944 H 380.563 -4.18304 3.05356 0
M  V30 3945 H 377.24 -4.1481 0.473134 0
M  V30 3946 H 378.63 -5.07096 4.40798 0
M  V30 3947 N 381.35 -0.985608 -1.22978 0
M  V30 3948 C 382.282 -0.488154 -2.23941 0
M  V30 3949 C 383.295 0.41282 -1.57479 0
M  V30 3950 O 384.484 0.216121 -1.77187 0
M  V30 3951 C 381.584 0.312611 -3.37455 0
M  V30 3952 C 380.757 -0.582741 -4.33501 0
M  V30 3953 C 379.816 0.165064 -5.25941 0
M  V30 3954 O 378.842 -0.447077 -5.67442 0
M  V30 3955 N 380.044 1.44953 -5.62111 0
M  V30 3956 H 382.809 -1.3563 -2.67254 0
M  V30 3957 H 380.37 -0.859477 -1.37203 0
M  V30 3958 H 382.362 0.821357 -3.96277 0
M  V30 3959 H 380.932 1.0818 -2.93285 0
M  V30 3960 H 380.152 -1.27225 -3.73105 0
M  V30 3961 H 381.44 -1.19275 -4.94622 0
M  V30 3962 H 380.838 1.9683 -5.30353 0
M  V30 3963 H 379.395 1.90361 -6.23383 0
M  V30 3964 N 382.828 1.3818 -0.7579 0
M  V30 3965 C 384.075 2.00019 -0.315985 0
M  V30 3966 C 384.403 1.60163 1.10355 0
M  V30 3967 O 383.658 0.83264 1.77103 0
M  V30 3968 C 383.957 3.55252 -0.391218 0
M  V30 3969 C 383.623 4.14834 -1.76702 0
M  V30 3970 C 382.285 4.30821 -2.14353 0
M  V30 3971 C 384.637 4.47658 -2.66931 0
M  V30 3972 C 381.965 4.76928 -3.41696 0
M  V30 3973 C 384.317 4.95184 -3.93669 0
M  V30 3974 C 382.981 5.09377 -4.31383 0
M  V30 3975 H 382.251 0.731923 -0.115627 0
M  V30 3976 H 384.898 1.65161 -0.969223 0
M  V30 3977 H 383.203 3.90273 0.34558 0
M  V30 3978 H 384.9 4.00988 -0.030805 0
M  V30 3979 H 381.49 4.02808 -1.46435 0
M  V30 3980 H 385.674 4.34904 -2.39106 0
M  V30 3981 H 380.93 4.86103 -3.70829 0
M  V30 3982 H 385.104 5.19551 -4.63724 0
M  V30 3983 H 382.731 5.44865 -5.30119 0
M  V30 3984 N 384.306 0.507319 1.49211 0
M  V30 3985 C 385.555 -0.0368315 2.01666 0
M  V30 3986 C 385.868 -1.37459 1.39156 0
M  V30 3987 O 387.074 -2.00579 1.82976 0
M  V30 3988 C 385.53 -0.116089 3.59713 0
M  V30 3989 C 385.138 1.2154 4.31198 0
M  V30 3990 C 386.882 -0.610268 4.2009 0
M  V30 3991 C 384.789 1.09796 5.81119 0
M  V30 3992 H 383.719 -0.0175376 0.753796 0
M  V30 3993 H 386.37 0.647691 1.71689 0
M  V30 3994 H 384.752 -0.8652 3.86433 0
M  V30 3995 H 385.926 1.9783 4.16173 0
M  V30 3996 H 384.241 1.64352 3.82593 0
M  V30 3997 H 386.838 -0.715742 5.29888 0
M  V30 3998 H 387.181 -1.61064 3.8388 0
M  V30 3999 H 387.714 0.0824916 3.97714 0
M  V30 4000 H 384.453 2.0728 6.21864 0
M  V30 4001 H 383.973 0.376058 5.9862 0
M  V30 4002 H 385.652 0.779281 6.4229 0
M  V30 4003 N 385.784 -1.5574 0.241426 0
M  V30 4004 C 386.732 -2.22538 -0.676718 0
M  V30 4005 C 387.726 -1.21117 -1.18436 0
M  V30 4006 O 388.932 -1.39144 -1.14188 0
M  V30 4007 H 385.307 -0.713776 -0.236701 0
M  V30 4008 H 387.278 -2.98264 -0.0901187 0
M  V30 4009 C 386.027 -2.93439 -1.86518 0
M  V30 4010 H 385.35 -3.7125 -1.4837 0
M  V30 4011 H 386.79 -3.43549 -2.48495 0
M  V30 4012 C 385.249 -1.97008 -2.73294 0
M  V30 4013 O 385.779 -1.49965 -3.72657 0
M  V30 4014 N 383.985 -1.64227 -2.39745 0
M  V30 4015 H 383.532 -2.02677 -1.58996 0
M  V30 4016 H 383.49 -0.999708 -2.98083 0
M  V30 4017 N 387.262 0.0317525 -1.57568 0
M  V30 4018 C 388.192 1.03274 -2.0942 0
M  V30 4019 C 389.173 1.3788 -0.996143 0
M  V30 4020 O 390.358 1.46811 -1.27122 0
M  V30 4021 C 387.488 2.33448 -2.57137 0
M  V30 4022 C 386.442 2.13091 -3.71182 0
M  V30 4023 C 385.768 3.49001 -4.05095 0
M  V30 4024 C 387.068 1.51928 -4.99715 0
M  V30 4025 H 388.762 0.60112 -2.93303 0
M  V30 4026 H 386.308 0.287705 -1.41097 0
M  V30 4027 H 388.261 3.03802 -2.92032 0
M  V30 4028 H 386.985 2.78665 -1.70333 0
M  V30 4029 H 385.644 1.45171 -3.36632 0
M  V30 4030 H 385.292 3.91862 -3.15362 0
M  V30 4031 H 384.992 3.36207 -4.81911 0
M  V30 4032 H 386.516 4.20721 -4.42522 0
M  V30 4033 H 387.93 2.12196 -5.32584 0
M  V30 4034 H 386.327 1.49716 -5.81124 0
M  V30 4035 H 387.397 0.484811 -4.8247 0
M  V30 4036 N 388.74 1.54641 0.303973 0
M  V30 4037 C 390.156 1.45788 0.649463 0
M  V30 4038 C 390.356 0.64666 1.90842 0
M  V30 4039 O 389.412 0.153183 2.52035 0
M  V30 4040 C 390.725 2.89718 0.805227 0
M  V30 4041 C 392.273 2.99742 0.901305 0
M  V30 4042 C 392.748 4.44863 1.08909 0
M  V30 4043 N 394.239 4.48559 1.15536 0
M  V30 4044 C 394.974 5.58026 1.3189 0
M  V30 4045 N 394.47 6.77422 1.45161 0
M  V30 4046 N 396.263 5.45708 1.34755 0
M  V30 4047 H 388.414 2.05854 -0.523237 0
M  V30 4048 H 390.677 0.932186 -0.172431 0
M  V30 4049 H 390.383 3.51666 -0.0489108 0
M  V30 4050 H 390.257 3.36964 1.69513 0
M  V30 4051 H 392.644 2.3791 1.74593 0
M  V30 4052 H 392.725 2.55797 -0.0125531 0
M  V30 4053 H 392.369 5.07288 0.249241 0
M  V30 4054 H 392.299 4.86436 2.01713 0
M  V30 4055 H 394.79 3.6254 1.06646 0
M  V30 4056 H 395.103 7.56604 1.57387 0
M  V30 4057 H 393.448 6.80292 1.42223 0
M  V30 4058 H 396.639 4.51378 1.23996 0
M  V30 4059 H 396.812 6.3107 1.47157 0
M  V30 4060 N 390.218 -0.567019 1.47046 0
M  V30 4061 C 391.443 -1.3551 1.57009 0
M  V30 4062 C 391.868 -1.86841 0.217259 0
M  V30 4063 O 391.226 -1.62435 -0.805268 0
M  V30 4064 C 391.274 -2.50777 2.5912 0
M  V30 4065 O 390.378 -3.52706 2.13711 0
M  V30 4066 H 389.719 -0.402919 0.52778 0
M  V30 4067 H 392.249 -0.686241 1.92748 0
M  V30 4068 H 392.259 -2.97481 2.79229 0
M  V30 4069 H 390.934 -2.12771 3.57353 0
M  V30 4070 H 389.511 -3.12374 2.03659 0
M  V30 4071 N 391.696 -1.35014 -0.812953 0
M  V30 4072 C 392.644 -1.27435 -1.94585 0
M  V30 4073 C 393.638 -0.170494 -1.6854 0
M  V30 4074 O 394.844 -0.336085 -1.76835 0
M  V30 4075 H 391.219 -0.396144 -0.639198 0
M  V30 4076 H 393.19 -2.23158 -1.98098 0
M  V30 4077 C 391.939 -1.05677 -3.31252 0
M  V30 4078 H 391.262 -1.89853 -3.51846 0
M  V30 4079 H 392.702 -1.04413 -4.10943 0
M  V30 4080 C 391.161 0.239615 -3.36047 0
M  V30 4081 O 391.691 1.23759 -3.8216 0
M  V30 4082 N 389.897 0.276186 -2.89285 0
M  V30 4083 H 389.444 -0.53653 -2.51951 0
M  V30 4084 H 389.402 1.14332 -2.92875 0
M  V30 4085 N 393.175 1.03435 -1.18907 0
M  V30 4086 C 394.123 2.13703 -0.918353 0
M  V30 4087 C 395.117 1.68947 0.123767 0
M  V30 4088 O 396.323 1.79983 -0.0249701 0
M  V30 4089 H 392.698 0.698112 -0.279542 0
M  V30 4090 H 394.669 2.33731 -1.85506 0
M  V30 4091 C 393.418 3.44542 -0.467532 0
M  V30 4092 H 392.741 3.79394 -1.26095 0
M  V30 4093 H 394.181 4.22812 -0.317164 0
M  V30 4094 C 392.64 3.26829 0.817588 0
M  V30 4095 O 393.17 3.54975 1.88031 0
M  V30 4096 N 391.376 2.80139 0.772677 0
M  V30 4097 H 390.923 2.57434 -0.0923883 0
M  V30 4098 H 390.881 2.68668 1.63294 0
M  V30 4099 N 394.653 0.992116 1.22453 0
M  V30 4100 C 395.878 0.685644 1.95739 0
M  V30 4101 C 396.303 -0.743 1.72804 0
M  V30 4102 O 395.661 -1.50778 1.00676 0
M  V30 4103 C 395.709 0.996293 3.46564 0
M  V30 4104 O 394.813 0.0945512 4.12292 0
M  V30 4105 H 394.154 0.256694 0.612376 0
M  V30 4106 H 396.684 1.32888 1.5557 0
M  V30 4107 H 396.694 0.93781 3.97076 0
M  V30 4108 H 395.369 2.03733 3.62582 0
M  V30 4109 H 393.946 0.208451 3.72317 0
M  V30 4110 N 396.131 -1.37776 0.765217 0
M  V30 4111 C 397.094 -2.28686 0.153416 0
M  V30 4112 C 398.094 -1.47727 -0.635081 0
M  V30 4113 O 399.284 -1.68027 -0.459632 0
M  V30 4114 C 396.416 -3.31608 -0.790495 0
M  V30 4115 H 397.609 -2.84297 0.954723 0
M  V30 4116 H 395.162 -1.46932 0.53299 0
M  V30 4117 H 395.897 -2.81109 -1.61705 0
M  V30 4118 H 395.682 -3.9144 -0.227348 0
M  V30 4119 H 397.172 -3.99559 -1.21419 0
M  V30 4120 N 397.609 -0.515225 -1.4894 0
M  V30 4121 C 398.837 0.0206034 -2.0689 0
M  V30 4122 C 399.252 1.29514 -1.37374 0
M  V30 4123 O 398.609 1.76698 -0.456529 0
M  V30 4124 C 398.66 0.26351 -3.60538 0
M  V30 4125 O 398.381 -0.960517 -4.27441 0
M  V30 4126 C 399.882 0.841383 -4.35242 0
M  V30 4127 H 397.102 -0.0268608 -0.670462 0
M  V30 4128 H 399.646 -0.716651 -1.91532 0
M  V30 4129 H 397.801 0.950777 -3.75552 0
M  V30 4130 H 398.215 -0.73212 -5.19365 0
M  V30 4131 H 399.689 0.96085 -5.43573 0
M  V30 4132 H 400.166 1.8427 -3.98674 0
M  V30 4133 H 400.772 0.191143 -4.2487 0
M  V30 4134 N 399.087 1.5561 -0.249682 0
M  V30 4135 C 400.336 1.98187 0.37479 0
M  V30 4136 C 400.649 1.14111 1.58865 0
M  V30 4137 O 401.855 1.46714 2.28445 0
M  V30 4138 C 400.311 3.52661 0.718192 0
M  V30 4139 C 399.919 4.45481 -0.474428 0
M  V30 4140 C 401.663 4.03888 1.3067 0
M  V30 4141 C 399.57 5.91303 -0.107026 0
M  V30 4142 H 398.5 0.740159 0.143808 0
M  V30 4143 H 401.151 1.80125 -0.350336 0
M  V30 4144 H 399.533 3.66429 1.50152 0
M  V30 4145 H 400.707 4.43473 -1.25172 0
M  V30 4146 H 399.022 4.04751 -0.978052 0
M  V30 4147 H 401.619 5.10358 1.59496 0
M  V30 4148 H 401.962 3.51401 2.23211 0
M  V30 4149 H 402.495 3.93457 0.586211 0
M  V30 4150 H 399.234 6.47833 -0.999642 0
M  V30 4151 H 398.754 5.9644 0.634013 0
M  V30 4152 H 400.433 6.46258 0.309807 0
M  V30 4153 N 400.565 -0.0233959 1.57583 0
M  V30 4154 C 401.814 -0.712133 1.8871 0
M  V30 4155 C 402.127 -1.76217 0.848944 0
M  V30 4156 O 403.333 -2.50389 1.04964 0
M  V30 4157 C 401.789 -1.3177 3.3491 0
M  V30 4158 C 401.397 -0.303715 4.46969 0
M  V30 4159 C 403.141 -1.98598 3.75179 0
M  V30 4160 C 401.048 -0.917945 5.84233 0
M  V30 4161 H 399.978 -0.269735 0.704101 0
M  V30 4162 H 402.629 0.0333114 1.8347 0
M  V30 4163 H 401.011 -2.11304 3.34913 0
M  V30 4164 H 402.185 0.465325 4.58445 0
M  V30 4165 H 400.5 0.2628 4.1557 0
M  V30 4166 H 403.097 -2.45416 4.75053 0
M  V30 4167 H 403.44 -2.80659 3.07468 0
M  V30 4168 H 403.973 -1.25831 3.77374 0
M  V30 4169 H 400.712 -0.136633 6.55358 0
M  V30 4170 H 400.232 -1.65669 5.76467 0
M  V30 4171 H 401.911 -1.4236 6.31144 0
M  V30 4172 N 402.043 -1.548 -0.295768 0
M  V30 4173 C 403.006 -1.85363 -1.34808 0
M  V30 4174 C 404.006 -0.726817 -1.43436 0
M  V30 4175 O 405.196 -0.995088 -1.42981 0
M  V30 4176 C 402.328 -2.03859 -2.73229 0
M  V30 4177 H 403.521 -2.7941 -1.08949 0
M  V30 4178 H 401.074 -1.46942 -0.532702 0
M  V30 4179 H 401.809 -1.12117 -3.04303 0
M  V30 4180 H 401.594 -2.8588 -2.68356 0
M  V30 4181 H 403.084 -2.28857 -3.49305 0
M  V30 4182 N 403.521 0.559213 -1.47345 0
M  V30 4183 C 404.932 1.14134 -1.47751 0
M  V30 4184 C 405.283 1.94834 -0.231103 0
M  V30 4185 O 404.408 2.05957 0.664137 0
M  V30 4186 C 405.003 2.07653 -2.67705 0
M  V30 4187 C 403.562 2.61141 -2.71076 0
M  V30 4188 C 402.709 1.3748 -2.40821 0
M  V30 4189 H 405.66 0.345917 -1.54884 0
M  V30 4190 H 405.681 2.91497 -2.44561 0
M  V30 4191 H 405.193 1.4889 -3.58404 0
M  V30 4192 H 403.294 3.23707 -1.84511 0
M  V30 4193 H 403.407 3.02272 -3.7171 0
M  V30 4194 H 401.771 1.68086 -1.91362 0
M  V30 4195 H 402.554 0.805135 -3.33725 0
M  V30 4196 N 404.999 1.35443 0.805782 0
M  V30 4197 C 406.229 1.31687 1.59192 0
M  V30 4198 C 406.637 -0.10756 1.88894 0
M  V30 4199 O 405.98 -1.07017 1.49309 0
M  V30 4200 C 406.042 2.05686 2.94845 0
M  V30 4201 C 405.706 3.54868 2.87954 0
M  V30 4202 C 406.703 4.49444 2.61335 0
M  V30 4203 C 404.388 3.97528 3.07046 0
M  V30 4204 C 406.382 5.84655 2.53885 0
M  V30 4205 C 404.069 5.32833 2.99219 0
M  V30 4206 C 405.067 6.26209 2.72674 0
M  V30 4207 O 404.755 7.59032 2.64811 0
M  V30 4208 H 404.487 0.453878 0.50097 0
M  V30 4209 H 407.041 1.78892 1.0093 0
M  V30 4210 H 405.271 1.5312 3.55093 0
M  V30 4211 H 406.96 1.94998 3.55993 0
M  V30 4212 H 407.726 4.17804 2.46303 0
M  V30 4213 H 403.605 3.25233 3.26718 0
M  V30 4214 H 407.149 6.57508 2.33086 0
M  V30 4215 H 403.046 5.64087 3.13809 0
M  V30 4216 H 403.814 7.68967 2.80413 0
M  V30 4217 N 406.477 -1.02803 1.19454 0
M  V30 4218 C 407.723 -1.76478 0.999171 0
M  V30 4219 C 408.056 -1.88456 -0.468828 0
M  V30 4220 O 407.331 -1.40198 -1.34814 0
M  V30 4221 C 407.614 -3.19044 1.66981 0
M  V30 4222 C 407.467 -3.14932 3.21151 0
M  V30 4223 C 408.786 -4.17456 1.39349 0
M  V30 4224 H 405.905 -0.640614 0.364393 0
M  V30 4225 H 408.547 -1.20005 1.47305 0
M  V30 4226 H 406.697 -3.67263 1.2669 0
M  V30 4227 H 408.369 -2.74605 3.70661 0
M  V30 4228 H 406.612 -2.52625 3.52652 0
M  V30 4229 H 407.283 -4.1566 3.63223 0
M  V30 4230 H 409.759 -3.77842 1.74283 0
M  V30 4231 H 408.635 -5.154 1.88823 0
M  V30 4232 H 408.896 -4.40949 0.318813 0
M  V30 4233 N 407.956 -0.998596 -1.21925 0
M  V30 4234 C 408.904 -0.546641 -2.26085 0
M  V30 4235 C 409.898 0.405576 -1.64473 0
M  V30 4236 O 411.104 0.277471 -1.77849 0
M  V30 4237 H 407.479 -0.158403 -0.735127 0
M  V30 4238 H 409.45 -1.43645 -2.61551 0
M  V30 4239 C 408.199 0.117388 -3.47502 0
M  V30 4240 H 407.522 -0.606277 -3.95176 0
M  V30 4241 H 408.962 0.396993 -4.22137 0
M  V30 4242 C 407.421 1.35455 -3.0847 0
M  V30 4243 O 407.951 2.44944 -3.18379 0
M  V30 4244 N 406.157 1.23191 -2.63196 0
M  V30 4245 H 405.704 0.341006 -2.55333 0
M  V30 4246 H 405.662 2.06071 -2.37449 0
M  V30 4247 N 409.434 1.37368 -0.772513 0
M  V30 4248 C 410.397 2.28601 -0.165541 0
M  V30 4249 C 411.397 1.48062 0.627238 0
M  V30 4250 O 412.587 1.68268 0.450715 0
M  V30 4251 C 409.719 3.32023 0.772897 0
M  V30 4252 H 410.912 2.83787 -0.969787 0
M  V30 4253 H 408.465 1.46647 -0.540775 0
M  V30 4254 H 409.2 2.81962 1.60212 0
M  V30 4255 H 408.985 3.91555 0.206585 0
M  V30 4256 H 410.475 4.00197 1.19298 0
M  V30 4257 N 410.912 0.523116 1.48665 0
M  V30 4258 C 412.158 -0.0134963 2.02796 0
M  V30 4259 C 412.491 -1.34582 1.40004 0
M  V30 4260 O 411.766 -1.86756 0.543381 0
M  V30 4261 C 412.049 -0.14276 3.59817 0
M  V30 4262 C 411.902 1.21425 4.331 0
M  V30 4263 C 413.221 -0.872856 4.31357 0
M  V30 4264 H 410.34 -0.00343074 0.736992 0
M  V30 4265 H 412.982 0.678816 1.7746 0
M  V30 4266 H 411.132 -0.732401 3.81534 0
M  V30 4267 H 412.804 1.84447 4.2282 0
M  V30 4268 H 411.047 1.79791 3.94788 0
M  V30 4269 H 411.718 1.07687 5.41394 0
M  V30 4270 H 414.194 -0.372555 4.14429 0
M  V30 4271 H 413.07 -0.932185 5.40927 0
M  V30 4272 H 413.331 -1.92161 3.98154 0
M  V30 4273 N 412.39 -1.55475 0.257931 0
M  V30 4274 C 413.801 -1.8511 -0.243135 0
M  V30 4275 C 414.152 -1.17986 -1.5676 0
M  V30 4276 O 413.277 -0.462102 -2.11409 0
M  V30 4277 C 413.872 -3.35826 -0.447929 0
M  V30 4278 C 412.431 -3.65647 -0.893245 0
M  V30 4279 C 411.578 -2.7729 0.0232965 0
M  V30 4280 H 414.529 -1.51261 0.480199 0
M  V30 4281 H 414.55 -3.58002 -1.28898 0
M  V30 4282 H 414.062 -3.84652 0.516196 0
M  V30 4283 H 412.163 -3.22308 -1.86945 0
M  V30 4284 H 412.276 -4.73312 -0.742469 0
M  V30 4285 H 410.64 -2.49942 -0.490021 0
M  V30 4286 H 411.423 -3.28926 0.982994 0
M  V30 4287 N 413.868 0.0150385 -1.57593 0
M  V30 4288 C 414.801 1.04475 -2.0288 0
M  V30 4289 C 415.779 1.3436 -0.915764 0
M  V30 4290 O 416.963 1.46779 -1.18271 0
M  V30 4291 C 414.09 2.37608 -2.41371 0
M  V30 4292 C 413.136 2.23487 -3.63257 0
M  V30 4293 S 413.969 1.57505 -5.11813 0
M  V30 4294 C 415.125 2.921 -5.5356 0
M  V30 4295 H 415.358 0.65907 -2.89903 0
M  V30 4296 H 412.891 0.225452 -1.52745 0
M  V30 4297 H 414.849 3.14165 -2.64217 0
M  V30 4298 H 413.51 2.7332 -1.54775 0
M  V30 4299 H 412.703 3.21802 -3.87891 0
M  V30 4300 H 412.305 1.55074 -3.40335 0
M  V30 4301 H 414.597 3.88419 -5.55101 0
M  V30 4302 H 415.54 2.72184 -6.53698 0
M  V30 4303 H 415.948 2.95318 -4.8109 0
M  V30 4304 N 415.346 1.54954 0.287554 0
M  V30 4305 C 416.623 1.65569 1.04146 0
M  V30 4306 C 417.003 0.512672 2.0478 0
M  V30 4307 O 416.351 -0.489038 2.23205 0
M  V30 4308 C 416.561 3.04163 1.71131 0
M  V30 4309 C 417.909 3.61429 2.22832 0
M  V30 4310 O 418.933 3.06702 1.81141 0
M  V30 4311 O 417.792 4.57281 2.9926 0
M  V30 4312 H 414.886 0.671881 0.482188 0
M  V30 4313 H 417.432 1.67297 0.28457 0
M  V30 4314 H 416.204 3.78796 0.981303 0
M  V30 4315 H 415.827 3.06271 2.53543 0
M  V30 4316 N 416.824 -0.551391 1.4764 0
M  V30 4317 C 418.049 -1.33837 1.58437 0
M  V30 4318 C 418.474 -1.866 0.237063 0
M  V30 4319 O 417.832 -1.6328 -0.787994 0
M  V30 4320 C 417.88 -2.48014 2.61766 0
M  V30 4321 O 416.984 -3.50419 2.1744 0
M  V30 4322 H 416.325 -0.397299 0.532024 0
M  V30 4323 H 418.855 -0.665759 1.93465 0
M  V30 4324 H 418.865 -2.94503 2.82369 0
M  V30 4325 H 417.54 -2.08969 3.5959 0
M  V30 4326 H 416.117 -3.10196 2.06961 0
M  V30 4327 N 418.302 -1.35869 -0.798587 0
M  V30 4328 C 419.235 -1.23801 -1.91699 0
M  V30 4329 C 420.213 -0.124143 -1.62125 0
M  V30 4330 O 421.397 -0.293656 -1.86199 0
M  V30 4331 C 418.524 -0.908063 -3.263 0
M  V30 4332 C 417.57 -2.0351 -3.74815 0
M  V30 4333 S 418.403 -3.65183 -3.91665 0
M  V30 4334 C 419.559 -3.34283 -5.29156 0
M  V30 4335 H 419.792 -2.18466 -2.01643 0
M  V30 4336 H 417.325 -1.21178 -0.956833 0
M  V30 4337 H 419.283 -0.724506 -4.04056 0
M  V30 4338 H 417.944 0.0206584 -3.14093 0
M  V30 4339 H 417.137 -1.75858 -4.72324 0
M  V30 4340 H 416.739 -2.1774 -3.04081 0
M  V30 4341 H 419.031 -2.87607 -6.13424 0
M  V30 4342 H 419.974 -4.31022 -5.61806 0
M  V30 4343 H 420.382 -2.69854 -4.95822 0
M  V30 4344 N 419.78 1.02168 -1.19998 0
M  V30 4345 C 421.196 1.27969 -0.953737 0
M  V30 4346 C 421.396 1.98079 0.369703 0
M  V30 4347 O 420.452 2.27306 1.09947 0
M  V30 4348 C 421.765 2.11971 -2.13281 0
M  V30 4349 C 423.313 2.25255 -2.17323 0
M  V30 4350 C 423.788 3.12632 -3.34702 0
M  V30 4351 N 425.279 3.2022 -3.34684 0
M  V30 4352 C 426.014 3.88039 -4.22153 0
M  V30 4353 N 425.51 4.58027 -5.19791 0
M  V30 4354 N 427.303 3.84511 -4.10009 0
M  V30 4355 H 419.454 0.550794 -2.05134 0
M  V30 4356 H 421.717 0.305683 -0.897364 0
M  V30 4357 H 421.423 1.67785 -3.09097 0
M  V30 4358 H 421.297 3.12699 -2.10949 0
M  V30 4359 H 423.684 2.68667 -1.22073 0
M  V30 4360 H 423.765 1.24053 -2.23706 0
M  V30 4361 H 423.409 2.69926 -4.30235 0
M  V30 4362 H 423.339 4.13909 -3.25556 0
M  V30 4363 H 425.83 2.70382 -2.64012 0
M  V30 4364 H 426.143 5.07429 -5.82868 0
M  V30 4365 H 424.488 4.56869 -5.23733 0
M  V30 4366 H 427.679 3.28978 -3.33003 0
M  V30 4367 H 427.852 4.3709 -4.78389 0
M  V30 4368 N 421.258 1.00505 1.21394 0
M  V30 4369 C 422.483 0.706367 1.95001 0
M  V30 4370 C 422.908 -0.72463 1.73582 0
M  V30 4371 O 422.266 -1.49702 1.0227 0
M  V30 4372 C 422.314 1.03299 3.45487 0
M  V30 4373 O 421.418 0.138275 4.12168 0
M  V30 4374 H 420.759 0.263175 0.609619 0
M  V30 4375 H 423.289 1.34531 1.54151 0
M  V30 4376 H 423.299 0.979872 3.96059 0
M  V30 4377 H 421.974 2.07567 3.60401 0
M  V30 4378 H 420.551 0.247928 3.72075 0
M  V30 4379 N 422.737 -1.36956 0.779787 0
M  V30 4380 C 423.687 -2.27539 0.144892 0
M  V30 4381 C 424.671 -1.46493 -0.665488 0
M  V30 4382 O 425.863 -1.68968 -0.527141 0
M  V30 4383 C 422.992 -3.35512 -0.727082 0
M  V30 4384 C 422.078 -4.24001 0.0915642 0
M  V30 4385 N 422.469 -4.92757 1.14125 0
M  V30 4386 C 420.767 -4.45807 -0.131141 0
M  V30 4387 C 421.468 -5.58138 1.6388 0
M  V30 4388 N 420.444 -5.35241 0.94962 0
M  V30 4389 H 424.246 -2.78176 0.948446 0
M  V30 4390 H 421.76 -1.50169 0.618315 0
M  V30 4391 H 423.757 -3.99324 -1.19776 0
M  V30 4392 H 422.417 -2.86431 -1.52929 0
M  V30 4393 H 423.428 -4.94984 1.52353 0
M  V30 4394 H 420.105 -4.07582 -0.904621 0
M  V30 4395 H 421.495 -6.23071 2.51461 0
M  V30 4396 N 424.215 -0.530993 -1.48385 0
M  V30 4397 C 425.163 0.244595 -2.3131 0
M  V30 4398 C 426.157 0.93451 -1.41291 0
M  V30 4399 O 427.363 0.85878 -1.58193 0
M  V30 4400 H 423.738 0.0977472 -0.74562 0
M  V30 4401 H 425.709 -0.474369 -2.94605 0
M  V30 4402 C 424.458 1.2779 -3.23365 0
M  V30 4403 H 423.781 0.756439 -3.92579 0
M  V30 4404 H 425.221 1.79198 -3.84271 0
M  V30 4405 C 423.68 2.31205 -2.45042 0
M  V30 4406 O 424.21 3.37661 -2.17596 0
M  V30 4407 N 422.416 2.04446 -2.0652 0
M  V30 4408 H 421.963 1.17891 -2.2904 0
M  V30 4409 H 421.921 2.73861 -1.54427 0
M  V30 4410 N 425.693 1.55336 -0.266172 0
M  V30 4411 C 426.641 2.23587 0.641228 0
M  V30 4412 C 427.635 1.22986 1.16494 0
M  V30 4413 O 428.841 1.40943 1.1196 0
M  V30 4414 H 425.216 0.717452 0.225315 0
M  V30 4415 H 427.187 2.9837 0.0426561 0
M  V30 4416 C 425.936 2.96369 1.81826 0
M  V30 4417 H 425.259 3.73563 1.42445 0
M  V30 4418 H 426.699 3.47459 2.42998 0
M  V30 4419 C 425.158 2.0133 2.70125 0
M  V30 4420 O 425.688 1.55875 3.70224 0
M  V30 4421 N 423.894 1.6802 2.37102 0
M  V30 4422 H 423.441 2.05181 1.55751 0
M  V30 4423 H 423.399 1.047 2.96454 0
M  V30 4424 N 427.171 -0.0066808 1.57599 0
M  V30 4425 C 428.417 -0.68835 1.91398 0
M  V30 4426 C 428.772 -1.7175 0.86716 0
M  V30 4427 O 428.065 -1.91215 -0.121475 0
M  V30 4428 C 428.259 -1.37939 3.29708 0
M  V30 4429 C 428.088 -0.418689 4.47747 0
M  V30 4430 C 426.858 -0.031526 5.0529 0
M  V30 4431 C 429.056 0.312301 5.13351 0
M  V30 4432 N 427.038 0.928088 6.06844 0
M  V30 4433 C 428.409 1.12682 6.09674 0
M  V30 4434 C 430.464 0.376853 4.96472 0
M  V30 4435 C 429.167 2 6.90936 0
M  V30 4436 C 431.193 1.23723 5.78314 0
M  V30 4437 C 430.555 2.03962 6.74225 0
M  V30 4438 H 426.654 -0.225292 0.748844 0
M  V30 4439 H 429.238 0.0520973 1.9463 0
M  V30 4440 H 427.409 -2.09017 3.27363 0
M  V30 4441 H 429.141 -2.01522 3.50957 0
M  V30 4442 H 425.896 -0.398485 4.71921 0
M  V30 4443 H 426.32 1.40307 6.62301 0
M  V30 4444 H 430.962 -0.22921 4.22178 0
M  V30 4445 H 428.68 2.61676 7.64559 0
M  V30 4446 H 432.266 1.291 5.67296 0
M  V30 4447 H 431.146 2.69461 7.36451 0
M  V30 4448 N 428.649 -1.55105 -0.279332 0
M  V30 4449 C 429.874 -1.7976 -1.03446 0
M  V30 4450 C 430.299 -0.565952 -1.79384 0
M  V30 4451 O 429.657 0.484259 -1.74713 0
M  V30 4452 C 429.705 -3.0179 -1.97371 0
M  V30 4453 O 428.809 -2.76432 -3.06038 0
M  V30 4454 H 428.15 -0.594334 -0.29608 0
M  V30 4455 H 430.68 -2.02235 -0.310165 0
M  V30 4456 H 430.69 -3.30351 -2.39441 0
M  V30 4457 H 429.365 -3.91085 -1.4151 0
M  V30 4458 H 427.942 -2.58949 -2.68328 0
M  V30 4459 N 430.127 0.543554 -1.4793 0
M  V30 4460 C 431.057 1.65888 -1.64327 0
M  V30 4461 C 432.038 1.62818 -0.492383 0
M  V30 4462 O 433.223 1.80226 -0.723338 0
M  V30 4463 C 430.353 3.04506 -1.67013 0
M  V30 4464 C 429.307 3.2243 -2.81466 0
M  V30 4465 C 428.633 4.61972 -2.69233 0
M  V30 4466 C 429.933 3.06496 -4.22915 0
M  V30 4467 H 431.627 1.52421 -2.57698 0
M  V30 4468 H 429.173 0.731849 -1.24016 0
M  V30 4469 H 431.126 3.82391 -1.77074 0
M  V30 4470 H 429.85 3.18964 -0.70212 0
M  V30 4471 H 428.509 2.46957 -2.70938 0
M  V30 4472 H 428.157 4.73247 -1.7043 0
M  V30 4473 H 427.857 4.74911 -3.46025 0
M  V30 4474 H 429.381 5.41974 -2.81242 0
M  V30 4475 H 430.795 3.74186 -4.34348 0
M  V30 4476 H 429.192 3.30938 -5.006 0
M  V30 4477 H 430.262 2.03077 -4.40327 0
M  V30 4478 N 431.605 1.3629 0.791371 0
M  V30 4479 C 432.851 1.30605 1.55146 0
M  V30 4480 C 433.184 -0.115042 1.93859 0
M  V30 4481 O 432.459 -1.06798 1.62556 0
M  V30 4482 C 432.742 2.22692 2.82985 0
M  V30 4483 C 432.595 3.73489 2.50651 0
M  V30 4484 C 433.914 2.13588 3.84796 0
M  V30 4485 H 431.033 0.475761 0.562868 0
M  V30 4486 H 433.675 1.66825 0.909358 0
M  V30 4487 H 431.825 1.91933 3.37778 0
M  V30 4488 H 433.497 4.14758 2.01924 0
M  V30 4489 H 431.74 3.93021 1.83622 0
M  V30 4490 H 432.411 4.3333 3.41949 0
M  V30 4491 H 434.887 2.40659 3.39445 0
M  V30 4492 H 433.763 2.80195 4.71998 0
M  V30 4493 H 434.024 1.12256 4.27611 0
M  V30 4494 N 433.083 -1.0153 1.20538 0
M  V30 4495 C 434.332 -1.74558 1.01057 0
M  V30 4496 C 434.645 -1.90168 -0.457756 0
M  V30 4497 O 435.851 -2.60301 -0.771722 0
M  V30 4498 C 434.307 -3.13963 1.75941 0
M  V30 4499 C 433.915 -3.06361 3.26875 0
M  V30 4500 C 435.659 -3.91191 1.64832 0
M  V30 4501 C 433.566 -4.40782 3.94291 0
M  V30 4502 H 432.496 -0.654417 0.374505 0
M  V30 4503 H 435.147 -1.13521 1.44171 0
M  V30 4504 H 433.529 -3.75549 1.25614 0
M  V30 4505 H 434.703 -2.54074 3.84425 0
M  V30 4506 H 433.018 -2.42625 3.38411 0
M  V30 4507 H 435.615 -4.90644 2.12539 0
M  V30 4508 H 435.958 -4.11884 0.604745 0
M  V30 4509 H 436.491 -3.36236 2.12579 0
M  V30 4510 H 433.23 -4.25292 4.98805 0
M  V30 4511 H 432.75 -4.9307 3.41529 0
M  V30 4512 H 434.429 -5.09621 3.98617 0
M  V30 4513 N 434.561 -1.01147 -1.20859 0
M  V30 4514 C 435.81 -0.693214 -1.89413 0
M  V30 4515 C 436.123 0.779969 -1.79376 0
M  V30 4516 O 437.329 1.21057 -2.43017 0
M  V30 4517 C 435.785 -1.18949 -3.39675 0
M  V30 4518 C 435.393 -2.68921 -3.58309 0
M  V30 4519 C 437.137 -0.94642 -4.13815 0
M  V30 4520 C 435.044 -3.12056 -5.0237 0
M  V30 4521 H 433.974 -0.255595 -0.709357 0
M  V30 4522 H 436.625 -1.22349 -1.36759 0
M  V30 4523 H 435.007 -0.587228 -3.91622 0
M  V30 4524 H 436.181 -3.34652 -3.16772 0
M  V30 4525 H 434.496 -2.91314 -2.97532 0
M  V30 4526 H 437.093 -1.24417 -5.20023 0
M  V30 4527 H 437.436 0.117219 -4.16135 0
M  V30 4528 H 437.969 -1.5118 -3.67953 0
M  V30 4529 H 434.708 -4.17674 -5.05202 0
M  V30 4530 H 434.228 -2.51041 -5.44737 0
M  V30 4531 H 435.907 -3.04403 -5.70918 0
M  V30 4532 N 436.039 1.36541 -0.78704 0
M  V30 4533 C 437.45 1.81873 -0.421807 0
M  V30 4534 C 437.801 1.65487 1.05397 0
M  V30 4535 O 436.926 1.17448 1.81755 0
M  V30 4536 C 437.521 3.30192 -0.758841 0
M  V30 4537 C 436.08 3.73743 -0.446468 0
M  V30 4538 C 435.227 2.58844 -0.994728 0
M  V30 4539 H 438.178 1.24796 -0.98039 0
M  V30 4540 H 438.199 3.80468 -0.0490648 0
M  V30 4541 H 437.711 3.42087 -1.83299 0
M  V30 4542 H 435.812 3.6741 0.619739 0
M  V30 4543 H 435.925 4.69272 -0.965415 0
M  V30 4544 H 434.289 2.51245 -0.418087 0
M  V30 4545 H 435.072 2.73525 -2.07458 0
M  V30 4546 N 437.518 0.538854 1.48102 0
M  V30 4547 C 438.767 0.0059532 2.01699 0
M  V30 4548 C 439.08 -1.34476 1.42041 0
M  V30 4549 O 440.286 -1.96653 1.87189 0
M  V30 4550 C 438.742 -0.0397627 3.59878 0
M  V30 4551 C 438.35 1.30659 4.28523 0
M  V30 4552 C 440.094 -0.521024 4.2129 0
M  V30 4553 C 438.001 1.22098 5.78659 0
M  V30 4554 H 436.931 -0.00154456 0.753998 0
M  V30 4555 H 439.582 0.683963 1.70277 0
M  V30 4556 H 437.964 -0.783037 3.88181 0
M  V30 4557 H 439.138 2.06613 4.11883 0
M  V30 4558 H 437.453 1.7243 3.79021 0
M  V30 4559 H 440.05 -0.603184 5.31287 0
M  V30 4560 H 440.393 -1.52885 3.8721 0
M  V30 4561 H 440.926 0.166834 3.9745 0
M  V30 4562 H 437.665 2.20424 6.17328 0
M  V30 4563 H 437.185 0.50295 5.97688 0
M  V30 4564 H 438.864 0.915345 6.40492 0
M  V30 4565 N 438.996 -1.55193 0.274407 0
M  V30 4566 C 440.236 -2.01488 -0.343778 0
M  V30 4567 C 440.6 -1.1586 -1.53103 0
M  V30 4568 O 441.801 -1.51732 -2.2188 0
M  V30 4569 C 440.072 -3.50134 -0.717021 0
M  V30 4570 S 441.631 -4.18417 -1.32184 0
M  V30 4571 H 438.449 -0.70291 -0.106948 0
M  V30 4572 H 441.051 -1.91446 0.396075 0
M  V30 4573 H 439.755 -4.10104 0.155947 0
M  V30 4574 H 439.286 -3.64159 -1.48835 0
M  V30 4575 H 441.301 -4.21984 -2.61044 0
M  V30 4576 N 440.474 -0.00167713 -1.576 0
M  V30 4577 C 441.885 0.54091 -1.78693 0
M  V30 4578 C 442.236 1.7386 -0.909247 0
M  V30 4579 O 441.361 2.16109 -0.112176 0
M  V30 4580 C 441.956 0.98806 -3.24072 0
M  V30 4581 C 440.515 1.47594 -3.46256 0
M  V30 4582 C 439.662 0.42792 -2.73978 0
M  V30 4583 H 442.613 -0.22784 -1.57056 0
M  V30 4584 H 442.634 1.85398 -3.32277 0
M  V30 4585 H 442.146 0.116164 -3.87926 0
M  V30 4586 H 440.247 2.36868 -2.87618 0
M  V30 4587 H 440.36 1.50225 -4.54939 0
M  V30 4588 H 438.724 0.889934 -2.38647 0
M  V30 4589 H 439.507 -0.435038 -3.40532 0
M  V30 4590 N 441.952 1.55251 0.271103 0
M  V30 4591 C 442.882 1.9127 1.33933 0
M  V30 4592 C 443.863 0.77478 1.5143 0
M  V30 4593 O 445.048 1.03307 1.64442 0
M  V30 4594 C 442.178 2.18627 2.69851 0
M  V30 4595 C 441.132 3.34442 2.67081 0
M  V30 4596 C 440.458 3.47284 4.06569 0
M  V30 4597 C 441.758 4.70784 2.26185 0
M  V30 4598 H 443.452 2.80744 1.04035 0
M  V30 4599 H 440.998 1.35077 0.499017 0
M  V30 4600 H 442.951 2.42413 3.44694 0
M  V30 4601 H 441.675 1.25955 3.01335 0
M  V30 4602 H 440.334 3.10627 1.94695 0
M  V30 4603 H 439.982 2.52074 4.35279 0
M  V30 4604 H 439.682 4.25152 4.0561 0
M  V30 4605 H 441.206 3.73363 4.83148 0
M  V30 4606 H 442.62 4.94102 2.90751 0
M  V30 4607 H 441.017 5.51582 2.36384 0
M  V30 4608 H 442.087 4.69478 1.21319 0
M  V30 4609 N 443.43 -0.535701 1.48216 0
M  V30 4610 C 444.34 -1.66785 1.64985 0
M  V30 4611 C 445.356 -1.65654 0.532414 0
M  V30 4612 O 446.532 -1.8471 0.80275 0
M  V30 4613 C 443.597 -3.0326 1.68031 0
M  V30 4614 C 442.658 -3.1529 2.9136 0
M  V30 4615 C 441.891 -4.45255 2.94252 0
M  V30 4616 O 442.114 -5.32011 2.05719 0
M  V30 4617 O 441.048 -4.6153 3.86359 0
M  V30 4618 H 444.874 -1.55576 2.60825 0
M  V30 4619 H 442.459 -0.70815 1.31551 0
M  V30 4620 H 444.341 -3.84436 1.72589 0
M  V30 4621 H 443.016 -3.14805 0.753628 0
M  V30 4622 H 441.923 -2.3343 2.92337 0
M  V30 4623 H 443.256 -3.08658 3.83394 0
M  V30 4624 N 444.908 -1.36708 -0.784132 0
M  V30 4625 C 446.136 -1.34398 -1.57305 0
M  V30 4626 C 446.551 0.0735577 -1.88657 0
M  V30 4627 O 445.908 1.03193 -1.50524 0
M  V30 4628 C 445.959 -2.17053 -2.89085 0
M  V30 4629 O 445.68 -3.53281 -2.59083 0
M  V30 4630 C 447.181 -2.22583 -3.83369 0
M  V30 4631 H 444.401 -0.460819 -0.487736 0
M  V30 4632 H 446.945 -1.79879 -0.972819 0
M  V30 4633 H 445.1 -1.75113 -3.45564 0
M  V30 4634 H 445.514 -3.9647 -3.43383 0
M  V30 4635 H 446.988 -2.84763 -4.72878 0
M  V30 4636 H 447.465 -1.23075 -4.21603 0
M  V30 4637 H 448.071 -2.64781 -3.32823 0
M  V30 4638 N 446.386 1.0089 -1.21074 0
M  V30 4639 C 447.611 1.78727 -1.05221 0
M  V30 4640 C 448.036 1.83932 0.393795 0
M  V30 4641 O 447.394 1.28004 1.28393 0
M  V30 4642 C 447.442 3.20665 -1.64944 0
M  V30 4643 O 446.546 4.02632 -0.892273 0
M  V30 4644 H 445.887 0.550973 -0.370574 0
M  V30 4645 H 448.417 1.26847 -1.60534 0
M  V30 4646 H 448.427 3.71352 -1.69002 0
M  V30 4647 H 447.102 3.16191 -2.70177 0
M  V30 4648 H 445.679 3.61207 -0.926492 0
M  V30 4649 N 447.864 1.01787 1.20321 0
M  V30 4650 C 449.089 0.727009 1.9424 0
M  V30 4651 C 449.514 -0.706179 1.74341 0
M  V30 4652 O 448.872 -1.48609 1.03852 0
M  V30 4653 C 448.92 1.06958 3.44372 0
M  V30 4654 O 448.024 0.181983 4.11998 0
M  V30 4655 H 447.365 0.269626 0.606793 0
M  V30 4656 H 449.895 1.36158 1.52716 0
M  V30 4657 H 449.905 1.02182 3.94997 0
M  V30 4658 H 448.58 2.11378 3.58179 0
M  V30 4659 H 447.157 0.287378 3.71791 0
M  V30 4660 N 449.342 -1.36122 0.79427 0
M  V30 4661 C 450.305 -2.28309 0.201889 0
M  V30 4662 C 451.305 -1.49041 -0.603603 0
M  V30 4663 O 452.495 -1.68964 -0.423888 0
M  V30 4664 C 449.627 -3.3321 -0.719978 0
M  V30 4665 H 450.82 -2.82208 1.01481 0
M  V30 4666 H 448.373 -1.45768 0.564037 0
M  V30 4667 H 449.108 -2.84475 -1.55706 0
M  V30 4668 H 448.893 -3.91835 -0.144266 0
M  V30 4669 H 450.383 -4.02044 -1.12916 0
M  V30 4670 N 450.82 -0.546701 -1.47814 0
M  V30 4671 C 452.069 -0.0166497 -2.01693 0
M  V30 4672 C 452.382 1.33721 -1.42752 0
M  V30 4673 O 453.588 1.95658 -1.8823 0
M  V30 4674 C 452.044 0.0206769 -3.59894 0
M  V30 4675 C 451.652 -1.3293 -4.27824 0
M  V30 4676 C 453.396 0.498674 -4.21561 0
M  V30 4677 C 451.303 -1.25165 -5.78003 0
M  V30 4678 H 450.233 -0.0024541 -0.753996 0
M  V30 4679 H 452.884 -0.692984 -1.69912 0
M  V30 4680 H 451.266 0.76244 -3.88591 0
M  V30 4681 H 452.44 -2.08795 -4.10781 0
M  V30 4682 H 450.755 -1.74438 -3.78101 0
M  V30 4683 H 453.352 0.575 -5.31599 0
M  V30 4684 H 453.695 1.5083 -3.88016 0
M  V30 4685 H 454.228 -0.18791 -3.97356 0
M  V30 4686 H 450.967 -2.23695 -6.1615 0
M  V30 4687 H 450.487 -0.53464 -5.97412 0
M  V30 4688 H 452.166 -0.949299 -6.39998 0
M  V30 4689 N 452.299 1.55045 -0.282633 0
M  V30 4690 C 453.247 2.24254 0.617478 0
M  V30 4691 C 454.241 1.24215 1.15183 0
M  V30 4692 O 455.447 1.42123 1.10459 0
M  V30 4693 H 451.822 0.719801 0.217693 0
M  V30 4694 H 453.793 2.98398 0.0110076 0
M  V30 4695 C 452.542 2.98281 1.78672 0
M  V30 4696 H 451.865 3.75053 1.38475 0
M  V30 4697 H 453.305 3.50017 2.393 0
M  V30 4698 C 451.764 2.04184 2.67975 0
M  V30 4699 O 452.294 1.59792 3.6855 0
M  V30 4700 N 450.5 1.70526 2.35307 0
M  V30 4701 H 450.047 2.06821 1.53567 0
M  V30 4702 H 450.005 1.07839 2.95327 0
M  V30 4703 N 453.777 0.010035 1.57597 0
M  V30 4704 C 455.005 -0.683413 1.95287 0
M  V30 4705 C 455.42 -1.66747 0.885481 0
M  V30 4706 O 454.777 -1.82003 -0.134629 0
M  V30 4707 C 454.828 -1.40652 3.33015 0
M  V30 4708 O 454.549 -0.461916 4.35658 0
M  V30 4709 C 456.05 -2.19356 3.85225 0
M  V30 4710 H 453.27 -0.189708 0.643624 0
M  V30 4711 H 455.814 0.0641359 2.04399 0
M  V30 4712 H 453.969 -2.10562 3.2518 0
M  V30 4713 H 454.383 -0.973215 5.15392 0
M  V30 4714 H 455.857 -2.65433 4.83993 0
M  V30 4715 H 456.334 -3.02457 3.18459 0
M  V30 4716 H 456.94 -1.54442 3.96267 0
M  V30 4717 N 455.255 -1.55392 -0.262866 0
M  V30 4718 C 456.504 -1.75679 -0.990943 0
M  V30 4719 C 456.817 -0.57097 -1.87081 0
M  V30 4720 O 458.023 -0.656486 -2.63444 0
M  V30 4721 C 456.479 -3.10964 -1.81188 0
M  V30 4722 C 456.087 -4.37146 -0.980188 0
M  V30 4723 C 457.831 -3.40597 -2.53365 0
M  V30 4724 C 455.738 -5.63466 -1.7961 0
M  V30 4725 H 454.668 -0.654868 -0.373716 0
M  V30 4726 H 457.319 -1.81841 -0.246203 0
M  V30 4727 H 455.701 -2.98867 -2.59797 0
M  V30 4728 H 456.875 -4.60187 -0.237558 0
M  V30 4729 H 455.19 -4.14731 -0.372497 0
M  V30 4730 H 457.787 -4.32186 -3.14833 0
M  V30 4731 H 458.13 -2.6119 -3.24169 0
M  V30 4732 H 458.663 -3.53838 -1.81779 0
M  V30 4733 H 455.402 -6.4565 -1.13209 0
M  V30 4734 H 454.922 -5.44552 -2.51443 0
M  V30 4735 H 456.601 -6.02139 -2.36723 0
M  V30 4736 N 456.733 0.527833 -1.48498 0
M  V30 4737 C 458.144 1.10975 -1.50138 0
M  V30 4738 C 458.495 1.943 -0.272378 0
M  V30 4739 O 457.62 2.07319 0.620301 0
M  V30 4740 C 458.215 2.01927 -2.72049 0
M  V30 4741 C 456.774 2.55332 -2.76554 0
M  V30 4742 C 455.921 1.32341 -2.43683 0
M  V30 4743 H 458.872 0.312986 -1.55583 0
M  V30 4744 H 458.893 2.86244 -2.50689 0
M  V30 4745 H 458.405 1.41254 -3.61481 0
M  V30 4746 H 456.506 3.19721 -1.91336 0
M  V30 4747 H 456.619 2.94319 -3.78038 0
M  V30 4748 H 454.983 1.63989 -1.94884 0
M  V30 4749 H 455.766 0.734165 -3.35358 0
M  V30 4750 N 458.211 1.37122 0.776871 0
M  V30 4751 C 459.46 1.31373 1.53049 0
M  V30 4752 C 459.773 -0.101016 1.95339 0
M  V30 4753 O 460.979 -0.280953 2.70042 0
M  V30 4754 C 459.435 2.30567 2.76346 0
M  V30 4755 C 459.043 3.77543 2.41175 0
M  V30 4756 C 460.787 2.33818 3.54301 0
M  V30 4757 C 458.694 4.68481 3.60943 0
M  V30 4758 H 457.624 0.488234 0.574581 0
M  V30 4759 H 460.275 1.62554 0.851372 0
M  V30 4760 H 458.657 1.92396 3.46121 0
M  V30 4761 H 459.831 4.24521 1.79216 0
M  V30 4762 H 458.146 3.77187 1.76405 0
M  V30 4763 H 460.743 2.98965 4.4331 0
M  V30 4764 H 461.086 1.3503 3.93793 0
M  V30 4765 H 461.619 2.7067 2.91518 0
M  V30 4766 H 458.358 5.68378 3.26537 0
M  V30 4767 H 457.878 4.2621 4.22025 0
M  V30 4768 H 459.557 4.85366 4.27819 0
M  V30 4769 N 459.689 -1.00246 1.21608 0
M  V30 4770 C 460.917 -1.77631 1.06089 0
M  V30 4771 C 461.332 -1.84746 -0.38916 0
M  V30 4772 O 460.689 -1.31068 -1.26994 0
M  V30 4773 C 460.74 -3.21415 1.65453 0
M  V30 4774 O 460.461 -3.14703 3.04785 0
M  V30 4775 C 461.962 -4.15289 1.55079 0
M  V30 4776 H 459.182 -0.558162 0.37242 0
M  V30 4777 H 461.726 -1.26093 1.60999 0
M  V30 4778 H 459.881 -3.70053 1.14629 0
M  V30 4779 H 460.295 -4.05056 3.33212 0
M  V30 4780 H 461.769 -5.13965 2.01355 0
M  V30 4781 H 462.246 -4.36279 0.505665 0
M  V30 4782 H 462.852 -3.72543 2.05163 0
M  V30 4783 N 461.167 -1.02423 -1.1978 0
M  V30 4784 C 462.416 -0.713265 -1.88667 0
M  V30 4785 C 462.729 0.7609 -1.80193 0
M  V30 4786 O 463.935 1.18473 -2.44288 0
M  V30 4787 C 462.391 -1.22545 -3.38394 0
M  V30 4788 C 461.999 -2.72706 -3.55437 0
M  V30 4789 C 463.743 -0.990257 -4.12788 0
M  V30 4790 C 461.65 -3.17367 -4.99031 0
M  V30 4791 H 460.58 -0.263105 -0.706606 0
M  V30 4792 H 463.231 -1.23792 -1.35454 0
M  V30 4793 H 461.613 -0.628732 -3.90977 0
M  V30 4794 H 462.787 -3.37993 -3.13205 0
M  V30 4795 H 461.102 -2.94453 -2.94425 0
M  V30 4796 H 463.699 -1.29926 -5.18675 0
M  V30 4797 H 464.042 0.0730761 -4.16236 0
M  V30 4798 H 464.575 -1.55074 -3.66329 0
M  V30 4799 H 461.314 -4.23009 -5.00743 0
M  V30 4800 H 460.834 -2.56805 -5.42044 0
M  V30 4801 H 462.513 -3.10441 -5.67658 0
M  V30 4802 N 462.645 1.35699 -0.801477 0
M  V30 4803 C 463.87 2.03687 -0.390678 0
M  V30 4804 C 464.295 1.60015 0.988778 0
M  V30 4805 O 463.653 0.774357 1.63931 0
M  V30 4806 C 463.701 3.57439 -0.476404 0
M  V30 4807 O 462.805 4.09208 0.512106 0
M  V30 4808 H 462.146 0.64344 -0.163956 0
M  V30 4809 H 464.676 1.73403 -1.08594 0
M  V30 4810 H 464.686 4.06544 -0.344357 0
M  V30 4811 H 463.361 3.88576 -1.48262 0
M  V30 4812 H 461.938 3.7134 0.340721 0
M  V30 4813 N 464.123 0.554532 1.47522 0
M  V30 4814 C 465.372 0.0273458 2.01681 0
M  V30 4815 C 465.685 -1.32962 1.43459 0
M  V30 4816 O 466.891 -1.94657 1.89265 0
M  V30 4817 C 465.347 -0.00159057 3.599 0
M  V30 4818 C 464.955 1.35197 4.27113 0
M  V30 4819 C 466.699 -0.476311 4.21819 0
M  V30 4820 C 464.606 1.28229 5.77331 0
M  V30 4821 H 463.536 0.00645269 0.753972 0
M  V30 4822 H 466.187 0.701985 1.69542 0
M  V30 4823 H 464.569 -0.741821 3.8899 0
M  V30 4824 H 465.743 2.1097 4.09668 0
M  V30 4825 H 464.058 1.76441 3.77171 0
M  V30 4826 H 466.655 -0.5468 5.31897 0
M  V30 4827 H 466.998 -1.4877 3.8881 0
M  V30 4828 H 467.531 0.20898 3.97251 0
M  V30 4829 H 464.27 2.26959 6.14955 0
M  V30 4830 H 463.79 0.566314 5.97121 0
M  V30 4831 H 465.469 0.983226 6.39485 0
M  V30 4832 N 465.601 -1.54893 0.290851 0
M  V30 4833 C 466.826 -2.04804 -0.32712 0
M  V30 4834 C 467.251 -1.16721 -1.47506 0
M  V30 4835 O 466.609 -0.169107 -1.8051 0
M  V30 4836 C 466.657 -3.52268 -0.770689 0
M  V30 4837 O 465.761 -3.67236 -1.87647 0
M  V30 4838 H 465.102 -0.660789 -0.0652227 0
M  V30 4839 H 467.632 -2.00036 0.429739 0
M  V30 4840 H 467.642 -3.9393 -1.06223 0
M  V30 4841 H 466.317 -4.15843 0.069096 0
M  V30 4842 H 464.894 -3.37479 -1.58626 0
M  V30 4843 N 467.08 -0.0183926 -1.57589 0
M  V30 4844 C 468.491 0.521927 -1.79256 0
M  V30 4845 C 468.842 1.72885 -0.927636 0
M  V30 4846 O 467.967 2.15978 -0.135091 0
M  V30 4847 C 468.562 0.953632 -3.25102 0
M  V30 4848 C 467.121 1.43913 -3.47801 0
M  V30 4849 C 466.268 0.398837 -2.74417 0
M  V30 4850 H 469.219 -0.244485 -1.56805 0
M  V30 4851 H 469.24 1.81863 -3.34224 0
M  V30 4852 H 468.752 0.0750123 -3.88028 0
M  V30 4853 H 466.853 2.33804 -2.90115 0
M  V30 4854 H 466.966 1.45391 -4.56507 0
M  V30 4855 H 465.33 0.864572 -2.39577 0
M  V30 4856 H 466.113 -0.471132 -3.40052 0
M  V30 4857 N 468.558 1.5553 0.254621 0
M  V30 4858 C 469.491 1.84624 1.34124 0
M  V30 4859 C 470.469 0.700693 1.46728 0
M  V30 4860 O 471.653 0.94564 1.63064 0
M  V30 4861 C 468.78 2.02412 2.71564 0
M  V30 4862 C 467.826 3.25028 2.7615 0
M  V30 4863 S 468.659 4.81893 2.33538 0
M  V30 4864 C 469.815 5.02677 3.72917 0
M  V30 4865 H 470.048 2.76501 1.09245 0
M  V30 4866 H 467.581 1.47537 0.455211 0
M  V30 4867 H 469.539 2.13345 3.50705 0
M  V30 4868 H 468.2 1.11391 2.93685 0
M  V30 4869 H 467.393 3.34418 3.77069 0
M  V30 4870 H 466.995 3.12781 2.05046 0
M  V30 4871 H 469.287 4.89546 4.68349 0
M  V30 4872 H 470.23 6.0468 3.68467 0
M  V30 4873 H 470.638 4.30561 3.65072 0
M  V30 4874 N 470.036 -0.519951 1.48776 0
M  V30 4875 C 471.276 -1.2856 1.58908 0
M  V30 4876 C 471.64 -1.90212 0.261418 0
M  V30 4877 O 472.841 -2.67746 0.237791 0
M  V30 4878 C 471.112 -2.33836 2.70288 0
M  V30 4879 S 472.671 -3.19992 3.0025 0
M  V30 4880 H 469.489 -0.43717 0.560717 0
M  V30 4881 H 472.091 -0.591205 1.86346 0
M  V30 4882 H 470.795 -1.87041 3.653 0
M  V30 4883 H 470.326 -3.07969 2.44783 0
M  V30 4884 H 472.341 -4.34122 2.40317 0
M  V30 4885 N 471.514 -1.37532 -0.769588 0
M  V30 4886 C 472.477 -1.33292 -1.86456 0
M  V30 4887 C 473.477 -0.236537 -1.59051 0
M  V30 4888 O 474.667 -0.492511 -1.67093 0
M  V30 4889 C 471.799 -1.07118 -3.23633 0
M  V30 4890 H 472.992 -2.30692 -1.91628 0
M  V30 4891 H 470.545 -1.22593 -0.969572 0
M  V30 4892 H 471.28 -0.102578 -3.24138 0
M  V30 4893 H 471.065 -1.86479 -3.44917 0
M  V30 4894 H 472.555 -1.06806 -4.03711 0
M  V30 4895 N 472.992 0.995999 -1.22138 0
M  V30 4896 C 473.902 2.11985 -1.00496 0
M  V30 4897 C 474.918 1.7394 0.0457701 0
M  V30 4898 O 476.094 2.00868 -0.146273 0
M  V30 4899 C 473.159 3.41779 -0.582086 0
M  V30 4900 C 472.22 3.93943 -1.70608 0
M  V30 4901 C 471.453 5.17542 -1.30328 0
M  V30 4902 O 471.676 5.70114 -0.180743 0
M  V30 4903 O 470.61 5.63382 -2.11861 0
M  V30 4904 H 474.436 2.33123 -1.94647 0
M  V30 4905 H 472.021 1.10358 -1.00705 0
M  V30 4906 H 473.903 4.1989 -0.356467 0
M  V30 4907 H 472.578 3.22007 0.330592 0
M  V30 4908 H 471.485 3.17019 -1.98619 0
M  V30 4909 H 472.818 4.18141 -2.59651 0
M  V30 4910 N 474.47 1.03057 1.19235 0
M  V30 4911 C 475.717 0.728019 1.88961 0
M  V30 4912 C 476.045 -0.743515 1.79728 0
M  V30 4913 O 475.3 -1.55729 1.1852 0
M  V30 4914 C 475.599 1.1268 3.39172 0
M  V30 4915 C 475.265 2.5969 3.68608 0
M  V30 4916 C 473.927 2.99854 3.76352 0
M  V30 4917 C 476.279 3.54793 3.81801 0
M  V30 4918 C 473.607 4.34031 3.94758 0
M  V30 4919 C 475.959 4.88675 4.0172 0
M  V30 4920 C 474.623 5.28526 4.07697 0
M  V30 4921 H 473.893 0.266401 0.691456 0
M  V30 4922 H 476.54 1.29373 1.41191 0
M  V30 4923 H 474.845 0.479722 3.88852 0
M  V30 4924 H 476.542 0.870203 3.91444 0
M  V30 4925 H 473.132 2.27575 3.63191 0
M  V30 4926 H 477.316 3.24914 3.7516 0
M  V30 4927 H 472.572 4.6444 3.97625 0
M  V30 4928 H 476.746 5.6228 4.1087 0
M  V30 4929 H 474.373 6.32506 4.21712 0
M  V30 4930 N 475.948 -1.35272 0.808662 0
M  V30 4931 C 477.173 -2.03477 0.401475 0
M  V30 4932 C 477.598 -1.60537 -0.980279 0
M  V30 4933 O 476.956 -0.78304 -1.63518 0
M  V30 4934 C 477.004 -3.57181 0.495354 0
M  V30 4935 O 476.108 -4.09474 -0.490397 0
M  V30 4936 H 475.449 -0.642561 0.167366 0
M  V30 4937 H 477.979 -1.72824 1.09512 0
M  V30 4938 H 477.989 -4.06356 0.365912 0
M  V30 4939 H 476.664 -3.87784 1.5032 0
M  V30 4940 H 475.241 -3.71516 -0.321023 0
M  V30 4941 N 477.426 -0.562348 -1.47226 0
M  V30 4942 C 478.674 -0.0401371 -2.0206 0
M  V30 4943 C 478.995 1.3165 -1.43852 0
M  V30 4944 O 478.265 1.85976 -0.615599 0
M  V30 4945 H 476.845 -0.0118479 -0.746906 0
M  V30 4946 H 479.507 -0.73352 -1.8057 0
M  V30 4947 H 478.603 0.0441254 -3.12069 0
M  V30 4948 N 478.904 1.54736 -0.299062 0
M  V30 4949 C 479.867 2.22127 0.565012 0
M  V30 4950 C 480.867 1.20669 1.06281 0
M  V30 4951 O 482.057 1.45417 0.959145 0
M  V30 4952 C 479.189 2.90611 1.78208 0
M  V30 4953 H 480.382 2.99891 -0.0237448 0
M  V30 4954 H 477.935 1.5622 -0.0498788 0
M  V30 4955 H 478.67 2.16921 2.41072 0
M  V30 4956 H 478.455 3.64984 1.43281 0
M  V30 4957 H 479.945 3.42026 2.396 0
M  V30 4958 N 480.382 0.0267497 1.57577 0
M  V30 4959 C 481.798 -0.32962 1.56159 0
M  V30 4960 C 481.998 -1.73059 1.03213 0
M  V30 4961 O 481.054 -2.43233 0.677804 0
M  V30 4962 C 482.367 -0.18039 3.00158 0
M  V30 4963 C 483.915 -0.253334 3.11973 0
M  V30 4964 C 484.39 -0.132921 4.57807 0
M  V30 4965 N 485.881 -0.189979 4.6281 0
M  V30 4966 C 486.616 -0.120554 5.73273 0
M  V30 4967 N 486.112 -0.000180315 6.928 0
M  V30 4968 N 487.905 -0.174369 5.61829 0
M  V30 4969 H 480.056 0.942896 1.90324 0
M  V30 4970 H 482.319 0.3639 0.875375 0
M  V30 4971 H 482.025 0.784576 3.42837 0
M  V30 4972 H 481.899 -0.951565 3.65 0
M  V30 4973 H 484.286 -1.20876 2.69208 0
M  V30 4974 H 484.367 0.548177 2.49857 0
M  V30 4975 H 484.011 0.819073 5.01252 0
M  V30 4976 H 483.941 -0.953264 5.179 0
M  V30 4977 H 486.432 -0.283257 3.76837 0
M  V30 4978 H 486.745 0.0461666 7.72786 0
M  V30 4979 H 485.09 0.034569 6.94991 0
M  V30 4980 H 488.281 -0.266794 4.67339 0
M  V30 4981 H 488.454 -0.116802 6.47895 0
M  V30 4982 N 481.861 -1.55662 -0.24637 0
M  V30 4983 C 482.824 -1.89558 -1.28842 0
M  V30 4984 C 483.824 -0.772082 -1.41052 0
M  V30 4985 O 485.014 -1.04007 -1.39743 0
M  V30 4986 C 482.146 -2.12449 -2.66605 0
M  V30 4987 H 483.339 -2.82735 -1.00004 0
M  V30 4988 H 480.892 -1.48562 -0.485684 0
M  V30 4989 H 481.627 -1.21742 -3.00582 0
M  V30 4990 H 481.412 -2.94273 -2.59125 0
M  V30 4991 H 482.902 -2.39854 -3.41847 0
M  V30 4992 N 483.339 0.512053 -1.4905 0
M  V30 4993 C 484.286 1.6148 -1.64902 0
M  V30 4994 C 485.256 1.58687 -0.490673 0
M  V30 4995 O 486.441 1.76842 -0.71636 0
M  V30 4996 C 483.581 2.99676 -1.71139 0
M  V30 4997 C 482.694 3.12568 -2.98203 0
M  V30 4998 C 481.829 4.4143 -2.95487 0
M  V30 4999 C 480.868 4.47916 -4.17179 0
M  V30 5000 N 480.005 5.68191 -4.12437 0
M  V30 5001 H 484.845 1.47271 -2.59066 0
M  V30 5002 H 482.382 0.716713 -1.28459 0
M  V30 5003 H 484.34 3.79761 -1.72736 0
M  V30 5004 H 482.97 3.12614 -0.804508 0
M  V30 5005 H 482.022 2.25618 -3.06269 0
M  V30 5006 H 483.334 3.1322 -3.88194 0
M  V30 5007 H 482.488 5.29825 -2.95585 0
M  V30 5008 H 481.227 4.43326 -2.03256 0
M  V30 5009 H 480.232 3.57925 -4.17337 0
M  V30 5010 H 481.457 4.47744 -5.1059 0
M  V30 5011 H 479.403 5.7095 -3.23036 0
M  V30 5012 H 479.32 5.70413 -4.96151 0
M  V30 5013 H 480.588 6.58823 -4.16621 0
M  V30 5014 N 484.817 1.37938 0.762283 0
M  V30 5015 C 486.233 1.18945 1.06415 0
M  V30 5016 C 486.433 0.0321163 2.01474 0
M  V30 5017 O 485.489 -0.624844 2.44647 0
M  V30 5018 C 486.802 2.51218 1.65258 0
M  V30 5019 C 488.35 2.57824 1.7747 0
M  V30 5020 C 488.825 3.90251 2.39725 0
M  V30 5021 N 490.316 3.91744 2.47166 0
M  V30 5022 C 491.051 4.90966 2.96209 0
M  V30 5023 N 490.547 6.00585 3.45354 0
M  V30 5024 N 492.34 4.78363 2.9517 0
M  V30 5025 H 484.491 2.11994 0.131301 0
M  V30 5026 H 486.754 0.940262 0.120879 0
M  V30 5027 H 486.46 3.36317 1.02878 0
M  V30 5028 H 486.334 2.68989 2.64433 0
M  V30 5029 H 488.721 1.73126 2.3898 0
M  V30 5030 H 488.802 2.43928 0.770241 0
M  V30 5031 H 488.446 4.75368 1.78852 0
M  V30 5032 H 488.376 4.01454 3.40796 0
M  V30 5033 H 490.867 3.12563 2.12397 0
M  V30 5034 H 491.18 6.72236 3.81207 0
M  V30 5035 H 489.525 6.04217 3.43434 0
M  V30 5036 H 492.716 3.91841 2.56082 0
M  V30 5037 H 492.889 5.55843 3.33081 0
M  V30 5038 N 486.295 -0.989507 1.22664 0
M  V30 5039 C 487.227 -2.0824 0.957542 0
M  V30 5040 C 488.24 -1.6267 -0.0651098 0
M  V30 5041 O 489.429 -1.77695 0.169312 0
M  V30 5042 C 486.529 -3.36298 0.419145 0
M  V30 5043 C 485.702 -4.10882 1.49982 0
M  V30 5044 C 484.761 -5.17221 0.967904 0
M  V30 5045 O 483.787 -5.44613 1.65487 0
M  V30 5046 N 484.989 -5.80124 -0.20896 0
M  V30 5047 H 487.754 -2.31904 1.89843 0
M  V30 5048 H 485.315 -1.15552 1.13399 0
M  V30 5049 H 487.307 -4.04671 0.0485451 0
M  V30 5050 H 485.877 -3.09671 -0.426937 0
M  V30 5051 H 485.097 -3.37092 2.04359 0
M  V30 5052 H 486.385 -4.57482 2.22682 0
M  V30 5053 H 485.783 -5.60244 -0.783818 0
M  V30 5054 H 484.34 -6.49715 -0.520913 0
M  V30 5055 N 487.773 -1.03688 -1.18687 0
M  V30 5056 C 489.021 -0.736572 -1.88199 0
M  V30 5057 C 489.342 0.737665 -1.80509 0
M  V30 5058 O 488.612 1.53204 -1.22088 0
M  V30 5059 H 487.192 -0.269466 -0.696704 0
M  V30 5060 H 489.854 -1.31282 -1.44052 0
M  V30 5061 H 488.95 -1.03802 -2.94332 0
M  V30 5062 N 489.251 1.34841 -0.815825 0
M  V30 5063 C 490.181 2.32187 -0.247298 0
M  V30 5064 C 491.162 1.5791 0.632344 0
M  V30 5065 O 492.347 1.8593 0.560698 0
M  V30 5066 C 489.477 3.42122 0.597466 0
M  V30 5067 C 488.431 4.27602 -0.184446 0
M  V30 5068 C 487.757 5.28942 0.782609 0
M  V30 5069 C 489.057 5.03502 -1.38865 0
M  V30 5070 H 490.751 2.79985 -1.06061 0
M  V30 5071 H 488.297 1.34611 -0.511461 0
M  V30 5072 H 490.25 4.09232 1.00533 0
M  V30 5073 H 488.974 2.92956 1.44376 0
M  V30 5074 H 487.633 3.62085 -0.573592 0
M  V30 5075 H 487.281 4.7604 1.62466 0
M  V30 5076 H 486.981 5.87008 0.263695 0
M  V30 5077 H 488.505 5.98922 1.18848 0
M  V30 5078 H 489.919 5.63506 -1.05518 0
M  V30 5079 H 488.316 5.71108 -1.8427 0
M  V30 5080 H 489.386 4.33608 -2.17054 0
M  V30 5081 N 490.729 0.570148 1.46925 0
M  V30 5082 C 492.14 0.1402 1.86173 0
M  V30 5083 C 492.491 -1.29347 1.47526 0
M  V30 5084 O 491.616 -1.97508 0.884292 0
M  V30 5085 C 492.211 0.247661 3.37894 0
M  V30 5086 C 490.77 -0.127332 3.76185 0
M  V30 5087 C 489.917 0.589349 2.70965 0
M  V30 5088 H 492.868 0.779117 1.38259 0
M  V30 5089 H 492.889 -0.530341 3.76786 0
M  V30 5090 H 492.401 1.29121 3.65991 0
M  V30 5091 H 490.502 -1.17149 3.53704 0
M  V30 5092 H 490.615 0.240238 4.78497 0
M  V30 5093 H 488.979 0.0309824 2.54681 0
M  V30 5094 H 489.762 1.6343 3.01903 0
M  V30 5095 N 492.207 -1.54576 0.307264 0
M  V30 5096 C 493.453 -2.0056 -0.300612 0
M  V30 5097 C 493.786 -1.1953 -1.53057 0
M  V30 5098 O 493.061 -0.27337 -1.92569 0
M  V30 5099 C 493.344 -3.54167 -0.650987 0
M  V30 5100 C 493.197 -4.45933 0.588539 0
M  V30 5101 C 494.516 -4.14645 -1.47506 0
M  V30 5102 H 491.635 -0.729075 -0.107788 0
M  V30 5103 H 494.277 -1.85286 0.420606 0
M  V30 5104 H 492.427 -3.67313 -1.26544 0
M  V30 5105 H 494.099 -4.44683 1.22697 0
M  V30 5106 H 492.342 -4.16274 1.22058 0
M  V30 5107 H 493.013 -5.51189 0.299153 0
M  V30 5108 H 495.489 -4.04973 -0.955821 0
M  V30 5109 H 494.365 -5.22269 -1.68899 0
M  V30 5110 H 494.626 -3.66921 -2.4662 0
M  V30 5111 N 493.685 -0.035106 -1.57561 0
M  V30 5112 C 494.932 0.642229 -1.92046 0
M  V30 5113 C 495.26 1.7179 -0.91206 0
M  V30 5114 O 494.515 1.95544 0.0781153 0
M  V30 5115 C 494.814 1.29149 -3.3325 0
M  V30 5116 C 494.48 0.345604 -4.49574 0
M  V30 5117 C 493.142 0.0852775 -4.81124 0
M  V30 5118 C 495.494 -0.303569 -5.20315 0
M  V30 5119 C 492.822 -0.831927 -5.80772 0
M  V30 5120 C 495.174 -1.20886 -6.20942 0
M  V30 5121 C 493.838 -1.47802 -6.50931 0
M  V30 5122 H 493.108 0.235008 -0.702746 0
M  V30 5123 H 495.755 -0.0981529 -1.91248 0
M  V30 5124 H 494.06 2.10676 -3.30337 0
M  V30 5125 H 495.757 1.82223 -3.57205 0
M  V30 5126 H 492.347 0.558683 -4.24943 0
M  V30 5127 H 496.531 -0.115515 -4.96166 0
M  V30 5128 H 491.787 -1.0481 -6.02349 0
M  V30 5129 H 495.961 -1.71804 -6.74875 0
M  V30 5130 H 493.588 -2.19039 -7.2796 0
M  V30 5131 N 495.163 1.55791 0.238111 0
M  V30 5132 C 496.412 1.77234 0.962868 0
M  V30 5133 C 496.725 0.600661 1.86149 0
M  V30 5134 O 497.931 0.698315 2.62366 0
M  V30 5135 C 496.387 3.13808 1.76218 0
M  V30 5136 C 495.995 4.3865 0.910518 0
M  V30 5137 C 497.739 3.44585 2.47914 0
M  V30 5138 C 495.646 5.66252 1.70623 0
M  V30 5139 H 494.576 0.660731 0.36325 0
M  V30 5140 H 497.227 1.8221 0.217242 0
M  V30 5141 H 495.609 3.02963 2.55009 0
M  V30 5142 H 496.783 4.60507 0.164316 0
M  V30 5143 H 495.098 4.15271 0.30647 0
M  V30 5144 H 497.695 4.3714 3.07917 0
M  V30 5145 H 498.038 2.66314 3.19973 0
M  V30 5146 H 498.571 3.56685 1.76127 0
M  V30 5147 H 495.31 6.47369 1.02923 0
M  V30 5148 H 494.83 5.48483 2.42748 0
M  V30 5149 H 496.509 6.05829 2.27114 0
M  V30 5150 N 496.642 -0.504142 1.49319 0
M  V30 5151 C 497.87 -1.28256 1.62351 0
M  V30 5152 C 498.285 -1.86502 0.293682 0
M  V30 5153 O 497.642 -1.67678 -0.720449 0
M  V30 5154 C 497.693 -2.41507 2.68992 0
M  V30 5155 O 497.414 -1.85656 3.96817 0
M  V30 5156 C 498.915 -3.32929 2.927 0
M  V30 5157 H 496.135 -0.389115 0.546654 0
M  V30 5158 H 498.679 -0.605531 1.95329 0
M  V30 5159 H 496.834 -3.05046 2.38801 0
M  V30 5160 H 497.248 -2.59981 4.55533 0
M  V30 5161 H 498.722 -4.0868 3.71058 0
M  V30 5162 H 499.199 -3.89733 2.02496 0
M  V30 5163 H 499.805 -2.75158 3.24296 0
M  V30 5164 N 498.12 -1.38341 -0.754957 0
M  V30 5165 C 499.531 -1.30803 -1.3322 0
M  V30 5166 C 499.882 0.0368 -1.96165 0
M  V30 5167 O 499.007 0.938844 -1.94974 0
M  V30 5168 C 499.602 -2.3688 -2.42225 0
M  V30 5169 C 498.161 -2.32925 -2.95674 0
M  V30 5170 C 497.308 -2.19819 -1.69042 0
M  V30 5171 H 500.259 -1.48719 -0.553937 0
M  V30 5172 H 500.28 -2.02517 -3.22129 0
M  V30 5173 H 499.792 -3.34747 -1.96383 0
M  V30 5174 H 497.893 -1.38635 -3.45848 0
M  V30 5175 H 498.006 -3.27008 -3.50146 0
M  V30 5176 H 496.37 -1.66648 -1.92615 0
M  V30 5177 H 497.153 -3.19625 -1.25279 0
M  V30 5178 N 499.598 0.982988 -1.23187 0
M  V30 5179 C 500.846 1.72052 -1.06031 0
M  V30 5180 C 501.167 1.90769 0.404019 0
M  V30 5181 O 500.437 1.47446 1.28982 0
M  V30 5182 H 499.017 0.637499 -0.389363 0
M  V30 5183 H 501.679 1.18338 -1.54862 0
M  V30 5184 H 500.775 2.7111 -1.54615 0
M  V30 5185 N 501.076 1.04316 1.18135 0
M  V30 5186 C 502.301 0.768047 1.92655 0
M  V30 5187 C 502.726 -0.66904 1.758 0
M  V30 5188 O 502.084 -1.46372 1.06981 0
M  V30 5189 C 502.132 1.14239 3.42026 0
M  V30 5190 O 501.236 0.269333 4.1152 0
M  V30 5191 H 500.577 0.282436 0.600937 0
M  V30 5192 H 503.107 1.39367 1.49793 0
M  V30 5193 H 503.117 1.10538 3.92741 0
M  V30 5194 H 501.792 2.18928 3.53615 0
M  V30 5195 H 500.369 0.366175 3.71098 0
M  V30 5196 N 502.554 -1.34406 0.822964 0
M  V30 5197 C 503.802 -1.97892 0.410245 0
M  V30 5198 C 504.123 -1.65567 -1.03017 0
M  V30 5199 O 503.393 -0.94642 -1.71522 0
M  V30 5200 H 501.973 -0.732049 0.148707 0
M  V30 5201 H 504.635 -1.64043 1.05242 0
M  V30 5202 H 503.731 -3.07579 0.529284 0
M  V30 5203 N 504.032 -0.577932 -1.46621 0
M  V30 5204 C 504.964 0.195801 -2.28362 0
M  V30 5205 C 505.977 0.859983 -1.38232 0
M  V30 5206 O 507.166 0.730349 -1.62875 0
M  V30 5207 C 504.266 1.29639 -3.13124 0
M  V30 5208 C 503.439 0.725049 -4.31349 0
M  V30 5209 C 502.498 1.71274 -4.97546 0
M  V30 5210 O 501.524 1.25067 -5.5529 0
M  V30 5211 N 502.726 3.04672 -4.94121 0
M  V30 5212 H 505.491 -0.505468 -2.95407 0
M  V30 5213 H 503.052 -0.415381 -1.56481 0
M  V30 5214 H 505.044 1.95631 -3.54275 0
M  V30 5215 H 503.614 1.90059 -2.48186 0
M  V30 5216 H 502.834 -0.112205 -3.9404 0
M  V30 5217 H 504.122 0.323034 -5.07774 0
M  V30 5218 H 503.52 3.4484 -4.48444 0
M  V30 5219 H 502.077 3.66166 -5.39227 0
M  V30 5220 N 505.51 1.54411 -0.315457 0
M  V30 5221 C 506.757 2.00419 0.289543 0
M  V30 5222 C 507.085 1.20373 1.52776 0
M  V30 5223 O 506.34 0.271769 1.93804 0
M  V30 5224 C 506.639 3.50936 0.676652 0
M  V30 5225 C 506.305 4.48532 -0.461472 0
M  V30 5226 C 504.967 4.74936 -0.773879 0
M  V30 5227 C 507.319 5.06567 -1.22637 0
M  V30 5228 C 504.647 5.56634 -1.85405 0
M  V30 5229 C 506.999 5.89441 -2.29657 0
M  V30 5230 C 505.663 6.1415 -2.61488 0
M  V30 5231 H 504.933 0.733386 0.105951 0
M  V30 5232 H 507.58 1.86434 -0.437554 0
M  V30 5233 H 505.885 3.62606 1.48405 0
M  V30 5234 H 507.582 3.83971 1.15618 0
M  V30 5235 H 504.172 4.28096 -0.207893 0
M  V30 5236 H 508.356 4.86157 -0.998271 0
M  V30 5237 H 503.612 5.74012 -2.10523 0
M  V30 5238 H 507.786 6.33432 -2.89374 0
M  V30 5239 H 505.413 6.77245 -3.45317 0
M  V30 5240 N 506.988 0.0434614 1.5754 0
M  V30 5241 C 507.918 -0.931651 2.14109 0
M  V30 5242 C 508.899 -1.32971 1.06079 0
M  V30 5243 O 510.084 -1.40579 1.33982 0
M  V30 5244 C 507.214 -2.20914 2.67982 0
M  V30 5245 C 506.168 -1.95139 3.80926 0
M  V30 5246 C 505.494 -3.29276 4.21285 0
M  V30 5247 C 506.794 -1.27913 5.06395 0
M  V30 5248 H 508.488 -0.460497 2.95837 0
M  V30 5249 H 506.034 -0.220058 1.42309 0
M  V30 5250 H 507.987 -2.89522 3.06194 0
M  V30 5251 H 506.711 -2.70221 1.83434 0
M  V30 5252 H 505.37 -1.28945 3.43175 0
M  V30 5253 H 505.018 -3.76369 3.33699 0
M  V30 5254 H 504.718 -3.12831 4.97404 0
M  V30 5255 H 506.242 -3.99129 4.62091 0
M  V30 5256 H 507.656 -1.86544 5.42102 0
M  V30 5257 H 506.053 -1.2182 5.87605 0
M  V30 5258 H 507.123 -0.254066 4.84234 0
M  V30 5259 N 508.466 -1.55915 -0.229846 0
M  V30 5260 C 509.694 -1.82617 -0.972562 0
M  V30 5261 C 510.109 -0.621488 -1.78278 0
M  V30 5262 O 509.466 0.409956 -1.77836 0
M  V30 5263 C 509.517 -3.0774 -1.89679 0
M  V30 5264 O 509.238 -4.23559 -1.11934 0
M  V30 5265 C 510.739 -3.47368 -2.75409 0
M  V30 5266 H 507.959 -0.60727 -0.285419 0
M  V30 5267 H 510.503 -2.02996 -0.247579 0
M  V30 5268 H 508.658 -2.89361 -2.57583 0
M  V30 5269 H 509.072 -4.94586 -1.74599 0
M  V30 5270 H 510.546 -4.37977 -3.35977 0
M  V30 5271 H 511.023 -2.68737 -3.47386 0
M  V30 5272 H 511.629 -3.68158 -2.12931 0
M  V30 5273 N 509.944 0.496216 -1.49584 0
M  V30 5274 C 511.172 1.27394 -1.63029 0
M  V30 5275 C 511.587 1.86344 -0.303569 0
M  V30 5276 O 510.944 1.68057 0.711547 0
M  V30 5277 C 510.995 2.40077 -2.70269 0
M  V30 5278 O 510.716 1.83549 -3.97796 0
M  V30 5279 C 512.217 3.31372 -2.94462 0
M  V30 5280 H 509.437 0.386211 -0.54871 0
M  V30 5281 H 511.981 0.595163 -1.95648 0
M  V30 5282 H 510.136 3.03775 -2.40415 0
M  V30 5283 H 510.55 2.57561 -4.56905 0
M  V30 5284 H 512.024 4.06707 -3.73221 0
M  V30 5285 H 512.501 3.88654 -2.0456 0
M  V30 5286 H 513.107 2.73435 -3.25751 0
M  V30 5287 N 511.423 1.38739 0.74761 0
M  V30 5288 C 512.7 1.25791 1.49786 0
M  V30 5289 C 513.08 -0.138075 2.10648 0
M  V30 5290 O 512.428 -1.14815 1.9756 0
M  V30 5291 C 512.638 2.37265 2.55942 0
M  V30 5292 C 513.986 2.75978 3.22679 0
M  V30 5293 O 515.01 2.36621 2.6625 0
M  V30 5294 O 513.869 3.43867 4.24756 0
M  V30 5295 H 510.963 0.492251 0.664543 0
M  V30 5296 H 513.509 1.50582 0.782511 0
M  V30 5297 H 512.281 3.30644 2.0926 0
M  V30 5298 H 511.904 2.14071 3.35051 0
M  V30 5299 N 512.901 -0.976442 1.23707 0
M  V30 5300 C 514.178 -1.69296 0.979699 0
M  V30 5301 C 514.558 -2.0508 -0.500555 0
M  V30 5302 O 513.906 -1.74708 -1.47273 0
M  V30 5303 C 514.116 -2.93143 1.89389 0
M  V30 5304 C 515.464 -3.65572 2.15968 0
M  V30 5305 O 516.488 -3.03184 1.86971 0
M  V30 5306 O 515.347 -4.77859 2.65167 0
M  V30 5307 H 512.441 -0.739708 0.369812 0
M  V30 5308 H 514.987 -1.03131 1.34767 0
M  V30 5309 H 513.759 -2.63327 2.89439 0
M  V30 5310 H 513.382 -3.67044 1.52854 0
M  V30 5311 N 514.379 -1.04941 -1.1758 0
M  V30 5312 C 515.626 -0.757989 -1.87779 0
M  V30 5313 C 515.954 0.714827 -1.80888 0
M  V30 5314 O 515.209 1.53824 -1.20982 0
M  V30 5315 C 515.508 -1.18062 -3.37337 0
M  V30 5316 C 515.174 -2.65521 -3.6443 0
M  V30 5317 C 513.836 -3.05804 -3.71534 0
M  V30 5318 C 516.188 -3.60822 -3.76108 0
M  V30 5319 C 513.516 -4.40256 -3.87803 0
M  V30 5320 C 515.868 -4.95005 -3.93895 0
M  V30 5321 C 514.532 -5.34945 -3.99237 0
M  V30 5322 H 513.802 -0.277368 -0.68713 0
M  V30 5323 H 516.449 -1.31603 -1.39115 0
M  V30 5324 H 514.754 -0.541525 -3.8804 0
M  V30 5325 H 516.451 -0.932368 -3.9001 0
M  V30 5326 H 513.041 -2.33324 -3.59524 0
M  V30 5327 H 517.225 -3.30841 -3.69943 0
M  V30 5328 H 512.481 -4.70707 -3.90186 0
M  V30 5329 H 516.655 -5.68746 -4.01872 0
M  V30 5330 H 514.282 -6.39135 -4.11596 0
M  V30 5331 N 515.857 1.33968 -0.830081 0
M  V30 5332 C 516.789 2.28194 -0.21448 0
M  V30 5333 C 517.802 1.5135 0.599752 0
M  V30 5334 O 518.991 1.73286 0.42826 0
M  V30 5335 C 516.091 3.31221 0.717356 0
M  V30 5336 C 515.264 4.37365 -0.055613 0
M  V30 5337 C 514.323 5.2011 0.798231 0
M  V30 5338 O 513.349 5.68691 0.240616 0
M  V30 5339 N 514.551 5.40523 2.11695 0
M  V30 5340 H 517.316 2.81662 -1.02405 0
M  V30 5341 H 514.877 1.46568 -0.687713 0
M  V30 5342 H 516.869 3.83477 1.29334 0
M  V30 5343 H 515.439 2.78095 1.42765 0
M  V30 5344 H 514.659 3.85727 -0.812936 0
M  V30 5345 H 515.947 5.05397 -0.587444 0
M  V30 5346 H 515.345 5.0274 2.59363 0
M  V30 5347 H 513.902 5.95871 2.64162 0
M  V30 5348 N 517.335 0.585699 1.46312 0
M  V30 5349 C 518.56 0.0762461 2.0726 0
M  V30 5350 C 518.985 -1.22071 1.43109 0
M  V30 5351 O 518.343 -1.73804 0.515942 0
M  V30 5352 C 518.391 -0.0729404 3.60526 0
M  V30 5353 O 517.495 -1.1287 3.96654 0
M  V30 5354 H 516.836 0.0641558 0.660893 0
M  V30 5355 H 519.366 0.809492 1.87905 0
M  V30 5356 H 519.376 -0.278158 4.07051 0
M  V30 5357 H 518.051 0.874188 4.06609 0
M  V30 5358 H 516.628 -0.901703 3.61834 0
M  V30 5359 N 518.813 -1.54241 0.323641 0
M  V30 5360 C 520.224 -1.85975 -0.164405 0
M  V30 5361 C 520.575 -1.24529 -1.51615 0
M  V30 5362 O 519.7 -0.551351 -2.09258 0
M  V30 5363 C 520.295 -3.37424 -0.305091 0
M  V30 5364 C 518.854 -3.69107 -0.737358 0
M  V30 5365 C 518.001 -2.76942 0.140884 0
M  V30 5366 H 520.952 -1.49088 0.543922 0
M  V30 5367 H 520.973 -3.63147 -1.13598 0
M  V30 5368 H 520.485 -3.82116 0.678876 0
M  V30 5369 H 518.586 -3.29947 -1.73107 0
M  V30 5370 H 518.699 -4.76035 -0.541053 0
M  V30 5371 H 517.063 -2.51795 -0.383572 0
M  V30 5372 H 517.846 -3.24461 1.12162 0
M  V30 5373 N 520.291 -0.0518155 -1.57515 0
M  V30 5374 C 521.531 0.625712 -1.94587 0
M  V30 5375 C 521.895 1.6797 -0.930053 0
M  V30 5376 O 523.096 2.41135 -1.18774 0
M  V30 5377 C 521.367 1.20574 -3.36447 0
M  V30 5378 S 522.926 1.90118 -3.95475 0
M  V30 5379 H 519.744 0.205434 -0.680675 0
M  V30 5380 H 522.346 -0.120906 -1.95126 0
M  V30 5381 H 521.05 0.426521 -4.08178 0
M  V30 5382 H 520.581 1.98916 -3.39405 0
M  V30 5383 H 522.596 3.18184 -3.80753 0
M  V30 5384 N 521.769 1.56035 0.221574 0
M  V30 5385 C 522.732 1.91584 1.2581 0
M  V30 5386 C 523.732 0.794425 1.39805 0
M  V30 5387 O 524.922 1.06217 1.38071 0
M  V30 5388 C 522.054 2.16663 2.63192 0
M  V30 5389 H 523.247 2.8429 0.954935 0
M  V30 5390 H 520.8 1.49316 0.461988 0
M  V30 5391 H 521.535 1.26508 2.98607 0
M  V30 5392 H 521.32 2.98358 2.5441 0
M  V30 5393 H 522.81 2.45262 3.37988 0
M  V30 5394 N 523.247 -0.488276 1.49845 0
M  V30 5395 C 524.177 -1.59675 1.70371 0
M  V30 5396 C 525.158 -1.60878 0.552473 0
M  V30 5397 O 526.343 -1.77417 0.78973 0
M  V30 5398 C 523.473 -2.98098 1.782 0
M  V30 5399 C 522.427 -3.11761 2.93239 0
M  V30 5400 C 521.753 -4.51661 2.86193 0
M  V30 5401 C 523.053 -2.90589 4.33999 0
M  V30 5402 H 524.747 -1.42752 2.63177 0
M  V30 5403 H 522.293 -0.685317 1.26647 0
M  V30 5404 H 524.246 -3.75555 1.91144 0
M  V30 5405 H 522.97 -3.16138 0.820018 0
M  V30 5406 H 521.629 -2.36732 2.79917 0
M  V30 5407 H 521.277 -4.66595 1.87877 0
M  V30 5408 H 520.977 -4.61742 3.63412 0
M  V30 5409 H 522.501 -5.31162 3.01163 0
M  V30 5410 H 523.915 -3.57807 4.47936 0
M  V30 5411 H 522.312 -3.1213 5.12538 0
M  V30 5412 H 523.382 -1.86595 4.4756 0
M  V30 5413 N 524.725 -1.39134 -0.740242 0
M  V30 5414 C 526.136 -1.32208 -1.31825 0
M  V30 5415 C 526.487 0.0159919 -1.96193 0
M  V30 5416 O 525.612 0.918111 -1.95958 0
M  V30 5417 C 526.207 -2.39436 -2.39699 0
M  V30 5418 C 524.766 -2.36048 -2.93187 0
M  V30 5419 C 523.913 -2.21599 -1.66701 0
M  V30 5420 H 526.864 -1.49298 -0.538133 0
M  V30 5421 H 526.885 -2.05922 -3.19963 0
M  V30 5422 H 526.397 -3.36811 -1.92821 0
M  V30 5423 H 524.498 -1.42295 -3.44359 0
M  V30 5424 H 524.611 -3.30704 -3.46658 0
M  V30 5425 H 522.975 -1.68681 -1.90837 0
M  V30 5426 H 523.758 -3.20936 -1.21882 0
M  V30 5427 N 526.204 0.969867 -1.24223 0
M  V30 5428 C 527.45 1.71582 -1.09231 0
M  V30 5429 C 527.805 1.88898 0.365432 0
M  V30 5430 O 527.098 1.43781 1.2664 0
M  V30 5431 C 527.292 3.10883 -1.76314 0
M  V30 5432 C 527.121 3.07155 -3.2846 0
M  V30 5433 C 525.891 3.11757 -3.97663 0
M  V30 5434 C 528.089 2.895 -4.25082 0
M  V30 5435 N 526.071 2.98025 -5.36707 0
M  V30 5436 C 527.442 2.84041 -5.51109 0
M  V30 5437 C 529.497 2.74064 -4.15684 0
M  V30 5438 C 528.2 2.64725 -6.68815 0
M  V30 5439 C 530.226 2.56115 -5.33066 0
M  V30 5440 C 529.588 2.51363 -6.58024 0
M  V30 5441 H 525.687 0.636496 -0.454309 0
M  V30 5442 H 528.271 1.15004 -1.57106 0
M  V30 5443 H 526.442 3.65657 -1.30955 0
M  V30 5444 H 528.174 3.74171 -1.54201 0
M  V30 5445 H 524.929 3.20352 -3.48814 0
M  V30 5446 H 525.353 2.94405 -6.09635 0
M  V30 5447 H 529.995 2.76521 -3.19837 0
M  V30 5448 H 527.713 2.61011 -7.64787 0
M  V30 5449 H 531.299 2.45119 -5.27644 0
M  V30 5450 H 530.179 2.37651 -7.47323 0
M  V30 5451 N 527.682 1.05563 1.17022 0
M  V30 5452 C 528.912 0.787307 1.91011 0
M  V30 5453 C 529.32 -0.661256 1.77268 0
M  V30 5454 O 528.663 -1.46379 1.10991 0
M  V30 5455 C 528.725 1.09313 3.42478 0
M  V30 5456 C 528.389 2.53863 3.80004 0
M  V30 5457 C 529.386 3.52081 3.82538 0
M  V30 5458 C 527.071 2.88969 4.10855 0
M  V30 5459 C 529.065 4.83449 4.15399 0
M  V30 5460 C 526.752 4.2054 4.43384 0
M  V30 5461 C 527.75 5.17589 4.45635 0
M  V30 5462 O 527.438 6.46799 4.77395 0
M  V30 5463 H 527.17 0.285463 0.61277 0
M  V30 5464 H 529.724 1.41051 1.49311 0
M  V30 5465 H 527.954 0.412833 3.8449 0
M  V30 5466 H 529.643 0.810224 3.97731 0
M  V30 5467 H 530.409 3.26299 3.58823 0
M  V30 5468 H 526.288 2.1409 4.08272 0
M  V30 5469 H 529.832 5.59194 4.1707 0
M  V30 5470 H 525.729 4.46083 4.66563 0
M  V30 5471 H 526.497 6.51677 4.95237 0
M  V30 5472 N 529.16 -1.33526 0.837174 0
M  V30 5473 C 530.11 -2.2672 0.241269 0
M  V30 5474 C 531.094 -1.49183 -0.602756 0
M  V30 5475 O 532.286 -1.71052 -0.455002 0
M  V30 5476 C 529.415 -3.38294 -0.584125 0
M  V30 5477 C 528.501 -4.23231 0.271315 0
M  V30 5478 N 528.892 -4.87473 1.34922 0
M  V30 5479 C 527.19 -4.45962 0.0580589 0
M  V30 5480 C 527.891 -5.50685 1.87405 0
M  V30 5481 N 526.867 -5.30732 1.17578 0
M  V30 5482 H 530.669 -2.73903 1.06558 0
M  V30 5483 H 528.183 -1.47411 0.68145 0
M  V30 5484 H 530.18 -4.04044 -1.02731 0
M  V30 5485 H 528.84 -2.9266 -1.40643 0
M  V30 5486 H 529.851 -4.88077 1.7321 0
M  V30 5487 H 526.528 -4.11052 -0.730938 0
M  V30 5488 H 527.918 -6.11845 2.77661 0
M  V30 5489 N 530.638 -0.59345 -1.46 0
M  V30 5490 C 532.049 -0.169801 -1.85926 0
M  V30 5491 C 532.4 1.26984 -1.49565 0
M  V30 5492 O 531.525 1.96076 -0.915602 0
M  V30 5493 C 532.12 -0.301385 -3.37457 0
M  V30 5494 C 530.679 0.0674684 -3.7634 0
M  V30 5495 C 529.826 -0.632383 -2.69993 0
M  V30 5496 H 532.777 -0.801014 -1.37002 0
M  V30 5497 H 532.798 0.470331 -3.77582 0
M  V30 5498 H 532.31 -1.34927 -3.63891 0
M  V30 5499 H 530.411 1.11507 -3.55523 0
M  V30 5500 H 530.524 -0.316332 -4.78055 0
M  V30 5501 H 528.888 -0.0714961 -2.546 0
M  V30 5502 H 529.671 -1.68212 -2.99265 0
M  V30 5503 N 532.116 1.54067 -0.331816 0
M  V30 5504 C 533.344 2.05131 0.269996 0
M  V30 5505 C 533.759 1.20749 1.45138 0
M  V30 5506 O 533.116 0.240069 1.80914 0
M  V30 5507 C 533.167 3.54728 0.696456 0
M  V30 5508 O 532.888 4.35906 -0.43794 0
M  V30 5509 C 534.389 4.21916 1.36021 0
M  V30 5510 H 531.609 0.668807 0.0542042 0
M  V30 5511 H 534.153 1.98777 -0.4804 0
M  V30 5512 H 532.308 3.61342 1.39681 0
M  V30 5513 H 532.722 5.24404 -0.100334 0
M  V30 5514 H 534.196 5.28015 1.60947 0
M  V30 5515 H 534.673 3.73538 2.31011 0
M  V30 5516 H 535.279 4.19463 0.702212 0
M  V30 5517 N 533.594 0.0601682 1.57485 0
M  V30 5518 C 534.541 -0.91112 2.12055 0
M  V30 5519 C 535.511 -1.30298 1.03013 0
M  V30 5520 O 536.696 -1.39087 1.30612 0
M  V30 5521 C 533.836 -2.1775 2.67729 0
M  V30 5522 C 532.949 -1.83933 3.90887 0
M  V30 5523 C 532.084 -3.05096 4.34845 0
M  V30 5524 C 531.123 -2.67241 5.5068 0
M  V30 5525 N 530.26 -3.81127 5.8965 0
M  V30 5526 H 535.1 -0.43888 2.9475 0
M  V30 5527 H 532.637 -0.204995 1.45665 0
M  V30 5528 H 534.595 -2.91866 2.98111 0
M  V30 5529 H 533.225 -2.62535 1.87816 0
M  V30 5530 H 532.277 -0.999287 3.6704 0
M  V30 5531 H 533.589 -1.52074 4.75052 0
M  V30 5532 H 532.743 -3.87502 4.66827 0
M  V30 5533 H 531.482 -3.40139 3.49509 0
M  V30 5534 H 530.487 -1.83254 5.18361 0
M  V30 5535 H 531.712 -2.3338 6.37738 0
M  V30 5536 H 529.658 -4.15954 5.07266 0
M  V30 5537 H 529.575 -3.52997 6.68528 0
M  V30 5538 H 530.843 -4.64145 6.2625 0
M  V30 5539 N 535.072 -1.5615 -0.213296 0
M  V30 5540 C 535.982 -1.96265 -1.28519 0
M  V30 5541 C 536.998 -0.86765 -1.50824 0
M  V30 5542 O 538.174 -1.17191 -1.63793 0
M  V30 5543 C 535.239 -2.27836 -2.61327 0
M  V30 5544 C 534.3 -3.50949 -2.47252 0
M  V30 5545 C 533.533 -3.81004 -3.73727 0
M  V30 5546 O 533.756 -3.12612 -4.77106 0
M  V30 5547 O 532.69 -4.74477 -3.70344 0
M  V30 5548 H 536.516 -2.87631 -0.974795 0
M  V30 5549 H 534.101 -1.43467 -0.416832 0
M  V30 5550 H 535.983 -2.49299 -3.39747 0
M  V30 5551 H 534.658 -1.39643 -2.9203 0
M  V30 5552 H 533.565 -3.34754 -1.67004 0
M  V30 5553 H 534.898 -4.39551 -2.21486 0
M  V30 5554 N 536.55 0.480323 -1.50102 0
M  V30 5555 C 537.799 1.22979 -1.59872 0
M  V30 5556 C 538.112 1.93282 -0.30022 0
M  V30 5557 O 539.318 2.70086 -0.276709 0
M  V30 5558 C 537.774 2.23408 -2.82164 0
M  V30 5559 C 537.382 1.5895 -4.18854 0
M  V30 5560 C 539.126 2.99055 -3.01275 0
M  V30 5561 C 537.033 2.57611 -5.32344 0
M  V30 5562 H 535.963 0.462707 -0.59533 0
M  V30 5563 H 538.614 0.501291 -1.7652 0
M  V30 5564 H 536.996 2.99511 -2.59055 0
M  V30 5565 H 538.17 0.887 -4.52182 0
M  V30 5566 H 536.485 0.956191 -4.05273 0
M  V30 5567 H 539.082 3.72876 -3.83233 0
M  V30 5568 H 539.425 3.57897 -2.12639 0
M  V30 5569 H 539.958 2.30066 -3.24522 0
M  V30 5570 H 536.697 2.03521 -6.23105 0
M  V30 5571 H 536.217 3.26041 -5.03445 0
M  V30 5572 H 537.896 3.19627 -5.62537 0
M  V30 5573 N 538.028 1.39524 0.732853 0
M  V30 5574 C 539.253 1.40329 1.52717 0
M  V30 5575 C 539.678 0.000286574 1.881 0
M  V30 5576 O 539.036 -0.987262 1.52062 0
M  V30 5577 C 539.084 2.28464 2.78992 0
M  V30 5578 O 538.188 1.716 3.75003 0
M  V30 5579 H 537.529 0.47778 0.461109 0
M  V30 5580 H 540.059 1.83546 0.903996 0
M  V30 5581 H 540.069 2.43051 3.27705 0
M  V30 5582 H 538.744 3.30425 2.52572 0
M  V30 5583 H 537.321 1.66267 3.33781 0
M  V30 5584 N 539.506 -0.963266 1.24736 0
M  V30 5585 C 540.755 -1.70115 1.08369 0
M  V30 5586 C 541.068 -1.91939 -0.376688 0
M  V30 5587 O 542.274 -2.6334 -0.660624 0
M  V30 5588 C 540.73 -3.06218 1.89099 0
M  V30 5589 C 540.338 -2.92221 3.39574 0
M  V30 5590 C 542.082 -3.83848 1.81275 0
M  V30 5591 C 539.989 -4.23662 4.12631 0
M  V30 5592 H 538.919 -0.637944 0.401924 0
M  V30 5593 H 541.57 -1.07304 1.48856 0
M  V30 5594 H 539.952 -3.69884 1.41429 0
M  V30 5595 H 541.126 -2.37541 3.94856 0
M  V30 5596 H 539.441 -2.28054 3.48397 0
M  V30 5597 H 542.038 -4.81188 2.33158 0
M  V30 5598 H 542.381 -4.08949 0.778895 0
M  V30 5599 H 542.914 -3.26918 2.26649 0
M  V30 5600 H 539.653 -4.03753 5.16395 0
M  V30 5601 H 539.173 -4.78141 3.62135 0
M  V30 5602 H 540.852 -4.92256 4.19873 0
M  V30 5603 N 540.985 -1.06182 -1.16461 0
M  V30 5604 C 542.396 -0.802426 -1.68576 0
M  V30 5605 C 542.747 0.67412 -1.84255 0
M  V30 5606 O 541.872 1.52303 -1.5373 0
M  V30 5607 C 542.467 -1.45002 -3.06202 0
M  V30 5608 C 541.026 -1.23843 -3.55443 0
M  V30 5609 C 540.173 -1.52724 -2.31454 0
M  V30 5610 H 543.124 -1.22545 -1.00839 0
M  V30 5611 H 543.145 -0.864731 -3.70544 0
M  V30 5612 H 542.657 -2.52466 -2.94759 0
M  V30 5613 H 540.758 -0.183487 -3.72148 0
M  V30 5614 H 540.871 -1.95036 -4.37604 0
M  V30 5615 H 539.235 -0.947726 -2.36411 0
M  V30 5616 H 540.018 -2.61343 -2.22609 0
M  V30 5617 N 542.463 1.3308 -0.844243 0
M  V30 5618 C 543.711 1.97215 -0.441676 0
M  V30 5619 C 544.032 1.67185 1.0037 0
M  V30 5620 O 543.302 0.973588 1.69994 0
M  V30 5621 H 541.882 0.72959 -0.160335 0
M  V30 5622 H 544.544 1.62348 -1.07838 0
M  V30 5623 H 543.64 3.06698 -0.57815 0
M  V30 5624 N 543.941 0.601185 1.45683 0
M  V30 5625 C 544.851 -0.123395 2.34275 0
M  V30 5626 C 545.867 -0.86702 1.5086 0
M  V30 5627 O 547.043 -0.826049 1.8368 0
M  V30 5628 C 544.108 -1.11237 3.2837 0
M  V30 5629 C 543.169 -0.371405 4.2769 0
M  V30 5630 C 542.402 -1.31327 5.1729 0
M  V30 5631 O 542.625 -2.55078 5.10188 0
M  V30 5632 O 541.559 -0.813811 5.96373 0
M  V30 5633 H 545.385 0.604483 2.97623 0
M  V30 5634 H 542.97 0.361477 1.44961 0
M  V30 5635 H 544.852 -1.68214 3.8637 0
M  V30 5636 H 543.527 -1.82139 2.67595 0
M  V30 5637 H 542.434 0.24067 3.73325 0
M  V30 5638 H 543.767 0.296998 4.91303 0
M  V30 5639 N 545.419 -1.53889 0.339982 0
M  V30 5640 C 546.665 -2.01152 -0.258003 0
M  V30 5641 C 546.998 -1.22749 -1.50487 0
M  V30 5642 O 546.273 -0.314156 -1.91946 0
M  V30 5643 C 546.556 -3.55468 -0.575717 0
M  V30 5644 C 546.409 -4.44584 0.682996 0
M  V30 5645 C 547.728 -4.1768 -1.38677 0
M  V30 5646 H 544.847 -0.731198 -0.0922992 0
M  V30 5647 H 547.489 -1.84352 0.459814 0
M  V30 5648 H 545.639 -3.69914 -1.18725 0
M  V30 5649 H 547.311 -4.41981 1.32102 0
M  V30 5650 H 545.554 -4.13592 1.3086 0
M  V30 5651 H 546.225 -5.5043 0.416001 0
M  V30 5652 H 548.701 -4.0691 -0.869705 0
M  V30 5653 H 547.577 -5.25734 -1.57783 0
M  V30 5654 H 547.838 -3.72069 -2.38782 0
M  V30 5655 N 546.897 -0.0685191 -1.57451 0
M  V30 5656 C 547.844 0.899861 -2.12535 0
M  V30 5657 C 548.814 1.29749 -1.03703 0
M  V30 5658 O 549.999 1.38392 -1.31348 0
M  V30 5659 C 547.139 2.16328 -2.6888 0
M  V30 5660 C 546.252 1.81857 -3.91857 0
M  V30 5661 C 545.387 3.02786 -4.36457 0
M  V30 5662 C 544.426 2.64317 -5.5209 0
M  V30 5663 N 543.563 3.77994 -5.91663 0
M  V30 5664 H 548.403 0.423243 -2.94979 0
M  V30 5665 H 545.94 0.197268 -1.45771 0
M  V30 5666 H 547.898 2.90281 -2.99655 0
M  V30 5667 H 546.528 2.61536 -1.89206 0
M  V30 5668 H 545.58 0.979808 -3.67565 0
M  V30 5669 H 546.892 1.49553 -4.75852 0
M  V30 5670 H 546.046 3.85021 -4.68875 0
M  V30 5671 H 544.785 3.38281 -3.51308 0
M  V30 5672 H 543.79 1.80503 -5.19325 0
M  V30 5673 H 545.015 2.29995 -6.38967 0
M  V30 5674 H 542.961 4.13258 -5.09464 0
M  V30 5675 H 542.878 3.49447 -6.7039 0
M  V30 5676 H 544.146 4.60818 -6.28703 0
M  V30 5677 N 548.375 1.56261 0.205012 0
M  V30 5678 C 549.323 1.94631 1.27364 0
M  V30 5679 C 550.317 0.830434 1.47649 0
M  V30 5680 O 551.523 1.01538 1.48627 0
M  V30 5681 H 547.898 0.618755 0.427371 0
M  V30 5682 H 549.869 2.83768 0.922941 0
M  V30 5683 C 548.618 2.29358 2.61324 0
M  V30 5684 H 547.941 3.14744 2.46528 0
M  V30 5685 H 549.381 2.60076 3.34868 0
M  V30 5686 C 547.84 1.12461 3.17575 0
M  V30 5687 O 548.37 0.394407 3.99759 0
M  V30 5688 N 546.576 0.904036 2.7618 0
M  V30 5689 H 546.123 1.49956 2.09454 0
M  V30 5690 H 546.081 0.123662 3.14157 0
M  V30 5691 N 549.853 -0.472356 1.50355 0
M  V30 5692 C 550.783 -1.57859 1.72055 0
M  V30 5693 C 551.764 -1.60283 0.569505 0
M  V30 5694 O 552.949 -1.7657 0.808503 0
M  V30 5695 C 550.079 -2.96191 1.81351 0
M  V30 5696 C 549.033 -3.08633 2.96529 0
M  V30 5697 C 548.359 -4.486 2.90968 0
M  V30 5698 C 549.659 -2.85969 4.37057 0
M  V30 5699 H 551.353 -1.39953 2.64676 0
M  V30 5700 H 548.899 -0.671846 1.27367 0
M  V30 5701 H 550.852 -3.73507 1.95117 0
M  V30 5702 H 549.576 -3.15251 0.853502 0
M  V30 5703 H 548.235 -2.33749 2.82413 0
M  V30 5704 H 547.883 -4.64577 1.92815 0
M  V30 5705 H 547.583 -4.57861 3.68289 0
M  V30 5706 H 549.107 -5.27938 3.0678 0
M  V30 5707 H 550.521 -3.53036 4.51706 0
M  V30 5708 H 548.918 -3.06677 5.15819 0
M  V30 5709 H 549.988 -1.81838 4.49514 0
M  V30 5710 N 551.331 -1.39911 -0.725443 0
M  V30 5711 C 552.577 -1.37858 -1.48738 0
M  V30 5712 C 552.91 0.0224187 -1.94187 0
M  V30 5713 O 552.185 0.989204 -1.67466 0
M  V30 5714 C 552.468 -2.3594 -2.72038 0
M  V30 5715 C 552.321 -3.85023 -2.32546 0
M  V30 5716 C 553.64 -2.31704 -3.74167 0
M  V30 5717 H 550.759 -0.502074 -0.539528 0
M  V30 5718 H 553.401 -1.70974 -0.828728 0
M  V30 5719 H 551.551 -2.0783 -3.28236 0
M  V30 5720 H 553.223 -4.2392 -1.81905 0
M  V30 5721 H 551.466 -4.01334 -1.64661 0
M  V30 5722 H 552.137 -4.49152 -3.20884 0
M  V30 5723 H 554.613 -2.5658 -3.27576 0
M  V30 5724 H 553.489 -3.02395 -4.58092 0
M  V30 5725 H 553.75 -1.3253 -4.21768 0
M  V30 5726 N 552.809 0.956637 -1.25245 0
M  V30 5727 C 553.719 2.0868 -1.0719 0
M  V30 5728 C 554.735 1.73997 -0.00959074 0
M  V30 5729 O 555.911 2.00301 -0.210104 0
M  V30 5730 C 552.976 3.39754 -0.690526 0
M  V30 5731 C 552.037 3.88316 -1.83055 0
M  V30 5732 C 551.27 5.13134 -1.46728 0
M  V30 5733 O 551.493 5.6925 -0.362029 0
M  V30 5734 O 550.427 5.56356 -2.29677 0
M  V30 5735 H 554.253 2.26813 -2.01965 0
M  V30 5736 H 551.838 1.07098 -1.04165 0
M  V30 5737 H 553.72 4.18543 -0.489871 0
M  V30 5738 H 552.395 3.22896 0.227981 0
M  V30 5739 H 551.302 3.1054 -2.08604 0
M  V30 5740 H 552.635 4.09669 -2.72822 0
M  V30 5741 N 554.287 1.06798 1.15896 0
M  V30 5742 C 555.536 0.782796 1.8589 0
M  V30 5743 C 555.849 -0.693498 1.82893 0
M  V30 5744 O 557.055 -1.09325 2.48516 0
M  V30 5745 C 555.511 1.3502 3.33613 0
M  V30 5746 C 555.119 2.8571 3.45071 0
M  V30 5747 C 556.863 1.14278 4.08829 0
M  V30 5748 C 554.77 3.35669 4.86909 0
M  V30 5749 H 553.7 0.289149 0.696354 0
M  V30 5750 H 556.351 1.28734 1.30766 0
M  V30 5751 H 554.733 0.773407 3.88374 0
M  V30 5752 H 555.907 3.49385 3.00445 0
M  V30 5753 H 554.222 3.05178 2.83294 0
M  V30 5754 H 556.819 1.49087 5.13495 0
M  V30 5755 H 557.162 0.0814575 4.1622 0
M  V30 5756 H 557.695 1.68563 3.60321 0
M  V30 5757 H 554.434 4.41302 4.84698 0
M  V30 5758 H 553.954 2.76745 5.32139 0
M  V30 5759 H 555.633 3.31296 5.55745 0
M  V30 5760 N 555.766 -1.3263 0.851289 0
M  V30 5761 C 557.006 -1.99174 0.459266 0
M  V30 5762 C 557.37 -1.65913 -0.966273 0
M  V30 5763 O 558.571 -2.2552 -1.46267 0
M  V30 5764 C 556.842 -3.50721 0.687698 0
M  V30 5765 S 558.401 -4.37039 0.392746 0
M  V30 5766 H 555.219 -0.689832 0.172199 0
M  V30 5767 H 557.821 -1.61395 1.10327 0
M  V30 5768 H 556.525 -3.72417 1.72435 0
M  V30 5769 H 556.056 -3.93389 0.0299949 0
M  V30 5770 H 558.071 -4.8999 -0.782578 0
M  V30 5771 N 557.244 -0.608902 -1.45362 0
M  V30 5772 C 558.176 0.147318 -2.28726 0
M  V30 5773 C 559.189 0.830468 -1.40025 0
M  V30 5774 O 560.378 0.695636 -1.64387 0
M  V30 5775 C 557.478 1.22968 -3.15804 0
M  V30 5776 C 556.651 0.633391 -4.3279 0
M  V30 5777 C 555.71 1.60682 -5.01067 0
M  V30 5778 O 554.736 1.13261 -5.57818 0
M  V30 5779 N 555.938 2.94123 -5.00472 0
M  V30 5780 H 558.703 -0.568014 -2.94268 0
M  V30 5781 H 556.264 -0.448479 -1.55564 0
M  V30 5782 H 558.256 1.88072 -3.58345 0
M  V30 5783 H 556.826 1.84752 -2.52162 0
M  V30 5784 H 556.046 -0.195762 -3.93714 0
M  V30 5785 H 557.334 0.215255 -5.08344 0
M  V30 5786 H 556.732 3.3525 -4.55657 0
M  V30 5787 H 555.289 3.54646 -5.46872 0
M  V30 5788 N 558.722 1.53707 -0.348139 0
M  V30 5789 C 559.968 2.01286 0.247332 0
M  V30 5790 C 560.301 1.23546 1.49834 0
M  V30 5791 O 559.576 0.324331 1.91777 0
M  V30 5792 C 559.859 3.55768 0.556858 0
M  V30 5793 C 559.712 4.44216 -0.706564 0
M  V30 5794 C 561.031 4.1841 1.3646 0
M  V30 5795 H 558.15 0.731677 0.0884201 0
M  V30 5796 H 560.792 1.84106 -0.469584 0
M  V30 5797 H 558.942 3.70539 1.16761 0
M  V30 5798 H 560.614 4.41274 -1.34444 0
M  V30 5799 H 558.857 4.12892 -1.33052 0
M  V30 5800 H 559.528 5.50202 -0.445186 0
M  V30 5801 H 562.004 4.07365 0.848113 0
M  V30 5802 H 560.88 5.26563 1.54992 0
M  V30 5803 H 561.141 3.7333 2.36805 0
M  V30 5804 N 560.2 0.0768682 1.57412 0
M  V30 5805 C 561.477 -0.632359 1.85096 0
M  V30 5806 C 561.857 -1.87479 0.9703 0
M  V30 5807 O 561.205 -2.28469 0.0379062 0
M  V30 5808 C 561.415 -0.965174 3.35388 0
M  V30 5809 C 562.763 -1.33648 4.03018 0
M  V30 5810 O 563.787 -1.05675 3.40164 0
M  V30 5811 O 562.646 -1.85959 5.13889 0
M  V30 5812 H 559.74 -0.314574 0.764835 0
M  V30 5813 H 562.286 0.108184 1.69355 0
M  V30 5814 H 561.058 -0.0829745 3.91212 0
M  V30 5815 H 560.681 -1.76231 3.5641 0
M  V30 5816 N 561.678 -1.56367 -0.196722 0
M  V30 5817 C 562.903 -1.84991 -0.937714 0
M  V30 5818 C 563.328 -0.660244 -1.76132 0
M  V30 5819 O 562.686 0.390967 -1.77034 0
M  V30 5820 C 562.734 -3.11828 -1.81096 0
M  V30 5821 O 561.838 -2.92266 -2.90955 0
M  V30 5822 H 561.179 -0.609193 -0.264159 0
M  V30 5823 H 563.709 -2.03595 -0.202529 0
M  V30 5824 H 563.719 -3.42579 -2.21594 0
M  V30 5825 H 562.394 -3.98037 -1.2058 0
M  V30 5826 H 560.971 -2.72809 -2.54224 0
M  V30 5827 N 563.156 0.464375 -1.50603 0
M  V30 5828 C 564.086 1.56944 -1.72889 0
M  V30 5829 C 565.067 1.59979 -0.577997 0
M  V30 5830 O 566.252 1.76138 -0.817855 0
M  V30 5831 C 563.382 2.95225 -1.8292 0
M  V30 5832 C 562.336 3.07056 -2.98162 0
M  V30 5833 C 561.662 4.47051 -2.93343 0
M  V30 5834 C 562.962 2.83648 -4.38567 0
M  V30 5835 H 564.656 1.38547 -2.65415 0
M  V30 5836 H 562.202 0.665082 -1.27721 0
M  V30 5837 H 564.155 3.72467 -1.97095 0
M  V30 5838 H 562.879 3.14793 -0.870209 0
M  V30 5839 H 561.538 2.32248 -2.83648 0
M  V30 5840 H 561.186 4.63547 -1.95276 0
M  V30 5841 H 560.886 4.55902 -3.70712 0
M  V30 5842 H 562.41 5.26304 -3.09575 0
M  V30 5843 H 563.824 3.50636 -4.53572 0
M  V30 5844 H 562.221 3.03937 -5.17438 0
M  V30 5845 H 563.291 1.79451 -4.50472 0
M  V30 5846 N 564.634 1.40294 0.718013 0
M  V30 5847 C 565.88 1.38645 1.48005 0
M  V30 5848 C 566.213 -0.0121202 1.94196 0
M  V30 5849 O 565.488 -0.980309 1.67989 0
M  V30 5850 C 565.771 2.37379 2.70782 0
M  V30 5851 C 565.624 3.8625 2.30501 0
M  V30 5852 C 566.943 2.33685 3.72933 0
M  V30 5853 H 564.062 0.504928 0.536858 0
M  V30 5854 H 566.704 1.71411 0.819649 0
M  V30 5855 H 564.854 2.09568 3.27129 0
M  V30 5856 H 566.526 4.24879 1.79655 0
M  V30 5857 H 564.769 4.02202 1.6253 0
M  V30 5858 H 565.44 4.50847 3.18498 0
M  V30 5859 H 567.916 2.58314 3.2621 0
M  V30 5860 H 566.792 3.0482 4.56482 0
M  V30 5861 H 567.053 1.34765 4.21059 0
M  V30 5862 N 566.112 -0.949982 1.2575 0
M  V30 5863 C 567.523 -1.50989 1.09815 0
M  V30 5864 C 567.874 -1.93497 -0.324556 0
M  V30 5865 O 566.999 -1.79068 -1.21506 0
M  V30 5866 C 567.594 -2.74394 1.98729 0
M  V30 5867 C 566.153 -3.26682 1.86965 0
M  V30 5868 C 565.3 -1.99498 1.92603 0
M  V30 5869 H 568.251 -0.766387 1.38968 0
M  V30 5870 H 568.272 -3.48383 1.53001 0
M  V30 5871 H 567.784 -2.43425 3.02268 0
M  V30 5872 H 565.885 -3.62461 0.863279 0
M  V30 5873 H 565.998 -3.94383 2.72027 0
M  V30 5874 H 564.362 -2.15005 1.36546 0
M  V30 5875 H 565.145 -1.70871 2.97755 0
M  V30 5876 N 567.59 -1.07411 -1.15328 0
M  V30 5877 C 568.839 -0.792643 -1.85473 0
M  V30 5878 C 569.152 0.683789 -1.83259 0
M  V30 5879 O 570.358 1.08005 -2.49093 0
M  V30 5880 C 568.814 -1.36787 -3.32892 0
M  V30 5881 C 568.422 -2.87536 -3.43551 0
M  V30 5882 C 570.166 -1.16444 -4.08217 0
M  V30 5883 C 568.073 -3.38247 -4.85122 0
M  V30 5884 H 567.003 -0.292838 -0.694811 0
M  V30 5885 H 569.654 -1.29426 -1.30082 0
M  V30 5886 H 568.036 -0.793993 -3.87958 0
M  V30 5887 H 569.21 -3.50973 -2.98588 0
M  V30 5888 H 567.525 -3.06676 -2.81672 0
M  V30 5889 H 570.122 -1.51808 -5.12697 0
M  V30 5890 H 570.465 -0.10353 -4.16171 0
M  V30 5891 H 570.998 -1.70472 -3.59422 0
M  V30 5892 H 567.737 -4.43866 -4.82351 0
M  V30 5893 H 567.257 -2.79564 -5.30664 0
M  V30 5894 H 568.936 -3.34238 -5.5398 0
M  V30 5895 N 569.068 1.32177 -0.85831 0
M  V30 5896 C 570.016 2.30729 -0.294442 0
M  V30 5897 C 571.01 1.59009 0.584165 0
M  V30 5898 O 572.216 1.73713 0.471562 0
M  V30 5899 H 568.591 0.748097 -0.0765171 0
M  V30 5900 H 570.562 2.75774 -1.1398 0
M  V30 5901 C 569.311 3.44098 0.499208 0
M  V30 5902 H 568.634 3.99449 -0.167579 0
M  V30 5903 H 570.074 4.15202 0.859273 0
M  V30 5904 C 568.533 2.91684 1.68588 0
M  V30 5905 O 569.063 2.89481 2.78503 0
M  V30 5906 N 567.269 2.48036 1.51415 0
M  V30 5907 H 566.816 2.50027 0.620006 0
M  V30 5908 H 566.774 2.13322 2.30957 0
M  V30 5909 N 570.547 0.616602 1.45037 0
M  V30 5910 C 571.495 -0.109318 2.32343 0
M  V30 5911 C 572.489 -0.850543 1.465 0
M  V30 5912 O 573.695 -0.765088 1.62931 0
M  V30 5913 H 570.07 -0.0541091 0.750051 0
M  V30 5914 H 572.041 0.645326 2.91338 0
M  V30 5915 C 570.79 -1.0872 3.30266 0
M  V30 5916 H 570.113 -0.526267 3.96321 0
M  V30 5917 H 571.553 -1.56489 3.94065 0
M  V30 5918 C 570.012 -2.16525 2.58105 0
M  V30 5919 O 570.542 -3.244 2.36913 0
M  V30 5920 N 568.748 -1.92057 2.18088 0
M  V30 5921 H 568.295 -1.04337 2.35524 0
M  V30 5922 H 568.253 -2.64391 1.70131 0
M  V30 5923 N 572.025 -1.5352 0.356285 0
M  V30 5924 C 573.253 -2.05534 -0.237328 0
M  V30 5925 C 573.668 -1.23043 -1.43199 0
M  V30 5926 O 573.025 -0.268821 -1.80509 0
M  V30 5927 C 573.076 -3.55791 -0.639933 0
M  V30 5928 O 572.797 -4.35154 0.507233 0
M  V30 5929 C 574.298 -4.24027 -1.29292 0
M  V30 5930 H 571.518 -0.669585 -0.0435572 0
M  V30 5931 H 574.062 -1.97988 0.511963 0
M  V30 5932 H 572.217 -3.63518 -1.33915 0
M  V30 5933 H 572.631 -5.24178 0.18375 0
M  V30 5934 H 574.105 -5.30509 -1.52527 0
M  V30 5935 H 574.582 -3.77166 -2.25039 0
M  V30 5936 H 575.188 -4.20527 -0.63539 0
M  V30 5937 N 573.503 -0.0852151 -1.57369 0
M  V30 5938 C 574.78 0.622534 -1.85429 0
M  V30 5939 C 575.16 1.86962 -0.980229 0
M  V30 5940 O 574.508 2.28445 -0.0500219 0
M  V30 5941 C 574.718 0.947374 -3.35896 0
M  V30 5942 C 576.066 1.31509 -4.03721 0
M  V30 5943 O 577.09 1.03869 -3.40719 0
M  V30 5944 O 575.949 1.83231 -5.14868 0
M  V30 5945 H 573.043 0.310513 -0.766492 0
M  V30 5946 H 575.589 -0.117164 -1.69295 0
M  V30 5947 H 574.361 0.0622264 -3.91251 0
M  V30 5948 H 573.984 1.74338 -3.5734 0
M  V30 5949 N 574.981 1.5647 0.188427 0
M  V30 5950 C 576.209 1.85131 0.923803 0
M  V30 5951 C 576.624 0.668537 1.76567 0
M  V30 5952 O 575.981 -0.362662 1.7886 0
M  V30 5953 C 576.032 3.12661 1.81453 0
M  V30 5954 O 575.753 4.26378 1.00665 0
M  V30 5955 C 577.254 3.54548 2.66103 0
M  V30 5956 H 574.474 0.614624 0.269218 0
M  V30 5957 H 577.018 2.03581 0.193671 0
M  V30 5958 H 575.173 2.96088 2.49821 0
M  V30 5959 H 575.587 4.99041 1.61425 0
M  V30 5960 H 577.061 4.4673 3.24247 0
M  V30 5961 H 577.538 2.77853 3.40139 0
M  V30 5962 H 578.144 3.73674 2.03096 0
M  V30 5963 N 576.459 -0.456382 1.50847 0
M  V30 5964 C 577.689 -1.22848 1.66108 0
M  V30 5965 C 578.097 -1.85936 0.349897 0
M  V30 5966 O 577.44 -1.70664 -0.679665 0
M  V30 5967 C 577.502 -2.36722 2.70561 0
M  V30 5968 C 577.166 -1.94154 4.13707 0
M  V30 5969 C 578.163 -1.4557 4.99105 0
M  V30 5970 C 575.848 -2.02426 4.59705 0
M  V30 5971 C 577.842 -1.0582 6.28555 0
M  V30 5972 C 575.529 -1.62287 5.89157 0
M  V30 5973 C 576.527 -1.14064 6.73408 0
M  V30 5974 O 576.215 -0.744873 8.00442 0
M  V30 5975 H 575.947 -0.377105 0.561042 0
M  V30 5976 H 578.501 -0.549431 1.97915 0
M  V30 5977 H 576.731 -3.07844 2.34027 0
M  V30 5978 H 578.42 -2.98646 2.74892 0
M  V30 5979 H 579.186 -1.38589 4.64777 0
M  V30 5980 H 575.065 -2.38908 3.94264 0
M  V30 5981 H 578.609 -0.6811 6.94267 0
M  V30 5982 H 574.506 -1.68932 6.23003 0
M  V30 5983 H 575.274 -0.87242 8.13837 0
M  V30 5984 N 577.937 -1.40673 -0.710563 0
M  V30 5985 C 579.186 -1.38525 -1.46607 0
M  V30 5986 C 579.499 0.0077024 -1.95598 0
M  V30 5987 O 580.705 0.151792 -2.71075 0
M  V30 5988 C 579.161 -2.43489 -2.6503 0
M  V30 5989 C 578.769 -3.88619 -2.22888 0
M  V30 5990 C 580.513 -2.50456 -3.42742 0
M  V30 5991 C 578.42 -4.85168 -3.3818 0
M  V30 5992 H 577.35 -0.515092 -0.550632 0
M  V30 5993 H 580.001 -1.66431 -0.772846 0
M  V30 5994 H 578.383 -2.0869 -3.36548 0
M  V30 5995 H 579.557 -4.32588 -1.58758 0
M  V30 5996 H 577.872 -3.85174 -1.58208 0
M  V30 5997 H 580.469 -3.19776 -4.28541 0
M  V30 5998 H 580.812 -1.53665 -3.86902 0
M  V30 5999 H 581.345 -2.84271 -2.78271 0
M  V30 6000 H 578.084 -5.8331 -2.99047 0
M  V30 6001 H 577.604 -4.4586 -4.01209 0
M  V30 6002 H 579.283 -5.05225 -4.04174 0
M  V30 6003 N 579.415 0.9433 -1.26252 0
M  V30 6004 C 580.363 2.06302 -1.07434 0
M  V30 6005 C 581.357 1.694 -0.00189471 0
M  V30 6006 O 582.563 1.79302 -0.158408 0
M  V30 6007 H 578.938 0.675453 -0.330556 0
M  V30 6008 H 580.909 2.19326 -2.02333 0
M  V30 6009 C 579.658 3.40125 -0.721817 0
M  V30 6010 H 578.981 3.68996 -1.5389 0
M  V30 6011 H 580.421 4.19295 -0.629922 0
M  V30 6012 C 578.88 3.31993 0.572902 0
M  V30 6013 O 579.41 3.67945 1.61182 0
M  V30 6014 N 577.616 2.85099 0.562748 0
M  V30 6015 H 577.163 2.5604 -0.283092 0
M  V30 6016 H 577.121 2.80041 1.42915 0
M  V30 6017 N 580.893 1.08022 1.14757 0
M  V30 6018 C 582.118 0.82895 1.90114 0
M  V30 6019 C 582.543 -0.612772 1.77839 0
M  V30 6020 O 581.901 -1.42895 1.11583 0
M  V30 6021 C 581.949 1.25062 3.38219 0
M  V30 6022 O 581.053 0.400119 4.10454 0
M  V30 6023 H 580.394 0.301412 0.591648 0
M  V30 6024 H 582.924 1.44062 1.45284 0
M  V30 6025 H 582.934 1.22977 3.89025 0
M  V30 6026 H 581.609 2.30067 3.46471 0
M  V30 6027 H 580.186 0.484052 3.69745 0
M  V30 6028 N 582.371 -1.3172 0.865308 0
M  V30 6029 C 583.281 -2.32394 0.320935 0
M  V30 6030 C 584.297 -1.64511 -0.566746 0
M  V30 6031 O 585.473 -1.95969 -0.464575 0
M  V30 6032 C 582.538 -3.43462 -0.472701 0
M  V30 6033 C 581.599 -4.27015 0.442385 0
M  V30 6034 C 580.832 -5.32779 -0.313469 0
M  V30 6035 O 581.055 -5.49158 -1.54214 0
M  V30 6036 O 579.989 -6.01015 0.326257 0
M  V30 6037 H 583.815 -2.80868 1.15528 0
M  V30 6038 H 581.4 -1.35535 0.628545 0
M  V30 6039 H 583.282 -4.11172 -0.922781 0
M  V30 6040 H 581.957 -2.97159 -1.28367 0
M  V30 6041 H 580.864 -3.62075 0.940866 0
M  V30 6042 H 582.197 -4.76871 1.21882 0
M  V30 6043 N 583.85 -0.624285 -1.44708 0
M  V30 6044 C 584.798 0.0969952 -2.32398 0
M  V30 6045 C 585.792 0.842762 -1.46949 0
M  V30 6046 O 586.998 0.756436 -1.63334 0
M  V30 6047 H 583.373 0.0501306 -0.750327 0
M  V30 6048 H 585.344 -0.660767 -2.90992 0
M  V30 6049 C 584.093 1.06967 -3.30837 0
M  V30 6050 H 583.416 0.505242 -3.96595 0
M  V30 6051 H 584.856 1.54397 -3.94889 0
M  V30 6052 C 583.315 2.15153 -2.5925 0
M  V30 6053 O 583.845 3.23139 -2.3863 0
M  V30 6054 N 582.051 1.90898 -2.19103 0
M  V30 6055 H 581.598 1.03086 -2.36074 0
M  V30 6056 H 581.556 2.63485 -1.71531 0
M  V30 6057 N 585.328 1.53329 -0.364422 0
M  V30 6058 C 586.261 2.22052 0.526145 0
M  V30 6059 C 587.239 1.21203 1.08391 0
M  V30 6060 O 588.423 1.50101 1.14026 0
M  V30 6061 C 585.55 2.91432 1.72583 0
M  V30 6062 C 584.596 4.06345 1.29562 0
M  V30 6063 S 585.429 5.34671 0.297885 0
M  V30 6064 C 586.585 6.07563 1.50392 0
M  V30 6065 H 586.818 2.97244 -0.0575055 0
M  V30 6066 H 584.351 1.53684 -0.148525 0
M  V30 6067 H 586.309 3.3202 2.41398 0
M  V30 6068 H 584.97 2.15966 2.28073 0
M  V30 6069 H 584.163 4.53901 2.19067 0
M  V30 6070 H 583.765 3.67642 0.686696 0
M  V30 6071 H 586.057 6.32224 2.43513 0
M  V30 6072 H 587 6.99973 1.06977 0
M  V30 6073 H 587.408 5.37994 1.70945 0
M  V30 6074 N 586.806 0.0935595 1.57322 0
M  V30 6075 C 588.036 -0.578095 1.98347 0
M  V30 6076 C 588.444 -1.62357 0.971441 0
M  V30 6077 O 587.787 -1.83639 -0.0473959 0
M  V30 6078 C 587.849 -1.28525 3.3574 0
M  V30 6079 C 587.513 -0.390714 4.55327 0
M  V30 6080 C 588.51 0.360522 5.18648 0
M  V30 6081 C 586.195 -0.309221 5.01347 0
M  V30 6082 C 588.189 1.18125 6.26359 0
M  V30 6083 C 585.876 0.515157 6.08925 0
M  V30 6084 C 586.874 1.25904 6.71295 0
M  V30 6085 O 586.562 2.06978 7.76798 0
M  V30 6086 H 586.294 -0.159767 0.656849 0
M  V30 6087 H 588.848 0.169058 2.04703 0
M  V30 6088 H 587.078 -2.07894 3.26063 0
M  V30 6089 H 588.767 -1.85128 3.61223 0
M  V30 6090 H 589.533 0.307285 4.84026 0
M  V30 6091 H 585.412 -0.877881 4.52564 0
M  V30 6092 H 588.956 1.76236 6.74971 0
M  V30 6093 H 584.853 0.56988 6.42979 0
M  V30 6094 H 585.621 1.99644 7.93779 0
M  V30 6095 N 588.284 -1.56567 -0.180126 0
M  V30 6096 C 589.509 -1.85975 -0.918041 0
M  V30 6097 C 589.934 -0.678888 -1.75422 0
M  V30 6098 O 589.292 0.372168 -1.77439 0
M  V30 6099 C 589.34 -3.13731 -1.77779 0
M  V30 6100 O 588.444 -2.95335 -2.87838 0
M  V30 6101 H 587.785 -0.61196 -0.257683 0
M  V30 6102 H 590.315 -2.03798 -0.180923 0
M  V30 6103 H 590.325 -3.4491 -2.17948 0
M  V30 6104 H 589 -3.99293 -1.16352 0
M  V30 6105 H 587.577 -2.7549 -2.51316 0
M  V30 6106 N 589.762 0.448376 -1.51087 0
M  V30 6107 C 591.008 1.20049 -1.6345 0
M  V30 6108 C 591.341 1.91121 -0.344444 0
M  V30 6109 O 590.616 1.83125 0.655396 0
M  V30 6110 C 590.899 2.22624 -2.83038 0
M  V30 6111 C 590.752 1.55708 -4.21989 0
M  V30 6112 C 592.071 3.23718 -2.98152 0
M  V30 6113 H 589.19 0.435085 -0.59487 0
M  V30 6114 H 591.832 0.491183 -1.83541 0
M  V30 6115 H 589.982 2.83117 -2.66039 0
M  V30 6116 H 591.654 0.986367 -4.50631 0
M  V30 6117 H 589.897 0.859647 -4.25197 0
M  V30 6118 H 590.568 2.30357 -5.01637 0
M  V30 6119 H 593.044 2.73269 -3.13788 0
M  V30 6120 H 591.92 3.92795 -3.83411 0
M  V30 6121 H 592.181 3.89179 -2.09743 0
M  V30 6122 N 591.24 1.41047 0.703093 0
M  V30 6123 C 592.486 1.40207 1.46526 0
M  V30 6124 C 592.819 0.00847763 1.94198 0
M  V30 6125 O 592.094 -0.962437 1.69019 0
M  V30 6126 C 592.377 2.40238 2.6825 0
M  V30 6127 C 592.23 3.88674 2.26391 0
M  V30 6128 C 593.549 2.37627 3.70434 0
M  V30 6129 H 590.668 0.510594 0.531472 0
M  V30 6130 H 593.31 1.72271 0.801422 0
M  V30 6131 H 591.46 2.13026 3.24888 0
M  V30 6132 H 593.132 4.2676 1.75138 0
M  V30 6133 H 591.375 4.03903 1.58255 0
M  V30 6134 H 592.046 4.542 3.13698 0
M  V30 6135 H 594.522 2.61759 3.23452 0
M  V30 6136 H 593.398 3.09645 4.53223 0
M  V30 6137 H 593.659 1.39223 4.19606 0
M  V30 6138 N 592.718 -0.936591 1.26751 0
M  V30 6139 C 593.648 -2.05315 1.11212 0
M  V30 6140 C 594.629 -1.70092 0.0160262 0
M  V30 6141 O 595.814 -1.93279 0.188894 0
M  V30 6142 C 592.944 -3.39123 0.749171 0
M  V30 6143 C 591.898 -3.88425 1.79751 0
M  V30 6144 C 591.224 -5.18936 1.28876 0
M  V30 6145 C 592.524 -4.12798 3.19992 0
M  V30 6146 H 594.218 -2.18573 2.04613 0
M  V30 6147 H 591.764 -1.05027 0.985159 0
M  V30 6148 H 593.717 -4.16704 0.627323 0
M  V30 6149 H 592.441 -3.25855 -0.220543 0
M  V30 6150 H 591.1 -3.13028 1.90811 0
M  V30 6151 H 590.748 -5.02051 0.308757 0
M  V30 6152 H 590.448 -5.52892 1.98958 0
M  V30 6153 H 591.972 -5.99096 1.17967 0
M  V30 6154 H 593.386 -4.80977 3.11983 0
M  V30 6155 H 591.783 -4.58044 3.87705 0
M  V30 6156 H 592.853 -3.18412 3.65707 0
M  V30 6157 N 594.196 -1.08629 -1.14182 0
M  V30 6158 C 595.128 -0.676189 -2.18998 0
M  V30 6159 C 596.141 0.277871 -1.60411 0
M  V30 6160 O 597.33 0.0651771 -1.78381 0
M  V30 6161 C 594.43 0.0254916 -3.3889 0
M  V30 6162 C 593.603 -0.948039 -4.27002 0
M  V30 6163 C 592.662 -0.281268 -5.25448 0
M  V30 6164 O 591.688 -0.926378 -5.61611 0
M  V30 6165 N 592.89 0.967923 -5.72374 0
M  V30 6166 H 595.655 -1.57792 -2.54798 0
M  V30 6167 H 593.216 -0.972665 -1.29425 0
M  V30 6168 H 595.208 0.482554 -4.01813 0
M  V30 6169 H 593.778 0.829348 -3.01398 0
M  V30 6170 H 592.998 -1.58388 -3.6098 0
M  V30 6171 H 594.286 -1.60765 -4.82734 0
M  V30 6172 H 593.684 1.51175 -5.45126 0
M  V30 6173 H 592.241 1.36844 -6.37273 0
M  V30 6174 N 595.674 1.31259 -0.872281 0
M  V30 6175 C 596.899 2.0133 -0.498099 0
M  V30 6176 C 597.324 1.65031 0.902568 0
M  V30 6177 O 596.682 0.860164 1.59596 0
M  V30 6178 C 596.73 3.54411 -0.665205 0
M  V30 6179 O 595.834 4.11347 0.294473 0
M  V30 6180 H 595.175 0.633844 -0.197832 0
M  V30 6181 H 597.705 1.67402 -1.17633 0
M  V30 6182 H 597.715 4.04147 -0.559373 0
M  V30 6183 H 596.39 3.80171 -1.68651 0
M  V30 6184 H 594.967 3.72624 0.143403 0
M  V30 6185 N 597.152 0.631951 1.44375 0
M  V30 6186 C 598.377 0.142146 2.06912 0
M  V30 6187 C 598.802 -1.17456 1.4692 0
M  V30 6188 O 598.16 -1.72074 0.570975 0
M  V30 6189 C 598.208 0.0417952 3.60576 0
M  V30 6190 O 597.312 -1.00194 4.00044 0
M  V30 6191 H 596.653 0.0851491 0.658518 0
M  V30 6192 H 599.183 0.868863 1.85235 0
M  V30 6193 H 599.193 -0.148517 4.0773 0
M  V30 6194 H 597.868 1.0031 4.03622 0
M  V30 6195 H 596.445 -0.786131 3.64519 0
M  V30 6196 N 598.631 -1.53133 0.372548 0
M  V30 6197 C 599.88 -2.00539 -0.216115 0
M  V30 6198 C 600.193 -1.26374 -1.49295 0
M  V30 6199 O 601.399 -1.64404 -2.16064 0
M  V30 6200 C 599.855 -3.57253 -0.435678 0
M  V30 6201 C 599.463 -4.40302 0.82693 0
M  V30 6202 C 601.207 -4.12995 -0.981618 0
M  V30 6203 C 599.114 -5.88583 0.576567 0
M  V30 6204 H 598.044 -0.749246 -0.084536 0
M  V30 6205 H 600.695 -1.76771 0.492364 0
M  V30 6206 H 599.077 -3.77202 -1.20559 0
M  V30 6207 H 600.251 -4.32124 1.60017 0
M  V30 6208 H 598.566 -3.95699 1.29659 0
M  V30 6209 H 601.163 -5.21418 -1.18436 0
M  V30 6210 H 601.506 -3.68027 -1.94581 0
M  V30 6211 H 602.039 -3.96871 -0.271696 0
M  V30 6212 H 598.778 -6.37841 1.51128 0
M  V30 6213 H 598.298 -5.99592 -0.158047 0
M  V30 6214 H 599.977 -6.46676 0.204722 0
M  V30 6215 N 600.109 -0.101901 -1.5727 0
M  V30 6216 C 601.057 0.872034 -2.15635 0
M  V30 6217 C 602.051 1.28742 -1.10099 0
M  V30 6218 O 603.257 1.26116 -1.28432 0
M  V30 6219 H 599.632 0.299269 -0.689886 0
M  V30 6220 H 601.603 0.355137 -2.96279 0
M  V30 6221 C 600.352 2.11886 -2.7568 0
M  V30 6222 H 599.675 1.80813 -3.56576 0
M  V30 6223 H 601.115 2.78077 -3.20077 0
M  V30 6224 C 599.574 2.89739 -1.7191 0
M  V30 6225 O 600.104 3.84522 -1.16213 0
M  V30 6226 N 598.31 2.53407 -1.42245 0
M  V30 6227 H 597.857 1.76398 -1.87727 0
M  V30 6228 H 597.815 3.05795 -0.730529 0
M  V30 6229 N 601.587 1.56661 0.17182 0
M  V30 6230 C 602.55 1.9549 1.19651 0
M  V30 6231 C 603.55 0.838501 1.37207 0
M  V30 6232 O 604.74 1.10556 1.34622 0
M  V30 6233 C 601.872 2.24927 2.56166 0
M  V30 6234 H 603.065 2.87184 0.864007 0
M  V30 6235 H 600.618 1.50711 0.41425 0
M  V30 6236 H 601.353 1.35944 2.94431 0
M  V30 6237 H 601.138 3.06301 2.4479 0
M  V30 6238 H 602.628 2.55891 3.30014 0
M  V30 6239 N 603.065 -0.440357 1.51323 0
M  V30 6240 C 604.476 -1.02032 1.56353 0
M  V30 6241 C 604.827 -1.92382 0.385197 0
M  V30 6242 O 603.952 -2.10583 -0.498373 0
M  V30 6243 C 604.547 -1.85723 2.83359 0
M  V30 6244 C 603.106 -2.38774 2.90971 0
M  V30 6245 C 602.253 -1.17908 2.50984 0
M  V30 6246 H 605.204 -0.221744 1.57143 0
M  V30 6247 H 605.225 -2.71141 2.66951 0
M  V30 6248 H 604.737 -1.19939 3.69102 0
M  V30 6249 H 602.838 -3.08021 2.09651 0
M  V30 6250 H 602.951 -2.71778 3.94555 0
M  V30 6251 H 601.315 -1.52347 2.04114 0
M  V30 6252 H 602.098 -0.537393 3.39068 0
M  V30 6253 N 604.543 -1.41418 -0.695603 0
M  V30 6254 C 605.82 -1.31264 -1.45014 0
M  V30 6255 C 606.2 0.0597994 -2.11015 0
M  V30 6256 O 605.548 1.07403 -2.01685 0
M  V30 6257 C 605.758 -2.466 -2.4696 0
M  V30 6258 C 607.106 -2.87763 -3.12214 0
M  V30 6259 O 608.13 -2.46339 -2.57285 0
M  V30 6260 O 606.989 -3.59395 -4.11701 0
M  V30 6261 H 604.083 -0.516576 -0.645816 0
M  V30 6262 H 606.629 -1.53382 -0.726084 0
M  V30 6263 H 605.401 -3.38183 -1.96845 0
M  V30 6264 H 605.024 -2.26358 -3.26876 0
M  V30 6265 N 606.021 0.929856 -1.27246 0
M  V30 6266 C 606.968 2.03017 -1.09785 0
M  V30 6267 C 607.938 1.661 0.000456744 0
M  V30 6268 O 609.123 1.90116 -0.161462 0
M  V30 6269 C 606.263 3.36878 -0.748816 0
M  V30 6270 C 605.376 3.86763 -1.92453 0
M  V30 6271 C 604.511 5.09061 -1.51758 0
M  V30 6272 C 603.55 5.51237 -2.66091 0
M  V30 6273 N 602.687 6.64732 -2.25999 0
M  V30 6274 H 607.527 2.17285 -2.03939 0
M  V30 6275 H 605.064 1.06448 -1.01524 0
M  V30 6276 H 607.022 4.13855 -0.527283 0
M  V30 6277 H 605.652 3.22424 0.155771 0
M  V30 6278 H 604.704 3.06086 -2.25867 0
M  V30 6279 H 606.016 4.13994 -2.78227 0
M  V30 6280 H 605.17 5.93532 -1.25716 0
M  V30 6281 H 603.909 4.83602 -0.630896 0
M  V30 6282 H 602.914 4.65316 -2.92849 0
M  V30 6283 H 604.139 5.78692 -3.55377 0
M  V30 6284 H 602.085 6.40935 -1.3978 0
M  V30 6285 H 602.002 6.91607 -3.05313 0
M  V30 6286 H 603.27 7.52549 -2.03199 0
M  V30 6287 N 607.499 1.09233 1.13605 0
M  V30 6288 C 608.748 0.82205 1.84188 0
M  V30 6289 C 609.061 -0.654548 1.84323 0
M  V30 6290 O 610.267 -1.04029 2.50779 0
M  V30 6291 C 608.723 1.42066 3.30674 0
M  V30 6292 C 608.331 2.92965 3.38933 0
M  V30 6293 C 610.075 1.22924 4.06313 0
M  V30 6294 C 607.982 3.45922 4.79679 0
M  V30 6295 H 606.912 0.303854 0.690064 0
M  V30 6296 H 609.563 1.31479 1.28006 0
M  V30 6297 H 607.945 0.855613 3.86646 0
M  V30 6298 H 609.119 3.55679 2.92966 0
M  V30 6299 H 607.434 3.11118 2.76757 0
M  V30 6300 H 610.031 1.59945 5.10217 0
M  V30 6301 H 610.374 0.169726 4.15954 0
M  V30 6302 H 610.907 1.76168 3.56665 0
M  V30 6303 H 607.646 4.51484 4.75229 0
M  V30 6304 H 607.166 2.87971 5.26149 0
M  V30 6305 H 608.845 3.43009 5.48592 0
M  V30 6306 N 608.977 -1.30795 0.87923 0
M  V30 6307 C 610.224 -1.96362 0.494786 0
M  V30 6308 C 610.552 -1.69448 -0.954868 0
M  V30 6309 O 609.807 -0.988711 -1.68888 0
M  V30 6310 C 610.106 -3.50287 0.709476 0
M  V30 6311 C 609.772 -3.9724 2.13333 0
M  V30 6312 C 608.434 -4.09772 2.52271 0
M  V30 6313 C 610.786 -4.21807 3.06151 0
M  V30 6314 C 608.114 -4.44227 3.83248 0
M  V30 6315 C 610.466 -4.5773 4.36654 0
M  V30 6316 C 609.13 -4.68469 4.75492 0
M  V30 6317 H 608.4 -0.71854 0.181055 0
M  V30 6318 H 611.047 -1.55764 1.11399 0
M  V30 6319 H 609.352 -3.91799 0.0072 0
M  V30 6320 H 611.049 -3.99082 0.391703 0
M  V30 6321 H 607.639 -3.87988 1.82107 0
M  V30 6322 H 611.823 -4.11611 2.77291 0
M  V30 6323 H 607.079 -4.50741 4.13089 0
M  V30 6324 H 611.253 -4.7569 5.08617 0
M  V30 6325 H 608.88 -4.94923 5.77022 0
M  V30 6326 N 610.455 -0.639598 -1.44038 0
M  V30 6327 C 611.68 -0.153117 -2.06834 0
M  V30 6328 C 612.105 1.16676 -1.47541 0
M  V30 6329 O 611.463 1.71769 -0.580093 0
M  V30 6330 C 611.511 -0.0609169 -3.60549 0
M  V30 6331 O 610.615 0.98071 -4.00569 0
M  V30 6332 H 609.956 -0.0886402 -0.658057 0
M  V30 6333 H 612.486 -0.878674 -1.84771 0
M  V30 6334 H 612.496 0.126892 -4.07803 0
M  V30 6335 H 611.171 -1.0245 -4.03084 0
M  V30 6336 H 609.748 0.766789 -3.64931 0
M  V30 6337 N 611.933 1.52934 -0.380664 0
M  V30 6338 C 613.182 2.00651 0.205477 0
M  V30 6339 C 613.495 1.27164 1.48623 0
M  V30 6340 O 614.701 1.65547 2.15189 0
M  V30 6341 C 613.157 3.57479 0.416726 0
M  V30 6342 C 612.765 4.39857 -0.850268 0
M  V30 6343 C 614.509 4.13509 0.959702 0
M  V30 6344 C 612.416 5.88269 -0.607773 0
M  V30 6345 H 611.346 0.749684 0.0805614 0
M  V30 6346 H 613.997 1.76508 -0.501732 0
M  V30 6347 H 612.379 3.77836 1.18557 0
M  V30 6348 H 613.553 4.31269 -1.62307 0
M  V30 6349 H 611.868 3.95005 -1.31756 0
M  V30 6350 H 614.465 5.22039 1.15669 0
M  V30 6351 H 614.808 3.69054 1.92626 0
M  V30 6352 H 615.341 3.9701 0.250645 0
M  V30 6353 H 612.08 6.3703 -1.54509 0
M  V30 6354 H 611.6 5.99667 0.126247 0
M  V30 6355 H 613.279 6.46558 -0.239014 0
M  V30 6356 N 613.412 0.11024 1.57214 0
M  V30 6357 C 614.828 -0.24638 1.57687 0
M  V30 6358 C 615.028 -1.67344 1.12241 0
M  V30 6359 O 614.084 -2.39298 0.805783 0
M  V30 6360 C 615.397 -0.0210288 3.00693 0
M  V30 6361 C 616.945 -0.0876077 3.12877 0
M  V30 6362 C 617.42 0.10994 4.57868 0
M  V30 6363 N 618.911 0.0556135 4.63167 0
M  V30 6364 C 619.646 0.183495 5.73106 0
M  V30 6365 N 619.142 0.367058 6.91827 0
M  V30 6366 N 620.935 0.123689 5.61964 0
M  V30 6367 H 613.086 1.04246 1.85058 0
M  V30 6368 H 615.349 0.40979 0.854854 0
M  V30 6369 H 615.055 0.965203 3.38196 0
M  V30 6370 H 614.929 -0.756748 3.69531 0
M  V30 6371 H 617.316 -1.06436 2.75237 0
M  V30 6372 H 617.397 0.67985 2.466 0
M  V30 6373 H 617.041 1.08362 4.96206 0
M  V30 6374 H 616.971 -0.677397 5.22225 0
M  V30 6375 H 619.462 -0.0831062 3.77809 0
M  V30 6376 H 619.775 0.455739 7.71455 0
M  V30 6377 H 618.12 0.40292 6.93831 0
M  V30 6378 H 621.311 -0.0186928 4.68096 0
M  V30 6379 H 621.484 0.226797 6.47603 0
M  V30 6380 N 614.89 -1.56749 -0.16351 0
M  V30 6381 C 616.118 -1.86577 -0.894233 0
M  V30 6382 C 616.533 -0.696543 -1.75481 0
M  V30 6383 O 615.89 0.334161 -1.79415 0
M  V30 6384 C 615.941 -3.15508 -1.76456 0
M  V30 6385 O 615.662 -4.27926 -0.938685 0
M  V30 6386 C 617.163 -3.58737 -2.60428 0
M  V30 6387 H 614.383 -0.618829 -0.259405 0
M  V30 6388 H 616.927 -2.03863 -0.161259 0
M  V30 6389 H 615.082 -3.00025 -2.45079 0
M  V30 6390 H 615.496 -5.01546 -1.53465 0
M  V30 6391 H 616.97 -4.51832 -3.17099 0
M  V30 6392 H 617.447 -2.83229 -3.35675 0
M  V30 6393 H 618.053 -3.76858 -1.97125 0
M  V30 6394 N 616.368 0.432326 -1.51554 0
M  V30 6395 C 617.645 1.19288 -1.55015 0
M  V30 6396 C 618.025 2.08701 -0.317375 0
M  V30 6397 O 617.373 2.17602 0.697243 0
M  V30 6398 C 617.583 1.99037 -2.86679 0
M  V30 6399 C 618.931 2.55907 -3.38817 0
M  V30 6400 O 619.955 2.09243 -2.88263 0
M  V30 6401 O 618.814 3.41029 -4.27038 0
M  V30 6402 H 615.908 0.543369 -0.623441 0
M  V30 6403 H 618.454 0.440988 -1.6387 0
M  V30 6404 H 617.226 1.33397 -3.6786 0
M  V30 6405 H 616.849 2.81281 -2.8101 0
M  V30 6406 N 617.846 1.41785 0.688094 0
M  V30 6407 C 619.092 1.41753 1.4503 0
M  V30 6408 C 619.425 0.0290745 1.94178 0
M  V30 6409 O 618.7 -0.944456 1.7003 0
M  V30 6410 C 618.983 2.43069 2.65686 0
M  V30 6411 C 618.836 3.91053 2.22256 0
M  V30 6412 C 620.155 2.41543 3.67893 0
M  V30 6413 H 617.274 0.516202 0.526027 0
M  V30 6414 H 619.916 1.73111 0.783105 0
M  V30 6415 H 618.066 2.1646 3.2261 0
M  V30 6416 H 619.738 4.28594 1.70602 0
M  V30 6417 H 617.981 4.05559 1.53963 0
M  V30 6418 H 618.652 4.57501 3.08863 0
M  V30 6419 H 621.128 2.65175 3.20658 0
M  V30 6420 H 620.004 3.14434 4.49914 0
M  V30 6421 H 620.265 1.43666 4.18106 0
M  V30 6422 N 619.324 -0.923095 1.27737 0
M  V30 6423 C 620.287 -2.00587 1.10894 0
M  V30 6424 C 621.287 -1.60718 0.0514927 0
M  V30 6425 O 622.477 -1.71658 0.296481 0
M  V30 6426 C 619.609 -3.33829 0.690717 0
M  V30 6427 H 620.802 -2.16959 2.07048 0
M  V30 6428 H 618.355 -1.10451 1.1059 0
M  V30 6429 H 619.09 -3.23157 -0.272 0
M  V30 6430 H 618.875 -3.64125 1.45448 0
M  V30 6431 H 620.365 -4.13336 0.595252 0
M  V30 6432 N 620.802 -1.09834 -1.13024 0
M  V30 6433 C 622.027 -0.85909 -1.88771 0
M  V30 6434 C 622.452 0.584402 -1.78791 0
M  V30 6435 O 621.81 1.41101 -1.13842 0
M  V30 6436 C 621.858 -1.30427 -3.36186 0
M  V30 6437 O 620.962 -0.465368 -4.09766 0
M  V30 6438 H 620.303 -0.310786 -0.586778 0
M  V30 6439 H 622.833 -1.46355 -1.42973 0
M  V30 6440 H 622.843 -1.2915 -3.8702 0
M  V30 6441 H 621.518 -2.3555 -3.42767 0
M  V30 6442 H 620.095 -0.542814 -3.68928 0
M  V30 6443 N 622.28 1.30327 -0.886154 0
M  V30 6444 C 623.212 2.27079 -0.311072 0
M  V30 6445 C 624.225 1.53758 0.53502 0
M  V30 6446 O 625.414 1.74947 0.354378 0
M  V30 6447 C 622.514 3.33965 0.576228 0
M  V30 6448 C 621.687 4.36735 -0.241064 0
M  V30 6449 C 620.746 5.23028 0.576916 0
M  V30 6450 O 619.772 5.692 -0.000802231 0
M  V30 6451 N 620.974 5.49016 1.88579 0
M  V30 6452 H 623.739 2.77065 -1.14259 0
M  V30 6453 H 621.3 1.43519 -0.749258 0
M  V30 6454 H 623.292 3.88618 1.12953 0
M  V30 6455 H 621.862 2.839 1.30842 0
M  V30 6456 H 621.082 3.81932 -0.975805 0
M  V30 6457 H 622.37 5.02451 -0.801272 0
M  V30 6458 H 621.768 5.13288 2.37806 0
M  V30 6459 H 620.325 6.06539 2.38651 0
M  V30 6460 N 623.758 0.647228 1.43697 0
M  V30 6461 C 625.169 0.238689 1.85168 0
M  V30 6462 C 625.52 -1.21345 1.54175 0
M  V30 6463 O 624.645 -1.92542 0.987743 0
M  V30 6464 C 625.24 0.426422 3.36106 0
M  V30 6465 C 623.799 0.0722541 3.76331 0
M  V30 6466 C 622.946 0.732153 2.6746 0
M  V30 6467 H 625.897 0.851309 1.33934 0
M  V30 6468 H 625.918 -0.32987 3.79067 0
M  V30 6469 H 625.43 1.48339 3.58632 0
M  V30 6470 H 623.531 -0.982355 3.59417 0
M  V30 6471 H 623.644 0.493541 4.76551 0
M  V30 6472 H 622.008 0.16594 2.54159 0
M  V30 6473 H 622.791 1.79204 2.92816 0
M  V30 6474 N 625.236 -1.5273 0.388769 0
M  V30 6475 C 626.166 -2.29353 -0.438111 0
M  V30 6476 C 627.147 -1.32719 -1.06394 0
M  V30 6477 O 628.332 -1.61612 -1.07681 0
M  V30 6478 C 625.462 -3.09995 -1.56589 0
M  V30 6479 C 624.416 -4.14509 -1.06613 0
M  V30 6480 C 623.742 -4.83372 -2.28594 0
M  V30 6481 C 625.042 -5.22127 -0.134459 0
M  V30 6482 H 626.736 -2.98723 0.201206 0
M  V30 6483 H 624.282 -1.43665 0.0982089 0
M  V30 6484 H 626.235 -3.62357 -2.15118 0
M  V30 6485 H 624.959 -2.38357 -2.23279 0
M  V30 6486 H 623.618 -3.63128 -0.503383 0
M  V30 6487 H 623.266 -4.08283 -2.93792 0
M  V30 6488 H 622.966 -5.54012 -1.95817 0
M  V30 6489 H 624.49 -5.38538 -2.87766 0
M  V30 6490 H 625.904 -5.69851 -0.627914 0
M  V30 6491 H 624.301 -6.00011 0.103534 0
M  V30 6492 H 625.371 -4.77971 0.816798 0
M  V30 6493 N 626.714 -0.118576 -1.57153 0
M  V30 6494 C 627.677 0.817464 -2.14127 0
M  V30 6495 C 628.677 1.1949 -1.07604 0
M  V30 6496 O 629.867 1.12048 -1.33382 0
M  V30 6497 C 626.999 2.10541 -2.68115 0
M  V30 6498 H 628.192 0.322339 -2.98163 0
M  V30 6499 H 625.745 0.130655 -1.55753 0
M  V30 6500 H 626.48 2.64485 -1.87665 0
M  V30 6501 H 626.265 1.84425 -3.4602 0
M  V30 6502 H 627.755 2.77453 -3.12105 0
M  V30 6503 N 628.193 1.56834 0.155195 0
M  V30 6504 C 629.421 1.87049 0.884326 0
M  V30 6505 C 629.836 0.705839 1.7511 0
M  V30 6506 O 629.193 -0.324641 1.79589 0
M  V30 6507 C 629.244 3.1644 1.74781 0
M  V30 6508 O 628.965 4.28417 0.915978 0
M  V30 6509 C 630.466 3.60113 2.58522 0
M  V30 6510 H 627.686 0.620196 0.25612 0
M  V30 6511 H 630.23 2.03946 0.150445 0
M  V30 6512 H 628.385 3.01321 2.43484 0
M  V30 6513 H 628.799 5.02353 1.50803 0
M  V30 6514 H 630.273 4.53508 3.14698 0
M  V30 6515 H 630.75 2.85005 3.34169 0
M  V30 6516 H 631.356 3.77898 1.95124 0
M  V30 6517 N 629.671 -0.424282 1.51781 0
M  V30 6518 C 630.899 -1.1947 1.68921 0
M  V30 6519 C 631.314 -1.84683 0.39213 0
M  V30 6520 O 630.671 -1.71261 -0.630554 0
M  V30 6521 C 630.722 -2.26909 2.81416 0
M  V30 6522 O 630.443 -1.64361 4.061 0
M  V30 6523 C 631.944 -3.16945 3.09937 0
M  V30 6524 H 629.164 -0.359591 0.566511 0
M  V30 6525 H 631.708 -0.501139 1.98265 0
M  V30 6526 H 629.863 -2.91959 2.54635 0
M  V30 6527 H 630.277 -2.35468 4.68674 0
M  V30 6528 H 631.751 -3.88437 3.922 0
M  V30 6529 H 632.228 -3.78451 2.22871 0
M  V30 6530 H 632.834 -2.57581 3.38426 0
M  V30 6531 N 631.149 -1.42148 -0.680565 0
M  V30 6532 C 632.079 -1.4796 -1.80638 0
M  V30 6533 C 633.06 -0.336728 -1.66734 0
M  V30 6534 O 634.245 -0.550247 -1.86242 0
M  V30 6535 C 631.375 -1.37569 -3.18892 0
M  V30 6536 C 630.329 -2.49823 -3.47524 0
M  V30 6537 C 629.655 -2.24491 -4.85291 0
M  V30 6538 C 630.955 -3.92144 -3.44994 0
M  V30 6539 H 632.649 -2.42184 -1.76032 0
M  V30 6540 H 630.195 -1.16566 -0.845481 0
M  V30 6541 H 632.148 -1.40243 -3.97379 0
M  V30 6542 H 630.872 -0.398357 -3.24162 0
M  V30 6543 H 629.531 -2.46455 -2.71395 0
M  V30 6544 H 629.179 -1.25066 -4.87204 0
M  V30 6545 H 628.879 -2.99722 -5.05411 0
M  V30 6546 H 630.403 -2.28906 -5.66069 0
M  V30 6547 H 631.817 -3.97145 -4.13459 0
M  V30 6548 H 630.214 -4.67179 -3.76648 0
M  V30 6549 H 631.284 -4.19225 -2.43676 0
M  V30 6550 N 632.627 0.916307 -1.28225 0
M  V30 6551 C 633.876 1.65975 -1.14608 0
M  V30 6552 C 634.189 1.93204 0.305191 0
M  V30 6553 O 635.395 2.65611 0.562432 0
M  V30 6554 C 633.851 2.98989 -2.00333 0
M  V30 6555 C 633.459 2.79417 -3.50186 0
M  V30 6556 C 635.203 3.76856 -1.95397 0
M  V30 6557 C 633.11 4.08056 -4.28071 0
M  V30 6558 H 632.04 0.622587 -0.425324 0
M  V30 6559 H 634.691 1.01705 -1.52736 0
M  V30 6560 H 633.073 3.6438 -1.5506 0
M  V30 6561 H 634.247 2.22723 -4.034 0
M  V30 6562 H 632.562 2.14966 -3.56621 0
M  V30 6563 H 635.159 4.72203 -2.50856 0
M  V30 6564 H 635.502 4.05776 -0.930137 0
M  V30 6565 H 636.035 3.1828 -2.38626 0
M  V30 6566 H 632.774 3.8431 -5.31024 0
M  V30 6567 H 632.294 4.64371 -3.79631 0
M  V30 6568 H 633.973 4.76333 -4.37854 0
M  V30 6569 N 634.105 1.10431 1.1244 0
M  V30 6570 C 635.353 0.845045 1.83585 0
M  V30 6571 C 635.674 -0.631168 1.84503 0
M  V30 6572 O 634.944 -1.45825 1.30813 0
M  V30 6573 H 633.524 0.309628 0.679809 0
M  V30 6574 H 636.186 1.39458 1.36153 0
M  V30 6575 H 635.282 1.20786 2.8778 0
M  V30 6576 N 635.583 -1.29855 0.893053 0
M  V30 6577 C 636.493 -2.31661 0.370157 0
M  V30 6578 C 637.509 -1.65677 -0.531723 0
M  V30 6579 O 638.685 -1.9691 -0.422902 0
M  V30 6580 C 635.75 -3.44388 -0.399741 0
M  V30 6581 C 634.811 -4.2598 0.532861 0
M  V30 6582 C 634.044 -5.33324 -0.200388 0
M  V30 6583 O 634.267 -5.52305 -1.42531 0
M  V30 6584 O 633.201 -6.00188 0.453668 0
M  V30 6585 H 637.027 -2.78354 1.2146 0
M  V30 6586 H 634.612 -1.34171 0.657153 0
M  V30 6587 H 636.494 -4.13037 -0.835358 0
M  V30 6588 H 635.169 -2.99815 -1.22035 0
M  V30 6589 H 634.076 -3.59998 1.01746 0
M  V30 6590 H 635.409 -4.74178 1.3197 0
M  V30 6591 N 637.061 -0.65484 -1.43351 0
M  V30 6592 C 638.31 -0.166215 -2.01014 0
M  V30 6593 C 638.623 1.22764 -1.52278 0
M  V30 6594 O 639.829 1.81156 -2.02224 0
M  V30 6595 C 638.285 -0.246341 -3.59056 0
M  V30 6596 C 637.893 -1.64299 -4.16785 0
M  V30 6597 C 639.637 0.184597 -4.24098 0
M  V30 6598 C 637.544 -1.67695 -5.67126 0
M  V30 6599 H 636.474 -0.0583769 -0.751737 0
M  V30 6600 H 639.125 -0.817111 -1.64303 0
M  V30 6601 H 637.507 0.472092 -3.93176 0
M  V30 6602 H 638.681 -2.3869 -3.94162 0
M  V30 6603 H 636.996 -2.02004 -3.6412 0
M  V30 6604 H 639.593 0.179088 -5.344 0
M  V30 6605 H 639.936 1.21632 -3.98135 0
M  V30 6606 H 640.469 -0.482141 -3.94867 0
M  V30 6607 H 637.208 -2.68783 -5.9786 0
M  V30 6608 H 636.728 -0.976313 -5.91801 0
M  V30 6609 H 638.407 -1.42142 -6.31193 0
M  V30 6610 N 638.539 1.52521 -0.396863 0
M  V30 6611 C 639.764 2.06571 0.185258 0
M  V30 6612 C 640.189 1.26605 1.39115 0
M  V30 6613 O 639.547 0.293055 1.78916 0
M  V30 6614 C 639.595 3.5674 0.526189 0
M  V30 6615 O 638.699 3.7929 1.61903 0
M  V30 6616 H 638.04 0.663712 0.0195474 0
M  V30 6617 H 640.57 1.966 -0.566519 0
M  V30 6618 H 640.58 4.00311 0.788338 0
M  V30 6619 H 639.255 4.14379 -0.355397 0
M  V30 6620 H 637.832 3.47605 1.35 0
M  V30 6621 N 640.017 0.126909 1.57088 0
M  V30 6622 C 641.242 -0.53997 2.00248 0
M  V30 6623 C 641.667 -1.58927 1.00618 0
M  V30 6624 O 641.025 -1.81288 -0.0210131 0
M  V30 6625 C 641.073 -1.13565 3.4225 0
M  V30 6626 O 640.177 -2.25103 3.45547 0
M  V30 6627 H 639.518 -0.13412 0.650314 0
M  V30 6628 H 642.048 0.217718 2.03438 0
M  V30 6629 H 642.058 -1.46925 3.80627 0
M  V30 6630 H 640.733 -0.367122 4.14277 0
M  V30 6631 H 639.31 -1.93123 3.18995 0
M  V30 6632 N 641.495 -1.56914 -0.146875 0
M  V30 6633 C 642.725 -1.87243 -0.873126 0
M  V30 6634 C 643.133 -0.713127 -1.75246 0
M  V30 6635 O 642.476 0.326228 -1.8078 0
M  V30 6636 C 642.538 -3.12279 -1.78107 0
M  V30 6637 C 642.202 -4.44082 -1.07889 0
M  V30 6638 C 643.199 -5.18096 -0.432734 0
M  V30 6639 C 640.884 -4.90807 -1.06836 0
M  V30 6640 C 642.878 -6.37039 0.214569 0
M  V30 6641 C 640.565 -6.09674 -0.417243 0
M  V30 6642 C 641.563 -6.82636 0.223093 0
M  V30 6643 O 641.251 -7.99245 0.863884 0
M  V30 6644 H 640.983 -0.624896 -0.257839 0
M  V30 6645 H 643.537 -2.04892 -0.14434 0
M  V30 6646 H 641.767 -2.90639 -2.5508 0
M  V30 6647 H 643.456 -3.28854 -2.37929 0
M  V30 6648 H 644.222 -4.83066 -0.432677 0
M  V30 6649 H 640.101 -4.3394 -1.55618 0
M  V30 6650 H 643.645 -6.93927 0.714965 0
M  V30 6651 H 639.542 -6.44165 -0.414967 0
M  V30 6652 H 640.31 -8.14912 0.765564 0
M  V30 6653 N 642.974 0.416227 -1.52004 0
M  V30 6654 C 644.221 1.16383 -1.65714 0
M  V30 6655 C 644.549 1.9068 -0.383594 0
M  V30 6656 O 643.804 1.85174 0.633185 0
M  V30 6657 C 644.103 2.18923 -2.82502 0
M  V30 6658 C 643.769 1.61485 -4.20991 0
M  V30 6659 C 642.431 1.45545 -4.58661 0
M  V30 6660 C 644.783 1.19468 -5.07323 0
M  V30 6661 C 642.111 0.860937 -5.80349 0
M  V30 6662 C 644.463 0.614386 -6.29609 0
M  V30 6663 C 643.127 0.442056 -6.66035 0
M  V30 6664 H 642.397 0.425875 -0.606392 0
M  V30 6665 H 645.044 0.45199 -1.8609 0
M  V30 6666 H 643.349 2.96225 -2.56433 0
M  V30 6667 H 645.046 2.76628 -2.90307 0
M  V30 6668 H 641.636 1.74873 -3.91302 0
M  V30 6669 H 645.82 1.30596 -4.78809 0
M  V30 6670 H 641.076 0.715372 -6.072 0
M  V30 6671 H 645.25 0.280393 -6.95835 0
M  V30 6672 H 642.877 -0.0207218 -7.60197 0
M  V30 6673 N 644.452 1.42507 0.673017 0
M  V30 6674 C 645.68 1.46473 1.46128 0
M  V30 6675 C 646.095 0.0765912 1.88645 0
M  V30 6676 O 645.452 -0.909057 1.58248 0
M  V30 6677 C 645.503 2.39339 2.70923 0
M  V30 6678 O 645.224 3.72752 2.3019 0
M  V30 6679 C 646.725 2.52343 3.64469 0
M  V30 6680 H 643.945 0.49812 0.449575 0
M  V30 6681 H 646.489 1.87041 0.826802 0
M  V30 6682 H 644.644 2.02019 3.30556 0
M  V30 6683 H 645.058 4.22503 3.10791 0
M  V30 6684 H 646.532 3.2144 4.48754 0
M  V30 6685 H 647.009 1.56189 4.1049 0
M  V30 6686 H 647.615 2.90392 3.10729 0
M  V30 6687 N 645.93 -0.909495 1.28709 0
M  V30 6688 C 646.88 -1.9991 1.09636 0
M  V30 6689 C 647.864 -1.60889 0.01872 0
M  V30 6690 O 649.056 -1.75374 0.239338 0
M  V30 6691 C 646.185 -3.34675 0.764702 0
M  V30 6692 C 645.271 -3.80085 1.8814 0
M  V30 6693 N 645.662 -3.97824 3.12361 0
M  V30 6694 C 643.96 -4.09278 1.77221 0
M  V30 6695 C 644.661 -4.35928 3.85151 0
M  V30 6696 N 643.637 -4.44426 3.13028 0
M  V30 6697 H 647.439 -2.11681 2.03883 0
M  V30 6698 H 644.953 -1.09763 1.1969 0
M  V30 6699 H 646.95 -4.12426 0.609132 0
M  V30 6700 H 645.61 -3.24255 -0.169952 0
M  V30 6701 H 646.621 -3.83626 3.47925 0
M  V30 6702 H 643.298 -4.0747 0.909621 0
M  V30 6703 H 644.688 -4.57581 4.92006 0
M  V30 6704 N 647.408 -1.11026 -1.11852 0
M  V30 6705 C 648.654 -0.867633 -1.83967 0
M  V30 6706 C 649.009 0.600309 -1.82795 0
M  V30 6707 O 648.302 1.43731 -1.26696 0
M  V30 6708 C 648.496 -1.35777 -3.30604 0
M  V30 6709 C 648.325 -2.87183 -3.46058 0
M  V30 6710 C 647.095 -3.55256 -3.59334 0
M  V30 6711 C 649.293 -3.85258 -3.40706 0
M  V30 6712 N 647.275 -4.94923 -3.63215 0
M  V30 6713 C 648.646 -5.1097 -3.51155 0
M  V30 6714 C 650.701 -3.77879 -3.2421 0
M  V30 6715 C 649.404 -6.30171 -3.46809 0
M  V30 6716 C 651.43 -4.96586 -3.2118 0
M  V30 6717 C 650.792 -6.21149 -3.32196 0
M  V30 6718 H 646.891 -0.370574 -0.688621 0
M  V30 6719 H 649.475 -1.41379 -1.33865 0
M  V30 6720 H 647.646 -0.83885 -3.79233 0
M  V30 6721 H 649.378 -1.05874 -3.90606 0
M  V30 6722 H 646.133 -3.05714 -3.61713 0
M  V30 6723 H 646.557 -5.67726 -3.68804 0
M  V30 6724 H 651.199 -2.82485 -3.14582 0
M  V30 6725 H 648.917 -7.25847 -3.55206 0
M  V30 6726 H 652.503 -4.92591 -3.09589 0
M  V30 6727 H 651.383 -7.11463 -3.29834 0
M  V30 6728 N 648.886 1.2938 -0.899927 0
M  V30 6729 C 650.114 1.99691 -0.541386 0
M  V30 6730 C 650.529 1.67355 0.873936 0
M  V30 6731 O 649.886 0.918728 1.57688 0
M  V30 6732 C 649.937 3.54168 -0.72438 0
M  V30 6733 O 649.658 3.85359 -2.08399 0
M  V30 6734 C 651.159 4.41746 -0.370819 0
M  V30 6735 H 648.379 0.638037 -0.207726 0
M  V30 6736 H 650.923 1.6491 -1.20934 0
M  V30 6737 H 649.078 3.87261 -0.103607 0
M  V30 6738 H 649.492 4.80032 -2.11352 0
M  V30 6739 H 650.966 5.49256 -0.549693 0
M  V30 6740 H 651.443 4.33712 0.692148 0
M  V30 6741 H 652.049 4.14125 -0.968543 0
M  V30 6742 N 650.364 0.662433 1.43002 0
M  V30 6743 C 651.612 0.179237 2.01304 0
M  V30 6744 C 651.933 -1.21428 1.52579 0
M  V30 6745 O 651.203 -1.81294 0.742252 0
M  V30 6746 H 649.783 0.0632725 0.744316 0
M  V30 6747 H 652.445 0.856169 1.75088 0
M  V30 6748 H 651.541 0.170957 3.11631 0
M  V30 6749 N 651.842 -1.52309 0.404946 0
M  V30 6750 C 653.067 -2.06666 -0.1743 0
M  V30 6751 C 653.492 -1.27341 -1.38441 0
M  V30 6752 O 652.85 -0.302539 -1.78758 0
M  V30 6753 C 652.898 -3.57014 -0.507262 0
M  V30 6754 O 652.002 -3.80144 -1.59889 0
M  V30 6755 H 651.343 -0.663807 -0.0160273 0
M  V30 6756 H 653.873 -1.96297 0.576937 0
M  V30 6757 H 653.883 -4.00724 -0.767098 0
M  V30 6758 H 652.558 -4.14184 0.377368 0
M  V30 6759 H 651.135 -3.48316 -1.33155 0
M  V30 6760 N 653.32 -0.135238 -1.57019 0
M  V30 6761 C 654.25 0.805235 -2.19176 0
M  V30 6762 C 655.231 1.2656 -1.13651 0
M  V30 6763 O 656.416 1.32528 -1.4195 0
M  V30 6764 C 653.546 2.04914 -2.80406 0
M  V30 6765 C 652.5 1.72598 -3.91655 0
M  V30 6766 C 651.826 3.04154 -4.39766 0
M  V30 6767 C 653.126 0.981709 -5.12991 0
M  V30 6768 H 654.82 0.287232 -2.98019 0
M  V30 6769 H 652.366 0.136714 -1.4335 0
M  V30 6770 H 654.319 2.71178 -3.22553 0
M  V30 6771 H 653.043 2.59067 -1.98877 0
M  V30 6772 H 651.702 1.08717 -3.50109 0
M  V30 6773 H 651.35 3.56274 -3.55075 0
M  V30 6774 H 651.05 2.83299 -5.14796 0
M  V30 6775 H 652.574 3.71509 -4.84576 0
M  V30 6776 H 653.988 1.5462 -5.52056 0
M  V30 6777 H 652.385 0.873533 -5.93708 0
M  V30 6778 H 653.455 -0.0286887 -4.84892 0
M  V30 6779 N 654.798 1.5699 0.138552 0
M  V30 6780 C 656.214 1.51844 0.491472 0
M  V30 6781 C 656.414 0.845063 1.82923 0
M  V30 6782 O 655.47 0.419143 2.48997 0
M  V30 6783 C 656.783 2.96615 0.493987 0
M  V30 6784 C 658.331 3.076 0.578913 0
M  V30 6785 C 658.806 4.53893 0.612009 0
M  V30 6786 N 660.297 4.5827 0.673997 0
M  V30 6787 C 661.032 5.68852 0.720729 0
M  V30 6788 N 660.528 6.88982 0.726292 0
M  V30 6789 N 662.321 5.56908 0.762253 0
M  V30 6790 H 654.472 1.99158 -0.738228 0
M  V30 6791 H 656.735 0.908693 -0.270149 0
M  V30 6792 H 656.441 3.49172 -0.420933 0
M  V30 6793 H 656.315 3.53017 1.32887 0
M  V30 6794 H 658.702 2.55057 1.48425 0
M  V30 6795 H 658.783 2.54227 -0.283286 0
M  V30 6796 H 658.427 5.07076 -0.289208 0
M  V30 6797 H 658.357 5.05057 1.49082 0
M  V30 6798 H 660.848 3.71793 0.676654 0
M  V30 6799 H 661.161 7.69014 0.764032 0
M  V30 6800 H 659.506 6.91526 0.69403 0
M  V30 6801 H 662.697 4.61969 0.755135 0
M  V30 6802 H 662.87 6.43102 0.795207 0
M  V30 6803 N 656.276 -0.40816 1.52223 0
M  V30 6804 C 657.523 -1.15502 1.66329 0
M  V30 6805 C 657.851 -1.90474 0.393701 0
M  V30 6806 O 657.106 -1.85507 -0.623356 0
M  V30 6807 C 657.405 -2.17422 2.83659 0
M  V30 6808 C 657.071 -1.5925 4.21841 0
M  V30 6809 C 655.733 -1.4311 4.59427 0
M  V30 6810 C 658.085 -1.16776 5.0795 0
M  V30 6811 C 655.413 -0.830148 5.80797 0
M  V30 6812 C 657.765 -0.580988 6.29926 0
M  V30 6813 C 656.429 -0.406729 6.6626 0
M  V30 6814 H 655.699 -0.422653 0.608642 0
M  V30 6815 H 658.346 -0.442114 1.86327 0
M  V30 6816 H 656.651 -2.94861 2.58001 0
M  V30 6817 H 658.348 -2.75084 2.9177 0
M  V30 6818 H 654.938 -1.72796 3.92224 0
M  V30 6819 H 659.122 -1.28055 4.79495 0
M  V30 6820 H 654.378 -0.68316 6.07571 0
M  V30 6821 H 658.552 -0.243488 6.95974 0
M  V30 6822 H 656.179 0.0610366 7.60175 0
M  V30 6823 N 657.755 -1.42862 -0.66545 0
M  V30 6824 C 658.98 -1.47456 -1.45848 0
M  V30 6825 C 659.405 -0.0900312 -1.87884 0
M  V30 6826 O 658.763 0.913587 -1.56599 0
M  V30 6827 C 658.811 -2.41514 -2.67774 0
M  V30 6828 O 657.915 -1.89296 -3.66389 0
M  V30 6829 H 657.256 -0.499236 -0.437789 0
M  V30 6830 H 659.786 -1.8765 -0.815394 0
M  V30 6831 H 659.796 -2.58409 -3.15735 0
M  V30 6832 H 658.471 -3.42099 -2.36519 0
M  V30 6833 H 657.048 -1.82003 -3.25468 0
M  V30 6834 N 659.233 0.902656 -1.29189 0
M  V30 6835 C 660.48 1.65287 -1.16989 0
M  V30 6836 C 660.808 1.92485 0.279232 0
M  V30 6837 O 660.063 1.53143 1.21843 0
M  V30 6838 C 660.362 3.011 -1.92545 0
M  V30 6839 C 660.028 2.93521 -3.42281 0
M  V30 6840 C 658.69 2.91161 -3.83117 0
M  V30 6841 C 661.042 2.82947 -4.3771 0
M  V30 6842 C 658.37 2.76043 -5.17704 0
M  V30 6843 C 660.722 2.69368 -5.72384 0
M  V30 6844 C 659.386 2.65373 -6.12482 0
M  V30 6845 H 658.656 0.604828 -0.428094 0
M  V30 6846 H 661.303 1.05084 -1.60092 0
M  V30 6847 H 659.608 3.65153 -1.42024 0
M  V30 6848 H 661.305 3.58073 -1.80512 0
M  V30 6849 H 657.895 2.96158 -3.09819 0
M  V30 6850 H 662.079 2.83849 -4.07116 0
M  V30 6851 H 657.335 2.71352 -5.47885 0
M  V30 6852 H 661.509 2.60156 -6.45981 0
M  V30 6853 H 659.136 2.53415 -7.16718 0
M  V30 6854 N 660.711 1.11618 1.11262 0
M  V30 6855 C 661.644 0.719995 2.16544 0
M  V30 6856 C 662.622 -0.28471 1.60088 0
M  V30 6857 O 663.806 -0.180693 1.87632 0
M  V30 6858 C 660.933 0.0643302 3.38639 0
M  V30 6859 C 659.979 1.03448 4.13764 0
M  V30 6860 S 660.812 2.55789 4.70459 0
M  V30 6861 C 661.968 1.91529 5.95875 0
M  V30 6862 H 662.201 1.61181 2.49816 0
M  V30 6863 H 659.734 0.934401 1.22916 0
M  V30 6864 H 661.692 -0.307609 4.09346 0
M  V30 6865 H 660.353 -0.804471 3.03623 0
M  V30 6866 H 659.546 0.523188 5.01277 0
M  V30 6867 H 659.148 1.34893 3.48826 0
M  V30 6868 H 661.44 1.25286 6.65815 0
M  V30 6869 H 662.383 2.77047 6.51652 0
M  V30 6870 H 662.791 1.37468 5.47506 0
M  V30 6871 N 662.189 -1.289 0.906776 0
M  V30 6872 C 663.436 -1.95269 0.536326 0
M  V30 6873 C 663.764 -1.71435 -0.918711 0
M  V30 6874 O 663.019 -1.02431 -1.66752 0
M  V30 6875 C 663.318 -3.48704 0.783617 0
M  V30 6876 C 662.984 -3.92626 2.21711 0
M  V30 6877 C 661.646 -4.04329 2.60906 0
M  V30 6878 C 663.998 -4.15218 3.15029 0
M  V30 6879 C 661.326 -4.35998 3.92584 0
M  V30 6880 C 663.678 -4.48365 4.46264 0
M  V30 6881 C 662.342 -4.58278 4.85322 0
M  V30 6882 H 661.612 -0.714538 0.196256 0
M  V30 6883 H 664.259 -1.53366 1.14678 0
M  V30 6884 H 662.564 -3.91696 0.0903048 0
M  V30 6885 H 664.261 -3.98162 0.476267 0
M  V30 6886 H 660.851 -3.84038 1.90296 0
M  V30 6887 H 665.035 -4.05636 2.8596 0
M  V30 6888 H 660.291 -4.41878 4.22557 0
M  V30 6889 H 664.465 -4.64795 5.18593 0
M  V30 6890 H 662.092 -4.82573 5.87391 0
M  V30 6891 N 663.667 -0.670007 -1.42649 0
M  V30 6892 C 664.907 -0.194106 -2.03476 0
M  V30 6893 C 665.271 1.1755 -1.51809 0
M  V30 6894 O 666.472 1.74579 -2.04391 0
M  V30 6895 C 664.743 -0.221828 -3.56711 0
M  V30 6896 S 666.302 0.183772 -4.38415 0
M  V30 6897 H 663.12 -0.0802478 -0.706457 0
M  V30 6898 H 665.722 -0.882092 -1.74469 0
M  V30 6899 H 664.426 -1.22107 -3.91814 0
M  V30 6900 H 663.957 0.486149 -3.90385 0
M  V30 6901 H 665.972 1.41839 -4.75496 0
M  V30 6902 N 665.145 1.52092 -0.413018 0
M  V30 6903 C 666.393 2.01456 0.161178 0
M  V30 6904 C 666.714 1.30034 1.45314 0
M  V30 6905 O 665.984 0.427435 1.9118 0
M  V30 6906 H 664.564 0.744376 0.0625526 0
M  V30 6907 H 667.226 1.86974 -0.550151 0
M  V30 6908 H 666.322 3.1008 0.354517 0
M  V30 6909 N 666.623 0.143563 1.56945 0
M  V30 6910 C 667.851 -0.515447 2.00377 0
M  V30 6911 C 668.266 -1.58643 1.02361 0
M  V30 6912 O 667.623 -1.82489 0.0201039 0
M  V30 6913 C 667.674 -1.11923 3.43737 0
M  V30 6914 O 667.395 -0.0910318 4.38005 0
M  V30 6915 C 668.896 -1.85918 4.02429 0
M  V30 6916 H 666.116 -0.134478 0.657386 0
M  V30 6917 H 668.66 0.237135 2.0312 0
M  V30 6918 H 666.815 -1.82245 3.41856 0
M  V30 6919 H 667.229 -0.532916 5.21786 0
M  V30 6920 H 668.703 -2.2346 5.04747 0
M  V30 6921 H 669.18 -2.7438 3.42947 0
M  V30 6922 H 669.786 -1.20303 4.07931 0
M  V30 6923 N 668.101 -1.57061 -0.130224 0
M  V30 6924 C 669.064 -1.98593 -1.14426 0
M  V30 6925 C 670.064 -0.874584 -1.34936 0
M  V30 6926 O 671.254 -1.14086 -1.31643 0
M  V30 6927 C 668.386 -2.31639 -2.50112 0
M  V30 6928 H 669.579 -2.89374 -0.787561 0
M  V30 6929 H 667.132 -1.51756 -0.374146 0
M  V30 6930 H 667.867 -1.43703 -2.90723 0
M  V30 6931 H 667.652 -3.12684 -2.36583 0
M  V30 6932 H 669.142 -2.64551 -3.23114 0
M  V30 6933 N 669.579 0.400081 -1.52437 0
M  V30 6934 C 670.527 1.50851 -1.7705 0
M  V30 6935 C 671.521 1.56928 -0.637969 0
M  V30 6936 O 672.727 1.60226 -0.820212 0
M  V30 6937 H 669.102 0.50186 -0.560036 0
M  V30 6938 H 671.073 1.27281 -2.69893 0
M  V30 6939 C 669.822 2.88117 -1.94638 0
M  V30 6940 H 669.145 2.84187 -2.81208 0
M  V30 6941 H 670.585 3.64942 -2.15855 0
M  V30 6942 C 669.044 3.29206 -0.715899 0
M  V30 6943 O 669.574 4.01544 0.111944 0
M  V30 6944 N 667.78 2.85363 -0.549191 0
M  V30 6945 H 667.327 2.26664 -1.22397 0
M  V30 6946 H 667.285 3.13214 0.27278 0
M  V30 6947 N 671.057 1.43213 0.657864 0
M  V30 6948 C 672.285 1.48015 1.44566 0
M  V30 6949 C 672.7 0.0965951 1.88553 0
M  V30 6950 O 672.057 -0.892221 1.59203 0
M  V30 6951 C 672.108 2.42199 2.68369 0
M  V30 6952 O 671.829 3.75173 2.26223 0
M  V30 6953 C 673.33 2.56195 3.61772 0
M  V30 6954 H 670.55 0.502861 0.444266 0
M  V30 6955 H 673.094 1.87907 0.806917 0
M  V30 6956 H 671.249 2.05514 3.28394 0
M  V30 6957 H 671.663 4.25776 3.06293 0
M  V30 6958 H 673.137 3.26182 4.4532 0
M  V30 6959 H 673.614 1.60534 4.0881 0
M  V30 6960 H 674.22 2.93671 3.07632 0
M  V30 6961 N 672.536 -0.895792 1.29666 0
M  V30 6962 C 673.764 -1.68001 1.20761 0
M  V30 6963 C 674.179 -1.87379 -0.231187 0
M  V30 6964 O 673.536 -1.41359 -1.15429 0
M  V30 6965 C 673.587 -3.06236 1.92098 0
M  V30 6966 O 673.308 -2.8774 3.30359 0
M  V30 6967 C 674.809 -4.00652 1.89717 0
M  V30 6968 H 672.029 -0.524591 0.418384 0
M  V30 6969 H 674.573 -1.11995 1.71106 0
M  V30 6970 H 672.728 -3.59007 1.45578 0
M  V30 6971 H 673.142 -3.75359 3.66342 0
M  V30 6972 H 674.616 -4.95051 2.44189 0
M  V30 6973 H 675.093 -4.30424 0.873595 0
M  V30 6974 H 675.699 -3.53815 2.35998 0
M  V30 6975 N 674.014 -1.12206 -1.10668 0
M  V30 6976 C 675.26 -0.877172 -1.82848 0
M  V30 6977 C 675.593 0.595571 -1.84842 0
M  V30 6978 O 674.868 1.44013 -1.30731 0
M  V30 6979 C 675.151 -1.44957 -3.29635 0
M  V30 6980 C 675.004 -2.99051 -3.35989 0
M  V30 6981 C 676.323 -1.10714 -4.25946 0
M  V30 6982 H 673.442 -0.320103 -0.663854 0
M  V30 6983 H 676.084 -1.38827 -1.2972 0
M  V30 6984 H 674.234 -1.01488 -3.7501 0
M  V30 6985 H 675.906 -3.51182 -2.99113 0
M  V30 6986 H 674.149 -3.34705 -2.75962 0
M  V30 6987 H 674.82 -3.34194 -4.39339 0
M  V30 6988 H 677.296 -1.48254 -3.88793 0
M  V30 6989 H 676.172 -1.5343 -5.2702 0
M  V30 6990 H 676.433 -0.019 -4.42096 0
M  V30 6991 N 675.492 1.28418 -0.913599 0
M  V30 6992 C 676.439 2.27301 -0.400373 0
M  V30 6993 C 677.409 1.57582 0.52509 0
M  V30 6994 O 678.594 1.85482 0.447318 0
M  V30 6995 C 675.734 3.43284 0.35361 0
M  V30 6996 C 674.847 4.27752 -0.604341 0
M  V30 6997 C 673.982 5.30934 0.168075 0
M  V30 6998 C 673.021 6.07065 -0.783499 0
M  V30 6999 N 672.158 7.02086 -0.0446112 0
M  V30 7000 H 676.998 2.70579 -1.24865 0
M  V30 7001 H 674.535 1.33067 -0.627028 0
M  V30 7002 H 676.493 4.09322 0.806945 0
M  V30 7003 H 675.123 3.00997 1.16623 0
M  V30 7004 H 674.175 3.61759 -1.17621 0
M  V30 7005 H 675.487 4.80682 -1.33216 0
M  V30 7006 H 674.641 6.02855 0.681979 0
M  V30 7007 H 673.38 4.78771 0.928947 0
M  V30 7008 H 672.385 5.33995 -1.30878 0
M  V30 7009 H 673.61 6.61317 -1.54392 0
M  V30 7010 H 671.556 6.52273 0.698272 0
M  V30 7011 H 671.473 7.52637 -0.712258 0
M  V30 7012 H 672.741 7.78205 0.449102 0
M  V30 7013 N 676.97 0.677563 1.42291 0
M  V30 7014 C 677.9 0.014968 2.33495 0
M  V30 7015 C 678.881 -0.786376 1.50831 0
M  V30 7016 O 680.066 -0.742975 1.79426 0
M  V30 7017 C 677.196 -0.935023 3.34477 0
M  V30 7018 C 676.15 -0.242074 4.27315 0
M  V30 7019 C 675.476 -1.30519 5.18526 0
M  V30 7020 C 676.776 0.880604 5.14823 0
M  V30 7021 H 678.47 0.776671 2.89151 0
M  V30 7022 H 676.016 0.37494 1.39033 0
M  V30 7023 H 677.969 -1.40766 3.97194 0
M  V30 7024 H 676.693 -1.72818 2.77131 0
M  V30 7025 H 675.352 0.210351 3.65996 0
M  V30 7026 H 675 -2.09041 4.57505 0
M  V30 7027 H 674.7 -0.846652 5.81468 0
M  V30 7028 H 676.224 -1.7787 5.84119 0
M  V30 7029 H 677.638 0.489062 5.7121 0
M  V30 7030 H 676.035 1.26511 5.86613 0
M  V30 7031 H 677.105 1.72818 4.53059 0
M  V30 7032 N 678.448 -1.51871 0.421078 0
M  V30 7033 C 679.378 -2.30231 -0.389363 0
M  V30 7034 C 680.359 -1.34946 -1.03555 0
M  V30 7035 O 681.544 -1.63859 -1.04229 0
M  V30 7036 C 678.674 -3.13247 -1.49979 0
M  V30 7037 C 677.628 -4.16677 -0.977966 0
M  V30 7038 C 676.954 -4.88112 -2.1829 0
M  V30 7039 C 678.254 -5.22295 -0.0236775 0
M  V30 7040 H 679.948 -2.98229 0.264524 0
M  V30 7041 H 677.494 -1.43424 0.12866 0
M  V30 7042 H 679.447 -3.66838 -2.07383 0
M  V30 7043 H 678.171 -2.4304 -2.18173 0
M  V30 7044 H 676.83 -3.64114 -0.426245 0
M  V30 7045 H 676.478 -4.14423 -2.85066 0
M  V30 7046 H 676.178 -5.58041 -1.84021 0
M  V30 7047 H 677.702 -5.44521 -2.76278 0
M  V30 7048 H 679.116 -5.71055 -0.506899 0
M  V30 7049 H 677.513 -5.99656 0.230782 0
M  V30 7050 H 678.583 -4.76131 0.917999 0
M  V30 7051 N 679.926 -0.151884 -1.56866 0
M  V30 7052 C 680.856 0.781943 -2.20018 0
M  V30 7053 C 681.837 1.25347 -1.14987 0
M  V30 7054 O 683.022 1.31015 -1.43348 0
M  V30 7055 C 680.152 2.01928 -2.82564 0
M  V30 7056 C 679.106 1.68434 -3.93464 0
M  V30 7057 C 678.432 2.99472 -4.42968 0
M  V30 7058 C 679.732 0.927244 -5.14003 0
M  V30 7059 H 681.426 0.255607 -2.98307 0
M  V30 7060 H 678.972 0.121502 -1.43486 0
M  V30 7061 H 680.925 2.67741 -3.25411 0
M  V30 7062 H 679.649 2.56943 -2.01614 0
M  V30 7063 H 678.308 1.04998 -3.51242 0
M  V30 7064 H 677.956 3.52488 -3.58834 0
M  V30 7065 H 677.656 2.77823 -5.17772 0
M  V30 7066 H 679.18 3.66348 -4.88489 0
M  V30 7067 H 680.594 1.48756 -5.53665 0
M  V30 7068 H 678.991 0.810513 -5.94601 0
M  V30 7069 H 680.061 -0.0801163 -4.84834 0
M  V30 7070 N 681.404 1.57128 0.121893 0
M  V30 7071 C 682.367 1.99197 1.13372 0
M  V30 7072 C 683.367 0.881728 1.3447 0
M  V30 7073 O 684.557 1.14783 1.31036 0
M  V30 7074 C 681.689 2.32963 2.4888 0
M  V30 7075 H 682.882 2.89788 0.772204 0
M  V30 7076 H 680.435 1.51952 0.366093 0
M  V30 7077 H 681.17 1.45243 2.89957 0
M  V30 7078 H 680.955 3.13934 2.34921 0
M  V30 7079 H 682.445 2.66261 3.21706 0
M  V30 7080 N 682.882 -0.391992 1.52647 0
M  V30 7081 C 684.112 -1.15692 1.71169 0
M  V30 7082 C 684.52 -1.84285 0.428444 0
M  V30 7083 O 683.863 -1.73393 -0.606669 0
M  V30 7084 C 683.925 -2.25033 2.80357 0
M  V30 7085 C 683.589 -1.76433 4.21569 0
M  V30 7086 C 684.586 -1.2427 5.0483 0
M  V30 7087 C 682.271 -1.82746 4.67877 0
M  V30 7088 C 684.265 -0.790657 6.32477 0
M  V30 7089 C 681.952 -1.37153 5.9551 0
M  V30 7090 C 682.95 -0.853997 6.7764 0
M  V30 7091 O 682.638 -0.404708 8.02881 0
M  V30 7092 H 682.37 -0.35297 0.576531 0
M  V30 7093 H 684.924 -0.464994 2.00067 0
M  V30 7094 H 683.154 -2.97641 2.46874 0
M  V30 7095 H 684.843 -2.86718 2.87311 0
M  V30 7096 H 685.609 -1.18752 4.70237 0
M  V30 7097 H 681.488 -2.21971 4.04042 0
M  V30 7098 H 685.032 -0.386024 6.96531 0
M  V30 7099 H 680.929 -1.42356 6.29607 0
M  V30 7100 H 681.697 -0.526459 8.16805 0
M  V30 7101 N 684.36 -1.4356 -0.65026 0
M  V30 7102 C 685.588 -1.48779 -1.43779 0
M  V30 7103 C 686.003 -0.106593 -1.88499 0
M  V30 7104 O 685.36 0.883766 -1.59674 0
M  V30 7105 C 685.411 -2.43618 -2.67081 0
M  V30 7106 O 685.132 -3.76367 -2.24231 0
M  V30 7107 C 686.633 -2.5811 -3.60409 0
M  V30 7108 H 683.853 -0.50521 -0.441593 0
M  V30 7109 H 686.397 -1.88332 -0.796941 0
M  V30 7110 H 684.552 -2.07253 -3.273 0
M  V30 7111 H 684.966 -4.27394 -3.0403 0
M  V30 7112 H 686.44 -3.28539 -4.43583 0
M  V30 7113 H 686.917 -1.627 -4.07953 0
M  V30 7114 H 687.523 -2.95298 -3.0607 0
M  V30 7115 N 685.838 0.888903 -1.30139 0
M  V30 7116 C 687.249 1.45578 -1.16893 0
M  V30 7117 C 687.6 1.94825 0.231866 0
M  V30 7118 O 686.725 1.84661 1.12824 0
M  V30 7119 C 687.32 2.646 -2.11595 0
M  V30 7120 C 685.879 3.17389 -2.02339 0
M  V30 7121 C 685.026 1.90081 -2.01902 0
M  V30 7122 H 687.977 0.69921 -1.42467 0
M  V30 7123 H 687.998 3.40687 -1.69449 0
M  V30 7124 H 687.51 2.28726 -3.13538 0
M  V30 7125 H 685.611 3.5793 -1.03523 0
M  V30 7126 H 685.724 3.80955 -2.90534 0
M  V30 7127 H 684.088 2.08246 -1.46648 0
M  V30 7128 H 684.871 1.5647 -3.05568 0
M  V30 7129 N 687.317 1.12792 1.10072 0
M  V30 7130 C 688.728 0.899346 1.63611 0
M  V30 7131 C 689.079 -0.565547 1.87872 0
M  V30 7132 O 688.204 -1.43081 1.62348 0
M  V30 7133 C 688.799 1.62608 2.97227 0
M  V30 7134 C 687.358 1.44356 3.47618 0
M  V30 7135 C 686.505 1.65958 2.22156 0
M  V30 7136 H 689.456 1.28216 0.935223 0
M  V30 7137 H 689.477 1.0793 3.64872 0
M  V30 7138 H 688.989 2.69221 2.79538 0
M  V30 7139 H 687.09 0.400148 3.70445 0
M  V30 7140 H 687.203 2.20218 4.25489 0
M  V30 7141 H 685.567 1.08395 2.30484 0
M  V30 7142 H 686.35 2.73877 2.06993 0
M  V30 7143 N 688.795 -1.27931 0.920396 0
M  V30 7144 C 690.043 -1.94304 0.555906 0
M  V30 7145 C 690.364 -1.72753 -0.904519 0
M  V30 7146 O 689.634 -1.07104 -1.64029 0
M  V30 7147 H 688.214 -0.719001 0.202599 0
M  V30 7148 H 690.876 -1.55785 1.1712 0
M  V30 7149 H 689.972 -3.02806 0.755981 0
M  V30 7150 N 690.273 -0.685099 -1.4193 0
M  V30 7151 C 691.522 -0.208816 -2.00616 0
M  V30 7152 C 691.835 1.19506 -1.54847 0
M  V30 7153 O 693.041 1.76826 -2.06021 0
M  V30 7154 C 691.497 -0.322446 -3.58453 0
M  V30 7155 C 691.105 -1.73102 -4.13206 0
M  V30 7156 C 692.849 0.0945979 -4.24395 0
M  V30 7157 C 690.756 -1.79687 -5.63442 0
M  V30 7158 H 689.686 -0.0743092 -0.750329 0
M  V30 7159 H 692.337 -0.851778 -1.62533 0
M  V30 7160 H 690.719 0.388588 -3.94089 0
M  V30 7161 H 691.893 -2.46997 -3.8901 0
M  V30 7162 H 690.208 -2.09682 -3.59753 0
M  V30 7163 H 692.805 0.0656937 -5.3466 0
M  V30 7164 H 693.148 1.1316 -4.00625 0
M  V30 7165 H 693.681 -0.56579 -3.93756 0
M  V30 7166 H 690.42 -2.81404 -5.92024 0
M  V30 7167 H 689.94 -1.10162 -5.89597 0
M  V30 7168 H 691.619 -1.55498 -6.28036 0
M  V30 7169 N 691.751 1.51645 -0.429126 0
M  V30 7170 C 692.714 2.26116 0.374726 0
M  V30 7171 C 693.714 1.29242 0.956714 0
M  V30 7172 O 694.904 1.53022 0.832452 0
M  V30 7173 C 692.036 3.04669 1.52937 0
M  V30 7174 H 693.229 2.9861 -0.277818 0
M  V30 7175 H 690.782 1.55236 -0.182097 0
M  V30 7176 H 691.517 2.36571 2.21821 0
M  V30 7177 H 691.302 3.75814 1.11833 0
M  V30 7178 H 692.792 3.61102 2.09751 0
M  V30 7179 N 693.229 0.160201 1.56784 0
M  V30 7180 C 694.139 -0.787167 2.21 0
M  V30 7181 C 695.155 -1.26167 1.19825 0
M  V30 7182 O 696.331 -1.31611 1.52448 0
M  V30 7183 C 693.396 -2.00364 2.8294 0
M  V30 7184 C 692.457 -1.5771 3.99282 0
M  V30 7185 C 691.69 -2.73558 4.58259 0
M  V30 7186 O 691.913 -3.90129 4.16119 0
M  V30 7187 O 690.847 -2.48271 5.48311 0
M  V30 7188 H 694.673 -0.270462 3.02493 0
M  V30 7189 H 692.258 -0.0674666 1.49248 0
M  V30 7190 H 694.14 -2.71529 3.22257 0
M  V30 7191 H 692.815 -2.50961 2.04451 0
M  V30 7192 H 691.722 -0.835274 3.64656 0
M  V30 7193 H 693.055 -1.11815 4.79331 0
M  V30 7194 N 694.707 -1.5719 -0.113559 0
M  V30 7195 C 696.118 -1.74259 -0.670116 0
M  V30 7196 C 696.469 -0.779694 -1.80042 0
M  V30 7197 O 695.594 0.0461353 -2.16351 0
M  V30 7198 C 696.189 -3.15981 -1.22236 0
M  V30 7199 C 694.748 -3.34537 -1.72516 0
M  V30 7200 C 693.895 -2.70116 -0.627098 0
M  V30 7201 H 696.846 -1.58301 0.112396 0
M  V30 7202 H 696.867 -3.17832 -2.09197 0
M  V30 7203 H 696.379 -3.86038 -0.39949 0
M  V30 7204 H 694.48 -2.6953 -2.57263 0
M  V30 7205 H 694.593 -4.42737 -1.83086 0
M  V30 7206 H 692.957 -2.31501 -1.06204 0
M  V30 7207 H 693.74 -3.42802 0.184889 0
M  V30 7208 N 696.185 0.383891 -1.52853 0
M  V30 7209 C 697.413 1.1495 -1.7203 0
M  V30 7210 C 697.828 1.83578 -0.440957 0
M  V30 7211 O 697.185 1.72872 0.584925 0
M  V30 7212 C 697.236 2.19368 -2.87333 0
M  V30 7213 O 696.957 1.53536 -4.10315 0
M  V30 7214 C 698.458 3.08616 -3.18231 0
M  V30 7215 H 695.678 0.344445 -0.575846 0
M  V30 7216 H 698.222 0.448397 -1.99524 0
M  V30 7217 H 696.377 2.85105 -2.62286 0
M  V30 7218 H 696.791 2.2296 -4.74752 0
M  V30 7219 H 698.265 3.77902 -4.02361 0
M  V30 7220 H 698.742 3.72409 -2.32826 0
M  V30 7221 H 699.348 2.48518 -3.45136 0
M  V30 7222 N 697.663 1.43903 0.642637 0
M  V30 7223 C 698.891 1.4954 1.42988 0
M  V30 7224 C 699.306 0.116588 1.8844 0
M  V30 7225 O 698.663 -0.875285 1.60141 0
M  V30 7226 C 698.714 2.45031 2.65785 0
M  V30 7227 O 698.435 3.77551 2.22232 0
M  V30 7228 C 699.936 2.60017 3.59035 0
M  V30 7229 H 697.156 0.507544 0.438907 0
M  V30 7230 H 699.7 1.88752 0.786942 0
M  V30 7231 H 697.855 2.08985 3.26196 0
M  V30 7232 H 698.269 4.29001 3.01759 0
M  V30 7233 H 699.743 3.30887 4.41835 0
M  V30 7234 H 700.22 1.64861 4.07084 0
M  V30 7235 H 700.826 2.96918 3.045 0
M  V30 7236 N 699.141 -0.881989 1.30609 0
M  V30 7237 C 700.557 -1.16576 1.09005 0
M  V30 7238 C 700.757 -2.00961 -0.14727 0
M  V30 7239 O 699.813 -2.38117 -0.840036 0
M  V30 7240 C 701.126 -1.86954 2.35518 0
M  V30 7241 C 702.674 -1.99706 2.41011 0
M  V30 7242 C 703.149 -2.73497 3.67374 0
M  V30 7243 N 704.64 -2.8104 3.68199 0
M  V30 7244 C 705.375 -3.38718 4.62664 0
M  V30 7245 N 704.871 -3.97421 5.67475 0
M  V30 7246 N 706.664 -3.36561 4.50203 0
M  V30 7247 H 698.815 -0.319398 2.09985 0
M  V30 7248 H 701.078 -0.204058 0.925778 0
M  V30 7249 H 700.784 -1.32393 3.2583 0
M  V30 7250 H 700.658 -2.87317 2.44395 0
M  V30 7251 H 703.045 -2.53436 1.51176 0
M  V30 7252 H 703.126 -0.984218 2.36108 0
M  V30 7253 H 702.77 -2.20438 4.57569 0
M  V30 7254 H 702.7 -3.75163 3.6954 0
M  V30 7255 H 705.191 -2.39365 2.92426 0
M  V30 7256 H 705.504 -4.39507 6.35652 0
M  V30 7257 H 703.849 -3.95832 5.71264 0
M  V30 7258 H 707.04 -2.8993 3.67503 0
M  V30 7259 H 707.213 -3.81215 5.24003 0
M  V30 7260 N 700.619 -1.13374 -1.09472 0
M  V30 7261 C 701.566 -0.810682 -2.16094 0
M  V30 7262 C 702.536 0.227003 -1.64541 0
M  V30 7263 O 703.721 0.0993538 -1.90541 0
M  V30 7264 C 700.861 -0.282336 -3.43943 0
M  V30 7265 C 699.974 -1.37902 -4.09398 0
M  V30 7266 C 699.109 -0.809066 -5.25002 0
M  V30 7267 C 698.148 -1.88419 -5.82379 0
M  V30 7268 N 697.285 -1.33221 -6.89345 0
M  V30 7269 H 702.125 -1.72397 -2.43071 0
M  V30 7270 H 699.662 -0.860564 -1.19301 0
M  V30 7271 H 701.62 0.0421189 -4.17179 0
M  V30 7272 H 700.25 0.594083 -3.17286 0
M  V30 7273 H 699.302 -1.82008 -3.34032 0
M  V30 7274 H 700.614 -2.19161 -4.48074 0
M  V30 7275 H 699.768 -0.435867 -6.05132 0
M  V30 7276 H 698.507 0.0346058 -4.87688 0
M  V30 7277 H 697.512 -2.26646 -5.00911 0
M  V30 7278 H 698.737 -2.73125 -6.21755 0
M  V30 7279 H 696.683 -0.510535 -6.5401 0
M  V30 7280 H 696.6 -2.08129 -7.26786 0
M  V30 7281 H 697.868 -0.986565 -7.73232 0
M  V30 7282 N 702.098 1.27442 -0.927168 0
M  V30 7283 C 703.375 1.89473 -0.485742 0
M  V30 7284 C 703.755 1.83922 1.03614 0
M  V30 7285 O 703.103 1.28409 1.89007 0
M  V30 7286 C 703.313 3.33417 -1.03123 0
M  V30 7287 C 704.661 4.10333 -1.0914 0
M  V30 7288 O 705.685 3.4243 -0.98082 0
M  V30 7289 O 704.544 5.31737 -1.26165 0
M  V30 7290 H 701.638 0.812124 -0.156154 0
M  V30 7291 H 704.184 1.35713 -1.01882 0
M  V30 7292 H 702.956 3.31747 -2.07508 0
M  V30 7293 H 702.579 3.94695 -0.479767 0
M  V30 7294 N 703.576 0.692616 1.41565 0
M  V30 7295 C 704.539 0.0344174 2.29174 0
M  V30 7296 C 705.539 -0.710961 1.44229 0
M  V30 7297 O 706.729 -0.546293 1.65412 0
M  V30 7298 C 703.861 -0.961682 3.27054 0
M  V30 7299 H 705.054 0.805755 2.88873 0
M  V30 7300 H 702.607 0.455947 1.49502 0
M  V30 7301 H 703.342 -1.76089 2.72329 0
M  V30 7302 H 703.127 -0.430375 3.89731 0
M  V30 7303 H 704.617 -1.4201 3.92712 0
M  V30 7304 N 705.054 -1.51416 0.437162 0
M  V30 7305 C 705.987 -2.24309 -0.419602 0
M  V30 7306 C 706.965 -1.26236 -1.02485 0
M  V30 7307 O 708.149 -1.5537 -1.06735 0
M  V30 7308 C 705.276 -2.99335 -1.58482 0
M  V30 7309 C 704.322 -4.12064 -1.10027 0
M  V30 7310 S 705.155 -5.35483 -0.0424476 0
M  V30 7311 C 706.311 -6.14047 -1.21234 0
M  V30 7312 H 706.544 -2.96632 0.199259 0
M  V30 7313 H 704.077 -1.528 0.22168 0
M  V30 7314 H 706.035 -3.43159 -2.25282 0
M  V30 7315 H 704.696 -2.26602 -2.17509 0
M  V30 7316 H 703.889 -4.63836 -1.97161 0
M  V30 7317 H 703.491 -3.70499 -0.510507 0
M  V30 7318 H 705.783 -6.43123 -2.13072 0
M  V30 7319 H 706.726 -7.04279 -0.734582 0
M  V30 7320 H 707.134 -5.45538 -1.45082 0
M  V30 7321 N 706.532 -0.168513 -1.56696 0
M  V30 7322 C 707.462 0.758563 -2.20835 0
M  V30 7323 C 708.443 1.24121 -1.1631 0
M  V30 7324 O 709.628 1.29487 -1.4473 0
M  V30 7325 C 706.758 1.9892 -2.8469 0
M  V30 7326 C 705.712 1.64252 -3.95228 0
M  V30 7327 C 705.038 2.94757 -4.46119 0
M  V30 7328 C 706.338 0.872675 -5.14958 0
M  V30 7329 H 708.032 0.223953 -2.98561 0
M  V30 7330 H 705.578 0.106277 -1.43607 0
M  V30 7331 H 707.531 2.64275 -3.28233 0
M  V30 7332 H 706.255 2.5479 -2.04327 0
M  V30 7333 H 704.914 1.01266 -3.52336 0
M  V30 7334 H 704.562 3.48662 -3.62552 0
M  V30 7335 H 704.262 2.72316 -5.2069 0
M  V30 7336 H 705.786 3.61147 -4.92347 0
M  V30 7337 H 707.2 1.42875 -5.55211 0
M  V30 7338 H 705.597 0.747402 -5.95428 0
M  V30 7339 H 706.667 -0.131535 -4.84722 0
M  V30 7340 N 708.01 1.57248 0.105221 0
M  V30 7341 C 709.258 1.85204 0.808951 0
M  V30 7342 C 709.579 0.75574 1.7976 0
M  V30 7343 O 708.849 -0.218984 1.94672 0
M  V30 7344 H 707.429 0.683346 0.301739 0
M  V30 7345 H 710.091 1.94695 0.0892605 0
M  V30 7346 H 709.187 2.81595 1.34575 0
M  V30 7347 N 709.488 -0.375779 1.53054 0
M  V30 7348 C 710.716 -1.14036 1.72637 0
M  V30 7349 C 711.131 -1.83342 0.450687 0
M  V30 7350 O 710.488 -1.7318 -0.575749 0
M  V30 7351 C 710.539 -2.17841 2.88492 0
M  V30 7352 O 710.26 -1.51358 4.11123 0
M  V30 7353 C 711.761 -3.06924 3.19863 0
M  V30 7354 H 708.981 -0.341386 0.577665 0
M  V30 7355 H 711.525 -0.437809 1.99759 0
M  V30 7356 H 709.68 -2.8371 2.63794 0
M  V30 7357 H 710.094 -2.20439 4.75928 0
M  V30 7358 H 711.568 -3.75763 4.04359 0
M  V30 7359 H 712.045 -3.71169 2.34798 0
M  V30 7360 H 712.651 -2.46684 3.46449 0
M  V30 7361 N 710.966 -1.44241 -0.634997 0
M  V30 7362 C 711.916 -1.47247 -1.74076 0
M  V30 7363 C 712.9 -0.338708 -1.57295 0
M  V30 7364 O 714.092 -0.583751 -1.67097 0
M  V30 7365 C 711.221 -1.41579 -3.12746 0
M  V30 7366 C 710.307 -2.60055 -3.35011 0
M  V30 7367 N 710.698 -3.85321 -3.27661 0
M  V30 7368 C 708.996 -2.55168 -3.65794 0
M  V30 7369 C 709.697 -4.64241 -3.50508 0
M  V30 7370 N 708.673 -3.95254 -3.73196 0
M  V30 7371 H 712.475 -2.4195 -1.66845 0
M  V30 7372 H 709.989 -1.3915 -0.837326 0
M  V30 7373 H 711.986 -1.41816 -3.92038 0
M  V30 7374 H 710.646 -0.479108 -3.21146 0
M  V30 7375 H 711.657 -4.17345 -3.06665 0
M  V30 7376 H 708.334 -1.70276 -3.81198 0
M  V30 7377 H 709.724 -5.73267 -3.50449 0
M  V30 7378 N 712.444 0.87505 -1.31075 0
M  V30 7379 C 713.69 1.63009 -1.20647 0
M  V30 7380 C 714.023 1.9276 0.236045 0
M  V30 7381 O 713.298 1.55559 1.16754 0
M  V30 7382 C 713.581 2.96357 -2.0456 0
M  V30 7383 C 713.434 2.73516 -3.57084 0
M  V30 7384 C 714.753 3.974 -1.89107 0
M  V30 7385 H 711.872 0.591518 -0.439631 0
M  V30 7386 H 714.514 1.0119 -1.60812 0
M  V30 7387 H 712.664 3.49119 -1.70435 0
M  V30 7388 H 714.336 2.27465 -4.01319 0
M  V30 7389 H 712.579 2.0784 -3.80769 0
M  V30 7390 H 713.25 3.68377 -4.11099 0
M  V30 7391 H 715.726 3.5383 -2.18961 0
M  V30 7392 H 714.602 4.88596 -2.5013 0
M  V30 7393 H 714.863 4.33794 -0.85296 0
M  V30 7394 N 713.922 1.13953 1.08869 0
M  V30 7395 C 715.171 0.899431 1.80536 0
M  V30 7396 C 715.484 -0.575781 1.86933 0
M  V30 7397 O 716.69 -0.932988 2.54966 0
M  V30 7398 C 715.146 1.55963 3.24351 0
M  V30 7399 C 714.754 3.07077 3.26202 0
M  V30 7400 C 716.498 1.40046 4.00733 0
M  V30 7401 C 714.405 3.65955 4.64576 0
M  V30 7402 H 713.335 0.332849 0.676556 0
M  V30 7403 H 715.986 1.3679 1.22314 0
M  V30 7404 H 714.368 1.01883 3.82669 0
M  V30 7405 H 715.542 3.67785 2.77617 0
M  V30 7406 H 713.857 3.22576 2.63312 0
M  V30 7407 H 716.454 1.81441 5.02974 0
M  V30 7408 H 716.797 0.345993 4.1486 0
M  V30 7409 H 717.33 1.91137 3.48872 0
M  V30 7410 H 714.069 4.71234 4.55652 0
M  V30 7411 H 713.589 3.10027 5.13462 0
M  V30 7412 H 715.268 3.65968 5.33551 0
M  V30 7413 N 715.4 -1.26948 0.933913 0
M  V30 7414 C 716.646 -1.94716 0.587985 0
M  V30 7415 C 717.001 -1.71994 -0.862312 0
M  V30 7416 O 716.294 -1.04208 -1.60783 0
M  V30 7417 C 716.488 -3.46963 0.857406 0
M  V30 7418 C 716.317 -3.84489 2.33234 0
M  V30 7419 C 715.087 -4.07621 2.98618 0
M  V30 7420 C 717.285 -3.93602 3.31031 0
M  V30 7421 N 715.267 -4.31976 4.362 0
M  V30 7422 C 716.638 -4.22404 4.53845 0
M  V30 7423 C 718.693 -3.76201 3.26155 0
M  V30 7424 C 717.396 -4.35615 5.72391 0
M  V30 7425 C 719.422 -3.90641 4.4402 0
M  V30 7426 C 718.784 -4.19835 5.65613 0
M  V30 7427 H 714.883 -0.735586 0.2654 0
M  V30 7428 H 717.467 -1.53181 1.20182 0
M  V30 7429 H 715.638 -3.87442 0.27268 0
M  V30 7430 H 717.37 -4.01921 0.47348 0
M  V30 7431 H 714.125 -4.02696 2.49264 0
M  V30 7432 H 714.549 -4.48199 5.07392 0
M  V30 7433 H 719.191 -3.52665 2.3321 0
M  V30 7434 H 716.909 -4.57975 6.65796 0
M  V30 7435 H 720.495 -3.78589 4.41771 0
M  V30 7436 H 719.375 -4.30765 6.55295 0
M  V30 7437 N 716.879 -0.700114 -1.41195 0
M  V30 7438 C 718.156 -0.160836 -1.94938 0
M  V30 7439 C 718.536 1.33014 -1.63922 0
M  V30 7440 O 717.884 2.07878 -0.948636 0
M  V30 7441 C 718.094 -0.456991 -3.45995 0
M  V30 7442 C 719.442 -0.387207 -4.22831 0
M  V30 7443 O 720.466 -0.392164 -3.54035 0
M  V30 7444 O 719.325 -0.351267 -5.4537 0
M  V30 7445 H 716.419 -0.0176304 -0.826812 0
M  V30 7446 H 718.965 -0.776586 -1.50888 0
M  V30 7447 H 717.737 -1.48884 -3.61869 0
M  V30 7448 H 717.36 0.189503 -3.97148 0
M  V30 7449 N 718.357 1.51182 -0.445186 0
M  V30 7450 C 719.603 2.02452 0.11882 0
M  V30 7451 C 719.936 1.32824 1.41673 0
M  V30 7452 O 719.211 0.445637 1.89326 0
M  V30 7453 C 719.494 3.5859 0.329475 0
M  V30 7454 C 719.347 4.38823 -0.987638 0
M  V30 7455 C 720.666 4.26241 1.09575 0
M  V30 7456 H 717.785 0.735819 0.0417092 0
M  V30 7457 H 720.427 1.80747 -0.585718 0
M  V30 7458 H 718.577 3.77214 0.9296 0
M  V30 7459 H 720.249 4.3183 -1.62235 0
M  V30 7460 H 718.492 4.03594 -1.59041 0
M  V30 7461 H 719.163 5.46257 -0.794192 0
M  V30 7462 H 721.639 4.11934 0.587328 0
M  V30 7463 H 720.515 5.35354 1.21191 0
M  V30 7464 H 720.776 3.87635 2.12584 0
M  V30 7465 N 719.835 0.176821 1.56605 0
M  V30 7466 C 721.083 -0.465793 1.96659 0
M  V30 7467 C 721.404 -1.63406 1.06412 0
M  V30 7468 O 720.674 -1.95457 0.131603 0
M  V30 7469 H 719.254 -0.175072 0.726195 0
M  V30 7470 H 721.916 0.25929 1.93168 0
M  V30 7471 H 721.012 -0.822138 3.01077 0
M  V30 7472 N 721.313 -1.57302 -0.09688 0
M  V30 7473 C 722.243 -2.0497 -1.11846 0
M  V30 7474 C 723.224 -0.938278 -1.41882 0
M  V30 7475 O 724.409 -1.20943 -1.51942 0
M  V30 7476 C 721.539 -2.47264 -2.43881 0
M  V30 7477 C 720.493 -3.62053 -2.28257 0
M  V30 7478 C 719.819 -3.90318 -3.65453 0
M  V30 7479 C 721.119 -4.93005 -1.72461 0
M  V30 7480 H 722.813 -2.90567 -0.721888 0
M  V30 7481 H 720.359 -1.39786 -0.345803 0
M  V30 7482 H 722.312 -2.7922 -3.15617 0
M  V30 7483 H 721.036 -1.58664 -2.8547 0
M  V30 7484 H 719.695 -3.30341 -1.58967 0
M  V30 7485 H 719.343 -2.98889 -4.04567 0
M  V30 7486 H 719.043 -4.67597 -3.55846 0
M  V30 7487 H 720.567 -4.24747 -4.3866 0
M  V30 7488 H 721.981 -5.23354 -2.34036 0
M  V30 7489 H 720.378 -5.74436 -1.73618 0
M  V30 7490 H 721.448 -4.80053 -0.683898 0
M  V30 7491 N 722.791 0.367657 -1.53252 0
M  V30 7492 C 723.723 1.47032 -1.75824 0
M  V30 7493 C 724.736 1.49736 -0.63898 0
M  V30 7494 O 725.925 1.53253 -0.915193 0
M  V30 7495 C 723.025 2.85805 -1.82122 0
M  V30 7496 C 722.198 3.06822 -3.11736 0
M  V30 7497 C 721.257 4.25698 -3.09302 0
M  V30 7498 O 720.283 4.20972 -3.83107 0
M  V30 7499 N 721.485 5.33002 -2.29977 0
M  V30 7500 H 724.25 1.28048 -2.70968 0
M  V30 7501 H 721.811 0.557363 -1.52004 0
M  V30 7502 H 723.803 3.63465 -1.77975 0
M  V30 7503 H 722.373 2.98046 -0.942716 0
M  V30 7504 H 721.593 2.1684 -3.29202 0
M  V30 7505 H 722.881 3.17731 -3.97397 0
M  V30 7506 H 722.279 5.39703 -1.69521 0
M  V30 7507 H 720.836 6.09247 -2.3165 0
M  V30 7508 N 724.269 1.44576 0.627338 0
M  V30 7509 C 725.494 1.51271 1.41887 0
M  V30 7510 C 725.919 0.139814 1.8758 0
M  V30 7511 O 725.277 -0.871746 1.58966 0
M  V30 7512 C 725.325 2.48529 2.61277 0
M  V30 7513 O 724.429 1.98944 3.61241 0
M  V30 7514 H 723.77 0.510668 0.424399 0
M  V30 7515 H 726.3 1.89746 0.765356 0
M  V30 7516 H 726.31 2.66689 3.08773 0
M  V30 7517 H 724.985 3.48249 2.27366 0
M  V30 7518 H 723.562 1.90568 3.20528 0
M  V30 7519 N 725.747 -0.868086 1.31537 0
M  V30 7520 C 726.975 -1.65402 1.24298 0
M  V30 7521 C 727.39 -1.87827 -0.191389 0
M  V30 7522 O 726.747 -1.43776 -1.12404 0
M  V30 7523 C 726.798 -3.02093 1.9855 0
M  V30 7524 O 726.519 -2.80668 3.36388 0
M  V30 7525 C 728.02 -3.96538 1.98173 0
M  V30 7526 H 725.24 -0.515598 0.429417 0
M  V30 7527 H 727.784 -1.0834 1.73444 0
M  V30 7528 H 725.939 -3.55838 1.53161 0
M  V30 7529 H 726.353 -3.67504 3.74221 0
M  V30 7530 H 727.827 -4.8976 2.54635 0
M  V30 7531 H 728.304 -4.28474 0.964697 0
M  V30 7532 H 728.91 -3.48729 2.4345 0
M  V30 7533 N 727.225 -1.14528 -1.08264 0
M  V30 7534 C 728.474 -0.908992 -1.80056 0
M  V30 7535 C 728.787 0.565859 -1.87236 0
M  V30 7536 O 729.993 0.919454 -2.55457 0
M  V30 7537 C 728.449 -1.57681 -3.23519 0
M  V30 7538 C 728.057 -3.08803 -3.24569 0
M  V30 7539 C 729.801 -1.4217 -3.99985 0
M  V30 7540 C 727.708 -3.68414 -4.62629 0
M  V30 7541 H 726.638 -0.336432 -0.674781 0
M  V30 7542 H 729.289 -1.37437 -1.21587 0
M  V30 7543 H 727.671 -1.03911 -3.82124 0
M  V30 7544 H 728.845 -3.69252 -2.75663 0
M  V30 7545 H 727.16 -3.23968 -2.61598 0
M  V30 7546 H 729.757 -1.84106 -5.02005 0
M  V30 7547 H 730.1 -0.367989 -4.1467 0
M  V30 7548 H 730.633 -1.92984 -3.47853 0
M  V30 7549 H 727.372 -4.73644 -4.53147 0
M  V30 7550 H 726.892 -3.12746 -5.11811 0
M  V30 7551 H 728.571 -3.68793 -5.31602 0
M  V30 7552 N 728.703 1.26451 -0.940633 0
M  V30 7553 C 729.928 1.98407 -0.60412 0
M  V30 7554 C 730.353 1.69584 0.81382 0
M  V30 7555 O 729.711 0.943553 1.54812 0
M  V30 7556 C 729.759 3.50387 -0.852136 0
M  V30 7557 O 728.863 4.1233 0.076013 0
M  V30 7558 H 728.204 0.622466 -0.231153 0
M  V30 7559 H 730.734 1.60932 -1.26342 0
M  V30 7560 H 730.744 4.00614 -0.772816 0
M  V30 7561 H 729.419 3.70696 -1.88566 0
M  V30 7562 H 727.996 3.7286 -0.0543187 0
M  V30 7563 N 730.181 0.707592 1.40822 0
M  V30 7564 C 731.114 -0.000859377 2.282 0
M  V30 7565 C 732.092 -0.7758 1.42899 0
M  V30 7566 O 733.276 -0.76411 1.72318 0
M  V30 7567 C 730.403 -1.00861 3.23334 0
M  V30 7568 C 729.449 -0.32543 4.25257 0
M  V30 7569 S 730.282 0.940908 5.27169 0
M  V30 7570 C 731.438 -0.0649459 6.25866 0
M  V30 7571 H 731.671 0.740207 2.87938 0
M  V30 7572 H 729.204 0.498311 1.46138 0
M  V30 7573 H 731.162 -1.58485 3.78672 0
M  V30 7574 H 729.823 -1.72233 2.62668 0
M  V30 7575 H 729.016 -1.08697 4.92139 0
M  V30 7576 H 728.618 0.178044 3.73576 0
M  V30 7577 H 730.91 -0.914377 6.71301 0
M  V30 7578 H 731.853 0.570276 7.058 0
M  V30 7579 H 732.261 -0.425098 5.62897 0
M  V30 7580 N 731.66 -1.50943 0.453197 0
M  V30 7581 C 732.906 -2.02512 -0.108082 0
M  V30 7582 C 733.239 -1.33574 -1.40967 0
M  V30 7583 O 732.514 -0.455671 -1.89087 0
M  V30 7584 C 732.797 -3.58759 -0.310453 0
M  V30 7585 C 732.65 -4.38293 1.0109 0
M  V30 7586 C 733.969 -4.26816 -1.07313 0
M  V30 7587 H 731.088 -0.73603 -0.0378064 0
M  V30 7588 H 733.73 -1.80433 0.595295 0
M  V30 7589 H 731.88 -3.77702 -0.909582 0
M  V30 7590 H 733.552 -4.30964 1.64523 0
M  V30 7591 H 731.795 -4.02745 1.61179 0
M  V30 7592 H 732.466 -5.45828 0.82315 0
M  V30 7593 H 734.942 -4.1224 -0.565473 0
M  V30 7594 H 733.818 -5.35989 -1.1835 0
M  V30 7595 H 734.079 -3.88757 -2.10525 0
M  V30 7596 N 733.138 -0.185124 -1.56509 0
M  V30 7597 C 734.384 0.456934 -1.97585 0
M  V30 7598 C 734.717 1.61957 -1.07161 0
M  V30 7599 O 733.992 1.9412 -0.121546 0
M  V30 7600 C 734.275 0.926666 -3.47973 0
M  V30 7601 C 734.128 -0.237097 -4.49175 0
M  V30 7602 C 735.447 1.79561 -4.01803 0
M  V30 7603 H 732.566 0.164619 -0.71838 0
M  V30 7604 H 735.208 -0.274039 -1.88013 0
M  V30 7605 H 733.358 1.54954 -3.56261 0
M  V30 7606 H 735.03 -0.87454 -4.52934 0
M  V30 7607 H 733.273 -0.890446 -4.24563 0
M  V30 7608 H 733.944 0.133924 -5.51838 0
M  V30 7609 H 736.42 1.27039 -3.96232 0
M  V30 7610 H 735.296 2.09327 -5.07418 0
M  V30 7611 H 735.557 2.74629 -3.46455 0
M  V30 7612 N 734.616 1.57351 0.0885366 0
M  V30 7613 C 736.027 1.75303 0.642308 0
M  V30 7614 C 736.378 0.808238 1.78779 0
M  V30 7615 O 735.503 -0.01171 2.16397 0
M  V30 7616 C 736.098 3.17885 1.17194 0
M  V30 7617 C 734.657 3.37239 1.67172 0
M  V30 7618 C 733.804 2.7108 0.584045 0
M  V30 7619 H 736.755 1.58103 -0.137567 0
M  V30 7620 H 736.776 3.2112 2.04114 0
M  V30 7621 H 736.288 3.86625 0.338024 0
M  V30 7622 H 734.389 2.73588 2.52943 0
M  V30 7623 H 734.502 4.45594 1.76019 0
M  V30 7624 H 732.866 2.33161 1.02508 0
M  V30 7625 H 733.649 3.42464 -0.239403 0
M  V30 7626 N 736.094 -0.359525 1.53444 0
M  V30 7627 C 737.34 -1.09958 1.71116 0
M  V30 7628 C 737.695 -1.8681 0.460414 0
M  V30 7629 O 736.988 -1.83635 -0.5467 0
M  V30 7630 C 737.182 -2.08287 2.90433 0
M  V30 7631 C 737.011 -1.41098 4.26991 0
M  V30 7632 C 735.781 -1.16255 4.91745 0
M  V30 7633 C 737.979 -0.845517 5.07302 0
M  V30 7634 N 735.961 -0.454798 6.12213 0
M  V30 7635 C 737.332 -0.267455 6.19423 0
M  V30 7636 C 739.387 -0.744797 4.92298 0
M  V30 7637 C 738.09 0.401511 7.18179 0
M  V30 7638 C 740.116 -0.0896013 5.91332 0
M  V30 7639 C 739.478 0.47756 7.02779 0
M  V30 7640 H 735.577 -0.387305 0.679352 0
M  V30 7641 H 738.161 -0.38519 1.90852 0
M  V30 7642 H 736.332 -2.77034 2.72226 0
M  V30 7643 H 738.064 -2.75015 2.96899 0
M  V30 7644 H 734.819 -1.44544 4.51003 0
M  V30 7645 H 735.243 -0.116108 6.769 0
M  V30 7646 H 739.885 -1.16905 4.06317 0
M  V30 7647 H 737.603 0.837694 8.03746 0
M  V30 7648 H 741.189 -0.0125162 5.81799 0
M  V30 7649 H 740.069 0.976522 7.78096 0
M  V30 7650 N 737.572 -1.44907 -0.619662 0
M  V30 7651 C 738.821 -1.47569 -1.37501 0
M  V30 7652 C 739.134 -0.116707 -1.95252 0
M  V30 7653 O 740.34 -0.020909 -2.71492 0
M  V30 7654 C 738.796 -2.59851 -2.49009 0
M  V30 7655 C 738.404 -4.02008 -1.97722 0
M  V30 7656 C 740.148 -2.71746 -3.2612 0
M  V30 7657 C 738.055 -5.05693 -3.0664 0
M  V30 7658 H 736.985 -0.549068 -0.51676 0
M  V30 7659 H 739.636 -1.71009 -0.665437 0
M  V30 7660 H 738.018 -2.29671 -3.22594 0
M  V30 7661 H 739.192 -4.41809 -1.30925 0
M  V30 7662 H 737.507 -3.94456 -1.33392 0
M  V30 7663 H 740.104 -3.46382 -4.07337 0
M  V30 7664 H 740.447 -1.77959 -3.76346 0
M  V30 7665 H 740.98 -3.01392 -2.5963 0
M  V30 7666 H 737.719 -6.01148 -2.61345 0
M  V30 7667 H 737.239 -4.70473 -3.72042 0
M  V30 7668 H 738.918 -5.29906 -3.71226 0
M  V30 7669 N 739.05 0.861098 -1.31996 0
M  V30 7670 C 740.275 1.65264 -1.2531 0
M  V30 7671 C 740.7 1.87265 0.177007 0
M  V30 7672 O 740.058 1.4208 1.12619 0
M  V30 7673 C 740.106 2.99284 -2.0115 0
M  V30 7674 O 739.21 3.89508 -1.3549 0
M  V30 7675 H 738.551 0.50409 -0.432192 0
M  V30 7676 H 741.081 1.07297 -1.74208 0
M  V30 7677 H 741.091 3.49154 -2.11081 0
M  V30 7678 H 739.766 2.82591 -3.05148 0
M  V30 7679 H 738.343 3.47966 -1.34066 0
M  V30 7680 N 740.528 1.15101 1.07655 0
M  V30 7681 C 741.491 0.847625 2.12951 0
M  V30 7682 C 742.491 -0.151227 1.60087 0
M  V30 7683 O 743.681 0.0780399 1.74025 0
M  V30 7684 C 740.813 0.265 3.39868 0
M  V30 7685 H 742.006 1.7809 2.41296 0
M  V30 7686 H 739.559 0.958072 1.23494 0
M  V30 7687 H 740.294 -0.676625 3.17163 0
M  V30 7688 H 740.079 0.984554 3.79538 0
M  V30 7689 H 741.569 0.0702121 4.17541 0
M  V30 7690 N 742.006 -1.2595 0.947325 0
M  V30 7691 C 743.231 -1.98083 0.614633 0
M  V30 7692 C 743.656 -1.70013 -0.804815 0
M  V30 7693 O 743.014 -0.95175 -1.54309 0
M  V30 7694 C 743.062 -3.4993 0.870706 0
M  V30 7695 O 742.166 -4.12364 -0.0541451 0
M  V30 7696 H 741.507 -0.621232 0.234451 0
M  V30 7697 H 744.037 -1.60259 1.27193 0
M  V30 7698 H 744.047 -4.00198 0.794051 0
M  V30 7699 H 742.722 -3.69691 1.90529 0
M  V30 7700 H 741.299 -3.72826 0.0740917 0
M  V30 7701 N 743.484 -0.715051 -1.40445 0
M  V30 7702 C 744.434 -0.038591 -2.27967 0
M  V30 7703 C 745.418 0.733099 -1.43229 0
M  V30 7704 O 746.61 0.605388 -1.66325 0
M  V30 7705 C 743.739 0.882801 -3.31755 0
M  V30 7706 C 742.825 0.106325 -4.23967 0
M  V30 7707 N 743.216 -0.910143 -4.97544 0
M  V30 7708 C 741.514 0.33896 -4.4471 0
M  V30 7709 C 742.215 -1.37665 -5.65175 0
M  V30 7710 N 741.191 -0.698905 -5.39088 0
M  V30 7711 H 744.993 -0.81765 -2.82297 0
M  V30 7712 H 742.507 -0.547591 -1.5289 0
M  V30 7713 H 744.504 1.38273 -3.93302 0
M  V30 7714 H 743.164 1.66124 -2.78985 0
M  V30 7715 H 744.175 -1.29097 -5.01552 0
M  V30 7716 H 740.852 1.09377 -4.02918 0
M  V30 7717 H 742.242 -2.22122 -6.34123 0
M  V30 7718 N 744.962 1.50701 -0.461195 0
M  V30 7719 C 746.192 2.06381 0.0950376 0
M  V30 7720 C 746.6 1.32627 1.34933 0
M  V30 7721 O 745.943 0.386137 1.79596 0
M  V30 7722 C 746.005 3.56558 0.458965 0
M  V30 7723 C 745.669 4.51732 -0.691891 0
M  V30 7724 C 746.666 4.95594 -1.57105 0
M  V30 7725 C 744.351 4.94542 -0.879407 0
M  V30 7726 C 746.345 5.80963 -2.62223 0
M  V30 7727 C 744.032 5.79695 -1.93382 0
M  V30 7728 C 745.03 6.22806 -2.80359 0
M  V30 7729 O 744.718 7.06265 -3.83986 0
M  V30 7730 H 744.45 0.676 0.000687488 0
M  V30 7731 H 747.004 1.94974 -0.646087 0
M  V30 7732 H 745.234 3.65832 1.25314 0
M  V30 7733 H 746.923 3.94647 0.949124 0
M  V30 7734 H 747.689 4.63197 -1.43783 0
M  V30 7735 H 743.568 4.60513 -0.211907 0
M  V30 7736 H 747.112 6.14533 -3.30143 0
M  V30 7737 H 743.009 6.11506 -2.06715 0
M  V30 7738 H 743.777 7.24494 -3.80855 0
M  V30 7739 N 746.441 0.193421 1.56409 0
M  V30 7740 C 747.857 -0.162447 1.58771 0
M  V30 7741 C 748.057 -1.6116 1.20954 0
M  V30 7742 O 747.113 -2.3469 0.931497 0
M  V30 7743 C 748.426 0.138391 3.00381 0
M  V30 7744 C 749.974 0.0783649 3.12902 0
M  V30 7745 C 750.449 0.352491 4.56642 0
M  V30 7746 N 751.94 0.30105 4.62221 0
M  V30 7747 C 752.675 0.487028 5.71328 0
M  V30 7748 N 752.171 0.733265 6.88909 0
M  V30 7749 N 753.964 0.4214 5.60518 0
M  V30 7750 H 746.115 1.13909 1.79272 0
M  V30 7751 H 748.378 0.454528 0.83193 0
M  V30 7752 H 748.084 1.14312 3.32604 0
M  V30 7753 H 747.958 -0.559804 3.73023 0
M  V30 7754 H 750.345 -0.916963 2.80492 0
M  V30 7755 H 750.426 0.809611 2.4265 0
M  V30 7756 H 750.07 1.34513 4.89764 0
M  V30 7757 H 750 -0.399624 5.25081 0
M  V30 7758 H 752.491 0.117279 3.77718 0
M  V30 7759 H 752.804 0.86403 7.67955 0
M  V30 7760 H 751.149 0.770138 6.9072 0
M  V30 7761 H 754.34 0.229461 4.67537 0
M  V30 7762 H 754.513 0.569758 6.4549 0
M  V30 7763 N 747.919 -1.57396 -0.0801906 0
M  V30 7764 C 748.867 -2.04136 -1.11495 0
M  V30 7765 C 749.861 -0.945137 -1.40583 0
M  V30 7766 O 751.067 -1.13028 -1.40088 0
M  V30 7767 H 747.442 -0.65076 -0.37685 0
M  V30 7768 H 749.413 -2.90205 -0.694526 0
M  V30 7769 C 748.162 -2.49399 -2.42272 0
M  V30 7770 H 747.485 -3.33339 -2.20737 0
M  V30 7771 H 748.925 -2.85864 -3.13142 0
M  V30 7772 C 747.384 -1.37341 -3.07635 0
M  V30 7773 O 747.914 -0.710829 -3.95361 0
M  V30 7774 N 746.12 -1.12064 -2.68123 0
M  V30 7775 H 745.667 -1.66126 -1.96875 0
M  V30 7776 H 745.625 -0.372916 -3.12181 0
M  V30 7777 N 749.397 0.351382 -1.53633 0
M  V30 7778 C 750.625 1.11275 -1.74429 0
M  V30 7779 C 751.04 1.82602 -0.479798 0
M  V30 7780 O 750.397 1.74074 0.548125 0
M  V30 7781 C 750.448 2.13223 -2.91921 0
M  V30 7782 O 750.169 1.44798 -4.13479 0
M  V30 7783 C 751.67 3.01797 -3.24706 0
M  V30 7784 H 748.89 0.332153 -0.583023 0
M  V30 7785 H 751.434 0.405974 -2.0043 0
M  V30 7786 H 749.589 2.79477 -2.68274 0
M  V30 7787 H 750.003 2.12839 -4.79374 0
M  V30 7788 H 751.477 3.69282 -4.10286 0
M  V30 7789 H 751.954 3.67387 -2.40673 0
M  V30 7790 H 752.56 2.41141 -3.5033 0
M  V30 7791 N 750.875 1.45233 0.611969 0
M  V30 7792 C 752.1 1.52767 1.40274 0
M  V30 7793 C 752.525 0.159701 1.87421 0
M  V30 7794 O 751.883 -0.854837 1.59882 0
M  V30 7795 C 751.931 2.51286 2.58626 0
M  V30 7796 O 751.035 2.02764 3.59111 0
M  V30 7797 H 750.376 0.515141 0.418958 0
M  V30 7798 H 752.906 1.90547 0.745188 0
M  V30 7799 H 752.916 2.69949 3.05927 0
M  V30 7800 H 751.591 3.50641 2.23659 0
M  V30 7801 H 750.168 1.93957 3.18489 0
M  V30 7802 N 752.353 -0.854086 1.3245 0
M  V30 7803 C 753.764 -1.42427 1.20712 0
M  V30 7804 C 754.115 -1.95371 -0.18013 0
M  V30 7805 O 753.24 -1.87587 -1.07889 0
M  V30 7806 C 753.835 -2.58897 2.18536 0
M  V30 7807 C 752.394 -3.11913 2.10683 0
M  V30 7808 C 751.541 -1.84661 2.06871 0
M  V30 7809 H 754.492 -0.661192 1.4427 0
M  V30 7810 H 754.513 -3.36074 1.78422 0
M  V30 7811 H 754.025 -2.20333 3.19492 0
M  V30 7812 H 752.126 -3.55059 1.12977 0
M  V30 7813 H 752.239 -3.73119 3.00532 0
M  V30 7814 H 750.603 -2.04285 1.52118 0
M  V30 7815 H 751.386 -1.48314 3.09609 0
M  V30 7816 N 753.831 -1.1567 -1.07043 0
M  V30 7817 C 755.079 -0.931673 -1.79344 0
M  V30 7818 C 755.4 0.542421 -1.87304 0
M  V30 7819 O 754.67 1.39418 -1.37621 0
M  V30 7820 H 753.25 -0.34171 -0.664262 0
M  V30 7821 H 755.912 -1.45795 -1.29344 0
M  V30 7822 H 755.008 -1.34379 -2.81689 0
M  V30 7823 N 755.309 1.25446 -0.953992 0
M  V30 7824 C 756.725 1.4539 -0.658316 0
M  V30 7825 C 756.925 1.85607 0.784356 0
M  V30 7826 O 755.981 1.98568 1.55972 0
M  V30 7827 C 757.294 2.52643 -1.6307 0
M  V30 7828 C 758.842 2.66484 -1.64181 0
M  V30 7829 C 759.317 3.76921 -2.60182 0
M  V30 7830 N 760.808 3.84331 -2.58542 0
M  V30 7831 C 761.543 4.69271 -3.29503 0
M  V30 7832 N 761.039 5.58503 -4.09934 0
M  V30 7833 N 762.832 4.6323 -3.18393 0
M  V30 7834 H 754.983 0.976337 -1.8863 0
M  V30 7835 H 757.246 0.490343 -0.811337 0
M  V30 7836 H 756.952 2.29949 -2.66114 0
M  V30 7837 H 756.826 3.50547 -1.39271 0
M  V30 7838 H 759.213 2.88545 -0.618552 0
M  V30 7839 H 759.294 1.68982 -1.92038 0
M  V30 7840 H 758.938 3.55612 -3.62633 0
M  V30 7841 H 758.868 4.73906 -2.29609 0
M  V30 7842 H 761.359 3.20544 -2.0015 0
M  V30 7843 H 761.672 6.20241 -4.61 0
M  V30 7844 H 760.017 5.58214 -4.14032 0
M  V30 7845 H 763.208 3.92527 -2.5503 0
M  V30 7846 H 763.381 5.29204 -3.73961 0
M  V30 7847 N 756.787 0.722489 1.40064 0
M  V30 7848 C 758.012 0.273446 2.05589 0
M  V30 7849 C 758.437 -1.07875 1.54093 0
M  V30 7850 O 757.795 -1.68095 0.679252 0
M  V30 7851 C 757.843 0.271023 3.5958 0
M  V30 7852 O 756.947 -0.745499 4.05606 0
M  V30 7853 H 756.288 0.126856 0.65177 0
M  V30 7854 H 758.818 0.984906 1.79334 0
M  V30 7855 H 758.828 0.111084 4.07849 0
M  V30 7856 H 757.503 1.25776 3.96425 0
M  V30 7857 H 756.08 -0.552719 3.68781 0
M  V30 7858 N 758.265 -1.50454 0.469181 0
M  V30 7859 C 759.493 -2.06729 -0.0842134 0
M  V30 7860 C 759.908 -1.33326 -1.33677 0
M  V30 7861 O 759.265 -0.401977 -1.78018 0
M  V30 7862 C 759.316 -3.59557 -0.374253 0
M  V30 7863 O 759.037 -4.30192 0.828622 0
M  V30 7864 C 760.538 -4.32449 -0.974824 0
M  V30 7865 H 757.758 -0.670971 0.006231 0
M  V30 7866 H 760.302 -1.93645 0.657415 0
M  V30 7867 H 758.457 -3.7245 -1.06581 0
M  V30 7868 H 758.871 -5.21371 0.572066 0
M  V30 7869 H 760.345 -5.40361 -1.12755 0
M  V30 7870 H 760.822 -3.92819 -1.96442 0
M  V30 7871 H 761.428 -4.24082 -0.321703 0
M  V30 7872 N 759.743 -0.201713 -1.56304 0
M  V30 7873 C 760.968 0.443815 -2.02596 0
M  V30 7874 C 761.393 1.53945 -1.08086 0
M  V30 7875 O 760.751 1.81182 -0.0655056 0
M  V30 7876 C 760.799 0.971066 -3.47279 0
M  V30 7877 O 759.903 2.0836 -3.55893 0
M  V30 7878 H 759.244 0.10294 -0.655972 0
M  V30 7879 H 761.774 -0.314533 -2.02168 0
M  V30 7880 H 761.784 1.28598 -3.87204 0
M  V30 7881 H 760.459 0.169048 -4.15556 0
M  V30 7882 H 759.036 1.77683 -3.27846 0
M  V30 7883 N 761.222 1.57436 0.0718424 0
M  V30 7884 C 762.47 1.86878 0.769484 0
M  V30 7885 C 762.791 0.7937 1.78116 0
M  V30 7886 O 762.061 -0.177642 1.95093 0
M  V30 7887 H 760.641 0.689593 0.287177 0
M  V30 7888 H 763.303 1.94841 0.0479427 0
M  V30 7889 H 762.399 2.84387 1.28572 0
M  V30 7890 N 762.7 -0.34323 1.53817 0
M  V30 7891 C 763.93 -1.10188 1.74763 0
M  V30 7892 C 764.338 -1.82829 0.486856 0
M  V30 7893 O 763.681 -1.75236 -0.551198 0
M  V30 7894 C 763.743 -2.16 2.87375 0
M  V30 7895 C 763.407 -1.62931 4.26969 0
M  V30 7896 C 764.404 -1.08147 5.08528 0
M  V30 7897 C 762.089 -1.67769 4.73454 0
M  V30 7898 C 764.083 -0.589039 6.34672 0
M  V30 7899 C 761.77 -1.18138 5.99572 0
M  V30 7900 C 762.768 -0.637979 6.80014 0
M  V30 7901 O 762.456 -0.149073 8.03762 0
M  V30 7902 H 762.188 -0.33445 0.587469 0
M  V30 7903 H 764.742 -0.401109 2.01445 0
M  V30 7904 H 762.972 -2.89637 2.56218 0
M  V30 7905 H 764.661 -2.77432 2.96287 0
M  V30 7906 H 765.427 -1.03732 4.73777 0
M  V30 7907 H 761.306 -2.09004 4.10899 0
M  V30 7908 H 764.85 -0.164233 6.97407 0
M  V30 7909 H 760.747 -1.22254 6.33817 0
M  V30 7910 H 761.515 -0.266332 8.18067 0
M  V30 7911 N 764.178 -1.45556 -0.604258 0
M  V30 7912 C 765.427 -1.49019 -1.35928 0
M  V30 7913 C 765.74 -0.137409 -1.95117 0
M  V30 7914 O 766.946 -0.0497032 -2.71455 0
M  V30 7915 C 765.402 -2.62477 -2.46239 0
M  V30 7916 C 765.01 -4.04082 -1.93447 0
M  V30 7917 C 766.754 -2.7519 -3.23219 0
M  V30 7918 C 764.661 -5.08917 -3.0126 0
M  V30 7919 H 763.591 -0.554518 -0.510907 0
M  V30 7920 H 766.242 -1.71705 -0.647262 0
M  V30 7921 H 764.624 -2.3308 -3.2014 0
M  V30 7922 H 765.798 -4.43173 -1.26232 0
M  V30 7923 H 764.113 -3.95849 -1.29201 0
M  V30 7924 H 766.71 -3.50683 -4.0364 0
M  V30 7925 H 767.053 -1.81941 -3.74437 0
M  V30 7926 H 767.586 -3.04129 -2.56418 0
M  V30 7927 H 764.325 -6.03886 -2.54955 0
M  V30 7928 H 763.845 -4.74393 -3.67031 0
M  V30 7929 H 765.524 -5.33814 -3.65584 0
M  V30 7930 N 765.656 0.84705 -1.32902 0
M  V30 7931 C 766.884 1.63403 -1.26913 0
M  V30 7932 C 767.299 1.88108 0.161483 0
M  V30 7933 O 766.656 1.45546 1.10103 0
M  V30 7934 C 766.707 2.98896 -2.03331 0
M  V30 7935 O 766.428 2.75281 -3.40811 0
M  V30 7936 C 767.929 3.93335 -2.04457 0
M  V30 7937 H 765.149 0.508701 -0.437566 0
M  V30 7938 H 767.693 1.05567 -1.75145 0
M  V30 7939 H 765.848 3.53356 -1.58802 0
M  V30 7940 H 766.262 3.61504 -3.8002 0
M  V30 7941 H 767.736 4.85647 -2.62394 0
M  V30 7942 H 768.213 4.26885 -1.03274 0
M  V30 7943 H 768.819 3.44812 -2.48967 0
M  V30 7944 N 767.134 1.16236 1.06428 0
M  V30 7945 C 768.374 0.95369 1.80787 0
M  V30 7946 C 768.738 -0.509495 1.85117 0
M  V30 7947 O 769.939 -0.836822 2.55442 0
M  V30 7948 C 768.21 1.56235 3.21443 0
M  V30 7949 S 769.769 1.49812 4.12434 0
M  V30 7950 H 766.587 0.343004 0.622792 0
M  V30 7951 H 769.189 1.47957 1.27785 0
M  V30 7952 H 767.893 2.62 3.15886 0
M  V30 7953 H 767.424 1.03574 3.79521 0
M  V30 7954 H 769.439 0.49745 4.937 0
M  V30 7955 N 768.612 -1.24939 0.960631 0
M  V30 7956 C 769.858 -1.93425 0.629155 0
M  V30 7957 C 770.213 -1.73784 -0.825635 0
M  V30 7958 O 769.506 -1.07595 -1.58536 0
M  V30 7959 C 769.7 -3.45066 0.930809 0
M  V30 7960 C 769.529 -3.79455 2.41337 0
M  V30 7961 C 768.299 -4.01195 3.07197 0
M  V30 7962 C 770.497 -3.86492 3.39306 0
M  V30 7963 N 768.479 -4.22626 4.45265 0
M  V30 7964 C 769.85 -4.12682 4.62702 0
M  V30 7965 C 771.905 -3.69198 3.34061 0
M  V30 7966 C 770.608 -4.23376 5.81502 0
M  V30 7967 C 772.634 -3.81135 4.52206 0
M  V30 7968 C 771.996 -4.07743 5.74391 0
M  V30 7969 H 768.095 -0.729791 0.280943 0
M  V30 7970 H 770.679 -1.50597 1.23404 0
M  V30 7971 H 768.85 -3.86776 0.354801 0
M  V30 7972 H 770.582 -4.00826 0.558627 0
M  V30 7973 H 767.337 -3.97319 2.5775 0
M  V30 7974 H 767.761 -4.37335 5.16785 0
M  V30 7975 H 772.403 -3.47639 2.40638 0
M  V30 7976 H 770.121 -4.4375 6.75361 0
M  V30 7977 H 773.707 -3.69133 4.49702 0
M  V30 7978 H 772.587 -4.16768 6.64284 0
M  V30 7979 N 770.09 -0.729906 -1.39679 0
M  V30 7980 C 771.32 -0.285295 -2.04621 0
M  V30 7981 C 771.728 1.08304 -1.55135 0
M  V30 7982 O 771.071 1.6946 -0.709146 0
M  V30 7983 C 771.133 -0.203129 -3.58926 0
M  V30 7984 C 770.797 -1.50909 -4.31365 0
M  V30 7985 C 771.794 -2.45381 -4.58349 0
M  V30 7986 C 769.479 -1.77198 -4.70007 0
M  V30 7987 C 771.473 -3.64379 -5.22979 0
M  V30 7988 C 769.16 -2.96474 -5.34365 0
M  V30 7989 C 770.158 -3.89886 -5.60783 0
M  V30 7990 O 769.846 -5.07069 -6.23808 0
M  V30 7991 H 769.578 -0.123373 -0.664647 0
M  V30 7992 H 772.132 -0.992901 -1.79807 0
M  V30 7993 H 770.362 0.560538 -3.82616 0
M  V30 7994 H 772.051 0.208811 -4.05363 0
M  V30 7995 H 772.817 -2.2634 -4.28947 0
M  V30 7996 H 768.696 -1.05337 -4.48804 0
M  V30 7997 H 772.24 -4.37307 -5.43515 0
M  V30 7998 H 768.137 -3.15419 -5.63188 0
M  V30 7999 H 768.905 -5.07335 -6.42303 0
M  V30 8000 N 771.568 1.50203 -0.477153 0
M  V30 8001 C 772.5 2.26508 0.350239 0
M  V30 8002 C 773.513 1.32081 0.95176 0
M  V30 8003 O 774.702 1.57546 0.839139 0
M  V30 8004 C 771.802 3.0361 1.50579 0
M  V30 8005 C 770.975 4.25438 1.01595 0
M  V30 8006 C 770.034 4.84783 2.04626 0
M  V30 8007 O 769.06 5.45528 1.62442 0
M  V30 8008 N 770.262 4.72318 3.37485 0
M  V30 8009 H 773.027 2.98155 -0.30394 0
M  V30 8010 H 770.588 1.58938 -0.308289 0
M  V30 8011 H 772.58 3.4019 2.1921 0
M  V30 8012 H 771.15 2.34724 2.06455 0
M  V30 8013 H 770.37 3.93894 0.155316 0
M  V30 8014 H 771.658 5.04413 0.666694 0
M  V30 8015 H 771.056 4.24022 3.74462 0
M  V30 8016 H 769.613 5.13149 4.01897 0
M  V30 8017 N 773.046 0.209999 1.56195 0
M  V30 8018 C 774.274 -0.429996 2.02382 0
M  V30 8019 C 774.689 -1.54159 1.08998 0
M  V30 8020 O 774.046 -1.82239 0.0974856 0
M  V30 8021 C 774.097 -0.972433 3.48175 0
M  V30 8022 O 773.818 0.0948231 4.37997 0
M  V30 8023 C 775.319 -1.68683 4.09952 0
M  V30 8024 H 772.539 -0.106475 0.662498 0
M  V30 8025 H 775.083 0.323072 2.01932 0
M  V30 8026 H 773.238 -1.67582 3.49278 0
M  V30 8027 H 773.652 -0.31113 5.23576 0
M  V30 8028 H 775.126 -2.01851 5.13771 0
M  V30 8029 H 775.603 -2.59587 3.54276 0
M  V30 8030 H 776.209 -1.02893 4.12666 0
M  V30 8031 N 774.524 -1.57472 -0.0634922 0
M  V30 8032 C 775.94 -1.54016 -0.418466 0
M  V30 8033 C 776.14 -0.931376 -1.78683 0
M  V30 8034 O 775.196 -0.537465 -2.46714 0
M  V30 8035 C 776.509 -2.98634 -0.351906 0
M  V30 8036 C 778.057 -3.10012 -0.431494 0
M  V30 8037 C 778.532 -4.56296 -0.394754 0
M  V30 8038 N 780.023 -4.60964 -0.454583 0
M  V30 8039 C 780.758 -5.71643 -0.448501 0
M  V30 8040 N 780.254 -6.91663 -0.396742 0
M  V30 8041 N 782.047 -5.5991 -0.495677 0
M  V30 8042 H 774.198 -1.95409 0.832408 0
M  V30 8043 H 776.461 -0.894769 0.313197 0
M  V30 8044 H 776.167 -3.46766 0.587048 0
M  V30 8045 H 776.041 -3.58955 -1.15893 0
M  V30 8046 H 778.428 -2.61848 -1.36087 0
M  V30 8047 H 778.509 -2.52585 0.404258 0
M  V30 8048 H 778.153 -5.05119 0.530811 0
M  V30 8049 H 778.083 -5.11594 -1.24815 0
M  V30 8050 H 780.574 -3.74598 -0.498496 0
M  V30 8051 H 780.887 -7.71783 -0.396256 0
M  V30 8052 H 779.232 -6.9405 -0.363304 0
M  V30 8053 H 782.423 -4.65046 -0.533864 0
M  V30 8054 H 782.596 -6.46164 -0.487469 0
M  V30 8055 N 776.003 0.335068 -1.53997 0
M  V30 8056 C 776.933 1.41727 -1.85568 0
M  V30 8057 C 777.914 1.54505 -0.7115 0
M  V30 8058 O 779.099 1.68573 -0.964191 0
M  V30 8059 C 776.229 2.7866 -2.07282 0
M  V30 8060 C 775.183 2.80682 -3.23112 0
M  V30 8061 C 774.509 4.20581 -3.30175 0
M  V30 8062 C 775.809 2.45458 -4.61029 0
M  V30 8063 H 777.503 1.15555 -2.76202 0
M  V30 8064 H 775.049 0.554445 -1.32898 0
M  V30 8065 H 777.002 3.54423 -2.27952 0
M  V30 8066 H 775.726 3.06286 -1.13387 0
M  V30 8067 H 774.385 2.07373 -3.02311 0
M  V30 8068 H 774.033 4.4533 -2.33859 0
M  V30 8069 H 773.733 4.22843 -4.08016 0
M  V30 8070 H 775.257 4.98174 -3.53066 0
M  V30 8071 H 776.671 3.10934 -4.81656 0
M  V30 8072 H 775.068 2.5899 -5.41336 0
M  V30 8073 H 776.138 1.40628 -4.6406 0
M  V30 8074 N 777.481 1.45874 0.596531 0
M  V30 8075 C 778.727 1.5069 1.35722 0
M  V30 8076 C 779.06 0.152506 1.936 0
M  V30 8077 O 778.335 -0.834411 1.75692 0
M  V30 8078 C 778.618 2.59474 2.4969 0
M  V30 8079 C 778.471 4.04396 1.96937 0
M  V30 8080 C 779.79 2.64451 3.51787 0
M  V30 8081 H 776.909 0.548611 0.492133 0
M  V30 8082 H 779.551 1.77741 0.671428 0
M  V30 8083 H 777.701 2.36539 3.08191 0
M  V30 8084 H 779.373 4.38576 1.43 0
M  V30 8085 H 777.616 4.14529 1.27859 0
M  V30 8086 H 778.287 4.76218 2.79143 0
M  V30 8087 H 780.763 2.85031 3.03145 0
M  V30 8088 H 779.639 3.42411 4.29006 0
M  V30 8089 H 779.9 1.69965 4.08123 0
M  V30 8090 N 778.959 -0.83999 1.33349 0
M  V30 8091 C 780.208 -1.59011 1.2409 0
M  V30 8092 C 780.521 -1.94655 -0.192029 0
M  V30 8093 O 781.727 -2.68438 -0.406617 0
M  V30 8094 C 780.183 -2.86801 2.17425 0
M  V30 8095 C 779.791 -2.58525 3.65881 0
M  V30 8096 C 781.535 -3.64823 2.17036 0
M  V30 8097 C 779.442 -3.82404 4.51133 0
M  V30 8098 H 778.372 -0.596731 0.460899 0
M  V30 8099 H 781.023 -0.926274 1.58406 0
M  V30 8100 H 779.405 -3.54719 1.7604 0
M  V30 8101 H 780.579 -1.98824 4.15699 0
M  V30 8102 H 778.894 -1.93808 3.68548 0
M  V30 8103 H 781.491 -4.56774 2.7796 0
M  V30 8104 H 781.834 -3.99663 1.16513 0
M  V30 8105 H 782.367 -3.03826 2.56777 0
M  V30 8106 H 779.106 -3.52696 5.52527 0
M  V30 8107 H 778.626 -4.41447 4.0606 0
M  V30 8108 H 780.305 -4.49995 4.6488 0
M  V30 8109 N 780.437 -1.16799 -1.0581 0
M  V30 8110 C 781.848 -0.95945 -1.60161 0
M  V30 8111 C 782.199 0.49543 -1.89842 0
M  V30 8112 O 781.324 1.36957 -1.67546 0
M  V30 8113 C 781.919 -1.73527 -2.90987 0
M  V30 8114 C 780.478 -1.57158 -3.42021 0
M  V30 8115 C 779.625 -1.74089 -2.15843 0
M  V30 8116 H 782.576 -1.31598 -0.886992 0
M  V30 8117 H 782.597 -1.21397 -3.60615 0
M  V30 8118 H 782.109 -2.79411 -2.69353 0
M  V30 8119 H 780.21 -0.537361 -3.68705 0
M  V30 8120 H 780.323 -2.35858 -4.17022 0
M  V30 8121 H 778.687 -1.16874 -2.26302 0
M  V30 8122 H 779.47 -2.81371 -1.96686 0
M  V30 8123 N 781.915 1.24427 -0.967243 0
M  V30 8124 C 783.326 1.74349 -0.667785 0
M  V30 8125 C 783.677 1.78403 0.816509 0
M  V30 8126 O 782.802 1.41315 1.63887 0
M  V30 8127 C 783.397 3.16628 -1.20548 0
M  V30 8128 C 781.956 3.64059 -0.955934 0
M  V30 8129 C 781.103 2.42715 -1.34106 0
M  V30 8130 H 784.054 1.10136 -1.14262 0
M  V30 8131 H 784.075 3.76183 -0.571547 0
M  V30 8132 H 783.587 3.13646 -2.28578 0
M  V30 8133 H 781.688 3.72441 0.108858 0
M  V30 8134 H 781.801 4.51549 -1.60126 0
M  V30 8135 H 780.165 2.43114 -0.759452 0
M  V30 8136 H 780.948 2.42414 -2.43085 0
M  V30 8137 N 783.393 0.737304 1.3929 0
M  V30 8138 C 784.325 0.0592106 2.29124 0
M  V30 8139 C 785.338 -0.701026 1.46934 0
M  V30 8140 O 786.527 -0.544808 1.69983 0
M  V30 8141 C 783.627 -0.940358 3.25592 0
M  V30 8142 C 782.8 -0.241163 4.36735 0
M  V30 8143 C 781.859 -1.14916 5.13498 0
M  V30 8144 O 780.885 -0.625783 5.6575 0
M  V30 8145 N 782.087 -2.47869 5.2492 0
M  V30 8146 H 784.852 0.830647 2.87959 0
M  V30 8147 H 782.413 0.586718 1.50895 0
M  V30 8148 H 784.405 -1.55046 3.73822 0
M  V30 8149 H 782.975 -1.61299 2.67771 0
M  V30 8150 H 782.195 0.549441 3.90352 0
M  V30 8151 H 783.483 0.243299 5.08218 0
M  V30 8152 H 782.881 -2.92864 4.83991 0
M  V30 8153 H 781.438 -3.03969 5.76581 0
M  V30 8154 N 784.871 -1.49948 0.485112 0
M  V30 8155 C 786.099 -2.06806 -0.0622824 0
M  V30 8156 C 786.514 -1.34736 -1.32256 0
M  V30 8157 O 785.871 -0.420836 -1.77582 0
M  V30 8158 C 785.922 -3.59934 -0.336096 0
M  V30 8159 O 785.643 -4.29289 0.874203 0
M  V30 8160 C 787.144 -4.33459 -0.928903 0
M  V30 8161 H 784.364 -0.670867 0.0133472 0
M  V30 8162 H 786.908 -1.92937 0.677917 0
M  V30 8163 H 785.063 -3.7356 -1.02625 0
M  V30 8164 H 785.477 -5.20735 0.627332 0
M  V30 8165 H 786.951 -5.41527 -1.07017 0
M  V30 8166 H 787.428 -3.94881 -1.92265 0
M  V30 8167 H 788.034 -4.24399 -0.276705 0
M  V30 8168 N 786.349 -0.21828 -1.56081 0
M  V30 8169 C 787.76 0.290166 -1.84431 0
M  V30 8170 C 788.111 1.59712 -1.13958 0
M  V30 8171 O 787.236 2.12516 -0.40815 0
M  V30 8172 C 787.831 0.53325 -3.34577 0
M  V30 8173 C 786.39 0.986011 -3.63256 0
M  V30 8174 C 785.537 0.0472798 -2.7726 0
M  V30 8175 H 788.488 -0.441548 -1.52434 0
M  V30 8176 H 788.509 1.37967 -3.54606 0
M  V30 8177 H 788.021 -0.418137 -3.85841 0
M  V30 8178 H 786.122 1.95087 -3.17446 0
M  V30 8179 H 786.235 0.862684 -4.71269 0
M  V30 8180 H 784.599 0.553471 -2.48614 0
M  V30 8181 H 785.382 -0.898966 -3.31321 0
M  V30 8182 N 787.827 1.57504 0.0551401 0
M  V30 8183 C 789.238 1.76626 0.604979 0
M  V30 8184 C 789.589 0.845978 1.77024 0
M  V30 8185 O 788.714 0.0341936 2.16373 0
M  V30 8186 C 789.309 3.203 1.10425 0
M  V30 8187 C 787.868 3.4071 1.59981 0
M  V30 8188 C 787.015 2.72258 0.526414 0
M  V30 8189 H 789.966 1.57775 -0.171072 0
M  V30 8190 H 789.987 3.25377 1.97256 0
M  V30 8191 H 789.499 3.87255 0.255939 0
M  V30 8192 H 787.6 2.78892 2.47083 0
M  V30 8193 H 787.713 4.49227 1.66528 0
M  V30 8194 H 786.077 2.35283 0.97539 0
M  V30 8195 H 786.86 3.41879 -0.311991 0
M  V30 8196 N 789.305 -0.326896 1.54172 0
M  V30 8197 C 790.533 -1.08486 1.76177 0
M  V30 8198 C 790.948 -1.81815 0.508788 0
M  V30 8199 O 790.305 -1.74924 -0.520362 0
M  V30 8200 C 790.356 -2.08552 2.95276 0
M  V30 8201 O 790.077 -1.38202 4.15731 0
M  V30 8202 C 791.578 -2.96593 3.29466 0
M  V30 8203 H 788.798 -0.322835 0.588233 0
M  V30 8204 H 791.342 -0.374036 2.0105 0
M  V30 8205 H 789.497 -2.75174 2.72687 0
M  V30 8206 H 789.911 -2.05186 4.827 0
M  V30 8207 H 791.385 -3.62708 4.16109 0
M  V30 8208 H 791.862 -3.63511 2.46487 0
M  V30 8209 H 792.468 -2.35537 3.54122 0
M  V30 8210 N 790.784 -1.46188 -0.588786 0
M  V30 8211 C 791.747 -1.55882 -1.68029 0
M  V30 8212 C 792.747 -0.436515 -1.54762 0
M  V30 8213 O 793.937 -0.700626 -1.59489 0
M  V30 8214 C 791.069 -1.47332 -3.07418 0
M  V30 8215 H 792.262 -2.5315 -1.60795 0
M  V30 8216 H 789.815 -1.33908 -0.806116 0
M  V30 8217 H 790.55 -0.513193 -3.20214 0
M  V30 8218 H 790.335 -2.28753 -3.18456 0
M  V30 8219 H 791.825 -1.57187 -3.86887 0
M  V30 8220 N 792.262 0.832906 -1.33792 0
M  V30 8221 C 793.678 1.1245 -1.13257 0
M  V30 8222 C 793.878 2.01369 0.0725832 0
M  V30 8223 O 792.934 2.41071 0.751082 0
M  V30 8224 C 794.247 1.78084 -2.42294 0
M  V30 8225 C 795.795 1.90624 -2.48257 0
M  V30 8226 C 796.27 2.59673 -3.77271 0
M  V30 8227 N 797.761 2.67181 -3.78376 0
M  V30 8228 C 798.496 3.21313 -4.74916 0
M  V30 8229 N 797.992 3.76086 -5.81835 0
M  V30 8230 N 799.785 3.19621 -4.62384 0
M  V30 8231 H 791.936 0.241244 -2.11026 0
M  V30 8232 H 794.199 0.169557 -0.932713 0
M  V30 8233 H 793.905 1.20209 -3.30519 0
M  V30 8234 H 793.779 2.78049 -2.5489 0
M  V30 8235 H 796.166 2.4765 -1.60478 0
M  V30 8236 H 796.247 0.89591 -2.39598 0
M  V30 8237 H 795.891 2.03304 -4.65435 0
M  V30 8238 H 795.821 3.61189 -3.8321 0
M  V30 8239 H 798.312 2.28346 -3.01108 0
M  V30 8240 H 798.625 4.15612 -6.51526 0
M  V30 8241 H 796.97 3.74357 -5.85561 0
M  V30 8242 H 800.161 2.76091 -3.7801 0
M  V30 8243 H 800.334 3.61504 -5.37791 0
M  V30 8244 N 793.74 1.17359 1.05189 0
M  V30 8245 C 794.67 0.91365 2.14883 0
M  V30 8246 C 795.651 -0.144365 1.69486 0
M  V30 8247 O 796.836 0.00587861 1.94199 0
M  V30 8248 C 793.966 0.426196 3.44675 0
M  V30 8249 C 792.92 1.4234 4.03638 0
M  V30 8250 C 792.246 0.793902 5.28773 0
M  V30 8251 C 793.546 2.7966 4.41121 0
M  V30 8252 H 795.24 1.831 2.36885 0
M  V30 8253 H 792.786 0.881781 1.13845 0
M  V30 8254 H 794.739 0.231767 4.20762 0
M  V30 8255 H 793.463 -0.526693 3.22325 0
M  V30 8256 H 792.122 1.60457 3.2962 0
M  V30 8257 H 791.77 -0.165824 5.02727 0
M  V30 8258 H 791.47 1.45959 5.69183 0
M  V30 8259 H 792.994 0.609747 6.07548 0
M  V30 8260 H 794.408 2.6526 5.08242 0
M  V30 8261 H 792.805 3.42807 4.92548 0
M  V30 8262 H 793.875 3.34068 3.51464 0
M  V30 8263 N 795.218 -1.23913 0.973828 0
M  V30 8264 C 796.148 -2.27453 0.527969 0
M  V30 8265 C 797.129 -1.6443 -0.435513 0
M  V30 8266 O 798.314 -1.9137 -0.330306 0
M  V30 8267 C 795.444 -3.4685 -0.176757 0
M  V30 8268 C 794.398 -4.22181 0.703352 0
M  V30 8269 C 793.724 -5.34534 -0.133215 0
M  V30 8270 C 795.024 -4.82865 1.99096 0
M  V30 8271 H 796.718 -2.65 1.3934 0
M  V30 8272 H 794.264 -1.27388 0.671446 0
M  V30 8273 H 796.217 -4.18424 -0.499934 0
M  V30 8274 H 794.941 -3.08346 -1.07659 0
M  V30 8275 H 793.6 -3.52416 1.00989 0
M  V30 8276 H 793.248 -4.92271 -1.03338 0
M  V30 8277 H 792.948 -5.85855 0.452494 0
M  V30 8278 H 794.472 -6.08933 -0.450924 0
M  V30 8279 H 795.886 -5.46481 1.73297 0
M  V30 8280 H 794.283 -5.44444 2.52389 0
M  V30 8281 H 795.353 -4.03977 2.68199 0
M  V30 8282 N 796.696 -0.74468 -1.38897 0
M  V30 8283 C 797.936 -0.301691 -2.02161 0
M  V30 8284 C 798.3 1.09338 -1.57826 0
M  V30 8285 O 799.501 1.63499 -2.13358 0
M  V30 8286 C 797.772 -0.410601 -3.55034 0
M  V30 8287 S 799.331 -0.0488802 -4.38773 0
M  V30 8288 H 796.149 -0.117583 -0.70121 0
M  V30 8289 H 798.751 -0.973334 -1.69548 0
M  V30 8290 H 797.455 -1.42705 -3.8479 0
M  V30 8291 H 796.986 0.278531 -3.92413 0
M  V30 8292 H 799.001 1.16434 -4.82346 0
M  V30 8293 N 798.174 1.49689 -0.493057 0
M  V30 8294 C 799.421 2.02427 0.0542714 0
M  V30 8295 C 799.749 1.37339 1.37725 0
M  V30 8296 O 799.004 0.495523 1.89323 0
M  V30 8297 C 799.303 3.56427 0.263536 0
M  V30 8298 C 798.969 4.40111 -0.98046 0
M  V30 8299 C 797.631 4.62699 -1.32148 0
M  V30 8300 C 799.983 4.88847 -1.80771 0
M  V30 8301 C 797.311 5.31268 -2.48941 0
M  V30 8302 C 799.663 5.587 -2.96711 0
M  V30 8303 C 798.327 5.79536 -3.31202 0
M  V30 8304 H 797.597 0.740734 0.0198593 0
M  V30 8305 H 800.244 1.80073 -0.651603 0
M  V30 8306 H 798.549 3.77416 1.05186 0
M  V30 8307 H 800.246 3.94819 0.701348 0
M  V30 8308 H 796.836 4.22765 -0.704814 0
M  V30 8309 H 801.02 4.71231 -1.55741 0
M  V30 8310 H 796.276 5.45603 -2.75911 0
M  V30 8311 H 800.45 5.9544 -3.61143 0
M  V30 8312 H 798.077 6.32443 -4.21805 0
M  V30 8313 N 799.652 0.226554 1.55963 0
M  V30 8314 C 800.898 -0.404387 1.98727 0
M  V30 8315 C 801.231 -1.59059 1.11418 0
M  V30 8316 O 800.506 -1.93729 0.172971 0
M  V30 8317 C 800.789 -0.834081 3.50307 0
M  V30 8318 C 800.642 0.356104 4.48388 0
M  V30 8319 C 801.961 -1.68845 4.06423 0
M  V30 8320 H 799.08 -0.145515 0.722492 0
M  V30 8321 H 801.722 0.323791 1.87221 0
M  V30 8322 H 799.872 -1.45454 3.60244 0
M  V30 8323 H 801.544 0.99432 4.50456 0
M  V30 8324 H 799.787 1.0027 4.22053 0
M  V30 8325 H 800.458 0.0124333 5.51999 0
M  V30 8326 H 802.934 -1.16489 3.99461 0
M  V30 8327 H 801.81 -1.958 5.1279 0
M  V30 8328 H 802.071 -2.65347 3.53615 0
M  V30 8329 N 801.13 -1.57531 -0.0467866 0
M  V30 8330 C 802.355 -1.93087 -0.757123 0
M  V30 8331 C 802.78 -0.825116 -1.69037 0
M  V30 8332 O 802.138 0.220449 -1.79955 0
M  V30 8333 C 802.186 -3.27669 -1.5055 0
M  V30 8334 O 801.29 -3.18667 -2.61773 0
M  V30 8335 H 800.631 -0.631597 -0.204892 0
M  V30 8336 H 803.161 -2.04599 -0.00755232 0
M  V30 8337 H 803.171 -3.6214 -1.87932 0
M  V30 8338 H 801.846 -4.07717 -0.820931 0
M  V30 8339 H 800.423 -2.95798 -2.27064 0
M  V30 8340 N 802.608 0.318715 -1.54344 0
M  V30 8341 C 803.856 1.054 -1.72439 0
M  V30 8342 C 804.177 1.88388 -0.503495 0
M  V30 8343 O 803.447 1.89866 0.48246 0
M  V30 8344 H 802.027 0.392124 -0.635805 0
M  V30 8345 H 804.689 0.35398 -1.91659 0
M  V30 8346 H 803.785 1.71726 -2.60608 0
M  V30 8347 N 804.086 1.46499 0.581025 0
M  V30 8348 C 805.326 1.53456 1.35021 0
M  V30 8349 C 805.69 0.182542 1.9113 0
M  V30 8350 O 806.891 0.126874 2.685 0
M  V30 8351 C 805.162 2.60387 2.44812 0
M  V30 8352 S 806.721 2.86762 3.32134 0
M  V30 8353 H 803.539 0.54216 0.459982 0
M  V30 8354 H 806.141 1.83742 0.667754 0
M  V30 8355 H 804.845 3.57253 2.01986 0
M  V30 8356 H 804.376 2.31839 3.17828 0
M  V30 8357 H 806.391 2.2216 4.43688 0
M  V30 8358 N 805.565 -0.825799 1.34232 0
M  V30 8359 C 806.512 -1.93651 1.2557 0
M  V30 8360 C 807.482 -1.65578 0.131536 0
M  V30 8361 O 808.667 -1.88231 0.312027 0
M  V30 8362 C 805.807 -3.29862 1.01415 0
M  V30 8363 C 804.92 -3.70247 2.22579 0
M  V30 8364 C 804.055 -4.95392 1.91731 0
M  V30 8365 C 803.094 -5.28349 3.09053 0
M  V30 8366 N 802.231 -6.44671 2.78107 0
M  V30 8367 H 807.071 -2.00392 2.20561 0
M  V30 8368 H 804.608 -0.980441 1.09662 0
M  V30 8369 H 806.566 -4.08356 0.854485 0
M  V30 8370 H 805.196 -3.22642 0.100936 0
M  V30 8371 H 804.248 -2.87169 2.49476 0
M  V30 8372 H 805.56 -3.90575 3.10246 0
M  V30 8373 H 804.714 -5.81665 1.72484 0
M  V30 8374 H 803.453 -4.77059 1.0132 0
M  V30 8375 H 802.458 -4.40574 3.289 0
M  V30 8376 H 803.683 -5.48622 4.00239 0
M  V30 8377 H 801.629 -6.278 1.9027 0
M  V30 8378 H 801.546 -6.65158 3.59306 0
M  V30 8379 H 802.814 -7.34022 2.62358 0
M  V30 8380 N 807.043 -1.17915 -1.04565 0
M  V30 8381 C 808.32 -0.881187 -1.74627 0
M  V30 8382 C 808.7 0.617123 -2.01878 0
M  V30 8383 O 808.048 1.57032 -1.65991 0
M  V30 8384 C 808.258 -1.72299 -3.03503 0
M  V30 8385 C 809.606 -1.94688 -3.77335 0
M  V30 8386 O 810.63 -1.6931 -3.13389 0
M  V30 8387 O 809.489 -2.37379 -4.92253 0
M  V30 8388 H 806.583 -0.326864 -0.759664 0
M  V30 8389 H 809.129 -1.28642 -1.10676 0
M  V30 8390 H 807.901 -2.73891 -2.79462 0
M  V30 8391 H 807.524 -1.31593 -3.75192 0
M  V30 8392 N 808.521 1.23394 -0.980386 0
M  V30 8393 C 809.768 1.91809 -0.649261 0
M  V30 8394 C 810.096 1.765 0.817197 0
M  V30 8395 O 809.351 1.11979 1.60497 0
M  V30 8396 C 809.65 3.43542 -0.985588 0
M  V30 8397 C 809.316 3.79031 -2.44225 0
M  V30 8398 C 807.978 3.88429 -2.84035 0
M  V30 8399 C 810.33 3.96145 -3.38702 0
M  V30 8400 C 807.658 4.12368 -4.17336 0
M  V30 8401 C 810.01 4.21583 -4.71646 0
M  V30 8402 C 808.674 4.29203 -5.11215 0
M  V30 8403 H 807.944 0.70188 -0.237581 0
M  V30 8404 H 810.591 1.4642 -1.23424 0
M  V30 8405 H 808.896 3.90503 -0.318521 0
M  V30 8406 H 810.593 3.94708 -0.707596 0
M  V30 8407 H 807.183 3.7229 -2.12362 0
M  V30 8408 H 811.367 3.88274 -3.09123 0
M  V30 8409 H 806.623 4.1649 -4.47601 0
M  V30 8410 H 810.797 4.33769 -5.4481 0
M  V30 8411 H 808.424 4.47505 -6.14527 0
M  V30 8412 N 809.999 0.752036 1.385 0
M  V30 8413 C 811.239 0.312408 2.01998 0
M  V30 8414 C 811.603 -1.085 1.58404 0
M  V30 8415 O 812.804 -1.62365 2.14222 0
M  V30 8416 C 811.075 0.429423 3.54811 0
M  V30 8417 S 812.634 0.0721487 4.38741 0
M  V30 8418 H 809.452 0.1213 0.700576 0
M  V30 8419 H 812.054 0.982312 1.69029 0
M  V30 8420 H 810.758 1.44743 3.84028 0
M  V30 8421 H 810.289 -0.257716 3.92555 0
M  V30 8422 H 812.304 -1.13875 4.82957 0
M  V30 8423 N 811.477 -1.49425 0.500989 0
M  V30 8424 C 812.407 -2.31971 -0.266775 0
M  V30 8425 C 813.388 -1.40245 -0.962563 0
M  V30 8426 O 814.573 -1.69154 -0.953968 0
M  V30 8427 C 811.703 -3.20757 -1.33163 0
M  V30 8428 C 810.657 -4.21275 -0.75572 0
M  V30 8429 C 809.983 -4.98997 -1.92109 0
M  V30 8430 C 811.283 -5.21686 0.253213 0
M  V30 8431 H 812.977 -2.96408 0.422237 0
M  V30 8432 H 810.523 -1.4254 0.204505 0
M  V30 8433 H 812.476 -3.77315 -1.87646 0
M  V30 8434 H 811.2 -2.54263 -2.04983 0
M  V30 8435 H 809.859 -3.65861 -0.232637 0
M  V30 8436 H 809.507 -4.28951 -2.62698 0
M  V30 8437 H 809.207 -5.67011 -1.54182 0
M  V30 8438 H 810.731 -5.584 -2.47026 0
M  V30 8439 H 812.145 -5.72939 -0.203483 0
M  V30 8440 H 810.542 -5.9759 0.548322 0
M  V30 8441 H 811.612 -4.70596 1.16909 0
M  V30 8442 N 812.955 -0.234822 -1.55841 0
M  V30 8443 C 814.371 0.120295 -1.59146 0
M  V30 8444 C 814.571 1.57896 -1.25184 0
M  V30 8445 O 813.627 2.32138 -0.993393 0
M  V30 8446 C 814.94 -0.217984 -2.99909 0
M  V30 8447 C 816.488 -0.161298 -3.12584 0
M  V30 8448 C 816.963 -0.473438 -4.55546 0
M  V30 8449 N 818.454 -0.423494 -4.6126 0
M  V30 8450 C 819.189 -0.638334 -5.69836 0
M  V30 8451 N 818.685 -0.915659 -6.86722 0
M  V30 8452 N 820.478 -0.569864 -5.59204 0
M  V30 8453 H 812.629 -1.18622 -1.76189 0
M  V30 8454 H 814.892 -0.476426 -0.819587 0
M  V30 8455 H 814.598 -1.2309 -3.29457 0
M  V30 8456 H 814.472 0.460707 -3.74376 0
M  V30 8457 H 816.859 0.842274 -2.82825 0
M  V30 8458 H 816.94 -0.873661 -2.40418 0
M  V30 8459 H 816.584 -1.47451 -4.86025 0
M  V30 8460 H 816.514 0.260268 -5.25956 0
M  V30 8461 H 819.005 -0.217383 -3.77274 0
M  V30 8462 H 819.318 -1.06734 -7.65394 0
M  V30 8463 H 817.663 -0.953 -6.88435 0
M  V30 8464 H 820.854 -0.35334 -4.66765 0
M  V30 8465 H 821.027 -0.740698 -6.43753 0
M  V30 8466 N 814.433 1.57553 0.0384317 0
M  V30 8467 C 815.366 2.01307 1.07475 0
M  V30 8468 C 816.344 0.895717 1.35704 0
M  V30 8469 O 817.528 1.16079 1.48519 0
M  V30 8470 C 814.655 2.37817 2.41165 0
M  V30 8471 C 813.701 3.599 2.28855 0
M  V30 8472 S 814.534 5.09418 1.65086 0
M  V30 8473 C 815.69 5.49162 3.00286 0
M  V30 8474 H 815.923 2.88892 0.702034 0
M  V30 8475 H 813.456 1.52394 0.248103 0
M  V30 8476 H 815.414 2.59524 3.18053 0
M  V30 8477 H 814.075 1.507 2.75587 0
M  V30 8478 H 813.268 3.83071 3.27525 0
M  V30 8479 H 812.87 3.37996 1.60109 0
M  V30 8480 H 815.162 5.49274 3.96617 0
M  V30 8481 H 816.105 6.49586 2.81858 0
M  V30 8482 H 816.513 4.76653 3.02427 0
M  V30 8483 N 815.911 -0.310526 1.54511 0
M  V30 8484 C 816.874 -1.3657 1.84068 0
M  V30 8485 C 817.874 -1.44123 0.713097 0
M  V30 8486 O 819.064 -1.43924 0.981399 0
M  V30 8487 C 816.196 -2.75162 2.01243 0
M  V30 8488 H 817.389 -1.1161 2.78358 0
M  V30 8489 H 814.942 -0.546699 1.46427 0
M  V30 8490 H 815.677 -3.05359 1.09208 0
M  V30 8491 H 815.462 -2.71071 2.83307 0
M  V30 8492 H 816.952 -3.51473 2.25514 0
M  V30 8493 N 817.389 -1.46805 -0.573248 0
M  V30 8494 C 818.805 -1.31969 -0.897577 0
M  V30 8495 C 819.005 -0.298171 -1.99282 0
M  V30 8496 O 818.061 0.295953 -2.5076 0
M  V30 8497 C 819.374 -2.70859 -1.30598 0
M  V30 8498 C 820.922 -2.79022 -1.4183 0
M  V30 8499 C 821.397 -4.18516 -1.86033 0
M  V30 8500 N 822.888 -4.2098 -1.9321 0
M  V30 8501 C 823.623 -5.25814 -2.28707 0
M  V30 8502 N 823.119 -6.40968 -2.6293 0
M  V30 8503 N 824.912 -5.13184 -2.29343 0
M  V30 8504 H 817.063 -2.11869 0.150094 0
M  V30 8505 H 819.326 -0.947989 0.00447895 0
M  V30 8506 H 819.032 -3.46965 -0.575161 0
M  V30 8507 H 818.906 -3.01585 -2.26554 0
M  V30 8508 H 821.293 -2.03198 -2.13996 0
M  V30 8509 H 821.374 -2.51969 -0.441024 0
M  V30 8510 H 821.018 -4.94839 -1.14442 0
M  V30 8511 H 820.948 -4.42982 -2.84735 0
M  V30 8512 H 823.439 -3.37898 -1.69214 0
M  V30 8513 H 823.752 -7.16729 -2.88996 0
M  V30 8514 H 822.097 -6.44314 -2.60547 0
M  V30 8515 H 825.288 -4.22255 -2.02036 0
M  V30 8516 H 825.461 -5.94996 -2.56679 0
M  V30 8517 N 818.867 0.818669 -1.34668 0
M  V30 8518 C 820.144 1.56118 -1.17841 0
M  V30 8519 C 820.524 2.09646 0.24731 0
M  V30 8520 O 819.872 1.91329 1.24922 0
M  V30 8521 C 820.082 2.67922 -2.23649 0
M  V30 8522 C 821.43 3.36579 -2.58843 0
M  V30 8523 O 822.454 2.78182 -2.22471 0
M  V30 8524 O 821.313 4.42045 -3.21339 0
M  V30 8525 H 818.407 0.689216 -0.457067 0
M  V30 8526 H 820.953 0.859674 -1.46314 0
M  V30 8527 H 819.725 2.26153 -3.19328 0
M  V30 8528 H 819.348 3.45719 -1.96377 0
M  V30 8529 N 820.346 1.18468 1.03938 0
M  V30 8530 C 821.574 1.00576 1.80809 0
M  V30 8531 C 821.989 -0.445786 1.83462 0
M  V30 8532 O 821.346 -1.30964 1.27101 0
M  V30 8533 C 821.397 1.55491 3.26351 0
M  V30 8534 O 821.118 2.94963 3.23926 0
M  V30 8535 C 822.619 1.42236 4.19862 0
M  V30 8536 H 819.839 0.35508 0.56935 0
M  V30 8537 H 822.383 1.57046 1.30984 0
M  V30 8538 H 820.538 1.03195 3.73403 0
M  V30 8539 H 820.952 3.20598 4.15111 0
M  V30 8540 H 822.426 1.85455 5.19914 0
M  V30 8541 H 822.903 0.371267 4.37628 0
M  V30 8542 H 823.509 1.9361 3.78675 0
M  V30 8543 N 821.824 -1.22873 0.986916 0
M  V30 8544 C 822.772 -2.26597 0.525043 0
M  V30 8545 C 823.766 -1.64079 -0.421252 0
M  V30 8546 O 824.972 -1.77576 -0.294429 0
M  V30 8547 H 821.347 -0.736606 0.151381 0
M  V30 8548 H 823.318 -2.62909 1.41142 0
M  V30 8549 C 822.067 -3.47374 -0.150542 0
M  V30 8550 H 821.39 -3.95737 0.568541 0
M  V30 8551 H 822.83 -4.21739 -0.437256 0
M  V30 8552 C 821.289 -3.07163 -1.38392 0
M  V30 8553 O 821.819 -3.16028 -2.47971 0
M  V30 8554 N 820.025 -2.62009 -1.25697 0
M  V30 8555 H 819.572 -2.54996 -0.365355 0
M  V30 8556 H 819.53 -2.35472 -2.08327 0
M  V30 8557 N 823.302 -0.75937 -1.38099 0
M  V30 8558 C 824.232 -0.151077 -2.33011 0
M  V30 8559 C 825.213 0.697099 -1.5516 0
M  V30 8560 O 826.398 0.637101 -1.83452 0
M  V30 8561 C 823.528 0.738423 -3.39359 0
M  V30 8562 C 822.482 -0.0074741 -4.27999 0
M  V30 8563 C 821.808 1.00066 -5.25253 0
M  V30 8564 C 823.108 -1.17926 -5.08813 0
M  V30 8565 H 824.802 -0.943933 -2.84131 0
M  V30 8566 H 822.348 -0.455362 -1.36611 0
M  V30 8567 H 824.301 1.17369 -4.04725 0
M  V30 8568 H 823.025 1.56366 -2.86735 0
M  V30 8569 H 821.684 -0.423379 -3.64147 0
M  V30 8570 H 821.332 1.82012 -4.68914 0
M  V30 8571 H 821.032 0.506199 -5.85416 0
M  V30 8572 H 822.556 1.43512 -5.93495 0
M  V30 8573 H 823.97 -0.821262 -5.67387 0
M  V30 8574 H 822.367 -1.60497 -5.78239 0
M  V30 8575 H 823.437 -1.98938 -4.42212 0
M  V30 8576 N 824.78 1.49157 -0.508906 0
M  V30 8577 C 825.73 2.26215 0.284705 0
M  V30 8578 C 826.714 1.31401 0.928586 0
M  V30 8579 O 827.906 1.56073 0.834877 0
M  V30 8580 C 825.035 3.15906 1.34382 0
M  V30 8581 C 824.121 4.18186 0.705785 0
M  V30 8582 N 824.512 5.05419 -0.196214 0
M  V30 8583 C 822.81 4.35425 0.965457 0
M  V30 8584 C 823.511 5.78977 -0.562222 0
M  V30 8585 N 822.487 5.43553 0.0717389 0
M  V30 8586 H 826.289 2.91033 -0.409543 0
M  V30 8587 H 823.803 1.59104 -0.325508 0
M  V30 8588 H 825.8 3.6975 1.92589 0
M  V30 8589 H 824.46 2.52642 2.03966 0
M  V30 8590 H 825.471 5.14781 -0.567526 0
M  V30 8591 H 822.148 3.83363 1.65346 0
M  V30 8592 H 823.538 6.59192 -1.30062 0
M  V30 8593 N 826.258 0.243083 1.55714 0
M  V30 8594 C 827.188 -0.652336 2.24203 0
M  V30 8595 C 828.169 -1.1843 1.221 0
M  V30 8596 O 829.354 -1.22435 1.50743 0
M  V30 8597 C 826.484 -1.85111 2.93856 0
M  V30 8598 C 825.438 -1.45208 4.02615 0
M  V30 8599 C 824.764 -2.73137 4.59674 0
M  V30 8600 C 826.064 -0.625988 5.18535 0
M  V30 8601 H 827.758 -0.0812504 2.9929 0
M  V30 8602 H 825.304 -0.0376388 1.43951 0
M  V30 8603 H 827.257 -2.48314 3.40468 0
M  V30 8604 H 825.981 -2.44751 2.16251 0
M  V30 8605 H 824.64 -0.843406 3.56766 0
M  V30 8606 H 824.288 -3.30967 3.78774 0
M  V30 8607 H 823.988 -2.47163 5.33089 0
M  V30 8608 H 825.512 -3.37245 5.09017 0
M  V30 8609 H 826.926 -1.16223 5.61396 0
M  V30 8610 H 825.323 -0.462465 5.98315 0
M  V30 8611 H 826.393 0.362652 4.83542 0
M  V30 8612 N 827.736 -1.57571 -0.0300757 0
M  V30 8613 C 828.668 -2.0329 -1.05857 0
M  V30 8614 C 829.681 -0.945543 -1.32527 0
M  V30 8615 O 830.87 -1.22287 -1.30032 0
M  V30 8616 C 827.97 -2.39234 -2.40042 0
M  V30 8617 C 827.143 -3.70337 -2.32743 0
M  V30 8618 C 826.202 -3.93482 -3.49369 0
M  V30 8619 O 825.228 -4.64551 -3.28909 0
M  V30 8620 N 826.43 -3.39042 -4.71201 0
M  V30 8621 H 829.195 -2.9214 -0.668897 0
M  V30 8622 H 826.756 -1.60425 -0.218038 0
M  V30 8623 H 828.748 -2.51856 -3.16782 0
M  V30 8624 H 827.318 -1.5606 -2.70858 0
M  V30 8625 H 826.538 -3.68079 -1.41109 0
M  V30 8626 H 827.826 -4.56343 -2.25007 0
M  V30 8627 H 827.224 -2.81434 -4.90725 0
M  V30 8628 H 825.781 -3.57045 -5.45309 0
M  V30 8629 N 829.214 0.302327 -1.54673 0
M  V30 8630 C 830.439 1.06103 -1.78205 0
M  V30 8631 C 830.864 1.80204 -0.53926 0
M  V30 8632 O 830.222 1.73975 0.510142 0
M  V30 8633 C 830.27 2.01829 -2.98827 0
M  V30 8634 O 829.374 3.10108 -2.71858 0
M  V30 8635 H 828.715 0.30487 -0.589873 0
M  V30 8636 H 831.245 0.340153 -2.01753 0
M  V30 8637 H 831.255 2.44319 -3.2676 0
M  V30 8638 H 829.93 1.473 -3.88942 0
M  V30 8639 H 828.507 2.72142 -2.54937 0
M  V30 8640 N 830.692 1.47107 0.565454 0
M  V30 8641 C 831.94 1.53005 1.32038 0
M  V30 8642 C 832.261 0.190453 1.94068 0
M  V30 8643 O 831.531 -0.784783 1.79494 0
M  V30 8644 H 830.111 0.563578 0.490294 0
M  V30 8645 H 832.773 1.83351 0.660928 0
M  V30 8646 H 831.869 2.29215 2.11818 0
M  V30 8647 N 832.17 -0.811516 1.35101 0
M  V30 8648 C 833.133 -1.90467 1.27495 0
M  V30 8649 C 834.133 -1.59703 0.187516 0
M  V30 8650 O 835.323 -1.68528 0.440896 0
M  V30 8651 C 832.455 -3.26774 0.971154 0
M  V30 8652 H 833.648 -1.98631 2.2469 0
M  V30 8653 H 831.201 -1.00681 1.19553 0
M  V30 8654 H 831.936 -3.243 0.0028557 0
M  V30 8655 H 831.721 -3.50488 1.75785 0
M  V30 8656 H 833.211 -4.06804 0.943414 0
M  V30 8657 N 833.648 -1.19017 -1.03309 0
M  V30 8658 C 834.897 -0.984542 -1.76039 0
M  V30 8659 C 835.21 0.485937 -1.89468 0
M  V30 8660 O 836.416 0.810278 -2.59127 0
M  V30 8661 C 834.872 -1.71261 -3.1654 0
M  V30 8662 C 834.48 -3.22291 -3.11179 0
M  V30 8663 C 836.224 -1.59007 -3.93595 0
M  V30 8664 C 834.131 -3.87704 -4.46587 0
M  V30 8665 H 833.061 -0.364749 -0.659905 0
M  V30 8666 H 835.712 -1.4247 -1.15649 0
M  V30 8667 H 834.094 -1.20025 -3.77373 0
M  V30 8668 H 835.268 -3.80611 -2.59753 0
M  V30 8669 H 833.583 -3.34772 -2.47622 0
M  V30 8670 H 836.18 -2.05232 -4.93745 0
M  V30 8671 H 836.523 -0.543534 -4.12736 0
M  V30 8672 H 837.056 -2.07564 -3.39355 0
M  V30 8673 H 833.795 -4.92437 -4.3265 0
M  V30 8674 H 833.315 -3.34172 -4.98085 0
M  V30 8675 H 834.994 -3.91008 -5.15482 0
M  V30 8676 N 835.127 1.22348 -0.993418 0
M  V30 8677 C 836.09 2.22522 -0.549251 0
M  V30 8678 C 837.09 1.56529 0.368164 0
M  V30 8679 O 838.28 1.73463 0.16005 0
M  V30 8680 C 835.412 3.40307 0.201037 0
M  V30 8681 H 836.605 2.63332 -1.43515 0
M  V30 8682 H 834.158 1.35407 -0.78068 0
M  V30 8683 H 834.893 3.0497 1.10289 0
M  V30 8684 H 834.678 3.8942 -0.457685 0
M  V30 8685 H 836.168 4.14597 0.499946 0
M  V30 8686 N 836.605 0.766683 1.37694 0
M  V30 8687 C 837.537 0.107798 2.28946 0
M  V30 8688 C 838.55 -0.669701 1.48387 0
M  V30 8689 O 839.739 -0.508629 1.711 0
M  V30 8690 C 836.839 -0.871084 3.27514 0
M  V30 8691 C 836.012 -0.148471 4.37148 0
M  V30 8692 C 835.071 -1.03998 5.1582 0
M  V30 8693 O 834.097 -0.505639 5.6695 0
M  V30 8694 N 835.299 -2.36679 5.3006 0
M  V30 8695 H 838.064 0.89154 2.86132 0
M  V30 8696 H 835.625 0.618593 1.49616 0
M  V30 8697 H 837.617 -1.47081 3.77027 0
M  V30 8698 H 836.187 -1.55582 2.71133 0
M  V30 8699 H 835.407 0.632117 3.89099 0
M  V30 8700 H 836.695 0.351045 5.07588 0
M  V30 8701 H 836.093 -2.82532 4.90094 0
M  V30 8702 H 834.65 -2.9167 5.82899 0
M  V30 8703 N 838.083 -1.48885 0.516809 0
M  V30 8704 C 839.031 -2.31066 -0.266656 0
M  V30 8705 C 840.025 -1.40393 -0.94795 0
M  V30 8706 O 841.231 -1.57366 -0.873836 0
M  V30 8707 H 837.606 -0.744654 -0.104858 0
M  V30 8708 H 839.577 -2.95045 0.446236 0
M  V30 8709 C 838.326 -3.22131 -1.3087 0
M  V30 8710 H 837.649 -3.91839 -0.793865 0
M  V30 8711 H 839.089 -3.82544 -1.82856 0
M  V30 8712 C 837.548 -2.42825 -2.33533 0
M  V30 8713 O 838.078 -2.14364 -3.39722 0
M  V30 8714 N 836.284 -2.04559 -2.06407 0
M  V30 8715 H 835.831 -2.27905 -1.20071 0
M  V30 8716 H 835.789 -1.51807 -2.75322 0
M  V30 8717 N 839.561 -0.251338 -1.55583 0
M  V30 8718 C 840.972 0.25098 -1.85005 0
M  V30 8719 C 841.323 1.57259 -1.17321 0
M  V30 8720 O 840.448 2.11603 -0.453136 0
M  V30 8721 C 841.043 0.462161 -3.35633 0
M  V30 8722 C 839.602 0.908737 -3.65266 0
M  V30 8723 C 838.749 -0.0115418 -2.77298 0
M  V30 8724 H 841.7 -0.473782 -1.51463 0
M  V30 8725 H 841.721 1.30415 -3.57452 0
M  V30 8726 H 841.233 -0.499886 -3.84867 0
M  V30 8727 H 839.334 1.8831 -3.21512 0
M  V30 8728 H 839.447 0.762526 -4.72993 0
M  V30 8729 H 837.811 0.500612 -2.49732 0
M  V30 8730 H 838.594 -0.969042 -3.29339 0
M  V30 8731 N 841.039 1.57585 0.0217189 0
M  V30 8732 C 842.285 1.89887 0.712099 0
M  V30 8733 C 842.618 0.849971 1.74611 0
M  V30 8734 O 841.893 -0.13407 1.94037 0
M  V30 8735 C 842.176 3.32815 1.37499 0
M  V30 8736 C 842.029 4.48405 0.353993 0
M  V30 8737 C 843.348 3.74786 2.30703 0
M  V30 8738 H 840.467 0.690588 0.257405 0
M  V30 8739 H 843.109 1.89983 -0.0251145 0
M  V30 8740 H 841.259 3.32863 2.00335 0
M  V30 8741 H 842.931 4.60491 -0.273015 0
M  V30 8742 H 841.174 4.32573 -0.32599 0
M  V30 8743 H 841.845 5.45316 0.85644 0
M  V30 8744 H 844.321 3.76151 1.77904 0
M  V30 8745 H 843.197 4.75585 2.74061 0
M  V30 8746 H 843.458 3.07449 3.17691 0
M  V30 8747 N 842.517 -0.29412 1.54831 0
M  V30 8748 C 843.427 -1.3854 1.89325 0
M  V30 8749 C 844.443 -1.55127 0.788133 0
M  V30 8750 O 845.619 -1.6966 1.08524 0
M  V30 8751 C 842.684 -2.72809 2.13954 0
M  V30 8752 C 841.745 -2.65148 3.37631 0
M  V30 8753 C 840.978 -3.93014 3.61076 0
M  V30 8754 O 841.201 -4.927 2.87406 0
M  V30 8755 O 840.135 -3.94491 4.54599 0
M  V30 8756 H 843.961 -1.12289 2.82179 0
M  V30 8757 H 841.546 -0.490793 1.41108 0
M  V30 8758 H 843.428 -3.52238 2.31315 0
M  V30 8759 H 842.103 -2.9889 1.24285 0
M  V30 8760 H 841.01 -1.84168 3.25627 0
M  V30 8761 H 842.343 -2.4402 4.27452 0
M  V30 8762 N 843.995 -1.47404 -0.557645 0
M  V30 8763 C 844.943 -1.60265 -1.68576 0
M  V30 8764 C 845.937 -0.469982 -1.6275 0
M  V30 8765 O 847.143 -0.647764 -1.67941 0
M  V30 8766 H 843.518 -0.504353 -0.557792 0
M  V30 8767 H 845.489 -2.55066 -1.54867 0
M  V30 8768 C 844.238 -1.63369 -3.0693 0
M  V30 8769 H 843.561 -2.49874 -3.12095 0
M  V30 8770 H 845.001 -1.76417 -3.85556 0
M  V30 8771 C 843.46 -0.366921 -3.34896 0
M  V30 8772 O 843.99 0.53218 -3.98159 0
M  V30 8773 N 842.196 -0.247082 -2.89548 0
M  V30 8774 H 841.743 -0.979669 -2.38244 0
M  V30 8775 H 841.701 0.599552 -3.0863 0
M  V30 8776 N 845.473 0.80434 -1.35529 0
M  V30 8777 C 846.703 1.59052 -1.31856 0
M  V30 8778 C 847.111 1.88905 0.105549 0
M  V30 8779 O 846.454 1.49422 1.06858 0
M  V30 8780 C 846.516 2.94626 -2.06 0
M  V30 8781 C 846.18 2.87576 -3.55175 0
M  V30 8782 C 847.177 2.60856 -4.49722 0
M  V30 8783 C 844.862 3.06623 -3.97854 0
M  V30 8784 C 846.856 2.53262 -5.84925 0
M  V30 8785 C 844.543 2.98652 -5.33151 0
M  V30 8786 C 845.541 2.72007 -6.26499 0
M  V30 8787 O 845.229 2.64003 -7.59314 0
M  V30 8788 H 844.961 0.500486 -0.454411 0
M  V30 8789 H 847.515 1.0074 -1.78999 0
M  V30 8790 H 845.745 3.5493 -1.53498 0
M  V30 8791 H 847.434 3.55785 -1.95376 0
M  V30 8792 H 848.2 2.45858 -4.18066 0
M  V30 8793 H 844.079 3.26372 -3.2558 0
M  V30 8794 H 847.623 2.32386 -6.57756 0
M  V30 8795 H 843.52 3.13208 -5.64421 0
M  V30 8796 H 844.288 2.79595 -7.69265 0
M  V30 8797 N 846.951 1.19563 1.02676 0
M  V30 8798 C 848.2 0.993864 1.75514 0
M  V30 8799 C 848.513 -0.475882 1.89723 0
M  V30 8800 O 849.719 -0.796525 2.59553 0
M  V30 8801 C 848.175 1.72937 3.15628 0
M  V30 8802 C 847.783 3.23937 3.09466 0
M  V30 8803 C 849.527 1.61092 3.92746 0
M  V30 8804 C 847.434 3.90067 4.44524 0
M  V30 8805 H 846.364 0.368244 0.657961 0
M  V30 8806 H 849.015 1.43081 1.14891 0
M  V30 8807 H 847.397 1.22025 3.76731 0
M  V30 8808 H 848.571 3.81983 2.57731 0
M  V30 8809 H 846.886 3.3608 2.45843 0
M  V30 8810 H 849.483 2.07848 4.92649 0
M  V30 8811 H 849.826 0.565415 4.12442 0
M  V30 8812 H 850.359 2.09361 3.3825 0
M  V30 8813 H 847.098 4.94725 4.30032 0
M  V30 8814 H 846.618 3.36809 4.96306 0
M  V30 8815 H 848.297 3.93736 5.13401 0
M  V30 8816 N 848.429 -1.21819 0.999893 0
M  V30 8817 C 849.706 -1.86318 0.595384 0
M  V30 8818 C 850.086 -1.8965 -0.927143 0
M  V30 8819 O 849.434 -1.3921 -1.81199 0
M  V30 8820 C 849.644 -3.26837 1.22387 0
M  V30 8821 C 850.992 -4.03272 1.32878 0
M  V30 8822 O 852.016 -3.36129 1.1788 0
M  V30 8823 O 850.875 -5.23477 1.56952 0
M  V30 8824 H 847.969 -0.801638 0.203238 0
M  V30 8825 H 850.515 -1.29542 1.09622 0
M  V30 8826 H 849.287 -3.19084 2.26497 0
M  V30 8827 H 848.91 -3.91226 0.709069 0
M  V30 8828 N 849.908 -0.773975 -1.37286 0
M  V30 8829 C 850.818 -0.162571 -2.34036 0
M  V30 8830 C 851.834 0.677022 -1.60289 0
M  V30 8831 O 853.01 0.596423 -1.92366 0
M  V30 8832 C 850.075 0.70457 -3.39465 0
M  V30 8833 C 849.136 -0.151738 -4.29032 0
M  V30 8834 C 848.369 0.674111 -5.29426 0
M  V30 8835 O 848.592 1.91107 -5.37433 0
M  V30 8836 O 847.526 0.0821398 -6.01844 0
M  V30 8837 H 851.352 -0.962119 -2.88057 0
M  V30 8838 H 848.937 -0.53517 -1.39486 0
M  V30 8839 H 850.819 1.19954 -4.03967 0
M  V30 8840 H 849.494 1.48227 -2.87768 0
M  V30 8841 H 848.401 -0.693118 -3.67623 0
M  V30 8842 H 849.734 -0.892575 -4.84039 0
M  V30 8843 N 851.386 1.48609 -0.524698 0
M  V30 8844 C 852.632 2.02797 0.0113382 0
M  V30 8845 C 852.965 1.40147 1.34433 0
M  V30 8846 O 852.24 0.545368 1.86698 0
M  V30 8847 C 852.523 3.59832 0.138931 0
M  V30 8848 C 852.376 4.32971 -1.21886 0
M  V30 8849 C 853.695 4.3145 0.868265 0
M  V30 8850 H 850.814 0.736995 0.00264645 0
M  V30 8851 H 853.456 1.77388 -0.680704 0
M  V30 8852 H 851.606 3.81612 0.72834 0
M  V30 8853 H 853.278 4.22624 -1.84897 0
M  V30 8854 H 851.521 3.94597 -1.80211 0
M  V30 8855 H 852.192 5.41279 -1.08263 0
M  V30 8856 H 854.668 4.14468 0.368145 0
M  V30 8857 H 853.544 5.41025 0.926428 0
M  V30 8858 H 853.805 3.98358 1.91737 0
M  V30 8859 N 852.864 0.259585 1.55447 0
M  V30 8860 C 853.794 -0.62852 2.24882 0
M  V30 8861 C 854.775 -1.17128 1.23349 0
M  V30 8862 O 855.96 -1.20829 1.52033 0
M  V30 8863 C 853.09 -1.81983 2.95803 0
M  V30 8864 C 852.044 -1.40929 4.04132 0
M  V30 8865 C 851.37 -2.68246 4.62545 0
M  V30 8866 C 852.67 -0.570956 5.1917 0
M  V30 8867 H 854.364 -0.0495021 2.99359 0
M  V30 8868 H 851.91 -0.0223688 1.43983 0
M  V30 8869 H 853.863 -2.44689 3.43082 0
M  V30 8870 H 852.587 -2.42444 2.18835 0
M  V30 8871 H 851.246 -0.805519 3.57641 0
M  V30 8872 H 850.894 -3.26931 3.82263 0
M  V30 8873 H 850.594 -2.41495 5.35681 0
M  V30 8874 H 852.118 -3.31827 5.12565 0
M  V30 8875 H 853.532 -1.10262 5.62597 0
M  V30 8876 H 851.929 -0.398979 5.98772 0
M  V30 8877 H 852.999 0.413918 4.8313 0
M  V30 8878 N 854.342 -1.57594 -0.0133615 0
M  V30 8879 C 855.29 -2.08682 -1.02736 0
M  V30 8880 C 856.284 -1.00391 -1.36448 0
M  V30 8881 O 857.49 -1.18868 -1.35168 0
M  V30 8882 H 853.865 -0.666158 -0.34891 0
M  V30 8883 H 855.836 -2.9289 -0.570815 0
M  V30 8884 C 854.585 -2.5945 -2.31476 0
M  V30 8885 H 853.908 -3.42401 -2.06401 0
M  V30 8886 H 855.348 -2.98888 -3.00735 0
M  V30 8887 C 853.807 -1.50266 -3.01533 0
M  V30 8888 O 854.337 -0.877875 -3.9199 0
M  V30 8889 N 852.543 -1.23336 -2.63129 0
M  V30 8890 H 852.09 -1.74327 -1.89652 0
M  V30 8891 H 852.048 -0.504987 -3.10318 0
M  V30 8892 N 855.82 0.285905 -1.54985 0
M  V30 8893 C 856.73 1.37534 -1.90057 0
M  V30 8894 C 857.746 1.54707 -0.796348 0
M  V30 8895 O 858.922 1.69082 -1.09423 0
M  V30 8896 C 855.987 2.7167 -2.15398 0
M  V30 8897 C 855.048 2.63354 -3.39033 0
M  V30 8898 C 854.281 3.91093 -3.63155 0
M  V30 8899 O 854.504 4.91169 -2.90015 0
M  V30 8900 O 853.438 3.92075 -4.56685 0
M  V30 8901 H 857.264 1.10791 -2.8277 0
M  V30 8902 H 854.849 0.483303 -1.41367 0
M  V30 8903 H 856.731 3.51006 -2.33179 0
M  V30 8904 H 855.406 2.98226 -1.25868 0
M  V30 8905 H 854.313 1.82438 -3.26599 0
M  V30 8906 H 855.646 2.41749 -4.2874 0
M  V30 8907 N 857.298 1.47698 0.54982 0
M  V30 8908 C 858.544 1.54931 1.30859 0
M  V30 8909 C 858.877 0.214021 1.93017 0
M  V30 8910 O 858.152 -0.778093 1.78258 0
M  V30 8911 C 858.435 2.67286 2.41309 0
M  V30 8912 C 858.288 4.10457 1.83971 0
M  V30 8913 C 859.607 2.75509 3.43195 0
M  V30 8914 H 856.726 0.56399 0.474431 0
M  V30 8915 H 859.368 1.79787 0.614541 0
M  V30 8916 H 857.518 2.46224 3.0051 0
M  V30 8917 H 859.19 4.42903 1.28974 0
M  V30 8918 H 857.433 4.18387 1.14606 0
M  V30 8919 H 858.104 4.84857 2.63851 0
M  V30 8920 H 860.58 2.94531 2.93923 0
M  V30 8921 H 859.456 3.55886 4.17895 0
M  V30 8922 H 859.717 1.82863 4.02509 0
M  V30 8923 N 858.776 -0.797141 1.35954 0
M  V30 8924 C 859.706 -1.92387 1.32323 0
M  V30 8925 C 860.687 -1.68967 0.196007 0
M  V30 8926 O 861.872 -1.90193 0.39245 0
M  V30 8927 C 859.002 -3.29286 1.10398 0
M  V30 8928 C 857.956 -3.67212 2.19862 0
M  V30 8929 C 857.282 -5.02377 1.8309 0
M  V30 8930 C 858.582 -3.76602 3.61896 0
M  V30 8931 H 860.276 -1.95683 2.26602 0
M  V30 8932 H 857.822 -0.94007 1.09081 0
M  V30 8933 H 859.775 -4.07721 1.06495 0
M  V30 8934 H 858.499 -3.26358 0.125668 0
M  V30 8935 H 857.158 -2.91069 2.22878 0
M  V30 8936 H 856.806 -4.95961 0.838527 0
M  V30 8937 H 856.506 -5.28722 2.56372 0
M  V30 8938 H 858.03 -5.8324 1.80729 0
M  V30 8939 H 859.444 -4.45246 3.6115 0
M  V30 8940 H 857.841 -4.14425 4.34018 0
M  V30 8941 H 858.911 -2.77906 3.97361 0
M  V30 8942 N 860.254 -1.20106 -1.0204 0
M  V30 8943 C 861.5 -1.01039 -1.75838 0
M  V30 8944 C 861.833 0.456819 -1.88751 0
M  V30 8945 O 861.108 1.33919 -1.41053 0
M  V30 8946 C 861.391 -1.69009 -3.17975 0
M  V30 8947 C 861.244 -3.2315 -3.1288 0
M  V30 8948 C 862.563 -1.42005 -4.16561 0
M  V30 8949 H 859.682 -0.368465 -0.638281 0
M  V30 8950 H 862.324 -1.48066 -1.19064 0
M  V30 8951 H 860.474 -1.29026 -3.66449 0
M  V30 8952 H 862.146 -3.72402 -2.72239 0
M  V30 8953 H 860.389 -3.54253 -2.50374 0
M  V30 8954 H 861.06 -3.65862 -4.13339 0
M  V30 8955 H 863.536 -1.76685 -3.76725 0
M  V30 8956 H 862.412 -1.92101 -5.14187 0
M  V30 8957 H 862.673 -0.346884 -4.40737 0
M  V30 8958 N 861.732 1.21287 -1.00634 0
M  V30 8959 C 862.978 1.90671 -0.690822 0
M  V30 8960 C 863.311 1.77996 0.776592 0
M  V30 8961 O 862.586 1.15748 1.5631 0
M  V30 8962 C 862.869 3.42426 -1.11428 0
M  V30 8963 C 862.722 3.64086 -2.64124 0
M  V30 8964 C 864.041 4.34851 -0.677686 0
M  V30 8965 H 861.16 0.692419 -0.252439 0
M  V30 8966 H 863.802 1.42893 -1.25226 0
M  V30 8967 H 861.952 3.83249 -0.636586 0
M  V30 8968 H 863.624 3.32582 -3.19667 0
M  V30 8969 H 861.867 3.07906 -3.05576 0
M  V30 8970 H 862.538 4.7042 -2.88806 0
M  V30 8971 H 865.014 4.01619 -1.0882 0
M  V30 8972 H 863.89 5.39675 -1.00213 0
M  V30 8973 H 864.151 4.4009 0.421125 0
M  V30 8974 N 863.21 0.781244 1.36873 0
M  V30 8975 C 864.621 0.414093 1.8205 0
M  V30 8976 C 864.972 -1.06098 1.65039 0
M  V30 8977 O 864.097 -1.82251 1.16677 0
M  V30 8978 C 864.692 0.744837 3.30511 0
M  V30 8979 C 863.251 0.430621 3.73929 0
M  V30 8980 C 862.398 0.983746 2.59264 0
M  V30 8981 H 865.349 0.975091 1.2521 0
M  V30 8982 H 865.37 0.032936 3.80486 0
M  V30 8983 H 864.882 1.81847 3.42861 0
M  V30 8984 H 862.983 -0.635308 3.67144 0
M  V30 8985 H 863.096 0.945514 4.69677 0
M  V30 8986 H 861.46 0.407433 2.5142 0
M  V30 8987 H 862.243 2.06297 2.74402 0
M  V30 8988 N 864.689 -1.48329 0.532571 0
M  V30 8989 C 865.637 -2.31336 -0.242133 0
M  V30 8990 C 866.631 -1.41391 -0.933006 0
M  V30 8991 O 867.837 -1.58284 -0.857096 0
M  V30 8992 H 864.212 -0.745724 -0.0969536 0
M  V30 8993 H 866.183 -2.94555 0.477504 0
M  V30 8994 C 864.932 -3.23501 -1.27446 0
M  V30 8995 H 864.255 -3.92659 -0.752261 0
M  V30 8996 H 865.695 -3.84461 -1.78789 0
M  V30 8997 C 864.154 -2.45288 -2.30944 0
M  V30 8998 O 864.684 -2.17955 -3.37429 0
M  V30 8999 N 862.89 -2.06737 -2.04226 0
M  V30 9000 H 862.437 -2.29166 -1.17647 0
M  V30 9001 H 862.395 -1.54719 -2.73696 0
M  V30 9002 N 866.167 -0.267825 -1.55308 0
M  V30 9003 C 867.416 0.351635 -1.98611 0
M  V30 9004 C 867.729 1.57522 -1.15957 0
M  V30 9005 O 868.935 2.26717 -1.49371 0
M  V30 9006 C 867.391 0.676986 -3.53475 0
M  V30 9007 C 866.999 -0.526385 -4.44897 0
M  V30 9008 C 868.743 1.25948 -4.05386 0
M  V30 9009 C 866.65 -0.176026 -5.91138 0
M  V30 9010 H 865.58 0.13516 -0.741787 0
M  V30 9011 H 868.231 -0.371333 -1.79704 0
M  V30 9012 H 866.613 1.45866 -3.68156 0
M  V30 9013 H 867.787 -1.30339 -4.41982 0
M  V30 9014 H 866.102 -1.02522 -4.03582 0
M  V30 9015 H 868.699 1.53529 -5.12184 0
M  V30 9016 H 869.042 2.19094 -3.53982 0
M  V30 9017 H 869.575 0.540253 -3.94114 0
M  V30 9018 H 866.314 -1.07518 -6.46622 0
M  V30 9019 H 865.834 0.564363 -5.97139 0
M  V30 9020 H 867.513 0.234365 -6.46575 0
M  V30 9021 N 867.645 1.57599 0.00500368 0
M  V30 9022 C 868.593 2.09223 1.01628 0
M  V30 9023 C 869.587 1.01113 1.35913 0
M  V30 9024 O 870.793 1.19583 1.34536 0
M  V30 9025 H 867.168 0.667999 0.345372 0
M  V30 9026 H 869.139 2.93188 0.555274 0
M  V30 9027 C 867.888 2.60674 2.30097 0
M  V30 9028 H 867.211 3.43491 2.04582 0
M  V30 9029 H 868.651 3.00479 2.99146 0
M  V30 9030 C 867.11 1.51862 3.00731 0
M  V30 9031 O 867.64 0.898651 3.91519 0
M  V30 9032 N 865.846 1.24729 2.62471 0
M  V30 9033 H 865.393 1.7533 1.88725 0
M  V30 9034 H 865.351 0.521437 3.10046 0
M  V30 9035 N 869.123 -0.277682 1.55134 0
M  V30 9036 C 870.348 -1.03254 1.7987 0
M  V30 9037 C 870.773 -1.79324 0.567861 0
M  V30 9038 O 870.131 -1.74764 -0.4824 0
M  V30 9039 C 870.179 -1.9705 3.02 0
M  V30 9040 O 869.283 -3.05744 2.76757 0
M  V30 9041 H 868.624 -0.295447 0.594649 0
M  V30 9042 H 871.154 -0.308013 2.02268 0
M  V30 9043 H 871.164 -2.3909 3.30606 0
M  V30 9044 H 869.839 -1.41094 3.91236 0
M  V30 9045 H 868.416 -2.68052 2.59235 0
M  V30 9046 N 870.601 -1.47988 -0.541979 0
M  V30 9047 C 871.826 -1.59286 -1.32826 0
M  V30 9048 C 872.251 -0.24894 -1.86445 0
M  V30 9049 O 871.609 0.777581 -1.63778 0
M  V30 9050 C 871.657 -2.6334 -2.46343 0
M  V30 9051 O 870.761 -2.19667 -3.49028 0
M  V30 9052 H 870.102 -0.534543 -0.393903 0
M  V30 9053 H 872.632 -1.93885 -0.653427 0
M  V30 9054 H 872.642 -2.84238 -2.92699 0
M  V30 9055 H 871.317 -3.60913 -2.06675 0
M  V30 9056 H 869.894 -2.08932 -3.08872 0
M  V30 9057 N 872.079 0.78992 -1.36375 0
M  V30 9058 C 873.027 1.92394 -1.30719 0
M  V30 9059 C 874.021 1.68226 -0.199076 0
M  V30 9060 O 875.227 1.76239 -0.366051 0
M  V30 9061 H 871.602 0.632382 -0.406936 0
M  V30 9062 H 873.573 1.94282 -2.26488 0
M  V30 9063 C 872.322 3.2941 -1.11284 0
M  V30 9064 H 871.645 3.48573 -1.95798 0
M  V30 9065 H 873.085 4.09111 -1.11373 0
M  V30 9066 C 871.544 3.36405 0.182543 0
M  V30 9067 O 872.074 3.84206 1.17255 0
M  V30 9068 N 870.28 2.89712 0.227046 0
M  V30 9069 H 869.827 2.51004 -0.579217 0
M  V30 9070 H 869.785 2.94773 1.09344 0
M  V30 9071 N 873.557 1.20646 1.01402 0
M  V30 9072 C 874.968 1.01823 1.56489 0
M  V30 9073 C 875.319 -0.42463 1.9155 0
M  V30 9074 O 874.444 -1.30644 1.72514 0
M  V30 9075 C 875.039 1.84208 2.84347 0
M  V30 9076 C 873.598 1.69743 3.35953 0
M  V30 9077 C 872.745 1.8198 2.09233 0
M  V30 9078 H 875.696 1.348 0.837539 0
M  V30 9079 H 875.717 1.34698 3.55861 0
M  V30 9080 H 875.229 2.89215 2.58798 0
M  V30 9081 H 873.33 0.673833 3.66456 0
M  V30 9082 H 873.443 2.51173 4.07981 0
M  V30 9083 H 871.807 1.25193 2.21808 0
M  V30 9084 H 872.59 2.88477 1.86107 0
M  V30 9085 N 875.035 -1.20752 1.01276 0
M  V30 9086 C 876.263 -1.94006 0.718976 0
M  V30 9087 C 876.678 -1.74544 -0.719711 0
M  V30 9088 O 876.035 -1.05697 -1.48776 0
M  V30 9089 C 876.086 -3.46208 1.04031 0
M  V30 9090 O 875.807 -3.65031 2.42248 0
M  V30 9091 C 877.308 -4.36614 0.767032 0
M  V30 9092 H 874.528 -0.616743 0.264327 0
M  V30 9093 H 877.072 -1.53352 1.3529 0
M  V30 9094 H 875.227 -3.84756 0.451852 0
M  V30 9095 H 875.641 -4.59054 2.53712 0
M  V30 9096 H 877.115 -5.42076 1.04198 0
M  V30 9097 H 877.592 -4.38182 -0.298851 0
M  V30 9098 H 878.198 -4.03723 1.33746 0
M  V30 9099 N 876.513 -0.788492 -1.36457 0
M  V30 9100 C 877.741 -0.372365 -2.03522 0
M  V30 9101 C 878.156 1.01093 -1.59454 0
M  V30 9102 O 877.513 1.64824 -0.783535 0
M  V30 9103 C 877.564 -0.425435 -3.58988 0
M  V30 9104 O 877.285 -1.75418 -4.01448 0
M  V30 9105 C 878.786 0.000180167 -4.433 0
M  V30 9106 H 876.006 -0.1536 -0.653183 0
M  V30 9107 H 878.55 -1.06708 -1.74452 0
M  V30 9108 H 876.705 0.220856 -3.8677 0
M  V30 9109 H 877.119 -1.70437 -4.96036 0
M  V30 9110 H 878.593 -0.0880919 -5.5193 0
M  V30 9111 H 879.07 1.05269 -4.26398 0
M  V30 9112 H 879.676 -0.618563 -4.20778 0
M  V30 9113 N 877.991 1.48044 -0.54043 0
M  V30 9114 C 879.216 2.07396 -0.0124765 0
M  V30 9115 C 879.641 1.39288 1.26414 0
M  V30 9116 O 878.999 0.462252 1.75308 0
M  V30 9117 C 879.047 3.60131 0.18377 0
M  V30 9118 O 878.151 3.92995 1.25014 0
M  V30 9119 H 877.492 0.662554 -0.0438026 0
M  V30 9120 H 880.022 1.90306 -0.751327 0
M  V30 9121 H 880.032 4.06003 0.403197 0
M  V30 9122 H 878.707 4.09105 -0.74874 0
M  V30 9123 H 877.284 3.5889 1.01254 0
M  V30 9124 N 879.47 0.276058 1.55163 0
M  V30 9125 C 880.418 -0.626978 2.2399 0
M  V30 9126 C 881.412 -1.15708 1.23725 0
M  V30 9127 O 882.618 -1.1106 1.41653 0
M  V30 9128 H 878.993 -0.220742 0.718872 0
M  V30 9129 H 880.964 -0.0236569 2.98391 0
M  V30 9130 C 879.713 -1.79935 2.97521 0
M  V30 9131 H 879.036 -1.40064 3.74463 0
M  V30 9132 H 880.476 -2.40781 3.48999 0
M  V30 9133 C 878.935 -2.68838 2.03046 0
M  V30 9134 O 879.465 -3.69224 1.58229 0
M  V30 9135 N 877.671 -2.36028 1.69527 0
M  V30 9136 H 877.218 -1.54442 2.06169 0
M  V30 9137 H 877.176 -2.95782 1.06586 0
M  V30 9138 N 880.948 -1.576 0.00335426 0
M  V30 9139 C 882.173 -1.95398 -0.695311 0
M  V30 9140 C 882.598 -0.878476 -1.66326 0
M  V30 9141 O 881.956 0.163086 -1.80565 0
M  V30 9142 C 882.004 -3.32293 -1.40049 0
M  V30 9143 O 881.108 -3.26834 -2.51502 0
M  V30 9144 H 880.449 -0.637796 -0.184694 0
M  V30 9145 H 882.979 -2.04519 0.057543 0
M  V30 9146 H 882.989 -3.67936 -1.76316 0
M  V30 9147 H 881.664 -4.10123 -0.690803 0
M  V30 9148 H 880.241 -3.02872 -2.17539 0
M  V30 9149 N 882.426 0.269451 -1.5528 0
M  V30 9150 C 883.389 1.31642 -1.87625 0
M  V30 9151 C 884.389 1.42182 -0.751058 0
M  V30 9152 O 885.579 1.41272 -1.01921 0
M  V30 9153 C 882.711 2.6973 -2.08467 0
M  V30 9154 H 883.904 1.0419 -2.81219 0
M  V30 9155 H 881.457 0.507685 -1.47825 0
M  V30 9156 H 882.192 3.02356 -1.17266 0
M  V30 9157 H 881.977 2.63465 -2.90394 0
M  V30 9158 H 883.467 3.4537 -2.34753 0
M  V30 9159 N 883.904 1.48273 0.534124 0
M  V30 9160 C 885.315 1.49667 1.1161 0
M  V30 9161 C 885.666 0.264139 1.94414 0
M  V30 9162 O 884.791 -0.629084 2.07054 0
M  V30 9163 C 885.386 2.71191 2.03079 0
M  V30 9164 C 883.945 2.7547 2.56502 0
M  V30 9165 C 883.092 2.43119 1.33373 0
M  V30 9166 H 886.043 1.55449 0.319578 0
M  V30 9167 H 886.064 2.49473 2.87304 0
M  V30 9168 H 885.576 3.60879 1.42785 0
M  V30 9169 H 883.677 1.89979 3.20529 0
M  V30 9170 H 883.79 3.76787 2.95919 0
M  V30 9171 H 882.154 1.94187 1.64813 0
M  V30 9172 H 882.937 3.35044 0.748375 0
M  V30 9173 N 885.382 -0.782676 1.36792 0
M  V30 9174 C 886.345 -1.8772 1.31507 0
M  V30 9175 C 887.345 -1.59269 0.221349 0
M  V30 9176 O 888.535 -1.67555 0.476544 0
M  V30 9177 C 885.667 -3.24641 1.04025 0
M  V30 9178 H 886.86 -1.9382 2.28853 0
M  V30 9179 H 884.413 -0.981226 1.21662 0
M  V30 9180 H 885.148 -3.24221 0.0716439 0
M  V30 9181 H 884.933 -3.46681 1.8318 0
M  V30 9182 H 886.423 -4.04711 1.02949 0
M  V30 9183 N 886.86 -1.21182 -1.00761 0
M  V30 9184 C 887.79 -0.992773 -2.11344 0
M  V30 9185 C 888.771 0.0813618 -1.69905 0
M  V30 9186 O 889.956 -0.0779503 -1.94043 0
M  V30 9187 C 887.086 -0.553826 -3.42856 0
M  V30 9188 C 886.04 -1.57223 -3.98077 0
M  V30 9189 C 885.366 -0.989605 -5.25463 0
M  V30 9190 C 886.666 -2.95839 -4.30438 0
M  V30 9191 H 888.36 -1.91766 -2.29927 0
M  V30 9192 H 885.906 -0.923426 -1.10494 0
M  V30 9193 H 887.859 -0.387771 -4.19612 0
M  V30 9194 H 886.583 0.406702 -3.24058 0
M  V30 9195 H 885.242 -1.7258 -3.23437 0
M  V30 9196 H 884.89 -0.0208743 -5.02996 0
M  V30 9197 H 884.59 -1.66984 -5.63374 0
M  V30 9198 H 886.114 -0.834815 -6.04866 0
M  V30 9199 H 887.528 -2.8394 -4.98047 0
M  V30 9200 H 885.925 -3.60851 -4.79486 0
M  V30 9201 H 886.995 -3.46882 -3.38823 0
M  V30 9202 N 888.338 1.20213 -1.01915 0
M  V30 9203 C 889.615 1.85348 -0.62495 0
M  V30 9204 C 889.995 1.91101 0.896854 0
M  V30 9205 O 889.343 1.42075 1.78961 0
M  V30 9206 C 889.553 3.24849 -1.27571 0
M  V30 9207 C 890.901 4.01107 -1.39277 0
M  V30 9208 O 891.925 3.34211 -1.23212 0
M  V30 9209 O 890.784 5.20914 -1.6526 0
M  V30 9210 H 887.878 0.798303 -0.215965 0
M  V30 9211 H 890.424 1.27782 -1.11669 0
M  V30 9212 H 889.196 3.1544 -2.31545 0
M  V30 9213 H 888.819 3.90049 -0.77122 0
M  V30 9214 N 889.816 0.795718 1.36037 0
M  V30 9215 C 890.779 0.204318 2.28287 0
M  V30 9216 C 891.779 -0.602017 1.49105 0
M  V30 9217 O 892.969 -0.422089 1.69009 0
M  V30 9218 C 890.101 -0.716431 3.33287 0
M  V30 9219 H 891.294 1.01781 2.821 0
M  V30 9220 H 888.847 0.565588 1.45708 0
M  V30 9221 H 889.582 -1.55403 2.84641 0
M  V30 9222 H 889.367 -0.140096 3.9185 0
M  V30 9223 H 890.857 -1.12488 4.02164 0
M  V30 9224 N 891.294 -1.47756 0.548274 0
M  V30 9225 C 892.257 -2.28379 -0.193857 0
M  V30 9226 C 893.257 -1.36436 -0.850986 0
M  V30 9227 O 894.447 -1.59154 -0.70822 0
M  V30 9228 C 891.579 -3.15858 -1.28243 0
M  V30 9229 H 892.772 -2.95458 0.514231 0
M  V30 9230 H 890.325 -1.53298 0.304879 0
M  V30 9231 H 891.06 -2.5345 -2.0232 0
M  V30 9232 H 890.845 -3.83512 -0.816148 0
M  V30 9233 H 892.335 -3.76627 -1.80393 0
M  V30 9234 N 892.772 -0.284283 -1.55015 0
M  V30 9235 C 893.682 0.60906 -2.26556 0
M  V30 9236 C 894.698 1.16246 -1.29472 0
M  V30 9237 O 895.874 1.1908 -1.62425 0
M  V30 9238 C 892.939 1.77246 -2.97968 0
M  V30 9239 C 892 1.25482 -4.10552 0
M  V30 9240 C 891.233 2.36277 -4.78549 0
M  V30 9241 O 891.456 3.55829 -4.45805 0
M  V30 9242 O 890.39 2.03914 -5.66306 0
M  V30 9243 H 894.216 0.0292298 -3.03686 0
M  V30 9244 H 891.801 -0.0513466 -1.49312 0
M  V30 9245 H 893.683 2.45062 -3.42815 0
M  V30 9246 H 892.358 2.33921 -2.23747 0
M  V30 9247 H 891.265 0.542859 -3.7014 0
M  V30 9248 H 892.598 0.733708 -4.86701 0
M  V30 9249 N 894.251 1.57596 -0.0117121 0
M  V30 9250 C 895.479 1.9536 0.681334 0
M  V30 9251 C 895.894 0.887255 1.66653 0
M  V30 9252 O 895.251 -0.132692 1.82017 0
M  V30 9253 C 895.302 3.33165 1.40298 0
M  V30 9254 O 895.023 4.35707 0.45728 0
M  V30 9255 C 896.524 3.85458 2.18946 0
M  V30 9256 H 893.744 0.643826 0.189023 0
M  V30 9257 H 896.288 2.04392 -0.066311 0
M  V30 9258 H 894.443 3.25404 2.10216 0
M  V30 9259 H 894.857 5.15495 0.96773 0
M  V30 9260 H 896.331 4.84275 2.64918 0
M  V30 9261 H 896.808 3.18781 3.02118 0
M  V30 9262 H 897.414 3.96431 1.5402 0
M  V30 9263 N 895.729 -0.261212 1.5542 0
M  V30 9264 C 896.977 -0.989272 1.76232 0
M  V30 9265 C 897.298 -1.86389 0.573067 0
M  V30 9266 O 896.568 -1.91526 -0.41166 0
M  V30 9267 H 895.148 -0.368256 0.64992 0
M  V30 9268 H 897.81 -0.282603 1.9284 0
M  V30 9269 H 896.906 -1.61935 2.66802 0
M  V30 9270 N 897.207 -1.48554 -0.526253 0
M  V30 9271 C 898.157 -1.59753 -1.62674 0
M  V30 9272 C 899.141 -0.454452 -1.54349 0
M  V30 9273 O 900.333 -0.706091 -1.62306 0
M  V30 9274 C 897.462 -1.64388 -3.01383 0
M  V30 9275 C 896.548 -2.84188 -3.14798 0
M  V30 9276 N 896.939 -4.08564 -2.98176 0
M  V30 9277 C 895.237 -2.81599 -3.45859 0
M  V30 9278 C 895.938 -4.88961 -3.15106 0
M  V30 9279 N 894.914 -4.21848 -3.42849 0
M  V30 9280 H 898.716 -2.5366 -1.48438 0
M  V30 9281 H 896.23 -1.44977 -0.731801 0
M  V30 9282 H 898.227 -1.70505 -3.80439 0
M  V30 9283 H 896.887 -0.716006 -3.16707 0
M  V30 9284 H 897.898 -4.38943 -2.74862 0
M  V30 9285 H 894.575 -1.98083 -3.67518 0
M  V30 9286 H 895.965 -5.97683 -3.0696 0
M  V30 9287 N 898.685 0.775411 -1.37205 0
M  V30 9288 C 899.913 1.56446 -1.35397 0
M  V30 9289 C 900.328 1.887 0.0615437 0
M  V30 9290 O 899.685 1.51178 1.02233 0
M  V30 9291 C 899.736 2.87697 -2.18889 0
M  V30 9292 O 899.457 2.56828 -3.54924 0
M  V30 9293 C 900.958 3.81944 -2.25019 0
M  V30 9294 H 898.178 0.484792 -0.463916 0
M  V30 9295 H 900.722 0.961346 -1.80495 0
M  V30 9296 H 898.877 3.44442 -1.7731 0
M  V30 9297 H 899.291 3.40851 -3.98649 0
M  V30 9298 H 900.765 4.71055 -2.87769 0
M  V30 9299 H 901.242 4.20811 -1.25757 0
M  V30 9300 H 901.848 3.3113 -2.66895 0
M  V30 9301 N 900.163 1.21714 1.00117 0
M  V30 9302 C 901.388 1.06357 1.78054 0
M  V30 9303 C 901.813 -0.382075 1.84179 0
M  V30 9304 O 901.171 -1.27575 1.28819 0
M  V30 9305 C 901.219 1.66982 3.19608 0
M  V30 9306 O 900.323 0.917892 4.02055 0
M  V30 9307 H 899.664 0.374074 0.548602 0
M  V30 9308 H 902.194 1.61338 1.25822 0
M  V30 9309 H 902.204 1.71363 3.70268 0
M  V30 9310 H 900.879 2.72185 3.14465 0
M  V30 9311 H 899.456 0.949473 3.6061 0
M  V30 9312 N 901.641 -1.19671 1.02551 0
M  V30 9313 C 902.866 -1.93774 0.739363 0
M  V30 9314 C 903.291 -1.74787 -0.695064 0
M  V30 9315 O 902.649 -1.04796 -1.47944 0
M  V30 9316 C 902.697 -3.43684 1.09149 0
M  V30 9317 O 901.801 -4.11874 0.208213 0
M  V30 9318 H 901.142 -0.605064 0.273484 0
M  V30 9319 H 903.672 -1.51846 1.37128 0
M  V30 9320 H 903.682 -3.94339 1.04695 0
M  V30 9321 H 902.357 -3.56826 2.13654 0
M  V30 9322 H 900.934 -3.716 0.311045 0
M  V30 9323 N 903.119 -0.802921 -1.35613 0
M  V30 9324 C 904.365 -0.382141 -1.99167 0
M  V30 9325 C 904.698 1.04704 -1.63556 0
M  V30 9326 O 903.973 1.72578 -0.89706 0
M  V30 9327 C 904.256 -0.561493 -3.55695 0
M  V30 9328 C 904.109 -2.03534 -4.01116 0
M  V30 9329 C 905.428 0.0151135 -4.40097 0
M  V30 9330 H 902.547 -0.140322 -0.723518 0
M  V30 9331 H 905.189 -1.01177 -1.6082 0
M  V30 9332 H 903.339 -0.0255083 -3.88492 0
M  V30 9333 H 905.011 -2.63343 -3.78746 0
M  V30 9334 H 903.254 -2.5331 -3.52159 0
M  V30 9335 H 903.925 -2.11173 -5.1001 0
M  V30 9336 H 906.401 -0.442582 -4.1374 0
M  V30 9337 H 905.277 -0.140316 -5.48721 0
M  V30 9338 H 905.538 1.10848 -4.27978 0
M  V30 9339 N 904.597 1.47463 -0.556102 0
M  V30 9340 C 905.529 2.28046 0.22968 0
M  V30 9341 C 906.542 1.3694 0.880409 0
M  V30 9342 O 907.731 1.61773 0.754447 0
M  V30 9343 C 904.831 3.11165 1.34273 0
M  V30 9344 C 904.004 4.30225 0.789004 0
M  V30 9345 C 903.063 4.94948 1.78641 0
M  V30 9346 O 902.089 5.53372 1.33297 0
M  V30 9347 N 903.291 4.89543 3.11974 0
M  V30 9348 H 906.056 2.96125 -0.461558 0
M  V30 9349 H 903.617 1.5708 -0.392105 0
M  V30 9350 H 905.609 3.51331 2.00869 0
M  V30 9351 H 904.179 2.45337 1.93722 0
M  V30 9352 H 903.399 3.94163 -0.0536971 0
M  V30 9353 H 904.687 5.07238 0.398378 0
M  V30 9354 H 904.085 4.43275 3.51459 0
M  V30 9355 H 902.642 5.33732 3.74131 0
M  V30 9356 N 906.075 0.2925 1.54862 0
M  V30 9357 C 907.486 -0.201841 1.85606 0
M  V30 9358 C 907.837 -1.54093 1.21449 0
M  V30 9359 O 906.962 -2.10327 0.509079 0
M  V30 9360 C 907.557 -0.373011 3.3674 0
M  V30 9361 C 906.116 -0.811574 3.67547 0
M  V30 9362 C 905.263 0.0850583 2.7717 0
M  V30 9363 H 908.214 0.513774 1.50153 0
M  V30 9364 H 908.235 -1.20892 3.60785 0
M  V30 9365 H 907.747 0.601751 3.83407 0
M  V30 9366 H 905.848 -1.79719 3.26392 0
M  V30 9367 H 905.961 -0.636853 4.74848 0
M  V30 9368 H 904.325 -0.434224 2.50971 0
M  V30 9369 H 905.108 1.05602 3.26654 0
M  V30 9370 N 907.553 -1.57587 0.0200696 0
M  V30 9371 C 908.463 -2.13119 -0.980676 0
M  V30 9372 C 909.479 -1.08124 -1.36328 0
M  V30 9373 O 910.655 -1.40134 -1.44653 0
M  V30 9374 C 907.72 -2.63991 -2.24743 0
M  V30 9375 C 906.781 -3.83667 -1.9261 0
M  V30 9376 C 906.014 -4.32103 -3.13246 0
M  V30 9377 O 906.237 -3.79758 -4.25606 0
M  V30 9378 O 905.171 -5.24047 -2.96072 0
M  V30 9379 H 908.997 -2.98887 -0.538528 0
M  V30 9380 H 906.582 -1.48055 -0.19999 0
M  V30 9381 H 908.464 -2.9682 -2.99125 0
M  V30 9382 H 907.139 -1.81311 -2.68157 0
M  V30 9383 H 906.046 -3.55778 -1.15641 0
M  V30 9384 H 907.379 -4.67482 -1.54019 0
M  V30 9385 N 909.032 0.252966 -1.55557 0
M  V30 9386 C 910.309 1.00432 -1.67847 0
M  V30 9387 C 910.689 2.03587 -0.55816 0
M  V30 9388 O 910.037 2.24239 0.439197 0
M  V30 9389 C 910.247 1.64313 -3.079 0
M  V30 9390 C 911.595 2.14726 -3.66303 0
M  V30 9391 O 912.619 1.74264 -3.10661 0
M  V30 9392 O 911.478 2.89 -4.63833 0
M  V30 9393 H 908.572 0.467102 -0.682455 0
M  V30 9394 H 911.118 0.247233 -1.67889 0
M  V30 9395 H 909.89 0.896681 -3.80888 0
M  V30 9396 H 909.513 2.46657 -3.11843 0
M  V30 9397 N 910.51 1.48831 0.518367 0
M  V30 9398 C 911.756 1.57672 1.27543 0
M  V30 9399 C 912.089 0.254915 1.9252 0
M  V30 9400 O 911.364 -0.740107 1.79868 0
M  V30 9401 C 911.647 2.72345 2.35585 0
M  V30 9402 C 911.5 4.14267 1.75224 0
M  V30 9403 C 912.819 2.82726 3.37274 0
M  V30 9404 H 909.938 0.573926 0.462361 0
M  V30 9405 H 912.58 1.8105 0.576267 0
M  V30 9406 H 910.73 2.52543 2.95219 0
M  V30 9407 H 912.402 4.45539 1.19551 0
M  V30 9408 H 910.645 4.20724 1.05706 0
M  V30 9409 H 911.316 4.90345 2.53507 0
M  V30 9410 H 913.792 3.00699 2.8761 0
M  V30 9411 H 912.668 3.6467 4.10252 0
M  V30 9412 H 912.929 1.9136 3.9854 0
M  V30 9413 N 911.988 -0.768124 1.37614 0
M  V30 9414 C 913.237 -1.5221 1.32345 0
M  V30 9415 C 913.55 -1.95399 -0.0885761 0
M  V30 9416 O 914.756 -2.70216 -0.263752 0
M  V30 9417 C 913.212 -2.74872 2.32322 0
M  V30 9418 C 912.82 -2.38767 3.79071 0
M  V30 9419 C 914.564 -3.52805 2.36069 0
M  V30 9420 C 912.471 -3.57953 4.7077 0
M  V30 9421 H 911.401 -0.571461 0.491883 0
M  V30 9422 H 914.052 -0.841004 1.63093 0
M  V30 9423 H 912.434 -3.44889 1.94596 0
M  V30 9424 H 913.608 -1.7651 4.25654 0
M  V30 9425 H 911.923 -1.74 3.78303 0
M  V30 9426 H 914.52 -4.41397 3.01782 0
M  V30 9427 H 914.863 -3.92925 1.37535 0
M  V30 9428 H 915.396 -2.89788 2.72521 0
M  V30 9429 H 912.135 -3.22911 5.70446 0
M  V30 9430 H 911.655 -4.19302 4.28889 0
M  V30 9431 H 913.334 -4.2472 4.8808 0
M  V30 9432 N 913.466 -1.22244 -0.994698 0
M  V30 9433 C 914.376 -1.00722 -2.11878 0
M  V30 9434 C 915.392 0.043919 -1.73945 0
M  V30 9435 O 916.568 -0.148411 -2.00852 0
M  V30 9436 C 913.633 -0.585723 -3.41717 0
M  V30 9437 C 912.694 -1.71027 -3.93762 0
M  V30 9438 C 911.927 -1.30879 -5.17403 0
M  V30 9439 O 912.15 -0.18681 -5.70094 0
M  V30 9440 O 911.084 -2.1246 -5.63156 0
M  V30 9441 H 914.91 -1.94894 -2.32916 0
M  V30 9442 H 912.495 -1.00822 -1.10251 0
M  V30 9443 H 914.377 -0.360935 -4.19851 0
M  V30 9444 H 913.052 0.327166 -3.22042 0
M  V30 9445 H 911.959 -1.98956 -3.16808 0
M  V30 9446 H 913.292 -2.60096 -4.17865 0
M  V30 9447 N 914.944 1.19125 -1.03184 0
M  V30 9448 C 916.172 1.92838 -0.74975 0
M  V30 9449 C 916.587 1.75667 0.691851 0
M  V30 9450 O 915.944 1.0805 1.47076 0
M  V30 9451 C 915.995 3.44509 -1.09525 0
M  V30 9452 O 915.716 3.6113 -2.48025 0
M  V30 9453 C 917.217 4.35338 -0.836397 0
M  V30 9454 H 914.437 0.61246 -0.274105 0
M  V30 9455 H 916.981 1.5118 -1.37712 0
M  V30 9456 H 915.136 3.83988 -0.513006 0
M  V30 9457 H 915.55 4.54959 -2.60984 0
M  V30 9458 H 917.024 5.4035 -1.12808 0
M  V30 9459 H 917.501 4.38602 0.229102 0
M  V30 9460 H 918.107 4.01544 -1.40152 0
M  V30 9461 N 916.422 0.810101 1.35185 0
M  V30 9462 C 917.838 0.494269 1.51754 0
M  V30 9463 C 918.038 -0.983907 1.75845 0
M  V30 9464 O 917.094 -1.76882 1.80191 0
M  V30 9465 C 918.407 1.34268 2.69059 0
M  V30 9466 C 919.955 1.33848 2.82938 0
M  V30 9467 C 920.43 2.17109 4.03271 0
M  V30 9468 N 921.921 2.14664 4.10456 0
M  V30 9469 C 922.656 2.75843 5.02691 0
M  V30 9470 N 922.152 3.45962 6.00235 0
M  V30 9471 N 923.945 2.65465 4.95464 0
M  V30 9472 H 916.096 1.76736 1.17805 0
M  V30 9473 H 918.359 0.752429 0.576676 0
M  V30 9474 H 918.065 2.39183 2.57845 0
M  V30 9475 H 917.939 0.998362 3.63748 0
M  V30 9476 H 920.326 0.29716 2.936 0
M  V30 9477 H 920.407 1.72269 1.89095 0
M  V30 9478 H 920.051 3.21283 3.93369 0
M  V30 9479 H 919.981 1.76046 4.96302 0
M  V30 9480 H 922.472 1.63648 3.40628 0
M  V30 9481 H 922.785 3.89922 6.67219 0
M  V30 9482 H 921.13 3.50067 6.00398 0
M  V30 9483 H 924.321 2.1027 4.18215 0
M  V30 9484 H 924.494 3.13433 5.67154 0
M  V30 9485 N 917.9 -1.47166 0.563914 0
M  V30 9486 C 919.13 -2.06546 0.0473599 0
M  V30 9487 C 919.538 -1.41607 -1.25476 0
M  V30 9488 O 918.881 -0.50894 -1.76509 0
M  V30 9489 C 918.943 -3.58873 -0.212249 0
M  V30 9490 C 918.607 -4.45893 1.00144 0
M  V30 9491 C 919.604 -4.83594 1.90873 0
M  V30 9492 C 917.289 -4.87309 1.218 0
M  V30 9493 C 919.283 -5.61519 3.01621 0
M  V30 9494 C 916.97 -5.64997 2.32856 0
M  V30 9495 C 917.968 -6.02013 3.22597 0
M  V30 9496 O 917.656 -6.78135 4.31727 0
M  V30 9497 H 917.388 -0.674441 0.0458823 0
M  V30 9498 H 919.942 -1.9006 0.778865 0
M  V30 9499 H 918.172 -3.73596 -0.998145 0
M  V30 9500 H 919.861 -4.00248 -0.675005 0
M  V30 9501 H 920.627 -4.52192 1.7535 0
M  V30 9502 H 916.506 -4.57959 0.528641 0
M  V30 9503 H 920.05 -5.90331 3.71693 0
M  V30 9504 H 915.947 -5.95813 2.48349 0
M  V30 9505 H 916.715 -6.96537 4.29859 0
M  V30 9506 N 919.378 -0.300708 -1.54705 0
M  V30 9507 C 920.624 0.309111 -2.0043 0
M  V30 9508 C 920.957 1.53562 -1.1888 0
M  V30 9509 O 920.232 1.92683 -0.265205 0
M  V30 9510 C 920.515 0.665995 -3.53888 0
M  V30 9511 C 920.368 -0.56963 -4.46178 0
M  V30 9512 C 921.687 1.49262 -4.14016 0
M  V30 9513 H 918.806 0.110878 -0.728612 0
M  V30 9514 H 921.448 -0.412748 -1.85463 0
M  V30 9515 H 919.598 1.281 -3.66773 0
M  V30 9516 H 921.27 -1.20811 -4.45199 0
M  V30 9517 H 919.513 -1.20292 -4.16788 0
M  V30 9518 H 920.184 -0.275785 -5.51311 0
M  V30 9519 H 922.66 0.972979 -4.04564 0
M  V30 9520 H 921.536 1.71111 -5.21548 0
M  V30 9521 H 921.797 2.48174 -3.65872 0
M  V30 9522 N 920.856 1.57574 -0.0284266 0
M  V30 9523 C 921.788 2.07079 0.982391 0
M  V30 9524 C 922.801 0.994078 1.28926 0
M  V30 9525 O 923.99 1.27028 1.25404 0
M  V30 9526 C 921.09 2.47978 2.30998 0
M  V30 9527 C 920.263 3.7872 2.18838 0
M  V30 9528 C 919.322 4.06177 3.34524 0
M  V30 9529 O 918.348 4.76438 3.11441 0
M  V30 9530 N 919.55 3.56297 4.58293 0
M  V30 9531 H 922.315 2.94421 0.560011 0
M  V30 9532 H 919.876 1.61124 0.158347 0
M  V30 9533 H 921.868 2.63439 3.07216 0
M  V30 9534 H 920.438 1.66005 2.64879 0
M  V30 9535 H 919.658 3.73062 1.27351 0
M  V30 9536 H 920.946 4.6438 2.07915 0
M  V30 9537 H 920.344 2.99453 4.79942 0
M  V30 9538 H 918.901 3.77038 5.31682 0
M  V30 9539 N 922.334 -0.244713 1.55689 0
M  V30 9540 C 923.562 -0.989944 1.8168 0
M  V30 9541 C 923.977 -1.78863 0.604449 0
M  V30 9542 O 923.334 -1.77437 -0.426907 0
M  V30 9543 C 923.385 -1.92607 3.05916 0
M  V30 9544 O 923.106 -1.1597 4.22472 0
M  V30 9545 C 924.607 -2.78711 3.44724 0
M  V30 9546 H 921.827 -0.2912 0.604519 0
M  V30 9547 H 924.371 -0.266938 2.0275 0
M  V30 9548 H 922.526 -2.60333 2.8689 0
M  V30 9549 H 922.94 -1.79311 4.92898 0
M  V30 9550 H 924.414 -3.40141 4.34751 0
M  V30 9551 H 924.891 -3.49935 2.6541 0
M  V30 9552 H 925.497 -2.16435 3.66109 0
M  V30 9553 N 923.813 -1.49104 -0.510467 0
M  V30 9554 C 925.038 -1.62068 -1.29417 0
M  V30 9555 C 925.463 -0.288432 -1.85875 0
M  V30 9556 O 924.821 0.742667 -1.65391 0
M  V30 9557 C 924.869 -2.68506 -2.40701 0
M  V30 9558 O 923.973 -2.27021 -3.4429 0
M  V30 9559 H 923.314 -0.542778 -0.382476 0
M  V30 9560 H 925.844 -1.95228 -0.612154 0
M  V30 9561 H 925.854 -2.90383 -2.86604 0
M  V30 9562 H 924.529 -3.65216 -1.98973 0
M  V30 9563 H 923.106 -2.15436 -3.04371 0
M  V30 9564 N 925.291 0.760815 -1.38019 0
M  V30 9565 C 926.223 1.88387 -1.30549 0
M  V30 9566 C 927.236 1.61319 -0.219119 0
M  V30 9567 O 928.425 1.72033 -0.476122 0
M  V30 9568 C 925.525 3.23863 -0.998291 0
M  V30 9569 C 924.698 3.78492 -2.19232 0
M  V30 9570 C 923.757 4.92468 -1.85368 0
M  V30 9571 O 922.783 5.0748 -2.57785 0
M  V30 9572 N 923.985 5.74901 -0.804319 0
M  V30 9573 H 926.75 1.95308 -2.27322 0
M  V30 9574 H 924.311 0.940423 -1.31786 0
M  V30 9575 H 926.303 3.97644 -0.7524 0
M  V30 9576 H 924.873 3.12374 -0.11877 0
M  V30 9577 H 924.093 2.96361 -2.5993 0
M  V30 9578 H 925.381 4.11722 -2.98935 0
M  V30 9579 H 924.779 5.65333 -0.203628 0
M  V30 9580 H 923.336 6.48861 -0.618301 0
M  V30 9581 N 926.769 1.22769 0.988202 0
M  V30 9582 C 927.997 1.08155 1.76381 0
M  V30 9583 C 928.412 -0.367573 1.85187 0
M  V30 9584 O 927.769 -1.25455 1.32541 0
M  V30 9585 C 927.82 1.69193 3.19462 0
M  V30 9586 O 927.541 3.08437 3.11125 0
M  V30 9587 C 929.042 1.59915 4.13451 0
M  V30 9588 H 926.262 0.378908 0.553778 0
M  V30 9589 H 928.806 1.6246 1.24206 0
M  V30 9590 H 926.961 1.18939 3.6869 0
M  V30 9591 H 927.375 3.37916 4.0114 0
M  V30 9592 H 928.849 2.07339 5.1158 0
M  V30 9593 H 929.326 0.556546 4.3566 0
M  V30 9594 H 929.932 2.09497 3.70123 0
M  V30 9595 N 928.247 -1.18576 1.03814 0
M  V30 9596 C 929.663 -1.4051 0.756909 0
M  V30 9597 C 929.863 -1.9057 -0.654631 0
M  V30 9598 O 928.919 -2.0884 -1.41922 0
M  V30 9599 C 930.232 -2.4081 1.80087 0
M  V30 9600 C 931.78 -2.54541 1.82148 0
M  V30 9601 C 932.255 -3.58102 2.85529 0
M  V30 9602 N 933.746 -3.65607 2.84404 0
M  V30 9603 C 934.481 -4.45458 3.61047 0
M  V30 9604 N 933.977 -5.28937 4.47434 0
M  V30 9605 N 935.77 -4.40196 3.49548 0
M  V30 9606 H 927.921 -0.844075 1.94908 0
M  V30 9607 H 930.184 -0.433287 0.843188 0
M  V30 9608 H 929.89 -2.1107 2.81322 0
M  V30 9609 H 929.764 -3.4012 1.63089 0
M  V30 9610 H 932.151 -2.83598 0.815855 0
M  V30 9611 H 932.232 -1.55352 2.03223 0
M  V30 9612 H 931.876 -3.29786 3.86269 0
M  V30 9613 H 931.806 -4.56963 2.6171 0
M  V30 9614 H 934.297 -3.05994 2.21756 0
M  V30 9615 H 934.61 -5.8701 5.02632 0
M  V30 9616 H 932.955 -5.28366 4.51503 0
M  V30 9617 H 936.146 -3.74026 2.81464 0
M  V30 9618 H 936.319 -5.02186 4.09528 0
M  V30 9619 N 929.725 -0.817259 -1.34754 0
M  V30 9620 C 931.002 -0.325468 -1.92873 0
M  V30 9621 C 931.382 1.18643 -1.74606 0
M  V30 9622 O 930.73 1.9909 -1.1214 0
M  V30 9623 C 930.94 -0.74858 -3.40877 0
M  V30 9624 C 932.288 -0.744165 -4.18028 0
M  V30 9625 O 933.312 -0.690799 -3.49437 0
M  V30 9626 O 932.171 -0.812207 -5.40431 0
M  V30 9627 H 929.265 -0.0876397 -0.822343 0
M  V30 9628 H 931.811 -0.901671 -1.43764 0
M  V30 9629 H 930.583 -1.79017 -3.47949 0
M  V30 9630 H 930.206 -0.147764 -3.97325 0
M  V30 9631 N 931.203 1.46865 -0.571711 0
M  V30 9632 C 932.113 2.33979 0.170571 0
M  V30 9633 C 933.129 1.49083 0.897239 0
M  V30 9634 O 934.305 1.81979 0.862888 0
M  V30 9635 C 931.37 3.26063 1.17831 0
M  V30 9636 C 930.431 4.26855 0.457499 0
M  V30 9637 C 929.664 5.14539 1.41722 0
M  V30 9638 O 929.887 5.04945 2.65305 0
M  V30 9639 O 928.821 5.94612 0.9338 0
M  V30 9640 H 932.647 2.98781 -0.544396 0
M  V30 9641 H 930.232 1.4566 -0.332198 0
M  V30 9642 H 932.114 3.82903 1.75965 0
M  V30 9643 H 930.789 2.63871 1.87493 0
M  V30 9644 H 929.696 3.73734 -0.165406 0
M  V30 9645 H 931.029 4.91802 -0.197953 0
M  V30 9646 N 932.681 0.308908 1.54543 0
M  V30 9647 C 933.614 -0.605854 2.20011 0
M  V30 9648 C 934.592 -1.1269 1.17216 0
M  V30 9649 O 935.776 -1.19363 1.45893 0
M  V30 9650 C 932.903 -1.82977 2.85021 0
M  V30 9651 C 931.949 -1.44126 4.0141 0
M  V30 9652 S 932.782 -0.490445 5.33249 0
M  V30 9653 C 933.938 -1.72198 6.01746 0
M  V30 9654 H 934.171 -0.0496911 2.97258 0
M  V30 9655 H 931.704 0.0930238 1.5412 0
M  V30 9656 H 933.662 -2.53211 3.23102 0
M  V30 9657 H 932.323 -2.35711 2.07604 0
M  V30 9658 H 931.516 -2.35288 4.45708 0
M  V30 9659 H 931.118 -0.818788 3.64927 0
M  V30 9660 H 933.41 -2.66147 6.23034 0
M  V30 9661 H 934.353 -1.32142 6.95661 0
M  V30 9662 H 934.761 -1.90229 5.31482 0
M  V30 9663 N 934.159 -1.57557 0.0367827 0
M  V30 9664 C 935.384 -1.96828 -0.653707 0
M  V30 9665 C 935.809 -0.913559 -1.64425 0
M  V30 9666 O 935.167 0.124749 -1.8087 0
M  V30 9667 C 935.215 -3.35189 -1.32969 0
M  V30 9668 O 934.319 -3.32095 -2.44513 0
M  V30 9669 H 933.66 -0.64157 -0.171124 0
M  V30 9670 H 936.19 -2.04351 0.100912 0
M  V30 9671 H 936.2 -3.71593 -1.68472 0
M  V30 9672 H 934.875 -4.11496 -0.603654 0
M  V30 9673 H 933.452 -3.07418 -2.11065 0
M  V30 9674 N 935.637 0.236453 -1.55816 0
M  V30 9675 C 936.567 1.29639 -1.94206 0
M  V30 9676 C 937.548 1.49667 -0.808319 0
M  V30 9677 O 938.733 1.621 -1.06945 0
M  V30 9678 C 935.863 2.64914 -2.24584 0
M  V30 9679 C 934.817 2.59565 -3.40308 0
M  V30 9680 C 934.143 3.98732 -3.56254 0
M  V30 9681 C 935.443 2.15642 -4.75706 0
M  V30 9682 H 937.137 0.977552 -2.82992 0
M  V30 9683 H 934.683 0.468804 -1.36155 0
M  V30 9684 H 936.636 3.39209 -2.50031 0
M  V30 9685 H 935.36 2.98455 -1.32636 0
M  V30 9686 H 934.019 1.87728 -3.14887 0
M  V30 9687 H 933.667 4.29556 -2.61707 0
M  V30 9688 H 933.367 3.96039 -4.34082 0
M  V30 9689 H 934.891 4.74711 -3.84033 0
M  V30 9690 H 936.305 2.79673 -5.00456 0
M  V30 9691 H 934.702 2.24039 -5.56711 0
M  V30 9692 H 935.772 1.10831 -4.72064 0
M  V30 9693 N 937.115 1.49373 0.502552 0
M  V30 9694 C 938.025 1.68659 1.63068 0
M  V30 9695 C 939.041 0.569182 1.64427 0
M  V30 9696 O 940.217 0.843695 1.82876 0
M  V30 9697 C 937.282 1.74745 2.99441 0
M  V30 9698 C 936.343 2.98311 3.08721 0
M  V30 9699 C 935.576 3.04097 4.38589 0
M  V30 9700 O 935.799 2.17519 5.27297 0
M  V30 9701 O 934.733 3.96544 4.52809 0
M  V30 9702 H 938.559 2.64226 1.49727 0
M  V30 9703 H 936.144 1.33096 0.67867 0
M  V30 9704 H 938.026 1.8111 3.80496 0
M  V30 9705 H 936.701 0.823565 3.13048 0
M  V30 9706 H 935.608 2.97465 2.2686 0
M  V30 9707 H 936.941 3.90174 3.00041 0
M  V30 9708 N 938.594 -0.753485 1.38421 0
M  V30 9709 C 939.819 -1.54783 1.38047 0
M  V30 9710 C 940.244 -1.8808 -0.0276371 0
M  V30 9711 O 939.602 -1.5058 -1.00973 0
M  V30 9712 C 939.65 -2.82353 2.24297 0
M  V30 9713 O 938.754 -3.77509 1.66014 0
M  V30 9714 H 938.095 -0.468151 0.470883 0
M  V30 9715 H 940.625 -0.931144 1.82184 0
M  V30 9716 H 940.635 -3.31277 2.38159 0
M  V30 9717 H 939.31 -2.57449 3.26639 0
M  V30 9718 H 937.887 -3.36212 1.61294 0
M  V30 9719 N 940.072 -1.23292 -0.981677 0
M  V30 9720 C 941.319 -1.06424 -1.72279 0
M  V30 9721 C 941.647 0.399055 -1.90362 0
M  V30 9722 O 940.902 1.31181 -1.45224 0
M  V30 9723 C 941.201 -1.73339 -3.12551 0
M  V30 9724 C 940.867 -3.23256 -3.14351 0
M  V30 9725 C 939.529 -3.64159 -3.14549 0
M  V30 9726 C 941.881 -4.1916 -3.09765 0
M  V30 9727 C 939.209 -4.99428 -3.07877 0
M  V30 9728 C 941.561 -5.54419 -3.04635 0
M  V30 9729 C 940.225 -5.94688 -3.03154 0
M  V30 9730 H 939.495 -0.389434 -0.630415 0
M  V30 9731 H 942.142 -1.53208 -1.1489 0
M  V30 9732 H 940.447 -1.18911 -3.73319 0
M  V30 9733 H 942.144 -1.57767 -3.68661 0
M  V30 9734 H 938.734 -2.90693 -3.14953 0
M  V30 9735 H 942.918 -3.88569 -3.08753 0
M  V30 9736 H 938.174 -5.29844 -3.05083 0
M  V30 9737 H 942.348 -6.28448 -3.00043 0
M  V30 9738 H 939.975 -6.99468 -2.97739 0
M  V30 9739 N 941.55 1.18024 -1.04442 0
M  V30 9740 C 942.48 2.23988 -0.659683 0
M  V30 9741 C 943.461 1.6669 0.338904 0
M  V30 9742 O 944.646 1.92971 0.21817 0
M  V30 9743 C 941.776 3.4729 -0.0257672 0
M  V30 9744 C 940.73 4.17362 -0.948299 0
M  V30 9745 C 940.056 5.34401 -0.17866 0
M  V30 9746 C 941.356 4.70435 -2.26909 0
M  V30 9747 H 943.05 2.56425 -1.54553 0
M  V30 9748 H 940.596 1.23256 -0.744575 0
M  V30 9749 H 942.549 4.20627 0.255131 0
M  V30 9750 H 941.273 3.14098 0.894981 0
M  V30 9751 H 939.932 3.45928 -1.21364 0
M  V30 9752 H 939.58 4.97458 0.744614 0
M  V30 9753 H 939.28 5.8222 -0.793294 0
M  V30 9754 H 940.804 6.10526 0.0951315 0
M  V30 9755 H 942.218 5.35447 -2.04864 0
M  V30 9756 H 940.615 5.28803 -2.83703 0
M  V30 9757 H 941.685 3.87653 -2.91296 0
M  V30 9758 N 943.028 0.824394 1.34319 0
M  V30 9759 C 944.276 0.41235 1.97849 0
M  V30 9760 C 944.597 -1.02841 1.65677 0
M  V30 9761 O 943.867 -1.71421 0.948245 0
M  V30 9762 H 942.447 0.149486 0.73189 0
M  V30 9763 H 945.109 1.05416 1.63931 0
M  V30 9764 H 944.205 0.532557 3.07523 0
M  V30 9765 N 944.506 -1.46559 0.579492 0
M  V30 9766 C 945.922 -1.57771 0.240921 0
M  V30 9767 C 946.122 -1.57505 -1.25676 0
M  V30 9768 O 945.178 -1.4903 -2.03829 0
M  V30 9769 C 946.491 -2.87311 0.887285 0
M  V30 9770 C 948.039 -3.00937 0.860576 0
M  V30 9771 C 948.514 -4.33208 1.48642 0
M  V30 9772 N 950.005 -4.39899 1.45062 0
M  V30 9773 C 950.74 -5.40856 1.90428 0
M  V30 9774 N 950.236 -6.48503 2.43752 0
M  V30 9775 N 952.029 -5.32037 1.81364 0
M  V30 9776 H 944.18 -1.44976 1.55228 0
M  V30 9777 H 946.443 -0.691354 0.648639 0
M  V30 9778 H 946.149 -2.93307 1.94071 0
M  V30 9779 H 946.023 -3.75141 0.393577 0
M  V30 9780 H 948.41 -2.94524 -0.184223 0
M  V30 9781 H 948.491 -2.14591 1.39227 0
M  V30 9782 H 948.135 -4.40378 2.5304 0
M  V30 9783 H 948.065 -5.18323 0.92998 0
M  V30 9784 H 950.556 -3.62706 1.0608 0
M  V30 9785 H 950.869 -7.21744 2.76234 0
M  V30 9786 H 949.214 -6.49332 2.47776 0
M  V30 9787 H 952.405 -4.46841 1.39465 0
M  V30 9788 H 952.578 -6.10573 2.17035 0
M  V30 9789 N 945.984 -0.3171 -1.54377 0
M  V30 9790 C 947.209 0.292311 -2.0533 0
M  V30 9791 C 947.634 1.45503 -1.19207 0
M  V30 9792 O 946.992 1.80197 -0.199721 0
M  V30 9793 C 947.04 0.710787 -3.53525 0
M  V30 9794 O 946.144 1.81387 -3.70368 0
M  V30 9795 H 945.485 0.0539976 -0.661801 0
M  V30 9796 H 948.015 -0.463629 -1.99278 0
M  V30 9797 H 948.025 0.995216 -3.95676 0
M  V30 9798 H 946.7 -0.139668 -4.15665 0
M  V30 9799 H 945.277 1.52875 -3.40123 0
M  V30 9800 N 947.462 1.57535 -0.0451378 0
M  V30 9801 C 948.71 1.92071 0.628743 0
M  V30 9802 C 949.031 0.923635 1.71738 0
M  V30 9803 O 948.301 -0.0324376 1.95873 0
M  V30 9804 H 946.881 0.708995 0.235233 0
M  V30 9805 H 949.543 1.9466 -0.0967177 0
M  V30 9806 H 948.639 2.9314 1.07123 0
M  V30 9807 N 948.94 -0.228186 1.55939 0
M  V30 9808 C 950.18 -0.960695 1.80416 0
M  V30 9809 C 950.544 -1.81795 0.617615 0
M  V30 9810 O 951.745 -2.58369 0.741545 0
M  V30 9811 C 950.016 -1.78298 3.09749 0
M  V30 9812 S 951.575 -2.57203 3.55517 0
M  V30 9813 H 948.393 -0.322825 0.633486 0
M  V30 9814 H 950.995 -0.226852 1.94179 0
M  V30 9815 H 949.699 -1.14323 3.94155 0
M  V30 9816 H 949.23 -2.55924 2.98775 0
M  V30 9817 H 951.245 -3.80632 3.1833 0
M  V30 9818 N 950.418 -1.49637 -0.494624 0
M  V30 9819 C 951.667 -1.58691 -1.24499 0
M  V30 9820 C 951.98 -0.281763 -1.9356 0
M  V30 9821 O 953.186 -0.250925 -2.70338 0
M  V30 9822 C 951.642 -2.8002 -2.26091 0
M  V30 9823 C 951.25 -4.17318 -1.6294 0
M  V30 9824 C 952.994 -2.98407 -3.01916 0
M  V30 9825 C 950.901 -5.29862 -2.62679 0
M  V30 9826 H 949.831 -0.590888 -0.468367 0
M  V30 9827 H 952.482 -1.76034 -0.518112 0
M  V30 9828 H 950.864 -2.56185 -3.01969 0
M  V30 9829 H 952.038 -4.51315 -0.930108 0
M  V30 9830 H 950.353 -4.04342 -0.994819 0
M  V30 9831 H 952.95 -3.79658 -3.76516 0
M  V30 9832 H 953.293 -2.09214 -3.5991 0
M  V30 9833 H 953.826 -3.22312 -2.33152 0
M  V30 9834 H 950.565 -6.21134 -2.09458 0
M  V30 9835 H 950.085 -5.00311 -3.3083 0
M  V30 9836 H 951.764 -5.59461 -3.2498 0
M  V30 9837 N 951.896 0.746133 -1.38819 0
M  V30 9838 C 952.846 1.85085 -1.33145 0
M  V30 9839 C 953.83 1.59466 -0.214339 0
M  V30 9840 O 955.022 1.71159 -0.450943 0
M  V30 9841 C 952.151 3.22884 -1.16623 0
M  V30 9842 C 951.237 3.54369 -2.32988 0
M  V30 9843 N 951.628 3.56863 -3.58445 0
M  V30 9844 C 949.926 3.84674 -2.25703 0
M  V30 9845 C 950.627 3.85827 -4.3533 0
M  V30 9846 N 949.603 4.03037 -3.64777 0
M  V30 9847 H 953.405 1.85301 -2.28124 0
M  V30 9848 H 950.919 0.943847 -1.32156 0
M  V30 9849 H 952.916 4.0195 -1.10642 0
M  V30 9850 H 951.576 3.23914 -0.225841 0
M  V30 9851 H 952.587 3.38443 -3.92017 0
M  V30 9852 H 949.264 3.93375 -1.39864 0
M  V30 9853 H 950.654 3.94317 -5.44025 0
M  V30 9854 N 953.375 1.23811 0.975125 0
M  V30 9855 C 954.285 1.0408 2.10249 0
M  V30 9856 C 955.301 -0.0162404 1.73992 0
M  V30 9857 O 956.477 0.180346 2.00591 0
M  V30 9858 C 953.542 0.640013 3.40741 0
M  V30 9859 C 952.603 1.7727 3.90991 0
M  V30 9860 C 951.836 1.39094 5.15256 0
M  V30 9861 O 952.059 0.277483 5.69725 0
M  V30 9862 O 950.993 2.21392 5.59704 0
M  V30 9863 H 954.819 1.98575 2.29786 0
M  V30 9864 H 952.404 1.02563 1.08633 0
M  V30 9865 H 954.286 0.427684 4.19224 0
M  V30 9866 H 952.961 -0.27589 3.22522 0
M  V30 9867 H 951.868 2.03971 3.13602 0
M  V30 9868 H 953.201 2.66711 4.13674 0
M  V30 9869 N 954.853 -1.17469 1.05066 0
M  V30 9870 C 956.078 -1.92162 0.780298 0
M  V30 9871 C 956.503 -1.76222 -0.657832 0
M  V30 9872 O 955.861 -1.0791 -1.45688 0
M  V30 9873 C 955.909 -3.41292 1.16414 0
M  V30 9874 O 955.013 -4.1134 0.295531 0
M  V30 9875 H 954.354 -0.599127 0.286257 0
M  V30 9876 H 956.884 -1.48903 1.40318 0
M  V30 9877 H 956.894 -3.92029 1.13036 0
M  V30 9878 H 955.569 -3.52214 2.21175 0
M  V30 9879 H 954.146 -3.70857 0.389797 0
M  V30 9880 N 956.331 -0.831506 -1.3388 0
M  V30 9881 C 957.278 -0.257449 -2.2936 0
M  V30 9882 C 958.248 0.622604 -1.5399 0
M  V30 9883 O 959.433 0.562432 -1.82322 0
M  V30 9884 C 956.573 0.567587 -3.404 0
M  V30 9885 C 955.686 -0.335666 -4.30694 0
M  V30 9886 C 954.821 0.499762 -5.28844 0
M  V30 9887 C 953.86 -0.402343 -6.10776 0
M  V30 9888 N 952.997 0.39452 -7.00991 0
M  V30 9889 H 957.837 -1.077 -2.77857 0
M  V30 9890 H 955.374 -0.542589 -1.36727 0
M  V30 9891 H 957.332 1.06133 -4.03474 0
M  V30 9892 H 955.962 1.35217 -2.93115 0
M  V30 9893 H 955.014 -0.94768 -3.68406 0
M  V30 9894 H 956.326 -1.02896 -4.88072 0
M  V30 9895 H 955.48 1.05763 -5.9741 0
M  V30 9896 H 954.219 1.22652 -4.72025 0
M  V30 9897 H 953.224 -0.972288 -5.41135 0
M  V30 9898 H 954.449 -1.12735 -6.69677 0
M  V30 9899 H 952.395 1.1048 -6.4663 0
M  V30 9900 H 952.312 -0.240209 -7.55618 0
M  V30 9901 H 953.58 0.934867 -7.73874 0
M  V30 9902 N 957.809 1.4625 -0.587256 0
M  V30 9903 C 958.739 2.33132 0.131076 0
M  V30 9904 C 959.72 1.45619 0.879158 0
M  V30 9905 O 960.905 1.74428 0.853723 0
M  V30 9906 C 958.035 3.27975 1.14236 0
M  V30 9907 C 956.989 4.24965 0.508819 0
M  V30 9908 C 956.315 5.09349 1.62689 0
M  V30 9909 C 957.615 5.19322 -0.55694 0
M  V30 9910 H 959.309 2.93442 -0.594333 0
M  V30 9911 H 956.855 1.41106 -0.287263 0
M  V30 9912 H 958.808 3.87614 1.65328 0
M  V30 9913 H 957.532 2.65781 1.8981 0
M  V30 9914 H 956.191 3.66595 0.0189337 0
M  V30 9915 H 955.839 4.43537 2.37242 0
M  V30 9916 H 955.539 5.75036 1.20861 0
M  V30 9917 H 957.063 5.71852 2.14049 0
M  V30 9918 H 958.477 5.73151 -0.130903 0
M  V30 9919 H 956.874 5.93376 -0.895801 0
M  V30 9920 H 957.944 4.62979 -1.44148 0
M  V30 9921 N 959.287 0.325282 1.54207 0
M  V30 9922 C 960.197 -0.548778 2.28091 0
M  V30 9923 C 961.213 -1.12772 1.32508 0
M  V30 9924 O 962.389 -1.14732 1.65525 0
M  V30 9925 C 959.454 -1.69284 3.02562 0
M  V30 9926 C 958.515 -1.14553 4.13734 0
M  V30 9927 C 957.748 -2.23506 4.84645 0
M  V30 9928 O 957.971 -3.43884 4.55082 0
M  V30 9929 O 956.905 -1.88828 5.71513 0
M  V30 9930 H 960.731 0.0512974 3.03657 0
M  V30 9931 H 958.316 0.0909159 1.49123 0
M  V30 9932 H 960.198 -2.35887 3.49192 0
M  V30 9933 H 958.873 -2.27906 2.2987 0
M  V30 9934 H 957.78 -0.444532 3.71449 0
M  V30 9935 H 959.113 -0.60441 4.88475 0
M  V30 9936 N 960.765 -1.57509 0.0534917 0
M  V30 9937 C 962.011 -1.93068 -0.62069 0
M  V30 9938 C 962.344 -0.932313 -1.70357 0
M  V30 9939 O 961.619 0.0413393 -1.94456 0
M  V30 9940 C 961.902 -3.38997 -1.21463 0
M  V30 9941 C 961.755 -4.49583 -0.13965 0
M  V30 9942 C 963.074 -3.85366 -2.12558 0
M  V30 9943 H 960.193 -0.702083 -0.224163 0
M  V30 9944 H 962.835 -1.89647 0.115729 0
M  V30 9945 H 960.985 -3.42043 -1.84226 0
M  V30 9946 H 962.657 -4.58664 0.492411 0
M  V30 9947 H 960.9 -4.30525 0.532006 0
M  V30 9948 H 961.571 -5.48781 -0.595287 0
M  V30 9949 H 964.047 -3.8421 -1.59755 0
M  V30 9950 H 962.923 -4.8812 -2.51058 0
M  V30 9951 H 963.184 -3.22256 -3.02661 0
M  V30 9952 N 962.243 0.219913 -1.56058 0
M  V30 9953 C 963.471 0.960915 -1.83232 0
M  V30 9954 C 963.886 1.77878 -0.632828 0
M  V30 9955 O 963.243 1.78093 0.398624 0
M  V30 9956 C 963.294 1.87716 -3.08942 0
M  V30 9957 O 963.015 1.09235 -4.24263 0
M  V30 9958 C 964.516 2.73192 -3.49115 0
M  V30 9959 H 961.736 0.281546 -0.609075 0
M  V30 9960 H 964.28 0.234648 -2.03149 0
M  V30 9961 H 962.435 2.55736 -2.90995 0
M  V30 9962 H 962.849 1.71446 -4.95688 0
M  V30 9963 H 964.323 3.33181 -4.40107 0
M  V30 9964 H 964.8 3.45668 -2.70943 0
M  V30 9965 H 965.406 2.10583 -3.69506 0
M  V30 9966 N 963.721 1.49897 0.486681 0
M  V30 9967 C 964.651 1.7054 1.59494 0
M  V30 9968 C 965.632 0.554184 1.60819 0
M  V30 9969 O 966.817 0.791617 1.77333 0
M  V30 9970 C 963.947 1.78517 2.97908 0
M  V30 9971 C 962.901 2.93571 3.11449 0
M  V30 9972 C 962.227 2.86674 4.51356 0
M  V30 9973 C 963.527 4.34308 2.90127 0
M  V30 9974 H 965.221 2.63329 1.42472 0
M  V30 9975 H 962.767 1.2672 0.683969 0
M  V30 9976 H 964.72 1.91544 3.75352 0
M  V30 9977 H 963.444 0.823381 3.16051 0
M  V30 9978 H 962.103 2.80169 2.36433 0
M  V30 9979 H 961.751 1.88373 4.66395 0
M  V30 9980 H 961.451 3.63903 4.61355 0
M  V30 9981 H 962.975 3.01728 5.30841 0
M  V30 9982 H 964.389 4.48317 3.57331 0
M  V30 9983 H 962.786 5.12869 3.11585 0
M  V30 9984 H 963.856 4.47759 1.86119 0
M  V30 9985 N 965.199 -0.738761 1.39212 0
M  V30 9986 C 966.162 -1.83441 1.37412 0
M  V30 9987 C 967.162 -1.58484 0.271908 0
M  V30 9988 O 968.352 -1.65954 0.529609 0
M  V30 9989 C 965.484 -3.21167 1.143 0
M  V30 9990 H 966.677 -1.86441 2.34904 0
M  V30 9991 H 964.23 -0.942023 1.24722 0
M  V30 9992 H 964.965 -3.23829 0.174756 0
M  V30 9993 H 964.75 -3.40678 1.94116 0
M  V30 9994 H 966.24 -4.01231 1.15773 0
M  V30 9995 N 966.677 -1.24326 -0.968545 0
M  V30 9996 C 967.625 -1.03256 -2.08425 0
M  V30 9997 C 968.619 0.0322356 -1.69369 0
M  V30 9998 O 969.825 -0.122251 -1.79584 0
M  V30 9999 H 966.2 -0.31688 -0.681976 0
M  V30 10000 H 968.171 -1.97873 -2.23358 0
M  V30 10001 C 966.92 -0.653144 -3.4151 0
M  V30 10002 H 966.243 -1.46424 -3.72021 0
M  V30 10003 H 967.683 -0.545316 -4.20479 0
M  V30 10004 C 966.142 0.639674 -3.30771 0
M  V30 10005 O 966.672 1.68563 -3.64622 0
M  V30 10006 N 964.878 0.620074 -2.83907 0
M  V30 10007 H 964.425 -0.231449 -2.56558 0
M  V30 10008 H 964.383 1.48528 -2.77104 0
M  V30 10009 N 968.156 1.1691 -1.05688 0
M  V30 10010 C 969.386 1.90927 -0.789339 0
M  V30 10011 C 969.794 1.77339 0.659369 0
M  V30 10012 O 969.137 1.11147 1.4626 0
M  V30 10013 C 969.199 3.42361 -1.09677 0
M  V30 10014 C 968.863 3.79733 -2.54267 0
M  V30 10015 C 969.86 3.82163 -3.52487 0
M  V30 10016 C 967.545 4.10547 -2.89406 0
M  V30 10017 C 969.539 4.14884 -4.8389 0
M  V30 10018 C 967.226 4.42936 -4.21011 0
M  V30 10019 C 968.224 4.45084 -5.18063 0
M  V30 10020 O 967.912 4.76707 -6.47307 0
M  V30 10021 H 967.644 0.612466 -0.286115 0
M  V30 10022 H 970.198 1.4916 -1.4121 0
M  V30 10023 H 968.428 3.84446 -0.416924 0
M  V30 10024 H 970.117 3.97645 -0.814456 0
M  V30 10025 H 970.883 3.58476 -3.26681 0
M  V30 10026 H 966.762 4.08044 -2.14525 0
M  V30 10027 H 970.306 4.16475 -5.59638 0
M  V30 10028 H 966.203 4.66088 -4.46579 0
M  V30 10029 H 966.971 4.94544 -6.52203 0
M  V30 10030 N 969.634 0.838594 1.33437 0
M  V30 10031 C 970.582 0.260158 2.31141 0
M  V30 10032 C 971.576 -0.607706 1.58124 0
M  V30 10033 O 972.782 -0.497298 1.72994 0
M  V30 10034 H 969.157 0.0654031 0.74915 0
M  V30 10035 H 971.128 1.09874 2.77435 0
M  V30 10036 C 969.877 -0.550234 3.43319 0
M  V30 10037 H 969.2 0.108262 3.99653 0
M  V30 10038 H 970.64 -0.920815 4.1388 0
M  V30 10039 C 969.099 -1.729 2.89149 0
M  V30 10040 O 969.629 -2.82769 2.85315 0
M  V30 10041 N 967.835 -1.5508 2.45761 0
M  V30 10042 H 967.382 -0.657055 2.49079 0
M  V30 10043 H 967.34 -2.34099 2.0987 0
M  V30 10044 N 971.112 -1.45937 0.595003 0
M  V30 10045 C 972.059 -2.30427 -0.131165 0
M  V30 10046 C 973.029 -1.41355 -0.872232 0
M  V30 10047 O 974.214 -1.70296 -0.860467 0
M  V30 10048 C 971.354 -3.26045 -1.13087 0
M  V30 10049 C 970.467 -4.30218 -0.391982 0
M  V30 10050 C 969.602 -5.12953 -1.3803 0
M  V30 10051 C 968.641 -6.08865 -0.628505 0
M  V30 10052 N 967.778 -6.84425 -1.56548 0
M  V30 10053 H 972.618 -2.91992 0.595359 0
M  V30 10054 H 970.155 -1.43895 0.305405 0
M  V30 10055 H 972.113 -3.79937 -1.72348 0
M  V30 10056 H 970.743 -2.66261 -1.82496 0
M  V30 10057 H 969.795 -3.79086 0.315895 0
M  V30 10058 H 971.107 -4.98418 0.195173 0
M  V30 10059 H 970.261 -5.71184 -2.04534 0
M  V30 10060 H 969 -4.44743 -2.00138 0
M  V30 10061 H 968.005 -5.49777 0.0502431 0
M  V30 10062 H 969.23 -6.79099 -0.012641 0
M  V30 10063 H 967.176 -6.18913 -2.17444 0
M  V30 10064 H 967.093 -7.48931 -1.03145 0
M  V30 10065 H 968.361 -7.47204 -2.22049 0
M  V30 10066 N 972.59 -0.333456 -1.54032 0
M  V30 10067 C 973.5 0.536674 -2.28379 0
M  V30 10068 C 974.516 1.12068 -1.33104 0
M  V30 10069 O 975.692 1.13853 -1.66131 0
M  V30 10070 C 972.757 1.67677 -3.03456 0
M  V30 10071 C 971.818 1.12357 -4.14336 0
M  V30 10072 C 971.051 2.20933 -4.85823 0
M  V30 10073 O 971.274 3.41466 -4.569 0
M  V30 10074 O 970.208 1.85795 -5.72507 0
M  V30 10075 H 974.034 -0.0674003 -3.03625 0
M  V30 10076 H 971.619 -0.098823 -1.49073 0
M  V30 10077 H 973.501 2.34032 -3.50438 0
M  V30 10078 H 972.176 2.26684 -2.31076 0
M  V30 10079 H 971.083 0.424827 -3.7168 0
M  V30 10080 H 972.416 0.578497 -4.88789 0
M  V30 10081 N 974.068 1.57479 -0.061844 0
M  V30 10082 C 975.016 2.13346 0.926629 0
M  V30 10083 C 976.01 1.06787 1.31502 0
M  V30 10084 O 977.216 1.25181 1.29343 0
M  V30 10085 H 973.591 0.682046 0.316729 0
M  V30 10086 H 975.562 2.95279 0.430424 0
M  V30 10087 C 974.311 2.70198 2.18834 0
M  V30 10088 H 973.634 3.51859 1.89829 0
M  V30 10089 H 975.074 3.12897 2.86132 0
M  V30 10090 C 973.533 1.64481 2.9402 0
M  V30 10091 O 974.063 1.0639 3.87355 0
M  V30 10092 N 972.269 1.35749 2.56944 0
M  V30 10093 H 971.816 1.83177 1.81119 0
M  V30 10094 H 971.774 0.652469 3.07555 0
M  V30 10095 N 975.546 -0.211634 1.56173 0
M  V30 10096 C 976.793 -0.93455 1.79645 0
M  V30 10097 C 977.121 -1.83936 0.632294 0
M  V30 10098 O 976.376 -1.91919 -0.382841 0
M  V30 10099 C 976.675 -1.79657 3.08963 0
M  V30 10100 C 976.341 -1.04415 4.38644 0
M  V30 10101 C 975.003 -0.836351 4.73876 0
M  V30 10102 C 977.355 -0.51355 5.18664 0
M  V30 10103 C 974.683 -0.0861976 5.86637 0
M  V30 10104 C 977.035 0.223309 6.32206 0
M  V30 10105 C 975.699 0.442279 6.66033 0
M  V30 10106 H 974.969 -0.341976 0.657368 0
M  V30 10107 H 977.616 -0.202024 1.90431 0
M  V30 10108 H 975.921 -2.59726 2.93342 0
M  V30 10109 H 977.618 -2.35823 3.24328 0
M  V30 10110 H 974.208 -1.21611 4.10985 0
M  V30 10111 H 978.392 -0.661541 4.91871 0
M  V30 10112 H 973.648 0.0935866 6.11328 0
M  V30 10113 H 977.822 0.641917 6.93435 0
M  V30 10114 H 975.449 1.02547 7.53252 0
M  V30 10115 N 977.024 -1.50153 -0.478725 0
M  V30 10116 C 978.252 -1.64505 -1.25482 0
M  V30 10117 C 978.667 -0.325295 -1.85977 0
M  V30 10118 O 978.024 0.691885 -1.68876 0
M  V30 10119 C 978.075 -2.73052 -2.36906 0
M  V30 10120 O 977.796 -3.99911 -1.78894 0
M  V30 10121 C 979.297 -2.98309 -3.27912 0
M  V30 10122 H 976.517 -0.55318 -0.379781 0
M  V30 10123 H 979.061 -1.96329 -0.57229 0
M  V30 10124 H 977.216 -2.43944 -3.00949 0
M  V30 10125 H 977.63 -4.5988 -2.52211 0
M  V30 10126 H 979.104 -3.77942 -4.02323 0
M  V30 10127 H 979.581 -2.09082 -3.8624 0
M  V30 10128 H 980.187 -3.2892 -2.69614 0
M  V30 10129 N 978.502 0.731368 -1.39602 0
M  V30 10130 C 979.748 1.49321 -1.37227 0
M  V30 10131 C 980.081 1.94176 0.0306502 0
M  V30 10132 O 979.356 1.67046 0.996294 0
M  V30 10133 C 979.639 2.73035 -2.34784 0
M  V30 10134 C 979.492 2.34176 -3.84033 0
M  V30 10135 C 980.811 3.75146 -2.30116 0
M  V30 10136 H 977.93 0.541652 -0.499783 0
M  V30 10137 H 980.572 0.835968 -1.70621 0
M  V30 10138 H 978.722 3.29114 -2.06437 0
M  V30 10139 H 980.394 1.83701 -4.23145 0
M  V30 10140 H 978.637 1.66361 -4.00633 0
M  V30 10141 H 979.308 3.22786 -4.47787 0
M  V30 10142 H 981.784 3.28661 -2.55189 0
M  V30 10143 H 980.66 4.5937 -3.00451 0
M  V30 10144 H 980.921 4.22326 -1.30741 0
M  V30 10145 N 979.98 1.24838 0.961938 0
M  V30 10146 C 981.226 1.10321 1.70883 0
M  V30 10147 C 981.581 -0.353397 1.89127 0
M  V30 10148 O 980.874 -1.25721 1.44584 0
M  V30 10149 C 981.068 1.78289 3.09754 0
M  V30 10150 C 980.897 3.30409 3.05057 0
M  V30 10151 C 979.667 3.9964 3.09218 0
M  V30 10152 C 981.865 4.26916 2.86787 0
M  V30 10153 N 979.847 5.38594 2.94601 0
M  V30 10154 C 981.218 5.52906 2.80526 0
M  V30 10155 C 983.273 4.17421 2.71412 0
M  V30 10156 C 981.976 6.70487 2.60461 0
M  V30 10157 C 984.002 5.34686 2.52715 0
M  V30 10158 C 983.364 6.59611 2.47168 0
M  V30 10159 H 979.463 0.458353 0.63359 0
M  V30 10160 H 982.047 1.57835 1.14001 0
M  V30 10161 H 980.218 1.33281 3.64816 0
M  V30 10162 H 981.95 1.5658 3.73182 0
M  V30 10163 H 978.705 3.50847 3.18125 0
M  V30 10164 H 979.129 6.11497 2.90517 0
M  V30 10165 H 983.771 3.21592 2.74479 0
M  V30 10166 H 981.489 7.66433 2.56136 0
M  V30 10167 H 985.075 5.29194 2.41754 0
M  V30 10168 H 983.955 7.48821 2.32888 0
M  V30 10169 N 981.458 -1.16348 1.06306 0
M  V30 10170 C 982.421 -2.18941 0.678053 0
M  V30 10171 C 983.421 -1.58409 -0.276277 0
M  V30 10172 O 984.611 -1.74101 -0.0586435 0
M  V30 10173 C 981.743 -3.409 -0.00228684 0
M  V30 10174 H 982.936 -2.54516 1.58624 0
M  V30 10175 H 980.489 -1.30625 0.858298 0
M  V30 10176 H 981.224 -3.10881 -0.923212 0
M  V30 10177 H 981.009 -3.86089 0.683949 0
M  V30 10178 H 982.499 -4.16806 -0.257374 0
M  V30 10179 N 982.937 -0.845659 -1.3299 0
M  V30 10180 C 984.186 -0.440928 -1.96822 0
M  V30 10181 C 984.499 1.00668 -1.67706 0
M  V30 10182 O 985.705 1.51641 -2.25205 0
M  V30 10183 C 984.161 -0.73752 -3.52262 0
M  V30 10184 C 983.769 -2.20026 -3.90247 0
M  V30 10185 C 985.513 -0.400072 -4.22611 0
M  V30 10186 C 983.42 -2.44054 -5.38694 0
M  V30 10187 H 982.35 -0.161148 -0.736578 0
M  V30 10188 H 985.001 -1.03519 -1.51513 0
M  V30 10189 H 983.383 -0.0728025 -3.95933 0
M  V30 10190 H 984.557 -2.90602 -3.57613 0
M  V30 10191 H 982.872 -2.50135 -3.32899 0
M  V30 10192 H 985.469 -0.557136 -5.3179 0
M  V30 10193 H 985.812 0.657547 -4.11074 0
M  V30 10194 H 986.345 -1.0203 -3.84493 0
M  V30 10195 H 983.084 -3.48407 -5.55241 0
M  V30 10196 H 982.604 -1.78047 -5.72765 0
M  V30 10197 H 984.283 -2.27549 -6.05665 0
M  V30 10198 N 984.415 1.45619 -0.602734 0
M  V30 10199 C 985.363 2.32228 0.131484 0
M  V30 10200 C 986.357 1.45681 0.864484 0
M  V30 10201 O 987.563 1.62193 0.7806 0
M  V30 10202 H 983.938 0.7495 0.0612638 0
M  V30 10203 H 985.909 2.91941 -0.617496 0
M  V30 10204 C 984.658 3.29213 1.11866 0
M  V30 10205 H 983.981 3.95801 0.564061 0
M  V30 10206 H 985.421 3.92554 1.60242 0
M  V30 10207 C 983.88 2.56028 2.18978 0
M  V30 10208 O 984.41 2.33806 3.26646 0
M  V30 10209 N 982.616 2.16245 1.94129 0
M  V30 10210 H 982.163 2.34518 1.06579 0
M  V30 10211 H 982.121 1.67601 2.66003 0
M  V30 10212 N 985.893 0.34162 1.53853 0
M  V30 10213 C 986.823 -0.508431 2.27897 0
M  V30 10214 C 987.804 -1.10425 1.29384 0
M  V30 10215 O 988.989 -1.126 1.58224 0
M  V30 10216 C 986.119 -1.66048 3.05034 0
M  V30 10217 C 985.073 -1.19309 4.11035 0
M  V30 10218 C 984.399 -2.4335 4.76114 0
M  V30 10219 C 985.699 -0.294952 5.21467 0
M  V30 10220 H 987.393 0.109251 2.99201 0
M  V30 10221 H 984.939 0.0539847 1.43899 0
M  V30 10222 H 986.892 -2.26158 3.5557 0
M  V30 10223 H 985.616 -2.30503 2.31379 0
M  V30 10224 H 984.275 -0.614809 3.61408 0
M  V30 10225 H 983.923 -3.06208 3.99056 0
M  V30 10226 H 983.623 -2.1276 5.47729 0
M  V30 10227 H 985.147 -3.0419 5.29434 0
M  V30 10228 H 986.561 -0.80285 5.67651 0
M  V30 10229 H 984.958 -0.0810221 6.00045 0
M  V30 10230 H 986.028 0.669433 4.80257 0
M  V30 10231 N 987.371 -1.57444 0.0701946 0
M  V30 10232 C 988.303 -2.09611 -0.927142 0
M  V30 10233 C 989.316 -1.02791 -1.26245 0
M  V30 10234 O 990.505 -1.30309 -1.21992 0
M  V30 10235 C 987.605 -2.54015 -2.24342 0
M  V30 10236 C 986.778 -3.84389 -2.08719 0
M  V30 10237 C 985.837 -4.14904 -3.23638 0
M  V30 10238 O 984.863 -4.84528 -2.98699 0
M  V30 10239 N 986.065 -3.68322 -4.48686 0
M  V30 10240 H 988.83 -2.95803 -0.481753 0
M  V30 10241 H 986.391 -1.61487 -0.115572 0
M  V30 10242 H 988.383 -2.71492 -3.00124 0
M  V30 10243 H 986.953 -1.72969 -2.60385 0
M  V30 10244 H 986.173 -3.76308 -1.17415 0
M  V30 10245 H 987.461 -4.69729 -1.9553 0
M  V30 10246 H 986.859 -3.12073 -4.71834 0
M  V30 10247 H 985.416 -3.91002 -5.21499 0
M  V30 10248 N 988.849 0.203349 -1.56283 0
M  V30 10249 C 989.759 1.27266 -1.9708 0
M  V30 10250 C 990.775 1.50268 -0.877236 0
M  V30 10251 O 991.951 1.63044 -1.18231 0
M  V30 10252 C 989.016 2.59871 -2.29495 0
M  V30 10253 C 988.077 2.45012 -3.52516 0
M  V30 10254 C 987.31 3.71293 -3.83376 0
M  V30 10255 O 987.533 4.75106 -3.15643 0
M  V30 10256 O 986.467 3.67316 -4.76826 0
M  V30 10257 H 990.293 0.956461 -2.88246 0
M  V30 10258 H 987.878 0.407688 -1.4373 0
M  V30 10259 H 989.76 3.38152 -2.51458 0
M  V30 10260 H 988.435 2.91135 -1.415 0
M  V30 10261 H 987.342 1.6487 -3.35811 0
M  V30 10262 H 988.675 2.18683 -4.40952 0
M  V30 10263 N 990.327 1.50405 0.470755 0
M  V30 10264 C 991.26 1.63933 1.58749 0
M  V30 10265 C 992.238 0.487444 1.55122 0
M  V30 10266 O 993.422 0.706992 1.74739 0
M  V30 10267 C 990.549 1.62222 2.97324 0
M  V30 10268 C 989.595 2.82975 3.19104 0
M  V30 10269 S 990.428 4.44272 2.98969 0
M  V30 10270 C 991.584 4.45254 4.39886 0
M  V30 10271 H 991.817 2.58396 1.47034 0
M  V30 10272 H 989.35 1.39672 0.658115 0
M  V30 10273 H 991.308 1.6192 3.77217 0
M  V30 10274 H 989.969 0.689944 3.06429 0
M  V30 10275 H 989.162 2.78083 4.2034 0
M  V30 10276 H 988.764 2.80846 2.46984 0
M  V30 10277 H 991.056 4.18837 5.32524 0
M  V30 10278 H 991.999 5.4687 4.49821 0
M  V30 10279 H 992.407 3.74958 4.2198 0
M  V30 10280 N 991.805 -0.723954 1.39988 0
M  V30 10281 C 992.768 -1.81973 1.3935 0
M  V30 10282 C 993.768 -1.58187 0.288702 0
M  V30 10283 O 994.958 -1.65383 0.547181 0
M  V30 10284 C 992.09 -3.19937 1.177 0
M  V30 10285 H 993.283 -1.83939 2.36868 0
M  V30 10286 H 990.836 -0.928742 1.25714 0
M  V30 10287 H 991.571 -3.23625 0.209093 0
M  V30 10288 H 991.356 -3.386 1.97719 0
M  V30 10289 H 992.846 -3.99981 1.20022 0
M  V30 10290 N 993.283 -1.25346 -0.955304 0
M  V30 10291 C 994.215 -1.0146 -2.0552 0
M  V30 10292 C 995.228 0.0202256 -1.62787 0
M  V30 10293 O 996.417 -0.218251 -1.77161 0
M  V30 10294 C 993.517 -0.511727 -3.35014 0
M  V30 10295 C 992.69 -1.61256 -4.0659 0
M  V30 10296 C 991.749 -1.11017 -5.14356 0
M  V30 10297 O 990.775 -1.80443 -5.39842 0
M  V30 10298 N 991.977 0.0489001 -5.80479 0
M  V30 10299 H 994.742 -1.96166 -2.26581 0
M  V30 10300 H 992.303 -1.16543 -1.12381 0
M  V30 10301 H 994.295 -0.160123 -4.04383 0
M  V30 10302 H 992.865 0.341377 -3.1073 0
M  V30 10303 H 992.085 -2.13577 -3.31328 0
M  V30 10304 H 993.373 -2.35213 -4.51168 0
M  V30 10305 H 992.771 0.629021 -5.62192 0
M  V30 10306 H 991.328 0.341542 -6.50905 0
M  V30 10307 N 994.761 1.15782 -1.06922 0
M  V30 10308 C 996.01 1.85807 -0.784774 0
M  V30 10309 C 996.323 1.82967 0.691551 0
M  V30 10310 O 997.529 2.48632 1.0906 0
M  V30 10311 C 995.985 3.33469 -1.35375 0
M  V30 10312 C 995.593 3.44766 -2.86077 0
M  V30 10313 C 997.337 4.08707 -1.14713 0
M  V30 10314 C 995.244 4.86551 -3.36187 0
M  V30 10315 H 994.174 0.696046 -0.28989 0
M  V30 10316 H 996.825 1.30629 -1.28873 0
M  V30 10317 H 995.207 3.88292 -0.77754 0
M  V30 10318 H 996.381 3.00073 -3.49704 0
M  V30 10319 H 994.696 2.82969 -3.05479 0
M  V30 10320 H 997.293 5.13336 -1.49633 0
M  V30 10321 H 997.636 4.16211 -0.0858868 0
M  V30 10322 H 998.169 3.60142 -1.68946 0
M  V30 10323 H 994.908 4.84229 -4.41818 0
M  V30 10324 H 994.428 5.31844 -2.77312 0
M  V30 10325 H 996.107 5.55392 -3.31887 0
M  V30 10326 N 996.239 0.8527 1.3254 0
M  V30 10327 C 997.655 0.542298 1.50104 0
M  V30 10328 C 997.855 -0.927465 1.78886 0
M  V30 10329 O 996.911 -1.7106 1.85728 0
M  V30 10330 C 998.224 1.4276 2.64651 0
M  V30 10331 C 999.772 1.42782 2.78536 0
M  V30 10332 C 1000.25 2.29828 3.9616 0
M  V30 10333 N 1001.74 2.27613 4.03418 0
M  V30 10334 C 1002.47 2.91696 4.93661 0
M  V30 10335 N 1001.97 3.64883 5.88925 0
M  V30 10336 N 1003.76 2.81094 4.86768 0
M  V30 10337 H 995.913 1.80395 1.12123 0
M  V30 10338 H 998.176 0.770394 0.552446 0
M  V30 10339 H 997.882 2.47266 2.50105 0
M  V30 10340 H 997.756 1.11358 3.60388 0
M  V30 10341 H 1000.14 0.390417 2.92506 0
M  V30 10342 H 1000.22 1.78198 1.83519 0
M  V30 10343 H 999.868 3.33635 3.82949 0
M  V30 10344 H 999.798 1.91746 4.9045 0
M  V30 10345 H 1002.29 1.74402 3.3525 0
M  V30 10346 H 1002.6 4.10952 6.54476 0
M  V30 10347 H 1000.95 3.68991 5.88957 0
M  V30 10348 H 1004.14 2.23469 4.11314 0
M  V30 10349 H 1004.31 3.31318 5.56895 0
M  V30 10350 N 997.718 -1.45297 0.610449 0
M  V30 10351 C 999.134 -1.57225 0.274332 0
M  V30 10352 C 999.334 -1.60136 -1.22306 0
M  V30 10353 O 998.39 -1.5332 -2.00622 0
M  V30 10354 C 999.703 -2.85365 0.948028 0
M  V30 10355 C 1001.25 -2.99044 0.924216 0
M  V30 10356 C 1001.73 -4.29958 1.57798 0
M  V30 10357 N 1003.22 -4.36723 1.5436 0
M  V30 10358 C 1003.95 -5.36695 2.01857 0
M  V30 10359 N 1003.45 -6.43187 2.57453 0
M  V30 10360 N 1005.24 -5.28071 1.92608 0
M  V30 10361 H 997.392 -1.41651 1.58268 0
M  V30 10362 H 999.655 -0.67744 0.663158 0
M  V30 10363 H 999.361 -2.89125 2.00249 0
M  V30 10364 H 999.235 -3.74222 0.473062 0
M  V30 10365 H 1001.62 -2.94849 -0.121709 0
M  V30 10366 H 1001.7 -2.1159 1.43748 0
M  V30 10367 H 1001.35 -4.34912 2.62325 0
M  V30 10368 H 1001.28 -5.16234 1.03972 0
M  V30 10369 H 1003.77 -3.60374 1.13749 0
M  V30 10370 H 1004.08 -7.15722 2.91482 0
M  V30 10371 H 1002.43 -6.4393 2.61493 0
M  V30 10372 H 1005.62 -4.43783 1.48912 0
M  V30 10373 H 1005.79 -6.05832 2.29938 0
M  V30 10374 N 999.196 -0.349774 -1.5367 0
M  V30 10375 C 1000.14 0.504121 -2.25227 0
M  V30 10376 C 1001.11 1.09048 -1.2529 0
M  V30 10377 O 1002.3 1.12594 -1.54037 0
M  V30 10378 C 999.438 1.64601 -3.03316 0
M  V30 10379 C 998.551 1.08635 -4.18118 0
M  V30 10380 C 997.686 2.19605 -4.83681 0
M  V30 10381 C 996.725 1.61023 -5.90541 0
M  V30 10382 N 995.862 2.6576 -6.49858 0
M  V30 10383 H 1000.7 -0.112621 -2.97787 0
M  V30 10384 H 998.239 -0.0673503 -1.46946 0
M  V30 10385 H 1000.2 2.31836 -3.46854 0
M  V30 10386 H 998.827 2.23364 -2.33041 0
M  V30 10387 H 997.879 0.304748 -3.79177 0
M  V30 10388 H 999.191 0.617911 -4.94958 0
M  V30 10389 H 998.345 2.94693 -5.30322 0
M  V30 10390 H 997.084 2.69795 -4.06278 0
M  V30 10391 H 996.089 0.844428 -5.43277 0
M  V30 10392 H 997.314 1.11677 -6.69855 0
M  V30 10393 H 995.26 3.15193 -5.75317 0
M  V30 10394 H 995.177 2.23557 -7.2219 0
M  V30 10395 H 996.445 3.40598 -7.01151 0
M  V30 10396 N 1000.67 1.57404 -0.0785433 0
M  V30 10397 C 1001.92 1.93744 0.589024 0
M  V30 10398 C 1002.25 0.959087 1.69209 0
M  V30 10399 O 1001.5 -0.0241604 1.95685 0
M  V30 10400 C 1001.8 3.36684 1.1991 0
M  V30 10401 C 1001.47 4.50356 0.221493 0
M  V30 10402 C 1000.13 4.81177 -0.0474347 0
M  V30 10403 C 1002.48 5.1928 -0.446941 0
M  V30 10404 C 999.811 5.78257 -0.99177 0
M  V30 10405 C 1002.16 6.17372 -1.37964 0
M  V30 10406 C 1000.83 6.46607 -1.65697 0
M  V30 10407 H 1000.1 0.70896 0.215539 0
M  V30 10408 H 1002.74 1.90905 -0.150856 0
M  V30 10409 H 1001.05 3.36022 2.01486 0
M  V30 10410 H 1002.75 3.62095 1.72303 0
M  V30 10411 H 999.336 4.26322 0.441284 0
M  V30 10412 H 1003.52 4.95658 -0.252298 0
M  V30 10413 H 998.776 5.9923 -1.21381 0
M  V30 10414 H 1002.95 6.6988 -1.9035 0
M  V30 10415 H 1000.58 7.21643 -2.39031 0
M  V30 10416 N 1002.15 -0.195058 1.56388 0
M  V30 10417 C 1003.06 -1.26219 1.97752 0
M  V30 10418 C 1004.08 -1.49801 0.885192 0
M  V30 10419 O 1005.25 -1.62415 1.19094 0
M  V30 10420 C 1002.32 -2.5865 2.3087 0
M  V30 10421 C 1001.38 -2.4314 3.5381 0
M  V30 10422 C 1000.61 -3.69255 3.85339 0
M  V30 10423 O 1000.84 -4.73425 3.18159 0
M  V30 10424 O 999.77 -3.64782 4.78767 0
M  V30 10425 H 1003.6 -0.941161 2.88749 0
M  V30 10426 H 1001.18 -0.40006 1.43944 0
M  V30 10427 H 1003.06 -3.36814 2.53247 0
M  V30 10428 H 1001.74 -2.9038 1.43042 0
M  V30 10429 H 1000.64 -1.63086 3.3668 0
M  V30 10430 H 1001.98 -2.16341 4.42105 0
M  V30 10431 N 1003.63 -1.50653 -0.462772 0
M  V30 10432 C 1004.56 -1.73056 -1.5676 0
M  V30 10433 C 1005.54 -0.579699 -1.59917 0
M  V30 10434 O 1006.73 -0.819729 -1.76051 0
M  V30 10435 C 1003.86 -1.83234 -2.9503 0
M  V30 10436 C 1002.81 -2.98488 -3.06739 0
M  V30 10437 C 1002.14 -2.93818 -4.46738 0
M  V30 10438 C 1003.44 -4.38869 -2.83181 0
M  V30 10439 H 1005.13 -2.65562 -1.38265 0
M  V30 10440 H 1002.68 -1.27792 -0.663722 0
M  V30 10441 H 1004.63 -1.97491 -3.72257 0
M  V30 10442 H 1003.35 -0.873558 -3.14701 0
M  V30 10443 H 1002.01 -2.83895 -2.31946 0
M  V30 10444 H 1001.66 -1.95769 -4.63339 0
M  V30 10445 H 1001.36 -3.71197 -4.55507 0
M  V30 10446 H 1002.88 -3.10135 -5.25974 0
M  V30 10447 H 1004.3 -4.53945 -3.50153 0
M  V30 10448 H 1002.69 -5.17762 -3.03386 0
M  V30 10449 H 1003.76 -4.50663 -1.78972 0
M  V30 10450 N 1005.11 0.71652 -1.4037 0
M  V30 10451 C 1006.36 1.47638 -1.38597 0
M  V30 10452 C 1006.68 1.94496 0.0120141 0
M  V30 10453 O 1005.94 1.68437 0.996373 0
M  V30 10454 C 1006.24 2.71777 -2.32103 0
M  V30 10455 C 1005.9 2.43689 -3.79376 0
M  V30 10456 C 1004.57 2.35739 -4.195 0
M  V30 10457 C 1006.92 2.20099 -4.72447 0
M  V30 10458 C 1004.25 2.02265 -5.50732 0
M  V30 10459 C 1006.6 1.88138 -6.03976 0
M  V30 10460 C 1005.26 1.78669 -6.43143 0
M  V30 10461 H 1004.53 0.540246 -0.507163 0
M  V30 10462 H 1007.18 0.820822 -1.73017 0
M  V30 10463 H 1005.48 3.42166 -1.90865 0
M  V30 10464 H 1007.18 3.29864 -2.28015 0
M  V30 10465 H 1003.77 2.50763 -3.47585 0
M  V30 10466 H 1007.95 2.25198 -4.42266 0
M  V30 10467 H 1003.21 1.93471 -5.79982 0
M  V30 10468 H 1007.38 1.68898 -6.75608 0
M  V30 10469 H 1005.01 1.52498 -7.44747 0
M  V30 10470 N 1006.59 1.25851 0.948643 0
M  V30 10471 C 1007.81 1.13711 1.72851 0
M  V30 10472 C 1008.23 -0.308471 1.86263 0
M  V30 10473 O 1007.59 -1.21175 1.36465 0
M  V30 10474 C 1007.64 1.79271 3.13918 0
M  V30 10475 O 1007.36 3.18179 3.01154 0
M  V30 10476 C 1008.86 1.72988 4.08154 0
M  V30 10477 H 1006.08 0.396334 0.541443 0
M  V30 10478 H 1008.62 1.66329 1.18974 0
M  V30 10479 H 1006.78 1.30609 3.64719 0
M  V30 10480 H 1007.19 3.50507 3.90186 0
M  V30 10481 H 1008.67 2.2351 5.04725 0
M  V30 10482 H 1009.14 0.694866 4.33668 0
M  V30 10483 H 1009.75 2.21166 3.63271 0
M  V30 10484 N 1008.06 -1.15214 1.07534 0
M  V30 10485 C 1009.29 -1.89647 0.819614 0
M  V30 10486 C 1009.7 -1.78365 -0.631072 0
M  V30 10487 O 1009.05 -1.1346 -1.44474 0
M  V30 10488 C 1009.11 -3.40573 1.1511 0
M  V30 10489 C 1008.77 -3.7564 2.60276 0
M  V30 10490 C 1009.77 -3.76507 3.58523 0
M  V30 10491 C 1007.45 -4.05891 2.95901 0
M  V30 10492 C 1009.45 -4.07133 4.9043 0
M  V30 10493 C 1007.13 -4.36182 4.28005 0
M  V30 10494 C 1008.13 -4.36785 5.25079 0
M  V30 10495 O 1007.82 -4.66348 6.54809 0
M  V30 10496 H 1007.55 -0.607836 0.295822 0
M  V30 10497 H 1010.11 -1.46895 1.43565 0
M  V30 10498 H 1008.34 -3.83734 0.478033 0
M  V30 10499 H 1010.03 -3.96299 0.877615 0
M  V30 10500 H 1010.79 -3.53233 3.32342 0
M  V30 10501 H 1006.67 -4.0458 2.20989 0
M  V30 10502 H 1010.21 -4.07519 5.66193 0
M  V30 10503 H 1006.11 -4.58924 4.53937 0
M  V30 10504 H 1006.88 -4.84105 6.59988 0
M  V30 10505 N 1009.54 -0.859717 -1.32086 0
M  V30 10506 C 1010.77 -0.479724 -2.01262 0
M  V30 10507 C 1011.19 0.924985 -1.64589 0
M  V30 10508 O 1010.54 1.60439 -0.869803 0
M  V30 10509 C 1010.59 -0.615128 -3.56228 0
M  V30 10510 O 1010.31 -1.96451 -3.91585 0
M  V30 10511 C 1011.82 -0.234804 -4.42678 0
M  V30 10512 H 1009.04 -0.188007 -0.644123 0
M  V30 10513 H 1011.58 -1.15805 -1.68551 0
M  V30 10514 H 1009.73 0.0155268 -3.87397 0
M  V30 10515 H 1010.15 -1.96491 -4.86304 0
M  V30 10516 H 1011.62 -0.380534 -5.50687 0
M  V30 10517 H 1012.1 0.825189 -4.31378 0
M  V30 10518 H 1012.71 -0.840739 -4.16907 0
M  V30 10519 N 1011.02 1.44971 -0.618145 0
M  V30 10520 C 1012.44 1.57077 -0.282666 0
M  V30 10521 C 1012.64 1.60782 1.21456 0
M  V30 10522 O 1011.69 1.54382 1.99806 0
M  V30 10523 C 1013.01 2.84858 -0.963148 0
M  V30 10524 C 1014.55 2.9855 -0.940062 0
M  V30 10525 C 1015.03 4.29115 -1.60076 0
M  V30 10526 N 1016.52 4.35899 -1.56674 0
M  V30 10527 C 1017.25 5.35617 -2.04701 0
M  V30 10528 N 1016.75 6.41813 -2.6086 0
M  V30 10529 N 1018.54 5.27042 -1.95406 0
M  V30 10530 H 1010.69 1.4081 -1.59017 0
M  V30 10531 H 1012.96 0.673914 -0.666741 0
M  V30 10532 H 1012.66 2.88059 -2.0178 0
M  V30 10533 H 1012.54 3.73966 -0.492901 0
M  V30 10534 H 1014.92 2.94909 0.10607 0
M  V30 10535 H 1015.01 2.10825 -1.44868 0
M  V30 10536 H 1014.65 4.33514 -2.64627 0
M  V30 10537 H 1014.58 5.15675 -1.06708 0
M  V30 10538 H 1017.07 3.59766 -1.15659 0
M  V30 10539 H 1017.38 7.14166 -2.95273 0
M  V30 10540 H 1015.73 6.42534 -2.64905 0
M  V30 10541 H 1018.92 4.42987 -1.51263 0
M  V30 10542 H 1019.09 6.04604 -2.33147 0
M  V30 10543 N 1012.5 0.357919 1.53482 0
M  V30 10544 C 1013.75 -0.234163 2.01142 0
M  V30 10545 C 1014.07 -1.49399 1.2454 0
M  V30 10546 O 1013.33 -1.92981 0.325111 0
M  V30 10547 C 1013.63 -0.579617 3.52669 0
M  V30 10548 C 1013.29 0.584988 4.47089 0
M  V30 10549 C 1011.96 0.904558 4.72622 0
M  V30 10550 C 1014.31 1.3656 5.02992 0
M  V30 10551 C 1011.64 2.00685 5.5131 0
M  V30 10552 C 1013.99 2.45824 5.82884 0
M  V30 10553 C 1012.65 2.78325 6.06706 0
M  V30 10554 H 1011.92 -0.0856863 0.736029 0
M  V30 10555 H 1014.57 0.488801 1.85157 0
M  V30 10556 H 1012.87 -1.38349 3.66561 0
M  V30 10557 H 1014.57 -1.04985 3.87013 0
M  V30 10558 H 1011.16 0.32587 4.27359 0
M  V30 10559 H 1015.34 1.13196 4.83219 0
M  V30 10560 H 1010.6 2.26272 5.67988 0
M  V30 10561 H 1014.77 3.06732 6.25211 0
M  V30 10562 H 1012.4 3.63862 6.67464 0
M  V30 10563 N 1013.98 -1.5736 0.0868897 0
M  V30 10564 C 1015.25 -1.85495 -0.620561 0
M  V30 10565 C 1015.63 -0.982218 -1.86857 0
M  V30 10566 O 1014.98 -0.0524529 -2.2844 0
M  V30 10567 C 1015.19 -3.35996 -0.943798 0
M  V30 10568 C 1016.54 -4.03861 -1.31079 0
M  V30 10569 O 1017.56 -3.4083 -1.03507 0
M  V30 10570 O 1016.42 -5.15062 -1.82683 0
M  V30 10571 H 1013.52 -0.766822 -0.309697 0
M  V30 10572 H 1016.06 -1.69282 0.118966 0
M  V30 10573 H 1014.83 -3.91257 -0.0580628 0
M  V30 10574 H 1014.46 -3.57525 -1.73958 0
M  V30 10575 N 1015.45 0.186762 -1.56489 0
M  V30 10576 C 1016.68 0.925916 -1.85584 0
M  V30 10577 C 1017.1 1.75708 -0.671446 0
M  V30 10578 O 1016.46 1.7728 0.379687 0
M  V30 10579 C 1016.51 1.79107 -3.12975 0
M  V30 10580 O 1015.61 2.89088 -2.94112 0
M  V30 10581 H 1014.96 0.260275 -0.610863 0
M  V30 10582 H 1017.49 0.189561 -2.0372 0
M  V30 10583 H 1017.5 2.19408 -3.43983 0
M  V30 10584 H 1016.17 1.18044 -3.98796 0
M  V30 10585 H 1014.75 2.52482 -2.74422 0
M  V30 10586 N 1016.93 1.50896 0.454776 0
M  V30 10587 C 1017.84 1.73762 1.5762 0
M  V30 10588 C 1018.86 0.621206 1.62533 0
M  V30 10589 O 1020.03 0.901449 1.801 0
M  V30 10590 C 1017.1 1.84183 2.9373 0
M  V30 10591 C 1016.16 3.07982 2.99075 0
M  V30 10592 C 1015.39 3.17896 4.28693 0
M  V30 10593 O 1015.62 2.34184 5.20109 0
M  V30 10594 O 1014.55 4.10749 4.39964 0
M  V30 10595 H 1018.38 2.68856 1.41245 0
M  V30 10596 H 1015.96 1.35187 0.635984 0
M  V30 10597 H 1017.84 1.93123 3.74542 0
M  V30 10598 H 1016.52 0.922742 3.10269 0
M  V30 10599 H 1015.43 3.04531 2.17282 0
M  V30 10600 H 1016.76 3.99523 2.87476 0
M  V30 10601 N 1018.41 -0.709066 1.40748 0
M  V30 10602 C 1019.66 -1.4646 1.38681 0
M  V30 10603 C 1019.97 -1.95599 -0.0056209 0
M  V30 10604 O 1021.18 -2.71091 -0.148907 0
M  V30 10605 C 1019.63 -2.64771 2.43771 0
M  V30 10606 C 1019.24 -2.22474 3.88856 0
M  V30 10607 C 1020.99 -3.42475 2.50821 0
M  V30 10608 C 1018.89 -3.37663 4.85528 0
M  V30 10609 H 1017.82 -0.550084 0.515678 0
M  V30 10610 H 1020.47 -0.771074 1.66513 0
M  V30 10611 H 1018.86 -3.36325 2.09048 0
M  V30 10612 H 1020.03 -1.58297 4.32757 0
M  V30 10613 H 1018.35 -1.57798 3.85342 0
M  V30 10614 H 1020.94 -4.28201 3.20232 0
M  V30 10615 H 1021.29 -3.86738 1.54076 0
M  V30 10616 H 1021.82 -2.77969 2.84567 0
M  V30 10617 H 1018.56 -2.98426 5.83628 0
M  V30 10618 H 1018.08 -4.00734 4.46287 0
M  V30 10619 H 1019.76 -4.03636 5.05655 0
M  V30 10620 N 1019.89 -1.26353 -0.941956 0
M  V30 10621 C 1021.12 -1.14626 -1.72245 0
M  V30 10622 C 1021.53 0.298588 -1.86424 0
M  V30 10623 O 1020.89 1.2045 -1.37106 0
M  V30 10624 C 1020.94 -1.80933 -3.12963 0
M  V30 10625 O 1020.66 -3.19771 -2.99463 0
M  V30 10626 C 1022.16 -1.7515 -4.07231 0
M  V30 10627 H 1019.38 -0.3992 -0.539333 0
M  V30 10628 H 1021.93 -1.66958 -1.1809 0
M  V30 10629 H 1020.08 -1.32541 -3.64021 0
M  V30 10630 H 1020.5 -3.52571 -3.88322 0
M  V30 10631 H 1021.97 -2.26183 -5.03533 0
M  V30 10632 H 1022.45 -0.717855 -4.33294 0
M  V30 10633 H 1023.05 -2.2309 -3.62093 0
M  V30 10634 N 1021.37 1.14642 -1.08144 0
M  V30 10635 C 1022.3 2.21775 -0.730609 0
M  V30 10636 C 1023.28 1.67683 0.285702 0
M  V30 10637 O 1024.46 1.93567 0.156667 0
M  V30 10638 C 1021.59 3.47033 -0.136242 0
M  V30 10639 C 1020.55 4.14134 -1.0806 0
M  V30 10640 C 1019.87 5.33563 -0.348585 0
M  V30 10641 C 1021.17 4.62978 -2.41761 0
M  V30 10642 H 1022.87 2.51378 -1.62633 0
M  V30 10643 H 1020.41 1.20825 -0.783411 0
M  V30 10644 H 1022.37 4.21226 0.121182 0
M  V30 10645 H 1021.09 3.16786 0.7946 0
M  V30 10646 H 1019.75 3.41892 -1.32308 0
M  V30 10647 H 1019.4 4.99575 0.585974 0
M  V30 10648 H 1019.1 5.79402 -0.978122 0
M  V30 10649 H 1020.62 6.10519 -0.0991508 0
M  V30 10650 H 1022.04 5.28659 -2.21795 0
M  V30 10651 H 1020.43 5.1951 -3.00383 0
M  V30 10652 H 1021.5 3.78189 -3.03482 0
M  V30 10653 N 1022.85 0.866709 1.31628 0
M  V30 10654 C 1024.09 0.476731 1.97117 0
M  V30 10655 C 1024.42 -0.967813 1.68366 0
M  V30 10656 O 1023.7 -1.68101 0.978377 0
M  V30 10657 C 1023.98 0.730561 3.52611 0
M  V30 10658 C 1023.84 2.2244 3.90948 0
M  V30 10659 C 1025.15 0.19488 4.39668 0
M  V30 10660 H 1022.27 0.174682 0.715999 0
M  V30 10661 H 1024.92 1.08735 1.5581 0
M  V30 10662 H 1023.07 0.210834 3.87927 0
M  V30 10663 H 1024.74 2.81113 3.6575 0
M  V30 10664 H 1022.98 2.69824 3.39673 0
M  V30 10665 H 1023.65 2.35266 4.99353 0
M  V30 10666 H 1026.13 0.639478 4.11157 0
M  V30 10667 H 1025 0.401958 5.47426 0
M  V30 10668 H 1025.26 -0.90302 4.32779 0
M  V30 10669 N 1024.32 -1.44642 0.625825 0
M  V30 10670 C 1025.73 -1.85502 0.211175 0
M  V30 10671 C 1026.09 -1.52356 -1.2362 0
M  V30 10672 O 1025.21 -0.959051 -1.93988 0
M  V30 10673 C 1025.81 -3.36702 0.37648 0
M  V30 10674 C 1024.36 -3.76396 0.0163795 0
M  V30 10675 C 1023.51 -2.68517 0.692368 0
M  V30 10676 H 1026.46 -1.35183 0.831333 0
M  V30 10677 H 1026.48 -3.78536 -0.386106 0
M  V30 10678 H 1026 -3.60795 1.42999 0
M  V30 10679 H 1024.1 -3.57919 -1.0356 0
M  V30 10680 H 1024.21 -4.77231 0.422742 0
M  V30 10681 H 1022.57 -2.54377 0.128191 0
M  V30 10682 H 1023.36 -2.95444 1.74837 0
M  V30 10683 N 1025.8 -0.366053 -1.5329 0
M  V30 10684 C 1027.04 0.223558 -2.03174 0
M  V30 10685 C 1027.41 1.45955 -1.24745 0
M  V30 10686 O 1028.61 2.12481 -1.64637 0
M  V30 10687 C 1026.88 0.507899 -3.53773 0
M  V30 10688 S 1028.44 1.07111 -4.25526 0
M  V30 10689 H 1025.25 0.0650309 -0.70802 0
M  V30 10690 H 1027.86 -0.509028 -1.88757 0
M  V30 10691 H 1026.56 -0.39913 -4.08455 0
M  V30 10692 H 1026.09 1.26954 -3.72352 0
M  V30 10693 H 1028.11 2.35533 -4.36737 0
M  V30 10694 N 1027.28 1.57312 -0.0952337 0
M  V30 10695 C 1028.53 1.93533 0.568131 0
M  V30 10696 C 1028.84 0.979121 1.6933 0
M  V30 10697 O 1030.05 1.23506 2.41782 0
M  V30 10698 C 1028.5 3.43875 1.06198 0
M  V30 10699 C 1028.11 4.47988 -0.0334397 0
M  V30 10700 C 1029.86 3.89057 1.69807 0
M  V30 10701 C 1027.76 5.89483 0.475774 0
M  V30 10702 H 1026.69 0.7224 0.215995 0
M  V30 10703 H 1029.34 1.82699 -0.171257 0
M  V30 10704 H 1027.73 3.49862 1.85506 0
M  V30 10705 H 1028.9 4.53644 -0.808934 0
M  V30 10706 H 1027.21 4.12415 -0.574725 0
M  V30 10707 H 1029.81 4.92171 2.08978 0
M  V30 10708 H 1030.15 3.27713 2.5673 0
M  V30 10709 H 1030.69 3.85772 0.970815 0
M  V30 10710 H 1027.43 6.54528 -0.356837 0
M  V30 10711 H 1026.95 5.87297 1.21827 0
M  V30 10712 H 1028.63 6.40066 0.944697 0
M  V30 10713 N 1028.76 -0.17846 1.56586 0
M  V30 10714 C 1029.98 -0.916061 1.86073 0
M  V30 10715 C 1030.41 -1.75349 0.680754 0
M  V30 10716 O 1029.77 -1.77479 -0.37028 0
M  V30 10717 C 1029.81 -1.77445 3.1392 0
M  V30 10718 O 1028.92 -2.87524 2.95641 0
M  V30 10719 H 1028.26 -0.257031 0.612234 0
M  V30 10720 H 1030.79 -0.178755 2.03818 0
M  V30 10721 H 1030.8 -2.1758 3.45142 0
M  V30 10722 H 1029.47 -1.15927 3.99417 0
M  V30 10723 H 1028.05 -2.51023 2.75757 0
M  V30 10724 N 1030.24 -1.51135 -0.446768 0
M  V30 10725 C 1031.2 -1.71187 -1.52406 0
M  V30 10726 C 1032.2 -0.582037 -1.49897 0
M  V30 10727 O 1033.39 -0.849452 -1.52085 0
M  V30 10728 C 1030.52 -1.75962 -2.91976 0
M  V30 10729 H 1031.71 -2.67324 -1.35934 0
M  V30 10730 H 1029.27 -1.40982 -0.674813 0
M  V30 10731 H 1030 -0.816065 -3.13864 0
M  V30 10732 H 1029.79 -2.58065 -2.95203 0
M  V30 10733 H 1031.28 -1.93347 -3.70144 0
M  V30 10734 N 1031.71 0.701592 -1.41122 0
M  V30 10735 C 1032.64 1.82815 -1.45262 0
M  V30 10736 C 1033.62 1.67215 -0.311939 0
M  V30 10737 O 1034.81 1.87038 -0.522538 0
M  V30 10738 C 1031.94 3.20899 -1.32819 0
M  V30 10739 C 1030.89 3.51194 -2.44636 0
M  V30 10740 C 1030.22 4.8857 -2.17263 0
M  V30 10741 C 1031.52 3.50777 -3.86979 0
M  V30 10742 H 1033.21 1.79608 -2.39544 0
M  V30 10743 H 1030.76 0.862693 -1.15298 0
M  V30 10744 H 1032.71 3.99417 -1.34329 0
M  V30 10745 H 1031.44 3.24717 -0.350191 0
M  V30 10746 H 1030.1 2.75024 -2.42399 0
M  V30 10747 H 1029.74 4.89007 -1.17819 0
M  V30 10748 H 1029.44 5.09805 -2.92186 0
M  V30 10749 H 1030.97 5.69405 -2.20478 0
M  V30 10750 H 1032.38 4.19309 -3.90964 0
M  V30 10751 H 1030.78 3.83542 -4.61536 0
M  V30 10752 H 1031.85 2.49873 -4.15562 0
M  V30 10753 N 1033.19 1.2685 0.935242 0
M  V30 10754 C 1034.42 1.15645 1.72165 0
M  V30 10755 C 1034.84 -0.283909 1.85945 0
M  V30 10756 O 1034.2 -1.20567 1.354 0
M  V30 10757 C 1034.25 1.83689 3.10307 0
M  V30 10758 O 1033.35 1.12972 3.96625 0
M  V30 10759 H 1032.69 0.402629 0.528002 0
M  V30 10760 H 1035.22 1.67781 1.17093 0
M  V30 10761 H 1035.23 1.90749 3.60664 0
M  V30 10762 H 1033.91 2.88472 2.99595 0
M  V30 10763 H 1032.48 1.13929 3.5507 0
M  V30 10764 N 1034.67 -1.14067 1.0875 0
M  V30 10765 C 1035.6 -2.18926 0.67852 0
M  V30 10766 C 1036.62 -1.60441 -0.276163 0
M  V30 10767 O 1037.8 -1.78388 -0.0632788 0
M  V30 10768 C 1034.9 -3.38893 -0.0218852 0
M  V30 10769 C 1034.08 -4.26901 0.952582 0
M  V30 10770 C 1033.14 -5.25418 0.286859 0
M  V30 10771 O 1032.16 -5.61512 0.932354 0
M  V30 10772 N 1033.36 -5.72476 -0.961831 0
M  V30 10773 H 1036.13 -2.54629 1.58063 0
M  V30 10774 H 1033.69 -1.29321 0.974042 0
M  V30 10775 H 1035.68 -4.01864 -0.478278 0
M  V30 10776 H 1034.25 -3.01486 -0.826141 0
M  V30 10777 H 1033.47 -3.60812 1.58772 0
M  V30 10778 H 1034.76 -4.82563 1.61279 0
M  V30 10779 H 1034.16 -5.45287 -1.50594 0
M  V30 10780 H 1032.72 -6.37418 -1.36166 0
M  V30 10781 N 1036.15 -0.873678 -1.31166 0
M  V30 10782 C 1037.43 -0.40698 -1.91319 0
M  V30 10783 C 1037.81 1.1113 -1.79481 0
M  V30 10784 O 1037.15 1.94155 -1.20483 0
M  V30 10785 C 1037.36 -0.892484 -3.37396 0
M  V30 10786 C 1038.71 -0.920795 -4.14496 0
M  V30 10787 O 1039.74 -0.838386 -3.46193 0
M  V30 10788 O 1038.59 -1.04069 -5.365 0
M  V30 10789 H 1035.69 -0.122439 -0.817886 0
M  V30 10790 H 1038.23 -0.961835 -1.3981 0
M  V30 10791 H 1037.01 -1.93613 -3.40044 0
M  V30 10792 H 1036.63 -0.31615 -3.96341 0
M  V30 10793 N 1037.63 1.44308 -0.633487 0
M  V30 10794 C 1038.88 2.01239 -0.136356 0
M  V30 10795 C 1039.19 1.50438 1.25011 0
M  V30 10796 O 1040.39 1.99513 1.84138 0
M  V30 10797 C 1038.85 3.59382 -0.193011 0
M  V30 10798 C 1038.46 4.19178 -1.58093 0
M  V30 10799 C 1040.2 4.23778 0.247534 0
M  V30 10800 C 1038.11 5.69553 -1.59258 0
M  V30 10801 H 1037.04 0.752521 -0.0472109 0
M  V30 10802 H 1039.69 1.65498 -0.79263 0
M  V30 10803 H 1038.07 3.92432 0.530408 0
M  V30 10804 H 1039.25 3.97662 -2.32813 0
M  V30 10805 H 1037.56 3.67079 -1.96576 0
M  V30 10806 H 1040.16 5.34075 0.258401 0
M  V30 10807 H 1040.5 3.96285 1.27529 0
M  V30 10808 H 1041.03 3.9554 -0.423469 0
M  V30 10809 H 1037.77 6.01784 -2.59878 0
M  V30 10810 H 1037.29 5.93185 -0.888352 0
M  V30 10811 H 1038.97 6.33234 -1.32756 0
M  V30 10812 N 1039.1 0.374177 1.53094 0
M  V30 10813 C 1040.35 -0.212396 2.00981 0
M  V30 10814 C 1040.67 -1.48576 1.26293 0
M  V30 10815 O 1039.94 -1.92206 0.378642 0
M  V30 10816 H 1038.52 -0.0814763 0.742543 0
M  V30 10817 H 1041.19 0.502389 1.88314 0
M  V30 10818 H 1040.28 -0.433316 3.09077 0
M  V30 10819 N 1040.58 -1.57259 0.103575 0
M  V30 10820 C 1041.53 -2.11032 -0.863101 0
M  V30 10821 C 1042.52 -1.02737 -1.2383 0
M  V30 10822 O 1043.71 -1.28997 -1.21197 0
M  V30 10823 C 1040.84 -2.70099 -2.11899 0
M  V30 10824 C 1039.92 -3.85451 -1.76885 0
M  V30 10825 N 1040.31 -4.93137 -1.12469 0
M  V30 10826 C 1038.61 -3.95346 -2.06441 0
M  V30 10827 C 1039.31 -5.73681 -0.962527 0
M  V30 10828 N 1038.29 -5.22992 -1.48258 0
M  V30 10829 H 1042.09 -2.91671 -0.361264 0
M  V30 10830 H 1039.61 -1.62096 -0.0993794 0
M  V30 10831 H 1041.6 -3.06957 -2.82104 0
M  V30 10832 H 1040.26 -1.90918 -2.62641 0
M  V30 10833 H 1041.27 -5.11832 -0.790489 0
M  V30 10834 H 1037.95 -3.27185 -2.59338 0
M  V30 10835 H 1039.34 -6.70337 -0.458098 0
M  V30 10836 N 1042.06 0.170153 -1.56679 0
M  V30 10837 C 1043.31 0.884902 -1.81252 0
M  V30 10838 C 1043.62 1.83361 -0.681024 0
M  V30 10839 O 1044.83 2.59082 -0.811722 0
M  V30 10840 C 1043.28 1.62408 -3.21172 0
M  V30 10841 C 1042.89 0.718947 -4.42194 0
M  V30 10842 C 1044.64 2.32699 -3.55037 0
M  V30 10843 C 1042.54 1.45843 -5.73135 0
M  V30 10844 H 1041.47 0.33418 -0.675899 0
M  V30 10845 H 1044.12 0.137818 -1.82982 0
M  V30 10846 H 1042.51 2.41596 -3.13763 0
M  V30 10847 H 1043.68 -0.0360521 -4.60786 0
M  V30 10848 H 1042 0.125634 -4.1621 0
M  V30 10849 H 1044.59 2.88621 -4.50114 0
M  V30 10850 H 1044.94 3.08092 -2.79974 0
M  V30 10851 H 1045.47 1.60453 -3.64005 0
M  V30 10852 H 1042.21 0.746799 -6.51232 0
M  V30 10853 H 1041.73 2.18672 -5.58518 0
M  V30 10854 H 1043.41 2.0056 -6.1513 0
M  V30 10855 N 1043.54 1.5137 0.438746 0
M  V30 10856 C 1044.77 1.67774 1.21077 0
M  V30 10857 C 1045.18 0.374489 1.85049 0
M  V30 10858 O 1044.54 -0.646867 1.70651 0
M  V30 10859 C 1044.59 2.79238 2.29584 0
M  V30 10860 O 1044.31 4.04513 1.68228 0
M  V30 10861 C 1045.81 3.06898 3.19888 0
M  V30 10862 H 1043.03 0.563054 0.364981 0
M  V30 10863 H 1045.58 1.97777 0.520035 0
M  V30 10864 H 1043.73 2.51837 2.94375 0
M  V30 10865 H 1044.14 4.66405 2.3993 0
M  V30 10866 H 1045.62 3.88476 3.92162 0
M  V30 10867 H 1046.1 2.19249 3.80561 0
M  V30 10868 H 1046.7 3.35952 2.60799 0
M  V30 10869 N 1045.02 -0.694098 1.41492 0
M  V30 10870 C 1045.95 -1.81841 1.37873 0
M  V30 10871 C 1046.93 -1.60732 0.245772 0
M  V30 10872 O 1048.11 -1.83461 0.432917 0
M  V30 10873 C 1045.24 -3.18543 1.15099 0
M  V30 10874 C 1044.28 -3.5844 2.31133 0
M  V30 10875 S 1045.12 -3.63079 3.93617 0
M  V30 10876 C 1046.27 -5.02505 3.73148 0
M  V30 10877 H 1046.51 -1.84634 2.33018 0
M  V30 10878 H 1044.04 -0.862948 1.28033 0
M  V30 10879 H 1046 -3.9746 1.02646 0
M  V30 10880 H 1044.66 -3.13358 0.21572 0
M  V30 10881 H 1043.85 -4.57754 2.10896 0
M  V30 10882 H 1043.45 -2.86837 2.40002 0
M  V30 10883 H 1045.75 -5.90046 3.32945 0
M  V30 10884 H 1046.69 -5.27784 4.72069 0
M  V30 10885 H 1047.1 -4.74113 3.06394 0
M  V30 10886 N 1046.49 -1.27344 -0.928501 0
M  V30 10887 C 1047.43 -1.05797 -2.03322 0
M  V30 10888 C 1048.44 -0.0143086 -1.62794 0
M  V30 10889 O 1049.63 -0.25578 -1.76658 0
M  V30 10890 C 1046.73 -0.582673 -3.33853 0
M  V30 10891 C 1045.9 -1.69844 -4.03078 0
M  V30 10892 C 1044.96 -1.21902 -5.11885 0
M  V30 10893 O 1043.99 -1.91853 -5.35893 0
M  V30 10894 N 1045.19 -0.0742392 -5.80453 0
M  V30 10895 H 1047.95 -2.00928 -2.22369 0
M  V30 10896 H 1045.51 -1.189 -1.09883 0
M  V30 10897 H 1047.51 -0.245862 -4.03952 0
M  V30 10898 H 1046.08 0.27539 -3.11385 0
M  V30 10899 H 1045.3 -2.20557 -3.26723 0
M  V30 10900 H 1046.58 -2.4473 -4.46077 0
M  V30 10901 H 1045.98 0.509631 -5.634 0
M  V30 10902 H 1044.54 0.203399 -6.51483 0
M  V30 10903 N 1047.97 1.13488 -1.09353 0
M  V30 10904 C 1049.2 1.88319 -0.849681 0
M  V30 10905 C 1049.61 1.79347 0.602616 0
M  V30 10906 O 1048.95 1.15744 1.4265 0
M  V30 10907 C 1049.02 3.38698 -1.20514 0
M  V30 10908 C 1048.68 3.71452 -2.66219 0
M  V30 10909 C 1049.68 3.70755 -3.64467 0
M  V30 10910 C 1047.36 4.01132 -3.02321 0
M  V30 10911 C 1049.36 3.9928 -4.96845 0
M  V30 10912 C 1047.04 4.29318 -4.3489 0
M  V30 10913 C 1048.04 4.28376 -5.31961 0
M  V30 10914 O 1047.73 4.55872 -6.62145 0
M  V30 10915 H 1047.46 0.603053 -0.305455 0
M  V30 10916 H 1050.01 1.44592 -1.45884 0
M  V30 10917 H 1048.24 3.82925 -0.539022 0
M  V30 10918 H 1049.93 3.94852 -0.940552 0
M  V30 10919 H 1050.7 3.47901 -3.3792 0
M  V30 10920 H 1046.58 4.01013 -2.27398 0
M  V30 10921 H 1050.12 3.9846 -5.72604 0
M  V30 10922 H 1046.02 4.51644 -4.61181 0
M  V30 10923 H 1046.79 4.73544 -6.67607 0
M  V30 10924 N 1049.45 0.880621 1.30701 0
M  V30 10925 C 1050.38 0.288813 2.26365 0
M  V30 10926 C 1051.36 -0.588135 1.51591 0
M  V30 10927 O 1052.55 -0.539197 1.80624 0
M  V30 10928 C 1049.67 -0.590032 3.33521 0
M  V30 10929 C 1048.72 0.217003 4.25948 0
M  V30 10930 S 1049.55 1.60246 5.10961 0
M  V30 10931 C 1050.71 0.730023 6.21628 0
M  V30 10932 H 1050.94 1.09971 2.76213 0
M  V30 10933 H 1048.47 0.67978 1.3863 0
M  V30 10934 H 1050.43 -1.09136 3.95727 0
M  V30 10935 H 1049.09 -1.37498 2.82406 0
M  V30 10936 H 1048.29 -0.453481 5.01956 0
M  V30 10937 H 1047.89 0.650803 3.68294 0
M  V30 10938 H 1050.18 -0.0548644 6.77478 0
M  V30 10939 H 1051.12 1.46157 6.92852 0
M  V30 10940 H 1051.53 0.292854 5.6374 0
M  V30 10941 N 1050.93 -1.4397 0.641131 0
M  V30 10942 C 1052.16 -2.06004 0.156779 0
M  V30 10943 C 1052.57 -1.48059 -1.17793 0
M  V30 10944 O 1051.91 -0.601788 -1.73563 0
M  V30 10945 C 1051.97 -3.59493 -0.0217203 0
M  V30 10946 C 1051.64 -4.39957 1.23639 0
M  V30 10947 C 1052.63 -4.72797 2.16239 0
M  V30 10948 C 1050.32 -4.80168 1.4746 0
M  V30 10949 C 1052.31 -5.44741 3.30962 0
M  V30 10950 C 1050 -5.51859 2.62478 0
M  V30 10951 C 1051 -5.84067 3.54055 0
M  V30 10952 O 1050.69 -6.54296 4.67067 0
M  V30 10953 H 1050.42 -0.671061 0.0815685 0
M  V30 10954 H 1052.97 -1.85664 0.878517 0
M  V30 10955 H 1051.2 -3.78362 -0.798707 0
M  V30 10956 H 1052.89 -4.03263 -0.461893 0
M  V30 10957 H 1053.66 -4.42261 1.99073 0
M  V30 10958 H 1049.54 -4.54513 0.770652 0
M  V30 10959 H 1053.08 -5.69798 4.02462 0
M  V30 10960 H 1048.98 -5.81811 2.79583 0
M  V30 10961 H 1049.74 -6.72772 4.66177 0
M  V30 10962 N 1052.41 -0.382291 -1.52893 0
M  V30 10963 C 1053.65 0.202433 -2.01787 0
M  V30 10964 C 1053.99 1.47044 -1.26853 0
M  V30 10965 O 1053.26 1.91007 -0.366969 0
M  V30 10966 C 1053.54 0.477471 -3.5692 0
M  V30 10967 C 1053.4 -0.805339 -4.42532 0
M  V30 10968 C 1054.72 1.27106 -4.21346 0
M  V30 10969 H 1051.84 0.0720998 -0.733465 0
M  V30 10970 H 1054.48 -0.510478 -1.83014 0
M  V30 10971 H 1052.63 1.08478 -3.73048 0
M  V30 10972 H 1054.3 -1.4424 -4.3817 0
M  V30 10973 H 1052.54 -1.42216 -4.09826 0
M  V30 10974 H 1053.21 -0.567635 -5.49074 0
M  V30 10975 H 1055.69 0.757161 -4.09153 0
M  V30 10976 H 1054.57 1.43225 -5.29885 0
M  V30 10977 H 1054.83 2.28431 -3.78513 0
M  V30 10978 N 1053.89 1.57202 -0.111913 0
M  V30 10979 C 1055.3 1.82039 0.414591 0
M  V30 10980 C 1055.65 1.02863 1.67074 0
M  V30 10981 O 1054.77 0.263068 2.14795 0
M  V30 10982 C 1055.37 3.3019 0.758953 0
M  V30 10983 C 1053.93 3.55732 1.23012 0
M  V30 10984 C 1053.07 2.76301 0.235226 0
M  V30 10985 H 1056.02 1.55078 -0.337142 0
M  V30 10986 H 1056.05 3.44431 1.61701 0
M  V30 10987 H 1055.56 3.87788 -0.155473 0
M  V30 10988 H 1053.66 3.03483 2.16169 0
M  V30 10989 H 1053.77 4.64333 1.18034 0
M  V30 10990 H 1052.14 2.44287 0.720822 0
M  V30 10991 H 1052.92 3.36655 -0.672173 0
M  V30 10992 N 1055.36 -0.161842 1.56767 0
M  V30 10993 C 1056.77 -0.723385 1.72116 0
M  V30 10994 C 1057.13 -1.82355 0.723961 0
M  V30 10995 O 1056.25 -2.16107 -0.112643 0
M  V30 10996 C 1056.85 -1.31895 3.12072 0
M  V30 10997 C 1055.4 -1.82722 3.29074 0
M  V30 10998 C 1054.55 -0.709863 2.6806 0
M  V30 10999 H 1057.5 0.0636647 1.58572 0
M  V30 11000 H 1057.52 -2.18871 3.11249 0
M  V30 11001 H 1057.04 -0.51801 3.84627 0
M  V30 11002 H 1055.14 -2.6543 2.61491 0
M  V30 11003 H 1055.25 -1.96614 4.36898 0
M  V30 11004 H 1053.61 -1.13273 2.28126 0
M  V30 11005 H 1054.4 0.0793884 3.43208 0
M  V30 11006 N 1056.84 -1.516 -0.430713 0
M  V30 11007 C 1058.09 -1.64271 -1.17726 0
M  V30 11008 C 1058.41 -0.364406 -1.91565 0
M  V30 11009 O 1057.68 0.619991 -1.8583 0
M  V30 11010 H 1056.26 -0.605432 -0.437562 0
M  V30 11011 H 1058.92 -1.88557 -0.493166 0
M  V30 11012 H 1058.02 -2.47355 -1.90321 0
M  V30 11013 N 1058.32 0.686584 -1.41858 0
M  V30 11014 C 1059.28 1.78214 -1.44126 0
M  V30 11015 C 1060.28 1.57366 -0.330541 0
M  V30 11016 O 1061.47 1.63874 -0.590837 0
M  V30 11017 C 1058.6 3.16704 -1.26142 0
M  V30 11018 H 1059.8 1.77594 -2.41661 0
M  V30 11019 H 1057.35 0.895085 -1.28132 0
M  V30 11020 H 1058.09 3.22957 -0.294823 0
M  V30 11021 H 1057.87 3.33238 -2.06627 0
M  V30 11022 H 1059.36 3.96658 -1.30584 0
M  V30 11023 N 1059.8 1.27835 0.921735 0
M  V30 11024 C 1061.21 1.13151 1.48505 0
M  V30 11025 C 1061.56 -0.281373 1.94172 0
M  V30 11026 O 1060.68 -1.17487 1.8173 0
M  V30 11027 C 1061.28 2.04792 2.69899 0
M  V30 11028 C 1059.84 1.94196 3.22436 0
M  V30 11029 C 1058.99 1.96999 1.95158 0
M  V30 11030 H 1061.94 1.40641 0.735241 0
M  V30 11031 H 1061.96 1.60724 3.44889 0
M  V30 11032 H 1061.47 3.07615 2.36631 0
M  V30 11033 H 1059.57 0.943805 3.60448 0
M  V30 11034 H 1059.68 2.80744 3.88226 0
M  V30 11035 H 1058.05 1.41301 2.11911 0
M  V30 11036 H 1058.83 3.01487 1.64196 0
M  V30 11037 N 1061.28 -1.12907 1.09954 0
M  V30 11038 C 1062.52 -1.84579 0.840155 0
M  V30 11039 C 1062.85 -1.83605 -0.632692 0
M  V30 11040 O 1062.13 -1.27803 -1.46617 0
M  V30 11041 C 1062.41 -3.32489 1.38286 0
M  V30 11042 C 1062.27 -3.41946 2.92221 0
M  V30 11043 C 1063.58 -4.28091 1.0211 0
M  V30 11044 H 1060.7 -0.670169 0.306663 0
M  V30 11045 H 1063.35 -1.3249 1.36185 0
M  V30 11046 H 1061.5 -3.76978 0.939123 0
M  V30 11047 H 1063.17 -3.06128 3.45085 0
M  V30 11048 H 1061.41 -2.8265 3.29077 0
M  V30 11049 H 1062.08 -4.45983 3.25274 0
M  V30 11050 H 1064.56 -3.91701 1.4039 0
M  V30 11051 H 1063.43 -5.30005 1.42781 0
M  V30 11052 H 1063.69 -4.42044 -0.0700753 0
M  V30 11053 N 1062.75 -0.88754 -1.30232 0
M  V30 11054 C 1064.16 -0.55745 -1.78184 0
M  V30 11055 C 1064.52 0.926474 -1.72948 0
M  V30 11056 O 1063.64 1.72403 -1.3079 0
M  V30 11057 C 1064.24 -1.00512 -3.23547 0
M  V30 11058 C 1062.79 -0.726402 -3.69324 0
M  V30 11059 C 1061.94 -1.18666 -2.50627 0
M  V30 11060 H 1064.89 -1.07151 -1.17066 0
M  V30 11061 H 1064.91 -0.335185 -3.79021 0
M  V30 11062 H 1064.43 -2.08517 -3.27326 0
M  V30 11063 H 1062.53 0.341548 -3.71031 0
M  V30 11064 H 1062.64 -1.31575 -4.60679 0
M  V30 11065 H 1061 -0.605936 -2.47387 0
M  V30 11066 H 1061.79 -2.2745 -2.57141 0
M  V30 11067 N 1064.23 1.43628 -0.648757 0
M  V30 11068 C 1065.18 2.32529 0.057536 0
M  V30 11069 C 1066.17 1.48358 0.817699 0
M  V30 11070 O 1067.38 1.64595 0.728605 0
M  V30 11071 H 1063.76 0.75107 0.037388 0
M  V30 11072 H 1065.73 2.89829 -0.710062 0
M  V30 11073 C 1064.48 3.32605 1.01336 0
M  V30 11074 H 1063.8 3.97395 0.437855 0
M  V30 11075 H 1065.24 3.97453 1.47672 0
M  V30 11076 C 1063.7 2.62865 2.10722 0
M  V30 11077 O 1064.23 2.4408 3.19042 0
M  V30 11078 N 1062.43 2.22312 1.87152 0
M  V30 11079 H 1061.98 2.3779 0.990644 0
M  V30 11080 H 1061.94 1.75979 2.60536 0
M  V30 11081 N 1065.71 0.390394 1.52688 0
M  V30 11082 C 1066.94 -0.194013 2.06491 0
M  V30 11083 C 1067.36 -1.3965 1.26014 0
M  V30 11084 O 1066.72 -1.79038 0.285468 0
M  V30 11085 C 1066.77 -0.541306 3.56514 0
M  V30 11086 O 1065.87 -1.63509 3.78601 0
M  V30 11087 H 1065.21 -0.0223608 0.663623 0
M  V30 11088 H 1067.74 0.558179 1.96839 0
M  V30 11089 H 1067.75 -0.805301 3.99974 0
M  V30 11090 H 1066.43 0.337828 4.14526 0
M  V30 11091 H 1065 -1.36473 3.4703 0
M  V30 11092 N 1067.19 -1.57141 0.120249 0
M  V30 11093 C 1068.6 -1.5784 -0.236335 0
M  V30 11094 C 1068.8 -1.13304 -1.66626 0
M  V30 11095 O 1067.86 -0.821004 -2.3878 0
M  V30 11096 C 1069.17 -3.007 -0.00188211 0
M  V30 11097 C 1070.72 -3.12927 -0.0676838 0
M  V30 11098 C 1071.2 -4.57789 0.139092 0
M  V30 11099 N 1072.69 -4.63122 0.085104 0
M  V30 11100 C 1073.42 -5.72978 0.219983 0
M  V30 11101 N 1072.92 -6.91579 0.411102 0
M  V30 11102 N 1074.71 -5.61874 0.159469 0
M  V30 11103 H 1066.86 -1.84391 1.05422 0
M  V30 11104 H 1069.13 -0.852228 0.415225 0
M  V30 11105 H 1068.83 -3.37575 0.986718 0
M  V30 11106 H 1068.71 -3.70005 -0.733203 0
M  V30 11107 H 1071.09 -2.75909 -1.04681 0
M  V30 11108 H 1071.17 -2.46162 0.695538 0
M  V30 11109 H 1070.82 -4.95506 1.1152 0
M  V30 11110 H 1070.75 -5.22646 -0.644131 0
M  V30 11111 H 1073.24 -3.77854 -0.0590479 0
M  V30 11112 H 1073.55 -7.71149 0.504851 0
M  V30 11113 H 1071.9 -6.9356 0.447091 0
M  V30 11114 H 1075.09 -4.68099 0.0111131 0
M  V30 11115 H 1075.26 -6.47445 0.268028 0
M  V30 11116 N 1068.67 0.153526 -1.5685 0
M  V30 11117 C 1069.94 0.895545 -1.73895 0
M  V30 11118 C 1070.32 1.99625 -0.686504 0
M  V30 11119 O 1069.67 2.26579 0.2957 0
M  V30 11120 C 1069.88 1.44399 -3.17726 0
M  V30 11121 C 1071.23 1.90996 -3.79217 0
M  V30 11122 O 1072.25 1.54155 -3.21115 0
M  V30 11123 O 1071.11 2.58917 -4.81274 0
M  V30 11124 H 1068.21 0.422755 -0.710779 0
M  V30 11125 H 1070.75 0.139961 -1.69122 0
M  V30 11126 H 1069.52 0.652635 -3.85819 0
M  V30 11127 H 1069.15 2.26326 -3.26898 0
M  V30 11128 N 1070.14 1.51827 0.422667 0
M  V30 11129 C 1071.42 1.55772 1.18299 0
M  V30 11130 C 1071.8 0.330657 2.08494 0
M  V30 11131 O 1071.15 -0.683373 2.18042 0
M  V30 11132 C 1071.36 2.87941 1.97208 0
M  V30 11133 C 1072.71 3.4044 2.53744 0
M  V30 11134 O 1073.73 2.8959 2.07403 0
M  V30 11135 O 1072.59 4.29201 3.38303 0
M  V30 11136 H 1069.68 0.626889 0.539388 0
M  V30 11137 H 1072.23 1.64147 0.430545 0
M  V30 11138 H 1071 3.68702 1.31052 0
M  V30 11139 H 1070.63 2.82795 2.79486 0
M  V30 11140 N 1071.62 -0.679052 1.4222 0
M  V30 11141 C 1072.85 -1.46534 1.45641 0
M  V30 11142 C 1073.26 -1.89088 0.0649574 0
M  V30 11143 O 1072.6 -1.58436 -0.929712 0
M  V30 11144 C 1072.67 -2.74882 2.3169 0
M  V30 11145 C 1072.33 -2.5443 3.79624 0
M  V30 11146 C 1073.33 -2.19307 4.71382 0
M  V30 11147 C 1071.01 -2.69557 4.23845 0
M  V30 11148 C 1073.01 -1.99571 6.05351 0
M  V30 11149 C 1070.69 -2.49437 5.57875 0
M  V30 11150 C 1071.69 -2.14497 6.48444 0
M  V30 11151 O 1071.38 -1.94567 7.79999 0
M  V30 11152 H 1071.11 -0.457542 0.497626 0
M  V30 11153 H 1073.66 -0.842145 1.87342 0
M  V30 11154 H 1071.89 -3.39669 1.8483 0
M  V30 11155 H 1073.58 -3.3675 2.26615 0
M  V30 11156 H 1074.35 -2.0722 4.38503 0
M  V30 11157 H 1070.23 -2.95733 3.53642 0
M  V30 11158 H 1073.77 -1.72222 6.76007 0
M  V30 11159 H 1069.67 -2.61119 5.90328 0
M  V30 11160 H 1070.44 -2.092 7.91314 0
M  V30 11161 N 1073.1 -1.28322 -0.914942 0
M  V30 11162 C 1074.06 -1.12169 -1.99877 0
M  V30 11163 C 1075.06 -0.0617252 -1.60681 0
M  V30 11164 O 1076.25 -0.307405 -1.71466 0
M  V30 11165 C 1073.39 -0.711959 -3.33383 0
M  V30 11166 H 1074.58 -2.08425 -2.15636 0
M  V30 11167 H 1072.13 -1.11291 -1.09745 0
M  V30 11168 H 1072.87 0.251418 -3.23324 0
M  V30 11169 H 1072.65 -1.47764 -3.63192 0
M  V30 11170 H 1074.14 -0.621558 -4.12948 0
M  V30 11171 N 1074.58 1.12322 -1.10551 0
M  V30 11172 C 1075.82 1.84333 -0.859826 0
M  V30 11173 C 1076.18 1.82539 0.608052 0
M  V30 11174 O 1075.47 1.26086 1.44267 0
M  V30 11175 C 1075.67 3.31177 -1.34375 0
M  V30 11176 C 1075.5 3.47272 -2.85714 0
M  V30 11177 C 1074.27 3.60837 -3.5373 0
M  V30 11178 C 1076.46 3.42336 -3.83811 0
M  V30 11179 N 1074.45 3.65309 -4.93378 0
M  V30 11180 C 1075.82 3.53318 -5.09477 0
M  V30 11181 C 1077.87 3.25809 -3.76501 0
M  V30 11182 C 1076.57 3.49477 -6.28695 0
M  V30 11183 C 1078.6 3.23282 -4.9522 0
M  V30 11184 C 1077.96 3.34826 -6.19735 0
M  V30 11185 H 1074.06 0.690186 -0.367651 0
M  V30 11186 H 1076.65 1.34463 -1.40811 0
M  V30 11187 H 1074.82 3.79585 -0.822767 0
M  V30 11188 H 1076.55 3.91051 -1.04217 0
M  V30 11189 H 1073.3 3.63005 -3.04178 0
M  V30 11190 H 1073.73 3.71207 -5.66157 0
M  V30 11191 H 1078.37 3.15777 -2.81149 0
M  V30 11192 H 1076.09 3.5828 -7.24335 0
M  V30 11193 H 1079.67 3.11674 -4.91274 0
M  V30 11194 H 1078.55 3.32847 -7.10058 0
M  V30 11195 N 1076.06 0.894434 1.2976 0
M  V30 11196 C 1076.99 0.325525 2.26877 0
M  V30 11197 C 1078 -0.525218 1.54095 0
M  V30 11198 O 1079.19 -0.343231 1.75169 0
M  V30 11199 C 1076.29 -0.554952 3.34325 0
M  V30 11200 C 1075.46 0.268868 4.36573 0
M  V30 11201 C 1074.52 -0.543601 5.23385 0
M  V30 11202 O 1073.55 0.0370454 5.69188 0
M  V30 11203 N 1074.75 -1.85079 5.50205 0
M  V30 11204 H 1077.52 1.16021 2.76332 0
M  V30 11205 H 1075.08 0.758382 1.43039 0
M  V30 11206 H 1077.07 -1.10476 3.89329 0
M  V30 11207 H 1075.64 -1.29031 2.84727 0
M  V30 11208 H 1074.86 1.0001 3.81302 0
M  V30 11209 H 1076.15 0.833248 5.01931 0
M  V30 11210 H 1075.54 -2.34533 5.14792 0
M  V30 11211 H 1074.1 -2.34784 6.08046 0
M  V30 11212 N 1077.53 -1.43282 0.656365 0
M  V30 11213 C 1078.76 -2.06641 0.177245 0
M  V30 11214 C 1079.18 -1.48893 -1.14946 0
M  V30 11215 O 1078.54 -0.600099 -1.7108 0
M  V30 11216 C 1078.59 -3.60453 0.10299 0
M  V30 11217 O 1077.69 -4.01687 -0.933895 0
M  V30 11218 H 1077.04 -0.656978 0.096314 0
M  V30 11219 H 1079.57 -1.83733 0.900178 0
M  V30 11220 H 1079.58 -4.07923 -0.079291 0
M  V30 11221 H 1078.25 -4.01861 1.07147 0
M  V30 11222 H 1076.83 -3.65801 -0.724148 0
M  V30 11223 N 1079.01 -0.398486 -1.52479 0
M  V30 11224 C 1080.26 0.180394 -2.01293 0
M  V30 11225 C 1080.58 1.46548 -1.28641 0
M  V30 11226 O 1079.85 1.91579 -0.409173 0
M  V30 11227 H 1078.43 0.0696528 -0.743746 0
M  V30 11228 H 1081.09 -0.532285 -1.87491 0
M  V30 11229 H 1080.19 0.38409 -3.09728 0
M  V30 11230 N 1080.49 1.57075 -0.12858 0
M  V30 11231 C 1081.72 1.99876 0.534544 0
M  V30 11232 C 1082.13 1.00843 1.59612 0
M  V30 11233 O 1081.49 0.00268947 1.825 0
M  V30 11234 C 1081.54 3.42654 1.15198 0
M  V30 11235 O 1081.26 4.37899 0.132823 0
M  V30 11236 C 1082.76 4.00637 1.8975 0
M  V30 11237 H 1079.98 0.656073 0.140744 0
M  V30 11238 H 1082.53 2.03337 -0.217742 0
M  V30 11239 H 1080.68 3.40101 1.85499 0
M  V30 11240 H 1081.1 5.21253 0.582682 0
M  V30 11241 H 1082.57 5.02592 2.28266 0
M  V30 11242 H 1083.05 3.40313 2.7764 0
M  V30 11243 H 1083.65 4.06764 1.2419 0
M  V30 11244 N 1081.97 -0.145205 1.5693 0
M  V30 11245 C 1082.92 -1.19841 1.99351 0
M  V30 11246 C 1083.91 -1.44371 0.886197 0
M  V30 11247 O 1085.12 -1.44642 1.07138 0
M  V30 11248 H 1081.49 -0.403437 0.63462 0
M  V30 11249 H 1083.46 -0.813932 2.87085 0
M  V30 11250 C 1082.21 -2.52377 2.39167 0
M  V30 11251 H 1081.54 -2.34332 3.23927 0
M  V30 11252 H 1082.98 -3.24694 2.72671 0
M  V30 11253 C 1081.43 -3.1305 1.24503 0
M  V30 11254 O 1081.96 -3.97962 0.546739 0
M  V30 11255 N 1080.17 -2.72528 1.00882 0
M  V30 11256 H 1079.72 -2.03576 1.57843 0
M  V30 11257 H 1079.68 -3.13456 0.24351 0
M  V30 11258 N 1083.45 -1.52049 -0.414609 0
M  V30 11259 C 1084.41 -1.74382 -1.4874 0
M  V30 11260 C 1085.41 -0.613701 -1.48628 0
M  V30 11261 O 1086.6 -0.88152 -1.50249 0
M  V30 11262 C 1083.73 -1.82116 -2.88178 0
M  V30 11263 H 1084.93 -2.70147 -1.30233 0
M  V30 11264 H 1082.48 -1.42382 -0.644756 0
M  V30 11265 H 1083.21 -0.882457 -3.12063 0
M  V30 11266 H 1083 -2.64268 -2.89663 0
M  V30 11267 H 1084.49 -2.01155 -3.65959 0
M  V30 11268 N 1084.93 0.6715 -1.42579 0
M  V30 11269 C 1086.15 1.46471 -1.46836 0
M  V30 11270 C 1086.58 1.87921 -0.0820658 0
M  V30 11271 O 1085.93 1.5621 0.920217 0
M  V30 11272 C 1085.98 2.68796 -2.40377 0
M  V30 11273 O 1085.09 3.67188 -1.87741 0
M  V30 11274 H 1084.43 0.439901 -0.497376 0
M  V30 11275 H 1086.96 0.823342 -1.87303 0
M  V30 11276 H 1086.97 3.16828 -2.57068 0
M  V30 11277 H 1085.64 2.37967 -3.41093 0
M  V30 11278 H 1084.22 3.26237 -1.80621 0
M  V30 11279 N 1086.4 1.28806 0.908124 0
M  V30 11280 C 1087.65 1.1646 1.66027 0
M  V30 11281 C 1087.98 -0.285025 1.92097 0
M  V30 11282 O 1087.26 -1.20675 1.52538 0
M  V30 11283 C 1087.54 1.96951 3.01467 0
M  V30 11284 C 1087.39 3.50007 2.82515 0
M  V30 11285 C 1088.71 1.78932 4.02084 0
M  V30 11286 H 1085.83 0.424435 0.602515 0
M  V30 11287 H 1088.47 1.58185 1.0525 0
M  V30 11288 H 1086.62 1.61495 3.53344 0
M  V30 11289 H 1088.3 3.95401 2.37605 0
M  V30 11290 H 1086.54 3.75356 2.17463 0
M  V30 11291 H 1087.21 4.01591 3.7872 0
M  V30 11292 H 1089.69 2.09885 3.59287 0
M  V30 11293 H 1088.56 2.37615 4.94803 0
M  V30 11294 H 1088.82 0.742286 4.35824 0
M  V30 11295 N 1087.88 -1.11734 1.11145 0
M  V30 11296 C 1089.13 -1.83405 0.858413 0
M  V30 11297 C 1089.46 -1.84488 -0.615975 0
M  V30 11298 O 1088.71 -1.29123 -1.47057 0
M  V30 11299 C 1089.01 -3.3046 1.36129 0
M  V30 11300 C 1088.68 -3.4954 2.84837 0
M  V30 11301 C 1087.34 -3.54456 3.25445 0
M  V30 11302 C 1089.69 -3.56048 3.8063 0
M  V30 11303 C 1087.02 -3.63431 4.60581 0
M  V30 11304 C 1089.37 -3.66554 5.15579 0
M  V30 11305 C 1088.03 -3.69728 5.55749 0
M  V30 11306 H 1087.3 -0.671128 0.314115 0
M  V30 11307 H 1089.95 -1.31795 1.38933 0
M  V30 11308 H 1088.26 -3.84544 0.750547 0
M  V30 11309 H 1089.95 -3.84398 1.14188 0
M  V30 11310 H 1086.54 -3.46382 2.52423 0
M  V30 11311 H 1090.73 -3.51513 3.5036 0
M  V30 11312 H 1085.98 -3.64164 4.91116 0
M  V30 11313 H 1090.16 -3.70532 5.89643 0
M  V30 11314 H 1087.78 -3.76435 6.60455 0
M  V30 11315 N 1089.36 -0.901303 -1.29284 0
M  V30 11316 C 1090.61 -0.538241 -1.96149 0
M  V30 11317 C 1090.96 0.905804 -1.69744 0
M  V30 11318 O 1090.25 1.63383 -1.00083 0
M  V30 11319 C 1090.45 -0.768828 -3.49033 0
M  V30 11320 C 1090.28 -2.23373 -3.903 0
M  V30 11321 C 1089.05 -2.88148 -4.15089 0
M  V30 11322 C 1091.24 -3.20907 -4.01899 0
M  V30 11323 N 1089.23 -4.25065 -4.42937 0
M  V30 11324 C 1090.6 -4.42948 -4.33817 0
M  V30 11325 C 1092.65 -3.16475 -3.8438 0
M  V30 11326 C 1091.36 -5.6112 -4.50041 0
M  V30 11327 C 1093.38 -4.33934 -4.01815 0
M  V30 11328 C 1092.74 -5.54745 -4.34093 0
M  V30 11329 H 1088.84 -0.246593 -0.742102 0
M  V30 11330 H 1091.43 -1.16245 -1.5619 0
M  V30 11331 H 1089.6 -0.17399 -3.8801 0
M  V30 11332 H 1091.33 -0.37104 -4.02996 0
M  V30 11333 H 1088.08 -2.38935 -4.0891 0
M  V30 11334 H 1088.51 -4.95822 -4.60966 0
M  V30 11335 H 1093.15 -2.2416 -3.58486 0
M  V30 11336 H 1090.87 -6.53925 -4.74771 0
M  V30 11337 H 1094.45 -4.31993 -3.89709 0
M  V30 11338 H 1093.33 -6.4412 -4.47302 0
M  V30 11339 N 1090.84 1.42931 -0.663954 0
M  V30 11340 C 1091.77 2.29122 0.0598878 0
M  V30 11341 C 1092.78 1.43094 0.776404 0
M  V30 11342 O 1093.97 1.66923 0.63237 0
M  V30 11343 C 1091.07 3.20268 1.10822 0
M  V30 11344 C 1090.24 4.34892 0.4677 0
M  V30 11345 C 1089.3 5.06836 1.41435 0
M  V30 11346 O 1088.33 5.61735 0.918818 0
M  V30 11347 N 1089.53 5.11336 2.74801 0
M  V30 11348 H 1092.3 2.91885 -0.679945 0
M  V30 11349 H 1089.86 1.53739 -0.507543 0
M  V30 11350 H 1091.85 3.65264 1.74255 0
M  V30 11351 H 1090.42 2.59031 1.7499 0
M  V30 11352 H 1089.64 3.92679 -0.34593 0
M  V30 11353 H 1090.93 5.08796 0.0210237 0
M  V30 11354 H 1090.33 4.68124 3.1761 0
M  V30 11355 H 1088.88 5.60013 3.33509 0
M  V30 11356 N 1092.32 0.406567 1.52266 0
M  V30 11357 C 1093.27 -0.437483 2.23763 0
M  V30 11358 C 1094.25 -1.01557 1.248 0
M  V30 11359 O 1095.44 -0.938813 1.50051 0
M  V30 11360 C 1092.57 -1.55499 3.06064 0
M  V30 11361 C 1091.66 -0.987799 4.12436 0
M  V30 11362 N 1092.05 -0.147044 5.05586 0
M  V30 11363 C 1090.35 -1.25857 4.27874 0
M  V30 11364 C 1091.05 0.168229 5.81457 0
M  V30 11365 N 1090.02 -0.440245 5.41814 0
M  V30 11366 H 1093.82 0.211203 2.9314 0
M  V30 11367 H 1091.34 0.216843 1.60946 0
M  V30 11368 H 1093.34 -2.17224 3.55836 0
M  V30 11369 H 1092 -2.20632 2.38226 0
M  V30 11370 H 1093.01 0.217062 5.17445 0
M  V30 11371 H 1089.68 -1.90967 3.71265 0
M  V30 11372 H 1091.07 0.850516 6.66495 0
M  V30 11373 N 1093.79 -1.57004 0.136909 0
M  V30 11374 C 1095.04 -1.9541 -0.51569 0
M  V30 11375 C 1095.36 -1.02219 -1.66061 0
M  V30 11376 O 1094.63 -0.0818172 -1.95729 0
M  V30 11377 H 1093.21 -0.721504 -0.193497 0
M  V30 11378 H 1095.88 -1.93765 0.210046 0
M  V30 11379 H 1094.97 -2.98887 -0.898494 0
M  V30 11380 N 1095.27 0.136881 -1.57004 0
M  V30 11381 C 1096.2 1.19402 -1.95642 0
M  V30 11382 C 1097.22 1.38635 -0.853478 0
M  V30 11383 O 1098.41 1.38027 -1.13185 0
M  V30 11384 C 1095.51 2.55716 -2.22402 0
M  V30 11385 C 1094.68 2.57325 -3.53698 0
M  V30 11386 C 1093.74 3.75253 -3.68879 0
M  V30 11387 O 1092.76 3.5966 -4.41173 0
M  V30 11388 N 1093.97 4.93112 -3.06302 0
M  V30 11389 H 1096.73 0.865504 -2.8693 0
M  V30 11390 H 1094.29 0.326346 -1.58577 0
M  V30 11391 H 1096.28 3.33135 -2.29789 0
M  V30 11392 H 1094.85 2.80819 -1.37329 0
M  V30 11393 H 1094.07 1.65749 -3.5766 0
M  V30 11394 H 1095.36 2.55441 -4.40031 0
M  V30 11395 H 1094.76 5.08684 -2.47502 0
M  V30 11396 H 1093.32 5.68271 -3.19236 0
M  V30 11397 N 1096.75 1.52266 0.40654 0
M  V30 11398 C 1097.71 1.75168 1.47814 0
M  V30 11399 C 1098.71 0.621575 1.48301 0
M  V30 11400 O 1099.9 0.889476 1.4978 0
M  V30 11401 C 1097.04 1.83642 2.87208 0
M  V30 11402 H 1098.23 2.70834 1.28798 0
M  V30 11403 H 1095.78 1.42722 0.637196 0
M  V30 11404 H 1096.52 0.898994 3.1159 0
M  V30 11405 H 1096.3 2.65801 2.88257 0
M  V30 11406 H 1097.79 2.03093 3.64888 0
M  V30 11407 N 1098.23 -0.663929 1.42933 0
M  V30 11408 C 1099.46 -1.44981 1.47187 0
M  V30 11409 C 1099.87 -1.89009 0.0850091 0
M  V30 11410 O 1099.21 -1.59413 -0.912855 0
M  V30 11411 C 1099.27 -2.72409 2.34592 0
M  V30 11412 C 1098.94 -2.5039 3.82301 0
M  V30 11413 C 1099.93 -2.14295 4.73681 0
M  V30 11414 C 1097.62 -2.65047 4.2668 0
M  V30 11415 C 1099.61 -1.93139 6.07434 0
M  V30 11416 C 1097.3 -2.43506 5.60489 0
M  V30 11417 C 1098.3 -2.07607 6.50683 0
M  V30 11418 O 1097.98 -1.86284 7.82019 0
M  V30 11419 H 1097.72 -0.452238 0.502451 0
M  V30 11420 H 1100.27 -0.822228 1.88225 0
M  V30 11421 H 1098.5 -3.37689 1.88422 0
M  V30 11422 H 1100.19 -3.34327 2.30174 0
M  V30 11423 H 1100.96 -2.02557 4.40676 0
M  V30 11424 H 1096.83 -2.91966 3.56759 0
M  V30 11425 H 1100.38 -1.65042 6.77796 0
M  V30 11426 H 1096.28 -2.54844 5.93064 0
M  V30 11427 H 1097.04 -2.00795 7.93488 0
M  V30 11428 N 1099.71 -1.29285 -0.901281 0
M  V30 11429 C 1101.12 -1.15499 -1.46686 0
M  V30 11430 C 1101.47 0.250446 -1.94595 0
M  V30 11431 O 1100.59 1.14581 -1.83576 0
M  V30 11432 C 1101.19 -2.0906 -2.66607 0
M  V30 11433 C 1099.75 -1.99301 -3.19306 0
M  V30 11434 C 1098.89 -2.00079 -1.91999 0
M  V30 11435 H 1101.85 -1.41793 -0.712773 0
M  V30 11436 H 1101.87 -1.6619 -3.42288 0
M  V30 11437 H 1101.38 -3.11341 -2.31707 0
M  V30 11438 H 1099.48 -1.00103 -3.58901 0
M  V30 11439 H 1099.59 -2.86885 -3.8371 0
M  V30 11440 H 1097.96 -1.44655 -2.09636 0
M  V30 11441 H 1098.74 -3.04061 -1.59379 0
M  V30 11442 N 1101.18 1.11143 -1.11736 0
M  V30 11443 C 1102.6 1.34962 -0.851905 0
M  V30 11444 C 1102.8 1.94627 0.521797 0
M  V30 11445 O 1101.86 2.18121 1.27198 0
M  V30 11446 C 1103.17 2.27832 -1.96248 0
M  V30 11447 C 1104.72 2.41388 -1.9925 0
M  V30 11448 C 1105.19 3.37582 -3.09519 0
M  V30 11449 N 1106.68 3.45147 -3.08914 0
M  V30 11450 C 1107.42 4.19527 -3.90876 0
M  V30 11451 N 1106.91 4.96858 -4.82809 0
M  V30 11452 N 1108.71 4.15071 -3.79042 0
M  V30 11453 H 1100.86 0.707801 -2.0026 0
M  V30 11454 H 1103.12 0.374172 -0.871033 0
M  V30 11455 H 1102.83 1.91189 -2.95194 0
M  V30 11456 H 1102.7 3.28078 -1.86132 0
M  V30 11457 H 1105.09 2.77304 -1.00928 0
M  V30 11458 H 1105.17 1.40983 -2.13442 0
M  V30 11459 H 1104.81 3.02393 -4.0807 0
M  V30 11460 H 1104.74 4.37849 -2.92568 0
M  V30 11461 H 1107.23 2.89991 -2.42309 0
M  V30 11462 H 1107.55 5.5099 -5.41876 0
M  V30 11463 H 1105.89 4.96008 -4.86828 0
M  V30 11464 H 1109.08 3.53748 -3.06562 0
M  V30 11465 H 1109.26 4.72781 -4.4315 0
M  V30 11466 N 1102.66 0.908147 1.28804 0
M  V30 11467 C 1103.91 0.538404 1.95211 0
M  V30 11468 C 1104.24 -0.916886 1.71533 0
M  V30 11469 O 1103.49 -1.66643 1.02609 0
M  V30 11470 C 1103.79 0.787327 3.4862 0
M  V30 11471 C 1103.46 2.22129 3.92389 0
M  V30 11472 C 1102.12 2.61336 4.04051 0
M  V30 11473 C 1104.47 3.15471 4.14883 0
M  V30 11474 C 1101.8 3.93048 4.3558 0
M  V30 11475 C 1104.15 4.46741 4.47889 0
M  V30 11476 C 1102.82 4.85809 4.57761 0
M  V30 11477 H 1102.09 0.197016 0.714329 0
M  V30 11478 H 1104.73 1.14841 1.53244 0
M  V30 11479 H 1103.04 0.0944731 3.91686 0
M  V30 11480 H 1104.73 0.480503 3.98111 0
M  V30 11481 H 1101.32 1.90704 3.83836 0
M  V30 11482 H 1105.51 2.86391 4.05332 0
M  V30 11483 H 1100.76 4.23027 4.41428 0
M  V30 11484 H 1104.94 5.19087 4.64243 0
M  V30 11485 H 1102.57 5.87904 4.81947 0
M  V30 11486 N 1104.14 -1.42577 0.671525 0
M  V30 11487 C 1105.37 -2.06442 0.199152 0
M  V30 11488 C 1105.79 -1.50104 -1.1336 0
M  V30 11489 O 1105.15 -0.618211 -1.70434 0
M  V30 11490 C 1105.2 -3.60323 0.141215 0
M  V30 11491 O 1104.3 -4.02655 -0.891238 0
M  V30 11492 H 1103.64 -0.655919 0.103277 0
M  V30 11493 H 1106.17 -1.82768 0.919614 0
M  V30 11494 H 1106.18 -4.07984 -0.0360209 0
M  V30 11495 H 1104.86 -4.00702 1.11403 0
M  V30 11496 H 1103.43 -3.66549 -0.685309 0
M  V30 11497 N 1105.62 -0.414636 -1.52048 0
M  V30 11498 C 1106.55 0.399119 -2.30064 0
M  V30 11499 C 1107.53 1.04126 -1.34506 0
M  V30 11500 O 1108.71 1.04923 -1.63416 0
M  V30 11501 C 1105.84 1.51305 -3.12608 0
M  V30 11502 C 1104.8 0.995621 -4.16259 0
M  V30 11503 C 1104.12 2.20357 -4.87183 0
M  V30 11504 C 1105.42 0.0458178 -5.2228 0
M  V30 11505 H 1107.12 -0.251879 -2.98339 0
M  V30 11506 H 1104.66 -0.122579 -1.43477 0
M  V30 11507 H 1106.62 2.08936 -3.65956 0
M  V30 11508 H 1105.34 2.19201 -2.42113 0
M  V30 11509 H 1104 0.441676 -3.6393 0
M  V30 11510 H 1103.65 2.8682 -4.13211 0
M  V30 11511 H 1103.35 1.86385 -5.57256 0
M  V30 11512 H 1104.87 2.78584 -5.43345 0
M  V30 11513 H 1106.29 0.531102 -5.70835 0
M  V30 11514 H 1104.68 -0.20536 -5.99749 0
M  V30 11515 H 1105.75 -0.897807 -4.76516 0
M  V30 11516 N 1107.1 1.56929 -0.145233 0
M  V30 11517 C 1108.51 1.82877 0.375884 0
M  V30 11518 C 1108.86 1.06384 1.64854 0
M  V30 11519 O 1107.98 0.30857 2.14189 0
M  V30 11520 C 1108.58 3.31725 0.688744 0
M  V30 11521 C 1107.14 3.58261 1.15439 0
M  V30 11522 C 1106.28 2.76737 0.176565 0
M  V30 11523 H 1109.24 1.54328 -0.36996 0
M  V30 11524 H 1109.26 3.47784 1.54359 0
M  V30 11525 H 1108.77 3.87371 -0.237694 0
M  V30 11526 H 1106.87 3.08 2.09683 0
M  V30 11527 H 1106.98 4.66732 1.08158 0
M  V30 11528 H 1105.35 2.45761 0.668843 0
M  V30 11529 H 1106.13 3.35154 -0.743432 0
M  V30 11530 N 1108.58 -0.128553 1.57075 0
M  V30 11531 C 1109.82 -0.83801 1.84347 0
M  V30 11532 C 1110.15 -1.80325 0.728906 0
M  V30 11533 O 1109.41 -1.93678 -0.280571 0
M  V30 11534 C 1109.7 -1.63027 3.18052 0
M  V30 11535 C 1109.37 -0.810171 4.43562 0
M  V30 11536 C 1108.03 -0.583984 4.77643 0
M  V30 11537 C 1110.38 -0.237896 5.20657 0
M  V30 11538 C 1107.71 0.224887 5.86269 0
M  V30 11539 C 1110.06 0.558114 6.30133 0
M  V30 11540 C 1108.73 0.794706 6.62752 0
M  V30 11541 H 1108 -0.30665 0.674572 0
M  V30 11542 H 1110.65 -0.100797 1.91235 0
M  V30 11543 H 1108.95 -2.43812 3.06697 0
M  V30 11544 H 1110.65 -2.183 3.36372 0
M  V30 11545 H 1107.24 -0.996547 4.16854 0
M  V30 11546 H 1111.42 -0.399881 4.94686 0
M  V30 11547 H 1106.68 0.417507 6.09973 0
M  V30 11548 H 1110.85 1.00859 6.89058 0
M  V30 11549 H 1108.48 1.42331 7.46757 0
M  V30 11550 N 1110.05 -1.5248 -0.398459 0
M  V30 11551 C 1110.98 -1.79549 -1.49279 0
M  V30 11552 C 1111.96 -0.647004 -1.57315 0
M  V30 11553 O 1113.15 -0.893661 -1.72416 0
M  V30 11554 C 1110.28 -1.95582 -2.86993 0
M  V30 11555 C 1109.23 -3.1123 -2.93803 0
M  V30 11556 C 1108.56 -3.12501 -4.33874 0
M  V30 11557 C 1109.86 -4.50485 -2.64312 0
M  V30 11558 H 1111.55 -2.71187 -1.26877 0
M  V30 11559 H 1109.1 -1.30492 -0.608924 0
M  V30 11560 H 1111.05 -2.13102 -3.63546 0
M  V30 11561 H 1109.78 -1.00625 -3.10712 0
M  V30 11562 H 1108.44 -2.93477 -2.19697 0
M  V30 11563 H 1108.08 -2.15245 -4.54619 0
M  V30 11564 H 1107.78 -3.90183 -4.39353 0
M  V30 11565 H 1109.31 -3.32164 -5.12347 0
M  V30 11566 H 1110.72 -4.68387 -3.30585 0
M  V30 11567 H 1109.12 -5.30163 -2.81153 0
M  V30 11568 H 1110.19 -4.57848 -1.59696 0
M  V30 11569 N 1111.53 0.65634 -1.43283 0
M  V30 11570 C 1112.76 1.44906 -1.48382 0
M  V30 11571 C 1113.18 1.87823 -0.101993 0
M  V30 11572 O 1112.54 1.57178 0.903597 0
M  V30 11573 C 1112.59 2.66231 -2.43215 0
M  V30 11574 O 1111.69 3.65176 -1.91625 0
M  V30 11575 H 1111.03 0.434601 -0.502014 0
M  V30 11576 H 1113.56 0.803429 -1.88165 0
M  V30 11577 H 1113.57 3.14083 -2.60414 0
M  V30 11578 H 1112.25 2.34336 -3.43598 0
M  V30 11579 H 1110.82 3.24302 -1.84072 0
M  V30 11580 N 1113.01 1.29761 0.894412 0
M  V30 11581 C 1114.26 1.18214 1.64782 0
M  V30 11582 C 1114.59 -0.264635 1.92388 0
M  V30 11583 O 1113.86 -1.19051 1.53809 0
M  V30 11584 C 1114.15 2.00138 2.99361 0
M  V30 11585 C 1114 3.52984 2.78787 0
M  V30 11586 C 1115.32 1.83187 4.00163 0
M  V30 11587 H 1112.44 0.430802 0.597979 0
M  V30 11588 H 1115.08 1.59292 1.03566 0
M  V30 11589 H 1113.23 1.65233 3.51611 0
M  V30 11590 H 1114.9 3.97898 2.33398 0
M  V30 11591 H 1113.14 3.77642 2.13469 0
M  V30 11592 H 1113.82 4.05585 3.7444 0
M  V30 11593 H 1116.29 2.13684 3.57041 0
M  V30 11594 H 1115.17 2.42849 4.92255 0
M  V30 11595 H 1115.43 0.788469 4.35012 0
M  V30 11596 N 1114.49 -1.10549 1.12324 0
M  V30 11597 C 1115.45 -2.15039 0.793156 0
M  V30 11598 C 1116.45 -1.59651 -0.19192 0
M  V30 11599 O 1117.64 -1.74167 0.0337262 0
M  V30 11600 C 1114.77 -3.40433 0.17842 0
M  V30 11601 H 1115.97 -2.4575 1.71892 0
M  V30 11602 H 1113.52 -1.25892 0.926333 0
M  V30 11603 H 1114.25 -3.15338 -0.757122 0
M  V30 11604 H 1114.04 -3.81921 0.887645 0
M  V30 11605 H 1115.53 -4.17584 -0.0360724 0
M  V30 11606 N 1115.97 -0.914965 -1.28321 0
M  V30 11607 C 1117.19 -0.564023 -1.99583 0
M  V30 11608 C 1117.62 0.847821 -1.6791 0
M  V30 11609 O 1116.97 1.56682 -0.912171 0
M  V30 11610 C 1117.02 -0.781368 -3.52033 0
M  V30 11611 O 1116.13 0.159072 -4.12093 0
M  V30 11612 H 1115.47 -0.218565 -0.626997 0
M  V30 11613 H 1118 -1.23074 -1.63444 0
M  V30 11614 H 1118.01 -0.691946 -4.0209 0
M  V30 11615 H 1116.68 -1.81059 -3.7442 0
M  V30 11616 H 1115.26 0.0208145 -3.72894 0
M  V30 11617 N 1117.44 1.42219 -0.679077 0
M  V30 11618 C 1118.41 2.29197 -0.0125475 0
M  V30 11619 C 1119.41 1.43544 0.724691 0
M  V30 11620 O 1120.6 1.64884 0.562052 0
M  V30 11621 C 1117.73 3.26122 0.992846 0
M  V30 11622 H 1118.92 2.89629 -0.778154 0
M  V30 11623 H 1116.47 1.4993 -0.44166 0
M  V30 11624 H 1117.21 2.70637 1.78679 0
M  V30 11625 H 1116.99 3.89302 0.467544 0
M  V30 11626 H 1118.48 3.91339 1.45751 0
M  V30 11627 N 1118.92 0.422693 1.51826 0
M  V30 11628 C 1120.15 -0.14753 2.06073 0
M  V30 11629 C 1120.56 -1.38264 1.2915 0
M  V30 11630 O 1119.9 -1.8052 0.340306 0
M  V30 11631 C 1119.96 -0.549558 3.55275 0
M  V30 11632 C 1119.63 0.576704 4.53347 0
M  V30 11633 C 1120.63 1.44442 4.99432 0
M  V30 11634 C 1118.31 0.753264 4.9662 0
M  V30 11635 C 1120.3 2.47352 5.87448 0
M  V30 11636 C 1117.99 1.78566 5.84429 0
M  V30 11637 C 1118.99 2.64419 6.29739 0
M  V30 11638 O 1118.68 3.65888 7.15808 0
M  V30 11639 H 1118.41 -0.0178911 0.675763 0
M  V30 11640 H 1120.96 0.596258 1.96555 0
M  V30 11641 H 1119.19 -1.34583 3.62525 0
M  V30 11642 H 1120.88 -1.04925 3.92104 0
M  V30 11643 H 1121.65 1.31948 4.66706 0
M  V30 11644 H 1117.53 0.0946405 4.60903 0
M  V30 11645 H 1121.07 3.14397 6.22736 0
M  V30 11646 H 1116.97 1.91086 6.16568 0
M  V30 11647 H 1117.74 3.62294 7.33952 0
M  V30 11648 N 1120.4 -1.5685 0.153553 0
M  V30 11649 C 1121.63 -2.0041 -0.501949 0
M  V30 11650 C 1122.04 -1.03272 -1.58529 0
M  V30 11651 O 1121.38 -0.0227479 -1.83686 0
M  V30 11652 C 1121.44 -3.40402 -1.15613 0
M  V30 11653 C 1121.11 -4.56486 -0.216596 0
M  V30 11654 C 1122.1 -5.16894 0.558267 0
M  V30 11655 C 1119.79 -5.02162 -0.117592 0
M  V30 11656 C 1121.78 -6.21392 1.41951 0
M  V30 11657 C 1119.47 -6.06514 0.747255 0
M  V30 11658 C 1120.47 -6.65999 1.51441 0
M  V30 11659 O 1120.16 -7.6833 2.36483 0
M  V30 11660 H 1119.89 -0.66247 -0.134574 0
M  V30 11661 H 1122.44 -2.03908 0.247086 0
M  V30 11662 H 1120.67 -3.33762 -1.95294 0
M  V30 11663 H 1122.36 -3.68028 -1.71202 0
M  V30 11664 H 1123.13 -4.825 0.491851 0
M  V30 11665 H 1119.01 -4.55586 -0.704462 0
M  V30 11666 H 1122.55 -6.67751 2.01877 0
M  V30 11667 H 1118.45 -6.40335 0.81494 0
M  V30 11668 H 1119.21 -7.85578 2.29803 0
M  V30 11669 N 1121.88 0.120221 -1.57141 0
M  V30 11670 C 1122.81 1.17787 -1.95452 0
M  V30 11671 C 1123.79 1.40174 -0.824016 0
M  V30 11672 O 1124.97 1.54348 -1.08208 0
M  V30 11673 C 1122.1 2.53193 -2.24969 0
M  V30 11674 C 1121.15 2.47241 -3.47526 0
M  V30 11675 S 1121.98 1.91325 -5.00155 0
M  V30 11676 C 1123.13 3.28406 -5.32823 0
M  V30 11677 H 1123.37 0.851152 -2.84856 0
M  V30 11678 H 1120.9 0.326929 -1.50899 0
M  V30 11679 H 1122.86 3.31104 -2.42652 0
M  V30 11680 H 1121.52 2.83043 -1.36181 0
M  V30 11681 H 1120.71 3.46981 -3.65541 0
M  V30 11682 H 1120.31 1.7745 -3.29223 0
M  V30 11683 H 1122.61 4.24613 -5.2793 0
M  V30 11684 H 1123.55 3.1522 -6.34068 0
M  V30 11685 H 1123.96 3.26779 -4.603 0
M  V30 11686 N 1123.36 1.52689 0.390367 0
M  V30 11687 C 1124.6 1.67666 1.13553 0
M  V30 11688 C 1124.93 0.415903 1.90001 0
M  V30 11689 O 1124.19 -0.601664 1.86222 0
M  V30 11690 C 1124.49 2.86177 2.14096 0
M  V30 11691 C 1124.15 4.23671 1.54316 0
M  V30 11692 C 1122.81 4.61066 1.37739 0
M  V30 11693 C 1125.17 5.09278 1.1084 0
M  V30 11694 C 1122.49 5.81727 0.76231 0
M  V30 11695 C 1124.85 6.30562 0.507433 0
M  V30 11696 C 1123.51 6.66689 0.328945 0
M  V30 11697 H 1122.78 0.613533 0.415521 0
M  V30 11698 H 1125.43 1.8683 0.420339 0
M  V30 11699 H 1123.73 2.61424 2.9183 0
M  V30 11700 H 1125.43 2.9496 2.7166 0
M  V30 11701 H 1122.02 3.94214 1.68207 0
M  V30 11702 H 1126.2 4.80957 1.2245 0
M  V30 11703 H 1121.46 6.08327 0.612208 0
M  V30 11704 H 1125.63 6.96211 0.162248 0
M  V30 11705 H 1123.26 7.60052 -0.149748 0
M  V30 11706 N 1124.83 -0.648732 1.43629 0
M  V30 11707 C 1126.06 -1.43412 1.48716 0
M  V30 11708 C 1126.47 -1.88908 0.105051 0
M  V30 11709 O 1125.82 -1.60373 -0.895896 0
M  V30 11710 C 1125.88 -2.69906 2.37468 0
M  V30 11711 C 1125.54 -2.46321 3.84935 0
M  V30 11712 C 1126.54 -2.09259 4.75927 0
M  V30 11713 C 1124.22 -2.60506 4.29467 0
M  V30 11714 C 1126.22 -1.86686 6.09448 0
M  V30 11715 C 1123.9 -2.37548 5.6304 0
M  V30 11716 C 1124.9 -2.00694 6.52848 0
M  V30 11717 O 1124.59 -1.77979 7.83951 0
M  V30 11718 H 1124.32 -0.446883 0.507219 0
M  V30 11719 H 1126.88 -0.802218 1.89086 0
M  V30 11720 H 1125.11 -3.35672 1.91993 0
M  V30 11721 H 1126.8 -3.31867 2.33707 0
M  V30 11722 H 1127.56 -1.97872 4.428 0
M  V30 11723 H 1123.44 -2.88165 3.59836 0
M  V30 11724 H 1126.98 -1.57844 6.79508 0
M  V30 11725 H 1122.88 -2.48539 5.95734 0
M  V30 11726 H 1123.65 -1.92368 7.95573 0
M  V30 11727 N 1126.31 -1.30234 -0.887518 0
M  V30 11728 C 1127.59 -1.09572 -1.62029 0
M  V30 11729 C 1127.97 0.355877 -2.08079 0
M  V30 11730 O 1127.32 1.34692 -1.84582 0
M  V30 11731 C 1127.53 -2.0943 -2.79177 0
M  V30 11732 C 1128.88 -2.4101 -3.4957 0
M  V30 11733 O 1129.9 -2.0772 -2.89363 0
M  V30 11734 O 1128.76 -2.97943 -4.5814 0
M  V30 11735 H 1125.85 -0.420648 -0.712028 0
M  V30 11736 H 1128.4 -1.41651 -0.934517 0
M  V30 11737 H 1127.17 -3.07149 -2.42436 0
M  V30 11738 H 1126.79 -1.78154 -3.55453 0
M  V30 11739 N 1127.79 1.09952 -1.12909 0
M  V30 11740 C 1129.04 1.81657 -0.885729 0
M  V30 11741 C 1129.36 1.85863 0.589913 0
M  V30 11742 O 1128.63 1.34028 1.42875 0
M  V30 11743 H 1127.21 0.672743 -0.324694 0
M  V30 11744 H 1129.87 1.33013 -1.42456 0
M  V30 11745 H 1128.97 2.85018 -1.27167 0
M  V30 11746 N 1129.27 0.921757 1.27833 0
M  V30 11747 C 1130.5 0.574368 1.98455 0
M  V30 11748 C 1130.91 -0.850577 1.69002 0
M  V30 11749 O 1130.25 -1.57607 0.943708 0
M  V30 11750 C 1130.31 0.713235 3.52354 0
M  V30 11751 C 1129.98 2.1092 4.05415 0
M  V30 11752 C 1130.97 3.08276 4.18643 0
M  V30 11753 C 1128.66 2.42454 4.3991 0
M  V30 11754 C 1130.65 4.35279 4.6563 0
M  V30 11755 C 1128.34 3.69694 4.8659 0
M  V30 11756 C 1129.34 4.6592 4.99407 0
M  V30 11757 O 1129.02 5.90896 5.45066 0
M  V30 11758 H 1128.76 0.216955 0.640239 0
M  V30 11759 H 1131.31 1.23932 1.63798 0
M  V30 11760 H 1129.54 -0.00881115 3.86699 0
M  V30 11761 H 1131.23 0.371776 4.04194 0
M  V30 11762 H 1132 2.85234 3.92258 0
M  V30 11763 H 1127.87 1.68303 4.2918 0
M  V30 11764 H 1131.42 5.10391 4.75549 0
M  V30 11765 H 1127.32 3.92557 5.12415 0
M  V30 11766 H 1128.08 5.938 5.63333 0
M  V30 11767 N 1130.75 -1.41857 0.686609 0
M  V30 11768 C 1132.02 -1.95082 0.142228 0
M  V30 11769 C 1132.4 -1.62646 -1.34572 0
M  V30 11770 O 1131.75 -0.928757 -2.08773 0
M  V30 11771 C 1131.96 -3.46415 0.423955 0
M  V30 11772 C 1133.31 -4.23181 0.346842 0
M  V30 11773 O 1134.33 -3.54393 0.358363 0
M  V30 11774 O 1133.19 -5.4568 0.299211 0
M  V30 11775 H 1130.29 -0.826943 0.00974 0
M  V30 11776 H 1132.83 -1.51622 0.762153 0
M  V30 11777 H 1131.6 -3.63273 1.45424 0
M  V30 11778 H 1131.23 -3.96949 -0.227391 0
M  V30 11779 N 1132.22 -0.430739 -1.51599 0
M  V30 11780 C 1133.13 0.390347 -2.3133 0
M  V30 11781 C 1134.15 1.03376 -1.39962 0
M  V30 11782 O 1135.33 1.03057 -1.73035 0
M  V30 11783 C 1132.39 1.48039 -3.13505 0
M  V30 11784 C 1131.45 0.857792 -4.20643 0
M  V30 11785 C 1130.69 1.89589 -4.9889 0
M  V30 11786 O 1130.91 3.11717 -4.77691 0
M  V30 11787 O 1129.84 1.49009 -5.83164 0
M  V30 11788 H 1133.67 -0.260358 -3.02582 0
M  V30 11789 H 1131.25 -0.193428 -1.48143 0
M  V30 11790 H 1133.14 2.11272 -3.64612 0
M  V30 11791 H 1131.81 2.1153 -2.45024 0
M  V30 11792 H 1130.72 0.187592 -3.73629 0
M  V30 11793 H 1132.05 0.266474 -4.91478 0
M  V30 11794 N 1133.7 1.56767 -0.161869 0
M  V30 11795 C 1134.63 2.1466 0.803356 0
M  V30 11796 C 1135.65 1.09977 1.20037 0
M  V30 11797 O 1136.84 1.37199 1.14187 0
M  V30 11798 C 1133.94 2.66663 2.09151 0
M  V30 11799 C 1133.11 3.95904 1.85953 0
M  V30 11800 C 1132.17 4.33067 2.98897 0
M  V30 11801 O 1131.19 5.01119 2.69942 0
M  V30 11802 N 1132.4 3.93856 4.26448 0
M  V30 11803 H 1135.16 2.98108 0.308472 0
M  V30 11804 H 1132.72 1.61886 0.0212238 0
M  V30 11805 H 1134.71 2.88528 2.83784 0
M  V30 11806 H 1133.28 1.87856 2.49857 0
M  V30 11807 H 1132.5 3.82513 0.952751 0
M  V30 11808 H 1133.79 4.8033 1.67811 0
M  V30 11809 H 1133.19 3.39051 4.52836 0
M  V30 11810 H 1131.75 4.20741 4.97815 0
M  V30 11811 N 1135.18 -0.111886 1.57202 0
M  V30 11812 C 1136.46 -0.849125 1.76208 0
M  V30 11813 C 1136.84 -1.97735 0.73919 0
M  V30 11814 O 1136.19 -2.27283 -0.235523 0
M  V30 11815 C 1136.4 -1.35924 3.21443 0
M  V30 11816 C 1137.74 -1.80874 3.84148 0
M  V30 11817 O 1138.77 -1.45587 3.25089 0
M  V30 11818 O 1137.63 -2.46065 4.87969 0
M  V30 11819 H 1134.72 -0.403761 0.721738 0
M  V30 11820 H 1137.27 -0.0950726 1.69433 0
M  V30 11821 H 1136.04 -0.550113 3.87414 0
M  V30 11822 H 1135.66 -2.17579 3.32784 0
M  V30 11823 N 1136.66 -1.52894 -0.382264 0
M  V30 11824 C 1137.59 -1.74413 -1.48703 0
M  V30 11825 C 1138.6 -0.624663 -1.50339 0
M  V30 11826 O 1139.79 -0.900527 -1.54119 0
M  V30 11827 C 1136.89 -1.79387 -2.8753 0
M  V30 11828 C 1136.07 -3.08794 -3.09783 0
M  V30 11829 C 1135.12 -3.05226 -4.2863 0
M  V30 11830 O 1134.15 -3.79073 -4.24609 0
M  V30 11831 N 1135.35 -2.2488 -5.35172 0
M  V30 11832 H 1138.12 -2.69734 -1.30628 0
M  V30 11833 H 1135.68 -1.51465 -0.571842 0
M  V30 11834 H 1137.67 -1.74498 -3.65147 0
M  V30 11835 H 1136.24 -0.914233 -2.98932 0
M  V30 11836 H 1135.46 -3.27118 -2.19971 0
M  V30 11837 H 1136.75 -3.94347 -3.21509 0
M  V30 11838 H 1136.15 -1.64363 -5.41296 0
M  V30 11839 H 1134.7 -2.25825 -6.1143 0
M  V30 11840 N 1138.14 0.641106 -1.43971 0
M  V30 11841 C 1139.09 1.77474 -1.50352 0
M  V30 11842 C 1140.08 1.65173 -0.376052 0
M  V30 11843 O 1141.29 1.71373 -0.550572 0
M  V30 11844 H 1137.66 0.585747 -0.471597 0
M  V30 11845 H 1139.63 1.69213 -2.45784 0
M  V30 11846 C 1138.38 3.15778 -1.45532 0
M  V30 11847 H 1137.7 3.25886 -2.316 0
M  V30 11848 H 1139.14 3.95022 -1.54058 0
M  V30 11849 C 1137.6 3.36447 -0.174624 0
M  V30 11850 O 1138.13 3.9446 0.759215 0
M  V30 11851 N 1136.34 2.90487 -0.0809383 0
M  V30 11852 H 1135.89 2.43461 -0.841691 0
M  V30 11853 H 1135.84 3.04693 0.775231 0
M  V30 11854 N 1139.62 1.30703 0.880598 0
M  V30 11855 C 1140.85 1.22536 1.66339 0
M  V30 11856 C 1141.25 -0.213507 1.87991 0
M  V30 11857 O 1140.6 -1.15236 1.43061 0
M  V30 11858 C 1140.66 1.88798 3.05934 0
M  V30 11859 C 1140.32 3.38131 3.07435 0
M  V30 11860 C 1141.32 4.34053 2.86171 0
M  V30 11861 C 1139 3.79651 3.28893 0
M  V30 11862 C 1141 5.69469 2.86328 0
M  V30 11863 C 1138.69 5.15182 3.2868 0
M  V30 11864 C 1139.68 6.09902 3.07423 0
M  V30 11865 O 1139.37 7.42957 3.07034 0
M  V30 11866 H 1139.1 0.425018 0.525677 0
M  V30 11867 H 1141.66 1.72939 1.1082 0
M  V30 11868 H 1139.89 1.3293 3.63134 0
M  V30 11869 H 1141.58 1.74691 3.66385 0
M  V30 11870 H 1142.34 4.03307 2.69385 0
M  V30 11871 H 1138.22 3.06365 3.44473 0
M  V30 11872 H 1141.77 6.43375 2.69655 0
M  V30 11873 H 1137.66 5.45567 3.45002 0
M  V30 11874 H 1138.43 7.52 3.23169 0
M  V30 11875 N 1141.09 -1.09351 1.1349 0
M  V30 11876 C 1142.34 -1.81185 0.89535 0
M  V30 11877 C 1142.66 -1.86173 -0.580048 0
M  V30 11878 O 1141.93 -1.34784 -1.42162 0
M  V30 11879 H 1140.51 -0.671011 0.328257 0
M  V30 11880 H 1143.17 -1.32255 1.43159 0
M  V30 11881 H 1142.27 -2.84339 1.28676 0
M  V30 11882 N 1142.57 -0.928524 -1.27343 0
M  V30 11883 C 1143.8 -0.585734 -1.98436 0
M  V30 11884 C 1144.21 0.83644 -1.69261 0
M  V30 11885 O 1143.57 1.55603 -0.953626 0
M  V30 11886 C 1143.62 -0.803092 -3.52467 0
M  V30 11887 O 1143.34 -2.16932 -3.80621 0
M  V30 11888 C 1144.84 -0.469127 -4.40811 0
M  V30 11889 H 1142.06 -0.221887 -0.633251 0
M  V30 11890 H 1144.61 -1.24577 -1.62175 0
M  V30 11891 H 1142.76 -0.189846 -3.86935 0
M  V30 11892 H 1143.18 -2.21992 -4.75205 0
M  V30 11893 H 1144.65 -0.671906 -5.47895 0
M  V30 11894 H 1145.13 0.595365 -4.35146 0
M  V30 11895 H 1145.73 -1.06055 -4.11865 0
M  V30 11896 N 1144.05 1.41491 -0.694123 0
M  V30 11897 C 1145.01 2.2917 -0.0368562 0
M  V30 11898 C 1146.01 1.44305 0.709426 0
M  V30 11899 O 1147.2 1.6547 0.544533 0
M  V30 11900 C 1144.33 3.27156 0.958201 0
M  V30 11901 H 1145.53 2.88787 -0.808829 0
M  V30 11902 H 1143.08 1.49453 -0.457538 0
M  V30 11903 H 1143.82 2.72516 1.75799 0
M  V30 11904 H 1143.6 3.89776 0.426227 0
M  V30 11905 H 1145.09 3.92863 1.41592 0
M  V30 11906 N 1145.53 0.438773 1.51369 0
M  V30 11907 C 1146.48 -0.386324 2.29369 0
M  V30 11908 C 1147.47 -1.0196 1.3528 0
M  V30 11909 O 1148.68 -0.9544 1.52615 0
M  V30 11910 H 1145.05 -0.143397 0.738201 0
M  V30 11911 H 1147.02 0.292372 2.96964 0
M  V30 11912 C 1145.77 -1.47426 3.14898 0
M  V30 11913 H 1145.09 -0.996335 3.87186 0
M  V30 11914 H 1146.53 -2.02481 3.72529 0
M  V30 11915 C 1144.99 -2.45831 2.30366 0
M  V30 11916 O 1145.52 -3.50398 1.96428 0
M  V30 11917 N 1143.73 -2.16754 1.93561 0
M  V30 11918 H 1143.28 -1.31748 2.2136 0
M  V30 11919 H 1143.23 -2.82836 1.373 0
M  V30 11920 N 1147.01 -1.56678 0.170181 0
M  V30 11921 C 1148.23 -2.01223 -0.481362 0
M  V30 11922 C 1148.65 -1.05039 -1.56883 0
M  V30 11923 O 1148.01 -0.0510751 -1.82429 0
M  V30 11924 C 1148.06 -3.45588 -1.06073 0
M  V30 11925 O 1147.78 -4.38097 -0.0166754 0
M  V30 11926 C 1149.28 -4.05527 -1.79061 0
M  V30 11927 H 1146.5 -0.659574 -0.1233 0
M  V30 11928 H 1149.04 -2.02689 0.271576 0
M  V30 11929 H 1147.2 -3.449 -1.76417 0
M  V30 11930 H 1147.61 -5.22615 -0.444276 0
M  V30 11931 H 1149.09 -5.08467 -2.1486 0
M  V30 11932 H 1149.56 -3.47554 -2.68519 0
M  V30 11933 H 1150.17 -4.09914 -1.13361 0
M  V30 11934 N 1148.48 0.103547 -1.57259 0
M  V30 11935 C 1149.43 1.14513 -2.02459 0
M  V30 11936 C 1150.43 1.4197 -0.924163 0
M  V30 11937 O 1151.63 1.41751 -1.10936 0
M  V30 11938 H 1148.01 0.386469 -0.645094 0
M  V30 11939 H 1149.98 0.737531 -2.89142 0
M  V30 11940 C 1148.73 2.45948 -2.45775 0
M  V30 11941 H 1148.05 2.25662 -3.30026 0
M  V30 11942 H 1149.49 3.17351 -2.81184 0
M  V30 11943 C 1147.95 3.09639 -1.32759 0
M  V30 11944 O 1148.48 3.96372 -0.652059 0
M  V30 11945 N 1146.68 2.69757 -1.08072 0
M  V30 11946 H 1146.23 1.9932 -1.63185 0
M  V30 11947 H 1146.19 3.127 -0.326532 0
M  V30 11948 N 1149.96 1.53094 0.37415 0
M  V30 11949 C 1150.91 1.79585 1.47824 0
M  V30 11950 C 1151.9 0.664513 1.55822 0
M  V30 11951 O 1153.11 0.84729 1.58811 0
M  V30 11952 H 1149.48 0.568474 0.492282 0
M  V30 11953 H 1151.46 2.72014 1.22681 0
M  V30 11954 C 1150.2 1.995 2.84772 0
M  V30 11955 H 1149.53 2.85991 2.79373 0
M  V30 11956 H 1150.97 2.22018 3.61226 0
M  V30 11957 C 1149.43 0.771673 3.27943 0
M  V30 11958 O 1149.96 -0.0437737 4.01676 0
M  V30 11959 N 1148.16 0.597547 2.8439 0
M  V30 11960 H 1147.71 1.26227 2.24554 0
M  V30 11961 H 1147.67 -0.219578 3.13632 0
M  V30 11962 N 1151.44 -0.633461 1.44309 0
M  V30 11963 C 1152.37 -1.7583 1.45462 0
M  V30 11964 C 1153.35 -1.59545 0.313723 0
M  V30 11965 O 1154.53 -1.8146 0.51034 0
M  V30 11966 C 1151.66 -3.13375 1.28506 0
M  V30 11967 C 1150.71 -3.48315 2.46128 0
M  V30 11968 S 1151.54 -3.46058 4.08662 0
M  V30 11969 C 1152.7 -4.86226 3.94125 0
M  V30 11970 H 1152.93 -1.74585 2.4064 0
M  V30 11971 H 1150.46 -0.807868 1.31578 0
M  V30 11972 H 1152.42 -3.92748 1.19411 0
M  V30 11973 H 1151.08 -3.12161 0.348432 0
M  V30 11974 H 1150.27 -4.48397 2.30122 0
M  V30 11975 H 1149.88 -2.76399 2.51951 0
M  V30 11976 H 1152.17 -5.75393 3.57671 0
M  V30 11977 H 1153.11 -5.07287 4.9403 0
M  V30 11978 H 1153.52 -4.60691 3.26227 0
M  V30 11979 N 1152.92 -1.31168 -0.873655 0
M  V30 11980 C 1154.17 -1.20404 -1.62319 0
M  V30 11981 C 1154.49 0.238829 -1.93532 0
M  V30 11982 O 1153.76 1.15854 -1.57971 0
M  V30 11983 H 1152.34 -0.442632 -0.601736 0
M  V30 11984 H 1155 -1.64445 -1.04613 0
M  V30 11985 H 1154.1 -1.77309 -2.56842 0
M  V30 11986 N 1154.4 1.08748 -1.14068 0
M  V30 11987 C 1155.62 1.85353 -0.930532 0
M  V30 11988 C 1156.05 1.80892 0.515717 0
M  V30 11989 O 1155.4 1.19146 1.36652 0
M  V30 11990 C 1155.45 3.30962 -1.43167 0
M  V30 11991 O 1154.56 4.0769 -0.621468 0
M  V30 11992 H 1153.9 0.574485 -0.332962 0
M  V30 11993 H 1156.43 1.37282 -1.51707 0
M  V30 11994 H 1156.44 3.81807 -1.43832 0
M  V30 11995 H 1155.11 3.33524 -2.48464 0
M  V30 11996 H 1153.69 3.66587 -0.683267 0
M  V30 11997 N 1155.87 0.935264 1.26849 0
M  V30 11998 C 1156.8 0.457776 2.28969 0
M  V30 11999 C 1157.79 -0.48587 1.63013 0
M  V30 12000 O 1158.97 -0.388998 1.90264 0
M  V30 12001 C 1156.1 -0.283332 3.46142 0
M  V30 12002 C 1155.05 0.573196 4.24144 0
M  V30 12003 C 1154.38 -0.297525 5.33872 0
M  V30 12004 C 1155.68 1.84153 4.88759 0
M  V30 12005 H 1157.37 1.31125 2.69159 0
M  V30 12006 H 1154.92 0.631956 1.29392 0
M  V30 12007 H 1156.87 -0.628366 4.16689 0
M  V30 12008 H 1155.6 -1.1709 3.04889 0
M  V30 12009 H 1154.26 0.901043 3.55354 0
M  V30 12010 H 1153.9 -1.18427 4.8886 0
M  V30 12011 H 1153.6 0.272126 5.8697 0
M  V30 12012 H 1155.13 -0.637961 6.07258 0
M  V30 12013 H 1156.54 1.5641 5.51551 0
M  V30 12014 H 1154.94 2.35528 5.51948 0
M  V30 12015 H 1156.01 2.5565 4.12033 0
M  V30 12016 N 1157.35 -1.41121 0.701616 0
M  V30 12017 C 1158.59 -2.02993 0.239383 0
M  V30 12018 C 1158.96 -1.5439 -1.1414 0
M  V30 12019 O 1160.16 -2.08229 -1.69982 0
M  V30 12020 C 1158.43 -3.56128 0.301232 0
M  V30 12021 S 1159.99 -4.38716 -0.0860681 0
M  V30 12022 H 1156.81 -0.704494 0.0959645 0
M  V30 12023 H 1159.41 -1.72461 0.920736 0
M  V30 12024 H 1158.11 -3.88996 1.30805 0
M  V30 12025 H 1157.64 -3.91371 -0.399069 0
M  V30 12026 H 1159.66 -4.78537 -1.31212 0
M  V30 12027 N 1158.83 -0.446794 -1.51134 0
M  V30 12028 C 1160.06 0.117242 -2.07068 0
M  V30 12029 C 1160.48 1.34877 -1.3111 0
M  V30 12030 O 1159.84 1.77856 -0.35172 0
M  V30 12031 C 1159.89 0.408616 -3.58277 0
M  V30 12032 O 1158.99 1.49345 -3.84408 0
M  V30 12033 H 1158.33 -0.00228458 -0.663996 0
M  V30 12034 H 1160.86 -0.63085 -1.94632 0
M  V30 12035 H 1160.87 0.656298 -4.02687 0
M  V30 12036 H 1159.55 -0.491444 -4.12986 0
M  V30 12037 H 1158.12 1.23499 -3.51856 0
M  V30 12038 N 1160.31 1.56586 -0.178487 0
M  V30 12039 C 1161.72 1.58609 0.17759 0
M  V30 12040 C 1161.92 1.19411 1.62306 0
M  V30 12041 O 1160.98 0.90906 2.35568 0
M  V30 12042 C 1162.29 3.005 -0.109722 0
M  V30 12043 C 1163.84 3.12962 -0.0485036 0
M  V30 12044 C 1164.32 4.56957 -0.308901 0
M  V30 12045 N 1165.81 4.62487 -0.25693 0
M  V30 12046 C 1166.54 5.71767 -0.432488 0
M  V30 12047 N 1166.04 6.89577 -0.667494 0
M  V30 12048 N 1167.83 5.60895 -0.367895 0
M  V30 12049 H 1159.98 1.80351 -1.12193 0
M  V30 12050 H 1162.25 0.83623 -0.446569 0
M  V30 12051 H 1161.95 3.3368 -1.11133 0
M  V30 12052 H 1161.83 3.72472 0.595373 0
M  V30 12053 H 1164.21 2.79604 0.943687 0
M  V30 12054 H 1164.29 2.43411 -0.78642 0
M  V30 12055 H 1163.94 4.91025 -1.29833 0
M  V30 12056 H 1163.87 5.24676 0.449711 0
M  V30 12057 H 1166.36 3.77813 -0.0812308 0
M  V30 12058 H 1166.67 7.68744 -0.79071 0
M  V30 12059 H 1165.02 6.91423 -0.704193 0
M  V30 12060 H 1168.21 4.67735 -0.184837 0
M  V30 12061 H 1168.38 6.46005 -0.508138 0
M  V30 12062 N 1161.79 -0.095206 1.57312 0
M  V30 12063 C 1163.04 -0.797417 1.85268 0
M  V30 12064 C 1163.35 -1.79903 0.767733 0
M  V30 12065 O 1164.55 -2.54914 0.934409 0
M  V30 12066 C 1163.01 -1.469 3.28555 0
M  V30 12067 C 1162.62 -0.507152 4.4512 0
M  V30 12068 C 1164.36 -2.15494 3.65735 0
M  V30 12069 C 1162.27 -1.18331 5.79441 0
M  V30 12070 H 1161.2 -0.301552 0.691074 0
M  V30 12071 H 1163.85 -0.0503584 1.83431 0
M  V30 12072 H 1162.23 -2.26351 3.24933 0
M  V30 12073 H 1163.41 0.255858 4.60089 0
M  V30 12074 H 1161.72 0.0730882 4.16336 0
M  V30 12075 H 1164.32 -2.66816 4.63371 0
M  V30 12076 H 1164.66 -2.94383 2.94354 0
M  V30 12077 H 1165.19 -1.42903 3.71246 0
M  V30 12078 H 1161.93 -0.435238 6.54053 0
M  V30 12079 H 1161.45 -1.91775 5.68315 0
M  V30 12080 H 1163.13 -1.70983 6.23998 0
M  V30 12081 N 1163.26 -1.53291 -0.366026 0
M  V30 12082 C 1164.51 -1.69702 -1.11036 0
M  V30 12083 C 1164.84 -0.44728 -1.88979 0
M  V30 12084 O 1164.12 0.55542 -1.86401 0
M  V30 12085 C 1164.4 -2.94661 -2.06995 0
M  V30 12086 C 1164.25 -4.29791 -1.32663 0
M  V30 12087 C 1165.57 -3.15219 -3.07123 0
M  V30 12088 H 1162.69 -0.617525 -0.402284 0
M  V30 12089 H 1165.33 -1.85929 -0.391223 0
M  V30 12090 H 1163.48 -2.80958 -2.68318 0
M  V30 12091 H 1165.16 -4.55305 -0.741266 0
M  V30 12092 H 1163.4 -4.29223 -0.628484 0
M  V30 12093 H 1164.07 -5.13359 -2.02896 0
M  V30 12094 H 1166.55 -3.28105 -2.55903 0
M  V30 12095 H 1165.42 -4.04088 -3.71489 0
M  V30 12096 H 1165.68 -2.30479 -3.77269 0
M  V30 12097 N 1164.74 0.6258 -1.44643 0
M  V30 12098 C 1165.97 1.41233 -1.51198 0
M  V30 12099 C 1166.39 1.88291 -0.138572 0
M  V30 12100 O 1165.74 1.61151 0.856537 0
M  V30 12101 C 1165.79 2.62908 -2.48117 0
M  V30 12102 O 1165.51 2.1781 -3.80119 0
M  V30 12103 C 1167.02 3.55976 -2.6419 0
M  V30 12104 H 1164.24 0.432954 -0.512632 0
M  V30 12105 H 1166.78 0.76486 -1.89658 0
M  V30 12106 H 1164.93 3.23735 -2.12778 0
M  V30 12107 H 1165.35 2.96732 -4.32493 0
M  V30 12108 H 1166.82 4.37943 -3.3602 0
M  V30 12109 H 1167.3 4.05133 -1.696 0
M  V30 12110 H 1167.91 3.01014 -3.00451 0
M  V30 12111 N 1166.22 1.31629 0.866686 0
M  V30 12112 C 1167.13 1.21524 2.00671 0
M  V30 12113 C 1168.15 0.131277 1.73504 0
M  V30 12114 O 1169.32 0.349699 1.98341 0
M  V30 12115 C 1166.39 0.926491 3.34091 0
M  V30 12116 C 1165.45 2.09769 3.7456 0
M  V30 12117 C 1164.68 1.82262 5.01614 0
M  V30 12118 O 1164.9 0.759329 5.65323 0
M  V30 12119 O 1163.84 2.68031 5.38928 0
M  V30 12120 H 1167.66 2.17335 2.1213 0
M  V30 12121 H 1165.25 1.11401 0.995499 0
M  V30 12122 H 1167.13 0.78144 4.14091 0
M  V30 12123 H 1165.81 -0.00155829 3.237 0
M  V30 12124 H 1164.71 2.29816 2.95187 0
M  V30 12125 H 1166.05 3.0081 3.89582 0
M  V30 12126 N 1167.7 -1.08142 1.14644 0
M  V30 12127 C 1168.65 -2.15133 0.835845 0
M  V30 12128 C 1169.62 -1.64795 -0.207785 0
M  V30 12129 O 1170.8 -1.90644 -0.07711 0
M  V30 12130 C 1167.94 -3.4359 0.322456 0
M  V30 12131 C 1167.05 -4.07761 1.42671 0
M  V30 12132 C 1166.19 -5.24022 0.870281 0
M  V30 12133 C 1165.23 -5.8014 1.95202 0
M  V30 12134 N 1164.37 -6.87743 1.41257 0
M  V30 12135 H 1169.21 -2.41042 1.75222 0
M  V30 12136 H 1166.74 -1.18288 0.874428 0
M  V30 12137 H 1168.7 -4.17199 0.00657059 0
M  V30 12138 H 1167.33 -3.17958 -0.557014 0
M  V30 12139 H 1166.38 -3.31885 1.85893 0
M  V30 12140 H 1167.69 -4.45485 2.24375 0
M  V30 12141 H 1166.85 -6.04582 0.506459 0
M  V30 12142 H 1165.59 -4.87695 0.0223118 0
M  V30 12143 H 1164.59 -4.98232 2.32476 0
M  V30 12144 H 1165.82 -6.18525 2.80363 0
M  V30 12145 H 1163.76 -6.5337 0.586826 0
M  V30 12146 H 1163.68 -7.24308 2.16596 0
M  V30 12147 H 1164.95 -7.72028 1.07674 0
M  V30 12148 N 1169.18 -0.941978 -1.26351 0
M  V30 12149 C 1170.13 -0.423053 -2.24041 0
M  V30 12150 C 1171.11 0.480668 -1.53553 0
M  V30 12151 O 1172.3 0.315783 -1.7416 0
M  V30 12152 C 1169.43 0.309814 -3.41899 0
M  V30 12153 C 1168.52 -0.611245 -4.19672 0
M  V30 12154 N 1168.91 -1.73738 -4.75025 0
M  V30 12155 C 1167.21 -0.416985 -4.44046 0
M  V30 12156 C 1167.91 -2.31141 -5.33806 0
M  V30 12157 N 1166.88 -1.59934 -5.1954 0
M  V30 12158 H 1170.69 -1.28268 -2.64433 0
M  V30 12159 H 1168.2 -0.797941 -1.41445 0
M  V30 12160 H 1170.2 0.698618 -4.11005 0
M  V30 12161 H 1168.86 1.1662 -3.03035 0
M  V30 12162 H 1169.87 -2.1195 -4.72544 0
M  V30 12163 H 1166.55 0.397561 -4.15603 0
M  V30 12164 H 1167.94 -3.26029 -5.87499 0
M  V30 12165 N 1170.66 1.40747 -0.709091 0
M  V30 12166 C 1171.9 2.00233 -0.242836 0
M  V30 12167 C 1172.22 1.56853 1.1686 0
M  V30 12168 O 1173.42 2.08993 1.73304 0
M  V30 12169 C 1171.88 3.57854 -0.383241 0
M  V30 12170 C 1171.49 4.10209 -1.80091 0
M  V30 12171 C 1173.23 4.24494 0.0225511 0
M  V30 12172 C 1171.14 5.60311 -1.89225 0
M  V30 12173 H 1170.07 0.74896 -0.087034 0
M  V30 12174 H 1172.72 1.61064 -0.879243 0
M  V30 12175 H 1171.1 3.94692 0.321642 0
M  V30 12176 H 1172.28 3.84762 -2.53564 0
M  V30 12177 H 1170.59 3.56142 -2.15758 0
M  V30 12178 H 1173.19 5.34694 -0.0250644 0
M  V30 12179 H 1173.53 4.02488 1.06344 0
M  V30 12180 H 1174.06 3.92739 -0.632541 0
M  V30 12181 H 1170.8 5.87162 -2.91412 0
M  V30 12182 H 1170.32 5.87642 -1.20154 0
M  V30 12183 H 1172 6.25306 -1.66136 0
M  V30 12184 N 1172.13 0.454803 1.50895 0
M  V30 12185 C 1173.08 -0.366073 2.25042 0
M  V30 12186 C 1174.07 -0.975353 1.27967 0
M  V30 12187 O 1175.26 -0.8906 1.52962 0
M  V30 12188 C 1172.39 -1.45683 3.10856 0
M  V30 12189 C 1171.47 -0.856086 4.1537 0
M  V30 12190 N 1171.87 0.0138787 5.05798 0
M  V30 12191 C 1170.16 -1.1218 4.31661 0
M  V30 12192 C 1170.86 0.35313 5.80627 0
M  V30 12193 N 1169.84 -0.267648 5.42941 0
M  V30 12194 H 1173.64 0.304357 2.9232 0
M  V30 12195 H 1171.16 0.267937 1.60174 0
M  V30 12196 H 1173.15 -2.05793 3.62567 0
M  V30 12197 H 1171.81 -2.12942 2.45124 0
M  V30 12198 H 1172.82 0.381574 5.16492 0
M  V30 12199 H 1169.5 -1.79059 3.77153 0
M  V30 12200 H 1170.89 1.06213 6.63452 0
M  V30 12201 N 1173.61 -1.56489 0.186789 0
M  V30 12202 C 1174.56 -2.18703 -0.737402 0
M  V30 12203 C 1175.53 -1.13171 -1.21579 0
M  V30 12204 O 1176.71 -1.41388 -1.28118 0
M  V30 12205 C 1173.85 -2.84394 -1.95484 0
M  V30 12206 C 1172.97 -4.04429 -1.51859 0
M  V30 12207 C 1172.1 -4.58001 -2.69089 0
M  V30 12208 C 1171.14 -5.70412 -2.22029 0
M  V30 12209 N 1170.28 -6.18425 -3.32407 0
M  V30 12210 H 1175.12 -2.97327 -0.200105 0
M  V30 12211 H 1172.65 -1.46842 -0.087032 0
M  V30 12212 H 1174.61 -3.20646 -2.66912 0
M  V30 12213 H 1173.24 -2.08347 -2.46559 0
M  V30 12214 H 1172.29 -3.73895 -0.70048 0
M  V30 12215 H 1173.61 -4.85756 -1.13327 0
M  V30 12216 H 1172.76 -4.96515 -3.48652 0
M  V30 12217 H 1171.5 -3.75764 -3.1089 0
M  V30 12218 H 1170.5 -5.31434 -1.40918 0
M  V30 12219 H 1171.73 -6.54461 -1.81268 0
M  V30 12220 H 1169.68 -5.39113 -3.73755 0
M  V30 12221 H 1169.59 -6.94782 -2.98017 0
M  V30 12222 H 1170.86 -6.61592 -4.12209 0
M  V30 12223 N 1175.09 0.086862 -1.5736 0
M  V30 12224 C 1176.34 0.790008 -1.8678 0
M  V30 12225 C 1176.67 1.77977 -0.777042 0
M  V30 12226 O 1175.94 1.93317 0.21419 0
M  V30 12227 C 1176.23 1.51143 -3.26845 0
M  V30 12228 C 1176.08 0.539106 -4.46558 0
M  V30 12229 C 1177.4 2.46003 -3.64926 0
M  V30 12230 H 1174.52 0.285741 -0.679354 0
M  V30 12231 H 1177.16 0.0534655 -1.89925 0
M  V30 12232 H 1175.31 2.13928 -3.24295 0
M  V30 12233 H 1176.98 -0.0823679 -4.61226 0
M  V30 12234 H 1175.22 -0.146842 -4.33551 0
M  V30 12235 H 1175.9 1.0812 -5.41308 0
M  V30 12236 H 1178.37 1.93306 -3.68473 0
M  V30 12237 H 1177.25 2.93493 -4.63846 0
M  V30 12238 H 1177.51 3.30133 -2.94049 0
M  V30 12239 N 1176.57 1.53483 0.357892 0
M  V30 12240 C 1177.52 1.76843 1.43911 0
M  V30 12241 C 1178.5 0.623178 1.48342 0
M  V30 12242 O 1179.69 0.882102 1.53453 0
M  V30 12243 C 1176.82 1.96865 2.81246 0
M  V30 12244 C 1175.91 3.17414 2.81263 0
M  V30 12245 N 1176.3 4.39172 2.50921 0
M  V30 12246 C 1174.6 3.18292 3.1242 0
M  V30 12247 C 1175.3 5.20953 2.58811 0
M  V30 12248 N 1174.27 4.57338 2.93841 0
M  V30 12249 H 1178.08 2.68586 1.19327 0
M  V30 12250 H 1175.59 1.52212 0.566142 0
M  V30 12251 H 1177.59 2.11731 3.59132 0
M  V30 12252 H 1176.25 1.06355 3.06788 0
M  V30 12253 H 1177.26 4.66772 2.24376 0
M  V30 12254 H 1173.94 2.37702 3.43226 0
M  V30 12255 H 1175.33 6.28095 2.38633 0
M  V30 12256 N 1178.05 -0.61812 1.44973 0
M  V30 12257 C 1179.29 -1.37343 1.47715 0
M  V30 12258 C 1179.61 -1.95239 0.118784 0
M  V30 12259 O 1180.81 -2.7149 0.0237981 0
M  V30 12260 C 1179.27 -2.48732 2.60116 0
M  V30 12261 C 1178.88 -1.97294 4.02218 0
M  V30 12262 C 1180.62 -3.25831 2.72093 0
M  V30 12263 C 1178.53 -3.06102 5.06019 0
M  V30 12264 H 1177.46 -0.516175 0.549617 0
M  V30 12265 H 1180.11 -0.663617 1.7108 0
M  V30 12266 H 1178.49 -3.2235 2.30014 0
M  V30 12267 H 1179.67 -1.30455 4.41948 0
M  V30 12268 H 1177.98 -1.32972 3.94598 0
M  V30 12269 H 1180.58 -4.06968 3.46815 0
M  V30 12270 H 1180.92 -3.76156 1.7836 0
M  V30 12271 H 1181.45 -2.59309 3.01668 0
M  V30 12272 H 1178.19 -2.60706 6.01426 0
M  V30 12273 H 1177.71 -3.71541 4.70869 0
M  V30 12274 H 1179.39 -3.70662 5.30301 0
M  V30 12275 N 1179.52 -1.32087 -0.859693 0
M  V30 12276 C 1180.46 -1.14934 -1.97143 0
M  V30 12277 C 1181.43 -0.0501084 -1.62523 0
M  V30 12278 O 1182.62 -0.208472 -1.87344 0
M  V30 12279 C 1179.75 -0.758374 -3.30101 0
M  V30 12280 C 1178.79 -1.86212 -3.83702 0
M  V30 12281 S 1179.62 -3.46949 -4.07905 0
M  V30 12282 C 1180.78 -3.09813 -5.43844 0
M  V30 12283 H 1181.01 -2.09047 -2.11392 0
M  V30 12284 H 1178.55 -1.1669 -1.01108 0
M  V30 12285 H 1180.5 -0.539563 -4.06939 0
M  V30 12286 H 1179.17 0.163817 -3.13673 0
M  V30 12287 H 1178.36 -1.54144 -4.7985 0
M  V30 12288 H 1177.96 -2.03652 -3.13691 0
M  V30 12289 H 1180.25 -2.59345 -6.25897 0
M  V30 12290 H 1181.2 -4.04963 -5.8087 0
M  V30 12291 H 1181.6 -2.46971 -5.07607 0
M  V30 12292 N 1181 1.07532 -1.15215 0
M  V30 12293 C 1182.23 1.83817 -0.949687 0
M  V30 12294 C 1182.64 1.82004 0.501991 0
M  V30 12295 O 1182 1.23014 1.34811 0
M  V30 12296 C 1182.05 3.30978 -1.45382 0
M  V30 12297 O 1181.77 3.32844 -2.84863 0
M  V30 12298 C 1183.27 4.24037 -1.29257 0
M  V30 12299 H 1180.49 0.58 -0.337404 0
M  V30 12300 H 1183.04 1.35752 -1.52944 0
M  V30 12301 H 1181.19 3.76399 -0.916638 0
M  V30 12302 H 1181.61 4.24773 -3.07682 0
M  V30 12303 H 1183.08 5.25371 -1.69379 0
M  V30 12304 H 1183.56 4.38563 -0.236519 0
M  V30 12305 H 1184.16 3.8445 -1.81874 0
M  V30 12306 N 1182.48 0.948665 1.2585 0
M  V30 12307 C 1183.9 0.652147 1.45668 0
M  V30 12308 C 1184.1 -0.792217 1.85273 0
M  V30 12309 O 1183.15 -1.56812 1.97905 0
M  V30 12310 C 1184.47 1.61998 2.53332 0
M  V30 12311 C 1186.01 1.6305 2.67178 0
M  V30 12312 C 1186.49 2.58582 3.78021 0
M  V30 12313 N 1187.98 2.56911 3.85423 0
M  V30 12314 C 1188.71 3.27511 4.70664 0
M  V30 12315 N 1188.21 4.07563 5.60236 0
M  V30 12316 N 1190 3.16427 4.64576 0
M  V30 12317 H 1182.15 1.88215 0.984325 0
M  V30 12318 H 1184.42 0.809251 0.493778 0
M  V30 12319 H 1184.12 2.65137 2.31075 0
M  V30 12320 H 1184 1.37784 3.51134 0
M  V30 12321 H 1186.38 0.606315 2.88804 0
M  V30 12322 H 1186.47 1.9132 1.69795 0
M  V30 12323 H 1186.11 3.61122 3.57146 0
M  V30 12324 H 1186.04 2.27598 4.74875 0
M  V30 12325 H 1188.53 1.9879 3.21389 0
M  V30 12326 H 1188.84 4.58367 6.22189 0
M  V30 12327 H 1187.19 4.11662 5.59964 0
M  V30 12328 H 1190.38 2.53364 3.93604 0
M  V30 12329 H 1190.55 3.71714 5.30785 0
M  V30 12330 N 1183.96 -1.40369 0.716545 0
M  V30 12331 C 1185.21 -2.00101 0.253452 0
M  V30 12332 C 1185.52 -1.57471 -1.16027 0
M  V30 12333 O 1186.73 -2.09909 -1.72193 0
M  V30 12334 C 1185.18 -3.57645 0.402213 0
M  V30 12335 C 1184.79 -4.09248 1.82264 0
M  V30 12336 C 1186.53 -4.245 -3.88526e-05 0
M  V30 12337 C 1184.44 -5.59299 1.92193 0
M  V30 12338 H 1183.37 -0.748488 0.0910047 0
M  V30 12339 H 1186.02 -1.60595 0.887772 0
M  V30 12340 H 1184.4 -3.94857 -0.300706 0
M  V30 12341 H 1185.58 -3.83412 2.55601 0
M  V30 12342 H 1183.89 -3.54993 2.17644 0
M  V30 12343 H 1186.49 -5.34673 0.0534202 0
M  V30 12344 H 1186.83 -4.03046 -1.04208 0
M  V30 12345 H 1187.37 -3.92398 0.65336 0
M  V30 12346 H 1184.11 -5.85608 2.94522 0
M  V30 12347 H 1183.63 -5.86997 1.23268 0
M  V30 12348 H 1185.3 -6.24416 1.6945 0
M  V30 12349 N 1185.44 -0.462799 -1.50652 0
M  V30 12350 C 1186.67 0.0928413 -2.06391 0
M  V30 12351 C 1187.07 1.34791 -1.3277 0
M  V30 12352 O 1186.42 1.79555 -0.388048 0
M  V30 12353 C 1186.48 0.45517 -3.56607 0
M  V30 12354 C 1186.14 -0.696698 -4.51658 0
M  V30 12355 C 1187.14 -1.57633 -4.95427 0
M  V30 12356 C 1184.83 -0.884669 -4.94448 0
M  V30 12357 C 1186.82 -2.62841 -5.80684 0
M  V30 12358 C 1184.51 -1.93998 -5.79489 0
M  V30 12359 C 1185.5 -2.81022 -6.22508 0
M  V30 12360 O 1185.19 -3.84738 -7.05856 0
M  V30 12361 H 1184.92 -3.18898e-05 -0.676 0
M  V30 12362 H 1187.48 -0.648161 -1.94905 0
M  V30 12363 H 1185.71 1.24924 -3.65966 0
M  V30 12364 H 1187.4 0.944923 -3.94748 0
M  V30 12365 H 1188.16 -1.44276 -4.63044 0
M  V30 12366 H 1184.04 -0.216807 -4.6049 0
M  V30 12367 H 1187.59 -3.30797 -6.14182 0
M  V30 12368 H 1183.48 -2.07366 -6.11285 0
M  V30 12369 H 1184.25 -3.81626 -7.24088 0
M  V30 12370 N 1186.91 1.56388 -0.195085 0
M  V30 12371 C 1187.86 2.15705 0.738595 0
M  V30 12372 C 1188.85 1.09782 1.1763 0
M  V30 12373 O 1190.04 1.35844 1.1347 0
M  V30 12374 C 1187.17 2.81994 1.95791 0
M  V30 12375 C 1186.26 3.95108 1.54111 0
M  V30 12376 N 1186.65 4.98856 0.835261 0
M  V30 12377 C 1184.94 4.06709 1.8304 0
M  V30 12378 C 1185.65 5.78317 0.626417 0
M  V30 12379 N 1184.62 5.30746 1.17513 0
M  V30 12380 H 1188.42 2.93281 0.190597 0
M  V30 12381 H 1185.94 1.62399 0.00470391 0
M  V30 12382 H 1187.93 3.22883 2.63728 0
M  V30 12383 H 1186.59 2.05906 2.51063 0
M  V30 12384 H 1187.61 5.1557 0.490732 0
M  V30 12385 H 1184.28 3.41749 2.39821 0
M  V30 12386 H 1185.67 6.71867 0.0664935 0
M  V30 12387 N 1188.39 -0.0785156 1.57404 0
M  V30 12388 C 1189.34 -1.09402 2.03224 0
M  V30 12389 C 1190.31 -1.38849 0.911596 0
M  V30 12390 O 1191.49 -1.50031 1.17878 0
M  V30 12391 C 1188.63 -2.40444 2.47549 0
M  V30 12392 C 1187.75 -2.17585 3.73203 0
M  V30 12393 C 1186.88 -3.42143 4.06339 0
M  V30 12394 C 1185.92 -3.14619 5.25054 0
M  V30 12395 N 1185.06 -4.31489 5.5386 0
M  V30 12396 H 1189.9 -0.696307 2.89751 0
M  V30 12397 H 1187.44 -0.332261 1.43298 0
M  V30 12398 H 1189.39 -3.16944 2.71298 0
M  V30 12399 H 1188.02 -2.78031 1.64009 0
M  V30 12400 H 1187.08 -1.3181 3.56834 0
M  V30 12401 H 1188.39 -1.93249 4.59844 0
M  V30 12402 H 1187.54 -4.27042 4.30953 0
M  V30 12403 H 1186.28 -3.69549 3.18253 0
M  V30 12404 H 1185.29 -2.28116 5.00243 0
M  V30 12405 H 1186.51 -2.88543 6.14752 0
M  V30 12406 H 1184.46 -4.58939 4.68734 0
M  V30 12407 H 1184.37 -4.10403 6.34906 0
M  V30 12408 H 1185.64 -5.17404 5.83021 0
M  V30 12409 N 1189.87 -1.5367 -0.349747 0
M  V30 12410 C 1190.83 -1.80533 -1.41211 0
M  V30 12411 C 1191.83 -0.676188 -1.45892 0
M  V30 12412 O 1193.02 -0.944453 -1.46375 0
M  V30 12413 C 1190.16 -1.94175 -2.80195 0
M  V30 12414 H 1191.35 -2.75428 -1.18658 0
M  V30 12415 H 1188.9 -1.44988 -0.583787 0
M  V30 12416 H 1189.64 -1.01402 -3.08039 0
M  V30 12417 H 1189.42 -2.76316 -2.78194 0
M  V30 12418 H 1190.91 -2.16496 -3.57098 0
M  V30 12419 N 1191.35 0.610423 -1.45298 0
M  V30 12420 C 1192.3 1.7213 -1.53753 0
M  V30 12421 C 1193.27 1.61609 -0.383632 0
M  V30 12422 O 1194.45 1.8123 -0.596694 0
M  V30 12423 C 1191.59 3.10433 -1.50749 0
M  V30 12424 C 1190.7 3.3178 -2.76669 0
M  V30 12425 C 1189.84 4.60173 -2.65356 0
M  V30 12426 C 1188.88 4.74769 -3.86343 0
M  V30 12427 N 1188.01 5.94459 -3.73581 0
M  V30 12428 H 1192.85 1.64239 -2.48655 0
M  V30 12429 H 1190.39 0.800879 -1.23387 0
M  V30 12430 H 1192.35 3.90446 -1.46996 0
M  V30 12431 H 1190.98 3.17288 -0.593998 0
M  V30 12432 H 1190.03 2.45563 -2.90522 0
M  V30 12433 H 1191.34 3.38439 -3.66416 0
M  V30 12434 H 1190.5 5.48377 -2.59553 0
M  V30 12435 H 1189.24 4.55907 -1.73204 0
M  V30 12436 H 1188.24 3.8499 -3.92509 0
M  V30 12437 H 1189.47 4.80834 -4.79557 0
M  V30 12438 H 1187.41 5.91243 -2.84196 0
M  V30 12439 H 1187.33 6.02265 -4.5696 0
M  V30 12440 H 1188.6 6.85168 -3.71705 0
M  V30 12441 N 1192.83 1.32541 0.852676 0
M  V30 12442 C 1193.78 1.18224 1.94954 0
M  V30 12443 C 1194.76 0.0886514 1.60656 0
M  V30 12444 O 1195.95 0.315359 1.74168 0
M  V30 12445 C 1193.08 0.909484 3.31034 0
M  V30 12446 C 1192.17 2.04486 3.71546 0
M  V30 12447 N 1192.56 3.29362 3.83868 0
M  V30 12448 C 1190.86 1.94848 4.01186 0
M  V30 12449 C 1191.56 4.0374 4.18771 0
M  V30 12450 N 1190.53 3.32054 4.30396 0
M  V30 12451 H 1194.34 2.12893 2.02617 0
M  V30 12452 H 1191.85 1.24349 1.04456 0
M  V30 12453 H 1193.85 0.787865 4.09388 0
M  V30 12454 H 1192.51 -0.0288163 3.24687 0
M  V30 12455 H 1193.52 3.64274 3.68137 0
M  V30 12456 H 1190.19 1.08591 4.0313 0
M  V30 12457 H 1191.58 5.11434 4.35757 0
M  V30 12458 N 1194.3 -1.0692 1.15784 0
M  V30 12459 C 1195.55 -1.79866 0.936815 0
M  V30 12460 C 1195.88 -1.867 -0.534477 0
M  V30 12461 O 1195.16 -1.35395 -1.39637 0
M  V30 12462 C 1195.44 -3.24691 1.55717 0
M  V30 12463 C 1195.29 -3.25975 3.09936 0
M  V30 12464 C 1196.61 -4.22076 1.24658 0
M  V30 12465 H 1193.73 -0.652971 0.341756 0
M  V30 12466 H 1196.37 -1.25085 1.43016 0
M  V30 12467 H 1194.52 -3.7147 1.13763 0
M  V30 12468 H 1196.2 -2.87405 3.60827 0
M  V30 12469 H 1194.44 -2.64808 3.43597 0
M  V30 12470 H 1195.11 -4.28114 3.48458 0
M  V30 12471 H 1197.59 -3.83709 1.60956 0
M  V30 12472 H 1196.46 -5.21691 1.70675 0
M  V30 12473 H 1196.72 -4.41794 0.164341 0
M  V30 12474 N 1195.78 -0.955326 -1.25345 0
M  V30 12475 C 1196.73 -0.474888 -2.25862 0
M  V30 12476 C 1197.7 0.472996 -1.59223 0
M  V30 12477 O 1198.88 0.386094 -1.86853 0
M  V30 12478 C 1196.02 0.240554 -3.44261 0
M  V30 12479 C 1195.14 -0.74465 -4.25534 0
M  V30 12480 C 1194.27 -0.00657513 -5.312 0
M  V30 12481 C 1193.31 -0.982666 -6.04161 0
M  V30 12482 N 1192.45 -0.275418 -7.0156 0
M  V30 12483 H 1197.29 -1.33693 -2.66327 0
M  V30 12484 H 1194.83 -0.670439 -1.30933 0
M  V30 12485 H 1196.78 0.671933 -4.11753 0
M  V30 12486 H 1195.41 1.06664 -3.04668 0
M  V30 12487 H 1194.47 -1.29451 -3.57696 0
M  V30 12488 H 1195.78 -1.48948 -4.76042 0
M  V30 12489 H 1194.93 0.483404 -6.04771 0
M  V30 12490 H 1193.67 0.771035 -4.81567 0
M  V30 12491 H 1192.68 -1.48364 -5.29404 0
M  V30 12492 H 1193.9 -1.76052 -6.55883 0
M  V30 12493 H 1191.85 0.483441 -6.54216 0
M  V30 12494 H 1191.76 -0.959324 -7.49889 0
M  V30 12495 H 1193.03 0.193002 -7.79261 0
M  V30 12496 N 1197.26 1.39987 -0.723979 0
M  V30 12497 C 1198.22 2.29041 -0.0854583 0
M  V30 12498 C 1199.22 1.45777 0.678657 0
M  V30 12499 O 1200.41 1.66588 0.509311 0
M  V30 12500 C 1197.55 3.29115 0.88859 0
M  V30 12501 H 1198.74 2.87006 -0.869903 0
M  V30 12502 H 1196.29 1.48449 -0.489136 0
M  V30 12503 H 1197.03 2.76184 1.69979 0
M  V30 12504 H 1196.81 3.90593 0.343454 0
M  V30 12505 H 1198.3 3.95778 1.33227 0
M  V30 12506 N 1198.74 0.470782 1.50404 0
M  V30 12507 C 1199.99 -0.0765611 2.03256 0
M  V30 12508 C 1200.34 -1.37435 1.34646 0
M  V30 12509 O 1199.63 -1.85918 0.463152 0
M  V30 12510 C 1199.83 -0.316419 3.55997 0
M  V30 12511 C 1199.66 0.956569 4.39409 0
M  V30 12512 C 1198.43 1.49978 4.82529 0
M  V30 12513 C 1200.62 1.85188 4.79802 0
M  V30 12514 N 1198.61 2.72182 5.50264 0
M  V30 12515 C 1199.98 2.9198 5.46944 0
M  V30 12516 C 1202.03 1.86229 4.61761 0
M  V30 12517 C 1200.74 3.99802 5.97955 0
M  V30 12518 C 1202.76 2.93008 5.13712 0
M  V30 12519 C 1202.12 3.98519 5.80829 0
M  V30 12520 H 1198.22 0.0120036 0.781908 0
M  V30 12521 H 1200.81 0.638919 1.83918 0
M  V30 12522 H 1198.98 -1.00094 3.75281 0
M  V30 12523 H 1200.71 -0.858077 3.95499 0
M  V30 12524 H 1197.46 1.04901 4.61836 0
M  V30 12525 H 1197.89 3.34241 5.88737 0
M  V30 12526 H 1202.53 1.05974 4.09303 0
M  V30 12527 H 1200.25 4.80875 6.4945 0
M  V30 12528 H 1203.83 2.94797 5.01584 0
M  V30 12529 H 1202.71 4.79784 6.20304 0
M  V30 12530 N 1200.22 -1.56282 0.203376 0
M  V30 12531 C 1201.46 -1.99712 -0.43527 0
M  V30 12532 C 1201.82 -1.0876 -1.58225 0
M  V30 12533 O 1203.02 -1.4146 -2.28566 0
M  V30 12534 C 1201.29 -3.46501 -0.875885 0
M  V30 12535 S 1202.85 -4.11957 -1.5112 0
M  V30 12536 H 1199.67 -0.697305 -0.138879 0
M  V30 12537 H 1202.27 -1.93052 0.308392 0
M  V30 12538 H 1200.98 -4.10388 -0.0311623 0
M  V30 12539 H 1200.51 -3.56996 -1.65281 0
M  V30 12540 H 1202.52 -4.09645 -2.80009 0
M  V30 12541 N 1201.7 0.070167 -1.57444 0
M  V30 12542 C 1203.11 0.621805 -1.76041 0
M  V30 12543 C 1203.46 1.77824 -0.829047 0
M  V30 12544 O 1202.58 2.16396 -0.0135453 0
M  V30 12545 C 1203.18 1.13476 -3.19231 0
M  V30 12546 C 1201.74 1.63225 -3.39167 0
M  V30 12547 C 1200.88 0.552369 -2.71743 0
M  V30 12548 H 1203.83 -0.156009 -1.57931 0
M  V30 12549 H 1203.86 2.00352 -3.2348 0
M  V30 12550 H 1203.37 0.29288 -3.86993 0
M  V30 12551 H 1201.47 2.49733 -2.76522 0
M  V30 12552 H 1201.58 1.70807 -4.47618 0
M  V30 12553 H 1199.95 0.997797 -2.34342 0
M  V30 12554 H 1200.73 -0.279354 -3.42162 0
M  V30 12555 N 1203.17 1.53854 0.341593 0
M  V30 12556 C 1204.59 1.44161 0.684821 0
M  V30 12557 C 1204.79 0.599929 1.92362 0
M  V30 12558 O 1203.85 0.0916771 2.52334 0
M  V30 12559 C 1205.16 2.87668 0.875637 0
M  V30 12560 C 1206.71 2.97455 0.974131 0
M  V30 12561 C 1207.18 4.42075 1.19725 0
M  V30 12562 N 1208.67 4.45609 1.2644 0
M  V30 12563 C 1209.41 5.54643 1.45459 0
M  V30 12564 N 1208.9 6.7368 1.61637 0
M  V30 12565 N 1210.7 5.4226 1.48022 0
M  V30 12566 H 1202.85 2.07069 -0.472883 0
M  V30 12567 H 1205.11 0.936114 -0.149648 0
M  V30 12568 H 1204.82 3.51681 0.0368595 0
M  V30 12569 H 1204.69 3.32731 1.7768 0
M  V30 12570 H 1207.08 2.33582 1.80343 0
M  V30 12571 H 1207.16 2.55751 0.0498282 0
M  V30 12572 H 1206.8 5.06529 0.372872 0
M  V30 12573 H 1206.73 4.81372 2.13515 0
M  V30 12574 H 1209.22 3.59831 1.15455 0
M  V30 12575 H 1209.54 7.52541 1.7579 0
M  V30 12576 H 1207.88 6.76622 1.5877 0
M  V30 12577 H 1211.07 4.48221 1.34966 0
M  V30 12578 H 1211.25 6.27293 1.62502 0
M  V30 12579 N 1204.65 -0.602709 1.4562 0
M  V30 12580 C 1206.06 -1.1847 1.44297 0
M  V30 12581 C 1206.41 -1.95434 0.17316 0
M  V30 12582 O 1205.54 -2.03894 -0.724986 0
M  V30 12583 C 1206.13 -2.15508 2.61422 0
M  V30 12584 C 1204.69 -2.69073 2.63204 0
M  V30 12585 C 1203.84 -1.44568 2.36633 0
M  V30 12586 H 1206.79 -0.391745 1.53789 0
M  V30 12587 H 1206.81 -2.98628 2.35799 0
M  V30 12588 H 1206.32 -1.59464 3.53826 0
M  V30 12589 H 1204.42 -3.29042 1.7482 0
M  V30 12590 H 1204.54 -3.13173 3.62573 0
M  V30 12591 H 1202.9 -1.73692 1.86287 0
M  V30 12592 H 1203.68 -0.903852 3.31188 0
M  V30 12593 N 1206.13 -1.32992 -0.845635 0
M  V30 12594 C 1207.54 -1.21616 -1.41656 0
M  V30 12595 C 1207.89 0.167687 -1.95482 0
M  V30 12596 O 1207.02 1.06692 -1.8827 0
M  V30 12597 C 1207.61 -2.2018 -2.575 0
M  V30 12598 C 1206.17 -2.12664 -3.10565 0
M  V30 12599 C 1205.32 -2.08042 -1.83341 0
M  V30 12600 H 1208.27 -1.44688 -0.651993 0
M  V30 12601 H 1208.29 -1.80558 -3.34931 0
M  V30 12602 H 1207.8 -3.20888 -2.18294 0
M  V30 12603 H 1205.9 -1.15235 -3.54333 0
M  V30 12604 H 1206.02 -3.02902 -3.71197 0
M  V30 12605 H 1204.38 -1.53416 -2.03312 0
M  V30 12606 H 1205.16 -3.10547 -1.46339 0
M  V30 12607 N 1207.61 1.06304 -1.1635 0
M  V30 12608 C 1209.02 1.31227 -0.90838 0
M  V30 12609 C 1209.22 1.96665 0.438779 0
M  V30 12610 O 1208.28 2.2332 1.17833 0
M  V30 12611 C 1209.59 2.19303 -2.05734 0
M  V30 12612 C 1211.14 2.3272 -2.09309 0
M  V30 12613 C 1211.62 3.24151 -3.23559 0
M  V30 12614 N 1213.11 3.31734 -3.23275 0
M  V30 12615 C 1213.84 4.02572 -4.08318 0
M  V30 12616 N 1213.34 4.75933 -5.03448 0
M  V30 12617 N 1215.13 3.98621 -3.96305 0
M  V30 12618 H 1207.28 0.622228 -2.03081 0
M  V30 12619 H 1209.54 0.336892 -0.886119 0
M  V30 12620 H 1209.25 1.78497 -3.03037 0
M  V30 12621 H 1209.12 3.19888 -1.99879 0
M  V30 12622 H 1211.51 2.72774 -1.12599 0
M  V30 12623 H 1211.59 1.31804 -2.19229 0
M  V30 12624 H 1211.24 2.84813 -4.20528 0
M  V30 12625 H 1211.17 4.25046 -3.10875 0
M  V30 12626 H 1213.66 2.79453 -2.5439 0
M  V30 12627 H 1213.97 5.27512 -5.64758 0
M  V30 12628 H 1212.32 4.74913 -5.07427 0
M  V30 12629 H 1215.51 3.40427 -3.21289 0
M  V30 12630 H 1215.68 4.5356 -4.62804 0
M  V30 12631 N 1209.09 0.96196 1.24836 0
M  V30 12632 C 1210.05 0.492443 2.23847 0
M  V30 12633 C 1211.05 -0.40788 1.55541 0
M  V30 12634 O 1212.24 -0.204143 1.73 0
M  V30 12635 C 1209.37 -0.287578 3.39685 0
M  V30 12636 H 1210.56 1.36767 2.66899 0
M  V30 12637 H 1208.12 0.745967 1.3735 0
M  V30 12638 H 1208.85 -1.18015 3.02064 0
M  V30 12639 H 1208.64 0.358431 3.90458 0
M  V30 12640 H 1210.13 -0.605297 4.1319 0
M  V30 12641 N 1210.56 -1.39601 0.731392 0
M  V30 12642 C 1211.49 -2.33268 0.1041 0
M  V30 12643 C 1212.47 -1.53724 -0.728219 0
M  V30 12644 O 1213.66 -1.82131 -0.673933 0
M  V30 12645 C 1210.79 -3.37802 -0.806646 0
M  V30 12646 C 1209.74 -4.27928 -0.0787588 0
M  V30 12647 C 1209.07 -5.23131 -1.10628 0
M  V30 12648 C 1210.37 -5.11086 1.07651 0
M  V30 12649 H 1212.06 -2.85975 0.886496 0
M  V30 12650 H 1209.61 -1.375 0.427746 0
M  V30 12651 H 1211.56 -4.02278 -1.25499 0
M  V30 12652 H 1210.29 -2.83527 -1.62112 0
M  V30 12653 H 1208.95 -3.64926 0.349926 0
M  V30 12654 H 1208.59 -4.65152 -1.91422 0
M  V30 12655 H 1208.29 -5.84277 -0.624043 0
M  V30 12656 H 1209.82 -5.90483 -1.5544 0
M  V30 12657 H 1211.23 -5.68927 0.706781 0
M  V30 12658 H 1209.63 -5.81356 1.48814 0
M  V30 12659 H 1210.7 -4.46131 1.89988 0
M  V30 12660 N 1212.04 -0.478751 -1.50152 0
M  V30 12661 C 1212.95 0.316554 -2.32455 0
M  V30 12662 C 1213.97 0.98871 -1.4318 0
M  V30 12663 O 1215.14 0.974998 -1.76226 0
M  V30 12664 C 1212.21 1.3799 -3.18056 0
M  V30 12665 C 1211.27 0.723534 -4.23159 0
M  V30 12666 C 1210.5 1.73621 -5.0467 0
M  V30 12667 O 1210.73 2.96362 -4.87366 0
M  V30 12668 O 1209.66 1.30381 -5.87609 0
M  V30 12669 H 1213.49 -0.356491 -3.016 0
M  V30 12670 H 1211.07 -0.24046 -1.47452 0
M  V30 12671 H 1212.95 1.99565 -3.71149 0
M  V30 12672 H 1211.63 2.03627 -2.5163 0
M  V30 12673 H 1210.54 0.0686296 -3.74037 0
M  V30 12674 H 1211.87 0.109979 -4.92077 0
M  V30 12675 N 1213.52 1.56172 -0.211661 0
M  V30 12676 C 1214.75 2.02135 0.427222 0
M  V30 12677 C 1215.16 1.09084 1.54587 0
M  V30 12678 O 1214.5 0.090906 1.83475 0
M  V30 12679 C 1214.56 3.44459 1.029 0
M  V30 12680 C 1214.23 4.56976 0.0470243 0
M  V30 12681 C 1215.22 5.14466 -0.749724 0
M  V30 12682 C 1212.91 5.02253 -0.0688634 0
M  V30 12683 C 1214.9 6.15696 -1.64916 0
M  V30 12684 C 1212.59 6.03323 -0.971844 0
M  V30 12685 C 1213.59 6.5992 -1.76055 0
M  V30 12686 O 1213.28 7.59024 -2.64837 0
M  V30 12687 H 1213.01 0.667008 0.109894 0
M  V30 12688 H 1215.56 2.02851 -0.322595 0
M  V30 12689 H 1213.79 3.4078 1.82772 0
M  V30 12690 H 1215.48 3.74128 1.57425 0
M  V30 12691 H 1216.25 4.80342 -0.670588 0
M  V30 12692 H 1212.13 4.57886 0.534889 0
M  V30 12693 H 1215.67 6.59798 -2.26521 0
M  V30 12694 H 1211.57 6.36869 -1.05203 0
M  V30 12695 H 1212.34 7.76508 -2.58801 0
M  V30 12696 N 1215 -0.0618163 1.57479 0
M  V30 12697 C 1216.23 -0.771724 1.91969 0
M  V30 12698 C 1216.64 -1.7061 0.808549 0
M  V30 12699 O 1216 -1.812 -0.217455 0
M  V30 12700 C 1216.05 -1.55687 3.26257 0
M  V30 12701 O 1215.77 -0.660032 4.331 0
M  V30 12702 C 1217.27 -2.36688 3.74825 0
M  V30 12703 H 1214.49 -0.21885 0.634307 0
M  V30 12704 H 1217.04 -0.0291068 2.04479 0
M  V30 12705 H 1215.19 -2.25167 3.15244 0
M  V30 12706 H 1215.6 -1.20715 5.1042 0
M  V30 12707 H 1217.08 -2.8722 4.7139 0
M  V30 12708 H 1217.56 -3.1666 3.0434 0
M  V30 12709 H 1218.16 -1.72346 3.88815 0
M  V30 12710 N 1216.48 -1.54033 -0.333429 0
M  V30 12711 C 1217.89 -1.44522 -0.677166 0
M  V30 12712 C 1218.09 -0.610122 -1.92041 0
M  V30 12713 O 1217.15 -0.105058 -2.52281 0
M  V30 12714 C 1218.46 -2.88129 -0.860369 0
M  V30 12715 C 1220.01 -2.97968 -0.958342 0
M  V30 12716 C 1220.48 -4.42703 -1.17379 0
M  V30 12717 N 1221.98 -4.46273 -1.24075 0
M  V30 12718 C 1222.71 -5.55407 -1.42515 0
M  V30 12719 N 1222.21 -6.74528 -1.58062 0
M  V30 12720 N 1224 -5.43037 -1.45144 0
M  V30 12721 H 1216.15 -2.06815 0.483858 0
M  V30 12722 H 1218.41 -0.935307 0.15461 0
M  V30 12723 H 1218.12 -3.51695 -0.0182085 0
M  V30 12724 H 1217.99 -3.33668 -1.75913 0
M  V30 12725 H 1220.38 -2.34535 -1.79102 0
M  V30 12726 H 1220.46 -2.55774 -0.0362643 0
M  V30 12727 H 1220.11 -5.0672 -0.346004 0
M  V30 12728 H 1220.04 -4.82498 -2.10959 0
M  V30 12729 H 1222.53 -3.60439 -1.13545 0
M  V30 12730 H 1222.84 -7.53462 -1.71797 0
M  V30 12731 H 1221.18 -6.77454 -1.55179 0
M  V30 12732 H 1224.38 -4.4893 -1.32588 0
M  V30 12733 H 1224.55 -6.28146 -1.59173 0
M  V30 12734 N 1217.95 0.594978 -1.45938 0
M  V30 12735 C 1218.92 1.68688 -1.55168 0
M  V30 12736 C 1219.92 1.54945 -0.429951 0
M  V30 12737 O 1221.11 1.59785 -0.693859 0
M  V30 12738 C 1218.24 3.0804 -1.46027 0
M  V30 12739 H 1219.43 1.61866 -2.52467 0
M  V30 12740 H 1216.99 0.811785 -1.33565 0
M  V30 12741 H 1217.72 3.20428 -0.499614 0
M  V30 12742 H 1217.51 3.19423 -2.27401 0
M  V30 12743 H 1219 3.8755 -1.55546 0
M  V30 12744 N 1219.43 1.33438 0.838571 0
M  V30 12745 C 1220.38 1.20285 1.93689 0
M  V30 12746 C 1221.37 0.105686 1.60553 0
M  V30 12747 O 1222.56 0.333814 1.73824 0
M  V30 12748 C 1219.69 0.944544 3.3005 0
M  V30 12749 C 1218.77 2.08416 3.69356 0
M  V30 12750 N 1219.16 3.33415 3.80353 0
M  V30 12751 C 1217.46 1.99092 3.99097 0
M  V30 12752 C 1218.16 4.08159 4.14465 0
M  V30 12753 N 1217.14 3.36601 4.2685 0
M  V30 12754 H 1220.94 2.1503 2.00348 0
M  V30 12755 H 1218.46 1.2545 1.03131 0
M  V30 12756 H 1220.45 0.831242 4.08529 0
M  V30 12757 H 1219.11 0.00562273 3.247 0
M  V30 12758 H 1220.12 3.68159 3.64252 0
M  V30 12759 H 1216.8 1.12861 4.01956 0
M  V30 12760 H 1218.19 5.16027 4.30308 0
M  V30 12761 N 1220.91 -1.05686 1.16912 0
M  V30 12762 C 1222.33 -1.30744 0.915327 0
M  V30 12763 C 1222.53 -1.96895 -0.428344 0
M  V30 12764 O 1221.58 -2.23941 -1.16647 0
M  V30 12765 C 1222.9 -2.18209 2.06894 0
M  V30 12766 C 1224.44 -2.31607 2.1054 0
M  V30 12767 C 1224.92 -3.2243 3.25273 0
M  V30 12768 N 1226.41 -3.30015 3.2503 0
M  V30 12769 C 1227.14 -4.00401 4.10447 0
M  V30 12770 N 1226.64 -4.73256 5.05965 0
M  V30 12771 N 1228.43 -3.96514 3.98413 0
M  V30 12772 H 1220.58 -0.611449 2.03409 0
M  V30 12773 H 1222.85 -0.332188 0.887894 0
M  V30 12774 H 1222.55 -1.76887 3.0398 0
M  V30 12775 H 1222.43 -3.18823 2.01573 0
M  V30 12776 H 1224.81 -2.72173 1.14044 0
M  V30 12777 H 1224.9 -1.30639 2.19925 0
M  V30 12778 H 1224.54 -2.82579 4.22032 0
M  V30 12779 H 1224.47 -4.23392 3.13125 0
M  V30 12780 H 1226.96 -2.781 2.55869 0
M  V30 12781 H 1227.27 -5.24509 5.67547 0
M  V30 12782 H 1225.62 -4.72215 5.09939 0
M  V30 12783 H 1228.81 -3.38719 3.2309 0
M  V30 12784 H 1228.98 -4.511 4.65202 0
M  V30 12785 N 1222.39 -0.968567 -1.24324 0
M  V30 12786 C 1223.62 -0.648568 -1.96472 0
M  V30 12787 C 1224.03 0.782168 -1.71836 0
M  V30 12788 O 1223.39 1.5249 -1.00265 0
M  V30 12789 C 1223.44 -0.91482 -3.49733 0
M  V30 12790 O 1223.16 -2.28931 -3.73527 0
M  V30 12791 C 1224.66 -0.609131 -4.39095 0
M  V30 12792 H 1221.88 -0.241921 -0.625872 0
M  V30 12793 H 1224.43 -1.29673 -1.5813 0
M  V30 12794 H 1222.58 -0.31285 -3.86135 0
M  V30 12795 H 1222.99 -2.36998 -4.67902 0
M  V30 12796 H 1224.47 -0.845875 -5.4548 0
M  V30 12797 H 1224.95 0.456625 -4.3682 0
M  V30 12798 H 1225.55 -1.19105 -4.08282 0
M  V30 12799 N 1223.87 1.39211 -0.738786 0
M  V30 12800 C 1224.81 2.32424 -0.0904601 0
M  V30 12801 C 1225.81 1.53258 0.721694 0
M  V30 12802 O 1227.01 1.68895 0.622454 0
M  V30 12803 H 1223.39 0.751927 -0.010453 0
M  V30 12804 H 1225.36 2.84726 -0.892945 0
M  V30 12805 C 1224.11 3.38377 0.799783 0
M  V30 12806 H 1223.43 3.99375 0.18424 0
M  V30 12807 H 1224.87 4.0604 1.22096 0
M  V30 12808 C 1223.33 2.75734 1.93578 0
M  V30 12809 O 1223.86 2.63876 3.02874 0
M  V30 12810 N 1222.07 2.33764 1.72634 0
M  V30 12811 H 1221.61 2.43609 0.837413 0
M  V30 12812 H 1221.57 1.92191 2.48817 0
M  V30 12813 N 1225.34 0.486708 1.49896 0
M  V30 12814 C 1226.59 -0.062852 2.02402 0
M  V30 12815 C 1226.92 -1.38306 1.36754 0
M  V30 12816 O 1226.17 -1.89531 0.487493 0
M  V30 12817 C 1226.47 -0.278643 3.56312 0
M  V30 12818 C 1226.14 0.961794 4.40523 0
M  V30 12819 C 1224.8 1.30185 4.63255 0
M  V30 12820 C 1227.15 1.78697 4.89609 0
M  V30 12821 C 1224.48 2.46686 5.32318 0
M  V30 12822 C 1226.83 2.9434 5.59953 0
M  V30 12823 C 1225.5 3.28742 5.80935 0
M  V30 12824 H 1224.77 -0.0229992 0.740643 0
M  V30 12825 H 1227.41 0.643963 1.80348 0
M  V30 12826 H 1225.72 -1.06785 3.76967 0
M  V30 12827 H 1227.42 -0.718078 3.94518 0
M  V30 12828 H 1224.01 0.686887 4.2306 0
M  V30 12829 H 1228.19 1.53742 4.71887 0
M  V30 12830 H 1223.45 2.73596 5.46768 0
M  V30 12831 H 1227.62 3.58616 5.96965 0
M  V30 12832 H 1225.25 4.19121 6.34225 0
M  V30 12833 N 1226.82 -1.56058 0.219941 0
M  V30 12834 C 1227.77 -2.20218 -0.690846 0
M  V30 12835 C 1228.74 -1.15725 -1.19151 0
M  V30 12836 O 1229.93 -1.44073 -1.2509 0
M  V30 12837 C 1227.07 -2.88477 -1.89408 0
M  V30 12838 C 1226.18 -4.07559 -1.43246 0
M  V30 12839 C 1225.31 -4.63605 -2.59314 0
M  V30 12840 C 1224.35 -5.74993 -2.0988 0
M  V30 12841 N 1223.49 -6.25337 -3.19214 0
M  V30 12842 H 1228.33 -2.97685 -0.136992 0
M  V30 12843 H 1225.87 -1.46994 -0.055865 0
M  V30 12844 H 1227.82 -3.26235 -2.60051 0
M  V30 12845 H 1226.45 -2.1353 -2.42084 0
M  V30 12846 H 1225.51 -3.75297 -0.621013 0
M  V30 12847 H 1226.82 -4.8805 -1.02997 0
M  V30 12848 H 1225.97 -5.03798 -3.38041 0
M  V30 12849 H 1224.71 -3.82274 -3.0285 0
M  V30 12850 H 1223.72 -5.34304 -1.29613 0
M  V30 12851 H 1224.94 -6.58158 -1.67345 0
M  V30 12852 H 1222.89 -5.4692 -3.62236 0
M  V30 12853 H 1222.8 -7.00947 -2.83213 0
M  V30 12854 H 1224.07 -6.70187 -3.98083 0
M  V30 12855 N 1228.3 0.053464 -1.57509 0
M  V30 12856 C 1229.55 0.748016 -1.87317 0
M  V30 12857 C 1229.86 1.77805 -0.815161 0
M  V30 12858 O 1231.07 2.52347 -1.00167 0
M  V30 12859 C 1229.53 1.38137 -3.32334 0
M  V30 12860 C 1229.13 0.388958 -4.46308 0
M  V30 12861 C 1230.88 2.05722 -3.7132 0
M  V30 12862 C 1228.78 1.02927 -5.82374 0
M  V30 12863 H 1227.71 0.283123 -0.698826 0
M  V30 12864 H 1230.37 0.00170723 -1.835 0
M  V30 12865 H 1228.75 2.17656 -3.3082 0
M  V30 12866 H 1229.92 -0.377752 -4.59249 0
M  V30 12867 H 1228.24 -0.183447 -4.15996 0
M  V30 12868 H 1230.83 2.54437 -4.70283 0
M  V30 12869 H 1231.18 2.86475 -3.02056 0
M  V30 12870 H 1231.71 1.3301 -3.74904 0
M  V30 12871 H 1228.45 0.261674 -6.54977 0
M  V30 12872 H 1227.97 1.7664 -5.732 0
M  V30 12873 H 1229.65 1.54378 -6.28312 0
M  V30 12874 N 1229.78 1.54207 0.325255 0
M  V30 12875 C 1230.69 1.86495 1.42326 0
M  V30 12876 C 1231.71 0.756718 1.56684 0
M  V30 12877 O 1232.88 1.05084 1.71812 0
M  V30 12878 C 1229.95 2.08414 2.77064 0
M  V30 12879 C 1229.01 3.32221 2.71897 0
M  V30 12880 C 1228.24 3.53085 4.00209 0
M  V30 12881 O 1228.46 2.77421 4.98391 0
M  V30 12882 O 1227.4 4.46559 4.0357 0
M  V30 12883 H 1231.22 2.79859 1.17951 0
M  V30 12884 H 1228.81 1.40091 0.519124 0
M  V30 12885 H 1230.69 2.24171 3.56827 0
M  V30 12886 H 1229.37 1.18238 3.01333 0
M  V30 12887 H 1228.27 3.21851 1.90691 0
M  V30 12888 H 1229.61 4.22449 2.52582 0
M  V30 12889 N 1231.26 -0.58723 1.46251 0
M  V30 12890 C 1232.53 -1.34727 1.41802 0
M  V30 12891 C 1232.91 -2.10867 0.0991354 0
M  V30 12892 O 1232.26 -2.09194 -0.919242 0
M  V30 12893 C 1232.47 -2.27706 2.64482 0
M  V30 12894 C 1233.82 -2.89678 3.10438 0
M  V30 12895 O 1234.84 -2.38021 2.64999 0
M  V30 12896 O 1233.7 -3.83493 3.89352 0
M  V30 12897 H 1230.8 -0.605119 0.563702 0
M  V30 12898 H 1233.34 -0.608623 1.5841 0
M  V30 12899 H 1232.12 -1.70842 3.52035 0
M  V30 12900 H 1231.74 -3.08918 2.50311 0
M  V30 12901 N 1232.74 -1.33881 -0.831482 0
M  V30 12902 C 1234.15 -1.13376 -1.1233 0
M  V30 12903 C 1234.35 0.0704402 -2.01377 0
M  V30 12904 O 1233.41 0.748516 -2.4115 0
M  V30 12905 C 1234.72 -2.42484 -1.77826 0
M  V30 12906 C 1236.27 -2.4846 -1.90359 0
M  V30 12907 C 1236.74 -3.77548 -2.59272 0
M  V30 12908 N 1238.23 -3.7866 -2.66778 0
M  V30 12909 C 1238.97 -4.75258 -3.20807 0
M  V30 12910 N 1238.47 -5.82234 -3.75466 0
M  V30 12911 N 1240.26 -4.62724 -3.19128 0
M  V30 12912 H 1232.41 -2.11051 -0.238998 0
M  V30 12913 H 1234.67 -0.932893 -0.168565 0
M  V30 12914 H 1234.38 -3.30647 -1.19857 0
M  V30 12915 H 1234.25 -2.55186 -2.77777 0
M  V30 12916 H 1236.64 -1.60742 -2.47479 0
M  V30 12917 H 1236.72 -2.39693 -0.893359 0
M  V30 12918 H 1236.36 -4.65651 -2.02808 0
M  V30 12919 H 1236.29 -3.83594 -3.60781 0
M  V30 12920 H 1238.79 -3.01351 -2.28026 0
M  V30 12921 H 1239.1 -6.51968 -4.14918 0
M  V30 12922 H 1237.44 -5.85959 -3.73733 0
M  V30 12923 H 1240.63 -3.78303 -2.75688 0
M  V30 12924 H 1240.81 -5.38175 -3.60932 0
M  V30 12925 N 1234.21 1.05064 -1.1747 0
M  V30 12926 C 1235.44 1.82299 -0.98903 0
M  V30 12927 C 1235.86 1.82441 0.457907 0
M  V30 12928 O 1235.22 1.23433 1.32793 0
M  V30 12929 C 1235.27 3.26239 -1.53624 0
M  V30 12930 O 1234.37 4.05507 -0.750857 0
M  V30 12931 H 1233.71 0.563601 -0.35107 0
M  V30 12932 H 1236.24 1.32386 -1.55997 0
M  V30 12933 H 1236.25 3.77038 -1.55906 0
M  V30 12934 H 1234.93 3.25451 -2.58949 0
M  V30 12935 H 1233.51 3.64227 -0.799548 0
M  V30 12936 N 1235.69 0.975146 1.23809 0
M  V30 12937 C 1236.94 0.636678 1.91388 0
M  V30 12938 C 1237.25 -0.832876 1.76982 0
M  V30 12939 O 1238.46 -1.28218 2.39316 0
M  V30 12940 C 1236.92 1.08813 3.43057 0
M  V30 12941 C 1236.52 2.58165 3.66135 0
M  V30 12942 C 1238.27 0.823154 4.16443 0
M  V30 12943 C 1236.17 2.97004 5.11412 0
M  V30 12944 H 1235.1 0.234424 0.716632 0
M  V30 12945 H 1237.76 1.18235 1.40331 0
M  V30 12946 H 1236.14 0.470709 3.93192 0
M  V30 12947 H 1237.31 3.25101 3.26567 0
M  V30 12948 H 1235.63 2.82353 3.06049 0
M  V30 12949 H 1238.22 1.08925 5.23488 0
M  V30 12950 H 1238.57 -0.240705 4.15604 0
M  V30 12951 H 1239.1 1.4019 3.72279 0
M  V30 12952 H 1235.84 4.02492 5.17378 0
M  V30 12953 H 1235.36 2.34759 5.51949 0
M  V30 12954 H 1237.04 2.8732 5.79704 0
M  V30 12955 N 1237.17 -1.38817 0.746158 0
M  V30 12956 C 1238.1 -2.29081 0.0737986 0
M  V30 12957 C 1239.11 -1.47377 -0.691656 0
M  V30 12958 O 1240.3 -1.70326 -0.533973 0
M  V30 12959 C 1237.4 -3.26185 -0.919607 0
M  V30 12960 C 1236.58 -4.36879 -0.213349 0
M  V30 12961 C 1235.64 -5.1422 -1.11644 0
M  V30 12962 O 1234.66 -5.66137 -0.589747 0
M  V30 12963 N 1235.86 -5.26488 -2.44521 0
M  V30 12964 H 1238.63 -2.87424 0.848966 0
M  V30 12965 H 1236.19 -1.50518 0.596314 0
M  V30 12966 H 1238.18 -3.74802 -1.52662 0
M  V30 12967 H 1236.75 -2.68793 -1.5959 0
M  V30 12968 H 1235.97 -3.89994 0.574285 0
M  V30 12969 H 1237.26 -5.08053 0.275655 0
M  V30 12970 H 1236.66 -4.85846 -2.89777 0
M  V30 12971 H 1235.21 -5.78505 -3.00291 0
M  V30 12972 N 1238.65 -0.49465 -1.49636 0
M  V30 12973 C 1239.88 0.0491129 -2.06842 0
M  V30 12974 C 1240.29 1.31395 -1.35576 0
M  V30 12975 O 1239.65 1.7731 -0.432135 0
M  V30 12976 C 1239.7 0.313171 -3.60141 0
M  V30 12977 O 1239.42 -0.90152 -4.28724 0
M  V30 12978 C 1240.92 0.901284 -4.34041 0
M  V30 12979 H 1238.14 -0.0176186 -0.670769 0
M  V30 12980 H 1240.68 -0.690188 -1.92501 0
M  V30 12981 H 1238.84 1.00244 -3.74206 0
M  V30 12982 H 1239.25 -0.660477 -5.20325 0
M  V30 12983 H 1240.73 1.03567 -5.42197 0
M  V30 12984 H 1241.2 1.89746 -3.96097 0
M  V30 12985 H 1241.81 0.249677 -4.24566 0
M  V30 12986 N 1240.13 1.55939 -0.228214 0
M  V30 12987 C 1241.09 2.1932 0.665681 0
M  V30 12988 C 1242.09 1.15699 1.11671 0
M  V30 12989 O 1243.28 1.40893 1.02444 0
M  V30 12990 C 1240.41 2.82185 1.9127 0
M  V30 12991 H 1241.6 2.99687 0.112986 0
M  V30 12992 H 1239.16 1.56285 0.0213865 0
M  V30 12993 H 1239.89 2.05706 2.5071 0
M  V30 12994 H 1239.68 3.58073 1.5977 0
M  V30 12995 H 1241.17 3.30748 2.54942 0
M  V30 12996 N 1241.6 -0.0451101 1.57535 0
M  V30 12997 C 1242.85 -0.738072 1.87711 0
M  V30 12998 C 1243.17 -1.7737 0.824579 0
M  V30 12999 O 1244.37 -2.51812 1.01503 0
M  V30 13000 C 1242.83 -1.36373 3.33062 0
M  V30 13001 C 1242.44 -0.365283 4.46508 0
M  V30 13002 C 1244.18 -2.0375 3.72406 0
M  V30 13003 C 1242.09 -0.998371 5.82912 0
M  V30 13004 H 1241.02 -0.279413 0.700317 0
M  V30 13005 H 1243.67 0.00802425 1.83498 0
M  V30 13006 H 1242.05 -2.15899 3.31969 0
M  V30 13007 H 1243.22 0.402102 4.59042 0
M  V30 13008 H 1241.54 0.205505 4.15893 0
M  V30 13009 H 1244.14 -2.51939 4.71625 0
M  V30 13010 H 1244.48 -2.84869 3.03571 0
M  V30 13011 H 1245.01 -1.3102 3.75604 0
M  V30 13012 H 1241.75 -0.226935 6.55107 0
M  V30 13013 H 1241.27 -1.73598 5.74129 0
M  V30 13014 H 1242.95 -1.51044 6.29122 0
M  V30 13015 N 1243.08 -1.54377 -0.317073 0
M  V30 13016 C 1244.33 -1.73149 -1.05581 0
M  V30 13017 C 1244.66 -0.507176 -1.8746 0
M  V30 13018 O 1243.94 0.495837 -1.88074 0
M  V30 13019 C 1244.22 -3.01098 -1.97515 0
M  V30 13020 C 1244.07 -4.33794 -1.18922 0
M  V30 13021 C 1245.39 -3.24831 -2.9694 0
M  V30 13022 H 1242.51 -0.630011 -0.382434 0
M  V30 13023 H 1245.15 -1.87079 -0.331873 0
M  V30 13024 H 1243.3 -2.89352 -2.59244 0
M  V30 13025 H 1244.97 -4.57433 -0.596039 0
M  V30 13026 H 1243.22 -4.31005 -0.491612 0
M  V30 13027 H 1243.89 -5.19554 -1.86462 0
M  V30 13028 H 1246.36 -3.3608 -2.45335 0
M  V30 13029 H 1245.24 -4.15702 -3.58445 0
M  V30 13030 H 1245.5 -2.42365 -3.69745 0
M  V30 13031 N 1244.56 0.579466 -1.4656 0
M  V30 13032 C 1245.79 1.36351 -1.55615 0
M  V30 13033 C 1246.2 1.87755 -0.198405 0
M  V30 13034 O 1245.56 1.63795 0.804834 0
M  V30 13035 C 1245.61 2.54881 -2.56355 0
M  V30 13036 O 1245.33 2.05607 -3.86856 0
M  V30 13037 C 1246.83 3.47391 -2.75381 0
M  V30 13038 H 1244.05 0.416426 -0.526147 0
M  V30 13039 H 1246.6 0.704134 -1.91995 0
M  V30 13040 H 1244.75 3.16802 -2.2297 0
M  V30 13041 H 1245.17 2.82823 -4.41714 0
M  V30 13042 H 1246.64 4.27031 -3.49783 0
M  V30 13043 H 1247.12 3.99532 -1.82403 0
M  V30 13044 H 1247.72 2.91303 -3.09875 0
M  V30 13045 N 1246.04 1.3432 0.824371 0
M  V30 13046 C 1247.45 1.1397 1.11727 0
M  V30 13047 C 1247.65 -0.0597597 2.01411 0
M  V30 13048 O 1246.71 -0.735717 2.41544 0
M  V30 13049 C 1248.02 2.43423 1.76538 0
M  V30 13050 C 1249.57 2.49466 1.89039 0
M  V30 13051 C 1250.05 3.78917 2.57266 0
M  V30 13052 N 1251.54 3.8007 2.64767 0
M  V30 13053 C 1252.27 4.76953 3.18282 0
M  V30 13054 N 1251.77 5.84217 3.72373 0
M  V30 13055 N 1253.56 4.6441 3.1667 0
M  V30 13056 H 1245.71 2.11175 0.227802 0
M  V30 13057 H 1247.98 0.933774 0.163615 0
M  V30 13058 H 1247.68 3.31278 1.18102 0
M  V30 13059 H 1247.56 2.56655 2.7642 0
M  V30 13060 H 1249.94 1.62052 2.46623 0
M  V30 13061 H 1250.02 2.40163 0.880635 0
M  V30 13062 H 1249.67 4.6672 2.00336 0
M  V30 13063 H 1249.6 3.85502 3.58742 0
M  V30 13064 H 1252.09 3.02556 2.26425 0
M  V30 13065 H 1252.4 6.54159 4.11455 0
M  V30 13066 H 1250.75 5.87933 3.70621 0
M  V30 13067 H 1253.94 3.7976 2.73678 0
M  V30 13068 H 1254.11 5.40081 3.58073 0
M  V30 13069 N 1247.52 -1.0444 1.18026 0
M  V30 13070 C 1248.93 -1.5903 0.978076 0
M  V30 13071 C 1249.28 -1.90407 -0.473241 0
M  V30 13072 O 1248.4 -1.69133 -1.34992 0
M  V30 13073 C 1249 -2.88942 1.76912 0
M  V30 13074 C 1247.56 -3.40164 1.61139 0
M  V30 13075 C 1246.7 -2.13797 1.76596 0
M  V30 13076 H 1249.66 -0.871574 1.32625 0
M  V30 13077 H 1249.68 -3.59173 1.25598 0
M  V30 13078 H 1249.19 -2.66074 2.82535 0
M  V30 13079 H 1247.29 -3.68053 0.580353 0
M  V30 13080 H 1247.4 -4.14241 2.40709 0
M  V30 13081 H 1245.77 -2.24922 1.19507 0
M  V30 13082 H 1246.55 -1.93389 2.83647 0
M  V30 13083 N 1248.99 -0.981699 -1.2329 0
M  V30 13084 C 1250.24 -0.646818 -1.91048 0
M  V30 13085 C 1250.56 0.823479 -1.77421 0
M  V30 13086 O 1251.76 1.26948 -2.39993 0
M  V30 13087 C 1250.22 -1.1063 -3.42475 0
M  V30 13088 C 1249.83 -2.60103 -3.6476 0
M  V30 13089 C 1251.57 -0.845227 -4.16 0
M  V30 13090 C 1249.48 -2.99712 -5.0983 0
M  V30 13091 H 1248.41 -0.238221 -0.715379 0
M  V30 13092 H 1251.06 -1.18977 -1.39702 0
M  V30 13093 H 1249.44 -0.491554 -3.92937 0
M  V30 13094 H 1250.61 -3.26828 -3.24839 0
M  V30 13095 H 1248.93 -2.83972 -3.04547 0
M  V30 13096 H 1251.53 -1.11699 -5.22903 0
M  V30 13097 H 1251.87 0.218661 -4.15725 0
M  V30 13098 H 1252.4 -1.42162 -3.7153 0
M  V30 13099 H 1249.14 -4.0523 -5.15237 0
M  V30 13100 H 1248.66 -2.37683 -5.50697 0
M  V30 13101 H 1250.34 -2.9039 -5.78172 0
M  V30 13102 N 1250.47 1.3842 -0.753509 0
M  V30 13103 C 1251.72 1.99359 -0.306416 0
M  V30 13104 C 1252.03 1.60492 1.11811 0
M  V30 13105 O 1253.24 2.14401 1.66567 0
M  V30 13106 C 1251.7 3.56453 -0.496895 0
M  V30 13107 C 1251.3 4.04272 -1.9305 0
M  V30 13108 C 1253.05 4.24351 -0.11251 0
M  V30 13109 C 1250.96 5.54007 -2.06955 0
M  V30 13110 H 1249.89 0.745812 -0.110818 0
M  V30 13111 H 1252.54 1.58185 -0.930039 0
M  V30 13112 H 1250.92 3.95515 0.195912 0
M  V30 13113 H 1252.09 3.765 -2.65677 0
M  V30 13114 H 1250.41 3.49098 -2.26979 0
M  V30 13115 H 1253 5.34344 -0.195161 0
M  V30 13116 H 1253.35 4.05668 0.934849 0
M  V30 13117 H 1253.88 3.90528 -0.757168 0
M  V30 13118 H 1250.62 5.77594 -3.09944 0
M  V30 13119 H 1250.14 5.83522 -1.38788 0
M  V30 13120 H 1251.82 6.19704 -1.85945 0
M  V30 13121 N 1251.95 0.502579 1.49372 0
M  V30 13122 C 1253.18 -0.0381429 2.06865 0
M  V30 13123 C 1253.59 -1.30674 1.36271 0
M  V30 13124 O 1252.95 -1.77078 0.441532 0
M  V30 13125 C 1253 -0.294068 3.60302 0
M  V30 13126 O 1252.72 0.924244 4.2824 0
M  V30 13127 C 1254.22 -0.878253 4.34513 0
M  V30 13128 H 1251.44 0.0211756 0.670666 0
M  V30 13129 H 1253.99 0.700387 1.92132 0
M  V30 13130 H 1252.14 -0.982583 3.74732 0
M  V30 13131 H 1252.56 0.688062 5.19967 0
M  V30 13132 H 1254.03 -1.0069 5.42739 0
M  V30 13133 H 1254.51 -1.87643 3.97098 0
M  V30 13134 H 1255.11 -0.227157 4.24693 0
M  V30 13135 N 1253.43 -1.55816 0.23648 0
M  V30 13136 C 1254.66 -2.03083 -0.395584 0
M  V30 13137 C 1255.07 -1.11599 -1.52286 0
M  V30 13138 O 1254.43 -0.128403 -1.82048 0
M  V30 13139 C 1254.48 -3.49776 -0.913197 0
M  V30 13140 O 1254.2 -4.37773 0.169151 0
M  V30 13141 C 1255.7 -4.12756 -1.617 0
M  V30 13142 H 1252.92 -0.66421 -0.0952146 0
M  V30 13143 H 1255.47 -2.01354 0.357299 0
M  V30 13144 H 1253.62 -3.52072 -1.6163 0
M  V30 13145 H 1254.03 -5.24029 -0.222217 0
M  V30 13146 H 1255.51 -5.17123 -1.93101 0
M  V30 13147 H 1255.99 -3.58631 -2.53537 0
M  V30 13148 H 1256.59 -4.14353 -0.958736 0
M  V30 13149 N 1254.91 0.036755 -1.57557 0
M  V30 13150 C 1255.87 1.02435 -2.05036 0
M  V30 13151 C 1256.87 1.29506 -0.953146 0
M  V30 13152 O 1258.06 1.24638 -1.217 0
M  V30 13153 C 1255.19 2.3592 -2.46079 0
M  V30 13154 H 1256.38 0.614384 -2.93539 0
M  V30 13155 H 1253.94 0.283396 -1.53709 0
M  V30 13156 H 1254.67 2.8168 -1.60708 0
M  V30 13157 H 1254.46 2.17603 -3.26177 0
M  V30 13158 H 1255.95 3.06839 -2.83266 0
M  V30 13159 N 1256.39 1.54543 0.308881 0
M  V30 13160 C 1257.63 1.73107 1.043 0
M  V30 13161 C 1257.95 0.515481 1.88063 0
M  V30 13162 O 1257.22 -0.47036 1.90169 0
M  V30 13163 H 1255.8 0.638289 0.388068 0
M  V30 13164 H 1258.47 1.9188 0.341769 0
M  V30 13165 H 1257.56 2.61697 1.70063 0
M  V30 13166 N 1257.86 -0.571685 1.46866 0
M  V30 13167 C 1259.27 -1.15383 1.46778 0
M  V30 13168 C 1259.63 -1.95023 0.214576 0
M  V30 13169 O 1258.75 -2.05386 -0.681574 0
M  V30 13170 C 1259.35 -2.09915 2.65935 0
M  V30 13171 C 1257.9 -2.6343 2.68852 0
M  V30 13172 C 1257.05 -1.39517 2.39646 0
M  V30 13173 H 1260 -0.359036 1.54585 0
M  V30 13174 H 1260.02 -2.9356 2.42081 0
M  V30 13175 H 1259.54 -1.51923 3.57129 0
M  V30 13176 H 1257.64 -3.2526 1.8176 0
M  V30 13177 H 1257.75 -3.05412 3.69134 0
M  V30 13178 H 1256.11 -1.69702 1.8993 0
M  V30 13179 H 1256.9 -0.833399 3.33031 0
M  V30 13180 N 1259.34 -1.34755 -0.817236 0
M  V30 13181 C 1260.57 -1.30676 -1.61054 0
M  V30 13182 C 1260.99 0.115343 -1.87746 0
M  V30 13183 O 1260.35 1.07887 -1.45705 0
M  V30 13184 C 1260.4 -2.10881 -2.92509 0
M  V30 13185 O 1259.5 -1.48223 -3.84842 0
M  V30 13186 H 1258.84 -0.448531 -0.489608 0
M  V30 13187 H 1261.37 -1.77642 -1.01512 0
M  V30 13188 H 1261.38 -2.22446 -3.42026 0
M  V30 13189 H 1260.06 -3.14274 -2.72406 0
M  V30 13190 H 1258.63 -1.45434 -3.4337 0
M  V30 13191 N 1260.82 1.03812 -1.18578 0
M  V30 13192 C 1262.1 1.74062 -0.892288 0
M  V30 13193 C 1262.48 2.02267 0.604256 0
M  V30 13194 O 1261.82 1.66988 1.55972 0
M  V30 13195 C 1262.03 3.024 -1.74228 0
M  V30 13196 C 1263.38 3.76088 -1.97087 0
M  V30 13197 O 1264.41 3.12305 -1.71302 0
M  V30 13198 O 1263.27 4.90732 -2.40509 0
M  V30 13199 H 1260.36 0.757567 -0.331695 0
M  V30 13200 H 1262.91 1.09855 -1.29345 0
M  V30 13201 H 1261.68 2.77713 -2.75665 0
M  V30 13202 H 1261.3 3.74346 -1.3398 0
M  V30 13203 N 1262.3 0.988223 1.22768 0
M  V30 13204 C 1263.23 0.47962 2.23103 0
M  V30 13205 C 1264.21 -0.457546 1.5603 0
M  V30 13206 O 1265.39 -0.384178 1.84544 0
M  V30 13207 C 1262.52 -0.305248 3.37322 0
M  V30 13208 C 1261.57 0.577215 4.22576 0
M  V30 13209 S 1262.4 2.02974 4.95542 0
M  V30 13210 C 1263.55 1.25423 6.13205 0
M  V30 13211 H 1263.79 1.32985 2.65899 0
M  V30 13212 H 1261.32 0.794824 1.3237 0
M  V30 13213 H 1263.28 -0.752057 4.03552 0
M  V30 13214 H 1261.94 -1.1307 2.93043 0
M  V30 13215 H 1261.13 -0.0264391 5.03993 0
M  V30 13216 H 1260.73 0.960593 3.61453 0
M  V30 13217 H 1263.03 0.519499 6.75505 0
M  V30 13218 H 1263.97 2.04351 6.77972 0
M  V30 13219 H 1264.38 0.769573 5.5923 0
M  V30 13220 N 1263.78 -1.38018 0.760839 0
M  V30 13221 C 1265.01 -2.03934 0.330804 0
M  V30 13222 C 1265.41 -1.57509 -1.04821 0
M  V30 13223 O 1264.76 -0.746718 -1.67839 0
M  V30 13224 C 1264.82 -3.58384 0.28303 0
M  V30 13225 C 1264.48 -4.27896 1.6048 0
M  V30 13226 C 1265.48 -4.52769 2.5553 0
M  V30 13227 C 1263.16 -4.65943 1.87624 0
M  V30 13228 C 1265.16 -5.14732 3.75938 0
M  V30 13229 C 1262.85 -5.27629 3.08304 0
M  V30 13230 C 1263.84 -5.51959 4.02281 0
M  V30 13231 O 1263.53 -6.12358 5.20838 0
M  V30 13232 H 1263.26 -0.661733 0.138148 0
M  V30 13233 H 1265.82 -1.77551 1.03271 0
M  V30 13234 H 1264.05 -3.83769 -0.47517 0
M  V30 13235 H 1265.74 -4.05727 -0.118464 0
M  V30 13236 H 1266.5 -4.23798 2.35839 0
M  V30 13237 H 1262.38 -4.46346 1.15308 0
M  V30 13238 H 1265.93 -5.33639 4.49305 0
M  V30 13239 H 1261.82 -5.56023 3.27886 0
M  V30 13240 H 1262.59 -6.30842 5.21517 0
M  V30 13241 N 1265.25 -0.510493 -1.49103 0
M  V30 13242 C 1266.5 0.030689 -2.02777 0
M  V30 13243 C 1266.83 1.35765 -1.38858 0
M  V30 13244 O 1266.11 1.87209 -0.527528 0
M  V30 13245 C 1266.39 0.173261 -3.59683 0
M  V30 13246 C 1266.24 -1.17749 -4.34114 0
M  V30 13247 C 1267.56 0.909395 -4.30602 0
M  V30 13248 H 1264.68 0.0096789 -0.736936 0
M  V30 13249 H 1267.32 -0.663746 -1.78029 0
M  V30 13250 H 1265.47 0.764721 -3.80899 0
M  V30 13251 H 1267.15 -1.80856 -4.24369 0
M  V30 13252 H 1265.39 -1.76438 -3.96298 0
M  V30 13253 H 1266.06 -1.03094 -5.42287 0
M  V30 13254 H 1268.54 0.407677 -4.14098 0
M  V30 13255 H 1267.41 0.978012 -5.40117 0
M  V30 13256 H 1267.67 1.9553 -3.96511 0
M  V30 13257 N 1266.73 1.55688 -0.24474 0
M  V30 13258 C 1267.68 2.17946 0.669596 0
M  V30 13259 C 1268.67 1.13468 1.14078 0
M  V30 13260 O 1269.86 1.39385 1.09091 0
M  V30 13261 C 1266.99 2.8808 1.86721 0
M  V30 13262 C 1266.07 3.99811 1.41463 0
M  V30 13263 N 1266.46 5.01261 0.676131 0
M  V30 13264 C 1264.76 4.12327 1.70008 0
M  V30 13265 C 1265.46 5.80017 0.442113 0
M  V30 13266 N 1264.44 5.34216 1.00569 0
M  V30 13267 H 1268.24 2.93739 0.0971953 0
M  V30 13268 H 1265.75 1.62332 -0.0469646 0
M  V30 13269 H 1267.75 3.31109 2.53322 0
M  V30 13270 H 1266.41 2.13789 2.44385 0
M  V30 13271 H 1267.42 5.1687 0.326459 0
M  V30 13272 H 1264.1 3.49206 2.28827 0
M  V30 13273 H 1265.49 6.71739 -0.14729 0
M  V30 13274 N 1268.21 -0.0283989 1.57574 0
M  V30 13275 C 1269.46 -0.720142 1.89583 0
M  V30 13276 C 1269.79 -1.7497 0.842562 0
M  V30 13277 O 1269.06 -1.93979 -0.142294 0
M  V30 13278 C 1269.35 -1.38909 3.32229 0
M  V30 13279 C 1269.2 -0.372998 4.48251 0
M  V30 13280 C 1270.52 -2.32289 3.73804 0
M  V30 13281 H 1267.64 -0.26033 0.689491 0
M  V30 13282 H 1270.28 0.0170607 1.89992 0
M  V30 13283 H 1268.43 -2.01744 3.32011 0
M  V30 13284 H 1270.1 0.253492 4.60603 0
M  V30 13285 H 1268.34 0.30765 4.32708 0
M  V30 13286 H 1269.02 -0.879549 5.44948 0
M  V30 13287 H 1271.49 -1.79497 3.75393 0
M  V30 13288 H 1270.37 -2.76075 4.74419 0
M  V30 13289 H 1270.63 -3.18992 3.06099 0
M  V30 13290 N 1269.69 -1.54705 -0.300681 0
M  V30 13291 C 1270.94 -1.73658 -1.0338 0
M  V30 13292 C 1271.26 -0.525447 -1.87787 0
M  V30 13293 O 1270.53 0.460269 -1.90416 0
M  V30 13294 H 1269.11 -0.640338 -0.384677 0
M  V30 13295 H 1271.77 -1.92059 -0.331588 0
M  V30 13296 H 1270.86 -2.62595 -1.68672 0
M  V30 13297 N 1271.17 0.563888 -1.47167 0
M  V30 13298 C 1272.11 1.69254 -1.59549 0
M  V30 13299 C 1273.11 1.62948 -0.463078 0
M  V30 13300 O 1274.31 1.68214 -0.640639 0
M  V30 13301 H 1270.69 0.559925 -0.501984 0
M  V30 13302 H 1272.66 1.55946 -2.54408 0
M  V30 13303 C 1271.41 3.0762 -1.62066 0
M  V30 13304 H 1270.73 3.13151 -2.48549 0
M  V30 13305 H 1272.17 3.863 -1.74781 0
M  V30 13306 C 1270.63 3.35048 -0.352721 0
M  V30 13307 O 1271.16 3.9793 0.549053 0
M  V30 13308 N 1269.37 2.8965 -0.234805 0
M  V30 13309 H 1268.91 2.38657 -0.969561 0
M  V30 13310 H 1268.87 3.08373 0.61263 0
M  V30 13311 N 1272.64 1.35187 0.810078 0
M  V30 13312 C 1273.57 1.30481 1.93641 0
M  V30 13313 C 1274.56 0.179875 1.69146 0
M  V30 13314 O 1275.74 0.374284 1.90559 0
M  V30 13315 C 1272.87 1.07251 3.30325 0
M  V30 13316 C 1271.82 2.16348 3.69293 0
M  V30 13317 C 1271.15 1.78288 5.04101 0
M  V30 13318 C 1272.45 3.58285 3.80038 0
M  V30 13319 H 1274.14 2.24725 1.97836 0
M  V30 13320 H 1271.69 1.08179 0.950436 0
M  V30 13321 H 1273.64 1.02599 4.08719 0
M  V30 13322 H 1272.37 0.0945203 3.26463 0
M  V30 13323 H 1271.03 2.2009 2.93182 0
M  V30 13324 H 1270.67 0.791163 4.96739 0
M  V30 13325 H 1270.37 2.51315 5.31144 0
M  V30 13326 H 1271.9 1.75155 5.84938 0
M  V30 13327 H 1273.31 3.56884 4.48672 0
M  V30 13328 H 1271.71 4.30044 4.18548 0
M  V30 13329 H 1272.78 3.94691 2.81685 0
M  V30 13330 N 1274.12 -1.03182 1.19127 0
M  V30 13331 C 1275.37 -1.75934 0.986415 0
M  V30 13332 C 1275.68 -1.89519 -0.48392 0
M  V30 13333 O 1276.89 -2.59213 -0.80752 0
M  V30 13334 C 1275.35 -3.16358 1.71597 0
M  V30 13335 C 1274.95 -3.10836 3.22622 0
M  V30 13336 C 1276.7 -3.93426 1.59425 0
M  V30 13337 C 1274.61 -4.46174 3.88179 0
M  V30 13338 H 1273.54 -0.659516 0.365451 0
M  V30 13339 H 1276.19 -1.15497 1.42593 0
M  V30 13340 H 1274.57 -3.77245 1.20426 0
M  V30 13341 H 1275.74 -2.59348 3.80887 0
M  V30 13342 H 1274.06 -2.47266 3.35035 0
M  V30 13343 H 1276.65 -4.93526 2.05757 0
M  V30 13344 H 1277 -4.12678 0.547926 0
M  V30 13345 H 1277.53 -3.39134 2.07925 0
M  V30 13346 H 1274.27 -4.32126 4.92897 0
M  V30 13347 H 1273.79 -4.97729 3.34702 0
M  V30 13348 H 1275.47 -5.15066 3.91556 0
M  V30 13349 N 1275.6 -0.99472 -1.22242 0
M  V30 13350 C 1276.83 -0.689096 -1.94769 0
M  V30 13351 C 1277.24 0.750597 -1.73674 0
M  V30 13352 O 1276.58 1.51836 -1.03399 0
M  V30 13353 C 1276.64 -0.917454 -3.47596 0
M  V30 13354 C 1276.31 -2.34198 -3.92429 0
M  V30 13355 C 1277.3 -3.3216 -3.99957 0
M  V30 13356 C 1274.99 -2.6769 -4.25026 0
M  V30 13357 C 1276.98 -4.61686 -4.3946 0
M  V30 13358 C 1274.67 -3.97435 -4.64208 0
M  V30 13359 C 1275.67 -4.94244 -4.71394 0
M  V30 13360 O 1275.36 -6.2167 -5.09688 0
M  V30 13361 H 1275.09 -0.253914 -0.626501 0
M  V30 13362 H 1277.64 -1.33271 -1.56294 0
M  V30 13363 H 1275.87 -0.21666 -3.86093 0
M  V30 13364 H 1277.56 -0.6068 -4.01339 0
M  V30 13365 H 1278.33 -3.07619 -3.74961 0
M  V30 13366 H 1274.21 -1.93039 -4.18637 0
M  V30 13367 H 1277.75 -5.37248 -4.44983 0
M  V30 13368 H 1273.65 -4.21765 -4.88656 0
M  V30 13369 H 1274.42 -6.25634 -5.27755 0
M  V30 13370 N 1277.08 1.37613 -0.768148 0
M  V30 13371 C 1278.49 1.53202 -0.44737 0
M  V30 13372 C 1278.69 1.72736 1.03752 0
M  V30 13373 O 1277.75 1.74667 1.8234 0
M  V30 13374 C 1279.06 2.7306 -1.25931 0
M  V30 13375 C 1280.61 2.8692 -1.25084 0
M  V30 13376 C 1281.09 4.09757 -2.04605 0
M  V30 13377 N 1282.58 4.16862 -2.0194 0
M  V30 13378 C 1283.31 5.10936 -2.60254 0
M  V30 13379 N 1282.81 6.1059 -3.27341 0
M  V30 13380 N 1284.6 5.03393 -2.50104 0
M  V30 13381 H 1276.75 1.23184 -1.7303 0
M  V30 13382 H 1279.02 0.599541 -0.73434 0
M  V30 13383 H 1278.72 2.65078 -2.31141 0
M  V30 13384 H 1278.6 3.66646 -0.886036 0
M  V30 13385 H 1280.98 2.94375 -0.206736 0
M  V30 13386 H 1281.06 1.94303 -1.66373 0
M  V30 13387 H 1280.71 4.03063 -3.09035 0
M  V30 13388 H 1280.64 5.01481 -1.60701 0
M  V30 13389 H 1283.13 3.455 -1.53096 0
M  V30 13390 H 1283.44 6.78893 -3.6922 0
M  V30 13391 H 1281.79 6.10879 -3.31439 0
M  V30 13392 H 1284.98 4.24483 -1.9731 0
M  V30 13393 H 1285.15 5.76524 -2.95844 0
M  V30 13394 N 1278.56 0.518393 1.4883 0
M  V30 13395 C 1279.5 -0.264197 2.31095 0
M  V30 13396 C 1280.5 -0.946455 1.40494 0
M  V30 13397 O 1281.7 -0.872161 1.57459 0
M  V30 13398 H 1278.08 -0.104065 0.744765 0
M  V30 13399 H 1280.05 0.449375 2.94997 0
M  V30 13400 C 1278.8 -1.30527 3.2227 0
M  V30 13401 H 1278.12 -0.789695 3.91923 0
M  V30 13402 H 1279.56 -1.82449 3.82738 0
M  V30 13403 C 1278.02 -2.33274 2.43073 0
M  V30 13404 O 1278.55 -3.39493 2.14726 0
M  V30 13405 N 1276.76 -2.06189 2.04779 0
M  V30 13406 H 1276.3 -1.19829 2.28033 0
M  V30 13407 H 1276.26 -2.7516 1.521 0
M  V30 13408 N 1280.03 -1.55556 0.252993 0
M  V30 13409 C 1280.96 -2.24613 -0.638047 0
M  V30 13410 C 1281.95 -1.22852 -1.1765 0
M  V30 13411 O 1283.13 -1.51519 -1.21472 0
M  V30 13412 C 1280.26 -2.95029 -1.83236 0
M  V30 13413 C 1279.21 -4.03531 -1.42641 0
M  V30 13414 C 1278.54 -4.61404 -2.70204 0
M  V30 13415 C 1279.84 -5.18923 -0.592958 0
M  V30 13416 H 1281.53 -2.99335 -0.0621918 0
M  V30 13417 H 1279.08 -1.43972 -0.0284722 0
M  V30 13418 H 1281.03 -3.42042 -2.46141 0
M  V30 13419 H 1279.76 -2.17805 -2.43369 0
M  V30 13420 H 1278.42 -3.57296 -0.820672 0
M  V30 13421 H 1278.06 -3.80874 -3.28548 0
M  V30 13422 H 1277.76 -5.34652 -2.43764 0
M  V30 13423 H 1279.29 -5.11154 -3.33997 0
M  V30 13424 H 1280.7 -5.62124 -1.12646 0
M  V30 13425 H 1279.1 -5.98598 -0.424358 0
M  V30 13426 H 1280.17 -4.83301 0.393434 0
M  V30 13427 N 1281.51 0.0200419 -1.57587 0
M  V30 13428 C 1282.46 1.0259 -2.03615 0
M  V30 13429 C 1283.45 1.31504 -0.927116 0
M  V30 13430 O 1284.64 1.30938 -1.19098 0
M  V30 13431 C 1281.77 2.32424 -2.52654 0
M  V30 13432 C 1280.85 2.06561 -3.70396 0
M  V30 13433 N 1281.24 1.50787 -4.82801 0
M  V30 13434 C 1279.54 2.36802 -3.77943 0
M  V30 13435 C 1280.24 1.40935 -5.64369 0
M  V30 13436 N 1279.22 1.88806 -5.09758 0
M  V30 13437 H 1283.02 0.588835 -2.87941 0
M  V30 13438 H 1280.54 0.226163 -1.60817 0
M  V30 13439 H 1282.53 3.05303 -2.83894 0
M  V30 13440 H 1281.19 2.76801 -1.69738 0
M  V30 13441 H 1282.2 1.18935 -5.04058 0
M  V30 13442 H 1278.88 2.84192 -3.05845 0
M  V30 13443 H 1280.27 0.982261 -6.64681 0
M  V30 13444 N 1282.99 1.54862 0.292472 0
M  V30 13445 C 1283.92 1.89406 1.36556 0
M  V30 13446 C 1284.9 0.753838 1.52484 0
M  V30 13447 O 1286.09 1.01031 1.6585 0
M  V30 13448 C 1283.22 2.14888 2.72838 0
M  V30 13449 C 1282.17 3.3073 2.71665 0
M  V30 13450 C 1281.5 3.41648 4.11316 0
M  V30 13451 C 1282.8 4.67622 2.32651 0
M  V30 13452 H 1284.49 2.79284 1.07894 0
M  V30 13453 H 1282.04 1.34377 0.517585 0
M  V30 13454 H 1283.99 2.3764 3.48002 0
M  V30 13455 H 1282.71 1.2179 3.03042 0
M  V30 13456 H 1281.37 3.07915 1.98958 0
M  V30 13457 H 1281.02 2.46051 4.38711 0
M  V30 13458 H 1280.72 4.19522 4.11431 0
M  V30 13459 H 1282.24 3.6667 4.88248 0
M  V30 13460 H 1283.66 4.90048 2.97533 0
M  V30 13461 H 1282.06 5.48272 2.43963 0
M  V30 13462 H 1283.13 4.67762 1.27777 0
M  V30 13463 N 1284.47 -0.556076 1.47464 0
M  V30 13464 C 1285.72 -1.3132 1.54147 0
M  V30 13465 C 1286.04 -1.93425 0.204221 0
M  V30 13466 O 1285.3 -1.78467 -0.803002 0
M  V30 13467 C 1285.6 -2.44298 2.6087 0
M  V30 13468 C 1285.26 -2.00016 4.04109 0
M  V30 13469 C 1283.93 -1.87656 4.43101 0
M  V30 13470 C 1286.28 -1.66228 4.93981 0
M  V30 13471 C 1283.61 -1.39805 5.698 0
M  V30 13472 C 1285.96 -1.19848 6.21144 0
M  V30 13473 C 1284.62 -1.06084 6.59016 0
M  V30 13474 H 1283.89 -0.480534 0.564064 0
M  V30 13475 H 1286.54 -0.623449 1.81067 0
M  V30 13476 H 1284.84 -3.18834 2.27711 0
M  V30 13477 H 1286.54 -3.02479 2.63263 0
M  V30 13478 H 1283.13 -2.1058 3.73302 0
M  V30 13479 H 1287.31 -1.7465 4.64555 0
M  V30 13480 H 1282.57 -1.27814 5.97891 0
M  V30 13481 H 1286.74 -0.927657 6.90194 0
M  V30 13482 H 1284.37 -0.687834 7.57082 0
M  V30 13483 N 1285.95 -1.35615 -0.802897 0
M  V30 13484 C 1286.9 -1.28877 -1.93632 0
M  V30 13485 C 1287.89 -0.183014 -1.68408 0
M  V30 13486 O 1289.1 -0.349218 -1.7658 0
M  V30 13487 H 1285.47 -0.400883 -0.636236 0
M  V30 13488 H 1287.44 -2.24624 -1.96435 0
M  V30 13489 C 1286.19 -1.08136 -3.30457 0
M  V30 13490 H 1285.51 -1.92463 -3.50426 0
M  V30 13491 H 1286.95 -1.07464 -4.10155 0
M  V30 13492 C 1285.41 0.214635 -3.36216 0
M  V30 13493 O 1285.94 1.20916 -3.8307 0
M  V30 13494 N 1284.15 0.25468 -2.89482 0
M  V30 13495 H 1283.7 -0.555239 -2.51545 0
M  V30 13496 H 1283.65 1.12152 -2.93716 0
M  V30 13497 N 1287.43 1.02549 -1.19673 0
M  V30 13498 C 1288.65 1.8016 -1.02748 0
M  V30 13499 C 1289.08 1.83372 0.419105 0
M  V30 13500 O 1288.43 1.26222 1.30144 0
M  V30 13501 C 1288.48 3.22907 -1.60509 0
M  V30 13502 O 1287.59 4.03823 -0.836702 0
M  V30 13503 H 1286.93 0.556027 -0.362946 0
M  V30 13504 H 1289.46 1.29047 -1.5877 0
M  V30 13505 H 1289.47 3.73646 -1.63868 0
M  V30 13506 H 1288.14 3.19885 -2.65794 0
M  V30 13507 H 1286.72 3.6245 -0.876626 0
M  V30 13508 N 1288.9 1.00119 1.21713 0
M  V30 13509 C 1289.81 0.567582 2.27631 0
M  V30 13510 C 1290.83 -0.387593 1.69628 0
M  V30 13511 O 1292.01 -0.252372 1.99813 0
M  V30 13512 C 1289.07 -0.102745 3.46548 0
M  V30 13513 C 1288.13 0.896433 4.19836 0
M  V30 13514 C 1287.36 0.258 5.33076 0
M  V30 13515 O 1287.59 -0.946118 5.62499 0
M  V30 13516 O 1286.52 0.967021 5.94081 0
M  V30 13517 H 1290.35 1.44898 2.66905 0
M  V30 13518 H 1287.93 0.769862 1.28037 0
M  V30 13519 H 1289.81 -0.477846 4.18682 0
M  V30 13520 H 1288.49 -0.958576 3.09181 0
M  V30 13521 H 1287.4 1.32262 3.49939 0
M  V30 13522 H 1288.73 1.72173 4.61104 0
M  V30 13523 N 1290.38 -1.37203 0.775435 0
M  V30 13524 C 1291.31 -2.27933 0.110444 0
M  V30 13525 C 1292.29 -1.46513 -0.705179 0
M  V30 13526 O 1293.48 -1.7584 -0.679154 0
M  V30 13527 C 1290.6 -3.27868 -0.84971 0
M  V30 13528 C 1289.65 -4.26338 -0.117627 0
M  V30 13529 S 1290.48 -5.21952 1.19691 0
M  V30 13530 C 1291.64 -6.25438 0.240393 0
M  V30 13531 H 1291.87 -2.83985 0.879766 0
M  V30 13532 H 1289.4 -1.43533 0.568996 0
M  V30 13533 H 1291.36 -3.85952 -1.39827 0
M  V30 13534 H 1290.02 -2.70756 -1.59217 0
M  V30 13535 H 1289.22 -4.96855 -0.845639 0
M  V30 13536 H 1288.82 -3.72263 0.360041 0
M  V30 13537 H 1291.11 -6.74962 -0.585867 0
M  V30 13538 H 1292.05 -7.02178 0.913846 0
M  V30 13539 H 1292.46 -5.64301 -0.150043 0
M  V30 13540 N 1291.86 -0.526279 -1.48553 0
M  V30 13541 C 1292.81 0.258285 -2.26532 0
M  V30 13542 C 1293.79 0.913187 -1.32475 0
M  V30 13543 O 1294.99 0.816606 -1.57037 0
M  V30 13544 C 1292.11 1.30686 -3.17452 0
M  V30 13545 C 1291.2 0.656933 -4.18981 0
M  V30 13546 N 1291.59 -0.255186 -5.05156 0
M  V30 13547 C 1289.89 0.914575 -4.36522 0
M  V30 13548 C 1290.59 -0.629753 -5.78281 0
M  V30 13549 N 1289.57 0.00829904 -5.43599 0
M  V30 13550 H 1293.37 -0.44348 -2.90535 0
M  V30 13551 H 1290.88 -0.344054 -1.58714 0
M  V30 13552 H 1292.88 1.8826 -3.71973 0
M  V30 13553 H 1291.54 2.01004 -2.55005 0
M  V30 13554 H 1292.55 -0.627564 -5.14084 0
M  V30 13555 H 1289.23 1.6086 -3.85266 0
M  V30 13556 H 1290.62 -1.37746 -6.57629 0
M  V30 13557 N 1293.34 1.5542 -0.261239 0
M  V30 13558 C 1294.25 2.25627 0.642625 0
M  V30 13559 C 1295.26 1.27732 1.18155 0
M  V30 13560 O 1296.44 1.60639 1.21479 0
M  V30 13561 C 1293.5 2.95303 1.8165 0
M  V30 13562 C 1292.57 4.08644 1.31563 0
M  V30 13563 C 1291.8 4.74988 2.43355 0
M  V30 13564 O 1292.02 4.40474 3.62407 0
M  V30 13565 O 1290.96 5.63217 2.12299 0
M  V30 13566 H 1294.78 3.03609 0.0743091 0
M  V30 13567 H 1292.37 1.49372 -0.0291754 0
M  V30 13568 H 1294.25 3.3914 2.50125 0
M  V30 13569 H 1292.92 2.2025 2.37217 0
M  V30 13570 H 1291.83 3.69294 0.597746 0
M  V30 13571 H 1293.16 4.85558 0.805878 0
M  V30 13572 N 1294.82 -0.0116844 1.57596 0
M  V30 13573 C 1296.04 -0.713924 1.94725 0
M  V30 13574 C 1296.47 -1.67157 0.862565 0
M  V30 13575 O 1295.82 -1.80401 -0.180308 0
M  V30 13576 C 1295.87 -1.43214 3.30941 0
M  V30 13577 O 1294.98 -2.5461 3.24419 0
M  V30 13578 H 1294.32 -0.190772 0.636005 0
M  V30 13579 H 1296.85 0.0380247 2.04565 0
M  V30 13580 H 1296.86 -1.79819 3.66237 0
M  V30 13581 H 1295.53 -0.729906 4.09445 0
M  V30 13582 H 1294.11 -2.20419 3.00782 0
M  V30 13583 N 1296.29 -1.55015 -0.284256 0
M  V30 13584 C 1297.54 -1.74297 -1.01506 0
M  V30 13585 C 1297.86 -0.545134 -1.8785 0
M  V30 13586 O 1299.06 -0.620118 -2.64323 0
M  V30 13587 C 1297.52 -3.08438 -1.85456 0
M  V30 13588 C 1297.13 -4.35753 -1.04034 0
M  V30 13589 C 1298.87 -3.37073 -2.58035 0
M  V30 13590 C 1296.78 -5.60938 -1.87358 0
M  V30 13591 H 1295.71 -0.649656 -0.382705 0
M  V30 13592 H 1298.36 -1.81484 -0.271239 0
M  V30 13593 H 1296.74 -2.95259 -2.63891 0
M  V30 13594 H 1297.91 -4.59816 -0.300954 0
M  V30 13595 H 1296.23 -4.14178 -0.429616 0
M  V30 13596 H 1298.83 -4.27806 -3.20759 0
M  V30 13597 H 1299.17 -2.56698 -3.27738 0
M  V30 13598 H 1299.7 -3.51299 -1.86638 0
M  V30 13599 H 1296.44 -6.44029 -1.22096 0
M  V30 13600 H 1295.96 -5.41035 -2.58923 0
M  V30 13601 H 1297.64 -5.98819 -2.44999 0
M  V30 13602 N 1297.77 0.548248 -1.47757 0
M  V30 13603 C 1298.7 1.66409 -1.63799 0
M  V30 13604 C 1299.68 1.62973 -0.487211 0
M  V30 13605 O 1300.87 1.80455 -0.717612 0
M  V30 13606 C 1298 3.05035 -1.66046 0
M  V30 13607 C 1296.95 3.23322 -2.80441 0
M  V30 13608 C 1296.28 4.62824 -2.67765 0
M  V30 13609 C 1297.58 3.07837 -4.2194 0
M  V30 13610 H 1299.27 1.53239 -2.57212 0
M  V30 13611 H 1296.82 0.735783 -1.23783 0
M  V30 13612 H 1298.77 3.82951 -1.75859 0
M  V30 13613 H 1297.49 3.19185 -0.69199 0
M  V30 13614 H 1296.15 2.47816 -2.70153 0
M  V30 13615 H 1295.8 4.73786 -1.68927 0
M  V30 13616 H 1295.5 4.76007 -3.44515 0
M  V30 13617 H 1297.03 5.42864 -2.7952 0
M  V30 13618 H 1298.44 3.75563 -4.33157 0
M  V30 13619 H 1296.84 3.32525 -4.99547 0
M  V30 13620 H 1297.91 2.04474 -4.3968 0
M  V30 13621 N 1299.25 1.36039 0.795694 0
M  V30 13622 C 1300.5 1.30112 1.5556 0
M  V30 13623 C 1300.83 -0.121197 1.93821 0
M  V30 13624 O 1300.1 -1.07313 1.62216 0
M  V30 13625 C 1300.39 2.21792 2.8369 0
M  V30 13626 C 1300.24 3.72691 2.51836 0
M  V30 13627 C 1301.56 2.12365 3.85472 0
M  V30 13628 H 1298.68 0.473971 0.564376 0
M  V30 13629 H 1301.32 1.66536 0.91465 0
M  V30 13630 H 1299.47 1.9086 3.38386 0
M  V30 13631 H 1301.14 4.14115 2.0324 0
M  V30 13632 H 1299.38 3.92436 1.84869 0
M  V30 13633 H 1300.06 4.32242 3.43323 0
M  V30 13634 H 1302.53 2.3958 3.40207 0
M  V30 13635 H 1301.41 2.78695 4.72885 0
M  V30 13636 H 1301.67 1.10898 4.27965 0
M  V30 13637 N 1300.73 -1.01913 1.20215 0
M  V30 13638 C 1301.95 -1.79613 1.03702 0
M  V30 13639 C 1302.38 -1.83591 -0.409374 0
M  V30 13640 O 1301.74 -1.26911 -1.29473 0
M  V30 13641 C 1301.78 -3.22052 1.62219 0
M  V30 13642 O 1300.89 -4.03374 0.858106 0
M  V30 13643 H 1300.23 -0.554095 0.365889 0
M  V30 13644 H 1302.76 -1.28203 1.59452 0
M  V30 13645 H 1302.77 -3.72772 1.65847 0
M  V30 13646 H 1301.44 -3.18471 2.67487 0
M  V30 13647 H 1300.02 -3.6198 0.895835 0
M  V30 13648 N 1302.21 -1.00763 -1.2118 0
M  V30 13649 C 1303.44 -0.709715 -1.94027 0
M  V30 13650 C 1303.84 0.732135 -1.7446 0
M  V30 13651 O 1303.19 1.50731 -1.05004 0
M  V30 13652 C 1303.25 -0.95427 -3.46603 0
M  V30 13653 C 1302.91 -2.38347 -3.89923 0
M  V30 13654 C 1303.91 -3.36383 -3.96412 0
M  V30 13655 C 1301.6 -2.72183 -4.22163 0
M  V30 13656 C 1303.59 -4.66321 -4.34538 0
M  V30 13657 C 1301.28 -4.02336 -4.59966 0
M  V30 13658 C 1302.27 -4.99216 -4.66125 0
M  V30 13659 O 1301.96 -6.27041 -5.03065 0
M  V30 13660 H 1301.69 -0.260545 -0.623773 0
M  V30 13661 H 1304.25 -1.34922 -1.54872 0
M  V30 13662 H 1302.48 -0.257599 -3.85841 0
M  V30 13663 H 1304.17 -0.649333 -4.00673 0
M  V30 13664 H 1304.93 -3.11578 -3.71677 0
M  V30 13665 H 1300.81 -1.97468 -4.16566 0
M  V30 13666 H 1304.36 -5.41938 -4.3926 0
M  V30 13667 H 1300.25 -4.26924 -4.84155 0
M  V30 13668 H 1301.02 -6.31196 -5.21089 0
M  V30 13669 N 1303.68 1.3679 -0.7827 0
M  V30 13670 C 1304.91 2.04206 -0.362571 0
M  V30 13671 C 1305.33 1.58637 1.01074 0
M  V30 13672 O 1304.69 0.751692 1.64983 0
M  V30 13673 C 1304.74 3.58062 -0.4271 0
M  V30 13674 O 1303.84 4.08463 0.56845 0
M  V30 13675 H 1303.19 0.645638 -0.155073 0
M  V30 13676 H 1305.72 1.74883 -1.06194 0
M  V30 13677 H 1305.73 4.0698 -0.288298 0
M  V30 13678 H 1304.4 3.90582 -1.42893 0
M  V30 13679 H 1302.98 3.70835 0.391863 0
M  V30 13680 N 1305.16 0.53415 1.48272 0
M  V30 13681 C 1306.39 0.00368464 2.074 0
M  V30 13682 C 1306.81 -1.27003 1.38751 0
M  V30 13683 O 1306.17 -1.75502 0.454817 0
M  V30 13684 C 1306.22 -0.199034 3.6005 0
M  V30 13685 O 1305.32 -1.26679 3.92462 0
M  V30 13686 H 1304.66 0.0409936 0.662733 0
M  V30 13687 H 1307.19 0.743253 1.90622 0
M  V30 13688 H 1307.2 -0.420404 4.05828 0
M  V30 13689 H 1305.88 0.731391 4.09418 0
M  V30 13690 H 1304.46 -1.02775 3.58457 0
M  V30 13691 N 1306.64 -1.55279 0.269478 0
M  V30 13692 C 1307.92 -1.91458 -0.400412 0
M  V30 13693 C 1308.3 -1.19306 -1.74153 0
M  V30 13694 O 1307.65 -0.318017 -2.26276 0
M  V30 13695 C 1307.86 -3.44698 -0.546258 0
M  V30 13696 C 1309.2 -4.16374 -0.831758 0
M  V30 13697 O 1310.23 -3.50561 -0.631279 0
M  V30 13698 O 1309.09 -5.32826 -1.21484 0
M  V30 13699 H 1306.18 -0.79766 -0.218328 0
M  V30 13700 H 1308.73 -1.66747 0.315214 0
M  V30 13701 H 1307.5 -3.89273 0.397784 0
M  V30 13702 H 1307.12 -3.75345 -1.31157 0
M  V30 13703 N 1308.12 0.00332656 -1.576 0
M  V30 13704 C 1309.05 0.994803 -2.11248 0
M  V30 13705 C 1310.03 1.36061 -1.02085 0
M  V30 13706 O 1311.21 1.44494 -1.2975 0
M  V30 13707 C 1308.34 2.28772 -2.61306 0
M  V30 13708 C 1307.3 2.06362 -3.74965 0
M  V30 13709 C 1306.62 3.41638 -4.11324 0
M  V30 13710 C 1307.92 1.4289 -5.02374 0
M  V30 13711 H 1309.62 0.548119 -2.9434 0
M  V30 13712 H 1307.16 0.262208 -1.41593 0
M  V30 13713 H 1309.12 2.98485 -2.97464 0
M  V30 13714 H 1307.84 2.75547 -1.75332 0
M  V30 13715 H 1306.5 1.39076 -3.39195 0
M  V30 13716 H 1306.15 3.8611 -3.22379 0
M  V30 13717 H 1305.85 3.2746 -4.87897 0
M  V30 13718 H 1307.37 4.12671 -4.50039 0
M  V30 13719 H 1308.79 2.02555 -5.36325 0
M  V30 13720 H 1307.18 1.3921 -5.8373 0
M  V30 13721 H 1308.25 0.397708 -4.83266 0
M  V30 13722 N 1309.6 1.55164 0.276031 0
M  V30 13723 C 1310.85 1.74833 1.0058 0
M  V30 13724 C 1311.16 0.555089 1.87558 0
M  V30 13725 O 1312.36 0.634127 2.63991 0
M  V30 13726 C 1310.82 3.09417 1.83818 0
M  V30 13727 C 1310.43 4.36299 1.01721 0
M  V30 13728 C 1312.17 3.38437 2.56244 0
M  V30 13729 C 1310.08 5.61923 1.8438 0
M  V30 13730 H 1309.01 0.651676 0.379254 0
M  V30 13731 H 1311.66 1.81626 0.26161 0
M  V30 13732 H 1310.04 2.96654 2.62321 0
M  V30 13733 H 1311.22 4.59969 0.276565 0
M  V30 13734 H 1309.53 4.144 0.407645 0
M  V30 13735 H 1312.13 4.29501 3.18485 0
M  V30 13736 H 1312.47 2.58432 3.26372 0
M  V30 13737 H 1313 3.52284 1.84773 0
M  V30 13738 H 1309.74 6.44667 1.18679 0
M  V30 13739 H 1309.26 5.424 2.56051 0
M  V30 13740 H 1310.94 6.0011 2.4182 0
M  V30 13741 N 1311.07 -0.540404 1.48045 0
M  V30 13742 C 1312.32 -1.2932 1.54787 0
M  V30 13743 C 1312.64 -1.94335 0.222109 0
M  V30 13744 O 1313.84 -2.70982 0.167675 0
M  V30 13745 C 1312.3 -2.34594 2.72935 0
M  V30 13746 C 1311.91 -1.75696 4.1211 0
M  V30 13747 C 1313.65 -3.10949 2.88982 0
M  V30 13748 C 1311.56 -2.78849 5.21534 0
M  V30 13749 H 1310.49 -0.486315 0.576206 0
M  V30 13750 H 1313.14 -0.571998 1.74357 0
M  V30 13751 H 1311.52 -3.09704 2.46778 0
M  V30 13752 H 1312.69 -1.06845 4.48242 0
M  V30 13753 H 1311.01 -1.11869 4.01091 0
M  V30 13754 H 1313.61 -3.88012 3.679 0
M  V30 13755 H 1313.95 -3.66173 1.98048 0
M  V30 13756 H 1314.48 -2.42953 3.1499 0
M  V30 13757 H 1311.22 -2.28459 6.144 0
M  V30 13758 H 1310.74 -3.46059 4.89901 0
M  V30 13759 H 1312.42 -3.4203 5.49203 0
M  V30 13760 N 1312.55 -1.36459 -0.788468 0
M  V30 13761 C 1313.78 -1.33703 -1.57502 0
M  V30 13762 C 1314.19 0.0834961 -1.89016 0
M  V30 13763 O 1313.53 1.05107 -1.50659 0
M  V30 13764 C 1313.6 -2.09424 -2.92201 0
M  V30 13765 C 1313.26 -3.58507 -2.83411 0
M  V30 13766 C 1314.26 -4.52736 -2.5559 0
M  V30 13767 C 1311.94 -4.01405 -3.01959 0
M  V30 13768 C 1313.94 -5.87841 -2.46419 0
M  V30 13769 C 1311.62 -5.366 -2.92409 0
M  V30 13770 C 1312.62 -6.29631 -2.64677 0
M  V30 13771 O 1312.31 -7.62343 -2.55124 0
M  V30 13772 H 1312.04 -0.460221 -0.495149 0
M  V30 13773 H 1314.59 -1.80163 -0.986437 0
M  V30 13774 H 1312.82 -1.5763 -3.53114 0
M  V30 13775 H 1314.51 -1.99515 -3.53481 0
M  V30 13776 H 1315.28 -4.20906 -2.40962 0
M  V30 13777 H 1311.16 -3.29367 -3.2255 0
M  V30 13778 H 1314.7 -6.60423 -2.24694 0
M  V30 13779 H 1310.6 -5.68038 -3.066 0
M  V30 13780 H 1311.37 -7.72476 -2.70598 0
M  V30 13781 N 1314.03 1.01274 -1.20754 0
M  V30 13782 C 1315.45 1.27256 -0.963221 0
M  V30 13783 C 1315.65 1.98349 0.354972 0
M  V30 13784 O 1314.7 2.28116 1.08255 0
M  V30 13785 C 1316.02 2.1038 -2.14851 0
M  V30 13786 C 1317.56 2.23633 -2.18991 0
M  V30 13787 C 1318.04 3.10136 -3.37016 0
M  V30 13788 N 1319.53 3.17724 -3.37054 0
M  V30 13789 C 1320.26 3.84891 -4.25025 0
M  V30 13790 N 1319.76 4.54152 -5.23181 0
M  V30 13791 N 1321.55 3.81454 -4.12855 0
M  V30 13792 H 1313.7 0.535534 -2.05538 0
M  V30 13793 H 1315.97 0.299006 -0.899611 0
M  V30 13794 H 1315.67 1.65484 -3.10335 0
M  V30 13795 H 1315.55 3.11122 -2.13267 0
M  V30 13796 H 1317.93 2.67753 -1.24067 0
M  V30 13797 H 1318.02 1.22387 -2.24622 0
M  V30 13798 H 1317.66 2.66721 -4.32229 0
M  V30 13799 H 1317.59 4.11478 -3.28623 0
M  V30 13800 H 1320.08 2.68412 -2.66014 0
M  V30 13801 H 1320.39 5.03084 -5.86623 0
M  V30 13802 H 1318.74 4.52964 -5.27113 0
M  V30 13803 H 1321.93 3.26494 -3.35439 0
M  V30 13804 H 1322.1 4.33523 -4.81624 0
M  V30 13805 N 1315.51 1.01404 1.20644 0
M  V30 13806 C 1316.74 0.72104 1.93929 0
M  V30 13807 C 1317.15 -0.717853 1.7462 0
M  V30 13808 O 1316.51 -1.48664 1.05855 0
M  V30 13809 C 1316.56 1.04399 3.46097 0
M  V30 13810 O 1316.28 2.42637 3.64773 0
M  V30 13811 C 1317.78 0.771678 4.36532 0
M  V30 13812 H 1315 0.264983 0.616462 0
M  V30 13813 H 1317.55 1.35453 1.53208 0
M  V30 13814 H 1315.7 0.455946 3.84708 0
M  V30 13815 H 1316.12 2.54201 4.58783 0
M  V30 13816 H 1317.59 1.04774 5.41965 0
M  V30 13817 H 1318.07 -0.294188 4.38214 0
M  V30 13818 H 1318.67 1.34176 4.0358 0
M  V30 13819 N 1316.99 -1.36373 0.789944 0
M  V30 13820 C 1317.94 -2.31928 0.17666 0
M  V30 13821 C 1318.93 -1.55831 -0.664316 0
M  V30 13822 O 1320.14 -1.71089 -0.559341 0
M  V30 13823 H 1316.51 -0.751021 0.038353 0
M  V30 13824 H 1318.48 -2.81216 0.998004 0
M  V30 13825 C 1317.23 -3.41112 -0.673646 0
M  V30 13826 H 1316.55 -3.99784 -0.0358875 0
M  V30 13827 H 1317.99 -4.10292 -1.06942 0
M  V30 13828 C 1316.45 -2.82728 -1.83211 0
M  V30 13829 O 1316.98 -2.74935 -2.92871 0
M  V30 13830 N 1315.19 -2.4001 -1.6384 0
M  V30 13831 H 1314.74 -2.46549 -0.746423 0
M  V30 13832 H 1314.69 -2.01294 -2.41512 0
M  V30 13833 N 1318.47 -0.542005 -1.47987 0
M  V30 13834 C 1319.69 -0.016717 -2.06893 0
M  V30 13835 C 1320.11 1.27015 -1.39687 0
M  V30 13836 O 1319.47 1.75845 -0.488326 0
M  V30 13837 C 1319.52 0.198437 -3.60955 0
M  V30 13838 O 1319.24 -1.03746 -4.25639 0
M  V30 13839 C 1320.74 0.762741 -4.36689 0
M  V30 13840 H 1317.96 -0.0389497 -0.669869 0
M  V30 13841 H 1320.5 -0.751082 -1.90208 0
M  V30 13842 H 1318.66 0.882884 -3.77205 0
M  V30 13843 H 1319.07 -0.82568 -5.1796 0
M  V30 13844 H 1320.55 0.862649 -5.45218 0
M  V30 13845 H 1321.02 1.77049 -4.01933 0
M  V30 13846 H 1321.63 0.114478 -4.25146 0
M  V30 13847 N 1319.94 1.55134 -0.277709 0
M  V30 13848 C 1321.19 1.99949 0.338831 0
M  V30 13849 C 1321.52 1.16587 1.5531 0
M  V30 13850 O 1320.8 0.236572 1.93056 0
M  V30 13851 C 1321.08 3.5286 0.718457 0
M  V30 13852 C 1320.93 4.46975 -0.503332 0
M  V30 13853 C 1322.25 4.11754 1.55392 0
M  V30 13854 H 1319.37 0.726885 0.121682 0
M  V30 13855 H 1322.01 1.86055 -0.385171 0
M  V30 13856 H 1320.16 3.64831 1.33531 0
M  V30 13857 H 1321.84 4.46944 -1.14188 0
M  V30 13858 H 1320.08 4.18528 -1.14092 0
M  V30 13859 H 1320.75 5.51659 -0.193912 0
M  V30 13860 H 1323.23 4.03075 1.03293 0
M  V30 13861 H 1322.1 5.1895 1.78835 0
M  V30 13862 H 1322.36 3.62147 2.53578 0
M  V30 13863 N 1321.42 0.00503138 1.57599 0
M  V30 13864 C 1322.67 -0.67742 1.90409 0
M  V30 13865 C 1322.99 -1.74033 0.87963 0
M  V30 13866 O 1322.26 -1.95727 -0.0822757 0
M  V30 13867 H 1320.84 -0.2532 0.702779 0
M  V30 13868 H 1323.5 0.0471466 1.94843 0
M  V30 13869 H 1322.6 -1.14548 2.90319 0
M  V30 13870 N 1322.9 -1.55308 -0.267798 0
M  V30 13871 C 1324.18 -1.66881 -1.02029 0
M  V30 13872 C 1324.56 -0.538708 -2.04111 0
M  V30 13873 O 1323.9 0.460575 -2.2381 0
M  V30 13874 C 1324.11 -3.06318 -1.67243 0
M  V30 13875 C 1325.46 -3.64237 -2.18212 0
M  V30 13876 O 1326.49 -3.08984 -1.77221 0
M  V30 13877 O 1325.35 -4.61055 -2.93413 0
M  V30 13878 H 1322.44 -0.677967 -0.473593 0
M  V30 13879 H 1324.99 -1.67646 -0.263242 0
M  V30 13880 H 1323.76 -3.80015 -0.932985 0
M  V30 13881 H 1323.38 -3.09475 -2.49622 0
M  V30 13882 N 1324.38 0.532545 -1.4833 0
M  V30 13883 C 1325.65 1.29371 -1.46705 0
M  V30 13884 C 1326.03 2.10354 -0.177329 0
M  V30 13885 O 1325.38 2.12462 0.840968 0
M  V30 13886 C 1325.59 2.17733 -2.72751 0
M  V30 13887 C 1326.94 2.77956 -3.20976 0
M  V30 13888 O 1327.96 2.28022 -2.7365 0
M  V30 13889 O 1326.82 3.68779 -4.03317 0
M  V30 13890 H 1323.92 0.58378 -0.585773 0
M  V30 13891 H 1326.46 0.549411 -1.6056 0
M  V30 13892 H 1325.24 1.57659 -3.58133 0
M  V30 13893 H 1324.86 2.99415 -2.61603 0
M  V30 13894 N 1325.86 1.36875 0.78122 0
M  V30 13895 C 1327.09 1.34537 1.56791 0
M  V30 13896 C 1327.49 -0.0734709 1.89057 0
M  V30 13897 O 1326.84 -1.04307 1.51215 0
M  V30 13898 C 1326.9 2.10971 2.91087 0
M  V30 13899 C 1326.56 3.60005 2.81506 0
M  V30 13900 C 1327.56 4.54085 2.53185 0
M  V30 13901 C 1325.24 4.03001 2.99826 0
M  V30 13902 C 1327.24 5.89139 2.43298 0
M  V30 13903 C 1324.93 5.38144 2.89559 0
M  V30 13904 C 1325.92 6.31026 2.61335 0
M  V30 13905 O 1325.61 7.63685 2.51077 0
M  V30 13906 H 1325.34 0.46284 0.492702 0
M  V30 13907 H 1327.9 1.80683 0.976869 0
M  V30 13908 H 1326.13 1.595 3.52274 0
M  V30 13909 H 1327.82 2.01387 3.52418 0
M  V30 13910 H 1328.58 4.22178 2.38727 0
M  V30 13911 H 1324.46 3.31073 3.20799 0
M  V30 13912 H 1328.01 6.61605 2.21188 0
M  V30 13913 H 1323.9 5.69656 3.03583 0
M  V30 13914 H 1324.67 7.739 2.66498 0
M  V30 13915 N 1327.33 -1.00632 1.21289 0
M  V30 13916 C 1328.58 -1.73802 1.02351 0
M  V30 13917 C 1328.9 -1.90503 -0.443611 0
M  V30 13918 O 1330.1 -2.60868 -0.752356 0
M  V30 13919 C 1328.56 -3.12647 1.78269 0
M  V30 13920 C 1328.17 -3.03923 3.29142 0
M  V30 13921 C 1329.91 -3.89956 1.67735 0
M  V30 13922 C 1327.82 -4.3784 3.97556 0
M  V30 13923 H 1326.75 -0.651616 0.379358 0
M  V30 13924 H 1329.4 -1.12446 1.45011 0
M  V30 13925 H 1327.78 -3.74605 1.28401 0
M  V30 13926 H 1328.95 -2.51211 3.86303 0
M  V30 13927 H 1327.27 -2.40103 3.40205 0
M  V30 13928 H 1329.87 -4.89051 2.1618 0
M  V30 13929 H 1330.21 -4.11423 0.635338 0
M  V30 13930 H 1330.74 -3.34647 2.15072 0
M  V30 13931 H 1327.48 -4.21573 5.01952 0
M  V30 13932 H 1327 -4.90518 3.45184 0
M  V30 13933 H 1328.68 -5.06644 4.02393 0
M  V30 13934 N 1328.81 -1.02043 -1.20104 0
M  V30 13935 C 1330.22 -0.742954 -1.71281 0
M  V30 13936 C 1330.57 0.738173 -1.81784 0
M  V30 13937 O 1329.7 1.57588 -1.48307 0
M  V30 13938 C 1330.29 -1.342 -3.11088 0
M  V30 13939 C 1328.85 -1.11331 -3.59559 0
M  V30 13940 C 1328 -1.44532 -2.36655 0
M  V30 13941 H 1330.95 -1.18942 -1.05064 0
M  V30 13942 H 1330.97 -0.734558 -3.73342 0
M  V30 13943 H 1330.48 -2.41998 -3.03411 0
M  V30 13944 H 1328.58 -0.05317 -3.72562 0
M  V30 13945 H 1328.7 -1.79606 -4.4416 0
M  V30 13946 H 1327.06 -0.864431 -2.39582 0
M  V30 13947 H 1327.84 -2.53394 -2.31616 0
M  V30 13948 N 1330.29 1.35952 -0.797165 0
M  V30 13949 C 1331.52 2.0381 -0.38421 0
M  V30 13950 C 1331.94 1.597 0.993854 0
M  V30 13951 O 1331.3 0.769148 1.64176 0
M  V30 13952 C 1331.35 3.57589 -0.465054 0
M  V30 13953 O 1330.45 4.09043 0.525095 0
M  V30 13954 H 1329.79 0.643957 -0.161912 0
M  V30 13955 H 1332.32 1.73746 -1.08043 0
M  V30 13956 H 1332.33 4.06651 -0.331448 0
M  V30 13957 H 1331.01 3.89045 -1.47027 0
M  V30 13958 H 1329.58 3.7123 0.352509 0
M  V30 13959 N 1331.77 0.549846 1.47697 0
M  V30 13960 C 1333.01 0.0253105 2.04384 0
M  V30 13961 C 1333.37 -1.29692 1.41576 0
M  V30 13962 O 1334.57 -1.9087 1.89267 0
M  V30 13963 C 1332.84 -0.0736795 3.57324 0
M  V30 13964 S 1334.4 -0.545405 4.35397 0
M  V30 13965 H 1331.22 0.0215991 0.710672 0
M  V30 13966 H 1333.82 0.734912 1.81161 0
M  V30 13967 H 1332.53 0.893144 4.00563 0
M  V30 13968 H 1332.06 -0.80706 3.85033 0
M  V30 13969 H 1334.07 -1.80644 4.6215 0
M  V30 13970 N 1333.25 -1.54984 0.285932 0
M  V30 13971 C 1334.52 -1.91872 -0.380083 0
M  V30 13972 C 1334.9 -1.21146 -1.72878 0
M  V30 13973 O 1334.25 -0.341999 -2.25926 0
M  V30 13974 C 1334.46 -3.45258 -0.509667 0
M  V30 13975 C 1335.81 -4.17232 -0.787549 0
M  V30 13976 O 1336.83 -3.51211 -0.594062 0
M  V30 13977 O 1335.69 -5.34085 -1.15826 0
M  V30 13978 H 1332.79 -0.799931 -0.209856 0
M  V30 13979 H 1335.33 -1.66403 0.332882 0
M  V30 13980 H 1334.1 -3.88829 0.439049 0
M  V30 13981 H 1333.73 -3.76715 -1.27168 0
M  V30 13982 N 1334.72 -0.0133892 -1.57594 0
M  V30 13983 C 1335.96 0.672977 -1.93004 0
M  V30 13984 C 1336.33 1.70188 -0.888816 0
M  V30 13985 O 1337.53 2.4396 -1.12859 0
M  V30 13986 C 1335.8 1.28743 -3.33407 0
M  V30 13987 S 1337.36 1.99706 -3.90721 0
M  V30 13988 H 1334.18 0.221972 -0.675462 0
M  V30 13989 H 1336.78 -0.0732871 -1.95363 0
M  V30 13990 H 1335.48 0.525931 -4.07016 0
M  V30 13991 H 1335.01 2.07134 -3.34454 0
M  V30 13992 H 1337.03 3.27375 -3.72881 0
M  V30 13993 N 1336.2 1.55448 0.259558 0
M  V30 13994 C 1337.43 1.80727 1.00723 0
M  V30 13995 C 1337.85 0.587354 1.79431 0
M  V30 13996 O 1337.2 -0.443819 1.77021 0
M  V30 13997 C 1337.25 3.04064 1.95517 0
M  V30 13998 O 1336.97 4.21346 1.19996 0
M  V30 13999 C 1338.48 3.42049 2.81988 0
M  V30 14000 H 1335.7 0.601713 0.296956 0
M  V30 14001 H 1338.24 2.02486 0.286273 0
M  V30 14002 H 1336.39 2.84392 2.63058 0
M  V30 14003 H 1336.81 4.91164 1.84006 0
M  V30 14004 H 1338.28 4.31485 3.44274 0
M  V30 14005 H 1338.76 2.62059 3.52451 0
M  V30 14006 H 1339.37 3.64027 2.19918 0
M  V30 14007 N 1337.68 -0.524672 1.4861 0
M  V30 14008 C 1338.61 -1.64481 1.59621 0
M  V30 14009 C 1339.63 -1.55557 0.480181 0
M  V30 14010 O 1340.81 -1.61921 0.751254 0
M  V30 14011 C 1337.91 -3.03158 1.51487 0
M  V30 14012 C 1337.09 -3.37509 2.78221 0
M  V30 14013 C 1336.15 -4.5549 2.63467 0
M  V30 14014 O 1335.17 -4.58448 3.37364 0
M  V30 14015 N 1336.37 -5.53986 1.73437 0
M  V30 14016 H 1339.14 -1.5547 2.56221 0
M  V30 14017 H 1336.7 -0.712059 1.45401 0
M  V30 14018 H 1338.69 -3.79969 1.39305 0
M  V30 14019 H 1337.26 -3.06219 0.628406 0
M  V30 14020 H 1336.48 -2.49824 3.04929 0
M  V30 14021 H 1337.77 -3.57246 3.62288 0
M  V30 14022 H 1337.17 -5.54378 1.12612 0
M  V30 14023 H 1335.73 -6.29993 1.6719 0
M  V30 14024 N 1339.16 -1.37287 -0.77395 0
M  V30 14025 C 1340.12 -1.32699 -1.86878 0
M  V30 14026 C 1341.12 -0.231486 -1.59125 0
M  V30 14027 O 1342.31 -0.487203 -1.67248 0
M  V30 14028 C 1339.44 -1.0609 -3.23972 0
M  V30 14029 H 1340.64 -2.30083 -1.92359 0
M  V30 14030 H 1338.19 -1.22284 -0.973459 0
M  V30 14031 H 1338.92 -0.0922868 -3.24169 0
M  V30 14032 H 1338.71 -1.85383 -3.45508 0
M  V30 14033 H 1340.2 -1.05524 -4.04048 0
M  V30 14034 N 1340.64 0.999871 -1.21821 0
M  V30 14035 C 1341.86 1.77405 -1.06467 0
M  V30 14036 C 1342.28 1.84828 0.385227 0
M  V30 14037 O 1341.64 1.31338 1.26714 0
M  V30 14038 C 1341.69 3.21062 -1.66137 0
M  V30 14039 O 1341.41 3.14054 -3.05454 0
M  V30 14040 C 1342.91 4.14958 -1.55963 0
M  V30 14041 H 1340.13 0.557368 -0.373607 0
M  V30 14042 H 1342.67 1.2575 -1.61267 0
M  V30 14043 H 1340.83 3.69808 -1.15416 0
M  V30 14044 H 1341.24 4.04346 -3.34073 0
M  V30 14045 H 1342.72 5.13536 -2.02448 0
M  V30 14046 H 1343.19 4.36171 -0.514949 0
M  V30 14047 H 1343.8 3.72105 -2.05956 0
M  V30 14048 N 1342.11 1.02678 1.19562 0
M  V30 14049 C 1343.34 0.740493 1.92874 0
M  V30 14050 C 1343.75 -0.704287 1.75603 0
M  V30 14051 O 1343.1 -1.49042 1.07389 0
M  V30 14052 C 1343.16 1.00929 3.45041 0
M  V30 14053 C 1342.82 2.4452 3.86081 0
M  V30 14054 C 1343.82 3.42647 3.9101 0
M  V30 14055 C 1341.5 2.78865 4.1778 0
M  V30 14056 C 1343.5 4.73175 4.27065 0
M  V30 14057 C 1341.18 4.09603 4.53507 0
M  V30 14058 C 1342.18 5.06568 4.58124 0
M  V30 14059 O 1341.87 6.34965 4.93026 0
M  V30 14060 H 1341.6 0.270435 0.619549 0
M  V30 14061 H 1344.16 1.37369 1.52706 0
M  V30 14062 H 1342.39 0.31895 3.85382 0
M  V30 14063 H 1344.08 0.712994 3.99589 0
M  V30 14064 H 1344.84 3.17452 3.66673 0
M  V30 14065 H 1340.72 2.04071 4.13372 0
M  V30 14066 H 1344.26 5.48857 4.30583 0
M  V30 14067 H 1340.16 4.34573 4.77302 0
M  V30 14068 H 1340.93 6.39406 5.10982 0
M  V30 14069 N 1343.59 -1.35528 0.804364 0
M  V30 14070 C 1344.82 -2.02779 0.395517 0
M  V30 14071 C 1345.23 -1.60764 -0.997572 0
M  V30 14072 O 1344.57 -0.799737 -1.65378 0
M  V30 14073 C 1344.64 -3.57302 0.396904 0
M  V30 14074 C 1344.3 -4.22574 1.74012 0
M  V30 14075 C 1345.3 -4.44411 2.69806 0
M  V30 14076 C 1342.98 -4.59738 2.02352 0
M  V30 14077 C 1344.98 -5.02511 3.92124 0
M  V30 14078 C 1342.66 -5.17553 3.24934 0
M  V30 14079 C 1343.66 -5.38881 4.19638 0
M  V30 14080 O 1343.35 -5.95478 5.40056 0
M  V30 14081 H 1343.08 -0.657003 0.15913 0
M  V30 14082 H 1345.63 -1.74176 1.08867 0
M  V30 14083 H 1343.86 -3.85087 -0.352836 0
M  V30 14084 H 1345.55 -4.05899 0.0106754 0
M  V30 14085 H 1346.32 -4.16081 2.49202 0
M  V30 14086 H 1342.2 -4.42452 1.2945 0
M  V30 14087 H 1345.74 -5.19075 4.66055 0
M  V30 14088 H 1341.64 -5.4531 3.45409 0
M  V30 14089 H 1342.41 -6.13931 5.41323 0
M  V30 14090 N 1345.07 -0.557671 -1.47404 0
M  V30 14091 C 1346.31 -0.0361491 -2.04368 0
M  V30 14092 C 1346.68 1.2894 -1.42262 0
M  V30 14093 O 1347.88 1.89864 -1.90276 0
M  V30 14094 C 1346.15 0.0547287 -3.57358 0
M  V30 14095 S 1347.71 0.522307 -4.3568 0
M  V30 14096 H 1344.52 -0.0253676 -0.710547 0
M  V30 14097 H 1347.13 -0.744509 -1.80769 0
M  V30 14098 H 1345.83 -0.914374 -4.00084 0
M  V30 14099 H 1345.36 0.786629 -3.85455 0
M  V30 14100 H 1347.38 1.7819 -4.63101 0
M  V30 14101 N 1346.55 1.54831 -0.294147 0
M  V30 14102 C 1347.5 2.23263 0.58499 0
M  V30 14103 C 1348.47 1.21278 1.13494 0
M  V30 14104 O 1349.65 1.49878 1.18073 0
M  V30 14105 C 1346.79 2.97185 1.75429 0
M  V30 14106 C 1345.9 4.1393 1.23638 0
M  V30 14107 C 1345.04 4.7545 2.36899 0
M  V30 14108 C 1344.08 5.84352 1.82207 0
M  V30 14109 N 1343.22 6.39855 2.89015 0
M  V30 14110 H 1348.06 2.98 -0.00519329 0
M  V30 14111 H 1345.59 1.47093 -0.0143313 0
M  V30 14112 H 1347.55 3.38271 2.4419 0
M  V30 14113 H 1346.18 2.24837 2.3162 0
M  V30 14114 H 1345.23 3.77832 0.441247 0
M  V30 14115 H 1346.54 4.92409 0.795946 0
M  V30 14116 H 1345.7 5.19353 3.1362 0
M  V30 14117 H 1344.44 3.96288 2.84266 0
M  V30 14118 H 1343.44 5.39879 1.03974 0
M  V30 14119 H 1344.67 6.65393 1.35753 0
M  V30 14120 H 1342.61 5.6358 3.35729 0
M  V30 14121 H 1342.53 7.13661 2.49447 0
M  V30 14122 H 1343.8 6.88417 3.65654 0
M  V30 14123 N 1348.03 0.0217466 1.57585 0
M  V30 14124 C 1348.98 -0.971557 2.06264 0
M  V30 14125 C 1349.96 -1.29 0.961656 0
M  V30 14126 O 1351.15 -1.27734 1.22527 0
M  V30 14127 C 1348.28 -2.25643 2.58728 0
M  V30 14128 C 1347.37 -1.96668 3.75743 0
M  V30 14129 N 1347.76 -1.37933 4.86629 0
M  V30 14130 C 1346.06 -2.26698 3.84088 0
M  V30 14131 C 1346.76 -1.25923 5.67907 0
M  V30 14132 N 1345.73 -1.75224 5.14585 0
M  V30 14133 H 1349.54 -0.512285 2.89401 0
M  V30 14134 H 1347.05 -0.183446 1.61361 0
M  V30 14135 H 1349.05 -2.97668 2.91889 0
M  V30 14136 H 1347.71 -2.72204 1.77018 0
M  V30 14137 H 1348.72 -1.05529 5.07034 0
M  V30 14138 H 1345.4 -2.75983 3.13272 0
M  V30 14139 H 1346.79 -0.805687 6.67052 0
M  V30 14140 N 1349.51 -1.55583 -0.251311 0
M  V30 14141 C 1350.45 -1.89946 -1.31108 0
M  V30 14142 C 1351.42 -0.753209 -1.4804 0
M  V30 14143 O 1352.61 -1.00646 -1.62095 0
M  V30 14144 C 1349.75 -2.19576 -2.66233 0
M  V30 14145 C 1348.86 -3.46983 -2.57345 0
M  V30 14146 C 1348 -3.66206 -3.84794 0
M  V30 14147 C 1347.03 -4.87229 -3.70505 0
M  V30 14148 N 1346.17 -5.02996 -4.89836 0
M  V30 14149 H 1351.01 -2.80325 -1.01104 0
M  V30 14150 H 1348.55 -1.3877 -0.487986 0
M  V30 14151 H 1350.51 -2.3476 -3.44882 0
M  V30 14152 H 1349.14 -1.32406 -2.94395 0
M  V30 14153 H 1348.19 -3.40156 -1.70289 0
M  V30 14154 H 1349.5 -4.35776 -2.42695 0
M  V30 14155 H 1348.65 -3.81324 -4.71886 0
M  V30 14156 H 1347.39 -2.75638 -4.02337 0
M  V30 14157 H 1346.4 -4.72092 -2.81797 0
M  V30 14158 H 1347.62 -5.79253 -3.54462 0
M  V30 14159 H 1345.57 -4.15364 -5.07748 0
M  V30 14160 H 1345.49 -5.8587 -4.778 0
M  V30 14161 H 1346.75 -5.22521 -5.78439 0
M  V30 14162 N 1350.98 0.516783 -1.48886 0
M  V30 14163 C 1351.93 1.64093 -1.64853 0
M  V30 14164 C 1352.93 1.61392 -0.514685 0
M  V30 14165 O 1354.13 1.6609 -0.693831 0
M  V30 14166 H 1350.51 0.543672 -0.519543 0
M  V30 14167 H 1352.48 1.47774 -2.5924 0
M  V30 14168 C 1351.23 3.02308 -1.71771 0
M  V30 14169 H 1350.55 3.05085 -2.58385 0
M  V30 14170 H 1351.99 3.80544 -1.86982 0
M  V30 14171 C 1350.45 3.33757 -0.459136 0
M  V30 14172 O 1350.98 3.99475 0.422177 0
M  V30 14173 N 1349.18 2.88756 -0.326837 0
M  V30 14174 H 1348.73 2.35452 -1.045 0
M  V30 14175 H 1348.69 3.10166 0.514213 0
M  V30 14176 N 1352.46 1.37696 0.766659 0
M  V30 14177 C 1353.88 1.18607 1.06792 0
M  V30 14178 C 1354.08 0.0257195 2.01484 0
M  V30 14179 O 1353.13 -0.632608 2.44447 0
M  V30 14180 C 1354.45 2.50692 1.66054 0
M  V30 14181 C 1355.99 2.57259 1.78288 0
M  V30 14182 C 1356.47 3.89488 2.40963 0
M  V30 14183 N 1357.96 3.90957 2.48408 0
M  V30 14184 C 1358.7 4.90023 2.97767 0
M  V30 14185 N 1358.19 5.99485 3.4726 0
M  V30 14186 N 1359.98 4.77423 2.96688 0
M  V30 14187 H 1352.14 2.11951 0.138031 0
M  V30 14188 H 1354.4 0.939873 0.123863 0
M  V30 14189 H 1354.1 3.35989 1.03945 0
M  V30 14190 H 1353.98 2.68148 2.65286 0
M  V30 14191 H 1356.37 1.72366 2.39528 0
M  V30 14192 H 1356.45 2.43682 0.777981 0
M  V30 14193 H 1356.09 4.74797 1.8036 0
M  V30 14194 H 1356.02 4.0037 3.42069 0
M  V30 14195 H 1358.51 3.11888 2.13388 0
M  V30 14196 H 1358.82 6.71022 3.8334 0
M  V30 14197 H 1357.17 6.03123 3.45351 0
M  V30 14198 H 1360.36 3.91026 2.57325 0
M  V30 14199 H 1360.53 5.54783 3.34844 0
M  V30 14200 N 1353.94 -0.993397 1.22349 0
M  V30 14201 C 1355.17 -1.76581 1.0725 0
M  V30 14202 C 1355.58 -1.85346 -0.379923 0
M  V30 14203 O 1354.92 -1.3224 -1.27508 0
M  V30 14204 C 1354.98 -3.21519 1.60829 0
M  V30 14205 C 1354.65 -3.363 3.09437 0
M  V30 14206 C 1355.64 -3.23655 4.0687 0
M  V30 14207 C 1353.33 -3.61368 3.48882 0
M  V30 14208 C 1355.32 -3.3586 5.41735 0
M  V30 14209 C 1353.01 -3.73214 4.83895 0
M  V30 14210 C 1354.01 -3.60468 5.80131 0
M  V30 14211 O 1353.7 -3.7192 7.12693 0
M  V30 14212 H 1353.43 -0.561407 0.376561 0
M  V30 14213 H 1355.98 -1.25768 1.62393 0
M  V30 14214 H 1354.21 -3.73521 1.00093 0
M  V30 14215 H 1355.9 -3.80475 1.41399 0
M  V30 14216 H 1356.67 -3.04201 3.77739 0
M  V30 14217 H 1352.55 -3.70365 2.74501 0
M  V30 14218 H 1356.09 -3.25829 6.16832 0
M  V30 14219 H 1351.99 -3.92175 5.12707 0
M  V30 14220 H 1352.75 -3.88796 7.20264 0
M  V30 14221 N 1355.42 -1.03311 -1.19015 0
M  V30 14222 C 1356.66 -0.732039 -1.88805 0
M  V30 14223 C 1356.99 0.739688 -1.79886 0
M  V30 14224 O 1356.25 1.55476 -1.18851 0
M  V30 14225 C 1356.55 -1.13402 -3.38932 0
M  V30 14226 C 1356.21 -2.60473 -3.68055 0
M  V30 14227 C 1354.87 -3.00654 -3.75713 0
M  V30 14228 C 1357.23 -3.55604 -3.81045 0
M  V30 14229 C 1354.55 -4.3487 -3.93833 0
M  V30 14230 C 1356.91 -4.89529 -4.00679 0
M  V30 14231 C 1355.57 -5.29392 -4.06571 0
M  V30 14232 H 1354.84 -0.267872 -0.690888 0
M  V30 14233 H 1357.49 -1.29673 -1.40915 0
M  V30 14234 H 1355.79 -0.487997 -3.88749 0
M  V30 14235 H 1357.49 -0.878532 -3.91258 0
M  V30 14236 H 1354.08 -2.28348 -3.62706 0
M  V30 14237 H 1358.26 -3.25711 -3.74467 0
M  V30 14238 H 1353.52 -4.65285 -3.96636 0
M  V30 14239 H 1357.69 -5.63153 -4.09672 0
M  V30 14240 H 1355.32 -6.33402 -4.20364 0
M  V30 14241 N 1356.9 1.35099 -0.81154 0
M  V30 14242 C 1358.31 1.81082 -0.454543 0
M  V30 14243 C 1358.66 1.67361 1.02395 0
M  V30 14244 O 1357.78 1.20707 1.79607 0
M  V30 14245 C 1358.38 3.2877 -0.818274 0
M  V30 14246 C 1356.94 3.72877 -0.513808 0
M  V30 14247 C 1356.08 2.57008 -1.04125 0
M  V30 14248 H 1359.03 1.23007 -1.00274 0
M  V30 14249 H 1359.06 3.80318 -0.117683 0
M  V30 14250 H 1358.57 3.38725 -1.89439 0
M  V30 14251 H 1356.67 3.68468 0.553368 0
M  V30 14252 H 1356.78 4.67455 -1.0499 0
M  V30 14253 H 1355.15 2.5045 -0.463337 0
M  V30 14254 H 1355.93 2.69738 -2.12358 0
M  V30 14255 N 1358.37 0.56548 1.47106 0
M  V30 14256 C 1359.62 0.042333 2.01656 0
M  V30 14257 C 1359.94 -1.31892 1.44443 0
M  V30 14258 O 1361.14 -1.93245 1.90706 0
M  V30 14259 C 1359.6 0.0251556 3.59891 0
M  V30 14260 C 1359.21 1.38367 4.26097 0
M  V30 14261 C 1360.95 -0.44495 4.22162 0
M  V30 14262 C 1358.86 1.32516 5.76362 0
M  V30 14263 H 1357.79 0.0120557 0.753904 0
M  V30 14264 H 1360.44 0.714565 1.69015 0
M  V30 14265 H 1358.82 -0.712893 3.8953 0
M  V30 14266 H 1359.99 2.14009 4.08089 0
M  V30 14267 H 1358.31 1.79239 3.75849 0
M  V30 14268 H 1360.91 -0.507256 5.32288 0
M  V30 14269 H 1361.25 -1.45876 3.89905 0
M  V30 14270 H 1361.78 0.238496 3.97084 0
M  V30 14271 H 1358.52 2.31523 6.13252 0
M  V30 14272 H 1358.04 0.610674 5.96683 0
M  V30 14273 H 1359.72 1.03072 6.38737 0
M  V30 14274 N 1359.85 -1.54672 0.302354 0
M  V30 14275 C 1361.08 -2.04578 -0.309093 0
M  V30 14276 C 1361.5 -1.17957 -1.47416 0
M  V30 14277 O 1360.85 -0.2055 -1.81339 0
M  V30 14278 C 1360.9 -3.53334 -0.764023 0
M  V30 14279 O 1360.62 -4.36662 0.354674 0
M  V30 14280 C 1362.13 -4.19243 -1.44048 0
M  V30 14281 H 1359.35 -0.667651 -0.0669575 0
M  V30 14282 H 1361.89 -1.99658 0.442379 0
M  V30 14283 H 1360.04 -3.5861 -1.46552 0
M  V30 14284 H 1360.46 -5.245 0.000241188 0
M  V30 14285 H 1361.93 -5.24847 -1.70995 0
M  V30 14286 H 1362.41 -3.69061 -2.38098 0
M  V30 14287 H 1363.02 -4.18046 -0.782132 0
M  V30 14288 N 1361.33 -0.0301034 -1.57571 0
M  V30 14289 C 1362.58 0.649283 -1.92125 0
M  V30 14290 C 1362.91 1.71722 -0.90692 0
M  V30 14291 O 1362.18 1.94373 0.0702019 0
M  V30 14292 C 1362.47 1.26482 -3.37156 0
M  V30 14293 C 1362.32 0.206375 -4.49326 0
M  V30 14294 C 1363.64 2.18256 -3.82168 0
M  V30 14295 H 1360.76 0.234561 -0.698678 0
M  V30 14296 H 1363.4 -0.0875634 -1.89798 0
M  V30 14297 H 1361.55 1.89283 -3.3927 0
M  V30 14298 H 1363.22 -0.424268 -4.59345 0
M  V30 14299 H 1361.47 -0.468035 -4.31268 0
M  V30 14300 H 1362.14 0.676689 -5.47837 0
M  V30 14301 H 1364.61 1.65441 -3.81797 0
M  V30 14302 H 1363.49 2.58277 -4.84339 0
M  V30 14303 H 1363.75 3.07411 -3.17727 0
M  V30 14304 N 1362.81 1.55714 0.243056 0
M  V30 14305 C 1364.04 1.81786 0.98801 0
M  V30 14306 C 1364.45 0.606352 1.78798 0
M  V30 14307 O 1363.81 -0.425018 1.77482 0
M  V30 14308 C 1363.86 3.06121 1.92281 0
M  V30 14309 O 1363.58 4.22595 1.15521 0
M  V30 14310 C 1365.08 3.45021 2.78344 0
M  V30 14311 H 1362.3 0.604829 0.290557 0
M  V30 14312 H 1364.85 2.02779 0.26478 0
M  V30 14313 H 1363 2.87167 2.60027 0
M  V30 14314 H 1363.41 4.93088 1.78786 0
M  V30 14315 H 1364.89 4.35112 3.39678 0
M  V30 14316 H 1365.37 2.65782 3.49652 0
M  V30 14317 H 1365.97 3.66339 2.16045 0
M  V30 14318 N 1364.29 -0.50888 1.49158 0
M  V30 14319 C 1365.51 -1.29245 1.62205 0
M  V30 14320 C 1365.94 -1.85845 0.29041 0
M  V30 14321 O 1365.29 -1.6547 -0.740906 0
M  V30 14322 C 1365.34 -2.40415 2.68762 0
M  V30 14323 O 1364.45 -3.44048 2.27387 0
M  V30 14324 H 1363.79 -0.381898 0.543185 0
M  V30 14325 H 1366.32 -0.610076 1.95293 0
M  V30 14326 H 1366.33 -2.86295 2.90688 0
M  V30 14327 H 1365 -1.98584 3.65427 0
M  V30 14328 H 1363.58 -3.04141 2.1576 0
M  V30 14329 N 1365.76 -1.381 -0.759346 0
M  V30 14330 C 1366.71 -1.31373 -1.86347 0
M  V30 14331 C 1367.7 -0.199113 -1.59663 0
M  V30 14332 O 1368.89 -0.43459 -1.71582 0
M  V30 14333 C 1366.02 -1.13537 -3.23982 0
M  V30 14334 C 1365.11 -2.29596 -3.56576 0
M  V30 14335 N 1365.5 -3.55023 -3.60267 0
M  V30 14336 C 1363.79 -2.22022 -3.86811 0
M  V30 14337 C 1364.5 -4.31629 -3.89963 0
M  V30 14338 N 1363.47 -3.60915 -4.06499 0
M  V30 14339 H 1367.27 -2.26345 -1.8747 0
M  V30 14340 H 1364.79 -1.3125 -0.956415 0
M  V30 14341 H 1366.78 -1.06801 -4.02988 0
M  V30 14342 H 1365.44 -0.194922 -3.24114 0
M  V30 14343 H 1366.46 -3.88769 -3.42168 0
M  V30 14344 H 1363.13 -1.36104 -3.94692 0
M  V30 14345 H 1364.52 -5.40238 -3.9949 0
M  V30 14346 N 1367.24 0.986894 -1.22875 0
M  V30 14347 C 1368.52 1.70121 -0.965311 0
M  V30 14348 C 1368.9 2.04648 0.517924 0
M  V30 14349 O 1368.25 1.73453 1.48749 0
M  V30 14350 C 1368.46 2.94738 -1.86897 0
M  V30 14351 C 1369.81 3.6739 -2.12861 0
M  V30 14352 O 1370.83 3.04758 -1.84394 0
M  V30 14353 O 1369.69 4.8009 -2.61106 0
M  V30 14354 H 1366.78 0.742817 -0.363527 0
M  V30 14355 H 1369.33 1.0427 -1.33887 0
M  V30 14356 H 1368.1 2.65771 -2.87196 0
M  V30 14357 H 1367.72 3.68327 -1.49736 0
M  V30 14358 N 1368.72 1.0394 1.18466 0
M  V30 14359 C 1369.97 0.752904 1.88952 0
M  V30 14360 C 1370.32 -0.711542 1.78759 0
M  V30 14361 O 1369.61 -1.51248 1.17621 0
M  V30 14362 C 1369.81 1.15198 3.38326 0
M  V30 14363 C 1369.64 2.65367 3.63057 0
M  V30 14364 C 1368.41 3.32495 3.80493 0
M  V30 14365 C 1370.61 3.63586 3.63744 0
M  V30 14366 N 1368.59 4.71659 3.92952 0
M  V30 14367 C 1369.96 4.88417 3.81901 0
M  V30 14368 C 1372.01 3.57234 3.46826 0
M  V30 14369 C 1370.72 6.0766 3.84891 0
M  V30 14370 C 1372.74 4.75903 3.51098 0
M  V30 14371 C 1372.1 5.99553 3.69751 0
M  V30 14372 H 1368.2 0.327542 0.710099 0
M  V30 14373 H 1370.79 1.32883 1.42303 0
M  V30 14374 H 1368.96 0.604141 3.83673 0
M  V30 14375 H 1370.69 0.816625 3.96375 0
M  V30 14376 H 1367.45 2.829 3.79822 0
M  V30 14377 H 1367.87 5.43981 4.03006 0
M  V30 14378 H 1372.51 2.62613 3.31352 0
M  V30 14379 H 1370.23 7.02639 3.99153 0
M  V30 14380 H 1373.82 4.72629 3.39284 0
M  V30 14381 H 1372.7 6.89842 3.72945 0
M  V30 14382 N 1370.2 -1.34667 0.818693 0
M  V30 14383 C 1371.43 -2.02348 0.417002 0
M  V30 14384 C 1371.84 -1.61813 -0.980464 0
M  V30 14385 O 1371.18 -0.817232 -1.64521 0
M  V30 14386 C 1371.24 -3.56861 0.434779 0
M  V30 14387 C 1370.91 -4.20704 1.78485 0
M  V30 14388 C 1371.9 -4.41524 2.74504 0
M  V30 14389 C 1369.59 -4.57566 2.07217 0
M  V30 14390 C 1371.58 -4.98324 3.97431 0
M  V30 14391 C 1369.27 -5.14078 3.30405 0
M  V30 14392 C 1370.27 -5.344 4.2533 0
M  V30 14393 O 1369.95 -5.89717 5.46342 0
M  V30 14394 H 1369.69 -0.655279 0.16609 0
M  V30 14395 H 1372.24 -1.73011 1.10708 0
M  V30 14396 H 1370.47 -3.8544 -0.311973 0
M  V30 14397 H 1372.16 -4.05864 0.0537258 0
M  V30 14398 H 1372.93 -4.13414 2.53601 0
M  V30 14399 H 1368.8 -4.41054 1.34135 0
M  V30 14400 H 1372.35 -5.14102 4.71534 0
M  V30 14401 H 1368.25 -5.41616 3.51174 0
M  V30 14402 H 1369.01 -6.08155 5.47804 0
M  V30 14403 N 1371.68 -0.573274 -1.46804 0
M  V30 14404 C 1372.59 0.168081 -2.33997 0
M  V30 14405 C 1373.6 0.895652 -1.49178 0
M  V30 14406 O 1374.78 0.860951 -1.8207 0
M  V30 14407 C 1371.84 1.17483 -3.26188 0
M  V30 14408 C 1370.9 0.452956 -4.26904 0
M  V30 14409 C 1370.14 1.41175 -5.1469 0
M  V30 14410 O 1370.36 2.64767 -5.05227 0
M  V30 14411 O 1369.29 0.927472 -5.94711 0
M  V30 14412 H 1373.12 -0.547576 -2.98723 0
M  V30 14413 H 1370.71 -0.333747 -1.45624 0
M  V30 14414 H 1372.59 1.75557 -3.8309 0
M  V30 14415 H 1371.26 1.87213 -2.6407 0
M  V30 14416 H 1370.17 -0.169383 -3.73716 0
M  V30 14417 H 1371.5 -0.203186 -4.9178 0
M  V30 14418 N 1373.15 1.5451 -0.310553 0
M  V30 14419 C 1374.4 1.99505 0.296731 0
M  V30 14420 C 1374.72 1.20257 1.54265 0
M  V30 14421 O 1375.92 1.55566 2.22512 0
M  V30 14422 C 1374.38 3.55208 0.579251 0
M  V30 14423 C 1373.99 4.43276 -0.648874 0
M  V30 14424 C 1375.73 4.08705 1.1472 0
M  V30 14425 C 1373.64 5.90428 -0.338978 0
M  V30 14426 H 1372.57 0.745232 0.114652 0
M  V30 14427 H 1375.22 1.78611 -0.420749 0
M  V30 14428 H 1373.6 3.72039 1.35658 0
M  V30 14429 H 1374.77 4.3822 -1.42478 0
M  V30 14430 H 1373.09 4.00601 -1.13613 0
M  V30 14431 H 1375.69 5.16223 1.39346 0
M  V30 14432 H 1376.03 3.59889 2.09249 0
M  V30 14433 H 1376.56 3.95454 0.431363 0
M  V30 14434 H 1373.3 6.43411 -1.25309 0
M  V30 14435 H 1372.82 5.98468 0.399475 0
M  V30 14436 H 1374.5 6.46976 0.0559696 0
M  V30 14437 N 1374.63 0.0384594 1.57553 0
M  V30 14438 C 1375.57 -0.969185 2.077 0
M  V30 14439 C 1376.58 -1.2829 1.00227 0
M  V30 14440 O 1377.77 -1.24592 1.27824 0
M  V30 14441 C 1374.87 -2.29414 2.49444 0
M  V30 14442 C 1374.04 -2.16422 3.80106 0
M  V30 14443 C 1373.1 -3.31931 4.08299 0
M  V30 14444 O 1372.13 -3.08401 4.78412 0
M  V30 14445 N 1373.33 -4.56015 3.59208 0
M  V30 14446 H 1376.09 -0.541252 2.94772 0
M  V30 14447 H 1373.65 -0.148084 1.61221 0
M  V30 14448 H 1375.65 -3.05533 2.6539 0
M  V30 14449 H 1374.22 -2.63817 1.67688 0
M  V30 14450 H 1373.44 -1.24973 3.73866 0
M  V30 14451 H 1374.72 -2.04954 4.65694 0
M  V30 14452 H 1374.12 -4.78025 3.02503 0
M  V30 14453 H 1372.68 -5.29271 3.80415 0
M  V30 14454 N 1376.11 -1.55841 -0.234795 0
M  V30 14455 C 1377.02 -1.94476 -1.31211 0
M  V30 14456 C 1378.04 -0.846782 -1.52005 0
M  V30 14457 O 1379.21 -1.14922 -1.65393 0
M  V30 14458 C 1376.28 -2.24213 -2.64442 0
M  V30 14459 C 1375.34 -3.47508 -2.52065 0
M  V30 14460 C 1374.57 -3.75817 -3.78942 0
M  V30 14461 O 1374.8 -3.06007 -4.81369 0
M  V30 14462 O 1373.73 -4.69328 -3.76848 0
M  V30 14463 H 1377.56 -2.8626 -1.01434 0
M  V30 14464 H 1375.14 -1.42879 -0.436563 0
M  V30 14465 H 1377.02 -2.44594 -3.4315 0
M  V30 14466 H 1375.7 -1.35605 -2.93927 0
M  V30 14467 H 1374.6 -3.32421 -1.71602 0
M  V30 14468 H 1375.94 -4.36457 -2.27523 0
M  V30 14469 N 1377.59 0.500963 -1.49426 0
M  V30 14470 C 1378.81 1.28383 -1.62888 0
M  V30 14471 C 1379.24 1.85688 -0.300262 0
M  V30 14472 O 1378.6 1.6586 0.73212 0
M  V30 14473 C 1378.65 2.38987 -2.70033 0
M  V30 14474 O 1377.75 3.42837 -2.29208 0
M  V30 14475 H 1377.09 0.379012 -0.545202 0
M  V30 14476 H 1379.62 0.59971 -1.95613 0
M  V30 14477 H 1379.63 2.84749 -2.92202 0
M  V30 14478 H 1378.31 1.96643 -3.66475 0
M  V30 14479 H 1376.88 3.02993 -2.1737 0
M  V30 14480 N 1379.07 1.38501 0.752011 0
M  V30 14481 C 1379.98 1.38094 1.8965 0
M  V30 14482 C 1380.99 0.277851 1.71767 0
M  V30 14483 O 1382.17 0.516536 1.94663 0
M  V30 14484 C 1379.23 1.2063 3.25037 0
M  V30 14485 C 1378.3 2.40758 3.55435 0
M  V30 14486 C 1377.53 2.24118 4.84362 0
M  V30 14487 O 1377.75 1.23571 5.56854 0
M  V30 14488 O 1376.69 3.12741 5.14273 0
M  V30 14489 H 1380.51 2.34532 1.92947 0
M  V30 14490 H 1378.1 1.19437 0.897504 0
M  V30 14491 H 1379.98 1.12957 4.05979 0
M  V30 14492 H 1378.65 0.272785 3.22549 0
M  V30 14493 H 1377.56 2.54006 2.74648 0
M  V30 14494 H 1378.89 3.32745 3.62686 0
M  V30 14495 N 1380.55 -0.980364 1.23396 0
M  V30 14496 C 1381.78 -1.75434 1.09117 0
M  V30 14497 C 1382.18 -1.85739 -0.360243 0
M  V30 14498 O 1381.53 -1.33585 -1.26098 0
M  V30 14499 C 1381.59 -3.19795 1.6423 0
M  V30 14500 C 1381.25 -3.32999 3.12986 0
M  V30 14501 C 1382.25 -3.19321 4.1028 0
M  V30 14502 C 1379.93 -3.57647 3.52695 0
M  V30 14503 C 1381.93 -3.30096 5.45266 0
M  V30 14504 C 1379.62 -3.68061 4.87826 0
M  V30 14505 C 1380.61 -3.54295 5.83921 0
M  V30 14506 O 1380.3 -3.6434 7.16597 0
M  V30 14507 H 1380.03 -0.557382 0.382494 0
M  V30 14508 H 1382.59 -1.24038 1.63718 0
M  V30 14509 H 1380.82 -3.72439 1.04049 0
M  V30 14510 H 1382.51 -3.78954 1.45427 0
M  V30 14511 H 1383.27 -3.00177 3.80945 0
M  V30 14512 H 1379.15 -3.67433 2.78413 0
M  V30 14513 H 1382.7 -3.19268 6.20253 0
M  V30 14514 H 1378.59 -3.86715 5.16838 0
M  V30 14515 H 1379.36 -3.81135 7.24347 0
M  V30 14516 N 1382.02 -1.04567 -1.17913 0
M  V30 14517 C 1383.25 -0.771084 -1.91671 0
M  V30 14518 C 1383.66 0.676261 -1.76701 0
M  V30 14519 O 1383 1.47314 -1.09746 0
M  V30 14520 C 1383.07 -1.06406 -3.43392 0
M  V30 14521 C 1382.73 -2.50632 -3.82142 0
M  V30 14522 C 1383.73 -3.48825 -3.85509 0
M  V30 14523 C 1381.41 -2.85476 -4.1329 0
M  V30 14524 C 1383.41 -4.79909 -4.19483 0
M  V30 14525 C 1381.09 -4.16766 -4.46934 0
M  V30 14526 C 1382.09 -5.13793 -4.50007 0
M  V30 14527 O 1381.78 -6.42728 -4.82862 0
M  V30 14528 H 1381.51 -0.280258 -0.615168 0
M  V30 14529 H 1384.07 -1.39781 -1.50501 0
M  V30 14530 H 1382.3 -0.380221 -3.84826 0
M  V30 14531 H 1383.98 -0.776475 -3.98404 0
M  V30 14532 H 1384.75 -3.23245 -3.61577 0
M  V30 14533 H 1380.63 -2.10621 -4.10073 0
M  V30 14534 H 1384.17 -5.55638 -4.21796 0
M  V30 14535 H 1380.07 -4.42111 -4.70328 0
M  V30 14536 H 1380.84 -6.47454 -5.00744 0
M  V30 14537 N 1383.5 1.34231 -0.825823 0
M  V30 14538 C 1384.91 1.8059 -0.473724 0
M  V30 14539 C 1385.26 1.68438 1.00614 0
M  V30 14540 O 1384.39 1.22606 1.78317 0
M  V30 14541 C 1384.98 3.27884 -0.853099 0
M  V30 14542 C 1383.54 3.72311 -0.553327 0
M  V30 14543 C 1382.69 2.55889 -1.06845 0
M  V30 14544 H 1385.64 1.21937 -1.01573 0
M  V30 14545 H 1385.66 3.80172 -0.158014 0
M  V30 14546 H 1385.17 3.36696 -1.93021 0
M  V30 14547 H 1383.27 3.69034 0.514256 0
M  V30 14548 H 1383.39 4.66315 -1.09942 0
M  V30 14549 H 1381.75 2.49945 -0.489874 0
M  V30 14550 H 1382.53 2.67471 -2.15207 0
M  V30 14551 N 1384.98 0.581051 1.46498 0
M  V30 14552 C 1385.93 -0.153147 2.30291 0
M  V30 14553 C 1386.9 -0.885681 1.40517 0
M  V30 14554 O 1388.08 -0.876678 1.69467 0
M  V30 14555 C 1385.22 -1.16193 3.24951 0
M  V30 14556 C 1384.33 -0.433016 4.29824 0
M  V30 14557 C 1383.47 -1.42918 5.11613 0
M  V30 14558 C 1382.51 -0.686576 6.08237 0
M  V30 14559 N 1381.65 -1.63072 6.829 0
M  V30 14560 H 1386.49 0.56747 2.92547 0
M  V30 14561 H 1384.02 0.29166 1.4418 0
M  V30 14562 H 1385.98 -1.75965 3.78275 0
M  V30 14563 H 1384.61 -1.85028 2.64508 0
M  V30 14564 H 1383.66 0.279707 3.7937 0
M  V30 14565 H 1384.97 0.147604 4.98582 0
M  V30 14566 H 1384.13 -2.09975 5.69206 0
M  V30 14567 H 1382.87 -2.04373 4.42813 0
M  V30 14568 H 1381.87 -0.00222013 5.498 0
M  V30 14569 H 1383.1 -0.0774416 6.79056 0
M  V30 14570 H 1381.04 -2.2334 6.1681 0
M  V30 14571 H 1380.96 -1.10286 7.47912 0
M  V30 14572 H 1382.23 -2.29169 7.45052 0
M  V30 14573 N 1386.46 -1.54343 0.318742 0
M  V30 14574 C 1387.41 -2.20892 -0.564849 0
M  V30 14575 C 1388.39 -1.18782 -1.08534 0
M  V30 14576 O 1389.58 -1.44431 -1.02316 0
M  V30 14577 C 1386.71 -2.96661 -1.72763 0
M  V30 14578 C 1385.8 -4.06105 -1.22226 0
M  V30 14579 N 1386.19 -5.03916 -0.436203 0
M  V30 14580 C 1384.49 -4.19968 -1.50142 0
M  V30 14581 C 1385.19 -5.81466 -0.164875 0
M  V30 14582 N 1384.16 -5.38406 -0.74966 0
M  V30 14583 H 1387.97 -2.93868 0.0430622 0
M  V30 14584 H 1385.48 -1.61923 0.124362 0
M  V30 14585 H 1387.48 -3.42819 -2.37236 0
M  V30 14586 H 1386.14 -2.25206 -2.33907 0
M  V30 14587 H 1387.15 -5.17839 -0.0794815 0
M  V30 14588 H 1383.83 -3.59726 -2.11905 0
M  V30 14589 H 1385.22 -6.70271 0.467617 0
M  V30 14590 N 1387.94 -0.0468143 -1.5753 0
M  V30 14591 C 1389.18 0.627375 -1.91695 0
M  V30 14592 C 1389.5 1.72261 -0.926588 0
M  V30 14593 O 1390.7 2.45466 -1.16012 0
M  V30 14594 C 1389.16 1.16722 -3.40447 0
M  V30 14595 C 1388.77 0.104335 -4.47878 0
M  V30 14596 C 1390.51 1.81691 -3.83652 0
M  V30 14597 C 1388.42 0.656818 -5.87741 0
M  V30 14598 H 1387.35 0.238107 -0.715417 0
M  V30 14599 H 1390 -0.114995 -1.83139 0
M  V30 14600 H 1388.38 1.96177 -3.43992 0
M  V30 14601 H 1389.56 -0.669053 -4.55917 0
M  V30 14602 H 1387.87 -0.447633 -4.13987 0
M  V30 14603 H 1390.47 2.24014 -4.85512 0
M  V30 14604 H 1390.81 2.66686 -3.19663 0
M  V30 14605 H 1391.34 1.08898 -3.82604 0
M  V30 14606 H 1388.08 -0.155397 -6.55316 0
M  V30 14607 H 1387.6 1.39829 -5.83273 0
M  V30 14608 H 1389.28 1.14107 -6.36858 0
M  V30 14609 N 1389.41 1.55964 0.226527 0
M  V30 14610 C 1390.35 1.88487 1.30405 0
M  V30 14611 C 1391.36 0.772723 1.43293 0
M  V30 14612 O 1392.55 1.05099 1.44279 0
M  V30 14613 C 1389.65 2.074 2.68027 0
M  V30 14614 C 1388.82 3.38389 2.77149 0
M  V30 14615 C 1387.88 3.46795 3.95752 0
M  V30 14616 O 1386.91 4.19862 3.84323 0
M  V30 14617 N 1388.11 2.77573 5.09836 0
M  V30 14618 H 1390.87 2.81506 1.02833 0
M  V30 14619 H 1388.43 1.56449 0.416581 0
M  V30 14620 H 1390.43 2.10344 3.45742 0
M  V30 14621 H 1389 1.2103 2.8822 0
M  V30 14622 H 1388.22 3.47586 1.8595 0
M  V30 14623 H 1389.5 4.24688 2.8021 0
M  V30 14624 H 1388.9 2.17979 5.22017 0
M  V30 14625 H 1387.46 2.86185 5.85612 0
M  V30 14626 N 1390.89 -0.493031 1.4969 0
M  V30 14627 C 1392.12 -1.26862 1.63063 0
M  V30 14628 C 1392.53 -1.86734 0.304451 0
M  V30 14629 O 1391.87 -1.68956 -0.72108 0
M  V30 14630 C 1391.94 -2.43249 2.64708 0
M  V30 14631 C 1391.6 -2.04185 4.08849 0
M  V30 14632 C 1392.6 -1.57698 4.95406 0
M  V30 14633 C 1390.28 -2.13576 4.54632 0
M  V30 14634 C 1392.28 -1.21116 6.25787 0
M  V30 14635 C 1389.96 -1.76606 5.85024 0
M  V30 14636 C 1390.96 -1.30451 6.70426 0
M  V30 14637 O 1390.65 -0.939844 7.98387 0
M  V30 14638 H 1390.38 -0.390674 0.551679 0
M  V30 14639 H 1392.93 -0.59753 1.96516 0
M  V30 14640 H 1391.16 -3.1346 2.26451 0
M  V30 14641 H 1392.85 -3.0526 2.67528 0
M  V30 14642 H 1393.62 -1.49882 4.6126 0
M  V30 14643 H 1389.5 -2.48451 3.88321 0
M  V30 14644 H 1393.04 -0.850198 6.924 0
M  V30 14645 H 1388.94 -1.84074 6.18698 0
M  V30 14646 H 1389.71 -1.07062 8.11468 0
M  V30 14647 N 1392.37 -1.38898 -0.744656 0
M  V30 14648 C 1393.32 -1.36974 -1.87992 0
M  V30 14649 C 1394.31 -0.254277 -1.67481 0
M  V30 14650 O 1395.52 -0.423797 -1.7494 0
M  V30 14651 H 1391.89 -0.427508 -0.618661 0
M  V30 14652 H 1393.86 -2.32754 -1.86731 0
M  V30 14653 C 1392.61 -1.22054 -3.25573 0
M  V30 14654 H 1391.94 -2.07152 -3.41947 0
M  V30 14655 H 1393.38 -1.24763 -4.05228 0
M  V30 14656 C 1391.84 0.0718413 -3.36823 0
M  V30 14657 O 1392.37 1.0456 -3.87853 0
M  V30 14658 N 1390.57 0.131672 -2.90302 0
M  V30 14659 H 1390.12 -0.661428 -2.48964 0
M  V30 14660 H 1390.08 0.995936 -2.98209 0
M  V30 14661 N 1393.85 0.973806 -1.23914 0
M  V30 14662 C 1394.78 2.08526 -1.05068 0
M  V30 14663 C 1395.76 1.70065 0.0344761 0
M  V30 14664 O 1396.94 1.93755 -0.131432 0
M  V30 14665 C 1394.07 3.41198 -0.648165 0
M  V30 14666 C 1393.03 3.9359 -1.6814 0
M  V30 14667 C 1392.35 5.22534 -1.13414 0
M  V30 14668 C 1393.65 4.22116 -3.07597 0
M  V30 14669 H 1395.35 2.24551 -1.98034 0
M  V30 14670 H 1392.89 1.07905 -0.953546 0
M  V30 14671 H 1394.85 4.18383 -0.50334 0
M  V30 14672 H 1393.57 3.25056 0.317182 0
M  V30 14673 H 1392.23 3.18555 -1.81434 0
M  V30 14674 H 1391.88 5.02747 -0.159578 0
M  V30 14675 H 1391.58 5.58555 -1.82456 0
M  V30 14676 H 1393.1 6.02334 -1.0013 0
M  V30 14677 H 1394.52 4.90027 -2.97567 0
M  V30 14678 H 1392.91 4.69352 -3.73937 0
M  V30 14679 H 1393.98 3.29128 -3.56094 0
M  V30 14680 N 1395.33 1.05191 1.17357 0
M  V30 14681 C 1396.26 0.673931 2.23563 0
M  V30 14682 C 1397.24 -0.328284 1.66902 0
M  V30 14683 O 1398.42 -0.205878 1.93106 0
M  V30 14684 C 1395.55 0.0478801 3.47267 0
M  V30 14685 C 1394.51 0.974855 4.1675 0
M  V30 14686 C 1393.83 0.212684 5.34277 0
M  V30 14687 C 1395.13 2.299 4.68981 0
M  V30 14688 H 1396.83 1.56183 2.55436 0
M  V30 14689 H 1394.37 0.752408 1.2278 0
M  V30 14690 H 1396.33 -0.228343 4.20781 0
M  V30 14691 H 1395.05 -0.874963 3.14662 0
M  V30 14692 H 1393.71 1.23564 3.45148 0
M  V30 14693 H 1393.36 -0.712924 4.97922 0
M  V30 14694 H 1393.06 0.830351 5.81703 0
M  V30 14695 H 1394.58 -0.056255 6.10574 0
M  V30 14696 H 1395.99 2.08269 5.34132 0
M  V30 14697 H 1394.39 2.87064 5.26986 0
M  V30 14698 H 1395.46 2.93759 3.8579 0
M  V30 14699 N 1396.8 -1.33791 0.83293 0
M  V30 14700 C 1398.05 -1.97233 0.422127 0
M  V30 14701 C 1398.37 -1.66738 -1.02264 0
M  V30 14702 O 1399.57 -2.23747 -1.53783 0
M  V30 14703 C 1398.03 -3.5295 0.703872 0
M  V30 14704 C 1397.64 -3.92329 2.16292 0
M  V30 14705 C 1399.38 -4.22973 0.359727 0
M  V30 14706 C 1397.29 -5.40999 2.38903 0
M  V30 14707 H 1396.22 -0.738082 0.154112 0
M  V30 14708 H 1398.87 -1.52494 1.02068 0
M  V30 14709 H 1397.25 -3.95985 0.0350184 0
M  V30 14710 H 1398.42 -3.6037 2.87176 0
M  V30 14711 H 1396.74 -3.35271 2.46947 0
M  V30 14712 H 1399.34 -5.32297 0.506366 0
M  V30 14713 H 1399.68 -4.10428 -0.696743 0
M  V30 14714 H 1400.21 -3.85449 0.983568 0
M  V30 14715 H 1396.95 -5.58541 3.43093 0
M  V30 14716 H 1396.47 -5.74438 1.72573 0
M  V30 14717 H 1398.15 -6.07809 2.2176 0
M  V30 14718 N 1398.28 -0.588812 -1.46187 0
M  V30 14719 C 1399.53 -0.0765765 -2.01955 0
M  V30 14720 C 1399.85 1.29034 -1.46203 0
M  V30 14721 O 1399.12 1.84836 -0.649044 0
M  V30 14722 H 1397.7 -0.025318 -0.746571 0
M  V30 14723 H 1400.36 -0.765971 -1.79217 0
M  V30 14724 H 1399.46 -0.0121702 -3.12098 0
M  V30 14725 N 1399.76 1.54172 -0.326923 0
M  V30 14726 C 1400.67 2.28149 0.546351 0
M  V30 14727 C 1401.69 1.32628 1.12631 0
M  V30 14728 O 1402.86 1.65647 1.14556 0
M  V30 14729 C 1399.93 3.02742 1.68962 0
M  V30 14730 C 1398.99 4.13856 1.14112 0
M  V30 14731 C 1398.22 4.84882 2.2299 0
M  V30 14732 O 1398.44 4.55448 3.43399 0
M  V30 14733 O 1397.38 5.71714 1.8822 0
M  V30 14734 H 1401.2 3.03651 -0.0545288 0
M  V30 14735 H 1398.79 1.49113 -0.0925027 0
M  V30 14736 H 1400.67 3.49443 2.35515 0
M  V30 14737 H 1399.35 2.30113 2.27662 0
M  V30 14738 H 1398.25 3.71497 0.440579 0
M  V30 14739 H 1399.59 4.88539 0.599211 0
M  V30 14740 N 1401.24 0.0551678 1.57503 0
M  V30 14741 C 1402.49 -0.6165 1.92467 0
M  V30 14742 C 1402.81 -1.71147 0.934552 0
M  V30 14743 O 1402.08 -1.9589 -0.0199649 0
M  V30 14744 H 1400.66 -0.230714 0.710479 0
M  V30 14745 H 1403.32 0.109111 1.94594 0
M  V30 14746 H 1402.42 -1.05254 2.93816 0
M  V30 14747 N 1402.72 -1.56081 -0.218252 0
M  V30 14748 C 1404.13 -1.69397 -0.784964 0
M  V30 14749 C 1404.48 -0.65775 -1.84846 0
M  V30 14750 O 1403.6 0.190478 -2.1556 0
M  V30 14751 C 1404.2 -3.07114 -1.4306 0
M  V30 14752 C 1402.76 -3.22273 -1.94466 0
M  V30 14753 C 1401.9 -2.65327 -0.80604 0
M  V30 14754 H 1404.86 -1.58699 0.0064566 0
M  V30 14755 H 1404.88 -3.03156 -2.2995 0
M  V30 14756 H 1404.39 -3.8251 -0.656335 0
M  V30 14757 H 1402.49 -2.51752 -2.74684 0
M  V30 14758 H 1402.6 -4.29526 -2.12237 0
M  V30 14759 H 1400.97 -2.23894 -1.21423 0
M  V30 14760 H 1401.75 -3.43271 -0.0443928 0
M  V30 14761 N 1404.2 0.485086 -1.49949 0
M  V30 14762 C 1405.44 1.24816 -1.61865 0
M  V30 14763 C 1405.8 1.8955 -0.305741 0
M  V30 14764 O 1407 2.67118 -0.300216 0
M  V30 14765 C 1405.27 2.27464 -2.75672 0
M  V30 14766 S 1406.83 3.12898 -3.07637 0
M  V30 14767 H 1403.65 0.423964 -0.570767 0
M  V30 14768 H 1406.25 0.547552 -1.87676 0
M  V30 14769 H 1404.95 1.78464 -3.69566 0
M  V30 14770 H 1404.49 3.02172 -2.51904 0
M  V30 14771 H 1406.5 4.28395 -2.50384 0
M  V30 14772 N 1405.67 1.39291 0.737279 0
M  V30 14773 C 1406.58 1.40098 1.88175 0
M  V30 14774 C 1407.6 0.296053 1.71463 0
M  V30 14775 O 1408.78 0.537153 1.94105 0
M  V30 14776 C 1405.84 1.24071 3.2374 0
M  V30 14777 C 1404.9 2.44515 3.52861 0
M  V30 14778 C 1404.13 2.29243 4.81958 0
M  V30 14779 O 1404.36 1.2947 5.55512 0
M  V30 14780 O 1403.29 3.18178 5.10927 0
M  V30 14781 H 1407.12 2.36565 1.90449 0
M  V30 14782 H 1404.7 1.20382 0.884786 0
M  V30 14783 H 1406.58 1.17257 4.04758 0
M  V30 14784 H 1405.26 0.30698 3.22241 0
M  V30 14785 H 1404.17 2.56905 2.71939 0
M  V30 14786 H 1405.5 3.36573 3.59137 0
M  V30 14787 N 1407.15 -0.967221 1.24429 0
M  V30 14788 C 1408.56 -1.52488 1.07723 0
M  V30 14789 C 1408.91 -1.93031 -0.351191 0
M  V30 14790 O 1408.04 -1.77376 -1.23963 0
M  V30 14791 C 1408.63 -2.77107 1.94929 0
M  V30 14792 C 1407.19 -3.29227 1.82446 0
M  V30 14793 C 1406.34 -2.02133 1.89835 0
M  V30 14794 H 1409.29 -0.785465 1.37899 0
M  V30 14795 H 1409.31 -3.50459 1.48186 0
M  V30 14796 H 1408.82 -2.47567 2.98885 0
M  V30 14797 H 1406.92 -3.63617 0.813246 0
M  V30 14798 H 1407.04 -3.98095 2.66566 0
M  V30 14799 H 1405.4 -2.16867 1.3357 0
M  V30 14800 H 1406.18 -1.74958 2.95372 0
M  V30 14801 N 1408.63 -1.05812 -1.16797 0
M  V30 14802 C 1409.88 -0.770398 -1.8684 0
M  V30 14803 C 1410.2 0.704986 -1.8181 0
M  V30 14804 O 1409.47 1.50977 -1.24832 0
M  V30 14805 H 1408.05 -0.281989 -0.691731 0
M  V30 14806 H 1410.71 -1.33859 -1.41661 0
M  V30 14807 H 1409.81 -1.09094 -2.92412 0
M  V30 14808 N 1410.11 1.33347 -0.840014 0
M  V30 14809 C 1411.38 1.92293 -0.358158 0
M  V30 14810 C 1411.76 1.76594 1.15662 0
M  V30 14811 O 1411.11 1.15503 1.97158 0
M  V30 14812 C 1411.32 3.39558 -0.806329 0
M  V30 14813 C 1412.67 4.16705 -0.81501 0
M  V30 14814 O 1413.69 3.48214 -0.75001 0
M  V30 14815 O 1412.55 5.38974 -0.903818 0
M  V30 14816 H 1409.65 0.820737 -0.101585 0
M  V30 14817 H 1412.19 1.42213 -0.925942 0
M  V30 14818 H 1410.97 3.44861 -1.84897 0
M  V30 14819 H 1410.59 3.97017 -0.215181 0
M  V30 14820 N 1411.59 0.596556 1.45873 0
M  V30 14821 C 1412.83 0.090321 2.042 0
M  V30 14822 C 1413.19 -1.25123 1.45631 0
M  V30 14823 O 1414.39 -1.84752 1.95243 0
M  V30 14824 C 1412.66 0.0400377 3.57378 0
M  V30 14825 S 1414.22 -0.40661 4.36912 0
M  V30 14826 H 1411.04 0.0441976 0.709625 0
M  V30 14827 H 1413.64 0.792175 1.78731 0
M  V30 14828 H 1412.34 1.02013 3.97519 0
M  V30 14829 H 1411.88 -0.684156 3.87405 0
M  V30 14830 H 1413.89 -1.65849 4.67663 0
M  V30 14831 N 1413.06 -1.53996 0.335095 0
M  V30 14832 C 1414.31 -2.00375 -0.263475 0
M  V30 14833 C 1414.63 -1.22471 -1.51742 0
M  V30 14834 O 1413.9 -0.329604 -1.93107 0
M  V30 14835 H 1412.48 -0.740229 -0.100347 0
M  V30 14836 H 1415.14 -1.89531 0.454302 0
M  V30 14837 H 1414.24 -3.07874 -0.511834 0
M  V30 14838 N 1414.54 -0.0635198 -1.57472 0
M  V30 14839 C 1415.79 0.606285 -1.92792 0
M  V30 14840 C 1416.11 1.70648 -0.943615 0
M  V30 14841 O 1415.38 1.95898 0.00957612 0
M  V30 14842 H 1413.96 0.226943 -0.711692 0
M  V30 14843 H 1416.62 -0.119429 -1.94534 0
M  V30 14844 H 1415.72 1.03694 -2.9437 0
M  V30 14845 N 1416.02 1.56195 0.209972 0
M  V30 14846 C 1416.97 1.93355 1.26026 0
M  V30 14847 C 1417.94 0.792195 1.45991 0
M  V30 14848 O 1419.12 1.04909 1.5937 0
M  V30 14849 C 1416.26 2.26558 2.60318 0
M  V30 14850 C 1415.37 3.53685 2.48055 0
M  V30 14851 C 1414.51 3.76279 3.7495 0
M  V30 14852 C 1413.55 4.96881 3.57457 0
M  V30 14853 N 1412.69 5.15806 4.76328 0
M  V30 14854 H 1417.53 2.82907 0.936357 0
M  V30 14855 H 1415.06 1.40015 0.451022 0
M  V30 14856 H 1417.02 2.43821 3.38537 0
M  V30 14857 H 1415.65 1.40165 2.90781 0
M  V30 14858 H 1414.7 3.44551 1.61211 0
M  V30 14859 H 1416.01 4.42057 2.31056 0
M  V30 14860 H 1415.17 3.93702 4.6161 0
M  V30 14861 H 1413.91 2.86209 3.94887 0
M  V30 14862 H 1412.91 4.79397 2.69181 0
M  V30 14863 H 1414.14 5.88447 3.38979 0
M  V30 14864 H 1412.08 4.28681 4.96557 0
M  V30 14865 H 1412 5.98332 4.62099 0
M  V30 14866 H 1413.27 5.37674 5.64382 0
M  V30 14867 N 1417.5 -0.477127 1.50204 0
M  V30 14868 C 1418.43 -1.58405 1.71552 0
M  V30 14869 C 1419.41 -1.60463 0.564413 0
M  V30 14870 O 1420.59 -1.76826 0.802893 0
M  V30 14871 C 1417.72 -2.96765 1.8041 0
M  V30 14872 C 1416.68 -3.09573 2.95548 0
M  V30 14873 C 1416 -4.49522 2.89542 0
M  V30 14874 C 1417.3 -2.87356 4.36147 0
M  V30 14875 H 1419 -1.40792 2.64231 0
M  V30 14876 H 1416.54 -0.675886 1.27153 0
M  V30 14877 H 1418.5 -3.74125 1.9393 0
M  V30 14878 H 1417.22 -3.1552 0.843489 0
M  V30 14879 H 1415.88 -2.34645 2.81669 0
M  V30 14880 H 1415.53 -4.65186 1.91339 0
M  V30 14881 H 1415.23 -4.59028 3.66834 0
M  V30 14882 H 1416.75 -5.28909 3.05102 0
M  V30 14883 H 1418.17 -3.54469 4.50583 0
M  V30 14884 H 1416.56 -3.08313 5.14843 0
M  V30 14885 H 1417.63 -1.83264 4.48935 0
M  V30 14886 N 1418.98 -1.3968 -0.729882 0
M  V30 14887 C 1419.91 -1.41549 -1.85704 0
M  V30 14888 C 1420.89 -0.278186 -1.6781 0
M  V30 14889 O 1422.07 -0.484749 -1.88053 0
M  V30 14890 C 1419.2 -1.26327 -3.2351 0
M  V30 14891 C 1418.16 -2.37511 -3.56051 0
M  V30 14892 C 1417.48 -2.07375 -4.92849 0
M  V30 14893 C 1418.78 -3.79833 -3.58502 0
M  V30 14894 H 1420.48 -2.35877 -1.84398 0
M  V30 14895 H 1418.02 -1.13536 -0.885747 0
M  V30 14896 H 1419.98 -1.26254 -4.02042 0
M  V30 14897 H 1418.7 -0.284697 -3.25357 0
M  V30 14898 H 1417.36 -2.36809 -2.79852 0
M  V30 14899 H 1417.01 -1.07943 -4.91281 0
M  V30 14900 H 1416.71 -2.81855 -5.15588 0
M  V30 14901 H 1418.23 -2.08961 -5.73731 0
M  V30 14902 H 1419.64 -3.82436 -4.27101 0
M  V30 14903 H 1418.04 -4.53715 -3.92763 0
M  V30 14904 H 1419.11 -4.10443 -2.58195 0
M  V30 14905 N 1420.45 0.960609 -1.2494 0
M  V30 14906 C 1421.69 1.71937 -1.10531 0
M  V30 14907 C 1422.06 1.88806 0.348766 0
M  V30 14908 O 1423.26 2.61681 0.614539 0
M  V30 14909 C 1421.53 3.0685 -1.83242 0
M  V30 14910 S 1423.09 3.98057 -1.84651 0
M  V30 14911 H 1419.91 0.591061 -0.395181 0
M  V30 14912 H 1422.51 1.14618 -1.58376 0
M  V30 14913 H 1421.21 2.92238 -2.8814 0
M  V30 14914 H 1420.74 3.69233 -1.35759 0
M  V30 14915 H 1422.76 4.8761 -0.919263 0
M  V30 14916 N 1421.93 1.0643 1.16234 0
M  V30 14917 C 1422.88 0.676311 2.20669 0
M  V30 14918 C 1423.85 -0.327721 1.62835 0
M  V30 14919 O 1425.03 -0.216296 1.8957 0
M  V30 14920 C 1422.17 0.0703726 3.45028 0
M  V30 14921 C 1421.29 1.12475 4.17101 0
M  V30 14922 C 1420.42 0.484806 5.28983 0
M  V30 14923 C 1419.46 1.52262 5.9286 0
M  V30 14924 N 1418.6 0.905938 6.96231 0
M  V30 14925 H 1423.44 1.57129 2.53209 0
M  V30 14926 H 1420.98 0.7856 1.24365 0
M  V30 14927 H 1422.93 -0.298488 4.16131 0
M  V30 14928 H 1421.56 -0.788002 3.13034 0
M  V30 14929 H 1420.62 1.6113 3.44589 0
M  V30 14930 H 1421.93 1.91202 4.60698 0
M  V30 14931 H 1421.08 0.0630553 6.06667 0
M  V30 14932 H 1419.82 -0.334332 4.86553 0
M  V30 14933 H 1418.83 1.95425 5.13896 0
M  V30 14934 H 1420.05 2.34388 6.37369 0
M  V30 14935 H 1418 0.107536 6.55912 0
M  V30 14936 H 1417.91 1.63058 7.38206 0
M  V30 14937 H 1419.18 0.509378 7.77834 0
M  V30 14938 N 1423.41 -1.329 0.847073 0
M  V30 14939 C 1424.36 -2.26534 0.258111 0
M  V30 14940 C 1425.34 -1.49627 -0.591653 0
M  V30 14941 O 1426.54 -1.71385 -0.442277 0
M  V30 14942 C 1423.67 -3.38719 -0.558969 0
M  V30 14943 C 1422.75 -4.23018 0.30276 0
M  V30 14944 N 1423.14 -4.86457 1.38541 0
M  V30 14945 C 1421.44 -4.45907 0.0911992 0
M  V30 14946 C 1422.14 -5.49277 1.91492 0
M  V30 14947 N 1421.12 -5.29843 1.21519 0
M  V30 14948 H 1424.92 -2.73103 1.0859 0
M  V30 14949 H 1422.43 -1.46901 0.692386 0
M  V30 14950 H 1424.43 -4.04797 -0.997259 0
M  V30 14951 H 1423.09 -2.93697 -1.38464 0
M  V30 14952 H 1424.1 -4.86776 1.76832 0
M  V30 14953 H 1420.78 -4.11584 -0.70037 0
M  V30 14954 H 1422.17 -6.09764 2.82201 0
M  V30 14955 N 1424.89 -0.604284 -1.45555 0
M  V30 14956 C 1426.14 -0.0979922 -2.01862 0
M  V30 14957 C 1426.46 1.27476 -1.47563 0
M  V30 14958 O 1425.73 1.84137 -0.668612 0
M  V30 14959 H 1424.31 -0.033235 -0.74626 0
M  V30 14960 H 1426.97 -0.784936 -1.78395 0
M  V30 14961 H 1426.07 -0.0452716 -3.12067 0
M  V30 14962 N 1426.37 1.53816 -0.343257 0
M  V30 14963 C 1427.61 2.01207 0.253721 0
M  V30 14964 C 1427.95 1.23069 1.50225 0
M  V30 14965 O 1427.22 0.31824 1.91879 0
M  V30 14966 C 1427.5 3.5559 0.56815 0
M  V30 14967 C 1427.36 4.44438 -0.692457 0
M  V30 14968 C 1428.68 4.17974 1.37788 0
M  V30 14969 H 1425.79 0.731392 0.0907427 0
M  V30 14970 H 1428.44 1.84254 -0.463736 0
M  V30 14971 H 1426.59 3.70166 1.17937 0
M  V30 14972 H 1428.26 4.41698 -1.33042 0
M  V30 14973 H 1426.5 4.13312 -1.3174 0
M  V30 14974 H 1427.17 5.5034 -0.427715 0
M  V30 14975 H 1429.65 4.07094 0.861043 0
M  V30 14976 H 1428.52 5.26068 1.56663 0
M  V30 14977 H 1428.79 3.72577 2.3799 0
M  V30 14978 N 1427.84 0.0718701 1.57436 0
M  V30 14979 C 1429.09 -0.596799 1.92669 0
M  V30 14980 C 1429.41 -1.70765 0.953876 0
M  V30 14981 O 1430.61 -2.43589 1.19903 0
M  V30 14982 C 1429.07 -1.11291 3.42261 0
M  V30 14983 C 1428.68 -0.0330681 4.47988 0
M  V30 14984 C 1430.42 -1.75564 3.86494 0
M  V30 14985 C 1428.33 -0.56323 5.88712 0
M  V30 14986 H 1427.26 -0.226695 0.719114 0
M  V30 14987 H 1429.91 0.144117 1.82933 0
M  V30 14988 H 1428.29 -1.9068 3.4707 0
M  V30 14989 H 1429.46 0.741501 4.54795 0
M  V30 14990 H 1427.78 0.513438 4.13222 0
M  V30 14991 H 1430.38 -2.16261 4.89014 0
M  V30 14992 H 1430.72 -2.61566 3.23865 0
M  V30 14993 H 1431.25 -1.02798 3.84288 0
M  V30 14994 H 1427.99 0.259632 6.54986 0
M  V30 14995 H 1427.51 -1.30532 5.85424 0
M  V30 14996 H 1429.19 -1.03961 6.38593 0
M  V30 14997 N 1429.32 -1.56304 -0.201686 0
M  V30 14998 C 1430.57 -1.79881 -0.921269 0
M  V30 14999 C 1430.89 -0.643809 -1.84065 0
M  V30 15000 O 1430.16 0.338239 -1.92958 0
M  V30 15001 H 1428.74 -0.663506 -0.343175 0
M  V30 15002 H 1431.4 -1.93779 -0.208775 0
M  V30 15003 H 1430.5 -2.7279 -1.51631 0
M  V30 15004 N 1430.8 0.469154 -1.50455 0
M  V30 15005 C 1432.05 1.21788 -1.60781 0
M  V30 15006 C 1432.36 1.93054 -0.314576 0
M  V30 15007 O 1433.57 2.69873 -0.296773 0
M  V30 15008 C 1432.02 2.21305 -2.83817 0
M  V30 15009 C 1431.63 1.55833 -4.20024 0
M  V30 15010 C 1433.38 2.96808 -3.03489 0
M  V30 15011 C 1431.28 2.53648 -5.34244 0
M  V30 15012 H 1430.21 0.45827 -0.598752 0
M  V30 15013 H 1432.86 0.488159 -1.76888 0
M  V30 15014 H 1431.25 2.97577 -2.61273 0
M  V30 15015 H 1432.42 0.853371 -4.52829 0
M  V30 15016 H 1430.74 0.926046 -4.05972 0
M  V30 15017 H 1433.33 3.70017 -3.85994 0
M  V30 15018 H 1433.68 3.56307 -2.15293 0
M  V30 15019 H 1434.21 2.27648 -3.26223 0
M  V30 15020 H 1430.95 1.98885 -6.246 0
M  V30 15021 H 1430.47 3.22291 -5.05854 0
M  V30 15022 H 1432.15 3.15438 -5.64897 0
M  V30 15023 N 1432.28 1.40065 0.722464 0
M  V30 15024 C 1433.52 1.38175 1.48444 0
M  V30 15025 C 1433.86 -0.0182857 1.94191 0
M  V30 15026 O 1433.13 -0.985638 1.67677 0
M  V30 15027 C 1433.42 2.36518 2.71535 0
M  V30 15028 C 1433.27 3.85517 2.31726 0
M  V30 15029 C 1434.59 2.325 3.73673 0
M  V30 15030 H 1431.71 0.503221 0.538458 0
M  V30 15031 H 1434.35 1.7115 0.825087 0
M  V30 15032 H 1432.5 2.08529 3.27793 0
M  V30 15033 H 1434.17 4.24306 1.81003 0
M  V30 15034 H 1432.41 4.01684 1.63807 0
M  V30 15035 H 1433.08 4.49834 3.19928 0
M  V30 15036 H 1435.56 2.57277 3.27029 0
M  V30 15037 H 1434.44 3.03369 4.57447 0
M  V30 15038 H 1434.7 1.33427 4.21485 0
M  V30 15039 N 1433.76 -0.95397 1.25448 0
M  V30 15040 C 1434.99 -1.73331 1.12977 0
M  V30 15041 C 1435.4 -1.86131 -0.316364 0
M  V30 15042 O 1434.76 -1.35951 -1.21753 0
M  V30 15043 C 1434.81 -3.14675 1.77938 0
M  V30 15044 O 1434.53 -3.025 3.16899 0
M  V30 15045 C 1436.03 -4.08884 1.71256 0
M  V30 15046 H 1433.25 -0.543118 0.394036 0
M  V30 15047 H 1435.79 -1.19678 1.65823 0
M  V30 15048 H 1433.95 -3.6527 1.29062 0
M  V30 15049 H 1434.36 -3.91668 3.4885 0
M  V30 15050 H 1435.84 -5.05668 2.21368 0
M  V30 15051 H 1436.31 -4.33959 0.676476 0
M  V30 15052 H 1436.92 -3.64205 2.19624 0
M  V30 15053 N 1435.24 -1.07045 -1.15668 0
M  V30 15054 C 1436.2 -0.69198 -2.18505 0
M  V30 15055 C 1437.2 0.266185 -1.58582 0
M  V30 15056 O 1438.39 0.0475566 -1.74135 0
M  V30 15057 C 1435.52 -0.0194196 -3.40894 0
M  V30 15058 H 1436.71 -1.60241 -2.53501 0
M  V30 15059 H 1434.27 -0.866598 -1.30076 0
M  V30 15060 H 1435 0.903398 -3.11463 0
M  V30 15061 H 1434.79 -0.708519 -3.85645 0
M  V30 15062 H 1436.28 0.230829 -4.16962 0
M  V30 15063 N 1436.71 1.32449 -0.85411 0
M  V30 15064 C 1437.96 1.96881 -0.45632 0
M  V30 15065 C 1438.28 1.67926 0.991248 0
M  V30 15066 O 1437.55 0.986195 1.69266 0
M  V30 15067 H 1436.13 0.728378 -0.165752 0
M  V30 15068 H 1438.79 1.61542 -1.09042 0
M  V30 15069 H 1437.89 3.0626 -0.600927 0
M  V30 15070 N 1438.19 0.611994 1.45232 0
M  V30 15071 C 1439.44 0.108696 2.01807 0
M  V30 15072 C 1439.76 -1.26692 1.48237 0
M  V30 15073 O 1439.03 -1.8378 0.678368 0
M  V30 15074 H 1437.61 0.0371921 0.746074 0
M  V30 15075 H 1440.27 0.794386 1.77976 0
M  V30 15076 H 1439.37 0.0618207 3.12039 0
M  V30 15077 N 1439.67 -1.53632 0.351409 0
M  V30 15078 C 1440.95 -1.93311 -0.298362 0
M  V30 15079 C 1441.33 -1.28369 -1.67584 0
M  V30 15080 O 1440.67 -0.437514 -2.24272 0
M  V30 15081 C 1440.88 -3.47109 -0.362773 0
M  V30 15082 C 1442.23 -4.20197 -0.609878 0
M  V30 15083 O 1443.26 -3.53415 -0.444566 0
M  V30 15084 O 1442.12 -5.38517 -0.930691 0
M  V30 15085 H 1439.21 -0.808112 -0.175739 0
M  V30 15086 H 1441.76 -1.64841 0.40316 0
M  V30 15087 H 1440.53 -3.86617 0.60357 0
M  V30 15088 H 1440.15 -3.81769 -1.11076 0
M  V30 15089 N 1441.15 -0.0802183 -1.57396 0
M  V30 15090 C 1442.1 0.901668 -2.14412 0
M  V30 15091 C 1443.09 1.30247 -1.08314 0
M  V30 15092 O 1444.3 1.27873 -1.26682 0
M  V30 15093 H 1440.67 0.308748 -0.685696 0
M  V30 15094 H 1442.64 0.395934 -2.95762 0
M  V30 15095 C 1441.39 2.15665 -2.72734 0
M  V30 15096 H 1440.71 1.8571 -3.54051 0
M  V30 15097 H 1442.15 2.82461 -3.16214 0
M  V30 15098 C 1440.61 2.9208 -1.67901 0
M  V30 15099 O 1441.14 3.86087 -1.10903 0
M  V30 15100 N 1439.35 2.55343 -1.38739 0
M  V30 15101 H 1438.9 1.78969 -1.85278 0
M  V30 15102 H 1438.85 3.06773 -0.688317 0
M  V30 15103 N 1442.63 1.56409 0.193394 0
M  V30 15104 C 1443.58 1.91085 1.24381 0
M  V30 15105 C 1444.56 0.77672 1.40911 0
M  V30 15106 O 1445.75 1.0396 1.43253 0
M  V30 15107 C 1442.88 2.25533 2.58824 0
M  V30 15108 C 1441.97 3.45407 2.46079 0
M  V30 15109 N 1442.36 4.63268 2.03017 0
M  V30 15110 C 1440.66 3.49578 2.76967 0
M  V30 15111 C 1441.36 5.45425 2.02205 0
M  V30 15112 N 1440.33 4.85876 2.43773 0
M  V30 15113 H 1444.13 2.79709 0.902224 0
M  V30 15114 H 1441.65 1.57351 0.401818 0
M  V30 15115 H 1443.65 2.48561 3.34699 0
M  V30 15116 H 1442.31 1.38236 2.93804 0
M  V30 15117 H 1443.32 4.87902 1.737 0
M  V30 15118 H 1439.99 2.72702 3.16133 0
M  V30 15119 H 1441.38 6.49829 1.70798 0
M  V30 15120 N 1444.1 -0.461169 1.50702 0
M  V30 15121 C 1445.35 -1.21431 1.62427 0
M  V30 15122 C 1445.68 -1.91406 0.328228 0
M  V30 15123 O 1444.96 -1.82563 -0.670898 0
M  V30 15124 C 1445.24 -2.25016 2.8114 0
M  V30 15125 C 1445.09 -1.5928 4.20654 0
M  V30 15126 C 1446.41 -3.26234 2.95397 0
M  V30 15127 H 1443.53 -0.440113 0.59116 0
M  V30 15128 H 1446.17 -0.506726 1.83118 0
M  V30 15129 H 1444.32 -2.85363 2.63629 0
M  V30 15130 H 1446 -1.02454 4.49779 0
M  V30 15131 H 1444.24 -0.895665 4.24453 0
M  V30 15132 H 1444.91 -2.34602 4.99666 0
M  V30 15133 H 1447.39 -2.7592 3.1146 0
M  V30 15134 H 1446.26 -3.96031 3.80067 0
M  V30 15135 H 1446.52 -3.90943 2.06436 0
M  V30 15136 N 1445.58 -1.40446 -0.715026 0
M  V30 15137 C 1446.54 -1.40506 -1.81082 0
M  V30 15138 C 1447.54 -0.298768 -1.58 0
M  V30 15139 O 1448.73 -0.5577 -1.65031 0
M  V30 15140 C 1445.87 -1.19735 -3.19181 0
M  V30 15141 H 1447.06 -2.38034 -1.82427 0
M  V30 15142 H 1444.61 -1.26303 -0.920718 0
M  V30 15143 H 1445.35 -0.229695 -3.23486 0
M  V30 15144 H 1445.13 -1.99871 -3.37334 0
M  V30 15145 H 1446.62 -1.22566 -3.99208 0
M  V30 15146 N 1447.06 0.947303 -1.25952 0
M  V30 15147 C 1448.31 1.69279 -1.11135 0
M  V30 15148 C 1448.63 1.9139 0.346407 0
M  V30 15149 O 1447.89 1.48786 1.27126 0
M  V30 15150 C 1448.19 3.07652 -1.81892 0
M  V30 15151 C 1447.85 3.05317 -3.31802 0
M  V30 15152 C 1446.52 3.04387 -3.72695 0
M  V30 15153 C 1448.87 2.98088 -4.27543 0
M  V30 15154 C 1446.2 2.93987 -5.07729 0
M  V30 15155 C 1448.55 2.89229 -5.62609 0
M  V30 15156 C 1447.21 2.86639 -6.02822 0
M  V30 15157 H 1446.48 0.619435 -0.40667 0
M  V30 15158 H 1449.13 1.10621 -1.56318 0
M  V30 15159 H 1447.43 3.69898 -1.29161 0
M  V30 15160 H 1449.13 3.6417 -1.67873 0
M  V30 15161 H 1445.72 3.06817 -2.99268 0
M  V30 15162 H 1449.91 2.9792 -3.96935 0
M  V30 15163 H 1445.16 2.90355 -5.38056 0
M  V30 15164 H 1449.34 2.82598 -6.36483 0
M  V30 15165 H 1446.96 2.78336 -7.07413 0
M  V30 15166 N 1448.54 1.07657 1.15099 0
M  V30 15167 C 1449.79 0.796589 1.85303 0
M  V30 15168 C 1450.1 -0.679887 1.83404 0
M  V30 15169 O 1451.31 -1.07475 2.49322 0
M  V30 15170 C 1449.76 1.37495 3.326 0
M  V30 15171 C 1449.37 2.88267 3.42938 0
M  V30 15172 C 1451.11 1.17313 4.07968 0
M  V30 15173 C 1449.02 3.39278 4.84401 0
M  V30 15174 H 1447.95 0.294316 0.694186 0
M  V30 15175 H 1450.6 1.29702 1.29806 0
M  V30 15176 H 1448.98 0.802248 3.87789 0
M  V30 15177 H 1450.16 3.51608 2.9784 0
M  V30 15178 H 1448.47 3.07275 2.81018 0
M  V30 15179 H 1451.07 1.52899 5.12373 0
M  V30 15180 H 1451.41 0.112387 4.16148 0
M  V30 15181 H 1451.95 1.71236 3.59059 0
M  V30 15182 H 1448.69 4.44892 4.81406 0
M  V30 15183 H 1448.21 2.80692 5.30068 0
M  V30 15184 H 1449.88 3.35416 5.53267 0
M  V30 15185 N 1450.02 -1.31994 0.861122 0
M  V30 15186 C 1451.29 -1.91699 0.388705 0
M  V30 15187 C 1451.67 -1.78412 -1.12838 0
M  V30 15188 O 1451.02 -1.18625 -1.95296 0
M  V30 15189 C 1451.23 -3.38232 0.860248 0
M  V30 15190 C 1452.58 -4.15355 0.881201 0
M  V30 15191 O 1453.6 -3.46977 0.805313 0
M  V30 15192 O 1452.46 -5.37468 0.98945 0
M  V30 15193 H 1449.56 -0.819017 0.114629 0
M  V30 15194 H 1452.1 -1.40721 0.94845 0
M  V30 15195 H 1450.87 -3.41876 1.9036 0
M  V30 15196 H 1450.5 -3.96625 0.278316 0
M  V30 15197 N 1451.49 -0.619688 -1.44906 0
M  V30 15198 C 1452.42 0.0791121 -2.33366 0
M  V30 15199 C 1453.41 0.846503 -1.47541 0
M  V30 15200 O 1454.59 0.814657 -1.76287 0
M  V30 15201 C 1451.72 1.06901 -3.30438 0
M  V30 15202 C 1450.67 0.41403 -4.25993 0
M  V30 15203 C 1450 1.51303 -5.12846 0
M  V30 15204 C 1451.3 -0.672483 -5.17953 0
M  V30 15205 H 1452.99 -0.659551 -2.92045 0
M  V30 15206 H 1450.54 -0.318623 -1.40431 0
M  V30 15207 H 1452.49 1.56653 -3.912 0
M  V30 15208 H 1451.22 1.83842 -2.69944 0
M  V30 15209 H 1449.88 -0.0627315 -3.66546 0
M  V30 15210 H 1449.52 2.27303 -4.48712 0
M  V30 15211 H 1449.22 1.08022 -5.77586 0
M  V30 15212 H 1450.75 2.01258 -5.76479 0
M  V30 15213 H 1452.16 -0.258542 -5.72717 0
M  V30 15214 H 1450.56 -1.02776 -5.91234 0
M  V30 15215 H 1451.63 -1.54425 -4.59653 0
M  V30 15216 N 1452.97 1.53444 -0.359552 0
M  V30 15217 C 1454.39 1.59598 -0.00824946 0
M  V30 15218 C 1454.59 1.37492 1.47303 0
M  V30 15219 O 1453.64 1.1771 2.23385 0
M  V30 15220 C 1454.96 2.9718 -0.45878 0
M  V30 15221 C 1456.51 3.1027 -0.412485 0
M  V30 15222 C 1456.98 4.50255 -0.838733 0
M  V30 15223 N 1458.47 4.56352 -0.793552 0
M  V30 15224 C 1459.21 5.62845 -1.09513 0
M  V30 15225 N 1458.7 6.77119 -1.46567 0
M  V30 15226 N 1460.5 5.52799 -1.01832 0
M  V30 15227 H 1452.65 1.66065 -1.32424 0
M  V30 15228 H 1454.91 0.778561 -0.540876 0
M  V30 15229 H 1454.62 3.18475 -1.4922 0
M  V30 15230 H 1454.49 3.7687 0.157741 0
M  V30 15231 H 1456.88 2.88689 0.611791 0
M  V30 15232 H 1456.96 2.32602 -1.06442 0
M  V30 15233 H 1456.6 4.72573 -1.8611 0
M  V30 15234 H 1456.53 5.26344 -0.164109 0
M  V30 15235 H 1459.02 3.74299 -0.52048 0
M  V30 15236 H 1459.34 7.54313 -1.68021 0
M  V30 15237 H 1457.68 6.78525 -1.50427 0
M  V30 15238 H 1460.87 4.62403 -0.728059 0
M  V30 15239 H 1461.04 6.35698 -1.25668 0
M  V30 15240 N 1454.45 0.0885642 1.57351 0
M  V30 15241 C 1455.4 -0.883199 2.10199 0
M  V30 15242 C 1456.38 -1.24805 1.0155 0
M  V30 15243 O 1457.58 -1.22423 1.27835 0
M  V30 15244 C 1454.71 -2.14467 2.68065 0
M  V30 15245 C 1453.79 -1.80555 3.83746 0
M  V30 15246 N 1454.18 -1.17169 4.92042 0
M  V30 15247 C 1452.48 -2.10204 3.93358 0
M  V30 15248 C 1453.18 -1.01722 5.72737 0
M  V30 15249 N 1452.16 -1.53241 5.21553 0
M  V30 15250 H 1455.96 -0.38908 2.91313 0
M  V30 15251 H 1453.47 -0.114842 1.61993 0
M  V30 15252 H 1455.47 -2.85021 3.04251 0
M  V30 15253 H 1454.13 -2.64451 1.88403 0
M  V30 15254 H 1455.14 -0.839293 5.11054 0
M  V30 15255 H 1451.82 -2.62448 3.24696 0
M  V30 15256 H 1453.21 -0.522042 6.69869 0
M  V30 15257 N 1455.93 -1.56509 -0.185096 0
M  V30 15258 C 1457.18 -1.81206 -0.903924 0
M  V30 15259 C 1457.5 -0.663423 -1.82836 0
M  V30 15260 O 1456.76 0.350211 -1.92541 0
M  V30 15261 C 1457.06 -3.11968 -1.74387 0
M  V30 15262 C 1456.72 -4.40353 -0.969552 0
M  V30 15263 C 1455.39 -4.75227 -0.755799 0
M  V30 15264 C 1457.74 -5.19461 -0.425443 0
M  V30 15265 C 1455.07 -5.86698 0.0133856 0
M  V30 15266 C 1457.42 -6.31736 0.330582 0
M  V30 15267 C 1456.08 -6.65187 0.555262 0
M  V30 15268 H 1455.35 -0.663078 -0.330769 0
M  V30 15269 H 1458 -1.90747 -0.169673 0
M  V30 15270 H 1456.3 -2.97708 -2.5471 0
M  V30 15271 H 1458 -3.28284 -2.30284 0
M  V30 15272 H 1454.59 -4.1299 -1.14618 0
M  V30 15273 H 1458.77 -4.92923 -0.577959 0
M  V30 15274 H 1454.03 -6.11081 0.197335 0
M  V30 15275 H 1458.2 -6.92246 0.759523 0
M  V30 15276 H 1455.83 -7.51403 1.15318 0
M  V30 15277 N 1457.41 0.45317 -1.50944 0
M  V30 15278 C 1458.36 1.54689 -1.67498 0
M  V30 15279 C 1459.34 1.51949 -0.529193 0
M  V30 15280 O 1460.53 1.58669 -0.784415 0
M  V30 15281 C 1457.66 2.93006 -1.78892 0
M  V30 15282 C 1456.75 3.00562 -2.99204 0
M  V30 15283 N 1457.14 2.77893 -4.22621 0
M  V30 15284 C 1455.44 3.31712 -2.98132 0
M  V30 15285 C 1456.14 2.90882 -5.03749 0
M  V30 15286 N 1455.11 3.21866 -4.38068 0
M  V30 15287 H 1458.92 1.35889 -2.60598 0
M  V30 15288 H 1456.43 0.660219 -1.48374 0
M  V30 15289 H 1458.43 3.71669 -1.88858 0
M  V30 15290 H 1457.09 3.12838 -0.869626 0
M  V30 15291 H 1458.1 2.53126 -4.51827 0
M  V30 15292 H 1454.77 3.57419 -2.15773 0
M  V30 15293 H 1456.16 2.77444 -6.11943 0
M  V30 15294 N 1458.88 1.40823 0.707568 0
M  V30 15295 C 1460.12 1.40992 1.47989 0
M  V30 15296 C 1460.49 0.0138056 1.91995 0
M  V30 15297 O 1461.69 -0.109666 2.68576 0
M  V30 15298 C 1459.96 2.37857 2.66756 0
M  V30 15299 S 1461.52 2.56453 3.56058 0
M  V30 15300 H 1458.34 0.499622 0.505864 0
M  V30 15301 H 1460.94 1.77161 0.826703 0
M  V30 15302 H 1459.64 3.38113 2.32611 0
M  V30 15303 H 1459.17 2.03 3.36979 0
M  V30 15304 H 1461.19 1.82294 4.61501 0
M  V30 15305 N 1460.36 -0.94061 1.26453 0
M  V30 15306 C 1461.33 -2.02096 1.0812 0
M  V30 15307 C 1462.33 -1.60773 0.0293393 0
M  V30 15308 O 1463.52 -1.72051 0.272796 0
M  V30 15309 C 1460.65 -3.34749 0.644646 0
M  V30 15310 H 1461.84 -2.19792 2.04038 0
M  V30 15311 H 1459.39 -1.11965 1.09058 0
M  V30 15312 H 1460.13 -3.22752 -0.316509 0
M  V30 15313 H 1459.91 -3.66095 1.40416 0
M  V30 15314 H 1461.4 -4.14117 0.538233 0
M  V30 15315 N 1461.84 -1.08266 -1.14527 0
M  V30 15316 C 1462.75 -0.723043 -2.2318 0
M  V30 15317 C 1463.77 0.269819 -1.71895 0
M  V30 15318 O 1464.94 0.114126 -2.01076 0
M  V30 15319 C 1462.01 -0.136229 -3.46432 0
M  V30 15320 C 1461.07 -1.18352 -4.12664 0
M  V30 15321 C 1460.3 -0.624612 -5.30032 0
M  V30 15322 O 1460.52 0.556377 -5.6768 0
M  V30 15323 O 1459.46 -1.37397 -5.86008 0
M  V30 15324 H 1463.28 -1.6294 -2.56289 0
M  V30 15325 H 1460.87 -0.856235 -1.22429 0
M  V30 15326 H 1462.75 0.18829 -4.20979 0
M  V30 15327 H 1461.43 0.74331 -3.1505 0
M  V30 15328 H 1460.33 -1.56054 -3.39997 0
M  V30 15329 H 1461.67 -2.03528 -4.48148 0
M  V30 15330 N 1463.32 1.31536 -0.86811 0
M  V30 15331 C 1464.23 2.32326 -0.32588 0
M  V30 15332 C 1465.25 1.64632 0.563243 0
M  V30 15333 O 1466.42 1.96067 0.460403 0
M  V30 15334 C 1463.49 3.43562 0.46539 0
M  V30 15335 C 1462.55 4.26919 -0.451472 0
M  V30 15336 C 1461.78 5.32844 0.302129 0
M  V30 15337 O 1462 5.49485 1.53045 0
M  V30 15338 O 1460.94 6.00944 -0.339048 0
M  V30 15339 H 1464.76 2.80622 -1.16126 0
M  V30 15340 H 1462.35 1.35401 -0.631428 0
M  V30 15341 H 1464.23 4.11368 0.914028 0
M  V30 15342 H 1462.91 2.97432 1.27734 0
M  V30 15343 H 1461.81 3.61874 -0.948571 0
M  V30 15344 H 1463.15 4.7661 -1.22897 0
M  V30 15345 N 1464.8 0.627364 1.44575 0
M  V30 15346 C 1465.73 -0.118179 2.28895 0
M  V30 15347 C 1466.74 -0.812569 1.41071 0
M  V30 15348 O 1467.93 -0.674646 1.6526 0
M  V30 15349 C 1465.03 -1.18937 3.17344 0
M  V30 15350 C 1464.2 -0.578226 4.33561 0
M  V30 15351 C 1463.26 -1.54288 5.03072 0
M  V30 15352 O 1462.29 -1.06148 5.59215 0
M  V30 15353 N 1463.49 -2.87725 5.04177 0
M  V30 15354 H 1466.26 0.605442 2.93521 0
M  V30 15355 H 1463.82 0.468253 1.54981 0
M  V30 15356 H 1465.81 -1.83494 3.60711 0
M  V30 15357 H 1464.38 -1.81526 2.54494 0
M  V30 15358 H 1463.6 0.245883 3.93432 0
M  V30 15359 H 1464.89 -0.150502 5.08577 0
M  V30 15360 H 1464.29 -3.29421 4.5989 0
M  V30 15361 H 1462.84 -3.47653 5.51344 0
M  V30 15362 N 1466.28 -1.53251 0.367684 0
M  V30 15363 C 1467.52 -2.00889 -0.220914 0
M  V30 15364 C 1467.84 -1.25662 -1.4911 0
M  V30 15365 O 1467.11 -0.370491 -1.92365 0
M  V30 15366 H 1465.69 -0.742191 -0.0846233 0
M  V30 15367 H 1468.36 -1.88525 0.494402 0
M  V30 15368 H 1467.45 -3.08891 -0.446414 0
M  V30 15369 N 1467.75 -0.0969077 -1.57302 0
M  V30 15370 C 1469 0.567212 -1.94706 0
M  V30 15371 C 1469.33 1.67721 -0.978937 0
M  V30 15372 O 1468.61 1.94496 -0.0123016 0
M  V30 15373 C 1468.89 1.12069 -3.42217 0
M  V30 15374 C 1468.74 0.015615 -4.49797 0
M  V30 15375 C 1470.06 2.0185 -3.91081 0
M  V30 15376 H 1467.18 0.204716 -0.707997 0
M  V30 15377 H 1469.82 -0.167984 -1.89256 0
M  V30 15378 H 1467.97 1.74723 -3.46993 0
M  V30 15379 H 1469.65 -0.61871 -4.57132 0
M  V30 15380 H 1467.89 -0.650529 -4.28895 0
M  V30 15381 H 1468.56 0.443724 -5.50214 0
M  V30 15382 H 1471.04 1.49098 -3.8847 0
M  V30 15383 H 1469.91 2.37502 -4.94858 0
M  V30 15384 H 1470.17 2.93659 -3.3048 0
M  V30 15385 N 1469.23 1.56605 0.176793 0
M  V30 15386 C 1470.46 1.85812 0.910019 0
M  V30 15387 C 1470.87 0.68164 1.76066 0
M  V30 15388 O 1470.23 -0.34936 1.79125 0
M  V30 15389 C 1470.28 3.14001 1.79125 0
M  V30 15390 O 1470 4.27114 0.974931 0
M  V30 15391 C 1471.5 3.56516 2.6346 0
M  V30 15392 H 1468.72 0.616608 0.264643 0
M  V30 15393 H 1471.27 2.03719 0.178537 0
M  V30 15394 H 1469.42 2.97937 2.47613 0
M  V30 15395 H 1469.84 5.00227 1.57711 0
M  V30 15396 H 1471.31 4.49128 3.20918 0
M  V30 15397 H 1471.79 2.80373 3.38065 0
M  V30 15398 H 1472.39 3.75173 2.00313 0
M  V30 15399 N 1470.71 -0.445159 1.51182 0
M  V30 15400 C 1471.99 -1.20598 1.53998 0
M  V30 15401 C 1472.37 -2.08962 0.29967 0
M  V30 15402 O 1471.71 -2.17003 -0.715666 0
M  V30 15403 C 1471.92 -2.01461 2.84982 0
M  V30 15404 C 1473.27 -2.5877 3.36635 0
M  V30 15405 O 1474.3 -2.11679 2.86479 0
M  V30 15406 O 1473.16 -3.44637 4.24132 0
M  V30 15407 H 1470.25 -0.548635 0.618812 0
M  V30 15408 H 1472.8 -0.454865 1.6349 0
M  V30 15409 H 1471.57 -1.36511 3.66716 0
M  V30 15410 H 1471.19 -2.83654 2.78615 0
M  V30 15411 N 1472.19 -1.41197 -0.700089 0
M  V30 15412 C 1473.42 -1.43449 -1.4868 0
M  V30 15413 C 1473.83 -0.0368799 -1.89164 0
M  V30 15414 O 1473.17 0.953129 -1.57039 0
M  V30 15415 C 1473.23 -2.27583 -2.78291 0
M  V30 15416 C 1472.89 -3.75805 -2.60038 0
M  V30 15417 C 1473.89 -4.68074 -2.2628 0
M  V30 15418 C 1471.58 -4.19796 -2.75819 0
M  V30 15419 C 1473.57 -6.02322 -2.08535 0
M  V30 15420 C 1471.26 -5.5411 -2.57692 0
M  V30 15421 C 1472.26 -6.45189 -2.24099 0
M  V30 15422 O 1471.94 -7.77025 -2.06125 0
M  V30 15423 H 1471.68 -0.490779 -0.464879 0
M  V30 15424 H 1474.23 -1.86071 -0.869864 0
M  V30 15425 H 1472.46 -1.79767 -3.42375 0
M  V30 15426 H 1474.15 -2.21591 -3.40077 0
M  V30 15427 H 1474.91 -4.35379 -2.13707 0
M  V30 15428 H 1470.79 -3.49213 -3.0095 0
M  V30 15429 H 1474.34 -6.73376 -1.82238 0
M  V30 15430 H 1470.23 -5.86386 -2.69854 0
M  V30 15431 H 1471 -7.88121 -2.20924 0
M  V30 15432 N 1473.67 0.933891 -1.2695 0
M  V30 15433 C 1474.91 1.67539 -1.1231 0
M  V30 15434 C 1475.23 1.92765 0.331788 0
M  V30 15435 O 1476.43 2.6481 0.598983 0
M  V30 15436 C 1474.89 3.01722 -1.96194 0
M  V30 15437 C 1474.5 2.84216 -3.46302 0
M  V30 15438 C 1476.24 3.79513 -1.90185 0
M  V30 15439 C 1474.15 4.13916 -4.22407 0
M  V30 15440 H 1473.08 0.62839 -0.416704 0
M  V30 15441 H 1475.73 1.03801 -1.5132 0
M  V30 15442 H 1474.11 3.66482 -1.50023 0
M  V30 15443 H 1475.29 2.28261 -4.00292 0
M  V30 15444 H 1473.6 2.1986 -3.53625 0
M  V30 15445 H 1476.2 4.75615 -2.44325 0
M  V30 15446 H 1476.54 4.07019 -0.874129 0
M  V30 15447 H 1477.07 3.21539 -2.34217 0
M  V30 15448 H 1473.81 3.91591 -5.25677 0
M  V30 15449 H 1473.33 4.69558 -3.73196 0
M  V30 15450 H 1475.01 4.82322 -4.31248 0
M  V30 15451 N 1475.14 1.08871 1.13951 0
M  V30 15452 C 1476.09 0.692507 2.17229 0
M  V30 15453 C 1477.08 -0.290264 1.5826 0
M  V30 15454 O 1478.27 -0.101531 1.76709 0
M  V30 15455 C 1475.4 0.108487 3.43129 0
M  V30 15456 C 1474.48 1.11733 4.09117 0
M  V30 15457 N 1474.88 2.30244 4.50357 0
M  V30 15458 C 1473.17 0.954172 4.35674 0
M  V30 15459 C 1473.87 2.94373 5.01716 0
M  V30 15460 N 1472.85 2.2196 4.96221 0
M  V30 15461 H 1476.65 1.59489 2.46861 0
M  V30 15462 H 1474.17 0.964113 1.30685 0
M  V30 15463 H 1476.16 -0.193345 4.16451 0
M  V30 15464 H 1474.82 -0.78882 3.14973 0
M  V30 15465 H 1475.83 2.67871 4.43244 0
M  V30 15466 H 1472.51 0.111069 4.17352 0
M  V30 15467 H 1473.9 3.95089 5.43465 0
M  V30 15468 N 1476.62 -1.31073 0.875073 0
M  V30 15469 C 1477.55 -2.26485 0.279215 0
M  V30 15470 C 1478.53 -1.5134 -0.594556 0
M  V30 15471 O 1479.72 -1.80393 -0.546849 0
M  V30 15472 C 1476.84 -3.33268 -0.604165 0
M  V30 15473 C 1475.89 -4.26036 0.198944 0
M  V30 15474 S 1476.72 -5.11636 1.58079 0
M  V30 15475 C 1477.88 -6.21932 0.703665 0
M  V30 15476 H 1478.11 -2.76677 1.088 0
M  V30 15477 H 1475.64 -1.38917 0.673898 0
M  V30 15478 H 1477.6 -3.9526 -1.10813 0
M  V30 15479 H 1476.26 -2.8182 -1.38694 0
M  V30 15480 H 1475.46 -5.01759 -0.474755 0
M  V30 15481 H 1475.06 -3.68567 0.635185 0
M  V30 15482 H 1477.35 -6.77448 -0.0835828 0
M  V30 15483 H 1478.29 -6.93465 1.43219 0
M  V30 15484 H 1478.7 -5.63859 0.268954 0
M  V30 15485 N 1478.1 -0.635022 -1.4424 0
M  V30 15486 C 1479.03 0.0543561 -2.33437 0
M  V30 15487 C 1480.01 0.830807 -1.48431 0
M  V30 15488 O 1481.2 0.795913 -1.77141 0
M  V30 15489 C 1478.33 1.03391 -3.31553 0
M  V30 15490 C 1477.28 0.368824 -4.26408 0
M  V30 15491 C 1476.61 1.45855 -5.14422 0
M  V30 15492 C 1477.91 -0.727381 -5.1721 0
M  V30 15493 H 1479.6 -0.690489 -2.91329 0
M  V30 15494 H 1477.15 -0.3335 -1.40085 0
M  V30 15495 H 1479.1 1.52495 -3.9284 0
M  V30 15496 H 1477.82 1.80969 -2.71878 0
M  V30 15497 H 1476.48 -0.101605 -3.66459 0
M  V30 15498 H 1476.13 2.22531 -4.51098 0
M  V30 15499 H 1475.83 1.0189 -5.78699 0
M  V30 15500 H 1477.35 1.95132 -5.78581 0
M  V30 15501 H 1478.77 -0.319272 -5.7241 0
M  V30 15502 H 1477.17 -1.09041 -5.9011 0
M  V30 15503 H 1478.24 -1.59292 -4.57989 0
M  V30 15504 N 1479.58 1.53054 -0.375806 0
M  V30 15505 C 1480.83 2.01003 0.210257 0
M  V30 15506 C 1481.15 1.26451 1.48442 0
M  V30 15507 O 1480.42 0.380687 1.92166 0
M  V30 15508 H 1479 0.74263 0.0806861 0
M  V30 15509 H 1481.66 1.8826 -0.504393 0
M  V30 15510 H 1480.76 3.09123 0.430027 0
M  V30 15511 N 1481.06 0.105248 1.57248 0
M  V30 15512 C 1481.97 -0.864007 2.1811 0
M  V30 15513 C 1482.98 -1.30282 1.15337 0
M  V30 15514 O 1484.16 -1.36864 1.4775 0
M  V30 15515 C 1481.22 -2.1014 2.75757 0
M  V30 15516 C 1480.28 -1.71583 3.9352 0
M  V30 15517 C 1479.52 -2.89424 4.48408 0
M  V30 15518 O 1479.74 -4.04449 4.02215 0
M  V30 15519 O 1478.67 -2.67303 5.39289 0
M  V30 15520 H 1482.5 -0.376131 3.01362 0
M  V30 15521 H 1480.09 -0.119643 1.4892 0
M  V30 15522 H 1481.97 -2.82638 3.1256 0
M  V30 15523 H 1480.64 -2.57961 1.95545 0
M  V30 15524 H 1479.55 -0.962347 3.6151 0
M  V30 15525 H 1480.88 -1.28517 4.75126 0
M  V30 15526 N 1482.53 -1.56697 -0.168486 0
M  V30 15527 C 1483.5 -1.95744 -1.19235 0
M  V30 15528 C 1484.5 -0.841419 -1.37028 0
M  V30 15529 O 1485.69 -1.10842 -1.34386 0
M  V30 15530 C 1482.82 -2.25471 -2.55686 0
M  V30 15531 H 1484.01 -2.87368 -0.857892 0
M  V30 15532 H 1481.57 -1.50798 -0.411041 0
M  V30 15533 H 1482.3 -1.36571 -2.94141 0
M  V30 15534 H 1482.09 -3.06822 -2.44137 0
M  V30 15535 H 1483.58 -2.56593 -3.29469 0
M  V30 15536 N 1484.01 0.437135 -1.51416 0
M  V30 15537 C 1485.26 1.18655 -1.64095 0
M  V30 15538 C 1485.59 1.9119 -0.35728 0
M  V30 15539 O 1484.84 1.84283 0.658644 0
M  V30 15540 C 1485.14 2.22795 -2.79458 0
M  V30 15541 C 1484.81 1.67271 -4.18726 0
M  V30 15542 C 1483.47 1.51852 -4.56612 0
M  V30 15543 C 1485.82 1.26448 -5.05629 0
M  V30 15544 C 1483.15 0.940834 -5.79107 0
M  V30 15545 C 1485.5 0.701095 -6.28703 0
M  V30 15546 C 1484.17 0.533801 -6.65362 0
M  V30 15547 H 1483.44 0.434191 -0.600466 0
M  V30 15548 H 1486.08 0.477592 -1.85449 0
M  V30 15549 H 1484.39 2.99731 -2.52327 0
M  V30 15550 H 1486.08 2.80602 -2.86467 0
M  V30 15551 H 1482.67 1.80249 -3.88855 0
M  V30 15552 H 1486.86 1.37182 -4.76964 0
M  V30 15553 H 1482.11 0.798982 -6.06157 0
M  V30 15554 H 1486.29 0.37626 -6.95383 0
M  V30 15555 H 1483.92 0.0840431 -7.60154 0
M  V30 15556 N 1485.49 1.41566 0.692592 0
M  V30 15557 C 1486.74 1.40805 1.44978 0
M  V30 15558 C 1487.06 0.0191039 1.94991 0
M  V30 15559 O 1486.33 -0.939544 1.71899 0
M  V30 15560 H 1484.91 0.518293 0.537942 0
M  V30 15561 H 1487.57 1.76831 0.81956 0
M  V30 15562 H 1486.67 2.09706 2.31149 0
M  V30 15563 N 1486.97 -0.927146 1.27443 0
M  V30 15564 C 1487.92 -2.04917 1.10053 0
M  V30 15565 C 1488.91 -1.69384 0.0234668 0
M  V30 15566 O 1490.12 -1.79085 0.181228 0
M  V30 15567 H 1486.49 -0.671189 0.33913 0
M  V30 15568 H 1488.46 -2.16732 2.05109 0
M  V30 15569 C 1487.21 -3.39178 0.765072 0
M  V30 15570 H 1486.53 -3.67006 1.58577 0
M  V30 15571 H 1487.97 -4.18458 0.683266 0
M  V30 15572 C 1486.43 -3.32696 -0.530578 0
M  V30 15573 O 1486.96 -3.69967 -1.56484 0
M  V30 15574 N 1485.17 -2.85793 -0.526396 0
M  V30 15575 H 1484.72 -2.55658 0.315675 0
M  V30 15576 H 1484.67 -2.81838 -1.39337 0
M  V30 15577 N 1488.45 -1.09474 -1.13372 0
M  V30 15578 C 1489.69 -0.82945 -1.84295 0
M  V30 15579 C 1490.02 0.646788 -1.83961 0
M  V30 15580 O 1489.29 1.46929 -1.29572 0
M  V30 15581 H 1487.87 -0.303853 -0.682409 0
M  V30 15582 H 1490.53 -1.38298 -1.3733 0
M  V30 15583 H 1489.62 -1.18342 -2.88793 0
M  V30 15584 N 1489.92 1.30607 -0.882012 0
M  V30 15585 C 1491.17 1.96256 -0.498964 0
M  V30 15586 C 1491.5 1.69651 0.951259 0
M  V30 15587 O 1490.75 0.992303 1.68677 0
M  V30 15588 C 1491.05 3.50136 -0.716929 0
M  V30 15589 C 1490.72 3.96785 -2.14178 0
M  V30 15590 C 1489.38 4.09234 -2.53142 0
M  V30 15591 C 1491.73 4.21154 -3.07048 0
M  V30 15592 C 1489.06 4.43411 -3.84192 0
M  V30 15593 C 1491.41 4.56799 -4.37627 0
M  V30 15594 C 1490.08 4.67456 -4.76488 0
M  V30 15595 H 1489.35 0.718153 -0.182584 0
M  V30 15596 H 1491.99 1.55527 -1.1173 0
M  V30 15597 H 1490.3 3.91797 -0.0155388 0
M  V30 15598 H 1492 3.98998 -0.400196 0
M  V30 15599 H 1488.59 3.876 -1.82932 0
M  V30 15600 H 1492.77 4.1102 -2.78167 0
M  V30 15601 H 1488.03 4.49861 -4.14047 0
M  V30 15602 H 1492.2 4.74607 -5.09629 0
M  V30 15603 H 1489.83 4.93694 -5.78074 0
M  V30 15604 N 1491.4 0.642663 1.43901 0
M  V30 15605 C 1492.65 0.152003 2.0223 0
M  V30 15606 C 1492.98 -1.22711 1.50518 0
M  V30 15607 O 1492.26 -1.817 0.693937 0
M  V30 15608 C 1492.54 0.151278 3.59782 0
M  V30 15609 C 1492.39 1.56356 4.2175 0
M  V30 15610 C 1493.71 -0.518016 4.37041 0
M  V30 15611 H 1490.83 0.0567094 0.734815 0
M  V30 15612 H 1493.47 0.821337 1.7133 0
M  V30 15613 H 1491.62 -0.418679 3.86237 0
M  V30 15614 H 1493.29 2.18329 4.06362 0
M  V30 15615 H 1491.54 2.11401 3.78803 0
M  V30 15616 H 1492.21 1.51499 5.30803 0
M  V30 15617 H 1494.68 -0.0331947 4.16087 0
M  V30 15618 H 1493.56 -0.487754 5.46729 0
M  V30 15619 H 1493.82 -1.59036 4.12504 0
M  V30 15620 N 1492.88 -1.52852 0.383918 0
M  V30 15621 C 1494.16 -1.939 -0.25729 0
M  V30 15622 C 1494.54 -1.31895 -1.64824 0
M  V30 15623 O 1493.89 -0.484987 -2.23294 0
M  V30 15624 C 1494.1 -3.47801 -0.289064 0
M  V30 15625 C 1495.44 -4.21396 -0.520611 0
M  V30 15626 O 1496.47 -3.54278 -0.369502 0
M  V30 15627 O 1495.33 -5.4037 -0.816254 0
M  V30 15628 H 1492.42 -0.811658 -0.158558 0
M  V30 15629 H 1494.97 -1.63949 0.438034 0
M  V30 15630 H 1493.74 -3.8525 0.685441 0
M  V30 15631 H 1493.36 -3.8404 -1.02953 0
M  V30 15632 N 1494.36 -0.113586 -1.5719 0
M  V30 15633 C 1495.58 0.556928 -1.99783 0
M  V30 15634 C 1496.01 1.59774 -0.992669 0
M  V30 15635 O 1495.37 1.81263 0.0363821 0
M  V30 15636 C 1495.42 1.16463 -3.41275 0
M  V30 15637 O 1494.52 2.28024 -3.43626 0
M  V30 15638 H 1493.86 0.139628 -0.649153 0
M  V30 15639 H 1496.39 -0.200462 -2.03616 0
M  V30 15640 H 1496.4 1.50147 -3.79368 0
M  V30 15641 H 1495.08 0.402232 -4.1395 0
M  V30 15642 H 1493.65 1.9582 -3.17347 0
M  V30 15643 N 1495.84 1.56784 0.160173 0
M  V30 15644 C 1497.08 1.82891 0.876278 0
M  V30 15645 C 1497.42 0.693173 1.81408 0
M  V30 15646 O 1496.69 -0.304136 1.92107 0
M  V30 15647 C 1496.97 3.19439 1.66226 0
M  V30 15648 C 1496.83 4.43557 0.746831 0
M  V30 15649 C 1498.15 3.53053 2.62758 0
M  V30 15650 H 1495.27 0.665285 0.31712 0
M  V30 15651 H 1497.91 1.89469 0.142004 0
M  V30 15652 H 1496.06 3.13962 2.28823 0
M  V30 15653 H 1497.73 4.61109 0.132876 0
M  V30 15654 H 1495.97 4.33764 0.0555625 0
M  V30 15655 H 1496.64 5.35675 1.33253 0
M  V30 15656 H 1499.12 3.59054 2.10284 0
M  V30 15657 H 1498 4.4965 3.14811 0
M  V30 15658 H 1498.26 2.78329 3.4349 0
M  V30 15659 N 1497.32 -0.429099 1.51646 0
M  V30 15660 C 1498.26 -1.52143 1.73554 0
M  V30 15661 C 1499.23 -1.55741 0.577416 0
M  V30 15662 O 1500.42 -1.72623 0.812768 0
M  V30 15663 C 1497.56 -2.89785 1.874 0
M  V30 15664 C 1496.67 -2.95652 3.14982 0
M  V30 15665 C 1495.81 -4.24468 3.19375 0
M  V30 15666 C 1494.84 -4.24234 4.41239 0
M  V30 15667 N 1493.98 -5.44587 4.43135 0
M  V30 15668 H 1498.82 -1.32764 2.66791 0
M  V30 15669 H 1496.36 -0.6448 1.32215 0
M  V30 15670 H 1498.32 -3.6966 1.9341 0
M  V30 15671 H 1496.95 -3.07703 0.975638 0
M  V30 15672 H 1496 -2.0839 3.18242 0
M  V30 15673 H 1497.31 -2.91342 4.04872 0
M  V30 15674 H 1496.46 -5.12722 3.24347 0
M  V30 15675 H 1495.2 -4.31446 2.27389 0
M  V30 15676 H 1494.21 -3.34371 4.36435 0
M  V30 15677 H 1495.43 -4.18913 5.34499 0
M  V30 15678 H 1493.38 -5.52271 3.54023 0
M  V30 15679 H 1493.3 -5.42191 5.26845 0
M  V30 15680 H 1494.56 -6.34851 4.5231 0
M  V30 15681 N 1498.79 -1.41931 -0.685074 0
M  V30 15682 C 1499.7 -1.46985 -1.82846 0
M  V30 15683 C 1500.72 -0.359487 -1.70246 0
M  V30 15684 O 1501.9 -0.608824 -1.91977 0
M  V30 15685 C 1498.96 -1.36001 -3.18912 0
M  V30 15686 C 1498.02 -2.57442 -3.43543 0
M  V30 15687 C 1497.25 -2.46972 -4.73118 0
M  V30 15688 O 1497.48 -1.49999 -5.50324 0
M  V30 15689 O 1496.41 -3.36922 -4.98766 0
M  V30 15690 H 1500.24 -2.4347 -1.81538 0
M  V30 15691 H 1497.82 -1.23583 -0.839497 0
M  V30 15692 H 1499.7 -1.32198 -4.00127 0
M  V30 15693 H 1498.38 -0.426366 -3.2088 0
M  V30 15694 H 1497.29 -2.66821 -2.62217 0
M  V30 15695 H 1498.62 -3.49671 -3.46398 0
M  V30 15696 N 1500.27 0.920374 -1.27933 0
M  V30 15697 C 1501.22 2.00832 -1.07937 0
M  V30 15698 C 1502.21 1.60899 -0.005079 0
M  V30 15699 O 1503.4 1.75571 -0.224461 0
M  V30 15700 C 1500.53 3.35311 -0.736301 0
M  V30 15701 C 1499.61 3.81666 -1.8491 0
M  V30 15702 N 1500 4.00458 -3.08977 0
M  V30 15703 C 1498.3 4.10766 -1.73745 0
M  V30 15704 C 1499 4.39178 -3.81441 0
M  V30 15705 N 1497.98 4.47064 -3.09249 0
M  V30 15706 H 1501.78 2.13402 -2.02081 0
M  V30 15707 H 1499.29 1.10774 -1.18755 0
M  V30 15708 H 1501.29 4.12928 -0.574144 0
M  V30 15709 H 1499.95 3.24099 0.197437 0
M  V30 15710 H 1500.96 3.86562 -3.4466 0
M  V30 15711 H 1497.64 4.08227 -0.875042 0
M  V30 15712 H 1499.03 4.61736 -4.88109 0
M  V30 15713 N 1501.75 1.10074 1.1279 0
M  V30 15714 C 1503 0.835715 1.83572 0
M  V30 15715 C 1503.31 -0.640831 1.84805 0
M  V30 15716 O 1504.52 -1.02162 2.51545 0
M  V30 15717 C 1502.97 1.44519 3.29609 0
M  V30 15718 C 1502.58 2.95476 3.36746 0
M  V30 15719 C 1504.33 1.2594 4.05388 0
M  V30 15720 C 1502.23 3.49477 4.77095 0
M  V30 15721 H 1501.16 0.308974 0.687787 0
M  V30 15722 H 1503.81 1.32427 1.27025 0
M  V30 15723 H 1502.2 0.884323 3.86 0
M  V30 15724 H 1503.37 3.57846 2.90315 0
M  V30 15725 H 1501.68 3.13166 2.74437 0
M  V30 15726 H 1504.28 1.63732 5.09015 0
M  V30 15727 H 1504.62 0.200633 4.15816 0
M  V30 15728 H 1505.16 1.78814 3.55346 0
M  V30 15729 H 1501.9 4.55003 4.7186 0
M  V30 15730 H 1501.42 2.91873 5.23995 0
M  V30 15731 H 1503.1 3.47077 5.46028 0
M  V30 15732 N 1503.23 -1.30138 0.888926 0
M  V30 15733 C 1504.18 -2.25598 0.33005 0
M  V30 15734 C 1505.16 -1.51434 -0.543751 0
M  V30 15735 O 1506.35 -1.72706 -0.387529 0
M  V30 15736 C 1503.48 -3.40326 -0.450925 0
M  V30 15737 C 1502.57 -4.21841 0.437187 0
M  V30 15738 N 1502.96 -4.81803 1.53947 0
M  V30 15739 C 1501.26 -4.45391 0.233015 0
M  V30 15740 C 1501.96 -5.42907 2.0887 0
M  V30 15741 N 1500.93 -5.25709 1.38314 0
M  V30 15742 H 1504.74 -2.6951 1.17224 0
M  V30 15743 H 1502.25 -1.44623 0.738771 0
M  V30 15744 H 1504.25 -4.07764 -0.867971 0
M  V30 15745 H 1502.91 -2.97953 -1.2905 0
M  V30 15746 H 1503.92 -4.80904 1.92229 0
M  V30 15747 H 1500.6 -4.13603 -0.569074 0
M  V30 15748 H 1501.99 -6.00478 3.01457 0
M  V30 15749 N 1504.71 -0.650285 -1.43559 0
M  V30 15750 C 1505.67 0.0336325 -2.29175 0
M  V30 15751 C 1506.67 0.753465 -1.42055 0
M  V30 15752 O 1507.86 0.595158 -1.63718 0
M  V30 15753 C 1504.99 1.05835 -3.24055 0
M  V30 15754 H 1506.18 -0.719643 -2.91138 0
M  V30 15755 H 1503.74 -0.411363 -1.5079 0
M  V30 15756 H 1504.47 1.84096 -2.66982 0
M  V30 15757 H 1504.26 0.545884 -3.88281 0
M  V30 15758 H 1505.75 1.53606 -3.88323 0
M  V30 15759 N 1506.18 1.52647 -0.392018 0
M  V30 15760 C 1507.43 2.00798 0.19056 0
M  V30 15761 C 1507.75 1.28265 1.47673 0
M  V30 15762 O 1508.95 1.67142 2.13953 0
M  V30 15763 C 1507.41 3.57779 0.390148 0
M  V30 15764 C 1507.02 4.39213 -0.882933 0
M  V30 15765 C 1508.76 4.14211 0.928945 0
M  V30 15766 C 1506.67 5.87801 -0.651474 0
M  V30 15767 H 1505.6 0.750262 0.0749879 0
M  V30 15768 H 1508.25 1.7613 -0.514835 0
M  V30 15769 H 1506.63 3.78707 1.15746 0
M  V30 15770 H 1507.8 4.30051 -1.65507 0
M  V30 15771 H 1506.12 3.94015 -1.34688 0
M  V30 15772 H 1508.72 5.22884 1.11787 0
M  V30 15773 H 1509.06 3.70475 1.89878 0
M  V30 15774 H 1509.59 3.97185 0.221135 0
M  V30 15775 H 1506.33 6.35864 -1.59239 0
M  V30 15776 H 1505.85 5.99744 0.0816786 0
M  V30 15777 H 1507.53 6.46363 -0.287057 0
M  V30 15778 N 1507.66 0.121921 1.57128 0
M  V30 15779 C 1508.61 -0.844503 2.16728 0
M  V30 15780 C 1509.6 -1.2733 1.1173 0
M  V30 15781 O 1510.81 -1.2447 1.30028 0
M  V30 15782 H 1507.19 -0.290459 0.693641 0
M  V30 15783 H 1509.16 -0.317379 2.96707 0
M  V30 15784 C 1507.91 -2.08359 2.78356 0
M  V30 15785 H 1507.23 -1.76258 3.5885 0
M  V30 15786 H 1508.67 -2.73978 3.23592 0
M  V30 15787 C 1507.13 -2.87526 1.75586 0
M  V30 15788 O 1507.66 -3.83011 1.21101 0
M  V30 15789 N 1505.86 -2.51575 1.4546 0
M  V30 15790 H 1505.41 -1.73993 1.89958 0
M  V30 15791 H 1505.37 -3.0484 0.769411 0
M  V30 15792 N 1509.14 -1.56867 -0.151857 0
M  V30 15793 C 1510.55 -1.72573 -0.712411 0
M  V30 15794 C 1510.9 -0.735557 -1.8189 0
M  V30 15795 O 1510.03 0.09888 -2.16174 0
M  V30 15796 C 1510.62 -3.12906 -1.29905 0
M  V30 15797 C 1509.18 -3.30231 -1.80623 0
M  V30 15798 C 1508.33 -2.68507 -0.692781 0
M  V30 15799 H 1511.28 -1.58528 0.0737603 0
M  V30 15800 H 1511.3 -3.12636 -2.16885 0
M  V30 15801 H 1510.81 -3.84949 -0.493509 0
M  V30 15802 H 1508.91 -2.63176 -2.6376 0
M  V30 15803 H 1509.03 -4.38141 -1.93828 0
M  V30 15804 H 1507.39 -2.28842 -1.11818 0
M  V30 15805 H 1508.17 -3.43151 0.10124 0
M  V30 15806 N 1510.62 0.421051 -1.51871 0
M  V30 15807 C 1511.86 1.17082 -1.65589 0
M  V30 15808 C 1512.2 1.90469 -0.378861 0
M  V30 15809 O 1511.47 1.84277 0.622259 0
M  V30 15810 C 1511.76 2.17483 -2.87007 0
M  V30 15811 C 1511.61 1.48071 -4.24729 0
M  V30 15812 C 1512.93 3.18288 -3.03942 0
M  V30 15813 H 1510.05 0.424284 -0.602621 0
M  V30 15814 H 1512.69 0.457998 -1.84397 0
M  V30 15815 H 1510.84 2.78273 -2.71102 0
M  V30 15816 H 1512.51 0.904926 -4.52337 0
M  V30 15817 H 1510.75 0.782814 -4.26678 0
M  V30 15818 H 1511.42 2.21272 -5.0571 0
M  V30 15819 H 1513.9 2.67565 -3.18666 0
M  V30 15820 H 1512.78 3.85815 -3.90433 0
M  V30 15821 H 1513.04 3.85333 -2.16728 0
M  V30 15822 N 1512.1 1.42293 0.677538 0
M  V30 15823 C 1513.34 1.42334 1.43476 0
M  V30 15824 C 1513.67 0.0397842 1.94959 0
M  V30 15825 O 1512.94 -0.921258 1.72886 0
M  V30 15826 H 1511.52 0.523969 0.532415 0
M  V30 15827 H 1514.18 1.7769 0.800758 0
M  V30 15828 H 1513.27 2.12146 2.28912 0
M  V30 15829 N 1513.57 -0.913576 1.28419 0
M  V30 15830 C 1514.52 -2.03739 1.1222 0
M  V30 15831 C 1515.52 -1.69349 0.0414309 0
M  V30 15832 O 1516.72 -1.78883 0.200213 0
M  V30 15833 H 1513.1 -0.667554 0.34623 0
M  V30 15834 H 1515.07 -2.14544 2.07397 0
M  V30 15835 C 1513.82 -3.38348 0.801003 0
M  V30 15836 H 1513.14 -3.65304 1.6246 0
M  V30 15837 H 1514.58 -4.1771 0.727611 0
M  V30 15838 C 1513.04 -3.3324 -0.495261 0
M  V30 15839 O 1513.57 -3.71606 -1.52551 0
M  V30 15840 N 1511.78 -2.86335 -0.496054 0
M  V30 15841 H 1511.32 -2.55309 0.342773 0
M  V30 15842 H 1511.28 -2.833 -1.3634 0
M  V30 15843 N 1515.05 -1.1067 -1.12204 0
M  V30 15844 C 1516.3 -0.845439 -1.83126 0
M  V30 15845 C 1516.61 0.631022 -1.85142 0
M  V30 15846 O 1517.82 1.00827 -2.52084 0
M  V30 15847 C 1516.28 -1.46265 -3.28838 0
M  V30 15848 C 1515.88 -2.97258 -3.35174 0
M  V30 15849 C 1517.63 -1.28088 -4.04714 0
M  V30 15850 C 1515.54 -3.52002 -4.75235 0
M  V30 15851 H 1514.47 -0.312617 -0.686139 0
M  V30 15852 H 1517.12 -1.33098 -1.26321 0
M  V30 15853 H 1515.5 -0.904781 -3.85525 0
M  V30 15854 H 1516.67 -3.59381 -2.88413 0
M  V30 15855 H 1514.99 -3.14617 -2.72773 0
M  V30 15856 H 1517.58 -1.6643 -5.08139 0
M  V30 15857 H 1517.93 -0.222682 -4.15704 0
M  V30 15858 H 1518.46 -1.80696 -3.54392 0
M  V30 15859 H 1515.2 -4.57499 -4.69441 0
M  V30 15860 H 1514.72 -2.94648 -5.22439 0
M  V30 15861 H 1516.4 -3.49967 -5.4418 0
M  V30 15862 N 1516.53 1.29665 -0.895815 0
M  V30 15863 C 1517.76 2.00399 -0.534333 0
M  V30 15864 C 1518.18 1.66632 0.872654 0
M  V30 15865 O 1517.54 0.888811 1.58018 0
M  V30 15866 C 1517.59 3.53154 -0.729023 0
M  V30 15867 O 1516.69 4.11812 0.22023 0
M  V30 15868 H 1516.03 0.630173 -0.209233 0
M  V30 15869 H 1518.56 1.65253 -1.20634 0
M  V30 15870 H 1518.57 4.03073 -0.632179 0
M  V30 15871 H 1517.25 3.77067 -1.75481 0
M  V30 15872 H 1515.82 3.72822 0.0761687 0
M  V30 15873 N 1518.01 0.657889 1.43212 0
M  V30 15874 C 1518.96 -0.0308596 2.30779 0
M  V30 15875 C 1519.93 -0.809951 1.45014 0
M  V30 15876 O 1521.11 -0.785615 1.73876 0
M  V30 15877 C 1518.25 -0.988048 3.30653 0
M  V30 15878 C 1517.36 -0.204567 4.31515 0
M  V30 15879 C 1516.5 -1.15598 5.1847 0
M  V30 15880 C 1515.54 -0.363197 6.11022 0
M  V30 15881 N 1514.67 -1.26644 6.90584 0
M  V30 15882 H 1519.51 0.721745 2.89128 0
M  V30 15883 H 1517.05 0.367677 1.42431 0
M  V30 15884 H 1519.01 -1.55666 3.87071 0
M  V30 15885 H 1517.64 -1.70747 2.73944 0
M  V30 15886 H 1516.69 0.48041 3.77354 0
M  V30 15887 H 1518 0.411684 4.97098 0
M  V30 15888 H 1517.16 -1.79507 5.79536 0
M  V30 15889 H 1515.9 -1.80613 4.53023 0
M  V30 15890 H 1514.9 0.28922 5.49039 0
M  V30 15891 H 1516.13 0.28262 6.78512 0
M  V30 15892 H 1514.07 -1.90331 6.27782 0
M  V30 15893 H 1513.99 -0.70486 7.52707 0
M  V30 15894 H 1515.26 -1.89353 7.56152 0
M  V30 15895 N 1519.49 -1.52437 0.400108 0
M  V30 15896 C 1520.43 -2.26763 -0.429799 0
M  V30 15897 C 1521.4 -1.28808 -1.0487 0
M  V30 15898 O 1522.59 -1.57655 -1.07468 0
M  V30 15899 C 1519.73 -3.08564 -1.54539 0
M  V30 15900 C 1518.84 -4.21463 -0.948294 0
M  V30 15901 C 1517.98 -4.9064 -2.03584 0
M  V30 15902 C 1517.02 -5.95515 -1.4152 0
M  V30 15903 N 1516.15 -6.58245 -2.4425 0
M  V30 15904 H 1520.99 -2.97256 0.210467 0
M  V30 15905 H 1518.53 -1.46645 0.115627 0
M  V30 15906 H 1520.49 -3.54289 -2.20307 0
M  V30 15907 H 1519.12 -2.40259 -2.15582 0
M  V30 15908 H 1518.17 -3.79974 -0.179918 0
M  V30 15909 H 1519.48 -4.96722 -0.454845 0
M  V30 15910 H 1518.64 -5.39724 -2.77097 0
M  V30 15911 H 1517.37 -4.14929 -2.56291 0
M  V30 15912 H 1516.38 -5.45759 -0.665354 0
M  V30 15913 H 1517.6 -6.73164 -0.89593 0
M  V30 15914 H 1515.55 -5.85369 -2.96107 0
M  V30 15915 H 1515.47 -7.2915 -1.99692 0
M  V30 15916 H 1516.74 -7.1197 -3.17362 0
M  V30 15917 N 1520.96 -0.130252 -1.57061 0
M  V30 15918 C 1522.21 0.52488 -1.94751 0
M  V30 15919 C 1522.53 1.67107 -1.0166 0
M  V30 15920 O 1523.73 2.38971 -1.28861 0
M  V30 15921 C 1522.19 0.985118 -3.46155 0
M  V30 15922 C 1521.8 -0.133222 -4.47802 0
M  V30 15923 C 1523.54 1.61099 -3.92743 0
M  V30 15924 C 1521.45 0.344346 -5.90397 0
M  V30 15925 H 1520.38 0.19985 -0.727032 0
M  V30 15926 H 1523.03 -0.211912 -1.82272 0
M  V30 15927 H 1521.41 1.77667 -3.53907 0
M  V30 15928 H 1522.58 -0.909784 -4.5173 0
M  V30 15929 H 1520.9 -0.666449 -4.11032 0
M  V30 15930 H 1523.5 1.97963 -4.96704 0
M  V30 15931 H 1523.84 2.49366 -3.3335 0
M  V30 15932 H 1524.37 0.884641 -3.87839 0
M  V30 15933 H 1521.11 -0.502547 -6.53571 0
M  V30 15934 H 1520.63 1.08714 -5.89865 0
M  V30 15935 H 1522.31 0.801885 -6.42012 0
M  V30 15936 N 1522.44 1.56945 0.143535 0
M  V30 15937 C 1523.69 1.82728 0.854011 0
M  V30 15938 C 1524.01 0.712048 1.82179 0
M  V30 15939 O 1525.21 0.855579 2.57667 0
M  V30 15940 C 1523.67 3.23882 1.56934 0
M  V30 15941 C 1523.28 4.4335 0.643789 0
M  V30 15942 C 1525.02 3.58936 2.26639 0
M  V30 15943 C 1522.93 5.75528 1.36094 0
M  V30 15944 H 1521.86 0.681474 0.32266 0
M  V30 15945 H 1524.51 1.83189 0.106741 0
M  V30 15946 H 1522.89 3.17819 2.36236 0
M  V30 15947 H 1524.06 4.60658 -0.114257 0
M  V30 15948 H 1522.38 4.16364 0.0549721 0
M  V30 15949 H 1524.98 4.54948 2.80939 0
M  V30 15950 H 1525.32 2.85163 3.03295 0
M  V30 15951 H 1525.85 3.66676 1.54252 0
M  V30 15952 H 1522.59 6.52406 0.636157 0
M  V30 15953 H 1522.11 5.62149 2.09161 0
M  V30 15954 H 1523.79 6.18445 1.9009 0
M  V30 15955 N 1523.92 -0.412991 1.52093 0
M  V30 15956 C 1524.87 -1.50294 1.75158 0
M  V30 15957 C 1525.84 -1.55119 0.593902 0
M  V30 15958 O 1527.02 -1.71751 0.831032 0
M  V30 15959 C 1524.16 -2.87781 1.90463 0
M  V30 15960 C 1523.28 -2.92295 3.181 0
M  V30 15961 C 1522.41 -4.21056 3.23859 0
M  V30 15962 C 1521.45 -4.1953 4.45714 0
M  V30 15963 N 1520.59 -5.39857 4.48886 0
M  V30 15964 H 1525.43 -1.29927 2.68185 0
M  V30 15965 H 1522.96 -0.630741 1.32891 0
M  V30 15966 H 1524.92 -3.67588 1.9732 0
M  V30 15967 H 1523.55 -3.06651 1.00822 0
M  V30 15968 H 1522.6 -2.05002 3.20434 0
M  V30 15969 H 1523.92 -2.87031 4.0794 0
M  V30 15970 H 1523.07 -5.09253 3.29767 0
M  V30 15971 H 1521.81 -4.2901 2.31952 0
M  V30 15972 H 1520.81 -3.29724 4.39957 0
M  V30 15973 H 1522.04 -4.1322 5.38912 0
M  V30 15974 H 1519.99 -5.48486 3.59861 0
M  V30 15975 H 1519.9 -5.36572 5.32566 0
M  V30 15976 H 1521.17 -6.30018 4.59018 0
M  V30 15977 N 1525.4 -1.4265 -0.669982 0
M  V30 15978 C 1526.65 -1.44587 -1.4306 0
M  V30 15979 C 1527 -0.0629167 -1.92297 0
M  V30 15980 O 1526.29 0.915708 -1.68301 0
M  V30 15981 C 1526.49 -2.40913 -2.63999 0
M  V30 15982 C 1526.32 -3.88438 -2.26597 0
M  V30 15983 C 1525.09 -4.56936 -2.15725 0
M  V30 15984 C 1527.28 -4.78731 -1.87938 0
M  V30 15985 N 1525.27 -5.89465 -1.71477 0
M  V30 15986 C 1526.64 -6.00404 -1.54645 0
M  V30 15987 C 1528.69 -4.66143 -1.74973 0
M  V30 15988 C 1527.4 -7.10888 -1.09688 0
M  V30 15989 C 1529.42 -5.76613 -1.3142 0
M  V30 15990 C 1528.78 -6.97401 -0.99054 0
M  V30 15991 H 1524.88 -0.584242 -0.519794 0
M  V30 15992 H 1527.47 -1.78711 -0.772679 0
M  V30 15993 H 1525.64 -2.08843 -3.27474 0
M  V30 15994 H 1527.37 -2.33398 -3.30617 0
M  V30 15995 H 1524.12 -4.11213 -2.34948 0
M  V30 15996 H 1524.55 -6.59771 -1.51762 0
M  V30 15997 H 1529.19 -3.73231 -1.98641 0
M  V30 15998 H 1526.91 -8.03642 -0.847666 0
M  V30 15999 H 1530.49 -5.68886 -1.21902 0
M  V30 16000 H 1529.37 -7.81429 -0.658653 0
M  V30 16001 N 1526.88 0.906753 -1.28902 0
M  V30 16002 C 1527.81 2.01159 -1.07752 0
M  V30 16003 C 1528.79 1.62598 0.00851506 0
M  V30 16004 O 1529.97 1.87973 -0.140797 0
M  V30 16005 C 1527.1 3.3262 -0.638877 0
M  V30 16006 C 1526.15 3.90166 -1.72258 0
M  V30 16007 S 1526.98 4.20147 -3.32019 0
M  V30 16008 C 1528.13 5.5466 -2.90006 0
M  V30 16009 H 1528.37 2.18791 -2.01291 0
M  V30 16010 H 1525.9 1.05249 -1.12969 0
M  V30 16011 H 1527.86 4.08619 -0.392507 0
M  V30 16012 H 1526.52 3.12878 0.276792 0
M  V30 16013 H 1525.71 4.85095 -1.36745 0
M  V30 16014 H 1525.31 3.20829 -1.92211 0
M  V30 16015 H 1527.61 6.34839 -2.36612 0
M  V30 16016 H 1528.55 5.95092 -3.83759 0
M  V30 16017 H 1528.96 5.16181 -2.28511 0
M  V30 16018 N 1528.36 1.11264 1.11616 0
M  V30 16019 C 1529.29 0.79149 2.19676 0
M  V30 16020 C 1530.27 -0.239351 1.68408 0
M  V30 16021 O 1531.45 -0.103228 1.93925 0
M  V30 16022 C 1528.58 0.231891 3.46525 0
M  V30 16023 C 1527.54 1.19439 4.10997 0
M  V30 16024 C 1526.86 0.495593 5.32398 0
M  V30 16025 C 1528.16 2.54437 4.56135 0
M  V30 16026 H 1529.86 1.69503 2.46797 0
M  V30 16027 H 1527.4 0.816433 1.18619 0
M  V30 16028 H 1529.35 -0.00497468 4.214 0
M  V30 16029 H 1528.08 -0.706938 3.18857 0
M  V30 16030 H 1526.74 1.41686 3.38113 0
M  V30 16031 H 1526.39 -0.447984 5.01001 0
M  V30 16032 H 1526.09 1.13753 5.76484 0
M  V30 16033 H 1527.61 0.267476 6.10014 0
M  V30 16034 H 1529.02 2.36289 5.22341 0
M  V30 16035 H 1527.42 3.14595 5.11028 0
M  V30 16036 H 1528.49 3.13795 3.69676 0
M  V30 16037 N 1529.83 -1.29188 0.902679 0
M  V30 16038 C 1531.25 -1.47924 0.599209 0
M  V30 16039 C 1531.45 -1.82297 -0.858494 0
M  V30 16040 O 1530.51 -1.92123 -1.63845 0
M  V30 16041 C 1531.82 -2.59008 1.52759 0
M  V30 16042 C 1533.37 -2.72882 1.53312 0
M  V30 16043 C 1533.84 -3.87097 2.44785 0
M  V30 16044 N 1535.33 -3.94435 2.42849 0
M  V30 16045 C 1536.07 -4.82165 3.1033 0
M  V30 16046 N 1535.56 -5.74565 3.87101 0
M  V30 16047 N 1537.36 -4.75681 2.99473 0
M  V30 16048 H 1529.51 -1.05154 1.84544 0
M  V30 16049 H 1531.77 -0.522632 0.790924 0
M  V30 16050 H 1531.48 -2.40483 2.56634 0
M  V30 16051 H 1531.35 -3.55873 1.25036 0
M  V30 16052 H 1533.74 -2.90802 0.501804 0
M  V30 16053 H 1533.82 -1.76582 1.85074 0
M  V30 16054 H 1533.46 -3.69932 3.48012 0
M  V30 16055 H 1533.39 -4.82772 2.10331 0
M  V30 16056 H 1535.88 -3.28347 1.87074 0
M  V30 16057 H 1536.2 -6.3831 4.35638 0
M  V30 16058 H 1534.54 -5.74441 3.91207 0
M  V30 16059 H 1537.73 -4.02483 2.39009 0
M  V30 16060 H 1537.91 -5.4384 3.52337 0
M  V30 16061 N 1531.31 -0.665475 -1.42861 0
M  V30 16062 C 1532.56 -0.181149 -2.00885 0
M  V30 16063 C 1532.87 1.21629 -1.53186 0
M  V30 16064 O 1534.08 1.79648 -2.03565 0
M  V30 16065 C 1532.54 -0.273017 -3.58863 0
M  V30 16066 C 1532.14 -1.67392 -4.15553 0
M  V30 16067 C 1533.89 0.153075 -4.24224 0
M  V30 16068 C 1531.79 -1.71905 -5.65864 0
M  V30 16069 H 1530.72 -0.0639619 -0.751282 0
M  V30 16070 H 1533.38 -0.829299 -1.63691 0
M  V30 16071 H 1531.76 0.44286 -3.93516 0
M  V30 16072 H 1532.93 -2.41613 -3.92377 0
M  V30 16073 H 1531.25 -2.04704 -3.62609 0
M  V30 16074 H 1533.84 0.139369 -5.34518 0
M  V30 16075 H 1534.19 1.1867 -3.99028 0
M  V30 16076 H 1534.72 -0.511472 -3.94498 0
M  V30 16077 H 1531.46 -2.73218 -5.95846 0
M  V30 16078 H 1530.98 -1.02027 -5.91059 0
M  V30 16079 H 1532.66 -1.46829 -6.30119 0
M  V30 16080 N 1532.79 1.52222 -0.408187 0
M  V30 16081 C 1534.04 2.00989 0.169252 0
M  V30 16082 C 1534.35 1.29824 1.46305 0
M  V30 16083 O 1535.56 1.69402 2.12168 0
M  V30 16084 C 1534.01 3.58173 0.352179 0
M  V30 16085 C 1533.62 4.38252 -0.929468 0
M  V30 16086 C 1535.37 4.15173 0.88496 0
M  V30 16087 C 1533.27 5.87077 -0.713781 0
M  V30 16088 H 1532.2 0.751015 0.0670261 0
M  V30 16089 H 1534.85 1.75574 -0.533487 0
M  V30 16090 H 1533.24 3.79913 1.11723 0
M  V30 16091 H 1534.41 4.28272 -1.70059 0
M  V30 16092 H 1532.72 3.92565 -1.38859 0
M  V30 16093 H 1535.32 5.2404 1.06235 0
M  V30 16094 H 1535.66 3.72468 1.85938 0
M  V30 16095 H 1536.2 3.97397 0.178995 0
M  V30 16096 H 1532.94 6.3414 -1.65974 0
M  V30 16097 H 1532.46 5.99797 0.0180631 0
M  V30 16098 H 1534.14 6.46022 -0.355596 0
M  V30 16099 N 1534.27 0.138579 1.5699 0
M  V30 16100 C 1535.49 -0.525074 2.00643 0
M  V30 16101 C 1535.92 -1.58174 1.01796 0
M  V30 16102 O 1535.28 -1.81298 -0.00754003 0
M  V30 16103 C 1535.32 -1.11019 3.43085 0
M  V30 16104 O 1534.43 -2.22529 3.4721 0
M  V30 16105 H 1533.77 -0.129283 0.651292 0
M  V30 16106 H 1536.3 0.23283 2.03271 0
M  V30 16107 H 1536.31 -1.44093 3.81708 0
M  V30 16108 H 1534.98 -0.336325 4.14538 0
M  V30 16109 H 1533.56 -1.90747 3.20422 0
M  V30 16110 N 1535.75 -1.57019 -0.13521 0
M  V30 16111 C 1536.71 -1.98229 -1.15056 0
M  V30 16112 C 1537.71 -0.870295 -1.35213 0
M  V30 16113 O 1538.9 -1.13668 -1.32005 0
M  V30 16114 C 1536.03 -2.30844 -2.50846 0
M  V30 16115 H 1537.22 -2.89123 -0.796744 0
M  V30 16116 H 1534.78 -1.51636 -0.378962 0
M  V30 16117 H 1535.51 -1.42779 -2.91178 0
M  V30 16118 H 1535.3 -3.11931 -2.37574 0
M  V30 16119 H 1536.79 -2.63524 -3.23952 0
M  V30 16120 N 1537.22 0.404919 -1.52309 0
M  V30 16121 C 1538.16 1.51471 -1.7068 0
M  V30 16122 C 1539.14 1.52856 -0.554425 0
M  V30 16123 O 1540.32 1.715 -0.782294 0
M  V30 16124 C 1537.45 2.8999 -1.74995 0
M  V30 16125 C 1536.49 3.06499 -2.96581 0
M  V30 16126 S 1537.33 2.7937 -4.56851 0
M  V30 16127 C 1538.48 4.20112 -4.63958 0
M  V30 16128 H 1538.71 1.35661 -2.64544 0
M  V30 16129 H 1536.25 0.596769 -1.42401 0
M  V30 16130 H 1538.21 3.6982 -1.78167 0
M  V30 16131 H 1536.87 3.03139 -0.822517 0
M  V30 16132 H 1536.06 4.07853 -2.96095 0
M  V30 16133 H 1535.66 2.34541 -2.91319 0
M  V30 16134 H 1537.95 5.13811 -4.41594 0
M  V30 16135 H 1538.9 4.2562 -5.6591 0
M  V30 16136 H 1539.3 4.05279 -3.9295 0
M  V30 16137 N 1538.7 1.43003 0.662408 0
M  V30 16138 C 1539.95 1.44346 1.4245 0
M  V30 16139 C 1540.28 0.064094 1.94094 0
M  V30 16140 O 1539.56 -0.913633 1.71706 0
M  V30 16141 C 1539.84 2.47822 2.61259 0
M  V30 16142 C 1539.69 3.94998 2.15166 0
M  V30 16143 C 1541.01 2.48139 3.63476 0
M  V30 16144 H 1538.13 0.525606 0.51663 0
M  V30 16145 H 1540.77 1.74495 0.751754 0
M  V30 16146 H 1538.92 2.22244 3.18653 0
M  V30 16147 H 1540.59 4.31601 1.62843 0
M  V30 16148 H 1538.84 4.0827 1.46622 0
M  V30 16149 H 1539.51 4.62998 3.00561 0
M  V30 16150 H 1541.98 2.70916 3.15823 0
M  V30 16151 H 1540.86 3.22498 4.44169 0
M  V30 16152 H 1541.12 1.51184 4.15447 0
M  V30 16153 N 1540.18 -0.899904 1.29381 0
M  V30 16154 C 1541.43 -1.64502 1.16713 0
M  V30 16155 C 1541.74 -1.93577 -0.280563 0
M  V30 16156 O 1542.95 -2.66305 -0.528563 0
M  V30 16157 C 1541.4 -2.96414 2.04125 0
M  V30 16158 C 1541.01 -2.74935 3.53716 0
M  V30 16159 C 1542.76 -3.74337 2.0018 0
M  V30 16160 C 1540.66 -4.02571 4.33232 0
M  V30 16161 H 1539.59 -0.617121 0.433218 0
M  V30 16162 H 1542.24 -0.997521 1.54019 0
M  V30 16163 H 1540.63 -3.62375 1.59687 0
M  V30 16164 H 1541.8 -2.17567 4.06203 0
M  V30 16165 H 1540.12 -2.10407 3.5933 0
M  V30 16166 H 1542.71 -4.6897 2.56849 0
M  V30 16167 H 1543.06 -4.04559 0.981735 0
M  V30 16168 H 1543.59 -3.15216 2.4266 0
M  V30 16169 H 1540.33 -3.77516 5.35875 0
M  V30 16170 H 1539.85 -4.59499 3.85514 0
M  V30 16171 H 1541.53 -4.70719 4.43884 0
M  V30 16172 N 1541.66 -1.11854 -1.11024 0
M  V30 16173 C 1542.91 -0.864814 -1.82219 0
M  V30 16174 C 1543.22 0.611349 -1.85801 0
M  V30 16175 O 1544.43 0.981475 -2.53139 0
M  V30 16176 C 1542.88 -1.49745 -3.27268 0
M  V30 16177 C 1542.49 -3.00796 -3.32003 0
M  V30 16178 C 1544.23 -1.32374 -4.03333 0
M  V30 16179 C 1542.14 -3.57023 -4.71475 0
M  V30 16180 H 1541.07 -0.319877 -0.682784 0
M  V30 16181 H 1543.72 -1.34431 -1.24903 0
M  V30 16182 H 1542.1 -0.94562 -3.84544 0
M  V30 16183 H 1543.28 -3.6242 -2.84585 0
M  V30 16184 H 1541.59 -3.17493 -2.6942 0
M  V30 16185 H 1544.19 -1.7181 -5.06345 0
M  V30 16186 H 1544.53 -0.26676 -4.15444 0
M  V30 16187 H 1545.07 -1.84444 -3.52456 0
M  V30 16188 H 1541.81 -4.62453 -4.64562 0
M  V30 16189 H 1541.33 -3.00172 -5.19285 0
M  V30 16190 H 1543 -3.5572 -5.40437 0
M  V30 16191 N 1543.14 1.28707 -0.909517 0
M  V30 16192 C 1544.39 1.94437 -0.536401 0
M  V30 16193 C 1544.7 1.72416 0.923685 0
M  V30 16194 O 1545.9 2.32333 1.40477 0
M  V30 16195 C 1544.36 3.48246 -0.908455 0
M  V30 16196 C 1543.97 3.79051 -2.38798 0
M  V30 16197 C 1545.71 4.20156 -0.605721 0
M  V30 16198 C 1543.62 5.2615 -2.70038 0
M  V30 16199 H 1542.55 0.727842 -0.196882 0
M  V30 16200 H 1545.2 1.46283 -1.10786 0
M  V30 16201 H 1543.58 3.95107 -0.265829 0
M  V30 16202 H 1544.76 3.43014 -3.07698 0
M  V30 16203 H 1543.07 3.20303 -2.66074 0
M  V30 16204 H 1545.67 5.28439 -0.815849 0
M  V30 16205 H 1546.01 4.13792 0.456266 0
M  V30 16206 H 1546.54 3.79059 -1.20662 0
M  V30 16207 H 1543.28 5.37587 -3.75073 0
M  V30 16208 H 1542.8 5.63399 -2.05771 0
M  V30 16209 H 1544.48 5.93846 -2.56819 0
M  V30 16210 N 1544.61 0.673042 1.42506 0
M  V30 16211 C 1546.03 0.342429 1.55883 0
M  V30 16212 C 1546.23 -1.15229 1.65302 0
M  V30 16213 O 1545.29 -1.93767 1.61897 0
M  V30 16214 C 1546.6 1.0712 2.80973 0
M  V30 16215 C 1548.15 1.05336 2.94743 0
M  V30 16216 C 1548.62 1.76342 4.22691 0
M  V30 16217 N 1550.11 1.73201 4.29599 0
M  V30 16218 C 1550.85 2.25 5.27411 0
M  V30 16219 N 1550.34 2.85173 6.31386 0
M  V30 16220 N 1552.14 2.15385 5.19197 0
M  V30 16221 H 1544.29 1.64277 1.34636 0
M  V30 16222 H 1546.55 0.691984 0.647968 0
M  V30 16223 H 1546.26 2.1263 2.80145 0
M  V30 16224 H 1546.13 0.635313 3.71811 0
M  V30 16225 H 1548.52 0.00659669 2.95099 0
M  V30 16226 H 1548.6 1.52811 2.0514 0
M  V30 16227 H 1548.24 2.80985 4.23096 0
M  V30 16228 H 1548.17 1.26317 5.11225 0
M  V30 16229 H 1550.66 1.2931 3.55088 0
M  V30 16230 H 1550.98 3.22323 7.02373 0
M  V30 16231 H 1549.32 2.89242 6.31953 0
M  V30 16232 H 1552.51 1.68065 4.36889 0
M  V30 16233 H 1552.69 2.5606 5.95262 0
M  V30 16234 N 1546.09 -1.52004 0.416254 0
M  V30 16235 C 1547.04 -2.28771 -0.420331 0
M  V30 16236 C 1548.03 -1.33751 -1.03957 0
M  V30 16237 O 1549.24 -1.51181 -0.976951 0
M  V30 16238 H 1545.62 -0.735991 -0.15434 0
M  V30 16239 H 1547.59 -2.97366 0.248255 0
M  V30 16240 C 1546.34 -3.12675 -1.52085 0
M  V30 16241 H 1545.66 -3.85665 -1.0537 0
M  V30 16242 H 1547.1 -3.69482 -2.07989 0
M  V30 16243 C 1545.56 -2.26692 -2.49224 0
M  V30 16244 O 1546.09 -1.91205 -3.53276 0
M  V30 16245 N 1544.29 -1.90322 -2.19604 0
M  V30 16246 H 1543.84 -2.1938 -1.35019 0
M  V30 16247 H 1543.8 -1.33086 -2.84843 0
M  V30 16248 N 1547.57 -0.146903 -1.56914 0
M  V30 16249 C 1548.8 0.514426 -2.00919 0
M  V30 16250 C 1549.22 1.57632 -1.02634 0
M  V30 16251 O 1548.58 1.813 -0.00207478 0
M  V30 16252 C 1548.63 1.09197 -3.43669 0
M  V30 16253 O 1547.73 2.20684 -3.48385 0
M  V30 16254 H 1547.07 0.125827 -0.651969 0
M  V30 16255 H 1549.6 -0.243607 -2.03145 0
M  V30 16256 H 1549.61 1.42066 -3.82467 0
M  V30 16257 H 1548.29 0.314336 -4.1471 0
M  V30 16258 H 1546.86 1.89045 -3.21429 0
M  V30 16259 N 1549.05 1.57088 0.126881 0
M  V30 16260 C 1550.27 1.88984 0.854389 0
M  V30 16261 C 1550.7 0.738037 1.73016 0
M  V30 16262 O 1550.06 -0.311728 1.786 0
M  V30 16263 C 1550.1 3.19584 1.67028 0
M  V30 16264 O 1549.21 3.04935 2.77648 0
M  V30 16265 H 1548.55 0.620354 0.236763 0
M  V30 16266 H 1551.08 2.04295 0.111647 0
M  V30 16267 H 1551.09 3.52109 2.06115 0
M  V30 16268 H 1549.76 4.03012 1.02732 0
M  V30 16269 H 1548.34 2.83861 2.41821 0
M  V30 16270 N 1550.53 -0.396836 1.52522 0
M  V30 16271 C 1551.8 -1.15638 1.57757 0
M  V30 16272 C 1552.18 -2.07903 0.365998 0
M  V30 16273 O 1551.53 -2.1917 -0.646266 0
M  V30 16274 C 1551.74 -1.92292 2.91247 0
M  V30 16275 C 1553.09 -2.47929 3.44697 0
M  V30 16276 O 1554.11 -2.02458 2.93069 0
M  V30 16277 O 1552.97 -3.30969 4.34881 0
M  V30 16278 H 1550.07 -0.52867 0.635953 0
M  V30 16279 H 1552.61 -0.402622 1.64855 0
M  V30 16280 H 1551.38 -1.24775 3.70873 0
M  V30 16281 H 1551.01 -2.74646 2.87498 0
M  V30 16282 N 1552.01 -1.43353 -0.654814 0
M  V30 16283 C 1553.42 -1.39933 -1.23595 0
M  V30 16284 C 1553.77 -0.102592 -1.95932 0
M  V30 16285 O 1552.89 0.798021 -2.01148 0
M  V30 16286 C 1553.49 -2.53483 -2.24793 0
M  V30 16287 C 1552.05 -2.53333 -2.78387 0
M  V30 16288 C 1551.19 -2.31268 -1.53005 0
M  V30 16289 H 1554.14 -1.52277 -0.446932 0
M  V30 16290 H 1554.17 -2.2488 -3.06935 0
M  V30 16291 H 1553.68 -3.47847 -1.72116 0
M  V30 16292 H 1551.78 -1.62844 -3.35131 0
M  V30 16293 H 1551.89 -3.51047 -3.26041 0
M  V30 16294 H 1550.26 -1.79905 -1.80295 0
M  V30 16295 H 1551.04 -3.27714 -1.02266 0
M  V30 16296 N 1553.48 0.89303 -1.29857 0
M  V30 16297 C 1554.42 2.00327 -1.11364 0
M  V30 16298 C 1555.43 1.62692 -0.0591968 0
M  V30 16299 O 1556.62 1.75885 -0.3044 0
M  V30 16300 C 1553.72 3.3212 -0.674518 0
M  V30 16301 C 1552.89 3.98241 -1.80895 0
M  V30 16302 C 1551.95 5.08329 -1.35972 0
M  V30 16303 O 1550.98 5.30398 -2.06558 0
M  V30 16304 N 1552.18 5.80027 -0.234282 0
M  V30 16305 H 1554.94 2.16743 -2.06984 0
M  V30 16306 H 1552.5 1.06563 -1.21885 0
M  V30 16307 H 1554.5 4.03121 -0.357167 0
M  V30 16308 H 1553.07 3.12026 0.189414 0
M  V30 16309 H 1552.29 3.20517 -2.29483 0
M  V30 16310 H 1553.57 4.39158 -2.56939 0
M  V30 16311 H 1552.97 5.64591 0.354068 0
M  V30 16312 H 1551.53 6.51796 0.0236623 0
M  V30 16313 N 1554.96 1.12442 1.10429 0
M  V30 16314 C 1556.19 0.902599 1.86174 0
M  V30 16315 C 1556.6 -0.548147 1.80668 0
M  V30 16316 O 1555.96 -1.37898 1.19543 0
M  V30 16317 C 1556.01 1.36912 3.34571 0
M  V30 16318 O 1555.73 2.763 3.39985 0
M  V30 16319 C 1557.23 1.18424 4.27189 0
M  V30 16320 H 1554.45 0.322534 0.588399 0
M  V30 16321 H 1557 1.49439 1.396 0
M  V30 16322 H 1555.15 0.82055 3.7861 0
M  V30 16323 H 1555.57 2.96772 4.32466 0
M  V30 16324 H 1557.04 1.55954 5.29511 0
M  V30 16325 H 1557.52 0.12483 4.39023 0
M  V30 16326 H 1558.12 1.72032 3.88954 0
M  V30 16327 N 1556.44 -1.28223 0.91633 0
M  V30 16328 C 1557.69 -1.94149 0.546705 0
M  V30 16329 C 1558 -1.72904 -0.914529 0
M  V30 16330 O 1559.21 -2.33075 -1.39243 0
M  V30 16331 C 1557.66 -3.47759 0.92691 0
M  V30 16332 C 1557.27 -3.77779 2.40805 0
M  V30 16333 C 1559.02 -4.19829 0.627994 0
M  V30 16334 C 1556.92 -5.2471 2.72825 0
M  V30 16335 H 1555.85 -0.726787 0.200739 0
M  V30 16336 H 1558.5 -1.45694 1.1156 0
M  V30 16337 H 1556.89 -3.9496 0.286779 0
M  V30 16338 H 1558.06 -3.41377 3.09513 0
M  V30 16339 H 1556.37 -3.18887 2.67769 0
M  V30 16340 H 1558.97 -5.27999 0.843862 0
M  V30 16341 H 1559.31 -4.14028 -0.434315 0
M  V30 16342 H 1559.85 -3.78413 1.22671 0
M  V30 16343 H 1556.59 -5.35591 3.77919 0
M  V30 16344 H 1556.11 -5.623 2.08756 0
M  V30 16345 H 1557.79 -5.92475 2.59965 0
M  V30 16346 N 1557.92 -0.68059 -1.42147 0
M  V30 16347 C 1558.85 -0.0199376 -2.33491 0
M  V30 16348 C 1559.83 0.783164 -1.50999 0
M  V30 16349 O 1561.01 0.739154 -1.79583 0
M  V30 16350 C 1558.14 0.927902 -3.34675 0
M  V30 16351 C 1557.1 0.232979 -4.27365 0
M  V30 16352 C 1556.42 1.29415 -5.18802 0
M  V30 16353 C 1557.72 -0.891559 -5.14634 0
M  V30 16354 H 1559.42 -0.782823 -2.88985 0
M  V30 16355 H 1556.96 -0.377898 -1.38953 0
M  V30 16356 H 1558.92 1.3992 -3.97493 0
M  V30 16357 H 1557.64 1.72228 -2.77498 0
M  V30 16358 H 1556.3 -0.21814 -3.6595 0
M  V30 16359 H 1555.95 2.08067 -4.57949 0
M  V30 16360 H 1555.65 0.834274 -5.81647 0
M  V30 16361 H 1557.17 1.76627 -5.84496 0
M  V30 16362 H 1558.59 -0.501219 -5.71105 0
M  V30 16363 H 1556.98 -1.27759 -5.86343 0
M  V30 16364 H 1558.05 -1.73781 -4.5269 0
M  V30 16365 N 1559.4 1.51781 -0.424309 0
M  V30 16366 C 1560.36 2.25996 0.381903 0
M  V30 16367 C 1561.36 1.28938 0.960813 0
M  V30 16368 O 1562.55 1.52757 0.837306 0
M  V30 16369 C 1559.68 3.04181 1.53904 0
M  V30 16370 H 1560.87 2.98697 -0.268336 0
M  V30 16371 H 1558.43 1.55293 -0.177167 0
M  V30 16372 H 1559.16 2.35866 2.22571 0
M  V30 16373 H 1558.95 3.75457 1.13025 0
M  V30 16374 H 1560.44 3.60434 2.10896 0
M  V30 16375 N 1560.87 0.155222 1.56834 0
M  V30 16376 C 1562.1 -0.500542 2.00754 0
M  V30 16377 C 1562.52 -1.57878 1.03538 0
M  V30 16378 O 1561.87 -1.82469 0.0336651 0
M  V30 16379 C 1561.92 -1.09366 3.4456 0
M  V30 16380 O 1561.65 -0.0584788 4.38061 0
M  V30 16381 C 1563.15 -1.82923 4.038 0
M  V30 16382 H 1560.37 -0.129589 0.658368 0
M  V30 16383 H 1562.91 0.252223 2.02939 0
M  V30 16384 H 1561.07 -1.797 3.43201 0
M  V30 16385 H 1561.48 -0.494125 5.22167 0
M  V30 16386 H 1562.95 -2.19703 5.06394 0
M  V30 16387 H 1563.43 -2.71823 3.44976 0
M  V30 16388 H 1564.04 -1.17268 4.08813 0
M  V30 16389 N 1562.35 -1.57153 -0.118549 0
M  V30 16390 C 1563.28 -2.03409 -1.1466 0
M  V30 16391 C 1564.26 -0.918636 -1.43161 0
M  V30 16392 O 1565.45 -1.18838 -1.53594 0
M  V30 16393 C 1562.58 -2.43879 -2.47265 0
M  V30 16394 C 1561.53 -3.58873 -2.33225 0
M  V30 16395 C 1560.86 -3.85244 -3.70798 0
M  V30 16396 C 1562.16 -4.90582 -1.79239 0
M  V30 16397 H 1563.85 -2.89545 -0.761862 0
M  V30 16398 H 1561.4 -1.39296 -0.365034 0
M  V30 16399 H 1563.35 -2.74844 -3.19435 0
M  V30 16400 H 1562.07 -1.54715 -2.8763 0
M  V30 16401 H 1560.73 -3.28119 -1.63504 0
M  V30 16402 H 1560.38 -2.93285 -4.08648 0
M  V30 16403 H 1560.08 -4.62649 -3.62257 0
M  V30 16404 H 1561.61 -4.18661 -4.44472 0
M  V30 16405 H 1563.02 -5.20079 -2.41227 0
M  V30 16406 H 1561.42 -5.71989 -1.81518 0
M  V30 16407 H 1562.49 -4.79065 -0.74999 0
M  V30 16408 N 1563.83 0.388742 -1.5273 0
M  V30 16409 C 1565.06 1.15495 -1.71664 0
M  V30 16410 C 1565.47 1.83717 -0.435127 0
M  V30 16411 O 1564.83 1.72686 0.590411 0
M  V30 16412 C 1564.88 2.20279 -2.86635 0
M  V30 16413 O 1564.6 1.54838 -4.09825 0
M  V30 16414 C 1566.1 3.09625 -3.1725 0
M  V30 16415 H 1563.32 0.346271 -0.57475 0
M  V30 16416 H 1565.87 0.454729 -1.9938 0
M  V30 16417 H 1564.02 2.85936 -2.61379 0
M  V30 16418 H 1564.44 2.24466 -4.74042 0
M  V30 16419 H 1565.91 3.79177 -4.01159 0
M  V30 16420 H 1566.39 3.73147 -2.31643 0
M  V30 16421 H 1566.99 2.49612 -3.44345 0
M  V30 16422 N 1565.31 1.43698 0.647203 0
M  V30 16423 C 1566.24 1.52135 1.77136 0
M  V30 16424 C 1567.22 0.375551 1.65902 0
M  V30 16425 O 1568.4 0.593564 1.84907 0
M  V30 16426 C 1565.53 1.44974 3.15594 0
M  V30 16427 C 1564.49 2.57866 3.41598 0
M  V30 16428 C 1563.81 2.35757 4.7992 0
M  V30 16429 C 1565.11 4.00089 3.35747 0
M  V30 16430 H 1566.81 2.46227 1.70332 0
M  V30 16431 H 1564.35 1.18507 0.818046 0
M  V30 16432 H 1566.31 1.4948 3.93997 0
M  V30 16433 H 1565.03 0.473905 3.23143 0
M  V30 16434 H 1563.69 2.52722 2.65569 0
M  V30 16435 H 1563.34 1.36403 4.84152 0
M  V30 16436 H 1563.04 3.11436 4.98278 0
M  V30 16437 H 1564.56 2.42055 5.60572 0
M  V30 16438 H 1565.98 4.06687 4.04078 0
M  V30 16439 H 1564.37 4.75842 3.65642 0
M  V30 16440 H 1565.44 4.24798 2.33825 0
M  V30 16441 N 1566.79 -0.886131 1.30328 0
M  V30 16442 C 1568.04 -1.63255 1.18451 0
M  V30 16443 C 1568.35 -1.93864 -0.260016 0
M  V30 16444 O 1569.55 -2.66851 -0.500288 0
M  V30 16445 C 1568.01 -2.94232 2.07257 0
M  V30 16446 C 1567.62 -2.71168 3.56612 0
M  V30 16447 C 1569.36 -3.72193 2.04139 0
M  V30 16448 C 1567.27 -3.97954 4.37478 0
M  V30 16449 H 1566.2 -0.612491 0.439739 0
M  V30 16450 H 1568.85 -0.981129 1.55068 0
M  V30 16451 H 1567.23 -3.60661 1.63522 0
M  V30 16452 H 1568.41 -2.13247 4.08488 0
M  V30 16453 H 1566.72 -2.06584 3.61541 0
M  V30 16454 H 1569.32 -4.66219 2.61809 0
M  V30 16455 H 1569.66 -4.03495 1.02459 0
M  V30 16456 H 1570.19 -3.12624 2.45989 0
M  V30 16457 H 1566.93 -3.71811 5.39849 0
M  V30 16458 H 1566.45 -4.55384 3.90366 0
M  V30 16459 H 1568.13 -4.65984 4.48852 0
M  V30 16460 N 1568.26 -1.13026 -1.09832 0
M  V30 16461 C 1569.51 -0.887662 -1.81563 0
M  V30 16462 C 1569.83 0.587935 -1.85926 0
M  V30 16463 O 1569.1 1.42732 -1.3418 0
M  V30 16464 H 1567.68 -0.32541 -0.672397 0
M  V30 16465 H 1570.35 -1.42597 -1.32861 0
M  V30 16466 H 1569.44 -1.2747 -2.84882 0
M  V30 16467 N 1569.74 1.27735 -0.923117 0
M  V30 16468 C 1570.98 1.96339 -0.568378 0
M  V30 16469 C 1571.35 1.70988 0.87333 0
M  V30 16470 O 1572.55 2.33241 1.33611 0
M  V30 16471 C 1570.82 3.46396 -0.880016 0
M  V30 16472 S 1572.38 4.34209 -0.633102 0
M  V30 16473 H 1569.2 0.679289 -0.209969 0
M  V30 16474 H 1571.8 1.55066 -1.19057 0
M  V30 16475 H 1570.5 3.62344 -1.92705 0
M  V30 16476 H 1570.03 3.92625 -0.246836 0
M  V30 16477 H 1572.05 4.93559 0.511241 0
M  V30 16478 N 1571.22 0.688118 1.41784 0
M  V30 16479 C 1572.45 0.223231 2.06195 0
M  V30 16480 C 1572.87 -1.11601 1.51416 0
M  V30 16481 O 1572.23 -1.69701 0.638059 0
M  V30 16482 C 1572.28 0.183257 3.60134 0
M  V30 16483 O 1571.38 -0.844186 4.03667 0
M  V30 16484 H 1570.72 0.110925 0.654669 0
M  V30 16485 H 1573.25 0.940882 1.81683 0
M  V30 16486 H 1573.26 0.0115951 4.07998 0
M  V30 16487 H 1571.94 1.16072 3.99375 0
M  V30 16488 H 1570.51 -0.642484 3.67323 0
M  V30 16489 N 1572.7 -1.51554 0.432352 0
M  V30 16490 C 1573.95 -2.01645 -0.135511 0
M  V30 16491 C 1574.27 -1.31874 -1.43647 0
M  V30 16492 O 1573.54 -0.451746 -1.9062 0
M  V30 16493 H 1572.12 -0.745113 -0.0530683 0
M  V30 16494 H 1574.78 -1.86258 0.573917 0
M  V30 16495 H 1573.88 -3.10506 -0.315001 0
M  V30 16496 N 1574.18 -0.163538 -1.56749 0
M  V30 16497 C 1575.4 0.493087 -2.01453 0
M  V30 16498 C 1575.83 1.56535 -1.043 0
M  V30 16499 O 1575.18 1.81287 -0.0213039 0
M  V30 16500 C 1575.23 1.05546 -3.44808 0
M  V30 16501 O 1574.34 2.16977 -3.50706 0
M  V30 16502 H 1573.68 0.118905 -0.653267 0
M  V30 16503 H 1576.21 -0.265139 -2.02875 0
M  V30 16504 H 1576.22 1.38002 -3.83953 0
M  V30 16505 H 1574.89 0.270333 -4.1502 0
M  V30 16506 H 1573.47 1.85625 -3.23416 0
M  V30 16507 N 1575.65 1.57214 0.110213 0
M  V30 16508 C 1577.07 1.74402 0.666405 0
M  V30 16509 C 1577.42 0.783524 1.79876 0
M  V30 16510 O 1576.54 -0.0415306 2.1636 0
M  V30 16511 C 1577.14 3.1624 1.21564 0
M  V30 16512 C 1575.7 3.34904 1.71804 0
M  V30 16513 C 1574.84 2.70249 0.621347 0
M  V30 16514 H 1577.79 1.58277 -0.115765 0
M  V30 16515 H 1577.81 3.18276 2.0852 0
M  V30 16516 H 1577.33 3.86123 0.391273 0
M  V30 16517 H 1575.43 2.70077 2.56689 0
M  V30 16518 H 1575.54 4.43126 1.82143 0
M  V30 16519 H 1573.9 2.31727 1.05711 0
M  V30 16520 H 1574.69 3.42762 -0.192185 0
M  V30 16521 N 1577.13 -0.380637 1.52934 0
M  V30 16522 C 1578.38 -1.12306 1.69585 0
M  V30 16523 C 1578.73 -1.87427 0.434626 0
M  V30 16524 O 1578.03 -1.82864 -0.571955 0
M  V30 16525 C 1578.22 -2.1227 2.87535 0
M  V30 16526 C 1578.05 -1.46969 4.25006 0
M  V30 16527 C 1576.82 -1.23021 4.90096 0
M  V30 16528 C 1579.02 -0.915348 5.06089 0
M  V30 16529 N 1577 -0.539124 6.11528 0
M  V30 16530 C 1578.37 -0.352792 6.18995 0
M  V30 16531 C 1580.43 -0.81257 4.91225 0
M  V30 16532 C 1579.13 0.302501 7.18664 0
M  V30 16533 C 1581.15 -0.171084 5.91152 0
M  V30 16534 C 1580.52 0.380664 7.03371 0
M  V30 16535 H 1576.62 -0.39663 0.67395 0
M  V30 16536 H 1579.2 -0.411454 1.90303 0
M  V30 16537 H 1577.37 -2.80759 2.68382 0
M  V30 16538 H 1579.1 -2.7908 2.93081 0
M  V30 16539 H 1575.86 -1.50746 4.48969 0
M  V30 16540 H 1576.28 -0.209381 6.76676 0
M  V30 16541 H 1580.92 -1.22493 4.04667 0
M  V30 16542 H 1578.64 0.72685 8.04825 0
M  V30 16543 H 1582.23 -0.0926928 5.81726 0
M  V30 16544 H 1581.11 0.8692 7.79368 0
M  V30 16545 N 1578.61 -1.44039 -0.639573 0
M  V30 16546 C 1580.03 -1.2774 -0.956802 0
M  V30 16547 C 1580.23 -0.207018 -2.00434 0
M  V30 16548 O 1579.28 0.409954 -2.4915 0
M  V30 16549 C 1580.6 -2.64624 -1.42809 0
M  V30 16550 C 1582.14 -2.72266 -1.54402 0
M  V30 16551 C 1582.62 -4.09601 -2.04918 0
M  V30 16552 N 1584.11 -4.11735 -2.122 0
M  V30 16553 C 1584.84 -5.14842 -2.52439 0
M  V30 16554 N 1584.34 -6.28316 -2.91875 0
M  V30 16555 N 1586.13 -5.02196 -2.52499 0
M  V30 16556 H 1578.28 -2.12333 0.0533569 0
M  V30 16557 H 1580.55 -0.947208 -0.0387401 0
M  V30 16558 H 1580.25 -3.43983 -0.732728 0
M  V30 16559 H 1580.13 -2.90944 -2.40066 0
M  V30 16560 H 1582.51 -1.93232 -2.23037 0
M  V30 16561 H 1582.6 -2.49697 -0.555426 0
M  V30 16562 H 1582.24 -4.89108 -1.3688 0
M  V30 16563 H 1582.17 -4.29542 -3.04633 0
M  V30 16564 H 1584.66 -3.29833 -1.84441 0
M  V30 16565 H 1584.97 -7.0281 -3.21368 0
M  V30 16566 H 1583.32 -6.31767 -2.89647 0
M  V30 16567 H 1586.51 -4.12606 -2.21075 0
M  V30 16568 H 1586.68 -5.82677 -2.83535 0
M  V30 16569 N 1580.09 0.879207 -1.30796 0
M  V30 16570 C 1581.34 1.6315 -1.19951 0
M  V30 16571 C 1581.66 1.92958 0.244468 0
M  V30 16572 O 1580.92 1.55316 1.19061 0
M  V30 16573 C 1581.22 2.97578 -1.97945 0
M  V30 16574 C 1580.88 2.873 -3.47519 0
M  V30 16575 C 1579.55 2.84204 -3.88306 0
M  V30 16576 C 1581.9 2.75006 -4.42743 0
M  V30 16577 C 1579.23 2.6666 -5.22599 0
M  V30 16578 C 1581.58 2.59 -5.7715 0
M  V30 16579 C 1580.24 2.54282 -6.17168 0
M  V30 16580 H 1579.51 0.597008 -0.438934 0
M  V30 16581 H 1582.16 1.02179 -1.61962 0
M  V30 16582 H 1580.46 3.62532 -1.48587 0
M  V30 16583 H 1582.16 3.54759 -1.86941 0
M  V30 16584 H 1578.75 2.90522 -3.15111 0
M  V30 16585 H 1582.93 2.7646 -4.12169 0
M  V30 16586 H 1578.19 2.61426 -5.5269 0
M  V30 16587 H 1582.36 2.48462 -6.50568 0
M  V30 16588 H 1579.99 2.40446 -7.21172 0
M  V30 16589 N 1581.57 1.13606 1.09231 0
M  V30 16590 C 1582.5 0.837908 2.17948 0
M  V30 16591 C 1583.48 -0.203575 1.68877 0
M  V30 16592 O 1584.66 -0.0620702 1.94101 0
M  V30 16593 C 1581.79 0.305342 3.45955 0
M  V30 16594 C 1580.75 1.2813 4.08371 0
M  V30 16595 C 1580.07 0.608412 5.31227 0
M  V30 16596 C 1581.37 2.64055 4.50636 0
M  V30 16597 H 1583.07 1.747 2.43147 0
M  V30 16598 H 1580.61 0.84141 1.1686 0
M  V30 16599 H 1582.57 0.0844116 4.21315 0
M  V30 16600 H 1581.29 -0.639144 3.20285 0
M  V30 16601 H 1579.95 1.48826 3.35032 0
M  V30 16602 H 1579.6 -0.341613 5.01839 0
M  V30 16603 H 1579.3 1.25956 5.73942 0
M  V30 16604 H 1580.82 0.396809 6.09309 0
M  V30 16605 H 1582.24 2.47316 5.17212 0
M  V30 16606 H 1580.63 3.25364 5.0424 0
M  V30 16607 H 1581.7 3.21566 3.62937 0
M  V30 16608 N 1583.05 -1.27244 0.929878 0
M  V30 16609 C 1583.99 -2.26773 0.429287 0
M  V30 16610 C 1584.96 -1.58238 -0.50498 0
M  V30 16611 O 1586.15 -1.86037 -0.423661 0
M  V30 16612 C 1583.29 -3.43706 -0.309865 0
M  V30 16613 C 1582.4 -4.26948 0.658764 0
M  V30 16614 C 1581.54 -5.31105 -0.10045 0
M  V30 16615 C 1580.57 -6.06018 0.860743 0
M  V30 16616 N 1579.71 -7.01972 0.134015 0
M  V30 16617 H 1584.55 -2.68967 1.283 0
M  V30 16618 H 1582.09 -1.32257 0.643923 0
M  V30 16619 H 1584.05 -4.10316 -0.754754 0
M  V30 16620 H 1582.68 -3.02457 -1.1278 0
M  V30 16621 H 1581.73 -3.60232 1.22218 0
M  V30 16622 H 1583.04 -4.78946 1.39326 0
M  V30 16623 H 1582.19 -6.03674 -0.605153 0
M  V30 16624 H 1580.93 -4.79915 -0.867902 0
M  V30 16625 H 1579.94 -5.32285 1.37668 0
M  V30 16626 H 1581.16 -6.59297 1.62801 0
M  V30 16627 H 1579.11 -6.53109 -0.615152 0
M  V30 16628 H 1579.03 -7.51669 0.808045 0
M  V30 16629 H 1580.29 -7.78714 -0.349964 0
M  V30 16630 N 1584.52 -0.695628 -1.41417 0
M  V30 16631 C 1585.43 -0.0308378 -2.3458 0
M  V30 16632 C 1586.45 0.766 -1.56232 0
M  V30 16633 O 1587.63 0.703548 -1.88712 0
M  V30 16634 C 1584.69 0.894162 -3.34971 0
M  V30 16635 C 1583.75 0.0895231 -4.29207 0
M  V30 16636 C 1582.98 0.970467 -5.24802 0
M  V30 16637 O 1583.21 2.20997 -5.25848 0
M  V30 16638 O 1582.14 0.420114 -6.00432 0
M  V30 16639 H 1585.97 -0.798775 -2.93007 0
M  V30 16640 H 1583.55 -0.455964 -1.42272 0
M  V30 16641 H 1585.43 1.42458 -3.9659 0
M  V30 16642 H 1584.11 1.64159 -2.78987 0
M  V30 16643 H 1583.02 -0.4855 -3.70936 0
M  V30 16644 H 1584.35 -0.619241 -4.88289 0
M  V30 16645 N 1586 1.51322 -0.440383 0
M  V30 16646 C 1586.95 2.27823 0.369526 0
M  V30 16647 C 1587.92 1.31543 1.01418 0
M  V30 16648 O 1589.1 1.60449 1.03251 0
M  V30 16649 C 1586.24 3.12553 1.46304 0
M  V30 16650 C 1585.36 4.23829 0.836217 0
M  V30 16651 C 1584.49 4.95865 1.90504 0
M  V30 16652 C 1583.53 5.99058 1.25681 0
M  V30 16653 N 1582.67 6.64489 2.26712 0
M  V30 16654 H 1587.51 2.96593 -0.289205 0
M  V30 16655 H 1585.04 1.46287 -0.154466 0
M  V30 16656 H 1587 3.60006 2.10836 0
M  V30 16657 H 1585.63 2.4589 2.09136 0
M  V30 16658 H 1584.68 3.80318 0.0791116 0
M  V30 16659 H 1586 4.97753 0.322989 0
M  V30 16660 H 1585.15 5.46881 2.6269 0
M  V30 16661 H 1583.89 4.21578 2.452 0
M  V30 16662 H 1582.89 5.47331 0.520422 0
M  V30 16663 H 1584.12 6.75303 0.717138 0
M  V30 16664 H 1582.07 5.93014 2.80483 0
M  V30 16665 H 1581.98 7.34188 1.80289 0
M  V30 16666 H 1583.25 7.20134 2.98373 0
M  V30 16667 N 1587.48 0.171848 1.5666 0
M  V30 16668 C 1588.73 -0.472968 1.96899 0
M  V30 16669 C 1589.05 -1.63217 1.05785 0
M  V30 16670 O 1588.31 -1.95483 0.0920511 0
M  V30 16671 C 1588.61 -0.99711 3.43209 0
M  V30 16672 C 1588.27 0.0462519 4.50876 0
M  V30 16673 C 1586.94 0.333002 4.80046 0
M  V30 16674 C 1589.29 0.754424 5.15711 0
M  V30 16675 C 1586.62 1.3333 5.71349 0
M  V30 16676 C 1588.97 1.74371 6.08093 0
M  V30 16677 C 1587.63 2.03791 6.3563 0
M  V30 16678 H 1586.9 -0.173071 0.720505 0
M  V30 16679 H 1589.55 0.263921 1.89673 0
M  V30 16680 H 1587.85 -1.81183 3.4739 0
M  V30 16681 H 1589.55 -1.50503 3.71685 0
M  V30 16682 H 1586.14 -0.187419 4.2819 0
M  V30 16683 H 1590.33 0.546102 4.93286 0
M  V30 16684 H 1585.58 1.56741 5.90967 0
M  V30 16685 H 1589.76 2.29782 6.57399 0
M  V30 16686 H 1587.38 2.8145 7.0618 0
M  V30 16687 N 1588.96 -1.5727 -0.101874 0
M  V30 16688 C 1590.2 -1.87566 -0.812293 0
M  V30 16689 C 1590.56 -0.762001 -1.76231 0
M  V30 16690 O 1591.76 -0.947191 -2.51559 0
M  V30 16691 C 1590.03 -3.23101 -1.52776 0
M  V30 16692 S 1591.59 -3.75074 -2.27739 0
M  V30 16693 H 1588.41 -0.657425 -0.270765 0
M  V30 16694 H 1591.01 -1.95376 -0.0697509 0
M  V30 16695 H 1589.72 -4.02081 -0.822118 0
M  V30 16696 H 1589.25 -3.18414 -2.31033 0
M  V30 16697 H 1591.26 -3.47947 -3.53762 0
M  V30 16698 N 1590.44 0.372521 -1.53134 0
M  V30 16699 C 1591.38 1.45597 -1.79082 0
M  V30 16700 C 1592.35 1.5349 -0.63482 0
M  V30 16701 O 1593.54 1.69488 -0.876276 0
M  V30 16702 C 1590.68 2.8263 -1.98026 0
M  V30 16703 C 1589.79 2.83758 -3.25738 0
M  V30 16704 C 1588.93 4.12322 -3.34909 0
M  V30 16705 C 1587.96 4.07565 -4.5668 0
M  V30 16706 N 1587.1 5.27766 -4.63042 0
M  V30 16707 H 1591.94 1.22771 -2.71535 0
M  V30 16708 H 1589.48 0.595285 -1.34517 0
M  V30 16709 H 1591.44 3.62227 -2.06997 0
M  V30 16710 H 1590.07 3.0387 -1.08917 0
M  V30 16711 H 1589.12 1.96435 -3.25757 0
M  V30 16712 H 1590.43 2.76114 -4.15406 0
M  V30 16713 H 1589.58 5.00331 -3.43153 0
M  V30 16714 H 1588.32 4.22709 -2.43245 0
M  V30 16715 H 1587.33 3.17943 -4.48545 0
M  V30 16716 H 1588.55 3.98786 -5.49678 0
M  V30 16717 H 1586.5 5.38752 -3.74276 0
M  V30 16718 H 1586.42 5.22264 -5.46605 0
M  V30 16719 H 1587.68 6.17626 -4.75561 0
M  V30 16720 N 1591.91 1.44376 0.631925 0
M  V30 16721 C 1593.16 1.48329 1.39176 0
M  V30 16722 C 1593.51 0.113879 1.92063 0
M  V30 16723 O 1592.81 -0.870764 1.7067 0
M  V30 16724 C 1593 2.47828 2.57519 0
M  V30 16725 C 1592.83 3.94309 2.16218 0
M  V30 16726 C 1591.6 4.62495 2.03534 0
M  V30 16727 C 1593.8 4.83546 1.75179 0
M  V30 16728 N 1591.78 5.93804 1.55788 0
M  V30 16729 C 1593.15 6.04293 1.38672 0
M  V30 16730 C 1595.21 4.70618 1.62553 0
M  V30 16731 C 1593.91 7.13546 0.908012 0
M  V30 16732 C 1595.94 5.79895 1.16086 0
M  V30 16733 C 1595.3 6.99782 0.805289 0
M  V30 16734 H 1591.4 0.597818 0.504121 0
M  V30 16735 H 1593.98 1.80697 0.725026 0
M  V30 16736 H 1592.15 2.17452 3.21822 0
M  V30 16737 H 1593.88 2.42082 3.24312 0
M  V30 16738 H 1590.64 4.17298 2.23963 0
M  V30 16739 H 1591.06 6.63562 1.34216 0
M  V30 16740 H 1595.7 3.78367 1.88675 0
M  V30 16741 H 1593.42 8.05607 0.634297 0
M  V30 16742 H 1597.01 5.71918 1.06776 0
M  V30 16743 H 1595.89 7.82901 0.451239 0
M  V30 16744 N 1593.39 -0.872258 1.31261 0
M  V30 16745 C 1594.62 -1.65795 1.23772 0
M  V30 16746 C 1595.03 -1.87766 -0.197351 0
M  V30 16747 O 1594.39 -1.43418 -1.1286 0
M  V30 16748 C 1594.44 -3.02722 1.9759 0
M  V30 16749 O 1594.16 -2.81734 3.35496 0
M  V30 16750 C 1595.66 -3.97165 1.96913 0
M  V30 16751 H 1592.88 -0.516959 0.427778 0
M  V30 16752 H 1595.43 -1.0889 1.73099 0
M  V30 16753 H 1593.58 -3.56322 1.5203 0
M  V30 16754 H 1594 -3.6869 3.73052 0
M  V30 16755 H 1595.47 -4.90566 2.53079 0
M  V30 16756 H 1595.95 -4.28778 0.951089 0
M  V30 16757 H 1596.55 -3.495 2.42342 0
M  V30 16758 N 1594.87 -1.14184 -1.08627 0
M  V30 16759 C 1595.8 -0.784492 -2.15356 0
M  V30 16760 C 1596.81 0.197581 -1.61597 0
M  V30 16761 O 1598 -0.0238037 -1.78484 0
M  V30 16762 C 1595.1 -0.143433 -3.38596 0
M  V30 16763 C 1594.28 -1.15967 -4.21747 0
M  V30 16764 C 1593.34 -0.542786 -5.23393 0
M  V30 16765 O 1592.36 -1.20512 -5.56296 0
M  V30 16766 N 1593.56 0.681466 -5.76486 0
M  V30 16767 H 1596.33 -1.70294 -2.46617 0
M  V30 16768 H 1593.89 -1.03596 -1.24417 0
M  V30 16769 H 1595.88 0.281703 -4.03718 0
M  V30 16770 H 1594.45 0.67811 -3.05156 0
M  V30 16771 H 1593.67 -1.76182 -3.52638 0
M  V30 16772 H 1594.96 -1.84623 -4.74122 0
M  V30 16773 H 1594.36 1.23819 -5.51983 0
M  V30 16774 H 1592.91 1.04914 -6.43301 0
M  V30 16775 N 1596.35 1.26749 -0.936613 0
M  V30 16776 C 1597.28 2.2892 -0.460213 0
M  V30 16777 C 1598.26 1.63065 0.484135 0
M  V30 16778 O 1599.44 1.90305 0.386973 0
M  V30 16779 C 1596.57 3.46172 0.279648 0
M  V30 16780 C 1595.53 4.24083 -0.57771 0
M  V30 16781 C 1594.85 5.33903 0.291843 0
M  V30 16782 C 1596.15 4.88562 -1.84673 0
M  V30 16783 H 1597.85 2.69019 -1.31412 0
M  V30 16784 H 1595.39 1.29325 -0.633333 0
M  V30 16785 H 1597.35 4.16755 0.623931 0
M  V30 16786 H 1596.07 3.05014 1.16765 0
M  V30 16787 H 1594.73 3.55258 -0.904824 0
M  V30 16788 H 1594.38 4.88986 1.17906 0
M  V30 16789 H 1594.08 5.8694 -0.278372 0
M  V30 16790 H 1595.6 6.07326 0.631498 0
M  V30 16791 H 1597.02 5.51384 -1.56997 0
M  V30 16792 H 1595.41 5.51697 -2.36115 0
M  V30 16793 H 1596.48 4.11761 -2.56088 0
M  V30 16794 N 1597.83 0.703118 1.41046 0
M  V30 16795 C 1598.77 0.0312802 2.32579 0
M  V30 16796 C 1599.77 -0.760463 1.51371 0
M  V30 16797 O 1600.97 -0.665235 1.67256 0
M  V30 16798 H 1597.35 -0.00868655 0.75195 0
M  V30 16799 H 1599.32 0.820195 2.86907 0
M  V30 16800 C 1598.07 -0.885639 3.36232 0
M  V30 16801 H 1597.39 -0.285819 3.98777 0
M  V30 16802 H 1598.83 -1.3239 4.02801 0
M  V30 16803 C 1597.29 -2.00533 2.70718 0
M  V30 16804 O 1597.82 -3.09491 2.56082 0
M  V30 16805 N 1596.03 -1.78528 2.29295 0
M  V30 16806 H 1595.57 -0.899139 2.41399 0
M  V30 16807 H 1595.53 -2.53627 1.85797 0
M  V30 16808 N 1599.3 -1.51086 0.448402 0
M  V30 16809 C 1600.53 -2.06293 -0.112531 0
M  V30 16810 C 1600.94 -1.31478 -1.36052 0
M  V30 16811 O 1600.29 -0.370897 -1.79917 0
M  V30 16812 C 1600.35 -3.56156 -0.489178 0
M  V30 16813 C 1600.01 -4.52302 0.653568 0
M  V30 16814 C 1601.01 -4.96909 1.52898 0
M  V30 16815 C 1598.69 -4.9527 0.837448 0
M  V30 16816 C 1600.69 -5.83165 2.57288 0
M  V30 16817 C 1598.37 -5.81314 1.8846 0
M  V30 16818 C 1599.37 -6.25161 2.75069 0
M  V30 16819 O 1599.06 -7.09495 3.77985 0
M  V30 16820 H 1598.79 -0.67597 -0.00641865 0
M  V30 16821 H 1601.35 -1.95515 0.629533 0
M  V30 16822 H 1599.58 -3.64757 -1.28411 0
M  V30 16823 H 1601.27 -3.93828 -0.982548 0
M  V30 16824 H 1602.03 -4.64399 1.3985 0
M  V30 16825 H 1597.91 -4.60676 0.172857 0
M  V30 16826 H 1601.45 -6.1731 3.24921 0
M  V30 16827 H 1597.35 -6.13236 2.01523 0
M  V30 16828 H 1598.12 -7.27697 3.74699 0
M  V30 16829 N 1600.78 -0.180154 -1.56567 0
M  V30 16830 C 1602.03 0.462656 -1.96322 0
M  V30 16831 C 1602.34 1.63788 -1.06925 0
M  V30 16832 O 1603.55 2.34751 -1.36398 0
M  V30 16833 C 1602.01 0.874492 -3.49114 0
M  V30 16834 C 1601.61 -0.27562 -4.47151 0
M  V30 16835 C 1603.36 1.48522 -3.9767 0
M  V30 16836 C 1601.27 0.156341 -5.91193 0
M  V30 16837 H 1600.2 0.176619 -0.733022 0
M  V30 16838 H 1602.85 -0.269793 -1.81506 0
M  V30 16839 H 1601.23 1.66318 -3.59381 0
M  V30 16840 H 1602.4 -1.05304 -4.48606 0
M  V30 16841 H 1600.72 -0.796878 -4.08704 0
M  V30 16842 H 1603.31 1.8206 -5.02751 0
M  V30 16843 H 1603.66 2.38634 -3.41115 0
M  V30 16844 H 1604.19 0.760806 -3.90457 0
M  V30 16845 H 1600.93 -0.710221 -6.51641 0
M  V30 16846 H 1600.45 0.898933 -5.93025 0
M  V30 16847 H 1602.13 0.597228 -6.44238 0
M  V30 16848 N 1602.26 1.57322 0.0935319 0
M  V30 16849 C 1603.21 1.98608 1.11977 0
M  V30 16850 C 1604.19 0.864762 1.35686 0
M  V30 16851 O 1605.39 1.1286 1.36351 0
M  V30 16852 C 1602.52 2.41537 2.43957 0
M  V30 16853 C 1601.6 3.60357 2.23615 0
M  V30 16854 N 1601.99 4.75242 1.73144 0
M  V30 16855 C 1600.29 3.66485 2.54175 0
M  V30 16856 C 1600.99 5.5718 1.67109 0
M  V30 16857 N 1599.97 5.00396 2.1238 0
M  V30 16858 H 1603.77 2.84881 0.722513 0
M  V30 16859 H 1601.28 1.59587 0.300936 0
M  V30 16860 H 1603.28 2.69343 3.18213 0
M  V30 16861 H 1601.94 1.56641 2.84418 0
M  V30 16862 H 1602.95 4.97961 1.42319 0
M  V30 16863 H 1599.63 2.92255 2.9815 0
M  V30 16864 H 1601.02 6.59376 1.29125 0
M  V30 16865 N 1603.74 -0.364395 1.53329 0
M  V30 16866 C 1604.69 -1.44645 1.79851 0
M  V30 16867 C 1605.66 -1.53151 0.642951 0
M  V30 16868 O 1606.84 -1.6902 0.885252 0
M  V30 16869 C 1603.98 -2.81575 1.99523 0
M  V30 16870 C 1603.09 -2.82026 3.27239 0
M  V30 16871 C 1602.23 -4.1054 3.37091 0
M  V30 16872 C 1601.27 -4.05138 4.58835 0
M  V30 16873 N 1600.4 -5.25303 4.65834 0
M  V30 16874 H 1605.24 -1.21329 2.72182 0
M  V30 16875 H 1602.78 -0.588143 1.34831 0
M  V30 16876 H 1604.74 -3.61124 2.08915 0
M  V30 16877 H 1603.37 -3.03288 1.10527 0
M  V30 16878 H 1602.42 -1.94704 3.26794 0
M  V30 16879 H 1603.73 -2.73907 4.16865 0
M  V30 16880 H 1602.89 -4.98504 3.45801 0
M  V30 16881 H 1601.63 -4.21413 2.45483 0
M  V30 16882 H 1600.63 -3.1556 4.50224 0
M  V30 16883 H 1601.86 -3.95866 5.51785 0
M  V30 16884 H 1599.8 -5.36759 3.77128 0
M  V30 16885 H 1599.72 -5.19358 5.49367 0
M  V30 16886 H 1600.99 -6.15096 4.78829 0
M  V30 16887 N 1605.22 -1.44709 -0.62426 0
M  V30 16888 C 1606.13 -1.54608 -1.76447 0
M  V30 16889 C 1607.14 -0.43137 -1.68568 0
M  V30 16890 O 1608.32 -0.6897 -1.89222 0
M  V30 16891 C 1605.38 -1.49404 -3.12857 0
M  V30 16892 C 1604.44 -2.71782 -3.32315 0
M  V30 16893 C 1603.68 -2.66817 -4.62217 0
M  V30 16894 O 1603.9 -1.73205 -5.43467 0
M  V30 16895 O 1602.83 -3.57773 -4.84027 0
M  V30 16896 H 1606.66 -2.50951 -1.71048 0
M  V30 16897 H 1604.25 -1.27033 -0.786326 0
M  V30 16898 H 1606.13 -1.4905 -3.9416 0
M  V30 16899 H 1604.8 -0.562078 -3.18783 0
M  V30 16900 H 1603.71 -2.77702 -2.50664 0
M  V30 16901 H 1605.04 -3.64048 -3.31255 0
M  V30 16902 N 1606.69 0.865285 -1.31722 0
M  V30 16903 C 1607.92 1.65661 -1.24785 0
M  V30 16904 C 1608.34 1.87208 0.182952 0
M  V30 16905 O 1607.7 1.41721 1.1307 0
M  V30 16906 C 1607.75 2.99921 -2.00199 0
M  V30 16907 O 1606.85 3.89936 -1.34253 0
M  V30 16908 H 1606.2 0.505459 -0.430589 0
M  V30 16909 H 1608.73 1.0785 -1.73867 0
M  V30 16910 H 1608.74 3.49823 -2.09971 0
M  V30 16911 H 1607.41 2.83559 -3.04249 0
M  V30 16912 H 1605.99 3.4839 -1.32961 0
M  V30 16913 N 1608.17 1.14759 1.0802 0
M  V30 16914 C 1609.45 0.828957 1.77166 0
M  V30 16915 C 1609.83 -0.676783 1.99957 0
M  V30 16916 O 1609.18 -1.61891 1.61256 0
M  V30 16917 C 1609.39 1.63213 3.08484 0
M  V30 16918 C 1610.74 1.834 3.82948 0
M  V30 16919 O 1611.76 1.59932 3.18277 0
M  V30 16920 O 1610.62 2.22661 4.99083 0
M  V30 16921 H 1607.71 0.304168 0.769032 0
M  V30 16922 H 1610.26 1.253 1.14446 0
M  V30 16923 H 1609.03 2.65474 2.8747 0
M  V30 16924 H 1608.65 1.20397 3.78933 0
M  V30 16925 N 1609.65 -1.26251 0.943322 0
M  V30 16926 C 1610.88 -1.98278 0.608341 0
M  V30 16927 C 1611.3 -1.69756 -0.810208 0
M  V30 16928 O 1610.66 -0.946846 -1.54611 0
M  V30 16929 C 1610.71 -3.50205 0.859591 0
M  V30 16930 O 1609.81 -4.12345 -0.0672371 0
M  V30 16931 H 1609.15 -0.621973 0.232477 0
M  V30 16932 H 1611.68 -1.60662 1.26684 0
M  V30 16933 H 1611.69 -4.00449 0.781341 0
M  V30 16934 H 1610.37 -3.70294 1.89354 0
M  V30 16935 H 1608.94 -3.72848 0.0622543 0
M  V30 16936 N 1611.13 -0.710588 -1.40671 0
M  V30 16937 C 1612.38 -0.257123 -2.01768 0
M  V30 16938 C 1612.73 1.13545 -1.55323 0
M  V30 16939 O 1612.02 1.75831 -0.761183 0
M  V30 16940 C 1612.22 -0.270478 -3.56375 0
M  V30 16941 C 1612.05 -1.66282 -4.17828 0
M  V30 16942 C 1610.82 -2.26928 -4.51478 0
M  V30 16943 C 1613.01 -2.61216 -4.43025 0
M  V30 16944 N 1611 -3.58569 -4.98298 0
M  V30 16945 C 1612.37 -3.77557 -4.91783 0
M  V30 16946 C 1614.42 -2.59291 -4.25056 0
M  V30 16947 C 1613.13 -4.92274 -5.24461 0
M  V30 16948 C 1615.15 -3.73132 -4.58831 0
M  V30 16949 C 1614.51 -4.88205 -5.07775 0
M  V30 16950 H 1610.61 -0.13981 -0.7694 0
M  V30 16951 H 1613.2 -0.931308 -1.70982 0
M  V30 16952 H 1611.37 0.373251 -3.86602 0
M  V30 16953 H 1613.1 0.199227 -4.04209 0
M  V30 16954 H 1609.85 -1.79072 -4.38441 0
M  V30 16955 H 1610.28 -4.26088 -5.26097 0
M  V30 16956 H 1614.92 -1.71533 -3.86441 0
M  V30 16957 H 1612.64 -5.80681 -5.61992 0
M  V30 16958 H 1616.22 -3.72912 -4.46573 0
M  V30 16959 H 1615.1 -5.74835 -5.33418 0
M  V30 16960 N 1612.61 1.50847 -0.456408 0
M  V30 16961 C 1613.54 2.31077 0.335523 0
M  V30 16962 C 1614.52 1.37326 1.00377 0
M  V30 16963 O 1615.7 1.66247 1.00376 0
M  V30 16964 C 1612.83 3.16662 1.42627 0
M  V30 16965 C 1611.79 4.18846 0.88045 0
M  V30 16966 C 1611.11 4.93074 2.06838 0
M  V30 16967 C 1612.41 5.22208 -0.0982288 0
M  V30 16968 H 1614.11 2.97531 -0.334056 0
M  V30 16969 H 1611.65 1.43085 -0.162099 0
M  V30 16970 H 1613.61 3.71578 1.98765 0
M  V30 16971 H 1612.33 2.48066 2.12441 0
M  V30 16972 H 1610.99 3.65009 0.341147 0
M  V30 16973 H 1610.64 4.20963 2.75316 0
M  V30 16974 H 1610.34 5.62184 1.70947 0
M  V30 16975 H 1611.86 5.5082 2.63494 0
M  V30 16976 H 1613.28 5.72082 0.373481 0
M  V30 16977 H 1611.67 5.98954 -0.370674 0
M  V30 16978 H 1612.74 4.73859 -1.02887 0
M  V30 16979 N 1614.09 0.188454 1.56469 0
M  V30 16980 C 1615.03 -0.735074 2.18781 0
M  V30 16981 C 1616 -1.21459 1.133 0
M  V30 16982 O 1617.19 -1.27967 1.41524 0
M  V30 16983 C 1614.33 -1.95181 2.84602 0
M  V30 16984 C 1613.44 -1.51428 4.0459 0
M  V30 16985 C 1612.58 -2.68601 4.58287 0
M  V30 16986 C 1611.61 -2.21422 5.70648 0
M  V30 16987 N 1610.75 -3.31749 6.18779 0
M  V30 16988 H 1615.59 -0.19694 2.97349 0
M  V30 16989 H 1613.13 -0.0854693 1.46851 0
M  V30 16990 H 1615.09 -2.66571 3.2093 0
M  V30 16991 H 1613.72 -2.46337 2.0861 0
M  V30 16992 H 1612.77 -0.6965 3.73969 0
M  V30 16993 H 1614.08 -1.1281 4.85876 0
M  V30 16994 H 1613.23 -3.48123 4.96885 0
M  V30 16995 H 1611.97 -3.1049 3.76095 0
M  V30 16996 H 1610.98 -1.40352 5.31584 0
M  V30 16997 H 1612.2 -1.80572 6.54653 0
M  V30 16998 H 1610.15 -3.73181 5.39511 0
M  V30 16999 H 1610.07 -2.97277 6.95099 0
M  V30 17000 H 1611.33 -4.11504 6.62031 0
M  V30 17001 N 1615.56 -1.5737 -0.0851874 0
M  V30 17002 C 1616.51 -2.02758 -1.10262 0
M  V30 17003 C 1617.48 -0.905702 -1.39235 0
M  V30 17004 O 1618.67 -1.17241 -1.50529 0
M  V30 17005 C 1615.81 -2.46528 -2.41492 0
M  V30 17006 C 1614.92 -3.72278 -2.19165 0
M  V30 17007 C 1614.05 -4.04885 -3.43863 0
M  V30 17008 C 1613.09 -5.23715 -3.16842 0
M  V30 17009 N 1612.23 -5.52026 -4.33833 0
M  V30 17010 H 1617.07 -2.89453 -0.708583 0
M  V30 17011 H 1614.61 -1.43156 -0.338332 0
M  V30 17012 H 1616.56 -2.69952 -3.18091 0
M  V30 17013 H 1615.19 -1.62829 -2.78723 0
M  V30 17014 H 1614.25 -3.56272 -1.33321 0
M  V30 17015 H 1615.56 -4.5902 -1.95197 0
M  V30 17016 H 1614.71 -4.29138 -4.28865 0
M  V30 17017 H 1613.45 -3.16683 -3.70895 0
M  V30 17018 H 1612.46 -4.99272 -2.30234 0
M  V30 17019 H 1613.68 -6.13523 -2.91146 0
M  V30 17020 H 1611.63 -4.66784 -4.60922 0
M  V30 17021 H 1611.54 -6.3316 -4.13091 0
M  V30 17022 H 1612.81 -5.80822 -5.19871 0
M  V30 17023 N 1617.04 0.356258 -1.53521 0
M  V30 17024 C 1618.29 1.0979 -1.70154 0
M  V30 17025 C 1618.62 1.89028 -0.458124 0
M  V30 17026 O 1617.87 1.87516 0.560033 0
M  V30 17027 C 1618.17 2.07669 -2.90875 0
M  V30 17028 C 1617.84 1.4484 -4.27004 0
M  V30 17029 C 1616.5 1.27434 -4.64019 0
M  V30 17030 C 1618.85 0.994684 -5.1162 0
M  V30 17031 C 1616.18 0.632539 -5.8328 0
M  V30 17032 C 1618.53 0.366847 -6.31535 0
M  V30 17033 C 1617.19 0.180356 -6.67256 0
M  V30 17034 H 1616.46 0.401751 -0.622637 0
M  V30 17035 H 1619.11 0.378618 -1.8772 0
M  V30 17036 H 1617.42 2.85934 -2.6786 0
M  V30 17037 H 1619.11 2.65023 -3.00939 0
M  V30 17038 H 1615.7 1.59384 -3.97863 0
M  V30 17039 H 1619.89 1.11706 -4.83565 0
M  V30 17040 H 1615.14 0.476548 -6.0954 0
M  V30 17041 H 1619.32 0.00712378 -6.964 0
M  V30 17042 H 1616.94 -0.319016 -7.5953 0
M  V30 17043 N 1618.52 1.45038 0.616577 0
M  V30 17044 C 1619.75 1.52094 1.40267 0
M  V30 17045 C 1620.16 0.150558 1.88199 0
M  V30 17046 O 1619.52 -0.846258 1.61693 0
M  V30 17047 C 1619.57 2.49786 2.61322 0
M  V30 17048 O 1619.29 3.81498 2.15385 0
M  V30 17049 C 1620.79 2.66451 3.54286 0
M  V30 17050 H 1618.01 0.515378 0.429681 0
M  V30 17051 H 1620.56 1.90141 0.752768 0
M  V30 17052 H 1618.71 2.14835 3.22373 0
M  V30 17053 H 1619.13 4.34374 2.93972 0
M  V30 17054 H 1620.6 3.38802 4.35795 0
M  V30 17055 H 1621.08 1.72177 4.04044 0
M  V30 17056 H 1621.68 3.02362 2.99095 0
M  V30 17057 N 1620 -0.858287 1.32179 0
M  V30 17058 C 1620.91 -1.99894 1.228 0
M  V30 17059 C 1621.92 -1.73417 0.142323 0
M  V30 17060 O 1623.1 -1.98114 0.362321 0
M  V30 17061 C 1620.16 -3.33495 0.947745 0
M  V30 17062 C 1619.23 -3.73217 2.12149 0
M  V30 17063 C 1618.46 -5.00443 1.85452 0
M  V30 17064 O 1618.68 -5.64828 0.79531 0
M  V30 17065 O 1617.62 -5.3721 2.71457 0
M  V30 17066 H 1621.44 -2.10742 2.18682 0
M  V30 17067 H 1619.03 -0.988385 1.12033 0
M  V30 17068 H 1620.91 -4.13585 0.807791 0
M  V30 17069 H 1619.58 -3.23694 0.019053 0
M  V30 17070 H 1618.49 -2.93718 2.3169 0
M  V30 17071 H 1619.82 -3.87659 3.03285 0
M  V30 17072 N 1621.48 -1.1533 -1.07409 0
M  V30 17073 C 1622.44 -0.852155 -2.1277 0
M  V30 17074 C 1623.44 0.14782 -1.60119 0
M  V30 17075 O 1624.63 -0.0817436 -1.74008 0
M  V30 17076 C 1621.76 -0.272233 -3.39811 0
M  V30 17077 H 1622.95 -1.78604 -2.40917 0
M  V30 17078 H 1620.51 -0.960698 -1.23289 0
M  V30 17079 H 1621.24 0.669873 -3.17306 0
M  V30 17080 H 1621.03 -0.992629 -3.79327 0
M  V30 17081 H 1622.52 -0.0790986 -4.17525 0
M  V30 17082 N 1622.95 1.25748 -0.950004 0
M  V30 17083 C 1624.19 1.95089 -0.609896 0
M  V30 17084 C 1624.56 1.72802 0.836865 0
M  V30 17085 O 1625.76 2.36023 1.28634 0
M  V30 17086 C 1624.03 3.44452 -0.953294 0
M  V30 17087 S 1625.59 4.32768 -0.725062 0
M  V30 17088 H 1622.41 0.674683 -0.224331 0
M  V30 17089 H 1625.01 1.52506 -1.2232 0
M  V30 17090 H 1623.71 3.58175 -2.00347 0
M  V30 17091 H 1623.24 3.92013 -0.330062 0
M  V30 17092 H 1625.26 4.94533 0.406435 0
M  V30 17093 N 1624.43 0.718038 1.40292 0
M  V30 17094 C 1625.38 0.0559466 2.32533 0
M  V30 17095 C 1626.37 -0.744365 1.5217 0
M  V30 17096 O 1627.58 -0.647458 1.67952 0
M  V30 17097 H 1623.95 -0.000710627 0.752 0
M  V30 17098 H 1625.93 0.850579 2.8602 0
M  V30 17099 C 1624.67 -0.849927 3.37152 0
M  V30 17100 H 1624 -0.243507 3.99058 0
M  V30 17101 H 1625.44 -1.28111 4.04183 0
M  V30 17102 C 1623.9 -1.9765 2.7283 0
M  V30 17103 O 1624.43 -3.06757 2.59351 0
M  V30 17104 N 1622.63 -1.76086 2.31176 0
M  V30 17105 H 1622.18 -0.873485 2.42339 0
M  V30 17106 H 1622.14 -2.51643 1.88477 0
M  V30 17107 N 1625.91 -1.50602 0.464402 0
M  V30 17108 C 1626.87 -2.26929 -0.32185 0
M  V30 17109 C 1627.87 -1.3144 -0.926289 0
M  V30 17110 O 1629.06 -1.54924 -0.796511 0
M  V30 17111 C 1626.2 -3.08155 -1.45785 0
M  V30 17112 H 1627.39 -2.97881 0.347436 0
M  V30 17113 H 1624.94 -1.54768 0.218278 0
M  V30 17114 H 1625.68 -2.41684 -2.16239 0
M  V30 17115 H 1625.46 -3.78321 -1.03031 0
M  V30 17116 H 1626.95 -3.65899 -2.01266 0
M  V30 17117 N 1627.39 -0.19675 -1.56367 0
M  V30 17118 C 1628.35 0.709734 -2.17934 0
M  V30 17119 C 1629.35 1.13979 -1.13426 0
M  V30 17120 O 1630.54 1.05261 -1.38801 0
M  V30 17121 C 1627.67 1.96917 -2.78274 0
M  V30 17122 H 1628.87 0.173342 -2.99399 0
M  V30 17123 H 1626.42 0.0528698 -1.56211 0
M  V30 17124 H 1627.15 2.54804 -2.00613 0
M  V30 17125 H 1626.94 1.66951 -3.54781 0
M  V30 17126 H 1628.43 2.61554 -3.25545 0
M  V30 17127 N 1628.87 1.57413 0.0768405 0
M  V30 17128 C 1630.28 1.53656 0.431508 0
M  V30 17129 C 1630.48 0.916194 1.79466 0
M  V30 17130 O 1629.54 0.516529 2.4716 0
M  V30 17131 C 1630.85 2.98325 0.377212 0
M  V30 17132 C 1632.4 3.09635 0.457761 0
M  V30 17133 C 1632.87 4.55945 0.433425 0
M  V30 17134 N 1634.37 4.60562 0.493647 0
M  V30 17135 C 1635.1 5.71242 0.496949 0
M  V30 17136 N 1634.6 6.91302 0.455368 0
M  V30 17137 N 1636.39 5.5947 0.543129 0
M  V30 17138 H 1628.54 1.96108 -0.815811 0
M  V30 17139 H 1630.8 0.897392 -0.3056 0
M  V30 17140 H 1630.51 3.47251 -0.557628 0
M  V30 17141 H 1630.38 3.57959 1.18932 0
M  V30 17142 H 1632.77 2.60685 1.38302 0
M  V30 17143 H 1632.85 2.52919 -0.382829 0
M  V30 17144 H 1632.5 5.0555 -0.487968 0
M  V30 17145 H 1632.43 5.10518 1.29148 0
M  V30 17146 H 1634.92 3.74162 0.530237 0
M  V30 17147 H 1635.23 7.7142 0.461674 0
M  V30 17148 H 1633.57 6.93717 0.422133 0
M  V30 17149 H 1636.77 4.64576 0.573272 0
M  V30 17150 H 1636.94 6.45727 0.542234 0
M  V30 17151 N 1630.34 -0.348112 1.53707 0
M  V30 17152 C 1631.59 -1.08671 1.70396 0
M  V30 17153 C 1631.91 -1.89314 0.467453 0
M  V30 17154 O 1631.18 -1.88911 -0.518605 0
M  V30 17155 H 1629.76 -0.404186 0.628206 0
M  V30 17156 H 1632.43 -0.390491 1.90948 0
M  V30 17157 H 1631.52 -1.76668 2.57284 0
M  V30 17158 N 1631.82 -1.45363 -0.608876 0
M  V30 17159 C 1632.75 -1.56778 -1.7304 0
M  V30 17160 C 1633.73 -0.419405 -1.64848 0
M  V30 17161 O 1634.92 -0.64238 -1.83268 0
M  V30 17162 C 1632.05 -1.5329 -3.1164 0
M  V30 17163 C 1631 -2.66832 -3.34641 0
M  V30 17164 C 1630.33 -2.48398 -4.735 0
M  V30 17165 C 1631.63 -4.0885 -3.25021 0
M  V30 17166 H 1633.32 -2.50656 -1.63743 0
M  V30 17167 H 1630.87 -1.20635 -0.786338 0
M  V30 17168 H 1632.82 -1.59873 -3.89895 0
M  V30 17169 H 1631.55 -0.559414 -3.21773 0
M  V30 17170 H 1630.2 -2.59675 -2.58775 0
M  V30 17171 H 1629.85 -1.49191 -4.80366 0
M  V30 17172 H 1629.55 -3.24537 -4.89846 0
M  V30 17173 H 1631.08 -2.56833 -5.53958 0
M  V30 17174 H 1632.49 -4.17257 -3.93153 0
M  V30 17175 H 1630.89 -4.85369 -3.52897 0
M  V30 17176 H 1631.96 -4.30849 -2.2248 0
M  V30 17177 N 1633.3 0.851265 -1.32632 0
M  V30 17178 C 1634.21 1.99239 -1.23858 0
M  V30 17179 C 1635.23 1.73339 -0.151517 0
M  V30 17180 O 1636.4 1.97919 -0.372822 0
M  V30 17181 C 1633.47 3.32987 -0.965417 0
M  V30 17182 C 1632.53 3.72087 -2.14126 0
M  V30 17183 C 1631.76 4.99453 -1.88103 0
M  V30 17184 O 1631.98 5.64399 -0.825253 0
M  V30 17185 O 1630.92 5.35763 -2.74302 0
M  V30 17186 H 1634.74 2.09579 -2.19796 0
M  V30 17187 H 1632.33 0.98243 -1.12555 0
M  V30 17188 H 1634.21 4.13151 -0.829713 0
M  V30 17189 H 1632.89 3.2368 -0.036219 0
M  V30 17190 H 1631.79 2.92485 -2.33245 0
M  V30 17191 H 1633.13 3.86045 -3.05336 0
M  V30 17192 N 1634.78 1.15898 1.06796 0
M  V30 17193 C 1636.02 0.94871 1.7992 0
M  V30 17194 C 1636.38 -0.518297 1.85287 0
M  V30 17195 O 1635.67 -1.37946 1.32972 0
M  V30 17196 C 1635.87 1.50368 3.24229 0
M  V30 17197 C 1635.7 3.02311 3.32923 0
M  V30 17198 C 1634.47 3.70908 3.43155 0
M  V30 17199 C 1636.66 4.00051 3.23209 0
M  V30 17200 N 1634.65 5.10609 3.4081 0
M  V30 17201 C 1636.02 5.26103 3.28048 0
M  V30 17202 C 1638.07 3.91944 3.07058 0
M  V30 17203 C 1636.77 6.44993 3.18397 0
M  V30 17204 C 1638.8 5.10398 2.98743 0
M  V30 17205 C 1638.16 6.35328 3.042 0
M  V30 17206 H 1634.26 0.400877 0.671433 0
M  V30 17207 H 1636.85 1.47202 1.27436 0
M  V30 17208 H 1635.02 1.00693 3.75121 0
M  V30 17209 H 1636.75 1.23166 3.85502 0
M  V30 17210 H 1633.5 3.21521 3.47737 0
M  V30 17211 H 1633.93 5.83589 3.43151 0
M  V30 17212 H 1638.57 2.96216 3.01688 0
M  V30 17213 H 1636.29 7.40948 3.22524 0
M  V30 17214 H 1639.87 5.05891 2.87342 0
M  V30 17215 H 1638.75 7.25448 2.97818 0
M  V30 17216 N 1636.26 -1.25243 0.956659 0
M  V30 17217 C 1637.51 -1.92312 0.608196 0
M  V30 17218 C 1637.82 -1.75726 -0.859058 0
M  V30 17219 O 1639.02 -2.37386 -1.31757 0
M  V30 17220 C 1637.48 -3.44634 1.03708 0
M  V30 17221 C 1637.09 -3.69927 2.52702 0
M  V30 17222 C 1638.83 -4.17619 0.761242 0
M  V30 17223 C 1636.74 -5.15765 2.8938 0
M  V30 17224 H 1635.67 -0.720033 0.22376 0
M  V30 17225 H 1638.32 -1.42071 1.16138 0
M  V30 17226 H 1636.7 -3.93848 0.412287 0
M  V30 17227 H 1637.88 -3.31357 3.20217 0
M  V30 17228 H 1636.19 -3.10207 2.77778 0
M  V30 17229 H 1638.79 -5.25047 1.01141 0
M  V30 17230 H 1639.13 -4.152 -0.302375 0
M  V30 17231 H 1639.66 -3.74319 1.34648 0
M  V30 17232 H 1636.4 -5.23296 3.94767 0
M  V30 17233 H 1635.92 -5.55374 2.26539 0
M  V30 17234 H 1637.6 -5.83905 2.78683 0
M  V30 17235 N 1637.73 -0.725468 -1.3991 0
M  V30 17236 C 1638.98 -0.268719 -2.00306 0
M  V30 17237 C 1639.3 1.14511 -1.57836 0
M  V30 17238 O 1638.57 1.77808 -0.822263 0
M  V30 17239 H 1637.15 -0.0963614 -0.740759 0
M  V30 17240 H 1639.82 -0.933303 -1.71101 0
M  V30 17241 H 1638.91 -0.309587 -3.10561 0
M  V30 17242 N 1639.21 1.50354 -0.472382 0
M  V30 17243 C 1640.16 2.30173 0.335135 0
M  V30 17244 C 1641.15 1.37517 0.98921 0
M  V30 17245 O 1642.36 1.54703 0.920168 0
M  V30 17246 H 1638.74 0.741212 0.126918 0
M  V30 17247 H 1640.71 2.96239 -0.358449 0
M  V30 17248 C 1639.46 3.18104 1.40375 0
M  V30 17249 H 1638.78 3.8931 0.90984 0
M  V30 17250 H 1640.22 3.76947 1.94132 0
M  V30 17251 C 1638.68 2.35785 2.40639 0
M  V30 17252 O 1639.21 2.04185 3.45936 0
M  V30 17253 N 1637.41 1.98342 2.12389 0
M  V30 17254 H 1636.96 2.2424 1.26784 0
M  V30 17255 H 1636.92 1.43567 2.79707 0
M  V30 17256 N 1640.69 0.205039 1.56261 0
M  V30 17257 C 1641.64 -0.711828 2.19549 0
M  V30 17258 C 1642.61 -1.2025 1.14582 0
M  V30 17259 O 1643.79 -1.26459 1.42873 0
M  V30 17260 C 1640.93 -1.92152 2.86656 0
M  V30 17261 C 1640.05 -1.47129 4.06174 0
M  V30 17262 C 1639.18 -2.63726 4.6111 0
M  V30 17263 C 1638.22 -2.15357 5.72964 0
M  V30 17264 N 1637.36 -3.25167 6.22263 0
M  V30 17265 H 1642.2 -0.165392 2.97541 0
M  V30 17266 H 1639.73 -0.0698889 1.46934 0
M  V30 17267 H 1641.69 -2.63152 3.23739 0
M  V30 17268 H 1640.32 -2.4411 2.11211 0
M  V30 17269 H 1639.37 -0.656797 3.74687 0
M  V30 17270 H 1640.69 -1.0765 4.87045 0
M  V30 17271 H 1639.84 -3.42833 5.0055 0
M  V30 17272 H 1638.58 -3.06484 3.79367 0
M  V30 17273 H 1637.58 -1.34706 5.33043 0
M  V30 17274 H 1638.81 -1.73618 6.56532 0
M  V30 17275 H 1636.76 -3.67438 5.43439 0
M  V30 17276 H 1636.67 -2.89888 6.98213 0
M  V30 17277 H 1637.94 -4.0446 6.66358 0
M  V30 17278 N 1642.17 -1.57451 -0.0684915 0
M  V30 17279 C 1643.42 -1.86595 -0.765856 0
M  V30 17280 C 1643.73 -0.798157 -1.78574 0
M  V30 17281 O 1644.94 -0.977541 -2.53291 0
M  V30 17282 C 1643.39 -3.31001 -1.41302 0
M  V30 17283 C 1643 -4.45917 -0.431528 0
M  V30 17284 C 1644.75 -3.6934 -2.09256 0
M  V30 17285 C 1642.65 -5.81366 -1.08479 0
M  V30 17286 H 1641.58 -0.696092 -0.289778 0
M  V30 17287 H 1644.23 -1.8349 -0.0192171 0
M  V30 17288 H 1642.62 -3.28728 -2.20803 0
M  V30 17289 H 1643.79 -4.59589 0.333913 0
M  V30 17290 H 1642.1 -4.16152 0.143743 0
M  V30 17291 H 1644.7 -4.67833 -2.58913 0
M  V30 17292 H 1645.04 -2.99308 -2.89344 0
M  V30 17293 H 1645.58 -3.73618 -1.36581 0
M  V30 17294 H 1642.32 -6.54698 -0.324162 0
M  V30 17295 H 1641.84 -5.71488 -1.82102 0
M  V30 17296 H 1643.52 -6.26811 -1.60367 0
M  V30 17297 N 1643.65 0.339955 -1.5389 0
M  V30 17298 C 1644.87 1.10417 -1.75564 0
M  V30 17299 C 1645.3 1.81466 -0.495156 0
M  V30 17300 O 1644.66 1.72679 0.552415 0
M  V30 17301 C 1644.7 2.09056 -2.93816 0
M  V30 17302 O 1643.81 3.16645 -2.64215 0
M  V30 17303 H 1643.15 0.319164 -0.582263 0
M  V30 17304 H 1645.68 0.389251 -2.00863 0
M  V30 17305 H 1645.69 2.52215 -3.20705 0
M  V30 17306 H 1644.36 1.56741 -3.85234 0
M  V30 17307 H 1642.94 2.78278 -2.48225 0
M  V30 17308 N 1645.13 1.45684 0.601159 0
M  V30 17309 C 1646.07 1.54846 1.71147 0
M  V30 17310 C 1647.04 0.393914 1.61361 0
M  V30 17311 O 1648.23 0.608222 1.80846 0
M  V30 17312 C 1645.37 1.52723 3.09467 0
M  V30 17313 C 1644.48 2.78776 3.30012 0
M  V30 17314 C 1643.62 2.68281 4.58474 0
M  V30 17315 C 1642.65 3.89358 4.72299 0
M  V30 17316 N 1641.79 3.77359 5.92068 0
M  V30 17317 H 1646.63 2.49696 1.62653 0
M  V30 17318 H 1644.17 1.23894 0.793006 0
M  V30 17319 H 1646.13 1.49479 3.89502 0
M  V30 17320 H 1644.76 0.614189 3.16903 0
M  V30 17321 H 1643.81 2.9208 2.43708 0
M  V30 17322 H 1645.12 3.68563 3.36099 0
M  V30 17323 H 1644.27 2.63039 5.46713 0
M  V30 17324 H 1643.01 1.76103 4.54795 0
M  V30 17325 H 1642.02 3.94952 3.82482 0
M  V30 17326 H 1643.24 4.82609 4.77771 0
M  V30 17327 H 1641.19 2.87955 5.89422 0
M  V30 17328 H 1641.11 4.60786 5.99343 0
M  V30 17329 H 1642.37 3.76061 6.82787 0
M  V30 17330 N 1646.6 -0.84422 1.33082 0
M  V30 17331 C 1647.85 -1.59912 1.24235 0
M  V30 17332 C 1648.18 -1.93538 -0.193223 0
M  V30 17333 O 1647.43 -1.58418 -1.14901 0
M  V30 17334 C 1647.73 -2.92225 2.05765 0
M  V30 17335 C 1647.4 -2.77985 3.55014 0
M  V30 17336 C 1646.06 -2.73809 3.95705 0
M  V30 17337 C 1648.41 -2.63171 4.49878 0
M  V30 17338 C 1645.74 -2.5271 5.29485 0
M  V30 17339 C 1648.09 -2.43607 5.83814 0
M  V30 17340 C 1646.76 -2.37829 6.23693 0
M  V30 17341 H 1646.03 -0.58516 0.454608 0
M  V30 17342 H 1648.67 -0.978493 1.64614 0
M  V30 17343 H 1646.98 -3.58465 1.58146 0
M  V30 17344 H 1648.68 -3.49678 1.96281 0
M  V30 17345 H 1645.27 -2.82065 3.22703 0
M  V30 17346 H 1649.45 -2.65435 4.19354 0
M  V30 17347 H 1644.71 -2.4668 5.59427 0
M  V30 17348 H 1648.88 -2.31126 6.56927 0
M  V30 17349 H 1646.51 -2.21241 7.27294 0
M  V30 17350 N 1648.08 -1.16463 -1.0618 0
M  V30 17351 C 1649.33 -0.941322 -1.78387 0
M  V30 17352 C 1649.64 0.531995 -1.88226 0
M  V30 17353 O 1650.85 0.873227 -2.57074 0
M  V30 17354 C 1649.31 -1.63491 -3.20623 0
M  V30 17355 C 1648.91 -3.14607 -3.18946 0
M  V30 17356 C 1650.66 -1.49361 -3.97356 0
M  V30 17357 C 1648.56 -3.76698 -4.55908 0
M  V30 17358 H 1647.49 -0.348549 -0.668603 0
M  V30 17359 H 1650.15 -1.39607 -1.19088 0
M  V30 17360 H 1648.53 -1.10787 -3.80187 0
M  V30 17361 H 1649.7 -3.74164 -2.68957 0
M  V30 17362 H 1648.02 -3.28634 -2.55712 0
M  V30 17363 H 1650.61 -1.93131 -4.98603 0
M  V30 17364 H 1650.96 -0.442724 -4.13939 0
M  V30 17365 H 1651.49 -1.99227 -3.44316 0
M  V30 17366 H 1648.23 -4.8174 -4.4453 0
M  V30 17367 H 1647.75 -3.21927 -5.06086 0
M  V30 17368 H 1649.43 -3.78321 -5.24864 0
M  V30 17369 N 1649.56 1.24734 -0.963288 0
M  V30 17370 C 1650.47 2.29268 -0.497316 0
M  V30 17371 C 1651.49 1.68356 0.439572 0
M  V30 17372 O 1652.66 1.98942 0.313697 0
M  V30 17373 C 1649.73 3.46068 0.209261 0
M  V30 17374 C 1648.79 4.22394 -0.766907 0
M  V30 17375 C 1648.02 5.33617 -0.0939542 0
M  V30 17376 O 1648.24 5.59323 1.11864 0
M  V30 17377 O 1647.18 5.96774 -0.78388 0
M  V30 17378 H 1651 2.71235 -1.36622 0
M  V30 17379 H 1648.59 1.30344 -0.730126 0
M  V30 17380 H 1650.47 4.17015 0.606367 0
M  V30 17381 H 1649.15 3.06087 1.0532 0
M  V30 17382 H 1648.05 3.53841 -1.21439 0
M  V30 17383 H 1649.39 4.66181 -1.57912 0
M  V30 17384 N 1651.04 0.732878 1.39523 0
M  V30 17385 C 1652.28 0.28919 2.01334 0
M  V30 17386 C 1652.64 -1.1106 1.5711 0
M  V30 17387 O 1651.93 -1.74598 0.78906 0
M  V30 17388 C 1652.13 0.32714 3.559 0
M  V30 17389 C 1651.95 1.72908 4.1513 0
M  V30 17390 C 1650.72 2.34081 4.4781 0
M  V30 17391 C 1652.92 2.68231 4.38813 0
M  V30 17392 N 1650.9 3.66452 4.92531 0
M  V30 17393 C 1652.28 3.85333 4.85715 0
M  V30 17394 C 1654.33 2.6602 4.20877 0
M  V30 17395 C 1653.03 5.00555 5.16563 0
M  V30 17396 C 1655.06 3.80385 4.52837 0
M  V30 17397 C 1654.42 4.96221 4.99944 0
M  V30 17398 H 1650.52 0.152033 0.767079 0
M  V30 17399 H 1653.1 0.958392 1.69478 0
M  V30 17400 H 1651.28 -0.311699 3.87147 0
M  V30 17401 H 1653.01 -0.134896 4.04475 0
M  V30 17402 H 1649.76 1.86025 4.35536 0
M  V30 17403 H 1650.19 4.34404 5.19251 0
M  V30 17404 H 1654.83 1.77659 3.83663 0
M  V30 17405 H 1652.55 5.89548 5.52683 0
M  V30 17406 H 1656.13 3.79969 4.40584 0
M  V30 17407 H 1655.01 5.83248 5.24205 0
M  V30 17408 N 1652.52 -1.50101 0.480349 0
M  V30 17409 C 1653.45 -2.25419 -0.355186 0
M  V30 17410 C 1654.43 -1.2912 -0.988276 0
M  V30 17411 O 1655.61 -1.58364 -1.02241 0
M  V30 17412 C 1652.74 -3.03751 -1.49844 0
M  V30 17413 C 1651.78 -4.15046 -0.981799 0
M  V30 17414 S 1652.62 -5.35385 0.110936 0
M  V30 17415 C 1653.77 -6.17267 -1.03597 0
M  V30 17416 H 1654.01 -2.95939 0.284135 0
M  V30 17417 H 1651.54 -1.52103 0.265352 0
M  V30 17418 H 1653.5 -3.49471 -2.15361 0
M  V30 17419 H 1652.16 -2.32739 -2.1093 0
M  V30 17420 H 1651.35 -4.69292 -1.83795 0
M  V30 17421 H 1650.95 -3.7181 -0.404184 0
M  V30 17422 H 1653.24 -6.48961 -1.94565 0
M  V30 17423 H 1654.19 -7.06094 -0.532569 0
M  V30 17424 H 1654.6 -5.49469 -1.29398 0
M  V30 17425 N 1653.99 -0.213323 -1.5615 0
M  V30 17426 C 1654.94 0.700175 -2.19923 0
M  V30 17427 C 1655.91 1.19641 -1.15218 0
M  V30 17428 O 1657.1 1.257 -1.43542 0
M  V30 17429 C 1654.24 1.90629 -2.87671 0
M  V30 17430 C 1653.35 1.44973 -4.06948 0
M  V30 17431 C 1652.48 2.61277 -4.62502 0
M  V30 17432 C 1651.52 2.12316 -5.74098 0
M  V30 17433 N 1650.66 3.21862 -6.23978 0
M  V30 17434 H 1655.5 0.14961 -2.97624 0
M  V30 17435 H 1653.04 0.0620957 -1.46969 0
M  V30 17436 H 1654.99 2.61431 -3.2513 0
M  V30 17437 H 1653.62 2.42987 -2.12502 0
M  V30 17438 H 1652.68 0.636917 -3.7503 0
M  V30 17439 H 1653.99 1.05065 -4.87609 0
M  V30 17440 H 1653.14 3.40174 -5.02361 0
M  V30 17441 H 1651.88 3.04468 -3.80987 0
M  V30 17442 H 1650.89 1.31877 -5.33749 0
M  V30 17443 H 1652.11 1.70134 -6.57443 0
M  V30 17444 H 1650.06 3.64551 -5.45379 0
M  V30 17445 H 1649.97 2.86181 -6.9974 0
M  V30 17446 H 1651.24 4.0092 -6.68493 0
M  V30 17447 N 1655.47 1.57485 0.0601405 0
M  V30 17448 C 1656.7 1.92438 0.773466 0
M  V30 17449 C 1657.12 0.810755 1.6973 0
M  V30 17450 O 1656.48 -0.235697 1.79761 0
M  V30 17451 C 1656.53 3.26381 1.53323 0
M  V30 17452 O 1655.63 3.16436 2.64465 0
M  V30 17453 H 1654.97 0.629838 0.210239 0
M  V30 17454 H 1657.5 2.04585 0.0248981 0
M  V30 17455 H 1657.51 3.60534 1.90996 0
M  V30 17456 H 1656.19 4.07007 0.855468 0
M  V30 17457 H 1654.77 2.93862 2.29564 0
M  V30 17458 N 1656.95 -0.331789 1.54068 0
M  V30 17459 C 1657.88 -1.43156 1.77713 0
M  V30 17460 C 1658.86 -1.50036 0.626723 0
M  V30 17461 O 1660.05 -1.67573 0.863228 0
M  V30 17462 C 1657.17 -2.81311 1.88632 0
M  V30 17463 C 1656.22 -2.92 3.10867 0
M  V30 17464 S 1657.05 -2.57255 4.69659 0
M  V30 17465 C 1658.21 -3.97497 4.83474 0
M  V30 17466 H 1658.44 -1.22884 2.70715 0
M  V30 17467 H 1655.97 -0.528148 1.45086 0
M  V30 17468 H 1657.93 -3.60898 1.95608 0
M  V30 17469 H 1656.59 -2.9887 0.966212 0
M  V30 17470 H 1655.79 -3.93261 3.15217 0
M  V30 17471 H 1655.39 -2.20374 3.02177 0
M  V30 17472 H 1657.68 -4.92156 4.65605 0
M  V30 17473 H 1658.62 -3.98135 5.85572 0
M  V30 17474 H 1659.03 -3.86069 4.11838 0
M  V30 17475 N 1658.43 -1.46001 -0.593424 0
M  V30 17476 C 1659.36 -1.58605 -1.71367 0
M  V30 17477 C 1660.34 -0.436866 -1.64394 0
M  V30 17478 O 1661.52 -0.661782 -1.82576 0
M  V30 17479 C 1658.65 -1.56587 -3.09996 0
M  V30 17480 C 1657.61 -2.70366 -3.31792 0
M  V30 17481 C 1656.93 -2.53406 -4.70839 0
M  V30 17482 C 1658.23 -4.12274 -3.20667 0
M  V30 17483 H 1659.93 -2.52379 -1.61076 0
M  V30 17484 H 1657.47 -1.21462 -0.773499 0
M  V30 17485 H 1659.43 -1.64 -3.88178 0
M  V30 17486 H 1658.15 -0.593511 -3.21162 0
M  V30 17487 H 1656.81 -2.62405 -2.56006 0
M  V30 17488 H 1656.46 -1.54278 -4.78756 0
M  V30 17489 H 1656.16 -3.29715 -4.86376 0
M  V30 17490 H 1657.68 -2.62694 -5.51203 0
M  V30 17491 H 1659.1 -4.21404 -3.88705 0
M  V30 17492 H 1657.49 -4.89085 -3.47729 0
M  V30 17493 H 1658.56 -4.33184 -2.17898 0
M  V30 17494 N 1659.91 0.83715 -1.33527 0
M  V30 17495 C 1661.32 1.40878 -1.22516 0
M  V30 17496 C 1661.67 1.95585 0.155236 0
M  V30 17497 O 1660.79 1.88946 1.05491 0
M  V30 17498 C 1661.39 2.56093 -2.21815 0
M  V30 17499 C 1659.95 3.09205 -2.14638 0
M  V30 17500 C 1659.09 1.82012 -2.09205 0
M  V30 17501 H 1662.05 0.642766 -1.45101 0
M  V30 17502 H 1662.07 3.33775 -1.82687 0
M  V30 17503 H 1661.58 2.16246 -3.22272 0
M  V30 17504 H 1659.68 3.53592 -1.17489 0
M  V30 17505 H 1659.79 3.69261 -3.05259 0
M  V30 17506 H 1658.16 2.02331 -1.54707 0
M  V30 17507 H 1658.94 1.44359 -3.11473 0
M  V30 17508 N 1661.38 1.17024 1.05561 0
M  V30 17509 C 1662.32 0.841314 2.13201 0
M  V30 17510 C 1663.33 -0.154667 1.62064 0
M  V30 17511 O 1664.52 0.0711173 1.78358 0
M  V30 17512 C 1661.62 0.233156 3.38097 0
M  V30 17513 C 1660.79 1.27108 4.18524 0
M  V30 17514 C 1659.85 0.681364 5.2177 0
M  V30 17515 O 1658.88 1.35219 5.52906 0
M  V30 17516 N 1660.08 -0.528381 5.7809 0
M  V30 17517 H 1662.84 1.76773 2.42015 0
M  V30 17518 H 1660.4 1.06858 1.21626 0
M  V30 17519 H 1662.4 -0.174565 4.04323 0
M  V30 17520 H 1660.97 -0.596965 3.06847 0
M  V30 17521 H 1660.19 1.85469 3.47843 0
M  V30 17522 H 1661.47 1.97129 4.6906 0
M  V30 17523 H 1660.87 -1.09141 5.55072 0
M  V30 17524 H 1659.43 -0.878214 6.45857 0
M  V30 17525 N 1662.86 -1.24221 0.969889 0
M  V30 17526 C 1663.83 -2.23529 0.506686 0
M  V30 17527 C 1664.83 -1.55797 -0.397968 0
M  V30 17528 O 1666.02 -1.73126 -0.193124 0
M  V30 17529 C 1663.15 -3.39861 -0.265943 0
M  V30 17530 H 1664.34 -2.66022 1.38463 0
M  V30 17531 H 1661.89 -1.36872 0.754698 0
M  V30 17532 H 1662.63 -3.0281 -1.16089 0
M  V30 17533 H 1662.41 -3.90222 0.383286 0
M  V30 17534 H 1663.9 -4.13567 -0.578975 0
M  V30 17535 N 1664.34 -0.740267 -1.39132 0
M  V30 17536 C 1665.27 -0.064087 -2.2911 0
M  V30 17537 C 1666.29 0.697897 -1.47082 0
M  V30 17538 O 1667.47 0.541189 -1.70098 0
M  V30 17539 C 1664.57 0.933426 -3.25792 0
M  V30 17540 C 1663.75 0.231867 -4.36785 0
M  V30 17541 C 1662.81 1.13823 -5.13742 0
M  V30 17542 O 1661.83 0.613741 -5.65881 0
M  V30 17543 N 1663.03 2.46751 -5.25447 0
M  V30 17544 H 1665.8 -0.836774 -2.87781 0
M  V30 17545 H 1663.36 -0.589928 -1.5077 0
M  V30 17546 H 1665.35 1.5425 -3.74151 0
M  V30 17547 H 1663.92 1.60728 -2.68114 0
M  V30 17548 H 1663.14 -0.557747 -3.90234 0
M  V30 17549 H 1664.43 -0.254115 -5.08165 0
M  V30 17550 H 1663.83 2.91834 -4.84613 0
M  V30 17551 H 1662.39 3.02741 -5.77227 0
M  V30 17552 N 1665.82 1.49844 -0.488302 0
M  V30 17553 C 1666.75 2.31737 0.286432 0
M  V30 17554 C 1667.73 1.39424 0.974418 0
M  V30 17555 O 1668.91 1.68339 0.968274 0
M  V30 17556 C 1666.04 3.19616 1.35878 0
M  V30 17557 C 1665 4.20619 0.791409 0
M  V30 17558 C 1664.32 4.9735 1.96333 0
M  V30 17559 C 1665.62 5.21882 -0.208975 0
M  V30 17560 H 1667.32 2.96755 -0.397092 0
M  V30 17561 H 1664.86 1.42709 -0.192413 0
M  V30 17562 H 1666.82 3.75711 1.90838 0
M  V30 17563 H 1665.54 2.52516 2.07131 0
M  V30 17564 H 1664.2 3.65651 0.263647 0
M  V30 17565 H 1663.85 4.26708 2.66325 0
M  V30 17566 H 1663.55 5.65684 1.58983 0
M  V30 17567 H 1665.07 5.56286 2.51751 0
M  V30 17568 H 1666.49 5.72746 0.252049 0
M  V30 17569 H 1664.88 5.98033 -0.497638 0
M  V30 17570 H 1665.95 4.7157 -1.12916 0
M  V30 17571 N 1667.3 0.221601 1.56034 0
M  V30 17572 C 1668.24 -0.688502 2.20291 0
M  V30 17573 C 1669.21 -1.19028 1.15851 0
M  V30 17574 O 1670.4 -1.24936 1.44206 0
M  V30 17575 C 1667.54 -1.89101 2.88678 0
M  V30 17576 C 1666.65 -1.42812 4.07711 0
M  V30 17577 C 1665.79 -2.5882 4.63881 0
M  V30 17578 C 1664.83 -2.09268 5.75216 0
M  V30 17579 N 1663.96 -3.18549 6.25676 0
M  V30 17580 H 1668.8 -0.133824 2.97699 0
M  V30 17581 H 1666.34 -0.0543007 1.47 0
M  V30 17582 H 1668.3 -2.59704 3.26512 0
M  V30 17583 H 1666.93 -2.41857 2.13788 0
M  V30 17584 H 1665.98 -0.617019 3.75363 0
M  V30 17585 H 1667.29 -1.02478 4.8816 0
M  V30 17586 H 1666.45 -3.37505 5.04158 0
M  V30 17587 H 1665.18 -3.02443 3.82596 0
M  V30 17588 H 1664.19 -1.29045 5.34441 0
M  V30 17589 H 1665.41 -1.66645 6.58336 0
M  V30 17590 H 1663.36 -3.61653 5.47305 0
M  V30 17591 H 1663.28 -2.82466 7.01248 0
M  V30 17592 H 1664.55 -3.97369 6.7061 0
M  V30 17593 N 1668.77 -1.57515 -0.0517878 0
M  V30 17594 C 1670.02 -1.88493 -0.748206 0
M  V30 17595 C 1670.35 -0.816494 -1.76202 0
M  V30 17596 O 1669.63 0.171075 -1.93746 0
M  V30 17597 C 1669.91 -3.30131 -1.43825 0
M  V30 17598 C 1669.76 -4.47648 -0.4395 0
M  V30 17599 C 1671.08 -3.70315 -2.37813 0
M  V30 17600 H 1668.2 -0.68555 -0.270537 0
M  V30 17601 H 1670.84 -1.89997 -0.0111457 0
M  V30 17602 H 1668.99 -3.2898 -2.06651 0
M  V30 17603 H 1670.67 -4.60929 0.185088 0
M  V30 17604 H 1668.91 -4.33117 0.243381 0
M  V30 17605 H 1669.58 -5.43582 -0.96035 0
M  V30 17606 H 1672.06 -3.72687 -1.8505 0
M  V30 17607 H 1670.93 -4.70269 -2.83087 0
M  V30 17608 H 1671.19 -3.0133 -3.23501 0
M  V30 17609 N 1670.25 0.323614 -1.54242 0
M  V30 17610 C 1671.2 1.39826 -1.83623 0
M  V30 17611 C 1672.17 1.51393 -0.683331 0
M  V30 17612 O 1673.36 1.66614 -0.929754 0
M  V30 17613 C 1670.5 2.76187 -2.06918 0
M  V30 17614 C 1669.61 2.73251 -3.34601 0
M  V30 17615 C 1668.74 4.01458 -3.47857 0
M  V30 17616 C 1667.78 3.9283 -4.69415 0
M  V30 17617 N 1666.92 5.12767 -4.79598 0
M  V30 17618 H 1671.76 1.1407 -2.75303 0
M  V30 17619 H 1669.3 0.552188 -1.36343 0
M  V30 17620 H 1671.25 3.55458 -2.18416 0
M  V30 17621 H 1669.88 3.00251 -1.18529 0
M  V30 17622 H 1668.94 1.85971 -3.31842 0
M  V30 17623 H 1670.25 2.62759 -4.2398 0
M  V30 17624 H 1669.4 4.89161 -3.58897 0
M  V30 17625 H 1668.14 4.14757 -2.5657 0
M  V30 17626 H 1667.15 3.03512 -4.58433 0
M  V30 17627 H 1668.37 3.81097 -5.62087 0
M  V30 17628 H 1666.32 5.26572 -3.91227 0
M  V30 17629 H 1666.23 5.0461 -5.62943 0
M  V30 17630 H 1667.5 6.02184 -4.94969 0
M  V30 17631 N 1671.73 1.46313 0.585673 0
M  V30 17632 C 1672.96 1.54811 1.36811 0
M  V30 17633 C 1673.37 0.187083 1.88273 0
M  V30 17634 O 1672.71 -0.825324 1.64116 0
M  V30 17635 C 1672.77 2.48978 2.59326 0
M  V30 17636 C 1672.44 3.9528 2.29352 0
M  V30 17637 C 1673.44 4.84575 1.88369 0
M  V30 17638 C 1671.12 4.40387 2.41588 0
M  V30 17639 C 1673.11 6.16989 1.60012 0
M  V30 17640 C 1670.8 5.72836 2.12844 0
M  V30 17641 C 1671.8 6.60956 1.72121 0
M  V30 17642 O 1671.49 7.90947 1.43727 0
M  V30 17643 H 1671.22 0.526169 0.424409 0
M  V30 17644 H 1673.77 1.92395 0.719251 0
M  V30 17645 H 1672 2.06406 3.27007 0
M  V30 17646 H 1673.69 2.47915 3.21392 0
M  V30 17647 H 1674.46 4.50984 1.78433 0
M  V30 17648 H 1670.34 3.72024 2.72249 0
M  V30 17649 H 1673.88 6.85728 1.28152 0
M  V30 17650 H 1669.78 6.05976 2.22403 0
M  V30 17651 H 1670.55 8.03185 1.57597 0
M  V30 17652 N 1673.21 -0.830057 1.33969 0
M  V30 17653 C 1674.14 -1.95557 1.27592 0
M  V30 17654 C 1675.12 -1.69395 0.154745 0
M  V30 17655 O 1676.31 -1.91094 0.345954 0
M  V30 17656 C 1673.44 -3.31881 1.02335 0
M  V30 17657 C 1672.39 -3.72464 2.10842 0
M  V30 17658 C 1671.72 -5.06692 1.70785 0
M  V30 17659 C 1673.02 -3.85315 3.52604 0
M  V30 17660 H 1674.71 -2.0115 2.21763 0
M  V30 17661 H 1672.26 -0.96639 1.06756 0
M  V30 17662 H 1674.21 -4.10197 0.965206 0
M  V30 17663 H 1672.93 -3.26568 0.0460462 0
M  V30 17664 H 1671.59 -2.96417 2.15714 0
M  V30 17665 H 1671.24 -4.97859 0.717334 0
M  V30 17666 H 1670.94 -5.34817 2.43403 0
M  V30 17667 H 1672.46 -5.87474 1.66452 0
M  V30 17668 H 1673.88 -4.5392 3.50185 0
M  V30 17669 H 1672.27 -4.24886 4.23783 0
M  V30 17670 H 1673.34 -2.87514 3.90466 0
M  V30 17671 N 1674.69 -1.17582 -1.04939 0
M  V30 17672 C 1675.64 -0.891102 -2.14854 0
M  V30 17673 C 1676.63 0.145242 -1.68776 0
M  V30 17674 O 1677.84 -0.00207978 -1.8 0
M  V30 17675 H 1674.21 -0.270641 -0.701611 0
M  V30 17676 H 1676.18 -1.82519 -2.36071 0
M  V30 17677 C 1674.93 -0.423679 -3.45109 0
M  V30 17678 H 1674.25 -1.2126 -3.80967 0
M  V30 17679 H 1675.69 -0.263369 -4.23181 0
M  V30 17680 C 1674.15 0.859085 -3.25763 0
M  V30 17681 O 1674.68 1.9253 -3.52555 0
M  V30 17682 N 1672.89 0.80824 -2.79134 0
M  V30 17683 H 1672.44 -0.0596431 -2.57531 0
M  V30 17684 H 1672.39 1.66697 -2.6657 0
M  V30 17685 N 1676.17 1.23705 -0.976463 0
M  V30 17686 C 1677.08 2.28728 -0.521605 0
M  V30 17687 C 1678.09 1.68813 0.421691 0
M  V30 17688 O 1679.27 1.99263 0.292579 0
M  V30 17689 C 1676.33 3.4627 0.172545 0
M  V30 17690 C 1675.39 4.21557 -0.811664 0
M  V30 17691 C 1674.63 5.33488 -0.150546 0
M  V30 17692 O 1674.85 5.60478 1.05926 0
M  V30 17693 O 1673.78 5.95909 -0.847132 0
M  V30 17694 H 1677.61 2.6977 -1.39491 0
M  V30 17695 H 1675.19 1.29562 -0.743909 0
M  V30 17696 H 1677.08 4.17634 0.562103 0
M  V30 17697 H 1675.75 3.07187 1.02067 0
M  V30 17698 H 1674.66 3.52533 -1.25185 0
M  V30 17699 H 1675.99 4.6448 -1.62848 0
M  V30 17700 N 1677.64 0.747635 1.38738 0
M  V30 17701 C 1678.57 0.131317 2.3313 0
M  V30 17702 C 1679.55 -0.710229 1.54563 0
M  V30 17703 O 1680.74 -0.652631 1.82905 0
M  V30 17704 C 1677.87 -0.767168 3.38721 0
M  V30 17705 C 1676.82 -0.0288124 4.2799 0
M  V30 17706 C 1676.15 -1.04515 5.24386 0
M  V30 17707 C 1677.45 1.13608 5.09795 0
M  V30 17708 H 1679.14 0.91981 2.84921 0
M  V30 17709 H 1676.69 0.443764 1.36992 0
M  V30 17710 H 1678.64 -1.20796 4.03716 0
M  V30 17711 H 1677.37 -1.58792 2.85399 0
M  V30 17712 H 1676.03 0.392491 3.64493 0
M  V30 17713 H 1675.67 -1.8598 4.67355 0
M  V30 17714 H 1675.37 -0.555813 5.84965 0
M  V30 17715 H 1676.9 -1.48538 5.92257 0
M  V30 17716 H 1678.31 0.773129 5.68063 0
M  V30 17717 H 1676.71 1.55589 5.79579 0
M  V30 17718 H 1677.78 1.95182 4.43883 0
M  V30 17719 N 1679.12 -1.49583 0.496242 0
M  V30 17720 C 1680.07 -2.29037 -0.284716 0
M  V30 17721 C 1681.04 -1.35217 -0.964661 0
M  V30 17722 O 1682.22 -1.64171 -0.972244 0
M  V30 17723 C 1679.36 -3.17767 -1.34603 0
M  V30 17724 C 1678.48 -4.26641 -0.67834 0
M  V30 17725 C 1677.61 -5.02594 -1.71969 0
M  V30 17726 C 1676.65 -6.0331 -1.03361 0
M  V30 17727 N 1675.79 -6.72446 -2.01894 0
M  V30 17728 H 1680.63 -2.95316 0.399084 0
M  V30 17729 H 1678.16 -1.45613 0.208653 0
M  V30 17730 H 1680.12 -3.67583 -1.97329 0
M  V30 17731 H 1678.75 -2.53483 -1.99866 0
M  V30 17732 H 1677.8 -3.80349 0.0620953 0
M  V30 17733 H 1679.12 -4.98609 -0.138028 0
M  V30 17734 H 1678.27 -5.56254 -2.42212 0
M  V30 17735 H 1677.01 -4.30388 -2.29385 0
M  V30 17736 H 1676.01 -5.48886 -0.316925 0
M  V30 17737 H 1677.24 -6.77499 -0.466009 0
M  V30 17738 H 1675.19 -6.03015 -2.58281 0
M  V30 17739 H 1675.1 -7.40373 -1.52916 0
M  V30 17740 H 1676.37 -7.30712 -2.7144 0
M  V30 17741 N 1680.6 -0.229873 -1.55915 0
M  V30 17742 C 1681.55 0.676809 -2.20653 0
M  V30 17743 C 1682.52 1.18412 -1.16481 0
M  V30 17744 O 1683.7 1.2417 -1.44867 0
M  V30 17745 C 1680.84 1.87567 -2.89677 0
M  V30 17746 C 1679.95 1.40648 -4.08463 0
M  V30 17747 C 1679.09 2.56356 -4.65247 0
M  V30 17748 C 1678.13 2.06215 -5.76318 0
M  V30 17749 N 1677.27 3.15226 -6.27357 0
M  V30 17750 H 1682.11 0.118035 -2.97766 0
M  V30 17751 H 1679.64 0.0465042 -1.47026 0
M  V30 17752 H 1681.6 2.57968 -3.27884 0
M  V30 17753 H 1680.23 2.40719 -2.15067 0
M  V30 17754 H 1679.28 0.597104 -3.75684 0
M  V30 17755 H 1680.59 0.998877 -4.88696 0
M  V30 17756 H 1679.75 3.34827 -5.05941 0
M  V30 17757 H 1678.49 3.0041 -3.84194 0
M  V30 17758 H 1677.49 1.26209 -5.35118 0
M  V30 17759 H 1678.72 1.63151 -6.59211 0
M  V30 17760 H 1676.66 3.58746 -5.49215 0
M  V30 17761 H 1676.58 2.78744 -7.02736 0
M  V30 17762 H 1677.85 3.93807 -6.72708 0
M  V30 17763 N 1682.08 1.5754 0.0434337 0
M  V30 17764 C 1683.01 2.08648 1.04824 0
M  V30 17765 C 1683.99 0.985894 1.38615 0
M  V30 17766 O 1685.17 1.2603 1.4775 0
M  V30 17767 C 1682.3 2.55399 2.35348 0
M  V30 17768 C 1681.26 3.69592 2.15837 0
M  V30 17769 C 1680.58 4.02497 3.51995 0
M  V30 17770 C 1681.88 4.98575 1.55629 0
M  V30 17771 H 1683.58 2.9285 0.622849 0
M  V30 17772 H 1681.12 1.40879 0.298158 0
M  V30 17773 H 1683.08 2.89771 3.05958 0
M  V30 17774 H 1681.8 1.68262 2.7992 0
M  V30 17775 H 1680.46 3.35546 1.47663 0
M  V30 17776 H 1680.11 3.12448 3.94189 0
M  V30 17777 H 1679.81 4.79406 3.39771 0
M  V30 17778 H 1681.33 4.39391 4.23991 0
M  V30 17779 H 1682.75 5.30996 2.16138 0
M  V30 17780 H 1681.14 5.79998 1.54021 0
M  V30 17781 H 1682.21 4.82098 0.520567 0
M  V30 17782 N 1683.56 -0.31543 1.54411 0
M  V30 17783 C 1684.5 -1.4086 1.85098 0
M  V30 17784 C 1685.5 -1.53172 0.723518 0
M  V30 17785 O 1686.7 -1.55461 0.907303 0
M  V30 17786 H 1683.08 -0.47022 0.586853 0
M  V30 17787 H 1685.05 -1.12207 2.765 0
M  V30 17788 C 1683.8 -2.76948 2.10227 0
M  V30 17789 H 1683.12 -2.68251 2.96448 0
M  V30 17790 H 1684.56 -3.52486 2.35647 0
M  V30 17791 C 1683.02 -3.24758 0.896312 0
M  V30 17792 O 1683.55 -4.0155 0.109609 0
M  V30 17793 N 1681.76 -2.81901 0.705685 0
M  V30 17794 H 1681.3 -2.19571 1.34708 0
M  V30 17795 H 1681.26 -3.14242 -0.0996804 0
M  V30 17796 N 1685.03 -1.46622 -0.577906 0
M  V30 17797 C 1685.96 -1.60413 -1.69676 0
M  V30 17798 C 1686.95 -0.454277 -1.63922 0
M  V30 17799 O 1688.13 -0.68111 -1.81864 0
M  V30 17800 C 1685.26 -1.59866 -3.08318 0
M  V30 17801 C 1684.21 -2.7387 -3.28906 0
M  V30 17802 C 1683.54 -2.58386 -4.68125 0
M  V30 17803 C 1684.84 -4.15652 -3.16276 0
M  V30 17804 H 1686.53 -2.54073 -1.5839 0
M  V30 17805 H 1684.08 -1.22275 -0.760572 0
M  V30 17806 H 1686.03 -1.68108 -3.86417 0
M  V30 17807 H 1684.76 -0.627541 -3.20514 0
M  V30 17808 H 1683.42 -2.65105 -2.53209 0
M  V30 17809 H 1683.06 -1.59347 -4.77093 0
M  V30 17810 H 1682.76 -3.34855 -4.82852 0
M  V30 17811 H 1684.29 -2.68525 -5.48385 0
M  V30 17812 H 1685.7 -4.25503 -3.84214 0
M  V30 17813 H 1684.1 -4.92746 -3.42523 0
M  V30 17814 H 1685.17 -4.35471 -2.13291 0
M  V30 17815 N 1686.51 0.822941 -1.34408 0
M  V30 17816 C 1687.74 1.60854 -1.29652 0
M  V30 17817 C 1688.15 1.88742 0.131572 0
M  V30 17818 O 1687.49 1.47936 1.08907 0
M  V30 17819 C 1687.56 2.97437 -2.0192 0
M  V30 17820 C 1687.22 2.92443 -3.51178 0
M  V30 17821 C 1688.22 2.67029 -4.46085 0
M  V30 17822 C 1685.9 3.12076 -3.93591 0
M  V30 17823 C 1687.9 2.61299 -5.81379 0
M  V30 17824 C 1685.58 3.05971 -5.28985 0
M  V30 17825 C 1686.58 2.80615 -6.22691 0
M  V30 17826 O 1686.27 2.74442 -7.55603 0
M  V30 17827 H 1686 0.506701 -0.447471 0
M  V30 17828 H 1688.55 1.03197 -1.77594 0
M  V30 17829 H 1686.78 3.57012 -1.48592 0
M  V30 17830 H 1688.47 3.58444 -1.90455 0
M  V30 17831 H 1689.24 2.51596 -4.14638 0
M  V30 17832 H 1685.12 3.30828 -3.21051 0
M  V30 17833 H 1688.66 2.41428 -6.54491 0
M  V30 17834 H 1684.56 3.20957 -5.60051 0
M  V30 17835 H 1685.33 2.90169 -7.65339 0
M  V30 17836 N 1687.99 1.18137 1.04314 0
M  V30 17837 C 1688.9 0.921044 2.15764 0
M  V30 17838 C 1689.92 -0.11396 1.73626 0
M  V30 17839 O 1691.09 0.0673733 2.01287 0
M  V30 17840 C 1688.16 0.447581 3.43799 0
M  V30 17841 C 1687.22 1.55025 4.00332 0
M  V30 17842 C 1686.45 1.09928 5.22256 0
M  V30 17843 O 1686.67 -0.0430152 5.70384 0
M  V30 17844 O 1685.61 1.896 5.71258 0
M  V30 17845 H 1689.43 1.85353 2.40579 0
M  V30 17846 H 1687.02 0.962985 1.14223 0
M  V30 17847 H 1688.9 0.191497 4.20965 0
M  V30 17848 H 1687.58 -0.456641 3.20463 0
M  V30 17849 H 1686.48 1.86032 3.24566 0
M  V30 17850 H 1687.82 2.4305 4.28004 0
M  V30 17851 N 1689.47 -1.23186 0.98301 0
M  V30 17852 C 1690.42 -2.24748 0.525082 0
M  V30 17853 C 1691.39 -1.60237 -0.437411 0
M  V30 17854 O 1692.57 -1.87666 -0.344376 0
M  V30 17855 C 1689.71 -3.44711 -0.163809 0
M  V30 17856 C 1688.82 -4.23769 0.839254 0
M  V30 17857 C 1687.96 -5.31053 0.1249 0
M  V30 17858 C 1687 -6.01822 1.117 0
M  V30 17859 N 1686.13 -7.00772 0.431625 0
M  V30 17860 H 1690.97 -2.63283 1.39593 0
M  V30 17861 H 1688.51 -1.29407 0.699438 0
M  V30 17862 H 1690.47 -4.13148 -0.580046 0
M  V30 17863 H 1689.1 -3.06969 -0.998507 0
M  V30 17864 H 1688.15 -3.54724 1.37386 0
M  V30 17865 H 1689.46 -4.72606 1.59515 0
M  V30 17866 H 1688.62 -6.05698 -0.348569 0
M  V30 17867 H 1687.36 -4.83165 -0.663573 0
M  V30 17868 H 1686.36 -5.25967 1.6012 0
M  V30 17869 H 1687.59 -6.51799 1.90618 0
M  V30 17870 H 1685.53 -6.55131 -0.337592 0
M  V30 17871 H 1685.45 -7.47566 1.12613 0
M  V30 17872 H 1686.72 -7.79498 -0.0193703 0
M  V30 17873 N 1690.95 -0.754982 -1.38339 0
M  V30 17874 C 1691.88 -0.0883836 -2.2903 0
M  V30 17875 C 1692.89 0.682258 -1.47814 0
M  V30 17876 O 1694.08 0.523117 -1.70663 0
M  V30 17877 C 1691.18 0.898819 -3.26764 0
M  V30 17878 C 1690.35 0.185527 -4.37006 0
M  V30 17879 C 1689.41 1.08368 -5.1492 0
M  V30 17880 O 1688.44 0.553687 -5.66501 0
M  V30 17881 N 1689.64 2.41164 -5.28034 0
M  V30 17882 H 1692.41 -0.86725 -2.86878 0
M  V30 17883 H 1689.97 -0.605886 -1.50135 0
M  V30 17884 H 1691.96 1.50273 -3.75766 0
M  V30 17885 H 1690.53 1.57876 -2.69804 0
M  V30 17886 H 1689.75 -0.599106 -3.89621 0
M  V30 17887 H 1691.04 -0.307999 -5.07867 0
M  V30 17888 H 1690.43 2.86677 -4.87681 0
M  V30 17889 H 1688.99 2.96602 -5.80406 0
M  V30 17890 N 1692.42 1.49318 -0.504168 0
M  V30 17891 C 1693.67 2.02762 0.0392846 0
M  V30 17892 C 1694 1.38282 1.36352 0
M  V30 17893 O 1693.28 0.519587 1.87431 0
M  V30 17894 C 1693.56 3.59606 0.188507 0
M  V30 17895 C 1693.41 4.3461 -1.15908 0
M  V30 17896 C 1694.73 4.30213 0.927641 0
M  V30 17897 H 1691.85 0.736889 0.0128028 0
M  V30 17898 H 1694.49 1.78309 -0.656193 0
M  V30 17899 H 1692.64 3.80572 0.780861 0
M  V30 17900 H 1694.32 4.25132 -1.79055 0
M  V30 17901 H 1692.56 3.97043 -1.74756 0
M  V30 17902 H 1693.23 5.4272 -1.00794 0
M  V30 17903 H 1695.71 4.13922 0.425228 0
M  V30 17904 H 1694.58 5.39697 1.0009 0
M  V30 17905 H 1694.84 3.95678 1.97209 0
M  V30 17906 N 1693.9 0.238138 1.5579 0
M  V30 17907 C 1694.81 -0.676049 2.24648 0
M  V30 17908 C 1695.83 -1.20038 1.25964 0
M  V30 17909 O 1697 -1.2385 1.58818 0
M  V30 17910 C 1694.07 -1.86014 2.92574 0
M  V30 17911 C 1693.13 -1.37615 4.06646 0
M  V30 17912 C 1692.36 -2.5038 4.71323 0
M  V30 17913 O 1692.59 -3.68906 4.35045 0
M  V30 17914 O 1691.52 -2.20636 5.60003 0
M  V30 17915 H 1695.35 -0.119372 3.03465 0
M  V30 17916 H 1692.93 0.00699789 1.49398 0
M  V30 17917 H 1694.81 -2.55132 3.35389 0
M  V30 17918 H 1693.49 -2.4046 2.16704 0
M  V30 17919 H 1692.4 -0.652503 3.68366 0
M  V30 17920 H 1693.73 -0.877871 4.84308 0
M  V30 17921 N 1695.38 -1.57561 -0.0350783 0
M  V30 17922 C 1696.61 -1.93644 -0.742753 0
M  V30 17923 C 1697.03 -0.837655 -1.68419 0
M  V30 17924 O 1696.39 0.207069 -1.80114 0
M  V30 17925 C 1696.44 -3.28779 -1.48111 0
M  V30 17926 O 1695.54 -3.20604 -2.59398 0
M  V30 17927 H 1694.88 -0.633103 -0.200192 0
M  V30 17928 H 1697.41 -2.04599 0.00765271 0
M  V30 17929 H 1697.42 -3.63527 -1.85236 0
M  V30 17930 H 1696.1 -4.08316 -0.790608 0
M  V30 17931 H 1694.67 -2.97477 -2.2486 0
M  V30 17932 N 1696.86 0.307236 -1.54576 0
M  V30 17933 C 1697.79 1.38357 -1.88095 0
M  V30 17934 C 1698.77 1.53196 -0.739253 0
M  V30 17935 O 1699.95 1.66807 -0.99444 0
M  V30 17936 C 1697.08 2.74876 -2.12274 0
M  V30 17937 C 1696.04 2.74809 -3.28122 0
M  V30 17938 C 1695.36 4.14557 -3.37707 0
M  V30 17939 C 1696.66 2.37103 -4.65381 0
M  V30 17940 H 1698.36 1.10554 -2.78241 0
M  V30 17941 H 1695.9 0.530383 -1.33877 0
M  V30 17942 H 1697.86 3.50254 -2.34308 0
M  V30 17943 H 1696.58 3.04191 -1.18893 0
M  V30 17944 H 1695.24 2.01887 -3.06002 0
M  V30 17945 H 1694.89 4.41039 -2.41854 0
M  V30 17946 H 1694.59 4.15415 -4.15577 0
M  V30 17947 H 1696.11 4.91724 -3.61994 0
M  V30 17948 H 1697.53 3.02196 -4.87186 0
M  V30 17949 H 1695.92 2.49184 -5.45919 0
M  V30 17950 H 1696.99 1.32235 -4.66521 0
M  V30 17951 N 1698.34 1.46926 0.570122 0
M  V30 17952 C 1699.75 1.32159 0.894766 0
M  V30 17953 C 1699.95 0.302411 1.99218 0
M  V30 17954 O 1699.01 -0.290615 2.50822 0
M  V30 17955 C 1700.32 2.71136 1.30021 0
M  V30 17956 C 1701.87 2.79323 1.41236 0
M  V30 17957 C 1702.34 4.18911 1.85142 0
M  V30 17958 N 1703.84 4.2139 1.92314 0
M  V30 17959 C 1704.57 5.263 2.27588 0
M  V30 17960 N 1704.07 6.41526 2.61565 0
M  V30 17961 N 1705.86 5.13671 2.28251 0
M  V30 17962 H 1698.01 2.11837 -0.154603 0
M  V30 17963 H 1700.27 0.947978 -0.00649658 0
M  V30 17964 H 1699.98 3.47087 0.567775 0
M  V30 17965 H 1699.85 3.02066 2.25911 0
M  V30 17966 H 1702.24 2.03653 2.13564 0
M  V30 17967 H 1702.32 2.52063 0.43566 0
M  V30 17968 H 1701.97 4.95081 1.13389 0
M  V30 17969 H 1701.9 4.43587 2.83792 0
M  V30 17970 H 1704.39 3.38257 1.68495 0
M  V30 17971 H 1704.7 7.17343 2.8747 0
M  V30 17972 H 1703.04 6.44867 2.59175 0
M  V30 17973 H 1706.24 4.22684 2.01137 0
M  V30 17974 H 1706.41 5.95541 2.55412 0
M  V30 17975 N 1699.82 -0.815801 1.34842 0
M  V30 17976 C 1701.06 -1.57474 1.27788 0
M  V30 17977 C 1701.39 -1.9362 -0.149956 0
M  V30 17978 O 1700.67 -1.60605 -1.0971 0
M  V30 17979 C 1700.95 -2.86952 2.17556 0
M  V30 17980 C 1700.81 -2.5734 3.68912 0
M  V30 17981 C 1702.12 -3.88582 2.0662 0
M  V30 17982 H 1699.24 -0.57135 0.465541 0
M  V30 17983 H 1701.89 -0.939271 1.6516 0
M  V30 17984 H 1700.04 -3.41182 1.85815 0
M  V30 17985 H 1701.71 -2.09365 4.11052 0
M  V30 17986 H 1699.95 -1.90674 3.89648 0
M  V30 17987 H 1700.62 -3.49702 4.27098 0
M  V30 17988 H 1703.1 -3.43726 2.34503 0
M  V30 17989 H 1701.97 -4.7697 2.71644 0
M  V30 17990 H 1702.23 -4.29564 1.04532 0
M  V30 17991 N 1701.29 -1.18689 -1.03686 0
M  V30 17992 C 1702.26 -0.919415 -2.09951 0
M  V30 17993 C 1703.26 0.0968042 -1.60508 0
M  V30 17994 O 1704.45 -0.137062 -1.7366 0
M  V30 17995 C 1701.58 -0.380204 -3.38773 0
M  V30 17996 H 1702.77 -1.86178 -2.35112 0
M  V30 17997 H 1700.32 -0.999435 -1.20171 0
M  V30 17998 H 1701.06 0.568586 -3.19277 0
M  V30 17999 H 1700.84 -1.11281 -3.75977 0
M  V30 18000 H 1702.33 -0.211891 -4.17062 0
M  V30 18001 N 1702.77 1.22662 -0.989529 0
M  V30 18002 C 1704.05 1.86816 -0.579566 0
M  V30 18003 C 1704.43 1.88858 0.943188 0
M  V30 18004 O 1703.78 1.37668 1.82372 0
M  V30 18005 C 1703.99 3.27863 -1.19612 0
M  V30 18006 C 1705.33 4.04384 -1.29454 0
M  V30 18007 O 1706.36 3.37116 -1.15026 0
M  V30 18008 O 1705.22 5.24789 -1.52508 0
M  V30 18009 H 1702.31 0.803332 -0.196434 0
M  V30 18010 H 1704.86 1.30467 -1.08519 0
M  V30 18011 H 1703.63 3.20993 -2.23784 0
M  V30 18012 H 1703.25 3.91813 -0.675875 0
M  V30 18013 N 1704.25 0.762308 1.37937 0
M  V30 18014 C 1705.18 0.0886896 2.28028 0
M  V30 18015 C 1706.16 -0.719127 1.45833 0
M  V30 18016 O 1707.34 -0.695902 1.75184 0
M  V30 18017 C 1704.47 -0.880957 3.27043 0
M  V30 18018 C 1703.52 -0.158303 4.26206 0
M  V30 18019 S 1704.35 1.14705 5.23071 0
M  V30 18020 C 1705.51 0.180701 6.25639 0
M  V30 18021 H 1705.74 0.852627 2.84811 0
M  V30 18022 H 1703.27 0.555273 1.4407 0
M  V30 18023 H 1705.23 -1.43504 3.846 0
M  V30 18024 H 1703.89 -1.61793 2.69224 0
M  V30 18025 H 1703.08 -0.893012 4.96025 0
M  V30 18026 H 1702.69 0.324503 3.7259 0
M  V30 18027 H 1704.98 -0.650247 6.74372 0
M  V30 18028 H 1705.92 0.846801 7.03018 0
M  V30 18029 H 1706.33 -0.203883 5.64132 0
M  V30 18030 N 1705.73 -1.49049 0.51208 0
M  V30 18031 C 1706.67 -2.29326 -0.260408 0
M  V30 18032 C 1707.64 -1.36232 -0.950265 0
M  V30 18033 O 1708.83 -1.65193 -0.954777 0
M  V30 18034 C 1705.97 -3.19177 -1.31225 0
M  V30 18035 C 1705.08 -4.27336 -0.63305 0
M  V30 18036 C 1704.22 -5.04389 -1.66628 0
M  V30 18037 C 1703.26 -6.04372 -0.969561 0
M  V30 18038 N 1702.39 -6.74549 -1.94751 0
M  V30 18039 H 1707.23 -2.94876 0.430384 0
M  V30 18040 H 1704.77 -1.45383 0.224086 0
M  V30 18041 H 1706.73 -3.69655 -1.9342 0
M  V30 18042 H 1705.36 -2.55588 -1.97166 0
M  V30 18043 H 1704.41 -3.80262 0.102433 0
M  V30 18044 H 1705.72 -4.98727 -0.0851363 0
M  V30 18045 H 1704.88 -5.58791 -2.36299 0
M  V30 18046 H 1703.62 -4.32797 -2.24807 0
M  V30 18047 H 1702.62 -5.49191 -0.25869 0
M  V30 18048 H 1703.85 -6.77955 -0.394125 0
M  V30 18049 H 1701.79 -6.0572 -2.5187 0
M  V30 18050 H 1701.71 -7.41954 -1.45055 0
M  V30 18051 H 1702.98 -7.3355 -2.63675 0
M  V30 18052 N 1707.21 -0.246397 -1.55662 0
M  V30 18053 C 1708.43 0.382645 -2.03331 0
M  V30 18054 C 1708.85 1.51573 -1.12566 0
M  V30 18055 O 1708.21 1.81962 -0.139992 0
M  V30 18056 C 1708.26 0.890907 -3.5035 0
M  V30 18057 O 1707.98 -0.197023 -4.37657 0
M  V30 18058 C 1709.48 1.59069 -4.13778 0
M  V30 18059 H 1706.7 0.0909834 -0.664803 0
M  V30 18060 H 1709.24 -0.370113 -2.01123 0
M  V30 18061 H 1707.4 1.59385 -3.53094 0
M  V30 18062 H 1707.81 0.188846 -5.2416 0
M  V30 18063 H 1709.29 1.89805 -5.18342 0
M  V30 18064 H 1709.76 2.51248 -3.60238 0
M  V30 18065 H 1710.37 0.932333 -4.14955 0
M  V30 18066 N 1708.68 1.57577 0.026722 0
M  V30 18067 C 1709.62 2.03515 1.05424 0
M  V30 18068 C 1710.63 0.948362 1.32325 0
M  V30 18069 O 1711.82 1.22563 1.29771 0
M  V30 18070 C 1708.92 2.39744 2.39533 0
M  V30 18071 C 1708.09 3.70832 2.31954 0
M  V30 18072 C 1707.15 3.94224 3.48531 0
M  V30 18073 O 1706.18 4.6525 3.27919 0
M  V30 18074 N 1707.38 3.40044 4.70479 0
M  V30 18075 H 1710.14 2.92282 0.662678 0
M  V30 18076 H 1707.7 1.60471 0.214623 0
M  V30 18077 H 1709.7 2.52529 3.16245 0
M  V30 18078 H 1708.27 1.56636 2.70525 0
M  V30 18079 H 1707.49 3.68378 1.40325 0
M  V30 18080 H 1708.77 4.56821 2.24035 0
M  V30 18081 H 1708.17 2.82478 4.90125 0
M  V30 18082 H 1706.73 3.58205 5.44548 0
M  V30 18083 N 1710.16 -0.299034 1.54737 0
M  V30 18084 C 1711.07 -1.39141 1.88884 0
M  V30 18085 C 1712.09 -1.55377 0.783203 0
M  V30 18086 O 1713.26 -1.70003 1.07985 0
M  V30 18087 C 1710.33 -2.73487 2.13087 0
M  V30 18088 C 1709.39 -2.66219 3.36788 0
M  V30 18089 C 1708.62 -3.94158 3.59827 0
M  V30 18090 O 1708.85 -4.9361 2.85841 0
M  V30 18091 O 1707.78 -3.95933 4.53344 0
M  V30 18092 H 1711.61 -1.13184 2.81821 0
M  V30 18093 H 1709.19 -0.495271 1.40952 0
M  V30 18094 H 1711.07 -3.5297 2.30195 0
M  V30 18095 H 1709.75 -2.99283 1.23335 0
M  V30 18096 H 1708.65 -1.85201 3.25041 0
M  V30 18097 H 1709.99 -2.45376 4.26675 0
M  V30 18098 N 1711.64 -1.47227 -0.562322 0
M  V30 18099 C 1712.59 -1.59329 -1.66981 0
M  V30 18100 C 1713.56 -0.436558 -1.6026 0
M  V30 18101 O 1714.74 -0.655956 -1.7917 0
M  V30 18102 C 1711.88 -1.60874 -3.05309 0
M  V30 18103 C 1710.99 -2.87428 -3.22505 0
M  V30 18104 C 1710.13 -2.80342 -4.512 0
M  V30 18105 C 1709.17 -4.01744 -4.6181 0
M  V30 18106 N 1708.31 -3.92924 -5.81855 0
M  V30 18107 H 1713.15 -2.53921 -1.55975 0
M  V30 18108 H 1710.68 -1.25953 -0.759879 0
M  V30 18109 H 1712.64 -1.59753 -3.85402 0
M  V30 18110 H 1711.27 -0.697994 -3.15163 0
M  V30 18111 H 1710.32 -2.98439 -2.35878 0
M  V30 18112 H 1711.63 -3.77345 -3.26209 0
M  V30 18113 H 1710.79 -2.77442 -5.39547 0
M  V30 18114 H 1709.53 -1.881 -4.49966 0
M  V30 18115 H 1708.53 -4.04954 -3.71877 0
M  V30 18116 H 1709.76 -4.95107 -4.64807 0
M  V30 18117 H 1707.7 -3.03481 -5.8158 0
M  V30 18118 H 1707.62 -4.76514 -5.86916 0
M  V30 18119 H 1708.89 -3.94031 -6.72577 0
M  V30 18120 N 1713.12 0.808639 -1.35273 0
M  V30 18121 C 1714.37 1.56071 -1.27768 0
M  V30 18122 C 1714.68 1.9505 0.146545 0
M  V30 18123 O 1715.89 2.69314 0.343855 0
M  V30 18124 C 1714.34 2.81648 -2.24059 0
M  V30 18125 C 1713.95 2.49915 -3.71815 0
M  V30 18126 C 1715.69 3.59658 -2.25492 0
M  V30 18127 C 1713.6 3.7177 -4.59936 0
M  V30 18128 H 1712.53 0.585811 -0.474701 0
M  V30 18129 H 1715.18 0.889051 -1.60525 0
M  V30 18130 H 1713.56 3.50514 -1.84271 0
M  V30 18131 H 1714.74 1.89068 -4.20226 0
M  V30 18132 H 1713.05 1.85154 -3.72971 0
M  V30 18133 H 1715.65 4.50162 -2.88545 0
M  V30 18134 H 1715.99 3.96835 -1.2581 0
M  V30 18135 H 1716.53 2.97751 -2.63798 0
M  V30 18136 H 1713.26 3.39704 -5.60608 0
M  V30 18137 H 1712.78 4.3185 -4.16252 0
M  V30 18138 H 1714.46 4.39022 -4.75256 0
M  V30 18139 N 1714.6 1.19237 1.03055 0
M  V30 18140 C 1715.54 0.928588 2.11296 0
M  V30 18141 C 1716.51 -0.135941 1.65543 0
M  V30 18142 O 1717.7 0.00584847 1.90799 0
M  V30 18143 C 1714.84 0.471532 3.41863 0
M  V30 18144 C 1713.95 1.60264 4.01173 0
M  V30 18145 C 1713.09 1.09729 5.19743 0
M  V30 18146 C 1712.13 2.2024 5.71105 0
M  V30 18147 N 1711.26 1.71024 6.80952 0
M  V30 18148 H 1716.1 1.85536 2.33196 0
M  V30 18149 H 1713.64 0.925029 1.14375 0
M  V30 18150 H 1715.6 0.187949 4.16776 0
M  V30 18151 H 1714.23 -0.41825 3.20079 0
M  V30 18152 H 1713.28 2.00147 3.23489 0
M  V30 18153 H 1714.59 2.43531 4.35309 0
M  V30 18154 H 1713.75 0.768832 6.01809 0
M  V30 18155 H 1712.48 0.234324 4.87137 0
M  V30 18156 H 1711.49 2.53918 4.87653 0
M  V30 18157 H 1712.71 3.06989 6.05751 0
M  V30 18158 H 1710.66 0.870334 6.50201 0
M  V30 18159 H 1710.58 2.47882 7.14206 0
M  V30 18160 H 1711.85 1.41137 7.66616 0
M  V30 18161 N 1716.07 -1.22136 0.99602 0
M  V30 18162 C 1717.01 -2.22793 0.493816 0
M  V30 18163 C 1717.99 -1.56318 -0.447601 0
M  V30 18164 O 1719.17 -1.84784 -0.372419 0
M  V30 18165 C 1716.3 -3.37509 -0.283763 0
M  V30 18166 C 1715.34 -4.222 0.60411 0
M  V30 18167 S 1716.18 -4.9424 2.06125 0
M  V30 18168 C 1717.33 -6.12394 1.29325 0
M  V30 18169 H 1717.56 -2.65047 1.34675 0
M  V30 18170 H 1715.1 -1.31862 0.803237 0
M  V30 18171 H 1717.06 -4.04023 -0.726346 0
M  V30 18172 H 1715.72 -2.93757 -1.11201 0
M  V30 18173 H 1714.91 -5.04 0.00565269 0
M  V30 18174 H 1714.51 -3.60835 0.983588 0
M  V30 18175 H 1716.8 -6.75161 0.5625 0
M  V30 18176 H 1717.75 -6.76657 2.08664 0
M  V30 18177 H 1718.15 -5.58728 0.805166 0
M  V30 18178 N 1717.55 -0.769612 -1.37531 0
M  V30 18179 C 1718.46 -0.15514 -2.34086 0
M  V30 18180 C 1719.48 0.682108 -1.60073 0
M  V30 18181 O 1720.65 0.602527 -1.92176 0
M  V30 18182 C 1717.72 0.715344 -3.3924 0
M  V30 18183 C 1716.78 -0.138116 -4.29078 0
M  V30 18184 C 1716.01 0.690916 -5.29209 0
M  V30 18185 O 1716.24 1.92812 -5.36824 0
M  V30 18186 O 1715.17 0.101247 -6.01815 0
M  V30 18187 H 1719 -0.952968 -2.88361 0
M  V30 18188 H 1716.58 -0.530738 -1.39655 0
M  V30 18189 H 1718.46 1.21236 -4.03584 0
M  V30 18190 H 1717.14 1.4914 -2.87296 0
M  V30 18191 H 1716.05 -0.681443 -3.67841 0
M  V30 18192 H 1717.38 -0.877202 -4.8432 0
M  V30 18193 N 1719.03 1.48775 -0.519977 0
M  V30 18194 C 1720.28 2.0169 0.0196973 0
M  V30 18195 C 1720.59 1.40319 1.36272 0
M  V30 18196 O 1721.8 1.84673 1.99018 0
M  V30 18197 C 1720.25 3.59798 0.085525 0
M  V30 18198 C 1719.86 4.3015 -1.25199 0
M  V30 18199 C 1721.61 4.20594 0.574557 0
M  V30 18200 C 1719.51 5.80165 -1.14729 0
M  V30 18201 H 1718.44 0.753918 0.011133 0
M  V30 18202 H 1721.09 1.71133 -0.662254 0
M  V30 18203 H 1719.48 3.87154 0.832339 0
M  V30 18204 H 1720.65 4.14477 -2.01359 0
M  V30 18205 H 1718.97 3.81183 -1.67596 0
M  V30 18206 H 1721.56 5.30477 0.670698 0
M  V30 18207 H 1721.91 3.85235 1.57797 0
M  V30 18208 H 1722.44 3.9763 -0.116277 0
M  V30 18209 H 1719.18 6.20081 -2.12555 0
M  V30 18210 H 1718.7 5.98279 -0.426902 0
M  V30 18211 H 1720.38 6.41605 -0.83382 0
M  V30 18212 N 1720.51 0.254649 1.55529 0
M  V30 18213 C 1721.79 -0.418663 1.91067 0
M  V30 18214 C 1722.17 -1.75284 1.17638 0
M  V30 18215 O 1721.51 -2.26569 0.296411 0
M  V30 18216 C 1721.72 -0.579125 3.44162 0
M  V30 18217 C 1723.07 -0.871451 4.15561 0
M  V30 18218 O 1724.1 -0.664702 3.49943 0
M  V30 18219 O 1722.95 -1.26563 5.31643 0
M  V30 18220 H 1720.05 -0.22593 0.795541 0
M  V30 18221 H 1722.59 0.299288 1.6704 0
M  V30 18222 H 1721.37 0.36062 3.89635 0
M  V30 18223 H 1720.99 -1.34732 3.74076 0
M  V30 18224 N 1721.99 -1.57589 -0.0183649 0
M  V30 18225 C 1723.21 -1.94024 -0.718491 0
M  V30 18226 C 1723.63 -0.85529 -1.68316 0
M  V30 18227 O 1722.99 0.167403 -1.81731 0
M  V30 18228 C 1723.04 -3.30427 -1.4663 0
M  V30 18229 O 1722.76 -4.34755 -0.540345 0
M  V30 18230 C 1724.26 -3.81209 -2.26262 0
M  V30 18231 H 1721.48 -0.640101 -0.201275 0
M  V30 18232 H 1724.02 -2.04482 0.0272935 0
M  V30 18233 H 1722.18 -3.21333 -2.16388 0
M  V30 18234 H 1722.59 -5.13554 -1.06593 0
M  V30 18235 H 1724.07 -4.79131 -2.74112 0
M  V30 18236 H 1724.54 -3.12957 -3.08147 0
M  V30 18237 H 1725.15 -3.9342 -1.61558 0
M  V30 18238 N 1723.46 0.290824 -1.54893 0
M  V30 18239 C 1724.39 1.36354 -1.89551 0
M  V30 18240 C 1725.38 1.52403 -0.75546 0
M  V30 18241 O 1726.56 1.65743 -1.01208 0
M  V30 18242 C 1723.69 2.72609 -2.15178 0
M  V30 18243 C 1722.64 2.71313 -3.31019 0
M  V30 18244 C 1721.97 4.10952 -3.42085 0
M  V30 18245 C 1723.27 2.32153 -4.6787 0
M  V30 18246 H 1724.96 1.07597 -2.79398 0
M  V30 18247 H 1722.51 0.516154 -1.34432 0
M  V30 18248 H 1724.46 3.47749 -2.3801 0
M  V30 18249 H 1723.19 3.02913 -1.22112 0
M  V30 18250 H 1721.85 1.9863 -3.08126 0
M  V30 18251 H 1721.49 4.38449 -2.46518 0
M  V30 18252 H 1721.19 4.10984 -4.1996 0
M  V30 18253 H 1722.72 4.87857 -3.67189 0
M  V30 18254 H 1724.13 2.97011 -4.90364 0
M  V30 18255 H 1722.53 2.4338 -5.48531 0
M  V30 18256 H 1723.6 1.27279 -4.67897 0
M  V30 18257 N 1724.94 1.47523 0.554506 0
M  V30 18258 C 1725.89 1.5662 1.65693 0
M  V30 18259 C 1726.88 0.424914 1.55188 0
M  V30 18260 O 1728.07 0.674989 1.63624 0
M  V30 18261 C 1725.2 1.58607 3.04465 0
M  V30 18262 C 1724.28 2.78129 3.20164 0
M  V30 18263 N 1724.67 4.028 3.05918 0
M  V30 18264 C 1722.97 2.74947 3.5117 0
M  V30 18265 C 1723.67 4.82859 3.24379 0
M  V30 18266 N 1722.65 4.15228 3.50837 0
M  V30 18267 H 1726.45 2.50781 1.53252 0
M  V30 18268 H 1723.97 1.43554 0.759335 0
M  V30 18269 H 1725.96 1.63214 3.83623 0
M  V30 18270 H 1724.62 0.655437 3.18016 0
M  V30 18271 H 1725.63 4.33618 2.83189 0
M  V30 18272 H 1722.31 1.91034 3.71231 0
M  V30 18273 H 1723.7 5.91716 3.1831 0
M  V30 18274 N 1726.42 -0.801453 1.357 0
M  V30 18275 C 1727.7 -1.54605 1.19819 0
M  V30 18276 C 1728.08 -2.09944 -0.220593 0
M  V30 18277 O 1727.43 -1.92904 -1.22475 0
M  V30 18278 C 1727.64 -2.65052 2.27043 0
M  V30 18279 C 1728.98 -3.33255 2.63109 0
M  V30 18280 O 1730.01 -2.75326 2.25995 0
M  V30 18281 O 1728.87 -4.37917 3.26942 0
M  V30 18282 H 1725.96 -0.68334 0.465807 0
M  V30 18283 H 1728.51 -0.840972 1.47397 0
M  V30 18284 H 1727.28 -2.22068 3.22182 0
M  V30 18285 H 1726.9 -3.4319 2.00764 0
M  V30 18286 N 1727.9 -1.19782 -1.02421 0
M  V30 18287 C 1728.83 -0.963553 -2.12692 0
M  V30 18288 C 1729.81 0.104769 -1.69777 0
M  V30 18289 O 1730.99 -0.0512017 -1.94132 0
M  V30 18290 C 1728.12 -0.506525 -3.43586 0
M  V30 18291 C 1727.08 -1.51722 -4.00206 0
M  V30 18292 C 1726.4 -0.917097 -5.26776 0
M  V30 18293 C 1727.7 -2.89879 -4.34474 0
M  V30 18294 H 1729.4 -1.88579 -2.32547 0
M  V30 18295 H 1726.94 -0.908111 -1.11756 0
M  V30 18296 H 1728.9 -0.329907 -4.20107 0
M  V30 18297 H 1727.62 0.451322 -3.23467 0
M  V30 18298 H 1726.28 -1.68106 -3.25785 0
M  V30 18299 H 1725.93 0.0484457 -5.02977 0
M  V30 18300 H 1725.63 -1.59204 -5.65622 0
M  V30 18301 H 1727.15 -0.751379 -6.05959 0
M  V30 18302 H 1728.57 -2.7705 -5.01913 0
M  V30 18303 H 1726.96 -3.54209 -4.84413 0
M  V30 18304 H 1728.03 -3.42179 -3.43571 0
M  V30 18305 N 1729.38 1.21606 -1.00248 0
M  V30 18306 C 1730.6 1.95149 -0.702249 0
M  V30 18307 C 1731.03 1.73429 0.728293 0
M  V30 18308 O 1730.39 1.01953 1.49917 0
M  V30 18309 C 1730.43 3.45705 -1.0257 0
M  V30 18310 O 1729.54 4.12196 -0.129575 0
M  V30 18311 H 1728.88 0.610173 -0.261888 0
M  V30 18312 H 1731.41 1.54435 -1.34205 0
M  V30 18313 H 1731.42 3.96265 -0.97151 0
M  V30 18314 H 1730.09 3.60838 -2.06806 0
M  V30 18315 H 1728.67 3.72126 -0.240074 0
M  V30 18316 N 1730.86 0.776895 1.37121 0
M  V30 18317 C 1732.27 0.457116 1.52914 0
M  V30 18318 C 1732.47 -1.0265 1.73394 0
M  V30 18319 O 1731.53 -1.81224 1.75824 0
M  V30 18320 C 1732.84 1.27667 2.72253 0
M  V30 18321 C 1734.39 1.26909 2.86117 0
M  V30 18322 C 1734.86 2.0721 4.08446 0
M  V30 18323 N 1736.35 2.04591 4.15568 0
M  V30 18324 C 1737.09 2.63502 5.09268 0
M  V30 18325 N 1736.59 3.31222 6.08493 0
M  V30 18326 N 1738.38 2.53304 5.0179 0
M  V30 18327 H 1730.53 1.73811 1.2208 0
M  V30 18328 H 1732.79 0.738142 0.594853 0
M  V30 18329 H 1732.5 2.32825 2.63601 0
M  V30 18330 H 1732.37 0.909363 3.66074 0
M  V30 18331 H 1734.76 0.225476 2.94237 0
M  V30 18332 H 1734.84 1.67607 1.9324 0
M  V30 18333 H 1734.48 3.11595 4.01087 0
M  V30 18334 H 1734.41 1.63891 5.00447 0
M  V30 18335 H 1736.91 1.55293 3.44518 0
M  V30 18336 H 1737.22 3.73535 6.76529 0
M  V30 18337 H 1735.56 3.35322 6.08756 0
M  V30 18338 H 1738.75 2.00009 4.23218 0
M  V30 18339 H 1738.93 2.99509 5.74629 0
M  V30 18340 N 1732.33 -1.48497 0.527859 0
M  V30 18341 C 1733.28 -2.2959 -0.23607 0
M  V30 18342 C 1734.25 -1.37232 -0.935762 0
M  V30 18343 O 1735.44 -1.66196 -0.937202 0
M  V30 18344 C 1732.58 -3.20551 -1.27832 0
M  V30 18345 C 1731.69 -4.27984 -0.58769 0
M  V30 18346 C 1730.82 -5.06128 -1.61269 0
M  V30 18347 C 1729.86 -6.05367 -0.905404 0
M  V30 18348 N 1729 -6.76577 -1.87585 0
M  V30 18349 H 1733.84 -2.94403 0.461635 0
M  V30 18350 H 1731.38 -1.45137 0.239493 0
M  V30 18351 H 1733.33 -3.71686 -1.89488 0
M  V30 18352 H 1731.96 -2.57665 -1.94444 0
M  V30 18353 H 1731.02 -3.80132 0.142759 0
M  V30 18354 H 1732.33 -4.9879 -0.0322348 0
M  V30 18355 H 1731.48 -5.61266 -2.30359 0
M  V30 18356 H 1730.22 -4.35157 -2.20204 0
M  V30 18357 H 1729.23 -5.49435 -0.200426 0
M  V30 18358 H 1730.45 -6.78335 -0.322197 0
M  V30 18359 H 1728.4 -6.08358 -2.45432 0
M  V30 18360 H 1728.31 -7.4345 -1.37178 0
M  V30 18361 H 1729.58 -7.36305 -2.5588 0
M  V30 18362 N 1733.81 -0.262893 -1.55392 0
M  V30 18363 C 1735.06 0.357366 -1.99322 0
M  V30 18364 C 1735.39 1.56772 -1.15121 0
M  V30 18365 O 1734.64 1.94614 -0.205867 0
M  V30 18366 C 1734.94 0.795313 -3.48439 0
M  V30 18367 C 1734.61 -0.309047 -4.4984 0
M  V30 18368 C 1733.27 -0.612317 -4.77288 0
M  V30 18369 C 1735.62 -1.05382 -5.10435 0
M  V30 18370 C 1732.95 -1.66415 -5.62604 0
M  V30 18371 C 1735.3 -2.09528 -5.96892 0
M  V30 18372 C 1733.96 -2.40503 -6.22667 0
M  V30 18373 H 1733.23 0.13077 -0.72937 0
M  V30 18374 H 1735.88 -0.374057 -1.87811 0
M  V30 18375 H 1734.19 1.60621 -3.57363 0
M  V30 18376 H 1735.88 1.28577 -3.79828 0
M  V30 18377 H 1732.47 -0.0625469 -4.28554 0
M  V30 18378 H 1736.66 -0.832773 -4.89263 0
M  V30 18379 H 1731.91 -1.90929 -5.80824 0
M  V30 18380 H 1736.09 -2.67719 -6.42884 0
M  V30 18381 H 1733.71 -3.22143 -6.88569 0
M  V30 18382 N 1735.29 1.57597 0.0100073 0
M  V30 18383 C 1736.22 2.10825 1.00375 0
M  V30 18384 C 1737.2 1.01507 1.36493 0
M  V30 18385 O 1738.39 1.29136 1.45043 0
M  V30 18386 C 1735.52 2.60334 2.29878 0
M  V30 18387 C 1734.47 3.74087 2.07949 0
M  V30 18388 C 1733.8 4.09873 3.43378 0
M  V30 18389 C 1735.1 5.01764 1.45018 0
M  V30 18390 H 1736.79 2.94105 0.560591 0
M  V30 18391 H 1734.34 1.4148 0.268208 0
M  V30 18392 H 1736.29 2.96196 2.99743 0
M  V30 18393 H 1735.01 1.74162 2.76288 0
M  V30 18394 H 1733.67 3.38603 1.40512 0
M  V30 18395 H 1733.32 3.20739 3.87473 0
M  V30 18396 H 1733.02 4.86505 3.29525 0
M  V30 18397 H 1734.54 4.48285 4.14575 0
M  V30 18398 H 1735.96 5.35462 2.04826 0
M  V30 18399 H 1734.35 5.83135 1.41683 0
M  V30 18400 H 1735.42 4.83093 0.41819 0
M  V30 18401 N 1736.77 -0.282606 1.55045 0
M  V30 18402 C 1738.18 -0.854338 1.66006 0
M  V30 18403 C 1738.53 -1.87408 0.580753 0
M  V30 18404 O 1737.65 -2.14588 -0.279449 0
M  V30 18405 C 1738.25 -1.55637 3.00936 0
M  V30 18406 C 1736.81 -2.07626 3.13956 0
M  V30 18407 C 1735.96 -0.915064 2.61767 0
M  V30 18408 H 1738.91 -0.0591711 1.5859 0
M  V30 18409 H 1738.93 -2.42289 2.93388 0
M  V30 18410 H 1738.44 -0.813942 3.79469 0
M  V30 18411 H 1736.54 -2.84859 2.40179 0
M  V30 18412 H 1736.65 -2.29816 4.20382 0
M  V30 18413 H 1735.02 -1.30577 2.18682 0
M  V30 18414 H 1735.8 -0.186298 3.42794 0
M  V30 18415 N 1738.25 -1.47815 -0.546675 0
M  V30 18416 C 1739.18 -1.63976 -1.66235 0
M  V30 18417 C 1740.16 -0.488945 -1.62921 0
M  V30 18418 O 1741.34 -0.719532 -1.80378 0
M  V30 18419 C 1738.47 -1.6637 -3.04858 0
M  V30 18420 C 1737.43 -2.80785 -3.23023 0
M  V30 18421 C 1736.75 -2.68257 -4.62539 0
M  V30 18422 C 1738.05 -4.22267 -3.07388 0
M  V30 18423 H 1739.75 -2.57375 -1.52965 0
M  V30 18424 H 1737.29 -1.23861 -0.734465 0
M  V30 18425 H 1739.24 -1.76266 -3.82764 0
M  V30 18426 H 1737.97 -0.695386 -3.19111 0
M  V30 18427 H 1736.63 -2.70417 -2.47529 0
M  V30 18428 H 1736.28 -1.69431 -4.73606 0
M  V30 18429 H 1735.98 -3.45022 -4.75641 0
M  V30 18430 H 1737.5 -2.80097 -5.42566 0
M  V30 18431 H 1738.91 -4.33557 -3.75102 0
M  V30 18432 H 1737.31 -4.999 -3.31994 0
M  V30 18433 H 1738.38 -4.39897 -2.04006 0
M  V30 18434 N 1739.72 0.794246 -1.36123 0
M  V30 18435 C 1740.95 1.58068 -1.33035 0
M  V30 18436 C 1741.36 1.88979 0.0915079 0
M  V30 18437 O 1740.7 1.50212 1.05745 0
M  V30 18438 C 1740.77 2.93087 -2.08184 0
M  V30 18439 C 1740.43 2.84929 -3.57302 0
M  V30 18440 C 1741.43 2.57507 -4.51648 0
M  V30 18441 C 1739.11 3.03657 -4.00122 0
M  V30 18442 C 1741.11 2.48908 -5.86791 0
M  V30 18443 C 1738.79 2.94681 -5.35356 0
M  V30 18444 C 1739.79 2.67344 -6.28503 0
M  V30 18445 O 1739.48 2.58353 -7.61255 0
M  V30 18446 H 1739.21 0.497096 -0.458118 0
M  V30 18447 H 1741.77 0.994066 -1.79743 0
M  V30 18448 H 1740 3.53779 -1.56131 0
M  V30 18449 H 1741.68 3.54323 -1.98015 0
M  V30 18450 H 1742.45 2.42744 -4.19881 0
M  V30 18451 H 1738.33 3.23943 -3.27997 0
M  V30 18452 H 1741.87 2.27491 -6.59465 0
M  V30 18453 H 1737.77 3.09005 -5.66733 0
M  V30 18454 H 1738.54 2.7387 -7.71322 0
M  V30 18455 N 1741.2 1.20323 1.01785 0
M  V30 18456 C 1742.16 0.9527 2.08462 0
M  V30 18457 C 1743.16 -0.0712564 1.60642 0
M  V30 18458 O 1744.35 0.164672 1.7342 0
M  V30 18459 C 1741.49 0.434052 3.38125 0
M  V30 18460 H 1742.68 1.89895 2.32121 0
M  V30 18461 H 1740.23 1.01843 1.18565 0
M  V30 18462 H 1740.97 -0.51772 3.20141 0
M  V30 18463 H 1740.75 1.17248 3.74159 0
M  V30 18464 H 1742.24 0.278215 4.16672 0
M  V30 18465 N 1742.68 -1.21073 1.00892 0
M  V30 18466 C 1743.9 -1.94774 0.712588 0
M  V30 18467 C 1744.33 -1.73812 -0.719085 0
M  V30 18468 O 1743.69 -1.02747 -1.49374 0
M  V30 18469 C 1743.74 -3.45156 1.04402 0
M  V30 18470 O 1742.84 -4.12122 0.151433 0
M  V30 18471 H 1742.18 -0.608775 0.26512 0
M  V30 18472 H 1744.71 -1.53721 1.35022 0
M  V30 18473 H 1744.72 -3.95744 0.992511 0
M  V30 18474 H 1743.4 -3.59736 2.08716 0
M  V30 18475 H 1741.97 -3.71994 0.259805 0
M  V30 18476 N 1744.16 -0.784156 -1.36707 0
M  V30 18477 C 1745.07 -0.179959 -2.33909 0
M  V30 18478 C 1746.08 0.665092 -1.60787 0
M  V30 18479 O 1747.26 0.582111 -1.92804 0
M  V30 18480 C 1744.33 0.679323 -3.3998 0
M  V30 18481 C 1743.39 -0.183618 -4.28907 0
M  V30 18482 C 1742.62 0.634747 -5.29912 0
M  V30 18483 O 1742.84 1.87107 -5.38839 0
M  V30 18484 O 1741.78 0.0374113 -6.01888 0
M  V30 18485 H 1745.6 -0.983499 -2.87334 0
M  V30 18486 H 1743.19 -0.545521 -1.39084 0
M  V30 18487 H 1745.07 1.16948 -4.04847 0
M  V30 18488 H 1743.74 1.46084 -2.88862 0
M  V30 18489 H 1742.65 -0.720419 -3.67098 0
M  V30 18490 H 1743.98 -0.928522 -4.83363 0
M  V30 18491 N 1745.64 1.48215 -0.535727 0
M  V30 18492 C 1746.6 2.28206 0.213212 0
M  V30 18493 C 1747.6 1.3571 0.862522 0
M  V30 18494 O 1748.79 1.58547 0.721688 0
M  V30 18495 C 1745.92 3.1476 1.30917 0
M  V30 18496 H 1747.11 2.95884 -0.489163 0
M  V30 18497 H 1744.67 1.53551 -0.291872 0
M  V30 18498 H 1745.4 2.51726 2.04462 0
M  V30 18499 H 1745.19 3.82806 0.848633 0
M  V30 18500 H 1746.68 3.75085 1.83579 0
M  V30 18501 N 1747.11 0.27113 1.5525 0
M  V30 18502 C 1748.06 -0.618069 2.2237 0
M  V30 18503 C 1749.03 -1.15282 1.19579 0
M  V30 18504 O 1750.22 -1.20285 1.48108 0
M  V30 18505 C 1747.36 -1.79821 2.94548 0
M  V30 18506 C 1746.47 -1.29769 4.12049 0
M  V30 18507 C 1745.6 -2.43931 4.7188 0
M  V30 18508 C 1744.64 -1.90862 5.81582 0
M  V30 18509 N 1743.78 -2.98482 6.35494 0
M  V30 18510 H 1748.62 -0.0390456 2.97974 0
M  V30 18511 H 1746.16 -0.00750636 1.47098 0
M  V30 18512 H 1748.12 -2.49184 3.34609 0
M  V30 18513 H 1746.75 -2.34933 2.21374 0
M  V30 18514 H 1745.8 -0.497288 3.77136 0
M  V30 18515 H 1747.11 -0.868957 4.91173 0
M  V30 18516 H 1746.26 -3.21295 5.1464 0
M  V30 18517 H 1745 -2.90118 3.92024 0
M  V30 18518 H 1744.01 -1.11977 5.38276 0
M  V30 18519 H 1745.23 -1.45616 6.63304 0
M  V30 18520 H 1743.18 -3.44058 5.58534 0
M  V30 18521 H 1743.1 -2.60014 7.09879 0
M  V30 18522 H 1744.36 -3.75833 6.82913 0
M  V30 18523 N 1748.59 -1.576 -0.00164943 0
M  V30 18524 C 1750.01 -1.5554 -0.357706 0
M  V30 18525 C 1750.21 -1.00078 -1.74891 0
M  V30 18526 O 1749.26 -0.633864 -2.44414 0
M  V30 18527 C 1750.58 -2.99785 -0.234448 0
M  V30 18528 C 1752.13 -3.11466 -0.309509 0
M  V30 18529 C 1752.6 -4.57493 -0.215394 0
M  V30 18530 N 1754.09 -4.62393 -0.273345 0
M  V30 18531 C 1754.83 -5.72963 -0.223836 0
M  V30 18532 N 1754.32 -6.92687 -0.12502 0
M  V30 18533 N 1756.12 -5.61424 -0.27558 0
M  V30 18534 H 1748.27 -1.91992 0.908448 0
M  V30 18535 H 1750.53 -0.88179 0.348067 0
M  V30 18536 H 1750.24 -3.44195 0.722671 0
M  V30 18537 H 1750.11 -3.63226 -1.01718 0
M  V30 18538 H 1752.5 -2.66986 -1.25707 0
M  V30 18539 H 1752.58 -2.50805 0.503064 0
M  V30 18540 H 1752.22 -5.02647 0.728617 0
M  V30 18541 H 1752.15 -5.16098 -1.04643 0
M  V30 18542 H 1754.64 -3.76265 -0.351116 0
M  V30 18543 H 1754.96 -7.72744 -0.0930938 0
M  V30 18544 H 1753.3 -6.94941 -0.0906712 0
M  V30 18545 H 1756.49 -4.66782 -0.350963 0
M  V30 18546 H 1756.66 -6.47579 -0.233531 0
M  V30 18547 N 1750.07 0.274379 -1.55193 0
M  V30 18548 C 1751.32 1.00394 -1.7494 0
M  V30 18549 C 1751.63 1.87499 -0.557084 0
M  V30 18550 O 1752.84 2.63923 -0.636936 0
M  V30 18551 C 1751.29 1.83489 -3.09612 0
M  V30 18552 C 1750.9 1.01257 -4.36407 0
M  V30 18553 C 1752.65 2.55883 -3.38709 0
M  V30 18554 C 1750.55 1.83782 -5.62119 0
M  V30 18555 H 1749.48 0.378561 -0.65208 0
M  V30 18556 H 1752.13 0.259678 -1.81653 0
M  V30 18557 H 1750.52 2.62005 -2.96933 0
M  V30 18558 H 1751.69 0.27167 -4.59998 0
M  V30 18559 H 1750.01 0.403235 -4.14443 0
M  V30 18560 H 1752.6 3.18028 -4.2984 0
M  V30 18561 H 1752.95 3.26096 -2.58779 0
M  V30 18562 H 1753.48 1.84398 -3.5248 0
M  V30 18563 H 1750.22 1.17992 -6.44793 0
M  V30 18564 H 1749.74 2.55473 -5.42673 0
M  V30 18565 H 1751.42 2.41181 -6.00367 0
M  V30 18566 N 1751.55 1.48103 0.538828 0
M  V30 18567 C 1752.5 1.61966 1.64425 0
M  V30 18568 C 1753.47 0.461999 1.59546 0
M  V30 18569 O 1754.65 0.684377 1.78104 0
M  V30 18570 C 1751.79 1.65711 3.02711 0
M  V30 18571 C 1750.9 2.92522 3.17891 0
M  V30 18572 C 1750.04 2.87485 4.46683 0
M  V30 18573 C 1749.08 4.0904 4.5536 0
M  V30 18574 N 1748.21 4.02131 5.7553 0
M  V30 18575 H 1753.05 2.5637 1.51916 0
M  V30 18576 H 1750.59 1.27146 0.739745 0
M  V30 18577 H 1752.55 1.65864 3.82812 0
M  V30 18578 H 1751.18 0.748045 3.14013 0
M  V30 18579 H 1750.23 3.02154 2.311 0
M  V30 18580 H 1751.54 3.82487 3.20165 0
M  V30 18581 H 1750.7 2.8599 5.35065 0
M  V30 18582 H 1749.44 1.95234 4.46917 0
M  V30 18583 H 1748.44 4.10819 3.65387 0
M  V30 18584 H 1749.67 5.02439 4.56872 0
M  V30 18585 H 1747.61 3.12695 5.76678 0
M  V30 18586 H 1747.53 4.85791 5.7926 0
M  V30 18587 H 1748.8 4.04682 6.66223 0
M  V30 18588 N 1753.03 -0.787016 1.36542 0
M  V30 18589 C 1754.25 -1.57588 1.34065 0
M  V30 18590 C 1754.67 -1.88641 -0.0775397 0
M  V30 18591 O 1754.03 -1.50306 -1.03511 0
M  V30 18592 C 1754.08 -2.89543 2.16442 0
M  V30 18593 O 1753.8 -2.59828 3.52734 0
M  V30 18594 C 1755.3 -3.83838 2.21773 0
M  V30 18595 H 1752.52 -0.488708 0.459789 0
M  V30 18596 H 1755.06 -0.976614 1.79673 0
M  V30 18597 H 1753.22 -3.45933 1.74383 0
M  V30 18598 H 1753.63 -3.44219 3.95744 0
M  V30 18599 H 1755.11 -4.73478 2.83765 0
M  V30 18600 H 1755.58 -4.21862 1.22185 0
M  V30 18601 H 1756.19 -3.33381 2.64078 0
M  V30 18602 N 1754.5 -1.20861 -1.01145 0
M  V30 18603 C 1755.43 -0.986058 -2.11658 0
M  V30 18604 C 1756.42 0.0867558 -1.69879 0
M  V30 18605 O 1757.6 -0.0717892 -1.94067 0
M  V30 18606 C 1754.73 -0.542938 -3.4303 0
M  V30 18607 C 1753.68 -1.55958 -3.98574 0
M  V30 18608 C 1753.01 -0.972917 -5.25774 0
M  V30 18609 C 1754.31 -2.94471 -4.31375 0
M  V30 18610 H 1756 -1.91035 -2.30534 0
M  V30 18611 H 1753.55 -0.919914 -1.10786 0
M  V30 18612 H 1755.5 -0.374446 -4.19733 0
M  V30 18613 H 1754.23 0.416988 -3.23927 0
M  V30 18614 H 1752.89 -1.71552 -3.23984 0
M  V30 18615 H 1752.53 -0.00490446 -5.03 0
M  V30 18616 H 1752.23 -1.65194 -5.63901 0
M  V30 18617 H 1753.76 -0.815607 -6.05128 0
M  V30 18618 H 1755.17 -2.82358 -4.98946 0
M  V30 18619 H 1753.57 -3.59327 -4.80629 0
M  V30 18620 H 1754.64 -3.45804 -3.39923 0
M  V30 18621 N 1755.98 1.20536 -1.01532 0
M  V30 18622 C 1757.21 1.93571 -0.722055 0
M  V30 18623 C 1757.62 1.74923 0.721011 0
M  V30 18624 O 1756.96 1.05961 1.5006 0
M  V30 18625 C 1757.03 3.45989 -0.97632 0
M  V30 18626 C 1756.69 3.88397 -2.40825 0
M  V30 18627 C 1757.69 3.94262 -3.38901 0
M  V30 18628 C 1755.37 4.20422 -2.74865 0
M  V30 18629 C 1757.37 4.3156 -4.69078 0
M  V30 18630 C 1755.05 4.57395 -4.05256 0
M  V30 18631 C 1756.05 4.62937 -5.02174 0
M  V30 18632 O 1755.74 4.99063 -6.30232 0
M  V30 18633 H 1755.47 0.622101 -0.264511 0
M  V30 18634 H 1758.02 1.5401 -1.35905 0
M  V30 18635 H 1756.25 3.85669 -0.282161 0
M  V30 18636 H 1757.94 4.00251 -0.674832 0
M  V30 18637 H 1758.71 3.69686 -3.13938 0
M  V30 18638 H 1754.59 4.153 -2.00117 0
M  V30 18639 H 1758.13 4.358 -5.44724 0
M  V30 18640 H 1754.03 4.81427 -4.29998 0
M  V30 18641 H 1754.8 5.1706 -6.34501 0
M  V30 18642 N 1757.46 0.791395 1.36289 0
M  V30 18643 C 1758.71 0.361277 1.98438 0
M  V30 18644 C 1759.02 -1.07343 1.63514 0
M  V30 18645 O 1760.23 -1.60591 2.18913 0
M  V30 18646 C 1758.68 0.595005 3.54947 0
M  V30 18647 C 1758.29 2.04125 3.98794 0
M  V30 18648 C 1760.04 0.22949 4.23879 0
M  V30 18649 C 1757.94 2.22154 5.48089 0
M  V30 18650 H 1756.87 0.131343 0.742472 0
M  V30 18651 H 1759.52 0.973308 1.5556 0
M  V30 18652 H 1757.91 -0.0867658 3.95905 0
M  V30 18653 H 1759.08 2.75959 3.6903 0
M  V30 18654 H 1757.4 2.3652 3.42706 0
M  V30 18655 H 1759.99 0.342442 5.33602 0
M  V30 18656 H 1760.34 -0.822622 4.08091 0
M  V30 18657 H 1760.87 0.864575 3.88291 0
M  V30 18658 H 1757.61 3.25755 5.68827 0
M  V30 18659 H 1757.13 1.54827 5.79473 0
M  V30 18660 H 1758.81 2.02964 6.14341 0
M  V30 18661 N 1758.94 -1.47929 0.54358 0
M  V30 18662 C 1759.89 -2.29827 -0.211706 0
M  V30 18663 C 1760.86 -1.38217 -0.921154 0
M  V30 18664 O 1762.04 -1.67181 -0.919522 0
M  V30 18665 C 1759.18 -3.21889 -1.24425 0
M  V30 18666 C 1758.29 -4.28583 -0.542264 0
M  V30 18667 C 1757.43 -5.0781 -1.55892 0
M  V30 18668 C 1756.47 -6.06293 -0.841146 0
M  V30 18669 N 1755.61 -6.78528 -1.80399 0
M  V30 18670 H 1760.45 -2.93896 0.492835 0
M  V30 18671 H 1757.98 -1.44875 0.254873 0
M  V30 18672 H 1759.94 -3.73674 -1.85535 0
M  V30 18673 H 1758.57 -2.59713 -1.917 0
M  V30 18674 H 1757.62 -3.79959 0.183069 0
M  V30 18675 H 1758.93 -4.98796 0.0206703 0
M  V30 18676 H 1758.09 -5.63678 -2.24393 0
M  V30 18677 H 1756.83 -4.37468 -2.15576 0
M  V30 18678 H 1755.83 -5.49616 -0.14214 0
M  V30 18679 H 1757.06 -6.78639 -0.250232 0
M  V30 18680 H 1755 -6.10927 -2.38965 0
M  V30 18681 H 1754.92 -7.44863 -1.29285 0
M  V30 18682 H 1756.19 -7.38978 -2.48056 0
M  V30 18683 N 1760.42 -0.27936 -1.55104 0
M  V30 18684 C 1761.66 0.337344 -2.01597 0
M  V30 18685 C 1762.02 1.52732 -1.16348 0
M  V30 18686 O 1763.22 2.21394 -1.5244 0
M  V30 18687 C 1761.49 0.705839 -3.50361 0
M  V30 18688 S 1763.05 1.30847 -4.18837 0
M  V30 18689 H 1759.87 0.104703 -0.703248 0
M  V30 18690 H 1762.47 -0.402184 -1.91318 0
M  V30 18691 H 1761.18 -0.169038 -4.10052 0
M  V30 18692 H 1760.71 1.47672 -3.64632 0
M  V30 18693 H 1762.72 2.59696 -4.22815 0
M  V30 18694 N 1761.9 1.57599 -0.0067085 0
M  V30 18695 C 1763.17 1.82097 0.714141 0
M  V30 18696 C 1763.55 0.885868 1.91613 0
M  V30 18697 O 1762.9 -0.0638506 2.28411 0
M  V30 18698 C 1763.11 3.30759 1.11354 0
M  V30 18699 C 1764.46 3.96668 1.51459 0
M  V30 18700 O 1765.48 3.35121 1.20715 0
M  V30 18701 O 1764.34 5.051 2.08654 0
M  V30 18702 H 1761.44 0.750071 0.348314 0
M  V30 18703 H 1763.98 1.69669 -0.0326766 0
M  V30 18704 H 1762.75 3.90455 0.257068 0
M  V30 18705 H 1762.38 3.48211 1.91924 0
M  V30 18706 N 1763.37 -0.266145 1.55336 0
M  V30 18707 C 1764.32 -1.349 1.89485 0
M  V30 18708 C 1765.32 -1.50792 0.771882 0
M  V30 18709 O 1766.52 -1.52495 0.956302 0
M  V30 18710 H 1762.9 -0.451312 0.601516 0
M  V30 18711 H 1764.87 -1.03354 2.7993 0
M  V30 18712 C 1763.62 -2.70119 2.18931 0
M  V30 18713 H 1762.94 -2.58684 3.04832 0
M  V30 18714 H 1764.38 -3.44811 2.46742 0
M  V30 18715 C 1762.84 -3.21742 0.999177 0
M  V30 18716 O 1763.37 -4.00998 0.237304 0
M  V30 18717 N 1761.57 -2.79514 0.795013 0
M  V30 18718 H 1761.12 -2.15175 1.41625 0
M  V30 18719 H 1761.08 -3.144 0.000343733 0
M  V30 18720 N 1764.85 -1.48386 -0.530967 0
M  V30 18721 C 1766.1 -1.55608 -1.28332 0
M  V30 18722 C 1766.41 -0.234479 -1.94189 0
M  V30 18723 O 1767.62 -0.184926 -2.70869 0
M  V30 18724 C 1766.08 -2.74423 -2.32852 0
M  V30 18725 C 1765.68 -4.13221 -1.73068 0
M  V30 18726 C 1767.43 -2.90956 -3.09103 0
M  V30 18727 C 1765.33 -5.23299 -2.75522 0
M  V30 18728 H 1764.26 -0.579291 -0.482637 0
M  V30 18729 H 1766.92 -1.74718 -0.560885 0
M  V30 18730 H 1765.3 -2.48745 -3.08126 0
M  V30 18731 H 1766.47 -4.48913 -1.03989 0
M  V30 18732 H 1764.79 -4.01796 -1.09312 0
M  V30 18733 H 1767.38 -3.70363 -3.85662 0
M  V30 18734 H 1767.73 -2.00376 -3.64905 0
M  V30 18735 H 1768.26 -3.1653 -2.40943 0
M  V30 18736 H 1765 -6.15842 -2.24542 0
M  V30 18737 H 1764.52 -4.92095 -3.42932 0
M  V30 18738 H 1766.2 -5.5137 -3.38526 0
M  V30 18739 N 1766.33 0.779763 -1.36958 0
M  V30 18740 C 1767.58 1.53326 -1.31049 0
M  V30 18741 C 1767.89 1.95317 0.105139 0
M  V30 18742 O 1769.1 2.69983 0.286652 0
M  V30 18743 C 1767.55 2.76832 -2.29983 0
M  V30 18744 C 1767.16 2.41972 -3.77033 0
M  V30 18745 C 1768.91 3.54794 -2.3307 0
M  V30 18746 C 1766.81 3.61931 -4.67718 0
M  V30 18747 H 1765.74 0.57561 -0.48702 0
M  V30 18748 H 1768.39 0.854801 -1.62374 0
M  V30 18749 H 1766.78 3.46527 -1.91665 0
M  V30 18750 H 1767.95 1.80112 -4.24142 0
M  V30 18751 H 1766.26 1.77201 -3.76814 0
M  V30 18752 H 1768.86 4.4394 -2.98029 0
M  V30 18753 H 1769.2 3.94077 -1.34199 0
M  V30 18754 H 1769.74 2.92088 -2.70054 0
M  V30 18755 H 1766.48 3.27736 -5.67688 0
M  V30 18756 H 1766 4.22923 -4.25319 0
M  V30 18757 H 1767.68 4.28842 -4.84462 0
M  V30 18758 N 1767.81 1.21396 1.00503 0
M  V30 18759 C 1768.75 0.973198 2.09279 0
M  V30 18760 C 1769.72 -0.100797 1.65794 0
M  V30 18761 O 1770.91 0.0463185 1.90744 0
M  V30 18762 C 1768.05 0.543941 3.40786 0
M  V30 18763 C 1767.16 1.68737 3.97683 0
M  V30 18764 C 1766.3 1.20728 5.17299 0
M  V30 18765 C 1765.34 2.32305 5.66305 0
M  V30 18766 N 1764.47 1.8543 6.77171 0
M  V30 18767 H 1769.31 1.90441 2.29208 0
M  V30 18768 H 1766.85 0.949082 1.12387 0
M  V30 18769 H 1768.81 0.276311 4.16284 0
M  V30 18770 H 1767.44 -0.350263 3.20894 0
M  V30 18771 H 1766.49 2.06964 3.19171 0
M  V30 18772 H 1767.8 2.5271 4.30045 0
M  V30 18773 H 1766.96 0.896312 6.00043 0
M  V30 18774 H 1765.7 0.3376 4.8653 0
M  V30 18775 H 1764.7 2.64205 4.82158 0
M  V30 18776 H 1765.93 3.19769 5.99103 0
M  V30 18777 H 1763.87 1.00806 6.48208 0
M  V30 18778 H 1763.79 2.62976 7.08788 0
M  V30 18779 H 1765.06 1.57366 7.6345 0
M  V30 18780 N 1769.29 -1.19996 1.0217 0
M  V30 18781 C 1770.22 -2.22392 0.55446 0
M  V30 18782 C 1771.23 -1.58636 -0.36586 0
M  V30 18783 O 1772.42 -1.77751 -0.163394 0
M  V30 18784 C 1769.52 -3.38235 -0.212234 0
M  V30 18785 C 1768.69 -4.31578 0.711253 0
M  V30 18786 C 1767.75 -5.26199 -0.00876314 0
M  V30 18787 O 1766.78 -5.65863 0.615435 0
M  V30 18788 N 1767.98 -5.66169 -1.28192 0
M  V30 18789 H 1770.74 -2.63107 1.43509 0
M  V30 18790 H 1768.31 -1.34589 0.899853 0
M  V30 18791 H 1770.3 -3.98542 -0.703282 0
M  V30 18792 H 1768.87 -2.96369 -0.994205 0
M  V30 18793 H 1768.09 -3.69161 1.38252 0
M  V30 18794 H 1769.38 -4.90861 1.33915 0
M  V30 18795 H 1768.77 -5.35966 -1.8099 0
M  V30 18796 H 1767.33 -6.28762 -1.7176 0
M  V30 18797 N 1770.76 -0.798611 -1.35867 0
M  V30 18798 C 1771.71 -0.201442 -2.29919 0
M  V30 18799 C 1772.68 0.659971 -1.52426 0
M  V30 18800 O 1773.87 0.606726 -1.80896 0
M  V30 18801 C 1771.01 0.650427 -3.38915 0
M  V30 18802 C 1770.12 -0.230539 -4.31384 0
M  V30 18803 C 1769.25 0.628575 -5.27468 0
M  V30 18804 C 1768.29 -0.253282 -6.11576 0
M  V30 18805 N 1767.43 0.565343 -6.9982 0
M  V30 18806 H 1772.27 -1.00892 -2.80401 0
M  V30 18807 H 1769.81 -0.509085 -1.3801 0
M  V30 18808 H 1771.76 1.15941 -4.00766 0
M  V30 18809 H 1770.39 1.42325 -2.8973 0
M  V30 18810 H 1769.45 -0.85756 -3.70608 0
M  V30 18811 H 1770.76 -0.909635 -4.90436 0
M  V30 18812 H 1769.91 1.203 -5.94653 0
M  V30 18813 H 1768.65 1.34127 -4.68894 0
M  V30 18814 H 1767.66 -0.84004 -5.43345 0
M  V30 18815 H 1768.88 -0.963713 -6.72227 0
M  V30 18816 H 1766.83 1.26216 -6.43743 0
M  V30 18817 H 1766.74 -0.0558752 -7.55979 0
M  V30 18818 H 1768.01 1.1233 -7.71364 0
M  V30 18819 N 1772.24 1.47639 -0.551417 0
M  V30 18820 C 1773.19 2.29936 0.199514 0
M  V30 18821 C 1774.16 1.38704 0.913811 0
M  V30 18822 O 1775.34 1.67666 0.910643 0
M  V30 18823 C 1772.48 3.22544 1.22717 0
M  V30 18824 C 1771.6 4.28865 0.519527 0
M  V30 18825 C 1770.73 5.0863 1.53197 0
M  V30 18826 C 1769.77 6.06731 0.808981 0
M  V30 18827 N 1768.91 6.79476 1.76798 0
M  V30 18828 H 1773.75 2.93631 -0.508414 0
M  V30 18829 H 1771.28 1.44738 -0.262553 0
M  V30 18830 H 1773.24 3.74653 1.83551 0
M  V30 18831 H 1771.87 2.60726 1.9032 0
M  V30 18832 H 1770.92 3.79857 -0.203217 0
M  V30 18833 H 1772.24 4.98778 -0.0471224 0
M  V30 18834 H 1771.39 5.6486 2.214 0
M  V30 18835 H 1770.13 4.38605 2.13253 0
M  V30 18836 H 1769.13 5.49684 0.112991 0
M  V30 18837 H 1770.36 6.78762 0.214239 0
M  V30 18838 H 1768.31 6.12185 2.35722 0
M  V30 18839 H 1768.22 7.45539 1.25333 0
M  V30 18840 H 1769.49 7.40283 2.44133 0
M  V30 18841 N 1773.72 0.287581 1.54954 0
M  V30 18842 C 1775.14 -0.0662092 1.59463 0
M  V30 18843 C 1775.34 -1.53556 1.30471 0
M  V30 18844 O 1774.39 -2.28632 1.07161 0
M  V30 18845 C 1775.71 0.319651 2.98996 0
M  V30 18846 C 1777.25 0.2673 3.11857 0
M  V30 18847 C 1777.73 0.627784 4.53677 0
M  V30 18848 N 1779.22 0.579808 4.59557 0
M  V30 18849 C 1779.95 0.831377 5.67341 0
M  V30 18850 N 1779.45 1.14821 6.83219 0
M  V30 18851 N 1781.24 0.759337 5.56947 0
M  V30 18852 H 1773.39 1.24534 1.72062 0
M  V30 18853 H 1775.66 0.503969 0.802944 0
M  V30 18854 H 1775.36 1.34201 3.25089 0
M  V30 18855 H 1775.24 -0.333373 3.75724 0
M  V30 18856 H 1777.62 -0.745794 2.8552 0
M  V30 18857 H 1777.71 0.954759 2.37314 0
M  V30 18858 H 1777.35 1.63862 4.80741 0
M  V30 18859 H 1777.28 -0.0816007 5.26537 0
M  V30 18860 H 1779.77 0.34531 3.76319 0
M  V30 18861 H 1780.08 1.32651 7.6133 0
M  V30 18862 H 1778.43 1.18612 6.84804 0
M  V30 18863 H 1781.62 0.511563 4.65296 0
M  V30 18864 H 1781.79 0.95877 6.40868 0
M  V30 18865 N 1775.2 -1.57593 0.0150662 0
M  V30 18866 C 1776.44 -1.93075 -0.670923 0
M  V30 18867 C 1776.8 -0.890626 -1.70094 0
M  V30 18868 O 1778 -1.13118 -2.4384 0
M  V30 18869 C 1776.27 -3.33544 -1.28388 0
M  V30 18870 S 1777.83 -3.90934 -1.9929 0
M  V30 18871 H 1774.65 -0.675698 -0.221253 0
M  V30 18872 H 1777.25 -1.95355 0.075366 0
M  V30 18873 H 1775.96 -4.07072 -0.521599 0
M  V30 18874 H 1775.49 -3.34674 -2.06778 0
M  V30 18875 H 1777.5 -3.73229 -3.26978 0
M  V30 18876 N 1776.68 0.257904 -1.55475 0
M  V30 18877 C 1777.59 1.34084 -1.92506 0
M  V30 18878 C 1778.6 1.53246 -0.824123 0
M  V30 18879 O 1779.78 1.67081 -1.12455 0
M  V30 18880 C 1776.84 2.67741 -2.20263 0
M  V30 18881 C 1775.9 2.57196 -3.43728 0
M  V30 18882 C 1775.14 3.84479 -3.7015 0
M  V30 18883 O 1775.36 4.85858 -2.98827 0
M  V30 18884 O 1774.29 3.83774 -4.63682 0
M  V30 18885 H 1778.12 1.05672 -2.84723 0
M  V30 18886 H 1775.71 0.457726 -1.42215 0
M  V30 18887 H 1777.59 3.46743 -2.39473 0
M  V30 18888 H 1776.26 2.95907 -1.31227 0
M  V30 18889 H 1775.17 1.76518 -3.29837 0
M  V30 18890 H 1776.5 2.33977 -4.33031 0
M  V30 18891 N 1778.15 1.48666 0.52309 0
M  V30 18892 C 1779.57 1.50492 1.10495 0
M  V30 18893 C 1779.92 0.278579 1.94212 0
M  V30 18894 O 1779.04 -0.613679 2.07516 0
M  V30 18895 C 1779.64 2.72692 2.01058 0
M  V30 18896 C 1778.2 2.77368 2.54448 0
M  V30 18897 C 1777.34 2.44104 1.31562 0
M  V30 18898 H 1780.29 1.55682 0.308017 0
M  V30 18899 H 1780.31 2.51601 2.85442 0
M  V30 18900 H 1779.83 3.61931 1.401 0
M  V30 18901 H 1777.93 1.92356 3.19108 0
M  V30 18902 H 1778.04 3.78976 2.93111 0
M  V30 18903 H 1776.4 1.95407 1.63366 0
M  V30 18904 H 1777.19 3.35591 0.723455 0
M  V30 18905 N 1779.63 -0.772489 1.37369 0
M  V30 18906 C 1780.88 -1.53329 1.32733 0
M  V30 18907 C 1781.21 -1.93999 -0.0882815 0
M  V30 18908 O 1780.49 -1.64014 -1.04545 0
M  V30 18909 C 1780.77 -2.79885 2.26575 0
M  V30 18910 C 1780.62 -2.45474 3.76912 0
M  V30 18911 C 1781.94 -3.81812 2.18878 0
M  V30 18912 H 1779.06 -0.55625 0.483482 0
M  V30 18913 H 1781.7 -0.886251 1.68064 0
M  V30 18914 H 1779.85 -3.35097 1.96576 0
M  V30 18915 H 1781.52 -1.96182 4.17505 0
M  V30 18916 H 1779.77 -1.78181 3.95517 0
M  V30 18917 H 1780.44 -3.35937 4.38007 0
M  V30 18918 H 1782.91 -3.36091 2.4532 0
M  V30 18919 H 1781.79 -4.68087 2.86681 0
M  V30 18920 H 1782.05 -4.26021 1.18146 0
M  V30 18921 N 1781.11 -1.21927 -0.998575 0
M  V30 18922 C 1782.07 -0.985744 -2.0692 0
M  V30 18923 C 1783.07 0.0456907 -1.60735 0
M  V30 18924 O 1784.26 -0.192241 -1.73136 0
M  V30 18925 C 1781.4 -0.48779 -3.37392 0
M  V30 18926 H 1782.59 -1.93563 -2.2907 0
M  V30 18927 H 1780.14 -1.03716 -1.1693 0
M  V30 18928 H 1780.88 0.466723 -3.20924 0
M  V30 18929 H 1780.66 -1.23186 -3.72247 0
M  V30 18930 H 1782.15 -0.344469 -4.16177 0
M  V30 18931 N 1782.59 1.19452 -1.02805 0
M  V30 18932 C 1783.84 1.88439 -0.719284 0
M  V30 18933 C 1784.15 1.80435 0.755143 0
M  V30 18934 O 1785.36 2.44664 1.17693 0
M  V30 18935 C 1783.81 3.38001 -1.23625 0
M  V30 18936 C 1783.42 3.54564 -2.7384 0
M  V30 18937 C 1785.16 4.1247 -1.00343 0
M  V30 18938 C 1783.07 4.98016 -3.18958 0
M  V30 18939 H 1782 0.705762 -0.265359 0
M  V30 18940 H 1784.65 1.35058 -1.24224 0
M  V30 18941 H 1783.03 3.90774 -0.641211 0
M  V30 18942 H 1784.21 3.12124 -3.38991 0
M  V30 18943 H 1782.52 2.93484 -2.95392 0
M  V30 18944 H 1785.12 5.18257 -1.31581 0
M  V30 18945 H 1785.46 4.16257 0.0597873 0
M  V30 18946 H 1786 3.65832 -1.56243 0
M  V30 18947 H 1782.74 4.9939 -4.24605 0
M  V30 18948 H 1782.26 5.41221 -2.58534 0
M  V30 18949 H 1783.93 5.66664 -3.12252 0
M  V30 18950 N 1784.07 0.805805 1.35442 0
M  V30 18951 C 1785.31 0.386379 1.99085 0
M  V30 18952 C 1785.65 -1.04356 1.63779 0
M  V30 18953 O 1784.92 -1.72386 0.900731 0
M  V30 18954 C 1785.2 0.569062 3.55575 0
M  V30 18955 C 1785.06 2.04387 4.00682 0
M  V30 18956 C 1786.38 -0.00574668 4.401 0
M  V30 18957 H 1783.49 0.141862 0.723218 0
M  V30 18958 H 1786.14 1.01519 1.60605 0
M  V30 18959 H 1784.29 0.0337767 3.88485 0
M  V30 18960 H 1785.96 2.64148 3.78184 0
M  V30 18961 H 1784.2 2.54059 3.5162 0
M  V30 18962 H 1784.87 2.12258 5.09559 0
M  V30 18963 H 1787.35 0.451387 4.13644 0
M  V30 18964 H 1786.22 0.151994 5.4869 0
M  V30 18965 H 1786.49 -1.09937 4.28213 0
M  V30 18966 N 1785.54 -1.47344 0.559239 0
M  V30 18967 C 1786.79 -2.01672 0.0337843 0
M  V30 18968 C 1787.11 -1.43883 -1.32503 0
M  V30 18969 O 1788.31 -1.89885 -1.94051 0
M  V30 18970 C 1786.77 -3.59899 0.00989925 0
M  V30 18971 C 1786.38 -4.2668 1.3656 0
M  V30 18972 C 1788.12 -4.21969 -0.462842 0
M  V30 18973 C 1786.03 -5.76919 1.30071 0
M  V30 18974 H 1784.96 -0.753948 0.00885972 0
M  V30 18975 H 1787.61 -1.69317 0.707394 0
M  V30 18976 H 1785.99 -3.89225 -0.729399 0
M  V30 18977 H 1787.16 -4.08993 2.12277 0
M  V30 18978 H 1785.48 -3.76605 1.77644 0
M  V30 18979 H 1788.08 -5.32069 -0.529816 0
M  V30 18980 H 1788.42 -3.89283 -1.47528 0
M  V30 18981 H 1788.95 -3.97182 0.221661 0
M  V30 18982 H 1785.69 -6.14227 2.28921 0
M  V30 18983 H 1785.21 -5.96937 0.585375 0
M  V30 18984 H 1786.89 -6.39168 1.00364 0
M  V30 18985 N 1787.02 -0.295795 -1.54799 0
M  V30 18986 C 1787.97 0.597578 -2.2003 0
M  V30 18987 C 1788.96 1.10286 -1.17158 0
M  V30 18988 O 1790.15 1.04449 -1.42896 0
M  V30 18989 C 1787.28 1.77148 -2.94064 0
M  V30 18990 C 1786.36 1.28241 -4.04246 0
M  V30 18991 N 1786.75 0.510962 -5.03213 0
M  V30 18992 C 1785.05 1.5636 -4.17693 0
M  V30 18993 C 1785.75 0.251176 -5.81157 0
M  V30 18994 N 1784.73 0.829504 -5.37234 0
M  V30 18995 H 1788.53 0.000567564 -2.939 0
M  V30 18996 H 1786.05 -0.10031 -1.6209 0
M  V30 18997 H 1788.04 2.42299 -3.39259 0
M  V30 18998 H 1786.7 2.37224 -2.21709 0
M  V30 18999 H 1787.71 0.156346 -5.17664 0
M  V30 19000 H 1784.39 2.17222 -3.5654 0
M  V30 19001 H 1785.78 -0.368063 -6.70891 0
M  V30 19002 N 1788.5 1.57583 -0.0234236 0
M  V30 19003 C 1789.75 1.91186 0.655152 0
M  V30 19004 C 1790.07 0.89988 1.72995 0
M  V30 19005 O 1789.34 -0.0594278 1.9581 0
M  V30 19006 H 1787.92 0.705686 0.244982 0
M  V30 19007 H 1790.58 1.94775 -0.0698824 0
M  V30 19008 H 1789.68 2.91636 1.11152 0
M  V30 19009 N 1789.98 -0.249655 1.5561 0
M  V30 19010 C 1791.39 -0.818934 1.67781 0
M  V30 19011 C 1791.74 -1.86134 0.620374 0
M  V30 19012 O 1790.87 -2.15133 -0.233869 0
M  V30 19013 C 1791.46 -1.49219 3.0417 0
M  V30 19014 C 1790.02 -2.0092 3.18289 0
M  V30 19015 C 1789.17 -0.859333 2.63649 0
M  V30 19016 H 1792.12 -0.0255186 1.58679 0
M  V30 19017 H 1792.14 -2.36011 2.98461 0
M  V30 19018 H 1791.65 -0.733268 3.8111 0
M  V30 19019 H 1789.75 -2.79701 2.46167 0
M  V30 19020 H 1789.87 -2.20848 4.25163 0
M  V30 19021 H 1788.23 -1.2591 2.21402 0
M  V30 19022 H 1789.01 -0.113545 3.43112 0
M  V30 19023 N 1791.46 -1.48941 -0.515198 0
M  V30 19024 C 1792.87 -1.51076 -1.09695 0
M  V30 19025 C 1793.22 -0.288875 -1.94062 0
M  V30 19026 O 1792.34 0.602665 -2.07839 0
M  V30 19027 C 1792.94 -2.73755 -1.99609 0
M  V30 19028 C 1791.5 -2.78714 -2.52974 0
M  V30 19029 C 1790.65 -2.44798 -1.30266 0
M  V30 19030 H 1793.6 -1.55843 -0.299757 0
M  V30 19031 H 1793.62 -2.53112 -2.84103 0
M  V30 19032 H 1793.13 -3.62668 -1.38178 0
M  V30 19033 H 1791.23 -1.94045 -3.18084 0
M  V30 19034 H 1791.34 -3.80525 -2.91097 0
M  V30 19035 H 1789.71 -1.9627 -1.62327 0
M  V30 19036 H 1790.49 -3.35969 -0.705648 0
M  V30 19037 N 1792.94 0.765193 -1.37777 0
M  V30 19038 C 1794.18 1.52096 -1.33084 0
M  V30 19039 C 1794.5 1.94827 0.08221 0
M  V30 19040 O 1793.77 1.66787 1.02757 0
M  V30 19041 H 1792.35 0.564139 -0.489649 0
M  V30 19042 H 1795.02 0.910308 -1.72335 0
M  V30 19043 H 1794.11 2.4173 -1.97416 0
M  V30 19044 N 1794.41 1.22455 0.992094 0
M  V30 19045 C 1795.38 0.996703 2.06394 0
M  V30 19046 C 1796.38 -0.0371659 1.60757 0
M  V30 19047 O 1797.57 0.20142 1.73032 0
M  V30 19048 C 1794.7 0.505675 3.37129 0
M  V30 19049 H 1795.89 1.94776 2.28041 0
M  V30 19050 H 1793.44 1.04335 1.16378 0
M  V30 19051 H 1794.18 -0.449697 3.21167 0
M  V30 19052 H 1793.96 1.25158 3.71588 0
M  V30 19053 H 1795.45 0.366535 4.15988 0
M  V30 19054 N 1795.89 -1.18905 1.03437 0
M  V30 19055 C 1797.14 -1.88354 0.732598 0
M  V30 19056 C 1797.46 -1.80353 -0.741474 0
M  V30 19057 O 1796.73 -1.21764 -1.53461 0
M  V30 19058 H 1795.31 -0.697272 0.267995 0
M  V30 19059 H 1797.97 -1.44329 1.30978 0
M  V30 19060 H 1797.07 -2.94551 1.03181 0
M  V30 19061 N 1797.37 -0.812977 -1.35013 0
M  V30 19062 C 1798.32 -0.225816 -2.29693 0
M  V30 19063 C 1799.29 0.643767 -1.53117 0
M  V30 19064 O 1800.47 0.587505 -1.8153 0
M  V30 19065 C 1797.61 0.614444 -3.39586 0
M  V30 19066 C 1796.72 -0.276281 -4.31116 0
M  V30 19067 C 1795.86 0.572595 -5.28105 0
M  V30 19068 C 1794.9 -0.318133 -6.11273 0
M  V30 19069 N 1794.04 0.491086 -7.0038 0
M  V30 19070 H 1798.88 -1.03861 -2.79315 0
M  V30 19071 H 1796.41 -0.523695 -1.37462 0
M  V30 19072 H 1798.37 1.11683 -4.01973 0
M  V30 19073 H 1797 1.39244 -2.91223 0
M  V30 19074 H 1796.05 -0.89682 -3.69677 0
M  V30 19075 H 1797.36 -0.961601 -4.89443 0
M  V30 19076 H 1796.52 1.13986 -5.95896 0
M  V30 19077 H 1795.26 1.29146 -4.7029 0
M  V30 19078 H 1794.26 -0.897622 -5.42423 0
M  V30 19079 H 1795.49 -1.03496 -6.71167 0
M  V30 19080 H 1793.43 1.19381 -6.45046 0
M  V30 19081 H 1793.35 -0.136054 -7.55878 0
M  V30 19082 H 1794.62 1.04143 -7.72512 0
M  V30 19083 N 1798.85 1.47045 -0.567045 0
M  V30 19084 C 1800.07 2.0734 -0.0498828 0
M  V30 19085 C 1800.5 1.41545 1.23881 0
M  V30 19086 O 1799.86 0.493798 1.74446 0
M  V30 19087 C 1799.9 3.60404 0.118782 0
M  V30 19088 O 1799.01 3.95186 1.17905 0
M  V30 19089 H 1798.35 0.661656 -0.055746 0
M  V30 19090 H 1800.88 1.8892 -0.78553 0
M  V30 19091 H 1800.89 4.06664 0.3299 0
M  V30 19092 H 1799.56 4.07688 -0.822409 0
M  V30 19093 H 1798.14 3.60658 0.947644 0
M  V30 19094 N 1800.33 0.304 1.5464 0
M  V30 19095 C 1801.57 -0.305185 1.99378 0
M  V30 19096 C 1801.89 -1.54773 1.19602 0
M  V30 19097 O 1803.09 -2.23169 1.54621 0
M  V30 19098 C 1801.55 -0.594303 3.54959 0
M  V30 19099 C 1801.16 0.630078 4.43547 0
M  V30 19100 C 1802.9 -1.16452 4.08215 0
M  V30 19101 C 1800.81 0.313946 5.90566 0
M  V30 19102 H 1799.74 -0.11781 0.744739 0
M  V30 19103 H 1802.39 0.413174 1.78788 0
M  V30 19104 H 1800.77 -1.37233 3.71461 0
M  V30 19105 H 1801.95 1.40619 4.3882 0
M  V30 19106 H 1800.26 1.11914 4.01079 0
M  V30 19107 H 1802.86 -1.41534 5.15628 0
M  V30 19108 H 1803.2 -2.10773 3.58999 0
M  V30 19109 H 1803.73 -0.448123 3.95268 0
M  V30 19110 H 1800.47 1.2258 6.43937 0
M  V30 19111 H 1799.99 -0.424841 5.98294 0
M  V30 19112 H 1801.67 -0.083395 6.46946 0
M  V30 19113 N 1801.8 -1.57568 0.0317802 0
M  V30 19114 C 1803.03 -1.96212 -0.656401 0
M  V30 19115 C 1803.45 -0.908406 -1.6551 0
M  V30 19116 O 1802.8 0.109502 -1.82171 0
M  V30 19117 C 1802.85 -3.34924 -1.36044 0
M  V30 19118 O 1802.58 -4.36254 -0.401757 0
M  V30 19119 C 1804.08 -3.88215 -2.14019 0
M  V30 19120 H 1801.3 -0.646181 -0.180808 0
M  V30 19121 H 1803.84 -2.04291 0.0923341 0
M  V30 19122 H 1802 -3.28055 -2.06055 0
M  V30 19123 H 1802.41 -5.16686 -0.902005 0
M  V30 19124 H 1803.88 -4.87609 -2.5873 0
M  V30 19125 H 1804.36 -3.22602 -2.98034 0
M  V30 19126 H 1804.97 -3.98361 -1.4896 0
M  V30 19127 N 1803.28 0.241399 -1.5574 0
M  V30 19128 C 1804.51 0.986075 -1.81891 0
M  V30 19129 C 1804.93 1.78734 -0.608254 0
M  V30 19130 O 1804.28 1.77527 0.423129 0
M  V30 19131 C 1804.33 1.91956 -3.06325 0
M  V30 19132 O 1804.05 1.15071 -4.22718 0
M  V30 19133 C 1805.56 2.77977 -3.45317 0
M  V30 19134 H 1802.78 0.289913 -0.605137 0
M  V30 19135 H 1805.32 0.262622 -2.02807 0
M  V30 19136 H 1803.47 2.59721 -2.87443 0
M  V30 19137 H 1803.89 1.78261 -4.93278 0
M  V30 19138 H 1805.36 3.39215 -4.35474 0
M  V30 19139 H 1805.84 3.49369 -2.66154 0
M  V30 19140 H 1806.45 2.15655 -3.66569 0
M  V30 19141 N 1804.76 1.49212 0.507292 0
M  V30 19142 C 1805.71 1.65894 1.6304 0
M  V30 19143 C 1806.7 0.524951 1.61061 0
M  V30 19144 O 1807.91 0.704392 1.65645 0
M  V30 19145 H 1804.28 0.522994 0.540353 0
M  V30 19146 H 1806.25 2.60176 1.4612 0
M  V30 19147 C 1805 1.73692 3.01208 0
M  V30 19148 H 1804.33 2.60323 3.03434 0
M  V30 19149 H 1805.77 1.89402 3.79346 0
M  V30 19150 C 1804.23 0.480378 3.33458 0
M  V30 19151 O 1804.76 -0.396732 3.99736 0
M  V30 19152 N 1802.96 0.345216 2.88542 0
M  V30 19153 H 1802.51 1.05997 2.34782 0
M  V30 19154 H 1802.47 -0.494453 3.10488 0
M  V30 19155 N 1806.24 -0.757876 1.38181 0
M  V30 19156 C 1807.49 -1.51688 1.34153 0
M  V30 19157 C 1807.81 -1.94375 -0.0697487 0
M  V30 19158 O 1807.07 -1.65404 -1.04594 0
M  V30 19159 C 1807.37 -2.78548 2.23933 0
M  V30 19160 C 1807.03 -2.54845 3.71975 0
M  V30 19161 C 1805.7 -2.48089 4.12317 0
M  V30 19162 C 1808.05 -2.34027 4.65704 0
M  V30 19163 C 1805.38 -2.18526 5.44485 0
M  V30 19164 C 1807.73 -2.05986 5.98124 0
M  V30 19165 C 1806.39 -1.97683 6.37556 0
M  V30 19166 H 1805.66 -0.555064 0.490902 0
M  V30 19167 H 1808.31 -0.871823 1.70504 0
M  V30 19168 H 1806.61 -3.47682 1.80623 0
M  V30 19169 H 1808.31 -3.36487 2.18122 0
M  V30 19170 H 1804.9 -2.60972 3.39988 0
M  V30 19171 H 1809.08 -2.38228 4.35386 0
M  V30 19172 H 1804.34 -2.10603 5.73983 0
M  V30 19173 H 1808.51 -1.8888 6.70296 0
M  V30 19174 H 1806.14 -1.7454 7.39892 0
M  V30 19175 N 1807.72 -1.22979 -0.985586 0
M  V30 19176 C 1808.65 -1.03073 -2.09519 0
M  V30 19177 C 1809.63 0.0507025 -1.70024 0
M  V30 19178 O 1810.81 -0.112938 -1.93871 0
M  V30 19179 C 1807.94 -0.615578 -3.41801 0
M  V30 19180 C 1806.9 -1.64377 -3.95176 0
M  V30 19181 C 1806.22 -1.08422 -5.23592 0
M  V30 19182 C 1807.52 -3.03555 -4.25032 0
M  V30 19183 H 1809.22 -1.95882 -2.2643 0
M  V30 19184 H 1806.76 -0.943206 -1.0881 0
M  V30 19185 H 1808.72 -0.463394 -4.18844 0
M  V30 19186 H 1807.44 0.348185 -3.24739 0
M  V30 19187 H 1806.1 -1.78386 -3.20272 0
M  V30 19188 H 1805.75 -0.111597 -5.02876 0
M  V30 19189 H 1805.45 -1.77118 -5.6027 0
M  V30 19190 H 1806.97 -0.94378 -6.03262 0
M  V30 19191 H 1808.38 -2.92878 -4.92844 0
M  V30 19192 H 1806.78 -3.69441 -4.72899 0
M  V30 19193 H 1807.85 -3.52937 -3.32511 0
M  V30 19194 N 1809.19 1.18355 -1.04066 0
M  V30 19195 C 1810.16 2.20195 -0.636148 0
M  V30 19196 C 1811.16 1.57853 0.306457 0
M  V30 19197 O 1812.35 1.73958 0.0918576 0
M  V30 19198 C 1809.48 3.40833 0.0673423 0
M  V30 19199 H 1810.67 2.57497 -1.53738 0
M  V30 19200 H 1808.23 1.32239 -0.833214 0
M  V30 19201 H 1808.96 3.09063 0.982371 0
M  V30 19202 H 1808.75 3.87324 -0.610145 0
M  V30 19203 H 1810.24 4.16239 0.336869 0
M  V30 19204 N 1810.67 0.820125 1.3458 0
M  V30 19205 C 1811.62 0.237994 2.2957 0
M  V30 19206 C 1812.59 -0.635637 1.53456 0
M  V30 19207 O 1813.77 -0.57787 1.81839 0
M  V30 19208 C 1810.91 -0.596426 3.39907 0
M  V30 19209 C 1810.03 0.29914 4.30963 0
M  V30 19210 C 1809.16 -0.54458 5.28401 0
M  V30 19211 C 1808.2 0.350546 6.11095 0
M  V30 19212 N 1807.34 -0.453936 7.00631 0
M  V30 19213 H 1812.18 1.0534 2.7876 0
M  V30 19214 H 1809.72 0.530977 1.37183 0
M  V30 19215 H 1811.67 -1.0955 4.0256 0
M  V30 19216 H 1810.3 -1.37697 2.91958 0
M  V30 19217 H 1809.36 0.916412 3.69196 0
M  V30 19218 H 1810.67 0.987544 4.88926 0
M  V30 19219 H 1809.82 -1.10825 5.96492 0
M  V30 19220 H 1808.56 -1.2665 4.70968 0
M  V30 19221 H 1807.57 0.926375 5.41939 0
M  V30 19222 H 1808.79 1.07054 6.70609 0
M  V30 19223 H 1806.74 -1.15958 6.4567 0
M  V30 19224 H 1806.65 0.176138 7.55795 0
M  V30 19225 H 1807.92 -1.00044 7.73053 0
M  V30 19226 N 1812.15 -1.46743 0.574835 0
M  V30 19227 C 1813.08 -2.27221 -0.211109 0
M  V30 19228 C 1814.06 -1.35143 -0.90416 0
M  V30 19229 O 1815.25 -1.64545 -0.919627 0
M  V30 19230 C 1812.37 -3.12665 -1.30223 0
M  V30 19231 C 1811.42 -4.20449 -0.715857 0
M  V30 19232 S 1812.25 -5.33596 0.451197 0
M  V30 19233 C 1813.41 -6.22606 -0.641314 0
M  V30 19234 H 1813.64 -2.93533 0.471766 0
M  V30 19235 H 1811.17 -1.50107 0.361547 0
M  V30 19236 H 1813.13 -3.62459 -1.927 0
M  V30 19237 H 1811.79 -2.45682 -1.95702 0
M  V30 19238 H 1810.99 -4.80031 -1.53578 0
M  V30 19239 H 1810.59 -3.73627 -0.166909 0
M  V30 19240 H 1812.88 -6.60021 -1.52899 0
M  V30 19241 H 1813.82 -7.08052 -0.0824416 0
M  V30 19242 H 1814.23 -5.56586 -0.941918 0
M  V30 19243 N 1813.63 -0.312197 -1.54477 0
M  V30 19244 C 1814.88 0.294607 -1.99537 0
M  V30 19245 C 1815.19 1.54137 -1.20421 0
M  V30 19246 O 1816.4 2.22346 -1.55803 0
M  V30 19247 C 1814.85 0.57547 -3.55269 0
M  V30 19248 C 1814.46 -0.653591 -4.43207 0
M  V30 19249 C 1816.2 1.14285 -4.08827 0
M  V30 19250 C 1814.11 -0.345261 -5.90391 0
M  V30 19251 H 1813.04 0.113859 -0.745354 0
M  V30 19252 H 1815.69 -0.42265 -1.78566 0
M  V30 19253 H 1814.07 1.35262 -3.72183 0
M  V30 19254 H 1815.25 -1.42945 -4.38068 0
M  V30 19255 H 1813.56 -1.14039 -4.0048 0
M  V30 19256 H 1816.16 1.38797 -5.16371 0
M  V30 19257 H 1816.5 2.08866 -3.60112 0
M  V30 19258 H 1817.04 0.427154 -3.955 0
M  V30 19259 H 1813.78 -1.25994 -6.43277 0
M  V30 19260 H 1813.3 0.393106 -5.9851 0
M  V30 19261 H 1814.97 0.0490847 -6.46981 0
M  V30 19262 N 1815.11 1.57549 -0.040136 0
M  V30 19263 C 1816.33 1.96557 0.645986 0
M  V30 19264 C 1816.75 0.91717 1.65026 0
M  V30 19265 O 1816.11 -0.0998395 1.82227 0
M  V30 19266 C 1816.16 3.35641 1.34266 0
M  V30 19267 O 1815.88 4.36461 0.378616 0
M  V30 19268 C 1817.38 3.89344 2.11957 0
M  V30 19269 H 1814.6 0.64713 0.177379 0
M  V30 19270 H 1817.14 2.0424 -0.103167 0
M  V30 19271 H 1815.3 3.29143 2.04312 0
M  V30 19272 H 1815.71 5.17157 0.874592 0
M  V30 19273 H 1817.19 4.88975 2.5614 0
M  V30 19274 H 1817.66 3.24178 2.96319 0
M  V30 19275 H 1818.27 3.99145 1.46845 0
M  V30 19276 N 1816.58 -0.233136 1.55866 0
M  V30 19277 C 1817.53 -1.3085 1.92304 0
M  V30 19278 C 1818.53 -1.49121 0.803693 0
M  V30 19279 O 1819.73 -1.50433 0.988433 0
M  V30 19280 H 1816.11 -0.438451 0.610954 0
M  V30 19281 H 1818.08 -0.973925 2.82059 0
M  V30 19282 C 1816.83 -2.65415 2.24611 0
M  V30 19283 H 1816.15 -2.5216 3.10251 0
M  V30 19284 H 1817.59 -3.395 2.54 0
M  V30 19285 C 1816.05 -3.1955 1.0672 0
M  V30 19286 O 1816.58 -4.00405 0.322308 0
M  V30 19287 N 1814.79 -2.77764 0.854123 0
M  V30 19288 H 1814.33 -2.12122 1.46157 0
M  V30 19289 H 1814.29 -3.14329 0.0670326 0
M  V30 19290 N 1818.06 -1.49479 -0.499372 0
M  V30 19291 C 1819.34 -1.4955 -1.26071 0
M  V30 19292 C 1819.72 -0.224142 -2.09907 0
M  V30 19293 O 1819.07 0.793432 -2.14282 0
M  V30 19294 C 1819.28 -2.77534 -2.11604 0
M  V30 19295 C 1820.63 -3.27088 -2.70738 0
M  V30 19296 O 1821.65 -2.78662 -2.2187 0
M  V30 19297 O 1820.51 -4.11432 -3.59703 0
M  V30 19298 H 1817.6 -0.598631 -0.570587 0
M  V30 19299 H 1820.15 -1.61744 -0.513509 0
M  V30 19300 H 1818.92 -3.61556 -1.49642 0
M  V30 19301 H 1818.54 -2.68208 -2.93514 0
M  V30 19302 N 1819.54 0.750537 -1.38581 0
M  V30 19303 C 1820.77 1.54489 -1.38376 0
M  V30 19304 C 1821.19 1.88085 0.023634 0
M  V30 19305 O 1820.55 1.50794 1.00652 0
M  V30 19306 C 1820.6 2.81875 -2.24897 0
M  V30 19307 O 1819.7 3.77155 -1.66817 0
M  V30 19308 H 1819.04 0.467148 -0.471878 0
M  V30 19309 H 1821.57 0.927264 -1.82381 0
M  V30 19310 H 1821.58 3.30769 -2.38864 0
M  V30 19311 H 1820.26 2.56753 -3.27186 0
M  V30 19312 H 1818.83 3.35868 -1.62009 0
M  V30 19313 N 1821.02 1.235 0.979051 0
M  V30 19314 C 1822.3 0.976124 1.69503 0
M  V30 19315 C 1822.68 -0.504883 2.04974 0
M  V30 19316 O 1822.02 -1.47642 1.74397 0
M  V30 19317 C 1822.23 1.8877 2.93542 0
M  V30 19318 C 1823.58 2.15196 3.66027 0
M  V30 19319 O 1824.61 1.8633 3.03578 0
M  V30 19320 O 1823.47 2.64157 4.78417 0
M  V30 19321 H 1820.56 0.36825 0.740487 0
M  V30 19322 H 1823.11 1.34549 1.03415 0
M  V30 19323 H 1821.88 2.88882 2.63937 0
M  V30 19324 H 1821.5 1.52079 3.67366 0
M  V30 19325 N 1822.5 -1.17802 1.04693 0
M  V30 19326 C 1823.75 -1.87271 0.749172 0
M  V30 19327 C 1824.06 -1.81614 -0.726342 0
M  V30 19328 O 1825.27 -2.46506 -1.13785 0
M  V30 19329 C 1823.72 -3.35992 1.28986 0
M  V30 19330 C 1823.33 -3.50163 2.79446 0
M  V30 19331 C 1825.07 -4.10821 1.06892 0
M  V30 19332 C 1822.98 -4.92878 3.26841 0
M  V30 19333 H 1821.91 -0.701451 0.276554 0
M  V30 19334 H 1824.56 -1.33065 1.26357 0
M  V30 19335 H 1822.94 -3.89705 0.703298 0
M  V30 19336 H 1824.12 -3.06692 3.43914 0
M  V30 19337 H 1822.43 -2.88747 3.00023 0
M  V30 19338 H 1825.03 -5.16098 1.39809 0
M  V30 19339 H 1825.37 -4.163 0.00644311 0
M  V30 19340 H 1825.91 -3.633 1.62043 0
M  V30 19341 H 1822.64 -4.92572 4.32497 0
M  V30 19342 H 1822.16 -5.3704 2.67112 0
M  V30 19343 H 1823.84 -5.61624 3.21227 0
M  V30 19344 N 1823.98 -0.827251 -1.34143 0
M  V30 19345 C 1825.21 -0.429878 -2.02078 0
M  V30 19346 C 1825.61 0.970141 -1.62434 0
M  V30 19347 O 1824.96 1.63997 -0.827692 0
M  V30 19348 C 1825.02 -0.457493 -3.56577 0
M  V30 19349 C 1824.68 -1.8116 -4.19559 0
M  V30 19350 C 1825.68 -2.7731 -4.39767 0
M  V30 19351 C 1823.36 -2.10126 -4.56237 0
M  V30 19352 C 1825.36 -4.00596 -4.95784 0
M  V30 19353 C 1823.05 -3.33672 -5.11963 0
M  V30 19354 C 1824.04 -4.28724 -5.31681 0
M  V30 19355 O 1823.73 -5.50086 -5.86226 0
M  V30 19356 H 1823.46 -0.170259 -0.654208 0
M  V30 19357 H 1826.02 -1.11808 -1.72303 0
M  V30 19358 H 1824.25 0.287424 -3.8563 0
M  V30 19359 H 1825.94 -0.0795677 -4.05822 0
M  V30 19360 H 1826.7 -2.56228 -4.11791 0
M  V30 19361 H 1822.58 -1.36941 -4.40191 0
M  V30 19362 H 1826.13 -4.74798 -5.11089 0
M  V30 19363 H 1822.02 -3.54615 -5.39369 0
M  V30 19364 H 1822.79 -5.51665 -6.04655 0
M  V30 19365 N 1825.45 1.46436 -0.582609 0
M  V30 19366 C 1826.68 2.07275 -0.0718712 0
M  V30 19367 C 1827.1 1.42851 1.22373 0
M  V30 19368 O 1826.46 0.512272 1.73912 0
M  V30 19369 C 1826.51 3.6051 0.08055 0
M  V30 19370 O 1825.61 3.96414 1.13707 0
M  V30 19371 H 1824.95 0.661027 -0.0627607 0
M  V30 19372 H 1827.48 1.88076 -0.805524 0
M  V30 19373 H 1827.49 4.06991 0.286749 0
M  V30 19374 H 1826.17 4.06792 -0.865603 0
M  V30 19375 H 1824.75 3.61643 0.909338 0
M  V30 19376 N 1826.93 0.320385 1.54309 0
M  V30 19377 C 1827.86 -0.539789 2.27175 0
M  V30 19378 C 1828.84 -1.12198 1.2785 0
M  V30 19379 O 1830.03 -1.1477 1.56657 0
M  V30 19380 C 1827.16 -1.70236 3.02716 0
M  V30 19381 C 1826.11 -1.24962 4.09351 0
M  V30 19382 C 1825.44 -2.49888 4.72715 0
M  V30 19383 C 1826.74 -0.366788 5.21011 0
M  V30 19384 H 1828.43 0.0680079 2.99323 0
M  V30 19385 H 1825.98 0.0341488 1.4396 0
M  V30 19386 H 1827.93 -2.31037 3.5242 0
M  V30 19387 H 1826.65 -2.33669 2.2818 0
M  V30 19388 H 1825.31 -0.664556 3.60526 0
M  V30 19389 H 1824.96 -3.11679 3.94798 0
M  V30 19390 H 1824.66 -2.20288 5.44745 0
M  V30 19391 H 1826.19 -3.11458 5.25192 0
M  V30 19392 H 1827.6 -0.881001 5.6649 0
M  V30 19393 H 1826 -0.163707 5.99877 0
M  V30 19394 H 1827.07 0.603185 4.81134 0
M  V30 19395 N 1828.41 -1.57525 0.0484906 0
M  V30 19396 C 1829.82 -1.80221 -0.487592 0
M  V30 19397 C 1830.17 -0.96049 -1.71082 0
M  V30 19398 O 1829.3 -0.17632 -2.1568 0
M  V30 19399 C 1829.89 -3.26864 -0.89136 0
M  V30 19400 C 1828.45 -3.50487 -1.37244 0
M  V30 19401 C 1827.6 -2.75129 -0.346348 0
M  V30 19402 H 1830.55 -1.5631 0.274392 0
M  V30 19403 H 1830.57 -3.37637 -1.75446 0
M  V30 19404 H 1830.08 -3.881 -0.000880924 0
M  V30 19405 H 1828.18 -2.94528 -2.2822 0
M  V30 19406 H 1828.3 -4.592 -1.36645 0
M  V30 19407 H 1826.66 -2.41185 -0.818653 0
M  V30 19408 H 1827.44 -3.3909 0.536 0
M  V30 19409 N 1829.89 0.224867 -1.55988 0
M  V30 19410 C 1831.3 0.792138 -1.69062 0
M  V30 19411 C 1831.65 1.85123 -0.649908 0
M  V30 19412 O 1830.77 2.15477 0.199614 0
M  V30 19413 C 1831.37 1.44361 -3.06505 0
M  V30 19414 C 1829.93 1.95831 -3.21446 0
M  V30 19415 C 1829.08 0.81728 -2.64983 0
M  V30 19416 H 1832.03 0.000270833 -1.587 0
M  V30 19417 H 1832.05 2.31233 -3.02178 0
M  V30 19418 H 1831.56 0.672544 -3.82228 0
M  V30 19419 H 1829.66 2.75749 -2.50586 0
M  V30 19420 H 1829.77 2.14056 -4.28622 0
M  V30 19421 H 1828.14 1.22371 -2.23377 0
M  V30 19422 H 1828.92 0.058944 -3.43249 0
M  V30 19423 N 1831.37 1.49742 0.491438 0
M  V30 19424 C 1832.64 1.50217 1.25277 0
M  V30 19425 C 1833.02 0.235271 2.09785 0
M  V30 19426 O 1832.37 -0.782057 2.147 0
M  V30 19427 C 1832.58 2.78652 2.10129 0
M  V30 19428 C 1833.93 3.28519 2.68999 0
M  V30 19429 O 1834.95 2.79834 2.20389 0
M  V30 19430 O 1833.81 4.13333 3.57516 0
M  V30 19431 H 1830.91 0.601649 0.567405 0
M  V30 19432 H 1833.45 1.62014 0.504924 0
M  V30 19433 H 1832.22 3.62345 1.47723 0
M  V30 19434 H 1831.85 2.69761 2.92087 0
M  V30 19435 N 1832.84 -0.743177 1.38977 0
M  V30 19436 C 1834.26 -1.32104 1.3193 0
M  V30 19437 C 1834.61 -1.9619 -0.0201331 0
M  V30 19438 O 1833.73 -1.95764 -0.922245 0
M  V30 19439 C 1834.33 -2.40204 2.3893 0
M  V30 19440 C 1832.89 -2.93684 2.35428 0
M  V30 19441 C 1832.03 -1.67168 2.21247 0
M  V30 19442 H 1834.98 -0.541283 1.49184 0
M  V30 19443 H 1835 -3.20397 2.05246 0
M  V30 19444 H 1834.52 -1.93532 3.36403 0
M  V30 19445 H 1832.62 -3.44658 1.41568 0
M  V30 19446 H 1832.73 -3.47355 3.29971 0
M  V30 19447 H 1831.09 -1.91193 1.68278 0
M  V30 19448 H 1831.88 -1.22559 3.20678 0
M  V30 19449 N 1834.32 -1.24018 -0.972487 0
M  V30 19450 C 1835.27 -1.02834 -2.06625 0
M  V30 19451 C 1836.24 0.056804 -1.66003 0
M  V30 19452 O 1837.42 -0.0968745 -1.90554 0
M  V30 19453 C 1834.56 -0.634103 -3.39224 0
M  V30 19454 C 1833.68 -1.79222 -3.93069 0
M  V30 19455 C 1832.81 -1.34401 -5.13916 0
M  V30 19456 C 1831.85 -2.47238 -5.59946 0
M  V30 19457 N 1830.99 -2.03319 -6.72016 0
M  V30 19458 H 1835.83 -1.96451 -2.24078 0
M  V30 19459 H 1833.37 -0.978545 -1.09831 0
M  V30 19460 H 1835.32 -0.386584 -4.15405 0
M  V30 19461 H 1833.95 0.26506 -3.2171 0
M  V30 19462 H 1833.01 -2.15353 -3.13572 0
M  V30 19463 H 1834.32 -2.64023 -4.23194 0
M  V30 19464 H 1833.47 -1.05509 -5.97455 0
M  V30 19465 H 1832.21 -0.466476 -4.85464 0
M  V30 19466 H 1831.22 -2.76895 -4.74983 0
M  V30 19467 H 1832.44 -3.35541 -5.90415 0
M  V30 19468 H 1830.39 -1.17956 -6.45308 0
M  V30 19469 H 1830.3 -2.81675 -7.01566 0
M  V30 19470 H 1831.57 -1.77553 -7.59009 0
M  V30 19471 N 1835.8 1.17245 -1.05316 0
M  V30 19472 C 1837.03 1.91176 -0.783273 0
M  V30 19473 C 1837.44 1.77128 0.664996 0
M  V30 19474 O 1836.78 1.10682 1.46612 0
M  V30 19475 C 1836.84 3.42708 -1.0859 0
M  V30 19476 C 1836.51 3.80539 -2.5306 0
M  V30 19477 C 1837.5 3.8328 -3.51272 0
M  V30 19478 C 1835.19 4.11464 -2.88102 0
M  V30 19479 C 1837.18 4.16418 -4.82571 0
M  V30 19480 C 1834.87 4.44271 -4.19603 0
M  V30 19481 C 1835.87 4.46726 -5.16648 0
M  V30 19482 O 1835.56 4.7876 -6.4579 0
M  V30 19483 H 1835.29 0.613371 -0.284169 0
M  V30 19484 H 1837.84 1.49608 -1.40736 0
M  V30 19485 H 1836.07 3.84576 -0.404716 0
M  V30 19486 H 1837.76 3.97901 -0.801827 0
M  V30 19487 H 1838.53 3.59511 -3.25541 0
M  V30 19488 H 1834.41 4.08723 -2.13228 0
M  V30 19489 H 1837.95 4.1825 -5.58313 0
M  V30 19490 H 1833.85 4.67503 -4.45097 0
M  V30 19491 H 1834.62 4.96612 -6.5063 0
M  V30 19492 N 1837.28 0.834353 1.33702 0
M  V30 19493 C 1838.53 0.427887 1.97928 0
M  V30 19494 C 1838.85 -1.0118 1.66111 0
M  V30 19495 O 1838.11 -1.72144 0.930848 0
M  V30 19496 C 1838.41 0.590236 3.52493 0
M  V30 19497 C 1838.07 1.99735 4.04249 0
M  V30 19498 C 1836.74 2.38224 4.18094 0
M  V30 19499 C 1839.09 2.91665 4.3195 0
M  V30 19500 C 1836.42 3.67957 4.56973 0
M  V30 19501 C 1838.77 4.20874 4.72279 0
M  V30 19502 C 1837.43 4.59326 4.8433 0
M  V30 19503 H 1836.7 0.156575 0.724269 0
M  V30 19504 H 1839.35 1.06051 1.59454 0
M  V30 19505 H 1837.65 -0.125718 3.91598 0
M  V30 19506 H 1839.35 0.256094 4.00181 0
M  V30 19507 H 1835.94 1.6884 3.93943 0
M  V30 19508 H 1840.12 2.63168 4.20781 0
M  V30 19509 H 1835.38 3.9756 4.64495 0
M  V30 19510 H 1839.55 4.92187 4.92671 0
M  V30 19511 H 1837.18 5.59901 5.14213 0
M  V30 19512 N 1838.76 -1.46125 0.590367 0
M  V30 19513 C 1840.03 -1.95597 0.0116648 0
M  V30 19514 C 1840.41 -1.53298 -1.45131 0
M  V30 19515 O 1839.76 -0.787298 -2.14508 0
M  V30 19516 C 1839.97 -3.48473 0.191727 0
M  V30 19517 C 1841.32 -4.24552 0.0635332 0
M  V30 19518 O 1842.34 -3.55995 0.120955 0
M  V30 19519 O 1841.2 -5.4646 -0.0657772 0
M  V30 19520 H 1838.3 -0.825748 -0.0454921 0
M  V30 19521 H 1840.84 -1.56372 0.659223 0
M  V30 19522 H 1839.61 -3.72172 1.20846 0
M  V30 19523 H 1839.24 -3.94545 -0.491905 0
M  V30 19524 N 1840.23 -0.328564 -1.54137 0
M  V30 19525 C 1841.48 0.271967 -2.00262 0
M  V30 19526 C 1841.8 1.5226 -1.21827 0
M  V30 19527 O 1841.07 1.93245 -0.321415 0
M  V30 19528 H 1839.65 0.103484 -0.739797 0
M  V30 19529 H 1842.32 -0.446264 -1.89722 0
M  V30 19530 H 1841.41 0.52488 -3.07655 0
M  V30 19531 N 1841.71 1.57497 -0.0568439 0
M  V30 19532 C 1842.94 1.96945 0.624196 0
M  V30 19533 C 1843.35 0.933312 1.64578 0
M  V30 19534 O 1842.69 -0.0902107 1.83478 0
M  V30 19535 C 1842.76 3.32652 1.3632 0
M  V30 19536 C 1842.42 4.54292 0.496798 0
M  V30 19537 C 1843.42 5.19348 -0.239466 0
M  V30 19538 C 1841.1 5.0049 0.426059 0
M  V30 19539 C 1843.1 6.28943 -1.03485 0
M  V30 19540 C 1840.78 6.09961 -0.373005 0
M  V30 19541 C 1841.78 6.74049 -1.10214 0
M  V30 19542 O 1841.47 7.81414 -1.88805 0
M  V30 19543 H 1841.2 0.652944 0.175043 0
M  V30 19544 H 1843.75 2.05042 -0.121272 0
M  V30 19545 H 1841.98 3.21126 2.15442 0
M  V30 19546 H 1843.67 3.56808 1.93502 0
M  V30 19547 H 1844.44 4.84611 -0.194318 0
M  V30 19548 H 1840.32 4.50394 0.983188 0
M  V30 19549 H 1843.86 6.78898 -1.60447 0
M  V30 19550 H 1839.76 6.44134 -0.419771 0
M  V30 19551 H 1840.53 7.98219 -1.81077 0
M  V30 19552 N 1843.19 -0.216591 1.56105 0
M  V30 19553 C 1844.47 -0.964874 1.70146 0
M  V30 19554 C 1844.85 -2.02229 0.605524 0
M  V30 19555 O 1844.2 -2.25203 -0.386742 0
M  V30 19556 C 1844.41 -1.57082 3.11651 0
M  V30 19557 C 1845.75 -2.06118 3.71215 0
M  V30 19558 O 1846.78 -1.66966 3.14644 0
M  V30 19559 O 1845.64 -2.78095 4.70452 0
M  V30 19560 H 1842.73 -0.451047 0.693171 0
M  V30 19561 H 1845.28 -0.207982 1.68421 0
M  V30 19562 H 1844.05 -0.80754 3.82877 0
M  V30 19563 H 1843.67 -2.39312 3.17515 0
M  V30 19564 N 1844.67 -1.5 -0.48349 0
M  V30 19565 C 1845.6 -1.64096 -1.60016 0
M  V30 19566 C 1846.61 -0.522896 -1.54174 0
M  V30 19567 O 1847.8 -0.795621 -1.59788 0
M  V30 19568 C 1844.9 -1.5979 -2.98865 0
M  V30 19569 C 1844.08 -2.87422 -3.29708 0
M  V30 19570 C 1843.13 -2.75928 -4.48051 0
M  V30 19571 O 1842.16 -3.49878 -4.4897 0
M  V30 19572 N 1843.36 -1.88648 -5.48992 0
M  V30 19573 H 1846.13 -2.60411 -1.48345 0
M  V30 19574 H 1843.69 -1.47309 -0.671691 0
M  V30 19575 H 1845.68 -1.4973 -3.75983 0
M  V30 19576 H 1844.25 -0.712613 -3.04369 0
M  V30 19577 H 1843.47 -3.11702 -2.4132 0
M  V30 19578 H 1844.76 -3.72002 -3.4712 0
M  V30 19579 H 1844.16 -1.27857 -5.51062 0
M  V30 19580 H 1842.71 -1.845 -6.25142 0
M  V30 19581 N 1846.15 0.735796 -1.39369 0
M  V30 19582 C 1847.08 1.86001 -1.33926 0
M  V30 19583 C 1848.09 1.60897 -0.24818 0
M  V30 19584 O 1849.28 1.71146 -0.507074 0
M  V30 19585 C 1846.38 3.2201 -1.05654 0
M  V30 19586 C 1845.55 3.74476 -2.26023 0
M  V30 19587 C 1844.61 4.89045 -1.94221 0
M  V30 19588 O 1843.64 5.02748 -2.66896 0
M  V30 19589 N 1844.84 5.73357 -0.907884 0
M  V30 19590 H 1847.61 1.91175 -2.30807 0
M  V30 19591 H 1845.17 0.916499 -1.33461 0
M  V30 19592 H 1847.16 3.96223 -0.824001 0
M  V30 19593 H 1845.73 3.12109 -0.175094 0
M  V30 19594 H 1844.95 2.91624 -2.65234 0
M  V30 19595 H 1846.24 4.06263 -3.06313 0
M  V30 19596 H 1845.63 5.64874 -0.305564 0
M  V30 19597 H 1844.19 6.4764 -0.735237 0
M  V30 19598 N 1847.63 1.24532 0.965897 0
M  V30 19599 C 1848.85 1.11412 1.74934 0
M  V30 19600 C 1849.28 -0.329168 1.85197 0
M  V30 19601 O 1848.63 -1.23833 1.3242 0
M  V30 19602 C 1848.68 1.76068 3.14694 0
M  V30 19603 O 1847.79 1.03267 3.99261 0
M  V30 19604 H 1847.13 0.389633 0.537663 0
M  V30 19605 H 1849.66 1.64875 1.2115 0
M  V30 19606 H 1849.67 1.81897 3.65209 0
M  V30 19607 H 1848.34 2.8108 3.0654 0
M  V30 19608 H 1846.92 1.05236 3.57743 0
M  V30 19609 N 1849.1 -1.16685 1.05936 0
M  V30 19610 C 1850.35 -1.87405 0.775061 0
M  V30 19611 C 1850.68 -1.81279 -0.696543 0
M  V30 19612 O 1849.96 -1.22595 -1.50999 0
M  V30 19613 C 1850.24 -3.37124 1.26569 0
M  V30 19614 C 1850.09 -3.5196 2.80078 0
M  V30 19615 C 1851.41 -4.31401 0.870695 0
M  V30 19616 H 1848.53 -0.680488 0.283028 0
M  V30 19617 H 1851.17 -1.37174 1.31466 0
M  V30 19618 H 1849.32 -3.80033 0.806653 0
M  V30 19619 H 1851 -3.18014 3.34163 0
M  V30 19620 H 1849.24 -2.9399 3.18986 0
M  V30 19621 H 1849.91 -4.5709 3.09471 0
M  V30 19622 H 1852.39 -3.96373 1.266 0
M  V30 19623 H 1851.26 -5.34676 1.2415 0
M  V30 19624 H 1851.52 -4.41529 -0.224692 0
M  V30 19625 N 1850.58 -0.841432 -1.33258 0
M  V30 19626 C 1851.83 -0.439027 -1.97991 0
M  V30 19627 C 1852.16 0.999767 -1.66488 0
M  V30 19628 O 1851.44 1.69938 -0.94612 0
M  V30 19629 C 1851.72 -0.663137 -3.53941 0
M  V30 19630 C 1851.57 -2.14939 -3.95122 0
M  V30 19631 C 1852.89 -0.11094 -4.3996 0
M  V30 19632 H 1850.01 -0.160987 -0.719203 0
M  V30 19633 H 1852.65 -1.05742 -1.57856 0
M  V30 19634 H 1850.8 -0.136765 -3.88259 0
M  V30 19635 H 1852.47 -2.74082 -3.71048 0
M  V30 19636 H 1850.72 -2.63293 -3.4476 0
M  V30 19637 H 1851.39 -2.25694 -5.03752 0
M  V30 19638 H 1853.86 -0.560898 -4.12302 0
M  V30 19639 H 1852.74 -0.297416 -5.48094 0
M  V30 19640 H 1853 0.985446 -4.30977 0
M  V30 19641 N 1852.06 1.4581 -0.598108 0
M  V30 19642 C 1853.31 2.01511 -0.0872421 0
M  V30 19643 C 1853.62 1.47345 1.28642 0
M  V30 19644 O 1854.83 1.94963 1.88949 0
M  V30 19645 C 1853.28 3.59746 -0.105317 0
M  V30 19646 C 1852.89 4.22909 -1.47824 0
M  V30 19647 C 1854.64 4.23048 0.350802 0
M  V30 19648 C 1852.54 5.73268 -1.45321 0
M  V30 19649 H 1851.47 0.753448 -0.0288462 0
M  V30 19650 H 1854.12 1.67382 -0.752037 0
M  V30 19651 H 1852.51 3.91022 0.625947 0
M  V30 19652 H 1853.68 4.03221 -2.23046 0
M  V30 19653 H 1851.99 3.71763 -1.87566 0
M  V30 19654 H 1854.59 5.33286 0.388561 0
M  V30 19655 H 1854.93 3.93058 1.37155 0
M  V30 19656 H 1855.47 3.96455 -0.326889 0
M  V30 19657 H 1852.21 6.07942 -2.45126 0
M  V30 19658 H 1851.73 5.95175 -0.743436 0
M  V30 19659 H 1853.41 6.36283 -1.17275 0
M  V30 19660 N 1853.54 0.336733 1.53961 0
M  V30 19661 C 1854.47 -0.566072 2.21068 0
M  V30 19662 C 1855.45 -1.10558 1.1923 0
M  V30 19663 O 1856.63 -1.16712 1.48022 0
M  V30 19664 C 1853.76 -1.77806 2.88275 0
M  V30 19665 C 1852.81 -1.36863 4.03944 0
M  V30 19666 S 1853.64 -0.394182 5.34047 0
M  V30 19667 C 1854.79 -1.61316 6.04754 0
M  V30 19668 H 1855.03 0.00393395 2.973 0
M  V30 19669 H 1852.56 0.120807 1.53927 0
M  V30 19670 H 1854.52 -2.47342 3.27616 0
M  V30 19671 H 1853.18 -2.31928 2.11822 0
M  V30 19672 H 1852.37 -2.2721 4.49879 0
M  V30 19673 H 1851.97 -0.752832 3.66345 0
M  V30 19674 H 1854.27 -2.54866 6.27734 0
M  V30 19675 H 1855.21 -1.19572 6.97931 0
M  V30 19676 H 1855.62 -1.80612 5.34827 0
M  V30 19677 N 1855.02 -1.57465 0.0651956 0
M  V30 19678 C 1856.29 -1.84622 -0.646065 0
M  V30 19679 C 1856.67 -0.956374 -1.88193 0
M  V30 19680 O 1856.02 -0.0209666 -2.2849 0
M  V30 19681 C 1856.23 -3.34664 -0.990013 0
M  V30 19682 C 1857.58 -4.02016 -1.36632 0
M  V30 19683 O 1858.6 -3.39371 -1.08194 0
M  V30 19684 O 1857.46 -5.12496 -1.89764 0
M  V30 19685 H 1854.56 -0.762482 -0.320236 0
M  V30 19686 H 1857.1 -1.6943 0.0956254 0
M  V30 19687 H 1855.87 -3.9114 -0.111977 0
M  V30 19688 H 1855.5 -3.55094 -1.78869 0
M  V30 19689 N 1856.49 0.20831 -1.56217 0
M  V30 19690 C 1857.77 0.955838 -1.70655 0
M  V30 19691 C 1858.15 2.01905 -0.61624 0
M  V30 19692 O 1857.5 2.25405 0.374793 0
M  V30 19693 C 1857.71 1.55427 -3.1248 0
M  V30 19694 C 1859.06 2.04147 -3.72303 0
M  V30 19695 O 1860.08 1.65295 -3.15525 0
M  V30 19696 O 1858.94 2.75597 -4.7192 0
M  V30 19697 H 1856.03 0.447364 -0.695553 0
M  V30 19698 H 1858.58 0.199047 -1.68529 0
M  V30 19699 H 1857.35 0.787224 -3.83299 0
M  V30 19700 H 1856.97 2.37625 -3.18779 0
M  V30 19701 N 1857.97 1.50255 0.475528 0
M  V30 19702 C 1859.22 1.60263 1.22468 0
M  V30 19703 C 1859.53 0.306389 1.93185 0
M  V30 19704 O 1860.74 0.285331 2.69997 0
M  V30 19705 C 1859.2 2.82876 2.22506 0
M  V30 19706 C 1858.8 4.19359 1.57612 0
M  V30 19707 C 1860.55 3.02228 2.98091 0
M  V30 19708 C 1858.45 5.33164 2.55911 0
M  V30 19709 H 1857.38 0.596804 0.460804 0
M  V30 19710 H 1860.04 1.76679 0.495653 0
M  V30 19711 H 1858.42 2.6001 2.98682 0
M  V30 19712 H 1859.59 4.52463 0.872559 0
M  V30 19713 H 1857.91 4.05576 0.943247 0
M  V30 19714 H 1860.5 3.84422 3.7165 0
M  V30 19715 H 1860.85 2.13781 3.57216 0
M  V30 19716 H 1861.38 3.25255 2.29029 0
M  V30 19717 H 1858.12 6.23751 2.01531 0
M  V30 19718 H 1857.64 5.04484 3.24432 0
M  V30 19719 H 1859.32 5.63554 3.17829 0
M  V30 19720 N 1859.45 -0.728395 1.39758 0
M  V30 19721 C 1860.38 -1.85149 1.33398 0
M  V30 19722 C 1861.36 -1.61283 0.206504 0
M  V30 19723 O 1862.54 -1.84463 0.388051 0
M  V30 19724 C 1859.67 -3.21255 1.07297 0
M  V30 19725 C 1858.72 -3.6397 2.22324 0
M  V30 19726 S 1859.55 -3.72569 3.84646 0
M  V30 19727 C 1860.71 -5.11455 3.60783 0
M  V30 19728 H 1860.94 -1.90261 2.28447 0
M  V30 19729 H 1858.47 -0.893913 1.25891 0
M  V30 19730 H 1860.43 -3.99844 0.929231 0
M  V30 19731 H 1859.09 -3.13791 0.139242 0
M  V30 19732 H 1858.28 -4.62761 1.99671 0
M  V30 19733 H 1857.89 -2.92604 2.32936 0
M  V30 19734 H 1860.18 -5.97989 3.18457 0
M  V30 19735 H 1861.12 -5.39139 4.59059 0
M  V30 19736 H 1861.53 -4.81443 2.94742 0
M  V30 19737 N 1860.93 -1.25042 -0.959279 0
M  V30 19738 C 1861.86 -1.00807 -2.05841 0
M  V30 19739 C 1862.87 0.0253938 -1.6278 0
M  V30 19740 O 1864.06 -0.212625 -1.77229 0
M  V30 19741 C 1861.16 -0.501088 -3.35175 0
M  V30 19742 C 1860.33 -1.59964 -4.071 0
M  V30 19743 C 1859.39 -1.09383 -5.14705 0
M  V30 19744 O 1858.42 -1.78728 -5.40412 0
M  V30 19745 N 1859.62 0.0673296 -5.80461 0
M  V30 19746 H 1862.39 -1.95446 -2.27203 0
M  V30 19747 H 1859.95 -1.16185 -1.1275 0
M  V30 19748 H 1861.94 -0.147283 -4.04432 0
M  V30 19749 H 1860.51 0.351241 -3.1062 0
M  V30 19750 H 1859.73 -2.12524 -3.32005 0
M  V30 19751 H 1861.02 -2.3378 -4.51912 0
M  V30 19752 H 1860.42 0.646867 -5.61989 0
M  V30 19753 H 1858.97 0.362206 -6.50793 0
M  V30 19754 N 1862.41 1.16121 -1.06553 0
M  V30 19755 C 1863.35 2.22656 -0.672827 0
M  V30 19756 C 1864.35 1.66492 0.312509 0
M  V30 19757 O 1865.55 1.79127 0.17709 0
M  V30 19758 H 1861.93 0.725064 -0.199464 0
M  V30 19759 H 1863.9 2.53065 -1.58116 0
M  V30 19760 C 1862.65 3.47612 -0.0780782 0
M  V30 19761 H 1861.97 3.91145 -0.82739 0
M  V30 19762 H 1863.41 4.23701 0.159143 0
M  V30 19763 C 1861.87 3.15594 1.17906 0
M  V30 19764 O 1862.4 3.31641 2.26665 0
M  V30 19765 N 1860.61 2.69703 1.08206 0
M  V30 19766 H 1860.15 2.56846 0.196981 0
M  V30 19767 H 1860.11 2.48654 1.92402 0
M  V30 19768 N 1863.88 0.848487 1.3281 0
M  V30 19769 C 1865.3 0.504307 1.7976 0
M  V30 19770 C 1865.65 -0.977408 1.70121 0
M  V30 19771 O 1864.77 -1.7621 1.25614 0
M  V30 19772 C 1865.37 0.908628 3.26388 0
M  V30 19773 C 1863.93 0.616441 3.71318 0
M  V30 19774 C 1863.07 1.11173 2.54039 0
M  V30 19775 H 1866.02 1.03628 1.20195 0
M  V30 19776 H 1866.04 0.222518 3.79849 0
M  V30 19777 H 1865.56 1.98708 3.33372 0
M  V30 19778 H 1863.66 -0.451545 3.69854 0
M  V30 19779 H 1863.77 1.17841 4.64382 0
M  V30 19780 H 1862.13 0.532227 2.49077 0
M  V30 19781 H 1862.92 2.19716 2.6378 0
M  V30 19782 N 1865.36 -1.4549 0.605832 0
M  V30 19783 C 1866.33 -2.28964 -0.104089 0
M  V30 19784 C 1867.33 -1.39671 -0.796791 0
M  V30 19785 O 1868.52 -1.6181 -0.645221 0
M  V30 19786 C 1865.65 -3.20647 -1.1575 0
M  V30 19787 H 1866.84 -2.93213 0.629776 0
M  V30 19788 H 1864.39 -1.51983 0.3648 0
M  V30 19789 H 1865.13 -2.61194 -1.92219 0
M  V30 19790 H 1864.91 -3.86419 -0.665025 0
M  V30 19791 H 1866.4 -3.83416 -1.65474 0
M  V30 19792 N 1866.84 -0.344893 -1.5378 0
M  V30 19793 C 1868.09 0.250711 -2.00539 0
M  V30 19794 C 1868.41 1.5096 -1.23435 0
M  V30 19795 O 1867.68 1.92893 -0.341893 0
M  V30 19796 H 1866.26 0.0956318 -0.740853 0
M  V30 19797 H 1868.92 -0.466361 -1.89238 0
M  V30 19798 H 1868.02 0.49222 -3.08194 0
M  V30 19799 N 1868.32 1.57428 -0.0735454 0
M  V30 19800 C 1869.6 1.84962 0.636265 0
M  V30 19801 C 1869.98 0.966341 1.87683 0
M  V30 19802 O 1869.32 0.0330837 2.28476 0
M  V30 19803 C 1869.53 3.35184 0.972251 0
M  V30 19804 C 1870.88 4.02735 1.34499 0
M  V30 19805 O 1871.91 3.3994 1.06393 0
M  V30 19806 O 1870.76 5.13495 1.87043 0
M  V30 19807 H 1867.86 0.764169 0.316187 0
M  V30 19808 H 1870.4 1.69377 -0.104609 0
M  V30 19809 H 1869.18 3.91194 0.0912319 0
M  V30 19810 H 1868.8 3.56038 1.76983 0
M  V30 19811 N 1869.8 -0.200022 1.56326 0
M  V30 19812 C 1871.07 -0.946774 1.71159 0
M  V30 19813 C 1871.45 -2.01576 0.626939 0
M  V30 19814 O 1870.8 -2.25601 -0.362834 0
M  V30 19815 C 1871.01 -1.53767 3.13299 0
M  V30 19816 C 1872.36 -2.02169 3.7338 0
M  V30 19817 O 1873.38 -1.6362 3.16397 0
M  V30 19818 O 1872.24 -2.7309 4.73375 0
M  V30 19819 H 1869.34 -0.443669 0.697916 0
M  V30 19820 H 1871.88 -0.190107 1.68632 0
M  V30 19821 H 1870.65 -0.766886 3.83712 0
M  V30 19822 H 1870.28 -2.35931 3.20035 0
M  V30 19823 N 1871.27 -1.50505 -0.467553 0
M  V30 19824 C 1872.21 -1.64271 -1.58399 0
M  V30 19825 C 1873.19 -0.490745 -1.55018 0
M  V30 19826 O 1874.37 -0.710709 -1.74589 0
M  V30 19827 C 1871.5 -1.62854 -2.96978 0
M  V30 19828 C 1870.54 -2.83654 -3.18501 0
M  V30 19829 S 1871.38 -4.44908 -2.98022 0
M  V30 19830 C 1872.53 -4.4619 -4.38937 0
M  V30 19831 H 1872.76 -2.58708 -1.46484 0
M  V30 19832 H 1870.3 -1.39812 -0.655141 0
M  V30 19833 H 1872.26 -1.62722 -3.76871 0
M  V30 19834 H 1870.92 -0.696465 -3.06281 0
M  V30 19835 H 1870.11 -2.78977 -4.19747 0
M  V30 19836 H 1869.71 -2.81371 -2.46386 0
M  V30 19837 H 1872 -4.1997 -5.31631 0
M  V30 19838 H 1872.95 -5.47826 -4.48656 0
M  V30 19839 H 1873.35 -3.75855 -4.21181 0
M  V30 19840 N 1872.75 0.720973 -1.40142 0
M  V30 19841 C 1873.98 1.51012 -1.41431 0
M  V30 19842 C 1874.4 1.88796 -0.0125516 0
M  V30 19843 O 1873.75 1.55073 0.962217 0
M  V30 19844 C 1873.8 2.78886 -2.3001 0
M  V30 19845 O 1873.52 2.42703 -3.64729 0
M  V30 19846 C 1875.03 3.7282 -2.39834 0
M  V30 19847 H 1872.25 0.466214 -0.482582 0
M  V30 19848 H 1874.79 0.889777 -1.84128 0
M  V30 19849 H 1872.94 3.37219 -1.90689 0
M  V30 19850 H 1873.36 3.24945 -4.11717 0
M  V30 19851 H 1874.83 4.594 -3.06032 0
M  V30 19852 H 1875.31 4.15552 -1.42173 0
M  V30 19853 H 1875.92 3.20402 -2.79684 0
M  V30 19854 N 1874.23 1.25549 0.952634 0
M  V30 19855 C 1875.16 1.08592 2.06712 0
M  V30 19856 C 1876.14 -0.00560571 1.70099 0
M  V30 19857 O 1877.33 0.164299 1.93504 0
M  V30 19858 C 1874.46 0.705984 3.40049 0
M  V30 19859 C 1873.41 1.74797 3.90679 0
M  V30 19860 C 1872.74 1.22266 5.20533 0
M  V30 19861 C 1874.04 3.14717 4.16834 0
M  V30 19862 H 1875.73 2.01816 2.21157 0
M  V30 19863 H 1873.28 0.971723 1.06271 0
M  V30 19864 H 1875.23 0.57428 4.17469 0
M  V30 19865 H 1873.95 -0.261964 3.25548 0
M  V30 19866 H 1872.61 1.86815 3.1543 0
M  V30 19867 H 1872.26 0.244887 5.02404 0
M  V30 19868 H 1871.96 1.9191 5.55377 0
M  V30 19869 H 1873.48 1.10339 6.00548 0
M  V30 19870 H 1874.9 3.05842 4.84906 0
M  V30 19871 H 1873.3 3.81849 4.62938 0
M  V30 19872 H 1874.37 3.61629 3.23037 0
M  V30 19873 N 1875.71 -1.15554 1.07168 0
M  V30 19874 C 1876.96 -1.86296 0.793718 0
M  V30 19875 C 1877.28 -1.8222 -0.680145 0
M  V30 19876 O 1876.54 -1.23899 -1.51485 0
M  V30 19877 C 1876.84 -3.3502 1.24484 0
M  V30 19878 C 1876.5 -3.59292 2.72434 0
M  V30 19879 C 1875.17 -3.65625 3.12844 0
M  V30 19880 C 1877.52 -3.69147 3.6794 0
M  V30 19881 C 1874.85 -3.79323 4.47584 0
M  V30 19882 C 1877.2 -3.84368 5.02438 0
M  V30 19883 C 1875.86 -3.88946 5.42473 0
M  V30 19884 H 1875.13 -0.681707 0.290442 0
M  V30 19885 H 1877.78 -1.36575 1.34236 0
M  V30 19886 H 1876.08 -3.86934 0.615546 0
M  V30 19887 H 1877.78 -3.88158 1.00669 0
M  V30 19888 H 1874.37 -3.55002 2.40149 0
M  V30 19889 H 1878.55 -3.63556 3.37847 0
M  V30 19890 H 1873.81 -3.81124 4.78074 0
M  V30 19891 H 1877.98 -3.90935 5.76318 0
M  V30 19892 H 1875.61 -3.99312 6.4688 0
M  V30 19893 N 1877.19 -0.855519 -1.32358 0
M  V30 19894 C 1878.43 -0.465622 -1.99026 0
M  V30 19895 C 1878.79 0.960971 -1.66221 0
M  V30 19896 O 1879.99 1.45547 -2.25986 0
M  V30 19897 C 1878.26 -0.698892 -3.505 0
M  V30 19898 S 1879.82 -0.406697 -4.36911 0
M  V30 19899 H 1876.64 -0.1744 -0.689279 0
M  V30 19900 H 1879.24 -1.10842 -1.61041 0
M  V30 19901 H 1877.95 -1.73623 -3.71865 0
M  V30 19902 H 1877.48 -0.0425537 -3.93377 0
M  V30 19903 H 1879.49 0.766931 -4.90237 0
M  V30 19904 N 1878.67 1.45167 -0.61354 0
M  V30 19905 C 1879.6 2.28772 0.140015 0
M  V30 19906 C 1880.61 1.4029 0.825993 0
M  V30 19907 O 1881.8 1.64608 0.690385 0
M  V30 19908 C 1878.9 3.16195 1.21959 0
M  V30 19909 C 1878.07 4.3299 0.619571 0
M  V30 19910 C 1877.13 5.01577 1.59081 0
M  V30 19911 O 1876.16 5.58177 1.11479 0
M  V30 19912 N 1877.36 5.01408 2.92523 0
M  V30 19913 H 1880.12 2.94085 -0.577406 0
M  V30 19914 H 1877.69 1.5542 -0.453443 0
M  V30 19915 H 1879.68 3.58943 1.86927 0
M  V30 19916 H 1878.25 2.5275 1.83946 0
M  V30 19917 H 1877.47 3.93649 -0.20833 0
M  V30 19918 H 1878.76 5.08411 0.199025 0
M  V30 19919 H 1878.15 4.56725 3.33794 0
M  V30 19920 H 1876.71 5.48002 3.52898 0
M  V30 19921 N 1880.14 0.353044 1.53595 0
M  V30 19922 C 1881.08 -0.542593 2.21656 0
M  V30 19923 C 1882.05 -1.09287 1.20396 0
M  V30 19924 O 1883.24 -1.15136 1.49251 0
M  V30 19925 C 1880.37 -1.74739 2.90145 0
M  V30 19926 C 1879.41 -1.32571 4.05373 0
M  V30 19927 S 1880.24 -0.337517 5.34435 0
M  V30 19928 C 1881.4 -1.54893 6.06431 0
M  V30 19929 H 1881.63 0.0354663 2.97279 0
M  V30 19930 H 1879.17 0.137127 1.5379 0
M  V30 19931 H 1881.12 -2.43853 3.30221 0
M  V30 19932 H 1879.79 -2.29668 2.1427 0
M  V30 19933 H 1878.98 -2.22426 4.52264 0
M  V30 19934 H 1878.58 -0.713934 3.67123 0
M  V30 19935 H 1880.87 -2.48194 6.30401 0
M  V30 19936 H 1881.82 -1.12163 6.9916 0
M  V30 19937 H 1882.22 -1.74929 5.36712 0
M  V30 19938 N 1881.62 -1.57387 0.0818932 0
M  V30 19939 C 1882.87 -1.94156 -0.585765 0
M  V30 19940 C 1883.2 -0.962889 -1.68648 0
M  V30 19941 O 1882.48 0.00625819 -1.94499 0
M  V30 19942 C 1882.76 -3.41132 -1.15329 0
M  V30 19943 C 1882.61 -4.49762 -0.0585349 0
M  V30 19944 C 1883.93 -3.89137 -2.05573 0
M  V30 19945 H 1881.05 -0.706012 -0.211463 0
M  V30 19946 H 1883.69 -1.89408 0.149918 0
M  V30 19947 H 1881.84 -3.4531 -1.78026 0
M  V30 19948 H 1883.51 -4.57702 0.575061 0
M  V30 19949 H 1881.76 -4.29496 0.609574 0
M  V30 19950 H 1882.43 -5.49765 -0.496206 0
M  V30 19951 H 1884.9 -3.87029 -1.52798 0
M  V30 19952 H 1883.78 -4.92569 -2.42213 0
M  V30 19953 H 1884.04 -3.27663 -2.96799 0
M  V30 19954 N 1883.1 0.191729 -1.56429 0
M  V30 19955 C 1884.32 0.931804 -1.85289 0
M  V30 19956 C 1884.75 1.7592 -0.665864 0
M  V30 19957 O 1884.11 1.77158 0.385313 0
M  V30 19958 C 1884.16 1.801 -3.12404 0
M  V30 19959 O 1883.26 2.9002 -2.93193 0
M  V30 19960 H 1882.6 0.262213 -0.610033 0
M  V30 19961 H 1885.13 0.196028 -2.03659 0
M  V30 19962 H 1885.14 2.20499 -3.43285 0
M  V30 19963 H 1883.82 1.19309 -3.9842 0
M  V30 19964 H 1882.39 2.53352 -2.73619 0
M  V30 19965 N 1884.58 1.50751 0.459565 0
M  V30 19966 C 1885.8 1.66367 1.23842 0
M  V30 19967 C 1886.23 0.351355 1.84789 0
M  V30 19968 O 1885.59 -0.686103 1.67816 0
M  V30 19969 C 1885.63 2.76521 2.31449 0
M  V30 19970 O 1884.74 2.38576 3.36386 0
M  V30 19971 H 1884.08 0.555447 0.363833 0
M  V30 19972 H 1886.61 1.97193 0.545538 0
M  V30 19973 H 1886.62 2.99943 2.76583 0
M  V30 19974 H 1885.29 3.71759 1.86462 0
M  V30 19975 H 1883.87 2.25643 2.96883 0
M  V30 19976 N 1886.06 -0.713531 1.40522 0
M  V30 19977 C 1887.3 -1.47561 1.39117 0
M  V30 19978 C 1887.63 -1.94199 -0.00592038 0
M  V30 19979 O 1886.91 -1.68301 -0.974941 0
M  V30 19980 C 1887.19 -2.70023 2.38242 0
M  V30 19981 C 1887.05 -2.29266 3.86984 0
M  V30 19982 C 1888.36 -3.72185 2.34875 0
M  V30 19983 H 1885.48 -0.535243 0.50664 0
M  V30 19984 H 1888.13 -0.814172 1.71672 0
M  V30 19985 H 1886.28 -3.26458 2.10611 0
M  V30 19986 H 1887.95 -1.78297 4.2545 0
M  V30 19987 H 1886.19 -1.61246 4.02719 0
M  V30 19988 H 1886.86 -3.17057 4.51862 0
M  V30 19989 H 1889.34 -3.25384 2.59354 0
M  V30 19990 H 1888.21 -4.55507 3.06276 0
M  V30 19991 H 1888.47 -4.20627 1.36108 0
M  V30 19992 N 1887.53 -1.26053 -0.945962 0
M  V30 19993 C 1888.76 -1.14079 -1.72608 0
M  V30 19994 C 1889.18 0.304506 -1.86328 0
M  V30 19995 O 1888.53 1.20885 -1.36723 0
M  V30 19996 C 1888.58 -1.79938 -3.13535 0
M  V30 19997 O 1888.31 -3.18819 -3.00476 0
M  V30 19998 C 1889.81 -1.73856 -4.07785 0
M  V30 19999 H 1887.03 -0.397486 -0.540598 0
M  V30 20000 H 1889.57 -1.66582 -1.1862 0
M  V30 20001 H 1887.73 -1.31385 -3.6444 0
M  V30 20002 H 1888.14 -3.51337 -3.89439 0
M  V30 20003 H 1889.61 -2.24584 -5.04248 0
M  V30 20004 H 1890.09 -0.704095 -4.33519 0
M  V30 20005 H 1890.7 -2.21939 -3.62799 0
M  V30 20006 N 1889.01 1.14984 -1.07779 0
M  V30 20007 C 1890.26 1.85873 -0.803587 0
M  V30 20008 C 1890.59 1.82579 0.670472 0
M  V30 20009 O 1889.84 1.247 1.50826 0
M  V30 20010 C 1890.14 3.34355 -1.26259 0
M  V30 20011 C 1889.81 3.57842 -2.74335 0
M  V30 20012 C 1888.47 3.63961 -3.14779 0
M  V30 20013 C 1890.82 3.67191 -3.69893 0
M  V30 20014 C 1888.15 3.76944 -4.49589 0
M  V30 20015 C 1890.5 3.81698 -5.04469 0
M  V30 20016 C 1889.16 3.86064 -5.44528 0
M  V30 20017 H 1888.43 0.680157 -0.294053 0
M  V30 20018 H 1891.08 1.35862 -1.34959 0
M  V30 20019 H 1889.39 3.86603 -0.636057 0
M  V30 20020 H 1891.08 3.87619 -1.02727 0
M  V30 20021 H 1887.67 3.53723 -2.42028 0
M  V30 20022 H 1891.86 3.61759 -3.3977 0
M  V30 20023 H 1887.11 3.78583 -4.80088 0
M  V30 20024 H 1891.29 3.87873 -5.78383 0
M  V30 20025 H 1888.91 3.95876 -6.48989 0
M  V30 20026 N 1890.49 0.862526 1.31902 0
M  V30 20027 C 1891.74 0.465956 1.96244 0
M  V30 20028 C 1892.05 -0.985243 1.68974 0
M  V30 20029 O 1893.26 -1.48761 2.27118 0
M  V30 20030 C 1891.71 0.782319 3.51294 0
M  V30 20031 C 1891.32 2.24978 3.87413 0
M  V30 20032 C 1893.07 0.453857 4.22067 0
M  V30 20033 C 1890.97 2.50894 5.35543 0
M  V30 20034 H 1889.9 0.170515 0.734466 0
M  V30 20035 H 1892.55 1.0544 1.50182 0
M  V30 20036 H 1890.94 0.123217 3.95808 0
M  V30 20037 H 1892.11 2.95132 3.53884 0
M  V30 20038 H 1890.42 2.54354 3.29687 0
M  V30 20039 H 1893.02 0.624812 5.31037 0
M  V30 20040 H 1893.36 -0.605145 4.11878 0
M  V30 20041 H 1893.9 1.06918 3.83162 0
M  V30 20042 H 1890.64 3.55449 5.5076 0
M  V30 20043 H 1890.16 1.85326 5.70451 0
M  V30 20044 H 1891.84 2.35244 6.02718 0
M  V30 20045 N 1891.97 -1.4484 0.62123 0
M  V30 20046 C 1893.38 -1.85568 0.205284 0
M  V30 20047 C 1893.73 -1.51963 -1.24104 0
M  V30 20048 O 1892.86 -0.952887 -1.94291 0
M  V30 20049 C 1893.45 -3.3682 0.365788 0
M  V30 20050 C 1892.01 -3.764 0.00442911 0
M  V30 20051 C 1891.16 -2.68736 0.683839 0
M  V30 20052 H 1894.11 -1.35447 0.827036 0
M  V30 20053 H 1894.13 -3.78411 -0.398123 0
M  V30 20054 H 1893.64 -3.61247 1.41853 0
M  V30 20055 H 1891.74 -3.57588 -1.04696 0
M  V30 20056 H 1891.85 -4.77363 0.407588 0
M  V30 20057 H 1890.22 -2.54417 0.120114 0
M  V30 20058 H 1891 -2.95997 1.73898 0
M  V30 20059 N 1893.45 -0.361184 -1.53405 0
M  V30 20060 C 1894.86 0.118972 -1.86321 0
M  V30 20061 C 1895.21 1.48531 -1.28191 0
M  V30 20062 O 1894.33 2.07851 -0.602253 0
M  V30 20063 C 1894.93 0.222658 -3.38068 0
M  V30 20064 C 1893.49 0.647065 -3.70796 0
M  V30 20065 C 1892.63 -0.208424 -2.76516 0
M  V30 20066 H 1895.59 -0.580142 -1.47716 0
M  V30 20067 H 1895.61 1.04702 -3.65811 0
M  V30 20068 H 1895.12 -0.771922 -3.80346 0
M  V30 20069 H 1893.22 1.65003 -3.34073 0
M  V30 20070 H 1893.33 0.424724 -4.77214 0
M  V30 20071 H 1891.7 0.322011 -2.52656 0
M  V30 20072 H 1892.48 -1.20046 -3.21627 0
M  V30 20073 N 1894.92 1.57341 -0.0902386 0
M  V30 20074 C 1895.86 2.09404 0.906927 0
M  V30 20075 C 1896.84 1.00345 1.27944 0
M  V30 20076 O 1898.02 1.2781 1.38553 0
M  V30 20077 C 1895.15 2.567 2.20959 0
M  V30 20078 C 1894.19 3.77371 1.98729 0
M  V30 20079 S 1895.03 5.21189 1.22974 0
M  V30 20080 C 1896.18 5.71831 2.5448 0
M  V30 20081 H 1896.41 2.93657 0.463996 0
M  V30 20082 H 1893.95 1.5391 0.122943 0
M  V30 20083 H 1895.91 2.84608 2.95819 0
M  V30 20084 H 1894.57 1.72682 2.62373 0
M  V30 20085 H 1893.76 4.08516 2.95179 0
M  V30 20086 H 1893.36 3.49932 1.31999 0
M  V30 20087 H 1895.65 5.79801 3.50481 0
M  V30 20088 H 1896.6 6.70416 2.27921 0
M  V30 20089 H 1897 4.99738 2.6253 0
M  V30 20090 N 1896.4 -0.183431 1.56529 0
M  V30 20091 C 1897.37 -1.21097 1.94597 0
M  V30 20092 C 1898.37 -1.37825 0.828305 0
M  V30 20093 O 1899.56 -1.35438 1.09555 0
M  V30 20094 C 1896.69 -2.57826 2.23021 0
M  V30 20095 H 1897.88 -0.885275 2.86536 0
M  V30 20096 H 1895.43 -0.425412 1.50399 0
M  V30 20097 H 1896.17 -2.95431 1.33758 0
M  V30 20098 H 1895.95 -2.47054 3.04478 0
M  V30 20099 H 1897.44 -3.31902 2.53437 0
M  V30 20100 N 1897.88 -1.50992 -0.451564 0
M  V30 20101 C 1899.16 -1.53486 -1.2125 0
M  V30 20102 C 1899.54 -0.290809 -2.09087 0
M  V30 20103 O 1898.89 0.724859 -2.16698 0
M  V30 20104 C 1899.1 -2.84125 -2.02667 0
M  V30 20105 C 1900.44 -3.35535 -2.60195 0
M  V30 20106 O 1901.47 -2.85579 -2.12892 0
M  V30 20107 O 1900.33 -4.22667 -3.46432 0
M  V30 20108 H 1897.42 -0.616481 -0.551253 0
M  V30 20109 H 1899.97 -1.63296 -0.461792 0
M  V30 20110 H 1898.74 -3.66134 -1.38064 0
M  V30 20111 H 1898.36 -2.7741 -2.84832 0
M  V30 20112 N 1899.36 0.706069 -1.40899 0
M  V30 20113 C 1900.29 1.83275 -1.44681 0
M  V30 20114 C 1901.27 1.67313 -0.306629 0
M  V30 20115 O 1902.45 1.87203 -0.516597 0
M  V30 20116 C 1899.58 3.21319 -1.318 0
M  V30 20117 C 1898.54 3.51969 -2.4352 0
M  V30 20118 C 1897.86 4.89258 -2.1571 0
M  V30 20119 C 1899.16 3.52004 -3.85864 0
M  V30 20120 H 1900.86 1.80367 -2.38973 0
M  V30 20121 H 1898.4 0.866349 -1.15023 0
M  V30 20122 H 1900.36 3.99841 -1.3306 0
M  V30 20123 H 1899.08 3.24827 -0.339879 0
M  V30 20124 H 1897.74 2.75792 -2.41525 0
M  V30 20125 H 1897.39 4.89378 -1.16266 0
M  V30 20126 H 1897.09 5.1073 -2.90566 0
M  V30 20127 H 1898.61 5.70102 -2.18669 0
M  V30 20128 H 1900.03 4.20548 -3.8963 0
M  V30 20129 H 1898.42 3.85005 -4.60316 0
M  V30 20130 H 1899.49 2.51191 -4.14766 0
M  V30 20131 N 1900.84 1.26553 0.939264 0
M  V30 20132 C 1902.25 1.11093 1.50051 0
M  V30 20133 C 1902.6 -0.308105 1.93766 0
M  V30 20134 O 1901.72 -1.19981 1.80093 0
M  V30 20135 C 1902.32 2.01053 2.72696 0
M  V30 20136 C 1900.88 1.89734 3.25082 0
M  V30 20137 C 1900.02 1.94291 1.97854 0
M  V30 20138 H 1902.98 1.39614 0.754553 0
M  V30 20139 H 1903 1.55955 3.47071 0
M  V30 20140 H 1902.51 3.04325 2.40848 0
M  V30 20141 H 1900.61 0.894042 3.61715 0
M  V30 20142 H 1900.72 2.75368 3.92058 0
M  V30 20143 H 1899.09 1.38367 2.13838 0
M  V30 20144 H 1899.87 2.99196 1.68335 0
M  V30 20145 N 1902.31 -1.14411 1.08387 0
M  V30 20146 C 1903.59 -1.8162 0.726188 0
M  V30 20147 C 1903.97 -1.95755 -0.790129 0
M  V30 20148 O 1903.32 -1.51725 -1.70856 0
M  V30 20149 C 1903.53 -3.17321 1.45287 0
M  V30 20150 C 1904.88 -3.92818 1.6118 0
M  V30 20151 O 1905.9 -3.2691 1.41451 0
M  V30 20152 O 1904.76 -5.1101 1.93728 0
M  V30 20153 H 1901.85 -0.785182 0.25965 0
M  V30 20154 H 1904.4 -1.21431 1.18544 0
M  V30 20155 H 1903.17 -3.02195 2.48584 0
M  V30 20156 H 1902.8 -3.85203 0.985093 0
M  V30 20157 N 1903.79 -0.869509 -1.31443 0
M  V30 20158 C 1904.74 -0.323034 -2.28528 0
M  V30 20159 C 1905.71 0.578245 -1.5571 0
M  V30 20160 O 1906.89 0.509983 -1.83858 0
M  V30 20161 C 1904.03 0.469861 -3.41886 0
M  V30 20162 C 1903.15 -0.458883 -4.29556 0
M  V30 20163 C 1902.28 0.348092 -5.30058 0
M  V30 20164 C 1901.32 -0.577109 -6.09373 0
M  V30 20165 N 1900.46 0.193589 -7.01833 0
M  V30 20166 H 1905.3 -1.15614 -2.74659 0
M  V30 20167 H 1902.84 -0.581526 -1.35117 0
M  V30 20168 H 1904.79 0.945338 -4.06349 0
M  V30 20169 H 1903.42 1.26767 -2.96867 0
M  V30 20170 H 1902.48 -1.05281 -3.65541 0
M  V30 20171 H 1903.79 -1.16833 -4.84924 0
M  V30 20172 H 1902.94 0.886098 -6.00194 0
M  V30 20173 H 1901.68 1.09083 -4.75344 0
M  V30 20174 H 1900.69 -1.12687 -5.38128 0
M  V30 20175 H 1901.91 -1.31869 -6.66174 0
M  V30 20176 H 1899.86 0.919147 -6.49529 0
M  V30 20177 H 1899.77 -0.456525 -7.5462 0
M  V30 20178 H 1901.04 0.71284 -7.76234 0
M  V30 20179 N 1905.27 1.44508 -0.628902 0
M  V30 20180 C 1906.52 2.01667 -0.13224 0
M  V30 20181 C 1906.84 1.49706 1.24953 0
M  V30 20182 O 1906.11 0.699769 1.82976 0
M  V30 20183 H 1904.69 0.745589 -0.0458966 0
M  V30 20184 H 1907.35 1.77037 -0.815102 0
M  V30 20185 H 1906.45 3.11945 -0.0982328 0
M  V30 20186 N 1906.75 0.369315 1.53212 0
M  V30 20187 C 1907.7 -0.475399 2.25851 0
M  V30 20188 C 1908.67 -1.07444 1.26669 0
M  V30 20189 O 1909.85 -1.10623 1.55458 0
M  V30 20190 C 1906.99 -1.60725 3.05388 0
M  V30 20191 C 1906.1 -1.03302 4.19467 0
M  V30 20192 C 1905.24 -2.13427 4.86438 0
M  V30 20193 C 1904.28 -1.53489 5.92543 0
M  V30 20194 N 1903.42 -2.57463 6.5319 0
M  V30 20195 H 1908.26 0.150534 2.9762 0
M  V30 20196 H 1905.79 0.0860577 1.46848 0
M  V30 20197 H 1907.75 -2.274 3.49779 0
M  V30 20198 H 1906.38 -2.20378 2.35867 0
M  V30 20199 H 1905.43 -0.256437 3.79535 0
M  V30 20200 H 1906.74 -0.55483 4.95705 0
M  V30 20201 H 1905.9 -2.87915 5.34032 0
M  V30 20202 H 1904.64 -2.64599 4.09681 0
M  V30 20203 H 1903.64 -0.775176 5.44308 0
M  V30 20204 H 1904.87 -1.03137 6.71222 0
M  V30 20205 H 1902.81 -3.07841 5.79284 0
M  V30 20206 H 1902.73 -2.14342 7.24978 0
M  V30 20207 H 1904 -3.31642 7.05432 0
M  V30 20208 N 1908.23 -1.57291 0.0985816 0
M  V30 20209 C 1909.19 -2.1307 -0.844628 0
M  V30 20210 C 1910.19 -1.06076 -1.20849 0
M  V30 20211 O 1911.38 -1.31947 -1.13735 0
M  V30 20212 C 1908.51 -2.65416 -2.13933 0
M  V30 20213 H 1909.71 -2.97729 -0.36023 0
M  V30 20214 H 1907.26 -1.55574 -0.150451 0
M  V30 20215 H 1907.99 -1.84287 -2.6685 0
M  V30 20216 H 1907.78 -3.43647 -1.88811 0
M  V30 20217 H 1909.27 -3.08551 -2.814 0
M  V30 20218 N 1909.71 0.175127 -1.56624 0
M  V30 20219 C 1910.95 0.892368 -1.81777 0
M  V30 20220 C 1911.28 1.8241 -0.675051 0
M  V30 20221 O 1910.54 1.9276 0.337944 0
M  V30 20222 C 1910.83 1.72397 -3.13072 0
M  V30 20223 C 1910.5 0.941494 -4.40961 0
M  V30 20224 C 1909.16 0.725524 -4.75699 0
M  V30 20225 C 1911.51 0.392358 -5.19721 0
M  V30 20226 C 1908.84 -0.0507428 -5.86678 0
M  V30 20227 C 1911.19 -0.370801 -6.31512 0
M  V30 20228 C 1909.86 -0.597606 -6.64819 0
M  V30 20229 H 1909.13 0.326541 -0.665171 0
M  V30 20230 H 1911.78 0.157524 -1.90851 0
M  V30 20231 H 1910.08 2.52809 -2.99324 0
M  V30 20232 H 1911.78 2.28189 -3.29743 0
M  V30 20233 H 1908.37 1.11986 -4.13711 0
M  V30 20234 H 1912.55 0.546561 -4.93281 0
M  V30 20235 H 1907.81 -0.236241 -6.10943 0
M  V30 20236 H 1911.98 -0.803585 -6.91748 0
M  V30 20237 H 1909.61 -1.201 -7.50653 0
M  V30 20238 N 1911.18 1.5123 0.44355 0
M  V30 20239 C 1912.46 1.54127 1.20434 0
M  V30 20240 C 1912.84 0.301893 2.0893 0
M  V30 20241 O 1912.19 -0.713356 2.17079 0
M  V30 20242 C 1912.4 2.85196 2.01157 0
M  V30 20243 C 1913.75 3.3691 2.58411 0
M  V30 20244 O 1914.77 2.86704 2.11374 0
M  V30 20245 O 1913.63 4.24498 3.44185 0
M  V30 20246 H 1910.72 0.619396 0.547976 0
M  V30 20247 H 1913.27 1.63539 0.453125 0
M  V30 20248 H 1912.04 3.66861 1.3612 0
M  V30 20249 H 1911.66 2.78917 2.83357 0
M  V30 20250 N 1912.66 -0.698586 1.41271 0
M  V30 20251 C 1913.89 -1.49247 1.44014 0
M  V30 20252 C 1914.31 -1.88043 0.0461888 0
M  V30 20253 O 1913.67 -1.54426 -0.94986 0
M  V30 20254 C 1913.72 -2.73334 2.35204 0
M  V30 20255 O 1912.82 -3.70704 1.807 0
M  V30 20256 H 1912.16 -0.449313 0.488891 0
M  V30 20257 H 1914.69 -0.858936 1.85697 0
M  V30 20258 H 1914.7 -3.21676 2.50975 0
M  V30 20259 H 1913.38 -2.44433 3.3649 0
M  V30 20260 H 1911.95 -3.29624 1.74363 0
M  V30 20261 N 1914.14 -1.27049 -0.93254 0
M  V30 20262 C 1915.56 -1.04349 -1.20762 0
M  V30 20263 C 1915.76 0.225981 -2.00229 0
M  V30 20264 O 1914.81 0.932788 -2.34639 0
M  V30 20265 C 1916.12 -2.28004 -1.96048 0
M  V30 20266 C 1917.67 -2.32993 -2.09006 0
M  V30 20267 C 1918.15 -3.56364 -2.87696 0
M  V30 20268 N 1919.64 -3.56892 -2.95266 0
M  V30 20269 C 1920.37 -4.49022 -3.56604 0
M  V30 20270 N 1919.87 -5.51451 -4.19374 0
M  V30 20271 N 1921.66 -4.36656 -3.53961 0
M  V30 20272 H 1913.81 -2.0857 -0.401516 0
M  V30 20273 H 1916.08 -0.917061 -0.240213 0
M  V30 20274 H 1915.78 -3.20386 -1.45072 0
M  V30 20275 H 1915.66 -2.32937 -2.96682 0
M  V30 20276 H 1918.04 -1.41119 -2.5917 0
M  V30 20277 H 1918.12 -2.32065 -1.07607 0
M  V30 20278 H 1917.77 -4.48571 -2.38216 0
M  V30 20279 H 1917.7 -3.54541 -3.89369 0
M  V30 20280 H 1920.19 -2.82812 -2.5065 0
M  V30 20281 H 1920.5 -6.17924 -4.64101 0
M  V30 20282 H 1918.85 -5.55298 -4.17934 0
M  V30 20283 H 1922.04 -3.55848 -3.04122 0
M  V30 20284 H 1922.21 -5.08647 -4.01475 0
M  V30 20285 N 1915.62 1.13835 -1.08993 0
M  V30 20286 C 1916.86 1.8501 -0.823256 0
M  V30 20287 C 1917.19 1.83279 0.65107 0
M  V30 20288 O 1916.45 1.26293 1.49495 0
M  V30 20289 C 1916.75 3.32997 -1.29798 0
M  V30 20290 C 1916.41 3.54912 -2.78115 0
M  V30 20291 C 1915.07 3.60602 -3.18622 0
M  V30 20292 C 1917.43 3.63247 -3.73766 0
M  V30 20293 C 1914.75 3.72154 -4.53562 0
M  V30 20294 C 1917.11 3.76326 -5.0849 0
M  V30 20295 C 1915.77 3.80267 -5.48592 0
M  V30 20296 H 1915.04 0.677 -0.301251 0
M  V30 20297 H 1917.69 1.34423 -1.36392 0
M  V30 20298 H 1915.99 3.85906 -0.677026 0
M  V30 20299 H 1917.69 3.86507 -1.06832 0
M  V30 20300 H 1914.28 3.51136 -2.45767 0
M  V30 20301 H 1918.46 3.58135 -3.43588 0
M  V30 20302 H 1913.72 3.7347 -4.84077 0
M  V30 20303 H 1917.89 3.81717 -5.82465 0
M  V30 20304 H 1915.52 3.8897 -6.53151 0
M  V30 20305 N 1917.1 0.876467 1.3098 0
M  V30 20306 C 1918.34 0.491367 1.96757 0
M  V30 20307 C 1918.67 -0.955274 1.6908 0
M  V30 20308 O 1917.95 -1.6737 0.990843 0
M  V30 20309 C 1918.23 0.756745 3.52059 0
M  V30 20310 C 1918.09 2.25339 3.89284 0
M  V30 20311 C 1919.4 0.227549 4.39511 0
M  V30 20312 H 1916.52 0.179998 0.714681 0
M  V30 20313 H 1919.17 1.0989 1.54997 0
M  V30 20314 H 1917.32 0.239657 3.8776 0
M  V30 20315 H 1918.99 2.83824 3.63651 0
M  V30 20316 H 1917.23 2.72341 3.37658 0
M  V30 20317 H 1917.9 2.38971 4.97591 0
M  V30 20318 H 1920.38 0.670016 4.1067 0
M  V30 20319 H 1919.25 0.442629 5.47112 0
M  V30 20320 H 1919.51 -0.870833 4.33438 0
M  V30 20321 N 1918.57 -1.44173 0.636557 0
M  V30 20322 C 1919.5 -2.33442 -0.0518719 0
M  V30 20323 C 1920.48 -1.48519 -0.829226 0
M  V30 20324 O 1921.67 -1.77225 -0.794028 0
M  V30 20325 C 1918.8 -3.31663 -1.03038 0
M  V30 20326 C 1917.75 -4.26447 -0.364286 0
M  V30 20327 C 1917.08 -5.14577 -1.45308 0
M  V30 20328 C 1918.38 -5.17133 0.732884 0
M  V30 20329 H 1920.07 -2.91255 0.693589 0
M  V30 20330 H 1917.62 -1.40049 0.33499 0
M  V30 20331 H 1919.57 -3.93002 -1.52077 0
M  V30 20332 H 1918.3 -2.72071 -1.80679 0
M  V30 20333 H 1916.96 -3.66448 0.105505 0
M  V30 20334 H 1916.6 -4.51334 -2.22051 0
M  V30 20335 H 1916.3 -5.78807 -1.01274 0
M  V30 20336 H 1917.83 -5.78788 -1.94517 0
M  V30 20337 H 1919.24 -5.72376 0.325363 0
M  V30 20338 H 1917.64 -5.89994 1.09669 0
M  V30 20339 H 1918.71 -4.5782 1.59779 0
M  V30 20340 N 1920.05 -0.377435 -1.53014 0
M  V30 20341 C 1921.29 0.208453 -2.03334 0
M  V30 20342 C 1921.66 1.45024 -1.25826 0
M  V30 20343 O 1922.86 2.11252 -1.66211 0
M  V30 20344 C 1921.13 0.481594 -3.5414 0
M  V30 20345 S 1922.69 1.03946 -4.26311 0
M  V30 20346 H 1919.5 0.0597675 -0.708483 0
M  V30 20347 H 1922.11 -0.523042 -1.88373 0
M  V30 20348 H 1920.81 -0.429474 -4.08147 0
M  V30 20349 H 1920.34 1.24184 -3.73285 0
M  V30 20350 H 1922.36 2.3228 -4.38475 0
M  V30 20351 N 1921.53 1.57237 -0.106922 0
M  V30 20352 C 1922.76 1.99545 0.565392 0
M  V30 20353 C 1923.18 0.985887 1.60193 0
M  V30 20354 O 1922.54 -0.0440657 1.81246 0
M  V30 20355 C 1922.59 3.40779 1.17908 0
M  V30 20356 O 1921.69 3.42656 2.29479 0
M  V30 20357 H 1921.03 0.648556 0.142379 0
M  V30 20358 H 1923.56 2.03699 -0.191829 0
M  V30 20359 H 1923.57 3.78728 1.51754 0
M  V30 20360 H 1922.25 4.13776 0.419776 0
M  V30 20361 H 1920.82 3.16514 1.97164 0
M  V30 20362 N 1923.01 -0.166818 1.56715 0
M  V30 20363 C 1924.24 -0.898169 1.86388 0
M  V30 20364 C 1924.65 -1.75628 0.692837 0
M  V30 20365 O 1924.01 -1.79344 -0.337947 0
M  V30 20366 C 1924.06 -1.77122 3.15135 0
M  V30 20367 O 1923.78 -0.947716 4.27727 0
M  V30 20368 C 1925.28 -2.61185 3.58186 0
M  V30 20369 H 1922.5 -0.260711 0.61828 0
M  V30 20370 H 1925.05 -0.165561 2.03829 0
M  V30 20371 H 1923.2 -2.45711 2.99507 0
M  V30 20372 H 1923.61 -1.54523 5.01221 0
M  V30 20373 H 1925.09 -3.18052 4.51162 0
M  V30 20374 H 1925.57 -3.36273 2.8252 0
M  V30 20375 H 1926.17 -1.9792 3.76441 0
M  V30 20376 N 1924.49 -1.51463 -0.435524 0
M  V30 20377 C 1925.43 -1.73484 -1.54939 0
M  V30 20378 C 1926.43 -0.601197 -1.58373 0
M  V30 20379 O 1927.63 -0.782622 -1.62096 0
M  V30 20380 H 1924.01 -0.54818 -0.514784 0
M  V30 20381 H 1925.98 -2.66851 -1.3354 0
M  V30 20382 C 1924.73 -1.87866 -2.92578 0
M  V30 20383 H 1924.05 -2.74503 -2.90668 0
M  V30 20384 H 1925.49 -2.07285 -3.69877 0
M  V30 20385 C 1923.95 -0.638928 -3.30786 0
M  V30 20386 O 1924.48 0.205561 -4.01174 0
M  V30 20387 N 1922.69 -0.48249 -2.86567 0
M  V30 20388 H 1922.23 -1.17078 -2.29457 0
M  V30 20389 H 1922.19 0.345753 -3.12493 0
M  V30 20390 N 1925.96 0.691085 -1.4164 0
M  V30 20391 C 1926.91 1.79718 -1.40305 0
M  V30 20392 C 1927.9 1.58502 -0.276751 0
M  V30 20393 O 1929.09 1.69258 -0.517761 0
M  V30 20394 C 1926.22 3.18059 -1.29203 0
M  V30 20395 C 1925.31 3.44954 -2.46714 0
M  V30 20396 N 1925.7 3.42522 -3.72172 0
M  V30 20397 C 1923.99 3.75521 -2.40624 0
M  V30 20398 C 1924.7 3.68447 -4.50135 0
M  V30 20399 N 1923.67 3.88412 -3.80312 0
M  V30 20400 H 1927.47 1.76207 -2.3522 0
M  V30 20401 H 1924.99 0.891261 -1.35758 0
M  V30 20402 H 1926.98 3.97299 -1.26329 0
M  V30 20403 H 1925.64 3.22778 -0.352775 0
M  V30 20404 H 1926.66 3.22799 -4.04996 0
M  V30 20405 H 1923.33 3.87584 -1.55193 0
M  V30 20406 H 1924.72 3.72665 -5.5908 0
M  V30 20407 N 1927.44 1.27542 0.925789 0
M  V30 20408 C 1928.67 1.16921 1.71301 0
M  V30 20409 C 1929.09 -0.270082 1.86151 0
M  V30 20410 O 1928.45 -1.19558 1.36293 0
M  V30 20411 C 1928.5 1.8599 3.08934 0
M  V30 20412 O 1927.6 1.15917 3.95774 0
M  V30 20413 H 1926.94 0.406542 0.524995 0
M  V30 20414 H 1929.47 1.68646 1.15843 0
M  V30 20415 H 1929.48 1.93424 3.59237 0
M  V30 20416 H 1928.16 2.9069 2.97443 0
M  V30 20417 H 1926.74 1.16564 3.54213 0
M  V30 20418 N 1928.92 -1.13255 1.09595 0
M  V30 20419 C 1929.85 -2.20827 0.758791 0
M  V30 20420 C 1930.83 -1.68034 -0.264325 0
M  V30 20421 O 1932.02 -1.93751 -0.132005 0
M  V30 20422 C 1929.15 -3.46831 0.180424 0
M  V30 20423 C 1928.1 -4.12724 1.13325 0
M  V30 20424 C 1927.43 -5.33075 0.416504 0
M  V30 20425 C 1928.73 -4.59862 2.47637 0
M  V30 20426 H 1930.42 -2.49287 1.65821 0
M  V30 20427 H 1927.97 -1.19818 0.798734 0
M  V30 20428 H 1929.92 -4.21346 -0.0675313 0
M  V30 20429 H 1928.64 -3.17773 -0.754194 0
M  V30 20430 H 1927.3 -3.40179 1.36651 0
M  V30 20431 H 1926.95 -5.00281 -0.522308 0
M  V30 20432 H 1926.65 -5.78109 1.05183 0
M  V30 20433 H 1928.17 -6.10344 0.17689 0
M  V30 20434 H 1929.59 -5.25791 2.28509 0
M  V30 20435 H 1927.99 -5.15642 3.06974 0
M  V30 20436 H 1929.06 -3.74294 3.08273 0
M  V30 20437 N 1930.4 -0.883401 -1.30514 0
M  V30 20438 C 1931.33 -0.36516 -2.30627 0
M  V30 20439 C 1932.31 0.551149 -1.60923 0
M  V30 20440 O 1933.49 0.465333 -1.88543 0
M  V30 20441 C 1930.62 0.422552 -3.4472 0
M  V30 20442 C 1929.58 -0.401856 -4.26109 0
M  V30 20443 C 1928.9 0.512363 -5.3224 0
M  V30 20444 C 1930.2 -1.64313 -4.95781 0
M  V30 20445 H 1931.9 -1.20175 -2.74223 0
M  V30 20446 H 1929.44 -0.579315 -1.31833 0
M  V30 20447 H 1931.4 0.795726 -4.13819 0
M  V30 20448 H 1930.12 1.29278 -2.99925 0
M  V30 20449 H 1928.78 -0.75715 -3.58696 0
M  V30 20450 H 1928.43 1.38025 -4.83692 0
M  V30 20451 H 1928.13 -0.0354331 -5.87589 0
M  V30 20452 H 1929.65 0.882088 -6.04195 0
M  V30 20453 H 1931.07 -1.34063 -5.57405 0
M  V30 20454 H 1929.46 -2.13101 -5.60989 0
M  V30 20455 H 1930.53 -2.38843 -4.21998 0
M  V30 20456 N 1931.88 1.43833 -0.644194 0
M  V30 20457 C 1933.1 2.0627 -0.161397 0
M  V30 20458 C 1933.52 1.4823 1.16933 0
M  V30 20459 O 1932.88 0.610133 1.71999 0
M  V30 20460 C 1932.93 3.61459 -0.0545357 0
M  V30 20461 O 1932.65 4.17339 -1.33265 0
M  V30 20462 C 1934.15 4.40955 0.455411 0
M  V30 20463 H 1931.37 0.665503 -0.0857112 0
M  V30 20464 H 1933.91 1.84488 -0.882291 0
M  V30 20465 H 1932.07 3.82457 0.616868 0
M  V30 20466 H 1932.48 5.10916 -1.18597 0
M  V30 20467 H 1933.96 5.49916 0.479159 0
M  V30 20468 H 1934.43 4.13333 1.485 0
M  V30 20469 H 1935.04 4.24905 -0.18319 0
M  V30 20470 N 1933.35 0.385544 1.52811 0
M  V30 20471 C 1934.77 -0.0893152 1.86486 0
M  V30 20472 C 1935.12 -1.46473 1.30538 0
M  V30 20473 O 1934.24 -2.06866 0.635244 0
M  V30 20474 C 1934.84 -0.168846 3.38379 0
M  V30 20475 C 1933.4 -0.587992 3.71779 0
M  V30 20476 C 1932.54 0.252389 2.76149 0
M  V30 20477 H 1935.49 0.603569 1.46774 0
M  V30 20478 H 1935.51 -0.988694 3.6743 0
M  V30 20479 H 1935.03 0.832334 3.7907 0
M  V30 20480 H 1933.13 -1.59668 3.36656 0
M  V30 20481 H 1933.24 -0.34875 4.77829 0
M  V30 20482 H 1931.6 -0.281775 2.53137 0
M  V30 20483 H 1932.39 1.25148 3.19676 0
M  V30 20484 N 1934.83 -1.57178 0.115259 0
M  V30 20485 C 1936.24 -1.82126 -0.410715 0
M  V30 20486 C 1936.59 -1.03219 -1.66854 0
M  V30 20487 O 1935.72 -0.267639 -2.14739 0
M  V30 20488 C 1936.31 -3.30351 -0.751923 0
M  V30 20489 C 1934.87 -3.55993 -1.22255 0
M  V30 20490 C 1934.02 -2.7635 -0.229344 0
M  V30 20491 H 1936.97 -1.55005 0.340441 0
M  V30 20492 H 1936.99 -3.44775 -1.60968 0
M  V30 20493 H 1936.5 -3.87754 0.163726 0
M  V30 20494 H 1934.61 -3.03942 -2.15522 0
M  V30 20495 H 1934.72 -4.64583 -1.17046 0
M  V30 20496 H 1933.08 -2.4444 -0.715621 0
M  V30 20497 H 1933.87 -3.36511 0.679337 0
M  V30 20498 N 1936.31 0.158505 -1.56801 0
M  V30 20499 C 1937.54 0.888272 -1.86862 0
M  V30 20500 C 1937.95 1.75258 -0.702142 0
M  V30 20501 O 1937.31 1.7952 0.328431 0
M  V30 20502 C 1937.36 1.75448 -3.1607 0
M  V30 20503 O 1937.08 0.925019 -4.28223 0
M  V30 20504 C 1938.58 2.59282 -3.59566 0
M  V30 20505 H 1935.8 0.257429 -0.619654 0
M  V30 20506 H 1938.35 0.154749 -2.03914 0
M  V30 20507 H 1936.5 2.4412 -3.00806 0
M  V30 20508 H 1936.92 1.51863 -5.02034 0
M  V30 20509 H 1938.39 3.15655 -4.52842 0
M  V30 20510 H 1938.87 3.3477 -2.84299 0
M  V30 20511 H 1939.47 1.95921 -3.77485 0
M  V30 20512 N 1937.79 1.51692 0.427485 0
M  V30 20513 C 1939.04 1.64079 1.17308 0
M  V30 20514 C 1939.35 0.367695 1.92113 0
M  V30 20515 O 1940.56 0.371083 2.68952 0
M  V30 20516 C 1939.01 2.89812 2.13394 0
M  V30 20517 C 1938.62 4.24161 1.44191 0
M  V30 20518 C 1940.37 3.11559 2.88325 0
M  V30 20519 C 1938.27 5.41036 2.38819 0
M  V30 20520 H 1937.2 0.611162 0.441584 0
M  V30 20521 H 1939.85 1.78167 0.439193 0
M  V30 20522 H 1938.24 2.6938 2.90259 0
M  V30 20523 H 1939.41 4.5501 0.72817 0
M  V30 20524 H 1937.72 4.08371 0.813739 0
M  V30 20525 H 1940.32 3.96051 3.59232 0
M  V30 20526 H 1940.66 2.25037 3.50234 0
M  V30 20527 H 1941.2 3.32376 2.18565 0
M  V30 20528 H 1937.94 6.29847 1.81585 0
M  V30 20529 H 1937.46 5.1455 3.08218 0
M  V30 20530 H 1939.14 5.73381 2.9974 0
M  V30 20531 N 1939.27 -0.683564 1.42004 0
M  V30 20532 C 1940.5 -1.4721 1.45386 0
M  V30 20533 C 1940.91 -1.88696 0.062603 0
M  V30 20534 O 1940.27 -1.5757 -0.920764 0
M  V30 20535 C 1940.32 -2.7269 2.37323 0
M  V30 20536 O 1940.04 -2.32947 3.71035 0
M  V30 20537 C 1941.54 -3.6633 2.49634 0
M  V30 20538 H 1938.76 -0.453255 0.494773 0
M  V30 20539 H 1941.3 -0.840646 1.86423 0
M  V30 20540 H 1939.46 -3.32044 1.99563 0
M  V30 20541 H 1939.87 -3.13915 4.20188 0
M  V30 20542 H 1941.35 -4.51125 3.18104 0
M  V30 20543 H 1941.82 -4.11636 1.53141 0
M  V30 20544 H 1942.43 -3.12874 2.8808 0
M  V30 20545 N 1940.75 -1.28031 -0.919012 0
M  V30 20546 C 1941.97 -1.17828 -1.70679 0
M  V30 20547 C 1942.4 0.260207 -1.86292 0
M  V30 20548 O 1941.75 1.18833 -1.36925 0
M  V30 20549 C 1941.8 -1.87626 -3.07943 0
M  V30 20550 O 1940.91 -1.18014 -3.95154 0
M  V30 20551 H 1940.25 -0.40932 -0.522832 0
M  V30 20552 H 1942.78 -1.69258 -1.14947 0
M  V30 20553 H 1942.79 -1.95327 -3.58206 0
M  V30 20554 H 1941.46 -2.92263 -2.95897 0
M  V30 20555 H 1940.04 -1.18441 -3.5359 0
M  V30 20556 N 1942.22 1.12672 -1.10194 0
M  V30 20557 C 1943.15 2.20422 -0.770492 0
M  V30 20558 C 1944.13 1.68172 0.25541 0
M  V30 20559 O 1945.32 1.93818 0.121728 0
M  V30 20560 C 1942.45 3.4673 -0.198815 0
M  V30 20561 C 1941.4 4.12118 -1.15512 0
M  V30 20562 C 1940.73 5.32847 -0.444768 0
M  V30 20563 C 1942.03 4.58542 -2.50073 0
M  V30 20564 H 1943.72 2.48404 -1.67141 0
M  V30 20565 H 1941.27 1.19392 -0.805077 0
M  V30 20566 H 1943.22 4.21376 0.0451853 0
M  V30 20567 H 1941.95 3.18168 0.737331 0
M  V30 20568 H 1940.61 3.3945 -1.38453 0
M  V30 20569 H 1940.25 5.00551 0.49577 0
M  V30 20570 H 1939.95 5.77543 -1.08247 0
M  V30 20571 H 1941.48 6.10241 -0.209255 0
M  V30 20572 H 1942.89 5.24572 -2.31294 0
M  V30 20573 H 1941.29 5.14007 -3.09704 0
M  V30 20574 H 1942.36 3.72654 -3.10254 0
M  V30 20575 N 1943.7 0.89031 1.30043 0
M  V30 20576 C 1945.11 0.561241 1.78065 0
M  V30 20577 C 1945.46 -0.922791 1.73144 0
M  V30 20578 O 1944.59 -1.72124 1.31157 0
M  V30 20579 C 1945.18 1.01201 3.23332 0
M  V30 20580 C 1943.74 0.734261 3.69169 0
M  V30 20581 C 1942.89 1.19199 2.50373 0
M  V30 20582 H 1945.84 1.074 1.16838 0
M  V30 20583 H 1945.86 0.343251 3.78949 0
M  V30 20584 H 1945.37 2.09213 3.26881 0
M  V30 20585 H 1943.47 -0.33365 3.71103 0
M  V30 20586 H 1943.59 1.32556 4.60397 0
M  V30 20587 H 1941.95 0.6112 2.47258 0
M  V30 20588 H 1942.73 2.27997 2.56656 0
M  V30 20589 N 1945.18 -1.43489 0.651812 0
M  V30 20590 C 1946.14 -2.29179 -0.0311937 0
M  V30 20591 C 1947.14 -1.42135 -0.751953 0
M  V30 20592 O 1948.33 -1.63781 -0.593416 0
M  V30 20593 C 1945.46 -3.24168 -1.0549 0
M  V30 20594 H 1946.66 -2.91061 0.722741 0
M  V30 20595 H 1944.21 -1.50746 0.412968 0
M  V30 20596 H 1944.95 -2.67177 -1.83812 0
M  V30 20597 H 1944.73 -3.88339 -0.541752 0
M  V30 20598 H 1946.22 -3.88487 -1.53193 0
M  V30 20599 N 1946.66 -0.393643 -1.52605 0
M  V30 20600 C 1947.59 0.483634 -2.23016 0
M  V30 20601 C 1948.57 1.06056 -1.23251 0
M  V30 20602 O 1949.75 1.11138 -1.52252 0
M  V30 20603 C 1946.88 1.66985 -2.94676 0
M  V30 20604 C 1945.93 1.21776 -4.08745 0
M  V30 20605 S 1946.76 0.195703 -5.35142 0
M  V30 20606 C 1947.91 1.3876 -6.10325 0
M  V30 20607 H 1948.15 -0.114272 -2.9708 0
M  V30 20608 H 1945.68 -0.177853 -1.53372 0
M  V30 20609 H 1947.64 2.35012 -3.3657 0
M  V30 20610 H 1946.3 2.23906 -2.20283 0
M  V30 20611 H 1945.49 2.10357 -4.58002 0
M  V30 20612 H 1945.09 0.616347 -3.68886 0
M  V30 20613 H 1947.39 2.31393 -6.3676 0
M  V30 20614 H 1948.33 0.935868 -7.01888 0
M  V30 20615 H 1948.74 1.60638 -5.41162 0
M  V30 20616 N 1948.14 1.57115 -0.123593 0
M  V30 20617 C 1949.08 2.16817 0.842196 0
M  V30 20618 C 1950.08 1.11865 1.27211 0
M  V30 20619 O 1951.28 1.3016 1.24331 0
M  V30 20620 H 1947.66 0.693949 0.289721 0
M  V30 20621 H 1949.63 2.96741 0.314221 0
M  V30 20622 C 1948.38 2.78577 2.08062 0
M  V30 20623 H 1947.7 3.59037 1.75876 0
M  V30 20624 H 1949.14 3.23884 2.73634 0
M  V30 20625 C 1947.6 1.75892 2.87339 0
M  V30 20626 O 1948.13 1.21508 3.82882 0
M  V30 20627 N 1946.34 1.45728 2.5142 0
M  V30 20628 H 1945.88 1.90143 1.73791 0
M  V30 20629 H 1945.84 0.772654 3.04758 0
M  V30 20630 N 1949.61 -0.150187 1.56883 0
M  V30 20631 C 1951.03 -0.502717 1.51476 0
M  V30 20632 C 1951.23 -1.83545 0.831478 0
M  V30 20633 O 1950.29 -2.49301 0.400671 0
M  V30 20634 C 1951.6 -0.515965 2.9624 0
M  V30 20635 C 1953.15 -0.601702 3.07162 0
M  V30 20636 C 1953.62 -0.645643 4.53426 0
M  V30 20637 N 1955.11 -0.707954 4.57758 0
M  V30 20638 C 1955.85 -0.762883 5.68302 0
M  V30 20639 N 1955.34 -0.777353 6.88425 0
M  V30 20640 N 1957.14 -0.803521 5.56327 0
M  V30 20641 H 1949.29 0.723442 1.997 0
M  V30 20642 H 1951.55 0.263405 0.910671 0
M  V30 20643 H 1951.26 0.395034 3.49474 0
M  V30 20644 H 1951.13 -1.35501 3.52022 0
M  V30 20645 H 1953.52 -1.50312 2.53949 0
M  V30 20646 H 1953.6 0.26443 2.5443 0
M  V30 20647 H 1953.24 0.251606 5.07276 0
M  V30 20648 H 1953.17 -1.52822 5.03937 0
M  V30 20649 H 1955.66 -0.7042 3.71281 0
M  V30 20650 H 1955.98 -0.821026 7.68426 0
M  V30 20651 H 1954.32 -0.745281 6.90992 0
M  V30 20652 H 1957.51 -0.789365 4.61396 0
M  V30 20653 H 1957.69 -0.842864 6.42495 0
M  V30 20654 N 1951.09 -1.51916 -0.419434 0
M  V30 20655 C 1952.51 -1.4049 -0.757287 0
M  V30 20656 C 1952.71 -0.501274 -1.95165 0
M  V30 20657 O 1951.76 0.0368349 -2.52473 0
M  V30 20658 C 1953.08 -2.8284 -1.02088 0
M  V30 20659 C 1954.63 -2.92113 -1.12422 0
M  V30 20660 C 1955.1 -4.3541 -1.42064 0
M  V30 20661 N 1956.59 -4.38598 -1.4895 0
M  V30 20662 C 1957.33 -5.46524 -1.73492 0
M  V30 20663 N 1956.82 -6.64583 -1.95706 0
M  V30 20664 N 1958.62 -5.34026 -1.75422 0
M  V30 20665 H 1950.77 -2.09207 0.366909 0
M  V30 20666 H 1953.03 -0.942516 0.101822 0
M  V30 20667 H 1952.74 -3.51038 -0.215755 0
M  V30 20668 H 1952.61 -3.23259 -1.9438 0
M  V30 20669 H 1955 -2.24103 -1.91994 0
M  V30 20670 H 1955.08 -2.55167 -0.179896 0
M  V30 20671 H 1954.72 -5.03976 -0.630123 0
M  V30 20672 H 1954.65 -4.69884 -2.37731 0
M  V30 20673 H 1957.14 -3.53491 -1.33614 0
M  V30 20674 H 1957.46 -7.42621 -2.13854 0
M  V30 20675 H 1955.8 -6.67667 -1.92992 0
M  V30 20676 H 1958.99 -4.40773 -1.57598 0
M  V30 20677 H 1959.16 -6.18212 -1.9421 0
M  V30 20678 N 1952.57 0.676023 -1.42365 0
M  V30 20679 C 1953.82 1.43608 -1.42769 0
M  V30 20680 C 1954.15 1.94451 -0.0436961 0
M  V30 20681 O 1953.4 1.71221 0.947723 0
M  V30 20682 C 1953.7 2.65018 -2.39792 0
M  V30 20683 C 1953.37 2.32724 -3.862 0
M  V30 20684 C 1952.03 2.23628 -4.2608 0
M  V30 20685 C 1954.38 2.06477 -4.78557 0
M  V30 20686 C 1951.71 1.86409 -5.56299 0
M  V30 20687 C 1954.06 1.70763 -6.09116 0
M  V30 20688 C 1952.72 1.60176 -6.47997 0
M  V30 20689 H 1951.99 0.525499 -0.522428 0
M  V30 20690 H 1954.64 0.770932 -1.75297 0
M  V30 20691 H 1952.95 3.36559 -2.00587 0
M  V30 20692 H 1954.64 3.23198 -2.37369 0
M  V30 20693 H 1951.23 2.40705 -3.54625 0
M  V30 20694 H 1955.42 2.12439 -4.48535 0
M  V30 20695 H 1950.67 1.7678 -5.85285 0
M  V30 20696 H 1954.85 1.49479 -6.80168 0
M  V30 20697 H 1952.47 1.31106 -7.48809 0
M  V30 20698 N 1954.05 1.28517 0.912209 0
M  V30 20699 C 1955.3 1.15761 1.6615 0
M  V30 20700 C 1955.62 -0.293495 1.92273 0
M  V30 20701 O 1954.88 -1.22975 1.52235 0
M  V30 20702 C 1955.18 1.90307 3.02519 0
M  V30 20703 C 1954.84 3.40095 2.96051 0
M  V30 20704 C 1953.51 3.80948 2.93994 0
M  V30 20705 C 1955.86 4.35601 2.86185 0
M  V30 20706 C 1953.19 5.15643 2.79873 0
M  V30 20707 C 1955.54 5.70371 2.73604 0
M  V30 20708 C 1954.2 6.10497 2.69906 0
M  V30 20709 H 1953.47 0.423598 0.607985 0
M  V30 20710 H 1956.12 1.59309 1.06268 0
M  V30 20711 H 1954.42 1.39312 3.66196 0
M  V30 20712 H 1956.12 1.77852 3.59402 0
M  V30 20713 H 1952.71 3.07615 2.98447 0
M  V30 20714 H 1956.89 4.05 2.8686 0
M  V30 20715 H 1952.15 5.45858 2.75407 0
M  V30 20716 H 1956.32 6.44035 2.64939 0
M  V30 20717 H 1953.95 7.1482 2.58722 0
M  V30 20718 N 1955.53 -1.12086 1.1079 0
M  V30 20719 C 1956.46 -2.2001 0.78217 0
M  V30 20720 C 1957.44 -1.68305 -0.246488 0
M  V30 20721 O 1958.62 -1.9388 -0.111448 0
M  V30 20722 C 1955.75 -3.4662 0.2172 0
M  V30 20723 C 1954.71 -4.11499 1.17696 0
M  V30 20724 C 1954.03 -5.32604 0.47302 0
M  V30 20725 C 1955.33 -4.5721 2.52501 0
M  V30 20726 H 1957.03 -2.47514 1.68456 0
M  V30 20727 H 1954.57 -1.18964 0.811397 0
M  V30 20728 H 1956.53 -4.21394 -0.0228381 0
M  V30 20729 H 1955.25 -3.18555 -0.720448 0
M  V30 20730 H 1953.91 -3.38711 1.40252 0
M  V30 20731 H 1953.56 -5.00807 -0.469217 0
M  V30 20732 H 1953.26 -5.76961 1.11308 0
M  V30 20733 H 1954.78 -6.10122 0.241615 0
M  V30 20734 H 1956.19 -5.23338 2.34073 0
M  V30 20735 H 1954.59 -5.12357 3.12426 0
M  V30 20736 H 1955.66 -3.71003 3.12226 0
M  V30 20737 N 1957 -0.897194 -1.29569 0
M  V30 20738 C 1958.28 -0.441422 -1.90554 0
M  V30 20739 C 1958.66 1.07875 -1.81456 0
M  V30 20740 O 1958.01 1.9195 -1.23966 0
M  V30 20741 C 1958.22 -0.953195 -3.35731 0
M  V30 20742 C 1959.57 -0.995408 -4.12767 0
M  V30 20743 O 1960.59 -0.900693 -3.44624 0
M  V30 20744 O 1959.45 -1.13729 -5.34535 0
M  V30 20745 H 1956.54 -0.137172 -0.815545 0
M  V30 20746 H 1959.09 -0.986896 -1.38052 0
M  V30 20747 H 1957.86 -1.99715 -3.36496 0
M  V30 20748 H 1957.49 -0.387587 -3.95706 0
M  V30 20749 N 1958.48 1.43142 -0.659413 0
M  V30 20750 C 1959.41 2.33495 0.0147266 0
M  V30 20751 C 1960.39 1.49819 0.805493 0
M  V30 20752 O 1961.58 1.78466 0.765732 0
M  V30 20753 C 1958.71 3.33261 0.977483 0
M  V30 20754 C 1957.66 4.26972 0.296396 0
M  V30 20755 C 1956.99 5.16824 1.37103 0
M  V30 20756 C 1958.29 5.15901 -0.815063 0
M  V30 20757 H 1959.98 2.90115 -0.739837 0
M  V30 20758 H 1957.53 1.39499 -0.357229 0
M  V30 20759 H 1959.48 3.95372 1.45805 0
M  V30 20760 H 1958.21 2.74911 1.76328 0
M  V30 20761 H 1956.86 3.66234 -0.16379 0
M  V30 20762 H 1956.51 4.5481 2.14842 0
M  V30 20763 H 1956.21 5.80345 0.920528 0
M  V30 20764 H 1957.74 5.81809 1.85284 0
M  V30 20765 H 1959.15 5.71786 -0.416382 0
M  V30 20766 H 1957.55 5.88175 -1.19041 0
M  V30 20767 H 1958.62 4.5522 -1.67042 0
M  V30 20768 N 1959.96 0.40173 1.52394 0
M  V30 20769 C 1961.24 -0.234644 1.94187 0
M  V30 20770 C 1961.62 -1.63273 1.3381 0
M  V30 20771 O 1960.97 -2.22713 0.511013 0
M  V30 20772 C 1961.18 -0.248454 3.48114 0
M  V30 20773 C 1962.52 -0.471396 4.21975 0
M  V30 20774 O 1963.55 -0.328131 3.54685 0
M  V30 20775 O 1962.41 -0.753135 5.41286 0
M  V30 20776 H 1959.5 -0.149075 0.813453 0
M  V30 20777 H 1962.05 0.457138 1.63427 0
M  V30 20778 H 1960.82 0.730355 3.84424 0
M  V30 20779 H 1960.44 -0.984644 3.85215 0
M  V30 20780 N 1961.44 -1.57047 0.131923 0
M  V30 20781 C 1962.69 -1.94807 -0.522807 0
M  V30 20782 C 1963 -1.01837 -1.66998 0
M  V30 20783 O 1964.21 -1.29115 -2.38834 0
M  V30 20784 C 1962.66 -3.4626 -0.981434 0
M  V30 20785 C 1962.27 -4.47787 0.137988 0
M  V30 20786 C 1964.01 -3.92915 -1.60681 0
M  V30 20787 C 1961.92 -5.90433 -0.338063 0
M  V30 20788 H 1960.85 -0.727245 -0.199076 0
M  V30 20789 H 1963.5 -1.8225 0.213851 0
M  V30 20790 H 1961.88 -3.54096 -1.7729 0
M  V30 20791 H 1963.06 -4.51632 0.914591 0
M  V30 20792 H 1961.37 -4.10961 0.670823 0
M  V30 20793 H 1963.97 -4.96914 -1.97434 0
M  V30 20794 H 1964.31 -3.33615 -2.49011 0
M  V30 20795 H 1964.85 -3.87933 -0.880514 0
M  V30 20796 H 1961.59 -6.53517 0.509502 0
M  V30 20797 H 1961.11 -5.89981 -1.08087 0
M  V30 20798 H 1962.78 -6.42096 -0.795053 0
M  V30 20799 N 1962.92 0.141865 -1.5696 0
M  V30 20800 C 1964.17 0.852066 -1.82819 0
M  V30 20801 C 1964.48 1.82103 -0.713987 0
M  V30 20802 O 1965.68 2.57575 -0.858321 0
M  V30 20803 C 1964.14 1.56589 -3.24049 0
M  V30 20804 C 1963.75 0.639071 -4.43418 0
M  V30 20805 C 1965.49 2.26257 -3.59177 0
M  V30 20806 C 1963.4 1.35481 -5.75673 0
M  V30 20807 H 1962.33 0.321934 -0.681817 0
M  V30 20808 H 1964.98 0.104791 -1.83201 0
M  V30 20809 H 1963.36 2.35898 -3.1807 0
M  V30 20810 H 1964.54 -0.119159 -4.60646 0
M  V30 20811 H 1962.85 0.0505413 -4.16369 0
M  V30 20812 H 1965.45 2.80455 -4.55246 0
M  V30 20813 H 1965.79 3.02992 -2.85485 0
M  V30 20814 H 1966.32 1.53861 -3.6684 0
M  V30 20815 H 1963.06 0.629214 -6.52473 0
M  V30 20816 H 1962.58 2.08562 -5.62372 0
M  V30 20817 H 1964.26 1.89432 -6.18647 0
M  V30 20818 N 1964.39 1.52136 0.411372 0
M  V30 20819 C 1965.64 1.66331 1.16025 0
M  V30 20820 C 1965.97 0.390981 1.90223 0
M  V30 20821 O 1965.25 -0.610512 1.8467 0
M  V30 20822 C 1965.53 2.88386 2.15651 0
M  V30 20823 C 1965.38 4.25664 1.45364 0
M  V30 20824 C 1966.7 3.05963 3.16346 0
M  V30 20825 H 1963.82 0.60531 0.420439 0
M  V30 20826 H 1966.46 1.84685 0.446247 0
M  V30 20827 H 1964.61 2.72869 2.76541 0
M  V30 20828 H 1966.29 4.52904 0.876105 0
M  V30 20829 H 1964.53 4.27168 0.75563 0
M  V30 20830 H 1965.2 5.07109 2.18047 0
M  V30 20831 H 1967.68 3.20363 2.65531 0
M  V30 20832 H 1966.55 3.92882 3.83321 0
M  V30 20833 H 1966.81 2.19177 3.83945 0
M  V30 20834 N 1965.87 -0.668464 1.42721 0
M  V30 20835 C 1966.82 -1.77463 1.43147 0
M  V30 20836 C 1967.81 -1.58042 0.301932 0
M  V30 20837 O 1969 -1.68413 0.544623 0
M  V30 20838 C 1966.13 -3.15963 1.34247 0
M  V30 20839 C 1965.21 -3.40985 2.52171 0
M  V30 20840 N 1965.61 -3.36558 3.77575 0
M  V30 20841 C 1963.9 -3.71646 2.46568 0
M  V30 20842 C 1964.6 -3.61239 4.5594 0
M  V30 20843 N 1963.58 -3.82312 3.86443 0
M  V30 20844 H 1967.38 -1.72442 2.37993 0
M  V30 20845 H 1964.9 -0.86955 1.37159 0
M  V30 20846 H 1966.89 -3.95239 1.32634 0
M  V30 20847 H 1965.55 -3.22176 0.404081 0
M  V30 20848 H 1966.56 -3.16315 4.1008 0
M  V30 20849 H 1963.24 -3.85066 1.6134 0
M  V30 20850 H 1964.63 -3.63724 5.64938 0
M  V30 20851 N 1967.35 -1.28999 -0.905381 0
M  V30 20852 C 1968.63 -1.07329 -1.63523 0
M  V30 20853 C 1969.01 0.384519 -2.07568 0
M  V30 20854 O 1968.36 1.37223 -1.82708 0
M  V30 20855 C 1968.57 -2.05563 -2.82037 0
M  V30 20856 C 1969.91 -2.3617 -3.52858 0
M  V30 20857 O 1970.94 -2.03713 -2.92198 0
M  V30 20858 O 1969.8 -2.91601 -4.62202 0
M  V30 20859 H 1966.89 -0.410796 -0.717757 0
M  V30 20860 H 1969.44 -1.40349 -0.953949 0
M  V30 20861 H 1968.21 -3.03779 -2.46645 0
M  V30 20862 H 1967.83 -1.73238 -3.57875 0
M  V30 20863 N 1968.83 1.11497 -1.11383 0
M  V30 20864 C 1969.78 2.19602 -0.766658 0
M  V30 20865 C 1970.77 1.67668 0.241612 0
M  V30 20866 O 1971.98 1.79717 0.100956 0
M  V30 20867 H 1968.35 0.715952 -0.230037 0
M  V30 20868 H 1970.32 2.46131 -1.68707 0
M  V30 20869 C 1969.07 3.46968 -0.225442 0
M  V30 20870 H 1968.4 3.87284 -0.992544 0
M  V30 20871 H 1969.84 4.23995 -0.0207066 0
M  V30 20872 C 1968.29 3.20311 1.04414 0
M  V30 20873 O 1968.82 3.40956 2.12395 0
M  V30 20874 N 1967.03 2.7405 0.966692 0
M  V30 20875 H 1966.58 2.5745 0.0878667 0
M  V30 20876 H 1966.54 2.56591 1.81682 0
M  V30 20877 N 1970.31 0.904053 1.29092 0
M  V30 20878 C 1971.55 0.532203 1.95381 0
M  V30 20879 C 1971.88 -0.922327 1.71241 0
M  V30 20880 O 1971.14 -1.66968 1.02079 0
M  V30 20881 C 1971.44 0.776255 3.48868 0
M  V30 20882 C 1971.1 2.20882 3.93093 0
M  V30 20883 C 1969.76 2.60052 4.04878 0
M  V30 20884 C 1972.12 3.14152 4.15882 0
M  V30 20885 C 1969.44 3.91663 4.36826 0
M  V30 20886 C 1971.8 4.45317 4.49306 0
M  V30 20887 C 1970.46 4.84354 4.59301 0
M  V30 20888 H 1969.73 0.194747 0.714951 0
M  V30 20889 H 1972.38 1.14354 1.53608 0
M  V30 20890 H 1970.68 0.0820369 3.91714 0
M  V30 20891 H 1972.38 0.467861 3.98261 0
M  V30 20892 H 1968.97 1.89485 3.84439 0
M  V30 20893 H 1973.15 2.85103 4.06239 0
M  V30 20894 H 1968.41 4.21623 4.42769 0
M  V30 20895 H 1972.58 5.17611 4.65888 0
M  V30 20896 H 1970.21 5.86371 4.83811 0
M  V30 20897 N 1971.79 -1.4279 0.666995 0
M  V30 20898 C 1972.73 -2.30794 -0.0161644 0
M  V30 20899 C 1973.7 -1.45527 -0.800701 0
M  V30 20900 O 1974.89 -1.74372 -0.774527 0
M  V30 20901 C 1972.03 -3.31276 -0.966974 0
M  V30 20902 C 1971.14 -4.31637 -0.177086 0
M  V30 20903 C 1970.28 -5.19195 -1.12294 0
M  V30 20904 C 1969.31 -6.1124 -0.324284 0
M  V30 20905 N 1968.45 -6.91376 -1.22244 0
M  V30 20906 H 1973.29 -2.88662 0.74014 0
M  V30 20907 H 1970.83 -1.42194 0.376738 0
M  V30 20908 H 1972.79 -3.88054 -1.53198 0
M  V30 20909 H 1971.42 -2.75025 -1.69 0
M  V30 20910 H 1970.47 -3.77041 0.504428 0
M  V30 20911 H 1971.78 -4.96826 0.443328 0
M  V30 20912 H 1970.93 -5.80667 -1.75813 0
M  V30 20913 H 1969.67 -4.54164 -1.77725 0
M  V30 20914 H 1968.68 -5.48843 0.324174 0
M  V30 20915 H 1969.9 -6.78318 0.325818 0
M  V30 20916 H 1967.85 -6.28981 -1.86329 0
M  V30 20917 H 1967.77 -7.5314 -0.656918 0
M  V30 20918 H 1969.03 -7.57342 -1.84535 0
M  V30 20919 N 1973.26 -0.409806 -1.52179 0
M  V30 20920 C 1974.54 0.224342 -1.94309 0
M  V30 20921 C 1974.92 1.62561 -1.34674 0
M  V30 20922 O 1974.27 2.22438 -0.522817 0
M  V30 20923 C 1974.48 0.22999 -3.48241 0
M  V30 20924 C 1975.83 0.449011 -4.22219 0
M  V30 20925 O 1976.85 0.309316 -3.54854 0
M  V30 20926 O 1975.71 0.724419 -5.41677 0
M  V30 20927 H 1972.8 0.144759 -0.814232 0
M  V30 20928 H 1975.35 -0.465799 -1.63182 0
M  V30 20929 H 1974.12 -0.750731 -3.84031 0
M  V30 20930 H 1973.74 0.964201 -3.85732 0
M  V30 20931 N 1974.74 1.56975 -0.14025 0
M  V30 20932 C 1976.15 1.82757 0.381688 0
M  V30 20933 C 1976.5 1.0586 1.65191 0
M  V30 20934 O 1975.63 0.301768 2.14286 0
M  V30 20935 C 1976.22 3.31505 0.699272 0
M  V30 20936 C 1974.78 3.57892 1.16576 0
M  V30 20937 C 1973.93 2.7668 0.185351 0
M  V30 20938 H 1976.88 1.54444 -0.365058 0
M  V30 20939 H 1976.9 3.47292 1.55462 0
M  V30 20940 H 1976.41 3.87445 -0.225394 0
M  V30 20941 H 1974.51 3.07332 2.1066 0
M  V30 20942 H 1974.63 4.66386 1.0964 0
M  V30 20943 H 1972.99 2.45548 0.676642 0
M  V30 20944 H 1973.77 3.35388 -0.732787 0
M  V30 20945 N 1976.22 -0.133539 1.57033 0
M  V30 20946 C 1977.15 -1.18985 1.95896 0
M  V30 20947 C 1978.16 -1.38453 0.856426 0
M  V30 20948 O 1979.35 -1.37785 1.13479 0
M  V30 20949 C 1976.45 -2.55242 2.22946 0
M  V30 20950 C 1975.63 -2.56572 3.54245 0
M  V30 20951 C 1974.69 -3.74467 3.69677 0
M  V30 20952 O 1973.71 -3.5872 4.41937 0
M  V30 20953 N 1974.91 -4.92459 3.0735 0
M  V30 20954 H 1977.68 -0.859396 2.87114 0
M  V30 20955 H 1975.24 -0.32297 1.58646 0
M  V30 20956 H 1977.23 -3.32645 2.30498 0
M  V30 20957 H 1975.8 -2.80526 1.37926 0
M  V30 20958 H 1975.02 -1.64988 3.58012 0
M  V30 20959 H 1976.31 -2.54504 4.40574 0
M  V30 20960 H 1975.71 -5.08156 2.48584 0
M  V30 20961 H 1974.26 -5.6759 3.20445 0
M  V30 20962 N 1977.7 -1.52352 -0.403298 0
M  V30 20963 C 1978.95 -1.66368 -1.14744 0
M  V30 20964 C 1979.27 -0.398899 -1.90876 0
M  V30 20965 O 1978.54 0.586372 -1.86918 0
M  V30 20966 H 1977.12 -0.613226 -0.426571 0
M  V30 20967 H 1979.78 -1.89416 -0.459075 0
M  V30 20968 H 1978.87 -2.50748 -1.85828 0
M  V30 20969 N 1979.18 0.660885 -1.43074 0
M  V30 20970 C 1980.12 1.77404 -1.47637 0
M  V30 20971 C 1981.09 1.62852 -0.326854 0
M  V30 20972 O 1982.28 1.83206 -0.532921 0
M  V30 20973 C 1979.42 3.15517 -1.39796 0
M  V30 20974 C 1978.53 3.41257 -2.64892 0
M  V30 20975 C 1977.67 4.69176 -2.49093 0
M  V30 20976 C 1976.7 4.87995 -3.69496 0
M  V30 20977 N 1975.84 6.07166 -3.52554 0
M  V30 20978 H 1980.68 1.72838 -2.42757 0
M  V30 20979 H 1978.22 0.843558 -1.20509 0
M  V30 20980 H 1980.18 3.9535 -1.33245 0
M  V30 20981 H 1978.81 3.19172 -0.482623 0
M  V30 20982 H 1977.86 2.55577 -2.81753 0
M  V30 20983 H 1979.17 3.51052 -3.5435 0
M  V30 20984 H 1978.32 5.57122 -2.40207 0
M  V30 20985 H 1977.06 4.61688 -1.57147 0
M  V30 20986 H 1976.07 3.98487 -3.78799 0
M  V30 20987 H 1977.29 4.97318 -4.62441 0
M  V30 20988 H 1975.24 6.00825 -2.63336 0
M  V30 20989 H 1975.16 6.17884 -4.35609 0
M  V30 20990 H 1976.42 6.97754 -3.47506 0
M  V30 20991 N 1980.65 1.29477 0.898527 0
M  V30 20992 C 1981.58 1.17262 2.01921 0
M  V30 20993 C 1982.57 0.0665442 1.6997 0
M  V30 20994 O 1983.75 0.246223 1.92633 0
M  V30 20995 C 1980.88 0.849575 3.36748 0
M  V30 20996 C 1979.83 1.91209 3.82914 0
M  V30 20997 C 1979.16 1.44234 5.14879 0
M  V30 20998 C 1980.46 3.32113 4.03111 0
M  V30 20999 H 1982.15 2.11015 2.12398 0
M  V30 21000 H 1979.7 1.01592 1.02054 0
M  V30 21001 H 1981.65 0.750826 4.14657 0
M  V30 21002 H 1980.38 -0.123652 3.26366 0
M  V30 21003 H 1979.04 2.00025 3.07222 0
M  V30 21004 H 1978.68 0.457753 5.00913 0
M  V30 21005 H 1978.38 2.15293 5.46738 0
M  V30 21006 H 1979.91 1.35711 5.95327 0
M  V30 21007 H 1981.32 3.26133 4.71498 0
M  V30 21008 H 1979.72 4.0114 4.46326 0
M  V30 21009 H 1980.79 3.75004 3.07408 0
M  V30 21010 N 1982.13 -1.10905 1.11972 0
M  V30 21011 C 1983.08 -2.19193 0.778293 0
M  V30 21012 C 1984.07 -1.67794 -0.232717 0
M  V30 21013 O 1985.28 -1.79768 -0.0914242 0
M  V30 21014 H 1981.66 -0.714722 0.23383 0
M  V30 21015 H 1983.63 -2.45233 1.7001 0
M  V30 21016 C 1982.38 -3.46844 0.24384 0
M  V30 21017 H 1981.7 -3.86752 1.01307 0
M  V30 21018 H 1983.14 -4.23978 0.0431918 0
M  V30 21019 C 1981.6 -3.2086 -1.02714 0
M  V30 21020 O 1982.13 -3.42078 -2.10584 0
M  V30 21021 N 1980.33 -2.74559 -0.952145 0
M  V30 21022 H 1979.88 -2.57493 -0.0742122 0
M  V30 21023 H 1979.84 -2.57551 -1.80319 0
M  V30 21024 N 1983.61 -0.910886 -1.2861 0
M  V30 21025 C 1984.86 -0.543361 -1.95385 0
M  V30 21026 C 1985.19 0.910109 -1.71554 0
M  V30 21027 O 1984.46 1.64684 -1.03487 0
M  V30 21028 C 1984.75 -0.849821 -3.49929 0
M  V30 21029 C 1984.6 -2.35581 -3.83173 0
M  V30 21030 C 1985.92 -0.343997 -4.38754 0
M  V30 21031 H 1983.04 -0.198884 -0.709658 0
M  V30 21032 H 1985.68 -1.13961 -1.52029 0
M  V30 21033 H 1983.83 -0.34238 -3.86988 0
M  V30 21034 H 1985.5 -2.93365 -3.55998 0
M  V30 21035 H 1983.75 -2.81197 -3.30319 0
M  V30 21036 H 1984.42 -2.52079 -4.9108 0
M  V30 21037 H 1986.89 -0.778662 -4.08749 0
M  V30 21038 H 1985.77 -0.58753 -5.45747 0
M  V30 21039 H 1986.03 0.755609 -4.35595 0
M  V30 21040 N 1985.09 1.42434 -0.674558 0
M  V30 21041 C 1986.05 2.29199 -0.00527063 0
M  V30 21042 C 1987.05 1.43313 0.729245 0
M  V30 21043 O 1988.24 1.64704 0.567284 0
M  V30 21044 C 1985.37 3.25805 1.0032 0
M  V30 21045 H 1986.57 2.89874 -0.768954 0
M  V30 21046 H 1984.12 1.5007 -0.436898 0
M  V30 21047 H 1984.85 2.70068 1.79538 0
M  V30 21048 H 1984.64 3.89152 0.479902 0
M  V30 21049 H 1986.13 3.90875 1.46993 0
M  V30 21050 N 1986.57 0.417871 1.51959 0
M  V30 21051 C 1987.53 -0.391479 2.25832 0
M  V30 21052 C 1988.53 -0.96627 1.2853 0
M  V30 21053 O 1989.72 -0.843774 1.52401 0
M  V30 21054 C 1986.85 -1.55192 3.03526 0
M  V30 21055 H 1988.04 0.255672 2.98808 0
M  V30 21056 H 1985.6 0.170583 1.55366 0
M  V30 21057 H 1986.33 -2.23569 2.3492 0
M  V30 21058 H 1986.12 -1.14616 3.74974 0
M  V30 21059 H 1987.61 -2.12422 3.59537 0
M  V30 21060 N 1988.04 -1.56898 0.148573 0
M  V30 21061 C 1989.01 -2.15649 -0.776414 0
M  V30 21062 C 1990.01 -1.09867 -1.17413 0
M  V30 21063 O 1991.2 -1.35498 -1.0948 0
M  V30 21064 C 1988.33 -2.72087 -2.05381 0
M  V30 21065 H 1989.52 -2.98724 -0.265327 0
M  V30 21066 H 1987.08 -1.55974 -0.100881 0
M  V30 21067 H 1987.81 -1.92683 -2.60852 0
M  V30 21068 H 1987.6 -3.49479 -1.77782 0
M  V30 21069 H 1989.09 -3.17348 -2.71441 0
M  V30 21070 N 1989.52 0.125209 -1.57102 0
M  V30 21071 C 1990.77 0.834085 -1.84524 0
M  V30 21072 C 1991.1 1.8017 -0.732742 0
M  V30 21073 O 1990.35 1.93738 0.276448 0
M  V30 21074 C 1990.65 1.62349 -3.18398 0
M  V30 21075 C 1990.32 0.800729 -4.43733 0
M  V30 21076 C 1988.98 0.573817 -4.77766 0
M  V30 21077 C 1991.33 0.226814 -5.20706 0
M  V30 21078 C 1988.66 -0.237364 -5.8622 0
M  V30 21079 C 1991.01 -0.571524 -6.30013 0
M  V30 21080 C 1989.68 -0.80881 -6.62582 0
M  V30 21081 H 1988.95 0.305213 -0.675223 0
M  V30 21082 H 1991.59 0.0967265 -1.91256 0
M  V30 21083 H 1989.9 2.43158 -3.07215 0
M  V30 21084 H 1991.59 2.17583 -3.36836 0
M  V30 21085 H 1988.18 0.987673 -4.17065 0
M  V30 21086 H 1992.37 0.389351 -4.9477 0
M  V30 21087 H 1987.62 -0.430488 -6.09883 0
M  V30 21088 H 1991.8 -1.02325 -6.88841 0
M  V30 21089 H 1989.43 -1.4392 -7.46452 0
M  V30 21090 N 1991 1.52564 0.395213 0
M  V30 21091 C 1992.42 1.41677 0.73484 0
M  V30 21092 C 1992.62 0.53226 1.94343 0
M  V30 21093 O 1991.67 0.00333606 2.525 0
M  V30 21094 C 1992.99 2.84429 0.975749 0
M  V30 21095 C 1994.53 2.93865 1.07761 0
M  V30 21096 C 1995.01 4.37615 1.35119 0
M  V30 21097 N 1996.5 4.40912 1.41954 0
M  V30 21098 C 1997.23 5.49215 1.64775 0
M  V30 21099 N 1996.73 6.67613 1.85109 0
M  V30 21100 N 1998.52 5.36749 1.66904 0
M  V30 21101 H 1990.67 2.08597 -0.400145 0
M  V30 21102 H 1992.94 0.940777 -0.116804 0
M  V30 21103 H 1992.64 3.51336 0.159881 0
M  V30 21104 H 1992.52 3.2631 1.89213 0
M  V30 21105 H 1994.9 2.27129 1.88405 0
M  V30 21106 H 1994.99 2.55421 0.139278 0
M  V30 21107 H 1994.63 5.04915 0.549865 0
M  V30 21108 H 1994.56 4.73607 2.30226 0
M  V30 21109 H 1997.05 3.55572 1.27973 0
M  V30 21110 H 1997.36 7.4593 2.02012 0
M  V30 21111 H 1995.71 6.70653 1.82346 0
M  V30 21112 H 1998.9 4.43224 1.50566 0
M  V30 21113 H 1999.07 6.21224 1.8435 0
M  V30 21114 N 1992.48 -0.653289 1.43422 0
M  V30 21115 C 1993.89 -1.23446 1.40064 0
M  V30 21116 C 1994.24 -1.95921 0.104677 0
M  V30 21117 O 1993.37 -2.01233 -0.79588 0
M  V30 21118 C 1993.96 -2.24523 2.53722 0
M  V30 21119 C 1992.52 -2.78117 2.53629 0
M  V30 21120 C 1991.67 -1.52759 2.3143 0
M  V30 21121 H 1994.62 -0.445312 1.52324 0
M  V30 21122 H 1994.64 -3.06696 2.25207 0
M  V30 21123 H 1994.15 -1.71746 3.4803 0
M  V30 21124 H 1992.25 -3.34957 1.632 0
M  V30 21125 H 1992.36 -3.25667 3.51394 0
M  V30 21126 H 1990.73 -1.80104 1.80096 0
M  V30 21127 H 1991.51 -1.01917 3.27823 0
M  V30 21128 N 1993.96 -1.29952 -0.891648 0
M  V30 21129 C 1995.2 -1.19666 -1.65709 0
M  V30 21130 C 1995.56 0.246168 -1.90415 0
M  V30 21131 O 1996.76 0.472148 -2.64621 0
M  V30 21132 C 1995.03 -1.99566 -2.96493 0
M  V30 21133 S 1996.59 -2.05904 -3.87491 0
M  V30 21134 H 1993.41 -0.426562 -0.568829 0
M  V30 21135 H 1996.01 -1.64342 -1.05887 0
M  V30 21136 H 1994.72 -3.0352 -2.76231 0
M  V30 21137 H 1994.25 -1.55525 -3.61352 0
M  V30 21138 H 1996.26 -1.18157 -4.81927 0
M  V30 21139 N 1995.44 1.1031 -1.12559 0
M  V30 21140 C 1996.71 1.788 -0.793094 0
M  V30 21141 C 1997.09 1.98553 0.716932 0
M  V30 21142 O 1996.44 1.57962 1.65107 0
M  V30 21143 C 1996.65 3.1171 -1.56964 0
M  V30 21144 C 1998 3.86566 -1.75648 0
M  V30 21145 O 1999.02 3.21435 -1.53487 0
M  V30 21146 O 1997.88 5.03468 -2.1256 0
M  V30 21147 H 1994.98 0.775004 -0.288612 0
M  V30 21148 H 1997.52 1.16948 -1.22969 0
M  V30 21149 H 1996.29 2.92761 -2.59628 0
M  V30 21150 H 1995.92 3.81282 -1.12738 0
M  V30 21151 N 1996.91 0.917694 1.28125 0
M  V30 21152 C 1998.16 0.553715 1.95094 0
M  V30 21153 C 1998.49 -0.900999 1.72034 0
M  V30 21154 O 1997.77 -1.64132 1.04359 0
M  V30 21155 C 1998.05 0.868367 3.49473 0
M  V30 21156 C 1997.9 2.3761 3.81918 0
M  V30 21157 C 1999.22 0.367261 4.38565 0
M  V30 21158 H 1996.34 0.202644 0.708593 0
M  V30 21159 H 1998.98 1.14765 1.51423 0
M  V30 21160 H 1997.13 0.362898 3.86801 0
M  V30 21161 H 1998.81 2.95249 3.54437 0
M  V30 21162 H 1997.05 2.82945 3.28823 0
M  V30 21163 H 1997.72 2.5468 4.89737 0
M  V30 21164 H 2000.2 0.800328 4.08331 0
M  V30 21165 H 1999.07 0.616464 5.45427 0
M  V30 21166 H 1999.33 -0.732497 4.3599 0
M  V30 21167 N 1998.39 -1.42074 0.682102 0
M  V30 21168 C 1999.67 -1.95126 0.136033 0
M  V30 21169 C 2000.05 -1.62218 -1.35088 0
M  V30 21170 O 1999.4 -0.922124 -2.09067 0
M  V30 21171 C 1999.61 -3.46548 0.412954 0
M  V30 21172 C 2000.95 -4.23289 0.333404 0
M  V30 21173 O 2001.98 -3.54505 0.34711 0
M  V30 21174 O 2000.84 -5.45773 0.281884 0
M  V30 21175 H 1997.93 -0.826969 0.00711447 0
M  V30 21176 H 2000.48 -1.51864 0.757335 0
M  V30 21177 H 1999.25 -3.63733 1.4427 0
M  V30 21178 H 1998.87 -3.96875 -0.239993 0
M  V30 21179 N 1999.87 -0.425924 -1.51735 0
M  V30 21180 C 2000.82 0.405756 -2.29034 0
M  V30 21181 C 2001.81 1.03103 -1.3441 0
M  V30 21182 O 2003.02 0.967304 -1.518 0
M  V30 21183 H 1999.39 0.149651 -0.736959 0
M  V30 21184 H 2001.36 -0.267185 -2.97201 0
M  V30 21185 C 2000.11 1.50091 -3.13637 0
M  V30 21186 H 1999.44 1.02912 -3.86328 0
M  V30 21187 H 2000.88 2.05632 -3.70799 0
M  V30 21188 C 1999.33 2.47775 -2.28274 0
M  V30 21189 O 1999.86 3.52051 -1.9345 0
M  V30 21190 N 1998.07 2.18387 -1.91717 0
M  V30 21191 H 1997.62 1.3362 -2.20235 0
M  V30 21192 H 1997.58 2.83989 -1.34897 0
M  V30 21193 N 2001.35 1.56817 -0.156891 0
M  V30 21194 C 2002.76 1.58349 0.199431 0
M  V30 21195 C 2002.96 1.17163 1.63937 0
M  V30 21196 O 2002.02 0.87651 2.36799 0
M  V30 21197 C 2003.33 3.00622 -0.0682996 0
M  V30 21198 C 2004.88 3.13 -0.00536951 0
M  V30 21199 C 2005.36 4.57339 -0.245899 0
M  V30 21200 N 2006.85 4.62797 -0.19317 0
M  V30 21201 C 2007.58 5.72308 -0.353652 0
M  V30 21202 N 2007.08 6.90431 -0.5724 0
M  V30 21203 N 2008.87 5.61349 -0.290563 0
M  V30 21204 H 2001.02 1.8188 -1.09697 0
M  V30 21205 H 2003.28 0.842304 -0.435002 0
M  V30 21206 H 2002.99 3.3518 -1.06524 0
M  V30 21207 H 2002.86 3.71616 0.646647 0
M  V30 21208 H 2005.25 2.78277 0.98213 0
M  V30 21209 H 2005.33 2.44472 -0.752801 0
M  V30 21210 H 2004.98 4.92768 -1.23054 0
M  V30 21211 H 2004.91 5.24007 0.521974 0
M  V30 21212 H 2007.4 3.77889 -0.0291566 0
M  V30 21213 H 2007.71 7.69761 -0.684694 0
M  V30 21214 H 2006.06 6.92328 -0.608841 0
M  V30 21215 H 2009.25 4.67945 -0.120361 0
M  V30 21216 H 2009.42 6.46644 -0.419064 0
M  V30 21217 N 2002.83 -0.116876 1.57166 0
M  V30 21218 C 2004.07 -0.822873 1.84151 0
M  V30 21219 C 2004.39 -1.80944 0.742867 0
M  V30 21220 O 2005.59 -2.56177 0.89919 0
M  V30 21221 C 2004.05 -1.51414 3.26499 0
M  V30 21222 C 2003.66 -0.568446 4.44379 0
M  V30 21223 C 2005.4 -2.20514 3.62731 0
M  V30 21224 C 2003.31 -1.26306 5.77755 0
M  V30 21225 H 2002.24 -0.311047 0.686852 0
M  V30 21226 H 2004.89 -0.0756323 1.83344 0
M  V30 21227 H 2003.27 -2.30807 3.21782 0
M  V30 21228 H 2004.45 0.192429 4.60398 0
M  V30 21229 H 2002.76 0.0157058 4.16397 0
M  V30 21230 H 2005.36 -2.73177 4.5965 0
M  V30 21231 H 2005.7 -2.98411 2.90269 0
M  V30 21232 H 2006.23 -1.48006 3.69241 0
M  V30 21233 H 2002.97 -0.525332 6.53392 0
M  V30 21234 H 2002.49 -1.99589 5.65618 0
M  V30 21235 H 2004.17 -1.79566 6.21583 0
M  V30 21236 N 2004.3 -1.52772 -0.387116 0
M  V30 21237 C 2005.55 -1.67576 -1.12973 0
M  V30 21238 C 2005.87 -0.419122 -1.90443 0
M  V30 21239 O 2005.14 0.566514 -1.8753 0
M  V30 21240 H 2003.72 -0.617716 -0.420043 0
M  V30 21241 H 2006.38 -1.89892 -0.43896 0
M  V30 21242 H 2005.48 -2.52704 -1.83158 0
M  V30 21243 N 2005.78 0.645673 -1.43767 0
M  V30 21244 C 2006.73 1.7795 -1.49788 0
M  V30 21245 C 2007.72 1.65292 -0.370806 0
M  V30 21246 O 2008.93 1.71547 -0.545129 0
M  V30 21247 H 2005.3 0.587242 -0.469735 0
M  V30 21248 H 2007.28 1.69992 -2.45245 0
M  V30 21249 C 2006.02 3.16238 -1.44529 0
M  V30 21250 H 2005.35 3.2662 -2.30564 0
M  V30 21251 H 2006.79 3.95509 -1.52803 0
M  V30 21252 C 2005.25 3.36501 -0.163941 0
M  V30 21253 O 2005.78 3.94217 0.771735 0
M  V30 21254 N 2003.98 2.90511 -0.0717151 0
M  V30 21255 H 2003.53 2.43727 -0.833957 0
M  V30 21256 H 2003.49 3.04445 0.784901 0
M  V30 21257 N 2007.26 1.30423 0.884744 0
M  V30 21258 C 2008.22 1.16804 1.97204 0
M  V30 21259 C 2009.22 0.0992103 1.60494 0
M  V30 21260 O 2010.41 0.34734 1.70702 0
M  V30 21261 C 2007.54 0.789574 3.3163 0
M  V30 21262 H 2008.74 2.13401 2.10713 0
M  V30 21263 H 2006.29 1.13823 1.07117 0
M  V30 21264 H 2007.03 -0.175888 3.23823 0
M  V30 21265 H 2006.81 1.562 3.59644 0
M  V30 21266 H 2008.3 0.717768 4.11385 0
M  V30 21267 N 2008.74 -1.09711 1.13142 0
M  V30 21268 C 2010.15 -1.33866 0.869023 0
M  V30 21269 C 2010.35 -1.95275 -0.49697 0
M  V30 21270 O 2009.41 -2.19723 -1.2441 0
M  V30 21271 C 2010.72 -2.25314 1.99133 0
M  V30 21272 C 2012.27 -2.38831 2.02308 0
M  V30 21273 C 2012.75 -3.33613 3.13793 0
M  V30 21274 N 2014.24 -3.41185 3.13284 0
M  V30 21275 C 2014.97 -4.14516 3.96187 0
M  V30 21276 N 2014.47 -4.90669 4.89097 0
M  V30 21277 N 2016.26 -4.1021 3.84297 0
M  V30 21278 H 2008.41 -0.682242 2.01145 0
M  V30 21279 H 2010.67 -0.36305 0.875728 0
M  V30 21280 H 2010.38 -1.87415 2.97605 0
M  V30 21281 H 2010.25 -3.25681 1.90294 0
M  V30 21282 H 2012.64 -2.75996 1.04451 0
M  V30 21283 H 2012.72 -1.38254 2.1522 0
M  V30 21284 H 2012.37 -2.97172 4.11887 0
M  V30 21285 H 2012.3 -4.34088 2.9812 0
M  V30 21286 H 2014.79 -2.86882 2.45982 0
M  V30 21287 H 2015.1 -5.44045 5.48849 0
M  V30 21288 H 2013.45 -4.89768 4.93105 0
M  V30 21289 H 2016.64 -3.49815 3.11042 0
M  V30 21290 H 2016.81 -4.671 4.49135 0
M  V30 21291 N 2010.22 -0.924476 -1.27637 0
M  V30 21292 C 2011.46 -0.570467 -1.96278 0
M  V30 21293 C 2011.82 0.87151 -1.71081 0
M  V30 21294 O 2013.02 1.33363 -2.33383 0
M  V30 21295 C 2011.29 -0.883702 -3.46303 0
M  V30 21296 S 2012.85 -0.637722 -4.34141 0
M  V30 21297 H 2009.67 -0.210692 -0.679065 0
M  V30 21298 H 2012.27 -1.19222 -1.5494 0
M  V30 21299 H 2010.98 -1.9309 -3.62138 0
M  V30 21300 H 2010.51 -0.251014 -3.92598 0
M  V30 21301 H 2012.52 0.505988 -4.93613 0
M  V30 21302 N 2011.69 1.41711 -0.689627 0
M  V30 21303 C 2012.93 2.03189 -0.222164 0
M  V30 21304 C 2013.3 1.53416 1.15445 0
M  V30 21305 O 2014.5 2.06781 1.71742 0
M  V30 21306 C 2012.77 3.56371 -0.271028 0
M  V30 21307 S 2014.33 4.38627 0.12326 0
M  V30 21308 H 2011.15 0.705282 -0.0899882 0
M  V30 21309 H 2013.75 1.73235 -0.906082 0
M  V30 21310 H 2012.45 3.90091 -1.27502 0
M  V30 21311 H 2011.98 3.91018 0.432235 0
M  V30 21312 H 2014 4.77408 1.35264 0
M  V30 21313 N 2013.17 0.433965 1.51507 0
M  V30 21314 C 2014.58 -0.0299408 1.86676 0
M  V30 21315 C 2014.93 -1.42245 1.35132 0
M  V30 21316 O 2014.06 -2.0474 0.700735 0
M  V30 21317 C 2014.65 -0.0611079 3.38745 0
M  V30 21318 C 2013.21 -0.469416 3.73461 0
M  V30 21319 C 2012.36 0.340116 2.75206 0
M  V30 21320 H 2015.31 0.649958 1.4478 0
M  V30 21321 H 2015.33 -0.871298 3.7039 0
M  V30 21322 H 2014.84 0.952511 3.7623 0
M  V30 21323 H 2012.95 -1.48876 3.41565 0
M  V30 21324 H 2013.06 -0.196556 4.78697 0
M  V30 21325 H 2011.42 -0.201099 2.53905 0
M  V30 21326 H 2012.21 1.35255 3.15533 0
M  V30 21327 N 2014.65 -1.56732 0.165206 0
M  V30 21328 C 2015.9 -1.96697 -0.481311 0
M  V30 21329 C 2016.23 -1.05092 -1.63664 0
M  V30 21330 O 2015.48 -0.0837635 -1.95521 0
M  V30 21331 C 2015.78 -3.42783 -1.01165 0
M  V30 21332 C 2015.45 -4.50892 0.0271385 0
M  V30 21333 C 2014.11 -4.80183 0.31265 0
M  V30 21334 C 2016.46 -5.16026 0.732556 0
M  V30 21335 C 2013.79 -5.71909 1.30907 0
M  V30 21336 C 2016.14 -6.08827 1.71792 0
M  V30 21337 C 2014.8 -6.36488 2.01094 0
M  V30 21338 H 2014.07 -0.719765 -0.176124 0
M  V30 21339 H 2016.72 -1.89783 0.255878 0
M  V30 21340 H 2015.03 -3.46619 -1.82654 0
M  V30 21341 H 2016.72 -3.71044 -1.52078 0
M  V30 21342 H 2013.31 -4.28107 -0.205569 0
M  V30 21343 H 2017.5 -4.93513 0.525186 0
M  V30 21344 H 2012.75 -5.91626 1.54234 0
M  V30 21345 H 2016.93 -6.58367 2.26993 0
M  V30 21346 H 2014.55 -7.07367 2.78454 0
M  V30 21347 N 2016.13 0.10854 -1.57226 0
M  V30 21348 C 2017.37 0.815673 -1.85673 0
M  V30 21349 C 2017.71 1.79031 -0.752441 0
M  V30 21350 O 2016.98 1.93004 0.240811 0
M  V30 21351 C 2017.27 1.55633 -3.24731 0
M  V30 21352 C 2017.12 0.600595 -4.45772 0
M  V30 21353 C 2018.44 2.51009 -3.61501 0
M  V30 21354 H 2015.56 0.295076 -0.675351 0
M  V30 21355 H 2018.2 0.079634 -1.89833 0
M  V30 21356 H 2016.35 2.18377 -3.21316 0
M  V30 21357 H 2018.02 -0.0187984 -4.61296 0
M  V30 21358 H 2016.26 -0.0870799 -4.33713 0
M  V30 21359 H 2016.93 1.15569 -5.39766 0
M  V30 21360 H 2019.41 1.98365 -3.65774 0
M  V30 21361 H 2018.29 2.99857 -4.59758 0
M  V30 21362 H 2018.55 3.34154 -2.89472 0
M  V30 21363 N 2017.61 1.52975 0.379009 0
M  V30 21364 C 2018.85 1.702 1.13188 0
M  V30 21365 C 2019.21 0.437582 1.86947 0
M  V30 21366 O 2020.41 0.486329 2.64364 0
M  V30 21367 C 2018.68 2.90907 2.07624 0
M  V30 21368 S 2020.24 3.28771 2.90612 0
M  V30 21369 H 2017.06 0.599025 0.383001 0
M  V30 21370 H 2019.66 1.91046 0.414933 0
M  V30 21371 H 2018.37 3.81144 1.52176 0
M  V30 21372 H 2017.9 2.72424 2.83812 0
M  V30 21373 H 2019.91 2.79736 4.09832 0
M  V30 21374 N 2019.08 -0.63804 1.44107 0
M  V30 21375 C 2020.33 -1.39496 1.46237 0
M  V30 21376 C 2020.65 -1.94776 0.093533 0
M  V30 21377 O 2019.92 -1.75361 -0.873231 0
M  V30 21378 H 2018.5 -0.517763 0.538452 0
M  V30 21379 H 2021.17 -0.751452 1.79831 0
M  V30 21380 H 2020.26 -2.22974 2.18378 0
M  V30 21381 N 2020.56 -1.3089 -0.877815 0
M  V30 21382 C 2021.51 -1.17878 -1.98427 0
M  V30 21383 C 2022.48 -0.0664893 -1.65967 0
M  V30 21384 O 2023.66 -0.237956 -1.8931 0
M  V30 21385 C 2020.8 -0.883984 -3.33586 0
M  V30 21386 C 2019.92 -2.07885 -3.78692 0
M  V30 21387 C 2019.05 -1.72152 -5.02531 0
M  V30 21388 C 2018.09 -2.88092 -5.40064 0
M  V30 21389 N 2017.23 -2.52607 -6.55083 0
M  V30 21390 H 2022.07 -2.12531 -2.08889 0
M  V30 21391 H 2019.61 -1.05732 -1.0227 0
M  V30 21392 H 2021.56 -0.693656 -4.11393 0
M  V30 21393 H 2020.19 0.0256933 -3.2279 0
M  V30 21394 H 2019.25 -2.3802 -2.96733 0
M  V30 21395 H 2020.56 -2.94687 -4.02444 0
M  V30 21396 H 2019.71 -1.49536 -5.87983 0
M  V30 21397 H 2018.45 -0.825297 -4.80666 0
M  V30 21398 H 2017.46 -3.11366 -4.53135 0
M  V30 21399 H 2018.68 -3.78412 -5.63898 0
M  V30 21400 H 2016.63 -1.65499 -6.3478 0
M  V30 21401 H 2016.54 -3.3294 -6.78739 0
M  V30 21402 H 2017.81 -2.33365 -7.43748 0
M  V30 21403 N 2022.04 1.0911 -1.13723 0
M  V30 21404 C 2023 2.14011 -0.820475 0
M  V30 21405 C 2024 1.59882 0.171573 0
M  V30 21406 O 2025.19 1.7411 -0.0559029 0
M  V30 21407 C 2022.33 3.40178 -0.221758 0
M  V30 21408 H 2023.52 2.43541 -1.75007 0
M  V30 21409 H 2021.07 1.24702 -0.94229 0
M  V30 21410 H 2021.81 3.16277 0.716904 0
M  V30 21411 H 2021.59 3.80759 -0.936208 0
M  V30 21412 H 2023.08 4.17596 -0.0171079 0
M  V30 21413 N 2023.52 0.931232 1.27145 0
M  V30 21414 C 2024.76 0.574376 1.94496 0
M  V30 21415 C 2025.1 -0.882702 1.7298 0
M  V30 21416 O 2024.37 -1.63016 1.06094 0
M  V30 21417 C 2024.66 0.905384 3.48532 0
M  V30 21418 C 2024.51 2.41647 3.79377 0
M  V30 21419 C 2025.83 0.413756 4.38151 0
M  V30 21420 H 2022.95 0.210149 0.706404 0
M  V30 21421 H 2025.59 1.16365 1.50197 0
M  V30 21422 H 2023.74 0.403903 3.86395 0
M  V30 21423 H 2025.41 2.98992 3.51286 0
M  V30 21424 H 2023.65 2.86417 3.25803 0
M  V30 21425 H 2024.32 2.5986 4.87008 0
M  V30 21426 H 2026.8 0.843592 4.07459 0
M  V30 21427 H 2025.68 0.67428 5.44743 0
M  V30 21428 H 2025.94 -0.686214 4.36742 0
M  V30 21429 N 2025 -1.41343 0.697132 0
M  V30 21430 C 2026.22 -2.06049 0.236356 0
M  V30 21431 C 2026.65 -1.52124 -1.10634 0
M  V30 21432 O 2026.01 -0.648852 -1.69291 0
M  V30 21433 C 2026.05 -3.6001 0.206185 0
M  V30 21434 O 2025.16 -4.04197 -0.818466 0
M  V30 21435 H 2024.5 -0.65395 0.115091 0
M  V30 21436 H 2027.03 -1.8108 0.952431 0
M  V30 21437 H 2027.04 -4.07983 0.0375737 0
M  V30 21438 H 2025.71 -3.98628 1.18612 0
M  V30 21439 H 2024.29 -3.67725 -0.619082 0
M  V30 21440 N 2026.48 -0.441993 -1.51275 0
M  V30 21441 C 2027.72 0.122911 -2.02127 0
M  V30 21442 C 2028.05 1.42305 -1.32588 0
M  V30 21443 O 2027.31 1.90895 -0.431013 0
M  V30 21444 C 2027.6 0.384298 -3.55328 0
M  V30 21445 C 2027.27 -0.830593 -4.43184 0
M  V30 21446 C 2025.93 -1.16375 -4.66916 0
M  V30 21447 C 2028.28 -1.64084 -4.94698 0
M  V30 21448 C 2025.61 -2.30775 -5.39407 0
M  V30 21449 C 2027.96 -2.77587 -5.68444 0
M  V30 21450 C 2026.63 -3.11351 -5.90438 0
M  V30 21451 H 2025.9 0.0449764 -0.739634 0
M  V30 21452 H 2028.55 -0.59014 -1.8218 0
M  V30 21453 H 2026.85 1.17929 -3.73631 0
M  V30 21454 H 2028.55 0.834882 -3.92213 0
M  V30 21455 H 2025.14 -0.560991 -4.24913 0
M  V30 21456 H 2029.32 -1.39665 -4.76243 0
M  V30 21457 H 2024.58 -2.57243 -5.54649 0
M  V30 21458 H 2028.75 -3.40736 -6.07348 0
M  V30 21459 H 2026.38 -4.00108 -6.46388 0
M  V30 21460 N 2027.95 1.56642 -0.173515 0
M  V30 21461 C 2028.9 2.1807 0.755917 0
M  V30 21462 C 2029.87 1.12136 1.22534 0
M  V30 21463 O 2031.06 1.40296 1.29312 0
M  V30 21464 C 2028.2 2.82726 1.97888 0
M  V30 21465 C 2027.31 4.03127 1.55282 0
M  V30 21466 C 2026.44 4.55703 2.72962 0
M  V30 21467 C 2025.48 5.68509 2.26857 0
M  V30 21468 N 2024.62 6.15585 3.37638 0
M  V30 21469 H 2029.46 2.97147 0.225305 0
M  V30 21470 H 2027 1.46763 0.0994783 0
M  V30 21471 H 2028.95 3.18371 2.69621 0
M  V30 21472 H 2027.58 2.0625 2.48316 0
M  V30 21473 H 2026.64 3.73288 0.732154 0
M  V30 21474 H 2027.95 4.84777 1.17441 0
M  V30 21475 H 2027.1 4.93541 3.52849 0
M  V30 21476 H 2025.84 3.73115 3.14065 0
M  V30 21477 H 2024.85 5.3022 1.45418 0
M  V30 21478 H 2026.07 6.529 1.8681 0
M  V30 21479 H 2024.02 5.35925 3.78312 0
M  V30 21480 H 2023.93 6.9223 3.03897 0
M  V30 21481 H 2025.2 6.58074 4.17803 0
M  V30 21482 N 2029.43 -0.1002 1.57281 0
M  V30 21483 C 2030.71 -0.836006 1.76834 0
M  V30 21484 C 2031.09 -1.9718 0.753864 0
M  V30 21485 O 2030.44 -2.27452 -0.218626 0
M  V30 21486 C 2030.65 -1.33532 3.22444 0
M  V30 21487 C 2031.99 -1.78015 3.85481 0
M  V30 21488 O 2033.02 -1.43167 3.26162 0
M  V30 21489 O 2031.88 -2.42432 4.89784 0
M  V30 21490 H 2028.97 -0.398386 0.724719 0
M  V30 21491 H 2031.52 -0.0824784 1.69499 0
M  V30 21492 H 2030.29 -0.521307 3.87812 0
M  V30 21493 H 2029.91 -2.151 3.34391 0
M  V30 21494 N 2030.91 -1.53174 -0.370891 0
M  V30 21495 C 2032.33 -1.42828 -0.712207 0
M  V30 21496 C 2032.53 -0.563111 -1.93472 0
M  V30 21497 O 2031.58 -0.0435062 -2.52463 0
M  V30 21498 C 2032.89 -2.85945 -0.930375 0
M  V30 21499 C 2034.44 -2.95542 -1.03072 0
M  V30 21500 C 2034.92 -4.39709 -1.28139 0
M  V30 21501 N 2036.41 -4.43115 -1.34921 0
M  V30 21502 C 2037.14 -5.51766 -1.56017 0
M  V30 21503 N 2036.64 -6.70473 -1.74464 0
M  V30 21504 N 2038.43 -5.39336 -1.58344 0
M  V30 21505 H 2030.58 -2.07934 0.433281 0
M  V30 21506 H 2032.85 -0.938799 0.131756 0
M  V30 21507 H 2032.55 -3.51546 -0.103966 0
M  V30 21508 H 2032.43 -3.29279 -1.83997 0
M  V30 21509 H 2034.81 -2.30098 -1.84768 0
M  V30 21510 H 2034.89 -2.5561 -0.0986256 0
M  V30 21511 H 2034.54 -5.05726 -0.469468 0
M  V30 21512 H 2034.47 -4.7721 -2.22662 0
M  V30 21513 H 2036.96 -3.57563 -1.223 0
M  V30 21514 H 2037.27 -7.49049 -1.90119 0
M  V30 21515 H 2035.62 -6.73469 -1.71653 0
M  V30 21516 H 2038.81 -4.45563 -1.43496 0
M  V30 21517 H 2038.98 -6.24078 -1.74443 0
M  V30 21518 N 2032.39 0.630389 -1.44443 0
M  V30 21519 C 2033.34 1.76351 -1.51667 0
M  V30 21520 C 2034.33 1.64889 -0.388317 0
M  V30 21521 O 2035.54 1.70959 -0.563293 0
M  V30 21522 H 2031.91 0.582226 -0.475937 0
M  V30 21523 H 2033.88 1.67382 -2.47034 0
M  V30 21524 C 2032.63 3.14688 -1.47875 0
M  V30 21525 H 2031.95 3.24156 -2.34015 0
M  V30 21526 H 2033.39 3.93866 -1.5699 0
M  V30 21527 C 2031.85 3.36308 -0.199622 0
M  V30 21528 O 2032.38 3.95013 0.72988 0
M  V30 21529 N 2030.59 2.90419 -0.102524 0
M  V30 21530 H 2030.14 2.42829 -0.859761 0
M  V30 21531 H 2030.09 3.0526 0.752566 0
M  V30 21532 N 2033.87 1.31354 0.870861 0
M  V30 21533 C 2035.09 1.24082 1.66188 0
M  V30 21534 C 2035.52 -0.190886 1.87129 0
M  V30 21535 O 2034.87 -1.13669 1.41241 0
M  V30 21536 C 2034.92 1.98926 3.00767 0
M  V30 21537 O 2034.03 1.32599 3.90501 0
M  V30 21538 H 2033.37 0.428443 0.50728 0
M  V30 21539 H 2035.9 1.73408 1.08586 0
M  V30 21540 H 2035.91 2.08487 3.5071 0
M  V30 21541 H 2034.58 3.03044 2.84846 0
M  V30 21542 H 2033.16 1.31483 3.48951 0
M  V30 21543 N 2035.34 -1.08505 1.143 0
M  V30 21544 C 2036.58 -1.82477 0.920958 0
M  V30 21545 C 2036.95 -1.84168 -0.54277 0
M  V30 21546 O 2038.15 -2.53893 -0.882716 0
M  V30 21547 C 2036.42 -3.24206 1.50418 0
M  V30 21548 S 2037.98 -4.15066 1.42356 0
M  V30 21549 H 2034.8 -0.628871 0.331726 0
M  V30 21550 H 2037.4 -1.30431 1.4563 0
M  V30 21551 H 2036.1 -3.20556 2.56266 0
M  V30 21552 H 2035.63 -3.81325 0.967187 0
M  V30 21553 H 2037.65 -4.94516 0.408406 0
M  V30 21554 N 2036.82 -0.937962 -1.26649 0
M  V30 21555 C 2037.77 -0.435759 -2.28482 0
M  V30 21556 C 2038.76 0.485286 -1.623 0
M  V30 21557 O 2039.97 0.363854 -1.76284 0
M  V30 21558 H 2036.34 -0.122373 -0.741976 0
M  V30 21559 H 2038.32 -1.30722 -2.68243 0
M  V30 21560 C 2037.06 0.286679 -3.46516 0
M  V30 21561 H 2036.39 -0.412881 -3.97662 0
M  V30 21562 H 2037.83 0.602341 -4.197 0
M  V30 21563 C 2036.29 1.50334 -3.01499 0
M  V30 21564 O 2036.82 2.60176 -3.06058 0
M  V30 21565 N 2035.02 1.35877 -2.56877 0
M  V30 21566 H 2034.57 0.465092 -2.53367 0
M  V30 21567 H 2034.53 2.17403 -2.27119 0
M  V30 21568 N 2038.3 1.40971 -0.704618 0
M  V30 21569 C 2039.25 2.30756 -0.0450323 0
M  V30 21570 C 2040.22 1.47598 0.761835 0
M  V30 21571 O 2041.4 1.76365 0.728023 0
M  V30 21572 C 2038.54 3.33723 0.878802 0
M  V30 21573 C 2037.65 4.31955 0.0625832 0
M  V30 21574 C 2036.79 5.2199 0.984889 0
M  V30 21575 C 2035.83 6.11885 0.16211 0
M  V30 21576 N 2034.97 6.94374 1.0387 0
M  V30 21577 H 2039.81 2.86598 -0.816414 0
M  V30 21578 H 2037.34 1.41145 -0.414306 0
M  V30 21579 H 2039.3 3.9198 1.42856 0
M  V30 21580 H 2037.93 2.79409 1.61648 0
M  V30 21581 H 2036.98 3.75571 -0.604216 0
M  V30 21582 H 2038.29 4.95476 -0.574897 0
M  V30 21583 H 2037.45 5.85125 1.60356 0
M  V30 21584 H 2036.19 4.58717 1.65621 0
M  V30 21585 H 2035.19 5.47791 -0.469576 0
M  V30 21586 H 2036.42 6.77216 -0.505547 0
M  V30 21587 H 2034.36 6.337 1.69588 0
M  V30 21588 H 2034.28 7.54617 0.457006 0
M  V30 21589 H 2035.55 7.61969 1.6439 0
M  V30 21590 N 2039.78 0.45001 1.51039 0
M  V30 21591 C 2041.01 -0.110336 2.06305 0
M  V30 21592 C 2041.42 -1.35912 1.31623 0
M  V30 21593 O 2040.76 -1.79877 0.372811 0
M  V30 21594 C 2040.82 -0.485388 3.56208 0
M  V30 21595 C 2040.49 0.658381 4.52233 0
M  V30 21596 C 2041.48 1.53427 4.96746 0
M  V30 21597 C 2039.17 0.842718 4.9518 0
M  V30 21598 C 2041.16 2.57908 5.82891 0
M  V30 21599 C 2038.85 1.89078 5.81113 0
M  V30 21600 C 2039.85 2.75734 6.24868 0
M  V30 21601 O 2039.53 3.7874 7.09092 0
M  V30 21602 H 2039.27 -0.0056993 0.675976 0
M  V30 21603 H 2041.82 0.631614 1.95448 0
M  V30 21604 H 2040.05 -1.28022 3.64893 0
M  V30 21605 H 2041.74 -0.978357 3.93933 0
M  V30 21606 H 2042.51 1.40345 4.6425 0
M  V30 21607 H 2038.38 0.177759 4.60657 0
M  V30 21608 H 2041.93 3.25578 6.16964 0
M  V30 21609 H 2037.83 2.02176 6.13021 0
M  V30 21610 H 2038.59 3.75473 7.27298 0
M  V30 21611 N 2041.26 -1.56548 0.18182 0
M  V30 21612 C 2042.48 -2.02015 -0.469543 0
M  V30 21613 C 2042.91 -1.06119 -1.55307 0
M  V30 21614 O 2042.26 -0.0424595 -1.8125 0
M  V30 21615 C 2042.31 -3.46016 -1.01515 0
M  V30 21616 O 2041.42 -3.53215 -2.12869 0
M  V30 21617 H 2040.76 -0.65461 -0.111273 0
M  V30 21618 H 2043.29 -2.02552 0.288798 0
M  V30 21619 H 2043.3 -3.85537 -1.33511 0
M  V30 21620 H 2041.97 -4.15308 -0.22188 0
M  V30 21621 H 2040.55 -3.2556 -1.81838 0
M  V30 21622 N 2042.73 0.0918577 -1.57332 0
M  V30 21623 C 2043.66 1.11191 -2.05326 0
M  V30 21624 C 2044.65 1.41581 -0.942802 0
M  V30 21625 O 2045.83 1.51555 -1.21428 0
M  V30 21626 C 2042.96 2.4309 -2.48041 0
M  V30 21627 C 2041.91 2.271 -3.6278 0
M  V30 21628 C 2041.24 3.64205 -3.91482 0
M  V30 21629 C 2042.54 1.70886 -4.93554 0
M  V30 21630 H 2044.23 0.712608 -2.90796 0
M  V30 21631 H 2041.78 0.341338 -1.39896 0
M  V30 21632 H 2043.73 3.14724 -2.80226 0
M  V30 21633 H 2042.46 2.84962 -1.59575 0
M  V30 21634 H 2041.12 1.57911 -3.30847 0
M  V30 21635 H 2040.76 4.03611 -3.00179 0
M  V30 21636 H 2040.46 3.54352 -4.68731 0
M  V30 21637 H 2041.99 4.37302 -4.26145 0
M  V30 21638 H 2043.4 2.32364 -5.24099 0
M  V30 21639 H 2041.8 1.71783 -5.74987 0
M  V30 21640 H 2042.87 0.668569 -4.80269 0
M  V30 21641 N 2044.21 1.53368 0.362763 0
M  V30 21642 C 2045.18 1.7933 1.42736 0
M  V30 21643 C 2046.18 0.663794 1.4646 0
M  V30 21644 O 2047.37 0.932009 1.47171 0
M  V30 21645 C 2044.5 1.91792 2.81831 0
M  V30 21646 H 2045.69 2.74412 1.20989 0
M  V30 21647 H 2043.24 1.44488 0.596058 0
M  V30 21648 H 2043.98 0.987867 3.08888 0
M  V30 21649 H 2043.76 2.73948 2.80526 0
M  V30 21650 H 2045.25 2.13461 3.58921 0
M  V30 21651 N 2045.69 -0.62272 1.44776 0
M  V30 21652 C 2046.62 -1.74771 1.48283 0
M  V30 21653 C 2047.64 -1.58416 0.375253 0
M  V30 21654 O 2048.82 -1.66575 0.641472 0
M  V30 21655 C 2045.92 -3.12596 1.30909 0
M  V30 21656 C 2045.1 -3.55331 2.55066 0
M  V30 21657 C 2044.16 -4.72064 2.32469 0
M  V30 21658 O 2043.18 -4.79949 3.06003 0
M  V30 21659 N 2044.38 -5.64329 1.36063 0
M  V30 21660 H 2047.15 -1.7223 2.45269 0
M  V30 21661 H 2044.71 -0.807546 1.40322 0
M  V30 21662 H 2046.7 -3.88422 1.13625 0
M  V30 21663 H 2045.27 -3.09731 0.422559 0
M  V30 21664 H 2044.49 -2.69625 2.87569 0
M  V30 21665 H 2045.78 -3.80637 3.37628 0
M  V30 21666 H 2045.18 -5.6066 0.753476 0
M  V30 21667 H 2043.74 -6.39749 1.24756 0
M  V30 21668 N 2047.17 -1.31814 -0.863883 0
M  V30 21669 C 2048.41 -1.22028 -1.61979 0
M  V30 21670 C 2048.75 0.219661 -1.92954 0
M  V30 21671 O 2048.02 1.15428 -1.56546 0
M  V30 21672 C 2048.31 -2.0707 -2.94608 0
M  V30 21673 C 2048.16 -3.59395 -2.70473 0
M  V30 21674 C 2049.48 -1.92477 -3.95779 0
M  V30 21675 H 2046.6 -0.444641 -0.587762 0
M  V30 21676 H 2049.24 -1.61666 -0.998202 0
M  V30 21677 H 2047.39 -1.73395 -3.47659 0
M  V30 21678 H 2049.06 -4.03237 -2.24048 0
M  V30 21679 H 2047.3 -3.82521 -2.04597 0
M  V30 21680 H 2047.97 -4.14213 -3.64871 0
M  V30 21681 H 2050.45 -2.21959 -3.51957 0
M  V30 21682 H 2049.33 -2.54272 -4.86453 0
M  V30 21683 H 2049.59 -0.889783 -4.33053 0
M  V30 21684 N 2048.65 1.07897 -1.14873 0
M  V30 21685 C 2049.88 1.8385 -0.942478 0
M  V30 21686 C 2050.28 1.82127 0.512486 0
M  V30 21687 O 2049.63 1.22709 1.36705 0
M  V30 21688 C 2049.69 3.32272 -1.37244 0
M  V30 21689 C 2049.35 3.57723 -2.844 0
M  V30 21690 C 2050.35 3.52131 -3.82492 0
M  V30 21691 C 2048.04 3.85567 -3.21937 0
M  V30 21692 C 2050.03 3.74022 -5.16126 0
M  V30 21693 C 2047.72 4.07111 -4.55745 0
M  V30 21694 C 2048.71 4.01333 -5.52649 0
M  V30 21695 O 2048.4 4.22306 -6.84042 0
M  V30 21696 H 2048.13 0.587081 -0.33513 0
M  V30 21697 H 2050.69 1.37142 -1.52909 0
M  V30 21698 H 2048.92 3.79763 -0.72919 0
M  V30 21699 H 2050.61 3.89674 -1.13617 0
M  V30 21700 H 2051.37 3.30628 -3.54838 0
M  V30 21701 H 2047.25 3.89182 -2.471 0
M  V30 21702 H 2050.8 3.69428 -5.91751 0
M  V30 21703 H 2046.69 4.28099 -4.83117 0
M  V30 21704 H 2047.46 4.39684 -6.90377 0
M  V30 21705 N 2050.12 0.944665 1.2615 0
M  V30 21706 C 2051.07 0.44787 2.28247 0
M  V30 21707 C 2052.07 -0.476672 1.62555 0
M  V30 21708 O 2053.27 -0.3545 1.76475 0
M  V30 21709 H 2049.65 0.126306 0.741317 0
M  V30 21710 H 2051.62 1.32142 2.67546 0
M  V30 21711 C 2050.37 -0.268298 3.46663 0
M  V30 21712 H 2049.69 0.433964 3.97438 0
M  V30 21713 H 2051.13 -0.580074 4.20013 0
M  V30 21714 C 2049.59 -1.48732 3.02292 0
M  V30 21715 O 2050.12 -2.58549 3.07434 0
M  V30 21716 N 2048.33 -1.34513 2.57594 0
M  V30 21717 H 2047.87 -0.451649 2.5361 0
M  V30 21718 H 2047.83 -2.16196 2.28269 0
M  V30 21719 N 2051.6 -1.40596 0.712085 0
M  V30 21720 C 2052.85 -2.00181 0.247097 0
M  V30 21721 C 2053.16 -1.57102 -1.16526 0
M  V30 21722 O 2054.37 -2.09361 -1.72858 0
M  V30 21723 C 2052.83 -3.57771 0.390856 0
M  V30 21724 C 2052.43 -4.09825 1.80964 0
M  V30 21725 C 2054.18 -4.24498 -0.0135164 0
M  V30 21726 C 2052.09 -5.59907 1.90417 0
M  V30 21727 H 2051.02 -0.748773 0.0886278 0
M  V30 21728 H 2053.67 -1.60876 0.882669 0
M  V30 21729 H 2052.05 -3.94759 -0.313241 0
M  V30 21730 H 2053.22 -3.84221 2.54383 0
M  V30 21731 H 2051.54 -3.55682 2.16516 0
M  V30 21732 H 2054.13 -5.34688 0.0364444 0
M  V30 21733 H 2054.48 -4.02714 -1.05487 0
M  V30 21734 H 2055.01 -3.92603 0.640898 0
M  V30 21735 H 2051.75 -5.86541 2.92661 0
M  V30 21736 H 2051.27 -5.87385 1.21404 0
M  V30 21737 H 2052.95 -6.24951 1.67466 0
M  V30 21738 N 2053.08 -0.458013 -1.50798 0
M  V30 21739 C 2054.01 0.38861 -2.24867 0
M  V30 21740 C 2054.99 1.00734 -1.27638 0
M  V30 21741 O 2056.18 1.04581 -1.56828 0
M  V30 21742 C 2053.3 1.54336 -3.01493 0
M  V30 21743 C 2052.35 1.0433 -4.13543 0
M  V30 21744 S 2053.18 -0.0314457 -5.35491 0
M  V30 21745 C 2054.34 1.12749 -6.15661 0
M  V30 21746 H 2054.57 -0.240171 -2.96328 0
M  V30 21747 H 2052.1 -0.242743 -1.5248 0
M  V30 21748 H 2054.06 2.20525 -3.46235 0
M  V30 21749 H 2052.72 2.14362 -2.29582 0
M  V30 21750 H 2051.92 1.90742 -4.66512 0
M  V30 21751 H 2051.52 0.459335 -3.71169 0
M  V30 21752 H 2053.81 2.04177 -6.46001 0
M  V30 21753 H 2054.75 0.637331 -7.05226 0
M  V30 21754 H 2055.16 1.37541 -5.47488 0
M  V30 21755 N 2054.56 1.56449 -0.190119 0
M  V30 21756 C 2055.81 1.96613 0.450146 0
M  V30 21757 C 2056.12 1.07965 1.63104 0
M  V30 21758 O 2057.33 1.3789 2.33877 0
M  V30 21759 C 2055.78 3.49664 0.852245 0
M  V30 21760 C 2055.39 4.46967 -0.304086 0
M  V30 21761 C 2057.14 3.98608 1.45987 0
M  V30 21762 C 2055.04 5.91281 0.118694 0
M  V30 21763 H 2053.97 0.734132 0.171947 0
M  V30 21764 H 2056.62 1.8133 -0.281345 0
M  V30 21765 H 2055.01 3.60432 1.64026 0
M  V30 21766 H 2056.18 4.47927 -1.08158 0
M  V30 21767 H 2054.49 4.08188 -0.822886 0
M  V30 21768 H 2057.09 5.039 1.78856 0
M  V30 21769 H 2057.43 3.42627 2.36458 0
M  V30 21770 H 2057.97 3.90933 0.735928 0
M  V30 21771 H 2054.71 6.51176 -0.751699 0
M  V30 21772 H 2054.23 5.93586 0.861154 0
M  V30 21773 H 2055.91 6.44605 0.556195 0
M  V30 21774 N 2056.04 -0.0835127 1.57379 0
M  V30 21775 C 2056.95 -1.11858 2.06216 0
M  V30 21776 C 2057.96 -1.43137 0.989333 0
M  V30 21777 O 2059.14 -1.53548 1.30327 0
M  V30 21778 C 2056.2 -2.41603 2.48655 0
M  V30 21779 C 2055.27 -2.17401 3.70183 0
M  V30 21780 C 2054.5 -3.40959 4.10588 0
M  V30 21781 O 2054.72 -4.49637 3.50974 0
M  V30 21782 O 2053.66 -3.29863 5.03462 0
M  V30 21783 H 2057.48 -0.733741 2.94703 0
M  V30 21784 H 2055.07 -0.296834 1.46421 0
M  V30 21785 H 2056.95 -3.1798 2.76526 0
M  V30 21786 H 2055.62 -2.7949 1.63301 0
M  V30 21787 H 2054.53 -1.38767 3.47411 0
M  V30 21788 H 2055.86 -1.84401 4.56352 0
M  V30 21789 N 2057.52 -1.53558 -0.354624 0
M  V30 21790 C 2058.43 -1.83745 -1.4586 0
M  V30 21791 C 2059.44 -0.72668 -1.58099 0
M  V30 21792 O 2060.62 -1.01786 -1.73786 0
M  V30 21793 C 2057.68 -2.03089 -2.80991 0
M  V30 21794 C 2056.74 -3.26971 -2.78187 0
M  V30 21795 C 2055.98 -3.45383 -4.06874 0
M  V30 21796 O 2056.2 -2.6786 -5.03594 0
M  V30 21797 O 2055.13 -4.38776 -4.12019 0
M  V30 21798 H 2058.96 -2.77557 -1.23271 0
M  V30 21799 H 2056.54 -1.39075 -0.545763 0
M  V30 21800 H 2058.43 -2.17321 -3.6104 0
M  V30 21801 H 2057.1 -1.12466 -3.03534 0
M  V30 21802 H 2056.01 -3.18153 -1.96798 0
M  V30 21803 H 2057.34 -4.17552 -2.60598 0
M  V30 21804 N 2058.99 0.615033 -1.45104 0
M  V30 21805 C 2060.27 1.37409 -1.39206 0
M  V30 21806 C 2060.65 2.11018 -0.0588763 0
M  V30 21807 O 2060 2.07402 0.958997 0
M  V30 21808 C 2060.21 2.32712 -2.60089 0
M  V30 21809 C 2061.56 2.95549 -3.04854 0
M  V30 21810 O 2062.58 2.43035 -2.60408 0
M  V30 21811 O 2061.44 3.90854 -3.81963 0
M  V30 21812 H 2058.53 0.615766 -0.552052 0
M  V30 21813 H 2061.08 0.638743 -1.5722 0
M  V30 21814 H 2059.85 1.77529 -3.48711 0
M  V30 21815 H 2059.47 3.13639 -2.4437 0
M  V30 21816 N 2060.47 1.3227 0.85688 0
M  V30 21817 C 2061.89 1.11212 1.14473 0
M  V30 21818 C 2062.09 -0.108857 2.01206 0
M  V30 21819 O 2061.14 -0.7944 2.39678 0
M  V30 21820 C 2062.46 2.39046 1.82421 0
M  V30 21821 C 2064 2.44782 1.95066 0
M  V30 21822 C 2064.48 3.72531 2.66429 0
M  V30 21823 N 2065.97 3.735 2.73956 0
M  V30 21824 C 2066.71 4.69049 3.29819 0
M  V30 21825 N 2066.2 5.74963 3.86509 0
M  V30 21826 N 2067.99 4.5655 3.27901 0
M  V30 21827 H 2060.15 2.10557 0.279231 0
M  V30 21828 H 2062.41 0.929507 0.186337 0
M  V30 21829 H 2062.11 3.28299 1.26145 0
M  V30 21830 H 2061.99 2.49838 2.82596 0
M  V30 21831 H 2064.38 1.5599 2.50502 0
M  V30 21832 H 2064.46 2.37944 0.938939 0
M  V30 21833 H 2064.1 4.61696 2.11658 0
M  V30 21834 H 2064.03 3.76639 3.68036 0
M  V30 21835 H 2066.52 2.96945 2.33735 0
M  V30 21836 H 2066.83 6.43931 4.27285 0
M  V30 21837 H 2065.18 5.7872 3.84848 0
M  V30 21838 H 2068.37 3.72973 2.82858 0
M  V30 21839 H 2068.54 5.31189 3.71136 0
M  V30 21840 N 2061.95 -1.07287 1.15444 0
M  V30 21841 C 2063.37 -1.31993 0.897222 0
M  V30 21842 C 2063.57 -1.96286 -0.455437 0
M  V30 21843 O 2062.62 -2.22313 -1.19722 0
M  V30 21844 C 2063.93 -2.2104 2.03868 0
M  V30 21845 C 2065.48 -2.34486 2.07329 0
M  V30 21846 C 2065.96 -3.26882 3.20799 0
M  V30 21847 N 2067.45 -3.34463 3.20451 0
M  V30 21848 C 2068.18 -4.06019 4.0489 0
M  V30 21849 N 2067.68 -4.80184 4.99395 0
M  V30 21850 N 2069.47 -4.01967 3.92911 0
M  V30 21851 H 2061.62 -0.639423 2.02547 0
M  V30 21852 H 2063.89 -0.344393 0.883231 0
M  V30 21853 H 2063.59 -1.8106 3.01513 0
M  V30 21854 H 2063.47 -3.21571 1.9716 0
M  V30 21855 H 2065.85 -2.73719 1.10282 0
M  V30 21856 H 2065.93 -1.33658 2.18104 0
M  V30 21857 H 2065.58 -2.88368 4.18098 0
M  V30 21858 H 2065.51 -4.27667 3.0726 0
M  V30 21859 H 2068 -2.816 2.52012 0
M  V30 21860 H 2068.31 -5.32281 5.60265 0
M  V30 21861 H 2066.66 -4.79198 5.03383 0
M  V30 21862 H 2069.85 -3.43139 3.18392 0
M  V30 21863 H 2070.02 -4.57468 4.58942 0
M  V30 21864 N 2063.43 -0.951342 -1.25647 0
M  V30 21865 C 2064.84 -0.655246 -1.45529 0
M  V30 21866 C 2065.04 0.788272 -1.85441 0
M  V30 21867 O 2064.1 1.5639 -1.98238 0
M  V30 21868 C 2065.41 -1.62536 -2.52987 0
M  V30 21869 C 2066.96 -1.63618 -2.6683 0
M  V30 21870 C 2067.44 -2.59385 -3.77469 0
M  V30 21871 N 2068.93 -2.57731 -3.84876 0
M  V30 21872 C 2069.66 -3.28512 -4.69966 0
M  V30 21873 N 2069.16 -4.08754 -5.59367 0
M  V30 21874 N 2070.95 -3.17415 -4.63901 0
M  V30 21875 H 2063.1 -1.88424 -0.980317 0
M  V30 21876 H 2065.36 -0.8103 -0.492055 0
M  V30 21877 H 2065.07 -2.65628 -2.3051 0
M  V30 21878 H 2064.94 -1.38531 -3.5084 0
M  V30 21879 H 2067.33 -0.61246 -2.88674 0
M  V30 21880 H 2067.41 -1.91681 -1.69387 0
M  V30 21881 H 2067.06 -3.61882 -3.56376 0
M  V30 21882 H 2066.99 -2.28608 -4.7439 0
M  V30 21883 H 2069.48 -1.99473 -3.20966 0
M  V30 21884 H 2069.79 -4.5969 -6.21212 0
M  V30 21885 H 2068.14 -4.12853 -5.59086 0
M  V30 21886 H 2071.33 -2.54201 -3.93064 0
M  V30 21887 H 2071.5 -3.72843 -5.29992 0
M  V30 21888 N 2064.91 1.40216 -0.719531 0
M  V30 21889 C 2066.32 1.54673 -0.393494 0
M  V30 21890 C 2066.52 1.69001 1.09732 0
M  V30 21891 O 2065.58 1.6818 1.88339 0
M  V30 21892 C 2066.89 2.77299 -1.163 0
M  V30 21893 C 2068.44 2.9112 -1.14969 0
M  V30 21894 C 2068.91 4.16665 -1.90143 0
M  V30 21895 N 2070.4 4.23673 -1.87232 0
M  V30 21896 C 2071.14 5.19729 -2.42219 0
M  V30 21897 N 2070.64 6.21669 -3.05778 0
M  V30 21898 N 2072.43 5.11835 -2.32338 0
M  V30 21899 H 2064.58 1.29162 -1.68614 0
M  V30 21900 H 2066.84 0.624867 -0.712914 0
M  V30 21901 H 2066.55 2.73003 -2.21726 0
M  V30 21902 H 2066.42 3.69521 -0.757213 0
M  V30 21903 H 2068.81 2.94918 -0.103615 0
M  V30 21904 H 2068.89 2.00005 -1.59473 0
M  V30 21905 H 2068.53 4.13629 -2.94744 0
M  V30 21906 H 2068.46 5.06796 -1.43057 0
M  V30 21907 H 2070.96 3.50645 -1.40914 0
M  V30 21908 H 2071.27 6.91396 -3.45241 0
M  V30 21909 H 2069.61 6.22101 -3.09863 0
M  V30 21910 H 2072.8 4.31127 -1.82338 0
M  V30 21911 H 2072.98 5.86522 -2.75492 0
M  V30 21912 N 2066.38 0.466004 1.50553 0
M  V30 21913 C 2067.32 -0.367023 2.26242 0
M  V30 21914 C 2068.33 -0.961526 1.31372 0
M  V30 21915 O 2069.52 -0.850796 1.56919 0
M  V30 21916 C 2066.62 -1.52825 3.02486 0
M  V30 21917 C 2065.79 -1.04746 4.24673 0
M  V30 21918 C 2064.85 -2.08215 4.83253 0
M  V30 21919 O 2063.88 -1.66482 5.44309 0
M  V30 21920 N 2065.08 -3.40977 4.69803 0
M  V30 21921 H 2067.84 0.281827 2.98372 0
M  V30 21922 H 2065.4 0.296497 1.59162 0
M  V30 21923 H 2067.4 -2.21726 3.38555 0
M  V30 21924 H 2065.97 -2.08189 2.33186 0
M  V30 21925 H 2065.19 -0.184515 3.93768 0
M  V30 21926 H 2066.47 -0.704072 5.03905 0
M  V30 21927 H 2065.87 -3.77596 4.21234 0
M  V30 21928 H 2064.43 -4.0569 5.10156 0
M  V30 21929 N 2067.86 -1.56346 0.198413 0
M  V30 21930 C 2069.11 -1.97966 -0.440131 0
M  V30 21931 C 2069.44 -1.08533 -1.61041 0
M  V30 21932 O 2068.72 -0.138034 -1.9401 0
M  V30 21933 C 2069 -3.48747 -0.897069 0
M  V30 21934 C 2068.85 -4.48957 0.275249 0
M  V30 21935 C 2070.17 -4.03314 -1.76141 0
M  V30 21936 H 2067.29 -0.719752 -0.15851 0
M  V30 21937 H 2069.93 -1.87774 0.290003 0
M  V30 21938 H 2068.08 -3.57564 -1.51921 0
M  V30 21939 H 2069.75 -4.52175 0.912988 0
M  V30 21940 H 2068 -4.23791 0.926484 0
M  V30 21941 H 2068.67 -5.51931 -0.0870366 0
M  V30 21942 H 2071.14 -3.97297 -1.23669 0
M  V30 21943 H 2070.02 -5.09178 -2.05009 0
M  V30 21944 H 2070.28 -3.48776 -2.71676 0
M  V30 21945 N 2069.34 0.0751653 -1.57421 0
M  V30 21946 C 2070.59 0.776106 -1.87362 0
M  V30 21947 C 2070.92 1.77394 -0.790247 0
M  V30 21948 O 2070.19 1.93471 0.199817 0
M  V30 21949 C 2070.48 1.4871 -3.27959 0
M  V30 21950 C 2070.33 0.505905 -4.46946 0
M  V30 21951 C 2071.65 2.43284 -3.66744 0
M  V30 21952 H 2068.77 0.280684 -0.681458 0
M  V30 21953 H 2071.41 0.0393497 -1.89959 0
M  V30 21954 H 2069.56 2.11512 -3.25876 0
M  V30 21955 H 2071.23 -0.116642 -4.61153 0
M  V30 21956 H 2069.48 -0.179057 -4.3343 0
M  V30 21957 H 2070.15 1.04094 -5.42096 0
M  V30 21958 H 2072.62 1.90562 -3.69899 0
M  V30 21959 H 2071.5 2.90037 -4.66015 0
M  V30 21960 H 2071.76 3.27938 -2.96494 0
M  V30 21961 N 2070.82 1.53744 0.346476 0
M  V30 21962 C 2072.1 1.61474 1.10388 0
M  V30 21963 C 2072.48 0.434154 2.06587 0
M  V30 21964 O 2071.82 -0.573858 2.21177 0
M  V30 21965 C 2072.03 2.97411 1.82613 0
M  V30 21966 C 2073.38 3.52662 2.36462 0
M  V30 21967 O 2074.41 2.99567 1.92713 0
M  V30 21968 O 2073.26 4.45528 3.16492 0
M  V30 21969 H 2070.36 0.652991 0.507476 0
M  V30 21970 H 2072.9 1.66089 0.348204 0
M  V30 21971 H 2071.68 3.74775 1.12514 0
M  V30 21972 H 2071.3 2.96373 2.65045 0
M  V30 21973 N 2072.3 -0.607329 1.45428 0
M  V30 21974 C 2073.54 -1.36835 1.49679 0
M  V30 21975 C 2073.88 -1.93708 0.138148 0
M  V30 21976 O 2073.15 -1.75069 -0.847414 0
M  V30 21977 C 2073.43 -2.51607 2.57616 0
M  V30 21978 C 2073.29 -1.99929 4.02925 0
M  V30 21979 C 2074.61 -3.53738 2.61835 0
M  V30 21980 H 2071.72 -0.496187 0.544947 0
M  V30 21981 H 2074.37 -0.684587 1.77238 0
M  V30 21982 H 2072.52 -3.09936 2.34247 0
M  V30 21983 H 2074.19 -1.46247 4.37504 0
M  V30 21984 H 2072.43 -1.30929 4.1357 0
M  V30 21985 H 2073.1 -2.82666 4.74135 0
M  V30 21986 H 2075.58 -3.0525 2.82775 0
M  V30 21987 H 2074.45 -4.31533 3.39221 0
M  V30 21988 H 2074.72 -4.09372 1.66935 0
M  V30 21989 N 2073.77 -1.32722 -0.849853 0
M  V30 21990 C 2074.71 -1.16395 -1.96284 0
M  V30 21991 C 2075.69 -0.062185 -1.62481 0
M  V30 21992 O 2076.87 -0.222389 -1.87184 0
M  V30 21993 C 2074 -0.782885 -3.29528 0
M  V30 21994 C 2073.04 -1.89059 -3.82308 0
M  V30 21995 S 2073.88 -3.49971 -4.05315 0
M  V30 21996 C 2075.03 -3.13846 -5.41527 0
M  V30 21997 H 2075.26 -2.10613 -2.09832 0
M  V30 21998 H 2072.8 -1.17438 -1.00238 0
M  V30 21999 H 2074.76 -0.56979 -4.06526 0
M  V30 22000 H 2073.42 0.140502 -3.13786 0
M  V30 22001 H 2072.61 -1.57706 -4.78691 0
M  V30 22002 H 2072.21 -2.05978 -3.12169 0
M  V30 22003 H 2074.5 -2.63989 -6.23952 0
M  V30 22004 H 2075.45 -4.09269 -5.77845 0
M  V30 22005 H 2075.85 -2.50737 -5.05758 0
M  V30 22006 N 2075.25 1.06673 -1.16011 0
M  V30 22007 C 2076.48 1.83106 -0.963322 0
M  V30 22008 C 2076.9 1.82372 0.488451 0
M  V30 22009 O 2076.25 1.24012 1.33893 0
M  V30 22010 C 2076.3 3.29888 -1.47838 0
M  V30 22011 O 2076.02 3.30717 -2.87328 0
M  V30 22012 C 2077.53 4.23065 -1.32405 0
M  V30 22013 H 2074.75 0.577476 -0.341705 0
M  V30 22014 H 2077.29 1.34611 -1.53948 0
M  V30 22015 H 2075.44 3.75708 -0.944585 0
M  V30 22016 H 2075.86 4.22475 -3.1083 0
M  V30 22017 H 2077.33 5.24098 -1.73279 0
M  V30 22018 H 2077.81 4.38375 -0.269104 0
M  V30 22019 H 2078.42 3.83088 -1.84726 0
M  V30 22020 N 2076.73 0.957992 1.25141 0
M  V30 22021 C 2077.69 0.485333 2.24003 0
M  V30 22022 C 2078.69 -0.412817 1.55411 0
M  V30 22023 O 2079.88 -0.209635 1.72934 0
M  V30 22024 C 2077.02 -0.298362 3.39592 0
M  V30 22025 H 2078.21 1.35918 2.67332 0
M  V30 22026 H 2075.76 0.741602 1.37586 0
M  V30 22027 H 2076.5 -1.18973 3.01688 0
M  V30 22028 H 2076.28 0.346033 3.9057 0
M  V30 22029 H 2077.77 -0.618412 4.12996 0
M  V30 22030 N 2078.21 -1.39832 0.726957 0
M  V30 22031 C 2079.46 -1.99907 0.268315 0
M  V30 22032 C 2079.77 -1.58329 -1.14854 0
M  V30 22033 O 2080.98 -2.11183 -1.70628 0
M  V30 22034 C 2079.43 -3.57337 0.428781 0
M  V30 22035 C 2079.04 -4.07882 1.853 0
M  V30 22036 C 2080.78 -4.24488 0.031508 0
M  V30 22037 C 2078.69 -5.57856 1.96344 0
M  V30 22038 H 2077.62 -0.747791 0.0965646 0
M  V30 22039 H 2080.27 -1.59931 0.899682 0
M  V30 22040 H 2078.65 -3.95069 -0.271354 0
M  V30 22041 H 2079.83 -3.81502 2.58444 0
M  V30 22042 H 2078.14 -3.53366 2.20276 0
M  V30 22043 H 2080.74 -5.34619 0.0931531 0
M  V30 22044 H 2081.08 -4.0381 -1.01209 0
M  V30 22045 H 2081.62 -3.91901 0.682503 0
M  V30 22046 H 2078.36 -5.83404 2.98865 0
M  V30 22047 H 2077.88 -5.86064 1.27627 0
M  V30 22048 H 2079.55 -6.2314 1.74085 0
M  V30 22049 N 2079.69 -0.473982 -1.50304 0
M  V30 22050 C 2080.93 0.0800096 -2.02342 0
M  V30 22051 C 2081.26 1.39461 -1.35576 0
M  V30 22052 O 2080.52 1.89937 -0.471407 0
M  V30 22053 C 2080.82 0.308841 -3.56063 0
M  V30 22054 C 2080.48 -0.924412 -4.41322 0
M  V30 22055 C 2079.14 -1.26253 -4.64342 0
M  V30 22056 C 2081.5 -1.7454 -4.91106 0
M  V30 22057 C 2078.82 -2.42164 -5.34391 0
M  V30 22058 C 2081.18 -2.89582 -5.62428 0
M  V30 22059 C 2079.84 -3.23805 -5.83701 0
M  V30 22060 H 2079.11 0.0292776 -0.740421 0
M  V30 22061 H 2081.76 -0.62865 -1.80887 0
M  V30 22062 H 2080.06 1.09977 -3.76048 0
M  V30 22063 H 2081.76 0.7515 -3.93895 0
M  V30 22064 H 2078.35 -0.650995 -4.23627 0
M  V30 22065 H 2082.53 -1.49735 -4.73173 0
M  V30 22066 H 2077.79 -2.6895 -5.49068 0
M  V30 22067 H 2081.96 -3.53542 -5.99984 0
M  V30 22068 H 2079.59 -4.13729 -6.37756 0
M  V30 22069 N 2081.16 1.56239 -0.206702 0
M  V30 22070 C 2082.1 2.16873 0.741546 0
M  V30 22071 C 2083.11 1.1337 1.16838 0
M  V30 22072 O 2084.3 1.40413 1.1021 0
M  V30 22073 C 2081.4 2.72544 2.01427 0
M  V30 22074 C 2080.57 4.01068 1.74538 0
M  V30 22075 C 2079.63 4.4145 2.86371 0
M  V30 22076 O 2078.66 5.08645 2.55479 0
M  V30 22077 N 2079.86 4.05908 4.14993 0
M  V30 22078 H 2082.62 2.98869 0.222965 0
M  V30 22079 H 2080.18 1.6188 -0.0251503 0
M  V30 22080 H 2082.18 2.96538 2.75404 0
M  V30 22081 H 2080.75 1.94935 2.44375 0
M  V30 22082 H 2079.97 3.85085 0.842806 0
M  V30 22083 H 2081.25 4.84939 1.53985 0
M  V30 22084 H 2080.65 3.51882 4.4294 0
M  V30 22085 H 2079.21 4.34827 4.85561 0
M  V30 22086 N 2082.64 -0.0668159 1.57458 0
M  V30 22087 C 2083.89 -0.763514 1.87123 0
M  V30 22088 C 2084.21 -1.77862 0.799382 0
M  V30 22089 O 2083.48 -1.95149 -0.171413 0
M  V30 22090 H 2082.06 -0.284974 0.690506 0
M  V30 22091 H 2084.72 -0.0417221 1.94855 0
M  V30 22092 H 2083.82 -1.27663 2.84796 0
M  V30 22093 N 2084.12 -1.53926 -0.338317 0
M  V30 22094 C 2085.53 -1.62818 -0.913629 0
M  V30 22095 C 2085.88 -0.512813 -1.8938 0
M  V30 22096 O 2085.01 0.356629 -2.13441 0
M  V30 22097 C 2085.6 -2.9513 -1.66385 0
M  V30 22098 C 2084.16 -3.06267 -2.1881 0
M  V30 22099 C 2083.31 -2.58298 -1.00884 0
M  V30 22100 H 2086.26 -1.58273 -0.116306 0
M  V30 22101 H 2086.28 -2.84463 -2.52708 0
M  V30 22102 H 2085.79 -3.76288 -0.950215 0
M  V30 22103 H 2083.89 -2.29753 -2.93333 0
M  V30 22104 H 2084.01 -4.11824 -2.44822 0
M  V30 22105 H 2082.37 -2.13832 -1.38376 0
M  V30 22106 H 2083.15 -3.419 -0.309757 0
M  V30 22107 N 2085.6 0.599608 -1.45748 0
M  V30 22108 C 2086.85 1.35451 -1.49452 0
M  V30 22109 C 2087.16 1.95072 -0.143637 0
M  V30 22110 O 2088.37 2.71437 -0.0583691 0
M  V30 22111 C 2086.82 2.454 -2.63262 0
M  V30 22112 C 2086.43 1.92156 -4.04698 0
M  V30 22113 C 2088.18 3.22339 -2.7622 0
M  V30 22114 C 2086.08 2.99633 -5.09876 0
M  V30 22115 H 2085.01 0.509134 -0.556146 0
M  V30 22116 H 2087.66 0.641777 -1.71911 0
M  V30 22117 H 2086.05 3.19395 -2.34101 0
M  V30 22118 H 2087.22 1.24817 -4.43574 0
M  V30 22119 H 2085.53 1.27937 -3.96259 0
M  V30 22120 H 2088.13 4.02519 -3.5197 0
M  V30 22121 H 2088.47 3.73854 -1.83135 0
M  V30 22122 H 2089.01 2.55446 -3.04946 0
M  V30 22123 H 2085.75 2.53026 -6.04697 0
M  V30 22124 H 2085.27 3.65514 -4.75562 0
M  V30 22125 H 2086.95 3.63878 -5.34978 0
M  V30 22126 N 2087.08 1.33171 0.842803 0
M  V30 22127 C 2088.35 1.15008 1.58216 0
M  V30 22128 C 2088.73 -0.285047 2.09167 0
M  V30 22129 O 2088.08 -1.28349 1.89047 0
M  V30 22130 C 2088.29 2.18785 2.71908 0
M  V30 22131 C 2089.64 2.52736 3.41188 0
M  V30 22132 O 2090.66 2.17422 2.82146 0
M  V30 22133 O 2089.52 3.13321 4.47763 0
M  V30 22134 H 2086.62 0.444573 0.69734 0
M  V30 22135 H 2089.16 1.44741 0.8859 0
M  V30 22136 H 2087.94 3.15201 2.31871 0
M  V30 22137 H 2087.56 1.90116 3.49202 0
M  V30 22138 N 2088.56 -1.06056 1.16576 0
M  V30 22139 C 2089.49 -2.13035 0.817996 0
M  V30 22140 C 2090.47 -1.6122 -0.211409 0
M  V30 22141 O 2091.65 -1.88261 -0.0949392 0
M  V30 22142 C 2088.78 -3.37993 0.218692 0
M  V30 22143 C 2087.82 -4.08616 1.22209 0
M  V30 22144 S 2088.66 -4.58305 2.76978 0
M  V30 22145 C 2089.81 -5.86521 2.18503 0
M  V30 22146 H 2090.05 -2.42205 1.72406 0
M  V30 22147 H 2087.58 -1.18527 0.989482 0
M  V30 22148 H 2089.54 -4.10323 -0.120616 0
M  V30 22149 H 2088.2 -3.06976 -0.665173 0
M  V30 22150 H 2087.39 -4.9837 0.75124 0
M  V30 22151 H 2086.99 -3.42312 1.50661 0
M  V30 22152 H 2089.28 -6.59409 1.55519 0
M  V30 22153 H 2090.23 -6.3834 3.06476 0
M  V30 22154 H 2090.64 -5.40668 1.62292 0
M  V30 22155 N 2090.03 -0.964615 -1.24631 0
M  V30 22156 C 2090.98 -0.49166 -2.25502 0
M  V30 22157 C 2091.95 0.46115 -1.5957 0
M  V30 22158 O 2093.14 0.372197 -1.87135 0
M  V30 22159 C 2090.28 0.214964 -3.4443 0
M  V30 22160 C 2089.39 -0.776253 -4.24969 0
M  V30 22161 C 2088.52 -0.0460512 -5.3118 0
M  V30 22162 C 2087.56 -1.02754 -6.03414 0
M  V30 22163 N 2086.7 -0.327547 -7.01336 0
M  V30 22164 H 2091.54 -1.35669 -2.65326 0
M  V30 22165 H 2089.08 -0.68015 -1.30431 0
M  V30 22166 H 2091.03 0.641314 -4.12241 0
M  V30 22167 H 2089.66 1.04397 -3.05452 0
M  V30 22168 H 2088.72 -1.32105 -3.56724 0
M  V30 22169 H 2090.03 -1.52481 -4.74922 0
M  V30 22170 H 2089.18 0.438447 -6.05114 0
M  V30 22171 H 2087.92 0.735226 -4.82126 0
M  V30 22172 H 2086.93 -1.52294 -5.28286 0
M  V30 22173 H 2088.15 -1.80921 -6.54557 0
M  V30 22174 H 2086.1 0.43481 -6.54557 0
M  V30 22175 H 2086.01 -1.01503 -7.49155 0
M  V30 22176 H 2087.28 0.135085 -7.79383 0
M  V30 22177 N 2091.51 1.39445 -0.734362 0
M  V30 22178 C 2092.46 2.32452 -0.0830804 0
M  V30 22179 C 2093.45 1.53028 0.726556 0
M  V30 22180 O 2094.66 1.68697 0.627813 0
M  V30 22181 H 2091.03 0.751957 -0.00806559 0
M  V30 22182 H 2093.01 2.85008 -0.883901 0
M  V30 22183 C 2091.75 3.38121 0.810522 0
M  V30 22184 H 2091.08 3.99315 0.196919 0
M  V30 22185 H 2092.52 4.0565 1.23385 0
M  V30 22186 C 2090.98 2.75118 1.94453 0
M  V30 22187 O 2091.51 2.62913 3.0371 0
M  V30 22188 N 2089.71 2.33215 1.73376 0
M  V30 22189 H 2089.26 2.43341 0.845144 0
M  V30 22190 H 2089.22 1.914 2.49426 0
M  V30 22191 N 2092.99 0.481946 1.5005 0
M  V30 22192 C 2094.4 0.0294639 1.86677 0
M  V30 22193 C 2094.75 -1.37874 1.39589 0
M  V30 22194 O 2093.88 -2.02407 0.765517 0
M  V30 22195 C 2094.47 0.0466921 3.38768 0
M  V30 22196 C 2093.03 -0.350364 3.74766 0
M  V30 22197 C 2092.18 0.427499 2.73985 0
M  V30 22198 H 2095.13 0.69569 1.42639 0
M  V30 22199 H 2095.15 -0.75302 3.72974 0
M  V30 22200 H 2094.66 1.07172 3.73009 0
M  V30 22201 H 2092.76 -1.37934 3.46128 0
M  V30 22202 H 2092.88 -0.0441626 4.7908 0
M  V30 22203 H 2091.24 -0.120219 2.54416 0
M  V30 22204 H 2092.02 1.45225 3.1107 0
M  V30 22205 N 2094.47 -1.56127 0.214985 0
M  V30 22206 C 2095.88 -1.8437 -0.294058 0
M  V30 22207 C 2096.23 -1.13621 -1.59952 0
M  V30 22208 O 2095.35 -0.403663 -2.12602 0
M  V30 22209 C 2095.95 -3.34464 -0.540311 0
M  V30 22210 C 2094.51 -3.63047 -0.993677 0
M  V30 22211 C 2093.66 -2.77249 -0.0531319 0
M  V30 22212 H 2096.61 -1.52527 0.43833 0
M  V30 22213 H 2096.63 -3.54314 -1.38716 0
M  V30 22214 H 2096.14 -3.85928 0.409992 0
M  V30 22215 H 2094.24 -3.17033 -1.95757 0
M  V30 22216 H 2094.35 -4.71086 -0.872629 0
M  V30 22217 H 2092.72 -2.48496 -0.558718 0
M  V30 22218 H 2093.5 -3.3151 0.891971 0
M  V30 22219 N 2095.95 0.0584645 -1.57492 0
M  V30 22220 C 2097.36 0.608705 -1.76498 0
M  V30 22221 C 2097.71 1.77203 -0.84224 0
M  V30 22222 O 2096.83 2.1638 -0.0296265 0
M  V30 22223 C 2097.43 1.11101 -3.20066 0
M  V30 22224 C 2095.99 1.607 -3.40371 0
M  V30 22225 C 2095.13 0.532159 -2.72146 0
M  V30 22226 H 2098.08 -0.167741 -1.57811 0
M  V30 22227 H 2098.11 1.97943 -3.2496 0
M  V30 22228 H 2097.62 0.264112 -3.872 0
M  V30 22229 H 2095.72 2.47671 -2.7837 0
M  V30 22230 H 2095.83 1.67476 -4.48875 0
M  V30 22231 H 2094.2 0.980354 -2.35077 0
M  V30 22232 H 2094.98 -0.304774 -3.41944 0
M  V30 22233 N 2097.42 1.54103 0.330149 0
M  V30 22234 C 2098.83 1.633 0.904982 0
M  V30 22235 C 2099.19 0.522849 1.89105 0
M  V30 22236 O 2098.31 -0.345304 2.13627 0
M  V30 22237 C 2098.91 2.96008 1.64817 0
M  V30 22238 C 2097.46 3.07423 2.17182 0
M  V30 22239 C 2096.61 2.58829 0.995126 0
M  V30 22240 H 2099.56 1.58333 0.10791 0
M  V30 22241 H 2099.58 2.85799 2.51196 0
M  V30 22242 H 2099.1 3.76786 0.930246 0
M  V30 22243 H 2097.2 2.31306 2.9211 0
M  V30 22244 H 2097.31 4.13117 2.42635 0
M  V30 22245 H 2095.67 2.14563 1.3724 0
M  V30 22246 H 2096.46 3.42059 0.291621 0
M  V30 22247 N 2098.9 -0.59187 1.46064 0
M  V30 22248 C 2099.87 -1.68357 1.55526 0
M  V30 22249 C 2100.87 -1.54854 0.433247 0
M  V30 22250 O 2102.06 -1.59637 0.697258 0
M  V30 22251 C 2099.19 -3.07729 1.46683 0
M  V30 22252 H 2100.38 -1.61328 2.5281 0
M  V30 22253 H 2097.93 -0.808941 1.33738 0
M  V30 22254 H 2098.67 -3.20321 0.506433 0
M  V30 22255 H 2098.45 -3.18939 2.2808 0
M  V30 22256 H 2099.94 -3.87218 1.5637 0
M  V30 22257 N 2100.38 -1.33616 -0.835729 0
M  V30 22258 C 2101.63 -1.24597 -1.58614 0
M  V30 22259 C 2101.94 0.185813 -1.94715 0
M  V30 22260 O 2103.15 0.398045 -2.68566 0
M  V30 22261 C 2101.6 -2.18339 -2.86105 0
M  V30 22262 C 2101.21 -3.66705 -2.57355 0
M  V30 22263 C 2102.96 -2.182 -3.64128 0
M  V30 22264 C 2100.86 -4.52352 -3.80962 0
M  V30 22265 H 2099.79 -0.462802 -0.595256 0
M  V30 22266 H 2102.44 -1.58701 -0.921212 0
M  V30 22267 H 2100.83 -1.77172 -3.54156 0
M  V30 22268 H 2102 -4.16331 -1.97496 0
M  V30 22269 H 2100.32 -3.69164 -1.92631 0
M  V30 22270 H 2102.91 -2.79417 -4.55884 0
M  V30 22271 H 2103.26 -1.17789 -3.99289 0
M  V30 22272 H 2103.79 -2.57745 -3.03005 0
M  V30 22273 H 2100.53 -5.5365 -3.5093 0
M  V30 22274 H 2100.05 -4.07467 -4.40149 0
M  V30 22275 H 2101.73 -4.66315 -4.48508 0
M  V30 22276 N 2101.86 1.05436 -1.17136 0
M  V30 22277 C 2103.09 1.82074 -0.982688 0
M  V30 22278 C 2103.5 1.8288 0.469081 0
M  V30 22279 O 2102.86 1.25425 1.3257 0
M  V30 22280 C 2102.91 3.28302 -1.51328 0
M  V30 22281 O 2102.63 3.27651 -2.9082 0
M  V30 22282 C 2104.13 4.21637 -1.36885 0
M  V30 22283 H 2101.35 0.57382 -0.347811 0
M  V30 22284 H 2103.9 1.32971 -1.55367 0
M  V30 22285 H 2102.05 3.74685 -0.984381 0
M  V30 22286 H 2102.46 4.19154 -3.15294 0
M  V30 22287 H 2103.94 5.2223 -1.78828 0
M  V30 22288 H 2104.42 4.38065 -0.315584 0
M  V30 22289 H 2105.02 3.81107 -1.88779 0
M  V30 22290 N 2103.34 0.971211 1.24118 0
M  V30 22291 C 2104.61 0.551769 1.87656 0
M  V30 22292 C 2104.99 -0.97112 1.87437 0
M  V30 22293 O 2104.34 -1.84396 1.34946 0
M  V30 22294 C 2104.55 1.14731 3.29602 0
M  V30 22295 C 2105.9 1.23437 4.06262 0
M  V30 22296 O 2106.92 1.10009 3.38787 0
M  V30 22297 O 2105.78 1.44701 5.26995 0
M  V30 22298 H 2102.88 0.184487 0.80616 0
M  V30 22299 H 2105.42 1.06571 1.32064 0
M  V30 22300 H 2104.19 2.18994 3.2428 0
M  V30 22301 H 2103.82 0.617636 3.92773 0
M  V30 22302 N 2104.81 -1.39054 0.741747 0
M  V30 22303 C 2105.74 -2.33184 0.121433 0
M  V30 22304 C 2106.73 -1.54261 -0.716774 0
M  V30 22305 O 2107.91 -1.82627 -0.660379 0
M  V30 22306 C 2105.04 -3.38393 -0.78152 0
M  V30 22307 C 2103.99 -4.27974 -0.046955 0
M  V30 22308 C 2103.32 -5.23938 -1.06737 0
M  V30 22309 C 2104.62 -5.10272 1.11446 0
M  V30 22310 H 2106.31 -2.85308 0.907724 0
M  V30 22311 H 2103.86 -1.37179 0.437953 0
M  V30 22312 H 2105.81 -4.032 -1.22506 0
M  V30 22313 H 2104.54 -2.84724 -1.6 0
M  V30 22314 H 2103.2 -3.64656 0.377036 0
M  V30 22315 H 2102.84 -4.66562 -1.8796 0
M  V30 22316 H 2102.54 -5.84725 -0.580605 0
M  V30 22317 H 2104.07 -5.91622 -1.51048 0
M  V30 22318 H 2105.48 -5.68386 0.749042 0
M  V30 22319 H 2103.88 -5.80234 1.53131 0
M  V30 22320 H 2104.95 -4.44706 1.93299 0
M  V30 22321 N 2106.29 -0.489897 -1.49792 0
M  V30 22322 C 2107.22 0.283966 -2.31767 0
M  V30 22323 C 2108.2 0.972934 -1.39528 0
M  V30 22324 O 2109.39 0.966482 -1.68442 0
M  V30 22325 C 2106.52 1.35538 -3.19761 0
M  V30 22326 C 2105.47 0.786932 -4.20703 0
M  V30 22327 C 2104.8 1.95803 -4.97559 0
M  V30 22328 C 2106.1 -0.214528 -5.21859 0
M  V30 22329 H 2107.79 -0.40025 -2.96713 0
M  V30 22330 H 2105.34 -0.193932 -1.42688 0
M  V30 22331 H 2107.29 1.90438 -3.75914 0
M  V30 22332 H 2106.02 2.06862 -2.52736 0
M  V30 22333 H 2104.67 0.259755 -3.65679 0
M  V30 22334 H 2104.32 2.65871 -4.26992 0
M  V30 22335 H 2104.02 1.58381 -5.65853 0
M  V30 22336 H 2105.55 2.51159 -5.56553 0
M  V30 22337 H 2106.96 0.245954 -5.72772 0
M  V30 22338 H 2105.36 -0.504002 -5.9798 0
M  V30 22339 H 2106.43 -1.13417 -4.71449 0
M  V30 22340 N 2107.77 1.56011 -0.223262 0
M  V30 22341 C 2108.7 2.17647 0.718502 0
M  V30 22342 C 2109.72 1.14602 1.15629 0
M  V30 22343 O 2110.9 1.41574 1.08715 0
M  V30 22344 C 2108 2.74665 1.98525 0
M  V30 22345 C 2107.18 4.02896 1.70275 0
M  V30 22346 C 2106.24 4.44462 2.81673 0
M  V30 22347 O 2105.26 5.11326 2.5007 0
M  V30 22348 N 2106.46 4.10287 4.10664 0
M  V30 22349 H 2109.23 2.99089 0.191253 0
M  V30 22350 H 2106.79 1.61845 -0.0423185 0
M  V30 22351 H 2108.78 2.99442 2.72244 0
M  V30 22352 H 2107.35 1.97516 2.42293 0
M  V30 22353 H 2106.57 3.85957 0.801915 0
M  V30 22354 H 2107.86 4.86545 1.48833 0
M  V30 22355 H 2107.26 3.5656 4.39183 0
M  V30 22356 H 2105.82 4.39952 4.80921 0
M  V30 22357 N 2109.25 -0.0501116 1.5752 0
M  V30 22358 C 2110.47 -0.761197 1.92926 0
M  V30 22359 C 2110.9 -1.69211 0.821546 0
M  V30 22360 O 2110.26 -1.79908 -0.224247 0
M  V30 22361 C 2110.3 -1.51241 3.27351 0
M  V30 22362 O 2109.41 -2.62445 3.18114 0
M  V30 22363 H 2108.75 -0.206224 0.631164 0
M  V30 22364 H 2111.28 -0.0118709 2.04597 0
M  V30 22365 H 2111.29 -1.88696 3.61743 0
M  V30 22366 H 2109.96 -0.829535 4.07543 0
M  V30 22367 H 2108.54 -2.27688 2.95318 0
M  V30 22368 N 2110.73 -1.54276 -0.321972 0
M  V30 22369 C 2111.97 -1.72813 -1.0613 0
M  V30 22370 C 2112.31 -0.501222 -1.8762 0
M  V30 22371 O 2111.58 0.501806 -1.87915 0
M  V30 22372 C 2111.86 -3.00469 -1.9847 0
M  V30 22373 C 2111.72 -4.33415 -1.20299 0
M  V30 22374 C 2113.04 -3.23886 -2.97969 0
M  V30 22375 H 2110.15 -0.628793 -0.384432 0
M  V30 22376 H 2112.8 -1.86973 -0.337811 0
M  V30 22377 H 2110.95 -2.88528 -2.60161 0
M  V30 22378 H 2112.62 -4.57242 -0.610559 0
M  V30 22379 H 2110.86 -4.30847 -0.505293 0
M  V30 22380 H 2111.53 -5.18959 -1.8811 0
M  V30 22381 H 2114.01 -3.353 -2.46401 0
M  V30 22382 H 2112.88 -4.14562 -3.59763 0
M  V30 22383 H 2113.15 -2.4119 -3.70513 0
M  V30 22384 N 2112.2 0.584116 -1.46376 0
M  V30 22385 C 2113.62 0.907336 -1.313 0
M  V30 22386 C 2113.82 1.99497 -0.283388 0
M  V30 22387 O 2112.88 2.50533 0.314536 0
M  V30 22388 C 2114.19 1.32602 -2.69883 0
M  V30 22389 C 2115.74 1.43895 -2.77963 0
M  V30 22390 C 2116.21 1.89131 -4.17125 0
M  V30 22391 N 2117.7 1.96326 -4.19536 0
M  V30 22392 C 2118.44 2.32599 -5.24104 0
M  V30 22393 N 2117.93 2.67675 -6.39001 0
M  V30 22394 N 2119.73 2.33142 -5.1147 0
M  V30 22395 H 2111.88 -0.134382 -2.11974 0
M  V30 22396 H 2114.14 0.00254953 -0.947997 0
M  V30 22397 H 2113.85 0.600869 -3.46529 0
M  V30 22398 H 2113.72 2.28783 -2.99897 0
M  V30 22399 H 2116.11 2.15497 -2.01606 0
M  V30 22400 H 2116.19 0.459692 -2.51636 0
M  V30 22401 H 2115.83 1.18108 -4.93977 0
M  V30 22402 H 2115.76 2.88012 -4.40859 0
M  V30 22403 H 2118.25 1.71715 -3.36634 0
M  V30 22404 H 2118.57 2.94302 -7.14567 0
M  V30 22405 H 2116.91 2.65317 -6.42364 0
M  V30 22406 H 2120.1 2.05161 -4.20745 0
M  V30 22407 H 2120.28 2.61083 -5.93077 0
M  V30 22408 N 2113.68 1.34058 0.828631 0
M  V30 22409 C 2114.91 1.29156 1.61636 0
M  V30 22410 C 2115.33 -0.135511 1.88313 0
M  V30 22411 O 2114.68 -1.08084 1.47051 0
M  V30 22412 C 2114.73 2.07436 2.96062 0
M  V30 22413 O 2114.46 3.44577 2.70552 0
M  V30 22414 C 2115.96 2.09865 3.90476 0
M  V30 22415 H 2113.18 0.444543 0.502615 0
M  V30 22416 H 2115.72 1.76585 1.0314 0
M  V30 22417 H 2113.88 1.63663 3.51131 0
M  V30 22418 H 2114.29 3.84972 3.56225 0
M  V30 22419 H 2115.76 2.69071 4.8198 0
M  V30 22420 H 2116.24 1.09155 4.2542 0
M  V30 22421 H 2116.85 2.53702 3.41344 0
M  V30 22422 N 2115.16 -1.04814 1.17694 0
M  V30 22423 C 2116.57 -1.5934 0.973022 0
M  V30 22424 C 2116.92 -1.90256 -0.479284 0
M  V30 22425 O 2116.05 -1.68704 -1.35528 0
M  V30 22426 C 2116.64 -2.89503 1.75993 0
M  V30 22427 C 2115.2 -3.40674 1.60058 0
M  V30 22428 C 2114.35 -2.14356 1.75916 0
M  V30 22429 H 2117.3 -0.87578 1.32347 0
M  V30 22430 H 2117.32 -3.5957 1.24457 0
M  V30 22431 H 2116.83 -2.6697 2.81689 0
M  V30 22432 H 2114.93 -3.68235 0.568665 0
M  V30 22433 H 2115.05 -4.15004 2.39393 0
M  V30 22434 H 2113.41 -2.25301 1.18793 0
M  V30 22435 H 2114.19 -1.94288 2.83032 0
M  V30 22436 N 2116.64 -0.977779 -1.23601 0
M  V30 22437 C 2117.55 -0.524039 -2.28672 0
M  V30 22438 C 2118.57 0.419894 -1.68858 0
M  V30 22439 O 2119.74 0.290458 -1.99295 0
M  V30 22440 C 2116.81 0.16886 -3.46289 0
M  V30 22441 C 2115.87 -0.81615 -4.21471 0
M  V30 22442 C 2115.1 -0.156223 -5.33471 0
M  V30 22443 O 2115.32 1.05329 -5.60591 0
M  V30 22444 O 2114.26 -0.853473 -5.95818 0
M  V30 22445 H 2118.08 -1.39778 -2.69622 0
M  V30 22446 H 2115.67 -0.745288 -1.29483 0
M  V30 22447 H 2117.55 0.557659 -4.17694 0
M  V30 22448 H 2116.23 1.0174 -3.07296 0
M  V30 22449 H 2115.13 -1.2556 -3.524 0
M  V30 22450 H 2116.47 -1.63342 -4.64306 0
M  V30 22451 N 2118.12 1.38658 -0.749111 0
M  V30 22452 C 2119.36 2.00513 -0.303727 0
M  V30 22453 C 2119.7 1.59324 1.11039 0
M  V30 22454 O 2118.97 0.828679 1.75964 0
M  V30 22455 C 2119.25 3.57624 -0.421545 0
M  V30 22456 C 2119.11 4.0879 -1.87644 0
M  V30 22457 C 2120.43 4.39699 0.187724 0
M  V30 22458 H 2117.55 0.728465 -0.111835 0
M  V30 22459 H 2120.19 1.64665 -0.947915 0
M  V30 22460 H 2118.34 3.88293 0.126892 0
M  V30 22461 H 2120.01 3.88784 -2.48284 0
M  V30 22462 H 2118.25 3.61824 -2.39303 0
M  V30 22463 H 2118.92 5.179 -1.91006 0
M  V30 22464 H 2121.4 4.15157 -0.279958 0
M  V30 22465 H 2120.28 5.48849 0.0750199 0
M  V30 22466 H 2120.54 4.23301 1.27549 0
M  V30 22467 N 2119.6 0.497834 1.49531 0
M  V30 22468 C 2120.84 -0.0496362 2.01639 0
M  V30 22469 C 2121.16 -1.3834 1.38281 0
M  V30 22470 O 2122.36 -2.01737 1.81699 0
M  V30 22471 C 2120.82 -0.138928 3.59632 0
M  V30 22472 C 2120.43 1.188 4.31961 0
M  V30 22473 C 2122.17 -0.636931 4.19694 0
M  V30 22474 C 2120.08 1.06104 5.81804 0
M  V30 22475 H 2119.01 -0.0223237 0.753669 0
M  V30 22476 H 2121.66 0.636776 1.72097 0
M  V30 22477 H 2120.04 -0.88972 3.85876 0
M  V30 22478 H 2121.22 1.95184 4.17421 0
M  V30 22479 H 2119.53 1.61919 3.83629 0
M  V30 22480 H 2122.13 -0.749374 5.29423 0
M  V30 22481 H 2122.47 -1.63499 3.8285 0
M  V30 22482 H 2123 0.0572358 3.97759 0
M  V30 22483 H 2119.74 2.03327 6.23168 0
M  V30 22484 H 2119.26 0.33804 5.98847 0
M  V30 22485 H 2120.94 0.738481 6.42772 0
M  V30 22486 N 2121.07 -1.5589 0.231532 0
M  V30 22487 C 2122.02 -2.20725 -0.674461 0
M  V30 22488 C 2122.99 -1.16607 -1.18288 0
M  V30 22489 O 2124.18 -1.44999 -1.24016 0
M  V30 22490 C 2121.32 -2.89876 -1.87259 0
M  V30 22491 C 2120.43 -4.08613 -1.40213 0
M  V30 22492 C 2119.56 -4.6552 -2.55861 0
M  V30 22493 C 2118.6 -5.76537 -2.05601 0
M  V30 22494 N 2117.74 -6.27692 -3.14558 0
M  V30 22495 H 2122.58 -2.97779 -0.114866 0
M  V30 22496 H 2120.12 -1.47031 -0.0449395 0
M  V30 22497 H 2122.07 -3.28159 -2.57619 0
M  V30 22498 H 2120.7 -2.15324 -2.4049 0
M  V30 22499 H 2119.76 -3.75748 -0.593106 0
M  V30 22500 H 2121.07 -4.88802 -0.993676 0
M  V30 22501 H 2120.22 -5.06297 -3.34288 0
M  V30 22502 H 2118.96 -3.84514 -3.00001 0
M  V30 22503 H 2117.97 -5.35252 -1.25639 0
M  V30 22504 H 2119.19 -6.59384 -1.62449 0
M  V30 22505 H 2117.14 -5.49597 -3.58161 0
M  V30 22506 H 2117.05 -7.03032 -2.77996 0
M  V30 22507 H 2118.32 -6.73127 -3.93091 0
M  V30 22508 N 2122.55 0.0417572 -1.57545 0
M  V30 22509 C 2123.78 0.746132 -1.92656 0
M  V30 22510 C 2124.19 1.70092 -0.828568 0
M  V30 22511 O 2123.53 1.82555 0.204771 0
M  V30 22512 C 2123.59 1.56855 -3.23476 0
M  V30 22513 C 2123.26 0.779913 -4.50296 0
M  V30 22514 C 2124.26 0.0857732 -5.19829 0
M  V30 22515 C 2121.94 0.738203 -4.96846 0
M  V30 22516 C 2123.93 -0.639517 -6.34184 0
M  V30 22517 C 2121.62 0.00915893 -6.11099 0
M  V30 22518 C 2122.62 -0.678473 -6.79622 0
M  V30 22519 O 2122.31 -1.39571 -7.91691 0
M  V30 22520 H 2122.04 0.215532 -0.64072 0
M  V30 22521 H 2124.59 0.00718644 -2.05399 0
M  V30 22522 H 2122.82 2.35101 -3.07025 0
M  V30 22523 H 2124.51 2.15436 -3.44009 0
M  V30 22524 H 2125.28 0.10911 -4.84877 0
M  V30 22525 H 2121.16 1.26291 -4.43364 0
M  V30 22526 H 2124.7 -1.17679 -6.87603 0
M  V30 22527 H 2120.6 -0.0161455 -6.45498 0
M  V30 22528 H 2121.37 -1.30807 -8.0798 0
M  V30 22529 N 2124.03 1.54445 0.313786 0
M  V30 22530 C 2125.27 1.74847 1.05867 0
M  V30 22531 C 2125.63 0.516479 1.84923 0
M  V30 22532 O 2126.83 0.598017 2.62063 0
M  V30 22533 C 2125.11 2.99452 1.95099 0
M  V30 22534 S 2126.66 3.40801 2.76406 0
M  V30 22535 H 2123.48 0.614731 0.35725 0
M  V30 22536 H 2126.08 1.92634 0.33353 0
M  V30 22537 H 2124.79 3.87255 1.35873 0
M  V30 22538 H 2124.32 2.84216 2.72002 0
M  V30 22539 H 2126.33 2.96867 3.97598 0
M  V30 22540 N 2125.51 -0.576345 1.46683 0
M  V30 22541 C 2126.42 -1.71268 1.60326 0
M  V30 22542 C 2127.43 -1.67059 0.486559 0
M  V30 22543 O 2128.61 -1.86852 0.75154 0
M  V30 22544 C 2125.67 -3.07775 1.5961 0
M  V30 22545 C 2124.74 -3.232 2.8256 0
M  V30 22546 C 2123.97 -4.53195 2.81869 0
M  V30 22547 O 2124.19 -5.37478 1.90979 0
M  V30 22548 O 2123.13 -4.72003 3.73493 0
M  V30 22549 H 2126.95 -1.62705 2.56439 0
M  V30 22550 H 2124.54 -0.744135 1.29549 0
M  V30 22551 H 2126.42 -3.89046 1.61929 0
M  V30 22552 H 2125.09 -3.16762 0.666583 0
M  V30 22553 H 2124 -2.41398 2.85793 0
M  V30 22554 H 2125.33 -3.19107 3.74742 0
M  V30 22555 N 2126.99 -1.34495 -0.82151 0
M  V30 22556 C 2128.23 -1.26681 -1.57469 0
M  V30 22557 C 2128.55 0.162701 -1.9432 0
M  V30 22558 O 2127.82 1.09566 -1.62395 0
M  V30 22559 H 2126.4 -0.465903 -0.583903 0
M  V30 22560 H 2129.07 -1.68424 -0.980791 0
M  V30 22561 H 2128.16 -1.87251 -2.49686 0
M  V30 22562 N 2128.46 1.04188 -1.18248 0
M  V30 22563 C 2129.41 2.14282 -0.904765 0
M  V30 22564 C 2130.41 1.68865 0.134493 0
M  V30 22565 O 2131.61 1.79995 -0.013541 0
M  V30 22566 H 2127.99 0.699873 -0.275103 0
M  V30 22567 H 2129.96 2.34904 -1.84018 0
M  V30 22568 C 2128.71 3.44832 -0.445645 0
M  V30 22569 H 2128.03 3.80187 -1.23683 0
M  V30 22570 H 2129.47 4.23005 -0.29031 0
M  V30 22571 C 2127.93 3.26303 0.838325 0
M  V30 22572 O 2128.46 3.53774 1.90282 0
M  V30 22573 N 2126.67 2.79643 0.79045 0
M  V30 22574 H 2126.21 2.57488 -0.0760399 0
M  V30 22575 H 2126.17 2.67626 1.64996 0
M  V30 22576 N 2129.94 0.98432 1.23081 0
M  V30 22577 C 2131.36 0.6936 1.43741 0
M  V30 22578 C 2131.56 -0.738828 1.87466 0
M  V30 22579 O 2130.61 -1.51079 2.02315 0
M  V30 22580 C 2131.93 1.69187 2.48589 0
M  V30 22581 C 2133.48 1.70635 2.62398 0
M  V30 22582 C 2133.95 2.69302 3.7046 0
M  V30 22583 N 2135.44 2.67844 3.77907 0
M  V30 22584 C 2136.18 3.40857 4.6109 0
M  V30 22585 N 2135.67 4.23441 5.48333 0
M  V30 22586 N 2137.47 3.29603 4.55322 0
M  V30 22587 H 2129.62 1.90957 0.930015 0
M  V30 22588 H 2131.88 0.823061 0.470398 0
M  V30 22589 H 2131.59 2.71646 2.23386 0
M  V30 22590 H 2131.46 1.47784 3.47044 0
M  V30 22591 H 2133.85 0.688782 2.86949 0
M  V30 22592 H 2133.93 1.96104 1.64246 0
M  V30 22593 H 2133.57 3.71203 3.46656 0
M  V30 22594 H 2133.5 2.41106 4.68162 0
M  V30 22595 H 2135.99 2.07913 3.15564 0
M  V30 22596 H 2136.31 4.75999 6.08806 0
M  V30 22597 H 2134.65 4.27531 5.47944 0
M  V30 22598 H 2137.84 2.64533 3.86186 0
M  V30 22599 H 2138.01 3.86764 5.19921 0
M  V30 22600 N 2131.42 -1.38259 0.756453 0
M  V30 22601 C 2132.67 -2.00814 0.323321 0
M  V30 22602 C 2133.02 -1.58972 -1.08377 0
M  V30 22603 O 2132.31 -0.818581 -1.73233 0
M  V30 22604 C 2132.51 -3.55293 0.3875 0
M  V30 22605 C 2132.34 -4.12136 1.79929 0
M  V30 22606 C 2131.11 -4.43773 2.41648 0
M  V30 22607 C 2133.31 -4.34197 2.7564 0
M  V30 22608 N 2131.29 -4.8624 3.74759 0
M  V30 22609 C 2132.66 -4.79104 3.93521 0
M  V30 22610 C 2134.71 -4.16301 2.73126 0
M  V30 22611 C 2133.42 -5.07992 5.09251 0
M  V30 22612 C 2135.44 -4.46316 3.88016 0
M  V30 22613 C 2134.8 -4.91449 5.04636 0
M  V30 22614 H 2130.9 -0.764388 0.165031 0
M  V30 22615 H 2133.49 -1.67827 0.98702 0
M  V30 22616 H 2131.66 -3.87621 -0.245943 0
M  V30 22617 H 2133.39 -4.04646 -0.0662241 0
M  V30 22618 H 2130.15 -4.32316 1.9339 0
M  V30 22619 H 2130.57 -5.11803 4.43155 0
M  V30 22620 H 2135.21 -3.80592 1.84145 0
M  V30 22621 H 2132.93 -5.42597 5.98844 0
M  V30 22622 H 2136.52 -4.34071 3.87393 0
M  V30 22623 H 2135.4 -5.1423 5.92061 0
M  V30 22624 N 2132.9 -0.505757 -1.49264 0
M  V30 22625 C 2134.15 0.0389421 -2.01662 0
M  V30 22626 C 2134.46 1.37604 -1.39012 0
M  V30 22627 O 2135.67 2.00771 -1.82766 0
M  V30 22628 C 2134.12 0.119854 -3.597 0
M  V30 22629 C 2133.73 -1.21089 -4.31325 0
M  V30 22630 C 2135.47 0.614665 -4.20026 0
M  V30 22631 C 2133.38 -1.09188 -5.81233 0
M  V30 22632 H 2132.31 0.0183265 -0.753777 0
M  V30 22633 H 2134.96 -0.645894 -1.71757 0
M  V30 22634 H 2133.34 0.869244 -3.86342 0
M  V30 22635 H 2134.52 -1.97394 -4.1638 0
M  V30 22636 H 2132.83 -1.63951 -3.82765 0
M  V30 22637 H 2135.43 0.721287 -5.29813 0
M  V30 22638 H 2135.77 1.61466 -3.83711 0
M  V30 22639 H 2136.31 -0.0783291 -3.97723 0
M  V30 22640 H 2133.05 -2.06629 -6.22081 0
M  V30 22641 H 2132.57 -0.369793 -5.98659 0
M  V30 22642 H 2134.24 -0.772559 -6.42371 0
M  V30 22643 N 2134.38 1.55765 -0.239796 0
M  V30 22644 C 2135.63 1.97945 0.387367 0
M  V30 22645 C 2135.94 1.131 1.59586 0
M  V30 22646 O 2137.14 1.45261 2.29372 0
M  V30 22647 C 2135.6 3.52198 0.740571 0
M  V30 22648 C 2135.21 4.45773 -0.446131 0
M  V30 22649 C 2136.95 4.0305 1.33232 0
M  V30 22650 C 2134.86 5.91359 -0.0694771 0
M  V30 22651 H 2133.79 0.739231 0.148505 0
M  V30 22652 H 2136.44 1.80343 -0.338891 0
M  V30 22653 H 2134.82 3.65468 1.52476 0
M  V30 22654 H 2136 4.44259 -1.22354 0
M  V30 22655 H 2134.31 4.05364 -0.952332 0
M  V30 22656 H 2136.91 5.09335 1.62734 0
M  V30 22657 H 2137.25 3.49977 2.25437 0
M  V30 22658 H 2137.78 3.93077 0.611183 0
M  V30 22659 H 2134.52 6.48455 -0.958485 0
M  V30 22660 H 2134.04 5.96025 0.671873 0
M  V30 22661 H 2135.72 6.46048 0.350837 0
M  V30 22662 N 2135.85 -0.0334016 1.57565 0
M  V30 22663 C 2137.27 -0.580549 1.77444 0
M  V30 22664 C 2137.62 -1.7584 0.870324 0
M  V30 22665 O 2136.74 -2.16305 0.0640468 0
M  V30 22666 C 2137.34 -1.05995 3.21793 0
M  V30 22667 C 2135.9 -1.55265 3.42885 0
M  V30 22668 C 2135.04 -0.488796 2.72958 0
M  V30 22669 H 2137.99 0.192826 1.57524 0
M  V30 22670 H 2138.01 -1.92748 3.28068 0
M  V30 22671 H 2137.53 -0.202479 3.87571 0
M  V30 22672 H 2135.63 -2.43211 2.82275 0
M  V30 22673 H 2135.74 -1.60314 4.51482 0
M  V30 22674 H 2134.1 -0.942831 2.36607 0
M  V30 22675 H 2134.89 0.359136 3.41416 0
M  V30 22676 N 2137.33 -1.54609 -0.305591 0
M  V30 22677 C 2138.3 -1.84504 -1.35982 0
M  V30 22678 C 2139.3 -0.717695 -1.43895 0
M  V30 22679 O 2140.49 -0.985988 -1.4361 0
M  V30 22680 C 2137.62 -2.0212 -2.74518 0
M  V30 22681 H 2138.81 -2.78713 -1.10721 0
M  V30 22682 H 2136.36 -1.46601 -0.542022 0
M  V30 22683 H 2137.1 -1.10183 -3.05009 0
M  V30 22684 H 2136.88 -2.84171 -2.70166 0
M  V30 22685 H 2138.37 -2.26635 -3.50751 0
M  V30 22686 N 2138.81 0.568558 -1.46987 0
M  V30 22687 C 2139.72 1.70416 -1.61232 0
M  V30 22688 C 2140.74 1.66798 -0.495411 0
M  V30 22689 O 2141.91 1.86451 -0.761438 0
M  V30 22690 C 2138.98 3.06924 -1.6124 0
M  V30 22691 C 2138.04 3.21697 -2.8427 0
M  V30 22692 C 2137.27 4.51694 -2.84268 0
M  V30 22693 O 2137.49 5.36458 -1.93827 0
M  V30 22694 O 2136.43 4.70015 -3.75991 0
M  V30 22695 H 2140.25 1.61343 -2.57298 0
M  V30 22696 H 2137.84 0.737255 -1.29942 0
M  V30 22697 H 2139.72 3.88182 -1.6399 0
M  V30 22698 H 2138.4 3.16404 -0.683373 0
M  V30 22699 H 2137.3 2.39879 -2.87069 0
M  V30 22700 H 2138.64 3.17115 -3.76429 0
M  V30 22701 N 2140.29 1.34929 0.814366 0
M  V30 22702 C 2141.53 1.29124 1.5845 0
M  V30 22703 C 2141.89 -0.134731 1.91527 0
M  V30 22704 O 2143.09 -0.317063 2.66923 0
M  V30 22705 C 2141.36 2.16513 2.84354 0
M  V30 22706 S 2142.92 2.28146 3.74827 0
M  V30 22707 H 2139.74 0.459 0.542991 0
M  V30 22708 H 2142.34 1.70236 0.961249 0
M  V30 22709 H 2141.05 3.19109 2.58065 0
M  V30 22710 H 2140.58 1.76329 3.5167 0
M  V30 22711 H 2142.59 1.46054 4.74218 0
M  V30 22712 N 2141.77 -1.0356 1.18799 0
M  V30 22713 C 2142.71 -2.11687 0.919622 0
M  V30 22714 C 2143.68 -1.65484 -0.142958 0
M  V30 22715 O 2144.87 -1.908 -0.00223972 0
M  V30 22716 C 2142.01 -3.4206 0.457036 0
M  V30 22717 C 2141.12 -4.01848 1.58562 0
M  V30 22718 C 2140.26 -5.20204 1.07524 0
M  V30 22719 C 2139.3 -5.72033 2.17817 0
M  V30 22720 N 2138.43 -6.8167 1.68136 0
M  V30 22721 H 2143.27 -2.33981 1.84546 0
M  V30 22722 H 2140.81 -1.14766 0.920172 0
M  V30 22723 H 2142.77 -4.16852 0.170279 0
M  V30 22724 H 2141.4 -3.19899 -0.431815 0
M  V30 22725 H 2140.45 -3.24335 1.98774 0
M  V30 22726 H 2141.76 -4.36338 2.41684 0
M  V30 22727 H 2140.92 -6.02129 0.743314 0
M  V30 22728 H 2139.65 -4.87232 0.213672 0
M  V30 22729 H 2138.66 -4.88725 2.51849 0
M  V30 22730 H 2139.88 -6.07047 3.04418 0
M  V30 22731 H 2137.83 -6.50564 0.842764 0
M  V30 22732 H 2137.75 -7.15251 2.44852 0
M  V30 22733 H 2139.02 -7.67208 1.37886 0
M  V30 22734 N 2143.25 -0.990834 -1.22557 0
M  V30 22735 C 2144.49 -0.660998 -1.90562 0
M  V30 22736 C 2144.81 0.810271 -1.78028 0
M  V30 22737 O 2146.01 1.2516 -2.4093 0
M  V30 22738 C 2144.47 -1.13172 -3.41643 0
M  V30 22739 C 2144.08 -2.62807 -3.62817 0
M  V30 22740 C 2145.82 -0.876119 -4.15361 0
M  V30 22741 C 2143.73 -3.03493 -5.07588 0
M  V30 22742 H 2142.66 -0.243531 -0.713589 0
M  V30 22743 H 2145.31 -1.20012 -1.38814 0
M  V30 22744 H 2143.69 -0.520742 -3.92561 0
M  V30 22745 H 2144.87 -3.29233 -3.22401 0
M  V30 22746 H 2143.18 -2.86227 -3.02428 0
M  V30 22747 H 2145.78 -1.15582 -5.22058 0
M  V30 22748 H 2146.12 0.187761 -4.15876 0
M  V30 22749 H 2146.65 -1.44919 -3.70464 0
M  V30 22750 H 2143.39 -4.09048 -5.12211 0
M  V30 22751 H 2142.91 -2.41769 -5.48915 0
M  V30 22752 H 2144.59 -2.94679 -5.75998 0
M  V30 22753 N 2144.72 1.37856 -0.763775 0
M  V30 22754 C 2145.63 2.3415 -0.145216 0
M  V30 22755 C 2146.65 1.59782 0.688888 0
M  V30 22756 O 2147.83 1.91919 0.610668 0
M  V30 22757 C 2144.89 3.38934 0.729718 0
M  V30 22758 C 2143.95 4.29132 -0.119926 0
M  V30 22759 C 2143.18 5.28911 0.713343 0
M  V30 22760 O 2143.41 5.36002 1.95086 0
M  V30 22761 O 2142.34 6.01767 0.126758 0
M  V30 22762 H 2146.17 2.88763 -0.940736 0
M  V30 22763 H 2143.75 1.39879 -0.524814 0
M  V30 22764 H 2145.63 4.03066 1.22946 0
M  V30 22765 H 2144.31 2.86661 1.50356 0
M  V30 22766 H 2143.22 3.68127 -0.665843 0
M  V30 22767 H 2144.55 4.84688 -0.856664 0
M  V30 22768 N 2146.2 0.513665 1.48994 0
M  V30 22769 C 2147.15 -0.257967 2.29354 0
M  V30 22770 C 2148.12 -0.948815 1.36333 0
M  V30 22771 O 2149.3 -0.953018 1.65294 0
M  V30 22772 C 2146.44 -1.30885 3.19317 0
M  V30 22773 C 2145.56 -0.628503 4.27404 0
M  V30 22774 C 2144.69 -1.66091 5.04566 0
M  V30 22775 C 2143.73 -0.963129 6.04475 0
M  V30 22776 N 2142.87 -1.94033 6.74756 0
M  V30 22777 H 2147.71 0.433522 2.9483 0
M  V30 22778 H 2145.24 0.225633 1.45359 0
M  V30 22779 H 2147.2 -1.93026 3.69861 0
M  V30 22780 H 2145.83 -1.96894 2.55798 0
M  V30 22781 H 2144.88 0.10648 3.80251 0
M  V30 22782 H 2146.2 -0.0798289 4.98736 0
M  V30 22783 H 2145.35 -2.35704 5.59043 0
M  V30 22784 H 2144.09 -2.24346 4.33036 0
M  V30 22785 H 2143.09 -0.252846 5.49218 0
M  V30 22786 H 2144.32 -0.386911 6.77997 0
M  V30 22787 H 2142.27 -2.51226 6.05988 0
M  V30 22788 H 2142.18 -1.44265 7.42107 0
M  V30 22789 H 2143.45 -2.62894 7.3383 0
M  V30 22790 N 2147.68 -1.55636 0.248053 0
M  V30 22791 C 2148.59 -2.25074 -0.661731 0
M  V30 22792 C 2149.61 -1.26725 -1.19234 0
M  V30 22793 O 2150.78 -1.59603 -1.22836 0
M  V30 22794 C 2147.85 -2.93753 -1.84147 0
M  V30 22795 C 2146.91 -4.07514 -1.35022 0
M  V30 22796 C 2146.14 -4.72908 -2.47374 0
M  V30 22797 O 2146.36 -4.37385 -3.66129 0
M  V30 22798 O 2145.3 -5.61396 -2.17066 0
M  V30 22799 H 2149.12 -3.03535 -0.100047 0
M  V30 22800 H 2146.71 -1.49391 0.0165105 0
M  V30 22801 H 2148.59 -3.37007 -2.52991 0
M  V30 22802 H 2147.27 -2.18231 -2.39075 0
M  V30 22803 H 2146.17 -3.68774 -0.629034 0
M  V30 22804 H 2147.51 -4.84857 -0.847015 0
M  V30 22805 N 2149.16 0.0250451 -1.5758 0
M  V30 22806 C 2150.09 1.02382 -2.09857 0
M  V30 22807 C 2151.07 1.37455 -1.002 0
M  V30 22808 O 2152.25 1.46269 -1.27746 0
M  V30 22809 C 2149.38 2.32351 -2.58128 0
M  V30 22810 C 2148.34 2.11509 -3.72086 0
M  V30 22811 C 2147.66 3.47274 -4.06577 0
M  V30 22812 C 2148.96 1.49799 -5.00357 0
M  V30 22813 H 2150.66 0.58863 -2.93557 0
M  V30 22814 H 2148.2 0.281696 -1.41218 0
M  V30 22815 H 2150.16 3.02556 -2.93322 0
M  V30 22816 H 2148.88 2.77938 -1.71518 0
M  V30 22817 H 2147.54 1.43737 -3.37247 0
M  V30 22818 H 2147.19 3.90516 -3.17027 0
M  V30 22819 H 2146.89 3.34153 -4.83338 0
M  V30 22820 H 2148.41 4.18834 -4.44309 0
M  V30 22821 H 2149.83 2.09927 -5.33483 0
M  V30 22822 H 2148.22 1.47241 -5.81756 0
M  V30 22823 H 2149.29 0.464269 -4.82672 0
M  V30 22824 N 2150.64 1.54769 0.297388 0
M  V30 22825 C 2151.58 1.86729 1.3869 0
M  V30 22826 C 2152.58 0.741344 1.52317 0
M  V30 22827 O 2153.78 0.925384 1.54391 0
M  V30 22828 H 2150.16 0.592301 0.463339 0
M  V30 22829 H 2152.13 2.77791 1.08972 0
M  V30 22830 C 2150.88 2.13444 2.74475 0
M  V30 22831 H 2150.2 2.99558 2.64773 0
M  V30 22832 H 2151.64 2.39744 3.49712 0
M  V30 22833 C 2150.1 0.934151 3.2369 0
M  V30 22834 O 2150.63 0.156464 4.01395 0
M  V30 22835 N 2148.84 0.738537 2.81059 0
M  V30 22836 H 2148.38 1.37261 2.17984 0
M  V30 22837 H 2148.34 -0.0630002 3.14337 0
M  V30 22838 N 2152.11 -0.560755 1.47286 0
M  V30 22839 C 2153.04 -1.67792 1.62383 0
M  V30 22840 C 2154.02 -1.6338 0.473377 0
M  V30 22841 O 2155.21 -1.81057 0.702288 0
M  V30 22842 C 2152.34 -3.06431 1.63454 0
M  V30 22843 C 2151.29 -3.25688 2.7769 0
M  V30 22844 C 2150.62 -4.65078 2.63831 0
M  V30 22845 C 2151.92 -3.11404 4.19315 0
M  V30 22846 H 2153.61 -1.55414 2.55904 0
M  V30 22847 H 2151.16 -0.746251 1.23155 0
M  V30 22848 H 2153.11 -3.84428 1.72606 0
M  V30 22849 H 2151.84 -3.1976 0.664904 0
M  V30 22850 H 2150.5 -2.50098 2.68042 0
M  V30 22851 H 2150.14 -4.75201 1.64904 0
M  V30 22852 H 2149.84 -4.78911 3.40467 0
M  V30 22853 H 2151.37 -5.45214 2.74907 0
M  V30 22854 H 2152.78 -3.79222 4.29958 0
M  V30 22855 H 2151.18 -3.36749 4.9671 0
M  V30 22856 H 2152.25 -2.08195 4.3793 0
M  V30 22857 N 2153.59 -1.35359 -0.807199 0
M  V30 22858 C 2154.55 -1.28103 -1.90059 0
M  V30 22859 C 2155.55 -0.192614 -1.59642 0
M  V30 22860 O 2156.74 -0.446274 -1.68387 0
M  V30 22861 C 2153.88 -0.981581 -3.26463 0
M  V30 22862 H 2155.07 -2.25323 -1.97912 0
M  V30 22863 H 2152.62 -1.19874 -1.00299 0
M  V30 22864 H 2153.36 -0.013209 -3.24297 0
M  V30 22865 H 2153.14 -1.76903 -3.49925 0
M  V30 22866 H 2154.63 -0.956397 -4.06501 0
M  V30 22867 N 2155.07 1.02928 -1.19346 0
M  V30 22868 C 2156.02 2.1331 -0.927441 0
M  V30 22869 C 2157.01 1.68998 0.116575 0
M  V30 22870 O 2158.22 1.7997 -0.0326311 0
M  V30 22871 H 2154.59 0.696916 -0.282511 0
M  V30 22872 H 2156.56 2.32939 -1.865 0
M  V30 22873 C 2155.31 3.4434 -0.482194 0
M  V30 22874 H 2154.64 3.78854 -1.27709 0
M  V30 22875 H 2156.08 4.22673 -0.335159 0
M  V30 22876 C 2154.53 3.27174 0.803669 0
M  V30 22877 O 2155.06 3.55772 1.86519 0
M  V30 22878 N 2153.27 2.80466 0.760745 0
M  V30 22879 H 2152.82 2.57393 -0.103346 0
M  V30 22880 H 2152.78 2.69361 1.62149 0
M  V30 22881 N 2156.55 0.997319 1.2203 0
M  V30 22882 C 2157.78 0.694247 1.94905 0
M  V30 22883 C 2158.19 -0.741849 1.73615 0
M  V30 22884 O 2157.55 -1.50108 1.03796 0
M  V30 22885 C 2157.6 0.996196 3.47503 0
M  V30 22886 O 2157.32 2.37587 3.68082 0
M  V30 22887 C 2158.82 0.711446 4.37554 0
M  V30 22888 H 2156.04 0.256462 0.620055 0
M  V30 22889 H 2158.58 1.33329 1.5506 0
M  V30 22890 H 2156.74 0.402886 3.85299 0
M  V30 22891 H 2157.15 2.47854 4.62243 0
M  V30 22892 H 2158.63 0.972956 5.43358 0
M  V30 22893 H 2159.1 -0.35455 4.37767 0
M  V30 22894 H 2159.71 1.28601 4.05391 0
M  V30 22895 N 2158.03 -1.37449 0.771075 0
M  V30 22896 C 2159.28 -1.98953 0.331779 0
M  V30 22897 C 2159.59 -1.61903 -1.09758 0
M  V30 22898 O 2160.79 -2.16505 -1.63823 0
M  V30 22899 C 2159.25 -3.55792 0.542247 0
M  V30 22900 C 2158.86 -4.01781 1.98183 0
M  V30 22901 C 2160.6 -4.24173 0.16654 0
M  V30 22902 C 2158.51 -5.51327 2.13993 0
M  V30 22903 H 2157.44 -0.74434 0.120306 0
M  V30 22904 H 2160.09 -1.56988 0.950108 0
M  V30 22905 H 2158.47 -3.95733 -0.145529 0
M  V30 22906 H 2159.65 -3.73086 2.7045 0
M  V30 22907 H 2157.96 -3.46179 2.31406 0
M  V30 22908 H 2160.56 -5.34052 0.263191 0
M  V30 22909 H 2160.9 -4.06825 -0.883113 0
M  V30 22910 H 2161.43 -3.89532 0.806838 0
M  V30 22911 H 2158.17 -5.736 3.17275 0
M  V30 22912 H 2157.69 -5.81707 1.46208 0
M  V30 22913 H 2159.37 -6.17286 1.93822 0
M  V30 22914 N 2159.5 -0.52156 -1.4872 0
M  V30 22915 C 2160.75 0.0175509 -2.01692 0
M  V30 22916 C 2161.07 1.36122 -1.40464 0
M  V30 22917 O 2162.27 1.98821 -1.84885 0
M  V30 22918 C 2160.73 0.0816961 -3.59807 0
M  V30 22919 C 2160.34 -1.25657 -4.30017 0
M  V30 22920 C 2162.08 0.570081 -4.20655 0
M  V30 22921 C 2159.99 -1.15347 -5.80042 0
M  V30 22922 H 2158.92 0.0103307 -0.753929 0
M  V30 22923 H 2161.57 -0.664075 -1.71062 0
M  V30 22924 H 2159.95 0.828218 -3.87242 0
M  V30 22925 H 2161.12 -2.018 -4.14263 0
M  V30 22926 H 2159.44 -1.68002 -3.81004 0
M  V30 22927 H 2162.04 0.665053 -5.30548 0
M  V30 22928 H 2162.38 1.57387 -3.85402 0
M  V30 22929 H 2162.91 -0.120509 -3.97617 0
M  V30 22930 H 2159.65 -2.13215 -6.19854 0
M  V30 22931 H 2159.17 -0.433268 -5.98233 0
M  V30 22932 H 2160.85 -0.840647 -6.41515 0
M  V30 22933 N 2160.98 1.55502 -0.256304 0
M  V30 22934 C 2162.21 2.0357 0.36969 0
M  V30 22935 C 2162.63 1.13529 1.50853 0
M  V30 22936 O 2161.98 0.151576 1.81869 0
M  V30 22937 C 2162.03 3.5091 0.868581 0
M  V30 22938 O 2161.75 4.37522 -0.224886 0
M  V30 22939 C 2163.26 4.14782 1.56431 0
M  V30 22940 H 2160.48 0.665369 0.0867485 0
M  V30 22941 H 2163.02 2.00883 -0.382912 0
M  V30 22942 H 2161.17 3.54102 1.57133 0
M  V30 22943 H 2161.59 5.2427 0.155467 0
M  V30 22944 H 2163.06 5.1954 1.865 0
M  V30 22945 H 2163.54 3.6183 2.48949 0
M  V30 22946 H 2164.15 4.1554 0.905893 0
M  V30 22947 N 2162.46 -0.0166879 1.57591 0
M  V30 22948 C 2163.71 -0.704094 1.89012 0
M  V30 22949 C 2164.02 -1.75854 0.856437 0
M  V30 22950 O 2165.23 -2.4994 1.06029 0
M  V30 22951 C 2163.68 -1.30343 3.35468 0
M  V30 22952 C 2163.29 -0.284687 4.47095 0
M  V30 22953 C 2165.04 -1.96999 3.76021 0
M  V30 22954 C 2162.94 -0.893068 5.84618 0
M  V30 22955 H 2161.87 -0.266736 0.705243 0
M  V30 22956 H 2164.52 0.0411208 1.83454 0
M  V30 22957 H 2162.91 -2.09876 3.3581 0
M  V30 22958 H 2164.08 0.484835 4.58242 0
M  V30 22959 H 2162.4 0.280487 4.15454 0
M  V30 22960 H 2164.99 -2.43392 4.76093 0
M  V30 22961 H 2165.34 -2.79347 3.0866 0
M  V30 22962 H 2165.87 -1.24224 3.77906 0
M  V30 22963 H 2162.61 -0.108736 6.5541 0
M  V30 22964 H 2162.13 -1.63214 5.77167 0
M  V30 22965 H 2163.81 -1.39672 6.31744 0
M  V30 22966 N 2163.94 -1.54924 -0.289176 0
M  V30 22967 C 2165.19 -1.73974 -1.02059 0
M  V30 22968 C 2165.5 -0.539167 -1.88022 0
M  V30 22969 O 2166.71 -0.611723 -2.64519 0
M  V30 22970 C 2165.16 -3.07847 -1.86435 0
M  V30 22971 C 2164.77 -4.35421 -1.05417 0
M  V30 22972 C 2166.51 -3.36252 -2.59104 0
M  V30 22973 C 2164.42 -5.6034 -1.89138 0
M  V30 22974 H 2163.35 -0.648438 -0.384766 0
M  V30 22975 H 2166 -1.81397 -0.276999 0
M  V30 22976 H 2164.38 -2.94419 -2.64827 0
M  V30 22977 H 2165.56 -4.59718 -0.315551 0
M  V30 22978 H 2163.87 -4.14039 -0.442763 0
M  V30 22979 H 2166.47 -4.26785 -3.22115 0
M  V30 22980 H 2166.81 -2.55656 -3.28551 0
M  V30 22981 H 2167.35 -3.50705 -1.87753 0
M  V30 22982 H 2164.09 -6.43638 -1.2414 0
M  V30 22983 H 2163.61 -5.4021 -2.6064 0
M  V30 22984 H 2165.28 -5.98038 -2.46899 0
M  V30 22985 N 2165.42 0.552936 -1.47582 0
M  V30 22986 C 2166.38 1.64175 -1.59936 0
M  V30 22987 C 2167.38 1.5365 -0.474152 0
M  V30 22988 O 2168.57 1.57732 -0.739338 0
M  V30 22989 C 2165.7 3.03732 -1.5479 0
M  V30 22990 H 2166.89 1.54569 -2.56999 0
M  V30 22991 H 2164.45 0.773198 -1.35836 0
M  V30 22992 H 2165.18 3.18866 -0.591183 0
M  V30 22993 H 2164.97 3.12779 -2.36456 0
M  V30 22994 H 2166.46 3.82936 -1.66582 0
M  V30 22995 N 2166.89 1.35785 0.800009 0
M  V30 22996 C 2167.84 1.29289 1.93357 0
M  V30 22997 C 2168.84 0.186598 1.68369 0
M  V30 22998 O 2170.04 0.352975 1.76505 0
M  V30 22999 H 2166.42 0.402237 0.635382 0
M  V30 23000 H 2168.39 2.25042 1.95956 0
M  V30 23001 C 2167.14 1.08839 3.30226 0
M  V30 23002 H 2166.46 1.93208 3.50015 0
M  V30 23003 H 2167.9 1.08337 4.09926 0
M  V30 23004 C 2166.36 -0.207479 3.36261 0
M  V30 23005 O 2166.89 -1.201 3.83326 0
M  V30 23006 N 2165.1 -0.248518 2.89535 0
M  V30 23007 H 2164.64 0.560592 2.51426 0
M  V30 23008 H 2164.6 -1.11527 2.93954 0
M  V30 23009 N 2168.37 -1.02294 1.19891 0
M  V30 23010 C 2169.62 -1.76051 1.00667 0
M  V30 23011 C 2169.95 -1.88654 -0.460802 0
M  V30 23012 O 2169.23 -1.4077 -1.34216 0
M  V30 23013 C 2169.51 -3.18331 1.68338 0
M  V30 23014 C 2169.36 -3.13562 3.22489 0
M  V30 23015 C 2170.68 -4.16859 1.41125 0
M  V30 23016 H 2167.8 -0.639057 0.367117 0
M  V30 23017 H 2170.44 -1.19377 1.47815 0
M  V30 23018 H 2168.59 -3.6672 1.28252 0
M  V30 23019 H 2170.26 -2.73025 3.71827 0
M  V30 23020 H 2168.51 -2.51121 3.53724 0
M  V30 23021 H 2169.18 -4.1411 3.64989 0
M  V30 23022 H 2171.65 -3.77097 1.75889 0
M  V30 23023 H 2170.53 -5.14592 1.91015 0
M  V30 23024 H 2170.79 -4.40809 0.33758 0
M  V30 23025 N 2169.85 -1.00378 -1.21499 0
M  V30 23026 C 2171.1 -0.681173 -1.8985 0
M  V30 23027 C 2171.41 0.791343 -1.78877 0
M  V30 23028 O 2172.62 1.22598 -2.42244 0
M  V30 23029 C 2171.07 -1.1679 -3.40424 0
M  V30 23030 C 2170.68 -2.6664 -3.6001 0
M  V30 23031 C 2172.43 -0.920124 -4.14408 0
M  V30 23032 C 2170.33 -3.0886 -5.04341 0
M  V30 23033 H 2169.26 -0.251086 -0.710965 0
M  V30 23034 H 2171.91 -1.21478 -1.37533 0
M  V30 23035 H 2170.3 -0.562349 -3.91987 0
M  V30 23036 H 2171.47 -3.32634 -3.18891 0
M  V30 23037 H 2169.79 -2.89419 -2.99376 0
M  V30 23038 H 2172.38 -1.21113 -5.20803 0
M  V30 23039 H 2172.73 0.143641 -4.16052 0
M  V30 23040 H 2173.26 -1.4884 -3.68906 0
M  V30 23041 H 2170 -4.14458 -5.07844 0
M  V30 23042 H 2169.52 -2.47577 -5.4632 0
M  V30 23043 H 2171.2 -3.00772 -5.7284 0
M  V30 23044 N 2171.33 1.37038 -0.778354 0
M  V30 23045 C 2172.58 1.99134 -0.344995 0
M  V30 23046 C 2172.9 1.62093 1.08402 0
M  V30 23047 O 2172.17 0.889547 1.74539 0
M  V30 23048 H 2170.75 0.73654 -0.124572 0
M  V30 23049 H 2173.41 1.67413 -0.997945 0
M  V30 23050 H 2172.51 3.09152 -0.427927 0
M  V30 23051 N 2172.81 0.529439 1.48441 0
M  V30 23052 C 2173.74 -0.280881 2.26465 0
M  V30 23053 C 2174.72 -0.94529 1.32299 0
M  V30 23054 O 2175.9 -0.96979 1.61639 0
M  V30 23055 C 2173.03 -1.39776 3.08513 0
M  V30 23056 C 2172.08 -0.84481 4.18049 0
M  V30 23057 S 2172.91 0.286899 5.34731 0
M  V30 23058 C 2174.06 -0.832466 6.20339 0
M  V30 23059 H 2174.3 0.38128 2.94845 0
M  V30 23060 H 2171.83 0.315217 1.51148 0
M  V30 23061 H 2173.79 -2.03755 3.56362 0
M  V30 23062 H 2172.45 -2.03164 2.39548 0
M  V30 23063 H 2171.64 -1.68267 4.75081 0
M  V30 23064 H 2171.24 -0.281723 3.72937 0
M  V30 23065 H 2173.54 -1.73123 6.55007 0
M  V30 23066 H 2174.48 -0.300133 7.07464 0
M  V30 23067 H 2174.89 -1.11263 5.53426 0
M  V30 23068 N 2174.29 -1.55364 0.264547 0
M  V30 23069 C 2175.25 -2.20814 -0.614312 0
M  V30 23070 C 2176.25 -1.18274 -1.0894 0
M  V30 23071 O 2177.44 -1.43246 -0.991274 0
M  V30 23072 C 2174.57 -2.86572 -1.84632 0
M  V30 23073 H 2175.76 -2.99869 -0.0430102 0
M  V30 23074 H 2173.32 -1.56293 0.0150952 0
M  V30 23075 H 2174.05 -2.11501 -2.45841 0
M  V30 23076 H 2173.84 -3.61704 -1.51369 0
M  V30 23077 H 2175.33 -3.36608 -2.47153 0
M  V30 23078 N 2175.76 0.00833021 -1.57598 0
M  V30 23079 C 2177.18 0.364296 -1.55387 0
M  V30 23080 C 2177.38 1.75313 -0.993353 0
M  V30 23081 O 2176.44 2.44681 -0.623498 0
M  V30 23082 C 2177.75 0.247154 -2.99683 0
M  V30 23083 C 2179.3 0.32271 -3.11332 0
M  V30 23084 C 2179.77 0.234786 -4.57398 0
M  V30 23085 N 2181.26 0.292944 -4.62273 0
M  V30 23086 C 2182 0.248123 -5.72863 0
M  V30 23087 N 2181.49 0.154382 -6.92628 0
M  V30 23088 N 2183.29 0.299377 -5.61302 0
M  V30 23089 H 2175.44 -0.900301 -1.92376 0
M  V30 23090 H 2177.7 -0.344326 -0.883257 0
M  V30 23091 H 2177.41 -0.708073 -3.44498 0
M  V30 23092 H 2177.28 1.03257 -3.62792 0
M  V30 23093 H 2179.67 1.26838 -2.66451 0
M  V30 23094 H 2179.75 -0.492428 -2.51016 0
M  V30 23095 H 2179.39 -0.707303 -5.02951 0
M  V30 23096 H 2179.32 1.0683 -5.1565 0
M  V30 23097 H 2181.81 0.367063 -3.76113 0
M  V30 23098 H 2182.13 0.12585 -7.72698 0
M  V30 23099 H 2180.47 0.12013 -6.94896 0
M  V30 23100 H 2183.66 0.370748 -4.66629 0
M  V30 23101 H 2183.84 0.260981 -6.47474 0
M  V30 23102 N 2177.24 1.55075 0.280956 0
M  V30 23103 C 2178.49 1.74513 1.01135 0
M  V30 23104 C 2178.8 0.549131 1.87734 0
M  V30 23105 O 2180.01 0.625743 2.64191 0
M  V30 23106 C 2178.47 3.08832 1.848 0
M  V30 23107 C 2178.07 4.35974 1.03106 0
M  V30 23108 C 2179.82 3.37621 2.57317 0
M  V30 23109 C 2177.72 5.61335 1.86163 0
M  V30 23110 H 2176.65 0.650469 0.381321 0
M  V30 23111 H 2179.31 1.81542 0.267376 0
M  V30 23112 H 2177.69 2.9582 2.63262 0
M  V30 23113 H 2178.86 4.59879 0.291167 0
M  V30 23114 H 2177.18 4.14268 0.4208 0
M  V30 23115 H 2179.77 4.28488 3.19847 0
M  V30 23116 H 2180.12 2.57395 3.27191 0
M  V30 23117 H 2180.65 3.51695 1.8589 0
M  V30 23118 H 2177.39 6.44287 1.20725 0
M  V30 23119 H 2176.91 5.41585 2.57771 0
M  V30 23120 H 2178.59 5.99339 2.43724 0
M  V30 23121 N 2178.72 -0.545102 1.47873 0
M  V30 23122 C 2179.97 -1.29811 1.54376 0
M  V30 23123 C 2180.28 -1.94404 0.215938 0
M  V30 23124 O 2181.49 -2.71034 0.159071 0
M  V30 23125 C 2179.94 -2.3546 2.72189 0
M  V30 23126 C 2179.55 -1.77003 4.11551 0
M  V30 23127 C 2181.3 -3.11865 2.87993 0
M  V30 23128 C 2179.2 -2.80503 5.20646 0
M  V30 23129 H 2178.13 -0.488142 0.574659 0
M  V30 23130 H 2180.78 -0.577531 1.74175 0
M  V30 23131 H 2179.17 -3.10486 2.45794 0
M  V30 23132 H 2180.34 -1.08268 4.479 0
M  V30 23133 H 2178.65 -1.13141 4.00734 0
M  V30 23134 H 2181.25 -3.89178 3.66666 0
M  V30 23135 H 2181.59 -3.668 1.96884 0
M  V30 23136 H 2182.13 -2.43952 3.14217 0
M  V30 23137 H 2178.87 -2.30408 6.13671 0
M  V30 23138 H 2178.39 -3.47612 4.888 0
M  V30 23139 H 2180.07 -3.43772 5.48115 0
M  V30 23140 N 2180.2 -1.36208 -0.792797 0
M  V30 23141 C 2181.43 -1.33203 -1.57926 0
M  V30 23142 C 2181.84 0.0894968 -1.88988 0
M  V30 23143 O 2181.18 1.05585 -1.50325 0
M  V30 23144 C 2181.24 -2.08496 -2.92865 0
M  V30 23145 C 2180.9 -3.57605 -2.84548 0
M  V30 23146 C 2181.9 -4.51922 -2.57026 0
M  V30 23147 C 2179.59 -4.00445 -3.03232 0
M  V30 23148 C 2181.58 -5.87055 -2.48284 0
M  V30 23149 C 2179.27 -5.35669 -2.94111 0
M  V30 23150 C 2180.27 -6.28787 -2.66675 0
M  V30 23151 O 2179.95 -7.61529 -2.57543 0
M  V30 23152 H 2179.69 -0.458647 -0.496608 0
M  V30 23153 H 2182.24 -1.79849 -0.992152 0
M  V30 23154 H 2180.47 -1.56508 -3.53613 0
M  V30 23155 H 2182.16 -1.98392 -3.54112 0
M  V30 23156 H 2182.92 -4.20139 -2.42297 0
M  V30 23157 H 2178.8 -3.28341 -3.23594 0
M  V30 23158 H 2182.35 -6.59706 -2.26789 0
M  V30 23159 H 2178.24 -5.67061 -3.08402 0
M  V30 23160 H 2179.01 -7.71613 -2.73049 0
M  V30 23161 N 2181.68 1.01656 -1.20431 0
M  V30 23162 C 2182.92 1.75515 -1.016 0
M  V30 23163 C 2183.25 1.88896 0.450791 0
M  V30 23164 O 2182.53 1.4148 1.33468 0
M  V30 23165 C 2182.81 3.17433 -1.70024 0
M  V30 23166 C 2182.67 3.11847 -3.24147 0
M  V30 23167 C 2183.98 4.16105 -1.43334 0
M  V30 23168 H 2181.1 0.637102 -0.370501 0
M  V30 23169 H 2183.75 1.18591 -1.48446 0
M  V30 23170 H 2181.9 3.66035 -1.30195 0
M  V30 23171 H 2183.57 2.71049 -3.7327 0
M  V30 23172 H 2181.81 2.49242 -3.55051 0
M  V30 23173 H 2182.48 4.12169 -3.6718 0
M  V30 23174 H 2184.96 3.76159 -1.77887 0
M  V30 23175 H 2183.83 5.13571 -1.93741 0
M  V30 23176 H 2184.09 4.40624 -0.360952 0
M  V30 23177 N 2183.15 1.01021 1.20965 0
M  V30 23178 C 2184.4 0.691231 1.89486 0
M  V30 23179 C 2184.72 -0.781846 1.79295 0
M  V30 23180 O 2185.92 -1.21312 2.4289 0
M  V30 23181 C 2184.38 1.18593 3.39799 0
M  V30 23182 C 2183.99 2.68546 3.5859 0
M  V30 23183 C 2185.73 0.942088 4.13914 0
M  V30 23184 C 2183.64 3.1153 5.02696 0
M  V30 23185 H 2182.57 0.254853 0.709624 0
M  V30 23186 H 2185.22 1.22205 1.36887 0
M  V30 23187 H 2183.6 0.583129 3.91683 0
M  V30 23188 H 2184.77 3.3432 3.17122 0
M  V30 23189 H 2183.09 2.91002 2.97837 0
M  V30 23190 H 2185.69 1.23873 5.20153 0
M  V30 23191 H 2186.03 -0.121574 4.16122 0
M  V30 23192 H 2186.56 1.50794 3.68111 0
M  V30 23193 H 2183.3 4.17145 5.05638 0
M  V30 23194 H 2182.82 2.50471 5.44999 0
M  V30 23195 H 2184.5 3.03805 5.71237 0
M  V30 23196 N 2184.63 -1.36623 0.78561 0
M  V30 23197 C 2185.86 -2.03305 0.367534 0
M  V30 23198 C 2186.27 -1.59374 -1.01963 0
M  V30 23199 O 2185.61 -0.77687 -1.66464 0
M  V30 23200 C 2185.67 -3.57815 0.347627 0
M  V30 23201 C 2185.34 -4.24932 1.68172 0
M  V30 23202 C 2186.34 -4.48087 2.63656 0
M  V30 23203 C 2184.02 -4.62483 1.95997 0
M  V30 23204 C 2186.01 -5.07868 3.85161 0
M  V30 23205 C 2183.7 -5.21982 3.17771 0
M  V30 23206 C 2184.7 -5.44613 4.12172 0
M  V30 23207 O 2184.39 -6.02864 5.31799 0
M  V30 23208 H 2184.12 -0.659134 0.150061 0
M  V30 23209 H 2186.67 -1.75659 1.06456 0
M  V30 23210 H 2184.9 -3.84564 -0.405872 0
M  V30 23211 H 2186.59 -4.05875 -0.0452626 0
M  V30 23212 H 2187.36 -4.19476 2.43444 0
M  V30 23213 H 2183.24 -4.44194 1.2334 0
M  V30 23214 H 2186.78 -5.25448 4.58857 0
M  V30 23215 H 2182.68 -5.50018 3.37861 0
M  V30 23216 H 2183.45 -6.21333 5.32811 0
M  V30 23217 N 2186.11 -0.537304 -1.48158 0
M  V30 23218 C 2187.06 0.221446 -2.29735 0
M  V30 23219 C 2188.03 0.927005 -1.37825 0
M  V30 23220 O 2189.21 0.926601 -1.6679 0
M  V30 23221 C 2186.35 1.25789 -3.21358 0
M  V30 23222 C 2185.46 0.560427 -4.28349 0
M  V30 23223 C 2184.6 1.58043 -5.07145 0
M  V30 23224 C 2183.64 0.86684 -6.05931 0
M  V30 23225 N 2182.78 1.83273 -6.77758 0
M  V30 23226 H 2187.62 -0.480372 -2.94103 0
M  V30 23227 H 2185.15 -0.248729 -1.44982 0
M  V30 23228 H 2187.11 1.87117 -3.72885 0
M  V30 23229 H 2185.74 1.92799 -2.58898 0
M  V30 23230 H 2184.79 -0.166961 -3.80033 0
M  V30 23231 H 2186.1 0.000474239 -4.988 0
M  V30 23232 H 2185.26 2.2678 -5.62722 0
M  V30 23233 H 2184 2.17429 -4.3655 0
M  V30 23234 H 2183 0.165438 -5.49551 0
M  V30 23235 H 2184.23 0.278998 -6.78527 0
M  V30 23236 H 2182.17 2.41553 -6.09908 0
M  V30 23237 H 2182.09 1.32441 -7.44309 0
M  V30 23238 H 2183.36 2.51186 -7.3792 0
M  V30 23239 N 2187.59 1.55221 -0.272782 0
M  V30 23240 C 2188.52 2.25408 0.609392 0
M  V30 23241 C 2189.5 1.2434 1.16076 0
M  V30 23242 O 2190.68 1.53054 1.19533 0
M  V30 23243 C 2187.81 2.97338 1.79464 0
M  V30 23244 C 2186.77 4.05315 1.37491 0
M  V30 23245 C 2186.09 4.64808 2.64307 0
M  V30 23246 C 2187.39 5.19636 0.526828 0
M  V30 23247 H 2189.09 2.9939 0.0240678 0
M  V30 23248 H 2186.63 1.43996 0.0101357 0
M  V30 23249 H 2188.59 3.45149 2.41765 0
M  V30 23250 H 2187.31 2.20887 2.40576 0
M  V30 23251 H 2185.97 3.58312 0.775106 0
M  V30 23252 H 2185.62 3.85027 3.23672 0
M  V30 23253 H 2185.32 5.37713 2.36935 0
M  V30 23254 H 2186.84 5.15366 3.2746 0
M  V30 23255 H 2188.26 5.63513 1.05478 0
M  V30 23256 H 2186.65 5.9909 0.348095 0
M  V30 23257 H 2187.72 4.82761 -0.454948 0
M  V30 23258 N 2189.07 2.77022e-05 1.576 0
M  V30 23259 C 2190.31 -0.684815 1.90569 0
M  V30 23260 C 2190.64 -1.73777 0.873597 0
M  V30 23261 O 2189.9 -1.95322 -0.12162 0
M  V30 23262 C 2190.2 -1.36534 3.30292 0
M  V30 23263 C 2189.86 -0.445583 4.48693 0
M  V30 23264 C 2188.52 -0.192344 4.80815 0
M  V30 23265 C 2190.88 0.187683 5.20862 0
M  V30 23266 C 2188.2 0.702454 5.8248 0
M  V30 23267 C 2190.56 1.07036 6.23479 0
M  V30 23268 C 2189.22 1.33277 6.54059 0
M  V30 23269 H 2188.49 -0.250591 0.697341 0
M  V30 23270 H 2191.14 0.0555609 1.91419 0
M  V30 23271 H 2189.44 -2.17977 3.25566 0
M  V30 23272 H 2191.14 -1.90129 3.53061 0
M  V30 23273 H 2187.73 -0.653128 4.23594 0
M  V30 23274 H 2191.91 0.00505024 4.963 0
M  V30 23275 H 2187.17 0.913771 6.04533 0
M  V30 23276 H 2191.34 1.56741 6.78532 0
M  V30 23277 H 2188.97 2.02782 7.32655 0
M  V30 23278 N 2190.54 -1.55222 -0.272728 0
M  V30 23279 C 2191.78 -1.77592 -1.01194 0
M  V30 23280 C 2192.15 -0.565326 -1.83489 0
M  V30 23281 O 2193.35 -0.667288 -2.60386 0
M  V30 23282 C 2191.62 -3.04519 -1.87091 0
M  V30 23283 S 2193.18 -3.48009 -2.67273 0
M  V30 23284 H 2190 -0.623986 -0.340825 0
M  V30 23285 H 2192.6 -1.9345 -0.28234 0
M  V30 23286 H 2191.3 -3.90722 -1.25558 0
M  V30 23287 H 2190.83 -2.91328 -2.64371 0
M  V30 23288 H 2192.85 -3.07304 -3.89588 0
M  V30 23289 N 2192.02 0.537252 -1.4816 0
M  V30 23290 C 2193.25 1.31838 -1.59456 0
M  V30 23291 C 2193.67 1.87109 -0.252098 0
M  V30 23292 O 2193.02 1.66033 0.757592 0
M  V30 23293 C 2193.07 2.47434 -2.6355 0
M  V30 23294 O 2192.79 1.94443 -3.92586 0
M  V30 23295 C 2194.3 3.39361 -2.85218 0
M  V30 23296 H 2191.52 0.401186 -0.537858 0
M  V30 23297 H 2194.06 0.648857 -1.93933 0
M  V30 23298 H 2192.21 3.10286 -2.31952 0
M  V30 23299 H 2192.63 2.70056 -4.49633 0
M  V30 23300 H 2194.1 4.16838 -3.6187 0
M  V30 23301 H 2194.58 3.94144 -1.93772 0
M  V30 23302 H 2195.19 2.82308 -3.18091 0
M  V30 23303 N 2193.5 1.36626 0.785562 0
M  V30 23304 C 2194.43 1.33953 1.91256 0
M  V30 23305 C 2195.41 0.210355 1.68794 0
M  V30 23306 O 2196.6 0.408594 1.89853 0
M  V30 23307 C 2193.73 1.13191 3.28337 0
M  V30 23308 C 2192.68 2.22974 3.65331 0
M  V30 23309 C 2192.01 1.87351 5.00803 0
M  V30 23310 C 2193.31 3.65082 3.73514 0
M  V30 23311 H 2195 2.28257 1.93751 0
M  V30 23312 H 2192.55 1.09876 0.930768 0
M  V30 23313 H 2194.5 1.09955 4.06802 0
M  V30 23314 H 2193.22 0.15339 3.2624 0
M  V30 23315 H 2191.88 2.25342 2.89165 0
M  V30 23316 H 2191.53 0.880632 4.95231 0
M  V30 23317 H 2191.23 2.60855 5.26525 0
M  V30 23318 H 2192.75 1.85677 5.81684 0
M  V30 23319 H 2194.17 3.64919 4.42162 0
M  V30 23320 H 2192.57 4.37523 4.10723 0
M  V30 23321 H 2193.64 3.99708 2.7452 0
M  V30 23322 N 2194.98 -1.01016 1.20969 0
M  V30 23323 C 2195.91 -2.09833 0.922096 0
M  V30 23324 C 2196.92 -1.62536 -0.092682 0
M  V30 23325 O 2198.11 -1.77957 0.139159 0
M  V30 23326 C 2195.21 -3.3696 0.362064 0
M  V30 23327 C 2194.39 -4.13366 1.42993 0
M  V30 23328 C 2193.44 -5.18788 0.880067 0
M  V30 23329 O 2192.47 -5.4734 1.56229 0
M  V30 23330 N 2193.67 -5.79686 -0.307294 0
M  V30 23331 H 2196.44 -2.3509 1.85884 0
M  V30 23332 H 2194 -1.17458 1.11424 0
M  V30 23333 H 2195.99 -4.04695 -0.0200762 0
M  V30 23334 H 2194.56 -3.08902 -0.479382 0
M  V30 23335 H 2193.78 -3.40509 1.98614 0
M  V30 23336 H 2195.07 -4.61192 2.14893 0
M  V30 23337 H 2194.47 -5.58834 -0.878698 0
M  V30 23338 H 2193.02 -6.48738 -0.631001 0
M  V30 23339 N 2196.46 -1.01661 -1.20428 0
M  V30 23340 C 2197.7 -0.704556 -1.89421 0
M  V30 23341 C 2198.03 0.768165 -1.79232 0
M  V30 23342 O 2197.3 1.55252 -1.19473 0
M  V30 23343 H 2195.88 -0.257615 -0.701173 0
M  V30 23344 H 2198.54 -1.28821 -1.46257 0
M  V30 23345 H 2197.63 -0.987968 -2.9605 0
M  V30 23346 N 2197.93 1.36205 -0.792844 0
M  V30 23347 C 2199.35 1.81692 -0.429545 0
M  V30 23348 C 2199.7 1.65934 1.04692 0
M  V30 23349 O 2198.82 1.18221 1.81253 0
M  V30 23350 C 2199.42 3.29866 -0.772889 0
M  V30 23351 C 2197.98 3.73549 -0.462373 0
M  V30 23352 C 2197.12 2.58419 -1.00574 0
M  V30 23353 H 2200.07 1.24378 -0.985694 0
M  V30 23354 H 2200.09 3.80444 -0.0652596 0
M  V30 23355 H 2199.61 3.41303 -1.84753 0
M  V30 23356 H 2197.71 3.6767 0.604094 0
M  V30 23357 H 2197.82 4.68857 -0.985382 0
M  V30 23358 H 2196.18 2.51065 -0.428778 0
M  V30 23359 H 2196.97 2.72639 -2.08621 0
M  V30 23360 N 2199.41 0.545154 1.47871 0
M  V30 23361 C 2200.64 0.0210898 2.06589 0
M  V30 23362 C 2201.05 -1.27266 1.4 0
M  V30 23363 O 2200.39 -1.77142 0.486452 0
M  V30 23364 C 2200.46 -0.25787 3.58574 0
M  V30 23365 C 2200.12 0.944652 4.4713 0
M  V30 23366 C 2201.12 1.84707 4.85983 0
M  V30 23367 C 2198.8 1.15593 4.88819 0
M  V30 23368 C 2200.8 2.94456 5.65309 0
M  V30 23369 C 2198.48 2.25652 5.67912 0
M  V30 23370 C 2199.48 3.14915 6.06067 0
M  V30 23371 O 2199.17 4.23069 6.8357 0
M  V30 23372 H 2198.9 0.0373018 0.67497 0
M  V30 23373 H 2201.45 0.754632 1.91035 0
M  V30 23374 H 2199.68 -1.04557 3.72296 0
M  V30 23375 H 2201.37 -0.72585 3.99357 0
M  V30 23376 H 2202.14 1.69585 4.54385 0
M  V30 23377 H 2198.02 0.47036 4.58594 0
M  V30 23378 H 2201.56 3.64156 5.9501 0
M  V30 23379 H 2197.46 2.40752 5.98923 0
M  V30 23380 H 2198.23 4.20966 7.01947 0
M  V30 23381 N 2200.89 -1.55074 0.28101 0
M  V30 23382 C 2202.12 -2.04592 -0.340118 0
M  V30 23383 C 2202.54 -1.15782 -1.48244 0
M  V30 23384 O 2201.9 -0.157642 -1.80613 0
M  V30 23385 C 2201.95 -3.51772 -0.793042 0
M  V30 23386 O 2201.05 -3.66037 -1.89975 0
M  V30 23387 H 2200.39 -0.660361 -0.0694173 0
M  V30 23388 H 2202.92 -2.00305 0.417028 0
M  V30 23389 H 2202.93 -3.93247 -1.08722 0
M  V30 23390 H 2201.61 -4.15878 0.0426894 0
M  V30 23391 H 2200.18 -3.36465 -1.60765 0
M  V30 23392 N 2202.37 -0.00838561 -1.57598 0
M  V30 23393 C 2203.62 0.673366 -1.90552 0
M  V30 23394 C 2203.94 1.73845 -0.883332 0
M  V30 23395 O 2203.21 1.95744 0.0781097 0
M  V30 23396 H 2201.79 0.251704 -0.703316 0
M  V30 23397 H 2204.45 -0.0512934 -1.94832 0
M  V30 23398 H 2203.55 1.1393 -2.90562 0
M  V30 23399 N 2203.85 1.55365 0.264492 0
M  V30 23400 C 2204.76 1.91936 1.34899 0
M  V30 23401 C 2205.77 0.81762 1.53594 0
M  V30 23402 O 2206.95 1.11745 1.67556 0
M  V30 23403 C 2204.01 2.19126 2.68672 0
M  V30 23404 C 2203.08 3.42634 2.58651 0
M  V30 23405 C 2202.31 3.68517 3.86045 0
M  V30 23406 O 2202.53 2.96765 4.87121 0
M  V30 23407 O 2201.47 4.62051 3.85736 0
M  V30 23408 H 2205.29 2.84272 1.06878 0
M  V30 23409 H 2202.88 1.4202 0.46375 0
M  V30 23410 H 2204.76 2.38001 3.47755 0
M  V30 23411 H 2203.43 1.29971 2.96461 0
M  V30 23412 H 2202.34 3.29086 1.77914 0
M  V30 23413 H 2203.67 4.32035 2.3581 0
M  V30 23414 N 2205.33 -0.529387 1.48443 0
M  V30 23415 C 2206.74 -1.11132 1.50022 0
M  V30 23416 C 2207.09 -1.94329 0.270344 0
M  V30 23417 O 2206.21 -2.07254 -0.62247 0
M  V30 23418 C 2206.81 -2.02212 2.71838 0
M  V30 23419 C 2205.37 -2.55622 2.76287 0
M  V30 23420 C 2204.51 -1.32596 2.43544 0
M  V30 23421 H 2207.46 -0.314614 1.5555 0
M  V30 23422 H 2207.49 -2.86506 2.50389 0
M  V30 23423 H 2207 -1.41633 3.61333 0
M  V30 23424 H 2205.1 -3.19921 1.91001 0
M  V30 23425 H 2205.21 -2.94715 3.7773 0
M  V30 23426 H 2203.58 -1.64193 1.94712 0
M  V30 23427 H 2204.36 -0.737675 3.35281 0
M  V30 23428 N 2206.8 -1.37041 -0.778305 0
M  V30 23429 C 2207.75 -1.32272 -1.89137 0
M  V30 23430 C 2208.72 -0.189416 -1.65016 0
M  V30 23431 O 2209.91 -0.377726 -1.87024 0
M  V30 23432 C 2207.05 -1.129 -3.2611 0
M  V30 23433 C 2206.16 -2.35403 -3.62229 0
M  V30 23434 C 2205.29 -2.08954 -4.88376 0
M  V30 23435 C 2204.33 -3.27359 -5.17206 0
M  V30 23436 N 2203.47 -3.00504 -6.34541 0
M  V30 23437 H 2208.31 -2.2744 -1.92548 0
M  V30 23438 H 2205.85 -1.13027 -0.941453 0
M  V30 23439 H 2207.8 -0.996907 -4.05114 0
M  V30 23440 H 2206.43 -0.213815 -3.22091 0
M  V30 23441 H 2205.49 -2.59375 -2.7826 0
M  V30 23442 H 2206.8 -3.23728 -3.79476 0
M  V30 23443 H 2205.95 -1.92739 -5.75271 0
M  V30 23444 H 2204.69 -1.17957 -4.7322 0
M  V30 23445 H 2203.7 -3.4412 -4.2879 0
M  V30 23446 H 2204.92 -4.19198 -5.34275 0
M  V30 23447 H 2202.87 -2.12129 -6.20755 0
M  V30 23448 H 2202.78 -3.8237 -6.52173 0
M  V30 23449 H 2204.05 -2.87891 -7.24389 0
M  V30 23450 N 2208.28 1.00373 -1.21503 0
M  V30 23451 C 2209.69 1.55619 -1.03149 0
M  V30 23452 C 2210.04 1.91904 0.408341 0
M  V30 23453 O 2209.17 1.73618 1.29174 0
M  V30 23454 C 2209.76 2.82771 -1.86617 0
M  V30 23455 C 2208.32 3.34498 -1.72591 0
M  V30 23456 C 2207.47 2.0768 -1.83751 0
M  V30 23457 H 2210.42 0.826057 -1.35506 0
M  V30 23458 H 2210.44 3.54703 -1.37716 0
M  V30 23459 H 2209.95 2.56331 -2.91403 0
M  V30 23460 H 2208.05 3.65871 -0.704941 0
M  V30 23461 H 2208.17 4.05833 -2.5463 0
M  V30 23462 H 2206.53 2.20736 -1.27073 0
M  V30 23463 H 2207.31 1.8365 -2.90048 0
M  V30 23464 N 2209.76 1.02298 1.19887 0
M  V30 23465 C 2210.71 0.598691 2.229 0
M  V30 23466 C 2211.68 -0.384492 1.61589 0
M  V30 23467 O 2212.86 -0.282489 1.88697 0
M  V30 23468 C 2210 -0.0503869 3.45063 0
M  V30 23469 C 2209.11 0.978127 4.20781 0
M  V30 23470 C 2208.25 0.299432 5.30355 0
M  V30 23471 C 2207.29 1.31426 5.97824 0
M  V30 23472 N 2206.43 0.66179 6.98974 0
M  V30 23473 H 2211.27 1.48173 2.58551 0
M  V30 23474 H 2208.8 0.741606 1.27038 0
M  V30 23475 H 2210.76 -0.443898 4.14832 0
M  V30 23476 H 2209.39 -0.897042 3.10085 0
M  V30 23477 H 2208.44 1.48975 3.50015 0
M  V30 23478 H 2209.75 1.74967 4.67106 0
M  V30 23479 H 2208.91 -0.14924 6.06516 0
M  V30 23480 H 2207.65 -0.50436 4.85085 0
M  V30 23481 H 2206.65 1.77326 5.20419 0
M  V30 23482 H 2207.88 2.11945 6.45179 0
M  V30 23483 H 2205.82 -0.122017 6.55887 0
M  V30 23484 H 2205.74 1.3713 7.43459 0
M  V30 23485 H 2207.01 0.236922 7.7914 0
M  V30 23486 N 2211.24 -1.35782 0.800057 0
M  V30 23487 C 2212.47 -2.03198 0.389642 0
M  V30 23488 C 2212.88 -1.60307 -0.997347 0
M  V30 23489 O 2212.24 -0.79751 -1.64152 0
M  V30 23490 C 2212.29 -3.58613 0.455918 0
M  V30 23491 O 2212.01 -3.99943 1.78822 0
M  V30 23492 C 2213.51 -4.43284 0.0374812 0
M  V30 23493 H 2210.73 -0.651855 0.159143 0
M  V30 23494 H 2213.27 -1.7354 1.08186 0
M  V30 23495 H 2211.43 -3.86944 -0.187989 0
M  V30 23496 H 2211.84 -4.9457 1.74645 0
M  V30 23497 H 2213.32 -5.51835 0.134979 0
M  V30 23498 H 2213.79 -4.27277 -1.01643 0
M  V30 23499 H 2214.4 -4.20237 0.654289 0
M  V30 23500 N 2212.72 -0.552988 -1.4758 0
M  V30 23501 C 2213.66 0.197067 -2.29957 0
M  V30 23502 C 2214.63 0.912335 -1.38801 0
M  V30 23503 O 2215.82 0.908859 -1.67763 0
M  V30 23504 C 2212.96 1.22373 -3.22674 0
M  V30 23505 C 2212.07 0.514963 -4.2892 0
M  V30 23506 C 2211.21 1.52655 -5.08792 0
M  V30 23507 C 2210.24 0.802524 -6.06816 0
M  V30 23508 N 2209.38 1.76074 -6.79663 0
M  V30 23509 H 2214.22 -0.511538 -2.93577 0
M  V30 23510 H 2211.76 -0.264093 -1.4471 0
M  V30 23511 H 2213.72 1.83152 -3.74848 0
M  V30 23512 H 2212.35 1.90042 -2.60929 0
M  V30 23513 H 2211.4 -0.207259 -3.79835 0
M  V30 23514 H 2212.71 -0.0524302 -4.98772 0
M  V30 23515 H 2211.86 2.20799 -5.65095 0
M  V30 23516 H 2210.6 2.12786 -4.38832 0
M  V30 23517 H 2209.61 0.107141 -5.49696 0
M  V30 23518 H 2210.83 0.207016 -6.78784 0
M  V30 23519 H 2208.78 2.35071 -6.12436 0
M  V30 23520 H 2208.7 1.24539 -7.45672 0
M  V30 23521 H 2209.96 2.43346 -7.40542 0
M  V30 23522 N 2214.19 1.54923 -0.28923 0
M  V30 23523 C 2215.44 1.99078 0.324196 0
M  V30 23524 C 2215.76 1.1812 1.55907 0
M  V30 23525 O 2216.96 1.52485 2.24635 0
M  V30 23526 C 2215.42 3.54376 0.628147 0
M  V30 23527 C 2215.03 4.44128 -0.587725 0
M  V30 23528 C 2216.77 4.07085 1.20342 0
M  V30 23529 C 2214.68 5.90839 -0.257578 0
M  V30 23530 H 2213.61 0.743581 0.124911 0
M  V30 23531 H 2216.26 1.79174 -0.396095 0
M  V30 23532 H 2214.64 3.70134 1.40772 0
M  V30 23533 H 2215.81 4.40142 -1.36426 0
M  V30 23534 H 2214.13 4.02129 -1.08081 0
M  V30 23535 H 2216.73 5.14254 1.46447 0
M  V30 23536 H 2217.07 3.56972 2.14189 0
M  V30 23537 H 2217.6 3.94822 0.48582 0
M  V30 23538 H 2214.34 6.45077 -1.1643 0
M  V30 23539 H 2213.86 5.97861 0.481912 0
M  V30 23540 H 2215.54 6.46837 0.145124 0
M  V30 23541 N 2215.67 0.0167433 1.57591 0
M  V30 23542 C 2217.08 -0.523803 1.79202 0
M  V30 23543 C 2217.43 -1.72982 0.925826 0
M  V30 23544 O 2216.56 -2.15992 0.13283 0
M  V30 23545 C 2217.15 -0.957034 3.25002 0
M  V30 23546 C 2215.71 -1.44277 3.47651 0
M  V30 23547 C 2214.86 -0.401709 2.74375 0
M  V30 23548 H 2217.81 0.242844 1.56831 0
M  V30 23549 H 2217.83 -1.82213 3.34034 0
M  V30 23550 H 2217.34 -0.0790733 3.88019 0
M  V30 23551 H 2215.44 -2.34107 2.8987 0
M  V30 23552 H 2215.56 -1.45869 4.56354 0
M  V30 23553 H 2213.92 -0.867079 2.39487 0
M  V30 23554 H 2214.7 0.467573 3.40101 0
M  V30 23555 N 2217.15 -1.55503 -0.256249 0
M  V30 23556 C 2218.06 -1.92649 -1.33879 0
M  V30 23557 C 2219.08 -0.825754 -1.53158 0
M  V30 23558 O 2220.25 -1.12632 -1.66961 0
M  V30 23559 C 2217.32 -2.20548 -2.67506 0
M  V30 23560 C 2216.38 -3.44001 -2.5683 0
M  V30 23561 C 2215.61 -3.70559 -3.84085 0
M  V30 23562 O 2215.83 -2.99344 -4.8554 0
M  V30 23563 O 2214.77 -4.64091 -3.8328 0
M  V30 23564 H 2218.59 -2.84835 -1.05369 0
M  V30 23565 H 2216.18 -1.42264 -0.456212 0
M  V30 23566 H 2218.06 -2.39842 -3.46488 0
M  V30 23567 H 2216.74 -1.31542 -2.95768 0
M  V30 23568 H 2215.64 -3.30024 -1.76167 0
M  V30 23569 H 2216.98 -4.3328 -2.33516 0
M  V30 23570 N 2218.63 0.521507 -1.48721 0
M  V30 23571 C 2220.04 0.850831 -1.3503 0
M  V30 23572 C 2220.24 1.98116 -0.367746 0
M  V30 23573 O 2219.3 2.51642 0.207993 0
M  V30 23574 C 2220.61 1.21036 -2.75265 0
M  V30 23575 C 2222.16 1.31976 -2.83816 0
M  V30 23576 C 2222.64 1.71269 -4.24772 0
M  V30 23577 N 2224.13 1.78356 -4.27485 0
M  V30 23578 C 2224.86 2.10161 -5.33498 0
M  V30 23579 N 2224.36 2.40332 -6.49779 0
M  V30 23580 N 2226.15 2.11239 -5.20898 0
M  V30 23581 H 2218.3 -0.224167 -2.11214 0
M  V30 23582 H 2220.57 -0.0376605 -0.947252 0
M  V30 23583 H 2220.27 0.453354 -3.48766 0
M  V30 23584 H 2220.15 2.15858 -3.0933 0
M  V30 23585 H 2222.53 2.06752 -2.10565 0
M  V30 23586 H 2222.61 0.352552 -2.53359 0
M  V30 23587 H 2222.26 0.9705 -4.98542 0
M  V30 23588 H 2222.19 2.69054 -4.52678 0
M  V30 23589 H 2224.68 1.57282 -3.43614 0
M  V30 23590 H 2224.99 2.6373 -7.26406 0
M  V30 23591 H 2223.34 2.37833 -6.53039 0
M  V30 23592 H 2226.53 1.87131 -4.29068 0
M  V30 23593 H 2226.7 2.35694 -6.03616 0
M  V30 23594 N 2220.11 1.37452 0.771027 0
M  V30 23595 C 2221.52 1.18267 1.07169 0
M  V30 23596 C 2221.72 0.0193224 2.01491 0
M  V30 23597 O 2220.78 -0.640366 2.44245 0
M  V30 23598 C 2222.09 2.50163 1.66849 0
M  V30 23599 C 2223.64 2.56692 1.79104 0
M  V30 23600 C 2224.11 3.88721 2.42198 0
M  V30 23601 N 2225.61 3.90167 2.49648 0
M  V30 23602 C 2226.34 4.89075 2.99321 0
M  V30 23603 N 2225.84 5.9838 3.49161 0
M  V30 23604 N 2227.63 4.76479 2.98202 0
M  V30 23605 H 2219.78 2.11906 0.144759 0
M  V30 23606 H 2222.04 0.939475 0.126847 0
M  V30 23607 H 2221.75 3.35657 1.05011 0
M  V30 23608 H 2221.62 2.67304 2.66136 0
M  V30 23609 H 2224.01 1.71605 2.40074 0
M  V30 23610 H 2224.09 2.43434 0.785714 0
M  V30 23611 H 2223.74 4.74222 1.81867 0
M  V30 23612 H 2223.67 3.99282 3.43338 0
M  V30 23613 H 2226.16 3.11208 2.14378 0
M  V30 23614 H 2226.47 6.69802 3.85468 0
M  V30 23615 H 2224.81 6.02024 3.47264 0
M  V30 23616 H 2228.01 3.90207 2.58565 0
M  V30 23617 H 2228.18 5.53717 3.36603 0
M  V30 23618 N 2221.58 -0.997276 1.22033 0
M  V30 23619 C 2222.83 -1.73876 1.04379 0
M  V30 23620 C 2223.16 -1.89589 -0.420682 0
M  V30 23621 O 2222.44 -1.43586 -1.312 0
M  V30 23622 C 2222.72 -3.14688 1.75052 0
M  V30 23623 C 2222.57 -3.06651 3.29067 0
M  V30 23624 C 2223.89 -4.13772 1.49936 0
M  V30 23625 H 2221.01 -0.631127 0.380589 0
M  V30 23626 H 2223.65 -1.16214 1.50314 0
M  V30 23627 H 2221.8 -3.63917 1.36002 0
M  V30 23628 H 2223.48 -2.65076 3.77534 0
M  V30 23629 H 2221.72 -2.43562 3.58971 0
M  V30 23630 H 2222.39 -4.06275 3.73691 0
M  V30 23631 H 2224.87 -3.73281 1.83849 0
M  V30 23632 H 2223.74 -5.10424 2.01887 0
M  V30 23633 H 2224 -4.39994 0.431006 0
M  V30 23634 N 2223.06 -1.02932 -1.19343 0
M  V30 23635 C 2224.31 -0.727117 -1.89317 0
M  V30 23636 C 2224.64 0.742451 -1.79447 0
M  V30 23637 O 2223.92 1.5407 -1.18712 0
M  V30 23638 C 2224.2 -1.17948 -3.40236 0
M  V30 23639 C 2224.05 -2.7103 -3.58974 0
M  V30 23640 C 2225.37 -0.760624 -4.33477 0
M  V30 23641 H 2222.49 -0.265619 -0.687471 0
M  V30 23642 H 2225.13 -1.27932 -1.40475 0
M  V30 23643 H 2223.28 -0.709675 -3.81963 0
M  V30 23644 H 2224.95 -3.25961 -3.26415 0
M  V30 23645 H 2223.2 -3.11401 -3.02013 0
M  V30 23646 H 2223.87 -2.97738 -4.64818 0
M  V30 23647 H 2226.34 -1.16471 -3.99467 0
M  V30 23648 H 2225.22 -1.10503 -5.37662 0
M  V30 23649 H 2225.48 0.336986 -4.40814 0
M  V30 23650 N 2224.54 1.35356 -0.807246 0
M  V30 23651 C 2225.77 2.02988 -0.400413 0
M  V30 23652 C 2226.18 1.60834 0.988831 0
M  V30 23653 O 2225.54 0.806204 1.63727 0
M  V30 23654 C 2225.59 3.58367 -0.47493 0
M  V30 23655 O 2225.31 3.98989 -1.8094 0
M  V30 23656 C 2226.81 4.43258 -0.0609891 0
M  V30 23657 H 2224.03 0.651001 -0.162598 0
M  V30 23658 H 2226.58 1.72963 -1.09105 0
M  V30 23659 H 2224.73 3.87038 0.167466 0
M  V30 23660 H 2225.15 4.93637 -1.77265 0
M  V30 23661 H 2226.62 5.51756 -0.164242 0
M  V30 23662 H 2227.1 4.2781 0.993756 0
M  V30 23663 H 2227.7 4.19884 -0.676566 0
M  V30 23664 N 2226.02 0.560807 1.47284 0
M  V30 23665 C 2226.95 -0.222398 2.28118 0
M  V30 23666 C 2227.96 -0.876032 1.37221 0
M  V30 23667 O 2229.15 -0.749279 1.62013 0
M  V30 23668 C 2226.25 -1.33279 3.11592 0
M  V30 23669 C 2225.43 -0.775265 4.30475 0
M  V30 23670 C 2224.48 -1.7706 4.95516 0
M  V30 23671 O 2223.51 -1.31529 5.53795 0
M  V30 23672 N 2224.71 -3.10409 4.90537 0
M  V30 23673 H 2227.48 0.47101 2.95976 0
M  V30 23674 H 2225.04 0.397118 1.56954 0
M  V30 23675 H 2227.03 -1.99746 3.51971 0
M  V30 23676 H 2225.6 -1.92938 2.45954 0
M  V30 23677 H 2224.82 0.0662805 3.94144 0
M  V30 23678 H 2226.11 -0.382182 5.07363 0
M  V30 23679 H 2225.51 -3.50042 4.44395 0
M  V30 23680 H 2224.06 -3.72425 5.34923 0
M  V30 23681 N 2227.5 -1.54768 0.297442 0
M  V30 23682 C 2228.74 -1.99673 -0.31226 0
M  V30 23683 C 2229.07 -1.18735 -1.54684 0
M  V30 23684 O 2228.34 -0.282416 -1.93854 0
M  V30 23685 H 2226.92 -0.737562 -0.118368 0
M  V30 23686 H 2229.58 -1.90583 0.407949 0
M  V30 23687 H 2228.67 -3.06535 -0.586759 0
M  V30 23688 N 2228.97 -0.0251005 -1.5758 0
M  V30 23689 C 2230.39 0.514292 -1.79477 0
M  V30 23690 C 2230.74 1.72489 -0.934987 0
M  V30 23691 O 2229.86 2.15918 -0.144283 0
M  V30 23692 C 2230.46 0.939785 -3.25505 0
M  V30 23693 C 2229.02 1.42432 -3.48411 0
M  V30 23694 C 2228.16 0.387152 -2.74584 0
M  V30 23695 H 2231.11 -0.251157 -1.567 0
M  V30 23696 H 2231.13 1.80439 -3.34996 0
M  V30 23697 H 2230.65 0.0584946 -3.88056 0
M  V30 23698 H 2228.75 2.32567 -2.91107 0
M  V30 23699 H 2228.86 1.43447 -4.57121 0
M  V30 23700 H 2227.22 0.854367 -2.39943 0
M  V30 23701 H 2228.01 -0.485603 -3.39848 0
M  V30 23702 N 2230.45 1.55637 0.247999 0
M  V30 23703 C 2231.36 1.93356 1.32855 0
M  V30 23704 C 2232.38 0.833865 1.52718 0
M  V30 23705 O 2233.55 1.13516 1.66361 0
M  V30 23706 C 2230.62 2.21963 2.66333 0
M  V30 23707 C 2229.68 3.45358 2.55002 0
M  V30 23708 C 2228.91 3.72591 3.82115 0
M  V30 23709 O 2229.14 3.01915 4.83946 0
M  V30 23710 O 2228.07 4.66117 3.80813 0
M  V30 23711 H 2231.9 2.8539 1.03857 0
M  V30 23712 H 2229.48 1.42504 0.448661 0
M  V30 23713 H 2231.36 2.41676 3.45211 0
M  V30 23714 H 2230.04 1.33108 2.95066 0
M  V30 23715 H 2228.95 3.30954 1.74414 0
M  V30 23716 H 2230.28 4.34512 2.31215 0
M  V30 23717 N 2231.93 -0.513613 1.48996 0
M  V30 23718 C 2232.84 -1.64314 1.67446 0
M  V30 23719 C 2233.86 -1.64845 0.556976 0
M  V30 23720 O 2235.03 -1.83497 0.830114 0
M  V30 23721 C 2232.1 -3.00729 1.7252 0
M  V30 23722 C 2231.16 -3.10925 2.96014 0
M  V30 23723 C 2230.39 -4.40832 3.00837 0
M  V30 23724 O 2230.62 -5.28895 2.13604 0
M  V30 23725 O 2229.55 -4.55737 3.93176 0
M  V30 23726 H 2233.38 -1.51682 2.63109 0
M  V30 23727 H 2230.96 -0.688519 1.32589 0
M  V30 23728 H 2232.84 -3.81828 1.78284 0
M  V30 23729 H 2231.52 -3.1365 0.800333 0
M  V30 23730 H 2230.42 -2.2906 2.95774 0
M  V30 23731 H 2231.76 -3.02926 3.87939 0
M  V30 23732 N 2233.41 -1.37859 -0.763727 0
M  V30 23733 C 2234.32 -1.36481 -1.90814 0
M  V30 23734 C 2235.34 -0.263278 -1.71997 0
M  V30 23735 O 2236.51 -0.500013 -1.95094 0
M  V30 23736 C 2233.58 -1.1787 -3.26048 0
M  V30 23737 C 2232.64 -2.37736 -3.57463 0
M  V30 23738 C 2231.87 -2.20003 -4.86245 0
M  V30 23739 O 2232.09 -1.18846 -5.57882 0
M  V30 23740 O 2231.03 -3.0837 -5.16906 0
M  V30 23741 H 2234.85 -2.32887 -1.94929 0
M  V30 23742 H 2232.44 -1.18672 -0.907598 0
M  V30 23743 H 2234.32 -1.09511 -4.06922 0
M  V30 23744 H 2233 -0.245429 -3.22768 0
M  V30 23745 H 2231.9 -2.51668 -2.76792 0
M  V30 23746 H 2233.24 -3.29658 -3.65494 0
M  V30 23747 N 2234.89 0.990791 -1.22561 0
M  V30 23748 C 2236.13 1.73064 -1.05144 0
M  V30 23749 C 2236.46 1.90061 0.413157 0
M  V30 23750 O 2235.72 1.44247 1.32254 0
M  V30 23751 C 2236.02 3.13828 -1.71017 0
M  V30 23752 C 2235.68 3.16739 -3.20916 0
M  V30 23753 C 2234.34 3.17241 -3.61817 0
M  V30 23754 C 2236.7 3.12864 -4.16852 0
M  V30 23755 C 2234.02 3.11571 -4.97132 0
M  V30 23756 C 2236.38 3.08737 -5.52145 0
M  V30 23757 C 2235.04 3.07555 -5.92424 0
M  V30 23758 H 2234.31 0.633284 -0.384749 0
M  V30 23759 H 2236.96 1.16022 -1.52352 0
M  V30 23760 H 2235.26 3.74191 -1.1614 0
M  V30 23761 H 2236.96 3.6982 -1.55029 0
M  V30 23762 H 2233.55 3.171 -2.8835 0
M  V30 23763 H 2237.73 3.11625 -3.86269 0
M  V30 23764 H 2232.99 3.09003 -5.27567 0
M  V30 23765 H 2237.16 3.04694 -6.26206 0
M  V30 23766 H 2234.79 3.02916 -6.97242 0
M  V30 23767 N 2236.37 1.03564 1.18795 0
M  V30 23768 C 2237.61 0.734602 1.88276 0
M  V30 23769 C 2237.93 -0.739554 1.80432 0
M  V30 23770 O 2237.2 -1.53331 1.21928 0
M  V30 23771 H 2235.78 0.268737 0.696986 0
M  V30 23772 H 2238.45 1.31131 1.44189 0
M  V30 23773 H 2237.54 1.03494 2.94441 0
M  V30 23774 N 2237.84 -1.34926 0.814413 0
M  V30 23775 C 2238.78 -2.27523 0.175681 0
M  V30 23776 C 2239.75 -1.48472 -0.662927 0
M  V30 23777 O 2240.94 -1.77713 -0.628514 0
M  V30 23778 C 2238.07 -3.30167 -0.755458 0
M  V30 23779 C 2237.11 -4.265 0.00452802 0
M  V30 23780 S 2237.94 -5.1831 1.34591 0
M  V30 23781 C 2239.1 -6.24493 0.419424 0
M  V30 23782 H 2239.33 -2.81349 0.96074 0
M  V30 23783 H 2236.87 -1.41845 0.609871 0
M  V30 23784 H 2238.82 -3.89798 -1.28716 0
M  V30 23785 H 2237.49 -2.75205 -1.51397 0
M  V30 23786 H 2236.68 -4.99073 -0.70299 0
M  V30 23787 H 2236.28 -3.71079 0.466512 0
M  V30 23788 H 2238.57 -6.76363 -0.392313 0
M  V30 23789 H 2239.52 -6.99273 1.11458 0
M  V30 23790 H 2239.92 -5.64499 0.0116381 0
M  V30 23791 N 2239.32 -0.56861 -1.46985 0
M  V30 23792 C 2240.55 -0.0520892 -2.07335 0
M  V30 23793 C 2240.97 1.2373 -1.41677 0
M  V30 23794 O 2240.33 1.74393 -0.495654 0
M  V30 23795 C 2240.38 0.114947 -3.60417 0
M  V30 23796 O 2239.48 1.17485 -3.95311 0
M  V30 23797 H 2238.82 -0.0564501 -0.661596 0
M  V30 23798 H 2241.35 -0.78754 -1.88836 0
M  V30 23799 H 2241.36 0.325572 -4.06699 0
M  V30 23800 H 2240.04 -0.826747 -4.076 0
M  V30 23801 H 2238.61 0.943805 -3.60759 0
M  V30 23802 N 2240.8 1.54608 -0.305646 0
M  V30 23803 C 2241.73 2.2665 0.561442 0
M  V30 23804 C 2242.71 1.26774 1.13412 0
M  V30 23805 O 2243.9 1.55555 1.1626 0
M  V30 23806 C 2241.03 3.01078 1.73116 0
M  V30 23807 C 2239.98 4.0814 1.28863 0
M  V30 23808 C 2239.31 4.70309 2.54388 0
M  V30 23809 C 2240.61 5.20637 0.416487 0
M  V30 23810 H 2242.3 2.99374 -0.0394428 0
M  V30 23811 H 2239.85 1.43986 -0.0204103 0
M  V30 23812 H 2241.8 3.50199 2.34389 0
M  V30 23813 H 2240.52 2.2594 2.35836 0
M  V30 23814 H 2239.18 3.59876 0.698928 0
M  V30 23815 H 2238.83 3.91806 3.15432 0
M  V30 23816 H 2238.53 5.42618 2.25476 0
M  V30 23817 H 2240.05 5.22196 3.16455 0
M  V30 23818 H 2241.47 5.65624 0.935017 0
M  V30 23819 H 2239.86 5.99693 0.220941 0
M  V30 23820 H 2240.93 4.81687 -0.557246 0
M  V30 23821 N 2242.28 0.033457 1.57564 0
M  V30 23822 C 2243.53 -0.643605 1.91156 0
M  V30 23823 C 2243.84 -1.7304 0.91195 0
M  V30 23824 O 2245.05 -2.4644 1.13927 0
M  V30 23825 C 2243.5 -1.19604 3.39445 0
M  V30 23826 C 2243.11 -0.142303 4.47774 0
M  V30 23827 C 2244.85 -1.84937 3.82098 0
M  V30 23828 C 2242.76 -0.706624 5.87163 0
M  V30 23829 H 2241.69 -0.244164 0.713372 0
M  V30 23830 H 2244.34 0.0994645 1.8323 0
M  V30 23831 H 2242.72 -1.99086 3.42317 0
M  V30 23832 H 2243.9 0.630376 4.56468 0
M  V30 23833 H 2242.21 0.412519 4.14352 0
M  V30 23834 H 2244.81 -2.28122 4.83595 0
M  V30 23835 H 2245.15 -2.69386 3.17391 0
M  V30 23836 H 2245.69 -1.12138 3.81667 0
M  V30 23837 H 2242.42 0.099833 6.55424 0
M  V30 23838 H 2241.94 -1.44769 5.82067 0
M  V30 23839 H 2243.62 -1.19503 6.35868 0
M  V30 23840 N 2243.76 -1.55766 -0.239741 0
M  V30 23841 C 2244.7 -1.90915 -1.29693 0
M  V30 23842 C 2245.67 -0.76419 -1.47477 0
M  V30 23843 O 2246.86 -1.01848 -1.61343 0
M  V30 23844 C 2244 -2.21549 -2.64594 0
M  V30 23845 C 2243.11 -3.48886 -2.54759 0
M  V30 23846 C 2242.25 -3.69055 -3.82062 0
M  V30 23847 C 2241.28 -4.89969 -3.66874 0
M  V30 23848 N 2240.42 -5.06622 -4.86085 0
M  V30 23849 H 2245.26 -2.81069 -0.990175 0
M  V30 23850 H 2242.8 -1.39129 -0.477659 0
M  V30 23851 H 2244.76 -2.37316 -3.43128 0
M  V30 23852 H 2243.39 -1.3459 -2.93403 0
M  V30 23853 H 2242.44 -3.41412 -1.67757 0
M  V30 23854 H 2243.75 -4.37568 -2.3945 0
M  V30 23855 H 2242.9 -3.84821 -4.69039 0
M  V30 23856 H 2241.64 -2.78621 -4.00277 0
M  V30 23857 H 2240.65 -4.74173 -2.7828 0
M  V30 23858 H 2241.87 -5.81871 -3.50147 0
M  V30 23859 H 2239.82 -4.19126 -5.04647 0
M  V30 23860 H 2239.74 -5.89404 -4.73433 0
M  V30 23861 H 2241 -5.26806 -5.7454 0
M  V30 23862 N 2245.23 0.505704 -1.49266 0
M  V30 23863 C 2246.18 1.60454 -1.61983 0
M  V30 23864 C 2247.17 1.53707 -0.475707 0
M  V30 23865 O 2248.36 1.61317 -0.72842 0
M  V30 23866 C 2245.49 2.99086 -1.68531 0
M  V30 23867 C 2244.57 3.10847 -2.88505 0
M  V30 23868 N 2244.97 2.9251 -4.1264 0
M  V30 23869 C 2243.26 3.4194 -2.86344 0
M  V30 23870 C 2243.96 3.08329 -4.93263 0
M  V30 23871 N 2242.94 3.36995 -4.26539 0
M  V30 23872 H 2246.74 1.44924 -2.55684 0
M  V30 23873 H 2244.26 0.711727 -1.45973 0
M  V30 23874 H 2246.25 3.7805 -1.75739 0
M  V30 23875 H 2244.91 3.15689 -0.759639 0
M  V30 23876 H 2245.92 2.6878 -4.42694 0
M  V30 23877 H 2242.6 3.64749 -2.03136 0
M  V30 23878 H 2243.99 2.98684 -6.01862 0
M  V30 23879 N 2246.71 1.38262 0.756405 0
M  V30 23880 C 2247.66 1.35375 1.89146 0
M  V30 23881 C 2248.65 0.240069 1.6769 0
M  V30 23882 O 2249.86 0.40895 1.75293 0
M  V30 23883 H 2246.24 0.422247 0.622263 0
M  V30 23884 H 2248.21 2.31162 1.88697 0
M  V30 23885 C 2246.96 1.1929 3.26597 0
M  V30 23886 H 2246.28 2.04246 3.43691 0
M  V30 23887 H 2247.72 1.21323 4.06272 0
M  V30 23888 C 2246.18 -0.100395 3.3675 0
M  V30 23889 O 2246.71 -1.07844 3.86953 0
M  V30 23890 N 2244.91 -0.156279 2.90179 0
M  V30 23891 H 2244.46 0.640297 2.49515 0
M  V30 23892 H 2244.42 -1.02118 2.97354 0
M  V30 23893 N 2248.19 -0.984277 1.23084 0
M  V30 23894 C 2249.42 -1.76569 1.08803 0
M  V30 23895 C 2249.84 -1.84688 -0.356625 0
M  V30 23896 O 2249.2 -1.30567 -1.25785 0
M  V30 23897 C 2249.25 -3.17273 1.71376 0
M  V30 23898 O 2248.35 -4.0075 0.973283 0
M  V30 23899 H 2247.69 -0.543388 0.381609 0
M  V30 23900 H 2250.22 -1.23584 1.63059 0
M  V30 23901 H 2250.23 -3.67869 1.76456 0
M  V30 23902 H 2248.91 -3.10679 2.76498 0
M  V30 23903 H 2247.48 -3.59265 0.999141 0
M  V30 23904 N 2249.67 -1.04192 -1.18244 0
M  V30 23905 C 2250.91 -0.75495 -1.89947 0
M  V30 23906 C 2251.27 0.704478 -1.78609 0
M  V30 23907 O 2252.47 1.10511 -2.45032 0
M  V30 23908 C 2250.74 -1.20975 -3.36303 0
M  V30 23909 S 2252.3 -1.04862 -4.26086 0
M  V30 23910 H 2249.12 -0.274457 -0.655892 0
M  V30 23911 H 2251.72 -1.33447 -1.42871 0
M  V30 23912 H 2250.43 -2.26728 -3.42085 0
M  V30 23913 H 2249.96 -0.624072 -3.88418 0
M  V30 23914 H 2251.97 0.0332024 -4.96189 0
M  V30 23915 N 2251.15 1.34492 -0.821557 0
M  V30 23916 C 2252.39 1.98621 -0.409587 0
M  V30 23917 C 2252.73 1.64986 1.02437 0
M  V30 23918 O 2252 0.920788 1.71324 0
M  V30 23919 C 2252.28 3.54887 -0.610521 0
M  V30 23920 C 2252.14 3.98269 -2.0905 0
M  V30 23921 C 2253.46 4.40076 -0.0456153 0
M  V30 23922 H 2250.57 0.721513 -0.150292 0
M  V30 23923 H 2253.22 1.59409 -1.03387 0
M  V30 23924 H 2251.37 3.88419 -0.0791123 0
M  V30 23925 H 2253.04 3.75076 -2.68544 0
M  V30 23926 H 2251.28 3.48631 -2.58146 0
M  V30 23927 H 2251.95 5.07047 -2.18191 0
M  V30 23928 H 2254.43 4.13089 -0.49963 0
M  V30 23929 H 2253.3 5.48475 -0.216018 0
M  V30 23930 H 2253.57 4.29467 1.04932 0
M  V30 23931 N 2252.62 0.576397 1.46681 0
M  V30 23932 C 2253.87 0.057318 2.01619 0
M  V30 23933 C 2254.19 -1.30815 1.45419 0
M  V30 23934 O 2255.39 -1.91822 1.92137 0
M  V30 23935 C 2253.85 0.0519003 3.59863 0
M  V30 23936 C 2253.46 1.4153 4.25057 0
M  V30 23937 C 2255.2 -0.413565 4.22481 0
M  V30 23938 C 2253.11 1.36795 5.75362 0
M  V30 23939 H 2252.04 0.017658 0.753793 0
M  V30 23940 H 2254.69 0.727106 1.6848 0
M  V30 23941 H 2253.07 -0.683925 3.90049 0
M  V30 23942 H 2254.24 2.17036 4.06488 0
M  V30 23943 H 2252.56 1.82027 3.74507 0
M  V30 23944 H 2255.16 -0.467685 5.32651 0
M  V30 23945 H 2255.5 -1.42975 3.90978 0
M  V30 23946 H 2256.03 0.267999 3.96896 0
M  V30 23947 H 2252.77 2.36074 6.11514 0
M  V30 23948 H 2252.29 0.655 5.96213 0
M  V30 23949 H 2253.97 1.07816 6.37953 0
M  V30 23950 N 2254.1 -1.54444 0.313841 0
M  V30 23951 C 2255.33 -2.04802 -0.293882 0
M  V30 23952 C 2255.75 -1.1905 -1.46535 0
M  V30 23953 O 2255.1 -0.218971 -1.81182 0
M  V30 23954 C 2255.15 -3.53892 -0.737744 0
M  V30 23955 O 2254.87 -4.36386 0.387115 0
M  V30 23956 C 2256.38 -4.20302 -1.40929 0
M  V30 23957 H 2253.6 -0.66813 -0.061994 0
M  V30 23958 H 2256.14 -1.99324 0.457205 0
M  V30 23959 H 2254.29 -3.5969 -1.43883 0
M  V30 23960 H 2254.71 -5.24485 0.0392196 0
M  V30 23961 H 2256.18 -5.26104 -1.67089 0
M  V30 23962 H 2256.66 -3.7082 -2.35348 0
M  V30 23963 H 2257.27 -4.18616 -0.751043 0
M  V30 23964 N 2255.58 -0.0418125 -1.57545 0
M  V30 23965 C 2256.81 0.643894 -1.96626 0
M  V30 23966 C 2257.22 1.64928 -0.918926 0
M  V30 23967 O 2256.58 1.82237 0.0979003 0
M  V30 23968 C 2256.63 1.33908 -3.35784 0
M  V30 23969 O 2256.35 0.373971 -4.36501 0
M  V30 23970 C 2257.85 2.11543 -3.8957 0
M  V30 23971 H 2255.07 0.17669 -0.647319 0
M  V30 23972 H 2257.62 -0.10534 -2.04229 0
M  V30 23973 H 2255.77 2.03962 -3.2936 0
M  V30 23974 H 2256.19 0.869088 -5.1725 0
M  V30 23975 H 2257.66 2.5562 -4.89247 0
M  V30 23976 H 2258.14 2.95974 -3.24493 0
M  V30 23977 H 2258.74 1.4642 -3.99301 0
M  V30 23978 N 2257.06 1.55891 0.231477 0
M  V30 23979 C 2257.97 1.94754 1.30797 0
M  V30 23980 C 2258.98 0.850015 1.51825 0
M  V30 23981 O 2260.16 1.15274 1.65148 0
M  V30 23982 C 2257.23 2.24775 2.63964 0
M  V30 23983 C 2256.29 3.48044 2.51325 0
M  V30 23984 C 2255.52 3.76623 3.78141 0
M  V30 23985 O 2255.74 3.07031 4.80716 0
M  V30 23986 O 2254.68 4.70129 3.75848 0
M  V30 23987 H 2258.5 2.86475 1.00825 0
M  V30 23988 H 2256.09 1.42972 0.433522 0
M  V30 23989 H 2257.97 2.45324 3.42629 0
M  V30 23990 H 2256.64 1.3623 2.93637 0
M  V30 23991 H 2255.55 3.32785 1.70894 0
M  V30 23992 H 2256.88 4.3694 2.26593 0
M  V30 23993 N 2258.54 -0.497781 1.49532 0
M  V30 23994 C 2259.48 -1.6198 1.66929 0
M  V30 23995 C 2260.48 -1.60723 0.535195 0
M  V30 23996 O 2261.68 -1.65193 0.714925 0
M  V30 23997 H 2258.06 -0.537012 0.526424 0
M  V30 23998 H 2260.03 -1.4446 2.61101 0
M  V30 23999 C 2258.78 -3.00096 1.75607 0
M  V30 24000 H 2258.1 -3.0177 2.6225 0
M  V30 24001 H 2259.54 -3.78132 1.91813 0
M  V30 24002 C 2258 -3.33145 0.501601 0
M  V30 24003 O 2258.53 -3.99981 -0.371271 0
M  V30 24004 N 2256.74 -2.88317 0.363582 0
M  V30 24005 H 2256.28 -2.34102 1.0749 0
M  V30 24006 H 2256.24 -3.10796 -0.474673 0
M  V30 24007 N 2260.01 -1.38661 -0.749062 0
M  V30 24008 C 2261.26 -1.3485 -1.50532 0
M  V30 24009 C 2261.58 0.0594673 -1.94909 0
M  V30 24010 O 2260.85 1.00803 -1.67975 0
M  V30 24011 H 2259.43 -0.4962 -0.558386 0
M  V30 24012 H 2262.1 -1.73386 -0.890134 0
M  V30 24013 H 2261.19 -2.00223 -2.3941 0
M  V30 24014 N 2261.49 0.977736 -1.23605 0
M  V30 24015 C 2262.44 2.07059 -1.01957 0
M  V30 24016 C 2263.41 1.65977 0.0638405 0
M  V30 24017 O 2264.6 1.90593 -0.0887959 0
M  V30 24018 C 2261.74 3.3949 -0.619717 0
M  V30 24019 C 2260.85 3.93826 -1.77554 0
M  V30 24020 C 2259.98 5.14481 -1.32221 0
M  V30 24021 C 2259.02 5.60989 -2.44862 0
M  V30 24022 N 2258.16 6.72872 -2.00468 0
M  V30 24023 H 2263 2.24909 -1.95499 0
M  V30 24024 H 2260.54 1.10245 -0.973881 0
M  V30 24025 H 2262.49 4.15565 -0.368971 0
M  V30 24026 H 2261.12 3.21595 0.278695 0
M  V30 24027 H 2260.18 3.14482 -2.14022 0
M  V30 24028 H 2261.49 4.2431 -2.62227 0
M  V30 24029 H 2260.64 5.97897 -1.02975 0
M  V30 24030 H 2259.38 4.85657 -0.445893 0
M  V30 24031 H 2258.39 4.76153 -2.74879 0
M  V30 24032 H 2259.61 5.91832 -3.33035 0
M  V30 24033 H 2257.56 6.45802 -1.1522 0
M  V30 24034 H 2257.47 7.02754 -2.78699 0
M  V30 24035 H 2258.74 7.59755 -1.74334 0
M  V30 24036 N 2262.97 1.04818 1.1769 0
M  V30 24037 C 2264.22 0.756023 1.87858 0
M  V30 24038 C 2264.55 -0.71672 1.80813 0
M  V30 24039 O 2263.8 -1.5395 1.20821 0
M  V30 24040 C 2264.1 1.17709 3.3746 0
M  V30 24041 C 2263.77 2.65139 3.64708 0
M  V30 24042 C 2262.43 3.05415 3.71854 0
M  V30 24043 C 2264.78 3.60428 3.76485 0
M  V30 24044 C 2262.11 4.3985 3.88264 0
M  V30 24045 C 2264.46 4.94592 3.94413 0
M  V30 24046 C 2263.12 5.34527 3.99797 0
M  V30 24047 H 2262.39 0.276648 0.68742 0
M  V30 24048 H 2265.04 1.31457 1.39252 0
M  V30 24049 H 2263.35 0.537463 3.88096 0
M  V30 24050 H 2265.04 0.928286 3.90107 0
M  V30 24051 H 2261.63 2.32948 3.59768 0
M  V30 24052 H 2265.82 3.30454 3.70289 0
M  V30 24053 H 2261.07 4.70298 3.90678 0
M  V30 24054 H 2265.25 5.68325 4.02467 0
M  V30 24055 H 2262.87 6.38704 4.12264 0
M  V30 24056 N 2264.45 -1.34055 0.828678 0
M  V30 24057 C 2265.68 -2.02326 0.432656 0
M  V30 24058 C 2266.09 -1.62387 -0.963119 0
M  V30 24059 O 2265.45 -0.83215 -1.62424 0
M  V30 24060 C 2265.5 -3.57566 0.531883 0
M  V30 24061 O 2265.22 -3.9606 1.87265 0
M  V30 24062 C 2266.72 -4.43105 0.1315 0
M  V30 24063 H 2263.94 -0.648332 0.172934 0
M  V30 24064 H 2266.49 -1.71206 1.11843 0
M  V30 24065 H 2264.64 -3.87255 -0.10587 0
M  V30 24066 H 2265.06 -4.90754 1.85096 0
M  V30 24067 H 2266.53 -5.51424 0.252001 0
M  V30 24068 H 2267.01 -4.29337 -0.92557 0
M  V30 24069 H 2267.61 -4.18755 0.74328 0
M  V30 24070 N 2265.93 -0.584167 -1.46374 0
M  V30 24071 C 2267.18 -0.0701642 -2.01978 0
M  V30 24072 C 2267.5 1.29497 -1.45792 0
M  V30 24073 O 2266.77 1.85041 -0.643172 0
M  V30 24074 H 2265.35 -0.0229476 -0.746647 0
M  V30 24075 H 2268.01 -0.760277 -1.7946 0
M  V30 24076 H 2267.1 -0.00226126 -3.121 0
M  V30 24077 N 2267.41 1.54275 -0.322027 0
M  V30 24078 C 2268.34 2.27232 0.537371 0
M  V30 24079 C 2269.32 1.2797 1.12061 0
M  V30 24080 O 2270.5 1.56779 1.14603 0
M  V30 24081 C 2267.63 3.02897 1.69913 0
M  V30 24082 C 2266.59 4.09484 1.24526 0
M  V30 24083 C 2265.91 4.72981 2.49385 0
M  V30 24084 C 2267.21 5.21049 0.361243 0
M  V30 24085 H 2268.91 2.99315 -0.0711932 0
M  V30 24086 H 2266.45 1.43956 -0.0356808 0
M  V30 24087 H 2268.4 3.52666 2.30662 0
M  V30 24088 H 2267.13 2.28429 2.33427 0
M  V30 24089 H 2265.79 3.60597 0.660719 0
M  V30 24090 H 2265.44 3.95129 3.11258 0
M  V30 24091 H 2265.14 5.44979 2.19708 0
M  V30 24092 H 2266.66 5.25523 3.10899 0
M  V30 24093 H 2268.07 5.66584 0.874972 0
M  V30 24094 H 2266.47 5.99894 0.157323 0
M  V30 24095 H 2267.54 4.81069 -0.608304 0
M  V30 24096 N 2268.88 0.0501669 1.5752 0
M  V30 24097 C 2270.13 -0.622608 1.92271 0
M  V30 24098 C 2270.45 -1.71442 0.929113 0
M  V30 24099 O 2269.72 -1.95883 -0.0261842 0
M  V30 24100 H 2268.3 -0.232968 0.709743 0
M  V30 24101 H 2270.96 0.102932 1.94628 0
M  V30 24102 H 2270.06 -1.06186 2.93481 0
M  V30 24103 N 2270.36 -1.56011 -0.223207 0
M  V30 24104 C 2271.61 -1.79213 -0.949248 0
M  V30 24105 C 2271.94 -0.619527 -1.84053 0
M  V30 24106 O 2271.22 0.381283 -1.90726 0
M  V30 24107 C 2271.5 -3.12483 -1.7896 0
M  V30 24108 C 2271.35 -4.40188 -0.92492 0
M  V30 24109 C 2272.67 -3.4218 -2.76768 0
M  V30 24110 H 2269.79 -0.651969 -0.343665 0
M  V30 24111 H 2272.43 -1.88743 -0.21822 0
M  V30 24112 H 2270.58 -3.04489 -2.41285 0
M  V30 24113 H 2272.25 -4.60199 -0.318535 0
M  V30 24114 H 2270.5 -4.33188 -0.230268 0
M  V30 24115 H 2271.17 -5.29872 -1.54726 0
M  V30 24116 H 2273.64 -3.50291 -2.24578 0
M  V30 24117 H 2272.52 -4.36603 -3.3267 0
M  V30 24118 H 2272.78 -2.64265 -3.54424 0
M  V30 24119 N 2271.84 0.489844 -1.49794 0
M  V30 24120 C 2273.07 1.26515 -1.63333 0
M  V30 24121 C 2273.48 1.86669 -0.308425 0
M  V30 24122 O 2272.82 1.69109 0.717482 0
M  V30 24123 C 2272.88 2.42685 -2.65225 0
M  V30 24124 C 2272.55 2.03314 -4.09283 0
M  V30 24125 C 2273.54 1.56643 -4.95741 0
M  V30 24126 C 2271.23 2.12608 -4.55086 0
M  V30 24127 C 2273.22 1.19784 -6.26044 0
M  V30 24128 C 2270.91 1.7536 -5.85399 0
M  V30 24129 C 2271.91 1.29024 -6.70702 0
M  V30 24130 O 2271.6 0.922849 -7.98585 0
M  V30 24131 H 2271.33 0.389499 -0.552509 0
M  V30 24132 H 2273.88 0.593347 -1.96643 0
M  V30 24133 H 2272.11 3.12977 -2.27117 0
M  V30 24134 H 2273.8 3.0469 -2.68177 0
M  V30 24135 H 2274.57 1.489 -4.61577 0
M  V30 24136 H 2270.45 2.47624 -3.88848 0
M  V30 24137 H 2273.99 0.83546 -6.92579 0
M  V30 24138 H 2269.89 1.82757 -6.19088 0
M  V30 24139 H 2270.65 1.05335 -8.11694 0
M  V30 24140 N 2273.32 1.39056 0.741698 0
M  V30 24141 C 2274.59 1.26428 1.49249 0
M  V30 24142 C 2274.97 -0.129107 2.10705 0
M  V30 24143 O 2274.32 -1.13973 1.98047 0
M  V30 24144 C 2274.53 2.38352 2.5493 0
M  V30 24145 C 2275.88 2.77349 3.21501 0
M  V30 24146 O 2276.9 2.37752 2.6524 0
M  V30 24147 O 2275.76 3.45672 4.23288 0
M  V30 24148 H 2272.86 0.495075 0.662442 0
M  V30 24149 H 2275.4 1.50913 0.776094 0
M  V30 24150 H 2274.18 3.31532 2.07851 0
M  V30 24151 H 2273.8 2.15495 3.34137 0
M  V30 24152 N 2274.8 -0.971167 1.24121 0
M  V30 24153 C 2276.21 -1.23914 1.00586 0
M  V30 24154 C 2276.41 -1.99439 -0.287446 0
M  V30 24155 O 2275.47 -2.31659 -1.0045 0
M  V30 24156 C 2276.78 -2.02966 2.21867 0
M  V30 24157 C 2278.33 -2.16072 2.26455 0
M  V30 24158 C 2278.8 -2.98518 3.47348 0
M  V30 24159 N 2280.29 -3.06101 3.47644 0
M  V30 24160 C 2281.03 -3.70243 4.37844 0
M  V30 24161 N 2280.53 -4.36133 5.38294 0
M  V30 24162 N 2282.32 -3.67221 4.25565 0
M  V30 24163 H 2274.47 -0.465463 2.07237 0
M  V30 24164 H 2276.73 -0.268299 0.909241 0
M  V30 24165 H 2276.44 -1.54855 3.15773 0
M  V30 24166 H 2276.31 -3.03705 2.23704 0
M  V30 24167 H 2278.7 -2.63387 1.33083 0
M  V30 24168 H 2278.78 -1.14692 2.28647 0
M  V30 24169 H 2278.42 -2.51897 4.41033 0
M  V30 24170 H 2278.35 -4.00087 3.424 0
M  V30 24171 H 2280.85 -2.59228 2.74971 0
M  V30 24172 H 2281.16 -4.82883 6.03361 0
M  V30 24173 H 2279.5 -4.34812 5.42184 0
M  V30 24174 H 2282.69 -3.14921 3.46327 0
M  V30 24175 H 2282.87 -4.16926 4.96061 0
M  V30 24176 N 2276.27 -1.05441 -1.17133 0
M  V30 24177 C 2277.52 -0.765975 -1.87454 0
M  V30 24178 C 2277.85 0.707121 -1.81191 0
M  V30 24179 O 2277.1 1.53307 -1.21636 0
M  V30 24180 C 2277.4 -1.19497 -3.36831 0
M  V30 24181 C 2277.07 -2.6707 -3.63297 0
M  V30 24182 C 2275.73 -3.07382 -3.70229 0
M  V30 24183 C 2278.08 -3.6242 -3.74568 0
M  V30 24184 C 2275.41 -4.41903 -3.85926 0
M  V30 24185 C 2277.76 -4.96677 -3.91784 0
M  V30 24186 C 2276.43 -5.3664 -3.96956 0
M  V30 24187 H 2275.7 -0.28029 -0.685943 0
M  V30 24188 H 2278.34 -1.32194 -1.38553 0
M  V30 24189 H 2276.65 -0.558037 -3.87806 0
M  V30 24190 H 2278.35 -0.948961 -3.8961 0
M  V30 24191 H 2274.94 -2.34853 -3.58528 0
M  V30 24192 H 2279.12 -3.32413 -3.68531 0
M  V30 24193 H 2274.38 -4.72363 -3.88179 0
M  V30 24194 H 2278.55 -5.70451 -3.99448 0
M  V30 24195 H 2276.18 -6.40881 -4.08871 0
M  V30 24196 N 2277.75 1.33613 -0.835776 0
M  V30 24197 C 2279 1.98175 -0.430631 0
M  V30 24198 C 2279.33 1.66063 1.00682 0
M  V30 24199 O 2278.61 0.938907 1.70337 0
M  V30 24200 C 2278.89 3.54219 -0.648127 0
M  V30 24201 C 2278.74 3.96029 -2.13262 0
M  V30 24202 C 2280.06 4.40003 -0.0922887 0
M  V30 24203 H 2277.18 0.719879 -0.157936 0
M  V30 24204 H 2279.82 1.58303 -1.05072 0
M  V30 24205 H 2277.97 3.88314 -0.120305 0
M  V30 24206 H 2279.64 3.72207 -2.72507 0
M  V30 24207 H 2277.89 3.45873 -2.61829 0
M  V30 24208 H 2278.56 5.04704 -2.23556 0
M  V30 24209 H 2281.03 4.12536 -0.543416 0
M  V30 24210 H 2279.91 5.48215 -0.274179 0
M  V30 24211 H 2280.17 4.30556 1.00371 0
M  V30 24212 N 2279.23 0.591922 1.46062 0
M  V30 24213 C 2280.48 0.0811547 2.02638 0
M  V30 24214 C 2280.81 -1.27902 1.46132 0
M  V30 24215 O 2280.08 -1.84016 0.62994 0
M  V30 24216 C 2280.37 0.0253069 3.60091 0
M  V30 24217 C 2280.22 1.41504 4.26962 0
M  V30 24218 C 2281.54 -0.670608 4.34961 0
M  V30 24219 H 2278.66 0.0309654 0.736349 0
M  V30 24220 H 2281.3 0.76089 1.74099 0
M  V30 24221 H 2279.45 -0.553557 3.84536 0
M  V30 24222 H 2281.12 2.03978 4.13752 0
M  V30 24223 H 2279.37 1.98018 3.85968 0
M  V30 24224 H 2280.04 1.32835 5.35779 0
M  V30 24225 H 2282.51 -0.178752 4.15716 0
M  V30 24226 H 2281.39 -0.678742 5.44687 0
M  V30 24227 H 2281.65 -1.73371 4.06688 0
M  V30 24228 N 2280.71 -1.54102 0.330204 0
M  V30 24229 C 2281.95 -2.00984 -0.27077 0
M  V30 24230 C 2282.29 -1.21791 -1.51263 0
M  V30 24231 O 2281.56 -0.301961 -1.92142 0
M  V30 24232 C 2281.85 -3.55095 -0.598277 0
M  V30 24233 C 2281.7 -4.45009 0.654752 0
M  V30 24234 C 2283.02 -4.16791 -1.41327 0
M  V30 24235 H 2280.14 -0.730597 -0.0969403 0
M  V30 24236 H 2282.78 -1.8464 0.448098 0
M  V30 24237 H 2280.93 -3.69153 -1.21071 0
M  V30 24238 H 2282.6 -4.42811 1.29292 0
M  V30 24239 H 2280.84 -4.14414 1.28232 0
M  V30 24240 H 2281.51 -5.50683 0.381041 0
M  V30 24241 H 2283.99 -4.06349 -0.895525 0
M  V30 24242 H 2282.87 -5.24721 -1.61118 0
M  V30 24243 H 2283.13 -3.70546 -2.4114 0
M  V30 24244 N 2282.19 -0.0585199 -1.57491 0
M  V30 24245 C 2283.6 0.476106 -1.80527 0
M  V30 24246 C 2283.95 1.70467 -0.971364 0
M  V30 24247 O 2283.07 2.15564 -0.19005 0
M  V30 24248 C 2283.67 0.870529 -3.27425 0
M  V30 24249 C 2282.23 1.35009 -3.51354 0
M  V30 24250 C 2281.37 0.328822 -2.75344 0
M  V30 24251 H 2284.33 -0.284339 -1.56132 0
M  V30 24252 H 2284.35 1.73293 -3.38748 0
M  V30 24253 H 2283.86 -0.0238309 -3.88093 0
M  V30 24254 H 2281.96 2.2634 -2.95975 0
M  V30 24255 H 2282.07 1.33718 -4.60061 0
M  V30 24256 H 2280.44 0.803279 -2.41701 0
M  V30 24257 H 2281.22 -0.55758 -3.38742 0
M  V30 24258 N 2283.66 1.56128 0.21493 0
M  V30 24259 C 2284.89 1.83538 0.95506 0
M  V30 24260 C 2285.31 0.638503 1.77675 0
M  V30 24261 O 2284.66 -0.392937 1.7822 0
M  V30 24262 C 2284.72 3.09539 1.86729 0
M  V30 24263 O 2284.44 4.2461 1.0788 0
M  V30 24264 C 2285.94 3.49985 2.72076 0
M  V30 24265 H 2283.16 0.609971 0.2796 0
M  V30 24266 H 2285.7 2.03223 0.228162 0
M  V30 24267 H 2283.86 2.9181 2.54805 0
M  V30 24268 H 2284.27 4.96233 1.69863 0
M  V30 24269 H 2285.74 4.41168 3.31775 0
M  V30 24270 H 2286.22 2.72046 3.44801 0
M  V30 24271 H 2286.83 3.70177 2.09402 0
M  V30 24272 N 2285.14 -0.481893 1.50052 0
M  V30 24273 C 2286.09 -1.57857 1.64515 0
M  V30 24274 C 2287.08 -1.52931 0.5001 0
M  V30 24275 O 2288.27 -1.60137 0.753992 0
M  V30 24276 C 2285.4 -2.96367 1.73268 0
M  V30 24277 C 2284.48 -3.06217 2.93414 0
M  V30 24278 N 2284.87 -2.85908 4.17241 0
M  V30 24279 C 2283.17 -3.37341 2.91748 0
M  V30 24280 C 2283.87 -3.00442 4.98106 0
M  V30 24281 N 2282.85 -3.30167 4.31846 0
M  V30 24282 H 2286.65 -1.40838 2.57957 0
M  V30 24283 H 2284.17 -0.688413 1.47087 0
M  V30 24284 H 2286.16 -3.75206 1.81731 0
M  V30 24285 H 2284.82 -3.14441 0.809767 0
M  V30 24286 H 2285.83 -2.61703 4.46914 0
M  V30 24287 H 2282.51 -3.61471 2.08913 0
M  V30 24288 H 2283.9 -2.89071 6.06537 0
M  V30 24289 N 2286.62 -1.39448 -0.734313 0
M  V30 24290 C 2287.58 -1.37997 -1.83001 0
M  V30 24291 C 2288.58 -0.276966 -1.58397 0
M  V30 24292 O 2289.77 -0.534904 -1.65784 0
M  V30 24293 C 2286.91 -1.15325 -3.208 0
M  V30 24294 H 2288.1 -2.35498 -1.8569 0
M  V30 24295 H 2285.65 -1.25022 -0.938037 0
M  V30 24296 H 2286.39 -0.185093 -3.23771 0
M  V30 24297 H 2286.17 -1.95203 -3.40056 0
M  V30 24298 H 2287.66 -1.17053 -4.0086 0
M  V30 24299 N 2288.1 0.964571 -1.24635 0
M  V30 24300 C 2289.38 1.68352 -0.995839 0
M  V30 24301 C 2289.76 2.05549 0.480927 0
M  V30 24302 O 2289.1 1.76108 1.45596 0
M  V30 24303 C 2289.31 2.91319 -1.92182 0
M  V30 24304 C 2290.66 3.63491 -2.19453 0
M  V30 24305 O 2291.69 3.01382 -1.89861 0
M  V30 24306 O 2290.54 4.75302 -2.69723 0
M  V30 24307 H 2287.64 0.736139 -0.376867 0
M  V30 24308 H 2290.18 1.01838 -1.35746 0
M  V30 24309 H 2288.96 2.60548 -2.91943 0
M  V30 24310 H 2288.58 3.65566 -1.56356 0
M  V30 24311 N 2289.58 1.0606 1.16572 0
M  V30 24312 C 2290.99 0.800661 1.6866 0
M  V30 24313 C 2291.34 -0.676048 1.84185 0
M  V30 24314 O 2290.46 -1.52464 1.5357 0
M  V30 24315 C 2291.06 1.44682 3.06354 0
M  V30 24316 C 2289.62 1.23471 3.55573 0
M  V30 24317 C 2288.76 1.52481 2.31613 0
M  V30 24318 H 2291.72 1.22439 1.00967 0
M  V30 24319 H 2291.74 0.860853 3.70634 0
M  V30 24320 H 2291.25 2.52157 2.95023 0
M  V30 24321 H 2289.35 0.179592 3.72167 0
M  V30 24322 H 2289.46 1.94578 4.37808 0
M  V30 24323 H 2287.83 0.945251 2.3651 0
M  V30 24324 H 2288.61 2.6111 2.22882 0
M  V30 24325 N 2291.06 -1.33168 0.84285 0
M  V30 24326 C 2292.3 -1.97261 0.439612 0
M  V30 24327 C 2292.62 -1.6708 -1.00545 0
M  V30 24328 O 2291.89 -0.971809 -1.70096 0
M  V30 24329 H 2290.47 -0.729758 0.159571 0
M  V30 24330 H 2293.14 -1.62461 1.07668 0
M  V30 24331 H 2292.23 -3.06759 0.57494 0
M  V30 24332 N 2292.53 -0.599659 -1.45746 0
M  V30 24333 C 2293.48 0.123808 -2.30468 0
M  V30 24334 C 2294.45 0.867715 -1.41633 0
M  V30 24335 O 2295.64 0.855026 -1.70569 0
M  V30 24336 C 2292.78 1.12046 -3.26404 0
M  V30 24337 C 2291.89 0.378245 -4.30341 0
M  V30 24338 C 2291.02 1.36391 -5.13392 0
M  V30 24339 C 2290.06 0.609064 -6.09062 0
M  V30 24340 N 2289.2 1.54362 -6.84921 0
M  V30 24341 H 2294.04 -0.604678 -2.91801 0
M  V30 24342 H 2291.58 -0.309997 -1.43796 0
M  V30 24343 H 2293.53 1.71134 -3.80485 0
M  V30 24344 H 2292.16 1.81645 -2.66842 0
M  V30 24345 H 2291.22 -0.327996 -3.78983 0
M  V30 24346 H 2292.53 -0.211084 -4.98353 0
M  V30 24347 H 2291.68 2.02709 -5.71834 0
M  V30 24348 H 2290.42 1.98717 -4.45379 0
M  V30 24349 H 2289.43 -0.0677945 -5.49758 0
M  V30 24350 H 2290.65 -0.00903928 -6.79099 0
M  V30 24351 H 2288.6 2.15467 -6.19605 0
M  V30 24352 H 2288.51 1.00753 -7.49256 0
M  V30 24353 H 2289.78 2.19663 -7.47909 0
M  V30 24354 N 2294.01 1.53925 -0.338371 0
M  V30 24355 C 2294.92 2.28549 0.52938 0
M  V30 24356 C 2295.94 1.33461 1.11642 0
M  V30 24357 O 2297.11 1.66494 1.13322 0
M  V30 24358 C 2294.18 3.03989 1.66707 0
M  V30 24359 C 2293.24 4.14693 1.11034 0
M  V30 24360 C 2292.47 4.86526 2.19381 0
M  V30 24361 O 2292.7 4.57988 3.40005 0
M  V30 24362 O 2291.63 5.73097 1.83966 0
M  V30 24363 H 2295.46 3.03602 -0.0770932 0
M  V30 24364 H 2293.04 1.4904 -0.103582 0
M  V30 24365 H 2294.92 3.51184 2.32912 0
M  V30 24366 H 2293.6 2.31798 2.25945 0
M  V30 24367 H 2292.5 3.71814 0.412958 0
M  V30 24368 H 2293.84 4.88971 0.562889 0
M  V30 24369 N 2295.49 0.0668712 1.57458 0
M  V30 24370 C 2296.74 -0.602913 1.92478 0
M  V30 24371 C 2297.05 -1.71067 0.948449 0
M  V30 24372 O 2298.26 -2.43968 1.19129 0
M  V30 24373 C 2296.71 -1.12377 3.41905 0
M  V30 24374 C 2296.32 -0.0472913 4.47975 0
M  V30 24375 C 2298.07 -1.7679 3.85934 0
M  V30 24376 C 2295.97 -0.581919 5.8853 0
M  V30 24377 H 2294.9 -0.228977 0.718391 0
M  V30 24378 H 2297.55 0.138308 1.82978 0
M  V30 24379 H 2295.94 -1.91781 3.46462 0
M  V30 24380 H 2297.11 0.727058 4.55028 0
M  V30 24381 H 2295.42 0.500316 4.13383 0
M  V30 24382 H 2298.02 -2.17813 4.88325 0
M  V30 24383 H 2298.36 -2.62593 3.23033 0
M  V30 24384 H 2298.9 -1.04017 3.8396 0
M  V30 24385 H 2295.64 0.238836 6.55065 0
M  V30 24386 H 2295.16 -1.3239 5.85007 0
M  V30 24387 H 2296.84 -1.05988 6.3826 0
M  V30 24388 N 2296.97 -1.56239 -0.206647 0
M  V30 24389 C 2297.9 -1.90132 -1.27994 0
M  V30 24390 C 2298.91 -0.790908 -1.42297 0
M  V30 24391 O 2300.1 -1.06928 -1.42929 0
M  V30 24392 C 2297.2 -2.10796 -2.65364 0
M  V30 24393 C 2296.37 -3.41891 -2.72818 0
M  V30 24394 C 2295.43 -3.51806 -3.91304 0
M  V30 24395 O 2294.46 -4.24722 -3.78946 0
M  V30 24396 N 2295.66 -2.84043 -5.0626 0
M  V30 24397 H 2298.43 -2.82793 -0.992394 0
M  V30 24398 H 2295.99 -1.56967 -0.396624 0
M  V30 24399 H 2297.98 -2.1473 -3.43035 0
M  V30 24400 H 2296.55 -1.2469 -2.86655 0
M  V30 24401 H 2295.77 -3.49926 -1.81509 0
M  V30 24402 H 2297.06 -4.28222 -2.74779 0
M  V30 24403 H 2296.46 -2.24609 -5.19199 0
M  V30 24404 H 2295.01 -2.93619 -5.8192 0
M  V30 24405 N 2298.45 0.473929 -1.50305 0
M  V30 24406 C 2299.69 1.22803 -1.61391 0
M  V30 24407 C 2300.02 1.91678 -0.311989 0
M  V30 24408 O 2299.3 1.81988 0.686352 0
M  V30 24409 C 2299.58 2.27391 -2.79223 0
M  V30 24410 C 2299.44 1.62841 -4.19289 0
M  V30 24411 C 2300.75 3.28727 -2.9262 0
M  V30 24412 H 2297.87 0.445109 -0.587407 0
M  V30 24413 H 2300.52 0.522233 -1.82682 0
M  V30 24414 H 2298.67 2.87588 -2.612 0
M  V30 24415 H 2300.34 1.06263 -4.48894 0
M  V30 24416 H 2298.58 0.931618 -4.23678 0
M  V30 24417 H 2299.25 2.3883 -4.97659 0
M  V30 24418 H 2301.73 2.78551 -3.0911 0
M  V30 24419 H 2300.6 3.99239 -3.76695 0
M  V30 24420 H 2300.86 3.9268 -2.03114 0
M  V30 24421 N 2299.92 1.39835 0.726907 0
M  V30 24422 C 2301.2 1.28004 1.479 0
M  V30 24423 C 2301.58 -0.106752 2.1083 0
M  V30 24424 O 2300.93 -1.11866 1.99244 0
M  V30 24425 C 2301.14 2.41042 2.52388 0
M  V30 24426 C 2302.49 2.80743 3.18541 0
M  V30 24427 O 2303.51 2.40552 2.62704 0
M  V30 24428 O 2302.37 3.50142 4.19598 0
M  V30 24429 H 2299.46 0.502074 0.657154 0
M  V30 24430 H 2302.01 1.51728 0.760044 0
M  V30 24431 H 2300.78 3.33718 2.04323 0
M  V30 24432 H 2300.4 2.19027 3.31833 0
M  V30 24433 N 2301.4 -0.957948 1.25144 0
M  V30 24434 C 2302.65 -1.69879 1.09479 0
M  V30 24435 C 2302.97 -1.91545 -0.365468 0
M  V30 24436 O 2302.24 -1.50017 -1.25983 0
M  V30 24437 H 2300.82 -0.629518 0.40214 0
M  V30 24438 H 2303.48 -1.15191 1.57216 0
M  V30 24439 H 2302.58 -2.67937 1.60051 0
M  V30 24440 N 2302.88 -1.06677 -1.16008 0
M  V30 24441 C 2304.13 -0.78085 -1.85972 0
M  V30 24442 C 2304.44 0.695412 -1.82821 0
M  V30 24443 O 2305.65 1.09585 -2.48402 0
M  V30 24444 C 2304.1 -1.3467 -3.33754 0
M  V30 24445 C 2303.71 -2.85349 -3.45369 0
M  V30 24446 C 2305.46 -1.1385 -4.08948 0
M  V30 24447 C 2303.36 -3.35159 -4.8726 0
M  V30 24448 H 2302.29 -0.28842 -0.696656 0
M  V30 24449 H 2304.94 -1.28597 -1.30901 0
M  V30 24450 H 2303.33 -0.769342 -3.88455 0
M  V30 24451 H 2304.5 -3.4907 -3.0081 0
M  V30 24452 H 2302.81 -3.04881 -2.83613 0
M  V30 24453 H 2305.41 -1.48549 -5.13651 0
M  V30 24454 H 2305.75 -0.0771014 -4.16229 0
M  V30 24455 H 2306.29 -1.68186 -3.60497 0
M  V30 24456 H 2303.03 -4.40795 -4.8516 0
M  V30 24457 H 2302.55 -2.76188 -5.32428 0
M  V30 24458 H 2304.23 -3.30714 -5.56091 0
M  V30 24459 N 2304.36 1.32719 -0.8499 0
M  V30 24460 C 2305.59 2.01612 -0.464789 0
M  V30 24461 C 2306 1.63898 0.937163 0
M  V30 24462 O 2305.36 0.857885 1.61079 0
M  V30 24463 C 2305.41 3.56674 -0.588701 0
M  V30 24464 O 2305.13 3.93031 -1.93542 0
M  V30 24465 C 2306.63 4.4284 -0.201977 0
M  V30 24466 H 2303.85 0.645499 -0.183227 0
M  V30 24467 H 2306.39 1.69405 -1.14553 0
M  V30 24468 H 2304.55 3.87375 0.0442478 0
M  V30 24469 H 2304.96 4.87747 -1.9288 0
M  V30 24470 H 2306.44 5.50954 -0.339696 0
M  V30 24471 H 2306.91 4.30755 0.857149 0
M  V30 24472 H 2307.52 4.17519 -0.809806 0
M  V30 24473 N 2305.84 0.60738 1.45426 0
M  V30 24474 C 2307.06 0.10885 2.06613 0
M  V30 24475 C 2307.48 -1.20668 1.45206 0
M  V30 24476 O 2306.84 -1.73496 0.566162 0
M  V30 24477 C 2306.89 -0.0374712 3.61481 0
M  V30 24478 O 2306.61 1.22601 4.20596 0
M  V30 24479 C 2308.11 -0.567484 4.39653 0
M  V30 24480 H 2305.33 0.0687468 0.667469 0
M  V30 24481 H 2307.87 0.835054 1.86674 0
M  V30 24482 H 2306.03 -0.714001 3.80763 0
M  V30 24483 H 2306.44 1.05556 5.13769 0
M  V30 24484 H 2307.92 -0.618954 5.48519 0
M  V30 24485 H 2308.39 -1.58971 4.0942 0
M  V30 24486 H 2309 0.0749949 4.25234 0
M  V30 24487 N 2307.31 -1.53743 0.34653 0
M  V30 24488 C 2308.26 -2.2512 -0.508874 0
M  V30 24489 C 2309.23 -1.2506 -1.09313 0
M  V30 24490 O 2310.42 -1.53799 -1.12918 0
M  V30 24491 C 2307.56 -3.02968 -1.65241 0
M  V30 24492 C 2306.67 -4.17888 -1.09517 0
M  V30 24493 C 2305.8 -4.83216 -2.20625 0
M  V30 24494 C 2304.84 -5.90199 -1.62269 0
M  V30 24495 N 2303.98 -6.49296 -2.67131 0
M  V30 24496 H 2308.82 -2.9781 0.106336 0
M  V30 24497 H 2306.36 -1.4696 0.0642485 0
M  V30 24498 H 2308.32 -3.46364 -2.32568 0
M  V30 24499 H 2306.95 -2.32569 -2.23856 0
M  V30 24500 H 2306 -3.79112 -0.312751 0
M  V30 24501 H 2307.31 -4.94826 -0.628357 0
M  V30 24502 H 2306.46 -5.29699 -2.95811 0
M  V30 24503 H 2305.2 -4.05708 -2.70652 0
M  V30 24504 H 2304.21 -5.43097 -0.855893 0
M  V30 24505 H 2305.43 -6.69617 -1.1309 0
M  V30 24506 H 2303.38 -5.7465 -3.16407 0
M  V30 24507 H 2303.3 -7.21717 -2.25081 0
M  V30 24508 H 2304.56 -7.00431 -3.42077 0
M  V30 24509 N 2308.79 -0.0752207 -1.5742 0
M  V30 24510 C 2310.04 0.593991 -1.93906 0
M  V30 24511 C 2310.37 1.69055 -0.955731 0
M  V30 24512 O 2309.65 1.94495 0.0145031 0
M  V30 24513 C 2309.93 1.16774 -3.4064 0
M  V30 24514 C 2309.78 0.0776002 -4.49733 0
M  V30 24515 C 2311.1 2.07221 -3.88262 0
M  V30 24516 H 2308.22 0.214454 -0.705109 0
M  V30 24517 H 2310.86 -0.141887 -1.89469 0
M  V30 24518 H 2309.01 1.79488 -3.44552 0
M  V30 24519 H 2310.68 -0.555653 -4.57941 0
M  V30 24520 H 2308.93 -0.591361 -4.2975 0
M  V30 24521 H 2309.6 0.519507 -5.4955 0
M  V30 24522 H 2312.07 1.54438 -3.86378 0
M  V30 24523 H 2310.95 2.44299 -4.91537 0
M  V30 24524 H 2311.21 2.98185 -3.26402 0
M  V30 24525 N 2310.27 1.56347 0.198358 0
M  V30 24526 C 2311.52 1.79628 0.91742 0
M  V30 24527 C 2311.83 0.647873 1.84559 0
M  V30 24528 O 2313.04 0.764905 2.60502 0
M  V30 24529 C 2311.49 3.18193 1.68169 0
M  V30 24530 C 2311.1 4.40826 0.798512 0
M  V30 24531 C 2312.85 3.50787 2.39059 0
M  V30 24532 C 2310.75 5.70414 1.56147 0
M  V30 24533 H 2309.68 0.669768 0.346305 0
M  V30 24534 H 2312.33 1.82704 0.170768 0
M  V30 24535 H 2310.72 3.09359 2.47211 0
M  V30 24536 H 2311.89 4.60776 0.0469855 0
M  V30 24537 H 2310.21 4.15916 0.200613 0
M  V30 24538 H 2312.8 4.4484 2.96685 0
M  V30 24539 H 2313.15 2.74377 3.13087 0
M  V30 24540 H 2313.68 3.61055 1.66986 0
M  V30 24541 H 2310.42 6.49781 0.864028 0
M  V30 24542 H 2309.94 5.54487 2.28701 0
M  V30 24543 H 2311.62 6.11416 2.11611 0
M  V30 24544 N 2311.75 -0.465951 1.50554 0
M  V30 24545 C 2313.03 -1.22709 1.52322 0
M  V30 24546 C 2313.41 -2.09355 0.270844 0
M  V30 24547 O 2312.75 -2.15997 -0.745503 0
M  V30 24548 C 2312.96 -2.05369 2.82178 0
M  V30 24549 C 2314.31 -2.63384 3.33037 0
M  V30 24550 O 2315.34 -2.15607 2.83535 0
M  V30 24551 O 2314.19 -3.50449 4.19342 0
M  V30 24552 H 2311.29 -0.557111 0.611193 0
M  V30 24553 H 2313.83 -0.477353 1.62848 0
M  V30 24554 H 2312.61 -1.41551 3.648 0
M  V30 24555 H 2312.23 -2.87466 2.7468 0
M  V30 24556 N 2313.23 -1.40218 -0.719481 0
M  V30 24557 C 2314.45 -1.41783 -1.51368 0
M  V30 24558 C 2314.88 -0.0182685 -1.88091 0
M  V30 24559 O 2314.23 0.97268 -1.52999 0
M  V30 24560 C 2314.28 -2.3112 -2.76796 0
M  V30 24561 O 2313.39 -1.75177 -3.73345 0
M  V30 24562 H 2312.73 -0.482167 -0.456521 0
M  V30 24563 H 2315.26 -1.84402 -0.886408 0
M  V30 24564 H 2315.27 -2.46172 -3.25366 0
M  V30 24565 H 2313.94 -3.32824 -2.49401 0
M  V30 24566 H 2312.52 -1.6945 -3.32176 0
M  V30 24567 N 2314.7 0.951297 -1.25651 0
M  V30 24568 C 2315.93 1.72839 -1.13182 0
M  V30 24569 C 2316.34 1.86529 0.316795 0
M  V30 24570 O 2315.69 1.36492 1.22946 0
M  V30 24571 C 2315.75 3.15875 -1.71649 0
M  V30 24572 C 2315.41 3.25604 -3.20673 0
M  V30 24573 C 2316.41 3.09659 -4.17621 0
M  V30 24574 C 2314.09 3.49318 -3.60946 0
M  V30 24575 C 2316.09 3.1728 -5.52822 0
M  V30 24576 C 2313.77 3.56575 -4.96284 0
M  V30 24577 C 2314.77 3.4057 -5.92031 0
M  V30 24578 O 2314.46 3.47516 -7.24906 0
M  V30 24579 H 2314.19 0.548303 -0.395399 0
M  V30 24580 H 2316.75 1.20184 -1.66568 0
M  V30 24581 H 2314.98 3.69909 -1.12713 0
M  V30 24582 H 2316.67 3.75456 -1.54232 0
M  V30 24583 H 2317.43 2.91204 -3.87847 0
M  V30 24584 H 2313.31 3.60835 -2.86913 0
M  V30 24585 H 2316.85 3.04705 -6.27535 0
M  V30 24586 H 2312.75 3.74547 -5.25723 0
M  V30 24587 H 2313.52 3.64125 -7.33045 0
M  V30 24588 N 2316.18 1.07291 1.1544 0
M  V30 24589 C 2317.46 0.708824 1.82305 0
M  V30 24590 C 2317.84 -0.808773 1.94992 0
M  V30 24591 O 2317.19 -1.72296 1.50088 0
M  V30 24592 C 2317.4 1.42253 3.18693 0
M  V30 24593 C 2318.75 1.57424 3.94339 0
M  V30 24594 O 2319.77 1.38325 3.28245 0
M  V30 24595 O 2318.63 1.88843 5.12836 0
M  V30 24596 H 2315.72 0.252146 0.787624 0
M  V30 24597 H 2318.27 1.1738 1.22557 0
M  V30 24598 H 2317.04 2.45689 3.04553 0
M  V30 24599 H 2316.66 0.948291 3.86126 0
M  V30 24600 N 2317.66 -1.32267 0.856927 0
M  V30 24601 C 2318.59 -2.31316 0.318621 0
M  V30 24602 C 2319.57 -1.5978 -0.583459 0
M  V30 24603 O 2320.76 -1.87567 -0.503226 0
M  V30 24604 C 2317.89 -3.43799 -0.491918 0
M  V30 24605 C 2316.84 -4.26832 0.315924 0
M  V30 24606 C 2316.17 -5.31099 -0.619492 0
M  V30 24607 C 2317.47 -4.98991 1.54291 0
M  V30 24608 H 2319.16 -2.76589 1.14626 0
M  V30 24609 H 2316.71 -1.32973 0.552637 0
M  V30 24610 H 2318.66 -4.12132 -0.878939 0
M  V30 24611 H 2317.38 -2.97259 -1.35294 0
M  V30 24612 H 2316.04 -3.60149 0.684728 0
M  V30 24613 H 2315.69 -4.80813 -1.47742 0
M  V30 24614 H 2315.39 -5.87541 -0.0829589 0
M  V30 24615 H 2316.91 -6.02295 -1.00364 0
M  V30 24616 H 2318.33 -5.59993 1.22806 0
M  V30 24617 H 2316.73 -5.65168 2.01755 0
M  V30 24618 H 2317.8 -4.26724 2.30292 0
M  V30 24619 N 2319.14 -0.615084 -1.45102 0
M  V30 24620 C 2320.37 -0.119632 -2.06253 0
M  V30 24621 C 2320.78 1.20442 -1.45912 0
M  V30 24622 O 2320.12 1.74619 -0.570415 0
M  V30 24623 C 2320.18 0.086496 -3.59396 0
M  V30 24624 C 2319.85 -1.15691 -4.42114 0
M  V30 24625 C 2320.84 -2.07684 -4.76617 0
M  V30 24626 C 2318.53 -1.38783 -4.82747 0
M  V30 24627 C 2320.52 -3.21092 -5.50617 0
M  V30 24628 C 2318.21 -2.52491 -5.56499 0
M  V30 24629 C 2319.21 -3.43473 -5.90352 0
M  V30 24630 O 2318.89 -4.55201 -6.62607 0
M  V30 24631 H 2318.63 -0.069463 -0.672422 0
M  V30 24632 H 2321.18 -0.844918 -1.87217 0
M  V30 24633 H 2319.41 0.866757 -3.76861 0
M  V30 24634 H 2321.1 0.534484 -4.02366 0
M  V30 24635 H 2321.87 -1.91071 -4.45777 0
M  V30 24636 H 2317.74 -0.688625 -4.55828 0
M  V30 24637 H 2321.29 -3.9213 -5.76958 0
M  V30 24638 H 2317.19 -2.69053 -5.86754 0
M  V30 24639 H 2317.95 -4.53978 -6.81063 0
M  V30 24640 N 2320.62 1.53557 -0.354678 0
M  V30 24641 C 2321.57 2.26891 0.512155 0
M  V30 24642 C 2322.56 1.29454 1.09261 0
M  V30 24643 O 2323.77 1.47122 1.03706 0
M  V30 24644 H 2320.14 0.729176 0.183866 0
M  V30 24645 H 2322.11 2.98124 -0.128254 0
M  V30 24646 C 2320.86 3.06294 1.64558 0
M  V30 24647 H 2320.18 3.81106 1.20822 0
M  V30 24648 H 2321.62 3.60803 2.22705 0
M  V30 24649 C 2320.08 2.16467 2.58154 0
M  V30 24650 O 2320.61 1.76817 3.60692 0
M  V30 24651 N 2318.82 1.81321 2.27093 0
M  V30 24652 H 2318.37 2.13762 1.43748 0
M  V30 24653 H 2318.32 1.21503 2.89973 0
M  V30 24654 N 2322.1 0.083568 1.57378 0
M  V30 24655 C 2323.04 -0.879502 2.13386 0
M  V30 24656 C 2324.01 -1.28752 1.04939 0
M  V30 24657 O 2325.2 -1.3713 1.32665 0
M  V30 24658 C 2322.34 -2.13747 2.70936 0
M  V30 24659 C 2321.45 -1.78103 3.93578 0
M  V30 24660 C 2320.59 -2.98599 4.39331 0
M  V30 24661 C 2319.62 -2.59027 5.54591 0
M  V30 24662 N 2318.76 -3.72321 5.95249 0
M  V30 24663 H 2323.6 -0.395024 2.9537 0
M  V30 24664 H 2321.14 -0.183323 1.45953 0
M  V30 24665 H 2323.1 -2.87403 3.02416 0
M  V30 24666 H 2321.73 -2.59715 1.91698 0
M  V30 24667 H 2320.78 -0.944625 3.68485 0
M  V30 24668 H 2322.09 -1.44997 4.7726 0
M  V30 24669 H 2321.24 -3.80521 4.72535 0
M  V30 24670 H 2319.98 -3.34907 3.54526 0
M  V30 24671 H 2318.99 -1.7553 5.21027 0
M  V30 24672 H 2320.21 -2.23876 6.41137 0
M  V30 24673 H 2318.16 -4.08369 5.13392 0
M  V30 24674 H 2318.08 -3.43022 6.737 0
M  V30 24675 H 2319.34 -4.54786 6.3308 0
M  V30 24676 N 2323.57 -1.5645 -0.190064 0
M  V30 24677 C 2324.52 -1.9584 -1.25498 0
M  V30 24678 C 2325.52 -0.844511 -1.46848 0
M  V30 24679 O 2326.72 -1.02954 -1.4765 0
M  V30 24680 H 2323.1 -0.622813 -0.421436 0
M  V30 24681 H 2325.07 -2.84637 -0.895771 0
M  V30 24682 C 2323.82 -2.31845 -2.5912 0
M  V30 24683 H 2323.14 -3.17087 -2.43508 0
M  V30 24684 H 2324.58 -2.63266 -3.32366 0
M  V30 24685 C 2323.04 -1.15492 -3.16486 0
M  V30 24686 O 2323.57 -0.432605 -3.99364 0
M  V30 24687 N 2321.77 -0.930397 -2.75303 0
M  V30 24688 H 2321.32 -1.51952 -2.08011 0
M  V30 24689 H 2321.28 -0.153689 -3.14024 0
M  V30 24690 N 2325.05 0.45796 -1.50799 0
M  V30 24691 C 2326.3 1.20667 -1.62123 0
M  V30 24692 C 2326.62 1.9219 -0.329827 0
M  V30 24693 O 2325.89 1.84683 0.653376 0
M  V30 24694 H 2324.47 0.448401 -0.597449 0
M  V30 24695 H 2327.13 0.527063 -1.87638 0
M  V30 24696 H 2326.23 1.94747 -2.43885 0
M  V30 24697 N 2326.53 1.40598 0.712035 0
M  V30 24698 C 2327.78 1.38372 1.46752 0
M  V30 24699 C 2328.09 -0.00974952 1.95598 0
M  V30 24700 O 2329.3 -0.154629 2.71059 0
M  V30 24701 C 2327.75 2.43211 2.65285 0
M  V30 24702 C 2327.36 3.88386 2.23294 0
M  V30 24703 C 2329.11 2.50097 3.43004 0
M  V30 24704 C 2327.01 4.84814 3.38688 0
M  V30 24705 H 2325.94 0.514516 0.551171 0
M  V30 24706 H 2328.59 1.6635 0.774587 0
M  V30 24707 H 2326.98 2.08338 3.36766 0
M  V30 24708 H 2328.15 4.32422 1.5921 0
M  V30 24709 H 2326.46 3.85008 1.58611 0
M  V30 24710 H 2329.06 3.19327 4.28876 0
M  V30 24711 H 2329.4 1.5326 3.87062 0
M  V30 24712 H 2329.94 2.83979 2.78569 0
M  V30 24713 H 2326.68 5.82997 2.99658 0
M  V30 24714 H 2326.2 4.4544 4.01675 0
M  V30 24715 H 2327.88 5.04802 4.04703 0
M  V30 24716 N 2328.01 -0.94462 1.26153 0
M  V30 24717 C 2328.95 -2.04283 1.07411 0
M  V30 24718 C 2329.92 -1.66088 -0.0198121 0
M  V30 24719 O 2331.11 -1.90291 0.139297 0
M  V30 24720 C 2328.25 -3.37728 0.709509 0
M  V30 24721 C 2327.36 -3.8898 1.87933 0
M  V30 24722 C 2326.5 -5.10795 1.45816 0
M  V30 24723 C 2325.54 -5.543 2.59649 0
M  V30 24724 N 2324.67 -6.67321 2.18238 0
M  V30 24725 H 2329.51 -2.19647 2.01393 0
M  V30 24726 H 2327.05 -1.07624 1.00277 0
M  V30 24727 H 2329.01 -4.14441 0.479021 0
M  V30 24728 H 2327.64 -3.22221 -0.193332 0
M  V30 24729 H 2326.69 -3.08697 2.22285 0
M  V30 24730 H 2328 -4.17208 2.73384 0
M  V30 24731 H 2327.16 -5.94957 1.18791 0
M  V30 24732 H 2325.9 -4.84304 0.5745 0
M  V30 24733 H 2324.9 -4.68697 2.87407 0
M  V30 24734 H 2326.13 -5.82794 3.48609 0
M  V30 24735 H 2324.07 -6.4252 1.32301 0
M  V30 24736 H 2323.99 -6.95118 2.97233 0
M  V30 24737 H 2325.26 -7.54866 1.94416 0
M  V30 24738 N 2329.49 -1.07901 -1.1487 0
M  V30 24739 C 2330.42 -0.725926 -2.21929 0
M  V30 24740 C 2331.4 0.289241 -1.67623 0
M  V30 24741 O 2332.58 0.160753 -1.93534 0
M  V30 24742 C 2329.71 -0.128917 -3.47061 0
M  V30 24743 C 2328.67 -1.07186 -4.14361 0
M  V30 24744 C 2327.99 -0.337322 -5.33635 0
M  V30 24745 C 2329.29 -2.40783 -4.63488 0
M  V30 24746 H 2330.99 -1.62102 -2.51721 0
M  V30 24747 H 2328.53 -0.780859 -1.2099 0
M  V30 24748 H 2330.48 0.130073 -4.21199 0
M  V30 24749 H 2329.21 0.801285 -3.16618 0
M  V30 24750 H 2327.87 -1.31586 -3.42171 0
M  V30 24751 H 2327.52 0.596518 -4.9945 0
M  V30 24752 H 2327.22 -0.96589 -5.79607 0
M  V30 24753 H 2328.74 -0.086264 -6.10539 0
M  V30 24754 H 2330.15 -2.20678 -5.29126 0
M  V30 24755 H 2328.55 -2.99285 -5.20143 0
M  V30 24756 H 2329.62 -3.02683 -3.78829 0
M  V30 24757 N 2330.96 1.31811 -0.863929 0
M  V30 24758 C 2331.87 2.32428 -0.318502 0
M  V30 24759 C 2332.89 1.64452 0.568467 0
M  V30 24760 O 2334.07 1.9592 0.466625 0
M  V30 24761 C 2331.13 3.43413 0.476295 0
M  V30 24762 C 2330.19 4.27061 -0.437915 0
M  V30 24763 C 2329.42 5.32746 0.319045 0
M  V30 24764 O 2329.65 5.48996 1.54789 0
M  V30 24765 O 2328.58 6.01049 -0.319967 0
M  V30 24766 H 2332.41 2.80989 -1.15234 0
M  V30 24767 H 2329.99 1.356 -0.627126 0
M  V30 24768 H 2331.87 4.11076 0.927084 0
M  V30 24769 H 2330.55 2.97025 1.28678 0
M  V30 24770 H 2329.46 3.62174 -0.937077 0
M  V30 24771 H 2330.79 4.76998 -1.21383 0
M  V30 24772 N 2332.44 0.62277 1.44773 0
M  V30 24773 C 2333.69 0.121432 2.01334 0
M  V30 24774 C 2334 -1.26123 1.49507 0
M  V30 24775 O 2335.21 -1.85612 1.98142 0
M  V30 24776 C 2333.67 0.166362 3.59515 0
M  V30 24777 C 2333.27 1.54981 4.20339 0
M  V30 24778 C 2335.02 -0.278946 4.23583 0
M  V30 24779 C 2332.92 1.55031 5.70718 0
M  V30 24780 H 2331.85 0.0416304 0.75285 0
M  V30 24781 H 2334.51 0.780338 1.66081 0
M  V30 24782 H 2332.89 -0.559488 3.92028 0
M  V30 24783 H 2334.06 2.29858 3.99377 0
M  V30 24784 H 2332.38 1.93849 3.68526 0
M  V30 24785 H 2334.97 -0.29799 5.33869 0
M  V30 24786 H 2335.32 -1.30464 3.95329 0
M  V30 24787 H 2335.85 0.394132 3.95843 0
M  V30 24788 H 2332.59 2.55409 6.03694 0
M  V30 24789 H 2332.11 0.844349 5.93827 0
M  V30 24790 H 2333.79 1.28058 6.342 0
M  V30 24791 N 2333.92 -1.53367 0.362817 0
M  V30 24792 C 2335.15 -2.05634 -0.228577 0
M  V30 24793 C 2335.56 -1.23651 -1.42674 0
M  V30 24794 O 2334.92 -0.276502 -1.80393 0
M  V30 24795 C 2334.97 -3.5606 -0.624783 0
M  V30 24796 O 2334.69 -4.34934 0.525752 0
M  V30 24797 C 2336.19 -4.24573 -1.27486 0
M  V30 24798 H 2333.41 -0.669764 -0.0407066 0
M  V30 24799 H 2335.96 -1.97768 0.520386 0
M  V30 24800 H 2334.11 -3.64085 -1.32366 0
M  V30 24801 H 2334.53 -5.24095 0.206061 0
M  V30 24802 H 2336 -5.31153 -1.50267 0
M  V30 24803 H 2336.48 -3.7812 -2.23432 0
M  V30 24804 H 2337.08 -4.20794 -0.617484 0
M  V30 24805 N 2335.4 -0.091913 -1.57332 0
M  V30 24806 C 2336.64 0.573391 -1.94525 0
M  V30 24807 C 2336.98 1.68031 -0.973607 0
M  V30 24808 O 2336.25 1.94499 -0.00612645 0
M  V30 24809 C 2336.54 1.13155 -3.4186 0
M  V30 24810 C 2336.39 0.0298956 -4.4979 0
M  V30 24811 C 2337.71 2.03091 -3.90438 0
M  V30 24812 H 2334.83 0.206963 -0.707344 0
M  V30 24813 H 2337.47 -0.161975 -1.89308 0
M  V30 24814 H 2335.62 1.75824 -3.46436 0
M  V30 24815 H 2337.29 -0.604193 -4.57326 0
M  V30 24816 H 2335.53 -0.636909 -4.29099 0
M  V30 24817 H 2336.2 0.46119 -5.5007 0
M  V30 24818 H 2338.68 1.50331 -3.87995 0
M  V30 24819 H 2337.56 2.39072 -4.94101 0
M  V30 24820 H 2337.82 2.94707 -3.29546 0
M  V30 24821 N 2336.88 1.56548 0.181765 0
M  V30 24822 C 2337.81 1.98625 1.22761 0
M  V30 24823 C 2338.79 0.860215 1.46746 0
M  V30 24824 O 2339.97 1.12553 1.58257 0
M  V30 24825 C 2337.1 2.3372 2.5689 0
M  V30 24826 C 2336.06 3.49186 2.47494 0
M  V30 24827 C 2335.38 3.69993 3.86017 0
M  V30 24828 C 2336.68 4.82963 1.98857 0
M  V30 24829 H 2338.38 2.8624 0.877892 0
M  V30 24830 H 2335.92 1.37713 0.420856 0
M  V30 24831 H 2337.88 2.61752 3.30248 0
M  V30 24832 H 2336.6 1.43002 2.93629 0
M  V30 24833 H 2335.26 3.21265 1.7659 0
M  V30 24834 H 2334.91 2.76584 4.20132 0
M  V30 24835 H 2334.61 4.47679 3.80601 0
M  V30 24836 H 2336.13 4.00415 4.60977 0
M  V30 24837 H 2337.54 5.09939 2.61983 0
M  V30 24838 H 2335.94 5.64212 2.04414 0
M  V30 24839 H 2337.01 4.75654 0.942381 0
M  V30 24840 N 2338.35 -0.449957 1.5104 0
M  V30 24841 C 2339.3 -1.5452 1.71441 0
M  V30 24842 C 2340.27 -1.56521 0.555899 0
M  V30 24843 O 2341.46 -1.73727 0.788902 0
M  V30 24844 C 2338.6 -2.9234 1.83389 0
M  V30 24845 C 2337.71 -2.99965 3.10878 0
M  V30 24846 C 2336.84 -4.28829 3.13495 0
M  V30 24847 C 2335.88 -4.30274 4.35351 0
M  V30 24848 N 2335.02 -5.50643 4.35588 0
M  V30 24849 H 2339.86 -1.36428 2.64936 0
M  V30 24850 H 2337.4 -0.662959 1.31314 0
M  V30 24851 H 2339.36 -3.7229 1.88298 0
M  V30 24852 H 2337.99 -3.09018 0.93314 0
M  V30 24853 H 2337.04 -2.12755 3.1534 0
M  V30 24854 H 2338.35 -2.96893 4.00819 0
M  V30 24855 H 2337.5 -5.17143 3.1725 0
M  V30 24856 H 2336.24 -4.34539 2.21421 0
M  V30 24857 H 2335.25 -3.40354 4.31786 0
M  V30 24858 H 2336.47 -4.26239 5.28675 0
M  V30 24859 H 2334.42 -5.57098 3.46378 0
M  V30 24860 H 2334.34 -5.494 5.19323 0
M  V30 24861 H 2335.6 -6.41024 4.43518 0
M  V30 24862 N 2339.83 -1.40974 -0.704569 0
M  V30 24863 C 2340.76 -1.44876 -1.83121 0
M  V30 24864 C 2341.74 -0.308409 -1.67281 0
M  V30 24865 O 2342.93 -0.518589 -1.87148 0
M  V30 24866 C 2340.06 -1.32142 -3.21179 0
M  V30 24867 C 2339.01 -2.43894 -3.5171 0
M  V30 24868 C 2338.34 -2.16231 -4.89028 0
M  V30 24869 C 2339.64 -3.86238 -3.51593 0
M  V30 24870 H 2341.33 -2.39164 -1.80113 0
M  V30 24871 H 2338.88 -1.15116 -0.865124 0
M  V30 24872 H 2340.83 -1.33486 -3.99699 0
M  V30 24873 H 2339.56 -0.343336 -3.2479 0
M  V30 24874 H 2338.21 -2.41818 -2.75535 0
M  V30 24875 H 2337.86 -1.16787 -4.89254 0
M  V30 24876 H 2337.56 -2.91109 -5.10421 0
M  V30 24877 H 2339.09 -2.19275 -5.69869 0
M  V30 24878 H 2340.5 -3.90078 -4.20134 0
M  V30 24879 H 2338.9 -4.60725 -3.84515 0
M  V30 24880 H 2339.97 -4.15033 -2.50749 0
M  V30 24881 N 2341.31 0.937917 -1.26653 0
M  V30 24882 C 2342.59 1.66202 -1.03132 0
M  V30 24883 C 2342.97 2.06523 0.437219 0
M  V30 24884 O 2342.32 1.79156 1.41828 0
M  V30 24885 C 2342.53 2.87177 -1.98319 0
M  V30 24886 C 2343.87 3.58754 -2.27113 0
M  V30 24887 O 2344.9 2.97287 -1.96211 0
M  V30 24888 O 2343.76 4.69474 -2.79744 0
M  V30 24889 H 2340.85 0.727979 -0.392396 0
M  V30 24890 H 2343.4 0.989358 -1.37876 0
M  V30 24891 H 2342.17 2.54296 -2.97404 0
M  V30 24892 H 2341.79 3.62167 -1.64075 0
M  V30 24893 N 2342.79 1.08509 1.14296 0
M  V30 24894 C 2344.2 0.812926 1.37345 0
M  V30 24895 C 2344.4 -0.577291 1.93053 0
M  V30 24896 O 2343.46 -1.3339 2.14391 0
M  V30 24897 C 2344.77 1.89646 2.33356 0
M  V30 24898 C 2346.32 1.92259 2.46993 0
M  V30 24899 C 2346.8 2.9973 3.46303 0
M  V30 24900 N 2348.29 2.98908 3.53847 0
M  V30 24901 C 2349.02 3.78708 4.30544 0
M  V30 24902 N 2348.52 4.68389 5.10474 0
M  V30 24903 N 2350.31 3.67006 4.2575 0
M  V30 24904 H 2342.46 1.98152 0.764832 0
M  V30 24905 H 2344.73 0.859966 0.398951 0
M  V30 24906 H 2344.43 2.89601 1.9956 0
M  V30 24907 H 2344.31 1.76665 3.33271 0
M  V30 24908 H 2346.69 0.929495 2.80079 0
M  V30 24909 H 2346.77 2.09319 1.47035 0
M  V30 24910 H 2346.42 3.99247 3.1395 0
M  V30 24911 H 2346.35 2.79915 4.46044 0
M  V30 24912 H 2348.84 2.33909 2.96808 0
M  V30 24913 H 2349.15 5.25883 5.66275 0
M  V30 24914 H 2347.5 4.72431 5.09739 0
M  V30 24915 H 2350.69 2.96311 3.62378 0
M  V30 24916 H 2350.86 4.29436 4.85272 0
M  V30 24917 N 2344.27 -1.31351 0.870907 0
M  V30 24918 C 2345.21 -2.30437 0.316486 0
M  V30 24919 C 2346.21 -1.5956 -0.568937 0
M  V30 24920 O 2347.41 -1.74156 -0.454934 0
M  V30 24921 H 2343.79 -0.747331 0.0836653 0
M  V30 24922 H 2345.76 -2.74671 1.16611 0
M  V30 24923 C 2344.51 -3.44559 -0.46629 0
M  V30 24924 H 2343.83 -3.9927 0.205757 0
M  V30 24925 H 2345.27 -4.16004 -0.819541 0
M  V30 24926 C 2343.73 -2.93283 -1.65792 0
M  V30 24927 O 2344.26 -2.9213 -2.75723 0
M  V30 24928 N 2342.47 -2.49472 -1.49037 0
M  V30 24929 H 2342.01 -2.50609 -0.596076 0
M  V30 24930 H 2341.97 -2.1552 -2.28907 0
M  V30 24931 N 2345.74 -0.630439 -1.44441 0
M  V30 24932 C 2346.65 0.0761281 -2.34476 0
M  V30 24933 C 2347.67 0.836423 -1.52578 0
M  V30 24934 O 2348.85 0.788842 -1.85309 0
M  V30 24935 C 2345.91 1.04593 -3.30547 0
M  V30 24936 C 2344.97 0.285085 -4.28352 0
M  V30 24937 C 2344.21 1.20869 -5.19833 0
M  V30 24938 O 2344.43 2.44738 -5.15228 0
M  V30 24939 O 2343.36 0.693386 -5.97893 0
M  V30 24940 H 2347.19 -0.664376 -2.96344 0
M  V30 24941 H 2344.77 -0.390635 -1.44203 0
M  V30 24942 H 2346.66 1.60389 -3.89684 0
M  V30 24943 H 2345.33 1.76706 -2.71213 0
M  V30 24944 H 2344.24 -0.315903 -3.72764 0
M  V30 24945 H 2345.57 -0.39601 -4.90604 0
M  V30 24946 N 2347.22 1.53172 -0.370945 0
M  V30 24947 C 2348.17 2.25901 0.472995 0
M  V30 24948 C 2349.14 1.26783 1.07309 0
M  V30 24949 O 2350.32 1.55576 1.10457 0
M  V30 24950 C 2347.46 3.05558 1.604 0
M  V30 24951 C 2346.58 4.19577 1.02855 0
M  V30 24952 C 2345.71 4.86665 2.1291 0
M  V30 24953 C 2344.75 5.92706 1.52859 0
M  V30 24954 N 2343.89 6.53464 2.56768 0
M  V30 24955 H 2348.73 2.97603 -0.153701 0
M  V30 24956 H 2346.27 1.46839 -0.0876204 0
M  V30 24957 H 2348.22 3.5002 2.27028 0
M  V30 24958 H 2346.85 2.36101 2.20127 0
M  V30 24959 H 2345.91 3.79562 0.252398 0
M  V30 24960 H 2347.22 4.95763 0.549555 0
M  V30 24961 H 2346.37 5.34338 2.87347 0
M  V30 24962 H 2345.11 4.09962 2.64163 0
M  V30 24963 H 2344.12 5.4439 0.769383 0
M  V30 24964 H 2345.34 6.71332 1.02423 0
M  V30 24965 H 2343.29 5.79611 3.07224 0
M  V30 24966 H 2343.2 7.25206 2.1357 0
M  V30 24967 H 2344.47 7.05784 3.30891 0
M  V30 24968 N 2348.7 0.100255 1.57281 0
M  V30 24969 C 2349.95 -0.562234 1.94538 0
M  V30 24970 C 2350.28 -1.6787 0.982344 0
M  V30 24971 O 2349.53 -1.957 0.00284375 0
M  V30 24972 C 2349.83 -1.15253 3.38307 0
M  V30 24973 C 2349.5 -0.159329 4.50618 0
M  V30 24974 C 2348.16 0.113826 4.81065 0
M  V30 24975 C 2350.51 0.518552 5.18614 0
M  V30 24976 C 2347.84 1.07147 5.76833 0
M  V30 24977 C 2350.19 1.4647 6.1541 0
M  V30 24978 C 2348.85 1.74603 6.44259 0
M  V30 24979 H 2348.12 -0.205736 0.711866 0
M  V30 24980 H 2350.77 0.177184 1.90679 0
M  V30 24981 H 2349.08 -1.9683 3.3877 0
M  V30 24982 H 2350.77 -1.6729 3.64438 0
M  V30 24983 H 2347.36 -0.382416 4.26891 0
M  V30 24984 H 2351.55 0.320668 4.95263 0
M  V30 24985 H 2346.8 1.29638 5.97498 0
M  V30 24986 H 2350.98 1.99575 6.6719 0
M  V30 24987 H 2348.6 2.48966 7.18276 0
M  V30 24988 N 2350.18 -1.56643 -0.17346 0
M  V30 24989 C 2351.6 -1.50713 -0.525148 0
M  V30 24990 C 2351.8 -0.804139 -1.84759 0
M  V30 24991 O 2350.85 -0.363618 -2.49868 0
M  V30 24992 C 2352.16 -2.95442 -0.559885 0
M  V30 24993 C 2353.71 -3.06235 -0.647234 0
M  V30 24994 C 2354.19 -4.52418 -0.712884 0
M  V30 24995 N 2355.68 -4.56656 -0.775831 0
M  V30 24996 C 2356.41 -5.67107 -0.847164 0
M  V30 24997 N 2355.91 -6.87195 -0.879464 0
M  V30 24998 N 2357.7 -5.55073 -0.88602 0
M  V30 24999 H 2349.85 -2.00752 0.693717 0
M  V30 25000 H 2352.12 -0.914481 0.249857 0
M  V30 25001 H 2351.82 -3.50022 0.34311 0
M  V30 25002 H 2351.7 -3.49971 -1.40712 0
M  V30 25003 H 2354.08 -2.5169 -1.54066 0
M  V30 25004 H 2354.16 -2.54794 0.226631 0
M  V30 25005 H 2353.81 -5.07594 0.176273 0
M  V30 25006 H 2353.74 -5.01613 -1.60286 0
M  V30 25007 H 2356.23 -3.70194 -0.759239 0
M  V30 25008 H 2356.54 -7.67123 -0.935009 0
M  V30 25009 H 2354.89 -6.8981 -0.847777 0
M  V30 25010 H 2358.08 -4.60174 -0.857772 0
M  V30 25011 H 2358.25 -6.41173 -0.93815 0
M  V30 25012 N 2351.66 0.44194 -1.51277 0
M  V30 25013 C 2352.93 1.2027 -1.54255 0
M  V30 25014 C 2353.31 2.08898 -0.304116 0
M  V30 25015 O 2352.66 2.17155 0.711046 0
M  V30 25016 C 2352.87 2.00854 -2.8541 0
M  V30 25017 C 2354.22 2.58053 -3.37185 0
M  V30 25018 O 2355.24 2.11069 -2.86929 0
M  V30 25019 O 2354.1 3.43733 -4.24864 0
M  V30 25020 H 2351.2 0.547317 -0.619978 0
M  V30 25021 H 2353.74 0.451385 -1.63587 0
M  V30 25022 H 2352.52 1.3573 -3.67006 0
M  V30 25023 H 2352.14 2.8306 -2.79218 0
M  V30 25024 N 2353.14 1.41345 0.697083 0
M  V30 25025 C 2354.38 1.39921 1.45276 0
M  V30 25026 C 2354.7 0.0109968 1.95597 0
M  V30 25027 O 2355.9 -0.125871 2.71208 0
M  V30 25028 C 2354.36 2.46011 2.62691 0
M  V30 25029 C 2353.97 3.90732 2.19162 0
M  V30 25030 C 2355.71 2.53721 3.40332 0
M  V30 25031 C 2353.62 4.88379 3.33526 0
M  V30 25032 H 2352.55 0.520333 0.545683 0
M  V30 25033 H 2355.2 1.67162 0.7569 0
M  V30 25034 H 2353.58 2.11898 3.34537 0
M  V30 25035 H 2354.76 4.34086 1.54615 0
M  V30 25036 H 2353.07 3.86669 1.54519 0
M  V30 25037 H 2355.67 3.23858 4.25465 0
M  V30 25038 H 2356.01 1.57356 3.85415 0
M  V30 25039 H 2356.54 2.86918 2.75541 0
M  V30 25040 H 2353.28 5.86143 2.93457 0
M  V30 25041 H 2352.8 4.49675 3.96928 0
M  V30 25042 H 2354.48 5.09066 3.99326 0
M  V30 25043 N 2354.61 -0.931187 1.27148 0
M  V30 25044 C 2356.03 -1.20651 1.04477 0
M  V30 25045 C 2356.23 -2.00253 -0.22385 0
M  V30 25046 O 2355.29 -2.34738 -0.93029 0
M  V30 25047 C 2356.6 -1.95805 2.28212 0
M  V30 25048 C 2358.15 -2.08758 2.33215 0
M  V30 25049 C 2358.62 -2.87316 3.5667 0
M  V30 25050 N 2360.11 -2.94886 3.57206 0
M  V30 25051 C 2360.85 -3.56126 4.49401 0
M  V30 25052 N 2360.34 -4.18786 5.51896 0
M  V30 25053 N 2362.14 -3.53496 4.37032 0
M  V30 25054 H 2354.29 -0.399296 2.08613 0
M  V30 25055 H 2356.55 -0.239237 0.917317 0
M  V30 25056 H 2356.26 -1.44731 3.2054 0
M  V30 25057 H 2356.13 -2.96434 2.33253 0
M  V30 25058 H 2358.52 -2.5902 1.41395 0
M  V30 25059 H 2358.6 -1.0736 2.3218 0
M  V30 25060 H 2358.24 -2.37738 4.48824 0
M  V30 25061 H 2358.17 -3.88992 3.54955 0
M  V30 25062 H 2360.66 -2.50349 2.83079 0
M  V30 25063 H 2360.98 -4.63443 6.18418 0
M  V30 25064 H 2359.32 -4.17343 5.55743 0
M  V30 25065 H 2362.51 -3.03743 3.56171 0
M  V30 25066 H 2362.69 -4.00933 5.09074 0
M  V30 25067 N 2356.09 -1.09114 -1.13719 0
M  V30 25068 C 2357.51 -0.820198 -1.36912 0
M  V30 25069 C 2357.71 0.567045 -1.93357 0
M  V30 25070 O 2356.76 1.32251 -2.15095 0
M  V30 25071 C 2358.08 -1.90881 -2.32347 0
M  V30 25072 C 2359.62 -1.93566 -2.4597 0
M  V30 25073 C 2360.1 -3.01562 -3.44709 0
M  V30 25074 N 2361.59 -3.00781 -3.52257 0
M  V30 25075 C 2362.33 -3.80986 -4.28529 0
M  V30 25076 N 2361.82 -4.7109 -5.07982 0
M  V30 25077 N 2363.61 -3.69258 -4.23798 0
M  V30 25078 H 2355.77 -1.98554 -0.754313 0
M  V30 25079 H 2358.03 -0.86207 -0.394385 0
M  V30 25080 H 2357.73 -2.90655 -1.98022 0
M  V30 25081 H 2357.61 -1.7843 -3.32329 0
M  V30 25082 H 2360 -0.944335 -2.79582 0
M  V30 25083 H 2360.08 -2.10096 -1.45923 0
M  V30 25084 H 2359.72 -4.00906 -3.11828 0
M  V30 25085 H 2359.65 -2.82277 -4.44553 0
M  V30 25086 H 2362.14 -2.3548 -2.95563 0
M  V30 25087 H 2362.45 -5.28879 -5.63478 0
M  V30 25088 H 2360.8 -4.75128 -5.07226 0
M  V30 25089 H 2363.99 -2.98228 -3.60801 0
M  V30 25090 H 2364.16 -4.32003 -4.82988 0
M  V30 25091 N 2357.57 1.30887 -0.877861 0
M  V30 25092 C 2358.8 2.0029 -0.506714 0
M  V30 25093 C 2359.21 1.6602 0.90742 0
M  V30 25094 O 2358.55 0.889698 1.60717 0
M  V30 25095 C 2358.61 3.54571 -0.593292 0
M  V30 25096 C 2358.28 4.12337 -1.97046 0
M  V30 25097 C 2359.27 4.2886 -2.93897 0
M  V30 25098 C 2356.96 4.47882 -2.27391 0
M  V30 25099 C 2358.95 4.80128 -4.19232 0
M  V30 25100 C 2356.64 4.98851 -3.52974 0
M  V30 25101 C 2357.64 5.14926 -4.4871 0
M  V30 25102 O 2357.33 5.64798 -5.72066 0
M  V30 25103 H 2357.06 0.647231 -0.195111 0
M  V30 25104 H 2359.61 1.67908 -1.18304 0
M  V30 25105 H 2357.84 3.86447 0.139989 0
M  V30 25106 H 2359.53 4.05222 -0.234443 0
M  V30 25107 H 2360.3 4.01709 -2.71763 0
M  V30 25108 H 2356.18 4.34642 -1.53647 0
M  V30 25109 H 2359.72 4.9259 -4.93964 0
M  V30 25110 H 2355.62 5.25437 -3.74948 0
M  V30 25111 H 2356.38 5.83153 -5.74347 0
M  V30 25112 N 2359.05 0.638091 1.44105 0
M  V30 25113 C 2360.3 0.14278 2.01194 0
M  V30 25114 C 2360.61 -1.2453 1.50837 0
M  V30 25115 O 2361.82 -1.835 2.001 0
M  V30 25116 C 2360.27 0.204484 3.59319 0
M  V30 25117 C 2359.88 1.59431 4.18671 0
M  V30 25118 C 2361.62 -0.234004 4.23855 0
M  V30 25119 C 2359.53 1.61075 5.69042 0
M  V30 25120 H 2358.46 0.0496131 0.752366 0
M  V30 25121 H 2361.11 0.79791 1.65244 0
M  V30 25122 H 2359.49 -0.517877 3.92599 0
M  V30 25123 H 2360.67 2.34081 3.96917 0
M  V30 25124 H 2358.98 1.97747 3.66449 0
M  V30 25125 H 2361.58 -0.241349 5.34155 0
M  V30 25126 H 2361.92 -1.26263 3.9669 0
M  V30 25127 H 2362.46 0.436095 3.95402 0
M  V30 25128 H 2359.19 2.61798 6.00951 0
M  V30 25129 H 2358.71 0.907285 5.92898 0
M  V30 25130 H 2360.39 1.34777 6.32807 0
M  V30 25131 N 2360.53 -1.52973 0.379063 0
M  V30 25132 C 2361.94 -1.86447 -0.0972197 0
M  V30 25133 C 2362.29 -1.29916 -1.47025 0
M  V30 25134 O 2361.41 -0.626469 -2.07134 0
M  V30 25135 C 2362.01 -3.38304 -0.183189 0
M  V30 25136 C 2360.57 -3.71526 -0.603747 0
M  V30 25137 C 2359.71 -2.76254 0.240681 0
M  V30 25138 H 2362.66 -1.47029 0.597341 0
M  V30 25139 H 2362.69 -3.67008 -1.00426 0
M  V30 25140 H 2362.2 -3.79419 0.816257 0
M  V30 25141 H 2360.3 -3.35976 -1.61093 0
M  V30 25142 H 2360.41 -4.77677 -0.369002 0
M  V30 25143 H 2358.78 -2.53015 -0.292503 0
M  V30 25144 H 2359.56 -3.20204 1.23792 0
M  V30 25145 N 2362 -0.108595 -1.57225 0
M  V30 25146 C 2362.95 0.862847 -2.16004 0
M  V30 25147 C 2363.95 1.28272 -1.10646 0
M  V30 25148 O 2365.15 1.25568 -1.28968 0
M  V30 25149 H 2361.53 0.29633 -0.691153 0
M  V30 25150 H 2363.5 0.342523 -2.96428 0
M  V30 25151 C 2362.25 2.10711 -2.76579 0
M  V30 25152 H 2361.57 1.79294 -3.57343 0
M  V30 25153 H 2363.01 2.76712 -3.21258 0
M  V30 25154 C 2361.47 2.89004 -1.73142 0
M  V30 25155 O 2362 3.84024 -1.17849 0
M  V30 25156 N 2360.2 2.52799 -1.43322 0
M  V30 25157 H 2359.75 1.75598 -1.88476 0
M  V30 25158 H 2359.71 3.05481 -0.743539 0
M  V30 25159 N 2363.48 1.56732 0.16515 0
M  V30 25160 C 2364.43 1.97811 1.22366 0
M  V30 25161 C 2365.42 0.867766 1.45486 0
M  V30 25162 O 2366.63 1.0529 1.45993 0
M  V30 25163 H 2363 0.629438 0.411474 0
M  V30 25164 H 2364.98 2.86027 0.850375 0
M  V30 25165 C 2363.72 2.35938 2.55398 0
M  V30 25166 H 2363.05 3.2092 2.38433 0
M  V30 25167 H 2364.49 2.6852 3.28136 0
M  V30 25168 C 2362.95 1.20512 3.14608 0
M  V30 25169 O 2363.48 0.496086 3.98625 0
M  V30 25170 N 2361.68 0.974078 2.73788 0
M  V30 25171 H 2361.23 1.55242 2.05567 0
M  V30 25172 H 2361.19 0.203629 3.1374 0
M  V30 25173 N 2364.96 -0.433911 1.51509 0
M  V30 25174 C 2365.87 -1.55207 1.7592 0
M  V30 25175 C 2366.89 -1.61661 0.643574 0
M  V30 25176 O 2368.06 -1.78839 0.926214 0
M  V30 25177 C 2365.13 -2.91161 1.88218 0
M  V30 25178 C 2364.19 -2.94796 3.12079 0
M  V30 25179 C 2363.42 -4.24266 3.23782 0
M  V30 25180 O 2363.64 -5.16829 2.41339 0
M  V30 25181 O 2362.58 -4.34255 4.16781 0
M  V30 25182 H 2366.4 -1.37522 2.70779 0
M  V30 25183 H 2363.99 -0.617269 1.36052 0
M  V30 25184 H 2365.87 -3.71841 1.98273 0
M  V30 25185 H 2364.55 -3.08967 0.965467 0
M  V30 25186 H 2363.45 -2.13059 3.07501 0
M  V30 25187 H 2364.79 -2.81936 4.03451 0
M  V30 25188 N 2366.44 -1.41713 -0.689577 0
M  V30 25189 C 2367.72 -1.3188 -1.44454 0
M  V30 25190 C 2368.1 0.0508166 -2.11039 0
M  V30 25191 O 2367.44 1.06544 -2.0214 0
M  V30 25192 C 2367.65 -2.47649 -2.45908 0
M  V30 25193 C 2369 -2.8909 -3.10986 0
M  V30 25194 O 2370.03 -2.47432 -2.56234 0
M  V30 25195 O 2368.88 -3.61144 -4.10167 0
M  V30 25196 H 2365.98 -0.51932 -0.643611 0
M  V30 25197 H 2368.52 -1.5369 -0.719549 0
M  V30 25198 H 2367.3 -3.39018 -1.95403 0
M  V30 25199 H 2366.92 -2.27748 -3.25909 0
M  V30 25200 N 2367.92 0.924431 -1.2764 0
M  V30 25201 C 2369.19 1.65099 -1.04889 0
M  V30 25202 C 2369.57 2.06975 0.41529 0
M  V30 25203 O 2368.92 1.80651 1.3992 0
M  V30 25204 C 2369.13 2.85058 -2.01353 0
M  V30 25205 C 2370.48 3.56325 -2.30906 0
M  V30 25206 O 2371.5 2.9519 -1.99353 0
M  V30 25207 O 2370.36 4.6648 -2.84708 0
M  V30 25208 H 2367.46 0.723777 -0.400096 0
M  V30 25209 H 2370 0.974679 -1.38918 0
M  V30 25210 H 2368.77 2.51128 -3.00084 0
M  V30 25211 H 2368.4 3.60407 -1.67907 0
M  V30 25212 N 2369.39 1.09715 1.13139 0
M  V30 25213 C 2370.62 0.855689 1.88047 0
M  V30 25214 C 2371.03 -0.596887 1.79538 0
M  V30 25215 O 2370.38 -1.4228 1.16198 0
M  V30 25216 C 2370.44 1.21595 3.38312 0
M  V30 25217 C 2370.1 2.67404 3.706 0
M  V30 25218 C 2371.1 3.65649 3.6959 0
M  V30 25219 C 2368.78 3.036 4.00165 0
M  V30 25220 C 2370.78 4.98117 3.97691 0
M  V30 25221 C 2368.46 4.36258 4.27927 0
M  V30 25222 C 2369.46 5.33326 4.26676 0
M  V30 25223 O 2369.15 6.63597 4.53756 0
M  V30 25224 H 2368.88 0.307379 0.602075 0
M  V30 25225 H 2371.44 1.46345 1.44126 0
M  V30 25226 H 2369.67 0.551244 3.82751 0
M  V30 25227 H 2371.36 0.953153 3.9455 0
M  V30 25228 H 2372.12 3.39029 3.46821 0
M  V30 25229 H 2368 2.28677 4.00285 0
M  V30 25230 H 2371.54 5.73873 3.9663 0
M  V30 25231 H 2367.44 4.62621 4.50169 0
M  V30 25232 H 2368.21 6.69115 4.7141 0
M  V30 25233 N 2370.87 -1.30419 0.88479 0
M  V30 25234 C 2372.28 -1.78301 0.553688 0
M  V30 25235 C 2372.63 -1.72752 -0.930122 0
M  V30 25236 O 2371.76 -1.30426 -1.72679 0
M  V30 25237 C 2372.35 -3.23759 0.998291 0
M  V30 25238 C 2370.91 -3.69477 0.718605 0
M  V30 25239 C 2370.06 -2.50876 1.18137 0
M  V30 25240 H 2373.01 -1.17292 1.06903 0
M  V30 25241 H 2373.03 -3.79091 0.327184 0
M  V30 25242 H 2372.54 -3.27765 2.07826 0
M  V30 25243 H 2370.65 -3.70958 -0.349378 0
M  V30 25244 H 2370.76 -4.60955 1.30603 0
M  V30 25245 H 2369.12 -2.47515 0.600713 0
M  V30 25246 H 2369.91 -2.5762 2.26907 0
M  V30 25247 N 2372.35 -0.645724 -1.43764 0
M  V30 25248 C 2373.3 0.062444 -2.32516 0
M  V30 25249 C 2374.29 0.820829 -1.48185 0
M  V30 25250 O 2375.5 0.732077 -1.6444 0
M  V30 25251 H 2371.87 0.0389732 -0.750989 0
M  V30 25252 H 2373.84 -0.703943 -2.89978 0
M  V30 25253 C 2372.59 1.02038 -3.32391 0
M  V30 25254 H 2371.92 0.446242 -3.97302 0
M  V30 25255 H 2373.36 1.4851 -3.97141 0
M  V30 25256 C 2371.82 2.11276 -2.62419 0
M  V30 25257 O 2372.35 3.19556 -2.43406 0
M  V30 25258 N 2370.55 1.8762 -2.21917 0
M  V30 25259 H 2370.1 0.995661 -2.3758 0
M  V30 25260 H 2370.06 2.60907 -1.75428 0
M  V30 25261 N 2373.83 1.5277 -0.38717 0
M  V30 25262 C 2375.07 2.03463 0.195502 0
M  V30 25263 C 2375.43 1.26747 1.4422 0
M  V30 25264 O 2376.63 1.67553 2.10189 0
M  V30 25265 C 2374.9 3.5444 0.459035 0
M  V30 25266 S 2376.46 4.26964 1.01229 0
M  V30 25267 H 2373.28 0.70885 0.0552551 0
M  V30 25268 H 2375.88 1.88037 -0.535026 0
M  V30 25269 H 2374.59 4.07865 -0.455453 0
M  V30 25270 H 2374.12 3.74069 1.21804 0
M  V30 25271 H 2376.13 4.39945 2.29484 0
M  V30 25272 N 2375.31 0.116931 1.57166 0
M  V30 25273 C 2376.25 -0.85138 2.16458 0
M  V30 25274 C 2377.25 -1.27684 1.11325 0
M  V30 25275 O 2378.45 -1.24882 1.29632 0
M  V30 25276 H 2374.83 -0.29266 0.692715 0
M  V30 25277 H 2376.8 -0.326797 2.96605 0
M  V30 25278 C 2375.55 -2.09241 2.77693 0
M  V30 25279 H 2374.87 -1.77396 3.58289 0
M  V30 25280 H 2376.31 -2.75004 3.22721 0
M  V30 25281 C 2374.77 -2.88082 1.74672 0
M  V30 25282 O 2375.3 -3.83394 1.19884 0
M  V30 25283 N 2373.51 -2.52035 1.44661 0
M  V30 25284 H 2373.05 -1.74596 1.89405 0
M  V30 25285 H 2373.01 -3.05083 0.759729 0
M  V30 25286 N 2376.78 -1.56818 -0.156836 0
M  V30 25287 C 2377.71 -2.00553 -1.19586 0
M  V30 25288 C 2378.7 -0.883452 -1.45359 0
M  V30 25289 O 2379.88 -1.15057 -1.56447 0
M  V30 25290 C 2377.01 -2.37777 -2.53139 0
M  V30 25291 C 2375.96 -3.53079 -2.41907 0
M  V30 25292 C 2375.29 -3.76088 -3.80082 0
M  V30 25293 C 2376.59 -4.86065 -1.91149 0
M  V30 25294 H 2378.28 -2.87601 -0.832243 0
M  V30 25295 H 2375.83 -1.38365 -0.398894 0
M  V30 25296 H 2377.78 -2.66972 -3.26042 0
M  V30 25297 H 2376.51 -1.47655 -2.91317 0
M  V30 25298 H 2375.17 -3.24034 -1.71457 0
M  V30 25299 H 2374.81 -2.83233 -4.15678 0
M  V30 25300 H 2374.51 -4.53677 -3.73431 0
M  V30 25301 H 2376.04 -4.07698 -4.54549 0
M  V30 25302 H 2377.45 -5.14042 -2.53837 0
M  V30 25303 H 2375.85 -5.67392 -1.95412 0
M  V30 25304 H 2376.92 -4.77094 -0.866589 0
M  V30 25305 N 2378.26 0.425871 -1.51737 0
M  V30 25306 C 2379.23 1.50029 -1.73274 0
M  V30 25307 C 2380.23 1.49079 -0.602665 0
M  V30 25308 O 2381.42 1.50899 -0.870357 0
M  V30 25309 C 2378.55 2.8952 -1.79975 0
M  V30 25310 H 2379.74 1.32232 -2.69174 0
M  V30 25311 H 2377.29 0.655295 -1.419 0
M  V30 25312 H 2378.03 3.12708 -0.859296 0
M  V30 25313 H 2377.81 2.91614 -2.62114 0
M  V30 25314 H 2379.3 3.67441 -1.98437 0
M  V30 25315 N 2379.74 1.42077 0.682052 0
M  V30 25316 C 2380.67 1.4777 1.80793 0
M  V30 25317 C 2381.65 0.334983 1.66769 0
M  V30 25318 O 2382.84 0.548297 1.86299 0
M  V30 25319 C 2379.97 1.37235 3.19036 0
M  V30 25320 C 2378.92 2.49459 3.47785 0
M  V30 25321 C 2378.25 2.23983 4.85526 0
M  V30 25322 C 2379.55 3.91783 3.45404 0
M  V30 25323 H 2381.24 2.42 1.76285 0
M  V30 25324 H 2378.79 1.16477 0.846701 0
M  V30 25325 H 2380.74 1.39828 3.97525 0
M  V30 25326 H 2379.46 0.394964 3.24203 0
M  V30 25327 H 2378.12 2.46171 2.71653 0
M  V30 25328 H 2377.77 1.24556 4.87334 0
M  V30 25329 H 2377.47 2.99193 5.05725 0
M  V30 25330 H 2378.99 2.28314 5.66308 0
M  V30 25331 H 2380.41 3.96712 4.13875 0
M  V30 25332 H 2378.81 4.66784 3.77137 0
M  V30 25333 H 2379.88 4.1897 2.44115 0
M  V30 25334 N 2381.22 -0.917649 1.28129 0
M  V30 25335 C 2382.15 -2.03639 1.14251 0
M  V30 25336 C 2383.13 -1.7005 0.0413047 0
M  V30 25337 O 2384.32 -1.92977 0.217599 0
M  V30 25338 C 2381.45 -3.37973 0.799491 0
M  V30 25339 C 2380.4 -3.8571 1.85504 0
M  V30 25340 C 2379.73 -5.16964 1.36575 0
M  V30 25341 C 2381.03 -4.07997 3.26092 0
M  V30 25342 H 2382.72 -2.15508 2.07839 0
M  V30 25343 H 2380.27 -1.03551 1.00066 0
M  V30 25344 H 2382.22 -4.15726 0.689187 0
M  V30 25345 H 2380.94 -3.26146 -0.172088 0
M  V30 25346 H 2379.6 -3.10158 1.95442 0
M  V30 25347 H 2379.25 -5.01537 0.383341 0
M  V30 25348 H 2378.95 -5.49874 2.07153 0
M  V30 25349 H 2380.47 -5.97277 1.26859 0
M  V30 25350 H 2381.89 -4.76287 3.19098 0
M  V30 25351 H 2380.28 -4.52231 3.9447 0
M  V30 25352 H 2381.35 -3.12941 3.70399 0
M  V30 25353 N 2382.7 -1.10314 -1.12555 0
M  V30 25354 C 2383.66 -0.754278 -2.16433 0
M  V30 25355 C 2384.66 0.220657 -1.59279 0
M  V30 25356 O 2385.85 -0.00233653 -1.742 0
M  V30 25357 C 2382.98 -0.117046 -3.40699 0
M  V30 25358 H 2384.18 -1.67436 -2.48808 0
M  V30 25359 H 2381.73 -0.903498 -1.27541 0
M  V30 25360 H 2382.46 0.813822 -3.13923 0
M  V30 25361 H 2382.25 -0.81868 -3.83458 0
M  V30 25362 H 2383.74 0.111314 -4.17452 0
M  V30 25363 N 2384.18 1.29948 -0.891694 0
M  V30 25364 C 2385.12 2.29904 -0.353106 0
M  V30 25365 C 2386.12 1.60445 0.543481 0
M  V30 25366 O 2387.32 1.74858 0.427169 0
M  V30 25367 H 2383.7 0.745906 -0.0955441 0
M  V30 25368 H 2385.67 2.72781 -1.20966 0
M  V30 25369 C 2384.42 3.45257 0.411414 0
M  V30 25370 H 2383.74 3.98892 -0.269252 0
M  V30 25371 H 2385.18 4.17255 0.753254 0
M  V30 25372 C 2383.64 2.95883 1.61105 0
M  V30 25373 O 2384.17 2.9648 2.7104 0
M  V30 25374 N 2382.38 2.51812 1.45049 0
M  V30 25375 H 2381.92 2.51525 0.556131 0
M  V30 25376 H 2381.88 2.19134 2.2545 0
M  V30 25377 N 2385.65 0.653339 1.4342 0
M  V30 25378 C 2386.59 -0.0768731 2.29071 0
M  V30 25379 C 2387.6 -0.786992 1.42514 0
M  V30 25380 O 2388.79 -0.644728 1.6645 0
M  V30 25381 C 2385.89 -1.13193 3.19438 0
M  V30 25382 C 2385.06 -0.49993 4.34534 0
M  V30 25383 C 2384.12 -1.45189 5.05773 0
M  V30 25384 O 2383.15 -0.960439 5.61039 0
M  V30 25385 N 2384.35 -2.78585 5.09285 0
M  V30 25386 H 2387.11 0.658286 2.92381 0
M  V30 25387 H 2384.67 0.496131 1.54111 0
M  V30 25388 H 2386.67 -1.76958 3.63962 0
M  V30 25389 H 2385.24 -1.76906 2.57727 0
M  V30 25390 H 2384.46 0.316807 3.92925 0
M  V30 25391 H 2385.74 -0.058745 5.08766 0
M  V30 25392 H 2385.14 -3.21072 4.65757 0
M  V30 25393 H 2383.7 -3.37652 5.57525 0
M  V30 25394 N 2387.13 -1.52563 0.395266 0
M  V30 25395 C 2388.54 -1.86539 -0.0774391 0
M  V30 25396 C 2388.89 -1.31468 -1.45638 0
M  V30 25397 O 2388.02 -0.648403 -2.06457 0
M  V30 25398 C 2388.61 -3.3848 -0.147297 0
M  V30 25399 C 2387.17 -3.72146 -0.564308 0
M  V30 25400 C 2386.32 -2.75983 0.269968 0
M  V30 25401 H 2389.27 -1.46387 0.612902 0
M  V30 25402 H 2389.29 -3.68052 -0.965278 0
M  V30 25403 H 2388.8 -3.78532 0.856454 0
M  V30 25404 H 2386.9 -3.37665 -1.57521 0
M  V30 25405 H 2387.02 -4.78041 -0.318318 0
M  V30 25406 H 2385.38 -2.53311 -0.265651 0
M  V30 25407 H 2386.16 -3.18873 1.27181 0
M  V30 25408 N 2388.61 -0.125265 -1.57101 0
M  V30 25409 C 2389.52 0.836161 -2.19193 0
M  V30 25410 C 2390.54 1.28802 -1.16987 0
M  V30 25411 O 2391.71 1.34972 -1.49481 0
M  V30 25412 C 2388.78 2.06612 -2.78411 0
M  V30 25413 C 2387.84 1.66558 -3.95673 0
M  V30 25414 C 2387.07 2.8369 -4.52057 0
M  V30 25415 O 2387.29 3.99295 -4.07333 0
M  V30 25416 O 2386.23 2.60414 -5.42649 0
M  V30 25417 H 2390.05 0.337723 -3.01816 0
M  V30 25418 H 2387.64 0.100669 -1.4906 0
M  V30 25419 H 2389.52 2.78635 -3.16134 0
M  V30 25420 H 2388.2 2.5545 -1.98814 0
M  V30 25421 H 2387.1 0.916232 -3.62706 0
M  V30 25422 H 2388.44 1.22456 -4.76724 0
M  V30 25423 N 2390.09 1.56899 0.148518 0
M  V30 25424 C 2391.5 1.72725 0.708736 0
M  V30 25425 C 2391.85 0.739427 1.81733 0
M  V30 25426 O 2390.97 -0.0942789 2.16195 0
M  V30 25427 C 2391.57 3.13182 1.29239 0
M  V30 25428 C 2390.13 3.30615 1.79919 0
M  V30 25429 C 2389.28 2.68654 0.687064 0
M  V30 25430 H 2392.23 1.58512 -0.0771342 0
M  V30 25431 H 2392.25 3.13097 2.16219 0
M  V30 25432 H 2391.76 3.85054 0.485315 0
M  V30 25433 H 2389.86 2.63737 2.63199 0
M  V30 25434 H 2389.97 4.38552 1.92895 0
M  V30 25435 H 2388.34 2.2908 1.11331 0
M  V30 25436 H 2389.12 3.43128 -0.108543 0
M  V30 25437 N 2391.57 -0.417818 1.51961 0
M  V30 25438 C 2392.79 -1.1875 1.69428 0
M  V30 25439 C 2393.21 -1.84514 0.399988 0
M  V30 25440 O 2392.57 -1.71528 -0.623258 0
M  V30 25441 C 2392.62 -2.25709 2.82379 0
M  V30 25442 O 2392.34 -1.62631 4.06796 0
M  V30 25443 C 2393.84 -3.15623 3.11283 0
M  V30 25444 H 2391.06 -0.357176 0.568037 0
M  V30 25445 H 2393.6 -0.492695 1.98476 0
M  V30 25446 H 2391.76 -2.90872 2.55875 0
M  V30 25447 H 2392.17 -2.33471 4.69672 0
M  V30 25448 H 2393.65 -3.86764 3.9385 0
M  V30 25449 H 2394.12 -3.77499 2.24479 0
M  V30 25450 H 2394.73 -2.56138 3.39519 0
M  V30 25451 N 2393.04 -1.42436 -0.674508 0
M  V30 25452 C 2394.29 -1.42214 -1.43032 0
M  V30 25453 C 2394.61 -0.0421131 -1.95555 0
M  V30 25454 O 2395.81 0.0827081 -2.71374 0
M  V30 25455 C 2394.27 -2.50159 -2.58744 0
M  V30 25456 C 2393.88 -3.9417 -2.12918 0
M  V30 25457 C 2395.62 -2.59104 -3.36252 0
M  V30 25458 C 2393.53 -4.93623 -3.25714 0
M  V30 25459 H 2392.46 -0.528948 -0.537336 0
M  V30 25460 H 2395.11 -1.68345 -0.73021 0
M  V30 25461 H 2393.49 -2.17194 -3.31124 0
M  V30 25462 H 2394.66 -4.36491 -1.4769 0
M  V30 25463 H 2392.98 -3.89078 -1.48348 0
M  V30 25464 H 2395.58 -3.30586 -4.20258 0
M  V30 25465 H 2395.92 -1.63468 -3.82863 0
M  V30 25466 H 2396.45 -2.91265 -2.70942 0
M  V30 25467 H 2393.19 -5.90737 -2.84095 0
M  V30 25468 H 2392.71 -4.55933 -3.89724 0
M  V30 25469 H 2394.39 -5.15354 -3.91177 0
M  V30 25470 N 2394.52 0.910841 -1.28614 0
M  V30 25471 C 2395.77 1.65486 -1.15314 0
M  V30 25472 C 2396.08 1.93333 0.296965 0
M  V30 25473 O 2397.29 2.65848 0.551121 0
M  V30 25474 C 2395.75 2.98134 -2.01604 0
M  V30 25475 C 2395.35 2.77924 -3.51372 0
M  V30 25476 C 2397.1 3.76021 -1.96999 0
M  V30 25477 C 2395 4.0623 -4.29804 0
M  V30 25478 H 2393.93 0.620771 -0.427971 0
M  V30 25479 H 2396.59 1.01054 -1.53167 0
M  V30 25480 H 2394.97 3.63716 -1.56609 0
M  V30 25481 H 2396.14 2.21003 -4.04344 0
M  V30 25482 H 2394.46 2.13446 -3.57533 0
M  V30 25483 H 2397.05 4.7113 -2.52864 0
M  V30 25484 H 2397.4 4.05376 -0.947401 0
M  V30 25485 H 2397.93 3.17262 -2.39979 0
M  V30 25486 H 2394.67 3.82046 -5.32655 0
M  V30 25487 H 2394.19 4.62751 -3.81604 0
M  V30 25488 H 2395.87 4.74465 -4.39877 0
M  V30 25489 N 2396 1.10909 1.11969 0
M  V30 25490 C 2396.95 0.757342 2.19925 0
M  V30 25491 C 2397.94 -0.248718 1.67564 0
M  V30 25492 O 2399.15 -0.108574 1.79672 0
M  V30 25493 H 2395.52 0.227 0.716921 0
M  V30 25494 H 2397.49 1.67662 2.46844 0
M  V30 25495 C 2396.24 0.210732 3.47061 0
M  V30 25496 H 2395.57 0.976117 3.87701 0
M  V30 25497 H 2397.01 0.00273292 4.24 0
M  V30 25498 C 2395.47 -1.05771 3.19866 0
M  V30 25499 O 2396 -2.13839 3.40053 0
M  V30 25500 N 2394.2 -0.978301 2.73638 0
M  V30 25501 H 2393.75 -0.0987794 2.57411 0
M  V30 25502 H 2393.71 -1.82768 2.55818 0
M  V30 25503 N 2397.48 -1.29474 0.898573 0
M  V30 25504 C 2398.72 -1.95895 0.524692 0
M  V30 25505 C 2399.06 -1.70677 -0.926438 0
M  V30 25506 O 2398.33 -1.01911 -1.65664 0
M  V30 25507 C 2398.62 -3.50724 0.816391 0
M  V30 25508 C 2398.47 -3.85403 2.31914 0
M  V30 25509 C 2399.79 -4.39062 0.302115 0
M  V30 25510 H 2396.91 -0.711523 0.192103 0
M  V30 25511 H 2399.55 -1.5311 1.12505 0
M  V30 25512 H 2397.7 -3.87297 0.305437 0
M  V30 25513 H 2399.37 -3.58781 2.89955 0
M  V30 25514 H 2397.61 -3.32987 2.78033 0
M  V30 25515 H 2398.28 -4.93464 2.47382 0
M  V30 25516 H 2400.76 -4.09474 0.739623 0
M  V30 25517 H 2399.64 -5.46282 0.535427 0
M  V30 25518 H 2399.9 -4.34854 -0.79714 0
M  V30 25519 N 2398.96 -0.660936 -1.43071 0
M  V30 25520 C 2400.2 -0.17713 -2.01322 0
M  V30 25521 C 2400.53 1.21587 -1.52452 0
M  V30 25522 O 2399.8 1.81371 -0.740354 0
M  V30 25523 H 2398.38 -0.0624935 -0.744381 0
M  V30 25524 H 2401.04 -0.854336 -1.75177 0
M  V30 25525 H 2400.13 -0.167695 -3.11649 0
M  V30 25526 N 2400.43 1.52351 -0.403352 0
M  V30 25527 C 2401.71 1.94212 0.232577 0
M  V30 25528 C 2402.09 1.33983 1.63131 0
M  V30 25529 O 2401.44 0.513383 2.22658 0
M  V30 25530 C 2401.65 3.48141 0.24475 0
M  V30 25531 C 2403 4.22025 0.466906 0
M  V30 25532 O 2404.02 3.5472 0.324356 0
M  V30 25533 O 2402.88 5.41365 0.747375 0
M  V30 25534 H 2399.97 0.813611 0.148209 0
M  V30 25535 H 2402.52 1.63378 -0.458877 0
M  V30 25536 H 2401.29 3.84346 -0.734445 0
M  V30 25537 H 2400.92 3.85319 0.980544 0
M  V30 25538 N 2401.91 0.133594 1.57033 0
M  V30 25539 C 2403.16 -0.521614 1.95977 0
M  V30 25540 C 2403.49 -1.65391 1.01782 0
M  V30 25541 O 2402.77 -1.94414 0.0576923 0
M  V30 25542 C 2403.05 -1.04051 3.4474 0
M  V30 25543 C 2402.9 0.0893688 4.49711 0
M  V30 25544 C 2404.22 -1.92668 3.95686 0
M  V30 25545 H 2401.34 -0.188136 0.712582 0
M  V30 25546 H 2403.98 0.21211 1.88812 0
M  V30 25547 H 2402.13 -1.66577 3.50976 0
M  V30 25548 H 2403.8 0.725232 4.55563 0
M  V30 25549 H 2402.05 0.750453 4.27259 0
M  V30 25550 H 2402.72 -0.315187 5.51099 0
M  V30 25551 H 2405.19 -1.39991 3.91844 0
M  V30 25552 H 2404.07 -2.25888 5.00266 0
M  V30 25553 H 2404.33 -2.85866 3.37244 0
M  V30 25554 N 2403.39 -1.56975 -0.140195 0
M  V30 25555 C 2404.64 -1.83992 -0.852917 0
M  V30 25556 C 2404.97 -0.716218 -1.8051 0
M  V30 25557 O 2404.24 0.279647 -1.92479 0
M  V30 25558 C 2404.53 -3.2153 -1.62144 0
M  V30 25559 C 2404.38 -4.44472 -0.690285 0
M  V30 25560 C 2405.7 -3.5637 -2.58241 0
M  V30 25561 H 2402.82 -0.669269 -0.308622 0
M  V30 25562 H 2405.46 -1.89634 -0.117865 0
M  V30 25563 H 2403.61 -3.16851 -2.24806 0
M  V30 25564 H 2405.28 -4.6124 -0.0741453 0
M  V30 25565 H 2403.53 -4.338 -0.000320181 0
M  V30 25566 H 2404.2 -5.37328 -1.26421 0
M  V30 25567 H 2406.67 -3.61703 -2.05694 0
M  V30 25568 H 2405.55 -4.53623 -3.09059 0
M  V30 25569 H 2405.81 -2.8268 -3.39918 0
M  V30 25570 N 2404.87 0.409753 -1.5218 0
M  V30 25571 C 2406.09 1.18305 -1.70349 0
M  V30 25572 C 2406.52 1.83534 -0.411919 0
M  V30 25573 O 2405.88 1.69981 0.630557 0
M  V30 25574 C 2405.92 2.22233 -2.83981 0
M  V30 25575 O 2405.03 3.2836 -2.49506 0
M  V30 25576 H 2404.37 0.345374 -0.567109 0
M  V30 25577 H 2406.9 0.48041 -1.9888 0
M  V30 25578 H 2406.91 2.66572 -3.08874 0
M  V30 25579 H 2405.58 1.74139 -3.77688 0
M  V30 25580 H 2404.16 2.89304 -2.35282 0
M  V30 25581 N 2406.35 1.42792 0.666944 0
M  V30 25582 C 2407.58 1.4688 1.45292 0
M  V30 25583 C 2407.98 0.0810194 1.89026 0
M  V30 25584 O 2407.33 -0.916218 1.5922 0
M  V30 25585 C 2407.39 2.34017 2.72904 0
M  V30 25586 C 2407.05 3.81772 2.51196 0
M  V30 25587 C 2408.05 4.73228 2.15294 0
M  V30 25588 C 2405.74 4.26119 2.65947 0
M  V30 25589 C 2407.73 6.07025 1.94421 0
M  V30 25590 C 2405.42 5.59974 2.44689 0
M  V30 25591 C 2406.41 6.50243 2.0898 0
M  V30 25592 O 2406.1 7.81624 1.87934 0
M  V30 25593 H 2405.83 0.501495 0.453297 0
M  V30 25594 H 2408.39 1.88051 0.826199 0
M  V30 25595 H 2406.62 1.87709 3.38086 0
M  V30 25596 H 2408.31 2.29468 3.34812 0
M  V30 25597 H 2409.07 4.40248 2.03487 0
M  V30 25598 H 2404.95 3.56142 2.92718 0
M  V30 25599 H 2408.5 6.77446 1.66473 0
M  V30 25600 H 2404.39 5.92525 2.56095 0
M  V30 25601 H 2405.16 7.93063 2.02469 0
M  V30 25602 N 2407.82 -0.904008 1.29095 0
M  V30 25603 C 2409.07 -1.65083 1.16585 0
M  V30 25604 C 2409.39 -1.92922 -0.283899 0
M  V30 25605 O 2408.66 -1.55226 -1.19506 0
M  V30 25606 H 2407.24 -0.611895 0.428478 0
M  V30 25607 H 2409.91 -1.08419 1.61961 0
M  V30 25608 H 2409 -2.60907 1.71271 0
M  V30 25609 N 2409.3 -1.11501 -1.11379 0
M  V30 25610 C 2410.25 -0.768994 -2.1952 0
M  V30 25611 C 2411.24 0.239828 -1.67694 0
M  V30 25612 O 2412.45 0.0990439 -1.79727 0
M  V30 25613 H 2408.83 -0.230799 -0.715707 0
M  V30 25614 H 2410.8 -1.68969 -2.45951 0
M  V30 25615 C 2409.55 -0.229134 -3.46944 0
M  V30 25616 H 2408.87 -0.996664 -3.87178 0
M  V30 25617 H 2410.31 -0.0252186 -4.23993 0
M  V30 25618 C 2408.77 1.04074 -3.20422 0
M  V30 25619 O 2409.3 2.12032 -3.41182 0
M  V30 25620 N 2407.5 0.963775 -2.74153 0
M  V30 25621 H 2407.05 0.0851269 -2.57459 0
M  V30 25622 H 2407.01 1.81409 -2.56784 0
M  V30 25623 N 2410.78 1.28995 -0.905426 0
M  V30 25624 C 2412.03 1.94606 -0.530225 0
M  V30 25625 C 2412.34 1.72122 0.929155 0
M  V30 25626 O 2413.55 2.31886 1.41214 0
M  V30 25627 C 2412.01 3.48532 -0.897394 0
M  V30 25628 C 2411.61 3.79807 -2.37593 0
M  V30 25629 C 2413.36 4.20346 -0.592378 0
M  V30 25630 C 2411.26 5.27004 -2.68366 0
M  V30 25631 H 2410.19 0.728463 -0.19457 0
M  V30 25632 H 2412.85 1.46634 -1.10321 0
M  V30 25633 H 2411.23 3.95189 -0.253283 0
M  V30 25634 H 2412.4 3.43989 -3.06608 0
M  V30 25635 H 2410.72 3.21146 -2.65055 0
M  V30 25636 H 2413.31 5.28696 -0.799068 0
M  V30 25637 H 2413.66 4.13645 0.469401 0
M  V30 25638 H 2414.19 3.7944 -1.19458 0
M  V30 25639 H 2410.93 5.38775 -3.73365 0
M  V30 25640 H 2410.45 5.64049 -2.03981 0
M  V30 25641 H 2412.13 5.94658 -2.54933 0
M  V30 25642 N 2412.26 0.668514 1.42719 0
M  V30 25643 C 2413.19 0.000141219 2.335 0
M  V30 25644 C 2414.17 -0.795938 1.50329 0
M  V30 25645 O 2415.36 -0.754353 1.7895 0
M  V30 25646 C 2412.49 -0.956243 3.33876 0
M  V30 25647 C 2411.44 -0.269203 4.27153 0
M  V30 25648 C 2410.77 -1.33809 5.17686 0
M  V30 25649 C 2412.07 0.847896 5.15372 0
M  V30 25650 H 2413.76 0.758295 2.89638 0
M  V30 25651 H 2411.31 0.366104 1.39268 0
M  V30 25652 H 2413.26 -1.43285 3.96292 0
M  V30 25653 H 2411.98 -1.74574 2.76028 0
M  V30 25654 H 2410.64 0.187106 3.66122 0
M  V30 25655 H 2410.29 -2.11942 4.56168 0
M  V30 25656 H 2409.99 -0.883557 5.80919 0
M  V30 25657 H 2411.51 -1.81576 5.82977 0
M  V30 25658 H 2412.93 0.452782 5.71509 0
M  V30 25659 H 2411.32 1.22784 5.87405 0
M  V30 25660 H 2412.39 1.69937 4.54147 0
M  V30 25661 N 2413.74 -1.52135 0.411426 0
M  V30 25662 C 2414.67 -2.29979 -0.403974 0
M  V30 25663 C 2415.65 -1.34286 -1.0441 0
M  V30 25664 O 2416.83 -1.63194 -1.05268 0
M  V30 25665 C 2413.96 -3.12288 -1.51965 0
M  V30 25666 C 2412.92 -4.16048 -1.0044 0
M  V30 25667 C 2412.24 -4.86716 -2.21385 0
M  V30 25668 C 2413.54 -5.22269 -0.0568418 0
M  V30 25669 H 2415.24 -2.98391 0.245581 0
M  V30 25670 H 2412.78 -1.43503 0.11955 0
M  V30 25671 H 2414.74 -3.65514 -2.09708 0
M  V30 25672 H 2413.46 -2.41649 -2.19711 0
M  V30 25673 H 2412.12 -3.63836 -0.449357 0
M  V30 25674 H 2411.77 -4.12605 -2.87692 0
M  V30 25675 H 2411.47 -5.56861 -1.87561 0
M  V30 25676 H 2412.99 -5.42755 -2.7973 0
M  V30 25677 H 2414.41 -5.70721 -0.54315 0
M  V30 25678 H 2412.8 -5.99791 0.1927 0
M  V30 25679 H 2413.87 -4.76704 0.887747 0
M  V30 25680 N 2415.22 -0.14192 -1.5696 0
M  V30 25681 C 2416.44 0.520802 -2.00755 0
M  V30 25682 C 2416.87 1.57957 -1.02133 0
M  V30 25683 O 2416.22 1.813 0.00368137 0
M  V30 25684 C 2416.27 1.10288 -3.4332 0
M  V30 25685 O 2415.38 2.21789 -3.47683 0
M  V30 25686 H 2414.72 0.127897 -0.651566 0
M  V30 25687 H 2417.25 -0.237156 -2.03221 0
M  V30 25688 H 2417.26 1.4328 -3.82014 0
M  V30 25689 H 2415.93 0.327502 -4.14609 0
M  V30 25690 H 2414.51 1.90064 -3.20827 0
M  V30 25691 N 2416.69 1.57047 0.131868 0
M  V30 25692 C 2417.94 1.83805 0.840237 0
M  V30 25693 C 2418.26 0.725152 1.81015 0
M  V30 25694 O 2417.53 -0.251961 1.94273 0
M  V30 25695 H 2416.11 0.678132 0.313282 0
M  V30 25696 H 2418.77 1.94516 0.122259 0
M  V30 25697 H 2417.87 2.79273 1.3933 0
M  V30 25698 N 2418.17 -0.401677 1.52395 0
M  V30 25699 C 2419.12 -1.51036 1.76892 0
M  V30 25700 C 2420.11 -1.56994 0.636326 0
M  V30 25701 O 2421.32 -1.60312 0.818535 0
M  V30 25702 H 2417.69 -0.502446 0.559511 0
M  V30 25703 H 2419.67 -1.27563 2.6976 0
M  V30 25704 C 2418.41 -2.8832 1.94336 0
M  V30 25705 H 2417.74 -2.84481 2.8091 0
M  V30 25706 H 2419.18 -3.65168 2.15473 0
M  V30 25707 C 2417.64 -3.29281 0.712454 0
M  V30 25708 O 2418.17 -4.01532 -0.116147 0
M  V30 25709 N 2416.37 -2.85421 0.546204 0
M  V30 25710 H 2415.92 -2.26792 1.2216 0
M  V30 25711 H 2415.88 -3.13186 -0.276058 0
M  V30 25712 N 2419.65 -1.43144 -0.659362 0
M  V30 25713 C 2420.58 -1.43787 -1.78488 0
M  V30 25714 C 2421.59 -0.334815 -1.5932 0
M  V30 25715 O 2422.78 -0.598872 -1.68154 0
M  V30 25716 C 2419.88 -1.22911 -3.15826 0
M  V30 25717 C 2419.06 -2.45941 -3.61707 0
M  V30 25718 C 2418.12 -2.2038 -4.77828 0
M  V30 25719 O 2417.14 -2.9369 -4.87581 0
M  V30 25720 N 2418.34 -1.21657 -5.67609 0
M  V30 25721 H 2421.11 -2.40807 -1.78416 0
M  V30 25722 H 2418.67 -1.38222 -0.842996 0
M  V30 25723 H 2420.66 -1.03704 -3.91188 0
M  V30 25724 H 2419.23 -0.343597 -3.10706 0
M  V30 25725 H 2418.45 -2.80614 -2.76856 0
M  V30 25726 H 2419.74 -3.27832 -3.89106 0
M  V30 25727 H 2419.14 -0.610548 -5.62396 0
M  V30 25728 H 2417.69 -1.08434 -6.42717 0
M  V30 25729 N 2421.13 0.897149 -1.29572 0
M  V30 25730 C 2422.36 1.68127 -1.20585 0
M  V30 25731 C 2422.77 1.87355 0.233148 0
M  V30 25732 O 2422.13 1.41238 1.15577 0
M  V30 25733 C 2422.18 3.06437 -1.91777 0
M  V30 25734 O 2421.9 2.88086 -3.30058 0
M  V30 25735 C 2423.4 4.00851 -1.89298 0
M  V30 25736 H 2420.62 0.525029 -0.417835 0
M  V30 25737 H 2423.16 1.12174 -1.70989 0
M  V30 25738 H 2421.32 3.59159 -1.45202 0
M  V30 25739 H 2421.73 3.75742 -3.65948 0
M  V30 25740 H 2423.21 4.95306 -2.43671 0
M  V30 25741 H 2423.68 4.30515 -0.869089 0
M  V30 25742 H 2424.29 3.54061 -2.35628 0
M  V30 25743 N 2422.61 1.1209 1.10786 0
M  V30 25744 C 2423.57 0.788615 2.15206 0
M  V30 25745 C 2424.57 -0.195289 1.5961 0
M  V30 25746 O 2425.76 0.0300499 1.74174 0
M  V30 25747 C 2422.89 0.171234 3.4047 0
M  V30 25748 H 2424.08 1.71373 2.46113 0
M  V30 25749 H 2421.64 0.923674 1.26087 0
M  V30 25750 H 2422.37 -0.763777 3.15178 0
M  V30 25751 H 2422.16 0.879581 3.82107 0
M  V30 25752 H 2423.65 -0.0448866 4.17576 0
M  V30 25753 N 2424.08 -1.28513 0.912254 0
M  V30 25754 C 2425.5 -1.47475 0.610185 0
M  V30 25755 C 2425.7 -1.8293 -0.844923 0
M  V30 25756 O 2424.76 -1.93335 -1.62412 0
M  V30 25757 C 2426.07 -2.57865 1.5468 0
M  V30 25758 C 2427.62 -2.71735 1.55335 0
M  V30 25759 C 2428.09 -3.85267 2.47655 0
M  V30 25760 N 2429.58 -3.92619 2.45774 0
M  V30 25761 C 2430.32 -4.79845 3.13905 0
M  V30 25762 N 2429.81 -5.71672 3.9136 0
M  V30 25763 N 2431.61 -4.73443 3.02999 0
M  V30 25764 H 2423.76 -1.03779 1.8532 0
M  V30 25765 H 2426.02 -0.516739 0.794786 0
M  V30 25766 H 2425.73 -2.38569 2.58414 0
M  V30 25767 H 2425.6 -3.54934 1.27677 0
M  V30 25768 H 2427.99 -2.90421 0.523401 0
M  V30 25769 H 2428.07 -1.75202 1.86381 0
M  V30 25770 H 2427.71 -3.67336 3.50752 0
M  V30 25771 H 2427.64 -4.81195 2.13912 0
M  V30 25772 H 2430.13 -3.26948 1.89509 0
M  V30 25773 H 2430.45 -6.35054 4.4037 0
M  V30 25774 H 2428.79 -5.71517 3.95465 0
M  V30 25775 H 2431.98 -4.00695 2.41994 0
M  V30 25776 H 2432.16 -5.41207 3.56369 0
M  V30 25777 N 2425.56 -0.676073 -1.42362 0
M  V30 25778 C 2426.5 0.0516515 -2.28142 0
M  V30 25779 C 2427.47 0.807414 -1.41137 0
M  V30 25780 O 2428.66 0.802275 -1.70575 0
M  V30 25781 C 2425.78 1.08033 -3.21009 0
M  V30 25782 C 2424.83 0.420002 -4.24427 0
M  V30 25783 S 2425.66 -0.823339 -5.29133 0
M  V30 25784 C 2426.82 0.204234 -6.25567 0
M  V30 25785 H 2427.05 -0.675935 -2.89514 0
M  V30 25786 H 2424.59 -0.465661 -1.47211 0
M  V30 25787 H 2426.54 1.66874 -3.75051 0
M  V30 25788 H 2425.2 1.78037 -2.58769 0
M  V30 25789 H 2424.4 1.19624 -4.89598 0
M  V30 25790 H 2424 -0.0948502 -3.7388 0
M  V30 25791 H 2426.29 1.06357 -6.691 0
M  V30 25792 H 2427.23 -0.413039 -7.06894 0
M  V30 25793 H 2427.64 0.550281 -5.61811 0
M  V30 25794 N 2427.04 1.51915 -0.419488 0
M  V30 25795 C 2427.97 2.3019 0.391772 0
M  V30 25796 C 2428.95 1.34837 1.03696 0
M  V30 25797 O 2430.14 1.6375 1.04401 0
M  V30 25798 C 2427.27 3.1309 1.50306 0
M  V30 25799 C 2426.22 4.16575 0.982327 0
M  V30 25800 C 2425.55 4.87884 2.18801 0
M  V30 25801 C 2426.85 5.22292 0.0291438 0
M  V30 25802 H 2428.54 2.98257 -0.261402 0
M  V30 25803 H 2426.09 1.43437 -0.127159 0
M  V30 25804 H 2428.04 3.66621 2.07767 0
M  V30 25805 H 2426.76 2.42811 2.18427 0
M  V30 25806 H 2425.42 3.64069 0.430055 0
M  V30 25807 H 2425.07 4.14124 2.855 0
M  V30 25808 H 2424.77 5.57848 1.84605 0
M  V30 25809 H 2426.29 5.44231 2.76848 0
M  V30 25810 H 2427.71 5.71001 0.512875 0
M  V30 25811 H 2426.11 5.9968 -0.224505 0
M  V30 25812 H 2427.18 4.76227 -0.913015 0
M  V30 25813 N 2428.52 0.150242 1.56882 0
M  V30 25814 C 2429.47 -0.788206 2.16924 0
M  V30 25815 C 2430.44 -1.24185 1.10305 0
M  V30 25816 O 2431.62 -1.3138 1.38361 0
M  V30 25817 C 2428.76 -2.02064 2.79758 0
M  V30 25818 C 2427.87 -1.6125 4.00777 0
M  V30 25819 C 2427.01 -2.79697 4.516 0
M  V30 25820 C 2426.05 -2.35272 5.65078 0
M  V30 25821 N 2425.18 -3.46739 6.10505 0
M  V30 25822 H 2430.02 -0.269392 2.9678 0
M  V30 25823 H 2427.56 -0.121254 1.46599 0
M  V30 25824 H 2429.52 -2.74318 3.14334 0
M  V30 25825 H 2428.15 -2.51351 2.02541 0
M  V30 25826 H 2427.2 -0.787488 3.7216 0
M  V30 25827 H 2428.51 -1.24624 4.82981 0
M  V30 25828 H 2427.67 -3.60136 4.88248 0
M  V30 25829 H 2426.41 -3.19569 3.68411 0
M  V30 25830 H 2425.41 -1.53273 5.28003 0
M  V30 25831 H 2426.64 -1.96482 6.50055 0
M  V30 25832 H 2424.58 -3.86226 5.3025 0
M  V30 25833 H 2424.5 -3.14139 6.87643 0
M  V30 25834 H 2425.77 -4.27526 6.51799 0
M  V30 25835 N 2430 -1.57115 -0.123538 0
M  V30 25836 C 2431.23 -1.8852 -0.8452 0
M  V30 25837 C 2431.63 -0.739095 -1.74167 0
M  V30 25838 O 2430.98 0.299323 -1.81245 0
M  V30 25839 C 2431.04 -3.14891 -1.73446 0
M  V30 25840 C 2430.7 -4.45637 -1.01277 0
M  V30 25841 C 2431.7 -5.18682 -0.355683 0
M  V30 25842 C 2429.39 -4.92341 -0.995293 0
M  V30 25843 C 2431.38 -6.36649 0.309226 0
M  V30 25844 C 2429.07 -6.10227 -0.326583 0
M  V30 25845 C 2430.06 -6.82229 0.324526 0
M  V30 25846 O 2429.75 -7.97873 0.982578 0
M  V30 25847 H 2429.48 -0.628659 -0.248523 0
M  V30 25848 H 2432.04 -2.05084 -0.113871 0
M  V30 25849 H 2430.27 -2.94398 -2.50732 0
M  V30 25850 H 2431.96 -3.32354 -2.33015 0
M  V30 25851 H 2432.72 -4.83656 -0.360833 0
M  V30 25852 H 2428.6 -4.36205 -1.49151 0
M  V30 25853 H 2432.15 -6.92787 0.818022 0
M  V30 25854 H 2428.04 -6.4471 -0.319181 0
M  V30 25855 H 2428.81 -8.13684 0.886597 0
M  V30 25856 N 2431.47 0.393589 -1.52606 0
M  V30 25857 C 2432.7 1.16492 -1.71594 0
M  V30 25858 C 2433.12 1.83087 -0.431363 0
M  V30 25859 O 2432.48 1.70641 0.612493 0
M  V30 25860 C 2432.53 2.19208 -2.86322 0
M  V30 25861 O 2431.63 3.25695 -2.52975 0
M  V30 25862 H 2430.98 0.33934 -0.57074 0
M  V30 25863 H 2433.51 0.459289 -1.99378 0
M  V30 25864 H 2433.52 2.63281 -3.11684 0
M  V30 25865 H 2432.19 1.70123 -3.79514 0
M  V30 25866 H 2430.77 2.86792 -2.38337 0
M  V30 25867 N 2432.95 1.43492 0.651762 0
M  V30 25868 C 2434.18 1.48413 1.43726 0
M  V30 25869 C 2434.59 0.101064 1.8893 0
M  V30 25870 O 2433.93 -0.899279 1.60183 0
M  V30 25871 C 2434 2.36898 2.70406 0
M  V30 25872 C 2433.66 3.84414 2.47133 0
M  V30 25873 C 2434.66 4.75485 2.10263 0
M  V30 25874 C 2432.34 4.28916 2.61412 0
M  V30 25875 C 2434.34 6.09053 1.87972 0
M  V30 25876 C 2432.02 5.62537 2.38736 0
M  V30 25877 C 2433.02 6.52423 2.02072 0
M  V30 25878 O 2432.71 7.83573 1.79633 0
M  V30 25879 H 2432.44 0.506275 0.447953 0
M  V30 25880 H 2434.99 1.88917 0.806207 0
M  V30 25881 H 2433.22 1.91284 3.36076 0
M  V30 25882 H 2434.91 2.33006 3.3236 0
M  V30 25883 H 2435.68 4.42381 1.98806 0
M  V30 25884 H 2431.56 3.59227 2.88924 0
M  V30 25885 H 2435.1 6.79173 1.59278 0
M  V30 25886 H 2431 5.95208 2.49796 0
M  V30 25887 H 2431.77 7.95166 1.94046 0
M  V30 25888 N 2434.43 -0.890264 1.30046 0
M  V30 25889 C 2435.84 -1.457 1.16741 0
M  V30 25890 C 2436.19 -1.94801 -0.233905 0
M  V30 25891 O 2435.32 -1.84543 -1.13018 0
M  V30 25892 C 2435.91 -2.64821 2.11318 0
M  V30 25893 C 2434.47 -3.17601 2.02007 0
M  V30 25894 C 2433.62 -1.90293 2.01703 0
M  V30 25895 H 2436.57 -0.700701 1.42393 0
M  V30 25896 H 2436.59 -3.40864 1.69092 0
M  V30 25897 H 2436.1 -2.29054 3.13298 0
M  V30 25898 H 2434.2 -3.58038 1.03148 0
M  V30 25899 H 2434.32 -3.81259 2.90135 0
M  V30 25900 H 2432.68 -2.08399 1.4643 0
M  V30 25901 H 2433.46 -1.5679 3.05404 0
M  V30 25902 N 2435.91 -1.12676 -1.1019 0
M  V30 25903 C 2437.14 -0.90656 -1.85981 0
M  V30 25904 C 2437.55 0.544301 -1.80784 0
M  V30 25905 O 2436.91 1.37643 -1.19836 0
M  V30 25906 C 2436.96 -1.37623 -3.34278 0
M  V30 25907 O 2436.68 -2.77023 -3.39396 0
M  V30 25908 C 2438.18 -1.19333 -4.26936 0
M  V30 25909 H 2435.4 -0.323786 -0.587711 0
M  V30 25910 H 2437.95 -1.49736 -1.39282 0
M  V30 25911 H 2436.1 -0.828606 -3.78435 0
M  V30 25912 H 2436.51 -2.97692 -4.31833 0
M  V30 25913 H 2437.99 -1.57081 -5.29178 0
M  V30 25914 H 2438.47 -0.134174 -4.38995 0
M  V30 25915 H 2439.07 -1.72859 -3.88587 0
M  V30 25916 N 2437.39 1.28028 -0.919057 0
M  V30 25917 C 2438.33 2.27128 -0.410045 0
M  V30 25918 C 2439.3 1.57804 0.518377 0
M  V30 25919 O 2440.49 1.85671 0.439419 0
M  V30 25920 C 2437.63 3.43431 0.338994 0
M  V30 25921 C 2436.74 4.27491 -0.622543 0
M  V30 25922 C 2435.88 5.31001 0.145474 0
M  V30 25923 C 2434.92 6.06726 -0.809333 0
M  V30 25924 N 2434.05 7.0206 -0.0744962 0
M  V30 25925 H 2438.89 2.70045 -1.26015 0
M  V30 25926 H 2436.43 1.32799 -0.632687 0
M  V30 25927 H 2438.39 4.09661 0.789514 0
M  V30 25928 H 2437.02 3.0149 1.15341 0
M  V30 25929 H 2436.07 3.61255 -1.19159 0
M  V30 25930 H 2437.38 4.8011 -1.35261 0
M  V30 25931 H 2436.54 6.0314 0.656311 0
M  V30 25932 H 2435.27 4.79162 0.908559 0
M  V30 25933 H 2434.28 5.33433 -1.3315 0
M  V30 25934 H 2435.5 6.60654 -1.57206 0
M  V30 25935 H 2433.45 6.52564 0.670501 0
M  V30 25936 H 2433.37 7.52327 -0.744289 0
M  V30 25937 H 2434.64 7.78389 0.415972 0
M  V30 25938 N 2438.86 0.683613 1.42002 0
M  V30 25939 C 2440.09 0.216683 2.06265 0
M  V30 25940 C 2440.51 -1.12081 1.51061 0
M  V30 25941 O 2439.87 -1.69903 0.632668 0
M  V30 25942 C 2439.92 0.171822 3.6019 0
M  V30 25943 O 2439.02 -0.856998 4.03397 0
M  V30 25944 H 2438.37 0.108845 0.655018 0
M  V30 25945 H 2440.9 0.935109 1.8198 0
M  V30 25946 H 2440.91 -0.00135858 4.08 0
M  V30 25947 H 2439.58 1.14803 3.99741 0
M  V30 25948 H 2438.16 -0.654143 3.67118 0
M  V30 25949 N 2440.34 -1.5169 0.427538 0
M  V30 25950 C 2441.59 -2.01601 -0.141912 0
M  V30 25951 C 2441.91 -1.31417 -1.44065 0
M  V30 25952 O 2441.18 -0.445692 -1.90763 0
M  V30 25953 H 2439.76 -0.74494 -0.0554337 0
M  V30 25954 H 2442.42 -1.8644 0.568001 0
M  V30 25955 H 2441.52 -3.10405 -0.324858 0
M  V30 25956 N 2441.82 -0.15856 -1.568 0
M  V30 25957 C 2443.05 0.495548 -2.00569 0
M  V30 25958 C 2443.46 1.58199 -1.03777 0
M  V30 25959 O 2442.8 1.83678 -0.0286119 0
M  V30 25960 C 2442.86 1.14526 -3.4077 0
M  V30 25961 C 2442.53 0.202021 -4.56553 0
M  V30 25962 C 2443.53 -0.574766 -5.16713 0
M  V30 25963 C 2441.21 0.10156 -5.02197 0
M  V30 25964 C 2443.2 -1.43935 -6.20936 0
M  V30 25965 C 2440.89 -0.766614 -6.06272 0
M  V30 25966 C 2441.89 -1.53566 -6.65512 0
M  V30 25967 O 2441.58 -2.38935 -7.67571 0
M  V30 25968 H 2441.31 0.132458 -0.662896 0
M  V30 25969 H 2443.86 -0.253595 -2.03828 0
M  V30 25970 H 2442.09 1.94227 -3.34384 0
M  V30 25971 H 2443.78 1.70027 -3.68573 0
M  V30 25972 H 2444.55 -0.507252 -4.8234 0
M  V30 25973 H 2440.43 0.689914 -4.55808 0
M  V30 25974 H 2443.97 -2.04008 -6.67103 0
M  V30 25975 H 2439.87 -0.835378 -6.40072 0
M  V30 25976 H 2440.64 -2.3231 -7.8484 0
M  V30 25977 N 2443.3 1.57178 0.115204 0
M  V30 25978 C 2444.54 1.86871 0.828166 0
M  V30 25979 C 2444.9 0.747033 1.76871 0
M  V30 25980 O 2446.1 0.92583 2.52353 0
M  V30 25981 C 2444.38 3.21794 1.55509 0
M  V30 25982 S 2445.93 3.73129 2.30911 0
M  V30 25983 H 2442.75 0.655106 0.276329 0
M  V30 25984 H 2445.35 1.95309 0.0863126 0
M  V30 25985 H 2444.06 4.0137 0.856178 0
M  V30 25986 H 2443.59 3.16443 2.33725 0
M  V30 25987 H 2445.6 3.44935 3.56699 0
M  V30 25988 N 2444.78 -0.38549 1.52813 0
M  V30 25989 C 2446.03 -1.12794 1.67696 0
M  V30 25990 C 2446.35 -1.90398 0.421148 0
M  V30 25991 O 2445.62 -1.8759 -0.564518 0
M  V30 25992 H 2444.2 -0.419385 0.618163 0
M  V30 25993 H 2446.86 -0.436938 1.89939 0
M  V30 25994 H 2445.95 -1.82889 2.52899 0
M  V30 25995 N 2446.26 -1.43835 -0.644143 0
M  V30 25996 C 2447.5 -1.45644 -1.40115 0
M  V30 25997 C 2447.82 -0.0852755 -1.94813 0
M  V30 25998 O 2447.09 0.880657 -1.74989 0
M  V30 25999 H 2445.67 -0.536253 -0.520041 0
M  V30 26000 H 2448.34 -1.79511 -0.759069 0
M  V30 26001 H 2447.43 -2.17431 -2.23898 0
M  V30 26002 N 2447.73 0.883355 -1.30517 0
M  V30 26003 C 2448.98 1.63772 -1.1961 0
M  V30 26004 C 2449.31 1.92606 0.24828 0
M  V30 26005 O 2448.59 1.54815 1.1774 0
M  V30 26006 C 2448.87 2.9765 -2.02674 0
M  V30 26007 C 2448.72 2.75778 -3.5534 0
M  V30 26008 C 2450.04 3.98592 -1.8658 0
M  V30 26009 H 2447.16 0.594298 -0.435866 0
M  V30 26010 H 2449.8 1.02209 -1.60166 0
M  V30 26011 H 2447.95 3.50194 -1.68215 0
M  V30 26012 H 2449.63 2.30009 -3.99867 0
M  V30 26013 H 2447.87 2.10253 -3.79442 0
M  V30 26014 H 2448.54 3.7098 -4.08751 0
M  V30 26015 H 2451.02 3.55213 -2.1671 0
M  V30 26016 H 2449.89 4.90174 -2.47023 0
M  V30 26017 H 2450.15 4.34327 -0.825398 0
M  V30 26018 N 2449.21 1.13259 1.09591 0
M  V30 26019 C 2450.14 0.830984 2.18213 0
M  V30 26020 C 2451.12 -0.208936 1.68812 0
M  V30 26021 O 2452.31 -0.0682324 1.9408 0
M  V30 26022 C 2449.44 0.294357 3.4605 0
M  V30 26023 C 2448.39 1.26833 4.08775 0
M  V30 26024 C 2447.72 0.591542 5.31418 0
M  V30 26025 C 2449.02 2.62623 4.51472 0
M  V30 26026 H 2450.71 1.73927 2.437 0
M  V30 26027 H 2448.26 0.837695 1.17127 0
M  V30 26028 H 2450.21 0.0710347 4.2134 0
M  V30 26029 H 2448.93 -0.64931 3.20081 0
M  V30 26030 H 2447.59 1.47762 3.35503 0
M  V30 26031 H 2447.24 -0.357544 5.01728 0
M  V30 26032 H 2446.94 1.24133 5.74339 0
M  V30 26033 H 2448.47 0.377462 6.09432 0
M  V30 26034 H 2449.88 2.45672 5.17994 0
M  V30 26035 H 2448.28 3.23761 5.05271 0
M  V30 26036 H 2449.35 3.20412 3.63956 0
M  V30 26037 N 2450.69 -1.27539 0.925834 0
M  V30 26038 C 2451.92 -1.98271 0.580701 0
M  V30 26039 C 2452.33 -1.69273 -0.845178 0
M  V30 26040 O 2451.67 -0.948735 -1.57305 0
M  V30 26041 C 2451.73 -3.52124 0.72448 0
M  V30 26042 C 2451.4 -4.0474 2.12213 0
M  V30 26043 C 2452.39 -4.17656 3.09611 0
M  V30 26044 C 2450.08 -4.39134 2.43857 0
M  V30 26045 C 2452.07 -4.64238 4.36763 0
M  V30 26046 C 2449.76 -4.85407 3.71245 0
M  V30 26047 C 2450.76 -4.97917 4.67512 0
M  V30 26048 O 2450.45 -5.43177 5.92633 0
M  V30 26049 H 2450.18 -0.639543 0.218998 0
M  V30 26050 H 2452.73 -1.63402 1.24455 0
M  V30 26051 H 2450.96 -3.867 0.00353427 0
M  V30 26052 H 2452.65 -4.04073 0.384678 0
M  V30 26053 H 2453.42 -3.91346 2.86485 0
M  V30 26054 H 2449.3 -4.2864 1.69672 0
M  V30 26055 H 2452.84 -4.73918 5.11906 0
M  V30 26056 H 2448.74 -5.11159 3.94191 0
M  V30 26057 H 2449.5 -5.61435 5.95595 0
M  V30 26058 N 2452.17 -0.691135 -1.41637 0
M  V30 26059 C 2453.11 -0.023011 -2.30789 0
M  V30 26060 C 2454.08 0.775885 -1.46865 0
M  V30 26061 O 2455.27 0.744819 -1.75662 0
M  V30 26062 C 2452.41 0.910607 -3.32869 0
M  V30 26063 C 2451.52 0.103798 -4.31875 0
M  V30 26064 C 2450.66 1.03465 -5.21026 0
M  V30 26065 C 2449.7 0.22049 -6.11703 0
M  V30 26066 N 2448.83 1.10491 -6.93351 0
M  V30 26067 H 2453.67 -0.789029 -2.87364 0
M  V30 26068 H 2451.21 -0.400819 -1.41534 0
M  V30 26069 H 2453.17 1.4659 -3.90599 0
M  V30 26070 H 2451.8 1.64307 -2.77854 0
M  V30 26071 H 2450.85 -0.568351 -3.7613 0
M  V30 26072 H 2452.16 -0.527591 -4.96002 0
M  V30 26073 H 2451.32 1.65932 -5.83568 0
M  V30 26074 H 2450.06 1.69991 -4.57115 0
M  V30 26075 H 2449.06 -0.417283 -5.48214 0
M  V30 26076 H 2450.29 -0.440903 -6.77667 0
M  V30 26077 H 2448.23 1.75627 -6.32053 0
M  V30 26078 H 2448.15 0.528992 -7.54147 0
M  V30 26079 H 2449.42 1.71654 -7.60365 0
M  V30 26080 N 2453.65 1.51461 -0.435577 0
M  V30 26081 C 2454.89 2.01261 0.132972 0
M  V30 26082 C 2455.21 1.32442 1.43939 0
M  V30 26083 O 2456.41 1.73201 2.09078 0
M  V30 26084 C 2454.87 3.5875 0.287518 0
M  V30 26085 C 2454.48 4.36504 -1.00836 0
M  V30 26086 C 2456.22 4.16702 0.809931 0
M  V30 26087 C 2454.13 5.85694 -0.819557 0
M  V30 26088 H 2453.06 0.752102 0.053469 0
M  V30 26089 H 2455.71 1.74583 -0.565069 0
M  V30 26090 H 2454.09 3.81867 1.04852 0
M  V30 26091 H 2455.27 4.25135 -1.77756 0
M  V30 26092 H 2453.58 3.89996 -1.45918 0
M  V30 26093 H 2456.18 5.25871 0.96765 0
M  V30 26094 H 2456.52 3.75762 1.7919 0
M  V30 26095 H 2457.05 3.97655 0.107287 0
M  V30 26096 H 2453.79 6.31043 -1.77385 0
M  V30 26097 H 2453.31 5.99732 -0.0901262 0
M  V30 26098 H 2454.99 6.45276 -0.472062 0
M  V30 26099 N 2455.12 0.166873 1.56714 0
M  V30 26100 C 2456.37 -0.478271 1.96359 0
M  V30 26101 C 2456.69 -1.64078 1.05373 0
M  V30 26102 O 2455.96 -1.95537 0.119189 0
M  V30 26103 H 2454.54 -0.17968 0.725068 0
M  V30 26104 H 2457.21 0.247018 1.93328 0
M  V30 26105 H 2456.3 -0.84124 3.00549 0
M  V30 26106 N 2456.6 -1.57237 -0.106866 0
M  V30 26107 C 2457.53 -1.97887 -1.15643 0
M  V30 26108 C 2458.55 -0.879803 -1.36979 0
M  V30 26109 O 2459.74 -1.15801 -1.35839 0
M  V30 26110 C 2456.84 -2.27246 -2.51421 0
M  V30 26111 C 2456.01 -3.58549 -2.50522 0
M  V30 26112 C 2455.07 -3.7598 -3.68138 0
M  V30 26113 O 2454.09 -4.47962 -3.51168 0
M  V30 26114 N 2455.3 -3.15665 -4.87171 0
M  V30 26115 H 2458.06 -2.88531 -0.81054 0
M  V30 26116 H 2455.62 -1.59171 -0.295996 0
M  V30 26117 H 2457.61 -2.36111 -3.28685 0
M  V30 26118 H 2456.18 -1.42668 -2.78145 0
M  V30 26119 H 2455.4 -3.60761 -1.58887 0
M  V30 26120 H 2456.69 -4.4483 -2.46989 0
M  V30 26121 H 2456.09 -2.57174 -5.03863 0
M  V30 26122 H 2454.65 -3.30033 -5.62069 0
M  V30 26123 N 2458.08 0.377381 -1.53015 0
M  V30 26124 C 2459.33 1.12291 -1.68874 0
M  V30 26125 C 2459.66 1.89305 -0.433257 0
M  V30 26126 O 2458.93 1.85984 0.569225 0
M  V30 26127 C 2459.22 2.09173 -2.93119 0
M  V30 26128 C 2459.07 1.35846 -4.28796 0
M  V30 26129 C 2460.39 3.09452 -3.12934 0
M  V30 26130 H 2457.51 0.406851 -0.614525 0
M  V30 26131 H 2460.15 0.404997 -1.85633 0
M  V30 26132 H 2458.3 2.70394 -2.78961 0
M  V30 26133 H 2459.97 0.775002 -4.54743 0
M  V30 26134 H 2458.22 0.660289 -4.28745 0
M  V30 26135 H 2458.89 2.06697 -5.1184 0
M  V30 26136 H 2461.36 2.58328 -3.26199 0
M  V30 26137 H 2460.24 3.74474 -4.01323 0
M  V30 26138 H 2460.5 3.78967 -2.27676 0
M  V30 26139 N 2459.56 1.44175 0.636506 0
M  V30 26140 C 2460.49 1.53447 1.76 0
M  V30 26141 C 2461.47 0.38787 1.65619 0
M  V30 26142 O 2462.65 0.607289 1.8446 0
M  V30 26143 C 2459.78 1.47315 3.14508 0
M  V30 26144 C 2458.74 2.60397 3.39673 0
M  V30 26145 C 2458.06 2.39317 4.78154 0
M  V30 26146 C 2459.36 4.02573 3.32765 0
M  V30 26147 H 2461.06 2.47486 1.68497 0
M  V30 26148 H 2458.6 1.19112 0.809216 0
M  V30 26149 H 2460.56 1.52404 3.92875 0
M  V30 26150 H 2459.28 0.497906 3.22782 0
M  V30 26151 H 2457.94 2.54689 2.63684 0
M  V30 26152 H 2457.59 1.39997 4.83125 0
M  V30 26153 H 2457.29 3.1513 4.9595 0
M  V30 26154 H 2458.81 2.46215 5.58758 0
M  V30 26155 H 2460.23 4.09679 4.01044 0
M  V30 26156 H 2458.62 4.78547 3.62096 0
M  V30 26157 H 2459.69 4.26524 2.30662 0
M  V30 26158 N 2461.04 -0.876421 1.30983 0
M  V30 26159 C 2462.28 -1.62572 1.20061 0
M  V30 26160 C 2462.61 -1.93481 -0.242913 0
M  V30 26161 O 2461.88 -1.57726 -1.16187 0
M  V30 26162 H 2460.46 -0.602669 0.44136 0
M  V30 26163 H 2463.12 -1.0496 1.64224 0
M  V30 26164 H 2462.21 -2.57216 1.76767 0
M  V30 26165 N 2462.51 -1.13839 -1.08989 0
M  V30 26166 C 2463.76 -0.897541 -1.8063 0
M  V30 26167 C 2464.08 0.577737 -1.86873 0
M  V30 26168 O 2465.28 0.935656 -2.54868 0
M  V30 26169 C 2463.74 -1.55623 -3.24514 0
M  V30 26170 C 2463.35 -3.06735 -3.26523 0
M  V30 26171 C 2465.09 -1.39627 -4.0088 0
M  V30 26172 C 2463 -3.65469 -4.64959 0
M  V30 26173 H 2461.93 -0.332141 -0.676904 0
M  V30 26174 H 2464.58 -1.36662 -1.22457 0
M  V30 26175 H 2462.96 -1.01483 -3.82776 0
M  V30 26176 H 2464.13 -3.67494 -2.78002 0
M  V30 26177 H 2462.45 -3.22301 -2.6365 0
M  V30 26178 H 2465.05 -1.80915 -5.03164 0
M  V30 26179 H 2465.39 -0.341651 -4.14896 0
M  V30 26180 H 2465.92 -1.90772 -3.49072 0
M  V30 26181 H 2462.66 -4.70757 -4.56145 0
M  V30 26182 H 2462.18 -3.0949 -5.13786 0
M  V30 26183 H 2463.86 -3.6541 -5.33933 0
M  V30 26184 N 2463.99 1.27046 -0.932584 0
M  V30 26185 C 2464.94 2.24348 -0.406431 0
M  V30 26186 C 2465.93 1.53192 0.492039 0
M  V30 26187 O 2467.12 1.73921 0.328687 0
M  V30 26188 C 2464.25 3.4166 0.335154 0
M  V30 26189 C 2463.33 4.20114 -0.580114 0
M  V30 26190 N 2463.72 4.763 -1.70211 0
M  V30 26191 C 2462.02 4.44343 -0.384053 0
M  V30 26192 C 2462.72 5.35505 -2.27177 0
M  V30 26193 N 2461.7 5.20712 -1.56078 0
M  V30 26194 H 2465.5 2.65376 -1.26304 0
M  V30 26195 H 2463.02 1.42033 -0.787433 0
M  V30 26196 H 2465.01 4.10476 0.72907 0
M  V30 26197 H 2463.67 3.02162 1.18863 0
M  V30 26198 H 2464.68 4.74102 -2.08441 0
M  V30 26199 H 2461.36 4.15297 0.428363 0
M  V30 26200 H 2462.75 5.899 -3.21664 0
M  V30 26201 N 2465.47 0.698636 1.41269 0
M  V30 26202 C 2466.72 0.231243 2.01477 0
M  V30 26203 C 2467.05 -1.1671 1.55217 0
M  V30 26204 O 2466.32 -1.78837 0.764703 0
M  V30 26205 C 2466.61 0.292344 3.58911 0
M  V30 26206 C 2466.46 1.72785 4.15289 0
M  V30 26207 C 2467.78 -0.346117 4.38737 0
M  V30 26208 H 2464.9 0.0855006 0.732024 0
M  V30 26209 H 2467.54 0.887936 1.67975 0
M  V30 26210 H 2465.69 -0.266792 3.87583 0
M  V30 26211 H 2467.36 2.34107 3.97482 0
M  V30 26212 H 2465.61 2.26103 3.70216 0
M  V30 26213 H 2466.28 1.72211 5.24449 0
M  V30 26214 H 2468.75 0.130108 4.15897 0
M  V30 26215 H 2467.63 -0.272836 5.48222 0
M  V30 26216 H 2467.89 -1.42727 4.18427 0
M  V30 26217 N 2466.95 -1.51228 0.443603 0
M  V30 26218 C 2468.2 -2.0174 -0.120522 0
M  V30 26219 C 2468.52 -1.32938 -1.42663 0
M  V30 26220 O 2467.79 -0.4659 -1.90279 0
M  V30 26221 H 2466.37 -0.745486 -0.0475295 0
M  V30 26222 H 2469.03 -1.85827 0.587743 0
M  V30 26223 H 2468.13 -3.10732 -0.291917 0
M  V30 26224 N 2468.43 -0.175182 -1.56623 0
M  V30 26225 C 2469.67 0.467851 -1.9661 0
M  V30 26226 C 2470 1.63517 -1.06241 0
M  V30 26227 O 2469.27 1.95471 -0.129557 0
M  V30 26228 H 2467.85 0.175832 -0.726011 0
M  V30 26229 H 2470.51 -0.257268 -1.93195 0
M  V30 26230 H 2469.6 0.825289 -3.00991 0
M  V30 26231 N 2469.91 1.57292 0.0985263 0
M  V30 26232 C 2470.85 2.02823 1.13866 0
M  V30 26233 C 2471.85 0.928691 1.41675 0
M  V30 26234 O 2473.05 1.11387 1.41396 0
M  V30 26235 H 2469.43 0.646324 0.384408 0
M  V30 26236 H 2471.4 2.89376 0.728296 0
M  V30 26237 C 2470.15 2.46558 2.45162 0
M  V30 26238 H 2469.47 3.30744 2.24607 0
M  V30 26239 H 2470.91 2.82196 3.16451 0
M  V30 26240 C 2469.37 1.33747 3.09214 0
M  V30 26241 O 2469.9 0.66471 3.96162 0
M  V30 26242 N 2468.11 1.08932 2.69411 0
M  V30 26243 H 2467.65 1.63821 1.98798 0
M  V30 26244 H 2467.61 0.336513 3.12594 0
M  V30 26245 N 2471.38 -0.369261 1.53213 0
M  V30 26246 C 2472.63 -1.11009 1.68883 0
M  V30 26247 C 2472.95 -1.8994 0.441319 0
M  V30 26248 O 2472.22 -1.88178 -0.54459 0
M  V30 26249 H 2470.8 -0.412805 0.622576 0
M  V30 26250 H 2473.46 -0.416768 1.90392 0
M  V30 26251 H 2472.56 -1.80196 2.54825 0
M  V30 26252 N 2472.86 -1.4451 -0.628851 0
M  V30 26253 C 2474.28 -1.28447 -0.947283 0
M  V30 26254 C 2474.48 -0.221907 -2.00274 0
M  V30 26255 O 2473.53 0.391427 -2.49448 0
M  V30 26256 C 2474.85 -2.65678 -1.40839 0
M  V30 26257 C 2476.39 -2.73406 -1.52374 0
M  V30 26258 C 2476.87 -4.11112 -2.01868 0
M  V30 26259 N 2478.36 -4.133 -2.09134 0
M  V30 26260 C 2479.1 -5.16704 -2.48606 0
M  V30 26261 N 2478.59 -6.30467 -2.87198 0
M  V30 26262 N 2480.38 -5.04059 -2.4876 0
M  V30 26263 H 2472.54 -2.12287 0.069135 0
M  V30 26264 H 2474.8 -0.94747 -0.0316998 0
M  V30 26265 H 2474.5 -3.44518 -0.707145 0
M  V30 26266 H 2474.38 -2.9272 -2.37897 0
M  V30 26267 H 2476.77 -1.94884 -2.21595 0
M  V30 26268 H 2476.85 -2.50103 -0.536855 0
M  V30 26269 H 2476.49 -4.90111 -1.33242 0
M  V30 26270 H 2476.42 -4.31794 -3.01432 0
M  V30 26271 H 2478.91 -3.31195 -1.81985 0
M  V30 26272 H 2479.22 -7.05179 -3.16136 0
M  V30 26273 H 2477.57 -6.33902 -2.84944 0
M  V30 26274 H 2480.76 -4.14237 -2.18002 0
M  V30 26275 H 2480.93 -5.84768 -2.79197 0
M  V30 26276 N 2474.34 0.869463 -1.31446 0
M  V30 26277 C 2475.62 1.60501 -1.11797 0
M  V30 26278 C 2476 2.0855 0.327131 0
M  V30 26279 O 2475.34 1.86423 1.32132 0
M  V30 26280 C 2475.55 2.76261 -2.13262 0
M  V30 26281 C 2476.9 3.46211 -2.45811 0
M  V30 26282 O 2477.93 2.86469 -2.11693 0
M  V30 26283 O 2476.79 4.53985 -3.04236 0
M  V30 26284 H 2473.88 0.706156 -0.430433 0
M  V30 26285 H 2476.43 0.914882 -1.42927 0
M  V30 26286 H 2475.2 2.38174 -3.10465 0
M  V30 26287 H 2474.82 3.52961 -1.83042 0
M  V30 26288 N 2475.82 1.14415 1.08383 0
M  V30 26289 C 2477.07 0.910711 1.80417 0
M  V30 26290 C 2477.39 -0.56421 1.86659 0
M  V30 26291 O 2476.66 -1.41012 1.35987 0
M  V30 26292 H 2475.24 0.333946 0.668198 0
M  V30 26293 H 2477.9 1.44278 1.31034 0
M  V30 26294 H 2476.99 1.31087 2.83236 0
M  V30 26295 N 2477.3 -1.26549 0.939309 0
M  V30 26296 C 2478.54 -1.93839 0.585881 0
M  V30 26297 C 2478.87 -1.73719 -0.874753 0
M  V30 26298 O 2478.13 -1.06645 -1.6409 0
M  V30 26299 C 2478.42 -3.46595 0.872167 0
M  V30 26300 C 2478.09 -3.86852 2.31638 0
M  V30 26301 C 2476.75 -3.97553 2.71118 0
M  V30 26302 C 2479.1 -4.07061 3.25501 0
M  V30 26303 C 2476.43 -4.25859 4.03561 0
M  V30 26304 C 2478.78 -4.36854 4.57538 0
M  V30 26305 C 2477.45 -4.4577 4.96836 0
M  V30 26306 H 2476.72 -0.709308 0.214389 0
M  V30 26307 H 2479.37 -1.50396 1.18546 0
M  V30 26308 H 2477.67 -3.91339 0.190029 0
M  V30 26309 H 2479.37 -3.9682 0.577512 0
M  V30 26310 H 2475.96 -3.79068 2.00014 0
M  V30 26311 H 2480.14 -3.98222 2.96197 0
M  V30 26312 H 2475.4 -4.30973 4.33673 0
M  V30 26313 H 2479.57 -4.51437 5.30262 0
M  V30 26314 H 2477.2 -4.67457 5.9949 0
M  V30 26315 N 2478.77 -0.706118 -1.40896 0
M  V30 26316 C 2480 -0.249471 -2.05894 0
M  V30 26317 C 2480.42 1.09663 -1.52825 0
M  V30 26318 O 2479.78 1.68875 -0.659618 0
M  V30 26319 C 2479.83 -0.229104 -3.59871 0
M  V30 26320 O 2478.93 0.792713 -4.0471 0
M  V30 26321 H 2478.27 -0.119252 -0.653204 0
M  V30 26322 H 2480.8 -0.963942 -1.8047 0
M  V30 26323 H 2480.81 -0.0635509 -4.07951 0
M  V30 26324 H 2479.49 -1.21148 -3.97864 0
M  V30 26325 H 2478.07 0.595655 -3.68112 0
M  V30 26326 N 2480.25 1.50991 -0.451617 0
M  V30 26327 C 2481.21 2.26648 0.341077 0
M  V30 26328 C 2482.21 1.3065 0.937399 0
M  V30 26329 O 2483.4 1.54243 0.809617 0
M  V30 26330 C 2480.54 3.06908 1.48392 0
M  V30 26331 H 2481.73 2.98165 -0.322169 0
M  V30 26332 H 2479.28 1.54948 -0.205149 0
M  V30 26333 H 2480.02 2.39842 2.1828 0
M  V30 26334 H 2479.8 3.77434 1.06235 0
M  V30 26335 H 2481.29 3.64179 2.04361 0
M  V30 26336 N 2481.73 0.183486 1.56528 0
M  V30 26337 C 2482.66 -0.781015 2.14419 0
M  V30 26338 C 2483.64 -1.21761 1.07763 0
M  V30 26339 O 2484.82 -1.30721 1.35809 0
M  V30 26340 C 2481.95 -2.0533 2.69365 0
M  V30 26341 C 2481 -1.75975 3.88503 0
M  V30 26342 S 2481.83 -0.918164 5.2757 0
M  V30 26343 C 2482.99 -2.20085 5.8593 0
M  V30 26344 H 2483.22 -0.288848 2.95893 0
M  V30 26345 H 2480.75 -0.0313573 1.54368 0
M  V30 26346 H 2482.71 -2.78401 3.01667 0
M  V30 26347 H 2481.37 -2.51659 1.87953 0
M  V30 26348 H 2480.56 -2.70407 4.25319 0
M  V30 26349 H 2480.17 -1.10993 3.57151 0
M  V30 26350 H 2482.46 -3.15443 5.99585 0
M  V30 26351 H 2483.4 -1.87719 6.82764 0
M  V30 26352 H 2483.81 -2.324 5.14442 0
M  V30 26353 N 2483.21 -1.57342 -0.0901833 0
M  V30 26354 C 2484.14 -2.05444 -1.10972 0
M  V30 26355 C 2485.12 -0.944308 -1.41481 0
M  V30 26356 O 2486.3 -1.21589 -1.51426 0
M  V30 26357 C 2483.43 -2.483 -2.42826 0
M  V30 26358 C 2482.39 -3.63022 -2.26714 0
M  V30 26359 C 2481.71 -3.9187 -3.63789 0
M  V30 26360 C 2483.01 -4.93735 -1.70361 0
M  V30 26361 H 2484.71 -2.90872 -0.709513 0
M  V30 26362 H 2482.25 -1.39932 -0.339849 0
M  V30 26363 H 2484.21 -2.80561 -3.14426 0
M  V30 26364 H 2482.93 -1.59878 -2.84792 0
M  V30 26365 H 2481.59 -3.31015 -1.57559 0
M  V30 26366 H 2481.24 -3.00608 -4.03291 0
M  V30 26367 H 2480.94 -4.69108 -3.53853 0
M  V30 26368 H 2482.46 -4.2661 -4.36848 0
M  V30 26369 H 2483.88 -5.24346 -2.31807 0
M  V30 26370 H 2482.27 -5.7517 -1.71171 0
M  V30 26371 H 2483.34 -4.8034 -0.663458 0
M  V30 26372 N 2484.69 0.36113 -1.53407 0
M  V30 26373 C 2485.62 1.44853 -1.83139 0
M  V30 26374 C 2486.6 1.55689 -0.685201 0
M  V30 26375 O 2487.78 1.70184 -0.93547 0
M  V30 26376 C 2484.91 2.82135 -2.02527 0
M  V30 26377 C 2483.87 2.8612 -3.18307 0
M  V30 26378 C 2483.19 4.26119 -3.22996 0
M  V30 26379 C 2484.49 2.5324 -4.56801 0
M  V30 26380 H 2486.19 1.20221 -2.74203 0
M  V30 26381 H 2483.73 0.576899 -1.31939 0
M  V30 26382 H 2485.69 3.58237 -2.2191 0
M  V30 26383 H 2484.41 3.08164 -1.08177 0
M  V30 26384 H 2483.07 2.12469 -2.98751 0
M  V30 26385 H 2482.72 4.49231 -2.26275 0
M  V30 26386 H 2482.42 4.29701 -4.00788 0
M  V30 26387 H 2483.94 5.04088 -3.44568 0
M  V30 26388 H 2485.35 3.19056 -4.76315 0
M  V30 26389 H 2483.75 2.68131 -5.36866 0
M  V30 26390 H 2484.82 1.48476 -4.61609 0
M  V30 26391 N 2486.16 1.44842 0.621179 0
M  V30 26392 C 2487.58 1.28948 0.940458 0
M  V30 26393 C 2487.78 0.232525 2.00154 0
M  V30 26394 O 2486.84 -0.378193 2.49652 0
M  V30 26395 C 2488.15 2.66421 1.39428 0
M  V30 26396 C 2489.7 2.74211 1.50922 0
M  V30 26397 C 2490.17 4.12177 1.99685 0
M  V30 26398 N 2491.66 4.14403 2.0694 0
M  V30 26399 C 2492.4 5.18015 2.45862 0
M  V30 26400 N 2491.89 6.31982 2.83851 0
M  V30 26401 N 2493.69 5.05371 2.46083 0
M  V30 26402 H 2485.84 2.12248 -0.0803921 0
M  V30 26403 H 2488.1 0.947625 0.0266747 0
M  V30 26404 H 2487.81 3.44888 0.688864 0
M  V30 26405 H 2487.68 2.93977 2.36341 0
M  V30 26406 H 2490.07 1.96057 2.20558 0
M  V30 26407 H 2490.15 2.50384 0.523583 0
M  V30 26408 H 2489.79 4.90811 1.30641 0
M  V30 26409 H 2489.72 4.33387 2.99138 0
M  V30 26410 H 2492.21 3.32155 1.80226 0
M  V30 26411 H 2492.53 7.06846 3.12392 0
M  V30 26412 H 2490.87 6.35404 2.81578 0
M  V30 26413 H 2494.06 4.15388 2.15802 0
M  V30 26414 H 2494.24 5.8624 2.76092 0
M  V30 26415 N 2487.64 -0.862479 1.31905 0
M  V30 26416 C 2488.87 -1.65395 1.25137 0
M  V30 26417 C 2489.29 -1.87247 -0.178967 0
M  V30 26418 O 2488.65 -1.41962 -1.12768 0
M  V30 26419 C 2488.7 -2.99494 2.00837 0
M  V30 26420 O 2487.8 -3.89649 1.35082 0
M  V30 26421 H 2487.14 -0.504542 0.431664 0
M  V30 26422 H 2489.67 -1.07479 1.74096 0
M  V30 26423 H 2489.68 -3.49375 2.10715 0
M  V30 26424 H 2488.36 -2.8291 3.04852 0
M  V30 26425 H 2486.94 -3.48106 1.33702 0
M  V30 26426 N 2489.12 -1.14988 -1.07775 0
M  V30 26427 C 2490.35 -0.944434 -1.8375 0
M  V30 26428 C 2490.76 0.510548 -1.82181 0
M  V30 26429 O 2490.1 1.36574 -1.22854 0
M  V30 26430 C 2490.16 -1.37597 -3.32125 0
M  V30 26431 C 2489.83 -2.84781 -3.5742 0
M  V30 26432 C 2490.82 -3.82866 -3.51724 0
M  V30 26433 C 2488.51 -3.22347 -3.85224 0
M  V30 26434 C 2490.5 -5.16524 -3.73473 0
M  V30 26435 C 2488.19 -4.56178 -4.06626 0
M  V30 26436 C 2489.19 -5.53076 -4.00744 0
M  V30 26437 O 2488.88 -6.84491 -4.21578 0
M  V30 26438 H 2488.61 -0.335755 -0.586724 0
M  V30 26439 H 2491.16 -1.53055 -1.36979 0
M  V30 26440 H 2489.39 -0.733231 -3.79685 0
M  V30 26441 H 2491.08 -1.14031 -3.89553 0
M  V30 26442 H 2491.85 -3.5519 -3.3025 0
M  V30 26443 H 2487.73 -2.47514 -3.88918 0
M  V30 26444 H 2491.27 -5.92144 -3.68798 0
M  V30 26445 H 2487.17 -4.83572 -4.27585 0
M  V30 26446 H 2487.94 -6.90845 -4.38949 0
M  V30 26447 N 2490.6 1.26049 -0.946007 0
M  V30 26448 C 2491.85 1.93526 -0.596153 0
M  V30 26449 C 2492.17 1.74181 0.865528 0
M  V30 26450 O 2491.43 1.07513 1.63522 0
M  V30 26451 C 2491.73 3.46127 -0.890536 0
M  V30 26452 C 2491.39 3.85618 -2.33687 0
M  V30 26453 C 2490.06 3.9611 -2.73223 0
M  V30 26454 C 2492.41 4.05329 -3.27655 0
M  V30 26455 C 2489.74 4.23713 -4.05813 0
M  V30 26456 C 2492.09 4.34422 -4.59849 0
M  V30 26457 C 2490.75 4.43129 -4.99193 0
M  V30 26458 H 2490.02 0.708161 -0.218148 0
M  V30 26459 H 2492.67 1.49765 -1.19342 0
M  V30 26460 H 2490.97 3.91233 -0.21078 0
M  V30 26461 H 2492.67 3.96508 -0.598548 0
M  V30 26462 H 2489.26 3.78002 -2.02022 0
M  V30 26463 H 2493.44 3.96646 -2.98305 0
M  V30 26464 H 2488.7 4.28667 -4.35952 0
M  V30 26465 H 2492.87 4.48619 -5.32648 0
M  V30 26466 H 2490.5 4.64271 -6.0196 0
M  V30 26467 N 2492.08 0.71358 1.4052 0
M  V30 26468 C 2493.3 0.261811 2.05237 0
M  V30 26469 C 2493.72 -1.09564 1.53757 0
M  V30 26470 O 2493.08 -1.68818 0.693298 0
M  V30 26471 C 2493.13 0.230769 3.60763 0
M  V30 26472 O 2492.85 1.53462 4.10343 0
M  V30 26473 C 2494.35 -0.239796 4.42651 0
M  V30 26474 H 2491.57 0.118069 0.660531 0
M  V30 26475 H 2494.11 0.971224 1.79965 0
M  V30 26476 H 2492.27 -0.429593 3.85011 0
M  V30 26477 H 2492.68 1.43375 5.04523 0
M  V30 26478 H 2494.16 -0.210371 5.51599 0
M  V30 26479 H 2494.63 -1.28163 4.20084 0
M  V30 26480 H 2495.24 0.390216 4.23506 0
M  V30 26481 N 2493.55 -1.50749 0.459618 0
M  V30 26482 C 2494.83 -1.94942 -0.160336 0
M  V30 26483 C 2495.21 -1.39946 -1.58046 0
M  V30 26484 O 2494.56 -0.595668 -2.20599 0
M  V30 26485 C 2494.77 -3.48809 -0.115371 0
M  V30 26486 C 2496.12 -4.23467 -0.309952 0
M  V30 26487 O 2497.14 -3.5568 -0.192481 0
M  V30 26488 O 2496 -5.43766 -0.545935 0
M  V30 26489 H 2493.09 -0.818551 -0.11791 0
M  V30 26490 H 2495.64 -1.61562 0.519198 0
M  V30 26491 H 2494.41 -3.81355 0.876587 0
M  V30 26492 H 2494.04 -3.88693 -0.836859 0
M  V30 26493 N 2495.03 -0.191784 -1.56429 0
M  V30 26494 C 2496.28 0.448519 -1.97778 0
M  V30 26495 C 2496.61 1.61499 -1.0785 0
M  V30 26496 O 2495.89 1.94066 -0.129808 0
M  V30 26497 C 2496.17 0.911845 -3.48364 0
M  V30 26498 C 2496.02 -0.256215 -4.4907 0
M  V30 26499 C 2497.34 1.77849 -4.02564 0
M  V30 26500 H 2494.46 0.16156 -0.719074 0
M  V30 26501 H 2497.1 -0.28204 -1.87895 0
M  V30 26502 H 2495.25 1.53436 -3.56917 0
M  V30 26503 H 2496.92 -0.893812 -4.52558 0
M  V30 26504 H 2495.17 -0.90851 -4.2418 0
M  V30 26505 H 2495.84 0.110433 -5.5189 0
M  V30 26506 H 2498.31 1.25352 -3.9677 0
M  V30 26507 H 2497.19 2.07165 -5.08305 0
M  V30 26508 H 2497.45 2.73152 -3.47621 0
M  V30 26509 N 2496.51 1.57387 0.0818378 0
M  V30 26510 C 2497.44 1.99702 1.1248 0
M  V30 26511 C 2498.46 0.901484 1.35562 0
M  V30 26512 O 2499.64 1.17948 1.3398 0
M  V30 26513 C 2496.74 2.31217 2.47774 0
M  V30 26514 C 2495.92 3.62489 2.44786 0
M  V30 26515 C 2494.98 3.81789 3.6211 0
M  V30 26516 O 2494 4.53492 3.43997 0
M  V30 26517 N 2495.2 3.23375 4.82088 0
M  V30 26518 H 2497.97 2.89784 0.764534 0
M  V30 26519 H 2495.53 1.59622 0.270636 0
M  V30 26520 H 2497.52 2.4131 3.24887 0
M  V30 26521 H 2496.09 1.47075 2.7584 0
M  V30 26522 H 2495.31 3.63243 1.53128 0
M  V30 26523 H 2496.6 4.48703 2.39881 0
M  V30 26524 H 2496 2.65157 4.99708 0
M  V30 26525 H 2494.56 3.38933 5.56747 0
M  V30 26526 N 2497.99 -0.35299 1.53596 0
M  V30 26527 C 2499.24 -1.09212 1.70051 0
M  V30 26528 C 2499.56 -1.89462 0.46144 0
M  V30 26529 O 2498.83 -1.88745 -0.5246 0
M  V30 26530 H 2497.41 -0.406179 0.626919 0
M  V30 26531 H 2500.07 -0.396551 1.90823 0
M  V30 26532 H 2499.17 -1.77484 2.56722 0
M  V30 26533 N 2499.47 -1.45169 -0.613489 0
M  V30 26534 C 2500.4 -1.49393 -1.73823 0
M  V30 26535 C 2501.41 -0.385332 -1.58174 0
M  V30 26536 O 2502.6 -0.652065 -1.66164 0
M  V30 26537 C 2499.7 -1.32897 -3.11756 0
M  V30 26538 C 2498.87 -2.57324 -3.537 0
M  V30 26539 C 2497.93 -2.3547 -4.70575 0
M  V30 26540 O 2496.96 -3.09053 -4.77991 0
M  V30 26541 N 2498.16 -1.39654 -5.63451 0
M  V30 26542 H 2500.93 -2.46361 -1.70665 0
M  V30 26543 H 2498.49 -1.40833 -0.798595 0
M  V30 26544 H 2500.48 -1.16096 -3.8769 0
M  V30 26545 H 2499.05 -0.442272 -3.09456 0
M  V30 26546 H 2498.27 -2.8928 -2.67789 0
M  V30 26547 H 2499.56 -3.40045 -3.7848 0
M  V30 26548 H 2498.96 -0.78916 -5.60169 0
M  V30 26549 H 2497.51 -1.28827 -6.38942 0
M  V30 26550 N 2500.95 0.855472 -1.32361 0
M  V30 26551 C 2502.19 1.60446 -1.22229 0
M  V30 26552 C 2502.51 1.94418 0.214698 0
M  V30 26553 O 2503.71 2.67946 0.43787 0
M  V30 26554 C 2502.17 2.89315 -2.14068 0
M  V30 26555 C 2501.78 2.62771 -3.62844 0
M  V30 26556 C 2503.52 3.67327 -2.1277 0
M  V30 26557 C 2501.43 3.87635 -4.46647 0
M  V30 26558 H 2500.36 0.602061 -0.453915 0
M  V30 26559 H 2503.01 0.94467 -1.57316 0
M  V30 26560 H 2501.39 3.56747 -1.71895 0
M  V30 26561 H 2502.57 2.03655 -4.13354 0
M  V30 26562 H 2500.88 1.9809 -3.66264 0
M  V30 26563 H 2503.48 4.59982 -2.72619 0
M  V30 26564 H 2503.82 4.00993 -1.11848 0
M  V30 26565 H 2504.35 3.06798 -2.53219 0
M  V30 26566 H 2501.09 3.5911 -5.4838 0
M  V30 26567 H 2500.61 4.46149 -4.00888 0
M  V30 26568 H 2502.29 4.55381 -4.59605 0
M  V30 26569 N 2502.42 1.15558 1.07164 0
M  V30 26570 C 2503.65 0.955551 1.83512 0
M  V30 26571 C 2504.07 -0.496178 1.82163 0
M  V30 26572 O 2503.42 -1.34417 1.23443 0
M  V30 26573 C 2503.47 1.46438 3.30512 0
M  V30 26574 O 2503.2 2.85924 3.31932 0
M  V30 26575 C 2504.7 1.3061 4.23622 0
M  V30 26576 H 2501.92 0.339254 0.57892 0
M  V30 26577 H 2504.46 1.53376 1.35263 0
M  V30 26578 H 2502.62 0.92865 3.76105 0
M  V30 26579 H 2503.03 3.09036 4.23789 0
M  V30 26580 H 2504.5 1.71056 5.24828 0
M  V30 26581 H 2504.98 0.250518 4.38485 0
M  V30 26582 H 2505.59 1.83101 3.83867 0
M  V30 26583 N 2503.9 -1.25546 0.952678 0
M  V30 26584 C 2504.83 -2.28315 0.489327 0
M  V30 26585 C 2505.81 -1.63668 -0.46333 0
M  V30 26586 O 2507 -1.90783 -0.362707 0
M  V30 26587 C 2504.13 -3.465 -0.235542 0
M  V30 26588 C 2503.08 -4.23313 0.631668 0
M  V30 26589 C 2502.41 -5.34231 -0.223829 0
M  V30 26590 C 2503.71 -4.86171 1.9088 0
M  V30 26591 H 2505.4 -2.67324 1.34827 0
M  V30 26592 H 2502.95 -1.28508 0.64975 0
M  V30 26593 H 2504.9 -4.17516 -0.570809 0
M  V30 26594 H 2503.62 -3.06476 -1.12871 0
M  V30 26595 H 2502.28 -3.54077 0.949991 0
M  V30 26596 H 2501.93 -4.90448 -1.1167 0
M  V30 26597 H 2501.63 -5.86538 0.353094 0
M  V30 26598 H 2503.16 -6.08081 -0.554107 0
M  V30 26599 H 2504.57 -5.4934 1.64006 0
M  V30 26600 H 2502.97 -5.48645 2.43122 0
M  V30 26601 H 2504.04 -4.08466 2.61311 0
M  V30 26602 N 2505.38 -0.721022 -1.40139 0
M  V30 26603 C 2506.6 -0.271295 -2.05618 0
M  V30 26604 C 2507.03 1.08036 -1.5398 0
M  V30 26605 O 2506.39 1.68166 -0.677493 0
M  V30 26606 C 2506.44 -0.26726 -3.59608 0
M  V30 26607 O 2505.54 0.749743 -4.05528 0
M  V30 26608 H 2504.88 -0.126174 -0.651902 0
M  V30 26609 H 2507.41 -0.983029 -1.79437 0
M  V30 26610 H 2507.42 -0.106816 -4.0786 0
M  V30 26611 H 2506.1 -1.25361 -3.96557 0
M  V30 26612 H 2504.67 0.556579 -3.68723 0
M  V30 26613 N 2506.86 1.50503 -0.467606 0
M  V30 26614 C 2507.8 2.28452 0.328373 0
M  V30 26615 C 2508.77 1.33351 0.990289 0
M  V30 26616 O 2509.96 1.62286 1.0034 0
M  V30 26617 C 2507.1 3.15141 1.40643 0
M  V30 26618 C 2506.21 4.25269 0.759634 0
M  V30 26619 C 2505.35 4.9922 1.81529 0
M  V30 26620 C 2504.39 6.01228 1.14855 0
M  V30 26621 N 2503.52 6.6847 2.1469 0
M  V30 26622 H 2508.36 2.96023 -0.342655 0
M  V30 26623 H 2505.9 1.45984 -0.180827 0
M  V30 26624 H 2507.86 3.6375 2.04308 0
M  V30 26625 H 2506.49 2.49623 2.04667 0
M  V30 26626 H 2505.54 3.80399 0.0105002 0
M  V30 26627 H 2506.85 4.98255 0.233155 0
M  V30 26628 H 2506.01 5.5153 2.52783 0
M  V30 26629 H 2504.75 4.25932 2.37556 0
M  V30 26630 H 2503.75 5.48181 0.421614 0
M  V30 26631 H 2504.98 6.76487 0.595216 0
M  V30 26632 H 2502.92 5.97976 2.69741 0
M  V30 26633 H 2502.84 7.3732 1.67017 0
M  V30 26634 H 2504.11 7.25399 2.85336 0
M  V30 26635 N 2508.34 0.200077 1.56325 0
M  V30 26636 C 2509.28 -0.718795 2.19322 0
M  V30 26637 C 2510.25 -1.20613 1.142 0
M  V30 26638 O 2511.44 -1.26912 1.42471 0
M  V30 26639 C 2508.58 -1.93061 2.86044 0
M  V30 26640 C 2507.69 -1.48418 4.05705 0
M  V30 26641 C 2506.83 -2.65188 4.6027 0
M  V30 26642 C 2505.86 -2.17175 5.72277 0
M  V30 26643 N 2505 -3.27141 6.21227 0
M  V30 26644 H 2509.84 -0.174837 2.97487 0
M  V30 26645 H 2507.38 -0.0745536 1.46911 0
M  V30 26646 H 2509.34 -2.64179 3.22902 0
M  V30 26647 H 2507.97 -2.4478 2.10435 0
M  V30 26648 H 2507.02 -0.668689 3.74477 0
M  V30 26649 H 2508.33 -1.09196 4.86701 0
M  V30 26650 H 2507.48 -3.44421 4.99459 0
M  V30 26651 H 2506.22 -3.07687 3.78392 0
M  V30 26652 H 2505.23 -1.36398 5.32612 0
M  V30 26653 H 2506.45 -1.75701 6.55977 0
M  V30 26654 H 2504.4 -3.69161 5.42269 0
M  V30 26655 H 2504.32 -2.92104 6.97289 0
M  V30 26656 H 2505.58 -4.06573 6.6507 0
M  V30 26657 N 2509.81 -1.57429 -0.0734901 0
M  V30 26658 C 2511.04 -1.91391 -0.785936 0
M  V30 26659 C 2511.46 -0.795877 -1.71205 0
M  V30 26660 O 2510.81 0.230883 -1.81034 0
M  V30 26661 C 2510.86 -3.25094 -1.58101 0
M  V30 26662 O 2510.59 -4.32598 -0.692124 0
M  V30 26663 C 2512.09 -3.7306 -2.39461 0
M  V30 26664 H 2509.31 -0.632667 -0.223547 0
M  V30 26665 H 2511.85 -2.04452 -0.044266 0
M  V30 26666 H 2510.01 -3.13566 -2.27498 0
M  V30 26667 H 2510.42 -5.09511 -1.24496 0
M  V30 26668 H 2511.89 -4.69247 -2.90707 0
M  V30 26669 H 2512.37 -3.01984 -3.18908 0
M  V30 26670 H 2512.98 -3.87527 -1.75224 0
M  V30 26671 N 2511.29 0.344839 -1.53781 0
M  V30 26672 C 2512.52 1.10974 -1.75213 0
M  V30 26673 C 2512.94 1.81622 -0.489392 0
M  V30 26674 O 2512.3 1.72503 0.557895 0
M  V30 26675 C 2512.35 2.09988 -2.93151 0
M  V30 26676 O 2511.45 3.17482 -2.63209 0
M  V30 26677 H 2510.79 0.321011 -0.581247 0
M  V30 26678 H 2513.32 0.395626 -2.00739 0
M  V30 26679 H 2513.33 2.53232 -3.19903 0
M  V30 26680 H 2512.01 1.57963 -3.84734 0
M  V30 26681 H 2510.58 2.79065 -2.4734 0
M  V30 26682 N 2512.77 1.45492 0.605781 0
M  V30 26683 C 2513.68 1.56843 1.74464 0
M  V30 26684 C 2514.7 0.452802 1.68005 0
M  V30 26685 O 2515.87 0.713741 1.88329 0
M  V30 26686 C 2512.94 1.53376 3.10929 0
M  V30 26687 C 2512 2.75991 3.28827 0
M  V30 26688 C 2511.23 2.72681 4.58782 0
M  V30 26689 O 2511.45 1.80112 5.41217 0
M  V30 26690 O 2510.39 3.63908 4.79432 0
M  V30 26691 H 2514.21 2.53109 1.67838 0
M  V30 26692 H 2511.8 1.28024 0.770085 0
M  V30 26693 H 2513.68 1.54058 3.9223 0
M  V30 26694 H 2512.36 0.602628 3.18041 0
M  V30 26695 H 2511.26 2.80872 2.47107 0
M  V30 26696 H 2512.6 3.68237 3.26592 0
M  V30 26697 N 2514.25 -0.848441 1.32813 0
M  V30 26698 C 2515.49 -1.61685 1.25049 0
M  V30 26699 C 2515.85 -1.91122 -0.18343 0
M  V30 26700 O 2517.05 -2.6603 -0.384891 0
M  V30 26701 C 2515.32 -2.89772 2.09206 0
M  V30 26702 S 2516.88 -3.80511 2.18533 0
M  V30 26703 H 2513.7 -0.554497 0.445033 0
M  V30 26704 H 2516.3 -1.00426 1.67734 0
M  V30 26705 H 2515.01 -2.66103 3.12438 0
M  V30 26706 H 2514.54 -3.56044 1.67322 0
M  V30 26707 H 2516.55 -4.77781 1.33938 0
M  V30 26708 N 2515.73 -1.16125 -1.06549 0
M  V30 26709 C 2516.67 -0.861409 -2.16061 0
M  V30 26710 C 2517.67 0.168487 -1.6856 0
M  V30 26711 O 2518.87 0.0227263 -1.79986 0
M  V30 26712 H 2515.25 -0.260946 -0.705274 0
M  V30 26713 H 2517.22 -1.79248 -2.38564 0
M  V30 26714 C 2515.97 -0.376079 -3.4566 0
M  V30 26715 H 2515.29 -1.15998 -3.82602 0
M  V30 26716 H 2516.73 -0.205026 -4.23504 0
M  V30 26717 C 2515.19 0.903897 -3.24548 0
M  V30 26718 O 2515.72 1.97371 -3.49868 0
M  V30 26719 N 2513.93 0.84663 -2.77994 0
M  V30 26720 H 2513.47 -0.024147 -2.57589 0
M  V30 26721 H 2513.43 1.70355 -2.64247 0
M  V30 26722 N 2517.2 1.25039 -0.959323 0
M  V30 26723 C 2518.13 2.28053 -0.501429 0
M  V30 26724 C 2519.12 1.63912 0.454644 0
M  V30 26725 O 2520.3 1.90972 0.352584 0
M  V30 26726 C 2517.43 3.4662 0.217163 0
M  V30 26727 C 2516.38 4.22972 -0.654108 0
M  V30 26728 C 2515.71 5.34343 0.195495 0
M  V30 26729 C 2517.01 4.85152 -1.93455 0
M  V30 26730 H 2518.7 2.66605 -1.36242 0
M  V30 26731 H 2516.25 1.28161 -0.656556 0
M  V30 26732 H 2518.2 4.17813 0.548659 0
M  V30 26733 H 2516.93 3.0707 1.11244 0
M  V30 26734 H 2515.59 3.53569 -0.968755 0
M  V30 26735 H 2515.23 4.91033 1.09067 0
M  V30 26736 H 2514.93 5.86343 -0.384194 0
M  V30 26737 H 2516.46 6.08366 0.521851 0
M  V30 26738 H 2517.87 5.48463 -1.66917 0
M  V30 26739 H 2516.27 5.47348 -2.46028 0
M  V30 26740 H 2517.34 4.07075 -2.63474 0
M  V30 26741 N 2518.68 0.728444 1.39755 0
M  V30 26742 C 2520.09 0.344321 1.83497 0
M  V30 26743 C 2520.44 -1.12318 1.6087 0
M  V30 26744 O 2519.57 -1.86571 1.09637 0
M  V30 26745 C 2520.16 0.61817 3.33113 0
M  V30 26746 C 2518.72 0.287615 3.753 0
M  V30 26747 C 2517.87 0.884094 2.62829 0
M  V30 26748 H 2520.82 0.926601 1.2884 0
M  V30 26749 H 2520.84 -0.112282 3.80334 0
M  V30 26750 H 2520.35 1.68631 3.4955 0
M  V30 26751 H 2518.46 -0.774948 3.64452 0
M  V30 26752 H 2518.57 0.765595 4.72943 0
M  V30 26753 H 2516.93 0.311194 2.52792 0
M  V30 26754 H 2517.72 1.95676 2.82074 0
M  V30 26755 N 2520.16 -1.50253 0.475581 0
M  V30 26756 C 2521.39 -2.07255 -0.0776678 0
M  V30 26757 C 2521.81 -1.33662 -1.32348 0
M  V30 26758 O 2521.17 -0.385628 -1.77151 0
M  V30 26759 C 2521.22 -3.58993 -0.340106 0
M  V30 26760 O 2520.32 -3.87191 -1.41975 0
M  V30 26761 H 2519.66 -0.663831 0.0149673 0
M  V30 26762 H 2522.19 -1.93391 0.667912 0
M  V30 26763 H 2522.2 -4.03867 -0.579261 0
M  V30 26764 H 2520.88 -4.11972 0.570239 0
M  V30 26765 H 2519.45 -3.5415 -1.16756 0
M  V30 26766 N 2521.64 -0.208365 -1.56217 0
M  V30 26767 C 2522.89 0.42717 -1.97125 0
M  V30 26768 C 2523.2 1.61833 -1.09861 0
M  V30 26769 O 2524.41 2.32252 -1.4061 0
M  V30 26770 C 2522.86 0.81138 -3.50635 0
M  V30 26771 C 2522.47 -0.356228 -4.46581 0
M  V30 26772 C 2524.21 1.41325 -4.00284 0
M  V30 26773 C 2522.12 0.0496813 -5.91379 0
M  V30 26774 H 2521.05 0.163368 -0.736089 0
M  V30 26775 H 2523.7 -0.302488 -1.8099 0
M  V30 26776 H 2522.08 1.59808 -3.62322 0
M  V30 26777 H 2523.26 -1.13378 -4.46634 0
M  V30 26778 H 2521.57 -0.870467 -4.072 0
M  V30 26779 H 2524.17 1.72963 -5.05953 0
M  V30 26780 H 2524.51 2.32443 -3.45364 0
M  V30 26781 H 2525.05 0.690255 -3.91766 0
M  V30 26782 H 2521.79 -0.827643 -6.50254 0
M  V30 26783 H 2521.31 0.791821 -5.9455 0
M  V30 26784 H 2522.98 0.480929 -6.4521 0
M  V30 26785 N 2523.12 1.57465 0.0651402 0
M  V30 26786 C 2524.07 2.00596 1.08376 0
M  V30 26787 C 2525.05 0.889095 1.34104 0
M  V30 26788 O 2526.24 1.15301 1.34293 0
M  V30 26789 C 2523.37 2.45898 2.3956 0
M  V30 26790 C 2522.46 3.64332 2.17078 0
M  V30 26791 N 2522.85 4.78287 1.64544 0
M  V30 26792 C 2521.15 3.7101 2.47523 0
M  V30 26793 C 2521.85 5.60103 1.57032 0
M  V30 26794 N 2520.82 5.04145 2.0332 0
M  V30 26795 H 2524.63 2.86137 0.671011 0
M  V30 26796 H 2522.14 1.60104 0.272102 0
M  V30 26797 H 2524.14 2.75039 3.13304 0
M  V30 26798 H 2522.8 1.61746 2.81546 0
M  V30 26799 H 2523.81 5.00447 1.33314 0
M  V30 26800 H 2520.48 2.97585 2.9283 0
M  V30 26801 H 2521.87 6.61597 1.17211 0
M  V30 26802 N 2524.59 -0.336679 1.53962 0
M  V30 26803 C 2525.82 -1.09602 1.75485 0
M  V30 26804 C 2526.24 -1.82135 0.497232 0
M  V30 26805 O 2525.59 -1.7459 -0.531459 0
M  V30 26806 C 2525.65 -2.10423 2.93946 0
M  V30 26807 O 2525.37 -1.40839 4.14845 0
M  V30 26808 C 2526.87 -2.98679 3.27576 0
M  V30 26809 H 2524.09 -0.326564 0.586171 0
M  V30 26810 H 2526.63 -0.386795 2.00809 0
M  V30 26811 H 2524.79 -2.769 2.70934 0
M  V30 26812 H 2525.2 -2.08247 4.81387 0
M  V30 26813 H 2526.67 -3.65343 4.13798 0
M  V30 26814 H 2527.15 -3.65069 2.44174 0
M  V30 26815 H 2527.76 -2.37781 3.52619 0
M  V30 26816 N 2526.07 -1.45812 -0.598057 0
M  V30 26817 C 2527.48 -1.44675 -1.18009 0
M  V30 26818 C 2527.83 -0.179399 -1.95378 0
M  V30 26819 O 2526.96 0.718473 -2.04125 0
M  V30 26820 C 2527.55 -2.62109 -2.14673 0
M  V30 26821 C 2526.11 -2.64062 -2.68232 0
M  V30 26822 C 2525.26 -2.37093 -1.43812 0
M  V30 26823 H 2528.21 -1.53913 -0.386833 0
M  V30 26824 H 2528.23 -2.36752 -2.97874 0
M  V30 26825 H 2527.74 -3.54333 -1.58334 0
M  V30 26826 H 2525.85 -1.75869 -3.28482 0
M  V30 26827 H 2525.96 -3.63571 -3.12014 0
M  V30 26828 H 2524.32 -1.86841 -1.73097 0
M  V30 26829 H 2525.11 -3.31475 -0.893275 0
M  V30 26830 N 2527.55 0.841385 -1.33261 0
M  V30 26831 C 2528.79 1.6102 -1.25905 0
M  V30 26832 C 2529.15 1.91216 0.173292 0
M  V30 26833 O 2530.36 2.66231 0.370777 0
M  V30 26834 C 2528.63 2.88658 -2.1074 0
M  V30 26835 S 2530.19 3.79347 -2.20547 0
M  V30 26836 H 2527 0.552129 -0.447967 0
M  V30 26837 H 2529.61 0.995352 -1.68265 0
M  V30 26838 H 2528.31 2.64442 -3.13845 0
M  V30 26839 H 2527.84 3.55151 -1.69208 0
M  V30 26840 H 2529.86 4.77064 -1.3647 0
M  V30 26841 N 2529.03 1.16688 1.05932 0
M  V30 26842 C 2529.98 0.876786 2.13497 0
M  V30 26843 C 2530.95 -0.17627 1.65162 0
M  V30 26844 O 2532.13 -0.0406807 1.90757 0
M  V30 26845 C 2529.27 0.388027 3.42912 0
M  V30 26846 C 2528.38 1.50433 4.04961 0
M  V30 26847 C 2527.52 0.970217 5.22265 0
M  V30 26848 C 2526.56 2.06248 5.76306 0
M  V30 26849 N 2525.7 1.54368 6.8492 0
M  V30 26850 H 2530.54 1.79794 2.37651 0
M  V30 26851 H 2528.07 0.896863 1.16597 0
M  V30 26852 H 2530.03 0.0862593 4.17111 0
M  V30 26853 H 2528.66 -0.496179 3.18964 0
M  V30 26854 H 2527.71 1.92199 3.28274 0
M  V30 26855 H 2529.02 2.32844 4.41118 0
M  V30 26856 H 2528.18 0.621849 6.03505 0
M  V30 26857 H 2526.92 0.115463 4.87563 0
M  V30 26858 H 2525.92 2.41951 4.937 0
M  V30 26859 H 2527.15 2.92126 6.13057 0
M  V30 26860 H 2525.09 0.71152 6.5213 0
M  V30 26861 H 2525.01 2.30392 7.20039 0
M  V30 26862 H 2526.28 1.22401 7.6983 0
M  V30 26863 N 2530.51 -1.24529 0.96594 0
M  V30 26864 C 2531.74 -1.96608 0.64442 0
M  V30 26865 C 2532.15 -1.7167 -0.785793 0
M  V30 26866 O 2531.51 -0.999426 -1.52701 0
M  V30 26867 C 2531.56 -3.49925 0.907436 0
M  V30 26868 O 2531.28 -3.74009 2.28142 0
M  V30 26869 C 2532.78 -4.39223 0.599861 0
M  V30 26870 H 2530 -0.626381 0.240599 0
M  V30 26871 H 2532.54 -1.58403 1.29339 0
M  V30 26872 H 2530.7 -3.862 0.304699 0
M  V30 26873 H 2531.11 -4.68401 2.3601 0
M  V30 26874 H 2532.59 -5.45658 0.834359 0
M  V30 26875 H 2533.06 -4.36722 -0.465844 0
M  V30 26876 H 2533.67 -4.08533 1.18242 0
M  V30 26877 N 2531.99 -0.735845 -1.39367 0
M  V30 26878 C 2532.93 -0.096423 -2.30598 0
M  V30 26879 C 2533.9 0.728768 -1.49259 0
M  V30 26880 O 2535.09 0.688557 -1.77943 0
M  V30 26881 C 2532.23 0.804246 -3.35598 0
M  V30 26882 C 2531.34 -0.033652 -4.31987 0
M  V30 26883 C 2530.48 0.868369 -5.24054 0
M  V30 26884 C 2529.51 0.02577 -6.12095 0
M  V30 26885 N 2528.65 0.883771 -6.96516 0
M  V30 26886 H 2533.49 -0.880052 -2.84709 0
M  V30 26887 H 2531.03 -0.445644 -1.40187 0
M  V30 26888 H 2532.99 1.34089 -3.95064 0
M  V30 26889 H 2531.62 1.55384 -2.82941 0
M  V30 26890 H 2530.67 -0.687726 -3.74132 0
M  V30 26891 H 2531.98 -0.685123 -4.94072 0
M  V30 26892 H 2531.13 1.47283 -5.88551 0
M  V30 26893 H 2529.87 1.55362 -4.62292 0
M  V30 26894 H 2528.88 -0.591482 -5.46609 0
M  V30 26895 H 2530.1 -0.656274 -6.75921 0
M  V30 26896 H 2528.05 1.5543 -6.37321 0
M  V30 26897 H 2527.97 0.288798 -7.55448 0
M  V30 26898 H 2529.23 1.47376 -7.65441 0
M  V30 26899 N 2533.46 1.49999 -0.483543 0
M  V30 26900 C 2534.39 2.31644 0.293788 0
M  V30 26901 C 2535.37 1.39114 0.97884 0
M  V30 26902 O 2536.56 1.68031 0.973614 0
M  V30 26903 C 2533.69 3.19183 1.36892 0
M  V30 26904 C 2532.64 4.20366 0.804759 0
M  V30 26905 C 2531.97 4.96725 1.97911 0
M  V30 26906 C 2533.27 5.21945 -0.192404 0
M  V30 26907 H 2534.96 2.9688 -0.387668 0
M  V30 26908 H 2532.51 1.42769 -0.187881 0
M  V30 26909 H 2534.46 3.75103 1.9203 0
M  V30 26910 H 2533.19 2.51857 2.07932 0
M  V30 26911 H 2531.85 3.65565 0.275254 0
M  V30 26912 H 2531.49 4.25861 2.67678 0
M  V30 26913 H 2531.19 5.65176 1.60779 0
M  V30 26914 H 2532.72 5.55483 2.53516 0
M  V30 26915 H 2534.13 5.72663 0.270232 0
M  V30 26916 H 2532.53 5.98188 -0.478648 0
M  V30 26917 H 2533.6 4.71926 -1.11418 0
M  V30 26918 N 2534.94 0.216646 1.56104 0
M  V30 26919 C 2535.87 -0.727722 2.1734 0
M  V30 26920 C 2536.89 -1.16114 1.14111 0
M  V30 26921 O 2538.08 -1.09314 1.41112 0
M  V30 26922 C 2535.18 -1.99688 2.73821 0
M  V30 26923 C 2534.35 -1.71981 4.02171 0
M  V30 26924 C 2533.41 -2.83554 4.43264 0
M  V30 26925 O 2532.43 -2.52235 5.10261 0
M  V30 26926 N 2533.64 -4.124 4.08542 0
M  V30 26927 H 2536.4 -0.20393 2.99005 0
M  V30 26928 H 2533.96 0.0354574 1.61861 0
M  V30 26929 H 2535.95 -2.73511 2.98285 0
M  V30 26930 H 2534.52 -2.43128 1.96487 0
M  V30 26931 H 2533.74 -0.818269 3.85614 0
M  V30 26932 H 2535.03 -1.50894 4.8591 0
M  V30 26933 H 2534.43 -4.4069 3.54695 0
M  V30 26934 H 2532.99 -4.82782 4.3791 0
M  V30 26935 N 2536.42 -1.57498 -0.0567885 0
M  V30 26936 C 2537.83 -1.76563 -0.606827 0
M  V30 26937 C 2538.18 -0.844125 -1.77113 0
M  V30 26938 O 2537.31 -0.0319291 -2.16376 0
M  V30 26939 C 2537.9 -3.20184 -1.1076 0
M  V30 26940 C 2536.46 -3.40542 -1.60338 0
M  V30 26941 C 2535.61 -2.72202 -0.529263 0
M  V30 26942 H 2538.56 -1.57793 0.16942 0
M  V30 26943 H 2538.58 -3.2517 -1.97597 0
M  V30 26944 H 2538.09 -3.87228 -0.259992 0
M  V30 26945 H 2536.19 -2.78633 -2.47374 0
M  V30 26946 H 2536.31 -4.49053 -1.66998 0
M  V30 26947 H 2534.67 -2.35181 -0.977852 0
M  V30 26948 H 2535.45 -3.41912 0.308412 0
M  V30 26949 N 2537.9 0.328509 -1.54138 0
M  V30 26950 C 2539.12 1.09109 -1.7638 0
M  V30 26951 C 2539.55 1.81093 -0.508628 0
M  V30 26952 O 2538.91 1.73085 0.539567 0
M  V30 26953 C 2538.95 2.06867 -2.95361 0
M  V30 26954 O 2538.06 3.14673 -2.66561 0
M  V30 26955 H 2537.4 0.314828 -0.584619 0
M  V30 26956 H 2539.93 0.374313 -2.01147 0
M  V30 26957 H 2539.94 2.49824 -3.22571 0
M  V30 26958 H 2538.61 1.53874 -3.86388 0
M  V30 26959 H 2537.19 2.76426 -2.50286 0
M  V30 26960 N 2539.38 1.46127 0.590316 0
M  V30 26961 C 2540.62 1.51266 1.35079 0
M  V30 26962 C 2540.95 0.160745 1.93534 0
M  V30 26963 O 2540.23 -0.826925 1.76046 0
M  V30 26964 C 2540.51 2.60535 2.48584 0
M  V30 26965 C 2540.37 4.05231 1.95213 0
M  V30 26966 C 2541.68 2.65946 3.50658 0
M  V30 26967 H 2538.8 0.550701 0.489794 0
M  V30 26968 H 2541.45 1.78025 0.663856 0
M  V30 26969 H 2539.6 2.37848 3.07181 0
M  V30 26970 H 2541.27 4.39181 1.41131 0
M  V30 26971 H 2539.51 4.1507 1.26093 0
M  V30 26972 H 2540.18 4.77402 2.77113 0
M  V30 26973 H 2542.66 2.86319 3.01929 0
M  V30 26974 H 2541.53 3.44234 4.27545 0
M  V30 26975 H 2541.79 1.71701 4.07396 0
M  V30 26976 N 2540.85 -0.834306 1.33705 0
M  V30 26977 C 2542.1 -1.58985 1.2542 0
M  V30 26978 C 2542.43 -1.93676 -0.178835 0
M  V30 26979 O 2541.68 -1.59267 -1.13721 0
M  V30 26980 C 2541.98 -2.90688 2.07931 0
M  V30 26981 C 2541.65 -2.75339 3.5707 0
M  V30 26982 C 2540.31 -2.7086 3.97729 0
M  V30 26983 C 2542.66 -2.5982 4.51822 0
M  V30 26984 C 2539.99 -2.48769 5.31348 0
M  V30 26985 C 2542.34 -2.39262 5.85608 0
M  V30 26986 C 2541.01 -2.33188 6.25444 0
M  V30 26987 H 2540.28 -0.581766 0.458944 0
M  V30 26988 H 2542.92 -0.966232 1.65337 0
M  V30 26989 H 2541.23 -3.5728 1.60806 0
M  V30 26990 H 2542.93 -3.4821 1.98874 0
M  V30 26991 H 2539.52 -2.79659 3.2479 0
M  V30 26992 H 2543.7 -2.62311 4.21315 0
M  V30 26993 H 2538.96 -2.42516 5.61245 0
M  V30 26994 H 2543.13 -2.26238 6.58627 0
M  V30 26995 H 2540.76 -2.1583 7.28918 0
M  V30 26996 N 2542.33 -1.17248 -1.05312 0
M  V30 26997 C 2543.56 -0.983197 -1.81705 0
M  V30 26998 C 2543.97 0.471789 -1.83223 0
M  V30 26999 O 2543.31 1.33937 -1.25724 0
M  V30 27000 C 2543.37 -1.44611 -3.29132 0
M  V30 27001 C 2543.04 -2.92298 -3.51299 0
M  V30 27002 C 2544.04 -3.90241 -3.43523 0
M  V30 27003 C 2541.72 -3.30446 -3.783 0
M  V30 27004 C 2543.71 -5.2433 -3.62432 0
M  V30 27005 C 2541.4 -4.64701 -3.96858 0
M  V30 27006 C 2542.4 -5.61452 -3.88923 0
M  V30 27007 O 2542.09 -6.93279 -4.06964 0
M  V30 27008 H 2541.82 -0.348124 -0.57947 0
M  V30 27009 H 2544.37 -1.55926 -1.33702 0
M  V30 27010 H 2542.6 -0.813603 -3.78044 0
M  V30 27011 H 2544.29 -1.22269 -3.87047 0
M  V30 27012 H 2545.06 -3.62115 -3.22642 0
M  V30 27013 H 2540.94 -2.55708 -3.83581 0
M  V30 27014 H 2544.48 -5.99833 -3.56155 0
M  V30 27015 H 2540.38 -4.92533 -4.17231 0
M  V30 27016 H 2541.15 -7 -4.24196 0
M  V30 27017 N 2543.81 1.24015 -0.972531 0
M  V30 27018 C 2545.09 1.87597 -0.553766 0
M  V30 27019 C 2545.47 1.8754 0.969125 0
M  V30 27020 O 2544.82 1.35142 1.84252 0
M  V30 27021 C 2545.03 3.2948 -1.15082 0
M  V30 27022 C 2546.37 4.0613 -1.23869 0
M  V30 27023 O 2547.4 3.3867 -1.10369 0
M  V30 27024 O 2546.26 5.26841 -1.45261 0
M  V30 27025 H 2543.35 0.805963 -0.185345 0
M  V30 27026 H 2545.9 1.3195 -1.06711 0
M  V30 27027 H 2544.67 3.24046 -2.19339 0
M  V30 27028 H 2544.29 3.92708 -0.621815 0
M  V30 27029 N 2545.29 0.743226 1.38974 0
M  V30 27030 C 2546.53 0.295224 2.0064 0
M  V30 27031 C 2546.87 -1.11713 1.58852 0
M  V30 27032 O 2546.14 -1.76313 0.821212 0
M  V30 27033 C 2546.43 0.406381 3.578 0
M  V30 27034 C 2546.28 1.8591 4.09582 0
M  V30 27035 C 2547.6 -0.206361 4.39616 0
M  V30 27036 H 2544.72 0.108746 0.728933 0
M  V30 27037 H 2547.36 0.940926 1.65065 0
M  V30 27038 H 2545.51 -0.143351 3.88235 0
M  V30 27039 H 2547.18 2.46634 3.89833 0
M  V30 27040 H 2545.42 2.37767 3.62835 0
M  V30 27041 H 2546.09 1.88809 5.18705 0
M  V30 27042 H 2548.57 0.262356 4.15272 0
M  V30 27043 H 2547.45 -0.0982854 5.48812 0
M  V30 27044 H 2547.71 -1.29342 4.22756 0
M  V30 27045 N 2546.77 -1.4974 0.491491 0
M  V30 27046 C 2548.01 -2.02421 -0.05639 0
M  V30 27047 C 2548.34 -1.37195 -1.37869 0
M  V30 27048 O 2547.6 -0.493542 -1.89374 0
M  V30 27049 C 2547.9 -3.56399 -0.267266 0
M  V30 27050 C 2547.56 -4.40213 0.975853 0
M  V30 27051 C 2546.22 -4.62837 1.31664 0
M  V30 27052 C 2548.58 -4.89036 1.80259 0
M  V30 27053 C 2545.9 -5.31528 2.48385 0
M  V30 27054 C 2548.26 -5.5901 2.96126 0
M  V30 27055 C 2546.92 -5.79882 3.30595 0
M  V30 27056 H 2546.19 -0.740713 -0.0206346 0
M  V30 27057 H 2548.84 -1.80141 0.649718 0
M  V30 27058 H 2547.14 -3.77306 -1.05581 0
M  V30 27059 H 2548.84 -3.94745 -0.70548 0
M  V30 27060 H 2545.43 -4.22839 0.700389 0
M  V30 27061 H 2549.61 -4.71394 1.55247 0
M  V30 27062 H 2544.87 -5.45892 2.7534 0
M  V30 27063 H 2549.04 -5.95817 3.6052 0
M  V30 27064 H 2546.67 -6.32884 4.21143 0
M  V30 27065 N 2548.24 -0.224922 -1.55987 0
M  V30 27066 C 2549.66 0.282313 -1.84553 0
M  V30 27067 C 2550.01 1.59225 -1.14637 0
M  V30 27068 O 2549.13 2.1234 -0.417192 0
M  V30 27069 C 2549.73 0.519003 -3.34801 0
M  V30 27070 C 2548.29 0.97054 -3.63672 0
M  V30 27071 C 2547.43 0.0354773 -2.77277 0
M  V30 27072 H 2550.38 -0.448033 -1.52244 0
M  V30 27073 H 2550.4 1.36457 -3.5519 0
M  V30 27074 H 2549.92 -0.434558 -3.85659 0
M  V30 27075 H 2548.02 1.93734 -3.18273 0
M  V30 27076 H 2548.13 0.842615 -4.71632 0
M  V30 27077 H 2546.49 0.542884 -2.48847 0
M  V30 27078 H 2547.28 -0.913061 -3.30935 0
M  V30 27079 N 2549.72 1.57526 0.0484352 0
M  V30 27080 C 2550.97 1.88001 0.741624 0
M  V30 27081 C 2551.29 0.820085 1.76917 0
M  V30 27082 O 2550.56 -0.148627 1.95335 0
M  V30 27083 H 2549.14 0.693785 0.276896 0
M  V30 27084 H 2551.8 1.94891 0.0189788 0
M  V30 27085 H 2550.9 2.86266 1.24331 0
M  V30 27086 N 2551.2 -0.32033 1.5431 0
M  V30 27087 C 2552.43 -1.08172 1.76956 0
M  V30 27088 C 2552.85 -1.8082 0.518225 0
M  V30 27089 O 2552.21 -1.73369 -0.530381 0
M  V30 27090 C 2552.26 -2.05298 2.96454 0
M  V30 27091 O 2551.36 -3.13255 2.68226 0
M  V30 27092 H 2550.7 -0.311723 0.586281 0
M  V30 27093 H 2553.23 -0.36364 2.01343 0
M  V30 27094 H 2553.24 -2.4811 3.23891 0
M  V30 27095 H 2551.92 -1.51822 3.87199 0
M  V30 27096 H 2550.49 -2.75094 2.51749 0
M  V30 27097 N 2552.68 -1.46438 -0.582558 0
M  V30 27098 C 2553.63 -1.57013 -1.69161 0
M  V30 27099 C 2554.6 -0.414431 -1.60847 0
M  V30 27100 O 2555.78 -0.631202 -1.80057 0
M  V30 27101 C 2552.92 -1.56651 -3.07497 0
M  V30 27102 C 2552.03 -2.82956 -3.26435 0
M  V30 27103 C 2551.17 -2.74098 -4.55021 0
M  V30 27104 C 2550.21 -3.95341 -4.67303 0
M  V30 27105 N 2549.34 -3.84868 -5.87215 0
M  V30 27106 H 2554.18 -2.51747 -1.5946 0
M  V30 27107 H 2551.72 -1.24894 -0.777164 0
M  V30 27108 H 2553.68 -1.54427 -3.87567 0
M  V30 27109 H 2552.31 -0.654495 -3.16095 0
M  V30 27110 H 2551.36 -2.9516 -2.39969 0
M  V30 27111 H 2552.67 -3.72813 -3.31378 0
M  V30 27112 H 2551.83 -2.6998 -5.43319 0
M  V30 27113 H 2550.57 -1.81881 -4.52516 0
M  V30 27114 H 2549.57 -3.99791 -3.77422 0
M  V30 27115 H 2550.8 -4.88654 -4.71586 0
M  V30 27116 H 2548.74 -2.95438 -5.85707 0
M  V30 27117 H 2548.66 -4.68381 -5.93427 0
M  V30 27118 H 2549.93 -3.84725 -6.77943 0
M  V30 27119 N 2554.16 0.827204 -1.34146 0
M  V30 27120 C 2555.07 1.96973 -1.27432 0
M  V30 27121 C 2556.08 1.73038 -0.182758 0
M  V30 27122 O 2557.26 1.97214 -0.408461 0
M  V30 27123 C 2554.32 3.31192 -1.02532 0
M  V30 27124 C 2553.38 3.68164 -2.20802 0
M  V30 27125 C 2552.62 4.95978 -1.97081 0
M  V30 27126 O 2552.84 5.62818 -0.926921 0
M  V30 27127 O 2551.77 5.30728 -2.83921 0
M  V30 27128 H 2555.6 2.0558 -2.23541 0
M  V30 27129 H 2553.19 0.961969 -1.14309 0
M  V30 27130 H 2555.07 4.11587 -0.904099 0
M  V30 27131 H 2553.74 3.23562 -0.0945958 0
M  V30 27132 H 2552.65 2.88231 -2.38483 0
M  V30 27133 H 2553.98 3.80474 -3.1225 0
M  V30 27134 N 2555.63 1.17805 1.04688 0
M  V30 27135 C 2557.05 0.974717 1.59236 0
M  V30 27136 C 2557.4 -0.477259 1.90307 0
M  V30 27137 O 2556.52 -1.35349 1.68848 0
M  V30 27138 C 2557.12 1.76301 2.89315 0
M  V30 27139 C 2555.68 1.6042 3.40503 0
M  V30 27140 C 2554.82 1.76144 2.14169 0
M  V30 27141 H 2557.77 1.3244 0.874371 0
M  V30 27142 H 2557.79 1.24839 3.59438 0
M  V30 27143 H 2557.31 2.81973 2.6667 0
M  V30 27144 H 2555.41 0.572583 3.68174 0
M  V30 27145 H 2555.52 2.39834 4.14749 0
M  V30 27146 H 2553.88 1.19032 2.25174 0
M  V30 27147 H 2554.67 2.83238 1.93987 0
M  V30 27148 N 2557.11 -1.23497 0.979094 0
M  V30 27149 C 2558.08 -2.23147 0.523283 0
M  V30 27150 C 2559.08 -1.56089 -0.386379 0
M  V30 27151 O 2560.27 -1.73265 -0.180252 0
M  V30 27152 C 2557.4 -3.40049 -0.240679 0
M  V30 27153 H 2558.59 -2.64986 1.40436 0
M  V30 27154 H 2556.14 -1.36308 0.764848 0
M  V30 27155 H 2556.88 -3.03664 -1.13836 0
M  V30 27156 H 2556.66 -3.89927 0.412275 0
M  V30 27157 H 2558.15 -4.13986 -0.548225 0
M  V30 27158 N 2558.59 -0.750586 -1.38578 0
M  V30 27159 C 2559.84 -0.30586 -2.0048 0
M  V30 27160 C 2560.17 1.10869 -1.59442 0
M  V30 27161 O 2559.45 1.75875 -0.830551 0
M  V30 27162 C 2559.73 -0.42535 -3.57579 0
M  V30 27163 C 2559.58 -1.88079 -4.08591 0
M  V30 27164 C 2560.9 0.183045 -4.39719 0
M  V30 27165 H 2558.02 -0.11261 -0.728346 0
M  V30 27166 H 2560.66 -0.949667 -1.64564 0
M  V30 27167 H 2558.81 0.122759 -3.88306 0
M  V30 27168 H 2560.48 -2.48698 -3.88519 0
M  V30 27169 H 2558.73 -2.39687 -3.61569 0
M  V30 27170 H 2559.4 -1.91557 -5.17697 0
M  V30 27171 H 2561.87 -0.284376 -4.15127 0
M  V30 27172 H 2560.75 0.0691792 -5.48856 0
M  V30 27173 H 2561.01 1.27099 -4.23436 0
M  V30 27174 N 2560.07 1.49477 -0.499425 0
M  V30 27175 C 2561 2.31943 0.269203 0
M  V30 27176 C 2561.98 1.40144 0.96403 0
M  V30 27177 O 2563.17 1.69054 0.955737 0
M  V30 27178 C 2560.3 3.20617 1.33499 0
M  V30 27179 C 2559.25 4.21196 0.760128 0
M  V30 27180 C 2558.58 4.98796 1.92631 0
M  V30 27181 C 2559.88 5.21712 -0.247753 0
M  V30 27182 H 2561.57 2.96452 -0.419134 0
M  V30 27183 H 2559.12 1.42562 -0.203013 0
M  V30 27184 H 2561.07 3.77119 1.88041 0
M  V30 27185 H 2559.79 2.54048 2.05249 0
M  V30 27186 H 2558.45 3.65837 0.236466 0
M  V30 27187 H 2558.1 4.28676 2.63146 0
M  V30 27188 H 2557.8 5.6685 1.54775 0
M  V30 27189 H 2559.32 5.58141 2.4761 0
M  V30 27190 H 2560.74 5.72917 0.209479 0
M  V30 27191 H 2559.13 5.97647 -0.542067 0
M  V30 27192 H 2560.2 4.70718 -1.16417 0
M  V30 27193 N 2561.55 0.233191 1.55865 0
M  V30 27194 C 2562.77 -0.402871 2.0345 0
M  V30 27195 C 2563.2 -1.51734 1.11168 0
M  V30 27196 O 2562.56 -1.81013 0.102028 0
M  V30 27197 C 2562.6 -0.900839 3.49167 0
M  V30 27198 O 2561.71 -2.01141 3.60022 0
M  V30 27199 H 2561.05 -0.089691 0.657915 0
M  V30 27200 H 2563.58 0.355236 2.01493 0
M  V30 27201 H 2563.59 -1.20764 3.89718 0
M  V30 27202 H 2562.26 -0.0852158 4.15813 0
M  V30 27203 H 2560.84 -1.71036 3.31363 0
M  V30 27204 N 2563.03 -1.57549 -0.0400806 0
M  V30 27205 C 2563.94 -2.09222 -1.06129 0
M  V30 27206 C 2564.95 -1.02843 -1.40354 0
M  V30 27207 O 2566.13 -1.34512 -1.49895 0
M  V30 27208 C 2563.19 -2.55223 -2.34654 0
M  V30 27209 C 2562.25 -3.76037 -2.0711 0
M  V30 27210 C 2561.49 -4.19834 -3.29507 0
M  V30 27211 O 2561.71 -3.6324 -4.39787 0
M  V30 27212 O 2560.64 -5.12367 -3.15854 0
M  V30 27213 H 2564.47 -2.96614 -0.652192 0
M  V30 27214 H 2562.05 -1.47184 -0.256343 0
M  V30 27215 H 2563.94 -2.85189 -3.10234 0
M  V30 27216 H 2562.61 -1.70946 -2.7488 0
M  V30 27217 H 2561.52 -3.51106 -1.29133 0
M  V30 27218 H 2562.85 -4.61264 -1.71746 0
M  V30 27219 N 2564.5 0.312142 -1.54478 0
M  V30 27220 C 2565.45 1.38457 -1.84657 0
M  V30 27221 C 2566.42 1.50881 -0.694563 0
M  V30 27222 O 2567.61 1.65918 -0.94211 0
M  V30 27223 C 2564.75 2.74641 -2.08965 0
M  V30 27224 C 2563.86 2.70757 -3.36622 0
M  V30 27225 C 2562.99 3.98862 -3.50831 0
M  V30 27226 C 2562.03 3.89331 -4.72322 0
M  V30 27227 N 2561.17 5.09189 -4.83396 0
M  V30 27228 H 2566.01 1.12021 -2.76144 0
M  V30 27229 H 2563.55 0.542041 -1.36749 0
M  V30 27230 H 2565.5 3.53825 -2.21051 0
M  V30 27231 H 2564.13 2.99362 -1.20757 0
M  V30 27232 H 2563.19 1.835 -3.33214 0
M  V30 27233 H 2564.5 2.59601 -4.25921 0
M  V30 27234 H 2563.65 4.8648 -3.62522 0
M  V30 27235 H 2562.39 4.12839 -2.59645 0
M  V30 27236 H 2561.4 3.00097 -4.60676 0
M  V30 27237 H 2562.62 3.76909 -5.64904 0
M  V30 27238 H 2560.57 5.2365 -3.95129 0
M  V30 27239 H 2560.48 5.00412 -5.66678 0
M  V30 27240 H 2561.75 5.98489 -4.99431 0
M  V30 27241 N 2565.98 1.46745 0.574784 0
M  V30 27242 C 2567.26 1.42942 1.33518 0
M  V30 27243 C 2567.64 0.117046 2.10775 0
M  V30 27244 O 2566.99 -0.901437 2.09968 0
M  V30 27245 C 2567.2 2.66407 2.25451 0
M  V30 27246 C 2568.54 3.12888 2.8703 0
M  V30 27247 O 2569.57 2.67011 2.35761 0
M  V30 27248 O 2568.43 3.92596 3.80172 0
M  V30 27249 H 2565.52 0.568823 0.600308 0
M  V30 27250 H 2568.07 1.58922 0.595143 0
M  V30 27251 H 2566.84 3.53474 1.67845 0
M  V30 27252 H 2566.46 2.52926 3.0678 0
M  V30 27253 N 2567.46 -0.820078 1.34583 0
M  V30 27254 C 2568.42 -1.91273 1.26283 0
M  V30 27255 C 2569.42 -1.59819 0.177372 0
M  V30 27256 O 2570.61 -1.68805 0.430186 0
M  V30 27257 C 2567.74 -3.27384 0.950385 0
M  V30 27258 H 2568.94 -2.00054 2.23425 0
M  V30 27259 H 2566.49 -1.01438 1.18912 0
M  V30 27260 H 2567.23 -3.24295 -0.0177368 0
M  V30 27261 H 2567.01 -3.51598 1.73556 0
M  V30 27262 H 2568.5 -4.07395 0.917564 0
M  V30 27263 N 2568.94 -1.18359 -1.04062 0
M  V30 27264 C 2570.35 -0.933281 -1.29468 0
M  V30 27265 C 2570.55 0.401134 -1.97467 0
M  V30 27266 O 2569.61 1.13546 -2.2553 0
M  V30 27267 C 2570.92 -2.09886 -2.15333 0
M  V30 27268 C 2572.47 -2.13716 -2.2868 0
M  V30 27269 C 2572.95 -3.29692 -3.17911 0
M  V30 27270 N 2574.44 -3.29553 -3.25499 0
M  V30 27271 C 2575.17 -4.15933 -3.94699 0
M  V30 27272 N 2574.67 -5.12447 -4.6623 0
M  V30 27273 N 2576.46 -4.03847 -3.90978 0
M  V30 27274 H 2568.61 -2.04233 -0.583323 0
M  V30 27275 H 2570.87 -0.892393 -0.319905 0
M  V30 27276 H 2570.58 -3.06392 -1.72676 0
M  V30 27277 H 2570.45 -2.05953 -3.16012 0
M  V30 27278 H 2572.84 -1.17788 -2.70573 0
M  V30 27279 H 2572.92 -2.21707 -1.27592 0
M  V30 27280 H 2572.57 -4.25891 -2.76729 0
M  V30 27281 H 2572.5 -3.18937 -4.19031 0
M  V30 27282 H 2574.99 -2.59682 -2.74543 0
M  V30 27283 H 2575.3 -5.74731 -5.16628 0
M  V30 27284 H 2573.65 -5.16406 -4.65134 0
M  V30 27285 H 2576.84 -3.27733 -3.34228 0
M  V30 27286 H 2577.01 -4.71383 -4.44637 0
M  V30 27287 N 2570.42 1.22976 -0.98563 0
M  V30 27288 C 2571.35 2.26938 -0.549689 0
M  V30 27289 C 2572.33 1.64839 0.419774 0
M  V30 27290 O 2573.51 1.91677 0.311997 0
M  V30 27291 C 2570.64 3.47003 0.143591 0
M  V30 27292 C 2569.6 4.2149 -0.74368 0
M  V30 27293 C 2568.92 5.34637 0.0821087 0
M  V30 27294 C 2570.22 4.80939 -2.03703 0
M  V30 27295 H 2571.92 2.63655 -1.41867 0
M  V30 27296 H 2569.46 1.2674 -0.683594 0
M  V30 27297 H 2571.41 4.18883 0.459911 0
M  V30 27298 H 2570.14 3.09361 1.04706 0
M  V30 27299 H 2568.8 3.51434 -1.04353 0
M  V30 27300 H 2568.45 4.93236 0.986272 0
M  V30 27301 H 2568.15 5.85396 -0.50848 0
M  V30 27302 H 2569.67 6.09336 0.39269 0
M  V30 27303 H 2571.08 5.44799 -1.78513 0
M  V30 27304 H 2569.48 5.42007 -2.57583 0
M  V30 27305 H 2570.55 4.01394 -2.72049 0
M  V30 27306 N 2571.89 0.757924 1.38178 0
M  V30 27307 C 2572.83 0.0932579 2.2901 0
M  V30 27308 C 2573.84 -0.67911 1.47959 0
M  V30 27309 O 2575.03 -0.519483 1.70774 0
M  V30 27310 C 2572.13 -0.891863 3.26954 0
M  V30 27311 C 2571.3 -0.176226 4.37045 0
M  V30 27312 C 2570.36 -1.07272 5.1515 0
M  V30 27313 O 2569.39 -0.541629 5.66617 0
M  V30 27314 N 2570.59 -2.4004 5.28546 0
M  V30 27315 H 2573.35 0.873354 2.86693 0
M  V30 27316 H 2570.91 0.60908 1.50006 0
M  V30 27317 H 2572.91 -1.49473 3.76085 0
M  V30 27318 H 2571.48 -1.57301 2.70139 0
M  V30 27319 H 2570.7 0.607397 3.89492 0
M  V30 27320 H 2571.98 0.318807 5.078 0
M  V30 27321 H 2571.38 -2.85639 4.8829 0
M  V30 27322 H 2569.94 -2.95366 5.81036 0
M  V30 27323 N 2573.37 -1.4921 0.507345 0
M  V30 27324 C 2574.62 -2.0277 -0.0349691 0
M  V30 27325 C 2574.95 -1.38571 -1.36057 0
M  V30 27326 O 2574.23 -0.523575 -1.8732 0
M  V30 27327 C 2574.51 -3.59646 -0.180852 0
M  V30 27328 C 2574.36 -4.34362 1.16832 0
M  V30 27329 C 2575.68 -4.30409 -0.918482 0
M  V30 27330 H 2572.8 -0.736914 -0.0112344 0
M  V30 27331 H 2575.44 -1.78169 0.659987 0
M  V30 27332 H 2573.59 -3.80737 -0.772759 0
M  V30 27333 H 2575.26 -4.2475 1.7996 0
M  V30 27334 H 2573.51 -3.9667 1.75601 0
M  V30 27335 H 2574.18 -5.42504 1.01949 0
M  V30 27336 H 2576.65 -4.14011 -0.416417 0
M  V30 27337 H 2575.53 -5.39909 -0.98941 0
M  V30 27338 H 2575.79 -3.96097 -1.96366 0
M  V30 27339 N 2574.85 -0.241454 -1.55739 0
M  V30 27340 C 2576.13 0.434847 -1.90705 0
M  V30 27341 C 2576.51 1.76275 -1.16148 0
M  V30 27342 O 2575.86 2.26812 -0.277191 0
M  V30 27343 C 2576.07 0.608282 -3.43658 0
M  V30 27344 C 2577.41 0.906652 -4.14807 0
M  V30 27345 O 2578.44 0.694346 -3.49367 0
M  V30 27346 O 2577.3 1.31065 -5.30551 0
M  V30 27347 H 2574.39 0.232666 -0.793597 0
M  V30 27348 H 2576.94 -0.285116 -1.67288 0
M  V30 27349 H 2575.71 -0.327574 -3.89926 0
M  V30 27350 H 2575.33 1.37899 -3.7292 0
M  V30 27351 N 2576.33 1.57568 0.0317248 0
M  V30 27352 C 2577.58 1.89151 0.723071 0
M  V30 27353 C 2577.9 0.838408 1.75502 0
M  V30 27354 O 2577.16 -0.160948 1.95037 0
M  V30 27355 C 2577.46 3.27475 1.43161 0
M  V30 27356 C 2577.12 4.47704 0.535893 0
M  V30 27357 C 2575.79 4.8033 0.289178 0
M  V30 27358 C 2578.14 5.21134 -0.0827041 0
M  V30 27359 C 2575.47 5.83777 -0.584956 0
M  V30 27360 C 2577.82 6.25509 -0.944524 0
M  V30 27361 C 2576.48 6.56612 -1.20073 0
M  V30 27362 H 2575.75 0.692151 0.26459 0
M  V30 27363 H 2578.4 1.91492 -0.0169833 0
M  V30 27364 H 2576.7 3.21109 2.24492 0
M  V30 27365 H 2578.4 3.49159 1.97203 0
M  V30 27366 H 2574.99 4.22193 0.738339 0
M  V30 27367 H 2579.17 4.96209 0.094943 0
M  V30 27368 H 2574.43 6.06251 -0.791787 0
M  V30 27369 H 2578.6 6.81552 -1.43038 0
M  V30 27370 H 2576.23 7.36592 -1.8798 0
M  V30 27371 N 2577.81 -0.303946 1.54641 0
M  V30 27372 C 2578.75 -1.39481 1.86139 0
M  V30 27373 C 2579.75 -1.5263 0.734881 0
M  V30 27374 O 2580.95 -1.54782 0.918831 0
M  V30 27375 H 2577.33 -0.465846 0.590332 0
M  V30 27376 H 2579.3 -1.10149 2.77326 0
M  V30 27377 C 2578.05 -2.75378 2.12279 0
M  V30 27378 H 2577.37 -2.6604 2.98433 0
M  V30 27379 H 2578.81 -3.50725 2.3826 0
M  V30 27380 C 2577.27 -3.24083 0.920422 0
M  V30 27381 O 2577.8 -4.01458 0.139448 0
M  V30 27382 N 2576.01 -2.81369 0.726616 0
M  V30 27383 H 2575.55 -2.18564 1.36336 0
M  V30 27384 H 2575.51 -3.14307 -0.0763246 0
M  V30 27385 N 2579.28 -1.47047 -0.566994 0
M  V30 27386 C 2580.19 -1.61413 -1.70244 0
M  V30 27387 C 2581.21 -0.497186 -1.66745 0
M  V30 27388 O 2582.39 -0.763422 -1.8637 0
M  V30 27389 C 2579.45 -1.61566 -3.06753 0
M  V30 27390 C 2578.51 -2.84613 -3.21394 0
M  V30 27391 C 2577.75 -2.84749 -4.51391 0
M  V30 27392 O 2577.97 -1.94398 -5.36252 0
M  V30 27393 O 2576.9 -3.76491 -4.69615 0
M  V30 27394 H 2580.73 -2.5747 -1.61069 0
M  V30 27395 H 2578.31 -1.3002 -0.735871 0
M  V30 27396 H 2580.2 -1.64403 -3.88007 0
M  V30 27397 H 2578.87 -0.686739 -3.16331 0
M  V30 27398 H 2577.78 -2.87324 -2.39574 0
M  V30 27399 H 2579.11 -3.76766 -3.16714 0
M  V30 27400 N 2580.76 0.812929 -1.35016 0
M  V30 27401 C 2581.73 1.906 -1.27296 0
M  V30 27402 C 2582.73 1.59722 -0.185845 0
M  V30 27403 O 2583.92 1.68574 -0.439132 0
M  V30 27404 C 2581.05 3.26876 -0.967733 0
M  V30 27405 H 2582.24 1.98866 -2.24482 0
M  V30 27406 H 2579.79 1.00806 -1.19448 0
M  V30 27407 H 2580.53 3.243 0.000538396 0
M  V30 27408 H 2580.31 3.50672 -1.75418 0
M  V30 27409 H 2581.8 4.06902 -0.939156 0
M  V30 27410 N 2582.24 1.18909 1.03433 0
M  V30 27411 C 2583.17 0.945486 2.13501 0
M  V30 27412 C 2584.15 -0.119159 1.69682 0
M  V30 27413 O 2585.34 0.0347411 1.94169 0
M  V30 27414 C 2582.47 0.477377 3.44003 0
M  V30 27415 C 2581.42 1.48323 4.01478 0
M  V30 27416 C 2580.75 0.872404 5.27535 0
M  V30 27417 C 2582.05 2.86185 4.36916 0
M  V30 27418 H 2583.74 1.86601 2.34138 0
M  V30 27419 H 2581.29 0.898604 1.12522 0
M  V30 27420 H 2583.24 0.294278 4.20371 0
M  V30 27421 H 2581.96 -0.478729 3.23072 0
M  V30 27422 H 2580.62 1.65338 3.27198 0
M  V30 27423 H 2580.27 -0.0910868 5.02918 0
M  V30 27424 H 2579.97 1.54403 5.66951 0
M  V30 27425 H 2581.49 0.699978 6.06575 0
M  V30 27426 H 2582.91 2.72785 5.04243 0
M  V30 27427 H 2581.31 3.50089 4.87399 0
M  V30 27428 H 2582.38 3.39254 3.4646 0
M  V30 27429 N 2583.72 -1.22452 0.992137 0
M  V30 27430 C 2584.97 -1.9118 0.667568 0
M  V30 27431 C 2585.29 -1.77273 -0.800286 0
M  V30 27432 O 2584.55 -1.13508 -1.59419 0
M  V30 27433 C 2584.85 -3.42584 1.01839 0
M  V30 27434 C 2584.51 -3.76679 2.47838 0
M  V30 27435 C 2583.18 -3.85696 2.87736 0
M  V30 27436 C 2585.53 -3.92889 3.42473 0
M  V30 27437 C 2582.86 -4.08359 4.2126 0
M  V30 27438 C 2585.21 -4.17055 4.75655 0
M  V30 27439 C 2583.87 -4.24296 5.15295 0
M  V30 27440 H 2583.14 -0.699577 0.24428 0
M  V30 27441 H 2585.79 -1.45233 1.24818 0
M  V30 27442 H 2584.09 -3.90181 0.355838 0
M  V30 27443 H 2585.79 -3.94013 0.745297 0
M  V30 27444 H 2582.38 -3.70243 2.15912 0
M  V30 27445 H 2586.56 -3.85301 3.12821 0
M  V30 27446 H 2581.82 -4.12192 4.51562 0
M  V30 27447 H 2585.99 -4.28541 5.48932 0
M  V30 27448 H 2583.62 -4.4161 6.18777 0
M  V30 27449 N 2585.2 -0.765242 -1.37774 0
M  V30 27450 C 2586.42 -0.336573 -2.04651 0
M  V30 27451 C 2586.85 1.03083 -1.57339 0
M  V30 27452 O 2586.2 1.65925 -0.73065 0
M  V30 27453 C 2586.25 -0.381531 -3.58576 0
M  V30 27454 O 2585.36 0.620348 -4.07708 0
M  V30 27455 H 2584.7 -0.14685 -0.647558 0
M  V30 27456 H 2587.23 -1.03962 -1.76219 0
M  V30 27457 H 2587.24 -0.236519 -4.07314 0
M  V30 27458 H 2585.91 -1.37914 -3.92368 0
M  V30 27459 H 2584.49 0.438991 -3.70307 0
M  V30 27460 N 2586.67 1.48939 -0.515251 0
M  V30 27461 C 2587.62 2.29381 0.255526 0
M  V30 27462 C 2588.59 1.36434 0.947363 0
M  V30 27463 O 2589.78 1.65396 0.951259 0
M  V30 27464 C 2586.92 3.19456 1.30545 0
M  V30 27465 C 2586.03 4.2747 0.623954 0
M  V30 27466 C 2585.16 5.04743 1.65554 0
M  V30 27467 C 2584.2 6.04577 0.956695 0
M  V30 27468 N 2583.34 6.74962 1.93314 0
M  V30 27469 H 2588.18 2.94783 -0.436659 0
M  V30 27470 H 2585.72 1.45335 -0.227179 0
M  V30 27471 H 2587.68 3.70066 1.92632 0
M  V30 27472 H 2586.31 2.56008 1.96621 0
M  V30 27473 H 2585.36 3.80239 -0.110526 0
M  V30 27474 H 2586.67 4.98744 0.0745215 0
M  V30 27475 H 2585.82 5.59293 2.35109 0
M  V30 27476 H 2584.56 4.33274 2.23885 0
M  V30 27477 H 2583.57 5.49245 0.247001 0
M  V30 27478 H 2584.79 6.78038 0.379695 0
M  V30 27479 H 2582.74 6.06255 2.50581 0
M  V30 27480 H 2582.66 7.42261 1.43476 0
M  V30 27481 H 2583.92 7.3411 2.62113 0
M  V30 27482 N 2588.15 0.249709 1.55609 0
M  V30 27483 C 2589.38 -0.377768 2.03117 0
M  V30 27484 C 2589.79 -1.51879 1.12824 0
M  V30 27485 O 2589.13 -1.83198 0.135653 0
M  V30 27486 C 2589.2 -0.944632 3.46867 0
M  V30 27487 C 2588.86 0.0645062 4.56954 0
M  V30 27488 C 2589.86 0.875047 5.12483 0
M  V30 27489 C 2587.54 0.191408 5.01935 0
M  V30 27490 C 2589.54 1.79892 6.11488 0
M  V30 27491 C 2587.22 1.11878 6.00772 0
M  V30 27492 C 2588.22 1.92106 6.55427 0
M  V30 27493 O 2587.91 2.8328 7.52335 0
M  V30 27494 H 2587.64 -0.0935843 0.669491 0
M  V30 27495 H 2590.2 0.372001 2.02003 0
M  V30 27496 H 2588.43 -1.74401 3.45139 0
M  V30 27497 H 2590.11 -1.48249 3.77859 0
M  V30 27498 H 2590.88 0.787607 4.78562 0
M  V30 27499 H 2586.76 -0.422991 4.59055 0
M  V30 27500 H 2590.3 2.42555 6.54074 0
M  V30 27501 H 2586.2 1.20714 6.34112 0
M  V30 27502 H 2586.97 2.77673 7.69961 0
M  V30 27503 N 2589.63 -1.57583 -0.0233682 0
M  V30 27504 C 2590.58 -2.06929 -1.02221 0
M  V30 27505 C 2591.55 -0.959641 -1.35573 0
M  V30 27506 O 2592.73 -1.23058 -1.45813 0
M  V30 27507 C 2589.87 -2.55814 -2.31632 0
M  V30 27508 C 2588.99 -3.80591 -2.04388 0
M  V30 27509 C 2588.12 -4.18067 -3.2771 0
M  V30 27510 C 2587.16 -5.35745 -2.96046 0
M  V30 27511 N 2586.3 -5.68625 -4.11837 0
M  V30 27512 H 2591.14 -2.92011 -0.594453 0
M  V30 27513 H 2588.67 -1.44374 -0.281896 0
M  V30 27514 H 2590.63 -2.82226 -3.07253 0
M  V30 27515 H 2589.26 -1.73641 -2.72119 0
M  V30 27516 H 2588.31 -3.61229 -1.19238 0
M  V30 27517 H 2589.63 -4.66327 -1.77034 0
M  V30 27518 H 2588.78 -4.45637 -4.11695 0
M  V30 27519 H 2587.52 -3.30994 -3.58182 0
M  V30 27520 H 2586.52 -5.07922 -2.10465 0
M  V30 27521 H 2587.75 -6.24476 -2.66846 0
M  V30 27522 H 2585.7 -4.84511 -4.4225 0
M  V30 27523 H 2585.61 -6.48883 -3.87927 0
M  V30 27524 H 2586.88 -6.00775 -4.96678 0
M  V30 27525 N 2591.11 0.29574 -1.548 0
M  V30 27526 C 2592.36 1.02825 -1.73987 0
M  V30 27527 C 2592.68 1.87619 -0.531439 0
M  V30 27528 O 2591.95 1.90562 0.454187 0
M  V30 27529 H 2590.53 0.382631 -0.641563 0
M  V30 27530 H 2593.19 0.325455 -1.92163 0
M  V30 27531 H 2592.29 1.67833 -2.63132 0
M  V30 27532 N 2592.59 1.47346 0.559187 0
M  V30 27533 C 2593.54 1.60088 1.68744 0
M  V30 27534 C 2594.53 0.468278 1.62799 0
M  V30 27535 O 2595.74 0.646006 1.68008 0
M  V30 27536 H 2592.11 0.503769 0.55832 0
M  V30 27537 H 2594.08 2.54904 1.55133 0
M  V30 27538 C 2592.83 1.63048 3.07101 0
M  V30 27539 H 2592.15 2.49547 3.12356 0
M  V30 27540 H 2593.59 1.76013 3.8574 0
M  V30 27541 C 2592.05 0.363416 3.34934 0
M  V30 27542 O 2592.58 -0.536346 3.98103 0
M  V30 27543 N 2590.79 0.244051 2.89573 0
M  V30 27544 H 2590.34 0.977175 2.38346 0
M  V30 27545 H 2590.29 -0.602782 3.08567 0
M  V30 27546 N 2594.07 -0.805758 1.35445 0
M  V30 27547 C 2595.29 -1.59421 1.31881 0
M  V30 27548 C 2595.71 -1.88516 -0.103529 0
M  V30 27549 O 2595.07 -1.48865 -1.05572 0
M  V30 27550 C 2595.12 -2.92498 2.12431 0
M  V30 27551 O 2594.84 -2.64664 3.4912 0
M  V30 27552 C 2596.34 -3.86858 2.16462 0
M  V30 27553 H 2593.56 -0.494998 0.45301 0
M  V30 27554 H 2596.1 -1.00128 1.7831 0
M  V30 27555 H 2594.26 -3.48303 1.69599 0
M  V30 27556 H 2594.67 -3.4964 3.90963 0
M  V30 27557 H 2596.15 -4.77344 2.77213 0
M  V30 27558 H 2596.62 -4.23506 1.1636 0
M  V30 27559 H 2597.23 -3.36988 2.59459 0
M  V30 27560 N 2595.54 -1.19456 -1.02801 0
M  V30 27561 C 2596.82 -0.907044 -1.73298 0
M  V30 27562 C 2597.2 0.587051 -2.02773 0
M  V30 27563 O 2596.55 1.54548 -1.68307 0
M  V30 27564 C 2596.76 -1.7679 -3.00909 0
M  V30 27565 C 2598.11 -2.00275 -3.744 0
M  V30 27566 O 2599.13 -1.73949 -3.10838 0
M  V30 27567 O 2597.99 -2.44669 -4.88671 0
M  V30 27568 H 2595.08 -0.338119 -0.754722 0
M  V30 27569 H 2597.63 -1.30273 -1.08752 0
M  V30 27570 H 2596.4 -2.78015 -2.75361 0
M  V30 27571 H 2596.02 -1.37155 -3.73195 0
M  V30 27572 N 2597.02 1.21924 -0.998617 0
M  V30 27573 C 2598.26 1.92545 -0.685981 0
M  V30 27574 C 2598.63 1.75953 0.76841 0
M  V30 27575 O 2599.83 2.40889 1.19273 0
M  V30 27576 C 2598.1 3.40446 -1.08773 0
M  V30 27577 S 2599.66 4.2959 -0.894326 0
M  V30 27578 H 2596.47 0.66536 -0.250633 0
M  V30 27579 H 2599.08 1.47589 -1.2821 0
M  V30 27580 H 2597.78 3.50037 -2.14248 0
M  V30 27581 H 2597.31 3.90416 -0.483638 0
M  V30 27582 H 2599.33 4.95747 0.212061 0
M  V30 27583 N 2598.5 0.772537 1.37367 0
M  V30 27584 C 2599.72 0.347421 2.04469 0
M  V30 27585 C 2600.15 -1.02247 1.57883 0
M  V30 27586 O 2599.51 -1.65535 0.739439 0
M  V30 27587 C 2599.56 0.400542 3.58369 0
M  V30 27588 O 2598.66 -0.598718 4.08031 0
M  V30 27589 H 2598 0.150282 0.64677 0
M  V30 27590 H 2600.53 1.04895 1.75665 0
M  V30 27591 H 2600.54 0.258117 4.07183 0
M  V30 27592 H 2599.22 1.39993 3.91631 0
M  V30 27593 H 2597.79 -0.419346 3.70535 0
M  V30 27594 N 2599.98 -1.48664 0.523142 0
M  V30 27595 C 2601.23 -2.01694 -0.0154046 0
M  V30 27596 C 2601.54 -1.40609 -1.35973 0
M  V30 27597 O 2602.75 -1.85096 -1.98624 0
M  V30 27598 C 2601.2 -3.59816 -0.0778671 0
M  V30 27599 C 2600.81 -4.29883 1.26114 0
M  V30 27600 C 2602.55 -4.20715 -0.565604 0
M  V30 27601 C 2600.46 -5.79919 1.15964 0
M  V30 27602 H 2599.39 -0.75394 -0.00952838 0
M  V30 27603 H 2602.04 -1.70991 0.665895 0
M  V30 27604 H 2600.42 -3.8733 -0.824097 0
M  V30 27605 H 2601.6 -4.14048 2.0224 0
M  V30 27606 H 2599.91 -3.80825 1.68407 0
M  V30 27607 H 2602.51 -5.30618 -0.659406 0
M  V30 27608 H 2602.85 -3.8557 -1.56977 0
M  V30 27609 H 2603.39 -3.97604 0.12474 0
M  V30 27610 H 2600.12 -6.19627 2.13875 0
M  V30 27611 H 2599.64 -5.98187 0.439634 0
M  V30 27612 H 2601.32 -6.41426 0.847473 0
M  V30 27613 N 2601.46 -0.257958 -1.55475 0
M  V30 27614 C 2602.4 0.653037 -2.23245 0
M  V30 27615 C 2603.4 1.17142 -1.22369 0
M  V30 27616 O 2604.6 1.12704 -1.40349 0
M  V30 27617 H 2600.98 0.229104 -0.716251 0
M  V30 27618 H 2602.95 0.0584263 -2.98343 0
M  V30 27619 C 2601.7 1.8339 -2.95404 0
M  V30 27620 H 2601.02 1.44418 -3.72805 0
M  V30 27621 H 2602.46 2.44832 -3.4617 0
M  V30 27622 C 2600.92 2.71186 -1.999 0
M  V30 27623 O 2601.45 3.71043 -1.53915 0
M  V30 27624 N 2599.66 2.37987 -1.66765 0
M  V30 27625 H 2599.2 1.56834 -2.04355 0
M  V30 27626 H 2599.16 2.97004 -1.03132 0
M  V30 27627 N 2602.93 1.57593 0.0150108 0
M  V30 27628 C 2604.21 1.81096 0.739168 0
M  V30 27629 C 2604.59 0.859378 1.92816 0
M  V30 27630 O 2603.94 -0.0953219 2.28301 0
M  V30 27631 C 2604.15 3.29193 1.15901 0
M  V30 27632 C 2605.5 3.94543 1.56911 0
M  V30 27633 O 2606.52 3.33426 1.25322 0
M  V30 27634 O 2605.38 5.02176 2.15595 0
M  V30 27635 H 2602.47 0.7452 0.358618 0
M  V30 27636 H 2605.02 1.69697 -0.00929139 0
M  V30 27637 H 2603.79 3.90063 0.310853 0
M  V30 27638 H 2603.42 3.45533 1.96705 0
M  V30 27639 N 2604.41 -0.287527 1.54955 0
M  V30 27640 C 2605.36 -1.35697 1.83222 0
M  V30 27641 C 2606.35 -1.45346 0.690177 0
M  V30 27642 O 2607.54 -1.49271 0.951163 0
M  V30 27643 C 2604.67 -2.71975 2.09486 0
M  V30 27644 C 2603.75 -2.66496 3.2991 0
M  V30 27645 N 2604.14 -2.30633 4.50158 0
M  V30 27646 C 2602.44 -2.9758 3.32208 0
M  V30 27647 C 2603.14 -2.34785 5.32213 0
M  V30 27648 N 2602.12 -2.7268 4.70262 0
M  V30 27649 H 2605.92 -1.06955 2.73748 0
M  V30 27650 H 2603.44 -0.49614 1.54636 0
M  V30 27651 H 2605.43 -3.49103 2.27888 0
M  V30 27652 H 2604.09 -3.01618 1.20235 0
M  V30 27653 H 2605.1 -2.02857 4.76518 0
M  V30 27654 H 2601.78 -3.32029 2.53106 0
M  V30 27655 H 2603.17 -2.09742 6.38324 0
M  V30 27656 N 2605.89 -1.47641 -0.551365 0
M  V30 27657 C 2607.14 -1.53824 -1.30464 0
M  V30 27658 C 2607.45 -0.207695 -1.94494 0
M  V30 27659 O 2608.66 -0.14758 -2.71099 0
M  V30 27660 C 2607.11 -2.71188 -2.36612 0
M  V30 27661 C 2606.72 -4.10796 -1.78746 0
M  V30 27662 C 2608.47 -2.86669 -3.13083 0
M  V30 27663 C 2606.37 -5.19452 -2.82708 0
M  V30 27664 H 2605.3 -0.572585 -0.490574 0
M  V30 27665 H 2607.95 -1.73928 -0.584909 0
M  V30 27666 H 2606.34 -2.44475 -3.11525 0
M  V30 27667 H 2607.51 -4.47437 -1.10165 0
M  V30 27668 H 2605.83 -4.00251 -1.14839 0
M  V30 27669 H 2608.42 -3.65013 -3.90729 0
M  V30 27670 H 2608.77 -1.95328 -3.67631 0
M  V30 27671 H 2609.3 -3.1318 -2.45282 0
M  V30 27672 H 2606.04 -6.12689 -2.33008 0
M  V30 27673 H 2605.56 -4.87322 -3.49681 0
M  V30 27674 H 2607.24 -5.46652 -3.46093 0
M  V30 27675 N 2607.37 0.798563 -1.3587 0
M  V30 27676 C 2608.78 1.0953 -1.16084 0
M  V30 27677 C 2608.98 2.01489 0.021277 0
M  V30 27678 O 2608.04 2.42905 0.689445 0
M  V30 27679 C 2609.35 1.71856 -2.46751 0
M  V30 27680 C 2610.9 1.84239 -2.53031 0
M  V30 27681 C 2611.38 2.49981 -3.83762 0
M  V30 27682 N 2612.87 2.57458 -3.85058 0
M  V30 27683 C 2613.6 3.09114 -4.82945 0
M  V30 27684 N 2613.1 3.61146 -5.91224 0
M  V30 27685 N 2614.89 3.07741 -4.70374 0
M  V30 27686 H 2607.04 0.187424 -2.11571 0
M  V30 27687 H 2609.31 0.145749 -0.936729 0
M  V30 27688 H 2609.01 1.11753 -3.33473 0
M  V30 27689 H 2608.89 2.71467 -2.61888 0
M  V30 27690 H 2611.27 2.43483 -1.66733 0
M  V30 27691 H 2611.35 0.834601 -2.41802 0
M  V30 27692 H 2611 1.91385 -4.70462 0
M  V30 27693 H 2610.93 3.51313 -3.92284 0
M  V30 27694 H 2613.42 2.20604 -3.06826 0
M  V30 27695 H 2613.73 3.98885 -6.61899 0
M  V30 27696 H 2612.08 3.59323 -5.94905 0
M  V30 27697 H 2615.27 2.66375 -3.84918 0
M  V30 27698 H 2615.44 3.47691 -5.46823 0
M  V30 27699 N 2608.85 1.19999 1.02166 0
M  V30 27700 C 2610.1 1.00133 1.7509 0
M  V30 27701 C 2610.41 -0.467802 1.89924 0
M  V30 27702 O 2611.61 -0.785469 2.5989 0
M  V30 27703 C 2610.07 1.74279 3.14889 0
M  V30 27704 C 2609.68 3.25251 3.08084 0
M  V30 27705 C 2611.42 1.62762 3.92057 0
M  V30 27706 C 2609.33 3.91956 4.4286 0
M  V30 27707 H 2608.26 0.371041 0.656387 0
M  V30 27708 H 2610.91 1.43569 1.14281 0
M  V30 27709 H 2609.29 1.23627 3.76208 0
M  V30 27710 H 2610.47 3.83077 2.56103 0
M  V30 27711 H 2608.78 3.37124 2.4441 0
M  V30 27712 H 2611.38 2.09943 4.9176 0
M  V30 27713 H 2611.72 0.582966 4.12198 0
M  V30 27714 H 2612.25 2.10799 3.37355 0
M  V30 27715 H 2608.99 4.96551 4.27923 0
M  V30 27716 H 2608.51 3.38918 4.94868 0
M  V30 27717 H 2610.19 3.95918 5.11721 0
M  V30 27718 N 2610.32 -1.21392 1.00507 0
M  V30 27719 C 2611.29 -2.21986 0.570498 0
M  V30 27720 C 2612.29 -1.56873 -0.353183 0
M  V30 27721 O 2613.48 -1.73608 -0.14346 0
M  V30 27722 C 2610.61 -3.40483 -0.168496 0
M  V30 27723 H 2611.8 -2.61948 1.46026 0
M  V30 27724 H 2609.36 -1.34655 0.793589 0
M  V30 27725 H 2610.09 -3.0601 -1.07369 0
M  V30 27726 H 2609.88 -3.88964 0.494892 0
M  V30 27727 H 2611.37 -4.15056 -0.460289 0
M  V30 27728 N 2611.8 -0.779811 -1.36955 0
M  V30 27729 C 2613.03 -0.35826 -2.04282 0
M  V30 27730 C 2613.45 1.01408 -1.58423 0
M  V30 27731 O 2612.81 1.65141 -0.748208 0
M  V30 27732 C 2612.86 -0.419542 -3.58151 0
M  V30 27733 O 2611.96 0.57707 -4.08343 0
M  V30 27734 H 2611.3 -0.15371 -0.645964 0
M  V30 27735 H 2613.83 -1.05825 -1.75106 0
M  V30 27736 H 2613.84 -0.279707 -4.0704 0
M  V30 27737 H 2612.52 -1.42068 -3.90883 0
M  V30 27738 H 2611.1 0.39969 -3.70752 0
M  V30 27739 N 2613.28 1.48384 -0.531019 0
M  V30 27740 C 2614.51 2.074 0.000693079 0
M  V30 27741 C 2614.93 1.38482 1.27296 0
M  V30 27742 O 2614.29 0.451111 1.75598 0
M  V30 27743 C 2614.34 3.60007 0.206634 0
M  V30 27744 O 2613.44 3.92193 1.27507 0
M  V30 27745 H 2612.78 0.662818 -0.0395946 0
M  V30 27746 H 2615.31 1.90779 -0.739228 0
M  V30 27747 H 2615.32 4.05739 0.428969 0
M  V30 27748 H 2614 4.09572 -0.722747 0
M  V30 27749 H 2612.57 3.5824 1.03531 0
M  V30 27750 N 2614.76 0.2662 1.55336 0
M  V30 27751 C 2615.71 -0.639459 2.18849 0
M  V30 27752 C 2616.69 -1.12501 1.15032 0
M  V30 27753 O 2617.88 -1.07157 1.40877 0
M  V30 27754 C 2615.01 -1.82728 2.90629 0
M  V30 27755 C 2614.1 -1.35932 4.01725 0
M  V30 27756 N 2614.49 -0.6069 5.02146 0
M  V30 27757 C 2612.79 -1.64302 4.14633 0
M  V30 27758 C 2613.49 -0.362036 5.80572 0
M  V30 27759 N 2612.47 -0.931877 5.35553 0
M  V30 27760 H 2616.27 -0.0566541 2.93845 0
M  V30 27761 H 2613.78 0.0693597 1.62252 0
M  V30 27762 H 2615.78 -2.48729 3.34573 0
M  V30 27763 H 2614.44 -2.41412 2.17141 0
M  V30 27764 H 2615.45 -0.255107 5.17271 0
M  V30 27765 H 2612.13 -2.23987 3.5233 0
M  V30 27766 H 2613.52 0.239966 6.71471 0
M  V30 27767 N 2616.24 -1.57599 -0.0066531 0
M  V30 27768 C 2617.47 -1.9427 -0.703032 0
M  V30 27769 C 2617.87 -0.866251 -1.68204 0
M  V30 27770 O 2617.22 0.164055 -1.82966 0
M  V30 27771 C 2617.28 -3.2689 -1.49611 0
M  V30 27772 C 2616.94 -4.51921 -0.679414 0
M  V30 27773 C 2617.94 -5.19891 0.0300421 0
M  V30 27774 C 2615.63 -4.98367 -0.627345 0
M  V30 27775 C 2617.62 -6.32602 0.780625 0
M  V30 27776 C 2615.31 -6.10968 0.126968 0
M  V30 27777 C 2616.3 -6.77942 0.829693 0
M  V30 27778 O 2615.99 -7.88386 1.57171 0
M  V30 27779 H 2615.72 -0.645362 -0.201206 0
M  V30 27780 H 2618.28 -2.05364 0.0385687 0
M  V30 27781 H 2616.51 -3.12186 -2.28204 0
M  V30 27782 H 2618.2 -3.48722 -2.0772 0
M  V30 27783 H 2618.96 -4.85 -0.00107438 0
M  V30 27784 H 2614.84 -4.46067 -1.16384 0
M  V30 27785 H 2618.39 -6.84811 1.32966 0
M  V30 27786 H 2614.28 -6.45302 0.159929 0
M  V30 27787 H 2615.05 -8.04866 1.48773 0
M  V30 27788 N 2617.72 0.279305 -1.55105 0
M  V30 27789 C 2618.68 1.32831 -1.86785 0
M  V30 27790 C 2619.68 1.42656 -0.742015 0
M  V30 27791 O 2620.87 1.41916 -1.01022 0
M  V30 27792 C 2618 2.71048 -2.0675 0
M  V30 27793 H 2619.19 1.05974 -2.80552 0
M  V30 27794 H 2616.75 0.517061 -1.475 0
M  V30 27795 H 2617.48 3.03095 -1.15344 0
M  V30 27796 H 2617.27 2.65303 -2.88715 0
M  V30 27797 H 2618.76 3.46854 -2.32555 0
M  V30 27798 N 2619.19 1.47931 0.543528 0
M  V30 27799 C 2620.16 1.60978 1.63153 0
M  V30 27800 C 2621.16 0.483926 1.53345 0
M  V30 27801 O 2622.35 0.749366 1.57258 0
M  V30 27802 C 2619.48 1.56721 3.0274 0
M  V30 27803 H 2620.67 2.57978 1.52929 0
M  V30 27804 H 2618.22 1.36325 0.764533 0
M  V30 27805 H 2618.96 0.611474 3.18483 0
M  V30 27806 H 2618.74 2.38443 3.11267 0
M  V30 27807 H 2620.23 1.69017 3.81868 0
M  V30 27808 N 2620.67 -0.791347 1.36292 0
M  V30 27809 C 2621.6 -1.91246 1.26324 0
M  V30 27810 C 2622.62 -1.61766 0.183158 0
M  V30 27811 O 2623.81 -1.7305 0.437713 0
M  V30 27812 C 2620.91 -3.26005 0.925959 0
M  V30 27813 C 2620.08 -3.83278 2.10753 0
M  V30 27814 C 2619.14 -4.96472 1.74361 0
M  V30 27815 O 2618.16 -5.13092 2.46425 0
M  V30 27816 N 2619.37 -5.76549 0.676159 0
M  V30 27817 H 2622.13 -2.00319 2.22918 0
M  V30 27818 H 2619.69 -0.969523 1.29661 0
M  V30 27819 H 2621.68 -3.99221 0.663706 0
M  V30 27820 H 2620.25 -3.12561 0.049213 0
M  V30 27821 H 2619.47 -3.02073 2.5327 0
M  V30 27822 H 2620.76 -4.18274 2.89697 0
M  V30 27823 H 2620.16 -5.65647 0.0777461 0
M  V30 27824 H 2618.72 -6.50076 0.473726 0
M  V30 27825 N 2622.15 -1.2054 -1.01528 0
M  V30 27826 C 2623.08 -0.979333 -2.1197 0
M  V30 27827 C 2624.06 0.0921489 -1.6985 0
M  V30 27828 O 2625.25 -0.0656273 -1.94089 0
M  V30 27829 C 2622.38 -0.532044 -3.432 0
M  V30 27830 C 2621.33 -1.54692 -3.99067 0
M  V30 27831 C 2620.66 -0.95622 -5.2608 0
M  V30 27832 C 2621.96 -2.931 -4.32308 0
M  V30 27833 H 2623.65 -1.90302 -2.3114 0
M  V30 27834 H 2621.2 -0.916392 -1.11078 0
M  V30 27835 H 2623.15 -0.361118 -4.1985 0
M  V30 27836 H 2621.87 0.427271 -3.23793 0
M  V30 27837 H 2620.53 -1.70523 -3.24527 0
M  V30 27838 H 2620.18 0.0110654 -5.02999 0
M  V30 27839 H 2619.88 -1.63403 -5.64423 0
M  V30 27840 H 2621.4 -0.79639 -6.05384 0
M  V30 27841 H 2622.82 -2.80772 -4.9984 0
M  V30 27842 H 2621.21 -3.57799 -4.81767 0
M  V30 27843 H 2622.28 -3.44723 -3.41019 0
M  V30 27844 N 2623.63 1.20858 -1.01149 0
M  V30 27845 C 2624.88 1.89412 -0.693247 0
M  V30 27846 C 2625.19 1.79378 0.779937 0
M  V30 27847 O 2626.4 2.43019 1.21053 0
M  V30 27848 C 2624.85 3.39673 -1.18955 0
M  V30 27849 C 2624.46 3.58304 -2.68927 0
M  V30 27850 C 2626.2 4.13814 -0.946492 0
M  V30 27851 C 2624.11 5.02364 -3.12065 0
M  V30 27852 H 2623.04 0.709352 -0.255608 0
M  V30 27853 H 2625.69 1.36757 -1.22351 0
M  V30 27854 H 2624.07 3.91621 -0.587297 0
M  V30 27855 H 2625.25 3.16766 -3.34658 0
M  V30 27856 H 2623.56 2.97527 -2.91319 0
M  V30 27857 H 2626.16 5.20021 -1.24426 0
M  V30 27858 H 2626.5 4.16135 0.117146 0
M  V30 27859 H 2627.04 3.67951 -1.51186 0
M  V30 27860 H 2623.77 5.05194 -4.17683 0
M  V30 27861 H 2623.29 5.44733 -2.51051 0
M  V30 27862 H 2624.97 5.70913 -3.04413 0
M  V30 27863 N 2625.11 0.787064 1.3654 0
M  V30 27864 C 2626.33 0.370235 2.0356 0
M  V30 27865 C 2626.75 -1.0126 1.59348 0
M  V30 27866 O 2626.11 -1.64906 0.78181 0
M  V30 27867 C 2626.16 0.421677 3.59032 0
M  V30 27868 O 2625.88 1.74997 4.01631 0
M  V30 27869 C 2627.38 -0.00481971 4.433 0
M  V30 27870 H 2624.6 0.152916 0.653343 0
M  V30 27871 H 2627.14 1.06525 1.74564 0
M  V30 27872 H 2625.3 -0.224903 3.86747 0
M  V30 27873 H 2625.71 1.69917 4.96214 0
M  V30 27874 H 2627.19 0.0823154 5.51939 0
M  V30 27875 H 2627.66 -1.05716 4.26287 0
M  V30 27876 H 2628.27 0.614159 4.20842 0
M  V30 27877 N 2626.58 -1.48101 0.53888 0
M  V30 27878 C 2627.51 -2.32575 -0.207613 0
M  V30 27879 C 2628.49 -1.42651 -0.926534 0
M  V30 27880 O 2629.68 -1.71529 -0.91058 0
M  V30 27881 C 2626.81 -3.24044 -1.24951 0
M  V30 27882 C 2625.76 -4.23063 -0.648189 0
M  V30 27883 C 2625.09 -5.03728 -1.79339 0
M  V30 27884 C 2626.39 -5.20872 0.385988 0
M  V30 27885 H 2628.08 -2.95236 0.497586 0
M  V30 27886 H 2625.63 -1.41973 0.24074 0
M  V30 27887 H 2627.58 -3.81972 -1.77976 0
M  V30 27888 H 2626.31 -2.59401 -1.98441 0
M  V30 27889 H 2624.97 -3.66335 -0.139388 0
M  V30 27890 H 2624.61 -4.35502 -2.51688 0
M  V30 27891 H 2624.31 -5.70754 -1.39692 0
M  V30 27892 H 2625.84 -5.6451 -2.32725 0
M  V30 27893 H 2627.25 -5.73271 -0.0575062 0
M  V30 27894 H 2625.65 -5.95999 0.700332 0
M  V30 27895 H 2626.72 -4.67466 1.28856 0
M  V30 27896 N 2628.06 -0.274434 -1.55192 0
M  V30 27897 C 2629.34 0.394298 -1.91585 0
M  V30 27898 C 2629.72 1.73772 -1.19861 0
M  V30 27899 O 2629.07 2.26173 -0.325239 0
M  V30 27900 C 2629.28 0.53525 -3.44871 0
M  V30 27901 C 2630.62 0.818461 -4.16637 0
M  V30 27902 O 2631.65 0.620084 -3.50761 0
M  V30 27903 O 2630.51 1.19782 -5.33211 0
M  V30 27904 H 2627.6 0.21578 -0.798353 0
M  V30 27905 H 2630.15 -0.320536 -1.66645 0
M  V30 27906 H 2628.92 -0.410209 -3.89144 0
M  V30 27907 H 2628.54 1.29958 -3.75762 0
M  V30 27908 N 2629.54 1.576 -0.00170483 0
M  V30 27909 C 2630.79 1.8982 0.681988 0
M  V30 27910 C 2631.1 0.876902 1.74842 0
M  V30 27911 O 2632.31 1.08939 2.48686 0
M  V30 27912 C 2630.76 3.36966 1.26419 0
M  V30 27913 C 2630.37 4.47396 0.232489 0
M  V30 27914 C 2632.12 3.78294 1.92598 0
M  V30 27915 C 2630.02 5.8562 0.824779 0
M  V30 27916 H 2628.95 0.708308 0.258487 0
M  V30 27917 H 2631.6 1.83393 -0.0625279 0
M  V30 27918 H 2629.99 3.38236 2.05943 0
M  V30 27919 H 2631.16 4.57645 -0.538281 0
M  V30 27920 H 2629.47 4.15099 -0.328953 0
M  V30 27921 H 2632.07 4.78901 2.37819 0
M  V30 27922 H 2632.41 3.11899 2.75726 0
M  V30 27923 H 2632.95 3.7933 1.19805 0
M  V30 27924 H 2629.69 6.55492 0.032239 0
M  V30 27925 H 2629.21 5.79032 1.56467 0
M  V30 27926 H 2630.89 6.33331 1.3229 0
M  V30 27927 N 2631.02 -0.271076 1.55251 0
M  V30 27928 C 2632.29 -1.02381 1.66666 0
M  V30 27929 C 2632.67 -2.04224 0.534399 0
M  V30 27930 O 2632.02 -2.23712 -0.465298 0
M  V30 27931 C 2632.23 -1.67889 3.05964 0
M  V30 27932 C 2633.58 -2.1898 3.63776 0
M  V30 27933 O 2634.6 -1.77873 3.08609 0
M  V30 27934 O 2633.46 -2.94385 4.60434 0
M  V30 27935 H 2630.56 -0.475023 0.676966 0
M  V30 27936 H 2633.1 -0.26678 1.6759 0
M  V30 27937 H 2631.88 -0.941004 3.79817 0
M  V30 27938 H 2631.5 -2.50274 3.08947 0
M  V30 27939 N 2632.5 -1.48217 -0.535675 0
M  V30 27940 C 2633.91 -1.4955 -1.11767 0
M  V30 27941 C 2634.26 -0.262104 -1.94441 0
M  V30 27942 O 2633.38 0.63125 -2.06988 0
M  V30 27943 C 2633.98 -2.70978 -2.03363 0
M  V30 27944 C 2632.54 -2.75201 -2.56791 0
M  V30 27945 C 2631.68 -2.4298 -1.33627 0
M  V30 27946 H 2634.64 -1.55415 -0.321205 0
M  V30 27947 H 2634.66 -2.49172 -2.87565 0
M  V30 27948 H 2634.17 -3.6073 -1.43163 0
M  V30 27949 H 2632.27 -1.89643 -3.20728 0
M  V30 27950 H 2632.38 -3.76477 -2.96313 0
M  V30 27951 H 2630.75 -1.94015 -1.65017 0
M  V30 27952 H 2631.53 -3.34965 -0.751881 0
M  V30 27953 N 2633.97 0.784108 -1.3671 0
M  V30 27954 C 2634.92 1.89696 -1.31469 0
M  V30 27955 C 2635.89 1.65095 -0.182419 0
M  V30 27956 O 2637.08 1.87182 -0.369795 0
M  V30 27957 C 2634.22 3.26586 -1.11516 0
M  V30 27958 C 2633.33 3.63223 -2.33865 0
M  V30 27959 C 2632.46 4.89258 -2.06882 0
M  V30 27960 C 2631.5 5.1859 -3.25163 0
M  V30 27961 N 2630.64 6.35809 -2.97811 0
M  V30 27962 H 2635.48 1.93511 -2.26622 0
M  V30 27963 H 2633.02 0.946236 -1.12627 0
M  V30 27964 H 2634.98 4.05533 -0.979724 0
M  V30 27965 H 2633.61 3.22179 -0.200159 0
M  V30 27966 H 2632.66 2.79357 -2.58193 0
M  V30 27967 H 2633.97 3.80845 -3.22116 0
M  V30 27968 H 2633.12 5.76083 -1.90299 0
M  V30 27969 H 2631.86 4.73716 -1.1595 0
M  V30 27970 H 2630.87 4.30245 -3.423 0
M  V30 27971 H 2632.09 5.36047 -4.16929 0
M  V30 27972 H 2630.04 6.21649 -2.09496 0
M  V30 27973 H 2629.96 6.53788 -3.79602 0
M  V30 27974 H 2631.22 7.25602 -2.84818 0
M  V30 27975 N 2635.45 1.21076 1.00888 0
M  V30 27976 C 2636.86 1.02488 1.56055 0
M  V30 27977 C 2637.21 -0.416472 1.91729 0
M  V30 27978 O 2636.34 -1.29908 1.73069 0
M  V30 27979 C 2636.93 1.85416 2.8356 0
M  V30 27980 C 2635.49 1.71172 3.35227 0
M  V30 27981 C 2634.64 1.82869 2.08457 0
M  V30 27982 H 2637.59 1.35155 0.831794 0
M  V30 27983 H 2637.61 1.36211 3.55284 0
M  V30 27984 H 2637.12 2.90314 2.57564 0
M  V30 27985 H 2635.23 0.689425 3.66166 0
M  V30 27986 H 2635.34 2.52908 4.06908 0
M  V30 27987 H 2633.7 1.26136 2.21273 0
M  V30 27988 H 2634.49 2.89266 1.84878 0
M  V30 27989 N 2636.93 -1.2032 1.01789 0
M  V30 27990 C 2638.18 -1.89042 0.703283 0
M  V30 27991 C 2638.49 -1.79789 -0.770414 0
M  V30 27992 O 2639.7 -2.43658 -1.19763 0
M  V30 27993 C 2638.15 -3.39037 1.20755 0
M  V30 27994 C 2637.76 -3.56873 2.70824 0
M  V30 27995 C 2639.51 -4.13306 0.968425 0
M  V30 27996 C 2637.41 -5.00702 3.14724 0
M  V30 27997 H 2636.34 -0.707987 0.259366 0
M  V30 27998 H 2638.99 -1.36106 1.23074 0
M  V30 27999 H 2637.38 -3.91304 0.608057 0
M  V30 28000 H 2638.55 -3.14987 3.36333 0
M  V30 28001 H 2636.87 -2.95978 2.92893 0
M  V30 28002 H 2639.46 -5.19354 1.27183 0
M  V30 28003 H 2639.81 -4.16191 -0.0950759 0
M  V30 28004 H 2640.34 -3.67144 1.53135 0
M  V30 28005 H 2637.08 -5.02972 4.20356 0
M  V30 28006 H 2636.6 -5.43393 2.53936 0
M  V30 28007 H 2638.28 -5.69291 3.07436 0
M  V30 28008 N 2638.41 -0.794293 -1.3612 0
M  V30 28009 C 2639.64 -0.381025 -2.03361 0
M  V30 28010 C 2640.05 1.00413 -1.59883 0
M  V30 28011 O 2639.41 1.64489 -0.790544 0
M  V30 28012 C 2639.46 -0.440712 -3.58804 0
M  V30 28013 O 2639.18 -1.77125 -4.00697 0
M  V30 28014 C 2640.68 -0.0186896 -4.43296 0
M  V30 28015 H 2637.9 -0.156379 -0.652523 0
M  V30 28016 H 2640.45 -1.0745 -1.73997 0
M  V30 28017 H 2638.6 0.20439 -3.8686 0
M  V30 28018 H 2639.01 -1.72546 -4.95306 0
M  V30 28019 H 2640.49 -0.111585 -5.51887 0
M  V30 28020 H 2640.97 1.03453 -4.26842 0
M  V30 28021 H 2641.57 -0.636469 -4.20511 0
M  V30 28022 N 2639.89 1.47813 -0.546727 0
M  V30 28023 C 2640.82 2.32682 0.195276 0
M  V30 28024 C 2641.8 1.43141 0.918956 0
M  V30 28025 O 2642.98 1.72009 0.90147 0
M  V30 28026 C 2640.11 3.24702 1.23231 0
M  V30 28027 C 2639.07 4.23401 0.625743 0
M  V30 28028 C 2638.39 5.04672 1.76665 0
M  V30 28029 C 2639.69 5.2066 -0.413606 0
M  V30 28030 H 2641.39 2.94968 -0.513236 0
M  V30 28031 H 2638.93 1.41844 -0.248266 0
M  V30 28032 H 2640.89 3.8291 1.75948 0
M  V30 28033 H 2639.61 2.60449 1.97063 0
M  V30 28034 H 2638.27 3.66404 0.119958 0
M  V30 28035 H 2637.92 4.36831 2.49375 0
M  V30 28036 H 2637.62 5.71487 1.36663 0
M  V30 28037 H 2639.14 5.65736 2.29728 0
M  V30 28038 H 2640.55 5.73294 0.0271035 0
M  V30 28039 H 2638.95 5.9562 -0.731929 0
M  V30 28040 H 2640.02 4.66776 -1.31334 0
M  V30 28041 N 2641.36 0.28266 1.55044 0
M  V30 28042 C 2642.27 -0.61143 2.26492 0
M  V30 28043 C 2643.29 -1.16381 1.2935 0
M  V30 28044 O 2644.47 -1.1925 1.623 0
M  V30 28045 C 2641.53 -1.77558 2.97782 0
M  V30 28046 C 2640.59 -1.25911 4.1042 0
M  V30 28047 C 2639.83 -2.36778 4.78301 0
M  V30 28048 O 2640.05 -3.56295 4.45432 0
M  V30 28049 O 2638.98 -2.04507 5.66092 0
M  V30 28050 H 2642.81 -0.0324082 3.03683 0
M  V30 28051 H 2640.39 0.0497838 1.49317 0
M  V30 28052 H 2642.28 -2.45421 3.42559 0
M  V30 28053 H 2640.95 -2.34155 2.23502 0
M  V30 28054 H 2639.86 -0.546732 3.70083 0
M  V30 28055 H 2641.19 -0.738801 4.86624 0
M  V30 28056 N 2642.84 -1.57597 0.0100627 0
M  V30 28057 C 2644.12 -1.82249 -0.710264 0
M  V30 28058 C 2644.5 -0.889945 -1.91424 0
M  V30 28059 O 2643.85 0.0589891 -2.28424 0
M  V30 28060 C 2644.06 -3.30995 -1.1065 0
M  V30 28061 C 2645.41 -3.96989 -1.50614 0
M  V30 28062 O 2646.43 -3.35378 -1.20001 0
M  V30 28063 O 2645.29 -5.05543 -2.07578 0
M  V30 28064 H 2642.38 -0.750811 -0.346717 0
M  V30 28065 H 2644.93 -1.69661 0.0362876 0
M  V30 28066 H 2643.7 -3.90508 -0.248758 0
M  V30 28067 H 2643.32 -3.48619 -1.91183 0
M  V30 28068 N 2644.32 0.262839 -1.55393 0
M  V30 28069 C 2645.55 1.0153 -1.80849 0
M  V30 28070 C 2645.97 1.78773 -0.584978 0
M  V30 28071 O 2645.33 1.75218 0.465671 0
M  V30 28072 C 2645.38 1.94154 -3.0387 0
M  V30 28073 O 2644.48 3.03084 -2.79668 0
M  V30 28074 H 2643.82 0.289749 -0.597446 0
M  V30 28075 H 2646.35 0.288663 -2.02553 0
M  V30 28076 H 2646.36 2.35918 -3.32876 0
M  V30 28077 H 2645.04 1.37347 -3.92567 0
M  V30 28078 H 2643.61 2.65561 -2.61785 0
M  V30 28079 N 2645.8 1.48499 0.527807 0
M  V30 28080 C 2647.04 1.56859 1.28542 0
M  V30 28081 C 2647.38 0.242685 1.92678 0
M  V30 28082 O 2646.65 -0.751514 1.79395 0
M  V30 28083 C 2646.94 2.70843 2.3731 0
M  V30 28084 C 2646.79 4.13146 1.77851 0
M  V30 28085 C 2648.11 2.80579 3.39063 0
M  V30 28086 H 2645.23 0.570979 0.465996 0
M  V30 28087 H 2647.87 1.80681 0.587752 0
M  V30 28088 H 2646.02 2.50663 2.96817 0
M  V30 28089 H 2647.69 4.44771 1.22377 0
M  V30 28090 H 2645.93 4.20044 1.08375 0
M  V30 28091 H 2646.6 4.88725 2.56615 0
M  V30 28092 H 2649.08 2.98867 2.89513 0
M  V30 28093 H 2647.96 3.62058 4.1256 0
M  V30 28094 H 2648.22 1.88825 3.99747 0
M  V30 28095 N 2647.28 -0.776847 1.37123 0
M  V30 28096 C 2648.52 -1.53522 1.3205 0
M  V30 28097 C 2648.85 -1.9426 -0.096529 0
M  V30 28098 O 2648.11 -1.63947 -1.06863 0
M  V30 28099 C 2648.41 -2.81607 2.20073 0
M  V30 28100 C 2648.07 -2.59947 3.68427 0
M  V30 28101 C 2646.73 -2.53747 4.08859 0
M  V30 28102 C 2649.09 -2.40423 4.62435 0
M  V30 28103 C 2646.41 -2.26008 5.41421 0
M  V30 28104 C 2648.77 -2.14209 5.95229 0
M  V30 28105 C 2647.43 -2.06451 6.34771 0
M  V30 28106 H 2646.7 -0.561777 0.483206 0
M  V30 28107 H 2649.35 -0.895238 1.69286 0
M  V30 28108 H 2647.65 -3.50138 1.75815 0
M  V30 28109 H 2649.35 -3.39461 2.13464 0
M  V30 28110 H 2645.94 -2.65632 3.36359 0
M  V30 28111 H 2650.12 -2.44206 4.32062 0
M  V30 28112 H 2645.38 -2.18494 5.71026 0
M  V30 28113 H 2649.55 -1.981 6.6763 0
M  V30 28114 H 2647.18 -1.8472 7.37416 0
M  V30 28115 N 2648.76 -1.2161 -1.00244 0
M  V30 28116 C 2650 -1.03283 -1.73715 0
M  V30 28117 C 2650.32 0.434284 -1.90103 0
M  V30 28118 O 2649.59 1.31309 -1.45378 0
M  V30 28119 H 2648.17 -0.379183 -0.643606 0
M  V30 28120 H 2650.84 -1.52962 -1.20784 0
M  V30 28121 H 2649.93 -1.50287 -2.73533 0
M  V30 28122 N 2650.23 1.19778 -1.02425 0
M  V30 28123 C 2651.46 1.9331 -0.73749 0
M  V30 28124 C 2651.88 1.75224 0.702992 0
M  V30 28125 O 2651.23 1.07114 1.47759 0
M  V30 28126 C 2651.28 3.45197 -1.07336 0
M  V30 28127 O 2651.01 3.62698 -2.45727 0
M  V30 28128 C 2652.51 4.3586 -0.808737 0
M  V30 28129 H 2649.73 0.614188 -0.270211 0
M  V30 28130 H 2652.27 1.52052 -1.3675 0
M  V30 28131 H 2650.43 3.84306 -0.488613 0
M  V30 28132 H 2650.84 4.56607 -2.58089 0
M  V30 28133 H 2652.31 5.41056 -1.09375 0
M  V30 28134 H 2652.79 4.38448 0.256948 0
M  V30 28135 H 2653.4 4.02426 -1.37599 0
M  V30 28136 N 2651.71 0.801501 1.35697 0
M  V30 28137 C 2652.99 0.302971 1.93239 0
M  V30 28138 C 2653.37 -1.20669 1.73211 0
M  V30 28139 O 2652.72 -2.00383 1.09812 0
M  V30 28140 C 2652.93 0.708807 3.41726 0
M  V30 28141 C 2654.27 0.695402 4.18867 0
M  V30 28142 O 2655.3 0.650033 3.50219 0
M  V30 28143 O 2654.16 0.749176 5.41341 0
M  V30 28144 H 2651.25 0.0780511 0.823309 0
M  V30 28145 H 2653.8 0.884857 1.44805 0
M  V30 28146 H 2652.57 1.7495 3.50012 0
M  V30 28147 H 2652.19 0.101454 3.97471 0
M  V30 28148 N 2653.19 -1.47521 0.554558 0
M  V30 28149 C 2654.44 -2.02079 0.0294563 0
M  V30 28150 C 2654.76 -1.43154 -1.32409 0
M  V30 28151 O 2654.03 -0.605761 -1.86299 0
M  V30 28152 H 2652.61 -0.746958 0.00789985 0
M  V30 28153 H 2655.27 -1.80955 0.723966 0
M  V30 28154 H 2654.37 -3.12041 -0.0606196 0
M  V30 28155 N 2654.67 -0.290879 -1.54892 0
M  V30 28156 C 2655.6 0.583044 -2.26104 0
M  V30 28157 C 2656.58 1.14617 -1.25686 0
M  V30 28158 O 2657.76 1.17739 -1.54439 0
M  V30 28159 C 2654.89 1.75982 -2.99412 0
M  V30 28160 C 2653.85 1.32751 -4.06892 0
M  V30 28161 C 2653.17 2.58864 -4.67861 0
M  V30 28162 C 2654.47 0.466148 -5.20216 0
M  V30 28163 H 2656.17 -0.0108741 -2.99398 0
M  V30 28164 H 2653.71 -0.00666999 -1.43998 0
M  V30 28165 H 2655.67 2.3772 -3.47947 0
M  V30 28166 H 2654.39 2.37981 -2.23679 0
M  V30 28167 H 2653.05 0.733236 -3.59192 0
M  V30 28168 H 2652.7 3.19156 -3.88778 0
M  V30 28169 H 2652.4 2.30644 -5.40442 0
M  V30 28170 H 2653.92 3.21424 -5.19152 0
M  V30 28171 H 2655.34 0.988948 -5.64706 0
M  V30 28172 H 2653.73 0.278155 -5.99455 0
M  V30 28173 H 2654.8 -0.511257 -4.82197 0
M  V30 28174 N 2656.15 1.57589 -0.0184203 0
M  V30 28175 C 2657.06 2.13017 0.982906 0
M  V30 28176 C 2658.07 1.07981 1.36441 0
M  V30 28177 O 2659.25 1.39982 1.448 0
M  V30 28178 C 2656.31 2.63756 2.25019 0
M  V30 28179 C 2655.37 3.83465 1.93011 0
M  V30 28180 C 2654.61 4.31775 3.13698 0
M  V30 28181 O 2654.83 3.79312 4.26003 0
M  V30 28182 O 2653.76 5.23737 2.9662 0
M  V30 28183 H 2657.59 2.98831 0.541656 0
M  V30 28184 H 2655.17 1.48034 0.201539 0
M  V30 28185 H 2657.06 2.96507 2.99435 0
M  V30 28186 H 2655.73 1.8103 2.68346 0
M  V30 28187 H 2654.64 3.55657 1.16013 0
M  V30 28188 H 2655.97 4.6732 1.54508 0
M  V30 28189 N 2657.62 -0.254594 1.5553 0
M  V30 28190 C 2658.59 -1.29842 1.88875 0
M  V30 28191 C 2659.59 -1.41458 0.764616 0
M  V30 28192 O 2660.78 -1.40291 1.03267 0
M  V30 28193 C 2657.91 -2.67725 2.11036 0
M  V30 28194 H 2659.1 -1.01497 2.82203 0
M  V30 28195 H 2656.65 -0.49353 1.48304 0
M  V30 28196 H 2657.39 -3.01221 1.20151 0
M  V30 28197 H 2657.17 -2.60677 2.92899 0
M  V30 28198 H 2658.66 -3.4311 2.38044 0
M  V30 28199 N 2659.1 -1.48777 -0.519925 0
M  V30 28200 C 2660.03 -1.66948 -1.6325 0
M  V30 28201 C 2661.01 -0.518252 -1.62013 0
M  V30 28202 O 2662.2 -0.75195 -1.79051 0
M  V30 28203 C 2659.33 -1.71842 -3.01807 0
M  V30 28204 C 2658.28 -2.86566 -3.17906 0
M  V30 28205 C 2657.61 -2.76556 -4.57625 0
M  V30 28206 C 2658.91 -4.27743 -2.99722 0
M  V30 28207 H 2660.6 -2.60093 -1.48298 0
M  V30 28208 H 2658.15 -1.25166 -0.712004 0
M  V30 28209 H 2660.1 -1.83142 -3.79522 0
M  V30 28210 H 2658.82 -0.752831 -3.17805 0
M  V30 28211 H 2657.48 -2.74837 -2.42611 0
M  V30 28212 H 2657.13 -1.77946 -4.70472 0
M  V30 28213 H 2656.83 -3.53545 -4.6934 0
M  V30 28214 H 2658.36 -2.89838 -5.37426 0
M  V30 28215 H 2659.77 -4.40252 -3.67221 0
M  V30 28216 H 2658.17 -5.05807 -3.22923 0
M  V30 28217 H 2659.24 -4.43505 -1.96039 0
M  V30 28218 N 2660.58 0.769564 -1.37534 0
M  V30 28219 C 2661.86 1.51766 -1.23395 0
M  V30 28220 C 2662.24 2.10402 0.171533 0
M  V30 28221 O 2661.58 1.9571 1.1794 0
M  V30 28222 C 2661.79 2.59681 -2.33167 0
M  V30 28223 C 2663.14 3.27024 -2.70815 0
M  V30 28224 O 2664.17 2.69977 -2.3236 0
M  V30 28225 O 2663.03 4.30167 -3.37074 0
M  V30 28226 H 2660.12 0.672282 -0.481628 0
M  V30 28227 H 2662.67 0.806342 -1.49319 0
M  V30 28228 H 2661.44 2.14488 -3.27277 0
M  V30 28229 H 2661.06 3.38411 -2.08719 0
M  V30 28230 N 2662.06 1.22139 0.995977 0
M  V30 28231 C 2662.99 1.01293 2.10385 0
M  V30 28232 C 2663.97 -0.0651155 1.69975 0
M  V30 28233 O 2665.15 0.0964969 1.9396 0
M  V30 28234 C 2662.28 0.586577 3.42311 0
M  V30 28235 C 2661.24 1.61021 3.96556 0
M  V30 28236 C 2660.56 1.03979 5.24493 0
M  V30 28237 C 2661.86 2.9994 4.2759 0
M  V30 28238 H 2663.56 1.93955 2.28083 0
M  V30 28239 H 2661.1 0.933947 1.09606 0
M  V30 28240 H 2663.06 0.427867 4.19222 0
M  V30 28241 H 2661.78 -0.375704 3.24432 0
M  V30 28242 H 2660.44 1.75664 3.21773 0
M  V30 28243 H 2660.09 0.0689587 5.02953 0
M  V30 28244 H 2659.79 1.72362 5.61752 0
M  V30 28245 H 2661.31 0.892601 6.04041 0
M  V30 28246 H 2662.73 2.88689 4.9531 0
M  V30 28247 H 2661.12 3.65418 4.76014 0
M  V30 28248 H 2662.19 3.50105 3.35491 0
M  V30 28249 N 2663.54 -1.19233 1.03059 0
M  V30 28250 C 2664.48 -2.24556 0.606431 0
M  V30 28251 C 2665.48 -1.65491 -0.361797 0
M  V30 28252 O 2666.68 -1.78522 -0.230189 0
M  V30 28253 H 2663.06 -0.730666 0.177851 0
M  V30 28254 H 2665.03 -2.57648 1.50533 0
M  V30 28255 C 2663.78 -3.47691 -0.0251516 0
M  V30 28256 H 2663.1 -3.93429 0.710907 0
M  V30 28257 H 2664.54 -4.23042 -0.284856 0
M  V30 28258 C 2663 -3.11955 -1.27223 0
M  V30 28259 O 2663.53 -3.24766 -2.36411 0
M  V30 28260 N 2661.74 -2.66372 -1.16165 0
M  V30 28261 H 2661.28 -2.56148 -0.273144 0
M  V30 28262 H 2661.24 -2.42833 -1.99699 0
M  V30 28263 N 2665.01 -0.808686 -1.3527 0
M  V30 28264 C 2666.24 -0.402572 -2.02946 0
M  V30 28265 C 2666.66 0.987119 -1.60939 0
M  V30 28266 O 2666.01 1.63641 -0.807946 0
M  V30 28267 C 2666.07 -0.478743 -3.58316 0
M  V30 28268 O 2665.79 -1.81365 -3.98796 0
M  V30 28269 C 2667.29 -0.065706 -4.43251 0
M  V30 28270 H 2664.51 -0.163291 -0.650828 0
M  V30 28271 H 2667.05 -1.09289 -1.72847 0
M  V30 28272 H 2665.21 0.163347 -3.87055 0
M  V30 28273 H 2665.62 -1.7779 -4.93448 0
M  V30 28274 H 2667.09 -0.170114 -5.51738 0
M  V30 28275 H 2667.57 0.989203 -4.27915 0
M  V30 28276 H 2668.18 -0.681034 -4.19812 0
M  V30 28277 N 2666.49 1.47225 -0.562374 0
M  V30 28278 C 2667.72 2.07355 -0.0432997 0
M  V30 28279 C 2668.14 1.41151 1.2433 0
M  V30 28280 O 2667.5 0.488257 1.74602 0
M  V30 28281 C 2667.55 3.60365 0.130224 0
M  V30 28282 O 2666.65 3.9481 1.1916 0
M  V30 28283 H 2665.99 0.661829 -0.0536451 0
M  V30 28284 H 2668.52 1.89168 -0.779528 0
M  V30 28285 H 2668.53 4.06557 0.342809 0
M  V30 28286 H 2667.21 4.07947 -0.809461 0
M  V30 28287 H 2665.79 3.60355 0.95909 0
M  V30 28288 N 2667.97 0.299089 1.54736 0
M  V30 28289 C 2668.93 -0.564973 2.22128 0
M  V30 28290 C 2669.93 -1.06278 1.20671 0
M  V30 28291 O 2671.12 -0.959119 1.45419 0
M  V30 28292 C 2668.26 -1.78203 2.90614 0
M  V30 28293 H 2669.45 0.0237975 2.99891 0
M  V30 28294 H 2667 0.0499063 1.5622 0
M  V30 28295 H 2667.74 -2.41068 2.16925 0
M  V30 28296 H 2667.52 -1.43274 3.64986 0
M  V30 28297 H 2669.01 -2.39594 3.4203 0
M  V30 28298 N 2669.45 -1.57577 0.0267774 0
M  V30 28299 C 2670.7 -1.91325 -0.651082 0
M  V30 28300 C 2671.02 -0.90356 -1.72803 0
M  V30 28301 O 2670.29 0.0552602 -1.95822 0
M  V30 28302 H 2668.87 -0.706206 -0.243479 0
M  V30 28303 H 2671.53 -1.94759 0.0740277 0
M  V30 28304 H 2670.63 -2.91872 -1.10531 0
M  V30 28305 N 2670.93 0.246342 -1.55663 0
M  V30 28306 C 2672.17 0.974304 -1.77521 0
M  V30 28307 C 2672.5 1.85297 -0.591198 0
M  V30 28308 O 2671.76 1.91019 0.425463 0
M  V30 28309 C 2672.06 1.86489 -3.04888 0
M  V30 28310 C 2671.72 1.14153 -4.36211 0
M  V30 28311 C 2670.38 0.941618 -4.71897 0
M  V30 28312 C 2672.74 0.628867 -5.17392 0
M  V30 28313 C 2670.06 0.216749 -5.86299 0
M  V30 28314 C 2672.42 -0.0825385 -6.32546 0
M  V30 28315 C 2671.08 -0.293925 -6.66853 0
M  V30 28316 H 2670.35 0.356523 -0.649594 0
M  V30 28317 H 2673 0.24436 -1.89935 0
M  V30 28318 H 2671.3 2.66191 -2.87488 0
M  V30 28319 H 2673 2.42984 -3.18998 0
M  V30 28320 H 2669.59 1.30729 -4.08176 0
M  V30 28321 H 2673.77 0.770857 -4.90277 0
M  V30 28322 H 2669.03 0.0425049 -6.11385 0
M  V30 28323 H 2673.2 -0.487415 -6.94692 0
M  V30 28324 H 2670.83 -0.857561 -7.55348 0
M  V30 28325 N 2672.4 1.4905 0.512027 0
M  V30 28326 C 2673.82 1.51309 1.09373 0
M  V30 28327 C 2674.17 0.293005 1.94 0
M  V30 28328 O 2673.29 -0.59824 2.07966 0
M  V30 28329 C 2673.89 2.74179 1.99026 0
M  V30 28330 C 2672.45 2.79251 2.5238 0
M  V30 28331 C 2671.59 2.45075 1.29744 0
M  V30 28332 H 2674.54 1.55907 0.296439 0
M  V30 28333 H 2674.56 2.53716 2.83564 0
M  V30 28334 H 2674.08 3.62962 1.37406 0
M  V30 28335 H 2672.18 1.94722 3.1767 0
M  V30 28336 H 2672.29 3.81144 2.90286 0
M  V30 28337 H 2670.65 1.96615 1.61909 0
M  V30 28338 H 2671.44 3.36119 0.698496 0
M  V30 28339 N 2673.88 -0.762259 1.3794 0
M  V30 28340 C 2675.11 -1.5492 1.36688 0
M  V30 28341 C 2675.52 -1.89141 -0.0473767 0
M  V30 28342 O 2674.86 -1.52639 -1.0221 0
M  V30 28343 C 2674.93 -2.88148 2.14968 0
M  V30 28344 C 2674.59 -2.76512 3.63855 0
M  V30 28345 C 2675.59 -2.46896 4.57535 0
M  V30 28346 C 2673.27 -2.94236 4.071 0
M  V30 28347 C 2675.27 -2.35145 5.9244 0
M  V30 28348 C 2672.95 -2.82106 5.42088 0
M  V30 28349 C 2673.95 -2.52602 6.34572 0
M  V30 28350 O 2673.64 -2.40516 7.67077 0
M  V30 28351 H 2673.37 -0.486268 0.469595 0
M  V30 28352 H 2675.92 -0.951844 1.82014 0
M  V30 28353 H 2674.15 -3.50039 1.64346 0
M  V30 28354 H 2675.84 -3.49605 2.06231 0
M  V30 28355 H 2676.61 -2.32879 4.25432 0
M  V30 28356 H 2672.49 -3.162 3.35468 0
M  V30 28357 H 2676.03 -2.12038 6.64594 0
M  V30 28358 H 2671.93 -2.95694 5.7379 0
M  V30 28359 H 2672.7 -2.55794 7.77504 0
M  V30 28360 N 2675.36 -1.22666 -0.989486 0
M  V30 28361 C 2676.61 -1.0474 -1.72373 0
M  V30 28362 C 2676.92 0.417282 -1.91097 0
M  V30 28363 O 2678.13 0.716288 -2.61881 0
M  V30 28364 C 2676.58 -1.82566 -3.10157 0
M  V30 28365 C 2676.19 -3.33305 -2.99352 0
M  V30 28366 C 2677.94 -1.73099 -3.87604 0
M  V30 28367 C 2675.84 -4.03559 -4.32312 0
M  V30 28368 H 2674.77 -0.388314 -0.646319 0
M  V30 28369 H 2677.42 -1.46548 -1.10435 0
M  V30 28370 H 2675.81 -1.33558 -3.72798 0
M  V30 28371 H 2676.98 -3.89732 -2.45856 0
M  V30 28372 H 2675.3 -3.43486 -2.35386 0
M  V30 28373 H 2677.89 -2.22907 -4.86021 0
M  V30 28374 H 2678.24 -0.692048 -4.10507 0
M  V30 28375 H 2678.77 -2.19669 -3.31648 0
M  V30 28376 H 2675.51 -5.07722 -4.14607 0
M  V30 28377 H 2675.03 -3.5192 -4.85708 0
M  V30 28378 H 2676.71 -4.09346 -5.01044 0
M  V30 28379 N 2676.84 1.18685 -1.0369 0
M  V30 28380 C 2677.8 2.20396 -0.629154 0
M  V30 28381 C 2678.8 1.57755 0.311467 0
M  V30 28382 O 2679.99 1.73928 0.0973801 0
M  V30 28383 C 2677.12 3.4081 0.0781632 0
M  V30 28384 H 2678.32 2.57984 -1.52919 0
M  V30 28385 H 2675.87 1.32503 -0.829011 0
M  V30 28386 H 2676.61 3.0875 0.992178 0
M  V30 28387 H 2676.39 3.87515 -0.597845 0
M  V30 28388 H 2677.88 4.1613 0.350082 0
M  V30 28389 N 2678.32 0.815849 1.34839 0
M  V30 28390 C 2679.25 0.178102 2.27504 0
M  V30 28391 C 2680.23 -0.661347 1.48543 0
M  V30 28392 O 2681.41 -0.626622 1.7778 0
M  V30 28393 C 2678.54 -0.751944 3.30248 0
M  V30 28394 C 2677.59 0.00906669 4.26499 0
M  V30 28395 S 2678.42 1.35143 5.18167 0
M  V30 28396 C 2679.57 0.42607 6.24448 0
M  V30 28397 H 2679.81 0.963734 2.81246 0
M  V30 28398 H 2677.34 0.61138 1.4178 0
M  V30 28399 H 2679.3 -1.28301 3.89935 0
M  V30 28400 H 2677.96 -1.51104 2.75366 0
M  V30 28401 H 2677.15 -0.697678 4.99148 0
M  V30 28402 H 2676.75 0.470461 3.71029 0
M  V30 28403 H 2679.05 -0.385115 6.76405 0
M  V30 28404 H 2679.99 1.12202 6.99154 0
M  V30 28405 H 2680.4 0.0176453 5.64497 0
M  V30 28406 N 2679.8 -1.46924 0.570174 0
M  V30 28407 C 2681.04 -2.02036 0.0508878 0
M  V30 28408 C 2681.36 -1.4455 -1.30883 0
M  V30 28409 O 2680.63 -0.625486 -1.85646 0
M  V30 28410 H 2679.21 -0.746832 0.0158219 0
M  V30 28411 H 2681.88 -1.80177 0.743118 0
M  V30 28412 H 2680.97 -3.12088 -0.0275201 0
M  V30 28413 N 2681.27 -0.307291 -1.54575 0
M  V30 28414 C 2682.52 0.300577 -2.0056 0
M  V30 28415 C 2682.85 1.53054 -1.19532 0
M  V30 28416 O 2682.13 1.92569 -0.273404 0
M  V30 28417 C 2682.41 0.650925 -3.54168 0
M  V30 28418 C 2682.26 -0.588618 -4.45932 0
M  V30 28419 C 2683.58 1.47498 -4.14647 0
M  V30 28420 H 2680.7 0.107775 -0.729077 0
M  V30 28421 H 2683.34 -0.420639 -1.85285 0
M  V30 28422 H 2681.49 1.26538 -3.67315 0
M  V30 28423 H 2683.17 -1.22705 -4.44681 0
M  V30 28424 H 2681.41 -1.22065 -4.16272 0
M  V30 28425 H 2682.08 -0.29925 -5.51188 0
M  V30 28426 H 2684.56 0.95575 -4.04975 0
M  V30 28427 H 2683.43 1.6889 -5.22271 0
M  V30 28428 H 2683.69 2.46614 -3.66925 0
M  V30 28429 N 2682.75 1.57561 -0.0351337 0
M  V30 28430 C 2683.7 2.1058 0.944703 0
M  V30 28431 C 2684.67 1.0093 1.31918 0
M  V30 28432 O 2685.85 1.28385 1.41145 0
M  V30 28433 C 2682.99 2.64235 2.21978 0
M  V30 28434 C 2682.11 3.87915 1.90121 0
M  V30 28435 C 2681.24 4.29941 3.11968 0
M  V30 28436 C 2680.28 5.46364 2.75959 0
M  V30 28437 N 2679.42 5.83519 3.90449 0
M  V30 28438 H 2684.26 2.94016 0.485665 0
M  V30 28439 H 2681.79 1.4532 0.228118 0
M  V30 28440 H 2683.75 2.93435 2.96566 0
M  V30 28441 H 2682.38 1.83621 2.65487 0
M  V30 28442 H 2681.43 3.65406 1.05749 0
M  V30 28443 H 2682.75 4.72576 1.59605 0
M  V30 28444 H 2681.9 4.6061 3.94871 0
M  V30 28445 H 2680.64 3.44059 3.45651 0
M  V30 28446 H 2679.64 5.15383 1.91469 0
M  V30 28447 H 2680.87 6.33949 2.43486 0
M  V30 28448 H 2678.82 5.00591 4.23963 0
M  V30 28449 H 2678.73 6.62833 3.63576 0
M  V30 28450 H 2680 6.18795 4.74039 0
M  V30 28451 N 2684.23 -0.238084 1.55791 0
M  V30 28452 C 2685.18 -1.29489 1.91053 0
M  V30 28453 C 2686.15 -1.47395 0.765759 0
M  V30 28454 O 2687.33 -1.61235 1.0202 0
M  V30 28455 C 2684.47 -2.64358 2.2183 0
M  V30 28456 C 2683.58 -2.54388 3.49157 0
M  V30 28457 C 2682.72 -3.81669 3.69462 0
M  V30 28458 C 2681.76 -3.66352 4.90359 0
M  V30 28459 N 2680.9 -4.85545 5.07139 0
M  V30 28460 H 2685.74 -0.987183 2.81174 0
M  V30 28461 H 2683.27 -0.476179 1.3918 0
M  V30 28462 H 2685.23 -3.42875 2.37681 0
M  V30 28463 H 2683.86 -2.9326 1.34902 0
M  V30 28464 H 2682.91 -1.67393 3.4159 0
M  V30 28465 H 2684.22 -2.38984 4.37822 0
M  V30 28466 H 2683.38 -4.6863 3.8532 0
M  V30 28467 H 2682.12 -3.9998 2.79047 0
M  V30 28468 H 2681.12 -2.77776 4.74469 0
M  V30 28469 H 2682.35 -3.49528 5.82243 0
M  V30 28470 H 2680.29 -5.04201 4.19663 0
M  V30 28471 H 2680.21 -4.72805 5.89908 0
M  V30 28472 H 2681.48 -5.73979 5.27417 0
M  V30 28473 N 2685.71 -1.4932 -0.504115 0
M  V30 28474 C 2687.12 -1.36013 -0.835015 0
M  V30 28475 C 2687.32 -0.390842 -1.97673 0
M  V30 28476 O 2686.38 0.178611 -2.51867 0
M  V30 28477 C 2687.69 -2.76659 -1.17816 0
M  V30 28478 C 2689.24 -2.85336 -1.28655 0
M  V30 28479 C 2689.72 -4.26742 -1.663 0
M  V30 28480 N 2691.21 -4.29537 -1.73355 0
M  V30 28481 C 2691.94 -5.35914 -2.03921 0
M  V30 28482 N 2691.44 -6.52539 -2.32732 0
M  V30 28483 N 2693.23 -5.23328 -2.05145 0
M  V30 28484 H 2685.38 -2.10938 0.248801 0
M  V30 28485 H 2687.64 -0.946748 0.0487128 0
M  V30 28486 H 2687.35 -3.49271 -0.41262 0
M  V30 28487 H 2687.22 -3.11828 -2.12233 0
M  V30 28488 H 2689.61 -2.12963 -2.04281 0
M  V30 28489 H 2689.69 -2.53753 -0.322959 0
M  V30 28490 H 2689.34 -4.9964 -0.912252 0
M  V30 28491 H 2689.27 -4.55787 -2.63753 0
M  V30 28492 H 2691.76 -3.45426 -1.53262 0
M  V30 28493 H 2692.07 -7.29435 -2.55235 0
M  V30 28494 H 2690.42 -6.55771 -2.30195 0
M  V30 28495 H 2693.61 -4.31223 -1.82111 0
M  V30 28496 H 2693.78 -6.06326 -2.28633 0
M  V30 28497 N 2687.19 0.754933 -1.38342 0
M  V30 28498 C 2688.46 1.50449 -1.24998 0
M  V30 28499 C 2688.84 2.10572 0.149207 0
M  V30 28500 O 2688.19 1.9695 1.15857 0
M  V30 28501 C 2688.4 2.57193 -2.35908 0
M  V30 28502 C 2689.75 3.24133 -2.74268 0
M  V30 28503 O 2690.77 2.67497 -2.3521 0
M  V30 28504 O 2689.63 4.26567 -3.41617 0
M  V30 28505 H 2686.73 0.667136 -0.488732 0
M  V30 28506 H 2689.27 0.790459 -1.50166 0
M  V30 28507 H 2688.04 2.11005 -3.29534 0
M  V30 28508 H 2687.67 3.36178 -2.12297 0
M  V30 28509 N 2688.66 1.23189 0.982967 0
M  V30 28510 C 2689.59 1.03519 2.09299 0
M  V30 28511 C 2690.57 -0.0470837 1.70035 0
M  V30 28512 O 2691.76 0.117064 1.93847 0
M  V30 28513 C 2688.89 0.622851 3.41669 0
M  V30 28514 C 2687.84 1.65218 3.94825 0
M  V30 28515 C 2687.17 1.09536 5.2336 0
M  V30 28516 C 2688.47 3.04459 4.24385 0
M  V30 28517 H 2690.16 1.96363 2.26013 0
M  V30 28518 H 2687.71 0.94552 1.08609 0
M  V30 28519 H 2689.66 0.472307 4.18745 0
M  V30 28520 H 2688.39 -0.341272 3.24812 0
M  V30 28521 H 2687.05 1.79067 3.19891 0
M  V30 28522 H 2686.69 0.1223 5.02851 0
M  V30 28523 H 2686.39 1.7831 5.59892 0
M  V30 28524 H 2687.92 0.956617 6.0306 0
M  V30 28525 H 2689.33 2.93926 4.9222 0
M  V30 28526 H 2687.73 3.70447 4.72112 0
M  V30 28527 H 2688.8 3.53644 3.31759 0
M  V30 28528 N 2690.14 -1.18133 1.04318 0
M  V30 28529 C 2691.39 -1.87508 0.743223 0
M  V30 28530 C 2691.7 -1.81382 -0.732104 0
M  V30 28531 O 2692.91 -2.46143 -1.14567 0
M  V30 28532 C 2691.37 -3.364 1.27919 0
M  V30 28533 C 2690.97 -3.51048 2.78333 0
M  V30 28534 C 2692.72 -4.11159 1.05588 0
M  V30 28535 C 2690.62 -4.93914 3.25274 0
M  V30 28536 H 2689.55 -0.702326 0.274325 0
M  V30 28537 H 2692.21 -1.33465 1.25934 0
M  V30 28538 H 2690.59 -3.89926 0.690922 0
M  V30 28539 H 2691.76 -3.07782 3.42939 0
M  V30 28540 H 2690.08 -2.89698 2.99105 0
M  V30 28541 H 2692.67 -5.1654 1.3817 0
M  V30 28542 H 2693.02 -4.16299 -0.00677412 0
M  V30 28543 H 2693.55 -3.63813 1.60889 0
M  V30 28544 H 2690.29 -4.93943 4.3093 0
M  V30 28545 H 2689.81 -5.37885 2.65405 0
M  V30 28546 H 2691.49 -5.62641 3.19443 0
M  V30 28547 N 2691.62 -0.822988 -1.34405 0
M  V30 28548 C 2692.57 -0.233206 -2.31428 0
M  V30 28549 C 2693.56 0.62609 -1.57405 0
M  V30 28550 O 2694.77 0.517423 -1.72403 0
M  V30 28551 H 2691.14 -0.0566689 -0.749862 0
M  V30 28552 H 2693.11 -1.06633 -2.78697 0
M  V30 28553 C 2691.86 0.590203 -3.42654 0
M  V30 28554 H 2691.19 -0.0616831 -3.99752 0
M  V30 28555 H 2692.63 0.968981 -4.12779 0
M  V30 28556 C 2691.09 1.76257 -2.87115 0
M  V30 28557 O 2691.62 2.86075 -2.82 0
M  V30 28558 N 2689.82 1.57934 -2.43937 0
M  V30 28559 H 2689.37 0.686035 -2.48297 0
M  V30 28560 H 2689.33 2.36528 -2.07127 0
M  V30 28561 N 2693.1 1.4662 -0.577957 0
M  V30 28562 C 2694.05 2.31972 0.170841 0
M  V30 28563 C 2695.04 1.44195 0.889061 0
M  V30 28564 O 2696.25 1.60846 0.807989 0
M  V30 28565 H 2692.62 0.748354 0.0739632 0
M  V30 28566 H 2694.59 2.92946 -0.567907 0
M  V30 28567 C 2693.34 3.27269 1.17432 0
M  V30 28568 H 2692.66 3.94788 0.631091 0
M  V30 28569 H 2694.1 3.8978 1.66875 0
M  V30 28570 C 2692.56 2.52278 2.23288 0
M  V30 28571 O 2693.09 2.28234 3.30563 0
M  V30 28572 N 2691.3 2.12923 1.97768 0
M  V30 28573 H 2690.85 2.32677 1.1054 0
M  V30 28574 H 2690.8 1.63066 2.68806 0
M  V30 28575 N 2694.58 0.315484 1.5441 0
M  V30 28576 C 2695.52 -0.554127 2.24049 0
M  V30 28577 C 2696.49 -1.1181 1.22832 0
M  V30 28578 O 2697.68 -1.15994 1.51493 0
M  V30 28579 C 2694.82 -1.71311 2.99577 0
M  V30 28580 C 2693.93 -1.17914 4.15596 0
M  V30 28581 C 2693.07 -2.30316 4.78673 0
M  V30 28582 C 2692.11 -1.74127 5.8681 0
M  V30 28583 N 2691.24 -2.80159 6.43782 0
M  V30 28584 H 2696.08 0.0463126 2.97964 0
M  V30 28585 H 2693.62 0.0346267 1.47059 0
M  V30 28586 H 2695.58 -2.39499 3.41608 0
M  V30 28587 H 2694.21 -2.28496 2.28012 0
M  V30 28588 H 2693.26 -0.38907 3.78405 0
M  V30 28589 H 2694.57 -0.727925 4.9346 0
M  V30 28590 H 2693.73 -3.06423 5.23631 0
M  V30 28591 H 2692.46 -2.78771 4.00173 0
M  V30 28592 H 2691.47 -0.96514 5.41262 0
M  V30 28593 H 2692.69 -1.26559 6.67203 0
M  V30 28594 H 2690.64 -3.2792 5.68159 0
M  V30 28595 H 2690.56 -2.39576 7.17035 0
M  V30 28596 H 2691.83 -3.5612 6.93397 0
M  V30 28597 N 2696.05 -1.5754 0.0434891 0
M  V30 28598 C 2697.28 -1.96694 -0.641801 0
M  V30 28599 C 2697.7 -0.920681 -1.6483 0
M  V30 28600 O 2697.05 0.0959609 -1.82248 0
M  V30 28601 C 2697.11 -3.35926 -1.33551 0
M  V30 28602 O 2696.83 -4.3654 -0.369326 0
M  V30 28603 C 2698.33 -3.89795 -2.11128 0
M  V30 28604 H 2695.55 -0.647506 -0.176001 0
M  V30 28605 H 2698.09 -2.04217 0.107513 0
M  V30 28606 H 2696.25 -3.29577 -2.03611 0
M  V30 28607 H 2696.66 -5.17342 -0.863583 0
M  V30 28608 H 2698.13 -4.89519 -2.55099 0
M  V30 28609 H 2698.61 -3.24808 -2.95629 0
M  V30 28610 H 2699.22 -3.99457 -1.45995 0
M  V30 28611 N 2697.53 0.229818 -1.55915 0
M  V30 28612 C 2698.48 1.28474 -1.91737 0
M  V30 28613 C 2699.45 1.46987 -0.773565 0
M  V30 28614 O 2700.63 1.60691 -1.02874 0
M  V30 28615 C 2697.77 2.63178 -2.23229 0
M  V30 28616 C 2696.89 2.52533 -3.50501 0
M  V30 28617 C 2696.02 3.79705 -3.71481 0
M  V30 28618 C 2695.06 3.63747 -4.92295 0
M  V30 28619 N 2694.2 4.82849 -5.09707 0
M  V30 28620 H 2699.04 0.972258 -2.81693 0
M  V30 28621 H 2696.58 0.468791 -1.3943 0
M  V30 28622 H 2698.53 3.4161 -2.39496 0
M  V30 28623 H 2697.16 2.9254 -1.36456 0
M  V30 28624 H 2696.22 1.65579 -3.42473 0
M  V30 28625 H 2697.53 2.36658 -4.39083 0
M  V30 28626 H 2696.68 4.6658 -3.87799 0
M  V30 28627 H 2695.42 3.98495 -2.81164 0
M  V30 28628 H 2694.43 2.75256 -4.75935 0
M  V30 28629 H 2695.65 3.46435 -5.84089 0
M  V30 28630 H 2693.6 5.01969 -4.22331 0
M  V30 28631 H 2693.51 4.6967 -5.92407 0
M  V30 28632 H 2694.78 5.71174 -5.30453 0
M  V30 28633 N 2699.01 1.49585 0.49619 0
M  V30 28634 C 2700.29 1.49818 1.25753 0
M  V30 28635 C 2700.67 0.228609 2.09858 0
M  V30 28636 O 2700.02 -0.78887 2.14451 0
M  V30 28637 C 2700.23 2.77983 2.11013 0
M  V30 28638 C 2701.57 3.27663 2.70041 0
M  V30 28639 O 2702.6 2.79133 2.21276 0
M  V30 28640 O 2701.46 4.12196 3.58827 0
M  V30 28641 H 2698.55 0.599844 0.569312 0
M  V30 28642 H 2701.1 1.61853 0.510066 0
M  V30 28643 H 2699.87 3.61874 1.48872 0
M  V30 28644 H 2699.49 2.68832 2.92942 0
M  V30 28645 N 2700.49 -0.747586 1.3874 0
M  V30 28646 C 2701.74 -1.50226 1.34592 0
M  V30 28647 C 2702.05 -1.95509 -0.0595248 0
M  V30 28648 O 2703.26 -2.70578 -0.223562 0
M  V30 28649 C 2701.71 -2.71389 2.36381 0
M  V30 28650 C 2701.32 -2.33106 3.82577 0
M  V30 28651 C 2703.06 -3.49258 2.41287 0
M  V30 28652 C 2700.97 -3.50916 4.76038 0
M  V30 28653 H 2699.9 -0.564087 0.500322 0
M  V30 28654 H 2702.55 -0.816671 1.64325 0
M  V30 28655 H 2700.93 -3.41959 1.997 0
M  V30 28656 H 2702.11 -1.70164 4.2823 0
M  V30 28657 H 2700.42 -1.68358 3.80847 0
M  V30 28658 H 2703.02 -4.36863 3.08309 0
M  V30 28659 H 2703.36 -3.90837 1.4336 0
M  V30 28660 H 2703.9 -2.85706 2.76798 0
M  V30 28661 H 2700.64 -3.14397 5.75182 0
M  V30 28662 H 2700.16 -4.12881 4.35073 0
M  V30 28663 H 2701.83 -4.17419 4.94339 0
M  V30 28664 N 2701.97 -1.23709 -0.97642 0
M  V30 28665 C 2703.19 -1.09925 -1.75873 0
M  V30 28666 C 2703.62 0.344858 -1.84912 0
M  V30 28667 O 2702.97 1.24951 -1.31365 0
M  V30 28668 C 2703.02 -1.73393 -3.16176 0
M  V30 28669 O 2702.13 -0.998781 -4.00123 0
M  V30 28670 H 2701.47 -0.385061 -0.540947 0
M  V30 28671 H 2704 -1.63842 -1.22543 0
M  V30 28672 H 2704.01 -1.78795 -3.66738 0
M  V30 28673 H 2702.68 -2.78471 -3.08912 0
M  V30 28674 H 2701.26 -1.022 -3.58622 0
M  V30 28675 N 2703.44 1.17579 -1.04943 0
M  V30 28676 C 2704.39 2.21511 -0.648194 0
M  V30 28677 C 2705.36 1.62405 0.348402 0
M  V30 28678 O 2706.55 1.8928 0.240386 0
M  V30 28679 C 2703.69 3.4509 -0.0264898 0
M  V30 28680 C 2702.8 4.18498 -1.07161 0
M  V30 28681 C 2701.93 5.29557 -0.417496 0
M  V30 28682 C 2700.97 5.94748 -1.4471 0
M  V30 28683 N 2700.11 6.97326 -0.817325 0
M  V30 28684 H 2704.95 2.55186 -1.53896 0
M  V30 28685 H 2702.49 1.25354 -0.769721 0
M  V30 28686 H 2704.45 4.15718 0.351383 0
M  V30 28687 H 2703.08 3.12007 0.827747 0
M  V30 28688 H 2702.13 3.4661 -1.56735 0
M  V30 28689 H 2703.44 4.63093 -1.85328 0
M  V30 28690 H 2702.59 6.06698 0.0140994 0
M  V30 28691 H 2701.33 4.86088 0.39618 0
M  V30 28692 H 2700.34 5.1634 -1.88874 0
M  V30 28693 H 2701.56 6.40298 -2.26264 0
M  V30 28694 H 2699.51 6.55996 -0.0241148 0
M  V30 28695 H 2699.43 7.4022 -1.53657 0
M  V30 28696 H 2700.69 7.78419 -0.41042 0
M  V30 28697 N 2704.92 0.830104 1.33967 0
M  V30 28698 C 2705.85 0.271951 2.31911 0
M  V30 28699 C 2706.83 -0.615532 1.58572 0
M  V30 28700 O 2708.02 -0.540914 1.86515 0
M  V30 28701 C 2705.15 -0.561086 3.42738 0
M  V30 28702 C 2704.1 0.229864 4.27382 0
M  V30 28703 C 2703.43 -0.72637 5.29743 0
M  V30 28704 C 2704.73 1.44206 5.01998 0
M  V30 28705 H 2706.42 1.0903 2.78842 0
M  V30 28706 H 2703.97 0.525733 1.3406 0
M  V30 28707 H 2705.92 -0.961795 4.10277 0
M  V30 28708 H 2704.65 -1.41256 2.94473 0
M  V30 28709 H 2703.3 0.612028 3.61455 0
M  V30 28710 H 2702.95 -1.574 4.77739 0
M  V30 28711 H 2702.65 -0.201317 5.87255 0
M  V30 28712 H 2704.18 -1.12478 6.00151 0
M  V30 28713 H 2705.59 1.11498 5.62353 0
M  V30 28714 H 2703.99 1.90327 5.69118 0
M  V30 28715 H 2705.06 2.21648 4.31277 0
M  V30 28716 N 2706.4 -1.46311 0.585725 0
M  V30 28717 C 2707.35 -2.30339 -0.145795 0
M  V30 28718 C 2708.32 -1.40799 -0.88119 0
M  V30 28719 O 2709.5 -1.69746 -0.871263 0
M  V30 28720 C 2706.64 -3.2532 -1.15155 0
M  V30 28721 C 2705.76 -4.2996 -0.419292 0
M  V30 28722 C 2704.89 -5.12067 -1.41284 0
M  V30 28723 C 2703.93 -6.08453 -0.667154 0
M  V30 28724 N 2703.07 -6.83417 -1.60891 0
M  V30 28725 H 2707.91 -2.92364 0.576807 0
M  V30 28726 H 2705.44 -1.44086 0.296262 0
M  V30 28727 H 2707.4 -3.78835 -1.74757 0
M  V30 28728 H 2706.03 -2.65097 -1.84183 0
M  V30 28729 H 2705.08 -3.79279 0.291817 0
M  V30 28730 H 2706.4 -4.98532 0.163521 0
M  V30 28731 H 2705.55 -5.69873 -2.08157 0
M  V30 28732 H 2704.29 -4.43463 -2.02958 0
M  V30 28733 H 2703.29 -5.49798 0.0153323 0
M  V30 28734 H 2704.52 -6.79077 -0.0557623 0
M  V30 28735 H 2702.47 -6.1752 -2.2137 0
M  V30 28736 H 2702.38 -7.48261 -1.07898 0
M  V30 28737 H 2703.65 -7.45779 -2.26789 0
M  V30 28738 N 2707.88 -0.323668 -1.54241 0
M  V30 28739 C 2708.79 0.551165 -2.28034 0
M  V30 28740 C 2709.81 1.12911 -1.3239 0
M  V30 28741 O 2710.98 1.14905 -1.65405 0
M  V30 28742 C 2708.05 1.696 -3.02385 0
M  V30 28743 C 2707.11 1.14986 -4.13614 0
M  V30 28744 C 2706.34 2.24013 -4.84411 0
M  V30 28745 O 2706.56 3.4436 -4.54722 0
M  V30 28746 O 2705.5 1.89426 -5.71315 0
M  V30 28747 H 2709.32 -0.0481193 -3.03662 0
M  V30 28748 H 2706.91 -0.0893551 -1.49133 0
M  V30 28749 H 2708.79 2.36252 -3.48945 0
M  V30 28750 H 2707.47 2.28147 -2.29632 0
M  V30 28751 H 2706.37 0.448419 -3.71403 0
M  V30 28752 H 2707.71 0.609522 -4.88411 0
M  V30 28753 N 2709.36 1.57515 -0.0518432 0
M  V30 28754 C 2710.32 2.10468 0.90751 0
M  V30 28755 C 2711.32 1.02442 1.23945 0
M  V30 28756 O 2712.51 1.28512 1.17602 0
M  V30 28757 C 2709.64 2.58948 2.21718 0
M  V30 28758 H 2710.84 2.96528 0.448457 0
M  V30 28759 H 2708.39 1.55059 0.19657 0
M  V30 28760 H 2709.12 1.76283 2.72203 0
M  V30 28761 H 2708.91 3.3789 1.98929 0
M  V30 28762 H 2710.4 3.00061 2.90436 0
M  V30 28763 N 2710.84 -0.221546 1.56035 0
M  V30 28764 C 2712.08 -0.943985 1.78247 0
M  V30 28765 C 2712.4 -1.855 0.620403 0
M  V30 28766 O 2713.6 -2.61609 0.726149 0
M  V30 28767 C 2712.06 -1.72874 3.15662 0
M  V30 28768 C 2711.67 -0.863865 4.39592 0
M  V30 28769 C 2713.41 -2.4424 3.47199 0
M  V30 28770 C 2711.32 -1.64597 5.68033 0
M  V30 28771 H 2710.25 -0.35621 0.664553 0
M  V30 28772 H 2712.9 -0.197872 1.8243 0
M  V30 28773 H 2711.28 -2.51776 3.05655 0
M  V30 28774 H 2712.46 -0.115383 4.60656 0
M  V30 28775 H 2710.77 -0.262334 4.15573 0
M  V30 28776 H 2713.37 -3.03256 4.40386 0
M  V30 28777 H 2713.71 -3.17125 2.69698 0
M  V30 28778 H 2714.24 -1.72328 3.58536 0
M  V30 28779 H 2710.98 -0.960393 6.48426 0
M  V30 28780 H 2710.5 -2.36907 5.51031 0
M  V30 28781 H 2712.18 -2.20665 6.08207 0
M  V30 28782 N 2712.31 -1.49846 -0.48825 0
M  V30 28783 C 2713.59 -1.50483 -1.24957 0
M  V30 28784 C 2713.97 -0.239735 -2.09734 0
M  V30 28785 O 2713.32 0.777486 -2.14866 0
M  V30 28786 C 2713.53 -2.79098 -2.09535 0
M  V30 28787 C 2714.88 -3.29091 -2.68299 0
M  V30 28788 O 2715.9 -2.80303 -2.19793 0
M  V30 28789 O 2714.76 -4.14093 -3.56636 0
M  V30 28790 H 2711.85 -0.602855 -0.566123 0
M  V30 28791 H 2714.4 -1.62121 -0.501475 0
M  V30 28792 H 2713.17 -3.62658 -1.46951 0
M  V30 28793 H 2712.79 -2.70382 -2.91512 0
M  V30 28794 N 2713.79 0.740218 -1.39135 0
M  V30 28795 C 2714.74 1.85417 -1.37437 0
M  V30 28796 C 2715.71 1.64431 -0.234851 0
M  V30 28797 O 2716.89 1.85911 -0.429158 0
M  V30 28798 C 2714.03 3.22873 -1.2185 0
M  V30 28799 C 2713.15 3.55599 -2.45302 0
M  V30 28800 C 2712.28 4.82428 -2.22343 0
M  V30 28801 C 2711.32 5.07982 -3.41497 0
M  V30 28802 N 2710.46 6.26012 -3.17888 0
M  V30 28803 H 2715.3 1.86203 -2.32664 0
M  V30 28804 H 2712.83 0.909926 -1.1558 0
M  V30 28805 H 2714.79 4.02211 -1.10825 0
M  V30 28806 H 2713.42 3.21379 -0.302557 0
M  V30 28807 H 2712.47 2.71002 -2.6695 0
M  V30 28808 H 2713.79 3.70404 -3.34069 0
M  V30 28809 H 2712.94 5.69737 -2.0853 0
M  V30 28810 H 2711.68 4.69787 -1.30962 0
M  V30 28811 H 2710.68 4.19138 -3.55814 0
M  V30 28812 H 2711.91 5.22512 -4.33772 0
M  V30 28813 H 2709.86 6.14669 -2.29167 0
M  V30 28814 H 2709.77 6.4138 -4.00209 0
M  V30 28815 H 2711.04 7.16174 -3.07758 0
M  V30 28816 N 2715.27 1.24225 0.969846 0
M  V30 28817 C 2716.5 1.10603 1.74501 0
M  V30 28818 C 2716.91 -0.34445 1.86038 0
M  V30 28819 O 2716.25 -1.24958 1.34652 0
M  V30 28820 C 2716.31 1.66941 3.18388 0
M  V30 28821 C 2715.98 3.15804 3.30328 0
M  V30 28822 C 2716.97 4.12978 3.15824 0
M  V30 28823 C 2714.66 3.55721 3.54638 0
M  V30 28824 C 2716.65 5.48051 3.25451 0
M  V30 28825 C 2714.34 4.90936 3.63903 0
M  V30 28826 C 2715.34 5.8691 3.49322 0
M  V30 28827 O 2715.03 7.19667 3.58239 0
M  V30 28828 H 2714.76 0.387216 0.554112 0
M  V30 28829 H 2717.31 1.64766 1.22643 0
M  V30 28830 H 2715.54 1.0721 3.71541 0
M  V30 28831 H 2717.23 1.48641 3.77704 0
M  V30 28832 H 2718 3.83481 2.9693 0
M  V30 28833 H 2713.88 2.81525 3.65054 0
M  V30 28834 H 2717.42 6.22943 3.13987 0
M  V30 28835 H 2713.32 5.20105 3.8231 0
M  V30 28836 H 2714.08 7.27559 3.74967 0
M  V30 28837 N 2716.75 -1.1702 1.05565 0
M  V30 28838 C 2718 -1.87002 0.766452 0
M  V30 28839 C 2718.32 -1.81661 -0.708822 0
M  V30 28840 O 2717.59 -1.24513 -1.5124 0
M  V30 28841 H 2716.17 -0.692324 0.280528 0
M  V30 28842 H 2718.83 -1.41943 1.3356 0
M  V30 28843 H 2717.92 -2.92642 1.08477 0
M  V30 28844 N 2718.23 -0.837197 -1.33524 0
M  V30 28845 C 2719.47 -0.432739 -1.98129 0
M  V30 28846 C 2719.8 1.00505 -1.6617 0
M  V30 28847 O 2719.08 1.70237 -0.940719 0
M  V30 28848 C 2719.36 -0.651896 -3.5415 0
M  V30 28849 C 2719.22 -2.13683 -3.95802 0
M  V30 28850 C 2720.53 -0.096971 -4.39993 0
M  V30 28851 H 2717.65 -0.158702 -0.71971 0
M  V30 28852 H 2720.3 -1.0524 -1.58191 0
M  V30 28853 H 2718.45 -0.124437 -3.88301 0
M  V30 28854 H 2720.12 -2.72903 -3.71916 0
M  V30 28855 H 2718.36 -2.62197 -3.45594 0
M  V30 28856 H 2719.03 -2.24093 -5.04466 0
M  V30 28857 H 2721.51 -0.547805 -4.12478 0
M  V30 28858 H 2720.38 -0.280013 -5.48185 0
M  V30 28859 H 2720.64 0.999124 -4.30662 0
M  V30 28860 N 2719.7 1.45999 -0.593476 0
M  V30 28861 C 2720.98 1.95594 -0.0158277 0
M  V30 28862 C 2721.36 1.53607 1.44804 0
M  V30 28863 O 2720.71 0.791862 2.1434 0
M  V30 28864 C 2720.92 3.48431 -0.199143 0
M  V30 28865 C 2722.27 4.24538 -0.072569 0
M  V30 28866 O 2723.29 3.55968 -0.128532 0
M  V30 28867 O 2722.15 5.46473 0.0541465 0
M  V30 28868 H 2719.24 0.825843 0.0437345 0
M  V30 28869 H 2721.79 1.56232 -0.662549 0
M  V30 28870 H 2720.56 3.71914 -1.21637 0
M  V30 28871 H 2720.18 3.94649 0.483507 0
M  V30 28872 N 2721.18 0.331843 1.54067 0
M  V30 28873 C 2722.11 -0.522892 2.2757 0
M  V30 28874 C 2723.09 -1.11244 1.28681 0
M  V30 28875 O 2724.28 -1.13603 1.57506 0
M  V30 28876 C 2721.41 -1.67981 3.03973 0
M  V30 28877 C 2720.36 -1.21917 4.10269 0
M  V30 28878 C 2719.69 -2.46369 4.74559 0
M  V30 28879 C 2720.99 -0.328058 5.21269 0
M  V30 28880 H 2722.68 0.0902503 2.99264 0
M  V30 28881 H 2720.23 0.0448463 1.4393 0
M  V30 28882 H 2722.18 -2.28412 3.54127 0
M  V30 28883 H 2720.91 -2.31967 2.2991 0
M  V30 28884 H 2719.56 -0.637745 3.6101 0
M  V30 28885 H 2719.21 -3.08736 3.97103 0
M  V30 28886 H 2718.91 -2.16234 5.46367 0
M  V30 28887 H 2720.44 -3.07546 5.27492 0
M  V30 28888 H 2721.85 -0.838878 5.67129 0
M  V30 28889 H 2720.25 -0.119122 5.99982 0
M  V30 28890 H 2721.32 0.638924 4.80672 0
M  V30 28891 N 2722.66 -1.57485 0.0601958 0
M  V30 28892 C 2724.07 -1.80578 -0.474185 0
M  V30 28893 C 2724.42 -0.973177 -1.70363 0
M  V30 28894 O 2723.55 -0.192344 -2.15543 0
M  V30 28895 C 2724.14 -3.27518 -0.867044 0
M  V30 28896 C 2722.7 -3.51497 -1.34635 0
M  V30 28897 C 2721.85 -2.75378 -0.325892 0
M  V30 28898 H 2724.8 -1.56102 0.286001 0
M  V30 28899 H 2724.82 -3.38932 -1.72932 0
M  V30 28900 H 2724.33 -3.8809 0.0279609 0
M  V30 28901 H 2722.43 -2.96216 -2.26025 0
M  V30 28902 H 2722.55 -4.60203 -1.33228 0
M  V30 28903 H 2720.91 -2.41787 -0.800706 0
M  V30 28904 H 2721.69 -3.38682 0.561185 0
M  V30 28905 N 2724.14 0.213268 -1.5615 0
M  V30 28906 C 2725.07 1.29179 -1.88117 0
M  V30 28907 C 2726.05 1.44817 -0.739374 0
M  V30 28908 O 2727.23 1.60498 -0.988569 0
M  V30 28909 C 2724.36 2.66098 -2.09546 0
M  V30 28910 C 2723.41 2.6743 -3.3224 0
M  V30 28911 S 2724.24 2.2067 -4.87919 0
M  V30 28912 C 2725.4 3.59449 -5.12393 0
M  V30 28913 H 2725.63 1.01871 -2.79302 0
M  V30 28914 H 2723.16 0.415908 -1.48693 0
M  V30 28915 H 2725.12 3.44921 -2.22575 0
M  V30 28916 H 2723.78 2.90626 -1.19143 0
M  V30 28917 H 2722.97 3.68064 -3.44304 0
M  V30 28918 H 2722.58 1.96676 -3.18111 0
M  V30 28919 H 2724.87 4.55196 -5.01799 0
M  V30 28920 H 2725.81 3.52295 -6.14243 0
M  V30 28921 H 2726.22 3.5352 -4.40095 0
M  V30 28922 N 2725.62 1.50103 0.480296 0
M  V30 28923 C 2726.86 1.60869 1.23486 0
M  V30 28924 C 2727.2 0.303861 1.91808 0
M  V30 28925 O 2726.47 -0.69406 1.81695 0
M  V30 28926 C 2726.75 2.78256 2.28573 0
M  V30 28927 C 2726.61 4.18595 1.64617 0
M  V30 28928 C 2727.93 2.91224 3.29965 0
M  V30 28929 H 2725.04 0.585515 0.447595 0
M  V30 28930 H 2727.69 1.82459 0.529973 0
M  V30 28931 H 2725.84 2.59979 2.88692 0
M  V30 28932 H 2727.51 4.48439 1.08165 0
M  V30 28933 H 2725.75 4.2328 0.94957 0
M  V30 28934 H 2726.42 4.96642 2.40937 0
M  V30 28935 H 2728.9 3.07926 2.79858 0
M  V30 28936 H 2727.77 3.75 4.00832 0
M  V30 28937 H 2728.04 2.01447 3.93537 0
M  V30 28938 N 2727.09 -0.732829 1.39526 0
M  V30 28939 C 2728.32 -1.52206 1.40146 0
M  V30 28940 C 2728.74 -1.888 -0.00345517 0
M  V30 28941 O 2728.09 -1.54252 -0.97533 0
M  V30 28942 C 2728.15 -2.80826 2.27637 0
M  V30 28943 O 2727.87 -2.45786 3.62658 0
M  V30 28944 C 2729.37 -3.7484 2.36664 0
M  V30 28945 H 2726.59 -0.470289 0.478612 0
M  V30 28946 H 2729.13 -0.905356 1.83367 0
M  V30 28947 H 2727.29 -3.38823 1.87824 0
M  V30 28948 H 2727.7 -3.28424 4.08947 0
M  V30 28949 H 2729.17 -4.61978 3.02126 0
M  V30 28950 H 2729.65 -4.16742 1.38645 0
M  V30 28951 H 2730.26 -3.22761 2.76957 0
M  V30 28952 N 2728.57 -1.24737 -0.963244 0
M  V30 28953 C 2729.82 -1.08973 -1.70679 0
M  V30 28954 C 2730.15 0.370718 -1.90934 0
M  V30 28955 O 2729.4 1.29008 -1.47158 0
M  V30 28956 C 2729.7 -1.77965 -3.09941 0
M  V30 28957 C 2729.37 -3.27892 -3.09512 0
M  V30 28958 C 2728.03 -3.68794 -3.09102 0
M  V30 28959 C 2730.38 -4.23717 -3.03501 0
M  V30 28960 C 2727.71 -5.03949 -3.0042 0
M  V30 28961 C 2730.06 -5.58886 -2.96361 0
M  V30 28962 C 2728.73 -5.99128 -2.94282 0
M  V30 28963 H 2728 -0.39876 -0.624557 0
M  V30 28964 H 2730.64 -1.54898 -1.126 0
M  V30 28965 H 2728.95 -1.24446 -3.71511 0
M  V30 28966 H 2730.64 -1.63229 -3.66275 0
M  V30 28967 H 2727.23 -2.95342 -3.10598 0
M  V30 28968 H 2731.42 -3.93115 -3.02943 0
M  V30 28969 H 2726.67 -5.3432 -2.97174 0
M  V30 28970 H 2730.85 -6.32838 -2.9067 0
M  V30 28971 H 2728.48 -7.03816 -2.8731 0
M  V30 28972 N 2730.05 1.16459 -1.06184 0
M  V30 28973 C 2730.98 2.22982 -0.6929 0
M  V30 28974 C 2731.96 1.67175 0.314092 0
M  V30 28975 O 2733.15 1.93274 0.189465 0
M  V30 28976 C 2730.28 3.47214 -0.077381 0
M  V30 28977 C 2729.23 4.15907 -1.01023 0
M  V30 28978 C 2728.56 5.34077 -0.258067 0
M  V30 28979 C 2729.86 4.67011 -2.33876 0
M  V30 28980 H 2731.55 2.54099 -1.58347 0
M  V30 28981 H 2729.1 1.22136 -0.762812 0
M  V30 28982 H 2731.05 4.2096 0.192586 0
M  V30 28983 H 2729.77 3.15394 0.848199 0
M  V30 28984 H 2728.43 3.44086 -1.26492 0
M  V30 28985 H 2728.08 4.9851 0.670596 0
M  V30 28986 H 2727.78 5.80977 -0.87974 0
M  V30 28987 H 2729.3 6.106 0.00438055 0
M  V30 28988 H 2730.72 5.32343 -2.12799 0
M  V30 28989 H 2729.12 5.24528 -2.91531 0
M  V30 28990 H 2730.19 3.8328 -2.97025 0
M  V30 28991 N 2731.53 0.844266 1.33079 0
M  V30 28992 C 2732.48 0.279364 2.29103 0
M  V30 28993 C 2733.45 -0.607855 1.54578 0
M  V30 28994 O 2734.63 -0.544977 1.82851 0
M  V30 28995 C 2731.77 -0.53502 3.40927 0
M  V30 28996 C 2730.88 0.376825 4.30353 0
M  V30 28997 C 2730.02 -0.449183 5.29297 0
M  V30 28998 C 2729.06 0.460713 6.10364 0
M  V30 28999 N 2728.19 -0.327489 7.01336 0
M  V30 29000 H 2733.03 1.10351 2.76815 0
M  V30 29001 H 2730.57 0.555635 1.36202 0
M  V30 29002 H 2732.53 -1.02271 4.04471 0
M  V30 29003 H 2731.16 -1.32409 2.94394 0
M  V30 29004 H 2730.21 0.982856 3.67483 0
M  V30 29005 H 2731.52 1.07557 4.87066 0
M  V30 29006 H 2730.68 -1.00048 5.98394 0
M  V30 29007 H 2729.42 -1.18134 4.73176 0
M  V30 29008 H 2728.42 1.02398 5.4018 0
M  V30 29009 H 2729.65 1.19132 6.68569 0
M  V30 29010 H 2727.59 -1.04293 6.47656 0
M  V30 29011 H 2727.51 0.312433 7.55354 0
M  V30 29012 H 2728.78 -0.860844 7.74732 0
M  V30 29013 N 2733.01 -1.45682 0.60121 0
M  V30 29014 C 2734.28 -1.95582 0.0262003 0
M  V30 29015 C 2734.66 -1.54372 -1.43987 0
M  V30 29016 O 2734.01 -0.803217 -2.13917 0
M  V30 29017 C 2734.22 -3.48321 0.217618 0
M  V30 29018 C 2735.57 -4.24494 0.0950822 0
M  V30 29019 O 2736.59 -3.55895 0.147408 0
M  V30 29020 O 2735.45 -5.46494 -0.0251649 0
M  V30 29021 H 2732.55 -0.826063 -0.0393543 0
M  V30 29022 H 2735.09 -1.55878 0.670825 0
M  V30 29023 H 2733.86 -3.71264 1.23608 0
M  V30 29024 H 2733.49 -3.949 -0.462571 0
M  V30 29025 N 2734.48 -0.340009 -1.53889 0
M  V30 29026 C 2735.39 0.526948 -2.28605 0
M  V30 29027 C 2736.41 1.115 -1.3358 0
M  V30 29028 O 2737.59 1.13145 -1.66614 0
M  V30 29029 C 2734.65 1.66384 -3.04167 0
M  V30 29030 C 2733.71 1.10592 -4.14811 0
M  V30 29031 C 2732.95 2.18863 -4.86759 0
M  V30 29032 O 2733.17 3.39518 -4.58349 0
M  V30 29033 O 2732.1 1.83356 -5.73292 0
M  V30 29034 H 2735.93 -0.080324 -3.03594 0
M  V30 29035 H 2733.51 -0.105168 -1.49029 0
M  V30 29036 H 2735.4 2.32538 -3.51431 0
M  V30 29037 H 2734.07 2.25699 -2.32038 0
M  V30 29038 H 2732.98 0.409001 -3.71857 0
M  V30 29039 H 2734.31 0.557685 -4.8903 0
M  V30 29040 N 2735.96 1.57451 -0.0685468 0
M  V30 29041 C 2736.89 2.15565 0.897432 0
M  V30 29042 C 2737.87 1.08184 1.31264 0
M  V30 29043 O 2739.06 1.36204 1.38427 0
M  V30 29044 C 2736.19 2.71466 2.16618 0
M  V30 29045 C 2735.14 3.83986 1.89047 0
M  V30 29046 C 2734.47 4.26476 3.22525 0
M  V30 29047 C 2735.77 5.08368 1.19831 0
M  V30 29048 H 2737.46 2.96533 0.413321 0
M  V30 29049 H 2735.01 1.42641 0.197365 0
M  V30 29050 H 2736.96 3.10766 2.84609 0
M  V30 29051 H 2735.69 1.87715 2.67265 0
M  V30 29052 H 2734.35 3.45185 1.23463 0
M  V30 29053 H 2733.99 3.39651 3.71007 0
M  V30 29054 H 2733.69 5.02323 3.0487 0
M  V30 29055 H 2735.22 4.6839 3.91719 0
M  V30 29056 H 2736.63 5.45004 1.77886 0
M  V30 29057 H 2735.03 5.89471 1.12445 0
M  V30 29058 H 2736.1 4.84577 0.176911 0
M  V30 29059 N 2737.44 -0.204984 1.56261 0
M  V30 29060 C 2738.86 -0.555406 1.49624 0
M  V30 29061 C 2739.06 -1.86342 0.766752 0
M  V30 29062 O 2738.11 -2.5055 0.313202 0
M  V30 29063 C 2739.43 -0.619296 2.94254 0
M  V30 29064 C 2740.97 -0.708802 3.04869 0
M  V30 29065 C 2741.45 -0.80389 4.5089 0
M  V30 29066 N 2742.94 -0.867678 4.55001 0
M  V30 29067 C 2743.68 -0.96125 5.65285 0
M  V30 29068 N 2743.17 -1.01774 6.85284 0
M  V30 29069 N 2744.96 -0.997674 5.53175 0
M  V30 29070 H 2737.12 0.653129 2.02109 0
M  V30 29071 H 2739.38 0.231382 0.919329 0
M  V30 29072 H 2739.08 0.27252 3.50643 0
M  V30 29073 H 2738.96 -1.47734 3.47065 0
M  V30 29074 H 2741.35 -1.59105 2.48535 0
M  V30 29075 H 2741.43 0.17525 2.55199 0
M  V30 29076 H 2741.07 0.073969 5.07846 0
M  V30 29077 H 2741 -1.7036 4.98282 0
M  V30 29078 H 2743.49 -0.83367 3.6859 0
M  V30 29079 H 2743.8 -1.08938 7.65083 0
M  V30 29080 H 2742.15 -0.986585 6.87962 0
M  V30 29081 H 2745.34 -0.950312 4.58352 0
M  V30 29082 H 2745.51 -1.06714 6.39153 0
M  V30 29083 N 2738.92 -1.50356 -0.472329 0
M  V30 29084 C 2739.87 -1.69129 -1.57048 0
M  V30 29085 C 2740.84 -0.532602 -1.57329 0
M  V30 29086 O 2742.02 -0.763025 -1.74879 0
M  V30 29087 C 2739.16 -1.79029 -2.9503 0
M  V30 29088 C 2738.27 -3.06391 -3.04547 0
M  V30 29089 C 2737.41 -3.07095 -4.33435 0
M  V30 29090 C 2736.45 -4.28915 -4.3669 0
M  V30 29091 N 2735.59 -4.27366 -5.57048 0
M  V30 29092 H 2740.43 -2.62882 -1.40346 0
M  V30 29093 H 2737.96 -1.30315 -0.68238 0
M  V30 29094 H 2739.92 -1.8275 -3.75044 0
M  V30 29095 H 2738.55 -0.887164 -3.1037 0
M  V30 29096 H 2737.6 -3.12147 -2.17413 0
M  V30 29097 H 2738.91 -3.96367 -3.02811 0
M  V30 29098 H 2738.07 -3.09538 -5.21796 0
M  V30 29099 H 2736.81 -2.14946 -4.37778 0
M  V30 29100 H 2735.81 -4.26686 -3.46727 0
M  V30 29101 H 2737.04 -5.22289 -4.3404 0
M  V30 29102 H 2734.98 -3.3807 -5.62178 0
M  V30 29103 H 2734.9 -5.11109 -5.57049 0
M  V30 29104 H 2736.17 -4.33953 -6.47537 0
M  V30 29105 N 2740.4 0.725419 -1.39912 0
M  V30 29106 C 2741.35 1.83086 -1.35881 0
M  V30 29107 C 2742.33 1.5913 -0.238017 0
M  V30 29108 O 2743.52 1.7047 -0.476332 0
M  V30 29109 C 2740.65 3.21115 -1.21409 0
M  V30 29110 C 2739.74 3.50867 -2.38229 0
M  V30 29111 N 2740.13 3.51496 -3.63709 0
M  V30 29112 C 2738.43 3.81277 -2.31395 0
M  V30 29113 C 2739.13 3.79314 -4.41017 0
M  V30 29114 N 2738.1 3.97571 -3.70727 0
M  V30 29115 H 2741.91 1.8189 -2.30853 0
M  V30 29116 H 2739.42 0.924101 -1.33544 0
M  V30 29117 H 2741.42 4.00261 -1.16604 0
M  V30 29118 H 2740.08 3.23542 -0.273958 0
M  V30 29119 H 2741.09 3.32579 -3.97003 0
M  V30 29120 H 2737.77 3.91253 -1.45696 0
M  V30 29121 H 2739.16 3.86188 -5.49826 0
M  V30 29122 N 2741.88 1.25246 0.956615 0
M  V30 29123 C 2742.79 1.07193 2.08679 0
M  V30 29124 C 2743.8 0.00962132 1.73997 0
M  V30 29125 O 2744.98 0.210139 2.00301 0
M  V30 29126 C 2742.04 0.690586 3.39753 0
M  V30 29127 C 2741.1 1.83061 3.88313 0
M  V30 29128 C 2740.34 1.46737 5.13132 0
M  V30 29129 O 2740.56 0.362129 5.69249 0
M  V30 29130 O 2739.49 2.29687 5.56352 0
M  V30 29131 H 2743.32 2.01969 2.26809 0
M  V30 29132 H 2740.9 1.04167 1.07097 0
M  V30 29133 H 2742.79 0.489945 4.18542 0
M  V30 29134 H 2741.46 -0.227924 3.22897 0
M  V30 29135 H 2740.37 2.0861 3.10536 0
M  V30 29136 H 2741.7 2.7283 4.09664 0
M  V30 29137 N 2743.35 -1.15894 1.068 0
M  V30 29138 C 2744.3 -2.20452 0.683352 0
M  V30 29139 C 2745.27 -1.62939 -0.322521 0
M  V30 29140 O 2746.46 -1.89638 -0.210242 0
M  V30 29141 C 2743.6 -3.45004 0.0813872 0
M  V30 29142 C 2742.71 -4.1674 1.13806 0
M  V30 29143 C 2741.84 -5.28826 0.501691 0
M  V30 29144 C 2740.88 -5.92371 1.54154 0
M  V30 29145 N 2740.02 -6.95938 0.92816 0
M  V30 29146 H 2744.86 -2.52706 1.57936 0
M  V30 29147 H 2742.4 -1.24114 0.789566 0
M  V30 29148 H 2744.35 -4.16224 -0.285201 0
M  V30 29149 H 2742.98 -3.13284 -0.778005 0
M  V30 29150 H 2742.04 -3.44073 1.62229 0
M  V30 29151 H 2743.35 -4.60086 1.92672 0
M  V30 29152 H 2742.5 -6.06644 0.0824228 0
M  V30 29153 H 2741.24 -4.86657 -0.318797 0
M  V30 29154 H 2740.25 -5.13269 1.97065 0
M  V30 29155 H 2741.47 -6.36617 2.36422 0
M  V30 29156 H 2739.42 -6.55874 0.128475 0
M  V30 29157 H 2739.33 -7.37682 1.65414 0
M  V30 29158 H 2740.6 -7.77667 0.534208 0
M  V30 29159 N 2744.83 -0.851312 -1.32629 0
M  V30 29160 C 2746.08 -0.453729 -1.97659 0
M  V30 29161 C 2746.41 0.987366 -1.67227 0
M  V30 29162 O 2745.69 1.6923 -0.958722 0
M  V30 29163 C 2745.97 -0.689422 -3.53439 0
M  V30 29164 C 2745.82 -2.17869 -3.93514 0
M  V30 29165 C 2747.14 -0.143633 -4.39866 0
M  V30 29166 H 2744.26 -0.166327 -0.717986 0
M  V30 29167 H 2746.9 -1.06912 -1.57066 0
M  V30 29168 H 2745.05 -0.165615 -3.88147 0
M  V30 29169 H 2746.72 -2.76832 -3.69001 0
M  V30 29170 H 2744.97 -2.65847 -3.42794 0
M  V30 29171 H 2745.64 -2.29431 -5.02061 0
M  V30 29172 H 2748.11 -0.591523 -4.11874 0
M  V30 29173 H 2746.99 -0.33814 -5.47857 0
M  V30 29174 H 2747.25 0.95339 -4.31698 0
M  V30 29175 N 2746.31 1.45361 -0.608928 0
M  V30 29176 C 2747.56 2.01441 -0.102215 0
M  V30 29177 C 2747.87 1.48297 1.27543 0
M  V30 29178 O 2749.08 1.96362 1.87495 0
M  V30 29179 C 2747.53 3.59658 -0.132048 0
M  V30 29180 C 2747.14 4.21799 -1.50963 0
M  V30 29181 C 2748.89 4.23297 0.319353 0
M  V30 29182 C 2746.79 5.72172 -1.49578 0
M  V30 29183 H 2745.72 0.753213 -0.0344447 0
M  V30 29184 H 2748.37 1.66818 -0.764455 0
M  V30 29185 H 2746.76 3.91476 0.596871 0
M  V30 29186 H 2747.93 4.01552 -2.26036 0
M  V30 29187 H 2746.24 3.70359 -1.90324 0
M  V30 29188 H 2748.84 5.3356 0.348919 0
M  V30 29189 H 2749.18 3.94066 1.3423 0
M  V30 29190 H 2749.72 3.96201 -0.356342 0
M  V30 29191 H 2746.46 6.06104 -2.49637 0
M  V30 29192 H 2745.98 5.94606 -0.787646 0
M  V30 29193 H 2747.66 6.35394 -1.22 0
M  V30 29194 N 2747.79 0.348166 1.53706 0
M  V30 29195 C 2748.73 -0.506478 2.25174 0
M  V30 29196 C 2749.7 -1.09179 1.25176 0
M  V30 29197 O 2750.89 -1.12755 1.53919 0
M  V30 29198 C 2748.03 -1.64918 3.03144 0
M  V30 29199 C 2747.14 -1.09073 4.18004 0
M  V30 29200 C 2746.28 -2.20111 4.83451 0
M  V30 29201 C 2745.32 -1.61641 5.90372 0
M  V30 29202 N 2744.45 -2.6644 6.4958 0
M  V30 29203 H 2749.29 0.109505 2.97799 0
M  V30 29204 H 2746.83 0.0658124 1.46953 0
M  V30 29205 H 2748.79 -2.32199 3.46612 0
M  V30 29206 H 2747.42 -2.23608 2.32807 0
M  V30 29207 H 2746.47 -0.308717 3.79145 0
M  V30 29208 H 2747.78 -0.623091 4.94893 0
M  V30 29209 H 2746.94 -2.95248 5.30013 0
M  V30 29210 H 2745.68 -2.7022 4.05996 0
M  V30 29211 H 2744.68 -0.850114 5.43188 0
M  V30 29212 H 2745.91 -1.12378 6.69737 0
M  V30 29213 H 2743.85 -3.15795 5.74987 0
M  V30 29214 H 2743.77 -2.24312 7.21956 0
M  V30 29215 H 2745.04 -3.41332 7.00795 0
M  V30 29216 N 2749.27 -1.57412 0.0768958 0
M  V30 29217 C 2750.51 -1.933 -0.589884 0
M  V30 29218 C 2750.83 -0.958079 -1.69841 0
M  V30 29219 O 2750.1 -0.00706705 -1.95899 0
M  V30 29220 H 2748.68 -0.713595 -0.220888 0
M  V30 29221 H 2751.35 -1.94425 0.135951 0
M  V30 29222 H 2750.44 -2.95241 -1.0119 0
M  V30 29223 N 2750.74 0.196695 -1.56368 0
M  V30 29224 C 2751.69 1.24378 -1.94419 0
M  V30 29225 C 2752.66 1.45313 -0.804569 0
M  V30 29226 O 2753.85 1.58473 -1.06259 0
M  V30 29227 C 2750.99 2.58384 -2.28761 0
M  V30 29228 C 2750.1 2.45041 -3.55779 0
M  V30 29229 C 2749.23 3.71739 -3.79451 0
M  V30 29230 C 2748.27 3.53223 -4.999 0
M  V30 29231 N 2747.41 4.71929 -5.19834 0
M  V30 29232 H 2752.25 0.912288 -2.83692 0
M  V30 29233 H 2749.79 0.43911 -1.40393 0
M  V30 29234 H 2751.75 3.36453 -2.46688 0
M  V30 29235 H 2750.38 2.8958 -1.4263 0
M  V30 29236 H 2749.43 1.58278 -3.45908 0
M  V30 29237 H 2750.74 2.27292 -4.44004 0
M  V30 29238 H 2749.89 4.58249 -3.97609 0
M  V30 29239 H 2748.63 3.92441 -2.89553 0
M  V30 29240 H 2747.64 2.65098 -4.81667 0
M  V30 29241 H 2748.86 3.33968 -5.91306 0
M  V30 29242 H 2746.81 4.92897 -4.32884 0
M  V30 29243 H 2746.73 4.56999 -6.02236 0
M  V30 29244 H 2747.99 5.59794 -5.42449 0
M  V30 29245 N 2752.22 1.50604 0.464349 0
M  V30 29246 C 2753.45 1.65697 1.23904 0
M  V30 29247 C 2753.87 0.343059 1.85657 0
M  V30 29248 O 2753.22 -0.675709 1.6953 0
M  V30 29249 C 2753.27 2.75305 2.34285 0
M  V30 29250 O 2752.99 4.01602 1.75063 0
M  V30 29251 C 2754.5 3.0143 3.25046 0
M  V30 29252 H 2751.72 0.556785 0.374475 0
M  V30 29253 H 2754.26 1.96867 0.553495 0
M  V30 29254 H 2752.41 2.4681 2.98603 0
M  V30 29255 H 2752.83 4.6227 2.47804 0
M  V30 29256 H 2754.3 3.8177 3.98692 0
M  V30 29257 H 2754.78 2.12765 3.84224 0
M  V30 29258 H 2755.39 3.31482 2.66458 0
M  V30 29259 N 2753.7 -0.717989 1.40295 0
M  V30 29260 C 2755.12 -1.02575 1.22272 0
M  V30 29261 C 2755.32 -2.0127 0.096233 0
M  V30 29262 O 2754.37 -2.46512 -0.546651 0
M  V30 29263 C 2755.69 -1.57177 2.56351 0
M  V30 29264 C 2757.23 -1.69173 2.63343 0
M  V30 29265 C 2757.71 -2.27181 3.97684 0
M  V30 29266 N 2759.2 -2.34571 3.99413 0
M  V30 29267 C 2759.93 -2.80431 5.00146 0
M  V30 29268 N 2759.43 -3.26062 6.11274 0
M  V30 29269 N 2761.22 -2.79794 4.87516 0
M  V30 29270 H 2753.37 -0.0637526 2.12304 0
M  V30 29271 H 2755.64 -0.090887 0.943633 0
M  V30 29272 H 2755.34 -0.921202 3.39421 0
M  V30 29273 H 2755.22 -2.55736 2.7727 0
M  V30 29274 H 2757.6 -2.33348 1.80645 0
M  V30 29275 H 2757.69 -0.692204 2.46256 0
M  V30 29276 H 2757.33 -1.6363 4.8082 0
M  V30 29277 H 2757.26 -3.27844 4.12099 0
M  V30 29278 H 2759.75 -2.0234 3.19166 0
M  V30 29279 H 2760.06 -3.59616 6.8403 0
M  V30 29280 H 2758.41 -3.24027 6.14843 0
M  V30 29281 H 2761.6 -2.4348 3.99794 0
M  V30 29282 H 2761.77 -3.15218 5.66164 0
M  V30 29283 N 2755.18 -1.25752 -0.94996 0
M  V30 29284 C 2756.42 -1.10941 -1.69764 0
M  V30 29285 C 2756.76 0.347995 -1.91057 0
M  V30 29286 O 2756.03 1.25622 -1.4849 0
M  V30 29287 C 2756.32 -1.86939 -3.07776 0
M  V30 29288 C 2756.17 -3.40535 -2.93864 0
M  V30 29289 C 2757.49 -1.65623 -4.07746 0
M  V30 29290 H 2754.61 -0.404407 -0.616136 0
M  V30 29291 H 2757.25 -1.54641 -1.10391 0
M  V30 29292 H 2755.4 -1.49797 -3.5846 0
M  V30 29293 H 2757.07 -3.87379 -2.5047 0
M  V30 29294 H 2755.31 -3.68008 -2.2968 0
M  V30 29295 H 2755.98 -3.88929 -3.91712 0
M  V30 29296 H 2758.46 -1.97966 -3.6599 0
M  V30 29297 H 2757.34 -2.21227 -5.02344 0
M  V30 29298 H 2757.6 -0.598672 -4.38028 0
M  V30 29299 N 2756.66 1.15326 -1.07413 0
M  V30 29300 C 2757.91 1.85471 -0.792676 0
M  V30 29301 C 2758.22 1.8326 0.683757 0
M  V30 29302 O 2759.42 2.49094 1.08001 0
M  V30 29303 C 2757.88 3.3289 -1.36793 0
M  V30 29304 C 2757.49 3.43545 -2.87542 0
M  V30 29305 C 2759.23 4.08215 -1.16452 0
M  V30 29306 C 2757.14 4.85116 -3.38255 0
M  V30 29307 H 2756.07 0.694806 -0.29285 0
M  V30 29308 H 2758.72 1.30079 -1.29428 0
M  V30 29309 H 2757.1 3.87957 -0.794061 0
M  V30 29310 H 2758.28 2.98581 -3.50978 0
M  V30 29311 H 2756.59 2.81666 -3.06681 0
M  V30 29312 H 2759.19 5.12695 -1.51817 0
M  V30 29313 H 2759.53 4.16171 -0.103603 0
M  V30 29314 H 2760.06 3.59419 -1.70478 0
M  V30 29315 H 2756.8 4.82344 -4.43875 0
M  V30 29316 H 2756.32 5.30659 -2.79573 0
M  V30 29317 H 2758 5.53974 -3.34248 0
M  V30 29318 N 2758.13 0.858334 1.32176 0
M  V30 29319 C 2759.04 0.308647 2.32561 0
M  V30 29320 C 2760.06 -0.575433 1.6421 0
M  V30 29321 O 2761.24 -0.474926 1.9572 0
M  V30 29322 C 2758.3 -0.490848 3.43208 0
M  V30 29323 C 2757.36 0.419808 4.27242 0
M  V30 29324 C 2756.6 -0.341625 5.32605 0
M  V30 29325 O 2756.82 -1.57115 5.48335 0
M  V30 29326 O 2755.75 0.294485 6.01179 0
M  V30 29327 H 2759.58 1.14042 2.81475 0
M  V30 29328 H 2757.16 0.621373 1.35865 0
M  V30 29329 H 2759.05 -0.944502 4.10679 0
M  V30 29330 H 2757.72 -1.29936 2.96476 0
M  V30 29331 H 2756.63 0.921715 3.62568 0
M  V30 29332 H 2757.96 1.1936 4.77508 0
M  V30 29333 N 2759.61 -1.45036 0.616628 0
M  V30 29334 C 2760.58 -2.29035 -0.087071 0
M  V30 29335 C 2761.58 -1.40259 -0.78639 0
M  V30 29336 O 2762.77 -1.62285 -0.633178 0
M  V30 29337 C 2759.9 -3.21499 -1.13364 0
M  V30 29338 H 2761.09 -2.92737 0.651549 0
M  V30 29339 H 2758.64 -1.51708 0.376085 0
M  V30 29340 H 2759.38 -2.62616 -1.90272 0
M  V30 29341 H 2759.16 -3.86903 -0.63629 0
M  V30 29342 H 2760.65 -3.84635 -1.6262 0
M  V30 29343 N 2761.09 -0.356312 -1.53519 0
M  V30 29344 C 2762.32 0.239925 -2.06008 0
M  V30 29345 C 2762.74 1.4242 -1.22874 0
M  V30 29346 O 2762.1 1.79629 -0.245547 0
M  V30 29347 C 2762.15 0.620524 -3.55221 0
M  V30 29348 O 2761.25 1.71896 -3.74867 0
M  V30 29349 H 2760.59 0.0371261 -0.662961 0
M  V30 29350 H 2763.12 -0.514229 -1.98032 0
M  V30 29351 H 2763.13 0.894127 -3.98082 0
M  V30 29352 H 2761.81 -0.24548 -4.15175 0
M  V30 29353 H 2760.38 1.44163 -3.43906 0
M  V30 29354 N 2762.57 1.57369 -0.0852427 0
M  V30 29355 C 2763.79 1.98747 0.592838 0
M  V30 29356 C 2764.22 0.963717 1.61537 0
M  V30 29357 O 2763.58 -0.0690391 1.81169 0
M  V30 29358 C 2763.62 3.39121 1.22593 0
M  V30 29359 O 2762.73 3.39461 2.34179 0
M  V30 29360 H 2762.07 0.646532 0.151303 0
M  V30 29361 H 2764.6 2.03944 -0.163739 0
M  V30 29362 H 2764.61 3.76601 1.56959 0
M  V30 29363 H 2763.28 4.13158 0.476759 0
M  V30 29364 H 2761.86 3.13767 2.01507 0
M  V30 29365 N 2764.05 -0.188399 1.5647 0
M  V30 29366 C 2765.29 -0.909092 1.81283 0
M  V30 29367 C 2765.63 -1.82627 0.660372 0
M  V30 29368 O 2764.9 -1.91528 -0.338703 0
M  V30 29369 C 2765.18 -1.71955 3.16391 0
M  V30 29370 C 2765.04 -0.826637 4.42139 0
M  V30 29371 C 2766.36 -2.69077 3.48261 0
M  V30 29372 H 2763.47 -0.329057 0.659462 0
M  V30 29373 H 2766.12 -0.176122 1.89182 0
M  V30 29374 H 2764.27 -2.34443 3.09788 0
M  V30 29375 H 2765.94 -0.215944 4.60794 0
M  V30 29376 H 2764.18 -0.133716 4.33594 0
M  V30 29377 H 2764.85 -1.42884 5.33187 0
M  V30 29378 H 2767.33 -2.1672 3.55207 0
M  V30 29379 H 2766.2 -3.22862 4.43905 0
M  V30 29380 H 2766.47 -3.4845 2.72094 0
M  V30 29381 N 2765.53 -1.50848 -0.456355 0
M  V30 29382 C 2766.47 -1.71332 -1.57315 0
M  V30 29383 C 2767.47 -0.579315 -1.59186 0
M  V30 29384 O 2768.67 -0.760209 -1.63159 0
M  V30 29385 H 2765.05 -0.541033 -0.52229 0
M  V30 29386 H 2767.02 -2.64986 -1.37205 0
M  V30 29387 C 2765.77 -1.83816 -2.95139 0
M  V30 29388 H 2765.09 -2.70472 -2.94423 0
M  V30 29389 H 2766.53 -2.02168 -3.72698 0
M  V30 29390 C 2764.99 -0.593282 -3.31635 0
M  V30 29391 O 2765.52 0.260827 -4.00852 0
M  V30 29392 N 2763.73 -0.442953 -2.87204 0
M  V30 29393 H 2763.27 -1.13905 -2.31049 0
M  V30 29394 H 2763.23 0.388785 -3.11987 0
M  V30 29395 N 2767 0.710538 -1.40674 0
M  V30 29396 C 2768.28 1.46396 -1.29721 0
M  V30 29397 C 2768.66 2.1094 0.0821399 0
M  V30 29398 O 2768.01 2.00536 1.09533 0
M  V30 29399 C 2768.22 2.49558 -2.43971 0
M  V30 29400 C 2769.57 3.15243 -2.84441 0
M  V30 29401 O 2770.59 2.59879 -2.43601 0
M  V30 29402 O 2769.45 4.15483 -3.55015 0
M  V30 29403 H 2766.54 0.65125 -0.509709 0
M  V30 29404 H 2769.09 0.742285 -1.52605 0
M  V30 29405 H 2767.86 2.00415 -3.3608 0
M  V30 29406 H 2767.48 3.29254 -2.22885 0
M  V30 29407 N 2768.48 1.26254 0.943277 0
M  V30 29408 C 2769.71 1.14446 1.72365 0
M  V30 29409 C 2770.12 -0.300539 1.86393 0
M  V30 29410 O 2769.48 -1.20593 1.3698 0
M  V30 29411 C 2769.53 1.80605 3.13152 0
M  V30 29412 O 2769.25 3.19458 2.99797 0
M  V30 29413 C 2770.75 1.74724 4.07414 0
M  V30 29414 H 2767.97 0.398636 0.539751 0
M  V30 29415 H 2770.52 1.66834 1.18265 0
M  V30 29416 H 2768.67 1.3216 3.6416 0
M  V30 29417 H 2769.09 3.52165 3.8869 0
M  V30 29418 H 2770.56 2.25656 5.03769 0
M  V30 29419 H 2771.04 0.71332 4.33369 0
M  V30 29420 H 2771.64 2.22711 3.62326 0
M  V30 29421 N 2769.96 -1.14755 1.08024 0
M  V30 29422 C 2770.89 -2.21852 0.728287 0
M  V30 29423 C 2771.87 -1.67654 -0.287457 0
M  V30 29424 O 2773.06 -1.93551 -0.158693 0
M  V30 29425 C 2770.19 -3.47047 0.13261 0
M  V30 29426 C 2769.14 -4.14247 1.07627 0
M  V30 29427 C 2768.47 -5.33599 0.343001 0
M  V30 29428 C 2769.77 -4.63231 2.41276 0
M  V30 29429 H 2771.46 -2.51548 1.6237 0
M  V30 29430 H 2769.01 -1.20907 0.782146 0
M  V30 29431 H 2770.96 -4.21213 -0.125591 0
M  V30 29432 H 2769.68 -3.16703 -0.797915 0
M  V30 29433 H 2768.34 -3.4203 1.3195 0
M  V30 29434 H 2767.99 -4.99514 -0.591203 0
M  V30 29435 H 2767.69 -5.79504 0.972057 0
M  V30 29436 H 2769.21 -6.1053 0.0927611 0
M  V30 29437 H 2770.63 -5.28891 2.21241 0
M  V30 29438 H 2769.02 -5.19824 2.99839 0
M  V30 29439 H 2770.09 -3.78506 3.03086 0
M  V30 29440 N 2771.44 -0.865331 -1.31719 0
M  V30 29441 C 2772.37 -0.333343 -2.31108 0
M  V30 29442 C 2773.35 0.573273 -1.60149 0
M  V30 29443 O 2774.53 0.491272 -1.87883 0
M  V30 29444 C 2771.66 0.470017 -3.44105 0
M  V30 29445 C 2770.62 -0.343096 -4.26623 0
M  V30 29446 C 2769.94 0.585663 -5.31483 0
M  V30 29447 C 2771.24 -1.57465 -4.97998 0
M  V30 29448 H 2772.94 -1.16385 -2.75853 0
M  V30 29449 H 2770.48 -0.561092 -1.32619 0
M  V30 29450 H 2772.44 0.852679 -4.12683 0
M  V30 29451 H 2771.16 1.33399 -2.98115 0
M  V30 29452 H 2769.82 -0.707646 -3.59705 0
M  V30 29453 H 2769.47 1.44678 -4.81744 0
M  V30 29454 H 2769.17 0.0455461 -5.87582 0
M  V30 29455 H 2770.69 0.965269 -6.02922 0
M  V30 29456 H 2772.11 -1.26369 -5.59199 0
M  V30 29457 H 2770.5 -2.05349 -5.63872 0
M  V30 29458 H 2771.57 -2.33005 -4.25249 0
M  V30 29459 N 2772.92 1.44707 -0.624311 0
M  V30 29460 C 2774.16 2.02107 -0.126086 0
M  V30 29461 C 2774.49 1.4905 1.24957 0
M  V30 29462 O 2773.75 0.662038 1.84162 0
M  V30 29463 C 2774.04 3.57358 -0.0546981 0
M  V30 29464 C 2773.71 4.2964 -1.36823 0
M  V30 29465 C 2772.37 4.49103 -1.728 0
M  V30 29466 C 2774.72 4.7082 -2.23557 0
M  V30 29467 C 2772.05 5.07006 -2.95231 0
M  V30 29468 C 2774.4 5.30079 -3.45253 0
M  V30 29469 C 2773.07 5.47762 -3.81461 0
M  V30 29470 H 2772.34 0.739562 -0.0461382 0
M  V30 29471 H 2774.99 1.7356 -0.809267 0
M  V30 29472 H 2773.29 3.8528 0.711824 0
M  V30 29473 H 2774.99 3.99494 0.347211 0
M  V30 29474 H 2771.58 4.14816 -1.07824 0
M  V30 29475 H 2775.76 4.55502 -1.97058 0
M  V30 29476 H 2771.02 5.18885 -3.2337 0
M  V30 29477 H 2775.19 5.60939 -4.12699 0
M  V30 29478 H 2772.82 5.92397 -4.76414 0
M  V30 29479 N 2774.39 0.364449 1.53328 0
M  V30 29480 C 2775.81 0.0133446 1.59594 0
M  V30 29481 C 2776.01 -1.46863 1.37962 0
M  V30 29482 O 2775.07 -2.23008 1.18422 0
M  V30 29483 C 2776.38 0.468265 2.97032 0
M  V30 29484 C 2777.93 0.422388 3.10137 0
M  V30 29485 C 2778.4 0.853103 4.49985 0
M  V30 29486 N 2779.89 0.808117 4.56096 0
M  V30 29487 C 2780.63 1.11309 5.62493 0
M  V30 29488 N 2780.12 1.48728 6.76647 0
M  V30 29489 N 2781.92 1.03596 5.52471 0
M  V30 29490 H 2774.07 1.32954 1.65641 0
M  V30 29491 H 2776.33 0.543359 0.77683 0
M  V30 29492 H 2776.04 1.50236 3.17997 0
M  V30 29493 H 2775.91 -0.145709 3.76918 0
M  V30 29494 H 2778.3 -0.602572 2.88882 0
M  V30 29495 H 2778.38 1.07184 2.32261 0
M  V30 29496 H 2778.02 1.87617 4.71977 0
M  V30 29497 H 2777.95 0.180911 5.26289 0
M  V30 29498 H 2780.44 0.532427 3.7413 0
M  V30 29499 H 2780.76 1.70428 7.53773 0
M  V30 29500 H 2779.1 1.52593 6.78042 0
M  V30 29501 H 2782.29 0.742817 4.62169 0
M  V30 29502 H 2782.47 1.27697 6.35293 0
M  V30 29503 N 2775.87 -1.57322 0.0935872 0
M  V30 29504 C 2777.1 -1.98636 -0.578899 0
M  V30 29505 C 2777.51 -0.972654 -1.61817 0
M  V30 29506 O 2776.87 0.0379317 -1.82461 0
M  V30 29507 C 2776.92 -3.40005 -1.22796 0
M  V30 29508 O 2776.64 -4.37494 -0.230257 0
M  V30 29509 C 2778.14 -3.96314 -1.9862 0
M  V30 29510 H 2775.36 -0.652778 -0.155312 0
M  V30 29511 H 2777.91 -2.03772 0.172429 0
M  V30 29512 H 2776.06 -3.35888 -1.93023 0
M  V30 29513 H 2776.48 -5.19827 -0.698557 0
M  V30 29514 H 2777.95 -4.97387 -2.39396 0
M  V30 29515 H 2778.43 -3.34049 -2.85145 0
M  V30 29516 H 2779.03 -4.03899 -1.33213 0
M  V30 29517 N 2777.35 0.180099 -1.56568 0
M  V30 29518 C 2778.58 0.913939 -1.8562 0
M  V30 29519 C 2778.99 1.76209 -0.677923 0
M  V30 29520 O 2778.35 1.79051 0.35314 0
M  V30 29521 C 2778.4 1.79787 -3.13622 0
M  V30 29522 O 2778.12 0.983945 -4.26908 0
M  V30 29523 C 2779.62 2.64212 -3.55959 0
M  V30 29524 H 2776.84 0.265944 -0.616048 0
M  V30 29525 H 2779.39 0.182836 -2.03681 0
M  V30 29526 H 2777.54 2.48242 -2.97413 0
M  V30 29527 H 2777.96 1.58767 -4.99893 0
M  V30 29528 H 2779.43 3.21865 -4.48449 0
M  V30 29529 H 2779.91 3.38656 -2.79659 0
M  V30 29530 H 2780.51 2.01104 -3.74749 0
M  V30 29531 N 2778.83 1.51088 0.448349 0
M  V30 29532 C 2780.07 1.63211 1.19869 0
M  V30 29533 C 2780.4 0.343096 1.9145 0
M  V30 29534 O 2779.66 -0.672289 1.8379 0
M  V30 29535 C 2779.96 2.77799 2.24861 0
M  V30 29536 C 2779.62 4.17474 1.70371 0
M  V30 29537 C 2778.28 4.55474 1.55233 0
M  V30 29538 C 2780.64 5.04677 1.30194 0
M  V30 29539 C 2777.96 5.78394 0.983743 0
M  V30 29540 C 2780.32 6.28166 0.747687 0
M  V30 29541 C 2778.98 6.64948 0.583116 0
M  V30 29542 H 2778.25 0.59723 0.438631 0
M  V30 29543 H 2780.9 1.8509 0.491328 0
M  V30 29544 H 2779.2 2.50098 3.01593 0
M  V30 29545 H 2780.9 2.84379 2.82718 0
M  V30 29546 H 2777.49 3.87508 1.83127 0
M  V30 29547 H 2781.67 4.75934 1.40714 0
M  V30 29548 H 2776.93 6.05548 0.843901 0
M  V30 29549 H 2781.1 6.95085 0.427805 0
M  V30 29550 H 2778.73 7.6007 0.140398 0
M  V30 29551 N 2780.31 -0.703068 1.41049 0
M  V30 29552 C 2781.55 -1.46018 1.39726 0
M  V30 29553 C 2781.88 -1.94999 0.00464685 0
M  V30 29554 O 2781.15 -1.71198 -0.952262 0
M  V30 29555 H 2779.73 -0.54177 0.51429 0
M  V30 29556 H 2782.39 -0.832647 1.76219 0
M  V30 29557 H 2781.48 -2.32697 2.07986 0
M  V30 29558 N 2781.78 -1.26752 -0.936569 0
M  V30 29559 C 2782.73 -1.0853 -2.05728 0
M  V30 29560 C 2783.73 -0.0109081 -1.69396 0
M  V30 29561 O 2784.93 -0.167946 -1.79215 0
M  V30 29562 H 2781.31 -0.334145 -0.673685 0
M  V30 29563 H 2783.28 -2.03497 -2.18247 0
M  V30 29564 C 2782.03 -0.739904 -3.39736 0
M  V30 29565 H 2781.35 -1.55851 -3.68172 0
M  V30 29566 H 2782.79 -0.652223 -4.18954 0
M  V30 29567 C 2781.25 0.555229 -3.32293 0
M  V30 29568 O 2781.78 1.59222 -3.68797 0
M  V30 29569 N 2779.99 0.54757 -2.85395 0
M  V30 29570 H 2779.53 -0.296712 -2.55885 0
M  V30 29571 H 2779.49 1.41423 -2.80797 0
M  V30 29572 N 2783.26 1.1418 -1.08631 0
M  V30 29573 C 2784.19 2.21462 -0.740042 0
M  V30 29574 C 2785.17 1.67804 0.278562 0
M  V30 29575 O 2786.36 1.93632 0.148427 0
M  V30 29576 C 2783.49 3.46972 -0.151013 0
M  V30 29577 C 2782.44 4.1367 -1.09822 0
M  V30 29578 C 2781.77 5.33409 -0.371294 0
M  V30 29579 C 2783.07 4.61945 -2.4373 0
M  V30 29580 H 2784.76 2.50683 -1.63701 0
M  V30 29581 H 2782.31 1.2049 -0.788547 0
M  V30 29582 H 2784.26 4.21273 0.103251 0
M  V30 29583 H 2782.99 3.17122 0.781108 0
M  V30 29584 H 2781.64 3.41326 -1.33762 0
M  V30 29585 H 2781.29 4.9982 0.564704 0
M  V30 29586 H 2780.99 5.7898 -1.00278 0
M  V30 29587 H 2782.52 6.10472 -0.125138 0
M  V30 29588 H 2783.93 5.2771 -2.24043 0
M  V30 29589 H 2782.33 5.18226 -3.02591 0
M  V30 29590 H 2783.4 3.76894 -3.05089 0
M  V30 29591 N 2784.74 0.872304 1.31258 0
M  V30 29592 C 2785.99 0.4844 1.96621 0
M  V30 29593 C 2786.32 -0.963811 1.68941 0
M  V30 29594 O 2785.57 -1.69408 0.97977 0
M  V30 29595 C 2785.87 0.690951 3.50657 0
M  V30 29596 C 2785.54 2.11231 3.98362 0
M  V30 29597 C 2784.2 2.50101 4.111 0
M  V30 29598 C 2786.55 3.03917 4.23419 0
M  V30 29599 C 2783.88 3.80894 4.46247 0
M  V30 29600 C 2786.23 4.34228 4.60031 0
M  V30 29601 C 2784.89 4.73009 4.70976 0
M  V30 29602 H 2784.16 0.177254 0.719487 0
M  V30 29603 H 2786.81 1.10574 1.56351 0
M  V30 29604 H 2785.12 -0.0135093 3.91798 0
M  V30 29605 H 2786.81 0.370604 3.99284 0
M  V30 29606 H 2783.4 1.80053 3.88946 0
M  V30 29607 H 2787.59 2.75112 4.13071 0
M  V30 29608 H 2782.84 4.107 4.52918 0
M  V30 29609 H 2787.02 5.06096 4.78372 0
M  V30 29610 H 2784.64 5.74398 4.97966 0
M  V30 29611 N 2786.22 -1.44374 0.631976 0
M  V30 29612 C 2787.44 -2.06912 0.142182 0
M  V30 29613 C 2787.87 -1.46922 -1.17454 0
M  V30 29614 O 2787.23 -0.571005 -1.72073 0
M  V30 29615 C 2787.27 -3.60576 0.0418586 0
M  V30 29616 O 2786.38 -4.00045 -1.00187 0
M  V30 29617 H 2785.72 -0.658516 0.0851607 0
M  V30 29618 H 2788.25 -1.85233 0.868895 0
M  V30 29619 H 2788.26 -4.0773 -0.148445 0
M  V30 29620 H 2786.93 -4.0362 1.00318 0
M  V30 29621 H 2785.51 -3.64521 -0.786067 0
M  V30 29622 N 2787.7 -0.372575 -1.53133 0
M  V30 29623 C 2788.64 0.470591 -2.25952 0
M  V30 29624 C 2789.61 1.07174 -1.26897 0
M  V30 29625 O 2790.8 1.10292 -1.55693 0
M  V30 29626 C 2787.94 1.60074 -3.05729 0
M  V30 29627 C 2787.05 1.02409 -4.19686 0
M  V30 29628 C 2786.19 2.12392 -4.86891 0
M  V30 29629 C 2785.23 1.52228 -5.92869 0
M  V30 29630 N 2784.36 2.56072 -6.53737 0
M  V30 29631 H 2789.2 -0.156868 -2.97587 0
M  V30 29632 H 2786.74 -0.089183 -1.46829 0
M  V30 29633 H 2788.7 2.26655 -3.50262 0
M  V30 29634 H 2787.33 2.19876 -2.36335 0
M  V30 29635 H 2786.38 0.248359 -3.79588 0
M  V30 29636 H 2787.69 0.544279 -4.95822 0
M  V30 29637 H 2786.85 2.86778 -5.34643 0
M  V30 29638 H 2785.58 2.63727 -4.10243 0
M  V30 29639 H 2784.59 0.763589 -5.44472 0
M  V30 29640 H 2785.81 1.01709 -6.7144 0
M  V30 29641 H 2783.76 3.06607 -5.79938 0
M  V30 29642 H 2783.68 2.12798 -7.25433 0
M  V30 29643 H 2784.95 3.30139 -7.06136 0
M  V30 29644 N 2789.17 1.5727 -0.101929 0
M  V30 29645 C 2790.42 1.94598 0.560163 0
M  V30 29646 C 2790.75 0.98413 1.67765 0
M  V30 29647 O 2790 0.00492633 1.95699 0
M  V30 29648 C 2790.3 3.38429 1.14893 0
M  V30 29649 C 2789.97 4.50635 0.154534 0
M  V30 29650 C 2788.63 4.81053 -0.118945 0
M  V30 29651 C 2790.98 5.18559 -0.524071 0
M  V30 29652 C 2788.31 5.76719 -1.07761 0
M  V30 29653 C 2790.66 6.15254 -1.47125 0
M  V30 29654 C 2789.33 6.44073 -1.75289 0
M  V30 29655 H 2788.6 0.712085 0.204978 0
M  V30 29656 H 2791.24 1.9066 -0.179213 0
M  V30 29657 H 2789.55 3.38979 1.9647 0
M  V30 29658 H 2791.25 3.64616 1.66902 0
M  V30 29659 H 2787.84 4.26931 0.377873 0
M  V30 29660 H 2792.02 4.95229 -0.325938 0
M  V30 29661 H 2787.28 5.9736 -1.30274 0
M  V30 29662 H 2791.45 6.66977 -2.00285 0
M  V30 29663 H 2789.08 7.1801 -2.4973 0
M  V30 29664 N 2790.65 -0.171793 1.56661 0
M  V30 29665 C 2791.6 -1.21732 1.92783 0
M  V30 29666 C 2792.59 -1.39826 0.79609 0
M  V30 29667 O 2793.78 -1.41804 1.05927 0
M  V30 29668 C 2790.91 -2.55687 2.29083 0
M  V30 29669 C 2789.99 -2.4129 3.48769 0
M  V30 29670 N 2790.38 -1.96606 4.66026 0
M  V30 29671 C 2788.68 -2.72117 3.53367 0
M  V30 29672 C 2789.38 -1.9466 5.48163 0
M  V30 29673 N 2788.36 -2.37046 4.89194 0
M  V30 29674 H 2792.16 -0.863542 2.80927 0
M  V30 29675 H 2789.68 -0.380068 1.5789 0
M  V30 29676 H 2791.67 -3.31237 2.53156 0
M  V30 29677 H 2790.33 -2.91869 1.42277 0
M  V30 29678 H 2791.34 -1.66951 4.90253 0
M  V30 29679 H 2788.02 -3.1234 2.77038 0
M  V30 29680 H 2789.41 -1.61815 6.52124 0
M  V30 29681 N 2792.13 -1.51324 -0.44033 0
M  V30 29682 C 2793.06 -1.75367 -1.54171 0
M  V30 29683 C 2794.04 -0.603403 -1.59038 0
M  V30 29684 O 2795.23 -0.845804 -1.74814 0
M  V30 29685 C 2792.36 -1.87598 -2.92274 0
M  V30 29686 C 2791.31 -3.03014 -3.02269 0
M  V30 29687 C 2790.64 -3.00425 -4.42322 0
M  V30 29688 C 2791.94 -4.43029 -2.76627 0
M  V30 29689 H 2793.63 -2.67588 -1.34302 0
M  V30 29690 H 2791.18 -1.28764 -0.644656 0
M  V30 29691 H 2793.13 -2.03002 -3.69281 0
M  V30 29692 H 2791.85 -0.920234 -3.13368 0
M  V30 29693 H 2790.51 -2.87311 -2.27701 0
M  V30 29694 H 2790.16 -2.02634 -4.60379 0
M  V30 29695 H 2789.86 -3.77926 -4.49939 0
M  V30 29696 H 2791.38 -3.17918 -5.21306 0
M  V30 29697 H 2792.8 -4.59099 -3.43368 0
M  V30 29698 H 2791.2 -5.22213 -2.95657 0
M  V30 29699 H 2792.27 -4.53273 -1.72254 0
M  V30 29700 N 2793.61 0.695578 -1.41419 0
M  V30 29701 C 2794.56 1.83082 -1.43471 0
M  V30 29702 C 2795.55 1.66488 -0.312748 0
M  V30 29703 O 2796.76 1.73349 -0.484775 0
M  V30 29704 H 2793.13 0.603317 -0.448902 0
M  V30 29705 H 2795.1 1.78469 -2.39147 0
M  V30 29706 C 2793.85 3.21101 -1.33376 0
M  V30 29707 H 2793.17 3.34486 -2.18995 0
M  V30 29708 H 2794.61 4.00613 -1.38872 0
M  V30 29709 C 2793.07 3.36868 -0.0461076 0
M  V30 29710 O 2793.6 3.91276 0.909189 0
M  V30 29711 N 2791.81 2.90585 0.0299712 0
M  V30 29712 H 2791.36 2.46496 -0.748173 0
M  V30 29713 H 2791.31 3.01512 0.890938 0
M  V30 29714 N 2795.09 1.27247 0.929833 0
M  V30 29715 C 2796.5 1.12205 1.49221 0
M  V30 29716 C 2796.85 -0.293697 1.93989 0
M  V30 29717 O 2795.97 -1.18639 1.8098 0
M  V30 29718 C 2796.57 2.03074 2.71194 0
M  V30 29719 C 2795.13 1.92145 3.23663 0
M  V30 29720 C 2794.28 1.95756 1.96405 0
M  V30 29721 H 2797.23 1.40171 0.744157 0
M  V30 29722 H 2797.25 1.5853 3.45902 0
M  V30 29723 H 2796.76 3.06107 2.3858 0
M  V30 29724 H 2794.86 0.920898 3.6104 0
M  V30 29725 H 2794.97 2.78274 3.90001 0
M  V30 29726 H 2793.34 1.39953 2.12803 0
M  V30 29727 H 2794.12 3.00438 1.66107 0
M  V30 29728 N 2796.57 -1.13603 1.09235 0
M  V30 29729 C 2797.81 -1.84469 0.825558 0
M  V30 29730 C 2798.13 -1.83824 -0.650669 0
M  V30 29731 O 2797.4 -1.29261 -1.47202 0
M  V30 29732 H 2795.98 -0.683049 0.302412 0
M  V30 29733 H 2798.65 -1.37622 1.38008 0
M  V30 29734 H 2797.74 -2.89042 1.17732 0
M  V30 29735 N 2798.04 -0.879253 -1.30793 0
M  V30 29736 C 2799.29 -0.490909 -1.95635 0
M  V30 29737 C 2799.61 0.963645 -1.70215 0
M  V30 29738 O 2800.81 1.45857 -2.28994 0
M  V30 29739 C 2799.27 -0.826991 -3.5027 0
M  V30 29740 C 2798.88 -2.29893 -3.84517 0
M  V30 29741 C 2800.62 -0.507568 -4.21455 0
M  V30 29742 C 2798.53 -2.57694 -5.32304 0
M  V30 29743 H 2797.46 -0.179854 -0.732235 0
M  V30 29744 H 2800.11 -1.07344 -1.48827 0
M  V30 29745 H 2798.49 -0.173611 -3.95619 0
M  V30 29746 H 2799.66 -2.99615 -3.50097 0
M  V30 29747 H 2797.98 -2.58531 -3.26421 0
M  V30 29748 H 2800.58 -0.692386 -5.30198 0
M  V30 29749 H 2800.92 0.552645 -4.12615 0
M  V30 29750 H 2801.45 -1.11789 -3.8177 0
M  V30 29751 H 2798.19 -3.62434 -5.46189 0
M  V30 29752 H 2797.71 -1.92576 -5.68045 0
M  V30 29753 H 2799.39 -2.429 -5.99674 0
M  V30 29754 N 2799.52 1.44037 -0.639624 0
M  V30 29755 C 2800.77 2.02261 -0.147734 0
M  V30 29756 C 2801.1 1.50258 1.23029 0
M  V30 29757 O 2800.38 0.6901 1.81846 0
M  V30 29758 C 2800.66 3.59813 -0.143683 0
M  V30 29759 C 2800.51 4.22079 -1.55465 0
M  V30 29760 C 2801.83 4.3693 0.52724 0
M  V30 29761 H 2798.95 0.734933 -0.0551582 0
M  V30 29762 H 2801.59 1.71503 -0.817718 0
M  V30 29763 H 2799.74 3.86148 0.42683 0
M  V30 29764 H 2801.41 4.06822 -2.17471 0
M  V30 29765 H 2799.66 3.79249 -2.10601 0
M  V30 29766 H 2800.33 5.31122 -1.50378 0
M  V30 29767 H 2802.8 4.16079 0.0419772 0
M  V30 29768 H 2801.68 5.46624 0.499293 0
M  V30 29769 H 2801.94 4.12168 1.59907 0
M  V30 29770 N 2801 0.380691 1.52933 0
M  V30 29771 C 2802.23 -0.204563 2.05886 0
M  V30 29772 C 2802.64 -1.41221 1.25308 0
M  V30 29773 O 2802 -1.80058 0.297536 0
M  V30 29774 C 2802.05 -0.583186 3.56765 0
M  V30 29775 O 2801.77 0.576475 4.34291 0
M  V30 29776 C 2803.27 -1.22522 4.26032 0
M  V30 29777 H 2800.49 -0.0328874 0.670194 0
M  V30 29778 H 2803.04 0.543431 1.97147 0
M  V30 29779 H 2801.19 -1.28108 3.65605 0
M  V30 29780 H 2801.61 0.267211 5.23819 0
M  V30 29781 H 2803.08 -1.44058 5.32871 0
M  V30 29782 H 2803.56 -2.19004 3.80702 0
M  V30 29783 H 2804.16 -0.568333 4.21486 0
M  V30 29784 N 2802.48 -1.57214 0.110268 0
M  V30 29785 C 2803.73 -1.94507 -0.548749 0
M  V30 29786 C 2804.05 -0.993889 -1.6777 0
M  V30 29787 O 2803.32 -0.0486185 -1.9584 0
M  V30 29788 H 2801.9 -0.718119 -0.205702 0
M  V30 29789 H 2804.56 -1.94093 0.177161 0
M  V30 29790 H 2803.65 -2.97321 -0.949043 0
M  V30 29791 N 2803.96 0.163482 -1.5675 0
M  V30 29792 C 2805.18 0.898231 -1.8694 0
M  V30 29793 C 2805.61 1.7469 -0.697486 0
M  V30 29794 O 2804.96 1.77824 0.353296 0
M  V30 29795 C 2805.01 1.74436 -3.15602 0
M  V30 29796 O 2804.12 2.84684 -2.98376 0
M  V30 29797 H 2803.46 0.251167 -0.614664 0
M  V30 29798 H 2805.99 0.159262 -2.03979 0
M  V30 29799 H 2806 2.14271 -3.47206 0
M  V30 29800 H 2804.67 1.12103 -4.00507 0
M  V30 29801 H 2803.25 2.48375 -2.78144 0
M  V30 29802 N 2805.43 1.51555 0.432299 0
M  V30 29803 C 2806.4 1.72636 1.50762 0
M  V30 29804 C 2807.4 0.59634 1.49333 0
M  V30 29805 O 2808.59 0.863952 1.51266 0
M  V30 29806 C 2805.72 1.78746 2.90281 0
M  V30 29807 H 2806.91 2.68611 1.33372 0
M  V30 29808 H 2804.46 1.41621 0.661304 0
M  V30 29809 H 2805.2 0.846032 3.1307 0
M  V30 29810 H 2804.98 2.60875 2.92723 0
M  V30 29811 H 2806.47 1.96877 3.68279 0
M  V30 29812 N 2806.91 -0.688069 1.41786 0
M  V30 29813 C 2808.16 -1.45028 1.41756 0
M  V30 29814 C 2808.49 -1.94178 0.0291086 0
M  V30 29815 O 2807.77 -1.70032 -0.944426 0
M  V30 29816 C 2808.05 -2.65682 2.43074 0
M  V30 29817 C 2807.9 -2.22249 3.91057 0
M  V30 29818 C 2809.22 -3.67888 2.41549 0
M  V30 29819 H 2806.34 -0.526018 0.516212 0
M  V30 29820 H 2808.98 -0.783075 1.73112 0
M  V30 29821 H 2807.13 -3.22606 2.16466 0
M  V30 29822 H 2808.8 -1.70594 4.28597 0
M  V30 29823 H 2807.05 -1.53955 4.05562 0
M  V30 29824 H 2807.72 -3.08855 4.57507 0
M  V30 29825 H 2810.19 -3.20653 2.65181 0
M  V30 29826 H 2809.07 -4.49908 3.14442 0
M  V30 29827 H 2809.33 -4.18103 1.43673 0
M  V30 29828 N 2808.39 -1.27739 -0.923072 0
M  V30 29829 C 2809.64 -1.14122 -1.66795 0
M  V30 29830 C 2809.96 0.312507 -1.9248 0
M  V30 29831 O 2809.23 1.21798 -1.53435 0
M  V30 29832 H 2807.81 -0.419347 -0.618189 0
M  V30 29833 H 2810.47 -1.60333 -1.10812 0
M  V30 29834 H 2809.57 -1.67379 -2.63421 0
M  V30 29835 N 2809.87 1.13022 -1.09836 0
M  V30 29836 C 2811.11 1.86039 -0.846696 0
M  V30 29837 C 2811.47 1.81832 0.616525 0
M  V30 29838 O 2812.67 2.50131 0.984285 0
M  V30 29839 C 2810.94 3.30002 -1.37234 0
M  V30 29840 S 2812.5 4.20465 -1.25519 0
M  V30 29841 H 2809.32 0.641725 -0.306121 0
M  V30 29842 H 2811.92 1.36192 -1.40257 0
M  V30 29843 H 2810.63 3.3062 -2.43143 0
M  V30 29844 H 2810.16 3.84912 -0.812778 0
M  V30 29845 H 2812.17 4.9576 -0.208849 0
M  V30 29846 N 2811.35 0.886177 1.30325 0
M  V30 29847 C 2812.62 0.425251 1.90921 0
M  V30 29848 C 2813 -1.09409 1.80535 0
M  V30 29849 O 2812.35 -1.92994 1.22334 0
M  V30 29850 C 2812.56 0.924697 3.36527 0
M  V30 29851 C 2813.91 0.960378 4.13596 0
M  V30 29852 O 2814.93 0.871443 3.45376 0
M  V30 29853 O 2813.79 1.09193 5.3548 0
M  V30 29854 H 2810.89 0.130252 0.816678 0
M  V30 29855 H 2813.43 0.975156 1.38884 0
M  V30 29856 H 2812.2 1.96855 3.38177 0
M  V30 29857 H 2811.83 0.354025 3.96021 0
M  V30 29858 N 2812.82 -1.43695 0.647253 0
M  V30 29859 C 2814.24 -1.85168 0.238722 0
M  V30 29860 C 2814.59 -1.54177 -1.21342 0
M  V30 29861 O 2813.71 -0.987777 -1.92541 0
M  V30 29862 C 2814.31 -3.36105 0.426481 0
M  V30 29863 C 2812.87 -3.76331 0.0723202 0
M  V30 29864 C 2812.01 -2.67459 0.7322 0
M  V30 29865 H 2814.96 -1.33933 0.851333 0
M  V30 29866 H 2814.98 -3.79068 -0.329803 0
M  V30 29867 H 2814.5 -3.5863 1.48346 0
M  V30 29868 H 2812.6 -3.59419 -0.982292 0
M  V30 29869 H 2812.71 -4.7655 0.493625 0
M  V30 29870 H 2811.07 -2.54159 0.165984 0
M  V30 29871 H 2811.86 -2.92812 1.79209 0
M  V30 29872 N 2814.3 -0.388796 -1.52729 0
M  V30 29873 C 2815.21 0.453952 -2.30166 0
M  V30 29874 C 2816.23 1.07194 -1.3706 0
M  V30 29875 O 2817.4 1.07787 -1.70129 0
M  V30 29876 C 2814.47 1.56623 -3.09306 0
M  V30 29877 C 2813.53 0.973393 -4.18119 0
M  V30 29878 C 2812.76 2.03266 -4.93476 0
M  V30 29879 O 2812.99 3.24764 -4.68919 0
M  V30 29880 O 2811.92 1.65024 -5.78836 0
M  V30 29881 H 2815.75 -0.176869 -3.03185 0
M  V30 29882 H 2813.33 -0.152527 -1.48619 0
M  V30 29883 H 2815.21 2.2124 -3.58651 0
M  V30 29884 H 2813.89 2.18202 -2.39101 0
M  V30 29885 H 2812.8 0.290491 -3.7297 0
M  V30 29886 H 2814.13 0.401822 -4.90557 0
M  V30 29887 N 2815.78 1.57153 -0.118604 0
M  V30 29888 C 2817.03 1.9547 0.540291 0
M  V30 29889 C 2817.36 1.00199 1.66355 0
M  V30 29890 O 2816.63 0.0391382 1.94461 0
M  V30 29891 C 2816.92 3.43731 1.07336 0
M  V30 29892 C 2816.77 4.49776 -0.0464523 0
M  V30 29893 C 2818.09 3.93829 1.96435 0
M  V30 29894 H 2815.21 0.710755 0.194927 0
M  V30 29895 H 2817.85 1.89006 -0.194083 0
M  V30 29896 H 2816 3.49371 1.69918 0
M  V30 29897 H 2817.67 4.56235 -0.681729 0
M  V30 29898 H 2815.92 4.27956 -0.709649 0
M  V30 29899 H 2816.59 5.50774 0.36776 0
M  V30 29900 H 2819.06 3.9049 1.43724 0
M  V30 29901 H 2817.94 4.98088 2.30651 0
M  V30 29902 H 2818.2 3.345 2.89071 0
M  V30 29903 N 2817.26 -0.155167 1.56834 0
M  V30 29904 C 2818.51 -0.869147 1.82899 0
M  V30 29905 C 2818.83 -1.81535 0.698226 0
M  V30 29906 O 2818.09 -1.93175 -0.31337 0
M  V30 29907 C 2818.39 -1.68396 3.15242 0
M  V30 29908 C 2818.05 -0.885263 4.42124 0
M  V30 29909 C 2816.72 -0.664887 4.76584 0
M  V30 29910 C 2819.07 -0.326142 5.20179 0
M  V30 29911 C 2816.4 0.125449 5.86566 0
M  V30 29912 C 2818.75 0.451191 6.30989 0
M  V30 29913 C 2817.41 0.682219 6.64005 0
M  V30 29914 H 2816.68 -0.318043 0.669275 0
M  V30 29915 H 2819.33 -0.133207 1.91036 0
M  V30 29916 H 2817.63 -2.48977 3.02519 0
M  V30 29917 H 2819.33 -2.23972 3.32622 0
M  V30 29918 H 2815.92 -1.06708 4.15104 0
M  V30 29919 H 2820.1 -0.4837 4.93937 0
M  V30 29920 H 2815.36 0.314022 6.10593 0
M  V30 29921 H 2819.53 0.891611 6.90669 0
M  V30 29922 H 2817.16 1.29649 7.49063 0
M  V30 29923 N 2818.74 -1.51782 -0.424256 0
M  V30 29924 C 2819.98 -1.66301 -1.17114 0
M  V30 29925 C 2820.34 -0.3808 -1.88594 0
M  V30 29926 O 2819.63 0.624062 -1.81152 0
M  V30 29927 C 2819.82 -2.81341 -2.20413 0
M  V30 29928 C 2819.65 -4.20625 -1.59074 0
M  V30 29929 C 2818.42 -4.86374 -1.36999 0
M  V30 29930 C 2820.62 -5.03261 -1.05983 0
M  V30 29931 N 2818.6 -6.09734 -0.713942 0
M  V30 29932 C 2819.97 -6.17732 -0.529824 0
M  V30 29933 C 2822.03 -4.88698 -0.952841 0
M  V30 29934 C 2820.73 -7.19235 0.0966721 0
M  V30 29935 C 2822.76 -5.90421 -0.340221 0
M  V30 29936 C 2822.12 -7.04172 0.179181 0
M  V30 29937 H 2818.22 -0.662321 -0.415758 0
M  V30 29938 H 2820.8 -1.89047 -0.465756 0
M  V30 29939 H 2818.97 -2.60236 -2.88326 0
M  V30 29940 H 2820.71 -2.84973 -2.87355 0
M  V30 29941 H 2817.46 -4.4447 -1.63535 0
M  V30 29942 H 2817.89 -6.758 -0.402982 0
M  V30 29943 H 2822.53 -4.00995 -1.34026 0
M  V30 29944 H 2820.25 -8.06575 0.496186 0
M  V30 29945 H 2823.83 -5.81222 -0.259163 0
M  V30 29946 H 2822.71 -7.81537 0.645764 0
M  V30 29947 N 2820.21 0.68054 -1.42149 0
M  V30 29948 C 2821.44 1.47401 -1.45903 0
M  V30 29949 C 2821.86 1.87969 -0.0701315 0
M  V30 29950 O 2821.22 1.55623 0.930117 0
M  V30 29951 C 2821.27 2.70317 -2.38666 0
M  V30 29952 O 2820.37 3.68373 -1.85406 0
M  V30 29953 H 2819.72 0.443051 -0.494573 0
M  V30 29954 H 2822.25 0.835218 -1.86776 0
M  V30 29955 H 2822.26 3.18454 -2.55051 0
M  V30 29956 H 2820.93 2.40128 -3.39575 0
M  V30 29957 H 2819.51 3.27377 -1.78546 0
M  V30 29958 N 2821.69 1.28226 0.916285 0
M  V30 29959 C 2822.64 1.11935 2.01839 0
M  V30 29960 C 2823.61 0.0171896 1.66091 0
M  V30 29961 O 2824.79 0.181651 1.89933 0
M  V30 29962 C 2821.93 0.784563 3.36063 0
M  V30 29963 C 2821.05 1.96551 3.84697 0
M  V30 29964 C 2820.18 1.57157 5.0742 0
M  V30 29965 C 2819.22 2.71932 5.48379 0
M  V30 29966 N 2818.36 2.33048 6.62294 0
M  V30 29967 H 2823.2 2.06236 2.15106 0
M  V30 29968 H 2820.74 1.02649 1.05364 0
M  V30 29969 H 2822.69 0.571221 4.13271 0
M  V30 29970 H 2821.32 -0.121508 3.22571 0
M  V30 29971 H 2820.38 2.29106 3.03669 0
M  V30 29972 H 2821.69 2.8261 4.11015 0
M  V30 29973 H 2820.84 1.32015 5.92163 0
M  V30 29974 H 2819.58 0.682238 4.82905 0
M  V30 29975 H 2818.59 2.97776 4.62179 0
M  V30 29976 H 2819.81 3.61504 5.74884 0
M  V30 29977 H 2817.76 1.46581 6.39414 0
M  V30 29978 H 2817.67 3.12643 6.88324 0
M  V30 29979 H 2818.94 2.11183 7.50348 0
M  V30 29980 N 2823.17 -1.12438 1.10433 0
M  V30 29981 C 2824.42 -1.83304 0.841572 0
M  V30 29982 C 2824.73 -1.85008 -0.634928 0
M  V30 29983 O 2825.94 -2.5187 -1.01359 0
M  V30 29984 C 2824.39 -3.29146 1.45571 0
M  V30 29985 C 2824 -3.35801 2.9655 0
M  V30 29986 C 2825.75 -4.04984 1.27234 0
M  V30 29987 C 2823.65 -4.75977 3.50998 0
M  V30 29988 H 2822.58 -0.686797 0.311168 0
M  V30 29989 H 2825.23 -1.26602 1.32831 0
M  V30 29990 H 2823.62 -3.85715 0.896642 0
M  V30 29991 H 2824.79 -2.89171 3.58771 0
M  V30 29992 H 2823.11 -2.73436 3.14041 0
M  V30 29993 H 2825.7 -5.08489 1.65357 0
M  V30 29994 H 2826.05 -4.1575 0.213907 0
M  V30 29995 H 2826.58 -3.54773 1.79947 0
M  V30 29996 H 2823.32 -4.70405 4.56507 0
M  V30 29997 H 2822.84 -5.2306 2.93544 0
M  V30 29998 H 2824.52 -5.44917 3.48818 0
M  V30 29999 N 2824.65 -0.893076 -1.29853 0
M  V30 30000 C 2826.06 -0.56503 -1.77945 0
M  V30 30001 C 2826.41 0.919104 -1.7334 0
M  V30 30002 O 2825.54 1.71845 -1.31523 0
M  V30 30003 C 2826.13 -1.01889 -3.23116 0
M  V30 30004 C 2824.69 -0.742116 -3.69012 0
M  V30 30005 C 2823.84 -1.19732 -2.50119 0
M  V30 30006 H 2826.79 -1.07648 -1.16609 0
M  V30 30007 H 2826.81 -0.351316 -3.78875 0
M  V30 30008 H 2826.32 -2.09909 -3.26435 0
M  V30 30009 H 2824.42 0.325751 -3.71173 0
M  V30 30010 H 2824.54 -1.33535 -4.60114 0
M  V30 30011 H 2822.9 -0.616461 -2.47127 0
M  V30 30012 H 2823.68 -2.28543 -2.5617 0
M  V30 30013 N 2826.13 1.4335 -0.654865 0
M  V30 30014 C 2827.09 2.29185 0.0263159 0
M  V30 30015 C 2828.09 1.42295 0.748926 0
M  V30 30016 O 2829.28 1.63907 0.589929 0
M  V30 30017 C 2826.41 3.24391 1.048 0
M  V30 30018 H 2827.61 2.90906 -0.728934 0
M  V30 30019 H 2825.16 1.50657 -0.416175 0
M  V30 30020 H 2825.89 2.67568 1.83243 0
M  V30 30021 H 2825.68 3.88454 0.533486 0
M  V30 30022 H 2827.17 3.88812 1.52365 0
M  V30 30023 N 2827.61 0.39689 1.52521 0
M  V30 30024 C 2828.54 -0.478887 2.23119 0
M  V30 30025 C 2829.52 -1.05794 1.23476 0
M  V30 30026 O 2830.7 -1.10814 1.52488 0
M  V30 30027 C 2827.83 -1.66357 2.9503 0
M  V30 30028 C 2826.87 -1.20906 4.09004 0
M  V30 30029 S 2827.71 -0.184312 5.35183 0
M  V30 30030 C 2828.86 -1.37461 6.10619 0
M  V30 30031 H 2829.1 0.120595 2.97055 0
M  V30 30032 H 2826.63 0.181117 1.53334 0
M  V30 30033 H 2828.59 -2.34295 3.3707 0
M  V30 30034 H 2827.25 -2.23437 2.2076 0
M  V30 30035 H 2826.44 -2.09381 4.58449 0
M  V30 30036 H 2826.04 -0.608495 3.69017 0
M  V30 30037 H 2828.33 -2.30037 6.37251 0
M  V30 30038 H 2829.28 -0.920927 7.02086 0
M  V30 30039 H 2829.69 -1.59485 5.41502 0
M  V30 30040 N 2829.08 -1.57088 0.126936 0
M  V30 30041 C 2830.01 -2.18748 -0.816808 0
M  V30 30042 C 2830.99 -1.12981 -1.27159 0
M  V30 30043 O 2832.18 -1.41248 -1.33277 0
M  V30 30044 C 2829.31 -2.79319 -2.06393 0
M  V30 30045 C 2828.26 -3.90738 -1.74666 0
M  V30 30046 C 2827.59 -4.38153 -3.06474 0
M  V30 30047 C 2828.89 -5.12465 -1.00881 0
M  V30 30048 H 2830.58 -2.97863 -0.30298 0
M  V30 30049 H 2828.13 -1.43275 -0.144289 0
M  V30 30050 H 2830.08 -3.21115 -2.72879 0
M  V30 30051 H 2828.81 -1.97505 -2.60114 0
M  V30 30052 H 2827.47 -3.49529 -1.10566 0
M  V30 30053 H 2827.11 -3.53187 -3.58145 0
M  V30 30054 H 2826.81 -5.13292 -2.86016 0
M  V30 30055 H 2828.34 -4.82605 -3.74065 0
M  V30 30056 H 2829.75 -5.51231 -1.57536 0
M  V30 30057 H 2828.15 -5.93238 -0.904902 0
M  V30 30058 H 2829.22 -4.849 0.00305858 0
M  V30 30059 N 2830.56 0.146848 -1.56914 0
M  V30 30060 C 2831.84 0.888134 -1.74274 0
M  V30 30061 C 2832.22 1.99331 -0.694995 0
M  V30 30062 O 2831.57 2.26702 0.286053 0
M  V30 30063 C 2831.78 1.43045 -3.18338 0
M  V30 30064 C 2833.12 1.8938 -3.80027 0
M  V30 30065 O 2834.15 1.52786 -3.21768 0
M  V30 30066 O 2833.01 2.56866 -4.82372 0
M  V30 30067 H 2830.1 0.419725 -0.712573 0
M  V30 30068 H 2832.65 0.132761 -1.6918 0
M  V30 30069 H 2831.42 0.636207 -3.86093 0
M  V30 30070 H 2831.04 2.24932 -3.27858 0
M  V30 30071 N 2832.04 1.52005 0.4162 0
M  V30 30072 C 2833.32 1.56274 1.17635 0
M  V30 30073 C 2833.7 0.339529 2.08352 0
M  V30 30074 O 2833.04 -0.674085 2.18331 0
M  V30 30075 C 2833.25 2.88778 1.95981 0
M  V30 30076 C 2834.6 3.41517 2.52293 0
M  V30 30077 O 2835.63 2.9047 2.06169 0
M  V30 30078 O 2834.49 4.30637 3.36473 0
M  V30 30079 H 2831.58 0.629179 0.536715 0
M  V30 30080 H 2834.13 1.64329 0.423554 0
M  V30 30081 H 2832.9 3.69257 1.29481 0
M  V30 30082 H 2832.52 2.83982 2.7828 0
M  V30 30083 N 2833.52 -0.672992 1.42508 0
M  V30 30084 C 2834.46 -1.78649 1.46127 0
M  V30 30085 C 2835.43 -1.63124 0.313036 0
M  V30 30086 O 2836.62 -1.83652 0.51737 0
M  V30 30087 C 2833.76 -3.16691 1.37116 0
M  V30 30088 C 2832.87 -3.4349 2.61989 0
M  V30 30089 C 2832.01 -4.71271 2.45107 0
M  V30 30090 C 2831.05 -4.9111 3.65345 0
M  V30 30091 N 2830.18 -6.10133 3.47394 0
M  V30 30092 H 2835.02 -1.7489 2.41283 0
M  V30 30093 H 2832.56 -0.853745 1.1979 0
M  V30 30094 H 2834.52 -3.96465 1.29888 0
M  V30 30095 H 2833.15 -3.19569 0.455546 0
M  V30 30096 H 2832.2 -2.57956 2.79576 0
M  V30 30097 H 2833.51 -3.54043 3.51361 0
M  V30 30098 H 2832.67 -5.59139 2.35475 0
M  V30 30099 H 2831.41 -4.63004 1.53227 0
M  V30 30100 H 2830.41 -4.01684 3.75407 0
M  V30 30101 H 2831.64 -5.01221 4.58208 0
M  V30 30102 H 2829.58 -6.03036 2.58233 0
M  V30 30103 H 2829.5 -6.21555 4.30355 0
M  V30 30104 H 2830.77 -7.00675 3.41578 0
M  V30 30105 N 2835 -1.2871 -0.909472 0
M  V30 30106 C 2836.24 -1.17371 -1.67342 0
M  V30 30107 C 2836.6 0.272385 -1.90058 0
M  V30 30108 O 2837.8 0.50857 -2.63945 0
M  V30 30109 C 2836.07 -1.95461 -2.99215 0
M  V30 30110 S 2837.63 -2.00544 -3.90291 0
M  V30 30111 H 2834.45 -0.418682 -0.574653 0
M  V30 30112 H 2837.05 -1.62867 -1.08141 0
M  V30 30113 H 2835.75 -2.99685 -2.80388 0
M  V30 30114 H 2835.29 -1.50531 -3.63461 0
M  V30 30115 H 2837.3 -1.11504 -4.83509 0
M  V30 30116 N 2836.47 1.1185 -1.11028 0
M  V30 30117 C 2837.72 1.82855 -0.851281 0
M  V30 30118 C 2838.04 1.85342 0.625108 0
M  V30 30119 O 2839.24 2.52404 1.00022 0
M  V30 30120 C 2837.7 3.28369 -1.47314 0
M  V30 30121 C 2837.31 3.34224 -2.98326 0
M  V30 30122 C 2839.05 4.04303 -1.2938 0
M  V30 30123 C 2836.96 4.74109 -3.53517 0
M  V30 30124 H 2835.89 0.685137 -0.314806 0
M  V30 30125 H 2838.54 1.25896 -1.33501 0
M  V30 30126 H 2836.92 3.85234 -0.917085 0
M  V30 30127 H 2838.09 2.87264 -3.603 0
M  V30 30128 H 2836.41 2.71767 -3.15486 0
M  V30 30129 H 2839.01 5.07605 -1.68051 0
M  V30 30130 H 2839.35 4.15631 -0.235952 0
M  V30 30131 H 2839.88 3.53814 -1.81826 0
M  V30 30132 H 2836.62 4.67978 -4.58996 0
M  V30 30133 H 2836.14 5.21496 -2.96314 0
M  V30 30134 H 2837.82 5.4306 -3.51703 0
M  V30 30135 N 2837.95 0.89995 1.29378 0
M  V30 30136 C 2838.88 0.322425 2.25911 0
M  V30 30137 C 2839.86 -0.56554 1.52448 0
M  V30 30138 O 2841.05 -0.512292 1.81405 0
M  V30 30139 C 2838.17 -0.540396 3.34361 0
M  V30 30140 C 2837.22 0.280286 4.25578 0
M  V30 30141 S 2838.05 1.67823 5.08523 0
M  V30 30142 C 2839.21 0.822333 6.20474 0
M  V30 30143 H 2839.44 1.14065 2.74548 0
M  V30 30144 H 2836.97 0.700309 1.37605 0
M  V30 30145 H 2838.93 -1.03243 3.97305 0
M  V30 30146 H 2837.59 -1.33286 2.84418 0
M  V30 30147 H 2836.79 -0.378827 5.02574 0
M  V30 30148 H 2836.39 0.705469 3.67286 0
M  V30 30149 H 2838.68 0.0458329 6.77484 0
M  V30 30150 H 2839.62 1.56439 6.90603 0
M  V30 30151 H 2840.03 0.376609 5.63242 0
M  V30 30152 N 2839.43 -1.43001 0.662458 0
M  V30 30153 C 2840.39 -2.29196 -0.0141613 0
M  V30 30154 C 2841.39 -1.4269 -0.741369 0
M  V30 30155 O 2842.58 -1.64217 -0.581228 0
M  V30 30156 C 2839.72 -3.24943 -1.03078 0
M  V30 30157 H 2840.91 -2.90516 0.744351 0
M  V30 30158 H 2838.46 -1.50435 0.424159 0
M  V30 30159 H 2839.2 -2.68536 -1.81821 0
M  V30 30160 H 2838.98 -3.88731 -0.512877 0
M  V30 30161 H 2840.47 -3.89614 -1.50301 0
M  V30 30162 N 2840.91 -0.404973 -1.52308 0
M  V30 30163 C 2842.16 0.172165 -2.01767 0
M  V30 30164 C 2842.48 1.45496 -1.29078 0
M  V30 30165 O 2841.74 1.91889 -0.384334 0
M  V30 30166 C 2842.04 0.470832 -3.54285 0
M  V30 30167 C 2841.7 -0.722273 -4.45078 0
M  V30 30168 C 2840.37 -1.04955 -4.69615 0
M  V30 30169 C 2842.72 -1.51971 -4.98552 0
M  V30 30170 C 2840.05 -2.17552 -5.44874 0
M  V30 30171 C 2842.4 -2.63642 -5.75044 0
M  V30 30172 C 2841.06 -2.9686 -5.97855 0
M  V30 30173 H 2840.33 0.0629995 -0.738317 0
M  V30 30174 H 2842.98 -0.545539 -1.83565 0
M  V30 30175 H 2841.28 1.27005 -3.70644 0
M  V30 30176 H 2842.98 0.930277 -3.9006 0
M  V30 30177 H 2839.57 -0.457206 -4.26154 0
M  V30 30178 H 2843.75 -1.2801 -4.79507 0
M  V30 30179 H 2839.01 -2.43641 -5.60757 0
M  V30 30180 H 2843.18 -3.25824 -6.15477 0
M  V30 30181 H 2840.81 -3.84226 -6.55953 0
M  V30 30182 N 2842.39 1.57018 -0.135265 0
M  V30 30183 C 2843.66 1.87317 0.563194 0
M  V30 30184 C 2844.04 1.03925 1.83747 0
M  V30 30185 O 2843.39 0.122715 2.2817 0
M  V30 30186 C 2843.6 3.38741 0.839972 0
M  V30 30187 C 2844.95 4.07702 1.18591 0
M  V30 30188 O 2845.97 3.43853 0.92971 0
M  V30 30189 O 2844.83 5.20439 1.66749 0
M  V30 30190 H 2841.93 0.775988 0.285957 0
M  V30 30191 H 2844.47 1.68836 -0.170994 0
M  V30 30192 H 2843.24 3.9125 -0.0623472 0
M  V30 30193 H 2842.87 3.62708 1.62875 0
M  V30 30194 N 2843.86 -0.138524 1.5699 0
M  V30 30195 C 2845.09 -0.863151 1.87705 0
M  V30 30196 C 2845.5 -1.74864 0.722442 0
M  V30 30197 O 2844.85 -1.80951 -0.316604 0
M  V30 30198 C 2844.91 -1.76443 3.13222 0
M  V30 30199 C 2844.57 -1.05524 4.4465 0
M  V30 30200 C 2845.57 -0.405161 5.18319 0
M  V30 30201 C 2843.25 -1.04223 4.91368 0
M  V30 30202 C 2845.25 0.248462 6.36916 0
M  V30 30203 C 2842.93 -0.384797 6.09887 0
M  V30 30204 C 2843.93 0.259412 6.82507 0
M  V30 30205 O 2843.62 0.906398 7.98774 0
M  V30 30206 H 2843.35 -0.25451 0.626259 0
M  V30 30207 H 2845.91 -0.133436 2.04966 0
M  V30 30208 H 2844.14 -2.5353 2.91992 0
M  V30 30209 H 2845.83 -2.36176 3.30115 0
M  V30 30210 H 2846.59 -0.406968 4.8329 0
M  V30 30211 H 2842.47 -1.53307 4.34762 0
M  V30 30212 H 2846.01 0.751877 6.93536 0
M  V30 30213 H 2841.91 -0.380686 6.44376 0
M  V30 30214 H 2842.68 0.808913 8.14493 0
M  V30 30215 N 2845.34 -1.52224 -0.408133 0
M  V30 30216 C 2846.57 -1.70181 -1.17669 0
M  V30 30217 C 2846.99 -0.411728 -1.84256 0
M  V30 30218 O 2846.34 0.612324 -1.71921 0
M  V30 30219 C 2846.39 -2.8381 -2.23906 0
M  V30 30220 O 2846.11 -4.07823 -1.60037 0
M  V30 30221 C 2847.62 -3.13286 -3.13634 0
M  V30 30222 H 2844.84 -0.5703 -0.353552 0
M  V30 30223 H 2847.38 -1.98786 -0.480048 0
M  V30 30224 H 2845.53 -2.57722 -2.89237 0
M  V30 30225 H 2845.95 -4.71149 -2.30476 0
M  V30 30226 H 2847.42 -3.96305 -3.84248 0
M  V30 30227 H 2847.9 -2.26879 -3.76062 0
M  V30 30228 H 2848.51 -3.41143 -2.53971 0
M  V30 30229 N 2846.82 0.665425 -1.42863 0
M  V30 30230 C 2847.77 1.79997 -1.47322 0
M  V30 30231 C 2848.76 1.65787 -0.347992 0
M  V30 30232 O 2849.97 1.72282 -0.521436 0
M  V30 30233 H 2846.34 0.593659 -0.461598 0
M  V30 30234 H 2848.31 1.73356 -2.42879 0
M  V30 30235 C 2847.06 3.182 -1.40157 0
M  V30 30236 H 2846.39 3.29766 -2.26041 0
M  V30 30237 H 2847.83 3.97577 -1.47338 0
M  V30 30238 C 2846.29 3.36695 -0.117552 0
M  V30 30239 O 2846.82 3.93116 0.825989 0
M  V30 30240 N 2845.02 2.90583 -0.0316729 0
M  V30 30241 H 2844.57 2.44853 -0.80029 0
M  V30 30242 H 2844.53 3.03334 0.826782 0
M  V30 30243 N 2848.3 1.29191 0.902633 0
M  V30 30244 C 2849.53 1.19698 1.68392 0
M  V30 30245 C 2849.94 -0.245351 1.87602 0
M  V30 30246 O 2849.28 -1.17645 1.41086 0
M  V30 30247 C 2849.34 1.83583 3.09091 0
M  V30 30248 C 2849.01 3.3287 3.13124 0
M  V30 30249 C 2850 4.29139 2.93489 0
M  V30 30250 C 2847.69 3.74019 3.35283 0
M  V30 30251 C 2849.68 5.64532 2.95943 0
M  V30 30252 C 2847.37 5.09535 3.37368 0
M  V30 30253 C 2848.37 6.04602 3.1772 0
M  V30 30254 O 2848.05 7.37644 3.19587 0
M  V30 30255 H 2847.79 0.416044 0.532807 0
M  V30 30256 H 2850.34 1.71035 1.13737 0
M  V30 30257 H 2848.57 1.26754 3.65336 0
M  V30 30258 H 2850.26 1.68453 3.69294 0
M  V30 30259 H 2851.03 3.98681 2.76185 0
M  V30 30260 H 2846.9 3.0048 3.49618 0
M  V30 30261 H 2850.45 6.38711 2.80525 0
M  V30 30262 H 2846.35 5.39639 3.54203 0
M  V30 30263 H 2847.11 7.46412 3.35874 0
M  V30 30264 N 2849.78 -1.1126 1.1162 0
M  V30 30265 C 2851.05 -1.79466 0.777907 0
M  V30 30266 C 2851.43 -1.97938 -0.73374 0
M  V30 30267 O 2850.78 -1.56557 -1.6644 0
M  V30 30268 C 2850.99 -3.1303 1.54316 0
M  V30 30269 C 2852.34 -3.88041 1.72364 0
M  V30 30270 O 2853.36 -3.22724 1.50756 0
M  V30 30271 O 2852.22 -5.05252 2.08284 0
M  V30 30272 H 2849.32 -0.777423 0.282032 0
M  V30 30273 H 2851.86 -1.17986 1.21973 0
M  V30 30274 H 2850.63 -2.94951 2.57137 0
M  V30 30275 H 2850.26 -3.82224 1.09501 0
M  V30 30276 N 2851.25 -0.906798 -1.28899 0
M  V30 30277 C 2852.5 -0.535301 -1.94882 0
M  V30 30278 C 2852.82 0.922761 -1.71785 0
M  V30 30279 O 2852.09 1.65154 -1.05361 0
M  V30 30280 H 2850.67 -0.194974 -0.721106 0
M  V30 30281 H 2853.34 -1.15464 -1.57016 0
M  V30 30282 H 2852.43 -0.723875 -3.03589 0
M  V30 30283 N 2852.73 1.42648 -0.670032 0
M  V30 30284 C 2853.96 2.06462 -0.196991 0
M  V30 30285 C 2854.38 1.49985 1.13517 0
M  V30 30286 O 2853.74 0.616427 1.70499 0
M  V30 30287 C 2853.79 3.60338 -0.137444 0
M  V30 30288 O 2852.89 4.02561 0.895452 0
M  V30 30289 H 2852.23 0.656027 -0.10259 0
M  V30 30290 H 2854.76 1.82864 -0.917701 0
M  V30 30291 H 2854.77 4.0798 0.0402908 0
M  V30 30292 H 2853.45 4.00818 -1.10984 0
M  V30 30293 H 2852.03 3.66477 0.689145 0
M  V30 30294 N 2854.21 0.413044 1.52091 0
M  V30 30295 C 2855.46 -0.162835 2.01042 0
M  V30 30296 C 2855.77 -1.45889 1.30291 0
M  V30 30297 O 2856.98 -2.11626 1.70078 0
M  V30 30298 C 2855.44 -0.340743 3.58283 0
M  V30 30299 C 2855.04 0.943454 4.37953 0
M  V30 30300 C 2856.79 -0.871701 4.15454 0
M  V30 30301 C 2854.69 0.73252 5.86846 0
M  V30 30302 H 2853.62 -0.0646281 0.751225 0
M  V30 30303 H 2856.28 0.53909 1.75403 0
M  V30 30304 H 2854.66 -1.10509 3.80268 0
M  V30 30305 H 2855.83 1.71425 4.27727 0
M  V30 30306 H 2854.15 1.40112 3.92119 0
M  V30 30307 H 2856.74 -1.04561 5.24377 0
M  V30 30308 H 2857.09 -1.84748 3.7306 0
M  V30 30309 H 2857.62 -0.166308 3.97452 0
M  V30 30310 H 2854.36 1.67997 6.33606 0
M  V30 30311 H 2853.88 0.00108549 5.998 0
M  V30 30312 H 2855.56 0.376219 6.45905 0
M  V30 30313 N 2855.69 -1.56945 0.143591 0
M  V30 30314 C 2856.64 -2.13162 -0.809077 0
M  V30 30315 C 2857.62 -1.05857 -1.21174 0
M  V30 30316 O 2858.82 -1.32042 -1.17873 0
M  V30 30317 C 2855.94 -2.75408 -2.04952 0
M  V30 30318 C 2855.03 -3.89831 -1.67011 0
M  V30 30319 N 2855.42 -4.95842 -0.998735 0
M  V30 30320 C 2853.72 -4.00475 -1.96306 0
M  V30 30321 C 2854.42 -5.75947 -0.816115 0
M  V30 30322 N 2853.4 -5.26598 -1.3489 0
M  V30 30323 H 2857.2 -2.92497 -0.286867 0
M  V30 30324 H 2854.71 -1.62296 -0.0580662 0
M  V30 30325 H 2856.71 -3.14042 -2.74196 0
M  V30 30326 H 2855.37 -1.97545 -2.57694 0
M  V30 30327 H 2856.38 -5.13679 -0.659884 0
M  V30 30328 H 2853.06 -3.33684 -2.50921 0
M  V30 30329 H 2854.45 -6.71286 -0.287235 0
M  V30 30330 N 2857.17 0.130197 -1.57061 0
M  V30 30331 C 2858.58 0.68853 -1.7354 0
M  V30 30332 C 2858.93 1.80858 -0.760586 0
M  V30 30333 O 2858.05 2.1629 0.0690416 0
M  V30 30334 C 2858.65 1.25575 -3.14668 0
M  V30 30335 C 2857.21 1.76049 -3.32692 0
M  V30 30336 C 2856.36 0.655664 -2.69437 0
M  V30 30337 H 2859.31 -0.095628 -1.58412 0
M  V30 30338 H 2859.33 2.1255 -3.15599 0
M  V30 30339 H 2858.84 0.440344 -3.85594 0
M  V30 30340 H 2856.94 2.60103 -2.66791 0
M  V30 30341 H 2857.05 1.87764 -4.40774 0
M  V30 30342 H 2855.42 1.0865 -2.30364 0
M  V30 30343 H 2856.2 -0.148581 -3.42978 0
M  V30 30344 N 2858.65 1.52438 0.400055 0
M  V30 30345 C 2859.89 1.66168 1.14329 0
M  V30 30346 C 2860.21 0.402287 1.91418 0
M  V30 30347 O 2861.41 0.419534 2.68239 0
M  V30 30348 C 2859.87 2.93614 2.08132 0
M  V30 30349 C 2859.48 4.26693 1.36517 0
M  V30 30350 C 2861.22 3.16708 2.82659 0
M  V30 30351 C 2859.13 5.45255 2.29021 0
M  V30 30352 H 2858.06 0.619028 0.430489 0
M  V30 30353 H 2860.71 1.7893 0.406985 0
M  V30 30354 H 2859.09 2.74572 2.85353 0
M  V30 30355 H 2860.27 4.5625 0.645981 0
M  V30 30356 H 2858.58 4.09773 0.739948 0
M  V30 30357 H 2861.18 4.02466 3.5203 0
M  V30 30358 H 2861.52 2.31318 3.46118 0
M  V30 30359 H 2862.05 3.36265 2.12535 0
M  V30 30360 H 2858.79 6.3302 1.70194 0
M  V30 30361 H 2858.31 5.20025 2.98887 0
M  V30 30362 H 2859.99 5.78694 2.89349 0
M  V30 30363 N 2860.12 -0.657839 1.43214 0
M  V30 30364 C 2861.37 -1.41826 1.45797 0
M  V30 30365 C 2861.72 -1.92237 0.0792514 0
M  V30 30366 O 2861.02 -1.69073 -0.901377 0
M  V30 30367 C 2861.21 -2.61943 2.43147 0
M  V30 30368 C 2861.04 -2.23288 3.90349 0
M  V30 30369 C 2859.81 -2.11835 4.58752 0
M  V30 30370 C 2862.01 -1.83864 4.80311 0
M  V30 30371 N 2859.99 -1.66463 5.90901 0
M  V30 30372 C 2861.36 -1.49539 6.01696 0
M  V30 30373 C 2863.42 -1.71006 4.67612 0
M  V30 30374 C 2862.12 -1.03644 7.11794 0
M  V30 30375 C 2864.15 -1.26517 5.77709 0
M  V30 30376 C 2863.51 -0.931256 6.98217 0
M  V30 30377 H 2859.61 -0.514812 0.588637 0
M  V30 30378 H 2862.19 -0.757469 1.79361 0
M  V30 30379 H 2860.36 -3.25688 2.11617 0
M  V30 30380 H 2862.09 -3.28622 2.36199 0
M  V30 30381 H 2858.85 -2.31446 4.13194 0
M  V30 30382 H 2859.27 -1.46151 6.61036 0
M  V30 30383 H 2863.91 -1.95463 3.74905 0
M  V30 30384 H 2861.63 -0.779361 8.04333 0
M  V30 30385 H 2865.22 -1.17064 5.69901 0
M  V30 30386 H 2864.1 -0.592242 7.8196 0
M  V30 30387 N 2861.6 -1.29668 -0.895769 0
M  V30 30388 C 2862.85 -1.17867 -1.64662 0
M  V30 30389 C 2863.18 0.268986 -1.92631 0
M  V30 30390 O 2862.43 1.21026 -1.53789 0
M  V30 30391 C 2862.73 -1.94144 -3.00071 0
M  V30 30392 C 2862.4 -3.43838 -2.91696 0
M  V30 30393 C 2861.06 -3.84661 -2.89119 0
M  V30 30394 C 2863.41 -4.3921 -2.80614 0
M  V30 30395 C 2860.74 -5.19165 -2.73284 0
M  V30 30396 C 2863.09 -5.73809 -2.66319 0
M  V30 30397 C 2861.75 -6.13885 -2.6211 0
M  V30 30398 H 2861.02 -0.431306 -0.602541 0
M  V30 30399 H 2863.67 -1.60649 -1.04231 0
M  V30 30400 H 2861.98 -1.43964 -3.64392 0
M  V30 30401 H 2863.67 -1.82415 -3.57108 0
M  V30 30402 H 2860.26 -3.11391 -2.94506 0
M  V30 30403 H 2864.45 -4.0862 -2.81679 0
M  V30 30404 H 2859.7 -5.49321 -2.68433 0
M  V30 30405 H 2863.88 -6.47356 -2.56716 0
M  V30 30406 H 2861.5 -7.18056 -2.49598 0
M  V30 30407 N 2863.08 1.10667 -1.12208 0
M  V30 30408 C 2863.99 2.20512 -0.800724 0
M  V30 30409 C 2865.01 1.72734 0.209482 0
M  V30 30410 O 2866.18 2.01353 0.0436696 0
M  V30 30411 C 2863.25 3.45743 -0.257414 0
M  V30 30412 C 2862.31 4.08268 -1.32725 0
M  V30 30413 C 2861.54 5.27521 -0.809767 0
M  V30 30414 O 2861.76 5.6928 0.35732 0
M  V30 30415 O 2860.7 5.80839 -1.57826 0
M  V30 30416 H 2864.52 2.50429 -1.71811 0
M  V30 30417 H 2862.11 1.19357 -0.898567 0
M  V30 30418 H 2863.99 4.2138 0.0408108 0
M  V30 30419 H 2862.67 3.17459 0.632572 0
M  V30 30420 H 2861.57 3.34326 -1.6786 0
M  V30 30421 H 2862.91 4.40749 -2.19091 0
M  V30 30422 N 2864.56 0.913621 1.28416 0
M  V30 30423 C 2865.52 0.406663 2.25563 0
M  V30 30424 C 2866.52 -0.466938 1.53871 0
M  V30 30425 O 2867.71 -0.270012 1.72095 0
M  V30 30426 C 2864.84 -0.416993 3.3834 0
M  V30 30427 H 2866.04 1.26482 2.71923 0
M  V30 30428 H 2863.59 0.693011 1.40097 0
M  V30 30429 H 2864.32 -1.29456 2.97341 0
M  V30 30430 H 2864.11 0.209171 3.91542 0
M  V30 30431 H 2865.6 -0.76253 4.10579 0
M  V30 30432 N 2866.04 -1.4229 0.677588 0
M  V30 30433 C 2866.97 -2.33495 0.0150091 0
M  V30 30434 C 2867.95 -1.50833 -0.786349 0
M  V30 30435 O 2869.13 -1.79427 -0.742943 0
M  V30 30436 C 2866.26 -3.34478 -0.934964 0
M  V30 30437 C 2865.22 -4.27315 -0.241999 0
M  V30 30438 C 2864.54 -5.18528 -1.3051 0
M  V30 30439 C 2865.84 -5.14821 0.880694 0
M  V30 30440 H 2867.54 -2.89149 0.776722 0
M  V30 30441 H 2865.08 -1.39032 0.374964 0
M  V30 30442 H 2867.03 -3.97196 -1.40759 0
M  V30 30443 H 2865.76 -2.77134 -1.72813 0
M  V30 30444 H 2864.42 -3.65996 0.210415 0
M  V30 30445 H 2864.07 -4.57509 -2.09033 0
M  V30 30446 H 2863.77 -5.8147 -0.846549 0
M  V30 30447 H 2865.29 -5.84122 -1.7786 0
M  V30 30448 H 2866.7 -5.71209 0.489163 0
M  V30 30449 H 2865.1 -5.86611 1.26521 0
M  V30 30450 H 2866.17 -4.53056 1.72826 0
M  V30 30451 N 2867.51 -0.421104 -1.5187 0
M  V30 30452 C 2868.46 0.398468 -2.27334 0
M  V30 30453 C 2869.43 1.03083 -1.30243 0
M  V30 30454 O 2870.62 1.05283 -1.59123 0
M  V30 30455 C 2867.76 1.50267 -3.10667 0
M  V30 30456 C 2866.87 0.890048 -4.22732 0
M  V30 30457 C 2866 1.96794 -4.93402 0
M  V30 30458 C 2865.04 1.33289 -5.97411 0
M  V30 30459 N 2864.18 2.35144 -6.61552 0
M  V30 30460 H 2869.02 -0.251464 -2.96937 0
M  V30 30461 H 2866.56 -0.13585 -1.46471 0
M  V30 30462 H 2868.51 2.15397 -3.57295 0
M  V30 30463 H 2867.14 2.12246 -2.43211 0
M  V30 30464 H 2866.2 0.12747 -3.80186 0
M  V30 30465 H 2867.51 0.386262 -4.97302 0
M  V30 30466 H 2866.66 2.69624 -5.43496 0
M  V30 30467 H 2865.4 2.50542 -4.18426 0
M  V30 30468 H 2864.41 0.589983 -5.46625 0
M  V30 30469 H 2865.63 0.802958 -6.74336 0
M  V30 30470 H 2863.58 2.88002 -5.89399 0
M  V30 30471 H 2863.49 1.89612 -7.31836 0
M  V30 30472 H 2864.76 3.07507 -7.16282 0
M  V30 30473 N 2868.99 1.56866 -0.151912 0
M  V30 30474 C 2869.92 2.14145 0.81697 0
M  V30 30475 C 2870.94 1.09212 1.20733 0
M  V30 30476 O 2872.13 1.36471 1.15056 0
M  V30 30477 C 2869.23 2.6533 2.1084 0
M  V30 30478 C 2868.4 3.94715 1.88464 0
M  V30 30479 C 2867.46 4.3116 3.01641 0
M  V30 30480 O 2866.48 4.99395 2.73118 0
M  V30 30481 N 2867.69 3.9114 4.2894 0
M  V30 30482 H 2870.45 2.97906 0.327395 0
M  V30 30483 H 2868.01 1.61869 0.0315028 0
M  V30 30484 H 2870 2.8672 2.85611 0
M  V30 30485 H 2868.57 1.86266 2.51045 0
M  V30 30486 H 2867.79 3.819 0.977021 0
M  V30 30487 H 2869.08 4.79255 1.70857 0
M  V30 30488 H 2868.48 3.36169 4.5498 0
M  V30 30489 H 2867.04 4.17572 5.00477 0
M  V30 30490 N 2870.47 -0.121866 1.57128 0
M  V30 30491 C 2871.72 -0.831386 1.84975 0
M  V30 30492 C 2872.05 -1.79662 0.737236 0
M  V30 30493 O 2871.32 -1.92792 -0.257165 0
M  V30 30494 C 2871.61 -1.58381 3.234 0
M  V30 30495 C 2871.46 -0.638367 4.45247 0
M  V30 30496 C 2872.78 -2.54064 3.5936 0
M  V30 30497 H 2869.9 -0.300791 0.672825 0
M  V30 30498 H 2872.54 -0.0957254 1.89759 0
M  V30 30499 H 2870.69 -2.21093 3.19453 0
M  V30 30500 H 2872.36 -0.0203115 4.61296 0
M  V30 30501 H 2870.61 0.0503062 4.33771 0
M  V30 30502 H 2871.28 -1.20141 5.38767 0
M  V30 30503 H 2873.75 -2.01459 3.64079 0
M  V30 30504 H 2872.63 -3.03744 4.57199 0
M  V30 30505 H 2872.89 -3.36596 2.86628 0
M  V30 30506 N 2871.95 -1.52648 -0.391965 0
M  V30 30507 C 2872.88 -1.80183 -1.48514 0
M  V30 30508 C 2873.86 -0.653694 -1.57038 0
M  V30 30509 O 2875.04 -0.900992 -1.72034 0
M  V30 30510 C 2872.17 -1.96802 -2.86158 0
M  V30 30511 C 2871.13 -3.12477 -2.92476 0
M  V30 30512 C 2870.45 -3.14345 -4.3254 0
M  V30 30513 C 2871.75 -4.51606 -2.62392 0
M  V30 30514 H 2873.45 -2.71725 -1.25721 0
M  V30 30515 H 2870.99 -1.3075 -0.603364 0
M  V30 30516 H 2872.95 -2.14647 -3.62635 0
M  V30 30517 H 2871.67 -1.01946 -3.10281 0
M  V30 30518 H 2870.33 -2.9441 -2.18445 0
M  V30 30519 H 2869.98 -2.17178 -4.53699 0
M  V30 30520 H 2869.68 -3.92049 -4.37688 0
M  V30 30521 H 2871.2 -3.34342 -5.10928 0
M  V30 30522 H 2872.62 -4.6979 -3.28588 0
M  V30 30523 H 2871.01 -5.31355 -2.78894 0
M  V30 30524 H 2872.08 -4.58524 -1.57746 0
M  V30 30525 N 2873.43 0.650235 -1.43561 0
M  V30 30526 C 2874.67 1.41219 -1.45551 0
M  V30 30527 C 2875.01 1.94033 -0.0805813 0
M  V30 30528 O 2874.28 1.72476 0.899013 0
M  V30 30529 C 2874.56 2.59144 -2.50033 0
M  V30 30530 C 2874.42 2.11803 -3.96812 0
M  V30 30531 C 2875.74 3.61355 -2.51218 0
M  V30 30532 H 2872.85 0.512146 -0.529976 0
M  V30 30533 H 2875.5 0.736902 -1.75128 0
M  V30 30534 H 2873.65 3.16754 -2.24943 0
M  V30 30535 H 2875.32 1.59171 -4.32969 0
M  V30 30536 H 2873.56 1.43149 -4.09501 0
M  V30 30537 H 2874.23 2.96617 -4.65535 0
M  V30 30538 H 2876.71 3.1351 -2.73589 0
M  V30 30539 H 2875.58 4.41413 -3.2626 0
M  V30 30540 H 2875.85 4.14147 -1.54708 0
M  V30 30541 N 2874.9 1.30141 0.88888 0
M  V30 30542 C 2876.18 1.09402 1.62143 0
M  V30 30543 C 2876.56 -0.358055 2.08041 0
M  V30 30544 O 2875.91 -1.34885 1.84441 0
M  V30 30545 C 2876.12 2.09138 2.79396 0
M  V30 30546 C 2877.47 2.40644 3.49822 0
M  V30 30547 O 2878.49 2.07417 2.8958 0
M  V30 30548 O 2877.35 2.97464 4.58451 0
M  V30 30549 H 2874.44 0.419903 0.712468 0
M  V30 30550 H 2876.99 1.41553 0.935999 0
M  V30 30551 H 2875.76 3.06895 2.42757 0
M  V30 30552 H 2875.39 1.77782 3.55639 0
M  V30 30553 N 2876.38 -1.1007 1.12794 0
M  V30 30554 C 2877.31 -2.18563 0.821727 0
M  V30 30555 C 2878.29 -1.68722 -0.21609 0
M  V30 30556 O 2879.48 -1.94049 -0.076459 0
M  V30 30557 C 2876.61 -3.46172 0.279685 0
M  V30 30558 C 2875.56 -4.09309 1.25099 0
M  V30 30559 C 2874.89 -5.31664 0.56901 0
M  V30 30560 C 2876.19 -4.52581 2.60706 0
M  V30 30561 H 2877.88 -2.44435 1.72893 0
M  V30 30562 H 2875.43 -1.17481 0.832723 0
M  V30 30563 H 2877.38 -4.21366 0.0531731 0
M  V30 30564 H 2876.11 -3.19802 -0.662872 0
M  V30 30565 H 2874.76 -3.36126 1.46338 0
M  V30 30566 H 2874.41 -5.01572 -0.37881 0
M  V30 30567 H 2874.11 -5.7486 1.21697 0
M  V30 30568 H 2875.64 -6.09587 0.351624 0
M  V30 30569 H 2877.05 -5.19031 2.43474 0
M  V30 30570 H 2875.45 -5.06639 3.21616 0
M  V30 30571 H 2876.52 -3.65311 3.18867 0
M  V30 30572 N 2877.86 -0.920419 -1.2793 0
M  V30 30573 C 2879.09 -0.572514 -1.99342 0
M  V30 30574 C 2879.51 0.840666 -1.68269 0
M  V30 30575 O 2878.87 1.56292 -0.918832 0
M  V30 30576 C 2878.92 -0.796346 -3.51697 0
M  V30 30577 O 2878.02 0.141529 -4.12157 0
M  V30 30578 H 2877.36 -0.221232 -0.626061 0
M  V30 30579 H 2879.89 -1.23768 -1.62919 0
M  V30 30580 H 2879.9 -0.709055 -4.01792 0
M  V30 30581 H 2878.58 -1.82651 -3.73646 0
M  V30 30582 H 2877.15 0.00494146 -3.729 0
M  V30 30583 N 2879.34 1.41929 -0.685124 0
M  V30 30584 C 2880.59 2.0139 -0.211693 0
M  V30 30585 C 2880.91 1.54216 1.18523 0
M  V30 30586 O 2880.17 0.739551 1.81188 0
M  V30 30587 C 2880.47 3.56805 -0.206217 0
M  V30 30588 C 2880.13 4.2345 -1.54922 0
M  V30 30589 C 2878.8 4.4137 -1.91692 0
M  V30 30590 C 2881.15 4.60915 -2.43325 0
M  V30 30591 C 2878.48 4.94028 -3.16469 0
M  V30 30592 C 2880.83 5.14958 -3.67424 0
M  V30 30593 C 2879.49 5.3109 -4.0435 0
M  V30 30594 H 2878.76 0.73694 -0.077464 0
M  V30 30595 H 2881.41 1.69972 -0.882151 0
M  V30 30596 H 2879.71 3.87952 0.547773 0
M  V30 30597 H 2881.41 4.00607 0.17746 0
M  V30 30598 H 2878 4.09869 -1.25321 0
M  V30 30599 H 2882.18 4.46734 -2.162 0
M  V30 30600 H 2877.44 5.04703 -3.45087 0
M  V30 30601 H 2881.61 5.4293 -4.36119 0
M  V30 30602 H 2879.24 5.71657 -5.01111 0
M  V30 30603 N 2880.82 0.429152 1.51644 0
M  V30 30604 C 2881.76 -0.400881 2.29119 0
M  V30 30605 C 2882.76 -1.02817 1.34629 0
M  V30 30606 O 2883.96 -0.964071 1.52005 0
M  V30 30607 H 2880.34 -0.148082 0.737276 0
M  V30 30608 H 2882.31 0.27351 2.97144 0
M  V30 30609 C 2881.06 -1.49423 3.13955 0
M  V30 30610 H 2880.38 -1.0209 3.86546 0
M  V30 30611 H 2881.82 -2.04842 3.71235 0
M  V30 30612 C 2880.28 -2.47289 2.28801 0
M  V30 30613 O 2880.81 -3.51638 1.94199 0
M  V30 30614 N 2879.02 -2.17979 1.92181 0
M  V30 30615 H 2878.56 -1.33151 2.20519 0
M  V30 30616 H 2878.52 -2.83702 1.35502 0
M  V30 30617 N 2882.29 -1.56783 0.160229 0
M  V30 30618 C 2883.71 -1.83228 -0.358384 0
M  V30 30619 C 2884.06 -1.07955 -1.6383 0
M  V30 30620 O 2883.18 -0.329032 -2.13884 0
M  V30 30621 C 2883.78 -3.32369 -0.657 0
M  V30 30622 C 2882.34 -3.59348 -1.12009 0
M  V30 30623 C 2881.48 -2.76893 -0.150102 0
M  V30 30624 H 2884.43 -1.53967 0.384696 0
M  V30 30625 H 2884.45 -3.49244 -1.51027 0
M  V30 30626 H 2883.97 -3.87126 0.274715 0
M  V30 30627 H 2882.07 -3.0999 -2.06729 0
M  V30 30628 H 2882.18 -4.67744 -1.03692 0
M  V30 30629 H 2880.54 -2.46389 -0.645318 0
M  V30 30630 H 2881.33 -3.34428 0.775438 0
M  V30 30631 N 2883.77 0.113531 -1.57191 0
M  V30 30632 C 2885 0.834389 -1.89329 0
M  V30 30633 C 2885.42 1.73175 -0.752049 0
M  V30 30634 O 2884.77 1.80387 0.276881 0
M  V30 30635 C 2884.82 1.66324 -3.20965 0
M  V30 30636 O 2884.55 0.801993 -4.30697 0
M  V30 30637 C 2886.05 2.48877 -3.66845 0
M  V30 30638 H 2883.27 0.239576 -0.626773 0
M  V30 30639 H 2885.81 0.0962836 -2.04273 0
M  V30 30640 H 2883.97 2.35404 -3.07675 0
M  V30 30641 H 2884.38 1.37422 -5.06177 0
M  V30 30642 H 2885.85 3.02555 -4.61697 0
M  V30 30643 H 2886.33 3.2649 -2.93771 0
M  V30 30644 H 2886.94 1.85029 -3.82942 0
M  V30 30645 N 2885.25 1.52854 0.383864 0
M  V30 30646 C 2886.18 1.80968 1.47556 0
M  V30 30647 C 2887.16 0.662013 1.56689 0
M  V30 30648 O 2888.35 0.910103 1.71554 0
M  V30 30649 C 2885.48 1.98317 2.8511 0
M  V30 30650 C 2884.43 3.14024 2.90814 0
M  V30 30651 C 2883.76 3.16635 4.30867 0
M  V30 30652 C 2885.06 4.52991 2.59993 0
M  V30 30653 H 2886.75 2.72388 1.24278 0
M  V30 30654 H 2884.3 1.31068 0.596422 0
M  V30 30655 H 2886.25 2.16568 3.61492 0
M  V30 30656 H 2884.97 1.0359 3.09736 0
M  V30 30657 H 2883.63 2.95564 2.16881 0
M  V30 30658 H 2883.28 2.19581 4.52541 0
M  V30 30659 H 2882.98 3.94365 4.35603 0
M  V30 30660 H 2884.51 3.37047 5.09148 0
M  V30 30661 H 2885.92 4.71526 3.26092 0
M  V30 30662 H 2884.32 5.32827 2.76072 0
M  V30 30663 H 2885.39 4.59354 1.55312 0
M  V30 30664 N 2886.73 -0.642612 1.43904 0
M  V30 30665 C 2887.98 -1.39828 1.45365 0
M  V30 30666 C 2888.29 -1.95412 0.0856633 0
M  V30 30667 O 2889.5 -2.71491 -0.0222379 0
M  V30 30668 C 2887.95 -2.53107 2.55861 0
M  V30 30669 C 2887.56 -2.04085 3.98815 0
M  V30 30670 C 2889.31 -3.30397 2.66529 0
M  V30 30671 C 2887.21 -3.14638 5.00756 0
M  V30 30672 H 2886.14 -0.52542 0.540786 0
M  V30 30673 H 2888.79 -0.692529 1.6993 0
M  V30 30674 H 2887.18 -3.26203 2.24516 0
M  V30 30675 H 2888.35 -1.3793 4.39673 0
M  V30 30676 H 2886.66 -1.39644 3.92286 0
M  V30 30677 H 2889.26 -4.1279 3.39865 0
M  V30 30678 H 2889.6 -3.79126 1.71956 0
M  V30 30679 H 2890.14 -2.64386 2.97228 0
M  V30 30680 H 2886.88 -2.70866 5.96919 0
M  V30 30681 H 2886.4 -3.79471 4.64501 0
M  V30 30682 H 2888.08 -3.796 5.2394 0
M  V30 30683 N 2888.21 -1.30611 -0.881966 0
M  V30 30684 C 2889.48 -1.10261 -1.61561 0
M  V30 30685 C 2889.86 0.347017 -2.08228 0
M  V30 30686 O 2889.21 1.33905 -1.85153 0
M  V30 30687 C 2889.42 -2.10617 -2.78283 0
M  V30 30688 C 2890.77 -2.42496 -3.48541 0
M  V30 30689 O 2891.79 -2.0895 -2.88476 0
M  V30 30690 O 2890.65 -2.99891 -4.56867 0
M  V30 30691 H 2887.75 -0.423675 -0.710231 0
M  V30 30692 H 2890.29 -1.42047 -0.928478 0
M  V30 30693 H 2889.07 -3.08179 -2.41126 0
M  V30 30694 H 2888.69 -1.79665 -3.54692 0
M  V30 30695 N 2889.69 1.0947 -1.13376 0
M  V30 30696 C 2891.1 1.33681 -0.87187 0
M  V30 30697 C 2891.3 1.95381 0.492812 0
M  V30 30698 O 2890.36 2.19988 1.23943 0
M  V30 30699 C 2891.67 2.2489 -1.99612 0
M  V30 30700 C 2893.22 2.384 -2.02816 0
M  V30 30701 C 2893.69 3.32945 -3.14503 0
M  V30 30702 N 2895.18 3.40517 -3.1401 0
M  V30 30703 C 2895.92 4.13672 -3.97068 0
M  V30 30704 N 2895.42 4.89627 -4.9014 0
M  V30 30705 N 2897.21 4.09392 -3.85169 0
M  V30 30706 H 2889.36 0.677959 -2.0129 0
M  V30 30707 H 2891.62 0.361185 -0.876498 0
M  V30 30708 H 2891.33 1.86781 -2.98003 0
M  V30 30709 H 2891.2 3.25275 -1.90987 0
M  V30 30710 H 2893.59 2.75773 -1.05038 0
M  V30 30711 H 2893.67 1.37795 -2.15513 0
M  V30 30712 H 2893.31 2.96295 -4.12519 0
M  V30 30713 H 2893.24 4.33452 -2.99043 0
M  V30 30714 H 2895.74 2.86358 -2.46592 0
M  V30 30715 H 2896.05 5.42876 -5.50005 0
M  V30 30716 H 2894.39 4.88717 -4.94146 0
M  V30 30717 H 2897.58 3.49153 -3.11785 0
M  V30 30718 H 2897.76 4.66143 -4.50128 0
M  V30 30719 N 2891.16 0.92719 1.2744 0
M  V30 30720 C 2892.09 0.443228 2.29255 0
M  V30 30721 C 2893.07 -0.496211 1.62701 0
M  V30 30722 O 2894.26 -0.401071 1.90013 0
M  V30 30723 C 2891.39 -0.305305 3.45955 0
M  V30 30724 C 2890.34 0.546252 4.245 0
M  V30 30725 C 2889.67 -0.331418 5.33672 0
M  V30 30726 C 2890.97 1.81046 4.89918 0
M  V30 30727 H 2892.66 1.29413 2.69986 0
M  V30 30728 H 2890.21 0.623727 1.29791 0
M  V30 30729 H 2892.16 -0.654812 4.16281 0
M  V30 30730 H 2890.89 -1.19023 3.0414 0
M  V30 30731 H 2889.55 0.87846 3.55919 0
M  V30 30732 H 2889.19 -1.21528 4.88098 0
M  V30 30733 H 2888.89 0.234849 5.8713 0
M  V30 30734 H 2890.42 -0.676508 6.06841 0
M  V30 30735 H 2891.83 1.52905 5.52533 0
M  V30 30736 H 2890.23 2.32019 5.53432 0
M  V30 30737 H 2891.3 2.53028 4.13648 0
M  V30 30738 N 2892.64 -1.41564 0.692641 0
M  V30 30739 C 2893.88 -2.03141 0.226488 0
M  V30 30740 C 2894.25 -1.53662 -1.15118 0
M  V30 30741 O 2895.45 -2.07146 -1.71301 0
M  V30 30742 C 2893.72 -3.56312 0.278612 0
M  V30 30743 S 2895.28 -4.38652 -0.113924 0
M  V30 30744 H 2892.09 -0.705089 0.0914891 0
M  V30 30745 H 2894.7 -1.73042 0.909767 0
M  V30 30746 H 2893.4 -3.89819 1.28332 0
M  V30 30747 H 2892.93 -3.91109 -0.423912 0
M  V30 30748 H 2894.95 -4.77695 -1.34248 0
M  V30 30749 N 2894.12 -0.437188 -1.51415 0
M  V30 30750 C 2895.07 0.374334 -2.27744 0
M  V30 30751 C 2896.04 1.01696 -1.31329 0
M  V30 30752 O 2897.22 1.03589 -1.60231 0
M  V30 30753 C 2894.36 1.46963 -3.12243 0
M  V30 30754 C 2893.47 0.845161 -4.23652 0
M  V30 30755 C 2892.61 1.9155 -4.95462 0
M  V30 30756 C 2891.65 1.26945 -5.98792 0
M  V30 30757 N 2890.79 2.28114 -6.64009 0
M  V30 30758 H 2895.63 -0.282944 -2.96654 0
M  V30 30759 H 2893.16 -0.151378 -1.46319 0
M  V30 30760 H 2895.12 2.11595 -3.5956 0
M  V30 30761 H 2893.75 2.09654 -2.45448 0
M  V30 30762 H 2892.8 0.0871391 -3.803 0
M  V30 30763 H 2894.11 0.333494 -4.97684 0
M  V30 30764 H 2893.27 2.63844 -5.46325 0
M  V30 30765 H 2892.01 2.46089 -4.2106 0
M  V30 30766 H 2891.01 0.531973 -5.4722 0
M  V30 30767 H 2892.24 0.73139 -6.7515 0
M  V30 30768 H 2890.18 2.81734 -5.9242 0
M  V30 30769 H 2890.1 1.81839 -7.33806 0
M  V30 30770 H 2891.37 2.99893 -7.19503 0
M  V30 30771 N 2895.6 1.56696 -0.168541 0
M  V30 30772 C 2896.82 2.0161 0.486653 0
M  V30 30773 C 2897.25 1.04799 1.56201 0
M  V30 30774 O 2896.61 0.0270914 1.8128 0
M  V30 30775 C 2896.65 3.45143 1.04445 0
M  V30 30776 O 2895.76 3.51397 2.15856 0
M  V30 30777 H 2895.1 0.653643 0.116819 0
M  V30 30778 H 2897.63 2.02789 -0.271615 0
M  V30 30779 H 2897.64 3.84391 1.36775 0
M  V30 30780 H 2896.31 4.15105 0.257082 0
M  V30 30781 H 2894.89 3.24007 1.84591 0
M  V30 30782 N 2897.08 -0.105193 1.57249 0
M  V30 30783 C 2898.02 -1.12832 2.0134 0
M  V30 30784 C 2898.99 -1.40375 0.887922 0
M  V30 30785 O 2900.18 -1.52008 1.15318 0
M  V30 30786 C 2897.32 -2.44607 2.43437 0
M  V30 30787 C 2896.43 -2.23881 3.69461 0
M  V30 30788 C 2895.57 -3.48984 4.00479 0
M  V30 30789 C 2894.6 -3.23476 5.19644 0
M  V30 30790 N 2893.74 -4.40818 5.46465 0
M  V30 30791 H 2898.58 -0.745336 2.88529 0
M  V30 30792 H 2896.12 -0.35651 1.42714 0
M  V30 30793 H 2898.08 -3.21498 2.65885 0
M  V30 30794 H 2896.71 -2.80771 1.59271 0
M  V30 30795 H 2895.76 -1.37841 3.54548 0
M  V30 30796 H 2897.07 -2.01018 4.56501 0
M  V30 30797 H 2896.22 -4.34288 4.2365 0
M  V30 30798 H 2894.96 -3.74892 3.11941 0
M  V30 30799 H 2893.97 -2.36565 4.96303 0
M  V30 30800 H 2895.19 -2.98925 6.09771 0
M  V30 30801 H 2893.14 -4.66821 4.60885 0
M  V30 30802 H 2893.06 -4.21109 6.27856 0
M  V30 30803 H 2894.32 -5.27215 5.74164 0
M  V30 30804 N 2898.55 -1.53055 -0.375752 0
M  V30 30805 C 2899.5 -1.75154 -1.45962 0
M  V30 30806 C 2900.49 -0.605849 -1.49058 0
M  V30 30807 O 2901.68 -0.86416 -1.54471 0
M  V30 30808 C 2898.81 -1.93574 -2.83521 0
M  V30 30809 C 2897.9 -3.14115 -2.84943 0
M  V30 30810 N 2898.29 -4.36218 -2.56022 0
M  V30 30811 C 2896.58 -3.1463 -3.16107 0
M  V30 30812 C 2897.29 -5.17901 -2.64864 0
M  V30 30813 N 2896.26 -4.53883 -2.99151 0
M  V30 30814 H 2900.06 -2.67177 -1.22449 0
M  V30 30815 H 2897.58 -1.51542 -0.58384 0
M  V30 30816 H 2899.57 -2.07531 -3.61575 0
M  V30 30817 H 2898.23 -1.02773 -3.08006 0
M  V30 30818 H 2899.25 -4.64125 -2.298 0
M  V30 30819 H 2895.92 -2.33686 -3.45973 0
M  V30 30820 H 2897.31 -6.25272 -2.45936 0
M  V30 30821 N 2900.03 0.634971 -1.44242 0
M  V30 30822 C 2901.28 1.39055 -1.46104 0
M  V30 30823 C 2901.59 1.95364 -0.0960253 0
M  V30 30824 O 2902.8 2.71499 0.00783979 0
M  V30 30825 C 2901.26 2.51747 -2.572 0
M  V30 30826 C 2900.86 2.01967 -3.99891 0
M  V30 30827 C 2902.61 3.28979 -2.68278 0
M  V30 30828 C 2900.52 3.11978 -5.02418 0
M  V30 30829 H 2899.45 0.522545 -0.543565 0
M  V30 30830 H 2902.1 0.683508 -1.70295 0
M  V30 30831 H 2900.48 3.25008 -2.26242 0
M  V30 30832 H 2901.65 1.35596 -4.40398 0
M  V30 30833 H 2899.97 1.37561 -3.93021 0
M  V30 30834 H 2902.56 4.10982 -3.42049 0
M  V30 30835 H 2902.91 3.78209 -1.73964 0
M  V30 30836 H 2903.44 2.62806 -2.98626 0
M  V30 30837 H 2900.18 2.67696 -5.98347 0
M  V30 30838 H 2899.7 3.77003 -4.66507 0
M  V30 30839 H 2901.38 3.76816 -5.25946 0
M  V30 30840 N 2901.51 1.31076 0.875027 0
M  V30 30841 C 2902.76 1.20472 1.62766 0
M  V30 30842 C 2903.09 -0.238307 1.93035 0
M  V30 30843 O 2902.34 -1.18564 1.55695 0
M  V30 30844 C 2902.64 1.98894 2.96945 0
M  V30 30845 C 2902.31 3.48435 2.86189 0
M  V30 30846 C 2900.97 3.89212 2.82963 0
M  V30 30847 C 2903.32 4.43618 2.73591 0
M  V30 30848 C 2900.65 5.23447 2.6499 0
M  V30 30849 C 2903 5.77974 2.57156 0
M  V30 30850 C 2901.66 6.17977 2.5231 0
M  V30 30851 H 2900.93 0.440837 0.595603 0
M  V30 30852 H 2903.58 1.62287 1.01662 0
M  V30 30853 H 2901.89 1.49743 3.62055 0
M  V30 30854 H 2903.58 1.88073 3.5416 0
M  V30 30855 H 2900.17 3.16037 2.89515 0
M  V30 30856 H 2904.36 4.1305 2.75143 0
M  V30 30857 H 2899.61 5.53522 2.5966 0
M  V30 30858 H 2903.79 6.51358 2.46384 0
M  V30 30859 H 2901.41 7.21936 2.38143 0
M  V30 30860 N 2902.99 -1.08867 1.13955 0
M  V30 30861 C 2903.94 -2.1566 0.822168 0
M  V30 30862 C 2904.91 -1.6466 -0.218245 0
M  V30 30863 O 2906.09 -1.90591 -0.089214 0
M  V30 30864 C 2903.23 -3.43788 0.300632 0
M  V30 30865 C 2902.34 -4.08659 1.40079 0
M  V30 30866 C 2901.48 -5.24565 0.836989 0
M  V30 30867 C 2900.52 -5.81368 1.91515 0
M  V30 30868 N 2899.65 -6.88626 1.36887 0
M  V30 30869 H 2904.49 -2.4215 1.73688 0
M  V30 30870 H 2902.03 -1.18841 0.866899 0
M  V30 30871 H 2903.99 -4.17195 -0.0199209 0
M  V30 30872 H 2902.62 -3.17598 -0.577193 0
M  V30 30873 H 2901.67 -3.33059 1.83782 0
M  V30 30874 H 2902.98 -4.46901 2.21542 0
M  V30 30875 H 2902.14 -6.04892 0.468059 0
M  V30 30876 H 2900.88 -4.87699 -0.00865635 0
M  V30 30877 H 2899.88 -4.99698 2.29308 0
M  V30 30878 H 2901.11 -6.20293 2.7643 0
M  V30 30879 H 2899.05 -6.53729 0.545326 0
M  V30 30880 H 2898.97 -7.25669 2.11993 0
M  V30 30881 H 2900.24 -7.72696 1.02769 0
M  V30 30882 N 2904.47 -0.933936 -1.26946 0
M  V30 30883 C 2905.41 -0.428503 -2.28619 0
M  V30 30884 C 2906.41 0.490436 -1.62145 0
M  V30 30885 O 2907.61 0.369449 -1.76168 0
M  V30 30886 H 2903.99 -0.120016 -0.742361 0
M  V30 30887 H 2905.96 -1.29869 -2.68657 0
M  V30 30888 C 2904.71 0.297679 -3.46423 0
M  V30 30889 H 2904.03 -0.400253 -3.97791 0
M  V30 30890 H 2905.47 0.615663 -4.19506 0
M  V30 30891 C 2903.93 1.5129 -3.0102 0
M  V30 30892 O 2904.46 2.61146 -3.05231 0
M  V30 30893 N 2902.67 1.36692 -2.56444 0
M  V30 30894 H 2902.21 0.473134 -2.53218 0
M  V30 30895 H 2902.17 2.18123 -2.26428 0
M  V30 30896 N 2905.94 1.41194 -0.700139 0
M  V30 30897 C 2907.17 2.05477 -0.242215 0
M  V30 30898 C 2907.59 1.52704 1.11026 0
M  V30 30899 O 2906.94 0.677157 1.69472 0
M  V30 30900 C 2907 3.60966 -0.196334 0
M  V30 30901 O 2906.72 4.11788 -1.49539 0
M  V30 30902 C 2908.22 4.42402 0.282024 0
M  V30 30903 H 2905.44 0.661627 -0.11176 0
M  V30 30904 H 2907.98 1.80884 -0.954007 0
M  V30 30905 H 2906.14 3.84583 0.466312 0
M  V30 30906 H 2906.55 5.05868 -1.38554 0
M  V30 30907 H 2908.02 5.51373 0.262996 0
M  V30 30908 H 2908.5 4.18842 1.32166 0
M  V30 30909 H 2909.11 4.23859 -0.349787 0
M  V30 30910 N 2907.42 0.445212 1.51181 0
M  V30 30911 C 2908.65 -0.116885 2.06269 0
M  V30 30912 C 2909.06 -1.36329 1.3119 0
M  V30 30913 O 2908.4 -1.79995 0.367098 0
M  V30 30914 C 2908.47 -0.496694 3.56052 0
M  V30 30915 C 2908.13 0.64402 4.52439 0
M  V30 30916 C 2909.13 1.51849 4.9723 0
M  V30 30917 C 2906.81 0.826992 4.95445 0
M  V30 30918 C 2908.81 2.56056 5.83707 0
M  V30 30919 C 2906.49 1.87232 5.81711 0
M  V30 30920 C 2907.49 2.73749 6.2574 0
M  V30 30921 O 2907.18 3.76486 7.10291 0
M  V30 30922 H 2906.91 -0.00784545 0.675954 0
M  V30 30923 H 2909.46 0.625405 1.95647 0
M  V30 30924 H 2907.69 -1.2918 3.64485 0
M  V30 30925 H 2909.38 -0.990859 3.9362 0
M  V30 30926 H 2910.15 1.3887 4.64694 0
M  V30 30927 H 2906.03 0.163132 4.60711 0
M  V30 30928 H 2909.57 3.23618 6.17995 0
M  V30 30929 H 2905.47 2.00228 6.1366 0
M  V30 30930 H 2906.24 3.73162 7.28486 0
M  V30 30931 N 2908.9 -1.56605 0.176849 0
M  V30 30932 C 2910.13 -2.01134 -0.472107 0
M  V30 30933 C 2910.54 -1.05616 -1.56977 0
M  V30 30934 O 2909.88 -0.050046 -1.83632 0
M  V30 30935 C 2909.94 -3.42083 -1.10541 0
M  V30 30936 C 2909.61 -4.56758 -0.148726 0
M  V30 30937 C 2910.6 -5.16007 0.63503 0
M  V30 30938 C 2908.29 -5.02282 -0.0429443 0
M  V30 30939 C 2910.28 -6.19214 1.51171 0
M  V30 30940 C 2907.97 -6.05336 0.837317 0
M  V30 30941 C 2908.97 -6.63675 1.61323 0
M  V30 30942 O 2908.66 -7.6473 2.47877 0
M  V30 30943 H 2908.39 -0.664396 -0.124713 0
M  V30 30944 H 2910.94 -2.03519 0.277365 0
M  V30 30945 H 2909.17 -3.36628 -1.90312 0
M  V30 30946 H 2910.86 -3.70532 -1.65714 0
M  V30 30947 H 2911.63 -4.81715 0.563509 0
M  V30 30948 H 2907.51 -4.56582 -0.636672 0
M  V30 30949 H 2911.05 -6.64677 2.11779 0
M  V30 30950 H 2906.95 -6.39053 0.91002 0
M  V30 30951 H 2907.72 -7.82076 2.41453 0
M  V30 30952 N 2910.38 0.0968524 -1.57302 0
M  V30 30953 C 2911.29 1.13602 -2.0526 0
M  V30 30954 C 2912.3 1.43971 -0.977162 0
M  V30 30955 O 2913.48 1.54647 -1.2902 0
M  V30 30956 C 2910.55 2.43702 -2.46597 0
M  V30 30957 C 2909.61 2.20532 -3.68326 0
M  V30 30958 C 2908.84 3.44428 -4.07682 0
M  V30 30959 O 2909.06 4.52597 -3.47149 0
M  V30 30960 O 2908 3.3412 -5.00647 0
M  V30 30961 H 2911.82 0.7587 -2.9407 0
M  V30 30962 H 2909.41 0.309237 -1.46165 0
M  V30 30963 H 2911.29 3.20313 -2.7382 0
M  V30 30964 H 2909.96 2.80864 -1.60925 0
M  V30 30965 H 2908.87 1.41707 -3.46222 0
M  V30 30966 H 2910.2 1.88263 -4.54772 0
M  V30 30967 N 2911.86 1.53252 0.36763 0
M  V30 30968 C 2913.1 1.69586 1.11213 0
M  V30 30969 C 2913.44 0.445302 1.89026 0
M  V30 30970 O 2912.71 -0.557371 1.86343 0
M  V30 30971 C 2912.99 2.94444 2.07303 0
M  V30 30972 C 2912.85 4.29652 1.33113 0
M  V30 30973 C 2914.17 3.14898 3.07453 0
M  V30 30974 H 2911.28 0.617104 0.40293 0
M  V30 30975 H 2913.93 1.85888 0.393169 0
M  V30 30976 H 2912.08 2.80677 2.68612 0
M  V30 30977 H 2913.75 4.55227 0.746031 0
M  V30 30978 H 2911.99 4.29157 0.632976 0
M  V30 30979 H 2912.66 5.13146 2.03434 0
M  V30 30980 H 2915.14 3.27837 2.56246 0
M  V30 30981 H 2914.01 4.03699 3.71911 0
M  V30 30982 H 2914.28 2.30084 3.7751 0
M  V30 30983 N 2913.34 -0.627313 1.44577 0
M  V30 30984 C 2914.25 -1.76773 1.54235 0
M  V30 30985 C 2915.26 -1.68659 0.427811 0
M  V30 30986 O 2916.44 -1.89368 0.685705 0
M  V30 30987 C 2913.5 -3.13171 1.48744 0
M  V30 30988 C 2912.56 -3.32888 2.71079 0
M  V30 30989 C 2911.8 -4.62779 2.6584 0
M  V30 30990 O 2912.02 -5.43831 1.72057 0
M  V30 30991 O 2910.95 -4.84781 3.5675 0
M  V30 30992 H 2914.78 -1.71577 2.50589 0
M  V30 30993 H 2912.36 -0.789006 1.26866 0
M  V30 30994 H 2914.25 -3.94474 1.48218 0
M  V30 30995 H 2912.92 -3.18901 0.555348 0
M  V30 30996 H 2911.83 -2.5125 2.77172 0
M  V30 30997 H 2913.16 -3.32023 3.63348 0
M  V30 30998 N 2914.81 -1.31539 -0.868063 0
M  V30 30999 C 2916.06 -1.21094 -1.61805 0
M  V30 31000 C 2916.38 0.230589 -1.93632 0
M  V30 31001 O 2915.65 1.1518 -1.58462 0
M  V30 31002 H 2914.23 -0.445189 -0.599846 0
M  V30 31003 H 2916.89 -1.64889 -1.03912 0
M  V30 31004 H 2915.99 -1.78401 -2.56085 0
M  V30 31005 N 2916.29 1.08262 -1.1453 0
M  V30 31006 C 2917.54 1.8032 -0.91263 0
M  V30 31007 C 2917.86 1.86719 0.562224 0
M  V30 31008 O 2917.13 1.36137 1.40867 0
M  V30 31009 H 2915.71 0.667843 -0.334657 0
M  V30 31010 H 2918.37 1.30881 -1.44417 0
M  V30 31011 H 2917.47 2.83096 -1.31389 0
M  V30 31012 N 2917.77 0.940655 1.26449 0
M  V30 31013 C 2919.02 0.588814 1.94064 0
M  V30 31014 C 2919.35 -0.869822 1.73631 0
M  V30 31015 O 2918.62 -1.62223 1.07302 0
M  V30 31016 C 2918.91 0.93126 3.4785 0
M  V30 31017 C 2918.76 2.4446 3.7757 0
M  V30 31018 C 2920.08 0.446306 4.37831 0
M  V30 31019 H 2917.2 0.215392 0.704823 0
M  V30 31020 H 2919.84 1.17478 1.49328 0
M  V30 31021 H 2917.99 0.432607 3.86084 0
M  V30 31022 H 2919.66 3.01594 3.49054 0
M  V30 31023 H 2917.9 2.8883 3.23666 0
M  V30 31024 H 2918.58 2.63472 4.85063 0
M  V30 31025 H 2921.05 0.873849 4.06821 0
M  V30 31026 H 2919.93 0.714744 5.44227 0
M  V30 31027 H 2920.19 -0.653738 4.3724 0
M  V30 31028 N 2919.25 -1.40821 0.707617 0
M  V30 31029 C 2920.66 -1.83988 0.317043 0
M  V30 31030 C 2921.01 -1.59185 -1.14694 0
M  V30 31031 O 2920.13 -1.06855 -1.88178 0
M  V30 31032 C 2920.73 -3.33994 0.568651 0
M  V30 31033 C 2919.29 -3.75685 0.23187 0
M  V30 31034 C 2918.44 -2.64112 0.844979 0
M  V30 31035 H 2921.39 -1.30202 0.907372 0
M  V30 31036 H 2921.41 -3.80126 -0.168731 0
M  V30 31037 H 2920.92 -3.52015 1.63423 0
M  V30 31038 H 2919.02 -3.63261 -0.828966 0
M  V30 31039 H 2919.13 -4.74028 0.695302 0
M  V30 31040 H 2917.5 -2.53226 0.273632 0
M  V30 31041 H 2918.28 -2.84948 1.91467 0
M  V30 31042 N 2920.73 -0.453223 -1.50943 0
M  V30 31043 C 2921.95 0.108426 -2.07116 0
M  V30 31044 C 2922.38 1.34318 -1.31683 0
M  V30 31045 O 2921.73 1.77704 -0.359288 0
M  V30 31046 C 2921.78 0.393361 -3.58448 0
M  V30 31047 O 2920.89 1.47708 -3.85041 0
M  V30 31048 H 2920.23 -0.00511097 -0.66398 0
M  V30 31049 H 2922.76 -0.639129 -1.94361 0
M  V30 31050 H 2922.77 0.639151 -4.02963 0
M  V30 31051 H 2921.44 -0.509019 -4.12773 0
M  V30 31052 H 2920.02 1.22 -3.52378 0
M  V30 31053 N 2922.2 1.56509 -0.185151 0
M  V30 31054 C 2923.45 1.96904 0.455322 0
M  V30 31055 C 2923.77 1.0728 1.62837 0
M  V30 31056 O 2923.04 0.142001 1.95385 0
M  V30 31057 H 2921.62 0.727116 0.171206 0
M  V30 31058 H 2924.28 1.93027 -0.269564 0
M  V30 31059 H 2923.38 3.0151 0.806107 0
M  V30 31060 N 2923.68 -0.0885089 1.57351 0
M  V30 31061 C 2924.92 -0.796329 1.8825 0
M  V30 31062 C 2925.29 -1.75578 0.776946 0
M  V30 31063 O 2926.49 -2.50745 0.968529 0
M  V30 31064 C 2924.76 -1.50025 3.24387 0
M  V30 31065 S 2926.32 -2.24544 3.76995 0
M  V30 31066 H 2923.13 -0.26517 0.659701 0
M  V30 31067 H 2925.74 -0.05315 1.95428 0
M  V30 31068 H 2924.44 -0.787929 4.02765 0
M  V30 31069 H 2923.97 -2.2832 3.20365 0
M  V30 31070 H 2925.99 -3.50793 3.50939 0
M  V30 31071 N 2925.16 -1.53445 -0.359498 0
M  V30 31072 C 2926.38 -1.74146 -1.12641 0
M  V30 31073 C 2926.81 -0.472039 -1.82081 0
M  V30 31074 O 2926.17 0.57433 -1.71963 0
M  V30 31075 C 2926.22 -2.91134 -2.12776 0
M  V30 31076 O 2925.32 -2.60167 -3.19979 0
M  V30 31077 H 2924.66 -0.578157 -0.326542 0
M  V30 31078 H 2927.19 -2.00352 -0.414763 0
M  V30 31079 H 2927.2 -3.17472 -2.56273 0
M  V30 31080 H 2925.88 -3.83209 -1.61627 0
M  V30 31081 H 2924.45 -2.44666 -2.81412 0
M  V30 31082 N 2926.64 0.619637 -1.44908 0
M  V30 31083 C 2927.89 1.37623 -1.48001 0
M  V30 31084 C 2928.21 1.94641 -0.118329 0
M  V30 31085 O 2927.48 1.76459 0.850829 0
M  V30 31086 H 2926.06 0.510864 -0.545002 0
M  V30 31087 H 2928.72 0.728491 -1.80773 0
M  V30 31088 H 2927.81 2.20175 -2.212 0
M  V30 31089 N 2928.12 1.31997 0.861075 0
M  V30 31090 C 2929.34 1.25176 1.64738 0
M  V30 31091 C 2929.76 -0.181392 1.87927 0
M  V30 31092 O 2929.12 -1.11638 1.44372 0
M  V30 31093 C 2929.17 2.00155 3.01032 0
M  V30 31094 O 2928.89 3.37877 2.78874 0
M  V30 31095 C 2930.39 2.0028 3.95478 0
M  V30 31096 H 2927.61 0.432155 0.513306 0
M  V30 31097 H 2930.15 1.74018 1.07416 0
M  V30 31098 H 2928.31 1.55052 3.55018 0
M  V30 31099 H 2928.72 3.76171 3.65507 0
M  V30 31100 H 2930.2 2.57237 4.88398 0
M  V30 31101 H 2930.67 0.987482 4.27955 0
M  V30 31102 H 2931.28 2.45302 3.47429 0
M  V30 31103 N 2929.59 -1.07653 1.15103 0
M  V30 31104 C 2930.82 -1.84455 0.948209 0
M  V30 31105 C 2931.24 -1.81377 -0.498401 0
M  V30 31106 O 2930.6 -1.20447 -1.35507 0
M  V30 31107 C 2930.65 -3.29578 1.46324 0
M  V30 31108 O 2929.75 -4.07078 0.660414 0
M  V30 31109 H 2929.1 -0.571275 0.338438 0
M  V30 31110 H 2931.63 -1.35825 1.53012 0
M  V30 31111 H 2931.64 -3.80414 1.47475 0
M  V30 31112 H 2930.31 -3.31134 2.51641 0
M  V30 31113 H 2928.89 -3.65917 0.718281 0
M  V30 31114 N 2931.07 -0.947348 -1.25949 0
M  V30 31115 C 2932.32 -0.593921 -1.92758 0
M  V30 31116 C 2932.63 0.872062 -1.75084 0
M  V30 31117 O 2933.84 1.33513 -2.36403 0
M  V30 31118 C 2932.3 -1.0115 -3.45394 0
M  V30 31119 C 2931.9 -2.49952 -3.7179 0
M  V30 31120 C 2933.65 -0.730259 -4.18172 0
M  V30 31121 C 2931.56 -2.85548 -5.17896 0
M  V30 31122 H 2930.49 -0.218415 -0.721672 0
M  V30 31123 H 2933.14 -1.15082 -1.42928 0
M  V30 31124 H 2931.52 -0.383076 -3.94143 0
M  V30 31125 H 2932.69 -3.17751 -3.33722 0
M  V30 31126 H 2931.01 -2.75471 -3.12258 0
M  V30 31127 H 2933.6 -0.972459 -5.25783 0
M  V30 31128 H 2933.95 0.33315 -4.14965 0
M  V30 31129 H 2934.48 -1.31869 -3.75307 0
M  V30 31130 H 2931.22 -3.90877 -5.26209 0
M  V30 31131 H 2930.74 -2.22416 -5.57038 0
M  V30 31132 H 2932.42 -2.74346 -5.85955 0
M  V30 31133 N 2932.55 1.40444 -0.715075 0
M  V30 31134 C 2933.8 2.00896 -0.254363 0
M  V30 31135 C 2934.13 1.56695 1.15225 0
M  V30 31136 O 2933.38 0.777817 1.79579 0
M  V30 31137 C 2933.68 3.56287 -0.281854 0
M  V30 31138 C 2933.35 4.20069 -1.63869 0
M  V30 31139 C 2932.01 4.37205 -2.01011 0
M  V30 31140 C 2934.36 4.5565 -2.53047 0
M  V30 31141 C 2931.69 4.87204 -3.26877 0
M  V30 31142 C 2934.04 5.07049 -3.78265 0
M  V30 31143 C 2932.7 5.22394 -4.15525 0
M  V30 31144 H 2931.97 0.735131 -0.0930782 0
M  V30 31145 H 2934.62 1.68062 -0.918006 0
M  V30 31146 H 2932.93 3.89027 0.465359 0
M  V30 31147 H 2934.62 4.00893 0.0924453 0
M  V30 31148 H 2931.21 4.07119 -1.33987 0
M  V30 31149 H 2935.4 4.42047 -2.25627 0
M  V30 31150 H 2930.65 4.9727 -3.55715 0
M  V30 31151 H 2934.83 5.33557 -4.47537 0
M  V30 31152 H 2932.45 5.609 -5.13124 0
M  V30 31153 N 2934.03 0.461222 1.507 0
M  V30 31154 C 2934.98 -0.352191 2.29918 0
M  V30 31155 C 2935.97 -0.999379 1.3678 0
M  V30 31156 O 2937.18 -0.931612 1.54016 0
M  V30 31157 H 2933.55 -0.13241 0.740251 0
M  V30 31158 H 2935.52 0.336477 2.96497 0
M  V30 31159 C 2934.27 -1.4273 3.17054 0
M  V30 31160 H 2933.59 -0.938678 3.88624 0
M  V30 31161 H 2935.03 -1.96922 3.75497 0
M  V30 31162 C 2933.49 -2.4238 2.33995 0
M  V30 31163 O 2934.02 -3.4744 2.01614 0
M  V30 31164 N 2932.23 -2.13853 1.96761 0
M  V30 31165 H 2931.78 -1.28443 2.23294 0
M  V30 31166 H 2931.73 -2.80764 1.41489 0
M  V30 31167 N 2935.51 -1.56408 0.193449 0
M  V30 31168 C 2936.73 -2.01916 -0.451402 0
M  V30 31169 C 2937.15 -1.07359 -1.55304 0
M  V30 31170 O 2936.51 -0.0781832 -1.82332 0
M  V30 31171 C 2936.56 -3.47126 -1.00925 0
M  V30 31172 O 2936.28 -4.38073 0.0484393 0
M  V30 31173 C 2937.78 -4.08143 -1.73014 0
M  V30 31174 H 2935 -0.661334 -0.113484 0
M  V30 31175 H 2937.54 -2.02263 0.301671 0
M  V30 31176 H 2935.7 -3.47484 -1.71271 0
M  V30 31177 H 2936.11 -5.23218 -0.366552 0
M  V30 31178 H 2937.59 -5.11605 -2.0728 0
M  V30 31179 H 2938.06 -3.51507 -2.63324 0
M  V30 31180 H 2938.67 -4.11553 -1.07257 0
M  V30 31181 N 2936.98 0.0801629 -1.57396 0
M  V30 31182 C 2937.92 1.12771 -1.98388 0
M  V30 31183 C 2938.9 1.3803 -0.859447 0
M  V30 31184 O 2940.08 1.51542 -1.12104 0
M  V30 31185 C 2937.21 2.47382 -2.31344 0
M  V30 31186 C 2936.25 2.3831 -3.5371 0
M  V30 31187 S 2937.09 1.78525 -5.04865 0
M  V30 31188 C 2938.24 3.14731 -5.41013 0
M  V30 31189 H 2938.47 0.778331 -2.86931 0
M  V30 31190 H 2936.01 0.288393 -1.51683 0
M  V30 31191 H 2937.97 3.24817 -2.51006 0
M  V30 31192 H 2936.63 2.79483 -1.43345 0
M  V30 31193 H 2935.82 3.37559 -3.74259 0
M  V30 31194 H 2935.42 1.69008 -3.33635 0
M  V30 31195 H 2937.71 4.11031 -5.38572 0
M  V30 31196 H 2938.66 2.9897 -6.4189 0
M  V30 31197 H 2939.06 3.1495 -4.68473 0
M  V30 31198 N 2938.46 1.53634 0.351355 0
M  V30 31199 C 2939.71 1.69721 1.08985 0
M  V30 31200 C 2940.02 0.462981 1.90042 0
M  V30 31201 O 2941.23 0.50466 2.66768 0
M  V30 31202 C 2939.69 3.00087 1.98686 0
M  V30 31203 C 2939.29 4.3082 1.22873 0
M  V30 31204 C 2941.04 3.25541 2.7244 0
M  V30 31205 C 2938.95 5.52265 2.11559 0
M  V30 31206 H 2937.88 0.63241 0.410577 0
M  V30 31207 H 2940.53 1.80134 0.349854 0
M  V30 31208 H 2938.91 2.83511 2.76473 0
M  V30 31209 H 2940.08 4.58074 0.500501 0
M  V30 31210 H 2938.4 4.11919 0.609207 0
M  V30 31211 H 2940.99 4.13462 3.39048 0
M  V30 31212 H 2941.34 2.42212 3.38584 0
M  V30 31213 H 2941.87 3.42856 2.01729 0
M  V30 31214 H 2938.61 6.38114 1.49969 0
M  V30 31215 H 2938.13 5.29271 2.82192 0
M  V30 31216 H 2939.81 5.87606 2.70791 0
M  V30 31217 N 2939.94 -0.611943 1.45234 0
M  V30 31218 C 2940.89 -1.74406 1.53901 0
M  V30 31219 C 2941.88 -1.64381 0.409283 0
M  V30 31220 O 2943.09 -1.70228 0.585018 0
M  V30 31221 H 2939.46 -0.576118 0.483313 0
M  V30 31222 H 2941.43 -1.64222 2.49146 0
M  V30 31223 C 2940.18 -3.12779 1.5187 0
M  V30 31224 H 2939.51 -3.21149 2.38124 0
M  V30 31225 H 2940.95 -3.91835 1.61993 0
M  V30 31226 C 2939.41 -3.36027 0.242433 0
M  V30 31227 O 2939.94 -3.95911 -0.679518 0
M  V30 31228 N 2938.14 -2.90265 0.139499 0
M  V30 31229 H 2937.69 -2.41714 0.890614 0
M  V30 31230 H 2937.65 -3.06194 -0.713632 0
M  V30 31231 N 2941.42 -1.32452 -0.854063 0
M  V30 31232 C 2942.37 -1.21394 -1.98409 0
M  V30 31233 C 2943.36 -0.118616 -1.68984 0
M  V30 31234 O 2944.57 -0.28158 -1.77784 0
M  V30 31235 H 2940.94 -0.376312 -0.651071 0
M  V30 31236 H 2942.91 -2.16965 -2.04863 0
M  V30 31237 C 2941.66 -0.954466 -3.34343 0
M  V30 31238 H 2940.98 -1.7895 -3.57515 0
M  V30 31239 H 2942.42 -0.917341 -4.13958 0
M  V30 31240 C 2940.88 0.342779 -3.35152 0
M  V30 31241 O 2941.41 1.35446 -3.78176 0
M  V30 31242 N 2939.62 0.364961 -2.88299 0
M  V30 31243 H 2939.17 -0.458845 -2.53481 0
M  V30 31244 H 2939.12 1.23279 -2.89223 0
M  V30 31245 N 2942.9 1.07041 -1.15672 0
M  V30 31246 C 2944.15 1.7908 -0.92807 0
M  V30 31247 C 2944.46 1.87827 0.545935 0
M  V30 31248 O 2945.67 2.56419 0.892262 0
M  V30 31249 C 2944.12 3.21826 -1.61109 0
M  V30 31250 C 2943.73 3.2127 -3.12233 0
M  V30 31251 C 2945.47 3.98452 -1.46411 0
M  V30 31252 C 2943.38 4.58688 -3.73308 0
M  V30 31253 H 2942.31 0.671169 -0.343582 0
M  V30 31254 H 2944.96 1.2012 -1.38721 0
M  V30 31255 H 2943.34 3.80998 -1.07965 0
M  V30 31256 H 2944.52 2.71724 -3.72159 0
M  V30 31257 H 2942.83 2.58141 -3.26729 0
M  V30 31258 H 2945.43 5.00021 -1.89429 0
M  V30 31259 H 2945.77 4.14256 -0.412023 0
M  V30 31260 H 2946.31 3.45783 -1.96669 0
M  V30 31261 H 2943.04 4.48089 -4.78431 0
M  V30 31262 H 2942.56 5.08459 -3.18166 0
M  V30 31263 H 2944.24 5.27654 -3.74419 0
M  V30 31264 N 2944.38 0.954014 1.25445 0
M  V30 31265 C 2945.62 0.604135 1.9244 0
M  V30 31266 C 2945.94 -0.862765 1.75544 0
M  V30 31267 O 2947.14 -1.32258 2.37108 0
M  V30 31268 C 2945.6 1.0298 3.44852 0
M  V30 31269 C 2945.21 2.5192 3.70459 0
M  V30 31270 C 2946.95 0.752425 4.17778 0
M  V30 31271 C 2944.86 2.8829 5.16374 0
M  V30 31272 H 2943.79 0.22224 0.720504 0
M  V30 31273 H 2946.44 1.15838 1.42316 0
M  V30 31274 H 2944.82 0.403973 3.93934 0
M  V30 31275 H 2946 3.19517 3.32033 0
M  V30 31276 H 2944.31 2.77123 3.10792 0
M  V30 31277 H 2946.91 1.00033 5.25259 0
M  V30 31278 H 2947.25 -0.311139 4.15136 0
M  V30 31279 H 2947.78 1.33857 3.74603 0
M  V30 31280 H 2944.52 3.93662 5.24128 0
M  V30 31281 H 2944.04 2.25367 5.55851 0
M  V30 31282 H 2945.72 2.77449 5.84492 0
M  V30 31283 N 2945.85 -1.40063 0.722513 0
M  V30 31284 C 2947.1 -1.99992 0.261967 0
M  V30 31285 C 2947.42 -1.57963 -1.15356 0
M  V30 31286 O 2948.62 -2.1064 -1.71298 0
M  V30 31287 C 2947.08 -3.57471 0.417433 0
M  V30 31288 C 2946.69 -4.08468 1.84004 0
M  V30 31289 C 2948.43 -4.24496 0.0180307 0
M  V30 31290 C 2946.34 -5.58476 1.94572 0
M  V30 31291 H 2945.27 -0.748094 0.0941899 0
M  V30 31292 H 2947.92 -1.60216 0.8946 0
M  V30 31293 H 2946.3 -3.94981 -0.283896 0
M  V30 31294 H 2947.47 -3.8232 2.57231 0
M  V30 31295 H 2945.79 -3.54064 2.19153 0
M  V30 31296 H 2948.39 -5.34646 0.0761789 0
M  V30 31297 H 2948.73 -4.03486 -1.02491 0
M  V30 31298 H 2949.26 -3.92116 0.670057 0
M  V30 31299 H 2946 -5.8435 2.97012 0
M  V30 31300 H 2945.52 -5.86467 1.25766 0
M  V30 31301 H 2947.2 -6.23689 1.72106 0
M  V30 31302 N 2947.33 -0.469207 -1.50453 0
M  V30 31303 C 2948.75 -0.123254 -1.59123 0
M  V30 31304 C 2948.95 1.3701 -1.47751 0
M  V30 31305 O 2948 2.1432 -1.33504 0
M  V30 31306 C 2949.32 -0.671771 -2.931 0
M  V30 31307 C 2950.86 -0.635032 -3.0649 0
M  V30 31308 C 2951.34 -1.16106 -4.43039 0
M  V30 31309 N 2952.83 -1.12039 -4.49446 0
M  V30 31310 C 2953.57 -1.49794 -5.53488 0
M  V30 31311 N 2953.06 -1.94988 -6.64794 0
M  V30 31312 N 2954.85 -1.41408 -5.44022 0
M  V30 31313 H 2947.01 -1.44049 -1.56089 0
M  V30 31314 H 2949.27 -0.595582 -0.737554 0
M  V30 31315 H 2948.97 -1.71785 -3.06892 0
M  V30 31316 H 2948.85 -0.114289 -3.77027 0
M  V30 31317 H 2951.24 0.402135 -2.92347 0
M  V30 31318 H 2951.32 -1.2293 -2.24326 0
M  V30 31319 H 2950.96 -2.19685 -4.57931 0
M  V30 31320 H 2950.89 -0.543031 -5.23793 0
M  V30 31321 H 2953.38 -0.788893 -3.69574 0
M  V30 31322 H 2953.69 -2.21949 -7.40242 0
M  V30 31323 H 2952.04 -1.98939 -6.65919 0
M  V30 31324 H 2955.23 -1.05943 -4.55954 0
M  V30 31325 H 2955.4 -1.71158 -6.24987 0
M  V30 31326 N 2948.81 1.56303 -0.201741 0
M  V30 31327 C 2950.04 2.02152 0.440688 0
M  V30 31328 C 2950.45 1.08182 1.54733 0
M  V30 31329 O 2949.81 0.0878517 1.82288 0
M  V30 31330 C 2949.86 3.47656 0.990823 0
M  V30 31331 O 2949.58 4.38041 -0.0716707 0
M  V30 31332 C 2951.08 4.09055 1.70847 0
M  V30 31333 H 2948.3 0.661926 0.109975 0
M  V30 31334 H 2950.85 2.021 -0.312394 0
M  V30 31335 H 2949 3.48387 1.69426 0
M  V30 31336 H 2949.42 5.23405 0.3388 0
M  V30 31337 H 2950.89 5.12697 2.04563 0
M  V30 31338 H 2951.37 3.52899 2.61456 0
M  V30 31339 H 2951.97 4.12116 1.05072 0
M  V30 31340 N 2950.29 -0.0718147 1.57436 0
M  V30 31341 C 2951.22 -1.08567 2.06726 0
M  V30 31342 C 2952.2 -1.40369 0.960756 0
M  V30 31343 O 2953.38 -1.49997 1.23348 0
M  V30 31344 C 2950.51 -2.39912 2.51117 0
M  V30 31345 C 2949.47 -2.22462 3.65643 0
M  V30 31346 C 2948.79 -3.59191 3.96089 0
M  V30 31347 C 2950.09 -1.64587 4.9569 0
M  V30 31348 H 2951.79 -0.675518 2.9168 0
M  V30 31349 H 2949.33 -0.323496 1.40319 0
M  V30 31350 H 2951.29 -3.1113 2.84211 0
M  V30 31351 H 2950.01 -2.82907 1.63191 0
M  V30 31352 H 2948.67 -1.53685 3.32831 0
M  V30 31353 H 2948.32 -3.99756 3.05294 0
M  V30 31354 H 2948.02 -3.48354 4.73205 0
M  V30 31355 H 2949.54 -4.31839 4.31679 0
M  V30 31356 H 2950.96 -2.25671 5.27015 0
M  V30 31357 H 2949.35 -1.64447 5.77128 0
M  V30 31358 H 2950.42 -0.607355 4.81081 0
M  V30 31359 N 2951.77 -1.53818 -0.343203 0
M  V30 31360 C 2953.01 -1.71334 -1.08501 0
M  V30 31361 C 2953.34 -0.475318 -1.88293 0
M  V30 31362 O 2952.62 0.527655 -1.87206 0
M  V30 31363 C 2952.9 -2.97705 -2.02592 0
M  V30 31364 C 2952.76 -4.31716 -1.26261 0
M  V30 31365 C 2954.07 -3.19749 -3.02405 0
M  V30 31366 H 2951.19 -0.623436 -0.393061 0
M  V30 31367 H 2953.84 -1.8649 -0.363546 0
M  V30 31368 H 2951.99 -2.84915 -2.64113 0
M  V30 31369 H 2953.66 -4.56357 -0.673514 0
M  V30 31370 H 2951.9 -4.3011 -0.56462 0
M  V30 31371 H 2952.57 -5.16317 -1.95244 0
M  V30 31372 H 2955.05 -3.31872 -2.50998 0
M  V30 31373 H 2953.92 -4.09565 -3.65442 0
M  V30 31374 H 2954.18 -2.36061 -3.73802 0
M  V30 31375 N 2953.24 0.604233 -1.45557 0
M  V30 31376 C 2954.17 1.72539 -1.5733 0
M  V30 31377 C 2955.15 1.64714 -0.424666 0
M  V30 31378 O 2956.34 1.83062 -0.648228 0
M  V30 31379 C 2953.47 3.11149 -1.54284 0
M  V30 31380 C 2952.42 3.33788 -2.67899 0
M  V30 31381 C 2951.75 4.72705 -2.49908 0
M  V30 31382 C 2953.05 3.23715 -4.09886 0
M  V30 31383 H 2954.74 1.62942 -2.51177 0
M  V30 31384 H 2952.29 0.782483 -1.20885 0
M  V30 31385 H 2954.24 3.89383 -1.61117 0
M  V30 31386 H 2952.97 3.21593 -0.569684 0
M  V30 31387 H 2951.63 2.57945 -2.60499 0
M  V30 31388 H 2951.27 4.79887 -1.50724 0
M  V30 31389 H 2950.97 4.88807 -3.261 0
M  V30 31390 H 2952.5 5.53135 -2.586 0
M  V30 31391 H 2953.91 3.91819 -4.1851 0
M  V30 31392 H 2952.31 3.51346 -4.86494 0
M  V30 31393 H 2953.38 2.21104 -4.31557 0
M  V30 31394 N 2954.72 1.32903 0.847027 0
M  V30 31395 C 2956 1.14506 1.58581 0
M  V30 31396 C 2956.38 -0.291687 2.09075 0
M  V30 31397 O 2955.73 -1.28949 1.88638 0
M  V30 31398 C 2955.94 2.17921 2.72601 0
M  V30 31399 C 2957.28 2.51652 3.41989 0
M  V30 31400 O 2958.31 2.16525 2.82834 0
M  V30 31401 O 2957.17 3.11898 4.48756 0
M  V30 31402 H 2954.26 0.442357 0.698748 0
M  V30 31403 H 2956.81 1.44459 0.890491 0
M  V30 31404 H 2955.58 3.14463 2.3287 0
M  V30 31405 H 2955.2 1.89006 3.49803 0
M  V30 31406 N 2956.2 -1.06426 1.16238 0
M  V30 31407 C 2957.16 -2.12038 0.870201 0
M  V30 31408 C 2958.16 -1.60239 -0.134211 0
M  V30 31409 O 2959.35 -1.73932 0.0965238 0
M  V30 31410 C 2956.48 -3.39568 0.301093 0
M  V30 31411 H 2957.68 -2.3939 1.80644 0
M  V30 31412 H 2955.23 -1.22469 0.971138 0
M  V30 31413 H 2955.97 -3.17864 -0.642892 0
M  V30 31414 H 2955.75 -3.7847 1.02482 0
M  V30 31415 H 2957.24 -4.17443 0.114567 0
M  V30 31416 N 2957.68 -0.960653 -1.24937 0
M  V30 31417 C 2958.91 -0.635157 -1.96594 0
M  V30 31418 C 2959.32 0.798176 -1.71539 0
M  V30 31419 O 2958.66 1.54628 -0.991754 0
M  V30 31420 C 2958.72 -0.82131 -3.49993 0
M  V30 31421 C 2958.39 -2.23294 -3.98734 0
M  V30 31422 C 2959.38 -3.21011 -4.08959 0
M  V30 31423 C 2957.07 -2.55875 -4.32242 0
M  V30 31424 C 2959.06 -4.49399 -4.52017 0
M  V30 31425 C 2956.75 -3.8449 -4.74985 0
M  V30 31426 C 2957.75 -4.81065 -4.84836 0
M  V30 31427 O 2957.43 -6.07387 -5.26627 0
M  V30 31428 H 2957.17 -0.236551 -0.633261 0
M  V30 31429 H 2959.72 -1.28913 -1.59908 0
M  V30 31430 H 2957.95 -0.110173 -3.86543 0
M  V30 31431 H 2959.64 -0.495963 -4.02859 0
M  V30 31432 H 2960.41 -2.97168 -3.83297 0
M  V30 31433 H 2956.28 -1.81428 -4.23798 0
M  V30 31434 H 2959.83 -5.24781 -4.5962 0
M  V30 31435 H 2955.73 -4.08138 -5.00094 0
M  V30 31436 H 2956.49 -6.10851 -5.44796 0
M  V30 31437 N 2959.16 1.39677 -0.729931 0
M  V30 31438 C 2960.1 2.30637 -0.0866469 0
M  V30 31439 C 2961.07 1.48948 0.735089 0
M  V30 31440 O 2962.26 1.77649 0.696094 0
M  V30 31441 C 2959.4 3.35254 0.818465 0
M  V30 31442 C 2958.51 4.31997 -0.0153394 0
M  V30 31443 C 2957.65 5.23681 0.890577 0
M  V30 31444 C 2956.69 6.12078 0.051717 0
M  V30 31445 N 2955.82 6.96135 0.913289 0
M  V30 31446 H 2960.66 2.85079 -0.867975 0
M  V30 31447 H 2958.2 1.40375 -0.439697 0
M  V30 31448 H 2960.16 3.94493 1.35763 0
M  V30 31449 H 2958.79 2.8228 1.56582 0
M  V30 31450 H 2957.84 3.7442 -0.67186 0
M  V30 31451 H 2959.15 4.94358 -0.664173 0
M  V30 31452 H 2958.31 5.87922 1.49776 0
M  V30 31453 H 2957.04 4.61629 1.5732 0
M  V30 31454 H 2956.05 5.46855 -0.568305 0
M  V30 31455 H 2957.27 6.76194 -0.627616 0
M  V30 31456 H 2955.22 6.36656 1.5813 0
M  V30 31457 H 2955.14 7.55319 0.32082 0
M  V30 31458 H 2956.41 7.6481 1.5062 0
M  V30 31459 N 2960.63 0.47718 1.50202 0
M  V30 31460 C 2961.58 -0.327785 2.30279 0
M  V30 31461 C 2962.58 -0.984815 1.37832 0
M  V30 31462 O 2963.78 -0.915224 1.54996 0
M  V30 31463 H 2960.16 -0.124551 0.741614 0
M  V30 31464 H 2962.13 0.367905 2.96123 0
M  V30 31465 C 2960.88 -1.39359 3.1855 0
M  V30 31466 H 2960.2 -0.897407 3.89598 0
M  V30 31467 H 2961.64 -1.92928 3.77564 0
M  V30 31468 C 2960.1 -2.39885 2.36552 0
M  V30 31469 O 2960.63 -3.45282 2.05288 0
M  V30 31470 N 2958.84 -2.11754 1.99019 0
M  V30 31471 H 2958.38 -1.26067 2.24644 0
M  V30 31472 H 2958.34 -2.79247 1.44459 0
M  V30 31473 N 2962.11 -1.56194 0.210027 0
M  V30 31474 C 2963.36 -1.9717 -0.425072 0
M  V30 31475 C 2963.67 -1.10034 -1.61716 0
M  V30 31476 O 2964.88 -1.40857 -2.32102 0
M  V30 31477 C 2963.34 -3.50721 -0.807648 0
M  V30 31478 C 2962.94 -4.46543 0.36098 0
M  V30 31479 C 2964.69 -4.00434 -1.40899 0
M  V30 31480 C 2962.6 -5.91384 -0.043388 0
M  V30 31481 H 2961.53 -0.736262 -0.162585 0
M  V30 31482 H 2964.18 -1.80957 0.304414 0
M  V30 31483 H 2962.56 -3.62492 -1.59423 0
M  V30 31484 H 2963.73 -4.46513 1.13853 0
M  V30 31485 H 2962.05 -4.07107 0.8748 0
M  V30 31486 H 2964.64 -5.06136 -1.72424 0
M  V30 31487 H 2964.99 -3.45611 -2.32075 0
M  V30 31488 H 2965.52 -3.91839 -0.686085 0
M  V30 31489 H 2962.26 -6.50166 0.834563 0
M  V30 31490 H 2961.78 -5.94634 -0.785494 0
M  V30 31491 H 2963.46 -6.45261 -0.474062 0
M  V30 31492 N 2963.59 0.0634645 -1.57472 0
M  V30 31493 C 2964.87 0.794507 -1.78737 0
M  V30 31494 C 2965.25 1.95367 -0.79968 0
M  V30 31495 O 2964.6 2.279 0.165481 0
M  V30 31496 C 2964.81 1.2597 -3.25473 0
M  V30 31497 C 2966.15 1.68969 -3.89531 0
M  V30 31498 O 2967.18 1.35515 -3.29415 0
M  V30 31499 O 2966.04 2.30935 -4.95309 0
M  V30 31500 H 2963.13 0.381363 -0.733819 0
M  V30 31501 H 2965.68 0.042896 -1.69646 0
M  V30 31502 H 2964.45 0.430652 -3.88923 0
M  V30 31503 H 2964.07 2.07237 -3.39321 0
M  V30 31504 N 2965.07 1.53998 0.33504 0
M  V30 31505 C 2966 1.85571 1.41724 0
M  V30 31506 C 2966.98 0.711528 1.54503 0
M  V30 31507 O 2968.16 0.964221 1.68572 0
M  V30 31508 C 2965.29 2.07287 2.78657 0
M  V30 31509 C 2964.25 3.23117 2.80677 0
M  V30 31510 C 2963.57 3.30182 4.20575 0
M  V30 31511 C 2964.87 4.61033 2.4545 0
M  V30 31512 H 2966.57 2.76204 1.1555 0
M  V30 31513 H 2964.11 1.32899 0.554421 0
M  V30 31514 H 2966.07 2.27959 3.54419 0
M  V30 31515 H 2964.79 1.13392 3.06284 0
M  V30 31516 H 2963.45 3.02314 2.07368 0
M  V30 31517 H 2963.1 2.33867 4.45326 0
M  V30 31518 H 2962.8 4.08024 4.22836 0
M  V30 31519 H 2964.32 3.53075 4.98167 0
M  V30 31520 H 2965.74 4.81662 3.10925 0
M  V30 31521 H 2964.13 5.4134 2.58981 0
M  V30 31522 H 2965.2 4.64063 1.4062 0
M  V30 31523 N 2966.55 -0.596505 1.45875 0
M  V30 31524 C 2967.82 -1.35625 1.40944 0
M  V30 31525 C 2968.2 -2.10926 0.0857437 0
M  V30 31526 O 2967.55 -2.08606 -0.932507 0
M  V30 31527 C 2967.76 -2.29381 2.63031 0
M  V30 31528 C 2969.11 -2.91643 3.08593 0
M  V30 31529 O 2970.13 -2.39699 2.63482 0
M  V30 31530 O 2968.99 -3.85958 3.86909 0
M  V30 31531 H 2966.09 -0.608686 0.559849 0
M  V30 31532 H 2968.63 -0.61867 1.58021 0
M  V30 31533 H 2967.4 -1.73074 3.50943 0
M  V30 31534 H 2967.03 -3.10501 2.48344 0
M  V30 31535 N 2968.02 -1.3335 -0.839967 0
M  V30 31536 C 2968.97 -1.23513 -1.9497 0
M  V30 31537 C 2969.94 -0.113996 -1.65708 0
M  V30 31538 O 2971.13 -0.292078 -1.88551 0
M  V30 31539 C 2968.27 -0.979163 -3.30918 0
M  V30 31540 C 2967.38 -2.18646 -3.72583 0
M  V30 31541 C 2966.51 -1.86474 -4.97394 0
M  V30 31542 C 2965.55 -3.03442 -5.31592 0
M  V30 31543 N 2964.69 -2.71265 -6.4758 0
M  V30 31544 H 2969.53 -2.18427 -2.02716 0
M  V30 31545 H 2967.07 -1.08618 -0.991998 0
M  V30 31546 H 2969.03 -0.811198 -4.09238 0
M  V30 31547 H 2967.66 -0.0667667 -3.22731 0
M  V30 31548 H 2966.71 -2.46421 -2.89795 0
M  V30 31549 H 2968.02 -3.06093 -3.93839 0
M  V30 31550 H 2967.17 -1.66315 -5.83459 0
M  V30 31551 H 2965.91 -0.962624 -4.78105 0
M  V30 31552 H 2964.92 -3.24216 -4.44032 0
M  V30 31553 H 2966.14 -3.94407 -5.52829 0
M  V30 31554 H 2964.09 -1.83611 -6.2978 0
M  V30 31555 H 2964.01 -3.52243 -6.68925 0
M  V30 31556 H 2965.27 -2.54571 -7.36759 0
M  V30 31557 N 2969.5 1.05808 -1.16801 0
M  V30 31558 C 2970.43 2.15363 -0.902279 0
M  V30 31559 C 2971.41 1.69408 0.153321 0
M  V30 31560 O 2972.6 1.942 0.00438619 0
M  V30 31561 C 2969.73 3.44895 -0.407972 0
M  V30 31562 C 2968.68 4.04384 -1.40204 0
M  V30 31563 C 2968.01 5.29186 -0.765941 0
M  V30 31564 C 2969.31 4.42593 -2.77324 0
M  V30 31565 H 2971 2.3785 -1.81846 0
M  V30 31566 H 2968.55 1.14309 -0.875751 0
M  V30 31567 H 2970.5 4.20879 -0.209524 0
M  V30 31568 H 2969.23 3.22042 0.543723 0
M  V30 31569 H 2967.88 3.30463 -1.58712 0
M  V30 31570 H 2967.53 5.02632 0.192394 0
M  V30 31571 H 2967.23 5.69947 -1.42949 0
M  V30 31572 H 2968.76 6.07862 -0.577626 0
M  V30 31573 H 2970.17 5.09637 -2.6257 0
M  V30 31574 H 2968.57 4.94353 -3.40198 0
M  V30 31575 H 2969.64 3.53225 -3.32205 0
M  V30 31576 N 2970.98 0.967265 1.24426 0
M  V30 31577 C 2971.93 0.496459 2.25397 0
M  V30 31578 C 2972.9 -0.457753 1.59668 0
M  V30 31579 O 2974.08 -0.368213 1.87213 0
M  V30 31580 C 2971.22 -0.207633 3.44475 0
M  V30 31581 C 2970.34 0.785296 4.24802 0
M  V30 31582 C 2969.47 0.0573564 5.31169 0
M  V30 31583 C 2968.51 1.04038 6.03194 0
M  V30 31584 N 2967.65 0.342473 7.01264 0
M  V30 31585 H 2972.49 1.36233 2.65037 0
M  V30 31586 H 2970.02 0.682925 1.30286 0
M  V30 31587 H 2971.98 -0.632539 4.12377 0
M  V30 31588 H 2970.61 -1.03746 3.05674 0
M  V30 31589 H 2969.66 1.32864 3.56442 0
M  V30 31590 H 2970.98 1.53492 4.74596 0
M  V30 31591 H 2970.13 -0.425567 6.05206 0
M  V30 31592 H 2968.87 -0.724963 4.82282 0
M  V30 31593 H 2967.87 1.53418 5.27961 0
M  V30 31594 H 2969.1 1.82314 6.5417 0
M  V30 31595 H 2967.04 -0.420878 6.54648 0
M  V30 31596 H 2966.96 1.03097 7.48937 0
M  V30 31597 H 2968.23 -0.118497 7.7941 0
M  V30 31598 N 2972.46 -1.39288 0.737328 0
M  V30 31599 C 2973.71 -1.99702 0.283164 0
M  V30 31600 C 2974.02 -1.59178 -1.13674 0
M  V30 31601 O 2975.23 -2.12445 -1.69054 0
M  V30 31602 C 2973.68 -3.57008 0.455324 0
M  V30 31603 C 2973.29 -4.06494 1.88326 0
M  V30 31604 C 2975.04 -4.24453 0.0630532 0
M  V30 31605 C 2972.94 -5.56381 2.00485 0
M  V30 31606 H 2971.87 -0.747053 0.102119 0
M  V30 31607 H 2974.52 -1.59258 0.911543 0
M  V30 31608 H 2972.91 -3.9526 -0.241987 0
M  V30 31609 H 2974.08 -3.79571 2.61272 0
M  V30 31610 H 2972.39 -3.51719 2.22896 0
M  V30 31611 H 2974.99 -5.34535 0.132881 0
M  V30 31612 H 2975.33 -4.04551 -0.982057 0
M  V30 31613 H 2975.87 -3.91383 0.711608 0
M  V30 31614 H 2972.61 -5.81166 3.03193 0
M  V30 31615 H 2972.13 -5.851 1.31979 0
M  V30 31616 H 2973.81 -6.21829 1.78711 0
M  V30 31617 N 2973.94 -0.485139 -1.49947 0
M  V30 31618 C 2975.19 0.0667296 -2.0159 0
M  V30 31619 C 2975.5 1.39507 -1.37103 0
M  V30 31620 O 2976.71 2.0327 -1.79982 0
M  V30 31621 C 2975.16 0.169413 -3.59501 0
M  V30 31622 C 2974.77 -1.15133 -4.32953 0
M  V30 31623 C 2976.51 0.67249 -4.19139 0
M  V30 31624 C 2974.42 -1.01168 -5.82683 0
M  V30 31625 H 2973.35 0.0287126 -0.753453 0
M  V30 31626 H 2976 -0.622163 -1.72631 0
M  V30 31627 H 2974.38 0.922403 -3.85107 0
M  V30 31628 H 2975.56 -1.91638 -4.1906 0
M  V30 31629 H 2973.87 -1.58661 -3.84988 0
M  V30 31630 H 2976.47 0.794232 -5.28768 0
M  V30 31631 H 2976.81 1.66739 -3.8145 0
M  V30 31632 H 2977.35 -0.0235114 -3.97793 0
M  V30 31633 H 2974.08 -1.98036 -6.24869 0
M  V30 31634 H 2973.6 -0.287257 -5.99112 0
M  V30 31635 H 2975.28 -0.68396 -6.43375 0
M  V30 31636 N 2975.42 1.56081 -0.218307 0
M  V30 31637 C 2976.38 2.18893 0.679594 0
M  V30 31638 C 2977.38 1.14988 1.12403 0
M  V30 31639 O 2978.57 1.4024 1.03336 0
M  V30 31640 C 2975.7 2.80965 1.93058 0
M  V30 31641 H 2976.89 2.99609 0.132013 0
M  V30 31642 H 2974.45 1.56269 0.0313099 0
M  V30 31643 H 2975.18 2.0411 2.52011 0
M  V30 31644 H 2974.97 3.57051 1.6204 0
M  V30 31645 H 2976.46 3.29123 2.57037 0
M  V30 31646 N 2976.89 -0.0551124 1.57504 0
M  V30 31647 C 2978.12 -0.762439 1.92017 0
M  V30 31648 C 2978.53 -1.70789 0.814118 0
M  V30 31649 O 2977.87 -1.82375 -0.220241 0
M  V30 31650 C 2977.94 -1.59592 3.22135 0
M  V30 31651 C 2977.6 -0.818062 4.49618 0
M  V30 31652 C 2978.6 -0.129842 5.19738 0
M  V30 31653 C 2976.28 -0.780299 4.96202 0
M  V30 31654 C 2978.28 0.585727 6.34703 0
M  V30 31655 C 2975.96 -0.0609682 6.1107 0
M  V30 31656 C 2976.96 0.620829 6.80173 0
M  V30 31657 O 2976.65 1.32854 7.92846 0
M  V30 31658 H 2976.38 -0.220956 0.63887 0
M  V30 31659 H 2978.94 -0.0246001 2.05385 0
M  V30 31660 H 2977.17 -2.37696 3.05021 0
M  V30 31661 H 2978.85 -2.18345 3.4217 0
M  V30 31662 H 2979.62 -0.150214 4.84767 0
M  V30 31663 H 2975.5 -1.30046 4.42277 0
M  V30 31664 H 2979.04 1.11845 6.88576 0
M  V30 31665 H 2974.94 -0.038581 6.45488 0
M  V30 31666 H 2975.71 1.23952 8.0906 0
M  V30 31667 N 2978.37 -1.54173 -0.326869 0
M  V30 31668 C 2979.62 -1.7188 -1.0631 0
M  V30 31669 C 2979.94 -0.493531 -1.88651 0
M  V30 31670 O 2979.21 0.492489 -1.89608 0
M  V30 31671 H 2977.79 -0.633723 -0.395479 0
M  V30 31672 H 2980.45 -1.91469 -0.364105 0
M  V30 31673 H 2979.55 -2.59697 -1.73101 0
M  V30 31674 N 2979.85 0.58876 -1.4619 0
M  V30 31675 C 2981.13 1.34876 -1.41661 0
M  V30 31676 C 2981.51 2.10877 -0.0969284 0
M  V30 31677 O 2980.85 2.09098 0.921431 0
M  V30 31678 C 2981.06 2.27983 -2.64244 0
M  V30 31679 C 2982.41 2.90003 -3.10135 0
M  V30 31680 O 2983.44 2.38298 -2.6475 0
M  V30 31681 O 2982.3 3.83901 -3.8895 0
M  V30 31682 H 2979.39 0.605708 -0.563069 0
M  V30 31683 H 2981.94 0.610281 -1.58347 0
M  V30 31684 H 2980.71 1.71211 -3.51856 0
M  V30 31685 H 2980.33 3.0918 -2.49987 0
M  V30 31686 N 2981.33 1.33794 0.832883 0
M  V30 31687 C 2982.6 1.16181 1.57357 0
M  V30 31688 C 2982.98 -0.269495 2.09373 0
M  V30 31689 O 2982.33 -1.26941 1.89995 0
M  V30 31690 C 2982.54 2.208 2.70275 0
M  V30 31691 C 2983.89 2.55265 3.39301 0
M  V30 31692 O 2984.91 2.19513 2.80522 0
M  V30 31693 O 2983.77 3.1664 4.45422 0
M  V30 31694 H 2980.87 0.449743 0.694017 0
M  V30 31695 H 2983.41 1.45395 0.875119 0
M  V30 31696 H 2982.19 3.16915 2.29522 0
M  V30 31697 H 2981.81 1.92706 3.47779 0
M  V30 31698 N 2982.81 -1.05187 1.1736 0
M  V30 31699 C 2984.05 -1.78453 0.963444 0
M  V30 31700 C 2984.38 -1.87474 -0.50667 0
M  V30 31701 O 2983.66 -1.37456 -1.37609 0
M  V30 31702 C 2983.94 -3.22341 1.60525 0
M  V30 31703 C 2983.8 -3.21333 3.14747 0
M  V30 31704 C 2985.11 -4.20177 1.30918 0
M  V30 31705 H 2982.23 -0.64782 0.351424 0
M  V30 31706 H 2984.88 -1.22946 1.4486 0
M  V30 31707 H 2983.03 -3.69738 1.19272 0
M  V30 31708 H 2984.7 -2.82011 3.65058 0
M  V30 31709 H 2982.94 -2.59672 3.47495 0
M  V30 31710 H 2983.61 -4.22887 3.54782 0
M  V30 31711 H 2986.09 -3.81274 1.66641 0
M  V30 31712 H 2984.96 -5.19097 1.7841 0
M  V30 31713 H 2985.22 -4.41501 0.229986 0
M  V30 31714 N 2984.28 -0.97385 -1.23911 0
M  V30 31715 C 2985.53 -0.634674 -1.91454 0
M  V30 31716 C 2985.85 0.834728 -1.76894 0
M  V30 31717 O 2987.05 1.28469 -2.39182 0
M  V30 31718 C 2985.51 -1.08453 -3.4317 0
M  V30 31719 C 2985.12 -2.57782 -3.66405 0
M  V30 31720 C 2986.86 -0.818795 -4.16529 0
M  V30 31721 C 2984.77 -2.96469 -5.11723 0
M  V30 31722 H 2983.7 -0.233674 -0.716877 0
M  V30 31723 H 2986.35 -1.18088 -1.40455 0
M  V30 31724 H 2984.73 -0.466594 -3.93242 0
M  V30 31725 H 2985.9 -3.24759 -3.26907 0
M  V30 31726 H 2984.22 -2.82032 -3.06344 0
M  V30 31727 H 2986.82 -1.08377 -5.23602 0
M  V30 31728 H 2987.16 0.245055 -4.15578 0
M  V30 31729 H 2987.69 -1.398 -3.72426 0
M  V30 31730 H 2984.43 -4.0195 -5.17799 0
M  V30 31731 H 2983.95 -2.34181 -5.52195 0
M  V30 31732 H 2985.63 -2.86713 -5.80004 0
M  V30 31733 N 2985.76 1.38895 -0.744705 0
M  V30 31734 C 2987.01 2.00311 -0.296919 0
M  V30 31735 C 2987.34 1.59104 1.11875 0
M  V30 31736 O 2986.59 0.815734 1.77888 0
M  V30 31737 C 2986.89 3.55609 -0.357364 0
M  V30 31738 C 2986.56 4.16498 -1.72743 0
M  V30 31739 C 2985.22 4.32843 -2.1024 0
M  V30 31740 C 2987.57 4.5018 -2.62655 0
M  V30 31741 C 2984.9 4.80161 -3.37138 0
M  V30 31742 C 2987.25 4.98911 -3.88935 0
M  V30 31743 C 2985.91 5.13463 -4.26512 0
M  V30 31744 H 2985.18 0.732991 -0.10865 0
M  V30 31745 H 2987.83 1.66077 -0.953448 0
M  V30 31746 H 2986.14 3.89926 0.382736 0
M  V30 31747 H 2987.83 4.00999 0.00738911 0
M  V30 31748 H 2984.42 4.04185 -1.42592 0
M  V30 31749 H 2988.61 4.37162 -2.34953 0
M  V30 31750 H 2983.86 4.89613 -3.66182 0
M  V30 31751 H 2988.04 5.23944 -4.58754 0
M  V30 31752 H 2985.66 5.49889 -5.24906 0
M  V30 31753 N 2987.24 0.493084 1.49688 0
M  V30 31754 C 2988.47 -0.053475 2.07331 0
M  V30 31755 C 2988.89 -1.30779 1.35198 0
M  V30 31756 O 2988.25 -1.76689 0.406277 0
M  V30 31757 C 2988.3 -0.298187 3.59365 0
M  V30 31758 O 2987.4 -1.37447 3.88821 0
M  V30 31759 H 2986.74 0.0227134 0.663611 0
M  V30 31760 H 2989.27 0.690436 1.92598 0
M  V30 31761 H 2989.28 -0.532088 4.04516 0
M  V30 31762 H 2987.96 0.618279 4.11279 0
M  V30 31763 H 2986.53 -1.12615 3.55489 0
M  V30 31764 N 2988.72 -1.55963 0.226582 0
M  V30 31765 C 2989.95 -2.02534 -0.407879 0
M  V30 31766 C 2990.36 -1.10557 -1.53538 0
M  V30 31767 O 2989.7 -0.108442 -1.8338 0
M  V30 31768 C 2989.76 -3.45427 -0.996021 0
M  V30 31769 C 2989.43 -4.57 -0.00333619 0
M  V30 31770 C 2990.42 -5.13726 0.798872 0
M  V30 31771 C 2988.11 -5.02164 0.116875 0
M  V30 31772 C 2990.1 -6.14091 1.70795 0
M  V30 31773 C 2987.79 -6.02366 1.02948 0
M  V30 31774 C 2988.79 -6.58206 1.82355 0
M  V30 31775 O 2988.47 -7.56457 2.72081 0
M  V30 31776 H 2988.21 -0.668028 -0.103513 0
M  V30 31777 H 2990.76 -2.02533 0.341973 0
M  V30 31778 H 2988.99 -3.42512 -1.79506 0
M  V30 31779 H 2990.68 -3.75616 -1.53842 0
M  V30 31780 H 2991.45 -4.79679 0.716477 0
M  V30 31781 H 2987.32 -4.58377 -0.491092 0
M  V30 31782 H 2990.87 -6.57603 2.32818 0
M  V30 31783 H 2986.77 -6.35834 1.11287 0
M  V30 31784 H 2987.53 -7.73998 2.66212 0
M  V30 31785 N 2990.2 0.0467589 -1.57531 0
M  V30 31786 C 2991.45 0.740036 -1.87634 0
M  V30 31787 C 2991.76 1.77456 -0.822722 0
M  V30 31788 O 2992.96 2.51918 -1.0124 0
M  V30 31789 C 2991.42 1.36721 -3.32919 0
M  V30 31790 C 2991.03 0.369956 -4.4647 0
M  V30 31791 C 2992.77 2.04139 -3.72193 0
M  V30 31792 C 2990.68 1.00447 -5.82807 0
M  V30 31793 H 2989.61 0.280146 -0.700025 0
M  V30 31794 H 2992.26 -0.00610376 -1.83499 0
M  V30 31795 H 2990.64 2.16246 -3.31743 0
M  V30 31796 H 2991.82 -0.397298 -4.59084 0
M  V30 31797 H 2990.13 -0.201152 -4.15914 0
M  V30 31798 H 2992.73 2.52433 -4.71362 0
M  V30 31799 H 2993.07 2.85187 -3.03273 0
M  V30 31800 H 2993.6 1.31413 -3.75467 0
M  V30 31801 H 2990.34 0.233791 -6.55083 0
M  V30 31802 H 2989.86 1.74198 -5.73947 0
M  V30 31803 H 2991.54 1.51702 -6.28964 0
M  V30 31804 N 2991.67 1.54344 0.318688 0
M  V30 31805 C 2992.62 1.80451 1.39361 0
M  V30 31806 C 2993.61 0.660754 1.46707 0
M  V30 31807 O 2994.8 0.920896 1.51157 0
M  V30 31808 C 2991.93 2.03964 2.76141 0
M  V30 31809 C 2991.02 3.24474 2.73089 0
M  V30 31810 N 2991.41 4.4542 2.39655 0
M  V30 31811 C 2989.7 3.26145 3.04212 0
M  V30 31812 C 2990.41 5.27375 2.4546 0
M  V30 31813 N 2989.38 4.64673 2.82099 0
M  V30 31814 H 2993.18 2.71537 1.12448 0
M  V30 31815 H 2990.7 1.53605 0.527194 0
M  V30 31816 H 2992.69 2.20808 3.53623 0
M  V30 31817 H 2991.35 1.14134 3.0398 0
M  V30 31818 H 2992.37 4.72334 2.12416 0
M  V30 31819 H 2989.04 2.46365 3.37061 0
M  V30 31820 H 2990.43 6.33969 2.2256 0
M  V30 31821 N 2993.15 -0.580999 1.465 0
M  V30 31822 C 2994.06 -1.71776 1.59781 0
M  V30 31823 C 2995.08 -1.67212 0.481252 0
M  V30 31824 O 2996.25 -1.8709 0.745603 0
M  V30 31825 C 2993.32 -3.0828 1.58632 0
M  V30 31826 C 2992.38 -3.24095 2.81533 0
M  V30 31827 C 2991.61 -4.54087 2.80429 0
M  V30 31828 O 2991.84 -5.38082 1.89272 0
M  V30 31829 O 2990.77 -4.73186 3.71993 0
M  V30 31830 H 2994.6 -1.63518 2.55921 0
M  V30 31831 H 2992.18 -0.748245 1.29312 0
M  V30 31832 H 2994.06 -3.89558 1.60693 0
M  V30 31833 H 2992.74 -3.16972 0.656523 0
M  V30 31834 H 2991.65 -2.42304 2.85025 0
M  V30 31835 H 2992.98 -3.20295 3.73727 0
M  V30 31836 N 2994.63 -1.34234 -0.825776 0
M  V30 31837 C 2995.56 -1.28216 -1.95149 0
M  V30 31838 C 2996.54 -0.160152 -1.69344 0
M  V30 31839 O 2997.73 -0.352053 -1.90982 0
M  V30 31840 C 2994.86 -1.03394 -3.31552 0
M  V30 31841 C 2993.81 -2.1203 -3.71789 0
M  V30 31842 C 2993.14 -1.72401 -5.06144 0
M  V30 31843 C 2994.44 -3.53833 -3.84187 0
M  V30 31844 H 2996.13 -2.22404 -2.00441 0
M  V30 31845 H 2993.68 -1.07064 -0.962977 0
M  V30 31846 H 2995.63 -0.978297 -4.09887 0
M  V30 31847 H 2994.35 -0.0564716 -3.26551 0
M  V30 31848 H 2993.01 -2.16659 -2.95727 0
M  V30 31849 H 2992.66 -0.733225 -4.97627 0
M  V30 31850 H 2992.36 -2.45109 -5.34037 0
M  V30 31851 H 2993.88 -1.68327 -5.8694 0
M  V30 31852 H 2995.3 -3.51632 -4.528 0
M  V30 31853 H 2993.7 -4.25137 -4.23531 0
M  V30 31854 H 2994.77 -3.91382 -2.86266 0
M  V30 31855 N 2996.11 1.04563 -1.17917 0
M  V30 31856 C 2997.39 1.74625 -0.881218 0
M  V30 31857 C 2997.77 2.01879 0.617088 0
M  V30 31858 O 2997.11 1.65994 1.57029 0
M  V30 31859 C 2997.32 3.035 -1.72304 0
M  V30 31860 C 2998.67 3.77332 -1.94695 0
M  V30 31861 O 2999.7 3.13386 -1.69315 0
M  V30 31862 O 2998.55 4.92249 -2.37388 0
M  V30 31863 H 2995.65 0.759658 -0.326878 0
M  V30 31864 H 2998.19 1.10674 -1.28644 0
M  V30 31865 H 2996.97 2.79458 -2.73896 0
M  V30 31866 H 2996.59 3.7519 -1.316 0
M  V30 31867 N 2997.59 0.980408 1.23393 0
M  V30 31868 C 2998.52 0.465443 2.23403 0
M  V30 31869 C 2999.5 -0.467444 1.55736 0
M  V30 31870 O 3000.68 -0.395888 1.84296 0
M  V30 31871 C 2997.81 -0.326661 3.37121 0
M  V30 31872 C 2996.85 0.55037 4.22934 0
M  V30 31873 S 2997.69 1.99823 4.96821 0
M  V30 31874 C 2998.84 1.21527 6.13989 0
M  V30 31875 H 2999.08 1.31294 2.66738 0
M  V30 31876 H 2996.61 0.786403 1.32872 0
M  V30 31877 H 2998.57 -0.777667 4.03066 0
M  V30 31878 H 2997.23 -1.14928 2.92319 0
M  V30 31879 H 2996.42 -0.0584412 5.03966 0
M  V30 31880 H 2996.02 0.937622 3.62056 0
M  V30 31881 H 2998.32 0.476595 6.75822 0
M  V30 31882 H 2999.26 2.00042 6.79256 0
M  V30 31883 H 2999.67 0.734048 5.59707 0
M  V30 31884 N 2999.06 -1.38498 0.75206 0
M  V30 31885 C 2999.97 -2.34265 0.125359 0
M  V30 31886 C 3000.99 -1.59192 -0.702409 0
M  V30 31887 O 3002.17 -1.91394 -0.626917 0
M  V30 31888 C 2999.23 -3.38303 -0.758427 0
M  V30 31889 C 2998.29 -4.29219 0.0835391 0
M  V30 31890 C 2997.53 -5.28287 -0.758159 0
M  V30 31891 O 2997.75 -5.34328 -1.99623 0
M  V30 31892 O 2996.68 -6.01637 -0.177772 0
M  V30 31893 H 3000.51 -2.8955 0.916221 0
M  V30 31894 H 2998.09 -1.40319 0.512936 0
M  V30 31895 H 2999.98 -4.02009 -1.26358 0
M  V30 31896 H 2998.65 -2.85376 -1.52781 0
M  V30 31897 H 2997.56 -3.68678 0.634609 0
M  V30 31898 H 2998.89 -4.85397 0.815541 0
M  V30 31899 N 3000.54 -0.501015 -1.49424 0
M  V30 31900 C 3001.51 0.266376 -2.27647 0
M  V30 31901 C 3002.51 0.893938 -1.33661 0
M  V30 31902 O 3003.7 0.758468 -1.56821 0
M  V30 31903 C 3000.83 1.38222 -3.11621 0
M  V30 31904 H 3002.02 -0.420025 -2.96944 0
M  V30 31905 H 2999.57 -0.255982 -1.5419 0
M  V30 31906 H 3000.31 2.10277 -2.46889 0
M  V30 31907 H 3000.09 0.937679 -3.80723 0
M  V30 31908 H 3001.58 1.92277 -3.70701 0
M  V30 31909 N 3002.02 1.5584 -0.234849 0
M  V30 31910 C 3003.27 1.97821 0.39365 0
M  V30 31911 C 3003.58 1.12592 1.59945 0
M  V30 31912 O 3004.79 1.44532 2.29832 0
M  V30 31913 C 3003.25 3.51961 0.751749 0
M  V30 31914 C 3002.85 4.45913 -0.431976 0
M  V30 31915 C 3004.6 4.02625 1.34511 0
M  V30 31916 C 3002.5 5.91378 -0.0507016 0
M  V30 31917 H 3001.43 0.738756 0.150851 0
M  V30 31918 H 3004.09 1.8045 -0.333164 0
M  V30 31919 H 3002.47 3.64982 1.53636 0
M  V30 31920 H 3003.64 4.44645 -1.20943 0
M  V30 31921 H 3001.96 4.05664 -0.939457 0
M  V30 31922 H 3004.55 5.08815 1.6435 0
M  V30 31923 H 3004.9 3.49259 2.26547 0
M  V30 31924 H 3005.43 3.92881 0.62366 0
M  V30 31925 H 3002.17 6.48756 -0.937893 0
M  V30 31926 H 3001.69 5.95809 0.690793 0
M  V30 31927 H 3003.37 6.45933 0.371347 0
M  V30 31928 N 3003.5 -0.038404 1.57553 0
M  V30 31929 C 3004.46 -1.0265 2.04929 0
M  V30 31930 C 3005.46 -1.29606 0.951791 0
M  V30 31931 O 3006.65 -1.24765 1.2157 0
M  V30 31932 C 3003.78 -2.36177 2.45832 0
M  V30 31933 H 3004.98 -0.617456 2.93475 0
M  V30 31934 H 3002.53 -0.285004 1.5368 0
M  V30 31935 H 3003.27 -2.81848 1.60413 0
M  V30 31936 H 3003.05 -2.17944 3.25949 0
M  V30 31937 H 3004.54 -3.07135 2.82945 0
M  V30 31938 N 3004.98 -1.54511 -0.310498 0
M  V30 31939 C 3006.23 -1.72551 -1.04447 0
M  V30 31940 C 3006.54 -0.513205 -1.88747 0
M  V30 31941 O 3007.75 -0.575212 -2.65337 0
M  V30 31942 C 3006.2 -3.05249 -1.9066 0
M  V30 31943 C 3005.81 -4.33927 -1.11407 0
M  V30 31944 C 3007.55 -3.32649 -2.63713 0
M  V30 31945 C 3005.46 -5.5768 -1.96842 0
M  V30 31946 H 3004.39 -0.643074 -0.393665 0
M  V30 31947 H 3007.04 -1.80998 -0.301972 0
M  V30 31948 H 3005.42 -2.90742 -2.68859 0
M  V30 31949 H 3006.6 -4.5924 -0.378875 0
M  V30 31950 H 3004.91 -4.1339 -0.49978 0
M  V30 31951 H 3007.51 -4.22306 -3.27966 0
M  V30 31952 H 3007.85 -2.51104 -3.32043 0
M  V30 31953 H 3008.39 -3.48084 -1.92568 0
M  V30 31954 H 3005.12 -6.41866 -1.32998 0
M  V30 31955 H 3004.64 -5.36567 -2.6806 0
M  V30 31956 H 3006.32 -5.94579 -2.55117 0
M  V30 31957 N 3006.46 0.573222 -1.46806 0
M  V30 31958 C 3007.37 1.70927 -1.6069 0
M  V30 31959 C 3008.38 1.66955 -0.490113 0
M  V30 31960 O 3009.56 1.86692 -0.755515 0
M  V30 31961 C 3006.62 3.07435 -1.60264 0
M  V30 31962 C 3005.68 3.22598 -2.83248 0
M  V30 31963 C 3004.92 4.52594 -2.82833 0
M  V30 31964 O 3005.14 5.37071 -1.92123 0
M  V30 31965 O 3004.07 4.71207 -3.74497 0
M  V30 31966 H 3007.9 1.62159 -2.56784 0
M  V30 31967 H 3005.48 0.741376 -1.29707 0
M  V30 31968 H 3007.37 3.88701 -1.62756 0
M  V30 31969 H 3006.04 3.1662 -0.673324 0
M  V30 31970 H 3004.95 2.40789 -2.86306 0
M  V30 31971 H 3006.28 3.18309 -3.7542 0
M  V30 31972 N 3007.93 1.3467 0.818645 0
M  V30 31973 C 3009.18 1.27015 1.57199 0
M  V30 31974 C 3009.5 -0.158565 1.94354 0
M  V30 31975 O 3008.77 -1.0922 1.62628 0
M  V30 31976 H 3007.35 0.467145 0.58291 0
M  V30 31977 H 3010.01 1.68632 0.977204 0
M  V30 31978 H 3009.11 1.87782 2.49287 0
M  V30 31979 N 3009.41 -1.03936 1.1847 0
M  V30 31980 C 3010.66 -1.77421 0.982317 0
M  V30 31981 C 3010.99 -1.88001 -0.486757 0
M  V30 31982 O 3010.27 -1.38907 -1.36143 0
M  V30 31983 C 3010.55 -3.2062 1.63935 0
M  V30 31984 C 3010.4 -3.17976 3.18137 0
M  V30 31985 C 3011.72 -4.18765 1.35367 0
M  V30 31986 H 3008.84 -0.644056 0.358275 0
M  V30 31987 H 3011.48 -1.21402 1.46156 0
M  V30 31988 H 3009.63 -3.68453 1.23186 0
M  V30 31989 H 3011.3 -2.78123 3.68029 0
M  V30 31990 H 3009.55 -2.55972 3.50229 0
M  V30 31991 H 3010.22 -4.19101 3.59247 0
M  V30 31992 H 3012.69 -3.79485 1.70676 0
M  V30 31993 H 3011.57 -5.17175 1.83905 0
M  V30 31994 H 3011.83 -4.41233 0.2768 0
M  V30 31995 N 3010.89 -0.986938 -1.22871 0
M  V30 31996 C 3011.84 -0.532255 -2.24579 0
M  V30 31997 C 3012.81 0.432293 -1.60376 0
M  V30 31998 O 3013.99 0.338383 -1.87775 0
M  V30 31999 C 3011.13 0.152803 -3.44762 0
M  V30 32000 C 3010.24 -0.852779 -4.23499 0
M  V30 32001 C 3009.38 -0.141854 -5.31011 0
M  V30 32002 C 3008.42 -1.13621 -6.01462 0
M  V30 32003 N 3007.56 -0.453995 -7.00631 0
M  V30 32004 H 3012.4 -1.40433 -2.62836 0
M  V30 32005 H 3009.93 -0.703566 -1.29183 0
M  V30 32006 H 3011.89 0.566853 -4.13331 0
M  V30 32007 H 3010.52 0.988702 -3.07286 0
M  V30 32008 H 3009.57 -1.38518 -3.54284 0
M  V30 32009 H 3010.88 -1.61023 -4.72094 0
M  V30 32010 H 3010.04 0.329231 -6.05806 0
M  V30 32011 H 3008.78 0.648144 -4.83374 0
M  V30 32012 H 3007.78 -1.61798 -5.25454 0
M  V30 32013 H 3009.01 -1.92698 -6.51187 0
M  V30 32014 H 3006.95 0.316675 -6.55235 0
M  V30 32015 H 3006.87 -1.14999 -7.47202 0
M  V30 32016 H 3008.14 -0.00551525 -7.795 0
M  V30 32017 N 3012.37 1.38098 -0.759394 0
M  V30 32018 C 3013.6 2.03969 -0.32867 0
M  V30 32019 C 3014.01 1.57399 1.04986 0
M  V30 32020 O 3013.35 0.744961 1.67917 0
M  V30 32021 C 3013.41 3.58414 -0.279279 0
M  V30 32022 C 3013.07 4.28064 -1.60033 0
M  V30 32023 C 3014.07 4.53037 -2.55056 0
M  V30 32024 C 3011.76 4.66139 -1.87136 0
M  V30 32025 C 3013.75 5.15125 -3.75399 0
M  V30 32026 C 3011.44 5.27951 -3.07752 0
M  V30 32027 C 3012.44 5.5238 -4.01703 0
M  V30 32028 O 3012.12 6.12903 -5.20197 0
M  V30 32029 H 3011.86 0.661878 -0.137455 0
M  V30 32030 H 3014.41 1.77659 -1.03085 0
M  V30 32031 H 3012.64 3.8372 0.479186 0
M  V30 32032 H 3014.33 4.05714 0.12271 0
M  V30 32033 H 3015.09 4.24045 -2.35395 0
M  V30 32034 H 3010.97 4.46467 -1.14841 0
M  V30 32035 H 3014.52 5.34109 -4.48746 0
M  V30 32036 H 3010.41 5.56366 -3.27304 0
M  V30 32037 H 3011.18 6.31388 -5.20857 0
M  V30 32038 N 3013.85 0.508932 1.49156 0
M  V30 32039 C 3015.09 -0.032698 2.02074 0
M  V30 32040 C 3015.41 -1.36748 1.39014 0
M  V30 32041 O 3014.68 -1.88074 0.548186 0
M  V30 32042 H 3013.26 -0.0150733 0.746848 0
M  V30 32043 H 3015.93 0.667979 1.83096 0
M  V30 32044 H 3015.02 -0.156545 3.11707 0
M  V30 32045 N 3015.32 -1.55714 0.243111 0
M  V30 32046 C 3016.25 -2.24204 -0.652297 0
M  V30 32047 C 3017.23 -1.22102 -1.18428 0
M  V30 32048 O 3018.42 -1.50745 -1.22432 0
M  V30 32049 C 3015.55 -2.93859 -1.85105 0
M  V30 32050 C 3014.5 -4.02617 -1.45201 0
M  V30 32051 C 3013.83 -4.59679 -2.73129 0
M  V30 32052 C 3015.13 -5.18536 -0.625897 0
M  V30 32053 H 3016.82 -2.9929 -0.0811978 0
M  V30 32054 H 3014.37 -1.43951 -0.0376135 0
M  V30 32055 H 3016.32 -3.40472 -2.48308 0
M  V30 32056 H 3015.05 -2.16255 -2.44747 0
M  V30 32057 H 3013.71 -3.56768 -0.843343 0
M  V30 32058 H 3013.35 -3.7878 -3.3096 0
M  V30 32059 H 3013.05 -5.33094 -2.47154 0
M  V30 32060 H 3014.58 -5.09023 -3.37236 0
M  V30 32061 H 3015.99 -5.61398 -1.16213 0
M  V30 32062 H 3014.39 -5.98316 -0.462359 0
M  V30 32063 H 3015.46 -4.83541 0.362737 0
M  V30 32064 N 3016.8 0.030048 -1.57571 0
M  V30 32065 C 3018.03 0.732857 -1.93486 0
M  V30 32066 C 3018.45 1.68945 -0.842788 0
M  V30 32067 O 3017.8 1.81601 0.180872 0
M  V30 32068 C 3017.85 1.49076 -3.2933 0
M  V30 32069 O 3017.57 0.572563 -4.34342 0
M  V30 32070 C 3019.08 2.29082 -3.79521 0
M  V30 32071 H 3016.3 0.206015 -0.638591 0
M  V30 32072 H 3018.84 -0.0121326 -2.04496 0
M  V30 32073 H 3016.99 2.18764 -3.1972 0
M  V30 32074 H 3017.41 1.10397 -5.1275 0
M  V30 32075 H 3018.88 2.77656 -4.77086 0
M  V30 32076 H 3019.36 3.10458 -3.10664 0
M  V30 32077 H 3019.97 1.6447 -3.92211 0
M  V30 32078 N 3018.28 1.54674 0.3023 0
M  V30 32079 C 3019.53 1.73102 1.0353 0
M  V30 32080 C 3019.84 0.523207 1.88473 0
M  V30 32081 O 3021.05 0.589275 2.65028 0
M  V30 32082 C 3019.5 3.06256 1.89038 0
M  V30 32083 C 3019.11 4.34511 1.09105 0
M  V30 32084 C 3020.86 3.34043 2.61945 0
M  V30 32085 C 3018.76 5.58716 1.93882 0
M  V30 32086 H 3017.69 0.645152 0.390249 0
M  V30 32087 H 3020.34 1.81156 0.292369 0
M  V30 32088 H 3018.73 2.92163 2.67313 0
M  V30 32089 H 3019.9 4.59434 0.354515 0
M  V30 32090 H 3018.22 4.13649 0.47785 0
M  V30 32091 H 3020.81 4.24039 3.25722 0
M  V30 32092 H 3021.16 2.52861 3.30707 0
M  V30 32093 H 3021.69 3.491 1.90719 0
M  V30 32094 H 3018.43 6.42562 1.29592 0
M  V30 32095 H 3017.95 5.37981 2.6521 0
M  V30 32096 H 3019.63 5.95924 2.5196 0
M  V30 32097 N 3019.76 -0.565428 1.47108 0
M  V30 32098 C 3020.99 -1.34857 1.56911 0
M  V30 32099 C 3021.4 -1.87556 0.216345 0
M  V30 32100 O 3020.76 -1.64557 -0.789139 0
M  V30 32101 C 3020.81 -2.52419 2.5878 0
M  V30 32102 O 3020.53 -2.01899 3.88804 0
M  V30 32103 C 3022.03 -3.44742 2.78689 0
M  V30 32104 H 3019.25 -0.411377 0.530104 0
M  V30 32105 H 3021.8 -0.685748 1.9266 0
M  V30 32106 H 3019.95 -3.14656 2.25988 0
M  V30 32107 H 3020.36 -2.78587 4.44398 0
M  V30 32108 H 3021.84 -4.23668 3.5385 0
M  V30 32109 H 3022.32 -3.9777 1.86215 0
M  V30 32110 H 3022.92 -2.88327 3.12646 0
M  V30 32111 N 3021.24 -1.35102 -0.811492 0
M  V30 32112 C 3022.65 -1.25185 -1.38513 0
M  V30 32113 C 3023 0.117849 -1.95846 0
M  V30 32114 O 3022.12 1.01863 -1.90926 0
M  V30 32115 C 3022.72 -2.26666 -2.51809 0
M  V30 32116 C 3021.28 -2.20505 -3.05049 0
M  V30 32117 C 3020.42 -2.12644 -1.77983 0
M  V30 32118 H 3023.38 -1.46302 -0.614933 0
M  V30 32119 H 3023.4 -1.89029 -3.30224 0
M  V30 32120 H 3022.91 -3.26344 -2.10051 0
M  V30 32121 H 3021.01 -1.24222 -3.51283 0
M  V30 32122 H 3021.12 -3.12257 -3.63363 0
M  V30 32123 H 3019.49 -1.58544 -1.99339 0
M  V30 32124 H 3020.27 -3.14174 -1.38383 0
M  V30 32125 N 3022.71 1.03306 -1.19019 0
M  V30 32126 C 3023.68 2.09656 -0.926113 0
M  V30 32127 C 3024.68 1.60538 0.0916795 0
M  V30 32128 O 3025.87 1.73615 -0.142605 0
M  V30 32129 C 3023 3.3865 -0.391017 0
M  V30 32130 H 3024.19 2.34517 -1.86927 0
M  V30 32131 H 3021.75 1.19851 -1.00327 0
M  V30 32132 H 3022.48 3.19457 0.55839 0
M  V30 32133 H 3022.27 3.7562 -1.1248 0
M  V30 32134 H 3023.76 4.16992 -0.225205 0
M  V30 32135 N 3024.19 0.99344 1.22346 0
M  V30 32136 C 3025.47 0.585528 1.8663 0
M  V30 32137 C 3025.85 -0.937154 1.89158 0
M  V30 32138 O 3025.2 -1.81932 1.3825 0
M  V30 32139 C 3025.41 1.20658 3.27479 0
M  V30 32140 C 3026.76 1.30745 4.03969 0
M  V30 32141 O 3027.78 1.16101 3.36748 0
M  V30 32142 O 3026.64 1.54183 5.243 0
M  V30 32143 H 3023.73 0.198998 0.802701 0
M  V30 32144 H 3026.28 1.08935 1.3012 0
M  V30 32145 H 3025.05 2.24808 3.20277 0
M  V30 32146 H 3024.67 0.688381 3.91596 0
M  V30 32147 N 3025.67 -1.37693 0.766707 0
M  V30 32148 C 3026.62 -2.30326 0.147766 0
M  V30 32149 C 3027.59 -1.50845 -0.695339 0
M  V30 32150 O 3028.77 -1.79432 -0.648749 0
M  V30 32151 C 3025.91 -3.37306 -0.729291 0
M  V30 32152 C 3025.03 -4.31805 0.12987 0
M  V30 32153 C 3024.16 -5.25858 -0.751419 0
M  V30 32154 C 3023.2 -6.12 0.110583 0
M  V30 32155 N 3022.34 -6.98311 -0.7284 0
M  V30 32156 H 3027.18 -2.82678 0.943254 0
M  V30 32157 H 3024.71 -1.3916 0.476761 0
M  V30 32158 H 3026.67 -3.97953 -1.25256 0
M  V30 32159 H 3025.3 -2.86332 -1.49043 0
M  V30 32160 H 3024.35 -3.72507 0.770895 0
M  V30 32161 H 3025.67 -4.92424 0.79501 0
M  V30 32162 H 3024.82 -5.91686 -1.34136 0
M  V30 32163 H 3023.56 -4.65638 -1.45025 0
M  V30 32164 H 3022.56 -5.45156 0.713094 0
M  V30 32165 H 3023.79 -6.74292 0.806676 0
M  V30 32166 H 3021.73 -6.40625 -1.41194 0
M  V30 32167 H 3021.65 -7.55904 -0.120447 0
M  V30 32168 H 3022.92 -7.68534 -1.30289 0
M  V30 32169 N 3027.15 -0.516835 -1.48884 0
M  V30 32170 C 3028.37 0.0204836 -2.0739 0
M  V30 32171 C 3028.8 1.28612 -1.37261 0
M  V30 32172 O 3028.16 1.76021 -0.434335 0
M  V30 32173 C 3028.2 0.240977 -3.59794 0
M  V30 32174 O 3027.31 1.31244 -3.90959 0
M  V30 32175 H 3026.65 -0.033268 -0.663166 0
M  V30 32176 H 3029.18 -0.720989 -1.91476 0
M  V30 32177 H 3029.19 0.467666 -4.05311 0
M  V30 32178 H 3027.86 -0.683632 -4.10243 0
M  V30 32179 H 3026.44 1.06945 -3.57236 0
M  V30 32180 N 3028.63 1.55583 -0.251365 0
M  V30 32181 C 3029.57 2.22966 0.662495 0
M  V30 32182 C 3030.57 1.21871 1.1766 0
M  V30 32183 O 3031.77 1.3987 1.13298 0
M  V30 32184 H 3028.15 0.715273 0.232138 0
M  V30 32185 H 3030.12 2.98315 0.0710728 0
M  V30 32186 C 3028.87 2.94624 1.8464 0
M  V30 32187 H 3028.19 3.72189 1.45997 0
M  V30 32188 H 3029.63 3.45129 2.46297 0
M  V30 32189 C 3028.09 1.98748 2.72031 0
M  V30 32190 O 3028.62 1.52341 3.71692 0
M  V30 32191 N 3026.83 1.65754 2.38692 0
M  V30 32192 H 3026.37 2.03688 1.57699 0
M  V30 32193 H 3026.33 1.01872 2.97438 0
M  V30 32194 N 3030.1 -0.0216912 1.57585 0
M  V30 32195 C 3031.33 -0.722585 1.93872 0
M  V30 32196 C 3031.75 -1.68496 0.851736 0
M  V30 32197 O 3031.1 -1.81695 -0.171239 0
M  V30 32198 C 3031.16 -1.47327 3.30116 0
M  V30 32199 O 3030.88 -0.54952 4.3464 0
M  V30 32200 C 3032.38 -2.27066 3.80731 0
M  V30 32201 H 3029.6 -0.202625 0.639675 0
M  V30 32202 H 3032.14 0.0229774 2.04487 0
M  V30 32203 H 3030.3 -2.17065 3.20876 0
M  V30 32204 H 3030.71 -1.07677 5.13328 0
M  V30 32205 H 3032.18 -2.75122 4.78552 0
M  V30 32206 H 3032.66 -3.08807 3.12306 0
M  V30 32207 H 3033.27 -1.62388 3.93078 0
M  V30 32208 N 3031.58 -1.54832 -0.294093 0
M  V30 32209 C 3032.83 -1.74441 -1.02843 0
M  V30 32210 C 3033.16 -0.533938 -1.87028 0
M  V30 32211 O 3032.41 0.484001 -1.8962 0
M  V30 32212 C 3032.71 -2.99009 -1.95776 0
M  V30 32213 C 3032.38 -4.32494 -1.27513 0
M  V30 32214 C 3031.04 -4.68779 -1.08628 0
M  V30 32215 C 3033.39 -5.15214 -0.78767 0
M  V30 32216 C 3030.72 -5.85356 -0.396937 0
M  V30 32217 C 3033.07 -6.32501 -0.112012 0
M  V30 32218 C 3031.74 -6.67441 0.0887244 0
M  V30 32219 H 3031.01 -0.638323 -0.37633 0
M  V30 32220 H 3033.65 -1.89093 -0.302651 0
M  V30 32221 H 3031.96 -2.79167 -2.74906 0
M  V30 32222 H 3033.66 -3.11376 -2.52678 0
M  V30 32223 H 3030.25 -4.03963 -1.43218 0
M  V30 32224 H 3034.43 -4.87675 -0.921255 0
M  V30 32225 H 3029.69 -6.10965 -0.230489 0
M  V30 32226 H 3033.86 -6.95862 0.273562 0
M  V30 32227 H 3031.49 -7.57627 0.624881 0
M  V30 32228 N 3033.06 0.557619 -1.47405 0
M  V30 32229 C 3034.31 1.31676 -1.54238 0
M  V30 32230 C 3034.64 1.93128 -0.203816 0
M  V30 32231 O 3033.92 1.77844 0.787505 0
M  V30 32232 C 3034.2 2.42718 -2.66007 0
M  V30 32233 C 3034.05 1.86138 -4.09478 0
M  V30 32234 C 3035.37 3.44647 -2.73691 0
M  V30 32235 H 3032.49 0.477405 -0.561474 0
M  V30 32236 H 3035.13 0.624036 -1.7946 0
M  V30 32237 H 3033.28 3.01807 -2.44632 0
M  V30 32238 H 3034.95 1.31313 -4.42215 0
M  V30 32239 H 3033.2 1.16816 -4.17776 0
M  V30 32240 H 3033.87 2.6641 -4.83456 0
M  V30 32241 H 3036.34 2.95476 -2.92973 0
M  V30 32242 H 3035.22 4.19771 -3.53672 0
M  V30 32243 H 3035.48 4.0347 -1.80733 0
M  V30 32244 N 3034.54 1.35531 0.804316 0
M  V30 32245 C 3035.49 1.28638 1.91627 0
M  V30 32246 C 3036.46 0.157891 1.65348 0
M  V30 32247 O 3037.64 0.341967 1.8771 0
M  V30 32248 C 3034.78 1.06656 3.28205 0
M  V30 32249 C 3033.89 2.28447 3.66655 0
M  V30 32250 C 3033.03 1.99596 4.92275 0
M  V30 32251 C 3032.07 3.17429 5.23359 0
M  V30 32252 N 3031.21 2.8834 6.4016 0
M  V30 32253 H 3036.05 2.23724 1.96854 0
M  V30 32254 H 3033.58 1.1121 0.962852 0
M  V30 32255 H 3035.54 0.919415 4.06943 0
M  V30 32256 H 3034.17 0.15231 3.2244 0
M  V30 32257 H 3033.22 2.54018 2.83159 0
M  V30 32258 H 3034.53 3.16427 3.85585 0
M  V30 32259 H 3033.69 1.81726 5.78844 0
M  V30 32260 H 3032.43 1.08905 4.75385 0
M  V30 32261 H 3031.43 3.35875 4.35279 0
M  V30 32262 H 3032.66 4.08926 5.42178 0
M  V30 32263 H 3030.6 2.00244 6.24691 0
M  V30 32264 H 3030.52 3.69854 6.59351 0
M  V30 32265 H 3031.79 2.74015 7.29751 0
M  V30 32266 N 3036.02 -1.02674 1.19565 0
M  V30 32267 C 3036.95 -2.12895 0.959061 0
M  V30 32268 C 3037.93 -1.69755 -0.108352 0
M  V30 32269 O 3039.11 -1.94143 0.0471039 0
M  V30 32270 C 3036.24 -3.43693 0.499271 0
M  V30 32271 C 3035.2 -4.00525 1.50877 0
M  V30 32272 C 3034.52 -5.26969 0.905976 0
M  V30 32273 C 3035.82 -4.35085 2.88961 0
M  V30 32274 H 3037.52 -2.32945 1.88088 0
M  V30 32275 H 3035.06 -1.11947 0.905751 0
M  V30 32276 H 3037.02 -4.20175 0.321039 0
M  V30 32277 H 3035.74 -3.23371 -0.458148 0
M  V30 32278 H 3034.4 -3.26139 1.67418 0
M  V30 32279 H 3034.05 -5.02965 -0.0590622 0
M  V30 32280 H 3033.75 -5.65956 1.5801 0
M  V30 32281 H 3035.27 -6.06117 0.738587 0
M  V30 32282 H 3036.69 -5.02496 2.7599 0
M  V30 32283 H 3035.08 -4.8516 3.53186 0
M  V30 32284 H 3036.15 -3.44293 3.41453 0
M  V30 32285 N 3037.5 -0.999914 -1.21817 0
M  V30 32286 C 3038.77 -0.595417 -1.86317 0
M  V30 32287 C 3039.15 0.927109 -1.89652 0
M  V30 32288 O 3038.5 1.81196 -1.39213 0
M  V30 32289 C 3038.71 -1.22393 -3.26835 0
M  V30 32290 C 3040.06 -1.32885 -4.0327 0
M  V30 32291 O 3041.08 -1.17886 -3.36127 0
M  V30 32292 O 3039.94 -1.56961 -5.23474 0
M  V30 32293 H 3037.04 -0.203252 -0.801634 0
M  V30 32294 H 3039.58 -1.09624 -1.2954 0
M  V30 32295 H 3038.35 -2.26503 -3.1908 0
M  V30 32296 H 3037.98 -0.709138 -3.91225 0
M  V30 32297 N 3038.97 1.37284 -0.773999 0
M  V30 32298 C 3040.2 2.03609 -0.350285 0
M  V30 32299 C 3040.61 1.58504 1.03311 0
M  V30 32300 O 3039.95 0.762729 1.67117 0
M  V30 32301 C 3040.02 3.58097 -0.317278 0
M  V30 32302 C 3039.68 4.26342 -1.64564 0
M  V30 32303 C 3040.68 4.50306 -2.59847 0
M  V30 32304 C 3038.36 4.64128 -1.92069 0
M  V30 32305 C 3040.36 5.11115 -3.80842 0
M  V30 32306 C 3038.04 5.24657 -3.13334 0
M  V30 32307 C 3039.04 5.48088 -4.07539 0
M  V30 32308 O 3038.73 6.07351 -5.26669 0
M  V30 32309 H 3038.46 0.660383 -0.144467 0
M  V30 32310 H 3041.02 1.76556 -1.04963 0
M  V30 32311 H 3039.25 3.84206 0.438461 0
M  V30 32312 H 3040.93 4.05822 0.0796714 0
M  V30 32313 H 3041.7 4.21525 -2.39879 0
M  V30 32314 H 3037.58 4.45224 -1.1957 0
M  V30 32315 H 3041.12 5.29319 -4.54386 0
M  V30 32316 H 3037.02 5.52863 -3.33186 0
M  V30 32317 H 3037.79 6.25828 -5.27524 0
M  V30 32318 N 3040.45 0.524724 1.48608 0
M  V30 32319 C 3041.68 -0.00948494 2.07398 0
M  V30 32320 C 3042.1 -1.27882 1.37941 0
M  V30 32321 O 3041.46 -1.75788 0.443664 0
M  V30 32322 C 3041.51 -0.221893 3.59917 0
M  V30 32323 O 3040.61 -1.29169 3.91649 0
M  V30 32324 H 3039.95 0.0367845 0.66298 0
M  V30 32325 H 3042.48 0.731134 1.91091 0
M  V30 32326 H 3042.49 -0.446165 4.05553 0
M  V30 32327 H 3041.17 0.705378 4.09875 0
M  V30 32328 H 3039.74 -1.05049 3.57798 0
M  V30 32329 N 3041.93 -1.55447 0.259613 0
M  V30 32330 C 3042.88 -2.23314 -0.650661 0
M  V30 32331 C 3043.87 -1.22493 -1.17012 0
M  V30 32332 O 3045.08 -1.40469 -1.12554 0
M  V30 32333 H 3041.45 -0.716494 -0.228342 0
M  V30 32334 H 3043.42 -2.98349 -0.0552514 0
M  V30 32335 C 3042.17 -2.95599 -1.83075 0
M  V30 32336 H 3041.5 -3.72958 -1.44021 0
M  V30 32337 H 3042.94 -3.4643 -2.44463 0
M  V30 32338 C 3041.39 -2.00188 -2.70973 0
M  V30 32339 O 3041.92 -1.5431 -3.70879 0
M  V30 32340 N 3040.13 -1.67018 -2.3781 0
M  V30 32341 H 3039.68 -2.04522 -1.56616 0
M  V30 32342 H 3039.64 -1.03448 -2.96894 0
M  V30 32343 N 3043.41 0.0133338 -1.57594 0
M  V30 32344 C 3044.65 0.701985 -1.90263 0
M  V30 32345 C 3044.99 1.74157 -0.85925 0
M  V30 32346 O 3044.26 1.94106 0.123743 0
M  V30 32347 C 3044.54 1.35726 -3.33542 0
M  V30 32348 C 3044.4 0.330129 -4.48587 0
M  V30 32349 C 3045.72 2.28705 -3.76008 0
M  V30 32350 H 3042.84 0.253727 -0.691948 0
M  V30 32351 H 3045.48 -0.0352228 -1.89967 0
M  V30 32352 H 3043.63 1.98561 -3.33925 0
M  V30 32353 H 3045.3 -0.297514 -4.6034 0
M  V30 32354 H 3043.54 -0.349002 -4.32394 0
M  V30 32355 H 3044.21 0.827412 -5.45764 0
M  V30 32356 H 3046.69 1.759 -3.77092 0
M  V30 32357 H 3045.57 2.71527 -4.77037 0
M  V30 32358 H 3045.83 3.16051 -3.09135 0
M  V30 32359 N 3044.89 1.54985 0.285878 0
M  V30 32360 C 3046.11 1.78994 1.03773 0
M  V30 32361 C 3046.53 0.556845 1.80401 0
M  V30 32362 O 3045.89 -0.47377 1.76243 0
M  V30 32363 C 3045.94 3.00706 2.00645 0
M  V30 32364 O 3045.66 4.19251 1.27123 0
M  V30 32365 C 3047.16 3.37219 2.87747 0
M  V30 32366 H 3044.38 0.596591 0.307115 0
M  V30 32367 H 3046.92 2.01972 0.320564 0
M  V30 32368 H 3045.08 2.79891 2.67843 0
M  V30 32369 H 3045.49 4.87974 1.92307 0
M  V30 32370 H 3046.97 4.25586 3.51541 0
M  V30 32371 H 3047.44 2.56045 3.56844 0
M  V30 32372 H 3048.05 3.60246 2.26059 0
M  V30 32373 N 3046.36 -0.549794 1.47699 0
M  V30 32374 C 3047.61 -1.30663 1.54705 0
M  V30 32375 C 3047.94 -1.93336 0.212452 0
M  V30 32376 O 3047.19 -1.78807 -0.795398 0
M  V30 32377 C 3047.49 -2.43185 2.61908 0
M  V30 32378 C 3047.16 -1.98294 4.04957 0
M  V30 32379 C 3045.82 -1.85768 4.43896 0
M  V30 32380 C 3048.17 -1.64124 4.94684 0
M  V30 32381 C 3045.5 -1.37378 5.7039 0
M  V30 32382 C 3047.85 -1.17203 6.21648 0
M  V30 32383 C 3046.52 -1.03278 6.59462 0
M  V30 32384 H 3045.79 -0.478129 0.566104 0
M  V30 32385 H 3048.43 -0.615736 1.81331 0
M  V30 32386 H 3046.74 -3.17862 2.29066 0
M  V30 32387 H 3048.44 -3.01356 2.64548 0
M  V30 32388 H 3045.03 -2.08989 3.74195 0
M  V30 32389 H 3049.21 -1.72671 4.65294 0
M  V30 32390 H 3044.47 -1.25268 5.9843 0
M  V30 32391 H 3048.64 -0.89827 6.90582 0
M  V30 32392 H 3046.27 -0.655602 7.57368 0
M  V30 32393 N 3047.84 -1.35955 -0.797117 0
M  V30 32394 C 3048.77 -1.32326 -1.92385 0
M  V30 32395 C 3049.75 -0.196037 -1.68967 0
M  V30 32396 O 3050.94 -0.392484 -1.90193 0
M  V30 32397 C 3048.07 -1.10404 -3.29285 0
M  V30 32398 C 3047.02 -2.19868 -3.67208 0
M  V30 32399 C 3046.35 -1.83099 -5.02373 0
M  V30 32400 C 3047.65 -3.61902 -3.76595 0
M  V30 32401 H 3049.34 -2.26606 -1.95679 0
M  V30 32402 H 3046.89 -1.09083 -0.94005 0
M  V30 32403 H 3048.84 -1.06502 -4.0772 0
M  V30 32404 H 3047.57 -0.125725 -3.26358 0
M  V30 32405 H 3046.22 -2.22883 -2.91065 0
M  V30 32406 H 3045.87 -0.838614 -4.9596 0
M  V30 32407 H 3045.57 -2.56382 -5.28718 0
M  V30 32408 H 3047.1 -1.80739 -5.83237 0
M  V30 32409 H 3048.51 -3.61157 -4.4524 0
M  V30 32410 H 3046.91 -4.34026 -4.14417 0
M  V30 32411 H 3047.98 -3.97366 -2.77899 0
M  V30 32412 N 3049.32 1.02038 -1.20108 0
M  V30 32413 C 3050.27 2.10499 -0.946505 0
M  V30 32414 C 3051.24 1.65652 0.121873 0
M  V30 32415 O 3052.42 1.90787 -0.0220579 0
M  V30 32416 C 3049.56 3.4145 -0.500559 0
M  V30 32417 C 3048.68 3.99797 -1.63666 0
M  V30 32418 C 3047.81 5.18792 -1.1414 0
M  V30 32419 C 3046.85 5.69213 -2.25084 0
M  V30 32420 N 3045.99 6.79474 -1.76803 0
M  V30 32421 H 3050.83 2.31612 -1.8751 0
M  V30 32422 H 3048.36 1.13585 -0.934713 0
M  V30 32423 H 3050.32 4.16602 -0.22335 0
M  V30 32424 H 3048.95 3.20423 0.391042 0
M  V30 32425 H 3048 3.21777 -2.02888 0
M  V30 32426 H 3049.32 4.33224 -2.47221 0
M  V30 32427 H 3048.47 6.01134 -0.819932 0
M  V30 32428 H 3047.21 4.8692 -0.275701 0
M  V30 32429 H 3046.21 4.85478 -2.58052 0
M  V30 32430 H 3047.44 6.03121 -3.12124 0
M  V30 32431 H 3045.38 6.49438 -0.925542 0
M  V30 32432 H 3045.3 7.12075 -2.53941 0
M  V30 32433 H 3046.57 7.6539 -1.47645 0
M  V30 32434 N 3050.8 1.00636 1.21285 0
M  V30 32435 C 3052.21 0.719414 1.42466 0
M  V30 32436 C 3052.41 -0.704894 1.88768 0
M  V30 32437 O 3051.47 -1.47406 2.05007 0
M  V30 32438 C 3052.78 1.73643 2.45497 0
M  V30 32439 C 3054.33 1.7534 2.59278 0
M  V30 32440 C 3054.81 2.7594 3.65542 0
M  V30 32441 N 3056.3 2.74617 3.73014 0
M  V30 32442 C 3057.03 3.49118 4.54867 0
M  V30 32443 N 3056.53 4.33263 5.40606 0
M  V30 32444 N 3058.32 3.37762 4.49303 0
M  V30 32445 H 3050.47 1.92603 0.89542 0
M  V30 32446 H 3052.74 0.831412 0.455476 0
M  V30 32447 H 3052.44 2.75631 2.1845 0
M  V30 32448 H 3052.32 1.5402 3.44322 0
M  V30 32449 H 3054.7 0.740427 2.8566 0
M  V30 32450 H 3054.78 1.99035 1.60682 0
M  V30 32451 H 3054.43 3.77395 3.39905 0
M  V30 32452 H 3054.36 2.49511 4.63737 0
M  V30 32453 H 3056.85 2.13571 3.11763 0
M  V30 32454 H 3057.16 4.86902 6.00121 0
M  V30 32455 H 3055.51 4.37345 5.40143 0
M  V30 32456 H 3058.7 2.71456 3.81352 0
M  V30 32457 H 3058.87 3.96079 5.1286 0
M  V30 32458 N 3052.28 -1.36872 0.781268 0
M  V30 32459 C 3053.52 -1.9906 0.349233 0
M  V30 32460 C 3053.85 -1.62323 -1.08057 0
M  V30 32461 O 3053.12 -0.89326 -1.74349 0
M  V30 32462 H 3051.7 -0.736273 0.126139 0
M  V30 32463 H 3054.36 -1.672 1.00151 0
M  V30 32464 H 3053.45 -3.09061 0.434506 0
M  V30 32465 N 3053.75 -0.532597 -1.48328 0
M  V30 32466 C 3055 0.000546762 -2.025 0
M  V30 32467 C 3055.33 1.34033 -1.40944 0
M  V30 32468 O 3054.58 1.87941 -0.545578 0
M  V30 32469 C 3054.88 0.16888 -3.57001 0
M  V30 32470 C 3054.55 -1.09688 -4.37355 0
M  V30 32471 C 3053.21 -1.44377 -4.5903 0
M  V30 32472 C 3055.56 -1.93677 -4.83879 0
M  V30 32473 C 3052.89 -2.62948 -5.24476 0
M  V30 32474 C 3055.24 -3.11429 -5.50631 0
M  V30 32475 C 3053.91 -3.46461 -5.70545 0
M  V30 32476 H 3053.18 0.000200074 -0.741 0
M  V30 32477 H 3055.82 -0.699148 -1.78281 0
M  V30 32478 H 3054.13 0.951362 -3.80074 0
M  V30 32479 H 3055.83 0.596352 -3.96541 0
M  V30 32480 H 3052.42 -0.816729 -4.20746 0
M  V30 32481 H 3056.6 -1.68188 -4.66933 0
M  V30 32482 H 3051.86 -2.90289 -5.38091 0
M  V30 32483 H 3056.03 -3.76813 -5.85649 0
M  V30 32484 H 3053.66 -4.38436 -6.2103 0
M  V30 32485 N 3055.23 1.55307 -0.267853 0
M  V30 32486 C 3056.18 2.22239 0.622761 0
M  V30 32487 C 3057.15 1.19336 1.15534 0
M  V30 32488 O 3058.33 1.47854 1.20598 0
M  V30 32489 C 3055.47 2.94168 1.80442 0
M  V30 32490 C 3054.59 4.11774 1.30639 0
M  V30 32491 C 3053.72 4.71364 2.44927 0
M  V30 32492 C 3052.76 5.81178 1.92089 0
M  V30 32493 N 3051.9 6.34863 2.99823 0
M  V30 32494 H 3056.74 2.97966 0.045335 0
M  V30 32495 H 3054.28 1.47096 0.0106112 0
M  V30 32496 H 3056.23 3.34082 2.4989 0
M  V30 32497 H 3054.86 2.20878 2.35399 0
M  V30 32498 H 3053.92 3.7703 0.505247 0
M  V30 32499 H 3055.23 4.90988 0.879322 0
M  V30 32500 H 3054.38 5.13961 3.2238 0
M  V30 32501 H 3053.12 3.91411 2.90945 0
M  V30 32502 H 3052.13 5.38039 1.13113 0
M  V30 32503 H 3053.35 6.62996 1.47016 0
M  V30 32504 H 3051.3 5.57806 3.45236 0
M  V30 32505 H 3051.21 7.09329 2.61512 0
M  V30 32506 H 3052.48 6.82118 3.77274 0
M  V30 32507 N 3056.71 -0.00497598 1.57599 0
M  V30 32508 C 3057.64 -1.02606 2.0495 0
M  V30 32509 C 3058.66 -1.31004 0.96653 0
M  V30 32510 O 3059.84 -1.28068 1.24342 0
M  V30 32511 C 3056.94 -2.36202 2.43027 0
M  V30 32512 C 3056.12 -2.26815 3.73997 0
M  V30 32513 C 3055.18 -3.43058 3.98996 0
M  V30 32514 O 3054.2 -3.21468 4.6973 0
M  V30 32515 N 3055.4 -4.65742 3.46504 0
M  V30 32516 H 3058.17 -0.622284 2.93168 0
M  V30 32517 H 3055.73 -0.19246 1.60752 0
M  V30 32518 H 3057.72 -3.12731 2.56869 0
M  V30 32519 H 3056.29 -2.68338 1.60354 0
M  V30 32520 H 3055.51 -1.35229 3.70279 0
M  V30 32521 H 3056.8 -2.17711 4.59869 0
M  V30 32522 H 3056.2 -4.86181 2.89214 0
M  V30 32523 H 3054.76 -5.39554 3.65684 0
M  V30 32524 N 3058.19 -1.55135 -0.277654 0
M  V30 32525 C 3059.47 -1.6623 -1.03087 0
M  V30 32526 C 3059.85 -0.525737 -2.04449 0
M  V30 32527 O 3059.19 0.474777 -2.23513 0
M  V30 32528 C 3059.4 -3.0525 -1.69185 0
M  V30 32529 C 3060.75 -3.62844 -2.2052 0
M  V30 32530 O 3061.78 -3.07853 -1.79179 0
M  V30 32531 O 3060.63 -4.59182 -2.96334 0
M  V30 32532 H 3057.73 -0.674946 -0.477888 0
M  V30 32533 H 3060.27 -1.67475 -0.273882 0
M  V30 32534 H 3059.05 -3.79414 -0.957097 0
M  V30 32535 H 3058.67 -3.07884 -2.51582 0
M  V30 32536 N 3059.67 0.541953 -1.47989 0
M  V30 32537 C 3060.58 1.6748 -1.64279 0
M  V30 32538 C 3061.59 1.65878 -0.525416 0
M  V30 32539 O 3062.77 1.85048 -0.794945 0
M  V30 32540 C 3059.83 3.03966 -1.6675 0
M  V30 32541 C 3058.89 3.16517 -2.90027 0
M  V30 32542 C 3058.13 4.46493 -2.92369 0
M  V30 32543 O 3058.35 5.32875 -2.03472 0
M  V30 32544 O 3057.28 4.63157 -3.84408 0
M  V30 32545 H 3061.11 1.56675 -2.60166 0
M  V30 32546 H 3058.7 0.713697 -1.31251 0
M  V30 32547 H 3060.58 3.85161 -1.70965 0
M  V30 32548 H 3059.25 3.1512 -0.740332 0
M  V30 32549 H 3058.16 2.34662 -2.91349 0
M  V30 32550 H 3059.49 3.10274 -3.82088 0
M  V30 32551 N 3061.15 1.36376 0.789896 0
M  V30 32552 C 3062.09 1.30664 1.90252 0
M  V30 32553 C 3063.06 0.175419 1.65171 0
M  V30 32554 O 3064.25 0.361856 1.87337 0
M  V30 32555 C 3061.39 1.10131 3.27055 0
M  V30 32556 C 3060.5 2.32323 3.64211 0
M  V30 32557 C 3059.64 2.04806 4.9013 0
M  V30 32558 C 3058.67 3.22962 5.19963 0
M  V30 32559 N 3057.81 2.95113 6.37066 0
M  V30 32560 H 3062.65 2.258 1.9447 0
M  V30 32561 H 3060.19 1.12225 0.951002 0
M  V30 32562 H 3062.15 0.962525 4.05945 0
M  V30 32563 H 3060.78 0.1865 3.22261 0
M  V30 32564 H 3059.83 2.57007 2.80449 0
M  V30 32565 H 3061.14 3.20499 3.82207 0
M  V30 32566 H 3060.29 1.87855 5.76884 0
M  V30 32567 H 3059.03 1.13941 4.74203 0
M  V30 32568 H 3058.04 3.40473 4.31693 0
M  V30 32569 H 3059.26 4.14653 5.3781 0
M  V30 32570 H 3057.21 2.06859 6.22532 0
M  V30 32571 H 3057.13 3.76827 6.55391 0
M  V30 32572 H 3058.39 2.8174 7.26803 0
M  V30 32573 N 3062.62 -1.014 1.20647 0
M  V30 32574 C 3063.85 -1.78374 1.04241 0
M  V30 32575 C 3064.26 -1.84675 -0.411294 0
M  V30 32576 O 3063.6 -1.30059 -1.29731 0
M  V30 32577 C 3063.67 -3.24199 1.55354 0
M  V30 32578 C 3063.33 -3.41499 3.0369 0
M  V30 32579 C 3064.33 -3.30507 4.01324 0
M  V30 32580 C 3062.01 -3.67231 3.42705 0
M  V30 32581 C 3064.01 -3.44998 5.35962 0
M  V30 32582 C 3061.69 -3.81365 4.77498 0
M  V30 32583 C 3062.69 -3.70253 5.73935 0
M  V30 32584 O 3062.38 -3.8395 7.06284 0
M  V30 32585 H 3062.11 -0.567711 0.366988 0
M  V30 32586 H 3064.67 -1.28503 1.60238 0
M  V30 32587 H 3062.9 -3.75165 0.937456 0
M  V30 32588 H 3064.58 -3.82818 1.34928 0
M  V30 32589 H 3065.35 -3.10562 3.72527 0
M  V30 32590 H 3061.23 -3.74966 2.68181 0
M  V30 32591 H 3064.77 -3.36241 6.11218 0
M  V30 32592 H 3060.67 -4.00812 5.05984 0
M  V30 32593 H 3061.44 -4.00952 7.13568 0
M  V30 32594 N 3064.1 -1.01278 -1.2075 0
M  V30 32595 C 3065.05 -0.573029 -2.25431 0
M  V30 32596 C 3066.04 0.386325 -1.64936 0
M  V30 32597 O 3067.25 0.256665 -1.78161 0
M  V30 32598 H 3063.62 -0.166985 -0.733226 0
M  V30 32599 H 3065.6 -1.46692 -2.59854 0
M  V30 32600 C 3064.34 0.0767638 -3.47615 0
M  V30 32601 H 3063.67 -0.652424 -3.94441 0
M  V30 32602 H 3065.11 0.347626 -4.22573 0
M  V30 32603 C 3063.57 1.3184 -3.10032 0
M  V30 32604 O 3064.1 2.41206 -3.21221 0
M  V30 32605 N 3062.3 1.20106 -2.64618 0
M  V30 32606 H 3061.85 0.311139 -2.55714 0
M  V30 32607 H 3061.81 2.03282 -2.39842 0
M  V30 32608 N 3065.58 1.36456 -0.788516 0
M  V30 32609 C 3066.83 1.99265 -0.360496 0
M  V30 32610 C 3067.15 1.62583 1.06757 0
M  V30 32611 O 3066.41 0.871915 1.75203 0
M  V30 32612 C 3066.71 3.54292 -0.470317 0
M  V30 32613 C 3066.37 4.10792 -1.85906 0
M  V30 32614 C 3065.04 4.25935 -2.23904 0
M  V30 32615 C 3067.39 4.41596 -2.76844 0
M  V30 32616 C 3064.72 4.69192 -3.52243 0
M  V30 32617 C 3067.07 4.86285 -4.04611 0
M  V30 32618 C 3065.73 4.99634 -4.42631 0
M  V30 32619 H 3065 0.729164 -0.131915 0
M  V30 32620 H 3067.65 1.6296 -1.0058 0
M  V30 32621 H 3065.95 3.90946 0.25849 0
M  V30 32622 H 3067.65 4.0082 -0.12019 0
M  V30 32623 H 3064.24 3.99444 -1.55379 0
M  V30 32624 H 3068.43 4.29466 -2.48742 0
M  V30 32625 H 3063.68 4.77715 -3.81574 0
M  V30 32626 H 3067.86 5.09084 -4.75191 0
M  V30 32627 H 3065.48 5.32911 -5.42134 0
M  V30 32628 N 3067.06 0.540456 1.48043 0
M  V30 32629 C 3067.99 -0.205138 2.32597 0
M  V30 32630 C 3068.97 -0.925015 1.4275 0
M  V30 32631 O 3070.15 -0.908754 1.71625 0
M  V30 32632 C 3067.28 -1.24606 3.24177 0
M  V30 32633 C 3066.24 -0.643686 4.23132 0
M  V30 32634 C 3065.56 -1.78803 5.03918 0
M  V30 32635 C 3066.86 0.391531 5.2083 0
M  V30 32636 H 3068.56 0.500727 2.95183 0
M  V30 32637 H 3066.1 0.24225 1.41948 0
M  V30 32638 H 3068.06 -1.7757 3.82161 0
M  V30 32639 H 3066.78 -1.98165 2.59612 0
M  V30 32640 H 3065.44 -0.135489 3.6635 0
M  V30 32641 H 3065.09 -2.51225 4.3577 0
M  V30 32642 H 3064.79 -1.39084 5.70902 0
M  V30 32643 H 3066.31 -2.32124 5.64757 0
M  V30 32644 H 3067.73 -0.0514056 5.73277 0
M  V30 32645 H 3066.12 0.706674 5.95925 0
M  V30 32646 H 3067.19 1.29354 4.67328 0
M  V30 32647 N 3068.54 -1.55163 0.276085 0
M  V30 32648 C 3069.78 -1.98796 -0.341063 0
M  V30 32649 C 3070.1 -1.16794 -1.56903 0
M  V30 32650 O 3071.3 -1.50575 -2.25919 0
M  V30 32651 C 3069.76 -3.53831 -0.658169 0
M  V30 32652 C 3069.37 -4.4461 0.55005 0
M  V30 32653 C 3071.11 -4.0605 -1.23789 0
M  V30 32654 C 3069.02 -5.91036 0.207477 0
M  V30 32655 H 3067.95 -0.742496 -0.131211 0
M  V30 32656 H 3070.6 -1.79503 0.38089 0
M  V30 32657 H 3068.98 -3.68927 -1.43905 0
M  V30 32658 H 3070.16 -4.41282 1.32689 0
M  V30 32659 H 3068.47 -4.0303 1.04668 0
M  V30 32660 H 3071.07 -5.12994 -1.50802 0
M  V30 32661 H 3071.41 -3.55143 -2.17208 0
M  V30 32662 H 3071.94 -3.94396 -0.519275 0
M  V30 32663 H 3068.68 -6.46041 1.10957 0
M  V30 32664 H 3068.2 -5.97431 -0.532582 0
M  V30 32665 H 3069.88 -6.46691 -0.199959 0
M  V30 32666 N 3070.01 -0.00338196 -1.576 0
M  V30 32667 C 3070.96 0.995526 -2.05118 0
M  V30 32668 C 3071.95 1.30112 -0.946558 0
M  V30 32669 O 3073.14 1.29153 -1.21031 0
M  V30 32670 C 3070.27 2.28643 -2.56081 0
M  V30 32671 C 3069.35 2.01033 -3.73425 0
M  V30 32672 N 3069.75 1.43594 -4.84989 0
M  V30 32673 C 3068.04 2.31159 -3.81421 0
M  V30 32674 C 3068.74 1.32532 -5.66401 0
M  V30 32675 N 3067.72 1.81209 -5.12508 0
M  V30 32676 H 3071.52 0.545974 -2.88784 0
M  V30 32677 H 3069.04 0.202237 -1.61136 0
M  V30 32678 H 3071.03 3.0105 -2.884 0
M  V30 32679 H 3069.69 2.74248 -1.73834 0
M  V30 32680 H 3070.7 1.11431 -5.0577 0
M  V30 32681 H 3067.38 2.79615 -3.10035 0
M  V30 32682 H 3068.77 0.883363 -6.66068 0
M  V30 32683 N 3071.49 1.5528 0.269423 0
M  V30 32684 C 3072.9 1.66726 0.840204 0
M  V30 32685 C 3073.25 0.596654 1.86908 0
M  V30 32686 O 3072.38 -0.261209 2.14818 0
M  V30 32687 C 3072.97 3.02248 1.53075 0
M  V30 32688 C 3071.53 3.15709 2.04951 0
M  V30 32689 C 3070.68 2.62535 0.892792 0
M  V30 32690 H 3073.63 1.58634 0.0456957 0
M  V30 32691 H 3073.65 2.95436 2.39787 0
M  V30 32692 H 3073.16 3.80147 0.781674 0
M  V30 32693 H 3071.26 2.4259 2.82809 0
M  V30 32694 H 3071.38 4.2232 2.26236 0
M  V30 32695 H 3069.74 2.19783 1.28715 0
M  V30 32696 H 3070.52 3.4294 0.157169 0
M  V30 32697 N 3072.97 -0.534097 1.48274 0
M  V30 32698 C 3074.2 -1.31499 1.59736 0
M  V30 32699 C 3074.61 -1.87055 0.25608 0
M  V30 32700 O 3073.97 -1.66193 -0.754056 0
M  V30 32701 C 3074.02 -2.46873 2.64076 0
M  V30 32702 O 3073.74 -1.93607 3.92999 0
M  V30 32703 C 3075.24 -3.38753 2.85939 0
M  V30 32704 H 3072.46 -0.40004 0.53871 0
M  V30 32705 H 3075.01 -0.644728 1.94071 0
M  V30 32706 H 3073.16 -3.09791 2.32612 0
M  V30 32707 H 3073.58 -2.69098 4.50207 0
M  V30 32708 H 3075.05 -4.16067 3.62757 0
M  V30 32709 H 3075.53 -3.9373 1.9461 0
M  V30 32710 H 3076.13 -2.81631 3.18692 0
M  V30 32711 N 3074.45 -1.36793 -0.782652 0
M  V30 32712 C 3075.69 -1.31398 -1.5408 0
M  V30 32713 C 3076.02 0.104763 -1.94218 0
M  V30 32714 O 3075.28 1.07557 -1.63493 0
M  V30 32715 C 3075.58 -2.18877 -2.82538 0
M  V30 32716 C 3075.24 -3.67322 -2.61506 0
M  V30 32717 C 3073.9 -4.0778 -2.55478 0
M  V30 32718 C 3076.26 -4.61412 -2.42381 0
M  V30 32719 C 3073.58 -5.40458 -2.28302 0
M  V30 32720 C 3075.94 -5.94315 -2.1673 0
M  V30 32721 C 3074.6 -6.3389 -2.0914 0
M  V30 32722 H 3073.87 -0.48082 -0.56382 0
M  V30 32723 H 3076.52 -1.68905 -0.902406 0
M  V30 32724 H 3074.82 -1.74329 -3.5088 0
M  V30 32725 H 3076.52 -2.12023 -3.40363 0
M  V30 32726 H 3073.11 -3.3523 -2.67056 0
M  V30 32727 H 3077.29 -4.31023 -2.46035 0
M  V30 32728 H 3072.55 -5.70095 -2.20912 0
M  V30 32729 H 3076.72 -6.66784 -2.00928 0
M  V30 32730 H 3074.35 -7.36626 -1.87845 0
M  V30 32731 N 3075.93 1.00759 -1.21184 0
M  V30 32732 C 3077.34 1.55945 -1.02654 0
M  V30 32733 C 3077.69 1.91773 0.414432 0
M  V30 32734 O 3076.81 1.73207 1.29724 0
M  V30 32735 C 3077.41 2.83362 -1.85718 0
M  V30 32736 C 3075.97 3.35045 -1.71529 0
M  V30 32737 C 3075.11 2.08262 -1.83091 0
M  V30 32738 H 3078.07 0.830355 -1.35243 0
M  V30 32739 H 3078.09 3.55139 -1.36589 0
M  V30 32740 H 3077.6 2.57255 -2.90588 0
M  V30 32741 H 3075.7 3.66093 -0.693322 0
M  V30 32742 H 3075.81 4.06639 -2.53341 0
M  V30 32743 H 3074.18 2.21139 -1.26371 0
M  V30 32744 H 3074.96 1.8457 -2.89463 0
M  V30 32745 N 3077.4 1.01917 1.20211 0
M  V30 32746 C 3078.31 0.601351 2.26762 0
M  V30 32747 C 3079.33 -0.362339 1.70185 0
M  V30 32748 O 3080.51 -0.222647 2.00166 0
M  V30 32749 C 3077.57 -0.051227 3.46662 0
M  V30 32750 C 3076.63 0.958732 4.18458 0
M  V30 32751 C 3075.87 0.337201 5.32634 0
M  V30 32752 O 3076.09 -0.862411 5.63843 0
M  V30 32753 O 3075.02 1.05521 5.92578 0
M  V30 32754 H 3078.85 1.48849 2.64722 0
M  V30 32755 H 3076.43 0.788807 1.26879 0
M  V30 32756 H 3078.32 -0.415566 4.19346 0
M  V30 32757 H 3076.99 -0.912517 3.10572 0
M  V30 32758 H 3075.9 1.37448 3.47935 0
M  V30 32759 H 3077.23 1.79007 4.58495 0
M  V30 32760 N 3078.88 -1.36036 0.795742 0
M  V30 32761 C 3080.16 -1.93366 0.294777 0
M  V30 32762 C 3080.54 -1.72698 -1.21402 0
M  V30 32763 O 3079.89 -1.08962 -2.00847 0
M  V30 32764 C 3080.1 -3.42024 0.694314 0
M  V30 32765 C 3081.45 -4.19158 0.67764 0
M  V30 32766 O 3082.47 -3.50491 0.635181 0
M  V30 32767 O 3081.33 -5.41653 0.726222 0
M  V30 32768 H 3078.42 -0.823632 0.0745603 0
M  V30 32769 H 3080.97 -1.45178 0.878711 0
M  V30 32770 H 3079.74 -3.5075 1.73464 0
M  V30 32771 H 3079.36 -3.9751 0.0846037 0
M  V30 32772 N 3080.36 -0.5483 -1.47755 0
M  V30 32773 C 3081.27 0.207732 -2.33678 0
M  V30 32774 C 3082.29 0.920817 -1.47638 0
M  V30 32775 O 3083.46 0.891699 -1.80584 0
M  V30 32776 C 3080.53 1.22997 -3.24149 0
M  V30 32777 C 3079.59 0.525275 -4.26074 0
M  V30 32778 C 3078.82 1.49881 -5.12222 0
M  V30 32779 O 3079.04 2.73296 -5.00665 0
M  V30 32780 O 3077.98 1.02818 -5.93053 0
M  V30 32781 H 3081.8 -0.496847 -2.99608 0
M  V30 32782 H 3079.39 -0.309008 -1.46169 0
M  V30 32783 H 3081.27 1.82027 -3.80058 0
M  V30 32784 H 3079.95 1.91663 -2.60858 0
M  V30 32785 H 3078.85 -0.105993 -3.7395 0
M  V30 32786 H 3080.19 -0.119773 -4.92054 0
M  V30 32787 N 3081.84 1.55014 -0.28431 0
M  V30 32788 C 3083.09 1.98974 0.330515 0
M  V30 32789 C 3083.4 1.17624 1.56282 0
M  V30 32790 O 3084.61 1.51771 2.25118 0
M  V30 32791 C 3083.06 3.54175 0.639395 0
M  V30 32792 C 3082.67 4.44312 -0.573621 0
M  V30 32793 C 3084.41 4.06701 1.21634 0
M  V30 32794 C 3082.32 5.90918 -0.238818 0
M  V30 32795 H 3081.25 0.743181 0.127272 0
M  V30 32796 H 3083.9 1.79299 -0.390404 0
M  V30 32797 H 3082.28 3.69685 1.41946 0
M  V30 32798 H 3083.46 4.40573 -1.35028 0
M  V30 32799 H 3081.77 4.0247 -1.06804 0
M  V30 32800 H 3084.37 5.13787 1.48079 0
M  V30 32801 H 3084.71 3.5629 2.15321 0
M  V30 32802 H 3085.25 3.94666 0.498352 0
M  V30 32803 H 3081.99 6.45443 -1.14381 0
M  V30 32804 H 3081.51 5.97705 0.500892 0
M  V30 32805 H 3083.18 6.46788 0.16566 0
M  V30 32806 N 3083.32 0.0117398 1.57596 0
M  V30 32807 C 3084.56 -0.670634 1.91073 0
M  V30 32808 C 3084.89 -1.73123 0.886487 0
M  V30 32809 O 3084.15 -1.95407 -0.107101 0
M  V30 32810 C 3084.45 -1.34076 3.31298 0
M  V30 32811 C 3084.11 -0.412226 4.49012 0
M  V30 32812 C 3082.77 -0.156607 4.80945 0
M  V30 32813 C 3085.13 0.226386 5.20708 0
M  V30 32814 C 3082.45 0.745722 5.81941 0
M  V30 32815 C 3084.81 1.11666 6.22666 0
M  V30 32816 C 3083.47 1.38134 6.53051 0
M  V30 32817 H 3082.74 -0.245402 0.699184 0
M  V30 32818 H 3085.39 0.0697847 1.91373 0
M  V30 32819 H 3083.69 -2.15551 3.27177 0
M  V30 32820 H 3085.39 -1.87499 3.54464 0
M  V30 32821 H 3081.98 -0.62163 4.24068 0
M  V30 32822 H 3086.16 0.0419328 4.96282 0
M  V30 32823 H 3081.42 0.958672 6.03837 0
M  V30 32824 H 3085.59 1.61779 6.77348 0
M  V30 32825 H 3083.22 2.08221 7.31128 0
M  V30 32826 N 3084.79 -1.55421 -0.261185 0
M  V30 32827 C 3085.7 -1.92223 -1.3449 0
M  V30 32828 C 3086.72 -0.820887 -1.53419 0
M  V30 32829 O 3087.9 -1.12102 -1.67318 0
M  V30 32830 C 3084.96 -2.19697 -2.68205 0
M  V30 32831 C 3084.02 -3.43184 -2.57921 0
M  V30 32832 C 3083.26 -3.69338 -3.8526 0
M  V30 32833 O 3083.48 -2.97801 -4.86488 0
M  V30 32834 O 3082.41 -4.62871 -3.84752 0
M  V30 32835 H 3086.24 -2.84499 -1.06273 0
M  V30 32836 H 3083.82 -1.42119 -0.460727 0
M  V30 32837 H 3085.71 -2.3874 -3.47248 0
M  V30 32838 H 3084.38 -1.30602 -2.96184 0
M  V30 32839 H 3083.29 -3.29463 -1.77214 0
M  V30 32840 H 3084.62 -4.32536 -2.3489 0
M  V30 32841 N 3086.27 0.526227 -1.48555 0
M  V30 32842 C 3087.5 1.31126 -1.60688 0
M  V30 32843 C 3087.92 1.8617 -0.268734 0
M  V30 32844 O 3087.28 1.64595 0.760138 0
M  V30 32845 C 3087.33 2.43531 -2.65942 0
M  V30 32846 O 3086.43 3.46674 -2.23362 0
M  V30 32847 H 3085.77 0.388202 -0.538698 0
M  V30 32848 H 3088.3 0.632791 -1.94569 0
M  V30 32849 H 3088.31 2.89663 -2.87332 0
M  V30 32850 H 3086.99 2.02829 -3.63088 0
M  V30 32851 H 3085.57 3.06635 -2.12201 0
M  V30 32852 N 3087.75 1.37206 0.775387 0
M  V30 32853 C 3089 1.31538 1.52907 0
M  V30 32854 C 3089.31 -0.0989031 1.9535 0
M  V30 32855 O 3090.52 -0.278031 2.70073 0
M  V30 32856 C 3088.97 2.30865 2.76096 0
M  V30 32857 C 3088.58 3.77803 2.40767 0
M  V30 32858 C 3090.33 2.34201 3.54048 0
M  V30 32859 C 3088.23 4.68871 3.60436 0
M  V30 32860 H 3087.16 0.488855 0.574053 0
M  V30 32861 H 3089.81 1.62646 0.849613 0
M  V30 32862 H 3088.2 1.9277 3.45913 0
M  V30 32863 H 3089.37 4.24715 1.78757 0
M  V30 32864 H 3087.69 3.77378 1.75997 0
M  V30 32865 H 3090.28 2.99445 4.42986 0
M  V30 32866 H 3090.63 1.35456 3.93646 0
M  V30 32867 H 3091.16 2.70985 2.91225 0
M  V30 32868 H 3087.9 5.68731 3.25922 0
M  V30 32869 H 3087.42 4.26667 4.21563 0
M  V30 32870 H 3089.1 4.85828 4.27294 0
M  V30 32871 N 3089.23 -1.00115 1.21716 0
M  V30 32872 C 3090.64 -1.2633 0.975343 0
M  V30 32873 C 3090.84 -1.98679 -0.335994 0
M  V30 32874 O 3089.9 -2.29141 -1.06069 0
M  V30 32875 C 3091.21 -2.08316 2.16852 0
M  V30 32876 C 3092.76 -2.2153 2.21119 0
M  V30 32877 C 3093.24 -3.069 3.39966 0
M  V30 32878 N 3094.73 -3.14488 3.40076 0
M  V30 32879 C 3095.46 -3.8081 4.28685 0
M  V30 32880 N 3094.96 -4.4913 5.27498 0
M  V30 32881 N 3096.75 -3.77489 4.16483 0
M  V30 32882 H 3088.9 -0.51586 2.0604 0
M  V30 32883 H 3091.17 -0.290392 0.902428 0
M  V30 32884 H 3090.87 -1.62509 3.11903 0
M  V30 32885 H 3090.75 -3.09069 2.16231 0
M  V30 32886 H 3093.13 -2.66554 1.26621 0
M  V30 32887 H 3093.21 -1.20234 2.25782 0
M  V30 32888 H 3092.86 -2.62577 4.34759 0
M  V30 32889 H 3092.79 -4.08318 3.32542 0
M  V30 32890 H 3095.28 -2.65857 2.68568 0
M  V30 32891 H 3095.59 -4.97453 5.91406 0
M  V30 32892 H 3093.94 -4.47904 5.3142 0
M  V30 32893 H 3097.13 -3.23272 3.38545 0
M  V30 32894 H 3097.3 -4.28899 4.85746 0
M  V30 32895 N 3090.71 -1.02553 -1.19669 0
M  V30 32896 C 3091.95 -0.730834 -1.89817 0
M  V30 32897 C 3092.31 0.732324 -1.77918 0
M  V30 32898 O 3091.6 1.52608 -1.1585 0
M  V30 32899 C 3091.8 -1.11247 -3.39645 0
M  V30 32900 C 3091.62 -2.61118 -3.66125 0
M  V30 32901 C 3090.39 -3.28039 -3.84342 0
M  V30 32902 C 3092.59 -3.59322 -3.67956 0
M  V30 32903 N 3090.57 -4.67048 -3.98421 0
M  V30 32904 C 3091.95 -4.83934 -3.87567 0
M  V30 32905 C 3094 -3.53168 -3.50965 0
M  V30 32906 C 3092.7 -6.03134 -3.91946 0
M  V30 32907 C 3094.73 -4.7178 -3.5662 0
M  V30 32908 C 3094.09 -5.95204 -3.76712 0
M  V30 32909 H 3090.19 -0.319245 -0.713867 0
M  V30 32910 H 3092.77 -1.31216 -1.43842 0
M  V30 32911 H 3090.95 -0.559391 -3.84351 0
M  V30 32912 H 3092.68 -0.77038 -3.973 0
M  V30 32913 H 3089.43 -2.78455 -3.83092 0
M  V30 32914 H 3089.86 -5.39248 -4.09317 0
M  V30 32915 H 3094.5 -2.58734 -3.3439 0
M  V30 32916 H 3092.22 -6.9794 -4.07314 0
M  V30 32917 H 3095.8 -4.68643 -3.44768 0
M  V30 32918 H 3094.68 -6.85449 -3.80958 0
M  V30 32919 N 3092.19 1.35612 -0.802945 0
M  V30 32920 C 3093.41 2.03115 -0.393966 0
M  V30 32921 C 3093.83 1.60519 0.993933 0
M  V30 32922 O 3093.19 0.801002 1.63982 0
M  V30 32923 C 3093.24 3.58516 -0.463549 0
M  V30 32924 O 3092.96 3.99561 -1.79673 0
M  V30 32925 C 3094.46 4.43275 -0.0469157 0
M  V30 32926 H 3091.68 0.651514 -0.16053 0
M  V30 32927 H 3094.22 1.73309 -1.08555 0
M  V30 32928 H 3092.38 3.86983 0.179753 0
M  V30 32929 H 3092.79 4.94197 -1.75697 0
M  V30 32930 H 3094.27 5.51805 -0.146723 0
M  V30 32931 H 3094.74 4.27492 1.00733 0
M  V30 32932 H 3095.35 4.20097 -0.663232 0
M  V30 32933 N 3093.66 0.556128 1.47462 0
M  V30 32934 C 3094.61 -0.192173 2.29999 0
M  V30 32935 C 3095.58 -0.909379 1.38995 0
M  V30 32936 O 3096.77 -0.905286 1.67956 0
M  V30 32937 C 3093.91 -1.21686 3.22934 0
M  V30 32938 C 3093.02 -0.505833 4.29028 0
M  V30 32939 C 3092.15 -1.51572 5.09116 0
M  V30 32940 C 3091.19 -0.789607 6.06986 0
M  V30 32941 N 3090.33 -1.74627 6.80037 0
M  V30 32942 H 3095.17 0.517785 2.93467 0
M  V30 32943 H 3092.71 0.267172 1.44653 0
M  V30 32944 H 3094.66 -1.82354 3.75237 0
M  V30 32945 H 3093.29 -1.89487 2.61332 0
M  V30 32946 H 3092.35 0.215343 3.7979 0
M  V30 32947 H 3093.66 0.0630456 4.9876 0
M  V30 32948 H 3092.81 -2.19596 5.65564 0
M  V30 32949 H 3091.55 -2.11852 4.39284 0
M  V30 32950 H 3090.56 -0.0954416 5.49717 0
M  V30 32951 H 3091.78 -0.192568 6.78827 0
M  V30 32952 H 3089.73 -2.33767 6.12935 0
M  V30 32953 H 3089.64 -1.22952 7.45935 0
M  V30 32954 H 3090.91 -2.41769 7.41059 0
M  V30 32955 N 3095.14 -1.54861 0.292527 0
M  V30 32956 C 3096.09 -2.23202 -0.587326 0
M  V30 32957 C 3097.06 -1.21159 -1.13621 0
M  V30 32958 O 3098.24 -1.49754 -1.1823 0
M  V30 32959 C 3095.38 -2.97001 -1.75739 0
M  V30 32960 C 3094.5 -4.138 -1.24071 0
M  V30 32961 C 3093.63 -4.75201 -2.37397 0
M  V30 32962 C 3092.67 -5.84161 -1.82819 0
M  V30 32963 N 3091.81 -6.39552 -2.89685 0
M  V30 32964 H 3096.65 -2.98 0.00207445 0
M  V30 32965 H 3094.18 -1.47094 0.0127918 0
M  V30 32966 H 3096.14 -3.38015 -2.44544 0
M  V30 32967 H 3094.77 -2.24595 -2.31856 0
M  V30 32968 H 3093.82 -3.77786 -0.445201 0
M  V30 32969 H 3095.14 -4.92325 -0.801099 0
M  V30 32970 H 3094.29 -5.19025 -3.14163 0
M  V30 32971 H 3093.03 -3.9599 -2.84681 0
M  V30 32972 H 3092.03 -5.3977 -1.04539 0
M  V30 32973 H 3093.26 -6.65251 -1.36449 0
M  V30 32974 H 3091.21 -5.63228 -3.36318 0
M  V30 32975 H 3091.12 -7.134 -2.50194 0
M  V30 32976 H 3092.39 -6.88034 -3.66374 0
M  V30 32977 N 3096.62 -0.0200973 -1.57587 0
M  V30 32978 C 3098.03 0.519987 -1.79313 0
M  V30 32979 C 3098.38 1.72785 -0.929506 0
M  V30 32980 O 3097.51 2.15963 -0.137427 0
M  V30 32981 C 3098.1 0.950115 -3.25205 0
M  V30 32982 C 3096.66 1.43537 -3.47957 0
M  V30 32983 C 3095.81 0.395868 -2.7446 0
M  V30 32984 H 3098.76 -0.246181 -1.56779 0
M  V30 32985 H 3098.78 1.81502 -3.34421 0
M  V30 32986 H 3098.29 0.0708148 -3.88035 0
M  V30 32987 H 3096.39 2.3349 -2.90367 0
M  V30 32988 H 3096.51 1.44897 -4.56664 0
M  V30 32989 H 3094.87 0.86198 -2.39671 0
M  V30 32990 H 3095.65 -0.47481 -3.40001 0
M  V30 32991 N 3098.1 1.55557 0.252939 0
M  V30 32992 C 3099.32 1.81492 1.00376 0
M  V30 32993 C 3099.75 0.596349 1.78396 0
M  V30 32994 O 3099.11 -0.454504 1.75511 0
M  V30 32995 C 3099.15 3.051 1.92215 0
M  V30 32996 O 3098.26 2.81592 3.01297 0
M  V30 32997 H 3097.6 0.599279 0.285939 0
M  V30 32998 H 3100.13 2.02733 0.275759 0
M  V30 32999 H 3100.14 3.34372 2.33794 0
M  V30 33000 H 3098.81 3.93433 1.34845 0
M  V30 33001 H 3097.39 2.63471 2.63889 0
M  V30 33002 N 3099.58 -0.518341 1.48832 0
M  V30 33003 C 3100.51 -1.638 1.60319 0
M  V30 33004 C 3101.52 -1.55352 0.486798 0
M  V30 33005 O 3102.71 -1.616 0.75814 0
M  V30 33006 C 3099.81 -3.02511 1.52776 0
M  V30 33007 C 3098.98 -3.36321 2.79655 0
M  V30 33008 C 3098.04 -4.54365 2.65404 0
M  V30 33009 O 3097.07 -4.57008 3.39312 0
M  V30 33010 N 3098.27 -5.53242 1.75793 0
M  V30 33011 H 3101.03 -1.54378 2.5688 0
M  V30 33012 H 3098.6 -0.705863 1.45702 0
M  V30 33013 H 3100.59 -3.79372 1.40921 0
M  V30 33014 H 3099.16 -3.05948 0.641435 0
M  V30 33015 H 3098.38 -2.48524 3.05989 0
M  V30 33016 H 3099.67 -3.55701 3.63805 0
M  V30 33017 H 3099.06 -5.53894 1.1497 0
M  V30 33018 H 3097.62 -6.29275 1.6987 0
M  V30 33019 N 3101.05 -1.37615 -0.7681 0
M  V30 33020 C 3101.99 -1.28044 -1.88892 0
M  V30 33021 C 3102.96 -0.160254 -1.61808 0
M  V30 33022 O 3104.15 -0.335092 -1.85498 0
M  V30 33023 C 3101.28 -0.98058 -3.24195 0
M  V30 33024 C 3100.32 -2.11815 -3.70185 0
M  V30 33025 S 3101.15 -3.73824 -3.83427 0
M  V30 33026 C 3102.31 -3.45996 -5.21572 0
M  V30 33027 H 3102.54 -2.22907 -1.96722 0
M  V30 33028 H 3100.08 -1.23281 -0.929581 0
M  V30 33029 H 3102.03 -0.814402 -4.0234 0
M  V30 33030 H 3100.7 -0.0493674 -3.14061 0
M  V30 33031 H 3099.89 -1.86344 -4.68286 0
M  V30 33032 H 3099.49 -2.24465 -2.99151 0
M  V30 33033 H 3101.78 -3.0121 -6.0686 0
M  V30 33034 H 3102.73 -4.43439 -5.52058 0
M  V30 33035 H 3103.13 -2.8084 -4.89682 0
M  V30 33036 N 3102.53 0.994677 -1.22245 0
M  V30 33037 C 3103.48 2.06884 -0.95828 0
M  V30 33038 C 3104.47 1.60646 0.0904198 0
M  V30 33039 O 3105.66 1.76594 -0.119868 0
M  V30 33040 C 3102.79 3.3909 -0.536003 0
M  V30 33041 C 3101.87 3.91967 -1.61934 0
M  V30 33042 N 3102.26 4.18089 -2.84666 0
M  V30 33043 C 3100.56 4.20353 -1.49061 0
M  V30 33044 C 3101.26 4.61042 -3.54705 0
M  V30 33045 N 3100.24 4.64629 -2.82172 0
M  V30 33046 H 3104.04 2.25019 -1.8906 0
M  V30 33047 H 3101.55 1.17627 -1.11972 0
M  V30 33048 H 3103.55 4.15607 -0.32807 0
M  V30 33049 H 3102.21 3.22356 0.389434 0
M  V30 33050 H 3103.22 4.06335 -3.21111 0
M  V30 33051 H 3099.9 4.12701 -0.631227 0
M  V30 33052 H 3101.29 4.8989 -4.59845 0
M  V30 33053 N 3104.01 1.03186 1.19123 0
M  V30 33054 C 3104.92 0.625369 2.26111 0
M  V30 33055 C 3105.94 -0.344268 1.7056 0
M  V30 33056 O 3107.11 -0.201404 2.0039 0
M  V30 33057 C 3104.18 -0.0144559 3.46697 0
M  V30 33058 C 3103.24 1.00306 4.17417 0
M  V30 33059 C 3102.47 0.393675 5.32246 0
M  V30 33060 O 3102.69 -0.802559 5.64726 0
M  V30 33061 O 3101.63 1.118 5.91426 0
M  V30 33062 H 3105.45 1.51648 2.63129 0
M  V30 33063 H 3103.04 0.80222 1.26035 0
M  V30 33064 H 3104.92 -0.371065 4.19763 0
M  V30 33065 H 3103.6 -0.879526 3.11522 0
M  V30 33066 H 3102.5 1.41131 3.46458 0
M  V30 33067 H 3103.84 1.8386 4.5657 0
M  V30 33068 N 3105.49 -1.35184 0.810125 0
M  V30 33069 C 3106.44 -2.2716 0.195581 0
M  V30 33070 C 3107.42 -1.4794 -0.632665 0
M  V30 33071 O 3108.61 -1.70101 -0.489342 0
M  V30 33072 C 3105.74 -3.3705 -0.652105 0
M  V30 33073 C 3104.83 -4.23692 0.186064 0
M  V30 33074 N 3105.22 -4.9009 1.25081 0
M  V30 33075 C 3103.52 -4.45989 -0.0317249 0
M  V30 33076 C 3104.22 -5.54346 1.76282 0
M  V30 33077 N 3103.2 -5.32991 1.06871 0
M  V30 33078 H 3107 -2.75992 1.01022 0
M  V30 33079 H 3104.51 -1.48753 0.651638 0
M  V30 33080 H 3106.51 -4.01895 -1.10844 0
M  V30 33081 H 3105.17 -2.89769 -1.46506 0
M  V30 33082 H 3106.18 -4.91464 1.6335 0
M  V30 33083 H 3102.86 -4.09497 -0.813535 0
M  V30 33084 H 3104.25 -6.1731 2.65289 0
M  V30 33085 N 3106.97 -0.56394 -1.47165 0
M  V30 33086 C 3108.21 -0.0424694 -2.02756 0
M  V30 33087 C 3108.55 1.30668 -1.43665 0
M  V30 33088 O 3107.82 1.85185 -0.594708 0
M  V30 33089 C 3108.1 0.043416 -3.60074 0
M  V30 33090 C 3107.96 -1.3333 -4.29585 0
M  V30 33091 C 3109.28 0.753492 -4.33602 0
M  V30 33092 H 3106.39 -0.0169076 -0.736806 0
M  V30 33093 H 3109.04 -0.727527 -1.75519 0
M  V30 33094 H 3107.19 0.626839 -3.8341 0
M  V30 33095 H 3108.86 -1.96045 -4.17569 0
M  V30 33096 H 3107.1 -1.90617 -3.89676 0
M  V30 33097 H 3107.77 -1.22586 -5.38216 0
M  V30 33098 H 3110.25 0.258053 -4.15299 0
M  V30 33099 H 3109.12 0.782564 -5.43293 0
M  V30 33100 H 3109.39 1.81101 -4.03305 0
M  V30 33101 N 3108.44 1.54704 -0.300735 0
M  V30 33102 C 3109.37 2.2647 0.568635 0
M  V30 33103 C 3110.36 1.26413 1.13814 0
M  V30 33104 O 3111.54 1.55185 1.16753 0
M  V30 33105 C 3108.67 3.00527 1.74071 0
M  V30 33106 C 3107.62 4.07729 1.30158 0
M  V30 33107 C 3106.95 4.69499 2.5588 0
M  V30 33108 C 3108.25 5.20502 0.433015 0
M  V30 33109 H 3109.94 2.99385 -0.0299377 0
M  V30 33110 H 3107.49 1.43991 -0.0158388 0
M  V30 33111 H 3109.44 3.49453 2.355 0
M  V30 33112 H 3108.17 2.2519 2.36552 0
M  V30 33113 H 3106.83 3.59652 0.71035 0
M  V30 33114 H 3106.47 3.90802 3.16674 0
M  V30 33115 H 3106.17 5.41899 2.27198 0
M  V30 33116 H 3107.7 5.21189 3.18111 0
M  V30 33117 H 3109.11 5.65324 0.95297 0
M  V30 33118 H 3107.51 5.9962 0.23998 0
M  V30 33119 H 3108.58 4.81862 -0.54195 0
M  V30 33120 N 3109.92 0.0284543 1.57574 0
M  V30 33121 C 3111.15 -0.664102 1.9648 0
M  V30 33122 C 3111.57 -1.64906 0.904855 0
M  V30 33123 O 3110.93 -1.80802 -0.134307 0
M  V30 33124 C 3110.98 -1.34739 3.34481 0
M  V30 33125 O 3110.08 -2.46265 3.30798 0
M  V30 33126 H 3109.42 -0.174513 0.640657 0
M  V30 33127 H 3111.95 0.0901088 2.04401 0
M  V30 33128 H 3111.96 -1.70433 3.70697 0
M  V30 33129 H 3110.64 -0.625396 4.11171 0
M  V30 33130 H 3109.22 -2.12687 3.06298 0
M  V30 33131 N 3111.4 -1.55689 -0.244686 0
M  V30 33132 C 3112.33 -1.93518 -1.30664 0
M  V30 33133 C 3113.31 -0.800397 -1.50092 0
M  V30 33134 O 3114.5 -1.06086 -1.62663 0
M  V30 33135 C 3111.63 -2.23181 -2.66097 0
M  V30 33136 C 3110.58 -3.38932 -2.61361 0
M  V30 33137 C 3109.91 -3.54141 -4.00609 0
M  V30 33138 C 3111.21 -4.74559 -2.18153 0
M  V30 33139 H 3112.9 -2.82471 -0.992497 0
M  V30 33140 H 3110.45 -1.35905 -0.475994 0
M  V30 33141 H 3112.4 -2.48234 -3.40526 0
M  V30 33142 H 3111.12 -1.31056 -2.99152 0
M  V30 33143 H 3109.78 -3.1389 -1.8939 0
M  V30 33144 H 3109.43 -2.59433 -4.30933 0
M  V30 33145 H 3109.13 -4.31982 -3.98328 0
M  V30 33146 H 3110.65 -3.81519 -4.76735 0
M  V30 33147 H 3112.07 -4.9897 -2.82314 0
M  V30 33148 H 3110.47 -5.55519 -2.26978 0
M  V30 33149 H 3111.54 -4.71472 -1.13324 0
M  V30 33150 N 3112.88 0.510441 -1.49105 0
M  V30 33151 C 3114.12 1.27542 -1.59726 0
M  V30 33152 C 3114.48 1.90041 -0.273558 0
M  V30 33153 O 3115.68 2.67589 -0.254882 0
M  V30 33154 C 3113.95 2.32105 -2.71775 0
M  V30 33155 S 3115.51 3.18069 -3.02288 0
M  V30 33156 H 3112.33 0.433581 -0.563497 0
M  V30 33157 H 3114.93 0.579295 -1.8672 0
M  V30 33158 H 3113.64 1.84704 -3.66487 0
M  V30 33159 H 3113.17 3.064 -2.46744 0
M  V30 33160 H 3115.18 4.32579 -2.43084 0
M  V30 33161 N 3114.36 1.38021 0.760791 0
M  V30 33162 C 3115.31 1.31178 1.86484 0
M  V30 33163 C 3116.29 0.197442 1.59684 0
M  V30 33164 O 3117.48 0.432794 1.71627 0
M  V30 33165 C 3114.61 1.13197 3.24101 0
M  V30 33166 C 3113.7 2.29222 3.56816 0
M  V30 33167 N 3114.09 3.54646 3.60638 0
M  V30 33168 C 3112.39 2.21617 3.87043 0
M  V30 33169 C 3113.09 4.3122 3.90415 0
M  V30 33170 N 3112.06 3.60489 4.06877 0
M  V30 33171 H 3115.87 2.26149 1.87707 0
M  V30 33172 H 3113.38 1.31149 0.957788 0
M  V30 33173 H 3115.38 1.06379 4.03099 0
M  V30 33174 H 3114.04 0.19153 3.24135 0
M  V30 33175 H 3115.05 3.88411 3.42575 0
M  V30 33176 H 3111.72 1.35691 3.94834 0
M  V30 33177 H 3113.11 5.39819 4.00056 0
M  V30 33178 N 3115.83 -0.98818 1.22771 0
M  V30 33179 C 3116.76 -2.09736 1.02631 0
M  V30 33180 C 3117.75 -1.70013 -0.0542912 0
M  V30 33181 O 3118.93 -1.93895 0.108845 0
M  V30 33182 C 3116.06 -3.4193 0.608362 0
M  V30 33183 C 3115.01 -3.95522 1.63543 0
M  V30 33184 C 3114.34 -5.2382 1.07317 0
M  V30 33185 C 3115.64 -4.25671 3.02657 0
M  V30 33186 H 3117.33 -2.26843 1.95404 0
M  V30 33187 H 3114.88 -1.09009 0.940907 0
M  V30 33188 H 3116.83 -4.18941 0.454552 0
M  V30 33189 H 3115.56 -3.24665 -0.355038 0
M  V30 33190 H 3114.22 -3.20648 1.77709 0
M  V30 33191 H 3113.86 -5.02899 0.100982 0
M  V30 33192 H 3113.56 -5.60643 1.75935 0
M  V30 33193 H 3115.09 -6.0346 0.931044 0
M  V30 33194 H 3116.5 -4.93461 2.91837 0
M  V30 33195 H 3114.9 -4.73678 3.68442 0
M  V30 33196 H 3115.97 -3.33255 3.52234 0
M  V30 33197 N 3117.31 -1.03816 -1.18575 0
M  V30 33198 C 3118.25 -0.571502 -2.20928 0
M  V30 33199 C 3119.22 0.392608 -1.57789 0
M  V30 33200 O 3120.41 0.307507 -1.85975 0
M  V30 33201 C 3117.53 0.165444 -3.38296 0
M  V30 33202 C 3116.58 -0.751531 -4.19826 0
M  V30 33203 S 3117.41 -2.23299 -4.86721 0
M  V30 33204 C 3118.57 -1.50682 -6.07491 0
M  V30 33205 H 3118.8 -1.43871 -2.6017 0
M  V30 33206 H 3116.34 -0.848903 -1.28969 0
M  V30 33207 H 3118.29 0.584473 -4.06318 0
M  V30 33208 H 3116.95 1.0085 -2.97469 0
M  V30 33209 H 3116.15 -0.182074 -5.03671 0
M  V30 33210 H 3115.75 -1.1093 -3.5717 0
M  V30 33211 H 3118.04 -0.798495 -6.72778 0
M  V30 33212 H 3118.98 -2.32222 -6.68938 0
M  V30 33213 H 3119.39 -1.00026 -5.55567 0
M  V30 33214 N 3118.79 1.34753 -0.817283 0
M  V30 33215 C 3120.04 1.99174 -0.412442 0
M  V30 33216 C 3120.39 1.63641 1.01189 0
M  V30 33217 O 3119.68 0.894927 1.69416 0
M  V30 33218 C 3119.88 3.53215 -0.545362 0
M  V30 33219 C 3119.71 4.03713 -1.98107 0
M  V30 33220 C 3118.48 4.32569 -2.61174 0
M  V30 33221 C 3120.68 4.21489 -2.94706 0
M  V30 33222 N 3118.66 4.69066 -3.96044 0
M  V30 33223 C 3120.03 4.61102 -4.1447 0
M  V30 33224 C 3122.08 4.03723 -2.91397 0
M  V30 33225 C 3120.79 4.84806 -5.31371 0
M  V30 33226 C 3122.81 4.28591 -4.0751 0
M  V30 33227 C 3122.17 4.68485 -5.26024 0
M  V30 33228 H 3118.27 0.756279 -0.198913 0
M  V30 33229 H 3120.86 1.63265 -1.06079 0
M  V30 33230 H 3119.03 3.88331 0.0730537 0
M  V30 33231 H 3120.76 4.04539 -0.11407 0
M  V30 33232 H 3117.52 4.23274 -2.12453 0
M  V30 33233 H 3117.94 4.91557 -4.65511 0
M  V30 33234 H 3122.58 3.72013 -2.00914 0
M  V30 33235 H 3120.3 5.15386 -6.22417 0
M  V30 33236 H 3123.89 4.16386 -4.06342 0
M  V30 33237 H 3122.77 4.8735 -6.14378 0
M  V30 33238 N 3120.27 0.571737 1.46864 0
M  V30 33239 C 3121.22 -0.188463 2.2722 0
M  V30 33240 C 3122.2 -0.871995 1.35222 0
M  V30 33241 O 3123.4 -0.767902 1.59475 0
M  V30 33242 C 3120.52 -1.20857 3.21323 0
M  V30 33243 C 3119.61 -0.527709 4.20804 0
M  V30 33244 N 3120 0.410492 5.04132 0
M  V30 33245 C 3118.3 -0.779832 4.39129 0
M  V30 33246 C 3119 0.807381 5.7607 0
M  V30 33247 N 3117.98 0.15896 5.43368 0
M  V30 33248 H 3121.78 0.532662 2.89033 0
M  V30 33249 H 3119.29 0.392724 1.5758 0
M  V30 33250 H 3121.29 -1.76726 3.77589 0
M  V30 33251 H 3119.95 -1.93063 2.61069 0
M  V30 33252 H 3120.96 0.785441 5.11909 0
M  V30 33253 H 3117.64 -1.4893 3.90033 0
M  V30 33254 H 3119.03 1.57915 6.53079 0
M  V30 33255 N 3121.75 -1.54542 0.308935 0
M  V30 33256 C 3122.7 -2.25271 -0.579286 0
M  V30 33257 C 3123.69 -1.26154 -1.13056 0
M  V30 33258 O 3124.9 -1.43979 -1.08028 0
M  V30 33259 H 3121.27 -0.723396 -0.205431 0
M  V30 33260 H 3123.24 -2.98374 0.039694 0
M  V30 33261 C 3121.99 -3.01274 -1.73578 0
M  V30 33262 H 3121.31 -3.77352 -1.32083 0
M  V30 33263 H 3122.75 -3.54032 -2.33318 0
M  V30 33264 C 3121.21 -2.08708 -2.64467 0
M  V30 33265 O 3121.74 -1.66031 -3.65782 0
M  V30 33266 N 3119.95 -1.74499 -2.32376 0
M  V30 33267 H 3119.5 -2.09401 -1.5003 0
M  V30 33268 H 3119.45 -1.12841 -2.93452 0
M  V30 33269 N 3123.23 -0.0368104 -1.57557 0
M  V30 33270 C 3124.47 0.638886 -1.91736 0
M  V30 33271 C 3124.79 1.72224 -0.914545 0
M  V30 33272 O 3124.06 1.95853 0.0427903 0
M  V30 33273 H 3122.64 0.238977 -0.707742 0
M  V30 33274 H 3125.31 -0.0864273 -1.94708 0
M  V30 33275 H 3124.4 1.08671 -2.9257 0
M  V30 33276 N 3124.7 1.55817 0.236426 0
M  V30 33277 C 3126.12 1.48475 0.585439 0
M  V30 33278 C 3126.32 0.729053 1.87849 0
M  V30 33279 O 3125.38 0.262658 2.5113 0
M  V30 33280 C 3126.69 2.92946 0.678455 0
M  V30 33281 C 3128.24 3.03379 0.770081 0
M  V30 33282 C 3128.71 4.49179 0.89457 0
M  V30 33283 N 3130.2 4.5316 0.959174 0
M  V30 33284 C 3130.94 5.63234 1.07495 0
M  V30 33285 N 3130.43 6.83094 1.1556 0
M  V30 33286 N 3132.23 5.51053 1.10892 0
M  V30 33287 H 3124.38 2.03384 -0.612277 0
M  V30 33288 H 3126.64 0.923805 -0.212813 0
M  V30 33289 H 3126.35 3.5112 -0.201819 0
M  V30 33290 H 3126.22 3.44018 1.54697 0
M  V30 33291 H 3128.61 2.45279 1.6408 0
M  V30 33292 H 3128.69 2.555 -0.123798 0
M  V30 33293 H 3128.33 5.07892 0.0283645 0
M  V30 33294 H 3128.26 4.94749 1.80365 0
M  V30 33295 H 3130.75 3.66835 0.907763 0
M  V30 33296 H 3131.07 7.62733 1.2433 0
M  V30 33297 H 3129.41 6.85834 1.12499 0
M  V30 33298 H 3132.6 4.56344 1.04247 0
M  V30 33299 H 3132.78 6.36873 1.1957 0
M  V30 33300 N 3126.18 -0.502526 1.49373 0
M  V30 33301 C 3127.46 -1.26387 1.49284 0
M  V30 33302 C 3127.84 -2.09954 0.219711 0
M  V30 33303 O 3127.19 -2.14114 -0.797954 0
M  V30 33304 C 3127.4 -2.12189 2.77086 0
M  V30 33305 C 3128.74 -2.71427 3.26515 0
M  V30 33306 O 3129.77 -2.22457 2.78193 0
M  V30 33307 O 3128.63 -3.60571 4.10671 0
M  V30 33308 H 3125.72 -0.57185 0.597425 0
M  V30 33309 H 3128.27 -0.516922 1.61635 0
M  V30 33310 H 3127.04 -1.50405 3.6124 0
M  V30 33311 H 3126.66 -2.94079 2.67588 0
M  V30 33312 N 3127.66 -1.38422 -0.75346 0
M  V30 33313 C 3128.62 -1.35462 -1.84886 0
M  V30 33314 C 3129.62 -0.255111 -1.58763 0
M  V30 33315 O 3130.81 -0.512007 -1.66506 0
M  V30 33316 C 3127.94 -1.10893 -3.22359 0
M  V30 33317 H 3129.14 -2.32916 -1.88918 0
M  V30 33318 H 3126.69 -1.23718 -0.955177 0
M  V30 33319 H 3127.43 -0.140457 -3.23996 0
M  V30 33320 H 3127.21 -1.90498 -3.42714 0
M  V30 33321 H 3128.7 -1.11518 -4.02435 0
M  V30 33322 N 3129.14 0.981655 -1.23294 0
M  V30 33323 C 3130.37 1.75548 -1.08933 0
M  V30 33324 C 3130.78 1.85701 0.362186 0
M  V30 33325 O 3130.12 1.33453 1.26238 0
M  V30 33326 C 3130.18 3.19967 -1.63895 0
M  V30 33327 C 3129.84 3.33327 -3.12638 0
M  V30 33328 C 3130.84 3.19751 -4.09946 0
M  V30 33329 C 3128.53 3.58016 -3.52321 0
M  V30 33330 C 3130.52 3.30666 -5.44921 0
M  V30 33331 C 3128.21 3.68571 -4.87441 0
M  V30 33332 C 3129.21 3.54906 -5.8355 0
M  V30 33333 O 3128.89 3.6509 -7.16216 0
M  V30 33334 H 3128.63 0.557782 -0.381911 0
M  V30 33335 H 3131.18 1.2421 -1.63588 0
M  V30 33336 H 3129.41 3.72547 -1.03659 0
M  V30 33337 H 3131.1 3.79106 -1.4503 0
M  V30 33338 H 3131.86 3.00576 -3.8063 0
M  V30 33339 H 3127.74 3.67724 -2.78029 0
M  V30 33340 H 3131.29 3.19917 -6.19918 0
M  V30 33341 H 3127.18 3.87256 -5.16433 0
M  V30 33342 H 3127.95 3.81893 -7.23948 0
M  V30 33343 N 3130.62 1.04444 1.18022 0
M  V30 33344 C 3131.56 0.638798 2.21784 0
M  V30 33345 C 3132.53 -0.355284 1.62256 0
M  V30 33346 O 3133.72 -0.248407 1.89176 0
M  V30 33347 C 3130.86 0.0118609 3.45098 0
M  V30 33348 C 3129.97 1.05386 4.18948 0
M  V30 33349 C 3129.11 0.395044 5.29729 0
M  V30 33350 C 3128.14 1.42188 5.95356 0
M  V30 33351 N 3127.28 0.787758 6.97667 0
M  V30 33352 H 3132.12 1.52813 2.55836 0
M  V30 33353 H 3129.66 0.7644 1.2568 0
M  V30 33354 H 3131.62 -0.369002 4.15565 0
M  V30 33355 H 3130.25 -0.840966 3.11653 0
M  V30 33356 H 3129.3 1.55264 3.47271 0
M  V30 33357 H 3130.61 1.83363 4.63874 0
M  V30 33358 H 3129.76 -0.0398177 6.06687 0
M  V30 33359 H 3128.5 -0.416782 4.85916 0
M  V30 33360 H 3127.51 1.86684 5.17136 0
M  V30 33361 H 3128.73 2.23547 6.41251 0
M  V30 33362 H 3126.68 -0.00369362 6.56 0
M  V30 33363 H 3126.6 1.50518 7.40865 0
M  V30 33364 H 3127.86 0.377418 7.78586 0
M  V30 33365 N 3132.09 -1.34317 0.824418 0
M  V30 33366 C 3133.04 -2.29493 0.245322 0
M  V30 33367 C 3134.01 -1.53659 -0.630735 0
M  V30 33368 O 3135.2 -1.82022 -0.572062 0
M  V30 33369 C 3132.34 -3.40096 -0.585572 0
M  V30 33370 C 3131.45 -4.30865 0.312897 0
M  V30 33371 C 3130.58 -5.28572 -0.527708 0
M  V30 33372 C 3129.62 -6.1098 0.370054 0
M  V30 33373 N 3128.76 -7.00772 -0.431566 0
M  V30 33374 H 3133.6 -2.78423 1.0623 0
M  V30 33375 H 3131.14 -1.37012 0.535354 0
M  V30 33376 H 3133.09 -4.02908 -1.08264 0
M  V30 33377 H 3131.72 -2.92396 -1.36765 0
M  V30 33378 H 3130.78 -3.68902 0.928194 0
M  V30 33379 H 3132.09 -4.88609 1.00315 0
M  V30 33380 H 3131.24 -5.96843 -1.0892 0
M  V30 33381 H 3129.98 -4.7137 -1.25146 0
M  V30 33382 H 3128.99 -5.41641 0.943672 0
M  V30 33383 H 3130.21 -6.70264 1.09194 0
M  V30 33384 H 3128.16 -6.46037 -1.13896 0
M  V30 33385 H 3128.07 -7.55735 0.200266 0
M  V30 33386 H 3129.34 -7.73369 -0.975759 0
M  V30 33387 N 3133.57 -0.579517 -1.46558 0
M  V30 33388 C 3134.82 -0.0638773 -2.02399 0
M  V30 33389 C 3135.15 1.29481 -1.45137 0
M  V30 33390 O 3134.4 1.8611 -0.605094 0
M  V30 33391 C 3134.7 0.0552175 -3.57357 0
M  V30 33392 C 3134.37 -1.23547 -4.33644 0
M  V30 33393 C 3133.03 -1.58908 -4.54205 0
M  V30 33394 C 3135.38 -2.08973 -4.77472 0
M  V30 33395 C 3132.71 -2.79501 -5.15845 0
M  V30 33396 C 3135.06 -3.28789 -5.40445 0
M  V30 33397 C 3133.72 -3.64437 -5.59234 0
M  V30 33398 H 3132.99 -0.0233744 -0.740631 0
M  V30 33399 H 3135.64 -0.755513 -1.75967 0
M  V30 33400 H 3133.95 0.829963 -3.82908 0
M  V30 33401 H 3135.64 0.469894 -3.98237 0
M  V30 33402 H 3132.23 -0.950173 -4.17935 0
M  V30 33403 H 3136.42 -1.82958 -4.61346 0
M  V30 33404 H 3131.67 -3.07261 -5.28584 0
M  V30 33405 H 3135.85 -3.95255 -5.73364 0
M  V30 33406 H 3133.47 -4.57972 -6.06767 0
M  V30 33407 N 3135.05 1.54376 -0.317127 0
M  V30 33408 C 3136.3 2.00747 0.2878 0
M  V30 33409 C 3136.63 1.20504 1.5229 0
M  V30 33410 O 3135.9 0.28566 1.92391 0
M  V30 33411 C 3136.19 3.54575 0.628361 0
M  V30 33412 C 3136.04 4.45548 -0.617 0
M  V30 33413 C 3137.36 4.15578 1.44855 0
M  V30 33414 H 3134.48 0.729749 0.103131 0
M  V30 33415 H 3137.12 1.85014 -0.432428 0
M  V30 33416 H 3135.27 3.68113 1.24197 0
M  V30 33417 H 3136.94 4.43891 -1.25534 0
M  V30 33418 H 3135.19 4.15486 -1.24713 0
M  V30 33419 H 3135.86 5.50987 -0.33434 0
M  V30 33420 H 3138.33 4.05575 0.929944 0
M  V30 33421 H 3137.21 5.23336 1.65561 0
M  V30 33422 H 3137.47 3.68488 2.44273 0
M  V30 33423 N 3136.53 0.0451655 1.57535 0
M  V30 33424 C 3137.44 -0.946609 2.14654 0
M  V30 33425 C 3138.45 -1.34588 1.10282 0
M  V30 33426 O 3139.63 -1.42403 1.4242 0
M  V30 33427 C 3136.7 -2.2051 2.67537 0
M  V30 33428 C 3135.76 -1.86475 3.86686 0
M  V30 33429 C 3134.99 -3.06324 4.37037 0
M  V30 33430 O 3135.21 -4.19503 3.86488 0
M  V30 33431 O 3134.15 -2.87688 5.28696 0
M  V30 33432 H 3137.97 -0.490857 2.99707 0
M  V30 33433 H 3135.56 -0.176384 1.48355 0
M  V30 33434 H 3137.44 -2.9436 3.01547 0
M  V30 33435 H 3136.11 -2.65235 1.85559 0
M  V30 33436 H 3135.02 -1.0996 3.57575 0
M  V30 33437 H 3136.35 -1.46554 4.69875 0
M  V30 33438 N 3138.01 -1.5594 -0.228159 0
M  V30 33439 C 3138.95 -1.91873 -1.2827 0
M  V30 33440 C 3139.92 -0.775129 -1.46905 0
M  V30 33441 O 3141.11 -1.03044 -1.60582 0
M  V30 33442 C 3138.25 -2.23509 -2.62941 0
M  V30 33443 C 3137.36 -3.5077 -2.5216 0
M  V30 33444 C 3136.5 -3.71885 -3.79309 0
M  V30 33445 C 3135.54 -4.92682 -3.63223 0
M  V30 33446 N 3134.67 -5.1022 -4.82306 0
M  V30 33447 H 3139.51 -2.81797 -0.96926 0
M  V30 33448 H 3137.05 -1.3948 -0.467307 0
M  V30 33449 H 3139.01 -2.3986 -3.41355 0
M  V30 33450 H 3137.64 -1.36767 -2.92395 0
M  V30 33451 H 3136.69 -3.42649 -1.65215 0
M  V30 33452 H 3138 -4.39335 -2.36191 0
M  V30 33453 H 3137.16 -3.88296 -4.66167 0
M  V30 33454 H 3135.89 -2.81588 -3.98195 0
M  V30 33455 H 3134.9 -4.76228 -2.74749 0
M  V30 33456 H 3136.12 -5.84457 -3.45813 0
M  V30 33457 H 3134.07 -4.22865 -5.01519 0
M  V30 33458 H 3133.99 -5.92906 -4.69039 0
M  V30 33459 H 3135.26 -5.31061 -5.70609 0
M  V30 33460 N 3139.48 0.494597 -1.49638 0
M  V30 33461 C 3140.73 1.24497 -1.58693 0
M  V30 33462 C 3141.05 1.93559 -0.281797 0
M  V30 33463 O 3142.25 2.70338 -0.250972 0
M  V30 33464 C 3140.71 2.26086 -2.80024 0
M  V30 33465 C 3140.32 1.62933 -4.17321 0
M  V30 33466 C 3142.06 3.01911 -2.98413 0
M  V30 33467 C 3139.97 2.6267 -5.29866 0
M  V30 33468 H 3138.9 0.468356 -0.590896 0
M  V30 33469 H 3141.55 0.518081 -1.76035 0
M  V30 33470 H 3139.93 3.01965 -2.5619 0
M  V30 33471 H 3141.1 0.930028 -4.51317 0
M  V30 33472 H 3139.42 0.994748 -4.04344 0
M  V30 33473 H 3142.02 3.76509 -3.79664 0
M  V30 33474 H 3142.36 3.59906 -2.09221 0
M  V30 33475 H 3142.89 2.33147 -3.22316 0
M  V30 33476 H 3139.63 2.09447 -6.21138 0
M  V30 33477 H 3139.15 3.30822 -5.00317 0
M  V30 33478 H 3140.83 3.2497 -5.59467 0
M  V30 33479 N 3140.96 1.3882 0.746109 0
M  V30 33480 C 3142.38 1.20181 1.05018 0
M  V30 33481 C 3142.58 0.0556625 2.01423 0
M  V30 33482 O 3141.63 -0.596207 2.4536 0
M  V30 33483 C 3142.95 2.53132 1.6231 0
M  V30 33484 C 3144.5 2.59881 1.74445 0
M  V30 33485 C 3144.97 3.93026 2.35148 0
M  V30 33486 N 3146.46 3.94606 2.4257 0
M  V30 33487 C 3147.2 4.94394 2.90451 0
M  V30 33488 N 3146.69 6.0458 3.38311 0
M  V30 33489 N 3148.49 4.8178 2.89559 0
M  V30 33490 H 3140.64 2.12133 0.106514 0
M  V30 33491 H 3142.9 0.94161 0.10988 0
M  V30 33492 H 3142.61 3.37496 0.9894 0
M  V30 33493 H 3142.48 2.72061 2.61271 0
M  V30 33494 H 3144.87 1.75907 2.3694 0
M  V30 33495 H 3144.95 2.44812 0.741678 0
M  V30 33496 H 3144.59 4.77426 1.73284 0
M  V30 33497 H 3144.52 4.0541 3.36081 0
M  V30 33498 H 3147.01 3.15025 2.08729 0
M  V30 33499 H 3147.33 6.76645 3.73324 0
M  V30 33500 H 3145.67 6.0819 3.36349 0
M  V30 33501 H 3148.86 3.94807 2.51485 0
M  V30 33502 H 3149.03 5.59698 3.26561 0
M  V30 33503 N 3142.44 -0.975103 1.23812 0
M  V30 33504 C 3143.67 -1.75756 1.10112 0
M  V30 33505 C 3144.09 -1.84948 -0.34289 0
M  V30 33506 O 3143.45 -1.31498 -1.24812 0
M  V30 33507 C 3143.5 -3.15991 1.7373 0
M  V30 33508 O 3142.6 -4.00016 1.00304 0
M  V30 33509 H 3141.94 -0.540537 0.385636 0
M  V30 33510 H 3144.47 -1.22369 1.63973 0
M  V30 33511 H 3144.48 -3.66547 1.79185 0
M  V30 33512 H 3143.16 -3.08616 2.788 0
M  V30 33513 H 3141.73 -3.58513 1.02581 0
M  V30 33514 N 3143.92 -1.05068 -1.17467 0
M  V30 33515 C 3145.16 -0.761146 -1.87975 0
M  V30 33516 C 3145.5 0.709963 -1.80757 0
M  V30 33517 O 3144.77 1.51904 -1.21472 0
M  V30 33518 C 3145.06 -1.24066 -3.38053 0
M  V30 33519 C 3144.91 -2.77461 -3.54027 0
M  V30 33520 C 3146.23 -0.838688 -4.32035 0
M  V30 33521 H 3143.35 -0.277975 -0.682568 0
M  V30 33522 H 3145.99 -1.30445 -1.38145 0
M  V30 33523 H 3144.14 -0.778455 -3.80621 0
M  V30 33524 H 3145.81 -3.31796 -3.20483 0
M  V30 33525 H 3144.05 -3.16798 -2.96347 0
M  V30 33526 H 3144.72 -3.06074 -4.59372 0
M  V30 33527 H 3147.2 -1.23658 -3.97301 0
M  V30 33528 H 3146.08 -1.20183 -5.35581 0
M  V30 33529 H 3146.34 0.257421 -4.4135 0
M  V30 33530 N 3145.4 1.33878 -0.831529 0
M  V30 33531 C 3146.62 2.02766 -0.435989 0
M  V30 33532 C 3147.05 1.62179 0.952861 0
M  V30 33533 O 3146.4 0.810709 1.62164 0
M  V30 33534 C 3146.45 3.56288 -0.55597 0
M  V30 33535 O 3145.56 4.10248 0.420754 0
M  V30 33536 H 3144.9 0.639625 -0.178259 0
M  V30 33537 H 3147.43 1.70939 -1.12433 0
M  V30 33538 H 3147.44 4.05675 -0.434902 0
M  V30 33539 H 3146.11 3.85174 -1.56887 0
M  V30 33540 H 3144.69 3.72007 0.257854 0
M  V30 33541 N 3146.87 0.587281 1.46249 0
M  V30 33542 C 3147.84 -0.133198 2.28813 0
M  V30 33543 C 3148.84 -0.814489 1.38646 0
M  V30 33544 O 3150.03 -0.665746 1.60977 0
M  V30 33545 C 3147.16 -1.19818 3.1915 0
M  V30 33546 H 3148.35 0.592437 2.9399 0
M  V30 33547 H 3145.91 0.345443 1.52435 0
M  V30 33548 H 3146.64 -1.95525 2.58729 0
M  V30 33549 H 3146.43 -0.714112 3.85542 0
M  V30 33550 H 3147.92 -1.70337 3.81281 0
M  V30 33551 N 3148.35 -1.54206 0.325309 0
M  V30 33552 C 3149.6 -2.00204 -0.276193 0
M  V30 33553 C 3149.92 -1.21505 -1.52517 0
M  V30 33554 O 3149.19 -0.317336 -1.93313 0
M  V30 33555 H 3147.77 -0.739577 -0.105046 0
M  V30 33556 H 3150.43 -1.89816 0.442258 0
M  V30 33557 H 3149.53 -3.07543 -0.531373 0
M  V30 33558 N 3149.83 -0.0535194 -1.57509 0
M  V30 33559 C 3151.25 0.30304 -1.56697 0
M  V30 33560 C 3151.45 1.7128 -1.06138 0
M  V30 33561 O 3150.5 2.42046 -0.719033 0
M  V30 33562 C 3151.82 0.129365 -3.00422 0
M  V30 33563 C 3153.36 0.200291 -3.12359 0
M  V30 33564 C 3153.84 0.0551166 -4.57967 0
M  V30 33565 N 3155.33 0.111317 -4.63066 0
M  V30 33566 C 3156.07 0.0231336 -5.73395 0
M  V30 33567 N 3155.56 -0.117532 -6.927 0
M  V30 33568 N 3157.35 0.0788852 -5.62045 0
M  V30 33569 H 3149.51 -0.975098 -1.88694 0
M  V30 33570 H 3151.77 -0.378721 -0.869065 0
M  V30 33571 H 3151.47 -0.842713 -3.41455 0
M  V30 33572 H 3151.35 0.889411 -3.66564 0
M  V30 33573 H 3153.74 1.16284 -2.71223 0
M  V30 33574 H 3153.82 -0.59055 -2.4889 0
M  V30 33575 H 3153.46 -0.904121 -4.99788 0
M  V30 33576 H 3153.39 0.865132 -5.19445 0
M  V30 33577 H 3155.88 0.219189 -3.77264 0
M  V30 33578 H 3156.19 -0.177462 -7.72596 0
M  V30 33579 H 3154.54 -0.152648 -6.94832 0
M  V30 33580 H 3157.73 0.187351 -4.67725 0
M  V30 33581 H 3157.9 0.00670341 -6.48 0
M  V30 33582 N 3151.31 1.56059 0.219886 0
M  V30 33583 C 3152.27 1.9172 1.25603 0
M  V30 33584 C 3153.27 0.795937 1.39719 0
M  V30 33585 O 3154.46 1.06367 1.37956 0
M  V30 33586 C 3151.59 2.16948 2.62957 0
M  V30 33587 H 3152.79 2.84393 0.951859 0
M  V30 33588 H 3150.34 1.49366 0.460372 0
M  V30 33589 H 3151.08 1.26831 2.9847 0
M  V30 33590 H 3150.86 2.98633 2.54088 0
M  V30 33591 H 3152.35 2.45628 3.37723 0
M  V30 33592 N 3152.79 -0.486655 1.49898 0
M  V30 33593 C 3153.72 -1.59491 1.70543 0
M  V30 33594 C 3154.7 -1.60818 0.554213 0
M  V30 33595 O 3155.88 -1.77332 0.791648 0
M  V30 33596 C 3153.01 -2.97905 1.78522 0
M  V30 33597 C 3151.97 -3.11444 2.93576 0
M  V30 33598 C 3151.29 -4.51351 2.86682 0
M  V30 33599 C 3152.59 -2.90119 4.34313 0
M  V30 33600 H 3154.29 -1.42467 2.63331 0
M  V30 33601 H 3151.83 -0.683947 1.26721 0
M  V30 33602 H 3153.79 -3.75348 1.9155 0
M  V30 33603 H 3152.51 -3.16049 0.823437 0
M  V30 33604 H 3151.17 -2.36429 2.80173 0
M  V30 33605 H 3150.82 -4.66392 1.88381 0
M  V30 33606 H 3150.52 -4.61348 3.63912 0
M  V30 33607 H 3152.04 -5.30836 3.01737 0
M  V30 33608 H 3153.46 -3.57323 4.48323 0
M  V30 33609 H 3151.85 -3.11576 5.12875 0
M  V30 33610 H 3152.92 -1.86111 4.47762 0
M  V30 33611 N 3154.27 -1.39214 -0.738737 0
M  V30 33612 C 3155.5 -1.39297 -1.52577 0
M  V30 33613 C 3155.9 0.0152667 -1.89194 0
M  V30 33614 O 3155.25 0.996046 -1.54352 0
M  V30 33615 C 3155.31 -2.19827 -2.84458 0
M  V30 33616 C 3154.97 -3.68496 -2.70296 0
M  V30 33617 C 3155.97 -4.6166 -2.39094 0
M  V30 33618 C 3153.65 -4.12035 -2.87284 0
M  V30 33619 C 3155.65 -5.96346 -2.25056 0
M  V30 33620 C 3153.34 -5.46798 -2.72865 0
M  V30 33621 C 3154.33 -6.38768 -2.41795 0
M  V30 33622 O 3154.02 -7.71049 -2.27461 0
M  V30 33623 H 3153.75 -0.477781 -0.478228 0
M  V30 33624 H 3156.31 -1.83603 -0.920813 0
M  V30 33625 H 3154.54 -1.70263 -3.47199 0
M  V30 33626 H 3156.23 -2.12135 -3.46054 0
M  V30 33627 H 3156.99 -4.29324 -2.25624 0
M  V30 33628 H 3152.87 -3.40786 -3.1046 0
M  V30 33629 H 3156.42 -6.68098 -2.00727 0
M  V30 33630 H 3152.31 -5.78727 -2.85912 0
M  V30 33631 H 3153.08 -7.81733 -2.4256 0
M  V30 33632 N 3155.74 0.968523 -1.24328 0
M  V30 33633 C 3156.99 1.70571 -1.0765 0
M  V30 33634 C 3157.31 1.91778 0.384787 0
M  V30 33635 O 3158.51 2.63059 0.671736 0
M  V30 33636 C 3156.97 3.07014 -1.87804 0
M  V30 33637 C 3156.58 2.93652 -3.38338 0
M  V30 33638 C 3158.32 3.8461 -1.79653 0
M  V30 33639 C 3156.23 4.254 -4.10839 0
M  V30 33640 H 3155.16 0.639635 -0.399228 0
M  V30 33641 H 3157.81 1.07931 -1.48402 0
M  V30 33642 H 3156.19 3.70477 -1.39866 0
M  V30 33643 H 3157.36 2.39206 -3.93849 0
M  V30 33644 H 3155.68 2.29522 -3.47431 0
M  V30 33645 H 3158.28 4.82168 -2.31124 0
M  V30 33646 H 3158.62 4.09274 -0.761625 0
M  V30 33647 H 3159.15 3.27872 -2.25267 0
M  V30 33648 H 3155.89 4.0593 -5.14686 0
M  V30 33649 H 3155.41 4.79665 -3.60113 0
M  V30 33650 H 3157.09 4.94024 -4.17791 0
M  V30 33651 N 3157.22 1.0569 1.16908 0
M  V30 33652 C 3158.63 0.795302 1.68914 0
M  V30 33653 C 3158.98 -0.681892 1.83969 0
M  V30 33654 O 3158.11 -1.5295 1.53085 0
M  V30 33655 C 3158.7 1.43708 3.06812 0
M  V30 33656 C 3157.26 1.22341 3.55963 0
M  V30 33657 C 3156.41 1.51745 2.32096 0
M  V30 33658 H 3159.36 1.22118 1.01355 0
M  V30 33659 H 3159.38 0.849081 3.70905 0
M  V30 33660 H 3158.89 2.51219 2.95822 0
M  V30 33661 H 3156.99 0.167775 3.72222 0
M  V30 33662 H 3157.11 1.93187 4.38424 0
M  V30 33663 H 3155.47 0.937737 2.36809 0
M  V30 33664 H 3156.25 2.60401 2.2371 0
M  V30 33665 N 3158.7 -1.33435 0.838617 0
M  V30 33666 C 3160.11 -1.80129 0.490966 0
M  V30 33667 C 3160.46 -1.69392 -0.989994 0
M  V30 33668 O 3159.59 -1.24305 -1.77136 0
M  V30 33669 C 3160.18 -3.27053 0.884405 0
M  V30 33670 C 3158.74 -3.71765 0.588894 0
M  V30 33671 C 3157.89 -2.54856 1.09287 0
M  V30 33672 H 3160.84 -1.2096 1.02734 0
M  V30 33673 H 3160.86 -3.80003 0.19435 0
M  V30 33674 H 3160.37 -3.34836 1.96231 0
M  V30 33675 H 3158.47 -3.69509 -0.478953 0
M  V30 33676 H 3158.59 -4.65242 1.14395 0
M  V30 33677 H 3156.95 -2.49465 0.513746 0
M  V30 33678 H 3157.73 -2.65401 2.17754 0
M  V30 33679 N 3160.18 -0.595029 -1.45935 0
M  V30 33680 C 3161.41 -0.0911969 -2.06399 0
M  V30 33681 C 3161.82 1.22441 -1.44239 0
M  V30 33682 O 3161.16 1.75389 -0.546296 0
M  V30 33683 C 3161.22 0.136016 -3.59243 0
M  V30 33684 C 3160.88 -1.09587 -4.43666 0
M  V30 33685 C 3161.88 -2.01096 -4.79433 0
M  V30 33686 C 3159.57 -1.32117 -4.84614 0
M  V30 33687 C 3161.56 -3.13473 -5.54989 0
M  V30 33688 C 3159.25 -2.44798 -5.59926 0
M  V30 33689 C 3160.25 -3.35305 -5.95029 0
M  V30 33690 O 3159.93 -4.46026 -6.68817 0
M  V30 33691 H 3159.67 -0.0601897 -0.673315 0
M  V30 33692 H 3162.22 -0.819038 -1.88364 0
M  V30 33693 H 3160.45 0.91861 -3.75631 0
M  V30 33694 H 3162.14 0.589884 -4.01591 0
M  V30 33695 H 3162.9 -1.8491 -4.48367 0
M  V30 33696 H 3158.78 -0.625742 -4.56733 0
M  V30 33697 H 3162.33 -3.84141 -5.82307 0
M  V30 33698 H 3158.22 -2.60942 -5.90406 0
M  V30 33699 H 3158.99 -4.44549 -6.87254 0
M  V30 33700 N 3161.66 1.54031 -0.333483 0
M  V30 33701 C 3162.93 1.9295 0.320868 0
M  V30 33702 C 3163.31 1.26408 1.69069 0
M  V30 33703 O 3162.66 0.41135 2.24767 0
M  V30 33704 C 3162.87 3.46663 0.403196 0
M  V30 33705 C 3164.22 4.19458 0.658801 0
M  V30 33706 O 3165.24 3.52873 0.485719 0
M  V30 33707 O 3164.1 5.37396 0.993381 0
M  V30 33708 H 3161.2 0.806009 0.185144 0
M  V30 33709 H 3163.74 1.653 -0.383924 0
M  V30 33710 H 3162.51 3.87294 -0.558477 0
M  V30 33711 H 3162.14 3.80449 1.15517 0
M  V30 33712 N 3163.13 0.0618717 1.57479 0
M  V30 33713 C 3164.06 -0.906562 2.15183 0
M  V30 33714 C 3165.04 -1.31722 1.07626 0
M  V30 33715 O 3166.23 -1.39003 1.35616 0
M  V30 33716 C 3163.36 -2.17767 2.70546 0
M  V30 33717 C 3162.31 -1.90673 3.83181 0
M  V30 33718 C 3161.64 -3.2433 4.25105 0
M  V30 33719 C 3162.94 -1.21985 5.07855 0
M  V30 33720 H 3164.63 -0.425888 2.96355 0
M  V30 33721 H 3162.18 -0.20341 1.42556 0
M  V30 33722 H 3164.13 -2.85924 3.09557 0
M  V30 33723 H 3162.86 -2.68059 1.8658 0
M  V30 33724 H 3161.52 -1.24925 3.44658 0
M  V30 33725 H 3161.16 -3.72443 3.38075 0
M  V30 33726 H 3160.86 -3.06996 5.01026 0
M  V30 33727 H 3162.39 -3.93701 4.66725 0
M  V30 33728 H 3163.8 -1.80195 5.44245 0
M  V30 33729 H 3162.2 -1.14943 5.88989 0
M  V30 33730 H 3163.27 -0.197451 4.84498 0
M  V30 33731 N 3164.61 -1.56173 -0.211607 0
M  V30 33732 C 3165.54 -1.96246 -1.26529 0
M  V30 33733 C 3166.52 -0.832054 -1.48361 0
M  V30 33734 O 3167.71 -1.09513 -1.60376 0
M  V30 33735 C 3164.84 -2.28775 -2.61303 0
M  V30 33736 C 3163.79 -3.44399 -2.54112 0
M  V30 33737 C 3163.12 -3.62559 -3.93007 0
M  V30 33738 C 3164.42 -4.7908 -2.08038 0
M  V30 33739 H 3166.11 -2.84513 -0.932357 0
M  V30 33740 H 3163.66 -1.36885 -0.44706 0
M  V30 33741 H 3165.61 -2.55402 -3.35184 0
M  V30 33742 H 3164.34 -1.37372 -2.96305 0
M  V30 33743 H 3162.99 -3.17837 -1.82689 0
M  V30 33744 H 3162.64 -2.68516 -4.25333 0
M  V30 33745 H 3162.34 -4.40334 -3.89075 0
M  V30 33746 H 3163.87 -3.91545 -4.68535 0
M  V30 33747 H 3165.28 -5.04846 -2.71667 0
M  V30 33748 H 3163.68 -5.60208 -2.15144 0
M  V30 33749 H 3164.75 -4.73769 -1.03298 0
M  V30 33750 N 3166.09 0.478699 -1.50154 0
M  V30 33751 C 3167.02 1.58584 -1.71387 0
M  V30 33752 C 3168 1.60522 -0.562733 0
M  V30 33753 O 3169.19 1.76909 -0.801041 0
M  V30 33754 C 3166.32 2.96954 -1.80099 0
M  V30 33755 C 3165.27 3.09882 -2.95224 0
M  V30 33756 C 3164.6 4.49824 -2.89071 0
M  V30 33757 C 3165.9 2.87812 -4.35846 0
M  V30 33758 H 3167.59 1.41069 -2.64083 0
M  V30 33759 H 3165.14 0.677217 -1.27082 0
M  V30 33760 H 3167.09 3.74327 -1.93538 0
M  V30 33761 H 3165.81 3.15608 -0.840186 0
M  V30 33762 H 3164.47 2.34939 -2.81423 0
M  V30 33763 H 3164.12 4.65386 -1.90852 0
M  V30 33764 H 3163.82 4.59412 -3.66353 0
M  V30 33765 H 3165.34 5.29228 -3.04548 0
M  V30 33766 H 3166.76 3.5494 -4.50212 0
M  V30 33767 H 3165.16 3.08851 -5.1452 0
M  V30 33768 H 3166.23 1.83734 -4.48743 0
M  V30 33769 N 3167.57 1.39603 0.731343 0
M  V30 33770 C 3168.52 1.35104 1.8366 0
M  V30 33771 C 3169.5 0.231269 1.59229 0
M  V30 33772 O 3170.69 0.469102 1.70671 0
M  V30 33773 C 3167.82 1.20047 3.21627 0
M  V30 33774 C 3166.91 2.36739 3.51874 0
M  V30 33775 N 3167.3 3.62216 3.53034 0
M  V30 33776 C 3165.6 2.29777 3.82255 0
M  V30 33777 C 3166.3 4.39405 3.8118 0
M  V30 33778 N 3165.28 3.69038 3.99139 0
M  V30 33779 H 3169.08 2.3008 1.82867 0
M  V30 33780 H 3166.59 1.33152 0.929754 0
M  V30 33781 H 3168.59 1.14906 4.00752 0
M  V30 33782 H 3167.25 0.260241 3.23655 0
M  V30 33783 H 3168.26 3.9559 3.34259 0
M  V30 33784 H 3164.94 1.44036 3.91867 0
M  V30 33785 H 3166.33 5.48184 3.88515 0
M  V30 33786 N 3169.05 -0.961916 1.2484 0
M  V30 33787 C 3169.96 -2.09131 1.06308 0
M  V30 33788 C 3170.97 -1.74 0.00224534 0
M  V30 33789 O 3172.15 -2.00388 0.201646 0
M  V30 33790 C 3169.21 -3.40042 0.676177 0
M  V30 33791 C 3168.27 -3.89086 1.81414 0
M  V30 33792 C 3167.51 -5.13749 1.4456 0
M  V30 33793 O 3167.73 -5.69398 0.337994 0
M  V30 33794 O 3166.66 -5.57321 2.27326 0
M  V30 33795 H 3170.49 -2.27663 2.01005 0
M  V30 33796 H 3168.08 -1.07537 1.03712 0
M  V30 33797 H 3169.96 -4.18746 0.472198 0
M  V30 33798 H 3168.63 -3.22797 -0.24161 0
M  V30 33799 H 3167.54 -3.11418 2.07292 0
M  V30 33800 H 3168.87 -4.10817 2.71091 0
M  V30 33801 N 3170.52 -1.06308 -1.16346 0
M  V30 33802 C 3171.77 -0.790853 -1.87396 0
M  V30 33803 C 3172.13 0.67535 -1.80158 0
M  V30 33804 O 3171.42 1.48845 -1.20647 0
M  V30 33805 C 3171.61 -1.21996 -3.35934 0
M  V30 33806 C 3171.44 -2.72634 -3.57632 0
M  V30 33807 C 3170.21 -3.401 -3.73711 0
M  V30 33808 C 3172.41 -3.70847 -3.56339 0
M  V30 33809 N 3170.39 -4.79487 -3.83361 0
M  V30 33810 C 3171.76 -4.96019 -3.71974 0
M  V30 33811 C 3173.82 -3.64155 -3.39552 0
M  V30 33812 C 3172.52 -6.15298 -3.7256 0
M  V30 33813 C 3174.55 -4.82886 -3.4143 0
M  V30 33814 C 3173.91 -6.06887 -3.57585 0
M  V30 33815 H 3170.01 -0.341795 -0.703349 0
M  V30 33816 H 3172.59 -1.35726 -1.39595 0
M  V30 33817 H 3170.76 -0.681386 -3.82376 0
M  V30 33818 H 3172.49 -0.896388 -3.94648 0
M  V30 33819 H 3169.25 -2.90502 -3.7404 0
M  V30 33820 H 3169.67 -5.51997 -3.91954 0
M  V30 33821 H 3174.32 -2.69241 -3.25989 0
M  V30 33822 H 3172.03 -7.10546 -3.84903 0
M  V30 33823 H 3175.62 -4.79374 -3.29684 0
M  V30 33824 H 3174.5 -6.97222 -3.58958 0
M  V30 33825 N 3172 1.32989 -0.845682 0
M  V30 33826 C 3173.23 2.01466 -0.457721 0
M  V30 33827 C 3173.64 1.63758 0.947635 0
M  V30 33828 O 3172.98 0.850242 1.62839 0
M  V30 33829 C 3173.05 3.55912 -0.506652 0
M  V30 33830 C 3172.71 4.1702 -1.86932 0
M  V30 33831 C 3173.71 4.35899 -2.83352 0
M  V30 33832 C 3171.39 4.53294 -2.16402 0
M  V30 33833 C 3173.39 4.90209 -4.07399 0
M  V30 33834 C 3171.07 5.0731 -3.40704 0
M  V30 33835 C 3172.07 5.25715 -4.36019 0
M  V30 33836 O 3171.76 5.7858 -5.58122 0
M  V30 33837 H 3171.49 0.651796 -0.17927 0
M  V30 33838 H 3174.04 1.70743 -1.14175 0
M  V30 33839 H 3172.27 3.8599 0.234185 0
M  V30 33840 H 3173.96 4.05674 -0.135558 0
M  V30 33841 H 3174.73 4.08216 -2.61886 0
M  V30 33842 H 3170.61 4.3826 -1.43002 0
M  V30 33843 H 3174.15 5.04489 -4.81805 0
M  V30 33844 H 3170.05 5.34424 -3.62024 0
M  V30 33845 H 3170.82 5.96985 -5.59956 0
M  V30 33846 N 3173.48 0.60276 1.45618 0
M  V30 33847 C 3174.39 -0.120861 2.34288 0
M  V30 33848 C 3175.41 -0.865388 1.50954 0
M  V30 33849 O 3176.58 -0.824062 1.83769 0
M  V30 33850 C 3173.65 -1.10882 3.28491 0
M  V30 33851 C 3172.71 -0.366778 4.2773 0
M  V30 33852 C 3171.94 -1.30767 5.17432 0
M  V30 33853 O 3172.16 -2.54526 5.10463 0
M  V30 33854 O 3171.1 -0.807359 5.96461 0
M  V30 33855 H 3174.92 0.607702 2.97558 0
M  V30 33856 H 3172.51 0.363045 1.44922 0
M  V30 33857 H 3174.39 -1.67796 3.86552 0
M  V30 33858 H 3173.07 -1.81849 2.67792 0
M  V30 33859 H 3171.97 0.244709 3.73299 0
M  V30 33860 H 3173.31 0.302313 4.91271 0
M  V30 33861 N 3174.96 -1.53852 0.341647 0
M  V30 33862 C 3175.91 -2.24958 -0.516019 0
M  V30 33863 C 3176.88 -1.24712 -1.09709 0
M  V30 33864 O 3178.06 -1.5344 -1.13406 0
M  V30 33865 C 3175.2 -3.02442 -1.66202 0
M  V30 33866 C 3174.31 -4.17538 -1.10843 0
M  V30 33867 C 3173.45 -4.82513 -2.22158 0
M  V30 33868 C 3172.49 -5.89681 -1.64142 0
M  V30 33869 N 3171.62 -6.48445 -2.69191 0
M  V30 33870 H 3176.46 -2.97842 0.0968798 0
M  V30 33871 H 3174 -1.46979 0.0595823 0
M  V30 33872 H 3175.96 -3.45624 -2.33666 0
M  V30 33873 H 3174.59 -2.31857 -2.24593 0
M  V30 33874 H 3173.64 -3.79011 -0.324786 0
M  V30 33875 H 3174.95 -4.94624 -0.644064 0
M  V30 33876 H 3174.11 -5.28757 -2.97492 0
M  V30 33877 H 3172.85 -4.04847 -2.71938 0
M  V30 33878 H 3171.85 -5.42823 -0.873132 0
M  V30 33879 H 3173.08 -6.69255 -1.15216 0
M  V30 33880 H 3171.02 -5.73643 -3.18229 0
M  V30 33881 H 3170.94 -7.20998 -2.27371 0
M  V30 33882 H 3172.21 -6.99341 -3.44299 0
M  V30 33883 N 3176.44 -0.0702223 -1.57443 0
M  V30 33884 C 3177.68 0.599256 -1.9343 0
M  V30 33885 C 3178.01 1.69714 -0.95013 0
M  V30 33886 O 3177.27 1.9567 0.0345033 0
M  V30 33887 C 3177.57 1.21688 -3.36046 0
M  V30 33888 C 3177.23 0.245294 -4.50232 0
M  V30 33889 C 3175.89 -0.0220007 -4.81195 0
M  V30 33890 C 3178.25 -0.419487 -5.19509 0
M  V30 33891 C 3175.57 -0.961192 -5.78773 0
M  V30 33892 C 3177.93 -1.34699 -6.18093 0
M  V30 33893 C 3176.59 -1.62277 -6.47474 0
M  V30 33894 H 3175.86 0.219283 -0.707811 0
M  V30 33895 H 3178.51 -0.140763 -1.90982 0
M  V30 33896 H 3176.81 2.0326 -3.34952 0
M  V30 33897 H 3178.51 1.74215 -3.61179 0
M  V30 33898 H 3175.1 0.463812 -4.26083 0
M  V30 33899 H 3179.28 -0.226096 -4.95785 0
M  V30 33900 H 3174.54 -1.18212 -5.99863 0
M  V30 33901 H 3178.71 -1.86807 -6.70877 0
M  V30 33902 H 3176.34 -2.35213 -7.22896 0
M  V30 33903 O 3177.95 1.61346 0.0704427 0
M  V30 33904 H 3178.64 1.80757 0.69617 0
M  V30 END ATOM
M  V30 BEGIN BOND
M  V30 END BOND
M  V30 END CTAB
M  END
$$$$
