drugbank_target|P04964 Meso-diaminopimelate D-dehydrogenase (DB02892; DB03590)
 OpenBabel12092119563D

  0  0  0     0  0            999 V3000
M  V30 BEGIN CTAB
M  V30 COUNTS 4863 4916 0 0 0
M  V30 BEGIN ATOM
M  V30 1 H -0.908 1.98254 -0.117106 0
M  V30 2 N 0 1.576 0 0
M  V30 3 C 0.933 2.03868 1.02534 0
M  V30 4 C 1.911 0.928543 1.3348 0
M  V30 5 O 3.095 1.19667 1.45644 0
M  V30 6 C 0.222 2.43627 2.35294 0
M  V30 7 C -0.732 3.65373 2.2001 0
M  V30 8 S 0.101 5.13292 1.52614 0
M  V30 9 C 1.257 5.56322 2.86805 0
M  V30 10 H 1.49 2.90518 0.631377 0
M  V30 11 H -0.977 1.52953 0.210867 0
M  V30 12 H 0.981 2.67203 3.11629 0
M  V30 13 H -0.358 1.57376 2.7183 0
M  V30 14 H -1.165 3.90944 3.18086 0
M  V30 15 H -1.563 3.418 1.51819 0
M  V30 16 H 0.729 5.58782 3.83104 0
M  V30 17 H 1.672 6.56266 2.65933 0
M  V30 18 H 2.08 4.83886 2.90714 0
M  V30 19 N 1.4781 -0.272755 1.55222 0
M  V30 20 C 2.7061 -1.02255 1.79865 0
M  V30 21 C 3.1211 -1.79924 0.572088 0
M  V30 22 O 2.4781 -1.76638 -0.458842 0
M  V30 23 C 2.5291 -1.98094 3.02392 0
M  V30 24 O 2.2501 -1.23572 4.20311 0
M  V30 25 C 3.7511 -2.84884 3.39641 0
M  V30 26 H 0.9711 -0.302057 0.599168 0
M  V30 27 H 3.5151 -0.303465 2.02236 0
M  V30 28 H 1.6701 -2.65465 2.82147 0
M  V30 29 H 2.0841 -1.88172 4.89583 0
M  V30 30 H 3.5581 -3.47927 4.28545 0
M  V30 31 H 4.0351 -3.54665 2.59055 0
M  V30 32 H 4.6411 -2.23003 3.62146 0
M  V30 33 N 2.9562 -1.48159 -0.537278 0
M  V30 34 C 3.9042 -1.62573 -1.66352 0
M  V30 35 C 4.8982 -0.492366 -1.62087 0
M  V30 36 O 6.1042 -0.670847 -1.67032 0
M  V30 37 H 2.4792 -0.511992 -0.550789 0
M  V30 38 H 4.4502 -2.57176 -1.51337 0
M  V30 39 C 3.1992 -1.67583 -3.04649 0
M  V30 40 H 2.5222 -2.54151 -3.08622 0
M  V30 41 H 3.9622 -1.81713 -3.83088 0
M  V30 42 C 2.4212 -0.413039 -3.34358 0
M  V30 43 O 2.9512 0.477259 -3.98855 0
M  V30 44 N 1.1572 -0.286961 -2.8918 0
M  V30 45 H 0.7042 -1.01241 -2.36871 0
M  V30 46 H 0.6622 0.556963 -3.09427 0
M  V30 47 N 4.4343 0.785586 -1.36625 0
M  V30 48 C 5.6833 1.53883 -1.30396 0
M  V30 49 C 5.9963 1.95271 0.113452 0
M  V30 50 O 7.2023 2.69858 0.298142 0
M  V30 51 C 5.6583 2.77808 -2.28802 0
M  V30 52 C 5.2663 2.43574 -3.75999 0
M  V30 53 C 7.0103 3.55783 -2.31558 0
M  V30 54 C 4.9173 3.63919 -4.66173 0
M  V30 55 H 3.8473 0.577678 -0.484566 0
M  V30 56 H 6.4983 0.861705 -1.62009 0
M  V30 57 H 4.8803 3.47339 -1.90188 0
M  V30 58 H 6.0543 1.81916 -4.23371 0
M  V30 59 H 4.3693 1.78803 -3.76056 0
M  V30 60 H 6.9663 4.45205 -2.96137 0
M  V30 61 H 7.3093 3.94644 -1.3252 0
M  V30 62 H 7.8423 2.93235 -2.68809 0
M  V30 63 H 4.5813 3.3015 -5.66287 0
M  V30 64 H 4.1013 4.2473 -4.23515 0
M  V30 65 H 5.7803 4.30901 -4.82632 0
M  V30 66 N 5.9124 1.20967 1.01018 0
M  V30 67 C 7.3284 0.965905 1.27053 0
M  V30 68 C 7.5284 -0.350785 1.98423 0
M  V30 69 O 6.5844 -1.07773 2.28344 0
M  V30 70 C 7.8974 2.15294 2.09926 0
M  V30 71 C 9.4454 2.19463 2.23171 0
M  V30 72 C 9.9204 3.3767 3.09424 0
M  V30 73 N 11.4114 3.37724 3.17012 0
M  V30 74 C 12.1464 4.25837 3.83993 0
M  V30 75 N 11.6424 5.24138 4.53047 0
M  V30 76 N 13.4354 4.1366 3.80581 0
M  V30 77 H 5.5864 2.0565 0.531194 0
M  V30 78 H 7.8494 0.90024 0.297106 0
M  V30 79 H 7.5554 3.10684 1.64828 0
M  V30 80 H 7.4294 2.13923 3.10672 0
M  V30 81 H 9.8164 1.24632 2.6749 0
M  V30 82 H 9.8974 2.2488 1.21912 0
M  V30 83 H 9.5414 4.32791 2.65808 0
M  V30 84 H 9.4714 3.29491 4.10784 0
M  V30 85 H 11.9624 2.6658 2.6785 0
M  V30 86 H 12.2754 5.87684 5.01844 0
M  V30 87 H 10.6204 5.28068 4.5185 0
M  V30 88 H 13.8114 3.36127 3.25785 0
M  V30 89 H 13.9844 4.82538 4.32505 0
M  V30 90 N 7.3905 -1.2043 1.01659 0
M  V30 91 C 8.6365 -1.90079 0.706963 0
M  V30 92 C 8.9695 -1.78648 -0.761474 0
M  V30 93 O 8.2445 -1.17069 -1.55323 0
M  V30 94 C 8.5275 -3.41469 1.14327 0
M  V30 95 C 8.3805 -3.61833 2.67201 0
M  V30 96 C 9.6995 -4.34261 0.714529 0
M  V30 97 H 6.8185 -0.690254 0.2583 0
M  V30 98 H 9.4605 -1.41826 1.26433 0
M  V30 99 H 7.6105 -3.82696 0.669056 0
M  V30 100 H 9.2825 -3.2986 3.22475 0
M  V30 101 H 7.5255 -3.05304 3.08175 0
M  V30 102 H 8.1965 -4.67955 2.92783 0
M  V30 103 H 10.6725 -4.00682 1.12221 0
M  V30 104 H 9.5485 -5.38806 1.04784 0
M  V30 105 H 9.8095 -4.40431 -0.383799 0
M  V30 106 N 8.8686 -0.792821 -1.36206 0
M  V30 107 C 9.8316 -0.199459 -2.2833 0
M  V30 108 C 10.8316 0.605189 -1.48977 0
M  V30 109 O 12.0216 0.425685 -1.68919 0
M  V30 110 C 9.1536 0.723523 -3.33134 0
M  V30 111 H 10.3466 -1.01181 -2.82316 0
M  V30 112 H 7.8996 -0.562485 -1.45828 0
M  V30 113 H 8.6346 1.56008 -2.84309 0
M  V30 114 H 8.4196 0.148436 -3.91819 0
M  V30 115 H 9.9096 1.13344 -4.01924 0
M  V30 116 N 10.3467 1.47872 -0.545128 0
M  V30 117 C 11.5957 2.01695 -0.0145033 0
M  V30 118 C 11.9087 1.42609 1.33873 0
M  V30 119 O 13.1147 1.88021 1.95858 0
M  V30 120 C 11.5707 3.59892 0.0245068 0
M  V30 121 C 11.1787 4.27966 -1.32475 0
M  V30 122 C 12.9227 4.21507 0.50316 0
M  V30 123 C 10.8297 5.78136 -1.2455 0
M  V30 124 H 9.7597 0.753998 -0.00165172 0
M  V30 125 H 12.4107 1.69985 -0.691175 0
M  V30 126 H 10.7927 3.88509 0.766575 0
M  V30 127 H 11.9667 4.11003 -2.08357 0
M  V30 128 H 10.2817 3.78286 -1.74036 0
M  V30 129 H 12.8787 5.31538 0.580656 0
M  V30 130 H 13.2217 3.87855 1.51243 0
M  V30 131 H 13.7547 3.97376 -0.183681 0
M  V30 132 H 10.4937 6.16388 -2.23039 0
M  V30 133 H 10.0137 5.97469 -0.528282 0
M  V30 134 H 11.6927 6.40099 -0.942488 0
M  V30 135 N 11.8248 0.280983 1.55075 0
M  V30 136 C 13.0708 -0.33461 2.00021 0
M  V30 137 C 13.4038 -1.55063 1.16915 0
M  V30 138 O 12.6788 -1.93006 0.240646 0
M  V30 139 C 12.9618 -0.711007 3.53011 0
M  V30 140 C 12.8148 0.512766 4.46868 0
M  V30 141 C 14.1338 -1.54522 4.12081 0
M  V30 142 H 11.2528 -0.120147 0.727141 0
M  V30 143 H 13.8948 0.389097 1.85973 0
M  V30 144 H 12.0448 -1.32761 3.65112 0
M  V30 145 H 13.7168 1.15131 4.46702 0
M  V30 146 H 11.9598 1.14975 4.18286 0
M  V30 147 H 12.6308 0.205556 5.51617 0
M  V30 148 H 15.1068 -1.02442 4.03293 0
M  V30 149 H 13.9828 -1.77739 5.19327 0
M  V30 150 H 14.2438 -2.52813 3.62682 0
M  V30 151 N 13.3029 -1.57598 0.00835791 0
M  V30 152 C 14.5509 -1.90551 -0.6734 0
M  V30 153 C 14.8719 -0.883301 -1.73847 0
M  V30 154 O 14.1419 0.0781442 -1.95744 0
M  V30 155 H 12.7219 -0.703312 -0.251717 0
M  V30 156 H 15.3839 -1.94833 0.0512592 0
M  V30 157 H 14.4799 -2.9056 -1.13935 0
M  V30 158 N 14.781 0.264519 -1.55364 0
M  V30 159 C 16.011 1.01153 -1.80143 0
M  V30 160 C 16.419 1.80115 -0.579253 0
M  V30 161 O 15.762 1.77813 0.46132 0
M  V30 162 C 15.824 2.01098 -2.97993 0
M  V30 163 C 15.488 1.40995 -4.34706 0
M  V30 164 C 16.485 0.821316 -5.13372 0
M  V30 165 C 14.17 1.43461 -4.81378 0
M  V30 166 C 16.164 0.265339 -6.36847 0
M  V30 167 C 13.851 0.874771 -6.04807 0
M  V30 168 C 14.849 0.291146 -6.82379 0
M  V30 169 O 14.537 -0.260093 -8.03479 0
M  V30 170 H 14.269 0.304125 -0.603725 0
M  V30 171 H 16.823 0.298089 -2.03225 0
M  V30 172 H 15.053 2.76224 -2.70623 0
M  V30 173 H 16.742 2.61997 -3.1002 0
M  V30 174 H 17.508 0.794903 -4.78442 0
M  V30 175 H 13.387 1.87826 -4.21002 0
M  V30 176 H 16.931 -0.190837 -6.97339 0
M  V30 177 H 12.828 0.898452 -6.39217 0
M  V30 178 H 13.596 -0.150265 -8.18362 0
M  V30 179 N 16.2591 1.48442 0.529413 0
M  V30 180 C 17.5071 1.56179 1.28267 0
M  V30 181 C 17.8281 0.237721 1.93546 0
M  V30 182 O 17.0981 -0.740779 1.81354 0
M  V30 183 H 15.6781 0.575367 0.476405 0
M  V30 184 H 18.3401 1.84909 0.61602 0
M  V30 185 H 17.4361 2.34312 2.06165 0
M  V30 186 N 17.7372 -0.778329 1.37039 0
M  V30 187 C 18.6852 -1.91278 1.32345 0
M  V30 188 C 19.6792 -1.68051 0.213331 0
M  V30 189 O 20.8852 -1.75922 0.38098 0
M  V30 190 H 17.2602 -0.628909 0.412283 0
M  V30 191 H 19.2312 -1.92355 2.28127 0
M  V30 192 C 17.9802 -3.28455 1.14073 0
M  V30 193 H 17.3032 -3.46901 1.98746 0
M  V30 194 H 18.7432 -4.08152 1.14837 0
M  V30 195 C 17.2022 -3.36548 -0.154015 0
M  V30 196 O 17.7322 -3.85186 -1.13993 0
M  V30 197 N 15.9382 -2.89894 -0.202475 0
M  V30 198 H 15.4852 -2.50504 0.600476 0
M  V30 199 H 15.4432 -2.9569 -1.06841 0
M  V30 200 N 19.2153 -1.21501 -1.00376 0
M  V30 201 C 20.1453 -0.999478 -2.11028 0
M  V30 202 C 21.1263 0.0759671 -1.6993 0
M  V30 203 O 22.3113 -0.0841106 -1.94018 0
M  V30 204 C 19.4413 -0.564709 -3.42678 0
M  V30 205 C 18.3953 -1.58486 -3.97576 0
M  V30 206 C 17.7213 -1.00628 -5.25146 0
M  V30 207 C 19.0213 -2.97204 -4.29496 0
M  V30 208 H 20.7153 -1.92495 -2.29317 0
M  V30 209 H 18.2613 -0.92693 -1.102 0
M  V30 210 H 20.2143 -0.401091 -4.19487 0
M  V30 211 H 18.9383 0.396411 -3.24185 0
M  V30 212 H 17.5973 -1.73606 -3.22888 0
M  V30 213 H 17.2453 -0.0368439 -5.02987 0
M  V30 214 H 16.9453 -1.68771 -5.62841 0
M  V30 215 H 18.4693 -0.854015 -6.04598 0
M  V30 216 H 19.8833 -2.8552 -4.97143 0
M  V30 217 H 18.2803 -3.62372 -4.78338 0
M  V30 218 H 19.3503 -3.47956 -3.3772 0
M  V30 219 N 20.6934 1.19889 -1.02296 0
M  V30 220 C 21.9414 1.89046 -0.714558 0
M  V30 221 C 22.2624 1.79636 0.758681 0
M  V30 222 O 21.5324 1.20292 1.54618 0
M  V30 223 H 20.1124 0.699802 -0.261317 0
M  V30 224 H 22.7744 1.45574 -1.29592 0
M  V30 225 H 21.8704 2.95524 -1.0036 0
M  V30 226 N 22.1715 0.800033 1.35784 0
M  V30 227 C 23.5875 0.482977 1.52117 0
M  V30 228 C 23.7875 -0.996948 1.75109 0
M  V30 229 O 22.8435 -1.78216 1.78872 0
M  V30 230 C 24.1565 1.32264 2.70049 0
M  V30 231 C 25.7045 1.31742 2.83924 0
M  V30 232 C 26.1795 2.14106 4.04874 0
M  V30 233 N 27.6705 2.11607 4.12039 0
M  V30 234 C 28.4055 2.72099 5.04727 0
M  V30 235 N 27.9015 3.41492 6.02789 0
M  V30 236 N 29.6945 2.61776 4.97423 0
M  V30 237 H 21.8455 1.75856 1.19115 0
M  V30 238 H 24.1085 0.748122 0.582252 0
M  V30 239 H 23.8145 2.37261 2.59616 0
M  V30 240 H 23.6885 0.971303 3.6448 0
M  V30 241 H 26.0755 0.275333 2.93813 0
M  V30 242 H 26.1565 1.70859 1.9037 0
M  V30 243 H 25.8005 3.18351 3.95746 0
M  V30 244 H 25.7305 1.72353 4.97596 0
M  V30 245 H 28.2215 1.61112 3.41835 0
M  V30 246 H 28.5345 3.84953 6.70098 0
M  V30 247 H 26.8795 3.45596 6.02983 0
M  V30 248 H 30.0705 2.07157 4.19766 0
M  V30 249 H 30.2435 3.0921 5.69468 0
M  V30 250 N 23.6496 -1.47581 0.552962 0
M  V30 251 C 24.8746 -2.07378 0.0300593 0
M  V30 252 C 25.2996 -1.40355 -1.25229 0
M  V30 253 O 24.6576 -0.477099 -1.7491 0
M  V30 254 C 24.7056 -3.60274 -0.153231 0
M  V30 255 O 23.8096 -3.94041 -1.21678 0
M  V30 256 H 23.1506 -0.662158 0.0494182 0
M  V30 257 H 25.6806 -1.89662 0.767434 0
M  V30 258 H 25.6906 -4.0633 -0.368761 0
M  V30 259 H 24.3656 -4.08455 0.783397 0
M  V30 260 H 22.9426 -3.59735 -0.982079 0
M  V30 261 N 25.1277 -0.289203 -1.54924 0
M  V30 262 C 26.3737 0.323998 -2.00195 0
M  V30 263 C 26.7067 1.54441 -1.17735 0
M  V30 264 O 25.9817 1.92875 -0.250878 0
M  V30 265 C 26.2647 0.692276 -3.53383 0
M  V30 266 C 26.1177 -0.536457 -4.46589 0
M  V30 267 C 27.4367 1.52335 -4.12895 0
M  V30 268 H 24.5557 0.116289 -0.727768 0
M  V30 269 H 27.1977 -0.398954 -1.85764 0
M  V30 270 H 25.3477 1.30822 -3.65811 0
M  V30 271 H 27.0197 -1.17499 -4.46085 0
M  V30 272 H 25.2627 -1.17192 -4.1767 0
M  V30 273 H 25.9337 -0.234806 -5.515 0
M  V30 274 H 28.4097 1.00302 -4.0383 0
M  V30 275 H 27.2857 1.74982 -5.20262 0
M  V30 276 H 27.5467 2.50886 -3.64018 0
M  V30 277 N 26.6058 1.57591 -0.0167156 0
M  V30 278 C 27.5158 2.1291 0.98521 0
M  V30 279 C 28.5318 1.07834 1.36557 0
M  V30 280 O 29.7078 1.39826 1.44951 0
M  V30 281 C 26.7728 2.63512 2.25305 0
M  V30 282 C 25.8338 3.83256 1.93426 0
M  V30 283 C 25.0668 4.31435 3.14165 0
M  V30 284 O 25.2898 3.78851 4.26413 0
M  V30 285 O 24.2238 5.23416 2.97186 0
M  V30 286 H 28.0498 2.98772 0.544888 0
M  V30 287 H 25.6348 1.48012 0.203141 0
M  V30 288 H 27.5168 2.96183 2.99756 0
M  V30 289 H 26.1918 1.8074 2.68542 0
M  V30 290 H 25.0988 3.55531 1.16398 0
M  V30 291 H 26.4318 4.67153 1.55013 0
M  V30 292 N 28.0839 -0.256276 1.55502 0
M  V30 293 C 29.0309 -1.31714 1.89526 0
M  V30 294 C 30.0009 -1.4828 0.748479 0
M  V30 295 O 31.1859 -1.62416 1.00128 0
M  V30 296 C 28.3259 -2.66933 2.18725 0
M  V30 297 C 27.4389 -2.58452 3.4616 0
M  V30 298 C 26.5739 -3.85961 3.64976 0
M  V30 299 C 25.6129 -3.72059 4.86044 0
M  V30 300 N 24.7499 -4.9144 5.01429 0
M  V30 301 H 29.5899 -1.01998 2.80001 0
M  V30 302 H 27.1269 -0.492413 1.38613 0
M  V30 303 H 29.0849 -3.4563 2.33657 0
M  V30 304 H 27.7149 -2.94816 1.31466 0
M  V30 305 H 26.7669 -1.71374 3.3961 0
M  V30 306 H 28.0789 -2.44085 4.34999 0
M  V30 307 H 27.2329 -4.73101 3.79816 0
M  V30 308 H 25.9719 -4.03215 2.74353 0
M  V30 309 H 24.9769 -2.83302 4.7119 0
M  V30 310 H 26.2019 -3.56309 5.78118 0
M  V30 311 H 24.1479 -5.09072 4.13741 0
M  V30 312 H 24.0649 -4.79668 5.84341 0
M  V30 313 H 25.3329 -5.80104 5.20672 0
M  V30 314 N 29.562 -1.4872 -0.521534 0
M  V30 315 C 30.492 -1.66771 -1.63431 0
M  V30 316 C 31.473 -0.516499 -1.62069 0
M  V30 317 O 32.658 -0.750013 -1.79132 0
M  V30 318 C 29.788 -1.71515 -3.01993 0
M  V30 319 C 28.742 -2.86222 -3.18216 0
M  V30 320 C 28.068 -2.76061 -4.57924 0
M  V30 321 C 29.368 -4.27419 -3.00184 0
M  V30 322 H 31.062 -2.59932 -1.48579 0
M  V30 323 H 28.608 -1.25089 -0.713358 0
M  V30 324 H 30.561 -1.82731 -3.7972 0
M  V30 325 H 29.285 -0.749393 -3.17886 0
M  V30 326 H 27.944 -2.74575 -2.42908 0
M  V30 327 H 27.592 -1.77437 -4.70665 0
M  V30 328 H 27.292 -3.53037 -4.69722 0
M  V30 329 H 28.816 -2.89256 -5.37739 0
M  V30 330 H 30.23 -4.39855 -3.67697 0
M  V30 331 H 28.627 -5.05458 -3.2347 0
M  V30 332 H 29.697 -4.43293 -1.96518 0
M  V30 333 N 31.0401 0.771051 -1.3745 0
M  V30 334 C 32.2891 1.52491 -1.3202 0
M  V30 335 C 32.6021 1.9538 0.0927347 0
M  V30 336 O 33.8081 2.70159 0.269503 0
M  V30 337 C 32.2641 2.75366 -2.31736 0
M  V30 338 C 31.8721 2.39573 -3.78562 0
M  V30 339 C 33.6161 3.53307 -2.35318 0
M  V30 340 C 31.5231 3.58954 -4.70007 0
M  V30 341 H 30.4531 0.572506 -0.490666 0
M  V30 342 H 33.1041 0.844474 -1.62914 0
M  V30 343 H 31.4861 3.45303 -1.93861 0
M  V30 344 H 32.6601 1.77415 -4.25277 0
M  V30 345 H 30.9751 1.74805 -3.77932 0
M  V30 346 H 33.5721 4.42039 -3.00842 0
M  V30 347 H 33.9151 3.93217 -1.36698 0
M  V30 348 H 34.4481 2.90367 -2.71904 0
M  V30 349 H 31.1871 3.24125 -5.69757 0
M  V30 350 H 30.7071 4.20214 -4.27996 0
M  V30 351 H 32.3861 4.25758 -4.87175 0
M  V30 352 N 32.5182 1.22032 0.997298 0
M  V30 353 C 33.4812 0.987909 2.06816 0
M  V30 354 C 34.4812 -0.0440084 1.6074 0
M  V30 355 O 35.6712 0.194053 1.73116 0
M  V30 356 C 32.8032 0.49132 3.37341 0
M  V30 357 H 33.9962 1.93803 2.28868 0
M  V30 358 H 31.5492 1.03838 1.16822 0
M  V30 359 H 32.2842 -0.463364 3.20973 0
M  V30 360 H 32.0692 1.23575 3.72118 0
M  V30 361 H 33.5592 0.348824 4.16141 0
M  V30 362 N 33.9963 -1.19345 1.0293 0
M  V30 363 C 34.9433 -2.2258 0.610464 0
M  V30 364 C 35.9133 -1.6179 -0.375946 0
M  V30 365 O 37.0983 -1.88844 -0.272511 0
M  V30 366 C 34.2383 -3.45085 -0.0321473 0
M  V30 367 C 33.3513 -4.20258 1.00035 0
M  V30 368 C 32.4863 -5.3019 0.32746 0
M  V30 369 C 31.5253 -5.97121 1.34584 0
M  V30 370 N 30.6623 -6.98615 0.698726 0
M  V30 371 H 35.5023 -2.57764 1.49538 0
M  V30 372 H 33.0393 -1.26644 0.748311 0
M  V30 373 H 34.9973 -4.15061 -0.421966 0
M  V30 374 H 33.6273 -3.10555 -0.88064 0
M  V30 375 H 32.6793 -3.49223 1.50823 0
M  V30 376 H 33.9913 -4.66175 1.77433 0
M  V30 377 H 33.1453 -6.06587 -0.11718 0
M  V30 378 H 31.8843 -4.85345 -0.478713 0
M  V30 379 H 30.8893 -5.19474 1.80074 0
M  V30 380 H 32.1143 -6.4405 2.15352 0
M  V30 381 H 30.0603 -6.55942 -0.0873471 0
M  V30 382 H 29.9773 -7.42724 1.41058 0
M  V30 383 H 31.2453 -7.79004 0.278102 0
M  V30 384 N 35.4744 -0.807222 -1.35358 0
M  V30 385 C 36.4064 -0.175717 -2.28525 0
M  V30 386 C 37.4194 0.625354 -1.5031 0
M  V30 387 O 38.6084 0.457611 -1.72535 0
M  V30 388 C 35.7084 0.773471 -3.29956 0
M  V30 389 C 34.8814 0.0186296 -4.37396 0
M  V30 390 C 33.9404 0.886395 -5.18681 0
M  V30 391 O 32.9664 0.337106 -5.68201 0
M  V30 392 N 34.1684 2.20839 -5.36852 0
M  V30 393 H 36.9334 -0.976091 -2.83359 0
M  V30 394 H 34.4944 -0.662737 -1.47714 0
M  V30 395 H 36.4864 1.35824 -3.81227 0
M  V30 396 H 35.0564 1.47465 -2.75632 0
M  V30 397 H 34.2764 -0.747349 -3.87051 0
M  V30 398 H 35.5644 -0.501577 -5.06322 0
M  V30 399 H 34.9624 2.67858 -4.98265 0
M  V30 400 H 33.5194 2.74237 -5.91301 0
M  V30 401 N 36.9525 1.47285 -0.560781 0
M  V30 402 C 38.3635 1.86258 -0.128343 0
M  V30 403 C 38.7145 1.46699 1.30284 0
M  V30 404 O 37.8395 0.871698 1.98067 0
M  V30 405 C 38.4345 3.38044 -0.22614 0
M  V30 406 C 36.9935 3.76096 0.151283 0
M  V30 407 C 36.1405 2.71335 -0.572084 0
M  V30 408 H 39.0915 1.38752 -0.770297 0
M  V30 409 H 39.1125 3.76441 0.554322 0
M  V30 410 H 38.6245 3.66806 -1.26788 0
M  V30 411 H 36.7255 3.52951 1.19399 0
M  V30 412 H 36.8385 4.78641 -0.209765 0
M  V30 413 H 35.2025 2.54696 -0.0147653 0
M  V30 414 H 35.9855 3.02938 -1.61504 0
M  V30 415 N 38.4306 0.297415 1.54768 0
M  V30 416 C 39.7076 -0.365847 1.92148 0
M  V30 417 C 40.0876 -1.71975 1.22424 0
M  V30 418 O 39.4356 -2.25666 0.358739 0
M  V30 419 C 39.6456 -0.484056 3.45627 0
M  V30 420 C 40.9936 -0.756594 4.17805 0
M  V30 421 O 42.0176 -0.568007 3.51642 0
M  V30 422 O 40.8766 -1.11863 5.34929 0
M  V30 423 H 37.9706 -0.203919 0.801465 0
M  V30 424 H 40.5166 0.34521 1.66152 0
M  V30 425 H 39.2886 0.467865 3.88493 0
M  V30 426 H 38.9116 -1.24372 3.77647 0
M  V30 427 N 39.9087 -1.5758 0.0250728 0
M  V30 428 C 40.8417 -2.05473 -0.992777 0
M  V30 429 C 41.8197 -0.949661 -1.31986 0
M  V30 430 O 43.0037 -1.21969 -1.43722 0
M  V30 431 C 40.1307 -2.4734 -2.31389 0
M  V30 432 C 39.1767 -3.68827 -2.1417 0
M  V30 433 S 40.0097 -5.15655 -1.44429 0
M  V30 434 C 41.1657 -5.60814 -2.77918 0
M  V30 435 H 41.3987 -2.91486 -0.585078 0
M  V30 436 H 38.9317 -1.53269 -0.186507 0
M  V30 437 H 40.8897 -2.72127 -3.07339 0
M  V30 438 H 39.5507 -1.6168 -2.69292 0
M  V30 439 H 38.7437 -3.95955 -3.11826 0
M  V30 440 H 38.3457 -3.44172 -1.46362 0
M  V30 441 H 40.6377 -5.64806 -3.74166 0
M  V30 442 H 41.5807 -6.60414 -2.55459 0
M  V30 443 H 41.9887 -4.8845 -2.82979 0
M  V30 444 N 41.3868 0.248026 -1.55636 0
M  V30 445 C 42.6638 0.998988 -1.68165 0
M  V30 446 C 43.0438 2.03409 -0.564621 0
M  V30 447 O 42.3918 2.24378 0.432076 0
M  V30 448 C 42.6018 1.63334 -3.0842 0
M  V30 449 C 43.9498 2.13562 -3.66983 0
M  V30 450 O 44.9738 1.73277 -3.11213 0
M  V30 451 O 43.8328 2.87526 -4.64749 0
M  V30 452 H 40.9268 0.464933 -0.683935 0
M  V30 453 H 43.4728 0.241902 -1.67967 0
M  V30 454 H 42.2448 0.884583 -3.8117 0
M  V30 455 H 41.8678 2.45666 -3.12624 0
M  V30 456 N 42.8649 1.48995 0.513639 0
M  V30 457 C 43.7949 1.67636 1.62544 0
M  V30 458 C 44.7759 0.525087 1.61793 0
M  V30 459 O 45.9609 0.759502 1.78732 0
M  V30 460 C 43.0909 1.73114 3.01079 0
M  V30 461 C 42.0449 2.87905 3.16693 0
M  V30 462 C 41.3709 2.78486 4.56453 0
M  V30 463 C 42.6709 4.29005 2.97913 0
M  V30 464 H 44.3649 2.60716 1.47198 0
M  V30 465 H 41.9109 1.25465 0.706714 0
M  V30 466 H 43.8639 1.84742 3.78746 0
M  V30 467 H 42.5879 0.766241 3.17484 0
M  V30 468 H 41.2469 2.75859 2.41448 0
M  V30 469 H 40.8949 1.7993 4.69717 0
M  V30 470 H 40.5949 3.55523 4.67843 0
M  V30 471 H 42.1189 2.92104 5.36197 0
M  V30 472 H 43.5329 4.41798 3.65359 0
M  V30 473 H 41.9299 5.07166 3.20785 0
M  V30 474 H 42.9999 4.44329 1.94165 0
M  V30 475 N 44.343 -0.763751 1.37857 0
M  V30 476 C 45.589 -1.52483 1.33704 0
M  V30 477 C 45.922 -1.94051 -0.0759612 0
M  V30 478 O 45.197 -1.64675 -1.03501 0
M  V30 479 C 45.48 -2.78441 2.28348 0
M  V30 480 C 45.333 -2.43075 3.78463 0
M  V30 481 C 46.652 -3.80415 2.21298 0
M  V30 482 H 43.771 -0.553169 0.487005 0
M  V30 483 H 46.413 -0.875562 1.68624 0
M  V30 484 H 44.563 -3.33842 1.987 0
M  V30 485 H 46.235 -1.93527 4.18742 0
M  V30 486 H 44.478 -1.75666 3.96641 0
M  V30 487 H 45.149 -3.33149 4.40132 0
M  V30 488 H 47.625 -3.34527 2.47449 0
M  V30 489 H 46.501 -4.66257 2.89647 0
M  V30 490 H 46.762 -4.25262 1.20849 0
M  V30 491 N 45.8211 -1.22559 -0.990812 0
M  V30 492 C 47.0691 -1.04933 -1.72724 0
M  V30 493 C 47.3901 0.416158 -1.90508 0
M  V30 494 O 46.6601 1.29918 -1.46622 0
M  V30 495 H 45.2401 -0.385296 -0.639965 0
M  V30 496 H 47.9021 -1.54105 -1.19322 0
M  V30 497 H 46.9981 -1.52886 -2.72089 0
M  V30 498 N 47.2992 1.18797 -1.03562 0
M  V30 499 C 48.5482 1.87978 -0.731235 0
M  V30 500 C 48.8612 1.80911 0.743671 0
M  V30 501 O 50.0672 2.45407 1.16137 0
M  V30 502 C 48.5232 3.3721 -1.25768 0
M  V30 503 C 48.1312 3.52818 -2.76085 0
M  V30 504 C 49.8752 4.11825 -1.0296 0
M  V30 505 C 47.7822 4.9598 -3.22114 0
M  V30 506 H 46.7122 0.704063 -0.269835 0
M  V30 507 H 49.3632 1.34266 -1.25079 0
M  V30 508 H 47.7452 3.90359 -0.666011 0
M  V30 509 H 48.9192 3.09965 -3.40966 0
M  V30 510 H 47.2342 2.91602 -2.97249 0
M  V30 511 H 49.8312 5.17411 -1.34869 0
M  V30 512 H 50.1742 4.16287 0.0333546 0
M  V30 513 H 50.7072 3.64833 -1.58562 0
M  V30 514 H 47.4462 4.96684 -4.27768 0
M  V30 515 H 46.9662 5.39569 -2.61965 0
M  V30 516 H 48.6452 5.6467 -3.15844 0
M  V30 517 N 48.7773 0.814389 1.34928 0
M  V30 518 C 50.0243 0.398423 1.98542 0
M  V30 519 C 50.3523 -1.03638 1.64589 0
M  V30 520 O 49.6073 -1.73509 0.90516 0
M  V30 521 C 49.9063 0.537781 3.53331 0
M  V30 522 C 49.5723 1.93704 4.07172 0
M  V30 523 C 48.2343 2.31984 4.21589 0
M  V30 524 C 50.5863 2.85213 4.36237 0
M  V30 525 C 47.9143 3.61125 4.62391 0
M  V30 526 C 50.2663 4.13809 4.78482 0
M  V30 527 C 48.9303 4.52077 4.91104 0
M  V30 528 H 48.2003 0.145793 0.726516 0
M  V30 529 H 50.8473 1.03669 1.61012 0
M  V30 530 H 49.1523 -0.183906 3.91368 0
M  V30 531 H 50.8493 0.196588 4.00518 0
M  V30 532 H 47.4393 1.62966 3.96409 0
M  V30 533 H 51.6233 2.56885 4.24645 0
M  V30 534 H 46.8793 3.90612 4.70353 0
M  V30 535 H 51.0533 4.84811 4.99932 0
M  V30 536 H 48.6803 5.52196 5.22478 0
M  V30 537 N 50.2554 -1.46986 0.568584 0
M  V30 538 C 51.4804 -2.07335 0.0520528 0
M  V30 539 C 51.9054 -1.41675 -1.23733 0
M  V30 540 O 51.2634 -0.495623 -1.74394 0
M  V30 541 C 51.3114 -3.60417 -0.11501 0
M  V30 542 O 50.4154 -3.95309 -1.17492 0
M  V30 543 H 49.7564 -0.661597 0.0564385 0
M  V30 544 H 52.2864 -1.88837 0.787507 0
M  V30 545 H 52.2964 -4.06698 -0.325644 0
M  V30 546 H 50.9714 -4.07601 0.826675 0
M  V30 547 H 49.5484 -3.60757 -0.943869 0
M  V30 548 N 51.7335 -0.305618 -1.54608 0
M  V30 549 C 53.1495 0.0476228 -1.59529 0
M  V30 550 C 53.3495 1.52025 -1.32252 0
M  V30 551 O 52.4055 2.27368 -1.09818 0
M  V30 552 C 53.7185 -0.354471 -2.98603 0
M  V30 553 C 55.2665 -0.303622 -3.11524 0
M  V30 554 C 55.7415 -0.680608 -4.52915 0
M  V30 555 N 57.2325 -0.63332 -4.5885 0
M  V30 556 C 57.9675 -0.897432 -5.66334 0
M  V30 557 N 57.4635 -1.22775 -6.81834 0
M  V30 558 N 59.2565 -0.824186 -5.56025 0
M  V30 559 H 51.4075 -1.2653 -1.70599 0
M  V30 560 H 53.6705 -0.513291 -0.797017 0
M  V30 561 H 53.3765 -1.3798 -3.23503 0
M  V30 562 H 53.2505 0.289568 -3.76087 0
M  V30 563 H 55.6375 0.712472 -2.8637 0
M  V30 564 H 55.7185 -0.982348 -2.36185 0
M  V30 565 H 55.3625 -1.69453 -4.78799 0
M  V30 566 H 55.2925 0.0202385 -5.26596 0
M  V30 567 H 57.7835 -0.389138 -3.75891 0
M  V30 568 H 58.0965 -1.41513 -7.59733 0
M  V30 569 H 56.4415 -1.26583 -6.83375 0
M  V30 570 H 59.6325 -0.565748 -4.64669 0
M  V30 571 H 59.8055 -1.03338 -6.39707 0
M  V30 572 N 53.2116 1.57565 -0.0334293 0
M  V30 573 C 54.6276 1.56297 0.322997 0
M  V30 574 C 54.8276 1.03945 1.7262 0
M  V30 575 O 53.8836 0.688109 2.42943 0
M  V30 576 C 55.1966 3.00232 0.167664 0
M  V30 577 C 56.7446 3.12078 0.240107 0
M  V30 578 C 57.2196 4.57859 0.113513 0
M  V30 579 N 58.7106 4.62887 0.170359 0
M  V30 580 C 59.4456 5.73319 0.0962517 0
M  V30 581 N 58.9416 6.92794 -0.0291881 0
M  V30 582 N 60.7346 5.61898 0.150551 0
M  V30 583 H 52.8856 1.89923 -0.950956 0
M  V30 584 H 55.1486 0.873824 -0.367608 0
M  V30 585 H 54.8546 3.42501 -0.799102 0
M  V30 586 H 54.7286 3.654 0.936083 0
M  V30 587 H 57.1156 2.69718 1.19733 0
M  V30 588 H 57.1966 2.49623 -0.558763 0
M  V30 589 H 56.8406 5.009 -0.840314 0
M  V30 590 H 56.7706 5.18299 0.931302 0
M  V30 591 H 59.2616 3.76954 0.26728 0
M  V30 592 H 59.5746 7.7276 -0.0789252 0
M  V30 593 H 57.9196 6.94971 -0.0640299 0
M  V30 594 H 61.1106 4.67448 0.246981 0
M  V30 595 H 61.2836 6.47938 0.0893365 0
M  V30 596 N 54.6897 -0.239769 1.55765 0
M  V30 597 C 55.6527 -1.28038 1.90103 0
M  V30 598 C 56.6527 -1.40723 0.778055 0
M  V30 599 O 57.8427 -1.39301 1.04599 0
M  V30 600 C 54.9747 -2.65702 2.13577 0
M  V30 601 H 56.1677 -0.988048 2.83157 0
M  V30 602 H 53.7207 -0.479382 1.48767 0
M  V30 603 H 54.4557 -3.00063 1.23015 0
M  V30 604 H 54.2407 -2.57875 2.95369 0
M  V30 605 H 55.7307 -3.40828 2.41301 0
M  V30 606 N 56.1678 -1.49265 -0.50573 0
M  V30 607 C 57.3958 -1.62215 -1.28429 0
M  V30 608 C 57.8108 -0.291697 -1.86533 0
M  V30 609 O 57.1678 0.722233 -1.67601 0
M  V30 610 C 57.2188 -2.68735 -2.41793 0
M  V30 611 O 56.9398 -3.96619 -1.86078 0
M  V30 612 C 58.4408 -2.92346 -3.3324 0
M  V30 613 H 55.6608 -0.546239 -0.389697 0
M  V30 614 H 58.2048 -1.95265 -0.607609 0
M  V30 615 H 56.3598 -2.38476 -3.053 0
M  V30 616 H 56.7738 -4.55256 -2.60465 0
M  V30 617 H 58.2478 -3.70623 -4.09075 0
M  V30 618 H 58.7248 -2.02081 -3.89948 0
M  V30 619 H 59.3308 -3.24003 -2.75503 0
M  V30 620 N 57.6459 0.756429 -1.3826 0
M  V30 621 C 58.5759 1.88374 -1.37976 0
M  V30 622 C 59.5569 1.68311 -0.246082 0
M  V30 623 O 60.7419 1.88944 -0.44874 0
M  V30 624 C 57.8719 3.25864 -1.20125 0
M  V30 625 C 56.8259 3.60523 -2.30666 0
M  V30 626 C 56.1519 4.9672 -1.97923 0
M  V30 627 C 57.4519 3.65692 -3.72916 0
M  V30 628 H 59.1459 1.88869 -2.32312 0
M  V30 629 H 56.6919 0.907272 -1.11824 0
M  V30 630 H 58.6449 4.0438 -1.18552 0
M  V30 631 H 57.3689 3.25841 -0.222498 0
M  V30 632 H 56.0279 2.84324 -2.3142 0
M  V30 633 H 55.6759 4.93253 -0.985393 0
M  V30 634 H 55.3759 5.20878 -2.71955 0
M  V30 635 H 56.8999 5.77618 -1.97964 0
M  V30 636 H 58.3139 4.34328 -3.74208 0
M  V30 637 H 56.7109 4.01358 -4.4613 0
M  V30 638 H 57.7809 2.65987 -4.05436 0
M  V30 639 N 59.124 1.23083 0.984299 0
M  V30 640 C 60.401 0.9689 1.69917 0
M  V30 641 C 60.781 -0.513604 2.04757 0
M  V30 642 O 60.129 -1.48383 1.73767 0
M  V30 643 C 60.339 1.87518 2.94343 0
M  V30 644 C 61.687 2.13636 3.6694 0
M  V30 645 O 62.711 1.85036 3.04368 0
M  V30 646 O 61.57 2.62119 4.79537 0
M  V30 647 H 58.664 0.365095 0.742048 0
M  V30 648 H 61.21 1.34107 1.03987 0
M  V30 649 H 59.982 2.87756 2.65164 0
M  V30 650 H 59.605 1.50514 3.6801 0
M  V30 651 N 60.6021 -1.18246 1.0419 0
M  V30 652 C 61.8301 -1.92195 0.766072 0
M  V30 653 C 62.2451 -1.76247 -0.676933 0
M  V30 654 O 61.6021 -1.09293 -1.46155 0
M  V30 655 C 61.6531 -3.43568 1.12442 0
M  V30 656 O 61.3741 -3.59015 2.51078 0
M  V30 657 C 62.8751 -4.34613 0.873275 0
M  V30 658 H 60.0951 -0.610114 0.279288 0
M  V30 659 H 62.6391 -1.50007 1.38989 0
M  V30 660 H 60.7941 -3.8354 0.545542 0
M  V30 661 H 61.2081 -4.5273 2.64831 0
M  V30 662 H 62.6821 -5.39374 1.17385 0
M  V30 663 H 63.1591 -4.38781 -0.191909 0
M  V30 664 H 63.7651 -4.00341 1.43551 0
M  V30 665 N 62.0802 -0.821533 -1.34494 0
M  V30 666 C 63.0272 -0.240397 -2.29545 0
M  V30 667 C 63.9972 0.634031 -1.53523 0
M  V30 668 O 65.1822 0.575966 -1.81899 0
M  V30 669 C 62.3222 0.592869 -3.39969 0
M  V30 670 C 61.4352 -0.30365 -4.30932 0
M  V30 671 C 60.5702 0.539049 -5.28458 0
M  V30 672 C 59.6092 -0.356942 -6.11058 0
M  V30 673 N 58.7462 0.446603 -7.00678 0
M  V30 674 H 63.5862 -1.05632 -2.7865 0
M  V30 675 H 61.1232 -0.532413 -1.37127 0
M  V30 676 H 63.0812 1.09129 -4.02675 0
M  V30 677 H 61.7112 1.37392 -2.92102 0
M  V30 678 H 60.7632 -0.920276 -3.691 0
M  V30 679 H 62.0752 -0.992661 -4.88823 0
M  V30 680 H 61.2292 1.102 -5.96608 0
M  V30 681 H 59.9682 1.26157 -4.71101 0
M  V30 682 H 58.9732 -0.932047 -5.41842 0
M  V30 683 H 60.1982 -1.07755 -6.70497 0
M  V30 684 H 58.1442 1.15282 -6.45791 0
M  V30 685 H 58.0612 -0.184048 -7.55776 0
M  V30 686 H 59.3292 0.992352 -7.73158 0
M  V30 687 N 63.5583 1.46682 -0.576371 0
M  V30 688 C 64.7863 2.06798 -0.0649635 0
M  V30 689 C 65.2013 1.42612 1.23723 0
M  V30 690 O 64.5583 0.529203 1.74659 0
M  V30 691 C 64.6093 3.6132 0.114202 0
M  V30 692 O 64.3303 4.23104 -1.13644 0
M  V30 693 C 65.8313 4.38349 0.66069 0
M  V30 694 H 63.0513 0.668778 -0.0545616 0
M  V30 695 H 65.5953 1.88404 -0.795237 0
M  V30 696 H 63.7503 3.79162 0.794673 0
M  V30 697 H 64.1643 5.15894 -0.946253 0
M  V30 698 H 65.6383 5.47081 0.73526 0
M  V30 699 H 66.1153 4.05953 1.67627 0
M  V30 700 H 66.7213 4.25297 0.0152951 0
M  V30 701 N 65.0364 0.313813 1.54444 0
M  V30 702 C 66.4474 -0.176243 1.85866 0
M  V30 703 C 66.7984 -1.52405 1.23561 0
M  V30 704 O 65.9234 -2.09605 0.538016 0
M  V30 705 C 66.5184 -0.32657 3.37222 0
M  V30 706 C 65.0774 -0.760846 3.6863 0
M  V30 707 C 64.2244 0.123247 2.77026 0
M  V30 708 H 67.1754 0.534418 1.49431 0
M  V30 709 H 67.1964 -1.15908 3.62416 0
M  V30 710 H 66.7084 0.654531 3.82541 0
M  V30 711 H 64.8094 -1.75204 3.28838 0
M  V30 712 H 64.9224 -0.571353 4.75681 0
M  V30 713 H 63.2864 -0.399597 2.51546 0
M  V30 714 H 64.0694 1.10094 3.25168 0
M  V30 715 N 66.5145 -1.57545 0.0417849 0
M  V30 716 C 67.7605 -1.92601 -0.635021 0
M  V30 717 C 68.0935 -0.919627 -1.71045 0
M  V30 718 O 67.3685 0.0557892 -1.9442 0
M  V30 719 C 67.6515 -3.38085 -1.23979 0
M  V30 720 C 67.5045 -4.49467 -0.173057 0
M  V30 721 C 68.8235 -3.83776 -2.15416 0
M  V30 722 H 65.9425 -0.700397 -0.229374 0
M  V30 723 H 68.5845 -1.89728 0.101633 0
M  V30 724 H 66.7345 -3.40664 -1.86762 0
M  V30 725 H 68.4065 -4.59018 0.458312 0
M  V30 726 H 66.6495 -4.30909 0.499996 0
M  V30 727 H 67.3205 -5.48323 -0.636054 0
M  V30 728 H 69.7965 -3.83013 -1.62605 0
M  V30 729 H 68.6725 -4.8624 -2.54679 0
M  V30 730 H 68.9335 -3.19998 -3.05047 0
M  V30 731 N 67.9926 0.231505 -1.5589 0
M  V30 732 C 69.2396 0.957352 -1.78441 0
M  V30 733 C 69.5676 1.84726 -0.60882 0
M  V30 734 O 68.8226 1.91416 0.40725 0
M  V30 735 C 69.1216 1.83577 -3.0665 0
M  V30 736 C 68.7876 1.09993 -4.37278 0
M  V30 737 C 67.4496 0.896629 -4.72773 0
M  V30 738 C 69.8016 0.579558 -5.17968 0
M  V30 739 C 67.1296 0.160896 -5.86479 0
M  V30 740 C 69.4816 -0.142783 -6.32439 0
M  V30 741 C 68.1456 -0.357427 -6.66542 0
M  V30 742 H 67.4156 0.35032 -0.65296 0
M  V30 743 H 70.0626 0.226259 -1.90159 0
M  V30 744 H 68.3676 2.63441 -2.90011 0
M  V30 745 H 70.0646 2.39934 -3.21298 0
M  V30 746 H 66.6546 1.26835 -4.09403 0
M  V30 747 H 70.8386 0.724125 -4.90989 0
M  V30 748 H 66.0946 -0.0157293 -6.11398 0
M  V30 749 H 70.2686 -0.553559 -6.94196 0
M  V30 750 H 67.8956 -0.929466 -7.54497 0
M  V30 751 N 69.4707 1.49531 0.497807 0
M  V30 752 C 70.7477 1.49682 1.25915 0
M  V30 753 C 71.1277 0.226339 2.09883 0
M  V30 754 O 70.4757 -0.791189 2.14365 0
M  V30 755 C 70.6857 2.77755 2.11313 0
M  V30 756 C 72.0337 3.27371 2.70395 0
M  V30 757 O 73.0577 2.78894 2.21578 0
M  V30 758 O 71.9167 4.11808 3.59272 0
M  V30 759 H 69.0107 0.599228 0.56996 0
M  V30 760 H 71.5567 1.61798 0.511816 0
M  V30 761 H 70.3287 3.61713 1.49264 0
M  V30 762 H 69.9517 2.68515 2.93233 0
M  V30 763 N 70.9488 -0.749086 1.3866 0
M  V30 764 C 72.1948 -1.51056 1.35314 0
M  V30 765 C 72.5278 -1.94121 -0.0553751 0
M  V30 766 O 71.8028 -1.65763 -1.01749 0
M  V30 767 C 72.0858 -2.76003 2.31288 0
M  V30 768 C 71.9388 -2.39047 3.8102 0
M  V30 769 C 73.2578 -3.78046 2.2532 0
M  V30 770 H 70.3768 -0.547972 0.492844 0
M  V30 771 H 73.0188 -0.857628 1.69543 0
M  V30 772 H 71.1688 -3.31716 2.02229 0
M  V30 773 H 72.8408 -1.89074 4.20771 0
M  V30 774 H 71.0838 -1.71449 3.98482 0
M  V30 775 H 71.7548 -3.28462 4.4364 0
M  V30 776 H 74.2308 -3.31884 2.50983 0
M  V30 777 H 73.1068 -4.63159 2.94576 0
M  V30 778 H 73.3678 -4.23957 1.25352 0
M  V30 779 N 72.4269 -1.23603 -0.977757 0
M  V30 780 C 73.3899 -1.02069 -2.05218 0
M  V30 781 C 74.3899 0.0184305 -1.60789 0
M  V30 782 O 75.5799 -0.221569 -1.72785 0
M  V30 783 C 72.7119 -0.544926 -3.36517 0
M  V30 784 H 73.9049 -1.9742 -2.25755 0
M  V30 785 H 71.4579 -1.05684 -1.15155 0
M  V30 786 H 72.1929 0.412241 -3.21669 0
M  V30 787 H 71.9779 -1.2948 -3.70105 0
M  V30 788 H 73.4679 -0.414985 -4.15533 0
M  V30 789 N 73.905 1.17692 -1.04816 0
M  V30 790 C 75.182 1.83768 -0.669963 0
M  V30 791 C 75.562 1.93232 0.849986 0
M  V30 792 O 74.91 1.46397 1.75443 0
M  V30 793 C 75.12 3.21641 -1.35455 0
M  V30 794 C 76.468 3.97592 -1.49017 0
M  V30 795 O 77.492 3.31107 -1.31326 0
M  V30 796 O 76.351 5.16729 -1.77914 0
M  V30 797 H 73.445 0.792799 -0.235368 0
M  V30 798 H 75.991 1.25021 -1.14751 0
M  V30 799 H 74.763 3.097 -2.39168 0
M  V30 800 H 74.386 3.88052 -0.866107 0
M  V30 801 N 75.3831 0.828654 1.34056 0
M  V30 802 C 76.6291 0.42008 1.98402 0
M  V30 803 C 76.9621 -1.01564 1.65525 0
M  V30 804 O 76.2371 -1.70834 0.929831 0
M  V30 805 C 76.5201 0.62927 3.54559 0
M  V30 806 C 76.3731 2.11152 3.97159 0
M  V30 807 C 77.6921 0.0688756 4.40046 0
M  V30 808 H 74.8111 0.154104 0.720709 0
M  V30 809 H 77.4531 1.04228 1.5886 0
M  V30 810 H 75.6031 0.0996418 3.88372 0
M  V30 811 H 77.2751 2.70522 3.73651 0
M  V30 812 H 75.5181 2.59985 3.47261 0
M  V30 813 H 76.1891 2.20868 5.05887 0
M  V30 814 H 78.6651 0.521458 4.1282 0
M  V30 815 H 77.5411 0.245006 5.48353 0
M  V30 816 H 77.8021 -1.0266 4.30015 0
M  V30 817 N 76.8612 -1.46375 0.584142 0
M  V30 818 C 78.1382 -1.956 0.0033388 0
M  V30 819 C 78.5182 -1.52679 -1.45782 0
M  V30 820 O 77.8662 -0.77816 -2.14842 0
M  V30 821 C 78.0762 -3.48551 0.176891 0
M  V30 822 C 79.4242 -4.24576 0.0454609 0
M  V30 823 O 80.4482 -3.56043 0.105801 0
M  V30 824 O 79.3072 -5.46427 -0.0890376 0
M  V30 825 H 76.4012 -0.825547 -0.0490066 0
M  V30 826 H 78.9472 -1.56652 0.65256 0
M  V30 827 H 77.7192 -3.72683 1.1926 0
M  V30 828 H 77.3422 -3.94332 -0.508695 0
M  V30 829 N 78.3393 -0.321999 -1.54275 0
M  V30 830 C 79.2863 0.544664 -2.24281 0
M  V30 831 C 80.2563 1.1129 -1.23303 0
M  V30 832 O 81.4413 1.15354 -1.51981 0
M  V30 833 C 78.5813 1.70045 -3.00298 0
M  V30 834 C 77.6943 1.16159 -4.1609 0
M  V30 835 C 76.8293 2.28293 -4.79641 0
M  V30 836 C 75.8683 1.71648 -5.8754 0
M  V30 837 N 75.0053 2.77438 -6.44959 0
M  V30 838 H 79.8453 -0.0588907 -2.97942 0
M  V30 839 H 77.3823 -0.0408345 -1.47043 0
M  V30 840 H 79.3403 2.38054 -3.42616 0
M  V30 841 H 77.9703 2.27531 -2.28975 0
M  V30 842 H 77.0223 0.373092 -3.78566 0
M  V30 843 H 78.3343 0.707087 -4.93763 0
M  V30 844 H 77.4883 3.0421 -5.2492 0
M  V30 845 H 76.2273 2.77079 -4.01346 0
M  V30 846 H 75.2323 0.942282 -5.41665 0
M  V30 847 H 76.4573 1.23741 -6.67731 0
M  V30 848 H 74.4033 3.25519 -5.69538 0
M  V30 849 H 74.3203 2.36547 -7.1804 0
M  V30 850 H 75.5883 3.53189 -6.94894 0
M  V30 851 N 79.8174 1.5752 -0.0501392 0
M  V30 852 C 80.7674 2.07981 0.934231 0
M  V30 853 C 81.7514 0.984745 1.27246 0
M  V30 854 O 82.9434 1.24809 1.25506 0
M  V30 855 C 80.0724 2.62751 2.20945 0
M  V30 856 C 79.1584 3.79225 1.89865 0
M  V30 857 N 79.5494 4.89036 1.29142 0
M  V30 858 C 77.8474 3.88111 2.19741 0
M  V30 859 C 78.5484 5.70084 1.15669 0
M  V30 860 N 77.5244 5.17659 1.65923 0
M  V30 861 H 81.3264 2.90277 0.460053 0
M  V30 862 H 78.8404 1.61665 0.15434 0
M  V30 863 H 80.8374 2.97205 2.9236 0
M  V30 864 H 79.4974 1.81894 2.6897 0
M  V30 865 H 80.5084 5.08854 0.963756 0
M  V30 866 H 77.1854 3.18194 2.70293 0
M  V30 867 H 78.5754 6.68395 0.685356 0
M  V30 868 N 81.2955 -0.223234 1.56011 0
M  V30 869 C 82.2585 -1.26014 1.9145 0
M  V30 870 C 83.2585 -1.3989 0.792937 0
M  V30 871 O 84.4485 -1.38184 1.0607 0
M  V30 872 C 81.5805 -2.63422 2.16383 0
M  V30 873 H 82.7735 -0.95796 2.84189 0
M  V30 874 H 80.3265 -0.463576 1.49267 0
M  V30 875 H 81.0615 -2.98741 1.2619 0
M  V30 876 H 80.8465 -2.54728 2.98088 0
M  V30 877 H 82.3365 -3.38249 2.44903 0
M  V30 878 N 82.7736 -1.49793 -0.48987 0
M  V30 879 C 84.0506 -1.50348 -1.25119 0
M  V30 880 C 84.4306 -0.237466 -2.0976 0
M  V30 881 O 83.7786 0.77981 -2.14782 0
M  V30 882 C 83.9886 -2.78872 -2.09837 0
M  V30 883 C 85.3366 -3.288 -2.68655 0
M  V30 884 O 86.3606 -2.80065 -2.20096 0
M  V30 885 O 85.2196 -4.13707 -3.57083 0
M  V30 886 H 82.3136 -0.602242 -0.566775 0
M  V30 887 H 84.8596 -1.62067 -0.503229 0
M  V30 888 H 83.6316 -3.62499 -1.47343 0
M  V30 889 H 83.2546 -2.70066 -2.91805 0
M  V30 890 N 84.2517 0.741722 -1.39055 0
M  V30 891 C 85.5287 1.49252 -1.26425 0
M  V30 892 C 85.9087 2.10705 0.129144 0
M  V30 893 O 85.2567 1.98045 1.13976 0
M  V30 894 C 85.4667 2.54934 -2.38347 0
M  V30 895 C 86.8147 3.21506 -2.77343 0
M  V30 896 O 87.8387 2.65245 -2.37747 0
M  V30 897 O 86.6977 4.23294 -3.45665 0
M  V30 898 H 83.7917 0.662451 -0.495064 0
M  V30 899 H 86.3377 0.776121 -1.50912 0
M  V30 900 H 85.1097 2.07857 -3.31529 0
M  V30 901 H 84.7327 3.34141 -2.15489 0
M  V30 902 N 85.7298 1.2412 0.971189 0
M  V30 903 C 86.9758 1.08041 1.71625 0
M  V30 904 C 87.3088 -0.380407 1.90438 0
M  V30 905 O 86.5838 -1.28127 1.46334 0
M  V30 906 C 86.8668 1.81682 3.10908 0
M  V30 907 C 86.7198 3.35493 2.99608 0
M  V30 908 C 88.0388 1.58671 4.10501 0
M  V30 909 H 85.1578 0.39388 0.622919 0
M  V30 910 H 87.7998 1.52743 1.13003 0
M  V30 911 H 85.9498 1.43684 3.60953 0
M  V30 912 H 87.6218 3.83068 2.57015 0
M  V30 913 H 85.8648 3.64052 2.35899 0
M  V30 914 H 86.5358 3.82217 3.98264 0
M  V30 915 H 89.0118 1.91719 3.69301 0
M  V30 916 H 87.8878 2.1266 5.06031 0
M  V30 917 H 88.1488 0.524161 4.38982 0
M  V30 918 N 87.2079 -1.17134 1.05439 0
M  V30 919 C 88.4849 -1.83411 0.679699 0
M  V30 920 C 88.8649 -1.9368 -0.839726 0
M  V30 921 O 88.2129 -1.47325 -1.74664 0
M  V30 922 C 88.4229 -3.20918 1.37159 0
M  V30 923 C 89.7709 -3.96796 1.51123 0
M  V30 924 O 90.7949 -3.30406 1.3308 0
M  V30 925 O 89.6539 -5.15778 1.80651 0
M  V30 926 H 86.7479 -0.79154 0.239569 0
M  V30 927 H 89.2939 -1.24411 1.15413 0
M  V30 928 H 88.0659 -3.08428 2.40807 0
M  V30 929 H 87.6889 -3.87587 0.886674 0
M  V30 930 N 88.686 -0.835752 -1.33615 0
M  V30 931 C 89.932 -0.430596 -1.98176 0
M  V30 932 C 90.265 1.00684 -1.66061 0
M  V30 933 O 89.54 1.70339 -0.938877 0
M  V30 934 C 89.823 -0.648065 -3.5422 0
M  V30 935 C 89.676 -2.13255 -3.96033 0
M  V30 936 C 90.995 -0.0922113 -4.40003 0
M  V30 937 H 88.114 -0.157924 -0.719881 0
M  V30 938 H 90.756 -1.05069 -1.58305 0
M  V30 939 H 88.906 -0.120237 -3.88314 0
M  V30 940 H 90.578 -2.725 -3.72211 0
M  V30 941 H 88.821 -2.61823 -3.45878 0
M  V30 942 H 89.492 -2.23547 -5.04708 0
M  V30 943 H 91.968 -0.543343 -4.12537 0
M  V30 944 H 90.844 -0.274083 -5.48215 0
M  V30 945 H 91.105 1.00378 -4.30554 0
M  V30 946 N 90.1641 1.46063 -0.591896 0
M  V30 947 C 91.0941 2.33172 0.123673 0
M  V30 948 C 92.0751 1.45897 0.87453 0
M  V30 949 O 93.2601 1.74698 0.848181 0
M  V30 950 C 90.3901 3.28336 1.13194 0
M  V30 951 C 89.3441 4.25124 0.495324 0
M  V30 952 C 88.6701 5.09863 1.61071 0
M  V30 953 C 89.9701 5.19143 -0.573425 0
M  V30 954 H 91.6641 2.93252 -0.603646 0
M  V30 955 H 89.2101 1.41014 -0.291741 0
M  V30 956 H 91.1631 3.88137 1.64097 0
M  V30 957 H 89.8871 2.66383 1.88965 0
M  V30 958 H 88.5461 3.66599 0.00729452 0
M  V30 959 H 88.1941 4.44288 2.35832 0
M  V30 960 H 87.8941 5.75417 1.19035 0
M  V30 961 H 89.4181 5.72529 2.12233 0
M  V30 962 H 90.8321 5.73106 -0.1491 0
M  V30 963 H 89.2291 5.93089 -0.914636 0
M  V30 964 H 90.2991 4.62519 -1.45617 0
M  V30 965 N 91.6422 0.330177 1.54103 0
M  V30 966 C 92.8892 -0.270405 2.00686 0
M  V30 967 C 93.2172 -1.51621 1.21825 0
M  V30 968 O 92.4722 -1.93536 0.29025 0
M  V30 969 C 92.7712 -0.643134 3.51566 0
M  V30 970 C 92.4372 0.504251 4.48072 0
M  V30 971 C 91.0992 0.819163 4.74176 0
M  V30 972 C 93.4512 1.27465 5.05373 0
M  V30 973 C 90.7792 1.90708 5.5484 0
M  V30 974 C 93.1312 2.35271 5.87223 0
M  V30 975 C 91.7952 2.67336 6.11627 0
M  V30 976 H 91.0652 -0.0989482 0.734364 0
M  V30 977 H 93.7122 0.455324 1.86008 0
M  V30 978 H 92.0172 -1.44938 3.64006 0
M  V30 979 H 93.7142 -1.11949 3.85056 0
M  V30 980 H 90.3042 0.248733 4.27878 0
M  V30 981 H 94.4882 1.04462 4.85182 0
M  V30 982 H 89.7442 2.15991 5.71977 0
M  V30 983 H 93.9182 2.95405 6.30641 0
M  V30 984 H 91.5452 3.51763 6.73919 0
M  V30 985 N 93.1203 -1.57491 0.0584922 0
M  V30 986 C 94.0503 -2.14988 -0.911178 0
M  V30 987 C 95.0313 -1.07343 -1.31952 0
M  V30 988 O 96.2163 -1.35318 -1.39294 0
M  V30 989 C 93.3463 -2.70078 -2.18347 0
M  V30 990 C 92.3003 -3.82771 -1.91495 0
M  V30 991 C 91.6263 -4.24408 -3.25241 0
M  V30 992 C 92.9263 -5.07592 -1.23075 0
M  V30 993 H 94.6203 -2.96263 -0.432246 0
M  V30 994 H 92.1663 -1.42512 -0.206469 0
M  V30 995 H 94.1193 -3.08943 -2.86587 0
M  V30 996 H 92.8433 -1.86005 -2.68458 0
M  V30 997 H 91.5023 -3.44389 -1.25664 0
M  V30 998 H 91.1503 -3.37275 -3.73168 0
M  V30 999 H 90.8503 -5.00366 -3.08071 0
M  V30 1000 H 92.3743 -4.65879 -3.94701 0
M  V30 1001 H 93.7883 -5.43857 -1.81362 0
M  V30 1002 H 92.1853 -5.88741 -1.16207 0
M  V30 1003 H 93.2553 -4.84454 -0.207847 0
M  V30 1004 N 94.5984 0.214957 -1.56127 0
M  V30 1005 C 95.8384 0.945364 -1.81224 0
M  V30 1006 C 96.2024 1.81265 -0.633005 0
M  V30 1007 O 97.4034 2.57731 -0.763423 0
M  V30 1008 C 95.6744 1.75665 -3.1125 0
M  V30 1009 S 97.2334 2.54179 -3.57685 0
M  V30 1010 H 94.0514 0.317443 -0.6362 0
M  V30 1011 H 96.6534 0.210381 -1.94365 0
M  V30 1012 H 95.3574 1.10977 -3.9511 0
M  V30 1013 H 94.8884 2.53381 -3.00934 0
M  V30 1014 H 96.9034 3.7792 -3.21545 0
M  V30 1015 N 96.0765 1.50051 0.48192 0
M  V30 1016 C 97.0095 1.62749 1.59963 0
M  V30 1017 C 97.9875 0.475903 1.5548 0
M  V30 1018 O 99.1715 0.693986 1.7526 0
M  V30 1019 C 96.2985 1.60008 2.98522 0
M  V30 1020 C 95.3445 2.80596 3.21198 0
M  V30 1021 S 96.1775 4.42038 3.02262 0
M  V30 1022 C 97.3335 4.41973 4.43182 0
M  V30 1023 H 97.5665 2.57296 1.4895 0
M  V30 1024 H 95.0995 1.39179 0.668477 0
M  V30 1025 H 97.0575 1.59112 3.78409 0
M  V30 1026 H 95.7185 0.667153 3.06933 0
M  V30 1027 H 94.9115 2.74952 4.22395 0
M  V30 1028 H 94.5135 2.79003 2.49065 0
M  V30 1029 H 96.8055 4.14868 5.35622 0
M  V30 1030 H 97.7485 5.43512 4.53873 0
M  V30 1031 H 98.1565 3.71812 4.24755 0
M  V30 1032 N 97.5546 -0.734337 1.39446 0
M  V30 1033 C 98.8026 -1.49096 1.36436 0
M  V30 1034 C 99.1236 -1.94961 -0.0388255 0
M  V30 1035 O 98.3936 -1.69033 -0.990191 0
M  V30 1036 H 96.9736 -0.5531 0.502085 0
M  V30 1037 H 99.6356 -0.871725 1.74319 0
M  V30 1038 H 98.7316 -2.37276 2.02747 0
M  V30 1039 N 99.0327 -1.24633 -0.964593 0
M  V30 1040 C 100.258 -1.11596 -1.74818 0
M  V30 1041 C 100.683 0.32723 -1.85232 0
M  V30 1042 O 100.041 1.23695 -1.32549 0
M  V30 1043 C 100.089 -1.76397 -3.1451 0
M  V30 1044 O 99.1927 -1.03685 -3.99153 0
M  V30 1045 H 98.5337 -0.390196 -0.537255 0
M  V30 1046 H 101.064 -1.65002 -1.20977 0
M  V30 1047 H 101.074 -1.8228 -3.65018 0
M  V30 1048 H 99.7487 -2.81401 -3.06246 0
M  V30 1049 H 98.3257 -1.05611 -3.57632 0
M  V30 1050 N 100.511 1.16574 -1.06058 0
M  V30 1051 C 101.474 2.19085 -0.673392 0
M  V30 1052 C 102.474 1.5835 0.279648 0
M  V30 1053 O 103.664 1.74088 0.0623488 0
M  V30 1054 C 100.796 3.40899 0.00954234 0
M  V30 1055 H 101.989 2.54853 -1.58081 0
M  V30 1056 H 99.5418 1.30808 -0.855516 0
M  V30 1057 H 100.277 3.10684 0.929826 0
M  V30 1058 H 100.062 3.86233 -0.67573 0
M  V30 1059 H 101.552 4.1675 0.266245 0
M  V30 1060 N 101.989 0.842826 1.3317 0
M  V30 1061 C 103.217 0.454055 2.01856 0
M  V30 1062 C 103.632 -0.94587 1.63397 0
M  V30 1063 O 102.989 -1.61534 0.849302 0
M  V30 1064 C 103.04 0.569715 3.56982 0
M  V30 1065 O 102.761 1.91448 3.94055 0
M  V30 1066 C 104.262 0.178412 4.42941 0
M  V30 1067 H 101.482 0.17979 0.646465 0
M  V30 1068 H 104.026 1.1365 1.70012 0
M  V30 1069 H 102.181 -0.0648587 3.87346 0
M  V30 1070 H 102.595 1.90282 4.88767 0
M  V30 1071 H 104.069 0.310376 5.51127 0
M  V30 1072 H 104.546 -0.880056 4.30293 0
M  V30 1073 H 105.152 0.787579 4.17944 0
M  V30 1074 N 103.467 -1.45747 0.599634 0
M  V30 1075 C 104.744 -1.95585 0.0240846 0
M  V30 1076 C 105.124 -1.54217 -1.44154 0
M  V30 1077 O 104.472 -0.800903 -2.14004 0
M  V30 1078 C 104.682 -3.48344 0.21385 0
M  V30 1079 C 106.03 -4.24504 0.0904902 0
M  V30 1080 O 107.054 -3.55911 0.143558 0
M  V30 1081 O 105.913 -5.46491 -0.0310766 0
M  V30 1082 H 103.007 -0.82602 -0.0402478 0
M  V30 1083 H 105.553 -1.55951 0.669139 0
M  V30 1084 H 104.325 -3.71397 1.23206 0
M  V30 1085 H 103.948 -3.9485 -0.466842 0
M  V30 1086 N 104.945 -0.338344 -1.53925 0
M  V30 1087 C 106.194 0.260732 -2.00008 0
M  V30 1088 C 106.507 1.52073 -1.23017 0
M  V30 1089 O 107.713 2.19672 -1.5955 0
M  V30 1090 C 106.169 0.51515 -3.56194 0
M  V30 1091 C 105.777 -0.728645 -4.42035 0
M  V30 1092 C 107.521 1.07337 -4.10706 0
M  V30 1093 C 105.428 -0.445315 -5.89721 0
M  V30 1094 H 104.358 0.101205 -0.747177 0
M  V30 1095 H 107.009 -0.452866 -1.77824 0
M  V30 1096 H 105.391 1.28932 -3.74423 0
M  V30 1097 H 106.565 -1.50352 -4.35581 0
M  V30 1098 H 104.88 -1.20813 -3.98489 0
M  V30 1099 H 107.477 1.30022 -5.18651 0
M  V30 1100 H 107.82 2.0273 -3.63602 0
M  V30 1101 H 108.353 0.360034 -3.96167 0
M  V30 1102 H 105.092 -1.36883 -6.41049 0
M  V30 1103 H 104.612 0.291569 -5.99091 0
M  V30 1104 H 106.291 -0.0606218 -6.46972 0
M  V30 1105 N 106.423 1.57458 -0.0668435 0
M  V30 1106 C 107.834 1.80776 0.466558 0
M  V30 1107 C 108.185 0.980361 1.69951 0
M  V30 1108 O 107.31 0.201441 2.1546 0
M  V30 1109 C 107.905 3.27881 0.85321 0
M  V30 1110 C 106.464 3.52062 1.3315 0
M  V30 1111 C 105.611 2.75513 0.314264 0
M  V30 1112 H 108.562 1.5598 -0.292588 0
M  V30 1113 H 108.583 3.39659 1.715 0
M  V30 1114 H 108.095 3.88075 -0.0443439 0
M  V30 1115 H 106.196 2.97167 2.24772 0
M  V30 1116 H 106.309 4.60762 1.31285 0
M  V30 1117 H 104.673 2.42123 0.790492 0
M  V30 1118 H 105.456 3.38442 -0.575477 0
M  V30 1119 N 107.901 -0.206675 1.56239 0
M  V30 1120 C 108.811 -1.27686 1.96808 0
M  V30 1121 C 109.827 -1.50455 0.874035 0
M  V30 1122 O 111.003 -1.63295 1.17884 0
M  V30 1123 C 108.068 -2.60358 2.28942 0
M  V30 1124 C 107.129 -2.45762 3.51994 0
M  V30 1125 C 106.362 -3.72108 3.82585 0
M  V30 1126 O 106.585 -4.75776 3.14631 0
M  V30 1127 O 105.519 -3.6833 4.76043 0
M  V30 1128 H 109.345 -0.962593 2.88041 0
M  V30 1129 H 106.93 -0.410746 1.43643 0
M  V30 1130 H 108.812 -3.38687 2.50737 0
M  V30 1131 H 107.487 -2.91435 1.4088 0
M  V30 1132 H 106.394 -1.65584 3.35459 0
M  V30 1133 H 107.727 -2.19621 4.40486 0
M  V30 1134 N 109.379 -1.50304 -0.473955 0
M  V30 1135 C 110.311 -1.65109 -1.58971 0
M  V30 1136 C 111.324 -0.532676 -1.53839 0
M  V30 1137 O 112.513 -0.805751 -1.59279 0
M  V30 1138 C 109.613 -1.61684 -2.97845 0
M  V30 1139 C 108.786 -2.8951 -3.27876 0
M  V30 1140 C 107.845 -2.78768 -4.4629 0
M  V30 1141 O 106.871 -3.52722 -4.46739 0
M  V30 1142 N 108.073 -1.9213 -5.47783 0
M  V30 1143 H 110.838 -2.61347 -1.46689 0
M  V30 1144 H 108.399 -1.47732 -0.662324 0
M  V30 1145 H 110.391 -1.52114 -3.75024 0
M  V30 1146 H 108.961 -0.731925 -3.03911 0
M  V30 1147 H 108.181 -3.13228 -2.39336 0
M  V30 1148 H 109.469 -3.74199 -3.4475 0
M  V30 1149 H 108.867 -1.31353 -5.50239 0
M  V30 1150 H 107.424 -1.88466 -6.23958 0
M  V30 1151 N 110.857 0.726932 -1.39834 0
M  V30 1152 C 111.82 1.82269 -1.38962 0
M  V30 1153 C 112.82 1.58248 -0.285334 0
M  V30 1154 O 114.01 1.65499 -0.54366 0
M  V30 1155 C 111.142 3.20186 -1.17019 0
M  V30 1156 H 112.335 1.84443 -2.36476 0
M  V30 1157 H 109.888 0.931416 -1.25516 0
M  V30 1158 H 110.623 3.23669 -0.202204 0
M  V30 1159 H 110.408 3.3902 -1.96998 0
M  V30 1160 H 111.898 4.00235 -1.1917 0
M  V30 1161 N 112.336 1.25143 0.95797 0
M  V30 1162 C 113.747 1.08851 1.51685 0
M  V30 1163 C 114.098 -0.33687 1.93286 0
M  V30 1164 O 113.223 -1.22644 1.7829 0
M  V30 1165 C 113.818 1.96978 2.75654 0
M  V30 1166 C 112.377 1.84881 3.27866 0
M  V30 1167 C 111.524 1.91329 2.0072 0
M  V30 1168 H 114.475 1.38478 0.77522 0
M  V30 1169 H 114.496 1.5078 3.4935 0
M  V30 1170 H 114.008 3.00712 2.45345 0
M  V30 1171 H 112.109 0.840182 3.63004 0
M  V30 1172 H 112.222 2.6951 3.96107 0
M  V30 1173 H 110.586 1.35174 2.15871 0
M  V30 1174 H 111.369 2.96661 1.72764 0
M  V30 1175 N 113.814 -1.1601 1.06675 0
M  V30 1176 C 114.761 -2.20525 0.680967 0
M  V30 1177 C 115.731 -1.62904 -0.324283 0
M  V30 1178 O 116.916 -1.89615 -0.212294 0
M  V30 1179 C 114.056 -3.45013 0.0776551 0
M  V30 1180 C 113.169 -4.16863 1.13355 0
M  V30 1181 C 112.304 -5.2888 0.49597 0
M  V30 1182 C 111.343 -5.92537 1.53513 0
M  V30 1183 N 110.48 -6.96038 0.920631 0
M  V30 1184 H 115.32 -2.52876 1.57663 0
M  V30 1185 H 112.857 -1.24199 0.788223 0
M  V30 1186 H 114.815 -4.16193 -0.289704 0
M  V30 1187 H 113.445 -3.132 -0.781393 0
M  V30 1188 H 112.497 -3.44248 1.61857 0
M  V30 1189 H 113.809 -4.60294 1.92174 0
M  V30 1190 H 112.963 -6.06653 0.0758604 0
M  V30 1191 H 111.702 -4.86622 -0.324062 0
M  V30 1192 H 110.707 -5.13482 1.9651 0
M  V30 1193 H 111.932 -6.36873 2.35733 0
M  V30 1194 H 109.878 -6.55888 0.12138 0
M  V30 1195 H 109.795 -7.3786 1.64616 0
M  V30 1196 H 111.063 -7.77725 0.525795 0
M  V30 1197 N 115.292 -0.849877 -1.32721 0
M  V30 1198 C 116.539 -0.450923 -1.97416 0
M  V30 1199 C 116.867 0.992376 -1.67279 0
M  V30 1200 O 116.122 1.71048 -0.950845 0
M  V30 1201 C 116.421 -0.631272 -3.51781 0
M  V30 1202 C 116.087 -2.04432 -4.01894 0
M  V30 1203 C 114.749 -2.4308 -4.1529 0
M  V30 1204 C 117.101 -2.96679 -4.28522 0
M  V30 1205 C 114.429 -3.73257 -4.52654 0
M  V30 1206 C 116.781 -4.26349 -4.67343 0
M  V30 1207 C 115.445 -4.64939 -4.78945 0
M  V30 1208 H 114.715 -0.165004 -0.722395 0
M  V30 1209 H 117.362 -1.07901 -1.58207 0
M  V30 1210 H 115.667 0.0800767 -3.91718 0
M  V30 1211 H 117.364 -0.302709 -3.99856 0
M  V30 1212 H 113.954 -1.73419 -3.91949 0
M  V30 1213 H 118.138 -2.68054 -4.17685 0
M  V30 1214 H 113.394 -4.02946 -4.59831 0
M  V30 1215 H 117.568 -4.97895 -4.86902 0
M  V30 1216 H 115.195 -5.65855 -5.07654 0
M  V30 1217 N 116.77 1.45427 -0.607355 0
M  V30 1218 C 117.733 2.28974 0.101693 0
M  V30 1219 C 118.733 1.39754 0.795329 0
M  V30 1220 O 119.923 1.61878 0.643527 0
M  V30 1221 C 117.055 3.20768 1.15414 0
M  V30 1222 H 118.248 2.93147 -0.632844 0
M  V30 1223 H 115.801 1.51945 -0.366391 0
M  V30 1224 H 116.536 2.61395 1.91945 0
M  V30 1225 H 116.321 3.86489 0.66098 0
M  V30 1226 H 117.811 3.83589 1.65073 0
M  V30 1227 N 118.248 0.346503 1.53744 0
M  V30 1228 C 119.18 -0.543316 2.22667 0
M  V30 1229 C 120.193 -1.06159 1.23427 0
M  V30 1230 O 121.382 -0.971235 1.49764 0
M  V30 1231 C 118.482 -1.76076 2.89569 0
M  V30 1232 C 117.655 -1.37727 4.15151 0
M  V30 1233 C 116.714 -2.45471 4.65436 0
M  V30 1234 O 115.74 -2.08655 5.29577 0
M  V30 1235 N 116.942 -3.7677 4.41616 0
M  V30 1236 H 119.707 0.0469703 2.99663 0
M  V30 1237 H 117.268 0.170766 1.60997 0
M  V30 1238 H 119.26 -2.47593 3.20125 0
M  V30 1239 H 117.83 -2.25835 2.16142 0
M  V30 1240 H 117.05 -0.492746 3.91108 0
M  V30 1241 H 118.338 -1.09708 4.96832 0
M  V30 1242 H 117.736 -4.09467 3.90325 0
M  V30 1243 H 116.293 -4.44448 4.7677 0
M  V30 1244 N 119.726 -1.57421 0.075193 0
M  V30 1245 C 120.973 -1.93618 -0.593146 0
M  V30 1246 C 121.301 -0.955484 -1.69413 0
M  V30 1247 O 120.556 0.0283251 -1.9568 0
M  V30 1248 C 120.855 -3.36428 -1.20626 0
M  V30 1249 C 120.521 -4.50307 -0.231078 0
M  V30 1250 C 119.183 -4.81186 0.0371936 0
M  V30 1251 C 121.535 -5.19374 0.435888 0
M  V30 1252 C 118.863 -5.78466 0.979461 0
M  V30 1253 C 121.215 -6.17665 1.3665 0
M  V30 1254 C 119.879 -6.46958 1.6432 0
M  V30 1255 H 119.149 -0.708499 -0.217047 0
M  V30 1256 H 121.796 -1.90937 0.146793 0
M  V30 1257 H 120.101 -3.35592 -2.02201 0
M  V30 1258 H 121.798 -3.61727 -1.73073 0
M  V30 1259 H 118.388 -4.26227 -0.450357 0
M  V30 1260 H 122.572 -4.95711 0.241748 0
M  V30 1261 H 117.828 -5.99487 1.20106 0
M  V30 1262 H 122.002 -6.70284 1.88924 0
M  V30 1263 H 119.629 -7.2215 2.37494 0
M  V30 1264 N 121.204 0.198386 -1.56346 0
M  V30 1265 C 122.167 1.22952 -1.93431 0
M  V30 1266 C 123.167 1.38611 -0.815092 0
M  V30 1267 O 124.357 1.36479 -1.08255 0
M  V30 1268 C 121.489 2.59946 -2.20546 0
M  V30 1269 H 122.682 0.912626 -2.85677 0
M  V30 1270 H 120.235 0.43977 -1.49986 0
M  V30 1271 H 120.97 2.96696 -1.30927 0
M  V30 1272 H 120.755 2.49953 -3.02102 0
M  V30 1273 H 122.245 3.3431 -2.50253 0
M  V30 1274 N 122.682 1.50554 0.465978 0
M  V30 1275 C 123.922 1.63439 1.22747 0
M  V30 1276 C 124.286 0.329822 1.89146 0
M  V30 1277 O 125.487 0.334161 2.66715 0
M  V30 1278 C 123.758 2.78542 2.2394 0
M  V30 1279 S 125.317 3.11591 3.0896 0
M  V30 1280 H 122.135 0.576113 0.416672 0
M  V30 1281 H 124.737 1.88357 0.523641 0
M  V30 1282 H 123.441 3.71805 1.7375 0
M  V30 1283 H 122.972 2.55726 2.98944 0
M  V30 1284 H 124.987 2.55811 4.25176 0
M  V30 1285 N 124.16 -0.719506 1.40217 0
M  V30 1286 C 125.388 -1.50864 1.41589 0
M  V30 1287 C 125.803 -1.88794 0.0145275 0
M  V30 1288 O 125.16 -1.55174 -0.960594 0
M  V30 1289 C 125.211 -2.78646 2.30302 0
M  V30 1290 O 124.932 -2.42321 3.64983 0
M  V30 1291 C 126.433 -3.72569 2.40224 0
M  V30 1292 H 123.653 -0.465709 0.48307 0
M  V30 1293 H 126.197 -0.88785 1.84221 0
M  V30 1294 H 124.352 -3.37019 1.91042 0
M  V30 1295 H 124.766 -3.24514 4.12057 0
M  V30 1296 H 126.24 -4.5908 3.06512 0
M  V30 1297 H 126.717 -4.15403 1.42608 0
M  V30 1298 H 127.323 -3.20109 2.80019 0
M  V30 1299 N 125.638 -1.25649 -0.95132 0
M  V30 1300 C 126.884 -1.10757 -1.69884 0
M  V30 1301 C 127.217 0.350061 -1.91019 0
M  V30 1302 O 126.492 1.25783 -1.48354 0
M  V30 1303 C 126.775 -1.86606 -3.07978 0
M  V30 1304 C 126.628 -3.40217 -2.94232 0
M  V30 1305 C 127.947 -1.65182 -4.07925 0
M  V30 1306 H 125.066 -0.40374 -0.616574 0
M  V30 1307 H 127.708 -1.54521 -1.10558 0
M  V30 1308 H 125.858 -1.49409 -3.58621 0
M  V30 1309 H 127.53 -3.87108 -2.50889 0
M  V30 1310 H 125.773 -3.67759 -2.30078 0
M  V30 1311 H 126.444 -3.88505 -3.92133 0
M  V30 1312 H 128.92 -1.9757 -3.66204 0
M  V30 1313 H 127.796 -2.20683 -5.02583 0
M  V30 1314 H 128.057 -0.593933 -4.38092 0
M  V30 1315 N 127.117 1.15442 -1.07289 0
M  V30 1316 C 128.394 1.82306 -0.708792 0
M  V30 1317 C 128.774 1.94991 0.808807 0
M  V30 1318 O 128.122 1.50085 1.72298 0
M  V30 1319 C 128.332 3.18695 -1.42247 0
M  V30 1320 C 129.68 3.94341 -1.57417 0
M  V30 1321 O 130.704 3.28247 -1.38319 0
M  V30 1322 O 129.563 5.12839 -1.88834 0
M  V30 1323 H 126.657 0.787628 -0.252132 0
M  V30 1324 H 129.203 1.22559 -1.17377 0
M  V30 1325 H 127.975 3.04557 -2.45684 0
M  V30 1326 H 127.598 3.86128 -0.948223 0
M  V30 1327 N 128.595 0.856903 1.32268 0
M  V30 1328 C 129.823 0.475439 2.01363 0
M  V30 1329 C 130.238 -0.928486 1.64392 0
M  V30 1330 O 129.595 -1.60624 0.866387 0
M  V30 1331 C 129.646 0.607545 3.56358 0
M  V30 1332 O 129.367 1.95617 3.92002 0
M  V30 1333 C 130.868 0.225382 4.42727 0
M  V30 1334 H 128.088 0.186636 0.644521 0
M  V30 1335 H 130.632 1.15446 1.68797 0
M  V30 1336 H 128.787 -0.0237719 3.87393 0
M  V30 1337 H 129.201 1.95455 4.86721 0
M  V30 1338 H 130.675 0.368813 5.50767 0
M  V30 1339 H 131.152 -0.834369 4.31202 0
M  V30 1340 H 131.758 0.831864 4.17085 0
M  V30 1341 N 130.073 -1.45103 0.615059 0
M  V30 1342 C 131.303 -2.06254 0.119596 0
M  V30 1343 C 131.711 -1.4591 -1.20445 0
M  V30 1344 O 131.054 -0.570384 -1.7462 0
M  V30 1345 C 131.116 -3.59396 -0.0865591 0
M  V30 1346 C 130.78 -4.42116 1.15683 0
M  V30 1347 C 131.777 -4.7662 2.07676 0
M  V30 1348 C 129.462 -4.82749 1.38775 0
M  V30 1349 C 131.456 -5.50622 3.21082 0
M  V30 1350 C 129.143 -5.56504 2.52481 0
M  V30 1351 C 130.141 -5.90358 3.43463 0
M  V30 1352 O 129.829 -6.62615 4.55189 0
M  V30 1353 H 129.561 -0.672423 0.0694512 0
M  V30 1354 H 132.115 -1.87219 0.844885 0
M  V30 1355 H 130.345 -3.76859 -0.866823 0
M  V30 1356 H 132.034 -4.02365 -0.534555 0
M  V30 1357 H 132.8 -4.4578 1.91063 0
M  V30 1358 H 128.679 -4.55829 0.688545 0
M  V30 1359 H 132.223 -5.76965 3.92119 0
M  V30 1360 H 128.12 -5.86759 2.69043 0
M  V30 1361 H 128.888 -6.81071 4.53966 0
M  V30 1362 N 131.551 -0.354651 -1.53558 0
M  V30 1363 C 132.828 0.294281 -1.93374 0
M  V30 1364 C 133.208 1.67313 -1.28723 0
M  V30 1365 O 132.556 2.24179 -0.442247 0
M  V30 1366 C 132.766 0.355445 -3.47185 0
M  V30 1367 C 134.114 0.601007 -4.20325 0
M  V30 1368 O 135.138 0.437106 -3.53508 0
M  V30 1369 O 133.997 0.919322 -5.38712 0
M  V30 1370 H 131.091 0.174033 -0.808481 0
M  V30 1371 H 133.637 -0.406638 -1.64756 0
M  V30 1372 H 132.409 -0.611729 -3.86489 0
M  V30 1373 H 132.032 1.1027 -3.82003 0
M  V30 1374 N 133.029 1.57378 -0.0835403 0
M  V30 1375 C 133.977 2.14602 0.89714 0
M  V30 1376 C 134.971 1.08589 1.30018 0
M  V30 1377 O 136.177 1.26952 1.27606 0
M  V30 1378 H 132.552 0.686346 0.3073 0
M  V30 1379 H 134.523 2.95845 0.38969 0
M  V30 1380 C 133.272 2.73188 2.15089 0
M  V30 1381 H 132.595 3.54442 1.84962 0
M  V30 1382 H 134.035 3.1681 2.81793 0
M  V30 1383 C 132.494 1.68517 2.91725 0
M  V30 1384 O 133.024 1.11718 3.85852 0
M  V30 1385 N 131.23 1.39277 2.55049 0
M  V30 1386 H 130.777 1.85655 1.78577 0
M  V30 1387 H 130.735 0.694791 3.06627 0
M  V30 1388 N 134.507 -0.190092 1.56449 0
M  V30 1389 C 135.457 -1.23977 1.91347 0
M  V30 1390 C 136.441 -1.40747 0.779693 0
M  V30 1391 O 137.633 -1.43033 1.04262 0
M  V30 1392 C 134.762 -2.58347 2.26079 0
M  V30 1393 C 133.848 -2.4535 3.45925 0
M  V30 1394 N 134.239 -2.02039 4.63696 0
M  V30 1395 C 132.537 -2.76229 3.50162 0
M  V30 1396 C 133.238 -2.01053 5.4585 0
M  V30 1397 N 132.214 -2.42747 4.8639 0
M  V30 1398 H 136.016 -0.896318 2.79899 0
M  V30 1399 H 133.53 -0.398496 1.57435 0
M  V30 1400 H 135.527 -3.34173 2.49267 0
M  V30 1401 H 134.187 -2.93512 1.38856 0
M  V30 1402 H 135.198 -1.7267 4.88268 0
M  V30 1403 H 131.875 -3.15556 2.73369 0
M  V30 1404 H 133.265 -1.69426 6.50188 0
M  V30 1405 N 135.985 -1.50799 -0.457987 0
M  V30 1406 C 137.401 -1.38515 -0.792819 0
M  V30 1407 C 137.601 -0.451409 -1.96379 0
M  V30 1408 O 136.657 0.10112 -2.52297 0
M  V30 1409 C 137.97 -2.80149 -1.09258 0
M  V30 1410 C 139.518 -2.89156 -1.19825 0
M  V30 1411 C 139.993 -4.31651 -1.53106 0
M  V30 1412 N 141.484 -4.34662 -1.60072 0
M  V30 1413 C 142.219 -5.41928 -1.87354 0
M  V30 1414 N 141.715 -6.59384 -2.12568 0
M  V30 1415 N 143.508 -5.29385 -1.88965 0
M  V30 1416 H 135.659 -2.10073 0.313511 0
M  V30 1417 H 137.922 -0.944803 0.0777862 0
M  V30 1418 H 137.628 -3.50374 -0.305084 0
M  V30 1419 H 137.502 -3.18204 -2.02549 0
M  V30 1420 H 139.889 -2.19141 -1.97639 0
M  V30 1421 H 139.97 -2.54626 -0.244821 0
M  V30 1422 H 139.614 -5.02208 -0.758266 0
M  V30 1423 H 139.544 -4.63678 -2.49621 0
M  V30 1424 H 142.035 -3.49973 -1.42573 0
M  V30 1425 H 142.348 -7.36934 -2.32696 0
M  V30 1426 H 140.693 -6.62535 -2.09933 0
M  V30 1427 H 143.884 -4.36616 -1.68772 0
M  V30 1428 H 144.057 -6.13066 -2.09891 0
M  V30 1429 N 137.463 0.71206 -1.40597 0
M  V30 1430 C 138.74 1.46536 -1.29563 0
M  V30 1431 C 139.12 2.10931 0.0844217 0
M  V30 1432 O 138.468 2.00418 1.0975 0
M  V30 1433 C 138.678 2.49821 -2.43701 0
M  V30 1434 C 140.026 3.15551 -2.841 0
M  V30 1435 O 141.05 2.60142 -2.4332 0
M  V30 1436 O 139.909 4.15867 -3.54566 0
M  V30 1437 H 137.003 0.651801 -0.509004 0
M  V30 1438 H 139.549 0.743935 -1.52524 0
M  V30 1439 H 138.321 2.00778 -3.35863 0
M  V30 1440 H 137.944 3.29495 -2.22528 0
M  V30 1441 N 138.941 1.26152 0.944643 0
M  V30 1442 C 140.19 1.10883 1.68487 0
M  V30 1443 C 140.503 -0.348153 1.92477 0
M  V30 1444 O 141.709 -0.621459 2.64292 0
M  V30 1445 C 140.165 1.93624 3.03377 0
M  V30 1446 C 139.773 3.43875 2.87148 0
M  V30 1447 C 141.517 1.86954 3.81115 0
M  V30 1448 C 139.424 4.18875 4.1749 0
M  V30 1449 H 138.354 0.41135 0.631907 0
M  V30 1450 H 141.005 1.50433 1.05082 0
M  V30 1451 H 139.387 1.46904 3.67743 0
M  V30 1452 H 140.561 3.98338 2.31653 0
M  V30 1453 H 138.876 3.51744 2.22856 0
M  V30 1454 H 141.473 2.40275 4.77673 0
M  V30 1455 H 141.816 0.839518 4.07747 0
M  V30 1456 H 142.349 2.31477 3.23517 0
M  V30 1457 H 139.088 5.22332 3.96043 0
M  V30 1458 H 138.608 3.69193 4.72712 0
M  V30 1459 H 140.287 4.27134 4.85968 0
M  V30 1460 N 140.419 -1.14872 1.07899 0
M  V30 1461 C 141.83 -1.67367 0.827363 0
M  V30 1462 C 142.181 -1.85236 -0.646693 0
M  V30 1463 O 141.306 -1.55974 -1.50004 0
M  V30 1464 C 141.901 -3.04016 1.49532 0
M  V30 1465 C 140.46 -3.53566 1.29106 0
M  V30 1466 C 139.607 -2.29161 1.56143 0
M  V30 1467 H 142.558 -0.990083 1.24028 0
M  V30 1468 H 142.579 -3.69219 0.919643 0
M  V30 1469 H 142.091 -2.90978 2.56814 0
M  V30 1470 H 140.192 -3.71835 0.238713 0
M  V30 1471 H 140.305 -4.34661 2.01511 0
M  V30 1472 H 138.669 -2.34978 0.982717 0
M  V30 1473 H 139.452 -2.18705 2.64619 0
M  V30 1474 N 141.898 -0.863906 -1.31812 0
M  V30 1475 C 143.314 -0.555004 -1.49639 0
M  V30 1476 C 143.514 0.912266 -1.79666 0
M  V30 1477 O 142.57 1.69479 -1.87171 0
M  V30 1478 C 143.883 -1.44998 -2.63431 0
M  V30 1479 C 145.431 -1.45138 -2.77316 0
M  V30 1480 C 145.906 -2.33179 -3.94197 0
M  V30 1481 N 147.397 -2.31025 -4.01474 0
M  V30 1482 C 148.132 -2.95871 -4.9117 0
M  V30 1483 N 147.628 -3.69863 -5.8581 0
M  V30 1484 N 149.421 -2.85211 -4.84367 0
M  V30 1485 H 141.572 -1.81339 -1.10589 0
M  V30 1486 H 143.835 -0.77505 -0.545895 0
M  V30 1487 H 143.541 -2.49377 -2.48 0
M  V30 1488 H 143.415 -1.14409 -3.59431 0
M  V30 1489 H 145.802 -0.415201 -2.92164 0
M  V30 1490 H 145.883 -1.79747 -1.82001 0
M  V30 1491 H 145.527 -3.3687 -3.80107 0
M  V30 1492 H 145.457 -1.95897 -4.88807 0
M  V30 1493 H 147.948 -1.77238 -3.33759 0
M  V30 1494 H 148.261 -4.16486 -6.50968 0
M  V30 1495 H 146.606 -3.73971 -5.85808 0
M  V30 1496 H 149.797 -2.26948 -4.09405 0
M  V30 1497 H 149.97 -3.36027 -5.54066 0
M  V30 1498 N 143.376 1.44774 -0.622745 0
M  V30 1499 C 144.326 2.2774 0.108889 0
M  V30 1500 C 145.31 1.38189 0.824175 0
M  V30 1501 O 146.502 1.62063 0.711664 0
M  V30 1502 C 143.631 3.25353 1.09546 0
M  V30 1503 C 142.717 4.22392 0.380232 0
M  V30 1504 N 143.108 5.02388 -0.586535 0
M  V30 1505 C 141.406 4.41588 0.625792 0
M  V30 1506 C 142.107 5.72894 -1.00834 0
M  V30 1507 N 141.083 5.42479 -0.348878 0
M  V30 1508 H 144.885 2.86993 -0.63341 0
M  V30 1509 H 142.399 1.5611 -0.447589 0
M  V30 1510 H 144.396 3.83538 1.63414 0
M  V30 1511 H 143.056 2.6766 1.83815 0
M  V30 1512 H 144.067 5.0885 -0.963975 0
M  V30 1513 H 140.744 3.95003 1.352 0
M  V30 1514 H 142.134 6.47158 -1.80656 0
M  V30 1515 N 144.854 0.36279 1.53368 0
M  V30 1516 C 146.27 0.0116182 1.59596 0
M  V30 1517 C 146.47 -1.47012 1.37803 0
M  V30 1518 O 145.526 -2.23136 1.18181 0
M  V30 1519 C 146.839 0.465052 2.97082 0
M  V30 1520 C 148.387 0.419033 3.10182 0
M  V30 1521 C 148.862 0.848235 4.50077 0
M  V30 1522 N 150.353 0.803183 4.56183 0
M  V30 1523 C 151.088 1.107 5.62613 0
M  V30 1524 N 150.584 1.47996 6.76808 0
M  V30 1525 N 152.377 1.02998 5.52583 0
M  V30 1526 H 144.528 1.32775 1.65785 0
M  V30 1527 H 146.791 0.542518 0.777417 0
M  V30 1528 H 146.497 1.49892 3.18159 0
M  V30 1529 H 146.371 -0.149786 3.76902 0
M  V30 1530 H 148.758 -0.605696 2.88817 0
M  V30 1531 H 148.839 1.06933 2.32377 0
M  V30 1532 H 148.483 1.87107 4.7218 0
M  V30 1533 H 148.413 0.175218 5.26308 0
M  V30 1534 H 150.904 0.52838 3.74188 0
M  V30 1535 H 151.217 1.69613 7.53957 0
M  V30 1536 H 149.562 1.51859 6.78206 0
M  V30 1537 H 152.753 0.737817 4.62249 0
M  V30 1538 H 152.926 1.2701 6.35431 0
M  V30 1539 N 146.332 -1.57332 0.0918853 0
M  V30 1540 C 147.264 -2.10869 -0.898168 0
M  V30 1541 C 148.277 -1.04521 -1.24817 0
M  V30 1542 O 149.466 -1.31977 -1.20184 0
M  V30 1543 C 146.566 -2.57083 -2.2082 0
M  V30 1544 C 145.739 -3.87229 -2.03402 0
M  V30 1545 C 144.798 -4.19324 -3.17889 0
M  V30 1546 O 143.824 -4.88598 -2.91994 0
M  V30 1547 N 145.026 -3.74471 -4.43567 0
M  V30 1548 H 147.791 -2.96439 -0.440943 0
M  V30 1549 H 145.352 -1.61631 -0.0933064 0
M  V30 1550 H 147.344 -2.75602 -2.96354 0
M  V30 1551 H 145.914 -1.76541 -2.57977 0
M  V30 1552 H 145.134 -3.7789 -1.12218 0
M  V30 1553 H 146.422 -4.72379 -1.89038 0
M  V30 1554 H 145.82 -3.18546 -4.67488 0
M  V30 1555 H 144.377 -3.98151 -5.16061 0
M  V30 1556 N 147.81 0.181792 -1.56548 0
M  V30 1557 C 149.056 0.901431 -1.81665 0
M  V30 1558 C 149.389 1.82347 -0.668075 0
M  V30 1559 O 148.664 1.91669 0.330615 0
M  V30 1560 C 148.947 1.70618 -3.17115 0
M  V30 1561 C 148.8 0.807964 -4.42484 0
M  V30 1562 C 150.119 2.67605 -3.49393 0
M  V30 1563 H 147.238 0.32627 -0.660846 0
M  V30 1564 H 149.88 0.168134 -1.89255 0
M  V30 1565 H 148.03 2.33133 -3.10775 0
M  V30 1566 H 149.702 0.19649 -4.60881 0
M  V30 1567 H 147.945 0.115411 -4.33646 0
M  V30 1568 H 148.616 1.40632 -5.33785 0
M  V30 1569 H 151.092 2.15218 -3.56118 0
M  V30 1570 H 149.968 3.20985 -4.45264 0
M  V30 1571 H 150.229 3.47298 -2.73563 0
M  V30 1572 N 149.288 1.51039 0.449983 0
M  V30 1573 C 150.221 1.66105 1.56474 0
M  V30 1574 C 151.199 0.508776 1.54435 0
M  V30 1575 O 152.383 0.731005 1.73749 0
M  V30 1576 C 149.51 1.66304 2.9506 0
M  V30 1577 C 148.556 2.87346 3.15174 0
M  V30 1578 S 149.389 4.4835 2.92818 0
M  V30 1579 C 150.545 4.51274 4.33708 0
M  V30 1580 H 150.778 2.60397 1.43459 0
M  V30 1581 H 148.311 1.40565 0.638805 0
M  V30 1582 H 150.269 1.67103 3.74949 0
M  V30 1583 H 148.93 0.732108 3.05449 0
M  V30 1584 H 148.123 2.83849 4.16468 0
M  V30 1585 H 147.725 2.84223 2.43091 0
M  V30 1586 H 150.017 4.26136 5.26701 0
M  V30 1587 H 150.96 5.53017 4.42242 0
M  V30 1588 H 151.368 3.80738 4.16772 0
M  V30 1589 N 150.766 -0.704594 1.40972 0
M  V30 1590 C 151.714 -1.83994 1.42299 0
M  V30 1591 C 152.708 -1.66684 0.302111 0
M  V30 1592 O 153.914 -1.73655 0.473697 0
M  V30 1593 H 150.289 -0.606171 0.44504 0
M  V30 1594 H 152.26 -1.79992 2.38003 0
M  V30 1595 C 151.009 -3.21946 1.31323 0
M  V30 1596 H 150.332 -3.35878 2.16855 0
M  V30 1597 H 151.772 -4.01491 1.36311 0
M  V30 1598 C 150.231 -3.36891 0.0245977 0
M  V30 1599 O 150.761 -3.90687 -0.934153 0
M  V30 1600 N 148.967 -2.90559 -0.0485243 0
M  V30 1601 H 148.514 -2.46968 0.732419 0
M  V30 1602 H 148.472 -3.00937 -0.910171 0
M  V30 1603 N 152.244 -1.26651 -0.937939 0
M  V30 1604 C 153.154 -1.10276 -2.07066 0
M  V30 1605 C 154.17 -0.0354197 -1.73964 0
M  V30 1606 O 155.346 -0.239816 -1.99967 0
M  V30 1607 C 152.411 -0.740887 -3.38691 0
M  V30 1608 C 151.472 -1.88799 -3.85556 0
M  V30 1609 C 150.705 -1.54329 -5.10899 0
M  V30 1610 O 150.928 -0.446494 -5.6865 0
M  V30 1611 O 149.862 -2.37911 -5.52885 0
M  V30 1612 H 153.688 -2.05309 -2.23789 0
M  V30 1613 H 151.273 -1.05743 -1.0554 0
M  V30 1614 H 153.155 -0.55195 -4.1777 0
M  V30 1615 H 151.83 0.180022 -3.23199 0
M  V30 1616 H 150.737 -2.13191 -3.07409 0
M  V30 1617 H 152.07 -2.78874 -4.05574 0
M  V30 1618 N 153.722 1.14298 -1.08507 0
M  V30 1619 C 154.685 2.17607 -0.719711 0
M  V30 1620 C 155.685 1.58907 0.245997 0
M  V30 1621 O 156.875 1.74181 0.0254081 0
M  V30 1622 C 154.007 3.40842 -0.0627695 0
M  V30 1623 H 155.2 2.51443 -1.63452 0
M  V30 1624 H 152.753 1.28963 -0.88307 0
M  V30 1625 H 153.488 3.12587 0.863716 0
M  V30 1626 H 153.273 3.84713 -0.757504 0
M  V30 1627 H 154.763 4.17221 0.177786 0
M  V30 1628 N 155.201 0.870884 1.31352 0
M  V30 1629 C 156.164 0.332243 2.26779 0
M  V30 1630 C 157.164 -0.517302 1.52252 0
M  V30 1631 O 158.354 -0.326477 1.71113 0
M  V30 1632 C 155.486 -0.528066 3.36785 0
M  V30 1633 H 156.679 1.17469 2.75937 0
M  V30 1634 H 154.232 0.64655 1.423 0
M  V30 1635 H 154.967 -1.39167 2.92922 0
M  V30 1636 H 154.752 0.0802582 3.92018 0
M  V30 1637 H 156.242 -0.897179 4.07849 0
M  V30 1638 N 156.679 -1.44442 0.630414 0
M  V30 1639 C 157.907 -2.06414 0.141671 0
M  V30 1640 C 158.322 -1.47105 -1.18345 0
M  V30 1641 O 157.679 -0.593662 -1.72574 0
M  V30 1642 C 157.73 -3.61494 0.0199784 0
M  V30 1643 O 157.451 -4.18594 1.29269 0
M  V30 1644 C 158.952 -4.40499 -0.497544 0
M  V30 1645 H 156.172 -0.666292 0.0793452 0
M  V30 1646 H 158.716 -1.85323 0.864614 0
M  V30 1647 H 156.871 -3.8185 -0.653402 0
M  V30 1648 H 157.285 -5.12026 1.13707 0
M  V30 1649 H 158.759 -5.49433 -0.531708 0
M  V30 1650 H 159.236 -4.11895 -1.52445 0
M  V30 1651 H 159.842 -4.25061 0.142562 0
M  V30 1652 N 158.157 -0.370918 -1.53173 0
M  V30 1653 C 159.12 0.460778 -2.24521 0
M  V30 1654 C 160.12 1.00536 -1.25496 0
M  V30 1655 O 161.31 0.890266 -1.49733 0
M  V30 1656 C 158.442 1.64457 -2.98608 0
M  V30 1657 H 159.635 -0.163613 -2.99453 0
M  V30 1658 H 157.188 -0.122699 -1.55818 0
M  V30 1659 H 157.923 2.30691 -2.2793 0
M  V30 1660 H 157.708 1.26099 -3.7127 0
M  V30 1661 H 159.198 2.23384 -3.5283 0
M  V30 1662 N 159.635 1.57281 -0.100228 0
M  V30 1663 C 160.598 2.13158 0.842398 0
M  V30 1664 C 161.598 1.06202 1.20738 0
M  V30 1665 O 162.788 1.32066 1.13597 0
M  V30 1666 C 159.92 2.65639 2.13655 0
M  V30 1667 H 161.113 2.97766 0.357114 0
M  V30 1668 H 158.666 1.5559 0.148823 0
M  V30 1669 H 159.401 1.84566 2.66657 0
M  V30 1670 H 159.186 3.43844 1.88451 0
M  V30 1671 H 160.676 3.08846 2.81077 0
M  V30 1672 N 161.113 -0.173488 1.56642 0
M  V30 1673 C 162.361 -0.888706 1.81512 0
M  V30 1674 C 162.682 -1.82875 0.676872 0
M  V30 1675 O 161.952 -1.93536 -0.303414 0
M  V30 1676 H 160.532 -0.331164 0.669582 0
M  V30 1677 H 163.194 -0.173823 1.94123 0
M  V30 1678 H 162.29 -1.46691 2.75478 0
M  V30 1679 N 162.591 -1.51276 -0.441967 0
M  V30 1680 C 163.539 -1.72823 -1.55676 0
M  V30 1681 C 164.533 -0.59445 -1.58627 0
M  V30 1682 O 165.739 -0.775715 -1.62427 0
M  V30 1683 H 162.114 -0.545983 -0.517113 0
M  V30 1684 H 164.085 -2.6628 -1.34675 0
M  V30 1685 C 162.834 -1.86619 -2.93375 0
M  V30 1686 H 162.157 -2.73264 -2.91834 0
M  V30 1687 H 163.597 -2.05709 -3.70756 0
M  V30 1688 C 162.056 -0.624842 -3.31055 0
M  V30 1689 O 162.586 0.222636 -4.01083 0
M  V30 1690 N 160.792 -0.470288 -2.86769 0
M  V30 1691 H 160.339 -1.161 -2.29953 0
M  V30 1692 H 160.297 0.359051 -3.12343 0
M  V30 1693 N 164.069 0.697108 -1.41344 0
M  V30 1694 C 165.315 1.4593 -1.40827 0
M  V30 1695 C 165.648 1.94193 -0.0167098 0
M  V30 1696 O 164.923 1.69425 0.955263 0
M  V30 1697 C 165.206 2.67229 -2.41373 0
M  V30 1698 C 165.059 2.24741 -3.8963 0
M  V30 1699 C 166.378 3.69423 -2.39196 0
M  V30 1700 H 163.497 0.529303 -0.512842 0
M  V30 1701 H 166.139 0.794112 -1.72609 0
M  V30 1702 H 164.289 3.23982 -2.14401 0
M  V30 1703 H 165.961 1.73327 -4.27499 0
M  V30 1704 H 164.204 1.56542 -4.0457 0
M  V30 1705 H 164.875 3.1177 -4.55525 0
M  V30 1706 H 167.351 3.2234 -2.63128 0
M  V30 1707 H 166.227 4.51907 -3.11563 0
M  V30 1708 H 166.488 4.19012 -1.41001 0
M  V30 1709 N 165.547 1.27147 0.931209 0
M  V30 1710 C 166.51 1.09615 2.01289 0
M  V30 1711 C 167.51 0.0412581 1.60747 0
M  V30 1712 O 168.7 0.285545 1.71844 0
M  V30 1713 C 165.832 0.669447 3.34262 0
M  V30 1714 H 167.025 2.05662 2.18273 0
M  V30 1715 H 164.578 1.09885 1.11153 0
M  V30 1716 H 165.313 -0.292572 3.22978 0
M  V30 1717 H 165.098 1.43127 3.65044 0
M  V30 1718 H 166.588 0.568921 4.13706 0
M  V30 1719 N 167.025 -1.13721 1.09112 0
M  V30 1720 C 167.955 -2.21148 0.749385 0
M  V30 1721 C 168.936 -1.6792 -0.271475 0
M  V30 1722 O 170.121 -1.93693 -0.140251 0
M  V30 1723 C 167.251 -3.46905 0.165659 0
M  V30 1724 C 166.205 -4.13203 1.11567 0
M  V30 1725 C 165.531 -5.33248 0.393809 0
M  V30 1726 C 166.831 -4.60912 2.45678 0
M  V30 1727 H 168.525 -2.4999 1.64758 0
M  V30 1728 H 166.071 -1.20156 0.793626 0
M  V30 1729 H 168.024 -4.21313 -0.085466 0
M  V30 1730 H 166.748 -3.17449 -0.767714 0
M  V30 1731 H 165.407 -3.40758 1.35202 0
M  V30 1732 H 165.055 -5.00054 -0.543599 0
M  V30 1733 H 164.755 -5.78552 1.02721 0
M  V30 1734 H 166.279 -6.10413 0.150908 0
M  V30 1735 H 167.693 -5.26759 2.26269 0
M  V30 1736 H 166.09 -5.16944 3.04776 0
M  V30 1737 H 167.16 -3.75603 3.06677 0
M  V30 1738 N 168.503 -0.877838 -1.30888 0
M  V30 1739 C 169.749 -0.493426 -1.96706 0
M  V30 1740 C 170.082 0.953504 -1.6918 0
M  V30 1741 O 169.357 1.67266 -0.992594 0
M  V30 1742 C 169.64 -0.760429 -3.51979 0
M  V30 1743 C 169.493 -2.25747 -3.89048 0
M  V30 1744 C 170.812 -0.232148 -4.39487 0
M  V30 1745 H 167.931 -0.180746 -0.714493 0
M  V30 1746 H 170.573 -1.10052 -1.54882 0
M  V30 1747 H 168.723 -0.243715 -3.87735 0
M  V30 1748 H 170.395 -2.84204 -3.63354 0
M  V30 1749 H 168.638 -2.72694 -3.37373 0
M  V30 1750 H 169.309 -2.39491 -4.97341 0
M  V30 1751 H 171.785 -0.674314 -4.106 0
M  V30 1752 H 170.661 -0.448355 -5.47066 0
M  V30 1753 H 170.922 0.866297 -4.33529 0
M  V30 1754 N 169.982 1.44106 -0.638065 0
M  V30 1755 C 171.207 2.0685 -0.150916 0
M  V30 1756 C 171.632 1.47417 1.16833 0
M  V30 1757 O 170.99 0.578264 1.71831 0
M  V30 1758 C 171.038 3.60555 -0.05708 0
M  V30 1759 O 170.142 4.00465 0.984972 0
M  V30 1760 H 169.483 0.658151 -0.0879399 0
M  V30 1761 H 172.013 1.84865 -0.876707 0
M  V30 1762 H 172.023 4.07789 0.131232 0
M  V30 1763 H 170.698 4.03193 -1.02021 0
M  V30 1764 H 169.275 3.64849 0.770672 0
M  V30 1765 N 171.46 0.379036 1.52974 0
M  V30 1766 C 172.688 -0.20679 2.05864 0
M  V30 1767 C 173.103 -1.41356 1.25155 0
M  V30 1768 O 172.46 -1.8009 0.295588 0
M  V30 1769 C 172.511 -0.587045 3.56702 0
M  V30 1770 O 172.232 0.571776 4.34353 0
M  V30 1771 C 173.733 -1.22983 4.25899 0
M  V30 1772 H 170.953 -0.0336123 0.670158 0
M  V30 1773 H 173.497 0.541298 1.97206 0
M  V30 1774 H 171.652 -1.28504 3.65466 0
M  V30 1775 H 172.066 0.261544 5.23847 0
M  V30 1776 H 173.54 -1.44635 5.32715 0
M  V30 1777 H 174.017 -2.19416 3.80465 0
M  V30 1778 H 174.623 -0.572892 4.21424 0
M  V30 1779 N 172.938 -1.57226 0.108567 0
M  V30 1780 C 174.186 -1.94448 -0.550853 0
M  V30 1781 C 174.507 -0.992074 -1.67878 0
M  V30 1782 O 173.777 -0.0465 -1.95845 0
M  V30 1783 H 172.357 -0.717897 -0.206479 0
M  V30 1784 H 175.019 -1.94112 0.175062 0
M  V30 1785 H 174.115 -2.97218 -0.952259 0
M  V30 1786 N 174.416 0.165178 -1.56732 0
M  V30 1787 C 175.662 0.877389 -1.83503 0
M  V30 1788 C 176.017 1.79602 -0.689996 0
M  V30 1789 O 175.31 1.89023 0.313205 0
M  V30 1790 C 175.504 1.70405 -3.1416 0
M  V30 1791 C 175.333 0.866961 -4.41264 0
M  V30 1792 C 174.103 0.539646 -5.0241 0
M  V30 1793 C 176.301 0.205671 -5.13889 0
M  V30 1794 N 174.283 -0.312946 -6.13102 0
M  V30 1795 C 175.654 -0.507823 -6.17917 0
M  V30 1796 C 177.709 0.124468 -4.97744 0
M  V30 1797 C 176.412 -1.29483 -7.0755 0
M  V30 1798 C 178.438 -0.649222 -5.87826 0
M  V30 1799 C 177.8 -1.35106 -6.91322 0
M  V30 1800 H 173.899 0.299477 -0.722383 0
M  V30 1801 H 176.483 0.143949 -1.94167 0
M  V30 1802 H 174.654 2.40887 -3.04677 0
M  V30 1803 H 176.386 2.35804 -3.28905 0
M  V30 1804 H 173.141 0.871176 -4.65519 0
M  V30 1805 H 173.565 -0.729731 -6.73056 0
M  V30 1806 H 178.207 0.652724 -4.17731 0
M  V30 1807 H 175.925 -1.83441 -7.87004 0
M  V30 1808 H 179.511 -0.713804 -5.77405 0
M  V30 1809 H 178.391 -1.94013 -7.59821 0
M  V30 1810 N 175.894 1.51508 0.433938 0
M  V30 1811 C 177.171 1.54888 1.19453 0
M  V30 1812 C 177.551 0.315154 2.08734 0
M  V30 1813 O 176.899 -0.699558 2.17528 0
M  V30 1814 C 177.109 2.86467 1.99342 0
M  V30 1815 C 178.457 3.38545 2.56267 0
M  V30 1816 O 179.481 2.88041 2.0955 0
M  V30 1817 O 178.34 4.26675 3.41483 0
M  V30 1818 H 175.434 0.622863 0.544032 0
M  V30 1819 H 177.98 1.63823 0.442732 0
M  V30 1820 H 176.752 3.67718 1.33788 0
M  V30 1821 H 176.375 2.8071 2.8158 0
M  V30 1822 N 177.372 -0.689602 1.41712 0
M  V30 1823 C 178.783 -1.26973 1.36875 0
M  V30 1824 C 179.134 -1.96124 0.054748 0
M  V30 1825 O 178.259 -1.99141 -0.84687 0
M  V30 1826 C 178.854 -2.30912 2.47922 0
M  V30 1827 C 177.413 -2.84486 2.46464 0
M  V30 1828 C 176.56 -1.58603 2.27465 0
M  V30 1829 H 179.511 -0.48396 1.51141 0
M  V30 1830 H 179.532 -3.12331 2.17323 0
M  V30 1831 H 179.044 -1.80554 3.43543 0
M  V30 1832 H 177.145 -3.39005 1.54617 0
M  V30 1833 H 177.258 -3.34511 3.42986 0
M  V30 1834 H 175.622 -1.84632 1.75451 0
M  V30 1835 H 176.405 -1.10233 3.25121 0
M  V30 1836 N 178.85 -1.27639 -0.924453 0
M  V30 1837 C 180.098 -1.13941 -1.66918 0
M  V30 1838 C 180.419 0.314589 -1.92446 0
M  V30 1839 O 179.689 1.21964 -1.53303 0
M  V30 1840 H 178.269 -0.418678 -0.618642 0
M  V30 1841 H 180.931 -1.60213 -1.10985 0
M  V30 1842 H 180.027 -1.67094 -2.63602 0
M  V30 1843 N 180.328 1.1314 -1.09713 0
M  V30 1844 C 181.261 2.17735 -0.683137 0
M  V30 1845 C 182.239 1.59582 0.311841 0
M  V30 1846 O 183.423 1.87298 0.212514 0
M  V30 1847 C 180.55 3.38699 -0.00684324 0
M  V30 1848 C 179.596 4.1546 -0.964102 0
M  V30 1849 S 180.429 4.74733 -2.47767 0
M  V30 1850 C 181.585 5.9904 -1.81387 0
M  V30 1851 H 181.818 2.52515 -1.56918 0
M  V30 1852 H 179.351 1.24484 -0.913404 0
M  V30 1853 H 181.309 4.08765 0.377044 0
M  V30 1854 H 179.97 3.02214 0.85589 0
M  V30 1855 H 179.163 5.02093 -0.43803 0
M  V30 1856 H 178.765 3.51066 -1.28953 0
M  V30 1857 H 181.057 6.67846 -1.13967 0
M  V30 1858 H 182 6.56261 -2.65947 0
M  V30 1859 H 182.408 5.4976 -1.28155 0
M  V30 1860 N 181.806 0.884767 1.30421 0
M  V30 1861 C 183.053 0.503105 1.96151 0
M  V30 1862 C 183.381 -0.947676 1.69851 0
M  V30 1863 O 182.636 -1.68467 0.995861 0
M  V30 1864 C 182.935 0.724318 3.49983 0
M  V30 1865 C 182.601 2.15015 3.96332 0
M  V30 1866 C 181.263 2.54005 4.08699 0
M  V30 1867 C 183.615 3.07936 4.20505 0
M  V30 1868 C 180.943 3.85128 4.42599 0
M  V30 1869 C 183.295 4.3859 4.55874 0
M  V30 1870 C 181.959 4.77474 4.66449 0
M  V30 1871 H 181.229 0.184099 0.717766 0
M  V30 1872 H 183.876 1.12058 1.55291 0
M  V30 1873 H 182.181 0.0238086 3.91793 0
M  V30 1874 H 183.878 0.408617 3.98913 0
M  V30 1875 H 180.468 1.8375 3.87213 0
M  V30 1876 H 184.652 2.79033 4.10431 0
M  V30 1877 H 179.908 4.14996 4.48986 0
M  V30 1878 H 184.082 5.10629 4.7353 0
M  V30 1879 H 181.709 5.79115 4.92473 0
M  V30 1880 N 183.284 -1.43765 0.645699 0
M  V30 1881 C 184.509 -2.06767 0.161883 0
M  V30 1882 C 184.934 -1.48034 -1.16049 0
M  V30 1883 O 184.292 -0.587369 -1.71522 0
M  V30 1884 C 184.34 -3.60519 0.0762003 0
M  V30 1885 O 183.444 -4.00982 -0.963721 0
M  V30 1886 H 182.785 -0.657675 0.091429 0
M  V30 1887 H 185.315 -1.84397 0.886499 0
M  V30 1888 H 185.325 -4.07853 -0.109604 0
M  V30 1889 H 184 -4.02646 1.04157 0
M  V30 1890 H 182.577 -3.65253 -0.751312 0
M  V30 1891 N 184.763 -0.387143 -1.52771 0
M  V30 1892 C 186.012 0.19697 -2.00736 0
M  V30 1893 C 186.325 1.48082 -1.27793 0
M  V30 1894 O 187.531 2.14485 -1.66458 0
M  V30 1895 C 185.987 0.401568 -3.57653 0
M  V30 1896 C 185.595 -0.868907 -4.39493 0
M  V30 1897 C 187.339 0.942164 -4.13912 0
M  V30 1898 C 185.246 -0.632705 -5.88006 0
M  V30 1899 H 184.176 0.0773827 -0.750019 0
M  V30 1900 H 186.827 -0.50921 -1.76293 0
M  V30 1901 H 185.209 1.16954 -3.78335 0
M  V30 1902 H 186.383 -1.64133 -4.30577 0
M  V30 1903 H 184.698 -1.33429 -3.94443 0
M  V30 1904 H 187.295 1.13455 -5.22525 0
M  V30 1905 H 187.638 1.9106 -3.69867 0
M  V30 1906 H 188.171 0.233814 -3.97112 0
M  V30 1907 H 184.91 -1.57208 -6.36369 0
M  V30 1908 H 184.43 0.100825 -5.99715 0
M  V30 1909 H 186.109 -0.26642 -6.46451 0
M  V30 1910 N 186.241 1.57166 -0.116904 0
M  V30 1911 C 187.189 2.16457 0.851418 0
M  V30 1912 C 188.183 1.11323 1.27686 0
M  V30 1913 O 189.389 1.2963 1.24884 0
M  V30 1914 H 185.764 0.69271 0.292672 0
M  V30 1915 H 187.735 2.96605 0.32685 0
M  V30 1916 C 186.484 2.77689 2.09246 0
M  V30 1917 H 185.807 3.58285 1.77402 0
M  V30 1918 H 187.247 3.22716 2.7501 0
M  V30 1919 C 185.706 1.74667 2.88085 0
M  V30 1920 O 186.236 1.19877 3.83396 0
M  V30 1921 N 184.442 1.44656 2.52038 0
M  V30 1922 H 183.989 1.89402 1.74599 0
M  V30 1923 H 183.947 0.759675 3.05084 0
M  V30 1924 N 187.719 -0.156864 1.56817 0
M  V30 1925 C 189.135 -0.50916 1.5126 0
M  V30 1926 C 189.335 -1.83897 0.823658 0
M  V30 1927 O 188.391 -2.49469 0.390055 0
M  V30 1928 C 189.704 -0.52857 2.96018 0
M  V30 1929 C 191.252 -0.614771 3.06903 0
M  V30 1930 C 191.727 -0.664938 4.53147 0
M  V30 1931 N 193.218 -0.727433 4.57452 0
M  V30 1932 C 193.953 -0.787067 5.67973 0
M  V30 1933 N 193.449 -0.806649 6.88088 0
M  V30 1934 N 195.242 -0.827195 5.5598 0
M  V30 1935 H 187.393 0.714935 2.00006 0
M  V30 1936 H 189.656 0.259526 0.911784 0
M  V30 1937 H 189.362 0.380154 3.49639 0
M  V30 1938 H 189.236 -1.36998 3.51442 0
M  V30 1939 H 191.623 -1.51392 2.53307 0
M  V30 1940 H 191.704 0.253597 2.5454 0
M  V30 1941 H 191.348 0.230011 5.07379 0
M  V30 1942 H 191.278 -1.54966 5.03282 0
M  V30 1943 H 193.769 -0.719998 3.70978 0
M  V30 1944 H 194.082 -0.853727 7.6807 0
M  V30 1945 H 192.427 -0.774687 6.90669 0
M  V30 1946 H 195.618 -0.808998 4.61056 0
M  V30 1947 H 195.791 -0.870206 6.4213 0
M  V30 1948 N 189.197 -1.51736 -0.425897 0
M  V30 1949 C 190.443 -1.65214 -1.1761 0
M  V30 1950 C 190.776 -0.372778 -1.90589 0
M  V30 1951 O 190.051 0.628139 -1.84078 0
M  V30 1952 C 190.334 -2.86312 -2.18398 0
M  V30 1953 C 190.187 -4.24254 -1.49426 0
M  V30 1954 C 191.506 -3.02925 -3.19256 0
M  V30 1955 H 188.625 -0.601263 -0.426206 0
M  V30 1956 H 191.267 -1.8425 -0.463882 0
M  V30 1957 H 189.417 -2.70213 -2.79137 0
M  V30 1958 H 191.089 -4.52046 -0.919362 0
M  V30 1959 H 189.332 -4.26426 -0.796432 0
M  V30 1960 H 190.003 -5.05001 -2.22885 0
M  V30 1961 H 192.479 -3.1781 -2.68581 0
M  V30 1962 H 191.355 -3.89199 -3.8706 0
M  V30 1963 H 191.616 -2.15497 -3.86023 0
M  V30 1964 N 190.675 0.682077 -1.42076 0
M  V30 1965 C 191.905 1.46844 -1.45329 0
M  V30 1966 C 192.313 1.89102 -0.0609328 0
M  V30 1967 O 191.656 1.58238 0.933082 0
M  V30 1968 C 191.718 2.75375 -2.31104 0
M  V30 1969 C 191.382 2.55238 -3.79081 0
M  V30 1970 C 192.379 2.20309 -4.70914 0
M  V30 1971 C 190.064 2.70459 -4.2327 0
M  V30 1972 C 192.058 2.00859 -6.04925 0
M  V30 1973 C 189.745 2.50624 -5.57343 0
M  V30 1974 C 190.743 2.15876 -6.47986 0
M  V30 1975 O 190.431 1.96227 -7.79583 0
M  V30 1976 H 190.163 0.4586 -0.496651 0
M  V30 1977 H 192.717 0.846131 -1.87162 0
M  V30 1978 H 190.947 3.40061 -1.84107 0
M  V30 1979 H 192.636 3.37231 -2.25898 0
M  V30 1980 H 193.402 2.08153 -4.38061 0
M  V30 1981 H 189.281 2.96485 -3.53012 0
M  V30 1982 H 192.825 1.7366 -6.75639 0
M  V30 1983 H 188.722 2.62375 -5.89771 0
M  V30 1984 H 189.49 2.10883 -7.90867 0
M  V30 1985 N 192.153 1.28127 0.917671 0
M  V30 1986 C 193.116 1.11744 2.00115 0
M  V30 1987 C 194.116 0.0583052 1.60694 0
M  V30 1988 O 195.306 0.303755 1.71531 0
M  V30 1989 C 192.438 0.704862 3.33533 0
M  V30 1990 H 193.631 2.07966 2.16079 0
M  V30 1991 H 191.184 1.11058 1.09981 0
M  V30 1992 H 191.919 -0.258299 3.2327 0
M  V30 1993 H 191.704 1.4699 3.63505 0
M  V30 1994 H 193.194 0.612768 4.1308 0
M  V30 1995 N 193.631 -1.12557 1.10312 0
M  V30 1996 C 194.594 -2.16434 0.75424 0
M  V30 1997 C 195.594 -1.59278 -0.220685 0
M  V30 1998 O 196.784 -1.742 0.00230591 0
M  V30 1999 C 193.916 -3.40699 0.116987 0
M  V30 2000 H 195.109 -2.48811 1.67431 0
M  V30 2001 H 192.662 -1.27542 0.903475 0
M  V30 2002 H 193.397 -3.13921 -0.813877 0
M  V30 2003 H 193.182 -3.83459 0.818613 0
M  V30 2004 H 194.672 -4.17451 -0.111387 0
M  V30 2005 N 195.109 -0.891671 -1.2995 0
M  V30 2006 C 196.072 -0.36828 -2.26222 0
M  V30 2007 C 197.072 0.493014 -1.53056 0
M  V30 2008 O 198.262 0.299213 -1.71611 0
M  V30 2009 C 195.394 0.47442 -3.37583 0
M  V30 2010 H 196.587 -1.21844 -2.74033 0
M  V30 2011 H 194.14 -0.669107 -1.41254 0
M  V30 2012 H 194.875 1.34489 -2.95099 0
M  V30 2013 H 194.66 -0.142615 -3.91841 0
M  V30 2014 H 196.15 0.83218 -4.09224 0
M  V30 2015 N 196.587 1.43421 -0.653314 0
M  V30 2016 C 197.833 2.02111 -0.166992 0
M  V30 2017 C 198.166 1.51423 1.21592 0
M  V30 2018 O 197.441 0.707389 1.8118 0
M  V30 2019 C 197.724 3.5966 -0.177948 0
M  V30 2020 C 197.577 4.20579 -1.59478 0
M  V30 2021 C 198.896 4.37413 0.4856 0
M  V30 2022 H 196.015 0.734374 -0.0621557 0
M  V30 2023 H 198.657 1.70717 -0.834016 0
M  V30 2024 H 196.807 3.86537 0.390032 0
M  V30 2025 H 198.479 4.04732 -2.21336 0
M  V30 2026 H 196.722 3.77226 -2.14204 0
M  V30 2027 H 197.393 5.29665 -1.5543 0
M  V30 2028 H 199.869 4.161 0.00234528 0
M  V30 2029 H 198.745 5.47075 0.447207 0
M  V30 2030 H 199.006 4.13672 1.55974 0
M  V30 2031 N 198.065 0.39524 1.52563 0
M  V30 2032 C 198.995 -0.428384 2.29537 0
M  V30 2033 C 199.976 -1.05831 1.33169 0
M  V30 2034 O 201.161 -1.06995 1.62067 0
M  V30 2035 C 198.291 -1.55274 3.10656 0
M  V30 2036 C 197.245 -1.04855 4.14957 0
M  V30 2037 C 196.571 -2.26543 4.84337 0
M  V30 2038 C 197.871 -0.112324 5.22179 0
M  V30 2039 H 199.565 0.213867 2.98635 0
M  V30 2040 H 197.111 0.104298 1.43622 0
M  V30 2041 H 199.064 -2.1358 3.63265 0
M  V30 2042 H 197.788 -2.22266 2.39302 0
M  V30 2043 H 196.447 -0.487985 3.63338 0
M  V30 2044 H 196.095 -2.92059 4.09525 0
M  V30 2045 H 195.795 -1.93466 5.54837 0
M  V30 2046 H 197.319 -2.85481 5.39753 0
M  V30 2047 H 198.733 -0.603752 5.70112 0
M  V30 2048 H 197.13 0.128968 5.99961 0
M  V30 2049 H 198.2 0.837052 4.77621 0
M  V30 2050 N 199.544 -1.57102 0.125237 0
M  V30 2051 C 200.507 -2.14471 -0.80838 0
M  V30 2052 C 201.507 -1.0811 -1.19033 0
M  V30 2053 O 202.697 -1.33856 -1.11482 0
M  V30 2054 C 199.829 -2.69005 -2.09402 0
M  V30 2055 H 201.022 -2.98297 -0.309696 0
M  V30 2056 H 198.575 -1.55807 -0.124051 0
M  V30 2057 H 199.31 -1.88785 -2.63687 0
M  V30 2058 H 199.095 -3.46799 -1.82957 0
M  V30 2059 H 200.585 -3.13278 -2.76128 0
M  V30 2060 N 201.022 0.148545 -1.56898 0
M  V30 2061 C 201.932 1.20293 -2.01412 0
M  V30 2062 C 202.948 1.47107 -0.929273 0
M  V30 2063 O 204.124 1.58807 -1.23863 0
M  V30 2064 C 201.189 2.51682 -2.38447 0
M  V30 2065 C 200.25 2.32529 -3.60872 0
M  V30 2066 C 199.483 3.57653 -3.96132 0
M  V30 2067 O 199.706 4.63771 -3.32073 0
M  V30 2068 O 198.64 3.50408 -4.89385 0
M  V30 2069 H 202.466 0.855025 -2.91416 0
M  V30 2070 H 200.051 0.357151 -1.45068 0
M  V30 2071 H 201.933 3.29147 -2.63135 0
M  V30 2072 H 200.608 2.86006 -1.51599 0
M  V30 2073 H 199.515 1.53019 -3.41373 0
M  V30 2074 H 200.848 2.03121 -4.48333 0
M  V30 2075 N 202.5 1.5196 0.417844 0
M  V30 2076 C 203.45 1.7106 1.5074 0
M  V30 2077 C 204.434 0.564487 1.50673 0
M  V30 2078 O 205.626 0.821206 1.56797 0
M  V30 2079 C 202.755 1.85677 2.88754 0
M  V30 2080 C 201.841 3.06133 2.93502 0
M  V30 2081 N 202.232 4.28987 2.67962 0
M  V30 2082 C 200.53 3.05787 3.24669 0
M  V30 2083 C 201.231 5.10395 2.79055 0
M  V30 2084 N 200.207 4.45455 3.11561 0
M  V30 2085 H 204.009 2.63696 1.29775 0
M  V30 2086 H 201.523 1.49873 0.625436 0
M  V30 2087 H 203.52 1.97475 3.67164 0
M  V30 2088 H 202.18 0.942348 3.10725 0
M  V30 2089 H 203.191 4.57607 2.4252 0
M  V30 2090 H 199.868 2.2405 3.52289 0
M  V30 2091 H 201.258 6.18247 2.63097 0
M  V30 2092 N 203.978 -0.674533 1.42435 0
M  V30 2093 C 204.91 -1.80005 1.41883 0
M  V30 2094 C 205.923 -1.59667 0.31787 0
M  V30 2095 O 207.112 -1.68781 0.580973 0
M  V30 2096 C 204.212 -3.17114 1.19549 0
M  V30 2097 C 203.385 -3.64299 2.42084 0
M  V30 2098 C 202.444 -4.80142 2.15291 0
M  V30 2099 O 201.47 -4.90673 2.88493 0
M  V30 2100 N 202.672 -5.68869 1.1562 0
M  V30 2101 H 205.437 -1.80964 2.38898 0
M  V30 2102 H 202.998 -0.857633 1.37318 0
M  V30 2103 H 204.99 -3.92267 0.995417 0
M  V30 2104 H 203.56 -3.11053 0.310569 0
M  V30 2105 H 202.78 -2.79822 2.77657 0
M  V30 2106 H 204.068 -3.92567 3.23679 0
M  V30 2107 H 203.466 -5.63012 0.550765 0
M  V30 2108 H 202.023 -6.43833 1.016 0
M  V30 2109 N 205.456 -1.28612 -0.910864 0
M  V30 2110 C 206.388 -1.08589 -2.01844 0
M  V30 2111 C 207.401 -0.0367419 -1.62759 0
M  V30 2112 O 208.59 -0.280101 -1.76289 0
M  V30 2113 C 205.69 -0.628626 -3.33019 0
M  V30 2114 C 204.863 -1.75382 -4.00699 0
M  V30 2115 C 203.922 -1.28945 -5.10156 0
M  V30 2116 O 202.948 -1.9922 -5.33198 0
M  V30 2117 N 204.15 -0.154224 -5.80295 0
M  V30 2118 H 206.915 -2.03973 -2.19579 0
M  V30 2119 H 204.476 -1.20403 -1.08234 0
M  V30 2120 H 206.468 -0.301508 -4.03575 0
M  V30 2121 H 205.038 0.232451 -3.11735 0
M  V30 2122 H 204.258 -2.25039 -3.23653 0
M  V30 2123 H 205.546 -2.50854 -4.42662 0
M  V30 2124 H 204.944 0.43194 -5.64049 0
M  V30 2125 H 203.501 0.113599 -6.51701 0
M  V30 2126 N 206.934 1.1197 -1.10907 0
M  V30 2127 C 207.884 2.15946 -0.731538 0
M  V30 2128 C 208.868 1.58758 0.261699 0
M  V30 2129 O 210.06 1.76863 0.0696722 0
M  V30 2130 C 207.189 3.42877 -0.170299 0
M  V30 2131 C 206.275 4.07037 -1.19087 0
M  V30 2132 N 206.666 4.46135 -2.38322 0
M  V30 2133 C 204.964 4.33884 -1.03252 0
M  V30 2134 C 205.665 4.96331 -3.03366 0
M  V30 2135 N 204.641 4.9214 -2.30865 0
M  V30 2136 H 208.443 2.43947 -1.63912 0
M  V30 2137 H 205.957 1.28927 -0.987505 0
M  V30 2138 H 207.954 4.16732 0.118271 0
M  V30 2139 H 206.614 3.16343 0.731935 0
M  V30 2140 H 207.625 4.38345 -2.75815 0
M  V30 2141 H 204.302 4.17084 -0.186256 0
M  V30 2142 H 205.692 5.36257 -4.04818 0
M  V30 2143 N 208.412 0.89855 1.29475 0
M  V30 2144 C 209.64 0.539261 1.99749 0
M  V30 2145 C 210.055 -0.875716 1.67262 0
M  V30 2146 O 209.412 -1.57786 0.917049 0
M  V30 2147 C 209.463 0.72061 3.54245 0
M  V30 2148 O 209.184 2.07989 3.8558 0
M  V30 2149 C 210.685 0.366118 4.41786 0
M  V30 2150 H 207.905 0.207047 0.638258 0
M  V30 2151 H 210.449 1.20758 1.65039 0
M  V30 2152 H 208.604 0.0994862 3.87272 0
M  V30 2153 H 209.018 2.10841 4.80257 0
M  V30 2154 H 210.492 0.543848 5.49314 0
M  V30 2155 H 210.969 -0.696763 4.33638 0
M  V30 2156 H 211.575 0.964135 4.14228 0
M  V30 2157 N 209.89 -1.43072 0.660911 0
M  V30 2158 C 211.137 -2.01721 0.177445 0
M  V30 2159 C 211.465 -1.5218 -1.21126 0
M  V30 2160 O 210.72 -0.708659 -1.82419 0
M  V30 2161 C 211.019 -3.57103 0.145563 0
M  V30 2162 C 210.685 -4.26021 1.47705 0
M  V30 2163 C 209.347 -4.44563 1.84165 0
M  V30 2164 C 211.699 -4.64983 2.35458 0
M  V30 2165 C 209.027 -4.99334 3.0803 0
M  V30 2166 C 211.379 -5.21127 3.58622 0
M  V30 2167 C 210.043 -5.37884 3.95268 0
M  V30 2168 H 209.313 -0.73815 0.0649317 0
M  V30 2169 H 211.96 -1.71446 0.853144 0
M  V30 2170 H 210.265 -3.86965 -0.61361 0
M  V30 2171 H 211.962 -4.00248 -0.2455 0
M  V30 2172 H 208.552 -4.11939 1.18339 0
M  V30 2173 H 212.736 -4.50343 2.08579 0
M  V30 2174 H 207.992 -5.10493 3.36462 0
M  V30 2175 H 212.166 -5.50262 4.26831 0
M  V30 2176 H 209.793 -5.80089 4.91325 0
M  V30 2177 N 211.368 -0.403325 -1.52352 0
M  V30 2178 C 212.614 0.167015 -2.02713 0
M  V30 2179 C 212.969 1.43296 -1.28391 0
M  V30 2180 O 212.262 1.87796 -0.379885 0
M  V30 2181 C 212.456 0.474665 -3.54234 0
M  V30 2182 C 212.285 -0.759909 -4.43233 0
M  V30 2183 C 211.055 -1.28338 -4.88731 0
M  V30 2184 C 213.253 -1.63634 -4.87574 0
M  V30 2185 N 211.235 -2.47404 -5.6184 0
M  V30 2186 C 212.606 -2.67329 -5.59406 0
M  V30 2187 C 214.661 -1.65478 -4.69597 0
M  V30 2188 C 213.364 -3.72773 -6.15169 0
M  V30 2189 C 215.39 -2.69837 -5.26253 0
M  V30 2190 C 214.752 -3.72253 -5.98002 0
M  V30 2191 H 210.851 0.0228343 -0.781667 0
M  V30 2192 H 213.435 -0.556368 -1.86581 0
M  V30 2193 H 211.606 1.16709 -3.7045 0
M  V30 2194 H 213.338 1.03338 -3.91284 0
M  V30 2195 H 210.093 -0.842273 -4.6605 0
M  V30 2196 H 210.517 -3.07688 -6.0304 0
M  V30 2197 H 215.159 -0.876389 -4.13617 0
M  V30 2198 H 212.877 -4.51471 -6.70223 0
M  V30 2199 H 216.463 -2.72164 -5.14216 0
M  V30 2200 H 215.343 -4.51679 -6.41058 0
M  V30 2201 N 212.846 1.57033 -0.133567 0
M  V30 2202 C 214.094 1.953 0.519848 0
M  V30 2203 C 214.415 1.01866 1.66278 0
M  V30 2204 O 213.685 0.0776513 1.95746 0
M  V30 2205 H 212.265 0.721091 0.195032 0
M  V30 2206 H 214.927 1.93809 -0.205921 0
M  V30 2207 H 214.023 2.98695 0.904854 0
M  V30 2208 N 214.325 -0.140222 1.56975 0
M  V30 2209 C 215.736 -0.699596 1.73097 0
M  V30 2210 C 216.087 -1.8134 0.749022 0
M  V30 2211 O 215.212 -2.16241 -0.0828503 0
M  V30 2212 C 215.807 -1.27582 3.1386 0
M  V30 2213 C 214.366 -1.78169 3.31561 0
M  V30 2214 C 213.513 -0.672855 2.69013 0
M  V30 2215 H 216.464 0.0855115 1.58469 0
M  V30 2216 H 216.485 -2.14561 3.14235 0
M  V30 2217 H 215.997 -0.464955 3.85305 0
M  V30 2218 H 214.098 -2.61801 2.65124 0
M  V30 2219 H 214.211 -1.90574 4.39566 0
M  V30 2220 H 212.575 -1.10118 2.29665 0
M  V30 2221 H 213.358 0.126679 3.43066 0
M  V30 2222 N 215.803 -1.52179 -0.40978 0
M  V30 2223 C 217.051 -1.65878 -1.15451 0
M  V30 2224 C 217.372 -0.390771 -1.91044 0
M  V30 2225 O 216.642 0.594323 -1.86667 0
M  V30 2226 H 215.222 -0.611405 -0.429177 0
M  V30 2227 H 217.884 -1.89219 -0.467134 0
M  V30 2228 H 216.98 -2.49954 -1.86894 0
M  V30 2229 N 217.281 0.66697 -1.42791 0
M  V30 2230 C 218.211 1.79218 -1.49677 0
M  V30 2231 C 219.192 1.66405 -0.352623 0
M  V30 2232 O 220.377 1.85708 -0.567993 0
M  V30 2233 C 217.507 3.17565 -1.40605 0
M  V30 2234 C 216.461 3.45124 -2.53127 0
M  V30 2235 C 215.787 4.83127 -2.29112 0
M  V30 2236 C 217.087 3.41236 -3.95418 0
M  V30 2237 H 218.781 1.73713 -2.43853 0
M  V30 2238 H 216.327 0.83432 -1.17367 0
M  V30 2239 H 218.28 3.96022 -1.44029 0
M  V30 2240 H 217.004 3.23767 -0.429271 0
M  V30 2241 H 215.663 2.69031 -2.49034 0
M  V30 2242 H 215.311 4.85988 -1.29709 0
M  V30 2243 H 215.011 5.02528 -3.04531 0
M  V30 2244 H 216.535 5.63859 -2.34297 0
M  V30 2245 H 217.949 4.09651 -4.01073 0
M  V30 2246 H 216.346 3.72173 -4.70752 0
M  V30 2247 H 217.416 2.39665 -4.21532 0
M  V30 2248 N 218.759 1.29093 0.90403 0
M  V30 2249 C 219.984 1.19809 1.69294 0
M  V30 2250 C 220.409 -0.238481 1.86582 0
M  V30 2251 O 219.767 -1.1723 1.383 0
M  V30 2252 C 219.815 1.91202 3.05736 0
M  V30 2253 O 218.919 1.22611 3.93752 0
M  V30 2254 H 218.26 0.415385 0.518027 0
M  V30 2255 H 220.79 1.70586 1.12967 0
M  V30 2256 H 220.8 1.99487 3.55906 0
M  V30 2257 H 219.475 2.95692 2.92471 0
M  V30 2258 H 218.052 1.22554 3.52186 0
M  V30 2259 N 220.237 -1.11381 1.11499 0
M  V30 2260 C 221.169 -2.17207 0.731704 0
M  V30 2261 C 222.182 -1.61066 -0.236957 0
M  V30 2262 O 223.371 -1.78489 -0.0197591 0
M  V30 2263 C 220.471 -3.38846 0.0607624 0
M  V30 2264 C 219.644 -4.24451 1.0564 0
M  V30 2265 C 218.703 -5.24562 0.4149 0
M  V30 2266 O 217.729 -5.59071 1.069 0
M  V30 2267 N 218.931 -5.74651 -0.821943 0
M  V30 2268 H 221.696 -2.50699 1.64225 0
M  V30 2269 H 219.257 -1.26908 1.00529 0
M  V30 2270 H 221.249 -4.02911 -0.380139 0
M  V30 2271 H 219.819 -3.03411 -0.752376 0
M  V30 2272 H 219.039 -3.56833 1.67524 0
M  V30 2273 H 220.327 -4.78486 1.72998 0
M  V30 2274 H 219.725 -5.48797 -1.37252 0
M  V30 2275 H 218.282 -6.40549 -1.20582 0
M  V30 2276 N 221.715 -0.905404 -1.28997 0
M  V30 2277 C 222.963 -0.533192 -1.9494 0
M  V30 2278 C 223.284 0.924618 -1.71685 0
M  V30 2279 O 222.554 1.65268 -1.05183 0
M  V30 2280 H 221.134 -0.194194 -0.721317 0
M  V30 2281 H 223.796 -1.15294 -1.57141 0
M  V30 2282 H 222.892 -0.72059 -3.03667 0
M  V30 2283 N 223.193 1.4272 -0.668489 0
M  V30 2284 C 224.143 2.27971 0.0363806 0
M  V30 2285 C 225.127 1.40741 0.779794 0
M  V30 2286 O 226.319 1.64245 0.659745 0
M  V30 2287 C 223.448 3.28673 0.991398 0
M  V30 2288 C 222.534 4.23388 0.245658 0
M  V30 2289 N 222.925 5.00267 -0.746069 0
M  V30 2290 C 221.223 4.43355 0.484988 0
M  V30 2291 C 221.924 5.69396 -1.19009 0
M  V30 2292 N 220.9 5.41095 -0.521287 0
M  V30 2293 H 224.702 2.84833 -0.724394 0
M  V30 2294 H 222.216 1.54607 -0.497028 0
M  V30 2295 H 224.213 3.88543 1.51129 0
M  V30 2296 H 222.873 2.73373 1.75207 0
M  V30 2297 H 223.884 5.05525 -1.12537 0
M  V30 2298 H 220.561 3.99104 1.22565 0
M  V30 2299 H 221.951 6.41083 -2.01153 0
M  V30 2300 N 224.671 0.411399 1.52136 0
M  V30 2301 C 225.896 -0.165538 2.06738 0
M  V30 2302 C 226.321 -1.379 1.27926 0
M  V30 2303 O 225.679 -1.78628 0.310114 0
M  V30 2304 C 225.727 -0.492124 3.57226 0
M  V30 2305 O 224.831 -1.58276 3.80818 0
M  V30 2306 H 224.172 -0.0132132 0.663869 0
M  V30 2307 H 226.702 0.585253 1.96051 0
M  V30 2308 H 226.712 -0.750104 4.01045 0
M  V30 2309 H 225.387 0.394922 4.14021 0
M  V30 2310 H 223.964 -1.31677 3.48877 0
M  V30 2311 N 226.149 -1.5696 0.141893 0
M  V30 2312 C 227.426 -1.87553 -0.555281 0
M  V30 2313 C 227.806 -1.04699 -1.83306 0
M  V30 2314 O 227.154 -0.132346 -2.28116 0
M  V30 2315 C 227.364 -3.39093 -0.825664 0
M  V30 2316 C 228.712 -4.08199 -1.16869 0
M  V30 2317 O 229.736 -3.44242 -0.915185 0
M  V30 2318 O 228.595 -5.21139 -1.6455 0
M  V30 2319 H 225.689 -0.777188 -0.282679 0
M  V30 2320 H 228.235 -1.68763 0.17812 0
M  V30 2321 H 227.007 -3.91221 0.0788633 0
M  V30 2322 H 226.63 -3.63393 -1.61343 0
M  V30 2323 N 227.627 0.131896 -1.57047 0
M  V30 2324 C 228.59 1.14638 -1.98471 0
M  V30 2325 C 229.59 1.35029 -0.873148 0
M  V30 2326 O 230.78 1.31764 -1.13946 0
M  V30 2327 C 227.912 2.50358 -2.31373 0
M  V30 2328 H 229.105 0.79064 -2.8929 0
M  V30 2329 H 226.658 0.375761 -1.51716 0
M  V30 2330 H 227.393 2.90876 -1.43393 0
M  V30 2331 H 227.178 2.36915 -3.12432 0
M  V30 2332 H 228.668 3.23395 -2.64207 0
M  V30 2333 N 229.106 1.52395 0.401703 0
M  V30 2334 C 230.036 1.79231 1.49661 0
M  V30 2335 C 231.017 0.643654 1.57452 0
M  V30 2336 O 232.202 0.889989 1.72606 0
M  V30 2337 C 229.332 1.94971 2.87409 0
M  V30 2338 C 228.286 3.10604 2.94465 0
M  V30 2339 C 227.612 3.11577 4.34538 0
M  V30 2340 C 228.912 4.49921 2.6527 0
M  V30 2341 H 230.606 2.70917 1.27454 0
M  V30 2342 H 228.152 1.30362 0.6117 0
M  V30 2343 H 230.105 2.12328 3.63999 0
M  V30 2344 H 228.829 0.999632 3.10926 0
M  V30 2345 H 227.488 2.93009 2.20321 0
M  V30 2346 H 227.136 2.14277 4.55076 0
M  V30 2347 H 226.836 3.89247 4.40183 0
M  V30 2348 H 228.36 3.31073 5.13053 0
M  V30 2349 H 229.774 4.67683 3.31581 0
M  V30 2350 H 228.171 5.29564 2.82281 0
M  V30 2351 H 229.241 4.57507 1.60671 0
M  V30 2352 N 230.584 -0.659388 1.43143 0
M  V30 2353 C 232 -0.974337 1.26407 0
M  V30 2354 C 232.2 -2.007 0.179341 0
M  V30 2355 O 231.256 -2.4856 -0.444295 0
M  V30 2356 C 232.569 -1.46447 2.62628 0
M  V30 2357 C 234.117 -1.58144 2.7011 0
M  V30 2358 C 234.592 -2.1055 4.06734 0
M  V30 2359 N 236.083 -2.17861 4.08767 0
M  V30 2360 C 236.818 -2.59519 5.1131 0
M  V30 2361 N 236.314 -3.00518 6.24228 0
M  V30 2362 N 238.107 -2.59404 4.98664 0
M  V30 2363 H 230.258 0.0240528 2.12386 0
M  V30 2364 H 232.521 -0.0518065 0.946583 0
M  V30 2365 H 232.227 -0.780123 3.42939 0
M  V30 2366 H 232.101 -2.44058 2.87603 0
M  V30 2367 H 234.488 -2.25682 1.90136 0
M  V30 2368 H 234.569 -0.589828 2.48907 0
M  V30 2369 H 234.213 -1.43616 4.87172 0
M  V30 2370 H 234.143 -3.10531 4.25298 0
M  V30 2371 H 236.634 -1.88975 3.27257 0
M  V30 2372 H 236.947 -3.31036 6.98309 0
M  V30 2373 H 235.292 -2.98337 6.2771 0
M  V30 2374 H 238.483 -2.26747 4.09516 0
M  V30 2375 H 238.656 -2.91548 5.78709 0
M  V30 2376 N 232.062 -1.29571 -0.897171 0
M  V30 2377 C 233.478 -1.07637 -1.17841 0
M  V30 2378 C 233.678 0.170713 -2.00776 0
M  V30 2379 O 232.734 0.867768 -2.3712 0
M  V30 2380 C 234.047 -2.3332 -1.8969 0
M  V30 2381 C 235.595 -2.38664 -2.02505 0
M  V30 2382 C 236.07 -3.64157 -2.77765 0
M  V30 2383 N 237.561 -3.64894 -2.85318 0
M  V30 2384 C 238.296 -4.58679 -3.44094 0
M  V30 2385 N 237.792 -5.62799 -4.04017 0
M  V30 2386 N 239.585 -4.46245 -3.41793 0
M  V30 2387 H 231.736 -2.09598 -0.343883 0
M  V30 2388 H 233.999 -0.923333 -0.214848 0
M  V30 2389 H 233.705 -3.24262 -1.36187 0
M  V30 2390 H 233.579 -2.41025 -2.9015 0
M  V30 2391 H 235.966 -1.48208 -2.55183 0
M  V30 2392 H 236.047 -2.34943 -1.01171 0
M  V30 2393 H 235.691 -4.54965 -2.25763 0
M  V30 2394 H 235.621 -3.65137 -3.7945 0
M  V30 2395 H 238.112 -2.89613 -2.42761 0
M  V30 2396 H 238.425 -6.3048 -4.46895 0
M  V30 2397 H 236.77 -5.66605 -4.02472 0
M  V30 2398 H 239.961 -3.64094 -2.94199 0
M  V30 2399 H 240.134 -5.19518 -3.87304 0
M  V30 2400 N 233.54 1.10788 -1.12088 0
M  V30 2401 C 234.789 1.82036 -0.868659 0
M  V30 2402 C 235.102 1.85929 0.607426 0
M  V30 2403 O 236.308 2.53346 0.97613 0
M  V30 2404 C 234.764 3.26951 -1.50435 0
M  V30 2405 C 234.372 3.31367 -3.01496 0
M  V30 2406 C 236.116 4.03053 -1.33225 0
M  V30 2407 C 234.023 4.7072 -3.58017 0
M  V30 2408 H 232.953 0.682108 -0.321318 0
M  V30 2409 H 235.604 1.24618 -1.34694 0
M  V30 2410 H 233.986 3.84343 -0.953735 0
M  V30 2411 H 235.16 2.83819 -3.6302 0
M  V30 2412 H 233.475 2.6875 -3.18061 0
M  V30 2413 H 236.072 5.05981 -1.72878 0
M  V30 2414 H 236.415 4.15387 -0.275529 0
M  V30 2415 H 236.948 3.52066 -1.85188 0
M  V30 2416 H 233.687 4.63585 -4.63432 0
M  V30 2417 H 233.207 5.1865 -3.01268 0
M  V30 2418 H 234.886 5.39685 -3.56859 0
M  V30 2419 N 235.018 0.912232 1.28515 0
M  V30 2420 C 236.429 0.591352 1.77087 0
M  V30 2421 C 236.78 -0.8933 1.74684 0
M  V30 2422 O 235.905 -1.69876 1.34056 0
M  V30 2423 C 236.5 1.06668 3.2157 0
M  V30 2424 C 235.059 0.79675 3.67871 0
M  V30 2425 C 234.206 1.23427 2.48316 0
M  V30 2426 H 237.157 1.09365 1.15 0
M  V30 2427 H 237.178 0.407455 3.78312 0
M  V30 2428 H 236.69 2.14726 3.23287 0
M  V30 2429 H 234.791 -0.270679 3.71616 0
M  V30 2430 H 234.904 1.40343 4.58084 0
M  V30 2431 H 233.268 0.653036 2.46186 0
M  V30 2432 H 234.051 2.32316 2.52753 0
M  V30 2433 N 236.496 -1.42363 0.676048 0
M  V30 2434 C 237.744 -2.01123 0.198437 0
M  V30 2435 C 238.065 -1.53731 -1.19966 0
M  V30 2436 O 237.335 -0.759518 -1.80577 0
M  V30 2437 H 235.915 -0.743678 0.0703721 0
M  V30 2438 H 238.577 -1.74263 0.872837 0
M  V30 2439 H 237.673 -3.11454 0.200686 0
M  V30 2440 N 237.974 -0.419461 -1.51915 0
M  V30 2441 C 239.22 0.153166 -2.02221 0
M  V30 2442 C 239.553 1.43907 -1.30401 0
M  V30 2443 O 238.828 1.90055 -0.413438 0
M  V30 2444 C 239.111 0.390291 -3.57979 0
M  V30 2445 C 238.964 -0.913014 -4.40436 0
M  V30 2446 C 240.283 1.16794 -4.2432 0
M  V30 2447 H 237.402 0.0541924 -0.735005 0
M  V30 2448 H 240.044 -0.554955 -1.81715 0
M  V30 2449 H 238.194 0.993491 -3.75582 0
M  V30 2450 H 239.866 -1.54882 -4.34522 0
M  V30 2451 H 238.109 -1.52168 -4.06236 0
M  V30 2452 H 238.78 -0.701361 -5.47526 0
M  V30 2453 H 241.256 0.657161 -4.10878 0
M  V30 2454 H 240.132 1.3026 -5.3322 0
M  V30 2455 H 240.393 2.19132 -3.83971 0
M  V30 2456 N 239.452 1.56882 -0.150215 0
M  V30 2457 C 240.384 2.14057 0.819286 0
M  V30 2458 C 241.397 1.09082 1.20851 0
M  V30 2459 O 242.586 1.36347 1.15203 0
M  V30 2460 C 239.686 2.65102 2.11127 0
M  V30 2461 C 238.859 3.94511 1.88891 0
M  V30 2462 C 237.918 4.30834 3.02107 0
M  V30 2463 O 236.944 4.99099 2.73659 0
M  V30 2464 N 238.146 3.90676 4.29363 0
M  V30 2465 H 240.911 2.97871 0.330618 0
M  V30 2466 H 238.472 1.61866 0.0332538 0
M  V30 2467 H 240.464 2.86411 2.85921 0
M  V30 2468 H 239.034 1.85994 2.51247 0
M  V30 2469 H 238.254 3.81795 0.981152 0
M  V30 2470 H 239.542 4.7907 1.71376 0
M  V30 2471 H 238.94 3.35677 4.55343 0
M  V30 2472 H 237.497 4.1703 5.00928 0
M  V30 2473 N 240.93 -0.123565 1.57115 0
M  V30 2474 C 241.877 -1.15177 2.00007 0
M  V30 2475 C 242.847 -1.41403 0.871454 0
M  V30 2476 O 244.032 -1.53346 1.13533 0
M  V30 2477 C 241.172 -2.47436 2.40561 0
M  V30 2478 C 240.285 -2.28184 3.66819 0
M  V30 2479 C 239.42 -3.53641 3.96373 0
M  V30 2480 C 238.459 -3.29528 5.15827 0
M  V30 2481 N 237.596 -4.47175 5.41275 0
M  V30 2482 H 242.436 -0.779008 2.87638 0
M  V30 2483 H 239.973 -0.373166 1.42288 0
M  V30 2484 H 241.931 -3.24584 2.62109 0
M  V30 2485 H 240.561 -2.82614 1.55978 0
M  V30 2486 H 239.613 -1.41976 3.52912 0
M  V30 2487 H 240.925 -2.0634 4.5412 0
M  V30 2488 H 240.079 -4.39209 4.18545 0
M  V30 2489 H 238.818 -3.78512 3.07538 0
M  V30 2490 H 237.823 -2.42349 4.93505 0
M  V30 2491 H 239.048 -3.06031 6.06236 0
M  V30 2492 H 236.994 -4.72175 4.55397 0
M  V30 2493 H 236.911 -4.28419 6.22891 0
M  V30 2494 H 238.179 -5.3389 5.67963 0
M  V30 2495 N 242.408 -1.52605 -0.393616 0
M  V30 2496 C 243.371 -1.76415 -1.46323 0
M  V30 2497 C 244.371 -0.634126 -1.47768 0
M  V30 2498 O 245.561 -0.902142 -1.4902 0
M  V30 2499 C 242.693 -1.8607 -2.85641 0
M  V30 2500 H 243.886 -2.71916 -1.26498 0
M  V30 2501 H 241.439 -1.43257 -0.625073 0
M  V30 2502 H 242.174 -0.925378 -3.10817 0
M  V30 2503 H 241.959 -2.68235 -2.85993 0
M  V30 2504 H 243.449 -2.06179 -3.63153 0
M  V30 2505 N 243.887 0.651787 -1.4349 0
M  V30 2506 C 245.133 1.41376 -1.45398 0
M  V30 2507 C 245.466 1.94041 -0.0784823 0
M  V30 2508 O 244.741 1.72379 0.900878 0
M  V30 2509 C 245.024 2.59414 -2.49752 0
M  V30 2510 C 244.877 2.12232 -3.96582 0
M  V30 2511 C 246.196 3.61626 -2.50827 0
M  V30 2512 H 243.315 0.512719 -0.529422 0
M  V30 2513 H 245.957 0.738796 -1.75048 0
M  V30 2514 H 244.107 3.16997 -2.246 0
M  V30 2515 H 245.779 1.59639 -4.32797 0
M  V30 2516 H 244.022 1.43592 -4.09346 0
M  V30 2517 H 244.693 2.9712 -4.65214 0
M  V30 2518 H 247.169 3.13805 -2.7325 0
M  V30 2519 H 246.045 4.41766 -3.25783 0
M  V30 2520 H 246.306 4.14314 -1.5426 0
M  V30 2521 N 245.365 1.30045 0.890287 0
M  V30 2522 C 246.297 1.11786 2.00091 0
M  V30 2523 C 247.31 0.0626307 1.62679 0
M  V30 2524 O 248.499 0.308112 1.75821 0
M  V30 2525 C 245.599 0.681527 3.31977 0
M  V30 2526 C 244.772 1.81735 3.97858 0
M  V30 2527 C 243.831 1.37045 5.08041 0
M  V30 2528 O 242.857 2.07677 5.29961 0
M  V30 2529 N 244.059 0.246525 5.79976 0
M  V30 2530 H 246.824 2.07441 2.16306 0
M  V30 2531 H 244.385 1.2211 1.06305 0
M  V30 2532 H 246.377 0.365675 4.03045 0
M  V30 2533 H 244.947 -0.182828 3.12065 0
M  V30 2534 H 244.167 2.30159 3.20032 0
M  V30 2535 H 245.455 2.57865 4.38615 0
M  V30 2536 H 244.853 -0.34215 5.64664 0
M  V30 2537 H 243.41 -0.00990438 6.51799 0
M  V30 2538 N 246.843 -1.10192 1.12674 0
M  V30 2539 C 248.073 -1.85713 0.905213 0
M  V30 2540 C 248.481 -1.81056 -0.549108 0
M  V30 2541 O 247.824 -1.19927 -1.39151 0
M  V30 2542 C 247.886 -3.34972 1.30516 0
M  V30 2543 C 247.55 -3.63385 2.77129 0
M  V30 2544 C 248.547 -3.59772 3.75313 0
M  V30 2545 C 246.232 -3.91981 3.14096 0
M  V30 2546 C 248.226 -3.84354 5.08479 0
M  V30 2547 C 245.913 -4.16218 4.47443 0
M  V30 2548 C 246.911 -4.12395 5.44444 0
M  V30 2549 O 246.599 -4.36014 6.75387 0
M  V30 2550 H 246.331 -0.593719 0.323223 0
M  V30 2551 H 248.885 -1.40198 1.50112 0
M  V30 2552 H 247.115 -3.81156 0.652463 0
M  V30 2553 H 248.804 -3.91886 1.05736 0
M  V30 2554 H 249.57 -3.37716 3.48099 0
M  V30 2555 H 245.449 -3.94085 2.39202 0
M  V30 2556 H 248.993 -3.81285 5.84181 0
M  V30 2557 H 244.89 -4.37754 4.74386 0
M  V30 2558 H 245.658 -4.53516 6.8137 0
M  V30 2559 N 248.321 -0.919034 -1.28029 0
M  V30 2560 C 249.549 -0.570971 -1.98866 0
M  V30 2561 C 249.964 0.848996 -1.68634 0
M  V30 2562 O 249.321 1.56307 -0.942036 0
M  V30 2563 C 249.372 -0.776876 -3.53054 0
M  V30 2564 O 249.093 -2.14097 -3.82222 0
M  V30 2565 C 250.594 -0.436356 -4.41147 0
M  V30 2566 H 247.814 -0.217175 -0.634883 0
M  V30 2567 H 250.358 -1.23368 -1.63097 0
M  V30 2568 H 248.513 -0.161085 -3.87065 0
M  V30 2569 H 248.927 -2.18455 -4.76841 0
M  V30 2570 H 250.401 -0.63117 -5.4838 0
M  V30 2571 H 250.878 0.627686 -4.34692 0
M  V30 2572 H 251.484 -1.02991 -4.12641 0
M  V30 2573 N 249.799 1.42003 -0.683588 0
M  V30 2574 C 250.729 2.33487 -0.024866 0
M  V30 2575 C 251.71 1.51163 0.779975 0
M  V30 2576 O 252.895 1.79739 0.735362 0
M  V30 2577 C 250.025 3.3487 0.920836 0
M  V30 2578 C 248.979 4.27414 0.223958 0
M  V30 2579 C 248.305 5.19074 1.2832 0
M  V30 2580 C 249.605 5.14445 -0.90242 0
M  V30 2581 H 251.299 2.88819 -0.788921 0
M  V30 2582 H 248.845 1.38873 -0.38083 0
M  V30 2583 H 250.798 3.97787 1.39081 0
M  V30 2584 H 249.522 2.77861 1.71642 0
M  V30 2585 H 248.181 3.65904 -0.225864 0
M  V30 2586 H 247.829 4.58387 2.071 0
M  V30 2587 H 247.529 5.81822 0.821995 0
M  V30 2588 H 249.053 5.84867 1.75392 0
M  V30 2589 H 250.467 5.70998 -0.513272 0
M  V30 2590 H 248.864 5.86072 -1.28997 0
M  V30 2591 H 249.934 4.52322 -1.74737 0
M  V30 2592 N 251.277 0.427512 1.51691 0
M  V30 2593 C 252.688 -0.0378867 1.86662 0
M  V30 2594 C 253.039 -1.42819 1.34525 0
M  V30 2595 O 252.164 -2.05037 0.692014 0
M  V30 2596 C 252.759 -0.0755266 3.38716 0
M  V30 2597 C 251.318 -0.485309 3.73258 0
M  V30 2598 C 250.465 0.328399 2.75349 0
M  V30 2599 H 253.416 0.64379 1.45055 0
M  V30 2600 H 253.437 -0.887056 3.70016 0
M  V30 2601 H 252.949 0.936487 3.76632 0
M  V30 2602 H 251.05 -1.50329 3.40928 0
M  V30 2603 H 251.163 -0.21693 4.78609 0
M  V30 2604 H 249.527 -0.211905 2.53817 0
M  V30 2605 H 250.31 1.3391 3.16106 0
M  V30 2606 N 252.755 -1.56801 0.158532 0
M  V30 2607 C 253.98 -2.01295 -0.499516 0
M  V30 2608 C 254.405 -1.03799 -1.56867 0
M  V30 2609 O 253.763 -0.0155162 -1.81293 0
M  V30 2610 C 253.811 -3.44469 -1.06647 0
M  V30 2611 O 252.915 -3.50012 -2.18095 0
M  V30 2612 H 252.256 -0.652884 -0.12099 0
M  V30 2613 H 254.786 -2.02958 0.258661 0
M  V30 2614 H 254.796 -3.8351 -1.39227 0
M  V30 2615 H 253.471 -4.14932 -0.283581 0
M  V30 2616 H 252.048 -3.22822 -1.86656 0
M  V30 2617 N 254.233 0.115231 -1.57178 0
M  V30 2618 C 255.143 1.15994 -2.03918 0
M  V30 2619 C 256.159 1.45103 -0.960268 0
M  V30 2620 O 257.335 1.56144 -1.27204 0
M  V30 2621 C 254.4 2.46568 -2.43732 0
M  V30 2622 C 253.461 2.24822 -3.65723 0
M  V30 2623 C 252.694 3.4917 -4.03629 0
M  V30 2624 O 252.917 4.56623 -3.41835 0
M  V30 2625 O 251.851 3.39949 -4.96708 0
M  V30 2626 H 255.677 0.793019 -2.93164 0
M  V30 2627 H 253.262 0.3263 -1.45793 0
M  V30 2628 H 255.144 3.23492 -2.70057 0
M  V30 2629 H 253.819 2.82726 -1.57631 0
M  V30 2630 H 252.726 1.45744 -3.44542 0
M  V30 2631 H 254.059 1.93566 -4.52541 0
M  V30 2632 N 255.711 1.52812 0.385517 0
M  V30 2633 C 256.988 1.5861 1.14465 0
M  V30 2634 C 257.368 0.381402 2.07626 0
M  V30 2635 O 256.716 -0.629999 2.19643 0
M  V30 2636 C 256.926 2.92664 1.90128 0
M  V30 2637 C 258.274 3.46526 2.45367 0
M  V30 2638 O 259.298 2.94562 2.0028 0
M  V30 2639 O 258.157 4.37323 3.27736 0
M  V30 2640 H 255.251 0.639855 0.523941 0
M  V30 2641 H 257.797 1.65149 0.390389 0
M  V30 2642 H 256.569 3.71788 1.22022 0
M  V30 2643 H 256.192 2.89527 2.72507 0
M  V30 2644 N 257.189 -0.644168 1.43834 0
M  V30 2645 C 258.152 -1.73857 1.49353 0
M  V30 2646 C 259.152 -1.56315 0.377112 0
M  V30 2647 O 260.342 -1.62048 0.639226 0
M  V30 2648 C 257.474 -3.12819 1.35488 0
M  V30 2649 H 258.667 -1.70342 2.46827 0
M  V30 2650 H 256.22 -0.856652 1.30733 0
M  V30 2651 H 256.955 -3.2194 0.390569 0
M  V30 2652 H 256.74 -3.26958 2.16428 0
M  V30 2653 H 258.23 -3.92606 1.42302 0
M  V30 2654 N 258.668 -1.30515 -0.883378 0
M  V30 2655 C 259.598 -1.19607 -2.00541 0
M  V30 2656 C 260.579 -0.086346 -1.69881 0
M  V30 2657 O 261.764 -0.268654 -1.92333 0
M  V30 2658 C 258.894 -0.888758 -3.35736 0
M  V30 2659 C 257.848 -1.95659 -3.8066 0
M  V30 2660 C 257.174 -1.50224 -5.13164 0
M  V30 2661 C 258.474 -3.36788 -3.99213 0
M  V30 2662 H 260.168 -2.13476 -2.09925 0
M  V30 2663 H 257.714 -1.02775 -1.00863 0
M  V30 2664 H 259.667 -0.799094 -4.13754 0
M  V30 2665 H 258.391 0.0856125 -3.26488 0
M  V30 2666 H 257.05 -2.03591 -3.04871 0
M  V30 2667 H 256.698 -0.516092 -5.00345 0
M  V30 2668 H 256.398 -2.2165 -5.44192 0
M  V30 2669 H 257.922 -1.42639 -5.93706 0
M  V30 2670 H 259.336 -3.31605 -4.67665 0
M  V30 2671 H 257.733 -4.06314 -4.41621 0
M  V30 2672 H 258.803 -3.78561 -3.03017 0
M  V30 2673 N 260.146 1.09593 -1.13257 0
M  V30 2674 C 261.056 2.19739 -0.821691 0
M  V30 2675 C 262.072 1.72926 0.19302 0
M  V30 2676 O 263.248 2.01385 0.0244895 0
M  V30 2677 C 260.313 3.45482 -0.290333 0
M  V30 2678 C 259.374 4.06985 -1.36607 0
M  V30 2679 C 258.607 5.26726 -0.859975 0
M  V30 2680 O 258.83 5.69594 0.303082 0
M  V30 2681 O 257.764 5.7931 -1.63351 0
M  V30 2682 H 261.59 2.48781 -1.74189 0
M  V30 2683 H 259.175 1.18496 -0.909894 0
M  V30 2684 H 261.057 4.214 0.000674022 0
M  V30 2685 H 259.732 3.18047 0.602306 0
M  V30 2686 H 258.639 3.32712 -1.71037 0
M  V30 2687 H 259.972 4.38643 -2.23279 0
M  V30 2688 N 261.624 0.925811 1.2754 0
M  V30 2689 C 262.571 0.422045 2.26908 0
M  V30 2690 C 263.541 -0.510029 1.58076 0
M  V30 2691 O 264.726 -0.429599 1.85901 0
M  V30 2692 C 261.866 -0.320837 3.43605 0
M  V30 2693 C 260.979 0.64513 4.27156 0
M  V30 2694 C 260.114 -0.117405 5.3107 0
M  V30 2695 C 259.153 0.841391 6.0629 0
M  V30 2696 N 258.29 0.111604 7.02011 0
M  V30 2697 H 263.13 1.27441 2.69375 0
M  V30 2698 H 260.667 0.639697 1.32462 0
M  V30 2699 H 262.625 -0.76785 4.10073 0
M  V30 2700 H 261.255 -1.13745 3.02096 0
M  V30 2701 H 260.307 1.21067 3.6062 0
M  V30 2702 H 261.619 1.37797 4.79389 0
M  V30 2703 H 260.773 -0.624422 6.03478 0
M  V30 2704 H 259.512 -0.883219 4.79636 0
M  V30 2705 H 258.517 1.35967 5.32722 0
M  V30 2706 H 259.742 1.60696 6.59813 0
M  V30 2707 H 257.688 -0.635999 6.5291 0
M  V30 2708 H 257.605 0.784044 7.51923 0
M  V30 2709 H 258.873 -0.374823 7.78598 0
M  V30 2710 N 263.102 -1.41638 0.69111 0
M  V30 2711 C 264.065 -2.29178 0.0319786 0
M  V30 2712 C 265.065 -1.44153 -0.712496 0
M  V30 2713 O 266.255 -1.65354 -0.548053 0
M  V30 2714 C 263.387 -3.26952 -0.965161 0
M  V30 2715 H 264.58 -2.88959 0.802681 0
M  V30 2716 H 262.133 -1.4955 0.454356 0
M  V30 2717 H 262.868 -2.72142 -1.76378 0
M  V30 2718 H 262.653 -3.89685 -0.434522 0
M  V30 2719 H 264.143 -3.92561 -1.42428 0
M  V30 2720 N 264.58 -0.43555 -1.51462 0
M  V30 2721 C 265.996 -0.0877501 -1.59359 0
M  V30 2722 C 266.196 1.4027 -1.4466 0
M  V30 2723 O 265.252 2.17243 -1.28693 0
M  V30 2724 C 266.565 -0.606264 -2.94525 0
M  V30 2725 C 268.113 -0.566548 -3.0783 0
M  V30 2726 C 268.588 -1.06201 -4.45517 0
M  V30 2727 N 270.079 -1.01992 -4.51832 0
M  V30 2728 C 270.814 -1.37417 -5.5669 0
M  V30 2729 N 270.31 -1.80119 -6.68976 0
M  V30 2730 N 272.103 -1.29245 -5.47039 0
M  V30 2731 H 264.254 -1.40533 -1.59261 0
M  V30 2732 H 266.517 -0.578992 -0.750648 0
M  V30 2733 H 266.223 -1.64901 -3.10645 0
M  V30 2734 H 266.097 -0.0302097 -3.77188 0
M  V30 2735 H 268.484 0.467208 -2.91378 0
M  V30 2736 H 268.565 -1.17898 -2.2701 0
M  V30 2737 H 268.209 -2.09422 -4.62715 0
M  V30 2738 H 268.139 -0.426127 -5.24873 0
M  V30 2739 H 270.63 -0.706308 -3.71241 0
M  V30 2740 H 270.943 -2.05392 -7.45006 0
M  V30 2741 H 269.288 -1.84044 -6.70189 0
M  V30 2742 H 272.479 -0.957522 -4.58202 0
M  V30 2743 H 272.652 -1.57182 -6.28648 0
M  V30 2744 N 266.058 1.56714 -0.166846 0
M  V30 2745 C 267.474 1.58473 0.189372 0
M  V30 2746 C 267.674 1.18201 1.63189 0
M  V30 2747 O 266.73 0.891528 2.36237 0
M  V30 2748 C 268.043 3.00573 -0.0873872 0
M  V30 2749 C 269.591 3.1299 -0.0252443 0
M  V30 2750 C 270.066 4.57174 -0.274934 0
M  V30 2751 N 271.557 4.62665 -0.222553 0
M  V30 2752 C 272.292 5.72072 -0.389985 0
M  V30 2753 N 271.788 6.90054 -0.616229 0
M  V30 2754 N 273.581 5.61153 -0.326202 0
M  V30 2755 H 265.732 1.8118 -1.10849 0
M  V30 2756 H 267.995 0.839525 -0.440342 0
M  V30 2757 H 267.701 3.34497 -1.0865 0
M  V30 2758 H 267.575 3.72019 0.623037 0
M  V30 2759 H 269.962 2.78895 0.96444 0
M  V30 2760 H 270.043 2.43989 -0.768309 0
M  V30 2761 H 269.687 4.91976 -1.26181 0
M  V30 2762 H 269.617 5.24328 0.48869 0
M  V30 2763 H 272.108 3.77863 -0.0531512 0
M  V30 2764 H 272.421 7.69311 -0.733559 0
M  V30 2765 H 270.766 6.91927 -0.652791 0
M  V30 2766 H 273.957 4.67859 -0.150072 0
M  V30 2767 H 274.13 6.46364 -0.460116 0
M  V30 2768 N 267.536 -0.106894 1.57237 0
M  V30 2769 C 268.784 -0.810921 1.85117 0
M  V30 2770 C 269.105 -1.7984 0.753827 0
M  V30 2771 O 268.375 -1.94649 -0.221056 0
M  V30 2772 H 266.955 -0.302466 0.683025 0
M  V30 2773 H 269.617 -0.0913324 1.94686 0
M  V30 2774 H 268.713 -1.34875 2.81452 0
M  V30 2775 N 269.014 -1.53014 -0.377408 0
M  V30 2776 C 269.924 -1.81557 -1.48574 0
M  V30 2777 C 270.94 -0.703102 -1.59162 0
M  V30 2778 O 272.116 -0.99192 -1.75279 0
M  V30 2779 C 269.181 -1.9889 -2.83978 0
M  V30 2780 C 268.242 -3.22801 -2.83016 0
M  V30 2781 C 267.475 -3.39298 -4.11962 0
M  V30 2782 O 267.698 -2.60345 -5.0752 0
M  V30 2783 O 266.632 -4.32604 -4.18494 0
M  V30 2784 H 270.458 -2.75695 -1.27382 0
M  V30 2785 H 268.043 -1.38248 -0.566373 0
M  V30 2786 H 269.925 -2.11931 -3.6423 0
M  V30 2787 H 268.6 -1.07942 -3.05172 0
M  V30 2788 H 267.507 -3.15193 -2.01505 0
M  V30 2789 H 268.84 -4.13632 -2.66775 0
M  V30 2790 N 270.492 0.636531 -1.44174 0
M  V30 2791 C 271.455 1.73063 -1.50273 0
M  V30 2792 C 272.455 1.56113 -0.385397 0
M  V30 2793 O 273.645 1.61707 -0.64781 0
M  V30 2794 C 270.777 3.12096 -1.37145 0
M  V30 2795 H 271.97 1.69031 -2.47727 0
M  V30 2796 H 269.523 0.849706 -1.31186 0
M  V30 2797 H 270.258 3.21728 -0.407636 0
M  V30 2798 H 270.043 3.25805 -2.18159 0
M  V30 2799 H 271.533 3.91846 -1.44382 0
M  V30 2800 N 271.97 1.30982 0.876444 0
M  V30 2801 C 273.218 1.20058 1.62575 0
M  V30 2802 C 273.539 -0.242947 1.93481 0
M  V30 2803 O 272.809 -1.1619 1.57724 0
M  V30 2804 H 271.389 0.44135 0.602677 0
M  V30 2805 H 274.051 1.64222 1.04962 0
M  V30 2806 H 273.147 1.76762 2.57219 0
M  V30 2807 N 273.449 -1.08991 1.13837 0
M  V30 2808 C 274.726 -1.77863 0.813876 0
M  V30 2809 C 275.106 -1.99375 -0.693746 0
M  V30 2810 O 274.454 -1.59875 -1.63255 0
M  V30 2811 C 274.664 -3.0986 1.60586 0
M  V30 2812 C 276.012 -3.84493 1.8014 0
M  V30 2813 O 277.036 -3.19624 1.57222 0
M  V30 2814 O 275.895 -5.00957 2.18413 0
M  V30 2815 H 272.989 -0.771589 0.297624 0
M  V30 2816 H 275.535 -1.15507 1.24323 0
M  V30 2817 H 274.307 -2.89715 2.63022 0
M  V30 2818 H 273.93 -3.79942 1.17173 0
M  V30 2819 N 274.927 -0.932562 -1.27047 0
M  V30 2820 C 275.857 -0.452902 -2.29066 0
M  V30 2821 C 276.838 0.489338 -1.62909 0
M  V30 2822 O 278.023 0.393046 -1.90181 0
M  V30 2823 C 275.153 0.290698 -3.46081 0
M  V30 2824 C 274.107 -0.564168 -4.24265 0
M  V30 2825 C 273.433 0.308886 -5.33807 0
M  V30 2826 C 274.733 -1.83112 -4.89149 0
M  V30 2827 H 276.427 -1.30552 -2.69437 0
M  V30 2828 H 273.973 -0.629201 -1.29526 0
M  V30 2829 H 275.926 0.637233 -4.16554 0
M  V30 2830 H 274.65 1.17738 -3.0464 0
M  V30 2831 H 273.309 -0.893477 -3.55545 0
M  V30 2832 H 272.957 1.19467 -4.88607 0
M  V30 2833 H 272.657 -0.259633 -5.87026 0
M  V30 2834 H 274.181 0.650884 -6.07121 0
M  V30 2835 H 275.595 -1.55236 -5.51883 0
M  V30 2836 H 273.992 -2.34353 -5.52448 0
M  V30 2837 H 275.062 -2.54772 -4.12576 0
M  V30 2838 N 276.405 1.4127 -0.698611 0
M  V30 2839 C 277.633 2.05503 -0.239992 0
M  V30 2840 C 278.048 1.52584 1.11191 0
M  V30 2841 O 277.405 0.675323 1.69545 0
M  V30 2842 C 277.456 3.60987 -0.192429 0
M  V30 2843 O 277.177 4.1195 -1.49094 0
M  V30 2844 C 278.678 4.42371 0.28681 0
M  V30 2845 H 275.898 0.661748 -0.111045 0
M  V30 2846 H 278.442 1.80987 -0.95205 0
M  V30 2847 H 276.597 3.84533 0.470472 0
M  V30 2848 H 277.011 5.06018 -1.38007 0
M  V30 2849 H 278.485 5.51344 0.26896 0
M  V30 2850 H 278.962 4.18699 1.32619 0
M  V30 2851 H 279.568 4.23897 -0.345201 0
M  V30 2852 N 277.883 0.443576 1.51229 0
M  V30 2853 C 279.131 -0.120557 2.0174 0
M  V30 2854 C 279.452 -1.42665 1.32935 0
M  V30 2855 O 278.722 -1.9028 0.465866 0
M  V30 2856 H 277.302 -0.0475426 0.745486 0
M  V30 2857 H 279.964 0.587711 1.85828 0
M  V30 2858 H 279.06 -0.291972 3.10731 0
M  V30 2859 N 279.361 -1.56624 0.175154 0
M  V30 2860 C 280.308 -2.18149 -0.753634 0
M  V30 2861 C 281.278 -1.12265 -1.22417 0
M  V30 2862 O 282.463 -1.40432 -1.29165 0
M  V30 2863 C 279.603 -2.82933 -1.97592 0
M  V30 2864 C 278.716 -4.03289 -1.5486 0
M  V30 2865 C 277.851 -4.55988 -2.72485 0
M  V30 2866 C 276.89 -5.68746 -2.26262 0
M  V30 2867 N 276.027 -6.15938 -3.36994 0
M  V30 2868 H 280.867 -2.9717 -0.222195 0
M  V30 2869 H 278.404 -1.46774 -0.0979422 0
M  V30 2870 H 280.362 -3.18653 -2.69288 0
M  V30 2871 H 278.992 -2.06509 -2.481 0
M  V30 2872 H 278.044 -3.73364 -0.728246 0
M  V30 2873 H 279.356 -4.849 -1.16933 0
M  V30 2874 H 278.51 -4.9391 -3.52332 0
M  V30 2875 H 277.249 -3.73443 -3.13674 0
M  V30 2876 H 276.254 -5.30372 -1.44863 0
M  V30 2877 H 277.479 -6.53095 -1.86127 0
M  V30 2878 H 275.425 -5.36321 -3.77751 0
M  V30 2879 H 275.342 -6.92548 -3.03172 0
M  V30 2880 H 276.61 -6.58511 -4.17114 0
M  V30 2881 N 280.839 0.0985539 -1.57292 0
M  V30 2882 C 281.771 1.14595 -1.98496 0
M  V30 2883 C 282.784 1.36512 -0.887031 0
M  V30 2884 O 283.973 1.35225 -1.16518 0
M  V30 2885 C 281.073 2.50216 -2.28572 0
M  V30 2886 C 280.246 2.48624 -3.59868 0
M  V30 2887 C 279.305 3.66146 -3.7792 0
M  V30 2888 O 278.331 3.48795 -4.49812 0
M  V30 2889 N 279.533 4.85496 -3.18235 0
M  V30 2890 H 282.298 0.795277 -2.88956 0
M  V30 2891 H 279.859 0.287579 -1.59325 0
M  V30 2892 H 281.851 3.27432 -2.37845 0
M  V30 2893 H 280.421 2.77387 -1.44136 0
M  V30 2894 H 279.641 1.56978 -3.61596 0
M  V30 2895 H 280.929 2.44635 -4.46129 0
M  V30 2896 H 280.327 5.02497 -2.59833 0
M  V30 2897 H 278.884 5.60317 -3.32999 0
M  V30 2898 N 282.317 1.53212 0.369288 0
M  V30 2899 C 283.545 1.73119 1.13303 0
M  V30 2900 C 283.96 0.458455 1.83149 0
M  V30 2901 O 283.317 -0.568403 1.73423 0
M  V30 2902 C 283.368 2.89413 2.16616 0
M  V30 2903 O 283.089 4.11761 1.49614 0
M  V30 2904 C 284.59 3.21161 3.05566 0
M  V30 2905 H 281.81 0.579107 0.338934 0
M  V30 2906 H 284.354 1.99942 0.429338 0
M  V30 2907 H 282.509 2.64994 2.82589 0
M  V30 2908 H 282.923 4.76858 2.18419 0
M  V30 2909 H 284.397 4.05949 3.74045 0
M  V30 2910 H 284.874 2.36369 3.70171 0
M  V30 2911 H 285.48 3.47492 2.45213 0
M  V30 2912 N 283.795 -0.628877 1.44509 0
M  V30 2913 C 284.745 -1.7345 1.47983 0
M  V30 2914 C 285.729 -1.5715 0.345373 0
M  V30 2915 O 286.921 -1.66848 0.590829 0
M  V30 2916 C 284.05 -3.12143 1.42904 0
M  V30 2917 C 283.136 -3.33906 2.61472 0
M  V30 2918 N 283.527 -3.26024 3.86706 0
M  V30 2919 C 281.825 -3.64709 2.56716 0
M  V30 2920 C 282.526 -3.48536 4.65722 0
M  V30 2921 N 281.502 -3.71517 3.96832 0
M  V30 2922 H 285.304 -1.65818 2.42655 0
M  V30 2923 H 282.818 -0.831419 1.39503 0
M  V30 2924 H 284.815 -3.91433 1.43476 0
M  V30 2925 H 283.475 -3.2094 0.492717 0
M  V30 2926 H 284.486 -3.04893 4.18641 0
M  V30 2927 H 281.163 -3.80473 1.71891 0
M  V30 2928 H 282.553 -3.48016 5.74747 0
M  V30 2929 N 285.273 -1.31445 -0.869486 0
M  V30 2930 C 286.22 -1.19135 -1.97675 0
M  V30 2931 C 287.19 -0.0770266 -1.65921 0
M  V30 2932 O 288.375 -0.249972 -1.89155 0
M  V30 2933 C 285.515 -0.905149 -3.33018 0
M  V30 2934 C 284.628 -2.10285 -3.77365 0
M  V30 2935 C 283.763 -1.75339 -5.01427 0
M  V30 2936 C 282.802 -2.91515 -5.38224 0
M  V30 2937 N 281.939 -2.56762 -6.53466 0
M  V30 2938 H 286.779 -2.13853 -2.07535 0
M  V30 2939 H 284.316 -1.06379 -1.01597 0
M  V30 2940 H 286.274 -0.719765 -4.10944 0
M  V30 2941 H 284.904 0.00519624 -3.228 0
M  V30 2942 H 283.956 -2.39899 -2.95216 0
M  V30 2943 H 285.268 -2.97237 -4.00564 0
M  V30 2944 H 284.422 -1.53266 -5.87022 0
M  V30 2945 H 283.161 -0.855801 -4.80133 0
M  V30 2946 H 282.166 -3.14237 -4.51149 0
M  V30 2947 H 283.391 -3.81985 -5.61484 0
M  V30 2948 H 281.337 -1.69526 -6.33717 0
M  V30 2949 H 281.254 -3.37243 -6.76612 0
M  V30 2950 H 282.522 -2.38083 -7.42251 0
M  V30 2951 N 286.751 1.08385 -1.14413 0
M  V30 2952 C 288.167 1.32844 -0.884563 0
M  V30 2953 C 288.367 1.95841 0.474181 0
M  V30 2954 O 287.423 2.21158 1.21842 0
M  V30 2955 C 288.736 2.22978 -2.01745 0
M  V30 2956 C 290.284 2.36458 -2.05077 0
M  V30 2957 C 290.759 3.29934 -3.1766 0
M  V30 2958 N 292.25 3.37511 -3.17239 0
M  V30 2959 C 292.985 4.09871 -4.0099 0
M  V30 2960 N 292.481 4.84936 -4.94781 0
M  V30 2961 N 294.274 4.05704 -3.89051 0
M  V30 2962 H 286.425 0.658756 -2.01926 0
M  V30 2963 H 288.688 0.352821 -0.879899 0
M  V30 2964 H 288.394 1.83934 -2.99769 0
M  V30 2965 H 288.268 3.23441 -1.94077 0
M  V30 2966 H 290.655 2.7476 -1.0766 0
M  V30 2967 H 290.736 1.35736 -2.16816 0
M  V30 2968 H 290.38 2.92352 -4.15322 0
M  V30 2969 H 290.31 4.30584 -3.03158 0
M  V30 2970 H 292.801 2.83996 -2.49308 0
M  V30 2971 H 293.114 5.37612 -5.55151 0
M  V30 2972 H 291.459 4.83988 -4.98779 0
M  V30 2973 H 294.65 3.46167 -3.15097 0
M  V30 2974 H 294.823 4.61834 -4.54547 0
M  V30 2975 N 288.23 0.939286 1.26551 0
M  V30 2976 C 289.162 0.404704 2.25599 0
M  V30 2977 C 290.175 -0.470983 1.55838 0
M  V30 2978 O 291.364 -0.281734 1.76263 0
M  V30 2979 C 288.464 -0.43764 3.36062 0
M  V30 2980 C 287.637 0.421449 4.35365 0
M  V30 2981 C 286.696 -0.36015 5.24966 0
M  V30 2982 O 285.722 0.236167 5.6871 0
M  V30 2983 N 286.924 -1.65715 5.56344 0
M  V30 2984 H 289.689 1.25618 2.72103 0
M  V30 2985 H 287.25 0.807963 1.40298 0
M  V30 2986 H 289.242 -0.967866 3.92956 0
M  V30 2987 H 287.812 -1.18991 2.89067 0
M  V30 2988 H 287.032 1.1329 3.7757 0
M  V30 2989 H 288.32 1.00835 4.98708 0
M  V30 2990 H 287.718 -2.16378 5.22682 0
M  V30 2991 H 286.275 -2.13366 6.15888 0
M  V30 2992 N 289.708 -1.40897 0.706093 0
M  V30 2993 C 290.948 -2.02916 0.245827 0
M  V30 2994 C 291.312 -1.54751 -1.13649 0
M  V30 2995 O 292.513 -2.08768 -1.69321 0
M  V30 2996 C 290.784 -3.56031 0.312537 0
M  V30 2997 S 292.343 -4.38741 -0.0721388 0
M  V30 2998 H 289.161 -0.704186 0.0982007 0
M  V30 2999 H 291.763 -1.72168 0.926207 0
M  V30 3000 H 290.467 -3.88579 1.32039 0
M  V30 3001 H 289.998 -3.91495 -0.386641 0
M  V30 3002 H 292.013 -4.78952 -1.29692 0
M  V30 3003 N 291.186 -0.45159 -1.50991 0
M  V30 3004 C 292.433 0.110074 -2.02201 0
M  V30 3005 C 292.761 1.4146 -1.33489 0
M  V30 3006 O 292.016 1.90617 -0.443125 0
M  V30 3007 C 292.315 0.361728 -3.55565 0
M  V30 3008 C 291.981 -0.858717 -4.42648 0
M  V30 3009 C 290.643 -1.19338 -4.66167 0
M  V30 3010 C 292.995 -1.67221 -4.93646 0
M  V30 3011 C 290.323 -2.34195 -5.37931 0
M  V30 3012 C 292.675 -2.8119 -5.6667 0
M  V30 3013 C 291.339 -3.15094 -5.88449 0
M  V30 3014 H 290.609 0.040279 -0.739904 0
M  V30 3015 H 293.256 -0.601696 -1.81802 0
M  V30 3016 H 291.561 1.15554 -3.74372 0
M  V30 3017 H 293.258 0.80996 -3.92735 0
M  V30 3018 H 289.848 -0.58796 -4.24548 0
M  V30 3019 H 294.032 -1.42686 -4.75347 0
M  V30 3020 H 289.288 -2.6076 -5.53005 0
M  V30 3021 H 293.462 -3.44585 -6.05173 0
M  V30 3022 H 291.089 -4.04204 -6.43835 0
M  V30 3023 N 292.664 1.56529 -0.183458 0
M  V30 3024 C 293.91 1.97537 0.459036 0
M  V30 3025 C 294.243 1.06989 1.62071 0
M  V30 3026 O 293.518 0.11948 1.94133 0
M  V30 3027 C 293.801 3.47874 0.930368 0
M  V30 3028 C 293.654 4.492 -0.232317 0
M  V30 3029 C 294.973 4.01612 1.79989 0
M  V30 3030 H 292.092 0.718204 0.165383 0
M  V30 3031 H 294.734 1.88042 -0.272038 0
M  V30 3032 H 292.884 3.56095 1.55333 0
M  V30 3033 H 294.556 4.53027 -0.86972 0
M  V30 3034 H 292.799 4.24657 -0.885928 0
M  V30 3035 H 293.47 5.51823 0.139796 0
M  V30 3036 H 295.946 3.96097 1.27461 0
M  V30 3037 H 294.822 5.07195 2.09867 0
M  V30 3038 H 295.083 3.46163 2.74998 0
M  V30 3039 N 294.142 -0.090211 1.57342 0
M  V30 3040 C 295.388 -0.793982 1.86611 0
M  V30 3041 C 295.721 -1.78142 0.773252 0
M  V30 3042 O 294.996 -1.93271 -0.218304 0
M  V30 3043 C 295.279 -1.51839 3.26523 0
M  V30 3044 C 295.132 -0.548609 4.46442 0
M  V30 3045 C 296.451 -2.46779 3.64401 0
M  V30 3046 H 293.57 -0.287186 0.678744 0
M  V30 3047 H 296.212 -0.0575076 1.89913 0
M  V30 3048 H 294.362 -2.14617 3.23839 0
M  V30 3049 H 296.034 0.0725513 4.61243 0
M  V30 3050 H 294.277 0.137614 4.33582 0
M  V30 3051 H 294.948 -1.09271 5.41076 0
M  V30 3052 H 297.424 -1.94089 3.68061 0
M  V30 3053 H 296.3 -2.94479 4.63221 0
M  V30 3054 H 296.561 -3.30758 2.93346 0
M  V30 3055 N 295.62 -1.53406 -0.361157 0
M  V30 3056 C 296.583 -1.79479 -1.42548 0
M  V30 3057 C 297.583 -0.665327 -1.4639 0
M  V30 3058 O 298.773 -0.933549 -1.47073 0
M  V30 3059 C 295.905 -1.92087 -2.8163 0
M  V30 3060 H 297.098 -2.74538 -1.20701 0
M  V30 3061 H 294.651 -1.4455 -0.594546 0
M  V30 3062 H 295.386 -0.991099 -3.08784 0
M  V30 3063 H 295.171 -2.74241 -2.80239 0
M  V30 3064 H 296.661 -2.13836 -3.58697 0
M  V30 3065 N 297.098 0.621204 -1.44841 0
M  V30 3066 C 298.375 1.38 -1.38619 0
M  V30 3067 C 298.755 2.11041 -0.0498935 0
M  V30 3068 O 298.103 2.06992 0.967816 0
M  V30 3069 C 298.313 2.33817 -2.59096 0
M  V30 3070 C 299.661 2.96844 -3.03593 0
M  V30 3071 O 300.685 2.44141 -2.59371 0
M  V30 3072 O 299.544 3.92476 -3.80296 0
M  V30 3073 H 296.638 0.61811 -0.549426 0
M  V30 3074 H 299.184 0.645429 -1.56947 0
M  V30 3075 H 297.956 1.79012 -3.47952 0
M  V30 3076 H 297.579 3.14676 -2.43032 0
M  V30 3077 N 298.576 1.31904 0.862503 0
M  V30 3078 C 299.539 1.20131 1.95195 0
M  V30 3079 C 300.539 0.126409 1.60302 0
M  V30 3080 O 301.729 0.376234 1.70089 0
M  V30 3081 C 298.861 0.845691 3.30244 0
M  V30 3082 H 300.054 2.16943 2.07064 0
M  V30 3083 H 297.607 1.15622 1.05172 0
M  V30 3084 H 298.342 -0.120957 3.24074 0
M  V30 3085 H 298.127 1.62276 3.56944 0
M  V30 3086 H 299.617 0.787418 4.10109 0
M  V30 3087 N 300.054 -1.07777 1.14986 0
M  V30 3088 C 301.017 -2.13041 0.845358 0
M  V30 3089 C 302.017 -1.60071 -0.152931 0
M  V30 3090 O 303.207 -1.74033 0.0761879 0
M  V30 3091 C 300.339 -3.39896 0.261383 0
M  V30 3092 H 301.532 -2.41485 1.77834 0
M  V30 3093 H 299.085 -1.23595 0.956757 0
M  V30 3094 H 299.82 -3.17091 -0.68 0
M  V30 3095 H 299.605 -3.79642 0.980514 0
M  V30 3096 H 301.095 -4.17548 0.0657687 0
M  V30 3097 N 301.532 -0.945985 -1.26051 0
M  V30 3098 C 302.809 -0.513816 -1.88731 0
M  V30 3099 C 303.189 1.00872 -1.8544 0
M  V30 3100 O 302.537 1.8708 -1.312 0
M  V30 3101 C 302.747 -1.08062 -3.31849 0
M  V30 3102 C 304.095 -1.1522 -4.08668 0
M  V30 3103 O 305.119 -1.03155 -3.40936 0
M  V30 3104 O 303.978 -1.34044 -5.29806 0
M  V30 3105 H 301.072 -0.168193 -0.809716 0
M  V30 3106 H 303.618 -1.03886 -1.34186 0
M  V30 3107 H 302.39 -2.1241 -3.2863 0
M  V30 3108 H 302.013 -0.538307 -3.93939 0
M  V30 3109 N 303.011 1.40521 -0.713556 0
M  V30 3110 C 303.961 2.27971 -0.036165 0
M  V30 3111 C 304.945 1.43151 0.734623 0
M  V30 3112 O 306.137 1.66261 0.607158 0
M  V30 3113 C 303.266 3.31661 0.886331 0
M  V30 3114 C 302.352 4.23955 0.110836 0
M  V30 3115 N 302.743 4.97641 -0.904847 0
M  V30 3116 C 301.041 4.44674 0.343692 0
M  V30 3117 C 301.742 5.65322 -1.37064 0
M  V30 3118 N 300.718 5.39162 -0.693168 0
M  V30 3119 H 304.52 2.82384 -0.814645 0
M  V30 3120 H 302.034 1.52948 -0.545963 0
M  V30 3121 H 304.031 3.93154 1.38692 0
M  V30 3122 H 302.691 2.78808 1.66421 0
M  V30 3123 H 303.702 5.01689 -1.28563 0
M  V30 3124 H 300.379 4.02801 1.09805 0
M  V30 3125 H 301.769 6.34359 -2.21447 0
M  V30 3126 N 304.489 0.459591 1.5075 0
M  V30 3127 C 305.399 -0.34613 2.32033 0
M  V30 3128 C 306.415 -1.00686 1.41909 0
M  V30 3129 O 307.591 -0.997361 1.7497 0
M  V30 3130 C 304.656 -1.42029 3.16273 0
M  V30 3131 C 303.717 -0.777362 4.22203 0
M  V30 3132 C 302.95 -1.80034 5.02418 0
M  V30 3133 O 303.173 -3.02544 4.83553 0
M  V30 3134 O 302.107 -1.37853 5.85901 0
M  V30 3135 H 305.933 0.318054 3.0203 0
M  V30 3136 H 303.518 0.221663 1.47746 0
M  V30 3137 H 305.4 -2.04275 3.68578 0
M  V30 3138 H 304.075 -2.06815 2.49016 0
M  V30 3139 H 302.982 -0.116256 3.73919 0
M  V30 3140 H 304.315 -0.172634 4.91897 0
M  V30 3141 N 305.967 -1.56429 0.191757 0
M  V30 3142 C 307.383 -1.58754 -0.164137 0
M  V30 3143 C 307.583 -1.20782 -1.61288 0
M  V30 3144 O 306.639 -0.928999 -2.34789 0
M  V30 3145 C 307.952 -3.00396 0.135195 0
M  V30 3146 C 309.5 -3.1291 0.0750351 0
M  V30 3147 C 309.975 -4.56679 0.347632 0
M  V30 3148 N 311.466 -4.62252 0.296131 0
M  V30 3149 C 312.201 -5.71379 0.480948 0
M  V30 3150 N 311.697 -6.88986 0.725933 0
M  V30 3151 N 313.49 -5.60563 0.415435 0
M  V30 3152 H 305.641 -1.79393 1.13718 0
M  V30 3153 H 307.904 -0.832414 0.453643 0
M  V30 3154 H 307.61 -3.32726 1.13958 0
M  V30 3155 H 307.484 -3.72963 -0.563773 0
M  V30 3156 H 309.871 -2.80394 -0.919948 0
M  V30 3157 H 309.952 -2.42736 0.807029 0
M  V30 3158 H 309.596 -4.89907 1.33992 0
M  V30 3159 H 309.526 -5.25039 -0.405212 0
M  V30 3160 H 312.017 -3.7773 0.113259 0
M  V30 3161 H 312.33 -7.68046 0.855857 0
M  V30 3162 H 310.675 -6.90801 0.762788 0
M  V30 3163 H 313.866 -4.67561 0.224486 0
M  V30 3164 H 314.039 -6.45551 0.562889 0
M  V30 3165 N 307.445 0.0818655 -1.57387 0
M  V30 3166 C 308.694 0.781681 -1.85937 0
M  V30 3167 C 309.007 1.79246 -0.782957 0
M  V30 3168 O 310.213 2.54112 -0.955987 0
M  V30 3169 C 308.669 1.44109 -3.29789 0
M  V30 3170 C 308.277 0.469396 -4.45534 0
M  V30 3171 C 310.021 2.12386 -3.67549 0
M  V30 3172 C 307.928 1.13415 -5.80423 0
M  V30 3173 H 306.858 0.295682 -0.693605 0
M  V30 3174 H 309.509 0.0348051 -1.83467 0
M  V30 3175 H 307.891 2.23588 -3.2684 0
M  V30 3176 H 309.065 -0.294856 -4.59856 0
M  V30 3177 H 307.38 -0.108383 -4.16259 0
M  V30 3178 H 309.977 2.62878 -4.65617 0
M  V30 3179 H 310.32 2.91877 -2.96839 0
M  V30 3180 H 310.853 1.39751 -3.72444 0
M  V30 3181 H 307.592 0.379771 -6.54399 0
M  V30 3182 H 307.112 1.8695 -5.69921 0
M  V30 3183 H 308.791 1.65686 -6.25426 0
M  V30 3184 N 308.923 1.53595 0.353017 0
M  V30 3185 C 309.833 1.83897 1.45667 0
M  V30 3186 C 310.849 0.728334 1.58023 0
M  V30 3187 O 312.025 1.01968 1.73679 0
M  V30 3188 C 309.09 2.03383 2.80778 0
M  V30 3189 C 308.151 3.27262 2.77845 0
M  V30 3190 C 307.384 3.45809 4.06512 0
M  V30 3191 O 307.607 2.68387 5.03314 0
M  V30 3192 O 306.541 4.39207 4.11559 0
M  V30 3193 H 310.367 2.77686 1.2298 0
M  V30 3194 H 307.952 1.39132 0.544308 0
M  V30 3195 H 309.834 2.17698 3.60812 0
M  V30 3196 H 308.509 1.12783 3.03417 0
M  V30 3197 H 307.416 3.18359 1.96465 0
M  V30 3198 H 308.749 4.17824 2.60161 0
M  V30 3199 N 310.401 -0.613514 1.45168 0
M  V30 3200 C 311.349 -1.74572 1.53712 0
M  V30 3201 C 312.343 -1.64426 0.407505 0
M  V30 3202 O 313.549 -1.70291 0.583176 0
M  V30 3203 H 309.924 -0.576641 0.48269 0
M  V30 3204 H 311.895 -1.64492 2.48968 0
M  V30 3205 C 310.644 -3.12943 1.51532 0
M  V30 3206 H 309.967 -3.21407 2.37776 0
M  V30 3207 H 311.407 -3.9201 1.61569 0
M  V30 3208 C 309.866 -3.36053 0.238798 0
M  V30 3209 O 310.396 -3.95837 -0.6838 0
M  V30 3210 N 308.602 -2.9028 0.136359 0
M  V30 3211 H 308.149 -2.41811 0.887999 0
M  V30 3212 H 308.107 -3.06116 -0.716944 0
M  V30 3213 N 311.879 -1.3236 -0.855495 0
M  V30 3214 C 313.156 -1.13491 -1.59309 0
M  V30 3215 C 313.536 0.30503 -2.08885 0
M  V30 3216 O 312.884 1.30151 -1.87811 0
M  V30 3217 C 313.094 -2.16176 -2.73987 0
M  V30 3218 C 314.442 -2.49463 -3.43589 0
M  V30 3219 O 315.466 -2.14715 -2.84211 0
M  V30 3220 O 314.325 -3.09027 -4.50738 0
M  V30 3221 H 311.419 -0.437887 -0.701559 0
M  V30 3222 H 313.965 -1.43887 -0.899696 0
M  V30 3223 H 312.737 -3.1297 -2.34873 0
M  V30 3224 H 312.36 -1.86769 -3.51003 0
M  V30 3225 N 313.357 1.07166 -1.15556 0
M  V30 3226 C 314.606 1.79181 -0.926132 0
M  V30 3227 C 314.919 1.87768 0.547967 0
M  V30 3228 O 316.125 2.56323 0.895036 0
M  V30 3229 C 314.581 3.22 -1.60761 0
M  V30 3230 C 314.189 3.21607 -3.11886 0
M  V30 3231 C 315.933 3.9861 -1.4598 0
M  V30 3232 C 313.84 4.59092 -3.72812 0
M  V30 3233 H 312.77 0.67154 -0.342856 0
M  V30 3234 H 315.421 1.2027 -1.3859 0
M  V30 3235 H 313.803 3.81115 -1.07553 0
M  V30 3236 H 314.977 2.72127 -3.71865 0
M  V30 3237 H 313.292 2.58495 -3.2645 0
M  V30 3238 H 315.889 5.00225 -1.88888 0
M  V30 3239 H 316.232 4.143 -0.407541 0
M  V30 3240 H 316.765 3.45996 -1.96295 0
M  V30 3241 H 313.504 4.48606 -4.77946 0
M  V30 3242 H 313.024 5.08803 -3.17616 0
M  V30 3243 H 314.703 5.28059 -3.73848 0
M  V30 3244 N 314.835 0.952656 1.25548 0
M  V30 3245 C 316.251 0.656769 1.4546 0
M  V30 3246 C 316.451 -0.78633 1.85524 0
M  V30 3247 O 315.507 -1.56183 1.98402 0
M  V30 3248 C 316.82 1.62801 2.52817 0
M  V30 3249 C 318.368 1.63897 2.66659 0
M  V30 3250 C 318.843 2.5978 3.77198 0
M  V30 3251 N 320.334 2.58133 3.84606 0
M  V30 3252 C 321.069 3.29003 4.69621 0
M  V30 3253 N 320.565 4.09339 5.58939 0
M  V30 3254 N 322.358 3.179 4.63569 0
M  V30 3255 H 314.509 1.88526 0.978344 0
M  V30 3256 H 316.772 0.810815 0.491206 0
M  V30 3257 H 316.478 2.65869 2.30232 0
M  V30 3258 H 316.352 1.38898 3.50695 0
M  V30 3259 H 318.739 0.615481 2.8861 0
M  V30 3260 H 318.82 1.91858 1.69187 0
M  V30 3261 H 318.464 3.62254 3.55997 0
M  V30 3262 H 318.394 2.29105 4.7415 0
M  V30 3263 H 320.885 1.99809 3.20757 0
M  V30 3264 H 321.198 4.6034 6.20731 0
M  V30 3265 H 319.543 4.13438 5.58654 0
M  V30 3266 H 322.734 2.54612 3.92798 0
M  V30 3267 H 322.907 3.73398 5.29602 0
M  V30 3268 N 316.313 -1.40141 0.720998 0
M  V30 3269 C 317.541 -2.05096 0.272656 0
M  V30 3270 C 317.956 -1.54334 -1.0875 0
M  V30 3271 O 317.313 -0.702211 -1.6845 0
M  V30 3272 C 317.364 -3.60636 0.249835 0
M  V30 3273 O 317.085 -4.09526 1.55629 0
M  V30 3274 C 318.586 -4.42772 -0.216396 0
M  V30 3275 H 315.806 -0.659897 0.121558 0
M  V30 3276 H 318.35 -1.79449 0.980723 0
M  V30 3277 H 316.505 -3.85232 -0.409237 0
M  V30 3278 H 316.919 -5.03758 1.4604 0
M  V30 3279 H 318.393 -5.51702 -0.181212 0
M  V30 3280 H 318.87 -4.20756 -1.25941 0
M  V30 3281 H 319.476 -4.23294 0.412596 0
M  V30 3282 N 317.792 -0.46758 -1.50504 0
M  V30 3283 C 318.725 0.374324 -2.25109 0
M  V30 3284 C 319.703 0.99921 -1.28275 0
M  V30 3285 O 320.887 1.03583 -1.57489 0
M  V30 3286 C 318.014 1.52419 -3.02467 0
M  V30 3287 C 317.06 1.01702 -4.14197 0
M  V30 3288 S 317.893 -0.0654477 -5.3546 0
M  V30 3289 C 319.049 1.08837 -6.16365 0
M  V30 3290 H 319.282 -0.258983 -2.9617 0
M  V30 3291 H 316.815 -0.252421 -1.52323 0
M  V30 3292 H 318.773 2.18322 -3.47628 0
M  V30 3293 H 317.434 2.129 -2.30938 0
M  V30 3294 H 316.627 1.87776 -4.67714 0
M  V30 3295 H 316.229 0.435757 -3.71453 0
M  V30 3296 H 318.521 2.00071 -6.47285 0
M  V30 3297 H 319.464 0.592538 -7.05616 0
M  V30 3298 H 319.872 1.34061 -5.4835 0
M  V30 3299 N 319.27 1.56325 -0.20005 0
M  V30 3300 C 320.681 1.8408 0.31167 0
M  V30 3301 C 321.032 1.12087 1.61031 0
M  V30 3302 O 320.157 0.38332 2.12978 0
M  V30 3303 C 320.752 3.33932 0.57226 0
M  V30 3304 C 319.311 3.6208 1.02834 0
M  V30 3305 C 318.458 2.77186 0.079634 0
M  V30 3306 H 321.409 1.52939 -0.423729 0
M  V30 3307 H 321.43 3.52971 1.42096 0
M  V30 3308 H 320.942 3.86303 -0.37308 0
M  V30 3309 H 319.043 3.15147 1.98778 0
M  V30 3310 H 319.156 4.7023 0.917624 0
M  V30 3311 H 317.52 2.47951 0.582448 0
M  V30 3312 H 318.303 3.32347 -0.860238 0
M  V30 3313 N 320.748 -0.0735177 1.57428 0
M  V30 3314 C 322.025 -0.805903 1.78226 0
M  V30 3315 C 322.405 -1.95874 0.787189 0
M  V30 3316 O 321.753 -2.2779 -0.180029 0
M  V30 3317 C 321.963 -1.28045 3.24662 0
M  V30 3318 C 323.311 -1.71453 3.88444 0
M  V30 3319 O 324.335 -1.37616 3.28543 0
M  V30 3320 O 323.194 -2.34093 4.93825 0
M  V30 3321 H 320.288 -0.386041 0.73137 0
M  V30 3322 H 322.834 -0.0537269 1.69615 0
M  V30 3323 H 321.606 -0.455476 3.8864 0
M  V30 3324 H 321.229 -2.094 3.37991 0
M  V30 3325 N 322.226 -1.5378 -0.344866 0
M  V30 3326 C 323.456 -1.74646 -1.10374 0
M  V30 3327 C 323.864 -0.48491 -1.8288 0
M  V30 3328 O 323.207 0.553062 -1.75177 0
M  V30 3329 C 323.269 -2.87145 -2.16306 0
M  V30 3330 C 322.933 -4.26795 -1.63386 0
M  V30 3331 C 323.93 -5.08412 -1.08688 0
M  V30 3332 C 321.615 -4.73276 -1.68272 0
M  V30 3333 C 323.609 -6.34609 -0.595792 0
M  V30 3334 C 321.296 -5.99446 -1.18776 0
M  V30 3335 C 322.294 -6.79946 -0.645215 0
M  V30 3336 O 321.982 -8.03745 -0.157626 0
M  V30 3337 H 321.714 -0.587112 -0.335075 0
M  V30 3338 H 324.268 -2.01403 -0.403252 0
M  V30 3339 H 322.498 -2.55909 -2.89909 0
M  V30 3340 H 324.187 -2.95992 -2.77747 0
M  V30 3341 H 324.953 -4.73666 -1.04236 0
M  V30 3342 H 320.832 -4.10677 -2.09442 0
M  V30 3343 H 324.376 -6.97389 -0.171654 0
M  V30 3344 H 320.273 -6.33687 -1.22928 0
M  V30 3345 H 321.041 -8.18038 -0.275037 0
M  V30 3346 N 323.704 0.605807 -1.45491 0
M  V30 3347 C 324.951 1.36476 -1.49601 0
M  V30 3348 C 325.279 1.94007 -0.138452 0
M  V30 3349 O 324.534 1.75638 0.863114 0
M  V30 3350 C 324.833 2.53012 -2.52428 0
M  V30 3351 C 324.499 2.13617 -3.97087 0
M  V30 3352 C 323.161 2.02587 -4.36477 0
M  V30 3353 C 325.513 1.82899 -4.88055 0
M  V30 3354 C 322.841 1.59064 -5.64726 0
M  V30 3355 C 325.193 1.40861 -6.16718 0
M  V30 3356 C 323.857 1.28391 -6.55036 0
M  V30 3357 H 323.127 0.499402 -0.547429 0
M  V30 3358 H 325.774 0.684546 -1.78847 0
M  V30 3359 H 324.079 3.26379 -2.16758 0
M  V30 3360 H 325.776 3.1124 -2.52845 0
M  V30 3361 H 322.366 2.23129 -3.65939 0
M  V30 3362 H 326.55 1.90317 -4.58359 0
M  V30 3363 H 321.806 1.48034 -5.93208 0
M  V30 3364 H 325.98 1.16138 -6.86648 0
M  V30 3365 H 323.607 0.944403 -7.54311 0
M  V30 3366 N 325.182 1.32811 0.848464 0
M  V30 3367 C 326.428 1.23907 1.60546 0
M  V30 3368 C 326.761 -0.197161 1.93197 0
M  V30 3369 O 326.036 -1.13596 1.5788 0
M  V30 3370 C 326.319 2.10489 2.92175 0
M  V30 3371 C 326.172 3.62522 2.66266 0
M  V30 3372 C 327.491 1.97075 3.93509 0
M  V30 3373 H 324.61 0.451459 0.58254 0
M  V30 3374 H 327.252 1.62818 0.979296 0
M  V30 3375 H 325.402 1.77434 3.45614 0
M  V30 3376 H 327.074 4.05821 2.19334 0
M  V30 3377 H 325.317 3.84879 2.00126 0
M  V30 3378 H 325.988 4.18437 3.6002 0
M  V30 3379 H 328.464 2.26045 3.49346 0
M  V30 3380 H 327.34 2.59923 4.83457 0
M  V30 3381 H 327.601 0.940186 4.31987 0
M  V30 3382 N 326.66 -1.06551 1.16123 0
M  V30 3383 C 327.908 -1.78947 0.939267 0
M  V30 3384 C 328.229 -1.87532 -0.534476 0
M  V30 3385 O 327.499 -1.38211 -1.38833 0
M  V30 3386 H 326.079 -0.662807 0.344523 0
M  V30 3387 H 328.741 -1.28725 1.46342 0
M  V30 3388 H 327.837 -2.81117 1.35572 0
M  V30 3389 N 328.138 -0.959301 -1.25041 0
M  V30 3390 C 329.368 -0.63303 -1.96663 0
M  V30 3391 C 329.776 0.800031 -1.71453 0
M  V30 3392 O 329.119 1.54736 -0.99008 0
M  V30 3393 C 329.181 -0.817523 -3.50081 0
M  V30 3394 C 328.845 -2.22863 -3.98975 0
M  V30 3395 C 329.842 -3.20569 -4.09306 0
M  V30 3396 C 327.527 -2.55407 -4.32519 0
M  V30 3397 C 329.521 -4.4891 -4.52503 0
M  V30 3398 C 327.208 -3.83976 -4.754 0
M  V30 3399 C 328.206 -4.8054 -4.85356 0
M  V30 3400 O 327.894 -6.06817 -5.27284 0
M  V30 3401 H 327.626 -0.235866 -0.633516 0
M  V30 3402 H 330.18 -1.2874 -1.60047 0
M  V30 3403 H 328.41 -0.105992 -3.86555 0
M  V30 3404 H 330.099 -0.491604 -4.02912 0
M  V30 3405 H 330.865 -2.96753 -3.83618 0
M  V30 3406 H 326.744 -1.8097 -4.23994 0
M  V30 3407 H 330.288 -5.24283 -4.60188 0
M  V30 3408 H 326.185 -4.07596 -5.00535 0
M  V30 3409 H 326.953 -6.10262 -5.45457 0
M  V30 3410 N 329.616 1.39756 -0.72842 0
M  V30 3411 C 330.526 2.34444 -0.0855374 0
M  V30 3412 C 331.542 1.57976 0.729356 0
M  V30 3413 O 332.718 1.90301 0.659346 0
M  V30 3414 C 329.783 3.36965 0.815798 0
M  V30 3415 C 328.844 4.29299 -0.0105996 0
M  V30 3416 C 328.077 5.26923 0.84781 0
M  V30 3417 O 328.3 5.30859 2.08673 0
M  V30 3418 O 327.234 6.01249 0.279969 0
M  V30 3419 H 331.06 2.91065 -0.866892 0
M  V30 3420 H 328.645 1.4117 -0.48902 0
M  V30 3421 H 330.527 3.99804 1.33171 0
M  V30 3422 H 329.202 2.82739 1.57608 0
M  V30 3423 H 328.109 3.69703 -0.571877 0
M  V30 3424 H 329.442 4.86712 -0.73295 0
M  V30 3425 N 331.094 0.475555 1.50254 0
M  V30 3426 C 332.34 -0.0780073 2.0265 0
M  V30 3427 C 332.673 -1.38968 1.35652 0
M  V30 3428 O 331.948 -1.8839 0.483691 0
M  V30 3429 C 332.231 -0.257161 3.59181 0
M  V30 3430 C 332.084 1.07585 4.36744 0
M  V30 3431 C 333.403 -1.00965 4.28362 0
M  V30 3432 H 330.522 -0.0268758 0.73651 0
M  V30 3433 H 333.164 0.622015 1.7953 0
M  V30 3434 H 331.314 -0.853412 3.79011 0
M  V30 3435 H 332.986 1.70902 4.28474 0
M  V30 3436 H 331.229 1.6714 4.00308 0
M  V30 3437 H 331.9 0.904088 5.44546 0
M  V30 3438 H 334.376 -0.504214 4.13034 0
M  V30 3439 H 333.252 -1.10381 5.37687 0
M  V30 3440 H 333.513 -2.04731 3.91839 0
M  V30 3441 N 332.573 -1.56217 0.208337 0
M  V30 3442 C 333.483 -2.23316 -0.718836 0
M  V30 3443 C 334.499 -1.23648 -1.22422 0
M  V30 3444 O 335.675 -1.56423 -1.26861 0
M  V30 3445 C 332.74 -2.88968 -1.91568 0
M  V30 3446 C 331.801 -4.03943 -1.45357 0
M  V30 3447 C 331.034 -4.66455 -2.59337 0
M  V30 3448 O 331.257 -4.27919 -3.77149 0
M  V30 3449 O 330.191 -5.55686 -2.31293 0
M  V30 3450 H 334.017 -3.03182 -0.177315 0
M  V30 3451 H 331.602 -1.49384 -0.0215402 0
M  V30 3452 H 333.484 -3.30455 -2.61491 0
M  V30 3453 H 332.159 -2.12071 -2.44556 0
M  V30 3454 H 331.066 -3.67052 -0.722746 0
M  V30 3455 H 332.399 -4.82543 -0.970219 0
M  V30 3456 N 334.051 0.0651679 -1.57465 0
M  V30 3457 C 335.297 0.764193 -1.87851 0
M  V30 3458 C 335.63 1.76889 -0.801495 0
M  V30 3459 O 334.905 1.93594 0.187528 0
M  V30 3460 C 335.188 1.46625 -3.28897 0
M  V30 3461 C 335.041 0.477515 -4.47258 0
M  V30 3462 C 336.36 2.4095 -3.68281 0
M  V30 3463 H 333.479 0.276351 -0.683227 0
M  V30 3464 H 336.121 0.0272868 -1.8998 0
M  V30 3465 H 334.271 2.09438 -3.27212 0
M  V30 3466 H 335.943 -0.145922 -4.61069 0
M  V30 3467 H 334.186 -0.206576 -4.33308 0
M  V30 3468 H 334.857 1.0065 -5.42746 0
M  V30 3469 H 337.333 1.88209 -3.71102 0
M  V30 3470 H 336.209 2.87072 -4.67847 0
M  V30 3471 H 336.47 3.26049 -2.98571 0
M  V30 3472 N 335.529 1.53961 0.336706 0
M  V30 3473 C 336.477 1.83136 1.43401 0
M  V30 3474 C 337.471 0.702313 1.54156 0
M  V30 3475 O 338.677 0.885765 1.56698 0
M  V30 3476 H 335.052 0.580309 0.478273 0
M  V30 3477 H 337.023 2.74925 1.16012 0
M  V30 3478 C 335.772 2.06385 2.79822 0
M  V30 3479 H 335.095 2.92718 2.72316 0
M  V30 3480 H 336.535 2.30761 3.55704 0
M  V30 3481 C 334.994 0.851414 3.25964 0
M  V30 3482 O 335.524 0.0541904 4.01663 0
M  V30 3483 N 333.73 0.66672 2.82848 0
M  V30 3484 H 333.277 1.31665 2.21409 0
M  V30 3485 H 333.235 -0.143032 3.14074 0
M  V30 3486 N 337.007 -0.598083 1.45811 0
M  V30 3487 C 338.254 -1.35681 1.50323 0
M  V30 3488 C 338.582 -1.9393 0.148739 0
M  V30 3489 O 337.837 -1.76094 -0.853787 0
M  V30 3490 C 338.136 -2.51669 2.53766 0
M  V30 3491 C 337.802 -2.11508 3.98215 0
M  V30 3492 C 336.464 -2.0027 4.37545 0
M  V30 3493 C 338.816 -1.80308 4.89018 0
M  V30 3494 C 336.144 -1.56067 5.65562 0
M  V30 3495 C 338.496 -1.37589 6.17456 0
M  V30 3496 C 337.16 -1.24916 6.55708 0
M  V30 3497 H 336.43 -0.496492 0.550069 0
M  V30 3498 H 339.077 -0.675052 1.79207 0
M  V30 3499 H 337.382 -3.25225 2.18486 0
M  V30 3500 H 339.079 -3.09895 2.54492 0
M  V30 3501 H 335.669 -2.21185 3.67117 0
M  V30 3502 H 339.853 -1.87884 4.59362 0
M  V30 3503 H 335.109 -1.44886 5.93985 0
M  V30 3504 H 339.283 -1.12495 6.87254 0
M  V30 3505 H 336.91 -0.904386 7.54801 0
M  V30 3506 N 338.485 -1.33259 -0.841409 0
M  V30 3507 C 339.734 -1.23921 -1.59143 0
M  V30 3508 C 340.047 0.1941 -1.94635 0
M  V30 3509 O 341.253 0.409474 -2.68394 0
M  V30 3510 C 339.709 -2.17119 -2.87032 0
M  V30 3511 C 339.317 -3.65606 -2.58914 0
M  V30 3512 C 341.061 -2.16648 -3.65053 0
M  V30 3513 C 338.968 -4.50726 -3.82884 0
M  V30 3514 H 337.898 -0.460264 -0.597221 0
M  V30 3515 H 340.549 -1.58307 -0.927959 0
M  V30 3516 H 338.931 -1.75663 -3.54906 0
M  V30 3517 H 340.105 -4.15487 -1.99267 0
M  V30 3518 H 338.42 -3.68341 -1.942 0
M  V30 3519 H 341.017 -2.77474 -4.57069 0
M  V30 3520 H 341.36 -1.16088 -3.99787 0
M  V30 3521 H 341.893 -2.56453 -3.041 0
M  V30 3522 H 338.632 -5.52151 -3.53283 0
M  V30 3523 H 338.152 -4.0559 -4.41879 0
M  V30 3524 H 339.831 -4.64401 -4.50489 0
M  V30 3525 N 339.963 1.05934 -1.16686 0
M  V30 3526 C 341.24 1.75643 -0.860747 0
M  V30 3527 C 341.62 2.01144 0.640641 0
M  V30 3528 O 340.968 1.64147 1.58959 0
M  V30 3529 C 341.178 3.05493 -1.68745 0
M  V30 3530 C 342.526 3.79581 -1.90271 0
M  V30 3531 O 343.55 3.15344 -1.65641 0
M  V30 3532 O 342.409 4.9499 -2.31618 0
M  V30 3533 H 339.503 0.763426 -0.317977 0
M  V30 3534 H 342.049 1.1217 -1.27342 0
M  V30 3535 H 340.821 2.8264 -2.70611 0
M  V30 3536 H 340.444 3.76702 -1.27206 0
M  V30 3537 N 341.441 0.965919 1.2453 0
M  V30 3538 C 342.351 0.502154 2.29163 0
M  V30 3539 C 343.367 -0.436017 1.68448 0
M  V30 3540 O 344.543 -0.309497 1.99008 0
M  V30 3541 C 341.608 -0.201956 3.46111 0
M  V30 3542 C 340.669 0.775821 4.22232 0
M  V30 3543 C 339.902 0.105217 5.33596 0
M  V30 3544 O 340.125 -1.10683 5.59558 0
M  V30 3545 O 339.059 0.796475 5.96607 0
M  V30 3546 H 342.885 1.37194 2.70946 0
M  V30 3547 H 340.47 0.732875 1.30189 0
M  V30 3548 H 342.352 -0.597564 4.17142 0
M  V30 3549 H 341.027 -1.04673 3.06309 0
M  V30 3550 H 339.934 1.22185 3.53584 0
M  V30 3551 H 341.267 1.58896 4.65846 0
M  V30 3552 N 342.919 -1.39368 0.735821 0
M  V30 3553 C 343.882 -2.2896 0.104874 0
M  V30 3554 C 344.882 -1.46347 -0.666274 0
M  V30 3555 O 346.072 -1.67014 -0.49517 0
M  V30 3556 C 343.204 -3.29857 -0.860656 0
M  V30 3557 H 344.397 -2.86259 0.894205 0
M  V30 3558 H 341.95 -1.48029 0.501704 0
M  V30 3559 H 342.685 -2.77615 -1.67631 0
M  V30 3560 H 342.47 -3.9087 -0.310327 0
M  V30 3561 H 343.96 -3.96893 -1.29867 0
M  V30 3562 N 344.397 -0.483516 -1.5 0
M  V30 3563 C 345.625 0.0644831 -2.06799 0
M  V30 3564 C 346.04 1.32399 -1.34596 0
M  V30 3565 O 345.397 1.77626 -0.418946 0
M  V30 3566 C 345.448 0.339927 -3.59898 0
M  V30 3567 O 345.169 -0.869635 -4.29382 0
M  V30 3568 C 346.67 0.933515 -4.33359 0
M  V30 3569 H 343.89 -0.0126333 -0.670881 0
M  V30 3570 H 346.434 -0.675864 -1.93009 0
M  V30 3571 H 344.589 1.03022 -3.7345 0
M  V30 3572 H 345.003 -0.62179 -5.20801 0
M  V30 3573 H 346.477 1.07593 -5.41413 0
M  V30 3574 H 346.954 1.92685 -3.94676 0
M  V30 3575 H 347.56 0.281221 -4.24369 0
M  V30 3576 N 345.875 1.56104 -0.216619 0
M  V30 3577 C 347.122 1.98172 0.416416 0
M  V30 3578 C 347.45 1.10413 1.60122 0
M  V30 3579 O 346.705 0.147967 1.9514 0
M  V30 3580 C 347.004 3.45923 0.898464 0
M  V30 3581 C 346.67 4.50559 -0.175288 0
M  V30 3582 C 345.332 4.78897 -0.470271 0
M  V30 3583 C 347.684 5.1334 -0.901728 0
M  V30 3584 C 345.012 5.67299 -1.4963 0
M  V30 3585 C 347.364 6.02853 -1.91705 0
M  V30 3586 C 346.028 6.29537 -2.21901 0
M  V30 3587 H 345.298 0.725164 0.152377 0
M  V30 3588 H 347.945 1.88839 -0.318103 0
M  V30 3589 H 346.25 3.52434 1.71165 0
M  V30 3590 H 347.947 3.75841 1.39803 0
M  V30 3591 H 344.537 4.28551 0.0647806 0
M  V30 3592 H 348.721 4.91521 -0.687072 0
M  V30 3593 H 343.977 5.86239 -1.73592 0
M  V30 3594 H 348.151 6.50552 -2.48505 0
M  V30 3595 H 345.778 6.97835 -3.01548 0
M  V30 3596 N 347.353 -0.0568162 1.57498 0
M  V30 3597 C 348.63 -0.786954 1.79071 0
M  V30 3598 C 349.01 -1.95028 0.80792 0
M  V30 3599 O 348.358 -2.27968 -0.155858 0
M  V30 3600 C 348.568 -1.24594 3.26002 0
M  V30 3601 C 349.916 -1.67323 3.90241 0
M  V30 3602 O 350.94 -1.34124 3.29984 0
M  V30 3603 O 349.799 -2.28842 4.9628 0
M  V30 3604 H 346.893 -0.378262 0.735423 0
M  V30 3605 H 349.439 -0.035734 1.69662 0
M  V30 3606 H 348.211 -0.41423 3.89101 0
M  V30 3607 H 347.834 -2.05803 3.40192 0
M  V30 3608 N 348.832 -1.54138 -0.328536 0
M  V30 3609 C 350.057 -1.76378 -1.09112 0
M  V30 3610 C 350.482 -0.508596 -1.81094 0
M  V30 3611 O 349.84 0.539598 -1.73084 0
M  V30 3612 C 349.888 -2.95358 -2.06872 0
M  V30 3613 O 348.992 -2.66556 -3.14677 0
M  V30 3614 H 348.333 -0.584614 -0.314838 0
M  V30 3615 H 350.863 -2.01146 -0.374348 0
M  V30 3616 H 350.873 -3.22566 -2.4983 0
M  V30 3617 H 349.548 -3.86385 -1.5388 0
M  V30 3618 H 348.125 -2.50282 -2.7643 0
M  V30 3619 N 350.31 0.590341 -1.46126 0
M  V30 3620 C 351.22 1.72793 -1.58681 0
M  V30 3621 C 352.236 1.67516 -0.470566 0
M  V30 3622 O 353.412 1.87562 -0.733642 0
M  V30 3623 C 350.477 3.09287 -1.5666 0
M  V30 3624 C 349.538 3.25886 -2.79458 0
M  V30 3625 C 348.771 4.55869 -2.77524 0
M  V30 3626 O 348.994 5.3928 -1.85832 0
M  V30 3627 O 347.928 4.75552 -3.68964 0
M  V30 3628 H 351.754 1.65149 -2.54872 0
M  V30 3629 H 349.339 0.756486 -1.28832 0
M  V30 3630 H 351.221 3.90577 -1.58202 0
M  V30 3631 H 349.896 3.17385 -0.636271 0
M  V30 3632 H 348.803 2.44119 -2.83472 0
M  V30 3633 H 350.136 3.22675 -3.71674 0
M  V30 3634 N 351.788 1.33704 0.83433 0
M  V30 3635 C 352.738 1.20899 1.93306 0
M  V30 3636 C 353.722 0.110783 1.60518 0
M  V30 3637 O 354.914 0.339331 1.73717 0
M  V30 3638 C 352.043 0.955018 3.29749 0
M  V30 3639 C 351.129 2.09587 3.68692 0
M  V30 3640 N 351.52 3.34621 3.79292 0
M  V30 3641 C 349.818 2.00358 3.98463 0
M  V30 3642 C 350.519 4.09472 4.13167 0
M  V30 3643 N 349.495 3.37954 4.25779 0
M  V30 3644 H 353.297 2.15665 1.99664 0
M  V30 3645 H 350.811 1.25777 1.02732 0
M  V30 3646 H 352.808 0.844208 4.08263 0
M  V30 3647 H 351.468 0.0159317 3.24696 0
M  V30 3648 H 352.479 3.69313 3.63082 0
M  V30 3649 H 349.156 1.14137 4.01596 0
M  V30 3650 H 350.546 5.17391 4.28668 0
M  V30 3651 N 353.266 -1.05314 1.17247 0
M  V30 3652 C 354.494 -1.81971 0.984593 0
M  V30 3653 C 354.909 -1.82929 -0.467166 0
M  V30 3654 O 354.266 -1.25564 -1.32438 0
M  V30 3655 C 354.317 -3.28143 1.51672 0
M  V30 3656 O 354.038 -3.27347 2.91163 0
M  V30 3657 C 355.539 -4.21493 1.37326 0
M  V30 3658 H 352.759 -0.573455 0.348411 0
M  V30 3659 H 355.303 -1.32808 1.55506 0
M  V30 3660 H 353.458 -3.74582 0.988302 0
M  V30 3661 H 353.872 -4.18824 3.15732 0
M  V30 3662 H 355.346 -5.22043 1.79375 0
M  V30 3663 H 355.823 -4.38031 0.320169 0
M  V30 3664 H 356.429 -3.80909 1.89178 0
M  V30 3665 N 354.744 -0.972509 -1.24016 0
M  V30 3666 C 355.992 -0.635776 -1.91839 0
M  V30 3667 C 356.313 0.832312 -1.76345 0
M  V30 3668 O 355.583 1.5946 -1.13795 0
M  V30 3669 H 354.163 -0.232157 -0.710009 0
M  V30 3670 H 356.825 -1.23462 -1.50809 0
M  V30 3671 H 355.921 -0.880545 -2.99421 0
M  V30 3672 N 356.222 1.38976 -0.743202 0
M  V30 3673 C 357.155 2.28128 -0.0572165 0
M  V30 3674 C 358.133 1.44827 0.739182 0
M  V30 3675 O 359.317 1.74207 0.720009 0
M  V30 3676 C 356.444 3.25796 0.926001 0
M  V30 3677 C 355.49 4.25947 0.217099 0
M  V30 3678 S 356.323 5.24604 -1.07477 0
M  V30 3679 C 357.479 6.25829 -0.0943545 0
M  V30 3680 H 357.712 2.85961 -0.813246 0
M  V30 3681 H 355.245 1.44822 -0.535341 0
M  V30 3682 H 357.203 3.82583 1.48797 0
M  V30 3683 H 355.864 2.66966 1.65493 0
M  V30 3684 H 355.057 4.94746 0.961372 0
M  V30 3685 H 354.659 3.73002 -0.273059 0
M  V30 3686 H 356.951 6.73411 0.743239 0
M  V30 3687 H 357.894 7.0412 -0.749713 0
M  V30 3688 H 358.302 5.63797 0.281706 0
M  V30 3689 N 357.7 0.491464 1.49741 0
M  V30 3690 C 359.111 0.0413169 1.86654 0
M  V30 3691 C 359.462 -1.36985 1.40462 0
M  V30 3692 O 358.587 -2.01917 0.778354 0
M  V30 3693 C 359.182 0.0682023 3.38731 0
M  V30 3694 C 357.741 -0.32656 3.74981 0
M  V30 3695 C 356.888 0.444888 2.73708 0
M  V30 3696 H 359.839 0.704733 1.42194 0
M  V30 3697 H 359.86 -0.729322 3.73445 0
M  V30 3698 H 359.372 1.09539 3.72321 0
M  V30 3699 H 357.473 -1.35734 3.46997 0
M  V30 3700 H 357.586 -0.013741 4.79098 0
M  V30 3701 H 355.95 -0.104062 2.54487 0
M  V30 3702 H 356.733 1.47197 3.10142 0
M  V30 3703 N 359.178 -1.55987 0.224894 0
M  V30 3704 C 360.128 -2.17076 -0.697296 0
M  V30 3705 C 361.112 -1.12006 -1.15514 0
M  V30 3706 O 362.304 -1.37985 -1.10857 0
M  V30 3707 C 359.433 -2.85679 -1.90374 0
M  V30 3708 C 358.519 -3.97977 -1.46543 0
M  V30 3709 N 358.91 -5.00359 -0.739909 0
M  V30 3710 C 357.208 -4.10128 -1.75245 0
M  V30 3711 C 357.909 -5.79407 -0.515939 0
M  V30 3712 N 356.885 -5.32892 -1.07364 0
M  V30 3713 H 360.687 -2.93592 -0.134594 0
M  V30 3714 H 358.201 -1.62379 0.0262885 0
M  V30 3715 H 360.198 -3.27857 -2.57518 0
M  V30 3716 H 358.858 -2.1066 -2.47088 0
M  V30 3717 H 359.869 -5.16412 -0.392253 0
M  V30 3718 H 356.546 -3.46263 -2.33255 0
M  V30 3719 H 357.936 -6.71872 0.0617349 0
M  V30 3720 N 360.656 0.0484629 -1.57525 0
M  V30 3721 C 361.904 0.741657 -1.88 0
M  V30 3722 C 362.225 1.76918 -0.820054 0
M  V30 3723 O 361.495 1.95335 0.148661 0
M  V30 3724 H 360.075 0.276908 -0.69378 0
M  V30 3725 H 362.737 0.019013 -1.94891 0
M  V30 3726 H 361.833 1.24336 -2.86264 0
M  V30 3727 N 362.134 1.5431 0.320358 0
M  V30 3728 C 363.382 1.72327 1.05583 0
M  V30 3729 C 363.703 0.50149 1.88441 0
M  V30 3730 O 362.973 -0.48448 1.89815 0
M  V30 3731 H 361.553 0.635387 0.3928 0
M  V30 3732 H 364.215 1.91621 0.356019 0
M  V30 3733 H 363.311 2.60426 1.72003 0
M  V30 3734 N 363.613 -0.582584 1.46437 0
M  V30 3735 C 364.563 -1.68654 1.53426 0
M  V30 3736 C 365.547 -1.55971 0.395194 0
M  V30 3737 O 366.739 -1.64884 0.643612 0
M  V30 3738 C 363.868 -3.07439 1.52762 0
M  V30 3739 C 362.954 -3.25418 2.71963 0
M  V30 3740 N 363.345 -3.13556 3.96883 0
M  V30 3741 C 361.643 -3.56357 2.68189 0
M  V30 3742 C 362.344 -3.33543 4.76575 0
M  V30 3743 N 361.32 -3.58704 4.08451 0
M  V30 3744 H 365.122 -1.58014 2.47808 0
M  V30 3745 H 362.636 -0.786617 1.42078 0
M  V30 3746 H 364.633 -3.86671 1.55857 0
M  V30 3747 H 363.293 -3.1921 0.594573 0
M  V30 3748 H 364.304 -2.9142 4.28129 0
M  V30 3749 H 360.981 -3.74812 1.83908 0
M  V30 3750 H 362.371 -3.29555 5.85528 0
M  V30 3751 N 365.091 -1.34144 -0.827227 0
M  V30 3752 C 366.337 -1.26446 -1.58554 0
M  V30 3753 C 366.67 0.1664 -1.93486 0
M  V30 3754 O 365.945 1.1107 -1.59667 0
M  V30 3755 C 366.228 -2.15111 -2.8879 0
M  V30 3756 C 366.081 -3.66712 -2.60465 0
M  V30 3757 C 367.4 -2.03311 -3.90324 0
M  V30 3758 H 364.519 -0.46067 -0.575284 0
M  V30 3759 H 367.161 -1.64356 -0.953269 0
M  V30 3760 H 365.311 -1.8291 -3.42748 0
M  V30 3761 H 366.983 -4.09259 -2.1285 0
M  V30 3762 H 365.226 -3.88014 -1.93978 0
M  V30 3763 H 365.897 -4.24112 -3.53317 0
M  V30 3764 H 368.373 -2.31574 -3.45706 0
M  V30 3765 H 367.249 -2.67582 -4.79261 0
M  V30 3766 H 367.51 -1.00879 -4.30437 0
M  V30 3767 N 366.569 1.04691 -1.17803 0
M  V30 3768 C 367.818 1.77176 -0.963931 0
M  V30 3769 C 368.131 1.88888 0.508015 0
M  V30 3770 O 369.337 2.58164 0.840465 0
M  V30 3771 C 367.793 3.18518 -1.67555 0
M  V30 3772 C 367.401 3.14919 -3.18637 0
M  V30 3773 C 369.145 3.95424 -1.54402 0
M  V30 3774 C 367.052 4.51081 -3.82466 0
M  V30 3775 H 365.982 0.664116 -0.357023 0
M  V30 3776 H 368.633 1.17303 -1.4111 0
M  V30 3777 H 367.015 3.78748 -1.15613 0
M  V30 3778 H 368.189 2.64178 -3.77554 0
M  V30 3779 H 366.504 2.51512 -3.31859 0
M  V30 3780 H 369.101 4.96106 -1.99456 0
M  V30 3781 H 369.444 4.13343 -0.495329 0
M  V30 3782 H 369.977 3.41754 -2.0359 0
M  V30 3783 H 366.716 4.38368 -4.87354 0
M  V30 3784 H 366.236 5.01951 -3.28337 0
M  V30 3785 H 367.915 5.2001 -3.84965 0
M  V30 3786 N 368.047 0.979072 1.23499 0
M  V30 3787 C 369.275 0.665202 1.95915 0
M  V30 3788 C 369.69 -0.767571 1.72493 0
M  V30 3789 O 369.047 -1.51635 1.01554 0
M  V30 3790 C 369.098 0.944438 3.48945 0
M  V30 3791 O 368.819 2.3209 3.71572 0
M  V30 3792 C 370.32 0.646336 4.38563 0
M  V30 3793 H 367.54 0.247218 0.623798 0
M  V30 3794 H 370.084 1.31009 1.57025 0
M  V30 3795 H 368.239 0.345575 3.85856 0
M  V30 3796 H 368.653 2.40957 4.65876 0
M  V30 3797 H 370.127 0.892091 5.44744 0
M  V30 3798 H 370.604 -0.419575 4.37191 0
M  V30 3799 H 371.21 1.22562 4.07258 0
M  V30 3800 N 369.525 -1.3858 0.750561 0
M  V30 3801 C 370.753 -2.04471 0.316098 0
M  V30 3802 C 371.168 -1.56606 -1.05452 0
M  V30 3803 O 370.525 -0.737784 -1.66922 0
M  V30 3804 C 370.576 -3.60025 0.326275 0
M  V30 3805 O 370.297 -4.06133 1.6428 0
M  V30 3806 C 371.798 -4.43131 -0.122429 0
M  V30 3807 H 369.018 -0.65717 0.135528 0
M  V30 3808 H 371.562 -1.77329 1.01857 0
M  V30 3809 H 369.717 -3.86014 -0.327431 0
M  V30 3810 H 370.131 -5.00547 1.56693 0
M  V30 3811 H 371.605 -5.51963 -0.0641473 0
M  V30 3812 H 372.082 -4.23333 -1.16988 0
M  V30 3813 H 372.688 -4.22323 0.50229 0
M  V30 3814 N 371.003 -0.499398 -1.49478 0
M  V30 3815 C 372.251 0.0455996 -2.02049 0
M  V30 3816 C 372.572 1.37633 -1.38138 0
M  V30 3817 O 371.842 1.8842 -0.536166 0
M  V30 3818 H 370.422 0.0198416 -0.746736 0
M  V30 3819 H 373.084 -0.656274 -1.83519 0
M  V30 3820 H 372.18 0.176445 -3.11601 0
M  V30 3821 N 372.481 1.55866 -0.233164 0
M  V30 3822 C 373.758 1.90471 0.444988 0
M  V30 3823 C 374.138 1.15209 1.7689 0
M  V30 3824 O 373.486 0.265119 2.26957 0
M  V30 3825 C 373.696 3.4333 0.626559 0
M  V30 3826 C 375.044 4.14319 0.92871 0
M  V30 3827 O 376.068 3.48993 0.712926 0
M  V30 3828 O 374.927 5.29846 1.33887 0
M  V30 3829 H 372.021 0.792347 0.236885 0
M  V30 3830 H 374.567 1.67437 -0.276211 0
M  V30 3831 H 373.339 3.90095 -0.306822 0
M  V30 3832 H 372.962 3.72181 1.39881 0
M  V30 3833 N 373.959 -0.0401083 1.57549 0
M  V30 3834 C 375.187 -0.745196 1.93014 0
M  V30 3835 C 375.602 -1.6948 0.831984 0
M  V30 3836 O 374.959 -1.81482 -0.192463 0
M  V30 3837 C 375.01 -1.51176 3.28372 0
M  V30 3838 O 374.731 -0.600284 4.33968 0
M  V30 3839 C 376.232 -2.315 3.78051 0
M  V30 3840 H 373.452 -0.210088 0.637263 0
M  V30 3841 H 375.996 -0.000924689 2.045 0
M  V30 3842 H 374.151 -2.20801 3.18317 0
M  V30 3843 H 374.565 -1.13669 5.12035 0
M  V30 3844 H 376.039 -2.80697 4.75303 0
M  V30 3845 H 376.516 -3.12436 3.08675 0
M  V30 3846 H 377.122 -1.66971 3.91153 0
M  V30 3847 N 375.437 -1.54477 -0.31217 0
M  V30 3848 C 376.685 -1.72884 -1.04668 0
M  V30 3849 C 377.006 -0.511477 -1.88173 0
M  V30 3850 O 376.276 0.474407 -1.90069 0
M  V30 3851 H 374.856 -0.637461 -0.389425 0
M  V30 3852 H 377.518 -1.91807 -0.345852 0
M  V30 3853 H 376.614 -2.61334 -1.70619 0
M  V30 3854 N 376.915 0.57481 -1.46744 0
M  V30 3855 C 378.163 1.33009 -1.52161 0
M  V30 3856 C 378.484 1.94185 -0.178092 0
M  V30 3857 O 377.754 1.7899 0.796196 0
M  V30 3858 H 376.334 0.493873 -0.560445 0
M  V30 3859 H 378.996 0.672589 -1.82927 0
M  V30 3860 H 378.092 2.13273 -2.27862 0
M  V30 3861 N 378.394 1.34581 0.820102 0
M  V30 3862 C 379.641 1.27096 1.57648 0
M  V30 3863 C 379.969 -0.158317 1.93855 0
M  V30 3864 O 379.224 -1.12028 1.60463 0
M  V30 3865 C 379.523 2.10997 2.8847 0
M  V30 3866 C 379.189 3.59966 2.71543 0
M  V30 3867 C 377.851 4.00575 2.66634 0
M  V30 3868 C 380.203 4.54548 2.55021 0
M  V30 3869 C 377.531 5.33953 2.43128 0
M  V30 3870 C 379.883 5.88109 2.33047 0
M  V30 3871 C 378.547 6.27878 2.26552 0
M  V30 3872 H 377.817 0.465078 0.576874 0
M  V30 3873 H 380.464 1.6635 0.948671 0
M  V30 3874 H 378.769 1.6458 3.55557 0
M  V30 3875 H 380.466 2.0255 3.46084 0
M  V30 3876 H 377.056 3.27733 2.76205 0
M  V30 3877 H 381.24 4.24069 2.57835 0
M  V30 3878 H 376.496 5.63781 2.3656 0
M  V30 3879 H 380.67 6.60985 2.19251 0
M  V30 3880 H 378.297 7.31162 2.081 0
M  V30 3881 N 379.872 -1.04064 1.18357 0
M  V30 3882 C 380.82 -2.14187 0.907007 0
M  V30 3883 C 381.814 -1.68879 -0.132725 0
M  V30 3884 O 383.02 -1.79993 0.0154248 0
M  V30 3885 H 379.395 -0.699585 0.275835 0
M  V30 3886 H 381.366 -2.34711 1.84264 0
M  V30 3887 C 380.115 -3.44785 0.449254 0
M  V30 3888 H 379.438 -3.80058 1.24081 0
M  V30 3889 H 380.878 -4.22974 0.294737 0
M  V30 3890 C 379.337 -3.26391 -0.834909 0
M  V30 3891 O 379.867 -3.53973 -1.89911 0
M  V30 3892 N 378.073 -2.79726 -0.787523 0
M  V30 3893 H 377.62 -2.5748 0.0787347 0
M  V30 3894 H 377.578 -2.67798 -1.64716 0
M  V30 3895 N 381.35 -0.985608 -1.22978 0
M  V30 3896 C 382.3 -0.50118 -2.22423 0
M  V30 3897 C 383.284 0.426649 -1.5514 0
M  V30 3898 O 384.476 0.254656 -1.75159 0
M  V30 3899 C 381.605 0.190003 -3.42774 0
M  V30 3900 C 380.691 -0.757703 -4.17276 0
M  V30 3901 N 381.082 -1.90251 -4.68656 0
M  V30 3902 C 379.38 -0.57209 -4.42316 0
M  V30 3903 C 380.081 -2.49676 -5.25392 0
M  V30 3904 N 379.057 -1.78013 -5.13627 0
M  V30 3905 H 382.859 -1.37441 -2.59783 0
M  V30 3906 H 380.373 -0.846941 -1.38567 0
M  V30 3907 H 382.37 0.55439 -4.13197 0
M  V30 3908 H 381.03 1.05946 -3.06929 0
M  V30 3909 H 382.041 -2.28354 -4.64839 0
M  V30 3910 H 378.718 0.251909 -4.16739 0
M  V30 3911 H 380.108 -3.46384 -5.75732 0
M  V30 3912 N 382.828 1.3818 -0.7579 0
M  V30 3913 C 384.056 2.04301 -0.326937 0
M  V30 3914 C 384.471 1.57163 1.0462 0
M  V30 3915 O 383.828 0.746626 1.66529 0
M  V30 3916 C 383.879 3.59846 -0.345363 0
M  V30 3917 O 383.6 4.05256 -1.66432 0
M  V30 3918 C 385.101 4.4319 0.098927 0
M  V30 3919 H 382.321 0.656443 -0.139012 0
M  V30 3920 H 384.865 1.76786 -1.02796 0
M  V30 3921 H 383.02 3.86182 0.306955 0
M  V30 3922 H 383.434 4.99709 -1.59345 0
M  V30 3923 H 384.908 5.51989 0.0348745 0
M  V30 3924 H 385.385 4.23947 1.14741 0
M  V30 3925 H 385.991 4.22051 -0.52468 0
M  V30 3926 N 384.306 0.507319 1.49211 0
M  V30 3927 C 385.552 -0.0350047 2.0277 0
M  V30 3928 C 385.885 -1.3606 1.38569 0
M  V30 3929 O 385.16 -1.87321 0.523542 0
M  V30 3930 C 385.443 -0.180916 3.59645 0
M  V30 3931 C 385.296 1.16825 4.34364 0
M  V30 3932 C 386.615 -0.918558 4.30407 0
M  V30 3933 H 383.734 -0.0112473 0.736914 0
M  V30 3934 H 386.376 0.659956 1.7817 0
M  V30 3935 H 384.526 -0.772826 3.80736 0
M  V30 3936 H 386.198 1.79952 4.24753 0
M  V30 3937 H 384.441 1.75594 3.96673 0
M  V30 3938 H 385.112 1.01939 5.42506 0
M  V30 3939 H 387.588 -0.41649 4.1401 0
M  V30 3940 H 386.464 -0.989505 5.39907 0
M  V30 3941 H 386.725 -1.96373 3.96093 0
M  V30 3942 N 385.784 -1.5574 0.241426 0
M  V30 3943 C 386.694 -2.2479 -0.671305 0
M  V30 3944 C 387.71 -1.26217 -1.19772 0
M  V30 3945 O 388.886 -1.59079 -1.23514 0
M  V30 3946 C 385.951 -2.92966 -1.85396 0
M  V30 3947 C 385.012 -4.06935 -1.36756 0
M  V30 3948 C 384.245 -4.71851 -2.49384 0
M  V30 3949 O 384.468 -4.35823 -3.67987 0
M  V30 3950 O 383.402 -5.60467 -2.19454 0
M  V30 3951 H 387.228 -3.0349 -0.112966 0
M  V30 3952 H 384.813 -1.49397 0.0101513 0
M  V30 3953 H 386.695 -3.35927 -2.54423 0
M  V30 3954 H 385.37 -2.17211 -2.40002 0
M  V30 3955 H 384.277 -3.68503 -0.644726 0
M  V30 3956 H 385.61 -4.84492 -0.867647 0
M  V30 3957 N 387.262 0.0317525 -1.57568 0
M  V30 3958 C 388.492 0.733884 -1.93126 0
M  V30 3959 C 388.9 1.69563 -0.839352 0
M  V30 3960 O 388.243 1.82681 0.193175 0
M  V30 3961 C 388.305 1.54798 -3.24465 0
M  V30 3962 C 387.969 0.751304 -4.50782 0
M  V30 3963 C 388.966 0.0527632 -5.19873 0
M  V30 3964 C 386.651 0.706639 -4.97305 0
M  V30 3965 C 388.645 -0.679774 -6.33765 0
M  V30 3966 C 386.332 -0.0296449 -6.11093 0
M  V30 3967 C 387.33 -0.721614 -6.79177 0
M  V30 3968 O 387.018 -1.44595 -7.90789 0
M  V30 3969 H 386.75 0.211459 -0.642076 0
M  V30 3970 H 389.304 -0.00585615 -2.05399 0
M  V30 3971 H 387.534 2.33147 -3.08512 0
M  V30 3972 H 389.223 2.13247 -3.4537 0
M  V30 3973 H 389.989 0.0783188 -4.84937 0
M  V30 3974 H 385.868 1.23474 -4.44157 0
M  V30 3975 H 389.412 -1.22042 -6.86842 0
M  V30 3976 H 385.309 -0.0571331 -6.45475 0
M  V30 3977 H 386.077 -1.35935 -8.07133 0
M  V30 3978 N 388.74 1.54641 0.303973 0
M  V30 3979 C 389.989 1.7299 1.03717 0
M  V30 3980 C 390.302 0.521168 1.88529 0
M  V30 3981 O 391.508 0.586408 2.65092 0
M  V30 3982 C 389.964 3.06051 1.89369 0
M  V30 3983 C 389.572 4.34393 1.09574 0
M  V30 3984 C 391.316 3.3376 2.62306 0
M  V30 3985 C 389.223 5.58506 1.94486 0
M  V30 3986 H 388.153 0.64473 0.390947 0
M  V30 3987 H 390.804 1.81124 0.294328 0
M  V30 3988 H 389.186 2.91874 2.67629 0
M  V30 3989 H 390.36 4.59396 0.359485 0
M  V30 3990 H 388.675 4.13597 0.482324 0
M  V30 3991 H 391.272 4.23687 3.26181 0
M  V30 3992 H 391.615 2.52503 3.3098 0
M  V30 3993 H 392.148 3.48894 1.91097 0
M  V30 3994 H 388.887 6.42422 1.30287 0
M  V30 3995 H 388.407 5.37694 2.65792 0
M  V30 3996 H 390.086 5.95651 2.52605 0
M  V30 3997 N 390.218 -0.567019 1.47046 0
M  V30 3998 C 391.148 -1.68482 1.61667 0
M  V30 3999 C 392.129 -1.6358 0.466418 0
M  V30 4000 O 393.314 -1.81354 0.694574 0
M  V30 4001 C 390.444 -3.07124 1.62148 0
M  V30 4002 C 389.398 -3.26867 2.76301 0
M  V30 4003 C 388.724 -4.66196 2.61849 0
M  V30 4004 C 390.024 -3.13186 4.17986 0
M  V30 4005 H 391.718 -1.56502 2.5524 0
M  V30 4006 H 389.264 -0.751486 1.22836 0
M  V30 4007 H 391.217 -3.8516 1.70968 0
M  V30 4008 H 389.941 -3.2004 0.651287 0
M  V30 4009 H 388.6 -2.51237 2.66975 0
M  V30 4010 H 388.248 -4.75898 1.62879 0
M  V30 4011 H 387.948 -4.80356 3.38425 0
M  V30 4012 H 389.472 -5.46379 2.72584 0
M  V30 4013 H 390.886 -3.81049 4.2834 0
M  V30 4014 H 389.283 -3.3886 4.95272 0
M  V30 4015 H 390.353 -2.10057 4.3704 0
M  V30 4016 N 391.696 -1.35014 -0.812953 0
M  V30 4017 C 392.643 -1.27412 -1.92444 0
M  V30 4018 C 393.613 -0.14733 -1.65445 0
M  V30 4019 O 394.798 -0.329974 -1.87925 0
M  V30 4020 C 391.938 -1.04558 -3.28879 0
M  V30 4021 C 391.051 -2.26101 -3.68106 0
M  V30 4022 C 390.186 -1.96449 -4.9354 0
M  V30 4023 C 389.225 -3.14081 -5.25376 0
M  V30 4024 N 388.362 -2.84246 -6.41988 0
M  V30 4025 H 393.202 -2.22463 -1.98278 0
M  V30 4026 H 390.739 -1.10593 -0.969933 0
M  V30 4027 H 392.697 -0.893413 -4.07522 0
M  V30 4028 H 391.327 -0.131719 -3.22531 0
M  V30 4029 H 390.379 -2.52204 -2.84775 0
M  V30 4030 H 391.691 -3.13959 -3.87597 0
M  V30 4031 H 390.845 -1.78026 -5.79993 0
M  V30 4032 H 389.584 -1.05867 -4.76071 0
M  V30 4033 H 388.589 -3.33089 -4.37415 0
M  V30 4034 H 389.814 -4.05455 -5.44778 0
M  V30 4035 H 387.76 -1.96252 -6.25956 0
M  V30 4036 H 387.677 -3.65637 -6.61699 0
M  V30 4037 H 388.945 -2.6935 -7.31485 0
M  V30 4038 N 393.175 1.03435 -1.18907 0
M  V30 4039 C 394.105 2.13503 -0.945448 0
M  V30 4040 C 395.086 1.69682 0.119189 0
M  V30 4041 O 396.271 1.94169 -0.034707 0
M  V30 4042 C 393.401 3.44004 -0.477316 0
M  V30 4043 C 392.355 4.0148 -1.48316 0
M  V30 4044 C 391.681 5.27537 -0.872311 0
M  V30 4045 C 392.981 4.36921 -2.86177 0
M  V30 4046 H 394.675 2.34141 -1.86597 0
M  V30 4047 H 392.221 1.12523 -0.898584 0
M  V30 4048 H 394.174 4.20372 -0.294204 0
M  V30 4049 H 392.898 3.23072 0.478786 0
M  V30 4050 H 391.557 3.27201 -1.65332 0
M  V30 4051 H 391.205 5.02917 0.0911752 0
M  V30 4052 H 390.905 5.66954 -1.54393 0
M  V30 4053 H 392.429 6.06576 -0.699871 0
M  V30 4054 H 393.843 5.04248 -2.72776 0
M  V30 4055 H 392.24 4.87405 -3.50081 0
M  V30 4056 H 393.31 3.46466 -3.39248 0
M  V30 4057 N 394.653 0.992116 1.22453 0
M  V30 4058 C 395.93 0.583508 1.86694 0
M  V30 4059 C 396.31 -0.9392 1.89056 0
M  V30 4060 O 395.658 -1.82081 1.38053 0
M  V30 4061 C 395.868 1.20304 3.2761 0
M  V30 4062 C 397.216 1.30308 4.0411 0
M  V30 4063 O 398.24 1.15737 3.36873 0
M  V30 4064 O 397.099 1.53615 5.24466 0
M  V30 4065 H 394.193 0.198129 0.802916 0
M  V30 4066 H 396.739 1.08794 1.30238 0
M  V30 4067 H 395.511 2.24461 3.2052 0
M  V30 4068 H 395.134 0.684144 3.9167 0
M  V30 4069 N 396.131 -1.37776 0.765217 0
M  V30 4070 C 397.547 -1.53297 0.444108 0
M  V30 4071 C 397.747 -1.72515 -1.04119 0
M  V30 4072 O 396.803 -1.74278 -1.82711 0
M  V30 4073 C 398.116 -2.73328 1.25349 0
M  V30 4074 C 399.664 -2.87185 1.24473 0
M  V30 4075 C 400.139 -4.10191 2.03733 0
M  V30 4076 N 401.63 -4.17291 2.01053 0
M  V30 4077 C 402.365 -5.11488 2.59166 0
M  V30 4078 N 401.861 -6.11285 3.26041 0
M  V30 4079 N 403.654 -5.03924 2.49032 0
M  V30 4080 H 395.805 -1.23552 1.72768 0
M  V30 4081 H 398.068 -0.601103 0.733062 0
M  V30 4082 H 397.774 -2.6557 2.30577 0
M  V30 4083 H 397.648 -3.66834 0.87823 0
M  V30 4084 H 400.035 -2.94418 0.20047 0
M  V30 4085 H 400.116 -1.94657 1.65959 0
M  V30 4086 H 399.76 -4.0372 3.08176 0
M  V30 4087 H 399.69 -5.01821 1.59633 0
M  V30 4088 H 402.181 -3.45825 1.5236 0
M  V30 4089 H 402.494 -6.79678 3.67774 0
M  V30 4090 H 400.839 -6.11583 3.30138 0
M  V30 4091 H 404.03 -4.24902 1.96407 0
M  V30 4092 H 404.203 -5.77152 2.94617 0
M  V30 4093 N 397.609 -0.515225 -1.4894 0
M  V30 4094 C 398.557 0.269115 -2.31038 0
M  V30 4095 C 399.551 0.949443 -1.40292 0
M  V30 4096 O 400.757 0.87551 -1.57273 0
M  V30 4097 H 397.132 0.10565 -0.744542 0
M  V30 4098 H 399.103 -0.443096 -2.95092 0
M  V30 4099 C 397.852 1.31213 -3.21991 0
M  V30 4100 H 397.175 0.798034 -3.91754 0
M  V30 4101 H 398.615 1.83263 -3.82349 0
M  V30 4102 C 397.074 2.33791 -2.42576 0
M  V30 4103 O 397.604 3.3995 -2.14003 0
M  V30 4104 N 395.81 2.06625 -2.0434 0
M  V30 4105 H 395.357 1.20314 -2.27777 0
M  V30 4106 H 395.315 2.75483 -1.51514 0
M  V30 4107 N 399.087 1.5561 -0.249682 0
M  V30 4108 C 400.498 1.84979 0.252949 0
M  V30 4109 C 400.849 1.17153 1.57384 0
M  V30 4110 O 399.974 0.450884 2.11651 0
M  V30 4111 C 400.569 3.35584 0.465732 0
M  V30 4112 C 399.128 3.65169 0.912624 0
M  V30 4113 C 398.275 2.77299 -0.00859085 0
M  V30 4114 H 401.226 1.51513 -0.47217 0
M  V30 4115 H 401.247 3.57313 1.30795 0
M  V30 4116 H 400.759 3.8492 -0.49579 0
M  V30 4117 H 398.86 3.21312 1.88652 0
M  V30 4118 H 398.973 4.72912 0.767559 0
M  V30 4119 H 397.337 2.49678 0.50327 0
M  V30 4120 H 398.12 3.29442 -0.965537 0
M  V30 4121 N 400.565 -0.0233959 1.57583 0
M  V30 4122 C 401.842 -0.748794 1.807 0
M  V30 4123 C 402.222 -1.9327 0.849106 0
M  V30 4124 O 401.57 -2.28247 -0.107468 0
M  V30 4125 C 401.78 -1.17651 3.28571 0
M  V30 4126 C 403.128 -1.59008 3.93702 0
M  V30 4127 O 404.152 -1.27094 3.32755 0
M  V30 4128 O 403.011 -2.18264 5.01022 0
M  V30 4129 H 400.105 -0.362578 0.743281 0
M  V30 4130 H 402.651 0.000261958 1.697 0
M  V30 4131 H 401.423 -0.331603 3.89892 0
M  V30 4132 H 401.046 -1.98541 3.44481 0
M  V30 4133 N 402.043 -1.548 -0.295768 0
M  V30 4134 C 403.29 -1.74329 -1.03032 0
M  V30 4135 C 403.618 -0.531915 -1.87085 0
M  V30 4136 O 402.873 0.486052 -1.89568 0
M  V30 4137 C 403.172 -2.98797 -1.961 0
M  V30 4138 C 402.838 -4.32356 -1.2798 0
M  V30 4139 C 401.5 -4.68661 -1.09135 0
M  V30 4140 C 403.852 -5.15128 -0.793243 0
M  V30 4141 C 401.18 -5.85312 -0.403269 0
M  V30 4142 C 403.532 -6.32488 -0.118854 0
M  V30 4143 C 402.196 -6.6745 0.0815043 0
M  V30 4144 H 401.466 -0.637916 -0.37702 0
M  V30 4145 H 404.113 -1.8906 -0.304696 0
M  V30 4146 H 402.418 -2.78869 -2.75207 0
M  V30 4147 H 404.115 -3.11102 -2.53015 0
M  V30 4148 H 400.705 -4.03808 -1.43655 0
M  V30 4149 H 404.889 -4.87575 -0.92653 0
M  V30 4150 H 400.145 -6.1094 -0.237098 0
M  V30 4151 H 404.319 -6.95892 0.266035 0
M  V30 4152 H 401.946 -7.57695 0.616685 0
M  V30 4153 N 403.521 0.559213 -1.47345 0
M  V30 4154 C 404.749 1.34194 -1.57479 0
M  V30 4155 C 405.164 1.87463 -0.224261 0
M  V30 4156 O 404.521 1.64888 0.782185 0
M  V30 4157 C 404.572 2.51324 -2.59843 0
M  V30 4158 O 404.293 2.00256 -3.89653 0
M  V30 4159 C 405.794 3.43563 -2.80142 0
M  V30 4160 H 403.014 0.409136 -0.531835 0
M  V30 4161 H 405.558 0.677609 -1.92947 0
M  V30 4162 H 403.713 3.13699 -2.27314 0
M  V30 4163 H 404.127 2.76708 -4.4557 0
M  V30 4164 H 405.601 4.2217 -3.55635 0
M  V30 4165 H 406.078 3.9698 -1.87892 0
M  V30 4166 H 406.684 2.87005 -3.1386 0
M  V30 4167 N 404.999 1.35443 0.805782 0
M  V30 4168 C 405.962 1.28301 1.89925 0
M  V30 4169 C 406.962 0.194285 1.59622 0
M  V30 4170 O 408.152 0.448036 1.6834 0
M  V30 4171 C 405.284 0.984997 3.2636 0
M  V30 4172 H 406.477 2.2553 1.97677 0
M  V30 4173 H 404.03 1.19979 1.00173 0
M  V30 4174 H 404.765 0.016603 3.24296 0
M  V30 4175 H 404.55 1.77269 3.4974 0
M  V30 4176 H 406.04 0.960651 4.064 0
M  V30 4177 N 406.477 -1.02803 1.19454 0
M  V30 4178 C 407.702 -1.80378 1.02364 0
M  V30 4179 C 408.127 -1.83282 -0.423007 0
M  V30 4180 O 407.485 -1.25945 -1.30413 0
M  V30 4181 C 407.533 -3.23248 1.59821 0
M  V30 4182 O 406.637 -4.04 0.828105 0
M  V30 4183 H 405.978 -0.556799 0.361761 0
M  V30 4184 H 408.508 -1.29385 1.58495 0
M  V30 4185 H 408.518 -3.73994 1.63073 0
M  V30 4186 H 407.193 -3.2045 2.65113 0
M  V30 4187 H 405.77 -3.62635 0.86891 0
M  V30 4188 N 407.956 -0.998596 -1.21925 0
M  V30 4189 C 409.181 -0.696015 -1.95372 0
M  V30 4190 C 409.606 0.733826 -1.73195 0
M  V30 4191 O 408.964 1.50242 -1.01474 0
M  V30 4192 C 409.012 -1.01466 -3.4603 0
M  V30 4193 O 408.116 -0.116415 -4.12236 0
M  V30 4194 H 407.457 -0.259938 -0.611006 0
M  V30 4195 H 409.987 -1.33711 -1.54863 0
M  V30 4196 H 409.997 -0.958855 -3.96573 0
M  V30 4197 H 408.672 -2.05653 -3.61497 0
M  V30 4198 H 407.249 -0.228193 -3.72201 0
M  V30 4199 N 409.434 1.37368 -0.772513 0
M  V30 4200 C 410.366 2.28899 -0.117502 0
M  V30 4201 C 411.379 1.4867 0.663405 0
M  V30 4202 O 412.568 1.71314 0.501372 0
M  V30 4203 C 409.668 3.2788 0.857192 0
M  V30 4204 C 408.841 4.37207 0.129938 0
M  V30 4205 C 407.9 5.16257 1.01811 0
M  V30 4206 O 406.926 5.67159 0.481601 0
M  V30 4207 N 408.128 5.31058 2.3443 0
M  V30 4208 H 410.893 2.85752 -0.903662 0
M  V30 4209 H 408.454 1.49353 -0.62493 0
M  V30 4210 H 410.446 3.77647 1.45482 0
M  V30 4211 H 409.016 2.7179 1.54432 0
M  V30 4212 H 408.236 3.88827 -0.648605 0
M  V30 4213 H 409.524 5.07434 -0.372559 0
M  V30 4214 H 408.922 4.91287 2.80452 0
M  V30 4215 H 407.479 5.84131 2.89197 0
M  V30 4216 N 410.912 0.523116 1.48665 0
M  V30 4217 C 412.161 -0.01544 2.01694 0
M  V30 4218 C 412.474 -1.35975 1.40606 0
M  V30 4219 O 413.68 -1.98627 1.85093 0
M  V30 4220 C 412.136 -0.0779303 3.59816 0
M  V30 4221 C 411.744 1.26107 4.29885 0
M  V30 4222 C 413.488 -0.565678 4.20714 0
M  V30 4223 C 411.395 1.15954 5.79921 0
M  V30 4224 H 410.325 -0.00954163 0.75394 0
M  V30 4225 H 412.976 0.665865 1.70993 0
M  V30 4226 H 411.358 -0.824165 3.87329 0
M  V30 4227 H 412.532 2.02233 4.14051 0
M  V30 4228 H 410.847 1.68401 3.80828 0
M  V30 4229 H 413.444 -0.6595 5.30617 0
M  V30 4230 H 413.787 -1.56984 3.85567 0
M  V30 4231 H 414.32 0.12467 3.97605 0
M  V30 4232 H 411.059 2.13864 6.19631 0
M  V30 4233 H 410.579 0.439529 5.98187 0
M  V30 4234 H 412.258 0.847361 6.41427 0
M  V30 4235 N 412.39 -1.55475 0.257931 0
M  V30 4236 C 413.353 -2.20551 -0.623706 0
M  V30 4237 C 414.353 -1.17809 -1.09443 0
M  V30 4238 O 415.543 -1.42823 -0.997362 0
M  V30 4239 C 412.675 -2.85784 -1.8585 0
M  V30 4240 H 413.868 -2.99848 -0.0557743 0
M  V30 4241 H 411.421 -1.56298 0.0084422 0
M  V30 4242 H 412.156 -2.10453 -2.46739 0
M  V30 4243 H 411.941 -3.61057 -1.52907 0
M  V30 4244 H 413.431 -3.35553 -2.48584 0
M  V30 4245 N 413.868 0.0150385 -1.57593 0
M  V30 4246 C 415.115 0.703001 -1.89906 0
M  V30 4247 C 415.443 1.74604 -0.856944 0
M  V30 4248 O 414.698 1.95197 0.140287 0
M  V30 4249 C 414.997 1.39686 -3.28972 0
M  V30 4250 C 414.663 0.488457 -4.48246 0
M  V30 4251 C 413.325 0.2383 -4.8061 0
M  V30 4252 C 415.677 -0.137881 -5.21018 0
M  V30 4253 C 413.005 -0.646738 -5.83125 0
M  V30 4254 C 415.357 -1.0107 -6.24474 0
M  V30 4255 C 414.021 -1.27019 -6.55303 0
M  V30 4256 H 413.291 0.257246 -0.694914 0
M  V30 4257 H 415.938 -0.037259 -1.91464 0
M  V30 4258 H 414.243 2.21079 -3.23468 0
M  V30 4259 H 415.94 1.93495 -3.51227 0
M  V30 4260 H 412.53 0.693593 -4.22951 0
M  V30 4261 H 416.714 0.0423953 -4.96282 0
M  V30 4262 H 411.97 -0.855937 -6.05379 0
M  V30 4263 H 416.144 -1.50247 -6.79999 0
M  V30 4264 H 413.771 -1.95769 -7.3456 0
M  V30 4265 N 415.346 1.54954 0.287554 0
M  V30 4266 C 416.594 1.74528 1.01904 0
M  V30 4267 C 416.915 0.541349 1.87335 0
M  V30 4268 O 416.185 -0.444108 1.908 0
M  V30 4269 H 414.765 0.643576 0.379235 0
M  V30 4270 H 417.427 1.92333 0.315294 0
M  V30 4271 H 416.523 2.64015 1.6644 0
M  V30 4272 N 416.824 -0.551391 1.4764 0
M  V30 4273 C 418.24 -0.877887 1.33287 0
M  V30 4274 C 418.44 -1.98817 0.327721 0
M  V30 4275 O 417.496 -2.51171 -0.258695 0
M  V30 4276 C 418.809 -1.26563 2.72768 0
M  V30 4277 C 420.357 -1.37673 2.81097 0
M  V30 4278 C 420.832 -1.79799 4.21232 0
M  V30 4279 N 422.323 -1.8694 4.23802 0
M  V30 4280 C 423.058 -2.20876 5.29151 0
M  V30 4281 N 422.554 -2.53386 6.448 0
M  V30 4282 N 424.347 -2.217 5.16532 0
M  V30 4283 H 416.498 0.18153 2.11623 0
M  V30 4284 H 418.761 0.0185514 0.947818 0
M  V30 4285 H 418.467 -0.523591 3.47781 0
M  V30 4286 H 418.341 -2.22052 3.04915 0
M  V30 4287 H 420.728 -2.10956 2.06353 0
M  V30 4288 H 420.809 -0.40357 2.52596 0
M  V30 4289 H 420.453 -1.07083 4.96483 0
M  V30 4290 H 420.383 -2.78128 4.4716 0
M  V30 4291 H 422.874 -1.64179 3.40373 0
M  V30 4292 H 423.187 -2.78325 7.20941 0
M  V30 4293 H 421.532 -2.50953 6.48111 0
M  V30 4294 H 424.723 -1.95745 4.25207 0
M  V30 4295 H 424.896 -2.47818 5.98741 0
M  V30 4296 N 418.302 -1.35869 -0.798587 0
M  V30 4297 C 419.265 -1.29307 -1.89242 0
M  V30 4298 C 420.265 -0.202747 -1.59517 0
M  V30 4299 O 421.455 -0.456957 -1.681 0
M  V30 4300 C 418.587 -1.00229 -3.25833 0
M  V30 4301 H 419.78 -2.26576 -1.96478 0
M  V30 4302 H 417.333 -1.20509 -0.995358 0
M  V30 4303 H 418.068 -0.033801 -3.24282 0
M  V30 4304 H 417.853 -1.79121 -3.48795 0
M  V30 4305 H 419.343 -0.98219 -4.05885 0
M  V30 4306 N 419.78 1.02168 -1.19998 0
M  V30 4307 C 420.743 2.08765 -0.94604 0
M  V30 4308 C 421.743 1.60618 0.0763846 0
M  V30 4309 O 422.933 1.73472 -0.159135 0
M  V30 4310 C 420.065 3.38262 -0.423255 0
M  V30 4311 H 421.258 2.32726 -1.89153 0
M  V30 4312 H 418.811 1.1889 -1.01464 0
M  V30 4313 H 419.546 3.19974 0.527938 0
M  V30 4314 H 419.331 3.74532 -1.16053 0
M  V30 4315 H 420.821 4.16759 -0.264911 0
M  V30 4316 N 421.258 1.00505 1.21394 0
M  V30 4317 C 422.208 0.536503 2.21598 0
M  V30 4318 C 423.192 -0.401914 1.55799 0
M  V30 4319 O 424.384 -0.226757 1.75541 0
M  V30 4320 C 421.513 -0.135446 3.43033 0
M  V30 4321 C 420.599 0.823992 4.16018 0
M  V30 4322 N 420.99 1.97683 4.6557 0
M  V30 4323 C 419.288 0.642387 4.4135 0
M  V30 4324 C 419.989 2.58003 5.21354 0
M  V30 4325 N 418.965 1.86162 5.1073 0
M  V30 4326 H 422.767 1.41557 2.57563 0
M  V30 4327 H 420.281 0.868878 1.37202 0
M  V30 4328 H 422.278 -0.488584 4.14027 0
M  V30 4329 H 420.938 -1.01049 3.08576 0
M  V30 4330 H 421.949 2.3572 4.61147 0
M  V30 4331 H 418.626 -0.185578 4.17087 0
M  V30 4332 H 420.016 3.555 5.70149 0
M  V30 4333 N 422.737 -1.36956 0.779787 0
M  V30 4334 C 424.153 -1.52817 0.460342 0
M  V30 4335 C 424.353 -1.7361 -1.02283 0
M  V30 4336 O 423.409 -1.76207 -1.80852 0
M  V30 4337 C 424.722 -2.71983 1.28241 0
M  V30 4338 C 426.27 -2.85849 1.27512 0
M  V30 4339 C 426.745 -4.08008 2.08072 0
M  V30 4340 N 428.236 -4.15135 2.05467 0
M  V30 4341 C 428.971 -5.08711 2.64577 0
M  V30 4342 N 428.467 -6.07792 3.32506 0
M  V30 4343 N 430.26 -5.01254 2.54363 0
M  V30 4344 H 422.411 -1.21713 1.74068 0
M  V30 4345 H 424.674 -0.593294 0.739396 0
M  V30 4346 H 424.38 -2.63109 2.33381 0
M  V30 4347 H 424.254 -3.65882 0.917088 0
M  V30 4348 H 426.641 -2.94189 0.231686 0
M  V30 4349 H 426.722 -1.92886 1.68014 0
M  V30 4350 H 426.366 -4.00429 3.12441 0
M  V30 4351 H 426.296 -5.001 1.64947 0
M  V30 4352 H 428.787 -3.44189 1.5602 0
M  V30 4353 H 429.1 -6.75739 3.74963 0
M  V30 4354 H 427.445 -6.08047 3.36606 0
M  V30 4355 H 430.636 -4.22795 2.00902 0
M  V30 4356 H 430.809 -5.73995 3.00722 0
M  V30 4357 N 424.215 -0.530993 -1.48385 0
M  V30 4358 C 425.148 0.278511 -2.26494 0
M  V30 4359 C 426.126 0.943905 -1.32398 0
M  V30 4360 O 427.31 0.968098 -1.61741 0
M  V30 4361 C 424.437 1.39453 -3.08659 0
M  V30 4362 C 423.483 0.840434 -4.18137 0
M  V30 4363 S 424.316 -0.292496 -5.34701 0
M  V30 4364 C 425.472 0.825973 -6.20426 0
M  V30 4365 H 425.705 -0.384365 -2.94805 0
M  V30 4366 H 423.238 -0.316799 -1.51115 0
M  V30 4367 H 425.196 2.03382 -3.56575 0
M  V30 4368 H 423.857 2.02913 -2.3976 0
M  V30 4369 H 423.05 1.67769 -4.75257 0
M  V30 4370 H 422.652 0.277819 -3.72967 0
M  V30 4371 H 424.944 1.72438 -6.55188 0
M  V30 4372 H 425.887 0.292728 -7.07495 0
M  V30 4373 H 426.295 1.10683 -5.53543 0
M  V30 4374 N 425.693 1.55336 -0.266172 0
M  V30 4375 C 426.64 2.22172 0.625165 0
M  V30 4376 C 427.61 1.19211 1.15663 0
M  V30 4377 O 428.795 1.47723 1.20758 0
M  V30 4378 C 425.935 2.93972 1.8076 0
M  V30 4379 C 425.048 4.11632 1.31084 0
M  V30 4380 C 424.183 4.71099 2.45436 0
M  V30 4381 C 423.222 5.8097 1.92718 0
M  V30 4382 N 422.359 6.34538 3.00509 0
M  V30 4383 H 427.199 2.9796 0.0485582 0
M  V30 4384 H 424.736 1.47095 0.0122024 0
M  V30 4385 H 426.694 3.33811 2.50251 0
M  V30 4386 H 425.324 2.20623 2.35638 0
M  V30 4387 H 424.376 3.76975 0.509326 0
M  V30 4388 H 425.688 4.90893 0.884633 0
M  V30 4389 H 424.842 5.13612 3.22936 0
M  V30 4390 H 423.581 3.91096 2.91368 0
M  V30 4391 H 422.586 5.37916 1.13695 0
M  V30 4392 H 423.811 6.62836 1.47733 0
M  V30 4393 H 421.757 5.57433 3.45839 0
M  V30 4394 H 421.674 7.09046 2.62279 0
M  V30 4395 H 422.942 6.81709 3.78011 0
M  V30 4396 N 427.171 -0.0066808 1.57599 0
M  V30 4397 C 428.103 -1.02827 2.04839 0
M  V30 4398 C 429.116 -1.31108 0.965113 0
M  V30 4399 O 430.305 -1.28202 1.24203 0
M  V30 4400 C 427.405 -2.36464 2.42771 0
M  V30 4401 C 426.578 -2.27219 3.73751 0
M  V30 4402 C 425.637 -3.43489 3.98625 0
M  V30 4403 O 424.663 -3.21976 4.69382 0
M  V30 4404 N 425.865 -4.66116 3.46 0
M  V30 4405 H 428.63 -0.625455 2.93101 0
M  V30 4406 H 426.191 -0.194198 1.60731 0
M  V30 4407 H 428.183 -3.13008 2.56531 0
M  V30 4408 H 426.753 -2.68512 1.60063 0
M  V30 4409 H 425.973 -1.35629 3.70133 0
M  V30 4410 H 427.261 -2.18208 4.59633 0
M  V30 4411 H 426.659 -4.86493 2.88688 0
M  V30 4412 H 425.216 -5.39949 3.65101 0
M  V30 4413 N 428.649 -1.55105 -0.279332 0
M  V30 4414 C 429.581 -1.83952 -1.36727 0
M  V30 4415 C 430.594 -0.723642 -1.45833 0
M  V30 4416 O 431.783 -1.00141 -1.47763 0
M  V30 4417 C 428.883 -1.98183 -2.74912 0
M  V30 4418 C 428.056 -3.28787 -2.88475 0
M  V30 4419 C 427.115 -3.33162 -4.07295 0
M  V30 4420 O 426.141 -4.06576 -3.98353 0
M  V30 4421 N 427.343 -2.60109 -5.18964 0
M  V30 4422 H 430.108 -2.77853 -1.12328 0
M  V30 4423 H 427.669 -1.54945 -0.469442 0
M  V30 4424 H 429.661 -1.98488 -3.52682 0
M  V30 4425 H 428.231 -1.11177 -2.92162 0
M  V30 4426 H 427.451 -3.41075 -1.97641 0
M  V30 4427 H 428.739 -4.14933 -2.94463 0
M  V30 4428 H 428.137 -2.00136 -5.29115 0
M  V30 4429 H 426.694 -2.66143 -5.94988 0
M  V30 4430 N 430.127 0.543554 -1.4793 0
M  V30 4431 C 431.375 1.29752 -1.54948 0
M  V30 4432 C 431.696 1.93764 -0.219242 0
M  V30 4433 O 430.966 1.80639 0.75805 0
M  V30 4434 H 429.546 0.481874 -0.570795 0
M  V30 4435 H 432.208 0.633636 -1.84312 0
M  V30 4436 H 431.304 2.08392 -2.32334 0
M  V30 4437 N 431.605 1.3629 0.791371 0
M  V30 4438 C 432.537 1.26321 1.91248 0
M  V30 4439 C 433.55 0.18313 1.61767 0
M  V30 4440 O 434.739 0.437682 1.73051 0
M  V30 4441 C 431.839 0.925901 3.26007 0
M  V30 4442 C 431.012 2.10746 3.83281 0
M  V30 4443 C 430.071 1.74352 4.96475 0
M  V30 4444 O 429.097 2.46416 5.13096 0
M  V30 4445 N 430.299 0.676058 5.7655 0
M  V30 4446 H 433.064 2.22915 2.00323 0
M  V30 4447 H 430.625 1.29659 0.969546 0
M  V30 4448 H 432.617 0.663636 3.99222 0
M  V30 4449 H 431.187 0.0491581 3.12561 0
M  V30 4450 H 430.407 2.53264 3.02077 0
M  V30 4451 H 431.695 2.8969 4.18279 0
M  V30 4452 H 431.093 0.0776467 5.65647 0
M  V30 4453 H 429.65 0.473612 6.50077 0
M  V30 4454 N 433.083 -1.0153 1.20538 0
M  V30 4455 C 434.308 -1.79283 1.04271 0
M  V30 4456 C 434.733 -1.8372 -0.403544 0
M  V30 4457 O 434.091 -1.27321 -1.2907 0
M  V30 4458 C 434.139 -3.21535 1.63241 0
M  V30 4459 O 433.243 -4.03099 0.870908 0
M  V30 4460 H 432.584 -0.55293 0.367647 0
M  V30 4461 H 435.114 -1.27696 1.59859 0
M  V30 4462 H 435.124 -3.72243 1.6703 0
M  V30 4463 H 433.799 -3.1762 2.68497 0
M  V30 4464 H 432.376 -3.61693 0.907323 0
M  V30 4465 N 434.561 -1.01147 -1.20859 0
M  V30 4466 C 435.809 -0.696486 -1.89719 0
M  V30 4467 C 436.13 0.775788 -1.78904 0
M  V30 4468 O 435.4 1.55759 -1.18811 0
M  V30 4469 H 433.98 -0.254628 -0.702263 0
M  V30 4470 H 436.642 -1.28197 -1.46804 0
M  V30 4471 H 435.738 -0.975357 -2.96468 0
M  V30 4472 N 436.039 1.36541 -0.78704 0
M  V30 4473 C 437.002 2.28413 -0.189778 0
M  V30 4474 C 438.002 1.48719 0.611499 0
M  V30 4475 O 439.192 1.68737 0.432842 0
M  V30 4476 C 436.324 3.32824 0.737638 0
M  V30 4477 H 437.517 2.82743 -0.999831 0
M  V30 4478 H 435.07 1.46065 -0.556298 0
M  V30 4479 H 435.805 2.83646 1.57212 0
M  V30 4480 H 435.59 3.91752 0.165044 0
M  V30 4481 H 437.08 4.0144 1.15047 0
M  V30 4482 N 437.518 0.538854 1.48102 0
M  V30 4483 C 438.765 0.0080018 2.02498 0
M  V30 4484 C 439.093 -1.33437 1.41509 0
M  V30 4485 O 438.348 -1.87709 0.553507 0
M  V30 4486 C 438.647 -0.153808 3.57069 0
M  V30 4487 C 438.313 1.11533 4.36888 0
M  V30 4488 C 436.975 1.46314 4.58417 0
M  V30 4489 C 439.327 1.95718 4.83057 0
M  V30 4490 C 436.655 2.6516 5.23361 0
M  V30 4491 C 439.007 3.13751 5.49312 0
M  V30 4492 C 437.671 3.48866 5.69077 0
M  V30 4493 H 436.941 0.00292807 0.740994 0
M  V30 4494 H 439.588 0.706668 1.77984 0
M  V30 4495 H 437.893 -0.935309 3.80472 0
M  V30 4496 H 439.59 -0.579607 3.96789 0
M  V30 4497 H 436.18 0.834484 4.20398 0
M  V30 4498 H 440.364 1.70158 4.66219 0
M  V30 4499 H 435.62 2.92558 5.36861 0
M  V30 4500 H 439.794 3.79282 5.84053 0
M  V30 4501 H 437.421 4.41054 6.19173 0
M  V30 4502 N 438.996 -1.55193 0.274407 0
M  V30 4503 C 440.224 -2.03987 -0.345943 0
M  V30 4504 C 440.639 -1.15279 -1.4952 0
M  V30 4505 O 439.996 -0.172759 -1.8168 0
M  V30 4506 C 440.047 -3.51898 -0.827631 0
M  V30 4507 O 439.768 -4.37231 0.275855 0
M  V30 4508 C 441.269 -4.16577 -1.51587 0
M  V30 4509 H 438.489 -0.666335 -0.0789892 0
M  V30 4510 H 441.033 -2.00423 0.406294 0
M  V30 4511 H 439.188 -3.55909 -1.52996 0
M  V30 4512 H 439.602 -5.24415 -0.0943638 0
M  V30 4513 H 441.076 -5.21678 -1.80433 0
M  V30 4514 H 441.553 -3.64707 -2.44716 0
M  V30 4515 H 442.159 -4.16568 -0.857409 0
M  V30 4516 N 440.474 -0.00167713 -1.576 0
M  V30 4517 C 441.72 0.683832 -1.90923 0
M  V30 4518 C 442.053 1.7333 -0.875799 0
M  V30 4519 O 441.328 1.94215 0.10525 0
M  V30 4520 C 441.611 1.32543 -3.3482 0
M  V30 4521 C 441.464 0.287387 -4.48881 0
M  V30 4522 C 442.783 2.25114 -3.78169 0
M  V30 4523 H 439.902 0.247125 -0.694333 0
M  V30 4524 H 442.544 -0.0533149 -1.89925 0
M  V30 4525 H 440.694 1.95372 -3.35801 0
M  V30 4526 H 442.366 -0.341346 -4.60035 0
M  V30 4527 H 440.609 -0.39017 -4.32042 0
M  V30 4528 H 441.28 0.775393 -5.46527 0
M  V30 4529 H 443.756 1.723 -3.7875 0
M  V30 4530 H 442.632 2.66971 -4.79602 0
M  V30 4531 H 442.893 3.13092 -3.12131 0
M  V30 4532 N 441.952 1.55251 0.271103 0
M  V30 4533 C 442.882 1.9127 1.33933 0
M  V30 4534 C 443.863 0.77478 1.5143 0
M  V30 4535 O 445.048 1.03307 1.64442 0
M  V30 4536 C 442.178 2.18627 2.69851 0
M  V30 4537 C 441.132 3.34442 2.67081 0
M  V30 4538 C 440.458 3.47284 4.06569 0
M  V30 4539 C 441.758 4.70784 2.26185 0
M  V30 4540 H 443.452 2.80744 1.04035 0
M  V30 4541 H 440.998 1.35077 0.499017 0
M  V30 4542 H 442.951 2.42413 3.44694 0
M  V30 4543 H 441.675 1.25955 3.01335 0
M  V30 4544 H 440.334 3.10627 1.94695 0
M  V30 4545 H 439.982 2.52074 4.35279 0
M  V30 4546 H 439.682 4.25152 4.0561 0
M  V30 4547 H 441.206 3.73363 4.83148 0
M  V30 4548 H 442.62 4.94102 2.90751 0
M  V30 4549 H 441.017 5.51582 2.36384 0
M  V30 4550 H 442.087 4.69478 1.21319 0
M  V30 4551 N 443.43 -0.535701 1.48216 0
M  V30 4552 C 444.34 -1.66785 1.64985 0
M  V30 4553 C 445.356 -1.65654 0.532414 0
M  V30 4554 O 446.532 -1.8471 0.80275 0
M  V30 4555 C 443.597 -3.0326 1.68031 0
M  V30 4556 C 442.658 -3.1529 2.9136 0
M  V30 4557 C 441.891 -4.45255 2.94252 0
M  V30 4558 O 442.114 -5.32011 2.05719 0
M  V30 4559 O 441.048 -4.6153 3.86359 0
M  V30 4560 H 444.874 -1.55576 2.60825 0
M  V30 4561 H 442.459 -0.70815 1.31551 0
M  V30 4562 H 444.341 -3.84436 1.72589 0
M  V30 4563 H 443.016 -3.14805 0.753628 0
M  V30 4564 H 441.923 -2.3343 2.92337 0
M  V30 4565 H 443.256 -3.08658 3.83394 0
M  V30 4566 N 444.908 -1.36708 -0.784132 0
M  V30 4567 C 446.154 -1.31426 -1.54451 0
M  V30 4568 C 446.487 0.10476 -1.93917 0
M  V30 4569 O 445.762 1.05934 -1.6312 0
M  V30 4570 C 446.045 -2.24189 -2.818 0
M  V30 4571 C 445.898 -3.74813 -2.48667 0
M  V30 4572 C 447.217 -2.15626 -3.83658 0
M  V30 4573 H 444.336 -0.478739 -0.560337 0
M  V30 4574 H 446.978 -1.67305 -0.900498 0
M  V30 4575 H 445.128 -1.93722 -3.36755 0
M  V30 4576 H 446.8 -4.15823 -1.99722 0
M  V30 4577 H 445.043 -3.93989 -1.81535 0
M  V30 4578 H 445.714 -4.35138 -3.39646 0
M  V30 4579 H 448.19 -2.42456 -3.38163 0
M  V30 4580 H 447.066 -2.82694 -4.70506 0
M  V30 4581 H 447.327 -1.14522 -4.27009 0
M  V30 4582 N 446.386 1.0089 -1.21074 0
M  V30 4583 C 447.349 2.0775 -0.968129 0
M  V30 4584 C 448.349 1.6069 0.0593445 0
M  V30 4585 O 449.539 1.73293 -0.177525 0
M  V30 4586 C 446.671 3.37794 -0.459108 0
M  V30 4587 H 447.864 2.30707 -1.9161 0
M  V30 4588 H 445.417 1.17807 -1.02719 0
M  V30 4589 H 446.152 3.20516 0.49397 0
M  V30 4590 H 445.937 3.7328 -1.20019 0
M  V30 4591 H 447.427 4.16454 -0.309099 0
M  V30 4592 N 447.864 1.01787 1.20321 0
M  V30 4593 C 449.275 0.739307 1.71438 0
M  V30 4594 C 449.626 -0.742041 1.81627 0
M  V30 4595 O 448.751 -1.57903 1.47971 0
M  V30 4596 C 449.346 1.33538 3.11373 0
M  V30 4597 C 447.905 1.10566 3.59795 0
M  V30 4598 C 447.052 1.44028 2.36962 0
M  V30 4599 H 450.003 1.18718 1.05317 0
M  V30 4600 H 450.024 0.726611 3.73498 0
M  V30 4601 H 449.536 2.41352 3.03926 0
M  V30 4602 H 447.637 0.0452405 3.72573 0
M  V30 4603 H 447.75 1.78661 4.44542 0
M  V30 4604 H 446.114 0.85933 2.39766 0
M  V30 4605 H 446.897 2.52901 2.32155 0
M  V30 4606 N 449.342 -1.36122 0.79427 0
M  V30 4607 C 450.572 -2.03067 0.380437 0
M  V30 4608 C 450.98 -1.60018 -1.00949 0
M  V30 4609 O 450.323 -0.787425 -1.65968 0
M  V30 4610 C 450.385 -3.57587 0.37034 0
M  V30 4611 C 450.049 -4.23855 1.70867 0
M  V30 4612 C 451.046 -4.46404 2.66496 0
M  V30 4613 C 448.731 -4.61229 1.9893 0
M  V30 4614 C 450.725 -5.05412 3.88378 0
M  V30 4615 C 448.412 -5.19953 3.21079 0
M  V30 4616 C 449.41 -5.41985 4.15621 0
M  V30 4617 O 449.098 -5.99475 5.35616 0
M  V30 4618 H 448.83 -0.658168 0.154243 0
M  V30 4619 H 451.384 -1.7498 1.0757 0
M  V30 4620 H 449.614 -3.84814 -0.381444 0
M  V30 4621 H 451.303 -4.05895 -0.0194894 0
M  V30 4622 H 452.069 -4.17921 2.46103 0
M  V30 4623 H 447.948 -4.43402 1.26158 0
M  V30 4624 H 451.492 -5.22524 4.62185 0
M  V30 4625 H 447.389 -5.47862 3.41347 0
M  V30 4626 H 448.157 -6.17937 5.36745 0
M  V30 4627 N 450.82 -0.546701 -1.47814 0
M  V30 4628 C 451.75 0.195317 -2.32682 0
M  V30 4629 C 452.731 0.918981 -1.43139 0
M  V30 4630 O 453.916 0.901501 -1.72008 0
M  V30 4631 C 451.046 1.23237 -3.247 0
M  V30 4632 C 450 0.625818 -4.234 0
M  V30 4633 C 449.326 1.76674 -5.04669 0
M  V30 4634 C 450.626 -0.413515 -5.2066 0
M  V30 4635 H 452.32 -0.513184 -2.94969 0
M  V30 4636 H 449.866 -0.248241 -1.41844 0
M  V30 4637 H 451.819 1.75955 -3.82907 0
M  V30 4638 H 450.543 1.97067 -2.60446 0
M  V30 4639 H 449.202 0.120023 -3.66403 0
M  V30 4640 H 448.85 2.49383 -4.36826 0
M  V30 4641 H 448.55 1.36673 -5.71484 0
M  V30 4642 H 450.074 2.29738 -5.65732 0
M  V30 4643 H 451.488 0.0272042 -5.73294 0
M  V30 4644 H 449.885 -0.731825 -5.95621 0
M  V30 4645 H 450.955 -1.31325 -4.66778 0
M  V30 4646 N 452.299 1.55045 -0.282633 0
M  V30 4647 C 453.229 2.2579 0.595066 0
M  V30 4648 C 454.21 1.25074 1.15284 0
M  V30 4649 O 455.395 1.5381 1.18559 0
M  V30 4650 C 452.525 2.98472 1.77572 0
M  V30 4651 C 451.479 4.0618 1.34914 0
M  V30 4652 C 450.805 4.66477 2.6135 0
M  V30 4653 C 452.105 5.1996 0.493821 0
M  V30 4654 H 453.799 2.994 0.00505653 0
M  V30 4655 H 451.345 1.44 0.000992001 0
M  V30 4656 H 453.298 3.46677 2.39568 0
M  V30 4657 H 452.022 2.2241 2.39168 0
M  V30 4658 H 450.681 3.58797 0.752338 0
M  V30 4659 H 450.329 3.87074 3.2122 0
M  V30 4660 H 450.029 5.39207 2.33516 0
M  V30 4661 H 451.553 5.17435 3.24181 0
M  V30 4662 H 452.967 5.64172 1.01898 0
M  V30 4663 H 451.364 5.99299 0.310047 0
M  V30 4664 H 452.434 4.82462 -0.485593 0
M  V30 4665 N 453.777 0.010035 1.57597 0
M  V30 4666 C 455.002 -0.687021 1.95691 0
M  V30 4667 C 455.427 -1.65952 0.885519 0
M  V30 4668 O 454.785 -1.80633 -0.15543 0
M  V30 4669 C 454.833 -1.3864 3.32884 0
M  V30 4670 O 453.937 -2.50115 3.27897 0
M  V30 4671 H 453.278 -0.181989 0.638573 0
M  V30 4672 H 455.808 0.0662122 2.04493 0
M  V30 4673 H 455.818 -1.74754 3.6868 0
M  V30 4674 H 454.493 -0.673411 4.10412 0
M  V30 4675 H 453.07 -2.16253 3.03791 0
M  V30 4676 N 455.255 -1.55392 -0.262866 0
M  V30 4677 C 456.666 -1.67079 -0.833158 0
M  V30 4678 C 457.017 -0.604539 -1.86654 0
M  V30 4679 O 456.142 0.252138 -2.14926 0
M  V30 4680 C 456.737 -3.02891 -1.51797 0
M  V30 4681 C 455.296 -3.16571 -2.03617 0
M  V30 4682 C 454.443 -2.62909 -0.881701 0
M  V30 4683 H 457.394 -1.58652 -0.0389986 0
M  V30 4684 H 457.415 -2.96445 -2.38538 0
M  V30 4685 H 456.927 -3.80473 -0.765619 0
M  V30 4686 H 455.028 -2.43782 -2.81782 0
M  V30 4687 H 455.141 -4.23271 -2.24452 0
M  V30 4688 H 453.505 -2.20324 -1.27786 0
M  V30 4689 H 454.288 -3.43003 -0.14269 0
M  V30 4690 N 456.733 0.527833 -1.48498 0
M  V30 4691 C 457.643 1.65907 -1.65867 0
M  V30 4692 C 458.659 1.6537 -0.541192 0
M  V30 4693 O 459.835 1.84282 -0.812534 0
M  V30 4694 C 456.9 3.02364 -1.69637 0
M  V30 4695 C 455.961 3.1374 -2.93028 0
M  V30 4696 C 455.194 4.43688 -2.96609 0
M  V30 4697 O 455.417 5.30913 -2.08538 0
M  V30 4698 O 454.351 4.59475 -3.88802 0
M  V30 4699 H 458.177 1.5419 -2.61647 0
M  V30 4700 H 455.762 0.701163 -1.31924 0
M  V30 4701 H 457.644 3.83515 -1.74625 0
M  V30 4702 H 456.319 3.14401 -0.770312 0
M  V30 4703 H 455.226 2.31877 -2.93571 0
M  V30 4704 H 456.559 3.06621 -3.85026 0
M  V30 4705 N 458.211 1.37122 0.776871 0
M  V30 4706 C 459.159 1.32549 1.91138 0
M  V30 4707 C 460.153 0.215119 1.68029 0
M  V30 4708 O 461.359 0.382852 1.75881 0
M  V30 4709 H 457.734 0.412952 0.62847 0
M  V30 4710 H 459.705 2.28332 1.92112 0
M  V30 4711 C 458.454 1.14422 3.28333 0
M  V30 4712 H 457.777 1.99115 3.46689 0
M  V30 4713 H 459.217 1.15272 4.0803 0
M  V30 4714 C 457.676 -0.150434 3.36564 0
M  V30 4715 O 458.206 -1.13584 3.85307 0
M  V30 4716 N 456.412 -0.19939 2.89915 0
M  V30 4717 H 455.959 0.603142 2.5044 0
M  V30 4718 H 455.917 -1.06526 2.95803 0
M  V30 4719 N 459.689 -1.00246 1.21608 0
M  V30 4720 C 460.619 -2.10921 1.00172 0
M  V30 4721 C 461.6 -1.69938 -0.0741587 0
M  V30 4722 O 462.785 -1.94009 0.0861753 0
M  V30 4723 C 459.915 -3.42618 0.568355 0
M  V30 4724 C 458.869 -3.97407 1.58909 0
M  V30 4725 C 458.195 -5.25038 1.01187 0
M  V30 4726 C 459.495 -4.2918 2.97661 0
M  V30 4727 H 461.189 -2.29112 1.92739 0
M  V30 4728 H 458.735 -1.10101 0.928102 0
M  V30 4729 H 460.688 -4.19444 0.405555 0
M  V30 4730 H 459.412 -3.24227 -0.392961 0
M  V30 4731 H 458.071 -3.22703 1.73949 0
M  V30 4732 H 457.719 -5.02982 0.0421965 0
M  V30 4733 H 457.419 -5.62661 1.6937 0
M  V30 4734 H 458.943 -6.04507 0.860448 0
M  V30 4735 H 460.357 -4.96839 2.86049 0
M  V30 4736 H 458.754 -4.77952 3.6288 0
M  V30 4737 H 459.824 -3.3735 3.48315 0
M  V30 4738 N 461.167 -1.02423 -1.1978 0
M  V30 4739 C 462.444 -0.632802 -1.85081 0
M  V30 4740 C 462.824 0.888745 -1.9148 0
M  V30 4741 O 462.172 1.78357 -1.42832 0
M  V30 4742 C 462.382 -1.28947 -3.24305 0
M  V30 4743 C 463.73 -1.40976 -4.00513 0
M  V30 4744 O 464.754 -1.24628 -3.33686 0
M  V30 4745 O 463.613 -1.67467 -5.20209 0
M  V30 4746 H 460.707 -0.219348 -0.79738 0
M  V30 4747 H 463.253 -1.12209 -1.27307 0
M  V30 4748 H 462.025 -2.3288 -3.14456 0
M  V30 4749 H 461.648 -0.787748 -3.89718 0
M  V30 4750 N 462.645 1.35699 -0.801477 0
M  V30 4751 C 463.922 1.9324 -0.302937 0
M  V30 4752 C 464.302 1.73209 1.20672 0
M  V30 4753 O 463.65 1.09809 2.00385 0
M  V30 4754 C 463.86 3.41728 -0.708747 0
M  V30 4755 C 465.208 4.18868 -0.695328 0
M  V30 4756 O 466.232 3.5022 -0.649971 0
M  V30 4757 O 465.091 5.41342 -0.749081 0
M  V30 4758 H 462.185 0.82331 -0.0780367 0
M  V30 4759 H 464.731 1.44806 -0.884832 0
M  V30 4760 H 463.503 3.50015 -1.74944 0
M  V30 4761 H 463.126 3.97471 -0.101384 0
M  V30 4762 N 464.123 0.554532 1.47522 0
M  V30 4763 C 465.053 -0.182974 2.32782 0
M  V30 4764 C 466.034 -0.911377 1.43624 0
M  V30 4765 O 467.219 -0.892366 1.72483 0
M  V30 4766 C 464.349 -1.21513 3.25349 0
M  V30 4767 C 463.303 -0.603355 4.23726 0
M  V30 4768 C 462.629 -1.73995 5.05598 0
M  V30 4769 C 463.929 0.441121 5.20434 0
M  V30 4770 H 465.623 0.52882 2.94693 0
M  V30 4771 H 463.169 0.255759 1.41711 0
M  V30 4772 H 465.122 -1.73922 3.83835 0
M  V30 4773 H 463.846 -1.95683 2.61487 0
M  V30 4774 H 462.505 -0.10059 3.66462 0
M  V30 4775 H 462.153 -2.47063 4.38143 0
M  V30 4776 H 461.853 -1.3364 5.72201 0
M  V30 4777 H 463.377 -2.26735 5.66942 0
M  V30 4778 H 464.791 0.00319931 5.733 0
M  V30 4779 H 463.188 0.763402 5.95224 0
M  V30 4780 H 464.258 1.33799 4.66075 0
M  V30 4781 N 465.601 -1.54893 0.290851 0
M  V30 4782 C 466.85 -1.99111 -0.322113 0
M  V30 4783 C 467.163 -1.18283 -1.55784 0
M  V30 4784 O 468.369 -1.5272 -2.24475 0
M  V30 4785 C 466.825 -3.54442 -0.624438 0
M  V30 4786 C 466.433 -4.44066 0.592373 0
M  V30 4787 C 468.177 -4.07211 -1.19916 0
M  V30 4788 C 466.084 -5.90812 0.263762 0
M  V30 4789 H 465.014 -0.743712 -0.124133 0
M  V30 4790 H 467.665 -1.79132 0.39797 0
M  V30 4791 H 466.047 -3.70281 -1.40384 0
M  V30 4792 H 467.221 -4.39999 1.36886 0
M  V30 4793 H 465.536 -4.02015 1.08502 0
M  V30 4794 H 468.133 -5.14407 -1.45909 0
M  V30 4795 H 468.476 -3.57196 -2.13815 0
M  V30 4796 H 469.009 -3.94873 -0.481687 0
M  V30 4797 H 465.748 -6.44955 1.17105 0
M  V30 4798 H 465.268 -5.97911 -0.475655 0
M  V30 4799 H 466.947 -6.46852 -0.138354 0
M  V30 4800 N 467.08 -0.0183926 -1.57589 0
M  V30 4801 C 468.043 0.951986 -2.08494 0
M  V30 4802 C 469.043 1.26092 -0.997874 0
M  V30 4803 O 470.233 1.20304 -1.25987 0
M  V30 4804 C 467.365 2.27165 -2.54182 0
M  V30 4805 H 468.558 0.511307 -2.95509 0
M  V30 4806 H 466.111 0.229444 -1.54607 0
M  V30 4807 H 466.846 2.75884 -1.70465 0
M  V30 4808 H 466.631 2.06057 -3.33591 0
M  V30 4809 H 468.121 2.9674 -2.93828 0
M  V30 4810 N 468.558 1.5553 0.254621 0
M  V30 4811 C 469.974 1.4778 0.602753 0
M  V30 4812 C 470.174 0.707047 1.88688 0
M  V30 4813 O 469.23 0.233288 2.5142 0
M  V30 4814 C 470.543 2.92133 0.712648 0
M  V30 4815 C 472.091 3.02458 0.805488 0
M  V30 4816 C 472.566 4.48102 0.947009 0
M  V30 4817 N 474.057 4.52008 1.01207 0
M  V30 4818 C 474.792 5.61939 1.1407 0
M  V30 4819 N 474.288 6.81697 1.23536 0
M  V30 4820 N 476.081 5.49719 1.17325 0
M  V30 4821 H 468.232 2.04085 -0.588463 0
M  V30 4822 H 470.495 0.926229 -0.202001 0
M  V30 4823 H 470.201 3.51332 -0.160766 0
M  V30 4824 H 470.075 3.42187 1.58707 0
M  V30 4825 H 472.462 2.43344 1.66936 0
M  V30 4826 H 472.543 2.55627 -0.0939266 0
M  V30 4827 H 472.187 5.07824 0.087725 0
M  V30 4828 H 472.117 4.92607 1.86135 0
M  V30 4829 H 474.608 3.65749 0.950577 0
M  V30 4830 H 474.921 7.61228 1.33236 0
M  V30 4831 H 473.266 6.84473 1.20508 0
M  V30 4832 H 476.457 4.55095 1.09573 0
M  V30 4833 H 476.63 6.35432 1.27005 0
M  V30 4834 N 470.036 -0.519951 1.48776 0
M  V30 4835 C 471.313 -1.28123 1.47797 0
M  V30 4836 C 471.693 -2.10196 0.195157 0
M  V30 4837 O 471.041 -2.13167 -0.822925 0
M  V30 4838 C 471.251 -2.15413 2.74587 0
M  V30 4839 C 472.599 -2.75225 3.23321 0
M  V30 4840 O 473.623 -2.25694 2.75574 0
M  V30 4841 O 472.482 -3.65346 4.06429 0
M  V30 4842 H 469.576 -0.578793 0.590701 0
M  V30 4843 H 472.122 -0.535779 1.6102 0
M  V30 4844 H 470.894 -1.54617 3.59457 0
M  V30 4845 H 470.517 -2.97186 2.64132 0
M  V30 4846 N 471.514 -1.37532 -0.769588 0
M  V30 4847 C 472.76 -1.33057 -1.53048 0
M  V30 4848 C 473.093 0.0841865 -1.94017 0
M  V30 4849 O 472.368 1.04198 -1.64235 0
M  V30 4850 C 472.651 -2.27166 -2.79406 0
M  V30 4851 C 472.504 -3.77429 -2.44677 0
M  V30 4852 C 473.823 -2.19683 -3.81349 0
M  V30 4853 H 470.942 -0.484655 -0.555228 0
M  V30 4854 H 473.584 -1.68251 -0.882702 0
M  V30 4855 H 471.734 -1.97283 -3.34682 0
M  V30 4856 H 473.406 -4.17918 -1.953 0
M  V30 4857 H 471.649 -3.95892 -1.77346 0
M  V30 4858 H 472.32 -4.38716 -3.35011 0
M  V30 4859 H 474.796 -2.46029 -3.35573 0
M  V30 4860 H 473.672 -2.87668 -4.67481 0
M  V30 4861 H 473.933 -1.19045 -4.25771 0
M  V30 4862 O 473.031 0.909716 -1.33441 0
M  V30 4863 H 473.722 1.54385 -1.16983 0
M  V30 END ATOM
M  V30 BEGIN BOND
M  V30 END BOND
M  V30 END CTAB
M  END
$$$$
