drugbank_target|P05090 Apolipoprotein D (DB00162; DB09130)
 OpenBabel12092121013D

  0  0  0     0  0            999 V3000
M  V30 BEGIN CTAB
M  V30 COUNTS 2988 3024 0 0 0
M  V30 BEGIN ATOM
M  V30 1 H -0.908 1.98254 -0.117106 0
M  V30 2 N 0 1.576 0 0
M  V30 3 C 0.933 2.03868 1.02534 0
M  V30 4 C 1.911 0.928543 1.3348 0
M  V30 5 O 3.095 1.19667 1.45644 0
M  V30 6 C 0.222 2.43627 2.35294 0
M  V30 7 C -0.732 3.65373 2.2001 0
M  V30 8 S 0.101 5.13292 1.52614 0
M  V30 9 C 1.257 5.56322 2.86805 0
M  V30 10 H 1.49 2.90518 0.631377 0
M  V30 11 H -0.977 1.52953 0.210867 0
M  V30 12 H 0.981 2.67203 3.11629 0
M  V30 13 H -0.358 1.57376 2.7183 0
M  V30 14 H -1.165 3.90944 3.18086 0
M  V30 15 H -1.563 3.418 1.51819 0
M  V30 16 H 0.729 5.58782 3.83104 0
M  V30 17 H 1.672 6.56266 2.65933 0
M  V30 18 H 2.08 4.83886 2.90714 0
M  V30 19 N 1.4781 -0.272755 1.55222 0
M  V30 20 C 2.7241 -1.00581 1.761 0
M  V30 21 C 3.0571 -1.85932 0.560625 0
M  V30 22 O 2.3321 -1.89416 -0.441801 0
M  V30 23 C 2.6151 -1.88816 3.06628 0
M  V30 24 C 2.4681 -1.06457 4.37021 0
M  V30 25 C 3.7871 -2.8752 3.33197 0
M  V30 26 H 0.9061 -0.364244 0.640699 0
M  V30 27 H 3.5481 -0.278189 1.87952 0
M  V30 28 H 1.6981 -2.50856 2.96654 0
M  V30 29 H 3.3701 -0.464863 4.58952 0
M  V30 30 H 1.6131 -0.368043 4.32236 0
M  V30 31 H 2.2841 -1.71514 5.24678 0
M  V30 32 H 4.7601 -2.35615 3.42965 0
M  V30 33 H 3.6361 -3.46399 4.25792 0
M  V30 34 H 3.8971 -3.62657 2.52849 0
M  V30 35 N 2.9562 -1.48159 -0.537278 0
M  V30 36 C 3.8892 -1.567 -1.65893 0
M  V30 37 C 4.8672 -0.41787 -1.57139 0
M  V30 38 O 6.0512 -0.628461 -1.77715 0
M  V30 39 C 3.1782 -1.48818 -3.04255 0
M  V30 40 C 2.2242 -2.68482 -3.31391 0
M  V30 41 S 3.0572 -4.30516 -3.1846 0
M  V30 42 C 4.2132 -4.2522 -4.59281 0
M  V30 43 H 4.4462 -2.5159 -1.58397 0
M  V30 44 H 1.9792 -1.36602 -0.719672 0
M  V30 45 H 3.9372 -1.44958 -3.84054 0
M  V30 46 H 2.5982 -0.552777 -3.09198 0
M  V30 47 H 1.7912 -2.59085 -4.32309 0
M  V30 48 H 1.3932 -2.69567 -2.59248 0
M  V30 49 H 3.6852 -3.94703 -5.5065 0
M  V30 50 H 4.6282 -5.26292 -4.73732 0
M  V30 51 H 5.0362 -3.55791 -4.38261 0
M  V30 52 N 4.4343 0.785586 -1.36625 0
M  V30 53 C 5.3643 1.91259 -1.33949 0
M  V30 54 C 6.3453 1.68795 -0.210325 0
M  V30 55 O 7.5303 1.89854 -0.408561 0
M  V30 56 C 4.6603 3.28339 -1.13186 0
M  V30 57 C 3.6143 3.65335 -2.22967 0
M  V30 58 C 2.9403 5.00806 -1.87342 0
M  V30 59 C 4.2403 3.7352 -3.65075 0
M  V30 60 H 5.9343 1.93755 -2.28253 0
M  V30 61 H 3.4803 0.930788 -1.09874 0
M  V30 62 H 5.4333 4.06804 -1.09948 0
M  V30 63 H 4.1573 3.2624 -0.153332 0
M  V30 64 H 2.8163 2.89169 -2.25337 0
M  V30 65 H 2.4643 4.95233 -0.880545 0
M  V30 66 H 2.1643 5.26529 -2.60846 0
M  V30 67 H 3.6883 5.81687 -1.85667 0
M  V30 68 H 5.1023 4.42168 -3.64911 0
M  V30 69 H 3.4993 4.10731 -4.37516 0
M  V30 70 H 4.5693 2.74527 -3.99703 0
M  V30 71 N 5.9124 1.20967 1.01018 0
M  V30 72 C 6.8424 0.988272 2.11555 0
M  V30 73 C 7.8234 -0.0849778 1.69888 0
M  V30 74 O 9.0084 0.0738202 1.9406 0
M  V30 75 C 6.1384 0.546528 3.42973 0
M  V30 76 C 5.0924 1.56375 3.9841 0
M  V30 77 C 4.4184 0.97842 5.25672 0
M  V30 78 C 5.7184 2.94922 4.31066 0
M  V30 79 H 7.4124 1.91276 2.30334 0
M  V30 80 H 4.9584 0.921073 1.1069 0
M  V30 81 H 6.9114 0.378839 4.19694 0
M  V30 82 H 5.6354 -0.413598 3.23971 0
M  V30 83 H 4.2944 1.71891 3.23804 0
M  V30 84 H 3.9424 0.0101688 5.02999 0
M  V30 85 H 3.6424 1.65784 5.63728 0
M  V30 86 H 5.1664 0.821939 6.05043 0
M  V30 87 H 6.5804 2.8288 4.9865 0
M  V30 88 H 4.9774 3.5983 4.80253 0
M  V30 89 H 6.0474 3.4616 3.39561 0
M  V30 90 N 7.3905 -1.2043 1.01659 0
M  V30 91 C 8.3205 -2.25466 0.607226 0
M  V30 92 C 9.3015 -1.65853 -0.377716 0
M  V30 93 O 10.4865 -1.92409 -0.263149 0
M  V30 94 C 7.6165 -3.47256 -0.0552949 0
M  V30 95 C 6.5705 -4.19462 0.850632 0
M  V30 96 C 5.8965 -5.34673 0.0538859 0
M  V30 97 C 7.1965 -4.75603 2.15868 0
M  V30 98 H 8.8905 -2.59962 1.48526 0
M  V30 99 H 6.4365 -1.2496 0.715605 0
M  V30 100 H 8.3895 -4.19917 -0.353233 0
M  V30 101 H 7.1135 -3.11924 -0.968045 0
M  V30 102 H 5.7725 -3.48667 1.13257 0
M  V30 103 H 5.4205 -4.95585 -0.860514 0
M  V30 104 H 5.1205 -5.83913 0.657192 0
M  V30 105 H 6.6445 -6.10138 -0.237598 0
M  V30 106 H 8.0585 -5.40083 1.92311 0
M  V30 107 H 6.4555 -5.3528 2.71284 0
M  V30 108 H 7.5255 -3.94346 2.82169 0
M  V30 109 N 8.8686 -0.792821 -1.36206 0
M  V30 110 C 9.7986 -0.207853 -2.32573 0
M  V30 111 C 10.7796 0.659055 -1.56813 0
M  V30 112 O 11.9646 0.592176 -1.84951 0
M  V30 113 C 9.0946 0.655449 -3.41059 0
M  V30 114 C 8.0486 -0.111842 -4.27854 0
M  V30 115 C 7.3746 0.872274 -5.27537 0
M  V30 116 C 8.6746 -1.30299 -5.05786 0
M  V30 117 H 10.3686 -1.01294 -2.81744 0
M  V30 118 H 7.9146 -0.48854 -1.3546 0
M  V30 119 H 9.8676 1.07464 -4.07467 0
M  V30 120 H 8.5916 1.49328 -2.90463 0
M  V30 121 H 7.2506 -0.512053 -3.63006 0
M  V30 122 H 6.8986 1.70523 -4.73214 0
M  V30 123 H 6.5986 0.363291 -5.86476 0
M  V30 124 H 8.1226 1.28996 -5.96818 0
M  V30 125 H 9.5366 -0.959379 -5.65216 0
M  V30 126 H 7.9336 -1.7455 -5.74154 0
M  V30 127 H 9.0036 -2.09663 -4.37229 0
M  V30 128 N 10.3467 1.47872 -0.545128 0
M  V30 129 C 11.2767 2.32661 0.197793 0
M  V30 130 C 12.2577 1.43041 0.920504 0
M  V30 131 O 13.4427 1.71912 0.90333 0
M  V30 132 C 10.5727 3.24569 1.23582 0
M  V30 133 C 9.5267 4.23333 0.630323 0
M  V30 134 C 8.8527 5.0448 1.77211 0
M  V30 135 C 10.1527 5.20704 -0.407974 0
M  V30 136 H 11.8467 2.95024 -0.510045 0
M  V30 137 H 9.3927 1.4187 -0.246731 0
M  V30 138 H 11.3457 3.8272 1.76362 0
M  V30 139 H 10.0697 2.60236 1.97344 0
M  V30 140 H 8.7287 3.6639 0.123922 0
M  V30 141 H 8.3767 4.36561 2.49847 0
M  V30 142 H 8.0767 5.71339 1.37281 0
M  V30 143 H 9.6007 5.65487 2.3034 0
M  V30 144 H 11.0147 5.7329 0.033305 0
M  V30 145 H 9.4117 5.95699 -0.725486 0
M  V30 146 H 10.4817 4.66917 -1.30828 0
M  V30 147 N 11.8248 0.280983 1.55075 0
M  V30 148 C 13.0498 -0.340154 2.04592 0
M  V30 149 C 13.4748 -1.48246 1.15779 0
M  V30 150 O 12.8328 -1.80614 0.15761 0
M  V30 151 C 12.8808 -0.793104 3.5177 0
M  V30 152 O 11.9848 -1.89981 3.66034 0
M  V30 153 H 11.3258 -0.0694289 0.66036 0
M  V30 154 H 13.8558 0.416993 2.00306 0
M  V30 155 H 13.8658 -1.08729 3.93245 0
M  V30 156 H 12.5408 0.0426163 4.15878 0
M  V30 157 H 11.1178 -1.60771 3.36463 0
M  V30 158 N 13.3029 -1.57598 0.00835791 0
M  V30 159 C 14.2659 -2.07884 -0.965242 0
M  V30 160 C 15.2659 -0.989825 -1.26725 0
M  V30 161 O 16.4559 -1.25218 -1.21104 0
M  V30 162 C 13.5879 -2.52731 -2.28779 0
M  V30 163 H 14.7809 -2.95178 -0.530112 0
M  V30 164 H 12.3339 -1.54458 -0.239283 0
M  V30 165 H 13.0689 -1.68705 -2.76964 0
M  V30 166 H 12.8539 -3.32272 -2.08177 0
M  V30 167 H 14.3439 -2.91933 -2.98605 0
M  V30 168 N 14.781 0.264519 -1.55364 0
M  V30 169 C 15.711 1.33121 -1.91836 0
M  V30 170 C 16.692 1.51101 -0.781192 0
M  V30 171 O 17.877 1.64003 -1.04003 0
M  V30 172 C 15.007 2.68921 -2.19769 0
M  V30 173 C 13.961 2.65661 -3.35571 0
M  V30 174 C 13.287 4.05093 -3.49004 0
M  V30 175 C 14.587 2.24187 -4.71739 0
M  V30 176 H 16.281 1.02844 -2.81182 0
M  V30 177 H 13.827 0.493286 -1.35287 0
M  V30 178 H 15.78 3.43663 -2.43872 0
M  V30 179 H 14.504 3.00799 -1.27231 0
M  V30 180 H 13.163 1.93377 -3.1145 0
M  V30 181 H 12.811 4.34206 -2.53917 0
M  V30 182 H 12.511 4.03804 -4.26868 0
M  V30 183 H 14.035 4.81561 -3.75408 0
M  V30 184 H 15.449 2.88654 -4.9533 0
M  V30 185 H 13.846 2.34044 -5.52579 0
M  V30 186 H 14.916 1.19327 -4.69988 0
M  V30 187 N 16.2591 1.48442 0.529413 0
M  V30 188 C 17.2221 1.62524 1.61612 0
M  V30 189 C 18.2221 0.498509 1.52877 0
M  V30 190 O 19.4121 0.76431 1.56537 0
M  V30 191 C 16.5441 1.59597 3.01233 0
M  V30 192 H 17.7371 2.59423 1.50465 0
M  V30 193 H 15.2901 1.37047 0.751514 0
M  V30 194 H 16.0251 0.641781 3.17886 0
M  V30 195 H 15.8101 2.41397 3.08982 0
M  V30 196 H 17.3001 1.72646 3.80241 0
M  V30 197 N 17.7372 -0.778329 1.37039 0
M  V30 198 C 18.9852 -1.53361 1.31623 0
M  V30 199 C 19.3062 -1.94739 -0.100831 0
M  V30 200 O 18.5762 -1.65797 -1.04347 0
M  V30 201 H 17.1562 -0.568794 0.484234 0
M  V30 202 H 19.8182 -0.926742 1.71457 0
M  V30 203 H 18.9142 -2.43606 1.95096 0
M  V30 204 N 19.2153 -1.21501 -1.00376 0
M  V30 205 C 20.1453 -0.999478 -2.11028 0
M  V30 206 C 21.1263 0.0759671 -1.6993 0
M  V30 207 O 22.3113 -0.0841106 -1.94018 0
M  V30 208 C 19.4413 -0.564709 -3.42678 0
M  V30 209 C 18.3953 -1.58486 -3.97576 0
M  V30 210 C 17.7213 -1.00628 -5.25146 0
M  V30 211 C 19.0213 -2.97204 -4.29496 0
M  V30 212 H 20.7153 -1.92495 -2.29317 0
M  V30 213 H 18.2613 -0.92693 -1.102 0
M  V30 214 H 20.2143 -0.401091 -4.19487 0
M  V30 215 H 18.9383 0.396411 -3.24185 0
M  V30 216 H 17.5973 -1.73606 -3.22888 0
M  V30 217 H 17.2453 -0.0368439 -5.02987 0
M  V30 218 H 16.9453 -1.68771 -5.62841 0
M  V30 219 H 18.4693 -0.854015 -6.04598 0
M  V30 220 H 19.8833 -2.8552 -4.97143 0
M  V30 221 H 18.2803 -3.62372 -4.78338 0
M  V30 222 H 19.3503 -3.47956 -3.3772 0
M  V30 223 N 20.6934 1.19889 -1.02296 0
M  V30 224 C 21.9404 1.8942 -0.715972 0
M  V30 225 C 22.2684 1.79251 0.754944 0
M  V30 226 O 21.5234 1.17526 1.56481 0
M  V30 227 C 21.8224 3.39883 -1.10518 0
M  V30 228 C 21.4884 3.70254 -2.57337 0
M  V30 229 C 20.1504 3.78254 -2.97452 0
M  V30 230 C 22.5024 3.84052 -3.52354 0
M  V30 231 C 19.8304 3.97514 -4.31509 0
M  V30 232 C 22.1824 4.04824 -4.86108 0
M  V30 233 C 20.8464 4.11054 -5.25919 0
M  V30 234 H 20.1164 0.693138 -0.261993 0
M  V30 235 H 22.7634 1.42012 -1.28472 0
M  V30 236 H 21.0684 3.8915 -0.454953 0
M  V30 237 H 22.7654 3.9199 -0.845261 0
M  V30 238 H 19.3554 3.64632 -2.25258 0
M  V30 239 H 23.5394 3.77221 -3.22518 0
M  V30 240 H 18.7954 4.00574 -4.61898 0
M  V30 241 H 22.9694 4.14442 -5.59653 0
M  V30 242 H 20.5964 4.2573 -6.29808 0
M  V30 243 N 22.1715 0.800033 1.35784 0
M  V30 244 C 23.4195 0.376597 1.9856 0
M  V30 245 C 23.7405 -1.05812 1.63795 0
M  V30 246 O 23.0105 -1.73103 0.917171 0
M  V30 247 H 21.5905 0.136261 0.734467 0
M  V30 248 H 24.2525 1.02442 1.65806 0
M  V30 249 H 23.3485 0.477002 3.08433 0
M  V30 250 N 23.6496 -1.47581 0.552962 0
M  V30 251 C 24.6126 -2.28439 -0.186605 0
M  V30 252 C 25.6126 -1.36706 -0.84665 0
M  V30 253 O 26.8026 -1.59378 -0.703164 0
M  V30 254 C 23.9346 -3.16264 -1.2724 0
M  V30 255 H 25.1276 -2.95294 0.523609 0
M  V30 256 H 22.6806 -1.532 0.309745 0
M  V30 257 H 23.4156 -2.54091 -2.01514 0
M  V30 258 H 23.2006 -3.83769 -0.803968 0
M  V30 259 H 24.6906 -3.77198 -1.79196 0
M  V30 260 N 25.1277 -0.289203 -1.54924 0
M  V30 261 C 26.0907 0.579144 -2.21762 0
M  V30 262 C 27.0907 1.07047 -1.1999 0
M  V30 263 O 28.2807 0.968384 -1.44803 0
M  V30 264 C 25.4127 1.80055 -2.8947 0
M  V30 265 H 26.6057 -0.00464908 -2.999 0
M  V30 266 H 24.1587 -0.0399306 -1.56249 0
M  V30 267 H 24.8937 2.42449 -2.15381 0
M  V30 268 H 24.6787 1.45602 -3.64064 0
M  V30 269 H 26.1687 2.41773 -3.40493 0
M  V30 270 N 26.6058 1.57591 -0.0167156 0
M  V30 271 C 27.5158 2.1291 0.98521 0
M  V30 272 C 28.5318 1.07834 1.36557 0
M  V30 273 O 29.7078 1.39826 1.44951 0
M  V30 274 C 26.7728 2.63512 2.25305 0
M  V30 275 C 25.8338 3.83256 1.93426 0
M  V30 276 C 25.0668 4.31435 3.14165 0
M  V30 277 O 25.2898 3.78851 4.26413 0
M  V30 278 O 24.2238 5.23416 2.97186 0
M  V30 279 H 28.0498 2.98772 0.544888 0
M  V30 280 H 25.6348 1.48012 0.203141 0
M  V30 281 H 27.5168 2.96183 2.99756 0
M  V30 282 H 26.1918 1.8074 2.68542 0
M  V30 283 H 25.0988 3.55531 1.16398 0
M  V30 284 H 26.4318 4.67153 1.55013 0
M  V30 285 N 28.0839 -0.256276 1.55502 0
M  V30 286 C 29.3319 -0.983672 1.76545 0
M  V30 287 C 29.6529 -1.86206 0.578982 0
M  V30 288 O 28.9229 -1.91656 -0.405577 0
M  V30 289 H 27.5029 -0.366191 0.651086 0
M  V30 290 H 30.1649 -0.276479 1.92929 0
M  V30 291 H 29.2609 -1.61087 2.67315 0
M  V30 292 N 29.562 -1.4872 -0.521534 0
M  V30 293 C 30.494 -1.59968 -1.64143 0
M  V30 294 C 31.507 -0.483463 -1.55456 0
M  V30 295 O 32.696 -0.75467 -1.61762 0
M  V30 296 C 29.796 -1.52127 -3.02838 0
M  V30 297 C 28.969 -2.78932 -3.36921 0
M  V30 298 C 28.028 -2.64428 -4.54933 0
M  V30 299 O 27.054 -3.38331 -4.57735 0
M  V30 300 N 28.256 -1.74606 -5.53618 0
M  V30 301 H 31.021 -2.56548 -1.54929 0
M  V30 302 H 28.582 -1.45551 -0.708988 0
M  V30 303 H 30.574 -1.40106 -3.79674 0
M  V30 304 H 29.144 -0.634868 -3.06085 0
M  V30 305 H 28.364 -3.05455 -2.4918 0
M  V30 306 H 29.652 -3.63041 -3.56481 0
M  V30 307 H 29.05 -1.13782 -5.54139 0
M  V30 308 H 27.607 -1.6852 -6.29638 0
M  V30 309 N 31.0401 0.771051 -1.3745 0
M  V30 310 C 32.0031 1.86598 -1.33093 0
M  V30 311 C 33.0031 1.59076 -0.234845 0
M  V30 312 O 34.1931 1.67145 -0.490732 0
M  V30 313 C 31.3251 3.23747 -1.06773 0
M  V30 314 H 32.5181 1.91873 -2.30488 0
M  V30 315 H 30.0711 0.970876 -1.2249 0
M  V30 316 H 30.8061 3.24148 -0.099129 0
M  V30 317 H 30.5911 3.45115 -1.86112 0
M  V30 318 H 32.0811 4.03824 -1.06377 0
M  V30 319 N 32.5182 1.22032 0.997298 0
M  V30 320 C 33.7652 1.04222 1.73621 0
M  V30 321 C 34.0932 -0.423264 1.89839 0
M  V30 322 O 33.3482 -1.3302 1.43542 0
M  V30 323 C 33.6472 1.69345 3.14733 0
M  V30 324 C 33.3132 3.19226 3.18442 0
M  V30 325 C 31.9752 3.60124 3.19161 0
M  V30 326 C 34.3272 4.15181 3.15078 0
M  V30 327 C 31.6552 4.95467 3.14212 0
M  V30 328 C 34.0072 5.50495 3.1167 0
M  V30 329 C 32.6712 5.90779 3.10703 0
M  V30 330 H 31.9412 0.381374 0.635323 0
M  V30 331 H 34.5882 1.51732 1.16831 0
M  V30 332 H 32.8932 1.14147 3.74803 0
M  V30 333 H 34.5902 1.53059 3.7064 0
M  V30 334 H 31.1802 2.86659 3.18629 0
M  V30 335 H 35.3642 3.84605 3.13676 0
M  V30 336 H 30.6202 5.25916 3.11805 0
M  V30 337 H 34.7942 6.24576 3.08022 0
M  V30 338 H 32.4212 6.9562 3.06622 0
M  V30 339 N 33.9963 -1.19345 1.0293 0
M  V30 340 C 34.9463 -2.20472 0.58104 0
M  V30 341 C 35.9303 -1.56578 -0.370442 0
M  V30 342 O 37.1223 -1.75963 -0.191344 0
M  V30 343 C 34.2513 -3.43236 -0.066306 0
M  V30 344 C 33.3373 -4.14274 0.907642 0
M  V30 345 N 33.7283 -4.61492 2.07023 0
M  V30 346 C 32.0263 -4.39966 0.731177 0
M  V30 347 C 32.7273 -5.1605 2.68454 0
M  V30 348 N 31.7033 -5.06875 1.96414 0
M  V30 349 H 35.5053 -2.54659 1.46717 0
M  V30 350 H 33.0193 -1.35423 0.896345 0
M  V30 351 H 35.0163 -4.14927 -0.405068 0
M  V30 352 H 33.6763 -3.10549 -0.948118 0
M  V30 353 H 34.6873 -4.56304 2.44963 0
M  V30 354 H 31.3643 -4.17377 -0.101507 0
M  V30 355 H 32.7543 -5.6287 3.66915 0
M  V30 356 N 35.4744 -0.807222 -1.35358 0
M  V30 357 C 36.4044 -0.232509 -2.3234 0
M  V30 358 C 37.3854 0.642386 -1.57504 0
M  V30 359 O 38.5704 0.572526 -1.85569 0
M  V30 360 C 35.7004 0.619238 -3.41735 0
M  V30 361 C 34.6544 -0.157215 -4.27711 0
M  V30 362 C 33.9804 0.816273 -5.28433 0
M  V30 363 C 35.2804 -1.35656 -5.04376 0
M  V30 364 H 36.9744 -1.04276 -2.80654 0
M  V30 365 H 34.5204 -0.50288 -1.34934 0
M  V30 366 H 36.4734 1.03137 -4.08584 0
M  V30 367 H 35.1974 1.46239 -2.92031 0
M  V30 368 H 33.8564 -0.550525 -3.62443 0
M  V30 369 H 33.5044 1.65494 -4.74996 0
M  V30 370 H 33.2044 0.301067 -5.86828 0
M  V30 371 H 34.7284 1.22659 -5.98153 0
M  V30 372 H 36.1424 -1.01927 -5.64166 0
M  V30 373 H 34.5394 -1.8063 -5.7227 0
M  V30 374 H 35.6094 -2.14288 -4.34981 0
M  V30 375 N 36.9525 1.47285 -0.560781 0
M  V30 376 C 38.2005 2.02064 -0.0379868 0
M  V30 377 C 38.5215 1.43711 1.31803 0
M  V30 378 O 37.7915 0.61362 1.86042 0
M  V30 379 H 36.3715 0.746918 -0.0110531 0
M  V30 380 H 39.0335 1.80648 -0.731598 0
M  V30 381 H 38.1295 3.12064 0.0474463 0
M  V30 382 N 38.4306 0.297415 1.54768 0
M  V30 383 C 39.3776 -0.580276 2.23386 0
M  V30 384 C 40.3476 -1.13238 1.21517 0
M  V30 385 O 41.5326 -1.17757 1.50126 0
M  V30 386 C 38.6726 -1.74801 2.97555 0
M  V30 387 C 37.7856 -1.22764 4.1419 0
M  V30 388 C 36.9206 -2.35895 4.75949 0
M  V30 389 C 35.9596 -1.80974 5.84735 0
M  V30 390 N 35.0966 -2.87664 6.40464 0
M  V30 391 H 39.9366 0.0114833 2.97998 0
M  V30 392 H 37.4736 0.0174361 1.4709 0
M  V30 393 H 39.4316 -2.43475 3.38786 0
M  V30 394 H 38.0616 -2.31145 2.25326 0
M  V30 395 H 37.1136 -0.433271 3.77924 0
M  V30 396 H 38.4256 -0.785551 4.92575 0
M  V30 397 H 37.5796 -3.12523 5.20014 0
M  V30 398 H 36.3186 -2.83429 3.96887 0
M  V30 399 H 35.3236 -1.02834 5.40097 0
M  V30 400 H 36.5486 -1.34348 6.65678 0
M  V30 401 H 34.4946 -3.34538 5.64287 0
M  V30 402 H 34.4116 -2.4794 7.14186 0
M  V30 403 H 35.6796 -3.642 6.89187 0
M  V30 404 N 39.9087 -1.5758 0.0250728 0
M  V30 405 C 41.1487 -1.93497 -0.65865 0
M  V30 406 C 41.5127 -0.901409 -1.69525 0
M  V30 407 O 42.7137 -1.14664 -2.43116 0
M  V30 408 C 40.9847 -3.34352 -1.26267 0
M  V30 409 S 42.5437 -3.92191 -1.96803 0
M  V30 410 H 39.3617 -0.67709 -0.216958 0
M  V30 411 H 41.9637 -1.95303 0.0877692 0
M  V30 412 H 40.6677 -4.07395 -0.495741 0
M  V30 413 H 40.1987 -3.3598 -2.04648 0
M  V30 414 H 42.2137 -3.75298 -3.24601 0
M  V30 415 N 41.3868 0.248026 -1.55636 0
M  V30 416 C 42.7978 0.817177 -1.67866 0
M  V30 417 C 43.1488 1.86069 -0.622322 0
M  V30 418 O 42.2738 2.15157 0.231618 0
M  V30 419 C 42.8688 1.489 -3.04326 0
M  V30 420 C 41.4278 2.00587 -3.185 0
M  V30 421 C 40.5748 0.856573 -2.63739 0
M  V30 422 H 43.5258 0.0238579 -1.58682 0
M  V30 423 H 43.5468 2.35698 -2.98708 0
M  V30 424 H 43.0588 0.729279 -3.81186 0
M  V30 425 H 41.1598 2.79443 -2.4646 0
M  V30 426 H 41.2728 2.20402 -4.25393 0
M  V30 427 H 39.6368 1.25678 -2.21534 0
M  V30 428 H 40.4198 0.109953 -3.43124 0
M  V30 429 N 42.8649 1.48995 0.513639 0
M  V30 430 C 43.8129 1.65199 1.63744 0
M  V30 431 C 44.8069 0.51809 1.61283 0
M  V30 432 O 46.0129 0.697335 1.65943 0
M  V30 433 H 42.3879 0.52069 0.542574 0
M  V30 434 H 44.3589 2.59552 1.47226 0
M  V30 435 C 43.1079 1.72409 3.01945 0
M  V30 436 H 42.4309 2.59029 3.04539 0
M  V30 437 H 43.8709 1.87785 3.80148 0
M  V30 438 C 42.3299 0.46618 3.33659 0
M  V30 439 O 42.8599 -0.413744 3.99564 0
M  V30 440 N 41.0659 0.332931 2.88687 0
M  V30 441 H 40.6129 1.04996 2.35231 0
M  V30 442 H 40.5709 -0.507665 3.10274 0
M  V30 443 N 44.343 -0.763751 1.37857 0
M  V30 444 C 45.754 -1.3405 1.29952 0
M  V30 445 C 46.105 -1.96138 -0.0492898 0
M  V30 446 O 45.23 -1.94372 -0.951239 0
M  V30 447 C 45.825 -2.43729 2.35333 0
M  V30 448 C 44.384 -2.97151 2.31037 0
M  V30 449 C 43.531 -1.70438 2.18738 0
M  V30 450 H 46.482 -0.563396 1.48363 0
M  V30 451 H 46.503 -3.23412 2.00462 0
M  V30 452 H 46.015 -1.9851 3.33489 0
M  V30 453 H 44.116 -3.46724 1.3643 0
M  V30 454 H 44.229 -3.52221 3.24772 0
M  V30 455 H 42.593 -1.93673 1.65418 0
M  V30 456 H 43.376 -1.27312 3.18821 0
M  V30 457 N 45.8211 -1.22559 -0.990812 0
M  V30 458 C 47.2321 -1.04791 -1.54518 0
M  V30 459 C 47.5831 0.387998 -1.92325 0
M  V30 460 O 46.7081 1.27328 -1.74976 0
M  V30 461 C 47.3031 -1.896 -2.80779 0
M  V30 462 C 45.8621 -1.76124 -3.32652 0
M  V30 463 C 45.0091 -1.8594 -2.05722 0
M  V30 464 H 47.9601 -1.36374 -0.811662 0
M  V30 465 H 47.9811 -1.41464 -3.53225 0
M  V30 466 H 47.4931 -2.94101 -2.53231 0
M  V30 467 H 45.5941 -0.743643 -3.65104 0
M  V30 468 H 45.7071 -2.58913 -4.03114 0
M  V30 469 H 44.0711 -1.29403 -2.19379 0
M  V30 470 H 44.8541 -2.91976 -1.80568 0
M  V30 471 N 47.2992 1.18797 -1.03562 0
M  V30 472 C 48.5452 1.8893 -0.737113 0
M  V30 473 C 48.8782 1.79837 0.732956 0
M  V30 474 O 48.1532 1.19525 1.5344 0
M  V30 475 C 48.4362 3.39607 -1.19745 0
M  V30 476 C 48.2892 3.57537 -2.72924 0
M  V30 477 C 49.6082 4.33069 -0.783526 0
M  V30 478 H 46.7272 0.686057 -0.269249 0
M  V30 479 H 49.3692 1.39797 -1.28673 0
M  V30 480 H 47.5192 3.81583 -0.729855 0
M  V30 481 H 49.1912 3.24688 -3.27682 0
M  V30 482 H 47.4342 3.00363 -3.12993 0
M  V30 483 H 48.1052 4.63238 -3.00191 0
M  V30 484 H 50.5812 3.98846 -1.18581 0
M  V30 485 H 49.4572 5.3707 -1.13343 0
M  V30 486 H 49.7182 4.40986 0.313681 0
M  V30 487 N 48.7773 0.814389 1.34928 0
M  V30 488 C 49.7093 0.187834 2.28429 0
M  V30 489 C 50.7223 -0.617374 1.5064 0
M  V30 490 O 51.9113 -0.448454 1.72775 0
M  V30 491 C 49.0113 -0.755962 3.30361 0
M  V30 492 C 48.1843 0.00456686 4.374 0
M  V30 493 C 47.2433 -0.858876 5.19143 0
M  V30 494 O 46.2693 -0.306968 5.68372 0
M  V30 495 N 47.4713 -2.17988 5.38016 0
M  V30 496 H 50.2363 0.991105 2.82838 0
M  V30 497 H 47.7973 0.670561 1.4736 0
M  V30 498 H 49.7893 -1.338 3.81942 0
M  V30 499 H 48.3593 -1.46001 2.7641 0
M  V30 500 H 47.5793 0.767865 3.86649 0
M  V30 501 H 48.8673 0.528422 5.06049 0
M  V30 502 H 48.2653 -2.65212 4.99679 0
M  V30 503 H 46.8223 -2.71098 5.92747 0
M  V30 504 N 50.2554 -1.46986 0.568584 0
M  V30 505 C 51.1654 -2.33942 -0.17555 0
M  V30 506 C 52.1814 -1.48891 -0.90041 0
M  V30 507 O 53.3574 -1.81794 -0.86676 0
M  V30 508 C 50.4224 -3.25811 -1.18524 0
M  V30 509 C 49.4834 -4.26757 -0.466582 0
M  V30 510 C 48.7164 -5.14236 -1.42817 0
M  V30 511 O 48.9394 -5.04379 -2.66379 0
M  V30 512 O 47.8734 -5.94412 -0.946453 0
M  V30 513 H 51.6994 -2.98896 0.538036 0
M  V30 514 H 49.2844 -1.4573 0.329097 0
M  V30 515 H 51.1664 -3.82527 -1.76779 0
M  V30 516 H 49.8414 -2.63471 -1.88055 0
M  V30 517 H 48.7484 -3.73769 0.157451 0
M  V30 518 H 50.0814 -4.91843 0.187485 0
M  V30 519 N 51.7335 -0.305618 -1.54608 0
M  V30 520 C 52.6815 0.584119 -2.25146 0
M  V30 521 C 53.6755 1.13326 -1.25911 0
M  V30 522 O 54.8815 1.08337 -1.43747 0
M  V30 523 H 51.2565 0.206983 -0.722954 0
M  V30 524 H 53.2275 -0.033291 -2.98381 0
M  V30 525 C 51.9765 1.74225 -3.009 0
M  V30 526 H 51.2995 1.32892 -3.77067 0
M  V30 527 H 52.7395 2.34077 -3.53531 0
M  V30 528 C 51.1985 2.64914 -2.0814 0
M  V30 529 O 51.7285 3.66137 -1.65246 0
M  V30 530 N 49.9345 2.3275 -1.74 0
M  V30 531 H 49.4815 1.50479 -2.09078 0
M  V30 532 H 49.4395 2.93694 -1.12211 0
M  V30 533 N 53.2116 1.57565 -0.0334293 0
M  V30 534 C 54.4586 1.91978 0.644272 0
M  V30 535 C 54.7866 0.910231 1.71887 0
M  V30 536 O 54.0416 -0.0801961 1.95536 0
M  V30 537 C 54.3406 3.33112 1.29504 0
M  V30 538 C 54.0066 4.49537 0.350388 0
M  V30 539 C 52.6686 4.81115 0.0903974 0
M  V30 540 C 55.0206 5.20347 -0.298032 0
M  V30 541 C 52.3486 5.8086 -0.825746 0
M  V30 542 C 54.7006 6.2107 -1.20226 0
M  V30 543 C 53.3646 6.51088 -1.4711 0
M  V30 544 H 52.6346 0.702496 0.235756 0
M  V30 545 H 55.2816 1.91259 -0.0961176 0
M  V30 546 H 53.5866 3.30113 2.11028 0
M  V30 547 H 55.2836 3.57011 1.82603 0
M  V30 548 H 51.8736 4.24883 0.563205 0
M  V30 549 H 56.0576 4.96178 -0.110234 0
M  V30 550 H 51.3136 6.02461 -1.04169 0
M  V30 551 H 55.4876 6.75057 -1.71086 0
M  V30 552 H 53.1146 7.28193 -2.18264 0
M  V30 553 N 54.6897 -0.239769 1.55765 0
M  V30 554 C 55.9667 -0.990056 1.68693 0
M  V30 555 C 56.3467 -2.03107 0.5754 0
M  V30 556 O 55.6947 -2.24604 -0.42017 0
M  V30 557 C 55.9047 -1.61696 3.09282 0
M  V30 558 C 57.2527 -2.11613 3.6811 0
M  V30 559 O 58.2767 -1.71624 3.12127 0
M  V30 560 O 57.1357 -2.85057 4.66267 0
M  V30 561 H 54.2297 -0.461299 0.686391 0
M  V30 562 H 56.7757 -0.232991 1.68093 0
M  V30 563 H 55.5477 -0.864357 3.81634 0
M  V30 564 H 55.1707 -2.44005 3.13923 0
M  V30 565 N 56.1678 -1.49265 -0.50573 0
M  V30 566 C 57.4138 -1.58748 -1.26202 0
M  V30 567 C 57.7468 -0.271227 -1.92297 0
M  V30 568 O 57.0218 0.724831 -1.80489 0
M  V30 569 C 57.3048 -2.74332 -2.33268 0
M  V30 570 C 57.1578 -4.15737 -1.71705 0
M  V30 571 C 58.4768 -2.85576 -3.34865 0
M  V30 572 H 55.5958 -0.577826 -0.457478 0
M  V30 573 H 58.2378 -1.81532 -0.560897 0
M  V30 574 H 56.3878 -2.55036 -2.93068 0
M  V30 575 H 58.0598 -4.46537 -1.15769 0
M  V30 576 H 56.3028 -4.21605 -1.02135 0
M  V30 577 H 56.9738 -4.92477 -2.49341 0
M  V30 578 H 59.4498 -3.03127 -2.8505 0
M  V30 579 H 58.3258 -3.68135 -4.07146 0
M  V30 580 H 58.5868 -1.94732 -3.96903 0
M  V30 581 N 57.6459 0.756429 -1.3826 0
M  V30 582 C 58.5939 1.89149 -1.35372 0
M  V30 583 C 59.5879 1.67691 -0.24004 0
M  V30 584 O 60.7939 1.75294 -0.408919 0
M  V30 585 H 57.1689 0.622271 -0.422236 0
M  V30 586 H 59.1399 1.88701 -2.31159 0
M  V30 587 C 57.8889 3.26599 -1.19284 0
M  V30 588 H 57.2119 3.43695 -2.0424 0
M  V30 589 H 58.6519 4.06274 -1.21316 0
M  V30 590 C 57.1109 3.3675 0.100454 0
M  V30 591 O 57.6409 3.86951 1.07851 0
M  V30 592 N 55.8469 2.90179 0.15633 0
M  V30 593 H 55.3939 2.49517 -0.640253 0
M  V30 594 H 55.3519 2.97352 1.02123 0
M  V30 595 N 59.124 1.23083 0.984299 0
M  V30 596 C 60.071 1.00854 2.07598 0
M  V30 597 C 61.041 -0.0726709 1.65941 0
M  V30 598 O 62.226 0.0786535 1.90638 0
M  V30 599 C 59.366 0.601645 3.39815 0
M  V30 600 C 58.479 1.75456 3.94765 0
M  V30 601 C 57.614 1.29482 5.15177 0
M  V30 602 C 56.653 2.41873 5.62284 0
M  V30 603 N 55.79 1.96885 6.73929 0
M  V30 604 H 60.63 1.943 2.25946 0
M  V30 605 H 58.167 0.968001 1.10762 0
M  V30 606 H 60.125 0.346854 4.15756 0
M  V30 607 H 58.755 -0.295803 3.21442 0
M  V30 608 H 57.807 2.12346 3.15616 0
M  V30 609 H 59.119 2.59965 4.25699 0
M  V30 610 H 58.273 0.997923 5.98437 0
M  V30 611 H 57.012 0.420046 4.85888 0
M  V30 612 H 56.017 2.72342 4.77608 0
M  V30 613 H 57.242 3.29881 5.93595 0
M  V30 614 H 55.188 1.11782 6.46406 0
M  V30 615 H 55.105 2.74956 7.04227 0
M  V30 616 H 56.373 1.70289 7.60672 0
M  V30 617 N 60.6021 -1.18246 1.0419 0
M  V30 618 C 61.8321 -1.91916 0.764961 0
M  V30 619 C 62.2401 -1.76485 -0.681898 0
M  V30 620 O 61.5831 -1.09275 -1.47664 0
M  V30 621 C 61.6451 -3.4373 1.05309 0
M  V30 622 C 61.3091 -3.8294 2.4941 0
M  V30 623 C 62.3061 -3.86621 3.47592 0
M  V30 624 C 59.9911 -4.142 2.84155 0
M  V30 625 C 61.9851 -4.21013 4.78568 0
M  V30 626 C 59.6721 -4.48262 4.15337 0
M  V30 627 C 60.6701 -4.51645 5.12353 0
M  V30 628 O 60.3581 -4.84911 6.41183 0
M  V30 629 H 60.0901 -0.61606 0.278292 0
M  V30 630 H 62.6441 -1.50947 1.39299 0
M  V30 631 H 60.8741 -3.84946 0.367933 0
M  V30 632 H 62.5631 -3.9865 0.763752 0
M  V30 633 H 63.3291 -3.62607 3.22089 0
M  V30 634 H 59.2081 -4.10743 2.09311 0
M  V30 635 H 62.7521 -4.23568 5.54289 0
M  V30 636 H 58.6491 -4.71737 4.40607 0
M  V30 637 H 59.4171 -5.02809 6.45852 0
M  V30 638 N 62.0802 -0.821533 -1.34494 0
M  V30 639 C 63.0102 -0.257138 -2.3208 0
M  V30 640 C 63.9912 0.625645 -1.58176 0
M  V30 641 O 65.1762 0.552811 -1.86166 0
M  V30 642 C 62.3062 0.582958 -3.42372 0
M  V30 643 C 61.2602 -0.202571 -4.2752 0
M  V30 644 C 60.5862 0.760179 -5.29269 0
M  V30 645 C 61.8862 -1.40998 -5.02908 0
M  V30 646 H 63.5802 -1.07247 -2.79532 0
M  V30 647 H 61.1262 -0.517163 -1.34393 0
M  V30 648 H 63.0792 0.987972 -4.09655 0
M  V30 649 H 61.8032 1.43133 -2.93565 0
M  V30 650 H 60.4622 -0.588936 -3.61838 0
M  V30 651 H 60.1102 1.60447 -4.76724 0
M  V30 652 H 59.8102 0.238809 -5.87115 0
M  V30 653 H 61.3342 1.16308 -5.9942 0
M  V30 654 H 62.7482 -1.07905 -5.63054 0
M  V30 655 H 61.1452 -1.86689 -5.70322 0
M  V30 656 H 62.2152 -2.1889 -4.32684 0
M  V30 657 N 63.5583 1.46682 -0.576371 0
M  V30 658 C 64.8063 2.02013 -0.0594163 0
M  V30 659 C 65.1273 1.45101 1.30271 0
M  V30 660 O 64.3973 0.633317 1.8538 0
M  V30 661 H 62.9773 0.746759 -0.0189745 0
M  V30 662 H 65.6393 1.79862 -0.750717 0
M  V30 663 H 64.7353 3.12097 0.014345 0
M  V30 664 N 65.0364 0.313813 1.54444 0
M  V30 665 C 66.4524 -0.0391619 1.59552 0
M  V30 666 C 66.6524 -1.51322 1.33056 0
M  V30 667 O 65.7084 -2.26782 1.11022 0
M  V30 668 C 67.0214 0.370302 2.98411 0
M  V30 669 C 68.5694 0.320139 3.11358 0
M  V30 670 C 69.0444 0.704617 4.52547 0
M  V30 671 N 70.5354 0.657645 4.58508 0
M  V30 672 C 71.2704 0.927453 5.6585 0
M  V30 673 N 70.7664 1.26389 6.81174 0
M  V30 674 N 72.5594 0.853662 5.5558 0
M  V30 675 H 64.7104 1.27433 1.69925 0
M  V30 676 H 66.9734 0.517511 0.794284 0
M  V30 677 H 66.6794 1.39694 3.22767 0
M  V30 678 H 66.5534 -0.269619 3.76235 0
M  V30 679 H 68.9404 -0.697275 2.86744 0
M  V30 680 H 69.0214 0.99486 2.35661 0
M  V30 681 H 68.6654 1.7199 4.77893 0
M  V30 682 H 68.5954 0.00768843 5.26599 0
M  V30 683 H 71.0864 0.409067 3.75679 0
M  V30 684 H 71.3994 1.4554 7.58972 0
M  V30 685 H 69.7444 1.30206 6.82694 0
M  V30 686 H 72.9354 0.590383 4.64362 0
M  V30 687 H 73.1084 1.0673 6.3915 0
M  V30 688 N 66.5145 -1.57545 0.0417849 0
M  V30 689 C 67.7605 -1.93424 -0.629168 0
M  V30 690 C 68.1155 -0.919564 -1.69002 0
M  V30 691 O 67.4085 0.0626178 -1.91498 0
M  V30 692 C 67.6025 -3.33794 -1.27735 0
M  V30 693 C 67.4315 -4.48822 -0.280806 0
M  V30 694 C 66.2015 -5.05148 0.123869 0
M  V30 695 C 68.3995 -5.12148 0.470012 0
M  V30 696 N 66.3815 -6.03703 1.11426 0
M  V30 697 C 67.7525 -6.05921 1.31377 0
M  V30 698 C 69.8075 -4.95078 0.529343 0
M  V30 699 C 68.5105 -6.84459 2.21152 0
M  V30 700 C 70.5365 -5.74235 1.41448 0
M  V30 701 C 69.8985 -6.67634 2.24598 0
M  V30 702 H 65.9975 -0.755418 -0.202158 0
M  V30 703 H 68.5815 -1.94378 0.111923 0
M  V30 704 H 66.7525 -3.33635 -1.98852 0
M  V30 705 H 68.4845 -3.56988 -1.90635 0
M  V30 706 H 65.2395 -4.72923 -0.253178 0
M  V30 707 H 65.6635 -6.57674 1.60607 0
M  V30 708 H 70.3055 -4.22683 -0.0992798 0
M  V30 709 H 68.0235 -7.56151 2.85063 0
M  V30 710 H 71.6095 -5.63057 1.46484 0
M  V30 711 H 70.4895 -7.27817 2.9198 0
M  V30 712 N 67.9926 0.231505 -1.5589 0
M  V30 713 C 69.2226 0.973092 -1.82248 0
M  V30 714 C 69.6306 1.78845 -0.617328 0
M  V30 715 O 68.9736 1.78752 0.423499 0
M  V30 716 C 69.0356 1.94732 -3.02192 0
M  V30 717 C 68.6996 1.31743 -4.37599 0
M  V30 718 C 69.6966 0.712238 -5.14998 0
M  V30 719 C 67.3816 1.33218 -4.84312 0
M  V30 720 C 69.3756 0.130195 -6.37267 0
M  V30 721 C 67.0626 0.746286 -6.06526 0
M  V30 722 C 68.0606 0.146337 -6.82843 0
M  V30 723 O 67.7486 -0.430465 -8.02747 0
M  V30 724 H 67.4806 0.29125 -0.61004 0
M  V30 725 H 70.0346 0.254915 -2.03812 0
M  V30 726 H 68.2646 2.70422 -2.76422 0
M  V30 727 H 69.9536 2.55362 -3.15508 0
M  V30 728 H 70.7196 0.69324 -4.8002 0
M  V30 729 H 66.5986 1.78854 -4.24891 0
M  V30 730 H 70.1426 -0.33871 -6.96777 0
M  V30 731 H 66.0396 0.762663 -6.40979 0
M  V30 732 H 66.8076 -0.323818 -8.17859 0
M  V30 733 N 69.4707 1.49531 0.497807 0
M  V30 734 C 70.3807 1.69176 1.62532 0
M  V30 735 C 71.3967 0.5744 1.64246 0
M  V30 736 O 72.5727 0.849497 1.82608 0
M  V30 737 C 69.6377 1.75695 2.98885 0
M  V30 738 C 68.6987 2.9929 3.07773 0
M  V30 739 C 67.9317 3.05488 4.37622 0
M  V30 740 O 68.1547 2.19192 5.26603 0
M  V30 741 O 67.0887 3.9798 4.51548 0
M  V30 742 H 70.9147 2.647 1.48887 0
M  V30 743 H 68.4997 1.3331 0.674441 0
M  V30 744 H 70.3817 1.82317 3.79919 0
M  V30 745 H 69.0567 0.8335 3.12785 0
M  V30 746 H 67.9637 2.98183 2.25915 0
M  V30 747 H 69.2967 3.91125 2.98801 0
M  V30 748 N 70.9488 -0.749086 1.3866 0
M  V30 749 C 72.1978 -1.50371 1.3443 0
M  V30 750 C 72.5108 -1.95503 -0.0616397 0
M  V30 751 O 73.7168 -2.70554 -0.226489 0
M  V30 752 C 72.1728 -2.71644 2.36088 0
M  V30 753 C 71.7808 -2.3352 3.82325 0
M  V30 754 C 73.5248 -3.49518 2.40909 0
M  V30 755 C 71.4318 -3.51431 4.75658 0
M  V30 756 H 70.3618 -0.564628 0.499712 0
M  V30 757 H 73.0128 -0.818449 1.64237 0
M  V30 758 H 71.3948 -3.42175 1.9933 0
M  V30 759 H 72.5688 -1.70627 4.28046 0
M  V30 760 H 70.8838 -1.6877 3.80665 0
M  V30 761 H 73.4808 -4.37197 3.07836 0
M  V30 762 H 73.8238 -3.90992 1.42937 0
M  V30 763 H 74.3568 -2.86005 2.76489 0
M  V30 764 H 71.0958 -3.15019 5.74842 0
M  V30 765 H 70.6158 -4.13352 4.34627 0
M  V30 766 H 72.2948 -4.17953 4.93887 0
M  V30 767 N 72.4269 -1.23603 -0.977757 0
M  V30 768 C 73.3369 -1.03632 -2.1047 0
M  V30 769 C 74.3529 0.0199435 -1.73989 0
M  V30 770 O 75.5289 -0.176076 -2.00629 0
M  V30 771 C 72.5939 -0.63276 -3.40877 0
M  V30 772 C 71.6549 -1.76437 -3.91367 0
M  V30 773 C 70.8879 -1.37997 -5.15551 0
M  V30 774 O 71.1109 -0.265357 -5.69782 0
M  V30 775 O 70.0449 -2.20201 -5.60174 0
M  V30 776 H 73.8709 -1.98086 -2.30208 0
M  V30 777 H 71.4559 -1.02332 -1.08851 0
M  V30 778 H 73.3379 -0.418761 -4.19314 0
M  V30 779 H 72.0129 0.282754 -3.22463 0
M  V30 780 H 70.9199 -2.03304 -3.14036 0
M  V30 781 H 72.2529 -2.6583 -4.14241 0
M  V30 782 N 73.905 1.17692 -1.04816 0
M  V30 783 C 74.852 2.21581 -0.645797 0
M  V30 784 C 75.822 1.62367 0.350159 0
M  V30 785 O 77.007 1.89254 0.242433 0
M  V30 786 C 74.147 3.45092 -0.0227568 0
M  V30 787 C 73.26 4.18613 -1.06709 0
M  V30 788 C 72.395 5.29602 -0.411767 0
M  V30 789 C 71.434 5.94904 -1.44067 0
M  V30 790 N 70.571 6.97414 -0.809781 0
M  V30 791 H 75.411 2.55353 -1.5362 0
M  V30 792 H 72.948 1.25438 -0.768364 0
M  V30 793 H 74.906 4.15679 0.35588 0
M  V30 794 H 73.536 3.11917 0.831122 0
M  V30 795 H 72.588 3.46779 -1.5636 0
M  V30 796 H 73.9 4.63293 -1.84827 0
M  V30 797 H 73.054 6.06696 0.0206623 0
M  V30 798 H 71.793 4.86045 0.401438 0
M  V30 799 H 70.798 5.16544 -1.88316 0
M  V30 800 H 72.023 6.40542 -2.25571 0
M  V30 801 H 69.969 6.55998 -0.0170186 0
M  V30 802 H 69.886 7.40386 -1.52856 0
M  V30 803 H 71.154 7.78463 -0.401999 0
M  V30 804 N 75.3831 0.828654 1.34056 0
M  V30 805 C 76.6321 0.415828 1.97367 0
M  V30 806 C 76.9451 -1.02796 1.6641 0
M  V30 807 O 78.1511 -1.54497 2.23255 0
M  V30 808 C 76.6071 0.692601 3.53173 0
M  V30 809 C 76.2151 2.15038 3.93017 0
M  V30 810 C 77.9591 0.346222 4.23086 0
M  V30 811 C 75.8661 2.37174 5.41758 0
M  V30 812 H 74.7961 0.151755 0.738571 0
M  V30 813 H 77.4471 1.01581 1.52819 0
M  V30 814 H 75.8291 0.0223764 3.95994 0
M  V30 815 H 77.0031 2.86024 3.61285 0
M  V30 816 H 75.3181 2.45875 3.36057 0
M  V30 817 H 77.9151 0.48937 5.32456 0
M  V30 818 H 78.2581 -0.709842 4.10204 0
M  V30 819 H 78.7911 0.971258 3.85761 0
M  V30 820 H 75.5301 3.41308 5.59633 0
M  V30 821 H 75.0501 1.70738 5.74986 0
M  V30 822 H 76.7291 2.19818 6.08514 0
M  V30 823 N 76.8612 -1.46375 0.584142 0
M  V30 824 C 78.2722 -1.86031 0.157959 0
M  V30 825 C 78.6232 -1.48753 -1.27933 0
M  V30 826 O 77.7482 -0.903098 -1.96655 0
M  V30 827 C 78.3432 -3.37642 0.279892 0
M  V30 828 C 76.9022 -3.76289 -0.09143 0
M  V30 829 C 76.0492 -2.7039 0.615178 0
M  V30 830 H 79.0002 -1.37509 0.792274 0
M  V30 831 H 79.0212 -3.77275 -0.494364 0
M  V30 832 H 78.5332 -3.64742 1.32607 0
M  V30 833 H 76.6342 -3.54806 -1.13769 0
M  V30 834 H 76.7472 -4.78246 0.285886 0
M  V30 835 H 75.1112 -2.5464 0.0552833 0
M  V30 836 H 75.8942 -3.0033 1.66303 0
M  V30 837 N 78.3393 -0.321999 -1.54275 0
M  V30 838 C 79.5673 0.283052 -2.04955 0
M  V30 839 C 79.9823 1.45904 -1.19823 0
M  V30 840 O 79.3393 1.81063 -0.228545 0
M  V30 841 C 79.3903 0.719028 -3.54277 0
M  V30 842 O 79.1113 -0.410175 -4.36176 0
M  V30 843 C 80.6123 1.38705 -4.21041 0
M  V30 844 H 77.8323 0.0584616 -0.668448 0
M  V30 845 H 80.3763 -0.467734 -1.99079 0
M  V30 846 H 78.5313 1.41979 -3.60445 0
M  V30 847 H 78.9453 -0.0669416 -5.24457 0
M  V30 848 H 80.4193 1.64306 -5.2698 0
M  V30 849 H 80.8963 2.33385 -3.72059 0
M  V30 850 H 81.5023 0.728906 -4.19007 0
M  V30 851 N 79.8174 1.5752 -0.0501392 0
M  V30 852 C 81.0454 1.96963 0.633492 0
M  V30 853 C 81.4604 0.927631 1.6444 0
M  V30 854 O 80.8174 -0.0882665 1.82286 0
M  V30 855 C 80.8684 3.36487 1.32132 0
M  V30 856 O 80.5894 4.36693 0.350894 0
M  V30 857 C 82.0904 3.90682 2.09481 0
M  V30 858 H 79.3104 0.648244 0.173266 0
M  V30 859 H 81.8544 2.0417 -0.116134 0
M  V30 860 H 80.0094 3.30434 2.02218 0
M  V30 861 H 80.4234 5.17702 0.841735 0
M  V30 862 H 81.8974 4.90591 2.5303 0
M  V30 863 H 82.3744 3.26053 2.94255 0
M  V30 864 H 82.9804 4.00069 1.44307 0
M  V30 865 N 81.2955 -0.223234 1.56011 0
M  V30 866 C 82.5425 -0.947875 1.78946 0
M  V30 867 C 82.8705 -1.844 0.618608 0
M  V30 868 O 82.1255 -1.91629 -0.397093 0
M  V30 869 C 82.4245 -1.81948 3.0762 0
M  V30 870 C 82.0905 -1.07672 4.37856 0
M  V30 871 C 80.7525 -0.871544 4.73242 0
M  V30 872 C 83.1045 -0.552081 5.18268 0
M  V30 873 C 80.4325 -0.129791 5.86556 0
M  V30 874 C 82.7845 0.17632 6.32354 0
M  V30 875 C 81.4485 0.39277 6.66343 0
M  V30 876 H 80.7185 -0.346852 0.654809 0
M  V30 877 H 83.3655 -0.216171 1.90276 0
M  V30 878 H 81.6705 -2.61899 2.91404 0
M  V30 879 H 83.3675 -2.38227 3.22566 0
M  V30 880 H 79.9575 -1.24662 4.1007 0
M  V30 881 H 84.1415 -0.698076 4.91366 0
M  V30 882 H 79.3975 0.048153 6.11381 0
M  V30 883 H 83.5715 0.590367 6.93893 0
M  V30 884 H 81.1985 0.969466 7.53993 0
M  V30 885 N 82.7736 -1.49793 -0.48987 0
M  V30 886 C 83.6836 -1.70036 -1.61632 0
M  V30 887 C 84.6996 -0.583102 -1.63939 0
M  V30 888 O 85.8756 -0.859169 -1.82154 0
M  V30 889 C 82.9406 -1.77277 -2.97949 0
M  V30 890 C 82.0016 -3.00918 -3.06181 0
M  V30 891 C 81.2346 -3.07804 -4.35996 0
M  V30 892 O 81.4576 -2.21982 -5.25433 0
M  V30 893 O 80.3916 -4.00369 -4.49431 0
M  V30 894 H 84.2176 -2.65486 -1.47482 0
M  V30 895 H 81.8026 -1.33666 -0.667362 0
M  V30 896 H 83.6846 -1.84329 -3.78947 0
M  V30 897 H 82.3596 -0.850076 -3.12339 0
M  V30 898 H 81.2666 -2.99377 -2.2433 0
M  V30 899 H 82.5996 -3.92704 -2.96723 0
M  V30 900 N 84.2517 0.741722 -1.39055 0
M  V30 901 C 85.1997 1.87702 -1.3737 0
M  V30 902 C 86.1937 1.67427 -0.257812 0
M  V30 903 O 87.3997 1.7485 -0.427489 0
M  V30 904 H 83.7747 0.617757 -0.428812 0
M  V30 905 H 85.7457 1.86239 -2.33147 0
M  V30 906 C 84.4947 3.25315 -1.22741 0
M  V30 907 H 83.8177 3.41509 -2.07873 0
M  V30 908 H 85.2577 4.04964 -1.25618 0
M  V30 909 C 83.7167 3.36838 0.0647316 0
M  V30 910 O 84.2467 3.88073 1.03741 0
M  V30 911 N 82.4527 2.90329 0.125544 0
M  V30 912 H 81.9997 2.48823 -0.666682 0
M  V30 913 H 81.9577 2.98418 0.989639 0
M  V30 914 N 85.7298 1.2412 0.971189 0
M  V30 915 C 86.9778 1.07668 1.71032 0
M  V30 916 C 87.2988 -0.385797 1.91146 0
M  V30 917 O 86.5688 -1.27569 1.4867 0
M  V30 918 H 85.1488 0.395429 0.633755 0
M  V30 919 H 87.8108 1.55984 1.16855 0
M  V30 920 H 86.9068 1.57195 2.69622 0
M  V30 921 N 87.2079 -1.17134 1.05439 0
M  V30 922 C 88.6239 -1.39454 0.776201 0
M  V30 923 C 88.8239 -1.91454 -0.628307 0
M  V30 924 O 87.8799 -2.10777 -1.39031 0
M  V30 925 C 89.1929 -2.38305 1.83388 0
M  V30 926 C 90.7409 -2.52006 1.85639 0
M  V30 927 C 91.2159 -3.54133 2.90437 0
M  V30 928 N 92.7069 -3.61653 2.89415 0
M  V30 929 C 93.4419 -4.4044 3.67152 0
M  V30 930 N 92.9379 -5.22721 4.54681 0
M  V30 931 N 94.7309 -4.35337 3.55581 0
M  V30 932 H 86.8819 -0.817134 1.96053 0
M  V30 933 H 89.1449 -0.421626 0.849079 0
M  V30 934 H 88.8509 -2.07173 2.84204 0
M  V30 935 H 88.7249 -3.37841 1.67761 0
M  V30 936 H 91.1119 -2.82447 0.85486 0
M  V30 937 H 91.1929 -1.52537 2.05344 0
M  V30 938 H 90.8369 -3.24431 3.90777 0
M  V30 939 H 90.7669 -4.53313 2.67983 0
M  V30 940 H 93.2579 -3.02909 2.25952 0
M  V30 941 H 93.5709 -5.80027 5.10674 0
M  V30 942 H 91.9159 -5.22093 4.58741 0
M  V30 943 H 95.1069 -3.70112 2.86592 0
M  V30 944 H 95.2799 -4.96494 4.1641 0
M  V30 945 N 88.686 -0.835752 -1.33615 0
M  V30 946 C 89.926 -0.43599 -1.99696 0
M  V30 947 C 90.29 0.98557 -1.64774 0
M  V30 948 O 91.491 1.48889 -2.23798 0
M  V30 949 C 89.762 -0.646721 -3.515 0
M  V30 950 S 91.321 -0.341715 -4.37467 0
M  V30 951 H 88.139 -0.164136 -0.691795 0
M  V30 952 H 90.741 -1.08436 -1.62671 0
M  V30 953 H 89.445 -1.68077 -3.74404 0
M  V30 954 H 88.976 0.0159173 -3.93397 0
M  V30 955 H 90.991 0.839708 -4.89043 0
M  V30 956 N 90.1641 1.46063 -0.591896 0
M  V30 957 C 91.4131 2.01547 -0.0786637 0
M  V30 958 C 91.7261 1.46796 1.29268 0
M  V30 959 O 92.9321 1.94157 1.89777 0
M  V30 960 C 91.3881 3.59787 -0.0900024 0
M  V30 961 C 90.9961 4.23534 -1.46023 0
M  V30 962 C 92.7401 4.22895 0.368806 0
M  V30 963 C 90.6471 5.73881 -1.4288 0
M  V30 964 H 89.5771 0.753564 -0.0256388 0
M  V30 965 H 92.2281 1.677 -0.744905 0
M  V30 966 H 90.6101 3.90752 0.642586 0
M  V30 967 H 91.7841 4.04167 -2.21328 0
M  V30 968 H 90.0991 3.72558 -1.85982 0
M  V30 969 H 92.6961 5.33116 0.411258 0
M  V30 970 H 93.0391 3.9247 1.38827 0
M  V30 971 H 93.5721 3.9659 -0.31001 0
M  V30 972 H 90.3111 6.0898 -2.42536 0
M  V30 973 H 89.8311 5.95486 -0.718095 0
M  V30 974 H 91.5101 6.36776 -1.14565 0
M  V30 975 N 91.6422 0.330177 1.54103 0
M  V30 976 C 92.5742 -0.566902 2.22079 0
M  V30 977 C 93.5872 -1.07462 1.22294 0
M  V30 978 O 94.7762 -0.987065 1.48726 0
M  V30 979 C 91.8762 -1.79138 2.87685 0
M  V30 980 C 91.0492 -1.42123 4.13666 0
M  V30 981 C 90.1082 -2.50394 4.62806 0
M  V30 982 O 89.1342 -2.14261 5.27334 0
M  V30 983 N 90.3362 -3.81433 4.37595 0
M  V30 984 H 93.1012 0.0151844 2.99696 0
M  V30 985 H 90.6622 0.153681 1.61169 0
M  V30 986 H 92.6542 -2.50975 3.1748 0
M  V30 987 H 91.2242 -2.28115 2.13734 0
M  V30 988 H 90.4442 -0.534201 3.90564 0
M  V30 989 H 91.7322 -1.14971 4.9564 0
M  V30 990 H 91.1302 -4.13584 3.8596 0
M  V30 991 H 89.6872 -4.4948 4.72029 0
M  V30 992 N 93.1203 -1.57491 0.0584922 0
M  V30 993 C 94.0833 -2.1085 -0.898617 0
M  V30 994 C 95.0833 -1.02964 -1.23511 0
M  V30 995 O 96.2733 -1.29007 -1.17059 0
M  V30 996 C 93.4053 -2.59881 -2.20623 0
M  V30 997 H 94.5983 -2.96715 -0.435936 0
M  V30 998 H 92.1513 -1.55141 -0.190023 0
M  V30 999 H 92.8863 -1.77431 -2.71457 0
M  V30 1000 H 92.6713 -3.38727 -1.97501 0
M  V30 1001 H 94.1613 -3.01285 -2.89166 0
M  V30 1002 N 94.5984 0.214957 -1.56127 0
M  V30 1003 C 95.5464 1.28601 -1.93816 0
M  V30 1004 C 96.5404 1.48175 -0.821016 0
M  V30 1005 O 97.7464 1.49271 -1.0059 0
M  V30 1006 H 94.1214 0.431302 -0.616022 0
M  V30 1007 H 96.0924 0.940991 -2.83175 0
M  V30 1008 C 94.8414 2.62779 -2.27689 0
M  V30 1009 H 94.1644 2.48527 -3.13168 0
M  V30 1010 H 95.6044 3.36517 -2.57939 0
M  V30 1011 C 94.0634 3.18285 -1.10436 0
M  V30 1012 O 94.5934 4.00002 -0.368945 0
M  V30 1013 N 92.7994 2.7675 -0.886433 0
M  V30 1014 H 92.3464 2.10404 -1.48619 0
M  V30 1015 H 92.3044 3.14229 -0.103656 0
M  V30 1016 N 96.0765 1.50051 0.48192 0
M  V30 1017 C 97.3065 1.63999 1.2565 0
M  V30 1018 C 97.7145 0.318288 1.86504 0
M  V30 1019 O 97.0575 -0.708534 1.69486 0
M  V30 1020 C 97.1195 2.66504 2.4128 0
M  V30 1021 C 96.7835 4.10352 2.01148 0
M  V30 1022 C 97.7805 4.96562 1.54021 0
M  V30 1023 C 95.4655 4.56203 2.10199 0
M  V30 1024 C 97.4595 6.26668 1.16473 0
M  V30 1025 C 95.1465 5.86318 1.72264 0
M  V30 1026 C 96.1445 6.71375 1.25477 0
M  V30 1027 O 95.8325 7.99062 0.880626 0
M  V30 1028 H 95.5645 0.55456 0.386574 0
M  V30 1029 H 98.1185 1.96954 0.582944 0
M  V30 1030 H 96.3485 2.28769 3.11772 0
M  V30 1031 H 98.0375 2.69783 3.03268 0
M  V30 1032 H 98.8035 4.62358 1.46458 0
M  V30 1033 H 94.6825 3.90152 2.45566 0
M  V30 1034 H 98.2265 6.93011 0.798841 0
M  V30 1035 H 94.1235 6.20046 1.79482 0
M  V30 1036 H 94.8915 8.12239 1.01043 0
M  V30 1037 N 97.5546 -0.734337 1.39446 0
M  V30 1038 C 98.7796 -1.52866 1.40167 0
M  V30 1039 C 99.2046 -1.881 -0.00171513 0
M  V30 1040 O 98.5626 -1.51957 -0.988879 0
M  V30 1041 C 98.6106 -2.79235 2.28167 0
M  V30 1042 O 97.7146 -3.75185 1.71201 0
M  V30 1043 H 97.0556 -0.461618 0.477289 0
M  V30 1044 H 99.5856 -0.905949 1.8345 0
M  V30 1045 H 99.5956 -3.27963 2.42702 0
M  V30 1046 H 98.2706 -2.52923 3.30156 0
M  V30 1047 H 96.8476 -3.33958 1.65912 0
M  V30 1048 N 99.0327 -1.24633 -0.964593 0
M  V30 1049 C 99.9627 -1.06611 -2.07741 0
M  V30 1050 C 100.944 0.0218666 -1.70086 0
M  V30 1051 O 102.129 -0.145793 -1.93652 0
M  V30 1052 C 99.2587 -0.673444 -3.40708 0
M  V30 1053 C 98.2127 -1.71054 -3.92332 0
M  V30 1054 C 97.5387 -1.17285 -5.21678 0
M  V30 1055 C 98.8387 -3.10718 -4.19824 0
M  V30 1056 H 100.533 -1.99693 -2.23076 0
M  V30 1057 H 98.0787 -0.96152 -1.07195 0
M  V30 1058 H 100.032 -0.534345 -4.17998 0
M  V30 1059 H 98.7557 0.293073 -3.25282 0
M  V30 1060 H 97.4147 -1.83791 -3.17201 0
M  V30 1061 H 97.0627 -0.196847 -5.02615 0
M  V30 1062 H 96.7627 -1.86592 -5.57187 0
M  V30 1063 H 98.2867 -1.04593 -6.01575 0
M  V30 1064 H 99.7007 -3.01192 -4.87808 0
M  V30 1065 H 98.0977 -3.77406 -4.66567 0
M  V30 1066 H 99.1677 -3.58524 -3.26479 0
M  V30 1067 N 100.511 1.16574 -1.06058 0
M  V30 1068 C 101.444 2.19798 -0.61352 0
M  V30 1069 C 102.422 1.58509 0.362453 0
M  V30 1070 O 103.606 1.86527 0.271994 0
M  V30 1071 C 100.733 3.3855 0.100915 0
M  V30 1072 C 99.7788 4.18317 -0.831438 0
M  V30 1073 S 100.612 4.82375 -2.32539 0
M  V30 1074 C 101.768 6.04508 -1.62238 0
M  V30 1075 H 102.001 2.5738 -1.48805 0
M  V30 1076 H 99.5338 1.27327 -0.873338 0
M  V30 1077 H 101.492 4.07358 0.506898 0
M  V30 1078 H 100.153 2.99338 0.951604 0
M  V30 1079 H 99.3458 5.03232 -0.278071 0
M  V30 1080 H 98.9478 3.5499 -1.17719 0
M  V30 1081 H 101.24 6.71133 -0.926622 0
M  V30 1082 H 102.183 6.64389 -2.44934 0
M  V30 1083 H 102.591 5.53559 -1.106 0
M  V30 1084 N 101.989 0.842826 1.3317 0
M  V30 1085 C 102.899 0.281444 2.32906 0
M  V30 1086 C 103.915 -0.594587 1.63526 0
M  V30 1087 O 105.091 -0.49777 1.95152 0
M  V30 1088 C 102.156 -0.530929 3.42611 0
M  V30 1089 C 101.217 0.369843 4.27704 0
M  V30 1090 C 100.45 -0.403853 5.3217 0
M  V30 1091 O 100.673 -1.63513 5.46461 0
M  V30 1092 O 99.6069 0.224199 6.01482 0
M  V30 1093 H 103.433 1.10744 2.82789 0
M  V30 1094 H 101.018 0.60545 1.36582 0
M  V30 1095 H 102.9 -0.992437 4.09547 0
M  V30 1096 H 101.575 -1.33392 2.94938 0
M  V30 1097 H 100.482 0.879275 3.6362 0
M  V30 1098 H 101.815 1.13771 4.78871 0
M  V30 1099 N 103.467 -1.45747 0.599634 0
M  V30 1100 C 104.415 -2.322 -0.136426 0
M  V30 1101 C 105.409 -1.45497 -0.867583 0
M  V30 1102 O 106.615 -1.62027 -0.78405 0
M  V30 1103 H 102.99 -0.749368 -0.0628588 0
M  V30 1104 H 104.961 -2.92072 0.611281 0
M  V30 1105 C 103.71 -3.28974 -1.12567 0
M  V30 1106 H 103.033 -3.9568 -0.572484 0
M  V30 1107 H 104.473 -3.92212 -1.61077 0
M  V30 1108 C 102.932 -2.55561 -2.19523 0
M  V30 1109 O 103.462 -2.33111 -3.27143 0
M  V30 1110 N 101.668 -2.15832 -1.94589 0
M  V30 1111 H 101.215 -2.3429 -1.07078 0
M  V30 1112 H 101.173 -1.67034 -2.66359 0
M  V30 1113 N 104.945 -0.338344 -1.53925 0
M  V30 1114 C 106.193 0.259245 -2.0043 0
M  V30 1115 C 106.514 1.51484 -1.22791 0
M  V30 1116 O 105.784 1.93037 -0.33368 0
M  V30 1117 H 104.364 0.0987845 -0.740439 0
M  V30 1118 H 107.026 -0.458302 -1.89435 0
M  V30 1119 H 106.122 0.505334 -3.07982 0
M  V30 1120 N 106.423 1.57458 -0.0668435 0
M  V30 1121 C 107.37 2.12439 0.902122 0
M  V30 1122 C 108.34 1.03565 1.2986 0
M  V30 1123 O 109.525 1.312 1.38532 0
M  V30 1124 C 106.665 2.6865 2.16614 0
M  V30 1125 C 105.778 3.91663 1.82274 0
M  V30 1126 C 104.913 4.36134 3.0325 0
M  V30 1127 C 103.952 5.51808 2.64904 0
M  V30 1128 N 103.089 5.9126 3.78624 0
M  V30 1129 H 107.929 2.94934 0.426382 0
M  V30 1130 H 105.466 1.4575 0.198819 0
M  V30 1131 H 107.424 2.99346 2.90599 0
M  V30 1132 H 106.054 1.88928 2.61737 0
M  V30 1133 H 105.106 3.6746 0.983719 0
M  V30 1134 H 106.418 4.75693 1.50059 0
M  V30 1135 H 105.572 4.68465 3.85519 0
M  V30 1136 H 104.311 3.50948 3.38655 0
M  V30 1137 H 103.316 5.19133 1.81055 0
M  V30 1138 H 104.541 6.38722 2.30675 0
M  V30 1139 H 102.487 5.09024 4.138 0
M  V30 1140 H 102.404 6.70018 3.5016 0
M  V30 1141 H 103.672 6.28212 4.61486 0
M  V30 1142 N 107.901 -0.206675 1.56239 0
M  V30 1143 C 109.15 -0.926964 1.79138 0
M  V30 1144 C 109.463 -1.84901 0.638043 0
M  V30 1145 O 110.669 -2.60906 0.751033 0
M  V30 1146 C 109.125 -1.6986 3.17294 0
M  V30 1147 C 108.733 -0.821956 4.40395 0
M  V30 1148 C 110.477 -2.40922 3.4951 0
M  V30 1149 C 108.384 -1.59179 5.69575 0
M  V30 1150 H 107.314 -0.349864 0.667915 0
M  V30 1151 H 109.965 -0.180487 1.8261 0
M  V30 1152 H 108.347 -2.48853 3.08039 0
M  V30 1153 H 109.521 -0.0715019 4.60745 0
M  V30 1154 H 107.836 -0.222741 4.15804 0
M  V30 1155 H 110.433 -2.99047 4.43255 0
M  V30 1156 H 110.776 -3.14542 2.72707 0
M  V30 1157 H 111.309 -1.68905 3.60161 0
M  V30 1158 H 108.048 -0.898589 6.49312 0
M  V30 1159 H 107.568 -2.31648 5.53262 0
M  V30 1160 H 109.247 -2.14862 6.10281 0
M  V30 1161 N 109.379 -1.50304 -0.473955 0
M  V30 1162 C 110.326 -1.68959 -1.57231 0
M  V30 1163 C 111.296 -0.530899 -1.57387 0
M  V30 1164 O 112.481 -0.761133 -1.74961 0
M  V30 1165 C 109.621 -1.7871 -2.95223 0
M  V30 1166 C 108.734 -3.06061 -3.04878 0
M  V30 1167 C 107.869 -3.06626 -4.33767 0
M  V30 1168 C 106.908 -4.28443 -4.37154 0
M  V30 1169 N 106.045 -4.26763 -5.5751 0
M  V30 1170 H 110.885 -2.6273 -1.40631 0
M  V30 1171 H 108.422 -1.30241 -0.683789 0
M  V30 1172 H 110.38 -1.82344 -3.75242 0
M  V30 1173 H 109.01 -0.883806 -3.10465 0
M  V30 1174 H 108.062 -3.11911 -2.17751 0
M  V30 1175 H 109.374 -3.96039 -3.0324 0
M  V30 1176 H 108.528 -3.08973 -5.22131 0
M  V30 1177 H 107.267 -2.14473 -4.3801 0
M  V30 1178 H 106.272 -4.2631 -3.47188 0
M  V30 1179 H 107.497 -5.2182 -4.34605 0
M  V30 1180 H 105.443 -3.37462 -5.62544 0
M  V30 1181 H 105.36 -5.10507 -5.57601 0
M  V30 1182 H 106.628 -4.33253 -6.48006 0
M  V30 1183 N 110.857 0.726932 -1.39834 0
M  V30 1184 C 112.103 1.48884 -1.377 0
M  V30 1185 C 112.436 1.94185 0.0244852 0
M  V30 1186 O 111.711 1.67361 0.990986 0
M  V30 1187 C 111.994 2.72288 -2.3565 0
M  V30 1188 C 111.847 2.32956 -3.84775 0
M  V30 1189 C 113.166 3.74414 -2.31306 0
M  V30 1190 H 110.285 0.540062 -0.5015 0
M  V30 1191 H 112.927 0.830547 -1.70886 0
M  V30 1192 H 111.077 3.28457 -2.07481 0
M  V30 1193 H 112.749 1.82356 -4.23726 0
M  V30 1194 H 110.992 1.65088 -4.01159 0
M  V30 1195 H 111.663 3.21362 -4.4881 0
M  V30 1196 H 114.139 3.27849 -2.56231 0
M  V30 1197 H 113.015 4.58414 -3.01907 0
M  V30 1198 H 113.276 4.21909 -1.32081 0
M  V30 1199 N 112.336 1.25143 0.95797 0
M  V30 1200 C 113.266 1.07711 2.07173 0
M  V30 1201 C 114.247 -0.0128462 1.70095 0
M  V30 1202 O 115.432 0.156061 1.93572 0
M  V30 1203 C 112.562 0.691503 3.40346 0
M  V30 1204 C 111.516 1.73132 3.9142 0
M  V30 1205 C 110.842 1.20049 5.21049 0
M  V30 1206 C 112.142 3.1294 4.1817 0
M  V30 1207 H 113.836 2.00873 2.22014 0
M  V30 1208 H 111.382 0.967191 1.06684 0
M  V30 1209 H 113.335 0.556505 4.17709 0
M  V30 1210 H 112.059 -0.275819 3.25433 0
M  V30 1211 H 110.718 1.8547 3.16222 0
M  V30 1212 H 110.366 0.223499 5.02503 0
M  V30 1213 H 110.066 1.89545 5.56189 0
M  V30 1214 H 111.59 1.07782 6.01012 0
M  V30 1215 H 113.004 3.03775 4.86203 0
M  V30 1216 H 111.401 3.79875 4.64559 0
M  V30 1217 H 112.471 3.6025 3.24573 0
M  V30 1218 N 113.814 -1.1601 1.06675 0
M  V30 1219 C 114.762 -2.22586 0.675157 0
M  V30 1220 C 115.756 -1.66525 -0.310766 0
M  V30 1221 O 116.962 -1.79145 -0.175215 0
M  V30 1222 H 113.337 -0.724855 0.200223 0
M  V30 1223 H 115.308 -2.52899 1.58381 0
M  V30 1224 C 114.057 -3.47604 0.0817162 0
M  V30 1225 H 113.38 -3.91058 0.831484 0
M  V30 1226 H 114.82 -4.23718 -0.154708 0
M  V30 1227 C 113.279 -3.15718 -1.17576 0
M  V30 1228 O 113.809 -3.31878 -2.26318 0
M  V30 1229 N 112.015 -2.69816 -1.07923 0
M  V30 1230 H 111.562 -2.56866 -0.194293 0
M  V30 1231 H 111.52 -2.48855 -1.92141 0
M  V30 1232 N 115.292 -0.849877 -1.32721 0
M  V30 1233 C 116.224 -0.248332 -2.27851 0
M  V30 1234 C 117.237 0.577218 -1.52224 0
M  V30 1235 O 118.426 0.402489 -1.73903 0
M  V30 1236 C 115.526 0.668107 -3.32249 0
M  V30 1237 C 114.699 -0.120534 -4.37234 0
M  V30 1238 C 113.758 0.720932 -5.21238 0
M  V30 1239 O 112.784 0.156166 -5.68986 0
M  V30 1240 N 113.986 2.03647 -5.43607 0
M  V30 1241 H 116.751 -1.06575 -2.80111 0
M  V30 1242 H 114.312 -0.709395 -1.45531 0
M  V30 1243 H 116.304 1.23627 -3.85355 0
M  V30 1244 H 114.874 1.38621 -2.80184 0
M  V30 1245 H 114.094 -0.870108 -3.84477 0
M  V30 1246 H 115.382 -0.662406 -5.0447 0
M  V30 1247 H 114.78 2.51871 -5.06535 0
M  V30 1248 H 113.337 2.55287 -5.99727 0
M  V30 1249 N 116.77 1.45427 -0.607355 0
M  V30 1250 C 117.68 2.34325 0.113463 0
M  V30 1251 C 118.696 1.51226 0.860617 0
M  V30 1252 O 119.872 1.84029 0.818255 0
M  V30 1253 C 116.937 3.28839 1.09844 0
M  V30 1254 C 115.998 4.27844 0.353271 0
M  V30 1255 C 115.231 5.17842 1.29133 0
M  V30 1256 O 115.454 5.11264 2.52913 0
M  V30 1257 O 114.388 5.96713 0.788523 0
M  V30 1258 H 118.214 2.97364 -0.617094 0
M  V30 1259 H 115.799 1.44807 -0.367619 0
M  V30 1260 H 117.681 3.8708 1.66575 0
M  V30 1261 H 116.356 2.68365 1.81003 0
M  V30 1262 H 115.263 3.7322 -0.256494 0
M  V30 1263 H 116.596 4.91173 -0.317822 0
M  V30 1264 N 118.248 0.346503 1.53744 0
M  V30 1265 C 119.178 -0.501193 2.28058 0
M  V30 1266 C 120.159 -1.10014 1.29734 0
M  V30 1267 O 121.344 -1.12097 1.58581 0
M  V30 1268 C 118.474 -1.65078 3.05559 0
M  V30 1269 C 117.428 -1.18003 4.11411 0
M  V30 1270 C 116.754 -2.41837 4.76884 0
M  V30 1271 C 118.054 -0.278394 5.21558 0
M  V30 1272 H 119.748 0.11875 2.99164 0
M  V30 1273 H 117.294 0.0585531 1.43881 0
M  V30 1274 H 119.247 -2.25028 3.56287 0
M  V30 1275 H 117.971 -2.29767 2.32109 0
M  V30 1276 H 116.63 -0.603331 3.61601 0
M  V30 1277 H 116.278 -3.0494 4.00026 0
M  V30 1278 H 115.978 -2.1102 5.48402 0
M  V30 1279 H 117.502 -3.02508 5.30397 0
M  V30 1280 H 118.916 -0.784823 5.67903 0
M  V30 1281 H 117.313 -0.0619707 6.00068 0
M  V30 1282 H 118.383 0.684677 4.80042 0
M  V30 1283 N 119.726 -1.57421 0.075193 0
M  V30 1284 C 121.142 -1.57099 -0.281444 0
M  V30 1285 C 121.342 -1.08486 -1.69803 0
M  V30 1286 O 120.398 -0.752279 -2.41033 0
M  V30 1287 C 121.711 -3.00571 -0.0880041 0
M  V30 1288 C 123.259 -3.12605 -0.157281 0
M  V30 1289 C 123.734 -4.57999 0.0079207 0
M  V30 1290 N 125.225 -4.63176 -0.0475725 0
M  V30 1291 C 125.96 -5.73373 0.0557876 0
M  V30 1292 N 125.456 -6.92473 0.21286 0
M  V30 1293 N 127.249 -5.621 -0.00152098 0
M  V30 1294 H 119.4 -1.87335 1.00098 0
M  V30 1295 H 121.663 -0.86377 0.390646 0
M  V30 1296 H 121.369 -3.40262 0.889629 0
M  V30 1297 H 121.243 -3.67754 -0.838875 0
M  V30 1298 H 123.63 -2.72798 -1.1254 0
M  V30 1299 H 123.711 -2.48053 0.62475 0
M  V30 1300 H 123.355 -4.98496 0.972824 0
M  V30 1301 H 123.285 -5.20586 -0.793556 0
M  V30 1302 H 125.776 -3.7753 -0.167244 0
M  V30 1303 H 126.089 -7.72279 0.283781 0
M  V30 1304 H 124.434 -6.94556 0.248267 0
M  V30 1305 H 127.625 -4.67938 -0.122958 0
M  V30 1306 H 127.798 -6.47948 0.0824844 0
M  V30 1307 N 121.204 0.198386 -1.56346 0
M  V30 1308 C 122.167 1.22952 -1.93431 0
M  V30 1309 C 123.167 1.38611 -0.815092 0
M  V30 1310 O 124.357 1.36479 -1.08255 0
M  V30 1311 C 121.489 2.59946 -2.20546 0
M  V30 1312 H 122.682 0.912626 -2.85677 0
M  V30 1313 H 120.235 0.43977 -1.49986 0
M  V30 1314 H 120.97 2.96696 -1.30927 0
M  V30 1315 H 120.755 2.49953 -3.02102 0
M  V30 1316 H 122.245 3.3431 -2.50253 0
M  V30 1317 N 122.682 1.50554 0.465978 0
M  V30 1318 C 123.959 1.5232 1.22712 0
M  V30 1319 C 124.339 0.270807 2.09356 0
M  V30 1320 O 123.687 -0.745541 2.15995 0
M  V30 1321 C 123.897 2.82175 2.05374 0
M  V30 1322 C 125.245 3.33033 2.6339 0
M  V30 1323 O 126.269 2.83531 2.15612 0
M  V30 1324 O 125.128 4.19336 3.50456 0
M  V30 1325 H 122.222 0.611183 0.557122 0
M  V30 1326 H 124.768 1.62847 0.477381 0
M  V30 1327 H 123.54 3.64797 1.41558 0
M  V30 1328 H 123.163 2.74675 2.87471 0
M  V30 1329 N 124.16 -0.719506 1.40217 0
M  V30 1330 C 125.408 -1.47641 1.3801 0
M  V30 1331 C 125.729 -1.94992 -0.018145 0
M  V30 1332 O 124.999 -1.70073 -0.972207 0
M  V30 1333 H 123.579 -0.547744 0.507923 0
M  V30 1334 H 126.241 -0.853187 1.75233 0
M  V30 1335 H 125.337 -2.35112 2.05253 0
M  V30 1336 N 125.638 -1.25649 -0.95132 0
M  V30 1337 C 126.866 -1.13343 -1.73092 0
M  V30 1338 C 127.281 0.312434 -1.86197 0
M  V30 1339 O 126.638 1.21465 -1.36207 0
M  V30 1340 C 126.689 -1.78602 -3.14299 0
M  V30 1341 O 126.41 -3.17537 -3.01831 0
M  V30 1342 C 127.911 -1.72119 -4.08522 0
M  V30 1343 H 125.131 -0.395181 -0.542285 0
M  V30 1344 H 127.675 -1.66076 -1.19328 0
M  V30 1345 H 125.83 -1.29832 -3.64996 0
M  V30 1346 H 126.244 -3.49676 -3.90931 0
M  V30 1347 H 127.718 -2.22435 -5.052 0
M  V30 1348 H 128.195 -0.685635 -4.33815 0
M  V30 1349 H 128.801 -2.20393 -3.63741 0
M  V30 1350 N 127.117 1.15442 -1.07289 0
M  V30 1351 C 128.363 1.86489 -0.796846 0
M  V30 1352 C 128.696 1.82078 0.675371 0
M  V30 1353 O 127.971 1.24346 1.4956 0
M  V30 1354 C 128.254 3.35626 -1.30489 0
M  V30 1355 C 128.107 3.48673 -2.84161 0
M  V30 1356 C 129.426 4.30357 -0.920907 0
M  V30 1357 H 126.545 0.677144 -0.290939 0
M  V30 1358 H 129.187 1.35633 -1.33056 0
M  V30 1359 H 127.337 3.79068 -0.850883 0
M  V30 1360 H 129.009 3.14099 -3.37846 0
M  V30 1361 H 127.252 2.90253 -3.22391 0
M  V30 1362 H 127.923 4.53453 -3.14777 0
M  V30 1363 H 130.399 3.94871 -1.3121 0
M  V30 1364 H 129.275 5.33193 -1.30372 0
M  V30 1365 H 129.536 4.4176 0.173226 0
M  V30 1366 N 128.595 0.856903 1.32268 0
M  V30 1367 C 129.543 0.291987 2.3076 0
M  V30 1368 C 130.537 -0.585857 1.58947 0
M  V30 1369 O 131.743 -0.47341 1.73663 0
M  V30 1370 H 128.118 0.075721 0.748178 0
M  V30 1371 H 130.089 1.13687 2.75895 0
M  V30 1372 C 128.838 -0.502869 3.44044 0
M  V30 1373 H 128.161 0.163328 3.99466 0
M  V30 1374 H 129.601 -0.863691 4.1511 0
M  V30 1375 C 128.06 -1.68898 2.91505 0
M  V30 1376 O 128.59 -2.78811 2.89184 0
M  V30 1377 N 126.796 -1.51679 2.47875 0
M  V30 1378 H 126.343 -0.622666 2.49961 0
M  V30 1379 H 126.301 -2.31184 2.13076 0
M  V30 1380 N 130.073 -1.45103 0.615059 0
M  V30 1381 C 131.005 -2.28786 -0.13762 0
M  V30 1382 C 132.018 -1.40376 -0.824525 0
M  V30 1383 O 133.207 -1.64681 -0.688662 0
M  V30 1384 C 130.307 -3.16322 -1.21628 0
M  V30 1385 C 129.48 -4.33054 -0.615039 0
M  V30 1386 C 128.539 -5.01743 -1.58556 0
M  V30 1387 O 127.565 -5.58293 -1.10895 0
M  V30 1388 N 128.767 -5.01714 -2.91998 0
M  V30 1389 H 131.532 -2.94025 0.580483 0
M  V30 1390 H 129.093 -1.55373 0.45507 0
M  V30 1391 H 131.085 -3.59139 -1.86552 0
M  V30 1392 H 129.655 -2.52943 -1.83681 0
M  V30 1393 H 128.875 -3.93627 0.21245 0
M  V30 1394 H 130.163 -5.08431 -0.193704 0
M  V30 1395 H 129.561 -4.57075 -3.33316 0
M  V30 1396 H 128.118 -5.48371 -3.52325 0
M  V30 1397 N 131.551 -0.354651 -1.53558 0
M  V30 1398 C 132.8 0.239504 -2.00273 0
M  V30 1399 C 133.113 1.50759 -1.24623 0
M  V30 1400 O 134.319 2.17968 -1.61871 0
M  V30 1401 C 132.775 0.477341 -3.5672 0
M  V30 1402 C 132.383 -0.775488 -4.41237 0
M  V30 1403 C 134.127 1.02975 -4.11821 0
M  V30 1404 C 132.034 -0.507838 -5.89216 0
M  V30 1405 H 130.964 0.0932743 -0.748208 0
M  V30 1406 H 133.615 -0.471701 -1.77334 0
M  V30 1407 H 131.997 1.24953 -3.7577 0
M  V30 1408 H 133.171 -1.54963 -4.33962 0
M  V30 1409 H 131.486 -1.25033 -3.97185 0
M  V30 1410 H 134.083 1.24513 -5.2 0
M  V30 1411 H 134.426 1.98862 -3.65731 0
M  V30 1412 H 134.959 0.317994 -3.96527 0
M  V30 1413 H 131.698 -1.43674 -6.39561 0
M  V30 1414 H 131.218 0.228011 -5.99366 0
M  V30 1415 H 132.897 -0.129238 -6.46871 0
M  V30 1416 N 133.029 1.57378 -0.0835403 0
M  V30 1417 C 133.939 2.16897 0.894021 0
M  V30 1418 C 134.955 1.13528 1.31861 0
M  V30 1419 O 136.131 1.45848 1.3889 0
M  V30 1420 C 133.196 2.72831 2.13925 0
M  V30 1421 C 132.257 3.91115 1.76997 0
M  V30 1422 C 131.49 4.44371 2.95584 0
M  V30 1423 O 131.713 3.96596 4.09961 0
M  V30 1424 O 130.647 5.35549 2.74719 0
M  V30 1425 H 134.473 3.00814 0.417679 0
M  V30 1426 H 132.058 1.48741 0.140181 0
M  V30 1427 H 133.94 3.0863 2.86924 0
M  V30 1428 H 132.615 1.91967 2.60635 0
M  V30 1429 H 131.522 3.60148 1.01214 0
M  V30 1430 H 132.855 4.73307 1.3506 0
M  V30 1431 N 134.507 -0.190092 1.56449 0
M  V30 1432 C 135.755 -0.907908 1.80559 0
M  V30 1433 C 136.076 -1.83583 0.657438 0
M  V30 1434 O 135.346 -1.93203 -0.323924 0
M  V30 1435 H 133.926 -0.338247 0.666032 0
M  V30 1436 H 136.588 -0.194403 1.93928 0
M  V30 1437 H 135.684 -1.49604 2.73907 0
M  V30 1438 N 135.985 -1.50799 -0.457987 0
M  V30 1439 C 136.895 -1.73426 -1.57989 0
M  V30 1440 C 137.911 -0.617745 -1.62665 0
M  V30 1441 O 139.087 -0.897614 -1.80291 0
M  V30 1442 C 136.152 -1.83557 -2.94122 0
M  V30 1443 C 135.213 -3.07345 -2.99729 0
M  V30 1444 C 134.446 -3.16983 -4.29368 0
M  V30 1445 O 134.669 -2.33077 -5.20607 0
M  V30 1446 O 133.603 -4.09812 -4.40837 0
M  V30 1447 H 137.429 -2.68555 -1.41817 0
M  V30 1448 H 135.014 -1.35052 -0.638859 0
M  V30 1449 H 136.896 -1.92326 -3.74952 0
M  V30 1450 H 135.571 -0.916137 -3.10465 0
M  V30 1451 H 134.478 -3.04068 -2.1793 0
M  V30 1452 H 135.811 -3.9891 -2.88326 0
M  V30 1453 N 137.463 0.71206 -1.40597 0
M  V30 1454 C 138.426 1.80785 -1.40888 0
M  V30 1455 C 139.426 1.57937 -0.302103 0
M  V30 1456 O 140.616 1.64913 -0.561182 0
M  V30 1457 C 137.748 3.18927 -1.20409 0
M  V30 1458 H 138.941 1.81924 -2.38419 0
M  V30 1459 H 136.494 0.91805 -1.26497 0
M  V30 1460 H 137.229 3.23436 -0.236522 0
M  V30 1461 H 137.014 3.36911 -2.00582 0
M  V30 1462 H 138.504 3.98949 -1.23408 0
M  V30 1463 N 138.941 1.26152 0.944643 0
M  V30 1464 C 140.169 1.14259 1.72489 0
M  V30 1465 C 140.584 -0.302555 1.8636 0
M  V30 1466 O 139.941 -1.20741 1.36849 0
M  V30 1467 C 139.992 1.80266 3.13347 0
M  V30 1468 O 139.713 3.19133 3.00143 0
M  V30 1469 C 141.214 1.74283 4.07603 0
M  V30 1470 H 138.434 0.398051 0.540181 0
M  V30 1471 H 140.978 1.66706 1.18446 0
M  V30 1472 H 139.133 1.31766 3.64303 0
M  V30 1473 H 139.547 3.51744 3.89071 0
M  V30 1474 H 141.021 2.25111 5.04013 0
M  V30 1475 H 141.498 0.708631 4.33446 0
M  V30 1476 H 142.104 2.22319 3.62567 0
M  V30 1477 N 140.419 -1.14872 1.07899 0
M  V30 1478 C 141.83 -1.67367 0.827363 0
M  V30 1479 C 142.181 -1.85236 -0.646693 0
M  V30 1480 O 141.306 -1.55974 -1.50004 0
M  V30 1481 C 141.901 -3.04016 1.49532 0
M  V30 1482 C 140.46 -3.53566 1.29106 0
M  V30 1483 C 139.607 -2.29161 1.56143 0
M  V30 1484 H 142.558 -0.990083 1.24028 0
M  V30 1485 H 142.579 -3.69219 0.919643 0
M  V30 1486 H 142.091 -2.90978 2.56814 0
M  V30 1487 H 140.192 -3.71835 0.238713 0
M  V30 1488 H 140.305 -4.34661 2.01511 0
M  V30 1489 H 138.669 -2.34978 0.982717 0
M  V30 1490 H 139.452 -2.18705 2.64619 0
M  V30 1491 N 141.898 -0.863906 -1.31812 0
M  V30 1492 C 143.144 -0.472535 -1.97218 0
M  V30 1493 C 143.477 0.971394 -1.68159 0
M  V30 1494 O 142.752 1.68309 -0.974798 0
M  V30 1495 C 143.035 -0.723054 -3.52766 0
M  V30 1496 C 142.888 -2.21608 -3.91421 0
M  V30 1497 C 144.207 -0.185522 -4.39709 0
M  V30 1498 H 141.326 -0.173158 -0.71637 0
M  V30 1499 H 143.968 -1.08403 -1.56041 0
M  V30 1500 H 142.118 -0.202577 -3.87971 0
M  V30 1501 H 143.79 -2.80334 -3.66347 0
M  V30 1502 H 142.033 -2.691 -3.40246 0
M  V30 1503 H 142.704 -2.34203 -4.99853 0
M  V30 1504 H 145.18 -0.630726 -4.11292 0
M  V30 1505 H 144.056 -0.390306 -5.47511 0
M  V30 1506 H 144.317 0.912229 -4.32586 0
M  V30 1507 N 143.376 1.44774 -0.622745 0
M  V30 1508 C 144.324 2.32387 0.0994683 0
M  V30 1509 C 145.318 1.46859 0.844326 0
M  V30 1510 O 146.524 1.63254 0.758174 0
M  V30 1511 H 142.899 0.750273 0.0509291 0
M  V30 1512 H 144.87 2.91062 -0.65767 0
M  V30 1513 C 143.619 3.30723 1.07319 0
M  V30 1514 H 142.942 3.96541 0.509462 0
M  V30 1515 H 144.382 3.94725 1.54817 0
M  V30 1516 C 142.841 2.59021 2.15429 0
M  V30 1517 O 143.371 2.38286 3.23393 0
M  V30 1518 N 141.577 2.189 1.91131 0
M  V30 1519 H 141.124 2.35964 1.03337 0
M  V30 1520 H 141.082 1.71251 2.63668 0
M  V30 1521 N 144.854 0.36279 1.53368 0
M  V30 1522 C 145.784 -0.476976 2.28576 0
M  V30 1523 C 146.765 -1.08631 1.30894 0
M  V30 1524 O 147.95 -1.10409 1.59761 0
M  V30 1525 C 145.08 -1.61828 3.07293 0
M  V30 1526 C 144.034 -1.13633 4.1264 0
M  V30 1527 C 143.36 -2.36766 4.79423 0
M  V30 1528 C 144.66 -0.223061 5.21823 0
M  V30 1529 H 146.354 0.150474 2.99022 0
M  V30 1530 H 143.9 0.0738103 1.43811 0
M  V30 1531 H 145.853 -2.21237 3.58653 0
M  V30 1532 H 144.577 -2.27292 2.34533 0
M  V30 1533 H 143.236 -0.564945 3.62221 0
M  V30 1534 H 142.884 -3.0068 4.03238 0
M  V30 1535 H 142.584 -2.05192 5.50609 0
M  V30 1536 H 144.108 -2.96865 5.33576 0
M  V30 1537 H 145.522 -0.724545 5.68703 0
M  V30 1538 H 143.919 0.001678 6.001 0
M  V30 1539 H 144.989 0.735553 4.79289 0
M  V30 1540 N 146.332 -1.57332 0.0918853 0
M  V30 1541 C 147.56 -1.98574 -0.581048 0
M  V30 1542 C 147.975 -0.970903 -1.61923 0
M  V30 1543 O 147.332 0.0399054 -1.82456 0
M  V30 1544 C 147.383 -3.39872 -1.23164 0
M  V30 1545 O 147.104 -4.37469 -0.234989 0
M  V30 1546 C 148.605 -3.96099 -1.99049 0
M  V30 1547 H 145.825 -0.65261 -0.156018 0
M  V30 1548 H 148.369 -2.0379 0.170225 0
M  V30 1549 H 146.524 -3.35679 -1.93386 0
M  V30 1550 H 146.938 -5.19751 -0.70418 0
M  V30 1551 H 148.412 -4.97127 -2.39934 0
M  V30 1552 H 148.889 -3.3374 -2.85507 0
M  V30 1553 H 149.495 -4.03755 -1.3365 0
M  V30 1554 N 147.81 0.181792 -1.56548 0
M  V30 1555 C 148.72 1.24538 -1.98815 0
M  V30 1556 C 149.736 1.49045 -0.897861 0
M  V30 1557 O 150.912 1.61399 -1.20467 0
M  V30 1558 C 147.977 2.56683 -2.33055 0
M  V30 1559 C 147.038 2.40131 -3.55859 0
M  V30 1560 C 146.271 3.65975 -3.88456 0
M  V30 1561 O 146.494 4.70711 -3.22161 0
M  V30 1562 O 145.428 3.6071 -4.81842 0
M  V30 1563 H 149.254 0.916647 -2.89536 0
M  V30 1564 H 146.839 0.387842 -1.44278 0
M  V30 1565 H 148.721 3.34655 -2.56094 0
M  V30 1566 H 147.396 2.89157 -1.45498 0
M  V30 1567 H 146.303 1.60226 -3.38051 0
M  V30 1568 H 147.636 2.12585 -4.43924 0
M  V30 1569 N 149.288 1.51039 0.449983 0
M  V30 1570 C 150.699 1.557 1.03026 0
M  V30 1571 C 151.05 0.372939 1.92623 0
M  V30 1572 O 150.175 -0.511771 2.10261 0
M  V30 1573 C 150.77 2.82171 1.87523 0
M  V30 1574 C 149.329 2.89444 2.40622 0
M  V30 1575 C 148.476 2.50228 1.19504 0
M  V30 1576 H 151.427 1.56999 0.231745 0
M  V30 1577 H 151.448 2.65219 2.72835 0
M  V30 1578 H 150.96 3.68331 1.22286 0
M  V30 1579 H 149.061 2.07685 3.0935 0
M  V30 1580 H 149.174 3.92816 2.74285 0
M  V30 1581 H 147.538 2.03139 1.53644 0
M  V30 1582 H 148.321 3.38719 0.558972 0
M  V30 1583 N 150.766 -0.704594 1.40972 0
M  V30 1584 C 151.729 -1.80035 1.41845 0
M  V30 1585 C 152.729 -1.57774 0.310474 0
M  V30 1586 O 153.919 -1.64613 0.56992 0
M  V30 1587 C 151.051 -3.18284 1.22098 0
M  V30 1588 H 152.244 -1.80658 2.3938 0
M  V30 1589 H 149.797 -0.911329 1.26982 0
M  V30 1590 H 150.532 -3.23306 0.253672 0
M  V30 1591 H 150.317 -3.35843 2.02366 0
M  V30 1592 H 151.807 -3.98289 1.25522 0
M  V30 1593 N 152.244 -1.26651 -0.937939 0
M  V30 1594 C 153.191 -1.0849 -2.03712 0
M  V30 1595 C 154.161 0.011033 -1.66096 0
M  V30 1596 O 155.346 -0.149353 -1.90215 0
M  V30 1597 C 152.486 -0.72735 -3.37348 0
M  V30 1598 C 151.599 -1.89986 -3.87981 0
M  V30 1599 C 150.734 -1.48513 -5.10017 0
M  V30 1600 C 149.773 -2.62575 -5.5292 0
M  V30 1601 N 148.91 -2.21762 -6.66158 0
M  V30 1602 H 153.75 -2.02551 -2.18579 0
M  V30 1603 H 151.287 -1.00844 -1.07093 0
M  V30 1604 H 153.245 -0.50092 -4.14182 0
M  V30 1605 H 151.875 0.176298 -3.22318 0
M  V30 1606 H 150.927 -2.23913 -3.07518 0
M  V30 1607 H 152.239 -2.75586 -4.15757 0
M  V30 1608 H 151.393 -1.21934 -5.94321 0
M  V30 1609 H 150.132 -0.60009 -4.83994 0
M  V30 1610 H 149.137 -2.8988 -4.67172 0
M  V30 1611 H 150.362 -3.51685 -5.80943 0
M  V30 1612 H 148.308 -1.35696 -6.41812 0
M  V30 1613 H 148.225 -3.00903 -6.93537 0
M  V30 1614 H 149.493 -1.98403 -7.53828 0
M  V30 1615 N 153.722 1.14298 -1.08507 0
M  V30 1616 C 154.652 2.21542 -0.737646 0
M  V30 1617 C 155.633 1.67773 0.280377 0
M  V30 1618 O 156.818 1.93616 0.150521 0
M  V30 1619 C 153.948 3.46988 -0.147259 0
M  V30 1620 C 152.902 4.13789 -1.09374 0
M  V30 1621 C 152.228 5.33449 -0.365524 0
M  V30 1622 C 153.528 4.62208 -2.4323 0
M  V30 1623 H 155.222 2.5086 -1.6343 0
M  V30 1624 H 152.768 1.20576 -0.787243 0
M  V30 1625 H 154.721 4.21262 0.107808 0
M  V30 1626 H 153.445 3.17037 0.784538 0
M  V30 1627 H 152.104 3.4147 -1.33393 0
M  V30 1628 H 151.752 4.99759 0.57011 0
M  V30 1629 H 151.452 5.79088 -0.996512 0
M  V30 1630 H 152.976 6.10485 -0.118534 0
M  V30 1631 H 154.39 5.27952 -2.23472 0
M  V30 1632 H 152.787 5.18553 -3.02031 0
M  V30 1633 H 153.857 3.77224 -3.04681 0
M  V30 1634 N 155.201 0.870884 1.31352 0
M  V30 1635 C 156.111 0.330783 2.32256 0
M  V30 1636 C 157.127 -0.559767 1.6475 0
M  V30 1637 O 158.303 -0.456263 1.96164 0
M  V30 1638 C 155.368 -0.458137 3.4366 0
M  V30 1639 C 154.429 0.460482 4.26823 0
M  V30 1640 C 153.662 -0.290881 5.32907 0
M  V30 1641 O 153.885 -1.51885 5.49806 0
M  V30 1642 O 152.819 0.351732 6.00871 0
M  V30 1643 H 156.645 1.16718 2.80376 0
M  V30 1644 H 154.23 0.634285 1.35267 0
M  V30 1645 H 156.112 -0.905343 4.1156 0
M  V30 1646 H 154.787 -1.27106 2.97701 0
M  V30 1647 H 153.694 0.956207 3.61673 0
M  V30 1648 H 155.027 1.23903 4.7635 0
M  V30 1649 N 156.679 -1.44442 0.630414 0
M  V30 1650 C 157.925 -2.02351 0.134816 0
M  V30 1651 C 158.258 -1.4947 -1.23986 0
M  V30 1652 O 157.533 -0.678475 -1.82283 0
M  V30 1653 C 157.816 -3.59898 0.120707 0
M  V30 1654 C 157.669 -4.23063 1.52767 0
M  V30 1655 C 158.988 -4.36585 -0.555127 0
M  V30 1656 H 156.107 -0.73527 0.0504646 0
M  V30 1657 H 158.749 -1.72022 0.806751 0
M  V30 1658 H 156.899 -3.85868 -0.451477 0
M  V30 1659 H 158.571 -4.08202 2.14869 0
M  V30 1660 H 156.814 -3.80586 2.08175 0
M  V30 1661 H 157.485 -5.32071 1.46984 0
M  V30 1662 H 159.961 -4.16044 -0.0685429 0
M  V30 1663 H 158.837 -5.46294 -0.534185 0
M  V30 1664 H 159.098 -4.11138 -1.62535 0
M  V30 1665 N 158.157 -0.370918 -1.53173 0
M  V30 1666 C 159.104 0.473035 -2.259 0
M  V30 1667 C 160.074 1.07311 -1.26781 0
M  V30 1668 O 161.259 1.1046 -1.55574 0
M  V30 1669 C 158.399 1.60405 -3.05556 0
M  V30 1670 C 157.512 1.02863 -4.19575 0
M  V30 1671 C 156.647 2.12918 -4.86661 0
M  V30 1672 C 155.686 1.52869 -5.92704 0
M  V30 1673 N 154.823 2.56779 -6.53459 0
M  V30 1674 H 159.663 -0.153649 -2.97604 0
M  V30 1675 H 157.2 -0.0875946 -1.46839 0
M  V30 1676 H 159.158 2.27034 -3.50016 0
M  V30 1677 H 157.788 2.20131 -2.36097 0
M  V30 1678 H 156.84 0.252465 -3.79561 0
M  V30 1679 H 158.152 0.549642 -4.95762 0
M  V30 1680 H 157.306 2.87356 -5.34333 0
M  V30 1681 H 156.045 2.6417 -4.09958 0
M  V30 1682 H 155.05 0.769479 -5.44389 0
M  V30 1683 H 156.275 1.02435 -6.7133 0
M  V30 1684 H 154.221 3.07235 -5.79606 0
M  V30 1685 H 154.138 2.13583 -7.25202 0
M  V30 1686 H 155.406 3.30903 -7.05779 0
M  V30 1687 N 159.635 1.57281 -0.100228 0
M  V30 1688 C 160.882 1.94537 0.562268 0
M  V30 1689 C 161.21 0.982315 1.67871 0
M  V30 1690 O 160.465 0.00280936 1.957 0
M  V30 1691 C 160.764 3.38305 1.15259 0
M  V30 1692 C 160.43 4.50618 0.159409 0
M  V30 1693 C 159.092 4.81066 -0.113741 0
M  V30 1694 C 161.444 5.18615 -0.518461 0
M  V30 1695 C 158.772 5.76835 -1.07137 0
M  V30 1696 C 161.124 6.15412 -1.46459 0
M  V30 1697 C 159.788 6.44262 -1.74592 0
M  V30 1698 H 159.058 0.711863 0.205748 0
M  V30 1699 H 161.705 1.90679 -0.17715 0
M  V30 1700 H 160.01 3.38766 1.96836 0
M  V30 1701 H 161.707 3.64435 1.67297 0
M  V30 1702 H 158.297 4.2689 0.382491 0
M  V30 1703 H 162.481 4.95264 -0.320581 0
M  V30 1704 H 157.737 5.975 -1.29628 0
M  V30 1705 H 161.911 6.67194 -1.99564 0
M  V30 1706 H 159.538 7.1828 -2.48953 0
M  V30 1707 N 161.113 -0.173488 1.56642 0
M  V30 1708 C 162.338 -0.910149 1.86363 0
M  V30 1709 C 162.763 -1.75132 0.686318 0
M  V30 1710 O 162.121 -1.77595 -0.364643 0
M  V30 1711 C 162.169 -1.76447 3.14482 0
M  V30 1712 O 161.273 -2.86584 2.96553 0
M  V30 1713 H 160.614 -0.255086 0.613047 0
M  V30 1714 H 163.144 -0.172283 2.03873 0
M  V30 1715 H 163.154 -2.16483 3.45831 0
M  V30 1716 H 161.829 -1.14658 3.99783 0
M  V30 1717 H 160.406 -2.50146 2.76553 0
M  V30 1718 N 162.591 -1.51276 -0.441967 0
M  V30 1719 C 163.837 -1.6492 -1.1905 0
M  V30 1720 C 164.192 -0.358731 -1.89026 0
M  V30 1721 O 163.485 0.645193 -1.8041 0
M  V30 1722 C 163.679 -2.78746 -2.23686 0
M  V30 1723 C 163.508 -4.18737 -1.63979 0
M  V30 1724 C 162.278 -4.84739 -1.42674 0
M  V30 1725 C 164.476 -5.01988 -1.11858 0
M  V30 1726 N 162.458 -6.08858 -0.785159 0
M  V30 1727 C 163.829 -6.17071 -0.601989 0
M  V30 1728 C 165.884 -4.87551 -1.0099 0
M  V30 1729 C 164.587 -7.19299 0.0126012 0
M  V30 1730 C 166.613 -5.89983 -0.409206 0
M  V30 1731 C 165.975 -7.04333 0.0968651 0
M  V30 1732 H 162.074 -0.657416 -0.423471 0
M  V30 1733 H 164.658 -1.8849 -0.48782 0
M  V30 1734 H 162.829 -2.56848 -2.91348 0
M  V30 1735 H 164.561 -2.81595 -2.90666 0
M  V30 1736 H 161.316 -4.42528 -1.68719 0
M  V30 1737 H 161.74 -6.75282 -0.481942 0
M  V30 1738 H 166.382 -3.99401 -1.38703 0
M  V30 1739 H 164.1 -8.071 0.401879 0
M  V30 1740 H 167.686 -5.8088 -0.327079 0
M  V30 1741 H 166.566 -7.82238 0.554373 0
M  V30 1742 N 164.069 0.697108 -1.41344 0
M  V30 1743 C 165.316 1.45714 -1.40619 0
M  V30 1744 C 165.644 1.94494 -0.0147907 0
M  V30 1745 O 164.899 1.69794 0.973066 0
M  V30 1746 C 165.198 2.68553 -2.35826 0
M  V30 1747 C 164.864 2.38438 -3.82698 0
M  V30 1748 C 163.526 2.29936 -4.22709 0
M  V30 1749 C 165.878 2.13567 -4.75435 0
M  V30 1750 C 163.206 1.94656 -5.53467 0
M  V30 1751 C 165.558 1.79797 -6.06511 0
M  V30 1752 C 164.222 1.69789 -6.45545 0
M  V30 1753 H 163.492 0.533206 -0.51456 0
M  V30 1754 H 166.139 0.796901 -1.74131 0
M  V30 1755 H 164.444 3.39503 -1.95563 0
M  V30 1756 H 166.141 3.2669 -2.32539 0
M  V30 1757 H 162.731 2.4595 -3.51008 0
M  V30 1758 H 166.915 2.19082 -4.45328 0
M  V30 1759 H 162.171 1.8546 -5.82593 0
M  V30 1760 H 166.345 1.59572 -6.77872 0
M  V30 1761 H 163.972 1.4222 -7.46778 0
M  V30 1762 N 165.547 1.27147 0.931209 0
M  V30 1763 C 166.48 1.0389 2.0318 0
M  V30 1764 C 167.458 -0.0395716 1.62552 0
M  V30 1765 O 168.642 0.104867 1.88208 0
M  V30 1766 C 165.769 0.575227 3.3378 0
M  V30 1767 C 164.815 1.64774 3.93385 0
M  V30 1768 S 165.648 3.23933 4.26413 0
M  V30 1769 C 166.804 2.79358 5.60098 0
M  V30 1770 H 167.037 1.97075 2.22596 0
M  V30 1771 H 164.57 1.10938 1.07387 0
M  V30 1772 H 166.528 0.314385 4.09294 0
M  V30 1773 H 165.189 -0.336505 3.12292 0
M  V30 1774 H 164.382 1.27454 4.87618 0
M  V30 1775 H 163.984 1.86048 3.24441 0
M  V30 1776 H 166.276 2.24443 6.39243 0
M  V30 1777 H 167.219 3.72322 6.02314 0
M  V30 1778 H 167.627 2.1861 5.20452 0
M  V30 1779 N 167.025 -1.13721 1.09112 0
M  V30 1780 C 168.436 -1.6648 0.845068 0
M  V30 1781 C 168.787 -1.85911 -0.62701 0
M  V30 1782 O 167.912 -1.57556 -1.48341 0
M  V30 1783 C 168.507 -3.02413 1.52748 0
M  V30 1784 C 167.066 -3.52176 1.32849 0
M  V30 1785 C 166.213 -2.27492 1.58564 0
M  V30 1786 H 169.164 -0.976872 1.25072 0
M  V30 1787 H 169.185 -3.68223 0.958752 0
M  V30 1788 H 168.697 -2.88238 2.59885 0
M  V30 1789 H 166.798 -3.7156 0.278137 0
M  V30 1790 H 166.911 -4.32499 2.0611 0
M  V30 1791 H 165.275 -2.33923 1.00758 0
M  V30 1792 H 166.058 -2.15886 2.66924 0
M  V30 1793 N 168.503 -0.877838 -1.30888 0
M  V30 1794 C 169.728 -0.506629 -2.01117 0
M  V30 1795 C 170.153 0.895564 -1.65412 0
M  V30 1796 O 169.511 1.5923 -0.866922 0
M  V30 1797 C 169.559 -0.680223 -3.54126 0
M  V30 1798 O 168.663 0.277033 -4.11468 0
M  V30 1799 H 168.004 -0.200518 -0.633 0
M  V30 1800 H 170.534 -1.18342 -1.66902 0
M  V30 1801 H 170.544 -0.5765 -4.03907 0
M  V30 1802 H 169.219 -1.70261 -3.79452 0
M  V30 1803 H 167.796 0.127606 -3.72682 0
M  V30 1804 N 169.982 1.44106 -0.638065 0
M  V30 1805 C 170.945 2.29138 0.0531013 0
M  V30 1806 C 171.945 1.41409 0.765506 0
M  V30 1807 O 173.135 1.63206 0.609046 0
M  V30 1808 C 170.267 3.23144 1.08584 0
M  V30 1809 H 171.46 2.91739 -0.694883 0
M  V30 1810 H 169.013 1.51134 -0.398538 0
M  V30 1811 H 169.748 2.65408 1.86357 0
M  V30 1812 H 169.533 3.87804 0.578852 0
M  V30 1813 H 171.023 3.87004 1.56899 0
M  V30 1814 N 171.46 0.379036 1.52974 0
M  V30 1815 C 172.871 -0.0972525 1.86447 0
M  V30 1816 C 173.222 -1.47027 1.29914 0
M  V30 1817 O 172.347 -2.07135 0.626433 0
M  V30 1818 C 172.942 -0.183248 3.38304 0
M  V30 1819 C 171.501 -0.603812 3.71525 0
M  V30 1820 C 170.648 0.240632 2.76254 0
M  V30 1821 H 173.599 0.597316 1.4703 0
M  V30 1822 H 173.62 -1.00432 3.67006 0
M  V30 1823 H 173.132 0.816191 3.79421 0
M  V30 1824 H 171.233 -1.61099 3.35973 0
M  V30 1825 H 171.346 -0.369086 4.77676 0
M  V30 1826 H 169.71 -0.292548 2.53014 0
M  V30 1827 H 170.493 1.23786 3.20206 0
M  V30 1828 N 172.938 -1.57226 0.108567 0
M  V30 1829 C 174.168 -1.9889 -0.559142 0
M  V30 1830 C 174.576 -0.986889 -1.61422 0
M  V30 1831 O 173.919 0.0298705 -1.83676 0
M  V30 1832 C 173.981 -3.36952 -1.25315 0
M  V30 1833 C 173.645 -4.55679 -0.347248 0
M  V30 1834 C 174.642 -5.18281 0.409996 0
M  V30 1835 C 172.327 -5.0162 -0.261367 0
M  V30 1836 C 174.321 -6.25203 1.24096 0
M  V30 1837 C 172.008 -6.08405 0.573238 0
M  V30 1838 C 173.006 -6.70063 1.32304 0
M  V30 1839 O 172.694 -7.74788 2.14381 0
M  V30 1840 H 172.426 -0.658343 -0.153492 0
M  V30 1841 H 174.98 -2.04532 0.188584 0
M  V30 1842 H 173.21 -3.28032 -2.04773 0
M  V30 1843 H 174.899 -3.62974 -1.81673 0
M  V30 1844 H 175.665 -4.8371 0.353457 0
M  V30 1845 H 171.544 -4.53381 -0.834656 0
M  V30 1846 H 175.088 -6.73259 1.82669 0
M  V30 1847 H 170.985 -6.42406 0.631208 0
M  V30 1848 H 171.753 -7.91837 2.07209 0
M  V30 1849 N 174.416 0.165178 -1.56732 0
M  V30 1850 C 175.662 0.877389 -1.83503 0
M  V30 1851 C 176.017 1.79602 -0.689996 0
M  V30 1852 O 175.31 1.89023 0.313205 0
M  V30 1853 C 175.504 1.70405 -3.1416 0
M  V30 1854 C 175.333 0.866961 -4.41264 0
M  V30 1855 C 174.103 0.539646 -5.0241 0
M  V30 1856 C 176.301 0.205671 -5.13889 0
M  V30 1857 N 174.283 -0.312946 -6.13102 0
M  V30 1858 C 175.654 -0.507823 -6.17917 0
M  V30 1859 C 177.709 0.124468 -4.97744 0
M  V30 1860 C 176.412 -1.29483 -7.0755 0
M  V30 1861 C 178.438 -0.649222 -5.87826 0
M  V30 1862 C 177.8 -1.35106 -6.91322 0
M  V30 1863 H 173.899 0.299477 -0.722383 0
M  V30 1864 H 176.483 0.143949 -1.94167 0
M  V30 1865 H 174.654 2.40887 -3.04677 0
M  V30 1866 H 176.386 2.35804 -3.28905 0
M  V30 1867 H 173.141 0.871176 -4.65519 0
M  V30 1868 H 173.565 -0.729731 -6.73056 0
M  V30 1869 H 178.207 0.652724 -4.17731 0
M  V30 1870 H 175.925 -1.83441 -7.87004 0
M  V30 1871 H 179.511 -0.713804 -5.77405 0
M  V30 1872 H 178.391 -1.94013 -7.59821 0
M  V30 1873 N 175.894 1.51508 0.433938 0
M  V30 1874 C 177.143 1.63578 1.18005 0
M  V30 1875 C 177.456 0.359514 1.92268 0
M  V30 1876 O 178.662 0.359632 2.69108 0
M  V30 1877 C 177.118 2.88901 2.14626 0
M  V30 1878 C 176.726 4.23544 1.45995 0
M  V30 1879 C 178.47 3.10328 2.89649 0
M  V30 1880 C 176.377 5.40014 2.4112 0
M  V30 1881 H 175.307 0.609277 0.444182 0
M  V30 1882 H 177.958 1.77978 0.446773 0
M  V30 1883 H 176.34 2.68142 2.91403 0
M  V30 1884 H 177.514 4.54696 0.747532 0
M  V30 1885 H 175.829 4.08021 0.831115 0
M  V30 1886 H 178.426 3.94518 3.60915 0
M  V30 1887 H 178.769 2.23544 3.51189 0
M  V30 1888 H 179.302 3.31443 2.19978 0
M  V30 1889 H 176.041 6.29068 1.84264 0
M  V30 1890 H 175.561 5.13233 3.10406 0
M  V30 1891 H 177.24 5.72099 3.02177 0
M  V30 1892 N 177.372 -0.689602 1.41712 0
M  V30 1893 C 178.302 -1.81577 1.46806 0
M  V30 1894 C 179.283 -1.66945 0.326105 0
M  V30 1895 O 180.468 -1.86588 0.538377 0
M  V30 1896 C 177.598 -3.19762 1.35535 0
M  V30 1897 C 176.552 -3.49107 2.47605 0
M  V30 1898 C 175.878 -4.86711 2.21397 0
M  V30 1899 C 177.178 -3.47483 3.89939 0
M  V30 1900 H 178.872 -1.7757 2.41058 0
M  V30 1901 H 176.418 -0.852887 1.16025 0
M  V30 1902 H 178.371 -3.98263 1.3771 0
M  V30 1903 H 177.095 -3.24409 0.377708 0
M  V30 1904 H 175.754 -2.72959 2.44722 0
M  V30 1905 H 175.402 -4.8799 1.21961 0
M  V30 1906 H 175.102 -5.0731 2.96497 0
M  V30 1907 H 176.626 -5.67515 2.25297 0
M  V30 1908 H 178.04 -4.1598 3.94505 0
M  V30 1909 H 176.437 -3.79615 4.64771 0
M  V30 1910 H 177.507 -2.46341 4.17665 0
M  V30 1911 N 178.85 -1.27639 -0.924453 0
M  V30 1912 C 179.813 -1.10681 -2.00705 0
M  V30 1913 C 180.813 -0.0497823 -1.60723 0
M  V30 1914 O 182.003 -0.294654 -1.7169 0
M  V30 1915 C 179.135 -0.687164 -3.33902 0
M  V30 1916 H 180.328 -2.06817 -2.17179 0
M  V30 1917 H 177.881 -1.10473 -1.10569 0
M  V30 1918 H 178.616 0.275439 -3.23128 0
M  V30 1919 H 178.401 -1.45061 -3.6428 0
M  V30 1920 H 179.891 -0.590853 -4.13399 0
M  V30 1921 N 180.328 1.1314 -1.09713 0
M  V30 1922 C 181.556 1.88321 -0.856898 0
M  V30 1923 C 181.971 1.79276 0.592073 0
M  V30 1924 O 181.328 1.16142 1.40774 0
M  V30 1925 C 181.379 3.37812 -1.28706 0
M  V30 1926 O 181.1 3.46627 -2.67921 0
M  V30 1927 C 182.601 4.29952 -1.07964 0
M  V30 1928 H 179.821 0.596094 -0.308079 0
M  V30 1929 H 182.365 1.43205 -1.45988 0
M  V30 1930 H 180.52 3.805 -0.727912 0
M  V30 1931 H 180.934 4.39579 -2.8613 0
M  V30 1932 H 182.408 5.33159 -1.42986 0
M  V30 1933 H 182.885 4.39196 -0.0176577 0
M  V30 1934 H 183.491 3.93036 -1.62489 0
M  V30 1935 N 181.806 0.884767 1.30421 0
M  V30 1936 C 183.083 0.423185 1.90967 0
M  V30 1937 C 183.463 -1.09605 1.80416 0
M  V30 1938 O 182.811 -1.93126 1.22125 0
M  V30 1939 C 183.021 0.921056 3.36627 0
M  V30 1940 C 184.369 0.955903 4.137 0
M  V30 1941 O 185.393 0.867706 3.4547 0
M  V30 1942 O 184.252 1.08614 5.35598 0
M  V30 1943 H 181.346 0.129369 0.816819 0
M  V30 1944 H 183.892 0.973653 1.3899 0
M  V30 1945 H 182.664 1.96489 3.3839 0
M  V30 1946 H 182.287 0.349741 3.96059 0
M  V30 1947 N 183.284 -1.43765 0.645699 0
M  V30 1948 C 184.514 -2.05953 0.163318 0
M  V30 1949 C 184.922 -1.48432 -1.17322 0
M  V30 1950 O 184.265 -0.607295 -1.73371 0
M  V30 1951 C 184.327 -3.59499 -0.0103065 0
M  V30 1952 C 183.991 -4.39563 1.25035 0
M  V30 1953 C 184.988 -4.72108 2.17739 0
M  V30 1954 C 182.673 -4.79697 1.48983 0
M  V30 1955 C 184.667 -5.43688 3.3269 0
M  V30 1956 C 182.354 -5.51023 2.64229 0
M  V30 1957 C 183.352 -5.8294 3.55908 0
M  V30 1958 O 183.04 -6.5281 4.69142 0
M  V30 1959 H 182.772 -0.670798 0.0836986 0
M  V30 1960 H 185.326 -1.85384 0.884407 0
M  V30 1961 H 183.556 -3.78613 -0.78669 0
M  V30 1962 H 185.245 -4.03408 -0.449087 0
M  V30 1963 H 186.011 -4.41627 2.00476 0
M  V30 1964 H 181.89 -4.54266 0.785078 0
M  V30 1965 H 185.434 -5.68517 4.04269 0
M  V30 1966 H 181.331 -5.8092 2.81429 0
M  V30 1967 H 182.099 -6.71288 4.6831 0
M  V30 1968 N 184.763 -0.387143 -1.52771 0
M  V30 1969 C 185.673 0.456442 -2.30117 0
M  V30 1970 C 186.689 1.07342 -1.36944 0
M  V30 1971 O 187.865 1.07971 -1.70013 0
M  V30 1972 C 184.93 1.56957 -3.09136 0
M  V30 1973 C 183.991 0.977916 -4.18014 0
M  V30 1974 C 183.224 2.038 -4.93256 0
M  V30 1975 O 183.447 3.25271 -4.68567 0
M  V30 1976 O 182.381 1.6565 -5.78657 0
M  V30 1977 H 186.207 -0.17359 -3.03203 0
M  V30 1978 H 183.792 -0.150919 -1.48636 0
M  V30 1979 H 185.674 2.21628 -3.58412 0
M  V30 1980 H 184.349 2.18461 -2.38865 0
M  V30 1981 H 183.256 0.294525 -3.72939 0
M  V30 1982 H 184.589 0.407128 -4.90513 0
M  V30 1983 N 186.241 1.57166 -0.116904 0
M  V30 1984 C 187.189 2.16457 0.851418 0
M  V30 1985 C 188.183 1.11323 1.27686 0
M  V30 1986 O 189.389 1.2963 1.24884 0
M  V30 1987 H 185.764 0.69271 0.292672 0
M  V30 1988 H 187.735 2.96605 0.32685 0
M  V30 1989 C 186.484 2.77689 2.09246 0
M  V30 1990 H 185.807 3.58285 1.77402 0
M  V30 1991 H 187.247 3.22716 2.7501 0
M  V30 1992 C 185.706 1.74667 2.88085 0
M  V30 1993 O 186.236 1.19877 3.83396 0
M  V30 1994 N 184.442 1.44656 2.52038 0
M  V30 1995 H 183.989 1.89402 1.74599 0
M  V30 1996 H 183.947 0.759675 3.05084 0
M  V30 1997 N 187.719 -0.156864 1.56817 0
M  V30 1998 C 188.949 -0.885031 1.86684 0
M  V30 1999 C 189.357 -1.75696 0.701954 0
M  V30 2000 O 188.7 -1.80569 -0.337732 0
M  V30 2001 C 188.762 -1.80092 3.11138 0
M  V30 2002 C 188.426 -1.10714 4.43386 0
M  V30 2003 C 189.423 -0.465714 5.1781 0
M  V30 2004 C 187.108 -1.09959 4.90117 0
M  V30 2005 C 189.102 0.174002 6.37162 0
M  V30 2006 C 186.789 -0.456055 6.09396 0
M  V30 2007 C 187.787 0.179622 6.82764 0
M  V30 2008 O 187.475 0.812975 7.99779 0
M  V30 2009 H 187.207 -0.261813 0.623242 0
M  V30 2010 H 189.761 -0.157383 2.04796 0
M  V30 2011 H 187.991 -2.56926 2.89009 0
M  V30 2012 H 189.68 -2.40018 3.27332 0
M  V30 2013 H 190.446 -0.463427 4.82781 0
M  V30 2014 H 186.325 -1.58378 4.3294 0
M  V30 2015 H 189.869 0.670765 6.94368 0
M  V30 2016 H 185.766 -0.455975 6.43888 0
M  V30 2017 H 186.534 0.71366 8.15383 0
M  V30 2018 N 189.197 -1.51736 -0.425897 0
M  V30 2019 C 190.16 -1.73271 -1.50032 0
M  V30 2020 C 191.16 -0.602639 -1.4908 0
M  V30 2021 O 192.35 -0.87033 -1.509 0
M  V30 2022 C 189.482 -1.79969 -2.89523 0
M  V30 2023 H 190.675 -2.69172 -1.32237 0
M  V30 2024 H 188.228 -1.41899 -0.65532 0
M  V30 2025 H 188.963 -0.859241 -3.1271 0
M  V30 2026 H 188.748 -2.62109 -2.91619 0
M  V30 2027 H 190.238 -1.9843 -3.67444 0
M  V30 2028 N 190.675 0.682077 -1.42076 0
M  V30 2029 C 191.605 1.80796 -1.47767 0
M  V30 2030 C 192.586 1.6677 -0.334954 0
M  V30 2031 O 193.771 1.863 -0.548264 0
M  V30 2032 C 190.901 3.19038 -1.37229 0
M  V30 2033 C 189.855 3.47789 -2.49453 0
M  V30 2034 C 189.181 4.8553 -2.23975 0
M  V30 2035 C 190.481 3.45411 -3.91776 0
M  V30 2036 H 192.175 1.7629 -2.41997 0
M  V30 2037 H 189.721 0.846721 -1.16476 0
M  V30 2038 H 191.674 3.97528 -1.39821 0
M  V30 2039 H 190.398 3.24204 -0.394907 0
M  V30 2040 H 189.057 2.71657 -2.46166 0
M  V30 2041 H 188.705 4.87337 -1.24547 0
M  V30 2042 H 188.405 5.0573 -2.99184 0
M  V30 2043 H 189.929 5.66312 -2.28304 0
M  V30 2044 H 191.343 4.13882 -3.96705 0
M  V30 2045 H 189.74 3.77145 -4.66778 0
M  V30 2046 H 190.81 2.44122 -4.18966 0
M  V30 2047 N 192.153 1.28127 0.917671 0
M  V30 2048 C 193.399 1.15223 1.66888 0
M  V30 2049 C 193.732 -0.299293 1.9188 0
M  V30 2050 O 193.007 -1.21805 1.51637 0
M  V30 2051 C 193.29 1.94706 3.02922 0
M  V30 2052 C 193.143 3.47898 2.85109 0
M  V30 2053 C 194.462 1.75939 4.03402 0
M  V30 2054 H 191.581 0.419946 0.605652 0
M  V30 2055 H 194.223 1.57398 1.06423 0
M  V30 2056 H 192.373 1.58864 3.54534 0
M  V30 2057 H 194.045 3.93624 2.40537 0
M  V30 2058 H 192.288 3.7373 2.20246 0
M  V30 2059 H 192.959 3.98765 3.81694 0
M  V30 2060 H 195.435 2.07209 3.60837 0
M  V30 2061 H 194.311 2.33931 4.96556 0
M  V30 2062 H 194.572 0.709877 4.36364 0
M  V30 2063 N 193.631 -1.12557 1.10312 0
M  V30 2064 C 194.861 -1.87592 0.865617 0
M  V30 2065 C 195.269 -1.79851 -0.587389 0
M  V30 2066 O 194.612 -1.16949 -1.41664 0
M  V30 2067 C 194.674 -3.37665 1.23381 0
M  V30 2068 C 194.338 -3.69181 2.69359 0
M  V30 2069 C 195.335 -3.67652 3.67597 0
M  V30 2070 C 193.02 -3.98555 3.05711 0
M  V30 2071 C 195.014 -3.95053 5.00212 0
M  V30 2072 C 192.701 -4.25616 4.38514 0
M  V30 2073 C 193.699 -4.23851 5.35574 0
M  V30 2074 O 193.387 -4.50242 6.65986 0
M  V30 2075 H 193.119 -0.600442 0.310557 0
M  V30 2076 H 195.673 -1.4335 1.47105 0
M  V30 2077 H 193.903 -3.82454 0.571467 0
M  V30 2078 H 195.592 -3.94041 0.973994 0
M  V30 2079 H 196.358 -3.45024 3.40857 0
M  V30 2080 H 192.237 -3.99071 2.30789 0
M  V30 2081 H 195.781 -3.93591 5.75962 0
M  V30 2082 H 191.678 -4.47718 4.64994 0
M  V30 2083 H 192.446 -4.67867 6.71597 0
M  V30 2084 N 195.109 -0.891671 -1.2995 0
M  V30 2085 C 196.334 -0.527932 -2.00568 0
M  V30 2086 C 196.759 0.877969 -1.66353 0
M  V30 2087 O 196.117 1.58301 -0.883762 0
M  V30 2088 C 196.165 -0.717745 -3.53385 0
M  V30 2089 O 195.269 0.233376 -4.11739 0
M  V30 2090 H 194.61 -0.20722 -0.630837 0
M  V30 2091 H 197.14 -1.20105 -1.65638 0
M  V30 2092 H 197.15 -0.619307 -4.03272 0
M  V30 2093 H 195.825 -1.74276 -3.77625 0
M  V30 2094 H 194.402 0.0880706 -3.72796 0
M  V30 2095 N 196.587 1.43421 -0.653314 0
M  V30 2096 C 197.827 2.03689 -0.170346 0
M  V30 2097 C 198.191 1.50427 1.19314 0
M  V30 2098 O 199.392 2.0234 1.76952 0
M  V30 2099 C 197.663 3.56946 -0.180183 0
M  V30 2100 S 199.222 4.38171 0.234925 0
M  V30 2101 H 196.04 0.707345 -0.0719976 0
M  V30 2102 H 198.642 1.75486 -0.86167 0
M  V30 2103 H 197.346 3.93212 -1.17526 0
M  V30 2104 H 196.877 3.89791 0.531675 0
M  V30 2105 H 198.892 4.73808 1.47378 0
M  V30 2106 N 198.065 0.39524 1.52563 0
M  V30 2107 C 199.293 -0.184943 2.06072 0
M  V30 2108 C 199.708 -1.40021 1.26647 0
M  V30 2109 O 199.065 -1.79767 0.314672 0
M  V30 2110 C 199.116 -0.549179 3.57304 0
M  V30 2111 O 198.837 0.617813 4.33722 0
M  V30 2112 C 200.338 -1.18459 4.2718 0
M  V30 2113 H 197.558 -0.0265025 0.670476 0
M  V30 2114 H 200.102 0.562184 1.96621 0
M  V30 2115 H 198.257 -1.2462 3.66809 0
M  V30 2116 H 198.671 0.317091 5.23541 0
M  V30 2117 H 200.145 -1.38976 5.34219 0
M  V30 2118 H 200.622 -2.15368 3.82771 0
M  V30 2119 H 201.228 -0.528163 4.22008 0
M  V30 2120 N 199.544 -1.57102 0.125237 0
M  V30 2121 C 200.784 -1.97294 -0.534259 0
M  V30 2122 C 201.148 -1.0074 -1.63449 0
M  V30 2123 O 202.349 -1.29893 -2.35332 0
M  V30 2124 C 200.62 -3.41705 -1.04748 0
M  V30 2125 S 202.179 -4.03913 -1.71463 0
M  V30 2126 H 198.997 -0.689517 -0.173458 0
M  V30 2127 H 201.599 -1.94349 0.211797 0
M  V30 2128 H 200.303 -4.09723 -0.235649 0
M  V30 2129 H 199.834 -3.48315 -1.82867 0
M  V30 2130 H 201.849 -3.95182 -3.00077 0
M  V30 2131 N 201.022 0.148545 -1.56898 0
M  V30 2132 C 202.271 0.85984 -1.82454 0
M  V30 2133 C 202.584 1.82406 -0.706229 0
M  V30 2134 O 203.79 2.57938 -0.847349 0
M  V30 2135 C 202.246 1.57967 -3.2338 0
M  V30 2136 C 201.854 0.65794 -4.43142 0
M  V30 2137 C 203.598 2.27784 -3.58211 0
M  V30 2138 C 201.505 1.3793 -5.75091 0
M  V30 2139 H 200.435 0.324834 -0.68044 0
M  V30 2140 H 203.086 0.112588 -1.83154 0
M  V30 2141 H 201.468 2.37249 -3.17063 0
M  V30 2142 H 202.642 -0.0995497 -4.60692 0
M  V30 2143 H 200.957 0.0682643 -4.16344 0
M  V30 2144 H 203.554 2.8239 -4.54048 0
M  V30 2145 H 203.897 3.04204 -2.84193 0
M  V30 2146 H 204.43 1.55421 -3.66182 0
M  V30 2147 H 201.169 0.656982 -6.52199 0
M  V30 2148 H 200.689 2.10954 -5.61479 0
M  V30 2149 H 202.368 1.92063 -6.17835 0
M  V30 2150 N 202.5 1.5196 0.417844 0
M  V30 2151 C 203.749 1.6482 1.16264 0
M  V30 2152 C 204.062 0.379886 1.91876 0
M  V30 2153 O 205.268 0.388154 2.68711 0
M  V30 2154 C 203.724 2.91161 2.1155 0
M  V30 2155 C 203.332 4.25068 1.41495 0
M  V30 2156 C 205.076 3.13383 2.86341 0
M  V30 2157 C 202.983 5.42541 2.35379 0
M  V30 2158 H 201.913 0.613954 0.437694 0
M  V30 2159 H 204.564 1.78442 0.427871 0
M  V30 2160 H 202.946 2.71218 2.88543 0
M  V30 2161 H 204.12 4.55463 0.699263 0
M  V30 2162 H 202.435 4.0888 0.787792 0
M  V30 2163 H 205.032 3.98324 3.5671 0
M  V30 2164 H 205.375 2.27256 3.48798 0
M  V30 2165 H 205.908 3.33757 2.1645 0
M  V30 2166 H 202.647 6.30987 1.77582 0
M  V30 2167 H 202.167 5.16497 3.04945 0
M  V30 2168 H 203.846 5.75272 2.96093 0
M  V30 2169 N 203.978 -0.674533 1.42435 0
M  V30 2170 C 204.91 -1.80005 1.41883 0
M  V30 2171 C 205.923 -1.59667 0.31787 0
M  V30 2172 O 207.112 -1.68781 0.580973 0
M  V30 2173 C 204.212 -3.17114 1.19549 0
M  V30 2174 C 203.385 -3.64299 2.42084 0
M  V30 2175 C 202.444 -4.80142 2.15291 0
M  V30 2176 O 201.47 -4.90673 2.88493 0
M  V30 2177 N 202.672 -5.68869 1.1562 0
M  V30 2178 H 205.437 -1.80964 2.38898 0
M  V30 2179 H 202.998 -0.857633 1.37318 0
M  V30 2180 H 204.99 -3.92267 0.995417 0
M  V30 2181 H 203.56 -3.11053 0.310569 0
M  V30 2182 H 202.78 -2.79822 2.77657 0
M  V30 2183 H 204.068 -3.92567 3.23679 0
M  V30 2184 H 203.466 -5.63012 0.550765 0
M  V30 2185 H 202.023 -6.43833 1.016 0
M  V30 2186 N 205.456 -1.28612 -0.910864 0
M  V30 2187 C 206.386 -1.15326 -2.03032 0
M  V30 2188 C 207.367 -0.0502924 -1.70026 0
M  V30 2189 O 208.552 -0.227797 -1.92859 0
M  V30 2190 C 205.682 -0.817343 -3.37545 0
M  V30 2191 C 204.636 -1.8754 -3.84724 0
M  V30 2192 C 203.962 -1.39305 -5.16235 0
M  V30 2193 C 205.262 -3.28244 -4.06267 0
M  V30 2194 H 206.956 -2.08975 -2.14406 0
M  V30 2195 H 204.502 -1.00612 -1.03021 0
M  V30 2196 H 206.455 -0.711151 -4.15356 0
M  V30 2197 H 205.179 0.154846 -3.26233 0
M  V30 2198 H 203.838 -1.97079 -3.09121 0
M  V30 2199 H 203.486 -0.409846 -5.01328 0
M  V30 2200 H 203.186 -2.10057 -5.48771 0
M  V30 2201 H 204.71 -1.30014 -5.96598 0
M  V30 2202 H 206.124 -3.21611 -4.74594 0
M  V30 2203 H 204.521 -3.96855 -4.5014 0
M  V30 2204 H 205.591 -3.72048 -3.10979 0
M  V30 2205 N 206.934 1.1197 -1.10907 0
M  V30 2206 C 208.181 1.83588 -0.854507 0
M  V30 2207 C 208.509 1.84357 0.6199 0
M  V30 2208 O 207.764 1.28809 1.47332 0
M  V30 2209 C 208.063 3.30749 -1.35425 0
M  V30 2210 C 207.729 3.50146 -2.84093 0
M  V30 2211 C 206.391 3.55148 -3.2469 0
M  V30 2212 C 208.743 3.56857 -3.79872 0
M  V30 2213 C 206.071 3.6441 -4.59806 0
M  V30 2214 C 208.423 3.6765 -5.14797 0
M  V30 2215 C 207.087 3.7091 -5.54961 0
M  V30 2216 H 206.357 0.671795 -0.312686 0
M  V30 2217 H 209.004 1.32091 -1.38652 0
M  V30 2218 H 207.309 3.84703 -0.742361 0
M  V30 2219 H 209.006 3.8464 -1.1337 0
M  V30 2220 H 205.596 3.46919 -2.51685 0
M  V30 2221 H 209.78 3.52258 -3.49611 0
M  V30 2222 H 205.036 3.65208 -4.9034 0
M  V30 2223 H 209.21 3.71786 -5.88853 0
M  V30 2224 H 206.837 3.7784 -6.59652 0
M  V30 2225 N 208.412 0.89855 1.29475 0
M  V30 2226 C 209.362 0.346767 2.25348 0
M  V30 2227 C 210.346 -0.532509 1.51833 0
M  V30 2228 O 211.538 -0.374714 1.72988 0
M  V30 2229 C 208.667 -0.425681 3.40651 0
M  V30 2230 C 207.753 0.46845 4.21505 0
M  V30 2231 N 208.144 1.57514 4.80648 0
M  V30 2232 C 206.442 0.26603 4.45206 0
M  V30 2233 C 207.143 2.12889 5.41344 0
M  V30 2234 N 206.119 1.42208 5.24669 0
M  V30 2235 H 209.921 1.19219 2.68634 0
M  V30 2236 H 207.435 0.749473 1.44072 0
M  V30 2237 H 209.432 -0.837716 4.08397 0
M  V30 2238 H 208.092 -1.26838 2.98902 0
M  V30 2239 H 209.103 1.95789 4.79465 0
M  V30 2240 H 205.78 -0.538394 4.14014 0
M  V30 2241 H 207.17 3.05901 5.98226 0
M  V30 2242 N 209.89 -1.43072 0.660911 0
M  V30 2243 C 211.136 -2.0202 0.177708 0
M  V30 2244 C 211.469 -1.52066 -1.20787 0
M  V30 2245 O 210.744 -0.716987 -1.80802 0
M  V30 2246 C 211.027 -3.59561 0.197019 0
M  V30 2247 C 210.88 -4.19727 1.61706 0
M  V30 2248 C 212.199 -4.37664 -0.462396 0
M  V30 2249 H 209.318 -0.734034 0.0660494 0
M  V30 2250 H 211.96 -1.70272 0.843058 0
M  V30 2251 H 210.11 -3.86739 -0.369527 0
M  V30 2252 H 211.782 -4.03553 2.23479 0
M  V30 2253 H 210.025 -3.76084 2.16201 0
M  V30 2254 H 210.696 -5.28834 1.58237 0
M  V30 2255 H 213.172 -4.16095 0.0197215 0
M  V30 2256 H 212.048 -5.47305 -0.418188 0
M  V30 2257 H 212.309 -4.14493 -1.53778 0
M  V30 2258 N 211.368 -0.403325 -1.52352 0
M  V30 2259 C 212.645 0.232611 -1.94212 0
M  V30 2260 C 213.025 1.63133 -1.33981 0
M  V30 2261 O 212.373 2.22659 -0.513344 0
M  V30 2262 C 212.583 0.244811 -3.4814 0
M  V30 2263 C 213.931 0.46698 -4.22024 0
M  V30 2264 O 214.955 0.324419 -3.5472 0
M  V30 2265 O 213.814 0.74747 -5.41364 0
M  V30 2266 H 210.908 0.148223 -0.813609 0
M  V30 2267 H 213.454 -0.458848 -1.63379 0
M  V30 2268 H 212.226 -0.734378 -3.84347 0
M  V30 2269 H 211.849 0.980611 -3.85318 0
M  V30 2270 N 212.846 1.57033 -0.133567 0
M  V30 2271 C 214.093 1.95686 0.520877 0
M  V30 2272 C 214.421 1.0177 1.6575 0
M  V30 2273 O 213.676 0.0443195 1.9565 0
M  V30 2274 C 213.975 3.40674 1.08057 0
M  V30 2275 C 213.641 4.50855 0.0637899 0
M  V30 2276 C 212.303 4.80716 -0.215757 0
M  V30 2277 C 214.655 5.17398 -0.62835 0
M  V30 2278 C 211.983 5.74433 -1.19348 0
M  V30 2279 C 214.335 6.12167 -1.5948 0
M  V30 2280 C 212.999 6.40414 -1.88218 0
M  V30 2281 H 212.269 0.716067 0.190602 0
M  V30 2282 H 214.916 1.9026 -0.217556 0
M  V30 2283 H 213.221 3.42865 1.89606 0
M  V30 2284 H 214.918 3.67902 1.59529 0
M  V30 2285 H 211.508 4.27605 0.291855 0
M  V30 2286 H 215.692 4.94472 -0.425562 0
M  V30 2287 H 210.948 5.94616 -1.42272 0
M  V30 2288 H 215.122 6.6281 -2.13671 0
M  V30 2289 H 212.749 7.12838 -2.64133 0
M  V30 2290 N 214.325 -0.140222 1.56975 0
M  V30 2291 C 215.288 -1.15689 1.97861 0
M  V30 2292 C 216.288 -1.3549 0.865974 0
M  V30 2293 O 217.478 -1.32367 1.13246 0
M  V30 2294 C 214.61 -2.51582 2.30042 0
M  V30 2295 H 215.803 -0.805971 2.88867 0
M  V30 2296 H 213.356 -0.383801 1.51515 0
M  V30 2297 H 214.091 -2.91632 1.41849 0
M  V30 2298 H 213.876 -2.38569 3.11171 0
M  V30 2299 H 215.366 -3.24792 2.62488 0
M  V30 2300 N 215.803 -1.52179 -0.40978 0
M  V30 2301 C 217.049 -1.67408 -1.15525 0
M  V30 2302 C 217.404 -0.398746 -1.88223 0
M  V30 2303 O 216.697 0.60678 -1.81738 0
M  V30 2304 C 216.891 -2.83428 -2.17723 0
M  V30 2305 C 216.72 -4.22121 -1.55061 0
M  V30 2306 C 215.49 -4.87657 -1.3236 0
M  V30 2307 C 217.688 -5.04248 -1.01185 0
M  V30 2308 N 215.67 -6.10387 -0.655834 0
M  V30 2309 C 217.041 -6.18209 -0.470963 0
M  V30 2310 C 219.096 -4.89583 -0.906252 0
M  V30 2311 C 217.799 -7.1911 0.165172 0
M  V30 2312 C 219.825 -5.90718 -0.28397 0
M  V30 2313 C 219.187 -7.03969 0.246243 0
M  V30 2314 H 215.286 -0.666251 -0.409431 0
M  V30 2315 H 217.87 -1.89482 -0.447729 0
M  V30 2316 H 216.041 -2.6297 -2.85834 0
M  V30 2317 H 217.773 -2.87697 -2.84627 0
M  V30 2318 H 214.528 -4.46007 -1.59294 0
M  V30 2319 H 214.952 -6.76153 -0.338596 0
M  V30 2320 H 219.594 -4.02253 -1.302 0
M  V30 2321 H 217.312 -8.06066 0.572986 0
M  V30 2322 H 220.898 -5.81443 -0.203792 0
M  V30 2323 H 219.778 -7.80886 0.720173 0
M  V30 2324 N 217.281 0.66697 -1.42791 0
M  V30 2325 C 218.53 1.42278 -1.42968 0
M  V30 2326 C 218.843 1.9553 -0.0524489 0
M  V30 2327 O 220.049 2.71414 0.068363 0
M  V30 2328 C 218.505 2.57418 -2.51524 0
M  V30 2329 C 218.113 2.10832 -3.9529 0
M  V30 2330 C 219.857 3.34878 -2.60877 0
M  V30 2331 C 217.764 3.23101 -4.95338 0
M  V30 2332 H 216.694 0.534533 -0.531781 0
M  V30 2333 H 219.345 0.721302 -1.68729 0
M  V30 2334 H 217.727 3.29971 -2.18941 0
M  V30 2335 H 218.901 1.4538 -4.37266 0
M  V30 2336 H 217.216 1.46289 -3.89857 0
M  V30 2337 H 219.813 4.18505 -3.32802 0
M  V30 2338 H 220.156 3.81993 -1.6549 0
M  V30 2339 H 220.689 2.69398 -2.92693 0
M  V30 2340 H 217.428 2.80969 -5.9223 0
M  V30 2341 H 216.948 3.87309 -4.57987 0
M  V30 2342 H 218.627 3.88447 -5.17415 0
M  V30 2343 N 218.759 1.29093 0.90403 0
M  V30 2344 C 219.689 1.16401 2.02418 0
M  V30 2345 C 220.67 0.0593085 1.69997 0
M  V30 2346 O 221.855 0.238021 1.92736 0
M  V30 2347 C 218.985 0.835233 3.37107 0
M  V30 2348 C 217.939 1.89578 3.83724 0
M  V30 2349 C 217.265 1.42041 5.15489 0
M  V30 2350 C 218.565 3.30394 4.04521 0
M  V30 2351 H 220.259 2.10109 2.13295 0
M  V30 2352 H 217.805 1.01157 1.02486 0
M  V30 2353 H 219.758 0.733169 4.14973 0
M  V30 2354 H 218.482 -0.137543 3.2631 0
M  V30 2355 H 217.141 1.98715 3.08071 0
M  V30 2356 H 216.789 0.436426 5.01103 0
M  V30 2357 H 216.489 2.12964 5.4765 0
M  V30 2358 H 218.013 1.33176 5.959 0
M  V30 2359 H 219.427 3.24123 4.72882 0
M  V30 2360 H 217.824 3.99237 4.48029 0
M  V30 2361 H 218.894 3.73692 3.09002 0
M  V30 2362 N 220.237 -1.11381 1.11499 0
M  V30 2363 C 221.2 -2.15622 0.777153 0
M  V30 2364 C 222.2 -1.59504 -0.203779 0
M  V30 2365 O 223.39 -1.74188 0.020782 0
M  V30 2366 C 220.522 -3.40556 0.153116 0
M  V30 2367 H 221.715 -2.47021 1.70061 0
M  V30 2368 H 219.268 -1.26577 0.916952 0
M  V30 2369 H 220.003 -3.14767 -0.780536 0
M  V30 2370 H 219.788 -3.8257 0.859238 0
M  V30 2371 H 221.278 -4.17546 -0.0671044 0
M  V30 2372 N 221.715 -0.905404 -1.28997 0
M  V30 2373 C 223.131 -0.60233 -1.47798 0
M  V30 2374 C 223.331 0.854645 -1.82478 0
M  V30 2375 O 222.387 1.63439 -1.92468 0
M  V30 2376 C 223.7 -1.53306 -2.58685 0
M  V30 2377 C 225.248 -1.53887 -2.72558 0
M  V30 2378 C 225.723 -2.45602 -3.86579 0
M  V30 2379 N 227.214 -2.43681 -3.93921 0
M  V30 2380 C 227.949 -3.11347 -4.81509 0
M  V30 2381 N 227.445 -3.88313 -5.73746 0
M  V30 2382 N 229.238 -3.00476 -4.75048 0
M  V30 2383 H 221.389 -1.84765 -1.04764 0
M  V30 2384 H 223.652 -0.792025 -0.520961 0
M  V30 2385 H 223.358 -2.57141 -2.39941 0
M  V30 2386 H 223.232 -1.25787 -3.55609 0
M  V30 2387 H 225.619 -0.507941 -2.90696 0
M  V30 2388 H 225.7 -1.85447 -1.76191 0
M  V30 2389 H 225.344 -3.48792 -3.69197 0
M  V30 2390 H 225.274 -2.11349 -4.82327 0
M  V30 2391 H 227.765 -1.87767 -3.27951 0
M  V30 2392 H 228.078 -4.36985 -6.37389 0
M  V30 2393 H 226.423 -3.92419 -5.73614 0
M  V30 2394 H 229.614 -2.39858 -4.01977 0
M  V30 2395 H 229.787 -3.53485 -5.43095 0
M  V30 2396 N 223.193 1.4272 -0.668489 0
M  V30 2397 C 224.141 2.32586 0.0254857 0
M  V30 2398 C 225.135 1.49471 0.797176 0
M  V30 2399 O 226.341 1.65583 0.705853 0
M  V30 2400 H 222.716 0.751514 0.0270339 0
M  V30 2401 H 224.687 2.88823 -0.749936 0
M  V30 2402 C 223.436 3.3397 0.967427 0
M  V30 2403 H 222.759 3.97961 0.383048 0
M  V30 2404 H 224.199 3.9945 1.42181 0
M  V30 2405 C 222.658 2.65744 2.0708 0
M  V30 2406 O 223.188 2.48454 3.15648 0
M  V30 2407 N 221.394 2.2487 1.8407 0
M  V30 2408 H 220.941 2.39132 0.95778 0
M  V30 2409 H 220.899 1.79552 2.58086 0
M  V30 2410 N 224.671 0.411399 1.52136 0
M  V30 2411 C 226.082 -0.0576826 1.86611 0
M  V30 2412 C 226.433 -1.44238 1.33003 0
M  V30 2413 O 225.558 -2.05759 0.670228 0
M  V30 2414 C 226.153 -0.111448 3.38617 0
M  V30 2415 C 224.712 -0.52487 3.72723 0
M  V30 2416 C 223.859 0.299176 2.75681 0
M  V30 2417 H 226.81 0.628368 1.4573 0
M  V30 2418 H 226.831 -0.926252 3.69054 0
M  V30 2419 H 226.343 0.896488 3.77604 0
M  V30 2420 H 224.444 -1.53936 3.39315 0
M  V30 2421 H 224.557 -0.267681 4.78352 0
M  V30 2422 H 222.921 -0.238814 2.53578 0
M  V30 2423 H 223.704 1.3055 3.17508 0
M  V30 2424 N 226.149 -1.5696 0.141893 0
M  V30 2425 C 227.097 -2.17784 -0.816874 0
M  V30 2426 C 228.091 -1.1334 -1.25899 0
M  V30 2427 O 229.297 -1.316 -1.22806 0
M  V30 2428 H 225.672 -0.697278 -0.281615 0
M  V30 2429 H 227.643 -2.97087 -0.279621 0
M  V30 2430 C 226.392 -2.80983 -2.04802 0
M  V30 2431 H 225.715 -3.61062 -1.7168 0
M  V30 2432 H 227.155 -3.2705 -2.69841 0
M  V30 2433 C 225.614 -1.79228 -2.8527 0
M  V30 2434 O 226.144 -1.25962 -3.8144 0
M  V30 2435 N 224.35 -1.48647 -2.49704 0
M  V30 2436 H 223.897 -1.92155 -1.71564 0
M  V30 2437 H 223.855 -0.808115 -3.03837 0
M  V30 2438 N 227.627 0.131896 -1.57047 0
M  V30 2439 C 228.557 1.16384 -2.02428 0
M  V30 2440 C 229.538 1.43936 -0.90644 0
M  V30 2441 O 230.723 1.54599 -1.17528 0
M  V30 2442 C 227.853 2.49328 -2.4177 0
M  V30 2443 C 226.807 2.36266 -3.56879 0
M  V30 2444 C 226.133 3.74057 -3.8208 0
M  V30 2445 C 227.433 1.834 -4.89042 0
M  V30 2446 H 229.127 0.786433 -2.88887 0
M  V30 2447 H 226.673 0.376855 -1.38981 0
M  V30 2448 H 228.626 3.21759 -2.7212 0
M  V30 2449 H 227.35 2.88934 -1.52266 0
M  V30 2450 H 226.009 1.66286 -3.26718 0
M  V30 2451 H 225.657 4.11125 -2.89803 0
M  V30 2452 H 225.357 3.66174 -4.59554 0
M  V30 2453 H 226.881 4.48012 -4.1487 0
M  V30 2454 H 228.295 2.45636 -5.18011 0
M  V30 2455 H 226.692 1.8637 -5.70426 0
M  V30 2456 H 227.762 0.790662 -4.7841 0
M  V30 2457 N 229.106 1.52395 0.401703 0
M  V30 2458 C 230.517 1.58899 0.980202 0
M  V30 2459 C 230.868 0.434032 1.91339 0
M  V30 2460 O 229.993 -0.444619 2.11783 0
M  V30 2461 C 230.588 2.87994 1.78451 0
M  V30 2462 C 229.147 2.96953 2.31292 0
M  V30 2463 C 228.294 2.53903 1.11483 0
M  V30 2464 H 231.245 1.57657 0.18168 0
M  V30 2465 H 231.266 2.73765 2.64259 0
M  V30 2466 H 230.778 3.72035 1.10506 0
M  V30 2467 H 228.879 2.17422 3.02586 0
M  V30 2468 H 228.992 4.01344 2.61649 0
M  V30 2469 H 227.356 2.07925 1.47104 0
M  V30 2470 H 228.139 3.40326 0.450928 0
M  V30 2471 N 230.584 -0.659388 1.43143 0
M  V30 2472 C 231.995 -1.24041 1.39537 0
M  V30 2473 C 232.346 -1.95963 0.0963364 0
M  V30 2474 O 231.471 -2.00892 -0.804438 0
M  V30 2475 C 232.066 -2.25601 2.52764 0
M  V30 2476 C 230.625 -2.79195 2.52443 0
M  V30 2477 C 229.772 -1.53743 2.30778 0
M  V30 2478 H 232.723 -0.451792 1.52133 0
M  V30 2479 H 232.744 -3.07651 2.23899 0
M  V30 2480 H 232.256 -1.73226 3.47296 0
M  V30 2481 H 230.357 -3.35649 1.61773 0
M  V30 2482 H 230.47 -3.2716 3.50004 0
M  V30 2483 H 228.834 -1.80869 1.79328 0
M  V30 2484 H 229.617 -1.03312 3.27386 0
M  V30 2485 N 232.062 -1.29571 -0.897171 0
M  V30 2486 C 232.972 -1.16808 -2.03453 0
M  V30 2487 C 233.988 -0.0907471 -1.73763 0
M  V30 2488 O 235.164 -0.303312 -1.99103 0
M  V30 2489 C 232.229 -0.848264 -3.36163 0
M  V30 2490 C 231.29 -2.0097 -3.79354 0
M  V30 2491 C 230.523 -1.70505 -5.05731 0
M  V30 2492 O 230.746 -0.62718 -5.66941 0
M  V30 2493 O 229.68 -2.5538 -5.45036 0
M  V30 2494 H 233.506 -2.12325 -2.17144 0
M  V30 2495 H 231.091 -1.09047 -1.02123 0
M  V30 2496 H 232.973 -0.684581 -4.15802 0
M  V30 2497 H 231.648 0.0771071 -3.23608 0
M  V30 2498 H 230.555 -2.22863 -3.00471 0
M  V30 2499 H 231.888 -2.91636 -3.96496 0
M  V30 2500 N 233.54 1.10788 -1.12088 0
M  V30 2501 C 234.768 1.86461 -0.896651 0
M  V30 2502 C 235.183 1.80492 0.553912 0
M  V30 2503 O 234.54 1.19102 1.38278 0
M  V30 2504 C 234.591 3.35006 -1.35843 0
M  V30 2505 O 234.312 3.40866 -2.75213 0
M  V30 2506 C 235.813 4.27565 -1.1706 0
M  V30 2507 H 233.033 0.589425 -0.320654 0
M  V30 2508 H 235.577 1.40076 -1.48993 0
M  V30 2509 H 233.732 3.7887 -0.808458 0
M  V30 2510 H 234.146 4.33411 -2.9539 0
M  V30 2511 H 235.62 5.30007 -1.54263 0
M  V30 2512 H 236.097 4.3906 -0.110814 0
M  V30 2513 H 236.703 3.89501 -1.70789 0
M  V30 2514 N 235.018 0.912232 1.28515 0
M  V30 2515 C 236.264 0.545405 1.95328 0
M  V30 2516 C 236.597 -0.908313 1.71649 0
M  V30 2517 O 235.872 -1.64575 1.03659 0
M  V30 2518 C 236.155 0.853483 3.4984 0
M  V30 2519 C 236.008 2.35982 3.82926 0
M  V30 2520 C 237.327 0.348589 4.38717 0
M  V30 2521 H 234.446 0.199626 0.709449 0
M  V30 2522 H 237.088 1.1412 1.5191 0
M  V30 2523 H 235.238 0.34643 3.86952 0
M  V30 2524 H 236.91 2.93738 3.55691 0
M  V30 2525 H 235.153 2.81543 3.30024 0
M  V30 2526 H 235.824 2.52593 4.90816 0
M  V30 2527 H 238.3 0.78294 4.08668 0
M  V30 2528 H 237.176 0.593242 5.45685 0
M  V30 2529 H 237.437 -0.751049 4.35674 0
M  V30 2530 N 236.496 -1.42363 0.676048 0
M  V30 2531 C 237.773 -1.95183 0.127726 0
M  V30 2532 C 238.153 -1.61641 -1.35777 0
M  V30 2533 O 237.501 -0.913216 -2.09458 0
M  V30 2534 C 237.711 -3.46721 0.398199 0
M  V30 2535 C 239.059 -4.23427 0.315383 0
M  V30 2536 O 240.083 -3.54649 0.332016 0
M  V30 2537 O 238.942 -5.45888 0.25865 0
M  V30 2538 H 236.036 -0.826992 0.00359427 0
M  V30 2539 H 238.582 -1.52184 0.750864 0
M  V30 2540 H 237.354 -3.64344 1.4272 0
M  V30 2541 H 236.977 -3.96769 -0.256885 0
M  V30 2542 N 237.974 -0.419461 -1.51915 0
M  V30 2543 C 239.199 0.154572 -2.06823 0
M  V30 2544 C 239.624 1.3722 -1.28656 0
M  V30 2545 O 238.982 1.78461 -0.319583 0
M  V30 2546 C 239.03 0.473172 -3.57482 0
M  V30 2547 O 238.134 1.56255 -3.81652 0
M  V30 2548 H 237.475 0.0096924 -0.663929 0
M  V30 2549 H 240.005 -0.595642 -1.95738 0
M  V30 2550 H 240.015 0.728825 -4.01438 0
M  V30 2551 H 238.69 -0.416873 -4.13805 0
M  V30 2552 H 237.267 1.29825 -3.49571 0
M  V30 2553 N 239.452 1.56882 -0.150215 0
M  V30 2554 C 240.382 2.19935 0.784284 0
M  V30 2555 C 241.363 1.14854 1.25469 0
M  V30 2556 O 242.548 1.43209 1.31168 0
M  V30 2557 C 239.678 2.82349 2.02229 0
M  V30 2558 C 238.632 3.93285 1.68853 0
M  V30 2559 C 237.958 4.42649 2.99944 0
M  V30 2560 C 239.258 5.13904 0.932714 0
M  V30 2561 H 240.952 2.9828 0.258781 0
M  V30 2562 H 238.498 1.43473 0.123029 0
M  V30 2563 H 240.451 3.25126 2.68088 0
M  V30 2564 H 239.175 2.0134 2.57157 0
M  V30 2565 H 237.834 3.5113 1.05371 0
M  V30 2566 H 237.482 3.58458 3.52869 0
M  V30 2567 H 237.182 5.17476 2.78374 0
M  V30 2568 H 238.706 4.88099 3.66868 0
M  V30 2569 H 240.12 5.53506 1.49345 0
M  V30 2570 H 238.517 5.94515 0.81684 0
M  V30 2571 H 239.587 4.84842 -0.0749568 0
M  V30 2572 N 240.93 -0.123565 1.57115 0
M  V30 2573 C 241.877 -1.15177 2.00007 0
M  V30 2574 C 242.847 -1.41403 0.871454 0
M  V30 2575 O 244.032 -1.53346 1.13533 0
M  V30 2576 C 241.172 -2.47436 2.40561 0
M  V30 2577 C 240.285 -2.28184 3.66819 0
M  V30 2578 C 239.42 -3.53641 3.96373 0
M  V30 2579 C 238.459 -3.29528 5.15827 0
M  V30 2580 N 237.596 -4.47175 5.41275 0
M  V30 2581 H 242.436 -0.779008 2.87638 0
M  V30 2582 H 239.973 -0.373166 1.42288 0
M  V30 2583 H 241.931 -3.24584 2.62109 0
M  V30 2584 H 240.561 -2.82614 1.55978 0
M  V30 2585 H 239.613 -1.41976 3.52912 0
M  V30 2586 H 240.925 -2.0634 4.5412 0
M  V30 2587 H 240.079 -4.39209 4.18545 0
M  V30 2588 H 238.818 -3.78512 3.07538 0
M  V30 2589 H 237.823 -2.42349 4.93505 0
M  V30 2590 H 239.048 -3.06031 6.06236 0
M  V30 2591 H 236.994 -4.72175 4.55397 0
M  V30 2592 H 236.911 -4.28419 6.22891 0
M  V30 2593 H 238.179 -5.3389 5.67963 0
M  V30 2594 N 242.408 -1.52605 -0.393616 0
M  V30 2595 C 243.356 -1.77688 -1.50099 0
M  V30 2596 C 244.35 -0.644615 -1.56656 0
M  V30 2597 O 245.556 -0.826997 -1.59877 0
M  V30 2598 H 241.931 -0.562159 -0.499481 0
M  V30 2599 H 243.902 -2.7043 -1.26135 0
M  V30 2600 C 242.651 -1.95858 -2.87289 0
M  V30 2601 H 241.974 -2.8241 -2.82992 0
M  V30 2602 H 243.414 -2.174 -3.64024 0
M  V30 2603 C 241.873 -0.729848 -3.28899 0
M  V30 2604 O 242.403 0.0949217 -4.01588 0
M  V30 2605 N 240.609 -0.561283 -2.85128 0
M  V30 2606 H 240.156 -1.23357 -2.26143 0
M  V30 2607 H 240.114 0.2595 -3.13327 0
M  V30 2608 N 243.887 0.651787 -1.4349 0
M  V30 2609 C 245.136 1.40754 -1.44469 0
M  V30 2610 C 245.449 1.95463 -0.0731845 0
M  V30 2611 O 246.655 2.71471 0.0395721 0
M  V30 2612 C 245.111 2.54735 -2.5424 0
M  V30 2613 C 244.719 2.06628 -3.97504 0
M  V30 2614 C 246.463 3.32092 -2.64414 0
M  V30 2615 C 244.37 3.17829 -4.98737 0
M  V30 2616 H 243.3 0.528862 -0.53742 0
M  V30 2617 H 245.951 0.703365 -1.69485 0
M  V30 2618 H 244.333 3.2763 -2.22428 0
M  V30 2619 H 245.507 1.40734 -4.38783 0
M  V30 2620 H 243.822 1.42146 -3.91387 0
M  V30 2621 H 246.419 4.14952 -3.37223 0
M  V30 2622 H 246.762 3.80217 -1.69532 0
M  V30 2623 H 247.295 2.66279 -2.95534 0
M  V30 2624 H 244.034 2.74671 -5.95177 0
M  V30 2625 H 243.554 3.82429 -4.62069 0
M  V30 2626 H 245.233 3.82937 -5.21505 0
M  V30 2627 N 245.365 1.30045 0.890287 0
M  V30 2628 C 246.295 1.18541 2.01172 0
M  V30 2629 C 247.276 0.0773356 1.69924 0
M  V30 2630 O 248.461 0.25845 1.92473 0
M  V30 2631 C 245.591 0.870941 3.36202 0
M  V30 2632 C 244.545 1.93637 3.81692 0
M  V30 2633 C 243.871 1.475 5.13953 0
M  V30 2634 C 245.171 3.34666 4.00994 0
M  V30 2635 H 246.865 2.12359 2.11054 0
M  V30 2636 H 244.411 1.02238 1.01407 0
M  V30 2637 H 246.364 0.777141 4.14172 0
M  V30 2638 H 245.088 -0.102926 3.26438 0
M  V30 2639 H 243.747 2.01972 3.05946 0
M  V30 2640 H 243.395 0.489551 5.00612 0
M  V30 2641 H 243.095 2.1876 5.4536 0
M  V30 2642 H 244.619 1.39489 5.94454 0
M  V30 2643 H 246.033 3.2912 4.69417 0
M  V30 2644 H 244.43 4.03966 4.43769 0
M  V30 2645 H 245.5 3.76949 3.05021 0
M  V30 2646 N 246.843 -1.10192 1.12674 0
M  V30 2647 C 248.071 -1.85983 0.906527 0
M  V30 2648 C 248.486 -1.80783 -0.544333 0
M  V30 2649 O 247.843 -1.19834 -1.37645 0
M  V30 2650 C 247.894 -3.34281 1.37618 0
M  V30 2651 O 247.615 -3.39401 2.77017 0
M  V30 2652 C 249.116 -4.26938 1.19325 0
M  V30 2653 H 246.336 -0.587716 0.323775 0
M  V30 2654 H 248.88 -1.39284 1.49734 0
M  V30 2655 H 247.035 -3.78436 0.828539 0
M  V30 2656 H 247.449 -4.31838 2.97684 0
M  V30 2657 H 248.923 -5.29181 1.57071 0
M  V30 2658 H 249.4 -4.38995 0.134097 0
M  V30 2659 H 250.006 -3.8859 1.72852 0
M  V30 2660 N 248.321 -0.919034 -1.28029 0
M  V30 2661 C 249.546 -0.570357 -1.99403 0
M  V30 2662 C 249.971 0.842486 -1.68178 0
M  V30 2663 O 249.329 1.56391 -0.917141 0
M  V30 2664 C 249.377 -0.792541 -3.51783 0
M  V30 2665 O 248.481 0.145988 -4.12142 0
M  V30 2666 H 247.822 -0.220555 -0.6263 0
M  V30 2667 H 250.352 -1.23592 -1.63053 0
M  V30 2668 H 250.362 -0.704708 -4.01868 0
M  V30 2669 H 249.037 -1.82247 -3.73844 0
M  V30 2670 H 247.614 0.00897528 -3.72899 0
M  V30 2671 N 249.799 1.42003 -0.683588 0
M  V30 2672 C 250.747 2.326 0.000815408 0
M  V30 2673 C 251.741 1.50308 0.781278 0
M  V30 2674 O 252.947 1.66322 0.688251 0
M  V30 2675 H 249.322 0.751758 0.0190616 0
M  V30 2676 H 251.293 2.88011 -0.780528 0
M  V30 2677 C 250.042 3.34978 0.93195 0
M  V30 2678 H 249.365 3.98345 0.340817 0
M  V30 2679 H 250.805 4.00936 1.37936 0
M  V30 2680 C 249.264 2.67925 2.04249 0
M  V30 2681 O 249.794 2.51788 3.12995 0
M  V30 2682 N 248 2.2681 1.81675 0
M  V30 2683 H 247.547 2.40135 0.932363 0
M  V30 2684 H 247.505 1.8228 2.56167 0
M  V30 2685 N 251.277 0.427512 1.51691 0
M  V30 2686 C 252.225 -0.403359 2.29076 0
M  V30 2687 C 253.219 -1.02962 1.34518 0
M  V30 2688 O 254.425 -0.965715 1.51901 0
M  V30 2689 H 250.8 -0.148879 0.737115 0
M  V30 2690 H 252.771 0.270295 2.97173 0
M  V30 2691 C 251.52 -1.49763 3.13794 0
M  V30 2692 H 250.843 -1.02508 3.86435 0
M  V30 2693 H 252.283 -2.05244 3.71014 0
M  V30 2694 C 250.742 -2.47536 2.28533 0
M  V30 2695 O 251.272 -3.51848 1.93819 0
M  V30 2696 N 249.478 -2.18187 1.91945 0
M  V30 2697 H 249.025 -1.33389 2.20375 0
M  V30 2698 H 248.983 -2.83848 1.35195 0
M  V30 2699 N 252.755 -1.56801 0.158532 0
M  V30 2700 C 254.004 -1.95665 -0.489702 0
M  V30 2701 C 254.317 -1.04654 -1.65248 0
M  V30 2702 O 255.523 -1.33146 -2.3661 0
M  V30 2703 C 253.979 -3.47874 -0.922582 0
M  V30 2704 C 253.587 -4.47489 0.213893 0
M  V30 2705 C 255.331 -3.95583 -1.53996 0
M  V30 2706 C 253.238 -5.90921 -0.237903 0
M  V30 2707 H 252.168 -0.730516 -0.186716 0
M  V30 2708 H 254.819 -1.81861 0.244722 0
M  V30 2709 H 253.201 -3.57051 -1.71261 0
M  V30 2710 H 254.375 -4.50017 0.991036 0
M  V30 2711 H 252.69 -4.09764 0.740407 0
M  V30 2712 H 255.287 -5.0019 -1.8898 0
M  V30 2713 H 255.63 -3.37789 -2.43319 0
M  V30 2714 H 256.163 -3.8937 -0.814611 0
M  V30 2715 H 252.902 -6.52559 0.620236 0
M  V30 2716 H 252.422 -5.91729 -0.980676 0
M  V30 2717 H 254.101 -6.43352 -0.686067 0
M  V30 2718 N 254.233 0.115231 -1.57178 0
M  V30 2719 C 255.51 0.852873 -1.76027 0
M  V30 2720 C 255.89 1.97892 -0.73498 0
M  V30 2721 O 255.238 2.27232 0.24036 0
M  V30 2722 C 255.448 1.36608 -3.21153 0
M  V30 2723 C 256.796 1.81692 -3.83762 0
M  V30 2724 O 257.82 1.46278 -3.24779 0
M  V30 2725 O 256.679 2.47104 -4.87444 0
M  V30 2726 H 253.773 0.405296 -0.720877 0
M  V30 2727 H 256.319 0.0986785 -1.69413 0
M  V30 2728 H 255.091 0.558357 -3.87296 0
M  V30 2729 H 254.714 2.18287 -3.3232 0
M  V30 2730 N 255.711 1.52812 0.385517 0
M  V30 2731 C 256.957 1.68275 1.13188 0
M  V30 2732 C 257.29 0.423179 1.89533 0
M  V30 2733 O 256.565 -0.579113 1.85679 0
M  V30 2734 C 256.848 2.92001 2.1073 0
M  V30 2735 C 256.701 4.28067 1.38125 0
M  V30 2736 C 258.02 3.11283 3.11113 0
M  V30 2737 H 255.139 0.612352 0.410115 0
M  V30 2738 H 257.781 1.85415 0.414869 0
M  V30 2739 H 255.931 2.77519 2.71874 0
M  V30 2740 H 257.603 4.54324 0.799187 0
M  V30 2741 H 255.846 4.28388 0.683092 0
M  V30 2742 H 256.517 5.10733 2.09417 0
M  V30 2743 H 258.993 3.2482 2.6006 0
M  V30 2744 H 257.869 3.99325 3.76605 0
M  V30 2745 H 258.13 2.25656 3.80173 0
M  V30 2746 N 257.189 -0.644168 1.43834 0
M  V30 2747 C 258.136 -1.75671 1.49694 0
M  V30 2748 C 259.106 -1.6246 0.345809 0
M  V30 2749 O 260.291 -1.82573 0.554234 0
M  V30 2750 C 257.431 -3.13867 1.43463 0
M  V30 2751 C 256.544 -3.38147 2.6885 0
M  V30 2752 C 255.679 -4.66241 2.54544 0
M  V30 2753 C 254.718 -4.83657 3.75157 0
M  V30 2754 N 253.855 -6.03016 3.59605 0
M  V30 2755 H 258.695 -1.69998 2.44754 0
M  V30 2756 H 256.232 -0.829458 1.21484 0
M  V30 2757 H 258.19 -3.9377 1.37843 0
M  V30 2758 H 256.82 -3.18588 0.519783 0
M  V30 2759 H 255.872 -2.52276 2.84712 0
M  V30 2760 H 257.184 -3.46899 3.58417 0
M  V30 2761 H 256.338 -5.54285 2.46683 0
M  V30 2762 H 255.077 -4.59826 1.62516 0
M  V30 2763 H 254.082 -3.94046 3.83416 0
M  V30 2764 H 255.307 -4.91896 4.68204 0
M  V30 2765 H 253.253 -5.97715 2.7032 0
M  V30 2766 H 253.17 -6.12766 4.42779 0
M  V30 2767 H 254.438 -6.93657 3.55613 0
M  V30 2768 N 258.668 -1.30515 -0.883378 0
M  V30 2769 C 259.615 -1.17032 -1.98927 0
M  V30 2770 C 260.585 -0.0594241 -1.65994 0
M  V30 2771 O 261.77 -0.229895 -1.8941 0
M  V30 2772 C 258.91 -0.869777 -3.33959 0
M  V30 2773 C 258.023 -2.06271 -3.79574 0
M  V30 2774 C 257.158 -1.70011 -5.03259 0
M  V30 2775 C 256.197 -2.8579 -5.41286 0
M  V30 2776 N 255.334 -2.49816 -6.56153 0
M  V30 2777 H 260.174 -2.1164 -2.09792 0
M  V30 2778 H 257.711 -1.05296 -1.02719 0
M  V30 2779 H 259.669 -0.676138 -4.11685 0
M  V30 2780 H 258.299 0.0394332 -3.22776 0
M  V30 2781 H 257.351 -2.36755 -2.97744 0
M  V30 2782 H 258.663 -2.92971 -4.03694 0
M  V30 2783 H 257.817 -1.47032 -5.88614 0
M  V30 2784 H 256.556 -0.804829 -4.81013 0
M  V30 2785 H 255.561 -3.09434 -4.54456 0
M  V30 2786 H 256.786 -3.76008 -5.65504 0
M  V30 2787 H 254.732 -1.62795 -6.35479 0
M  V30 2788 H 254.649 -3.30048 -6.8015 0
M  V30 2789 H 255.917 -2.30197 -7.44735 0
M  V30 2790 N 260.146 1.09593 -1.13257 0
M  V30 2791 C 261.079 2.15451 -0.752061 0
M  V30 2792 C 262.057 1.60493 0.260913 0
M  V30 2793 O 263.241 1.8788 0.152819 0
M  V30 2794 C 260.368 3.38506 -0.114594 0
M  V30 2795 C 259.414 4.12183 -1.09579 0
M  V30 2796 S 260.247 4.6661 -2.62745 0
M  V30 2797 C 261.403 5.92966 -2.00354 0
M  V30 2798 H 261.636 2.47395 -1.64872 0
M  V30 2799 H 259.169 1.21515 -0.952545 0
M  V30 2800 H 261.127 4.09757 0.246808 0
M  V30 2801 H 259.788 3.04784 0.759309 0
M  V30 2802 H 258.981 5.00445 -0.597545 0
M  V30 2803 H 258.583 3.46785 -1.40057 0
M  V30 2804 H 260.875 6.63882 -1.35156 0
M  V30 2805 H 261.818 6.47467 -2.86691 0
M  V30 2806 H 262.226 5.45405 -1.4558 0
M  V30 2807 N 261.624 0.925811 1.2754 0
M  V30 2808 C 262.852 0.581509 1.9856 0
M  V30 2809 C 263.267 -0.840041 1.69082 0
M  V30 2810 O 262.624 -1.55805 0.950312 0
M  V30 2811 C 262.675 0.795589 3.52637 0
M  V30 2812 O 262.396 2.16121 3.81082 0
M  V30 2813 C 263.897 0.459744 4.4091 0
M  V30 2814 H 261.117 0.220538 0.633722 0
M  V30 2815 H 263.661 1.24232 1.6244 0
M  V30 2816 H 261.816 0.18161 3.86974 0
M  V30 2817 H 262.23 2.2098 4.75676 0
M  V30 2818 H 263.704 0.660244 5.48037 0
M  V30 2819 H 264.181 -0.604625 4.35018 0
M  V30 2820 H 264.787 1.05178 4.12089 0
M  V30 2821 N 263.102 -1.41638 0.69111 0
M  V30 2822 C 264.348 -2.01598 0.220519 0
M  V30 2823 C 264.681 -1.54594 -1.17535 0
M  V30 2824 O 263.956 -0.755177 -1.79241 0
M  V30 2825 C 264.239 -3.59062 0.273243 0
M  V30 2826 C 264.092 -4.16203 1.70573 0
M  V30 2827 C 265.411 -4.38546 -0.369457 0
M  V30 2828 H 262.53 -0.732468 0.0816045 0
M  V30 2829 H 265.172 -1.68445 0.878986 0
M  V30 2830 H 263.322 -3.87435 -0.287411 0
M  V30 2831 H 264.994 -3.98722 2.31989 0
M  V30 2832 H 263.237 -3.71414 2.2413 0
M  V30 2833 H 263.908 -5.25358 1.69419 0
M  V30 2834 H 266.384 -4.1596 0.107977 0
M  V30 2835 H 265.26 -5.48069 -0.302002 0
M  V30 2836 H 265.521 -4.17662 -1.44951 0
M  V30 2837 N 264.58 -0.43555 -1.51462 0
M  V30 2838 C 265.808 0.130242 -2.0649 0
M  V30 2839 C 266.223 1.36614 -1.30315 0
M  V30 2840 O 265.58 1.78869 -0.362223 0
M  V30 2841 C 265.631 0.454253 -3.58635 0
M  V30 2842 O 265.352 -0.73259 -4.31931 0
M  V30 2843 C 266.853 1.07091 -4.3017 0
M  V30 2844 H 264.073 0.00871669 -0.670943 0
M  V30 2845 H 266.617 -0.614117 -1.95061 0
M  V30 2846 H 264.772 1.14851 -3.69984 0
M  V30 2847 H 265.186 -0.455787 -5.22516 0
M  V30 2848 H 266.66 1.24764 -5.37716 0
M  V30 2849 H 267.137 2.05144 -3.88346 0
M  V30 2850 H 267.743 0.416089 -4.2326 0
M  V30 2851 N 266.058 1.56714 -0.166846 0
M  V30 2852 C 267.335 1.88412 0.525373 0
M  V30 2853 C 267.715 1.07602 1.81618 0
M  V30 2854 O 267.063 0.168621 2.27877 0
M  V30 2855 C 267.273 3.40363 0.771613 0
M  V30 2856 C 268.621 4.10007 1.1036 0
M  V30 2857 O 269.645 3.45655 0.860304 0
M  V30 2858 O 268.504 5.2369 1.56239 0
M  V30 2859 H 265.598 0.781587 0.270278 0
M  V30 2860 H 268.144 1.68458 -0.204946 0
M  V30 2861 H 266.916 3.91046 -0.141093 0
M  V30 2862 H 266.539 3.65914 1.55541 0
M  V30 2863 N 267.536 -0.106894 1.57237 0
M  V30 2864 C 268.468 -1.15646 1.97885 0
M  V30 2865 C 269.481 -1.36981 0.879779 0
M  V30 2866 O 270.67 -1.35841 1.15799 0
M  V30 2867 C 267.77 -2.51425 2.27241 0
M  V30 2868 C 266.943 -2.50529 3.58545 0
M  V30 2869 C 266.002 -3.68145 3.75973 0
M  V30 2870 O 265.028 -3.51176 4.47956 0
M  V30 2871 N 266.23 -4.87177 3.15656 0
M  V30 2872 H 268.995 -0.81059 2.8853 0
M  V30 2873 H 266.556 -0.296024 1.59171 0
M  V30 2874 H 268.548 -3.28689 2.36105 0
M  V30 2875 H 267.118 -2.78147 1.42663 0
M  V30 2876 H 266.338 -1.58894 3.60758 0
M  V30 2877 H 267.626 -2.46997 4.44826 0
M  V30 2878 H 267.024 -5.03868 2.57165 0
M  V30 2879 H 265.581 -5.62075 3.30023 0
M  V30 2880 N 269.014 -1.53014 -0.377408 0
M  V30 2881 C 270.26 -1.68872 -1.12294 0
M  V30 2882 C 270.593 -0.433224 -1.89306 0
M  V30 2883 O 269.868 0.569258 -1.85983 0
M  V30 2884 C 270.151 -2.93115 -2.09179 0
M  V30 2885 C 270.004 -4.28794 -1.35853 0
M  V30 2886 C 271.323 -3.12928 -3.09458 0
M  V30 2887 H 268.442 -0.614518 -0.406862 0
M  V30 2888 H 271.084 -1.85633 -0.40503 0
M  V30 2889 H 269.234 -2.78956 -2.70399 0
M  V30 2890 H 270.906 -4.54742 -0.775082 0
M  V30 2891 H 269.149 -4.28744 -0.660364 0
M  V30 2892 H 269.82 -5.11837 -2.06706 0
M  V30 2893 H 272.296 -3.26194 -2.58334 0
M  V30 2894 H 271.172 -4.01316 -3.74482 0
M  V30 2895 H 271.433 -2.27669 -3.78971 0
M  V30 2896 N 270.492 0.636531 -1.44174 0
M  V30 2897 C 271.44 1.76995 -1.50915 0
M  V30 2898 C 272.434 1.65053 -0.381295 0
M  V30 2899 O 273.64 1.71197 -0.55601 0
M  V30 2900 H 270.015 0.584247 -0.473455 0
M  V30 2901 H 271.986 1.68432 -2.4632 0
M  V30 2902 C 270.735 3.15314 -1.46534 0
M  V30 2903 H 270.058 3.25149 -2.32633 0
M  V30 2904 H 271.498 3.9453 -1.55312 0
M  V30 2905 C 269.957 3.3639 -0.185305 0
M  V30 2906 O 270.487 3.94699 0.746688 0
M  V30 2907 N 268.693 2.9046 -0.0901606 0
M  V30 2908 H 268.24 2.43193 -0.849416 0
M  V30 2909 H 268.198 3.04937 0.765553 0
M  V30 2910 N 271.97 1.30982 0.876444 0
M  V30 2911 C 273.21 1.21589 1.64303 0
M  V30 2912 C 273.574 -0.223962 1.90689 0
M  V30 2913 O 274.775 -0.44128 2.65153 0
M  V30 2914 C 273.046 2.03007 2.94148 0
M  V30 2915 S 274.605 2.10405 3.85065 0
M  V30 2916 H 271.423 0.433161 0.563819 0
M  V30 2917 H 274.025 1.65565 1.03964 0
M  V30 2918 H 272.729 3.06719 2.72675 0
M  V30 2919 H 272.26 1.59725 3.59515 0
M  V30 2920 H 274.275 1.23765 4.80517 0
M  V30 2921 N 273.449 -1.08991 1.13837 0
M  V30 2922 C 274.86 -1.62746 0.914917 0
M  V30 2923 C 275.211 -1.88403 -0.547594 0
M  V30 2924 O 274.336 -1.63706 -1.41525 0
M  V30 2925 C 274.931 -2.95662 1.65437 0
M  V30 2926 C 273.49 -3.46225 1.47666 0
M  V30 2927 C 272.637 -2.20562 1.6807 0
M  V30 2928 H 275.588 -0.922946 1.29102 0
M  V30 2929 H 275.609 -3.63825 1.11407 0
M  V30 2930 H 275.121 -2.76956 2.71877 0
M  V30 2931 H 273.222 -3.70046 0.435478 0
M  V30 2932 H 273.335 -4.23368 2.24268 0
M  V30 2933 H 271.699 -2.29439 1.10589 0
M  V30 2934 H 272.482 -2.0437 2.7584 0
M  V30 2935 N 274.927 -0.932562 -1.27047 0
M  V30 2936 C 275.874 -0.434072 -2.26681 0
M  V30 2937 C 276.844 0.501639 -1.58344 0
M  V30 2938 O 278.029 0.419734 -1.86126 0
M  V30 2939 C 275.169 0.30261 -3.43771 0
M  V30 2940 C 274.282 -0.667774 -4.26808 0
M  V30 2941 C 273.417 0.0892393 -5.31125 0
M  V30 2942 C 272.456 -0.873532 -6.05835 0
M  V30 2943 N 271.593 -0.148832 -7.01942 0
M  V30 2944 H 276.433 -1.28868 -2.68695 0
M  V30 2945 H 273.97 -0.646713 -1.32121 0
M  V30 2946 H 275.928 0.746092 -4.10474 0
M  V30 2947 H 274.558 1.12142 -3.02695 0
M  V30 2948 H 273.61 -1.22978 -3.59973 0
M  V30 2949 H 274.922 -1.40337 -4.78651 0
M  V30 2950 H 274.076 0.592409 -6.03801 0
M  V30 2951 H 272.815 0.85777 -4.80097 0
M  V30 2952 H 271.82 -1.38791 -5.31994 0
M  V30 2953 H 273.045 -1.64193 -6.58952 0
M  V30 2954 H 270.991 0.601365 -6.53238 0
M  V30 2955 H 270.908 -0.82391 -7.51497 0
M  V30 2956 H 272.176 0.333527 -7.78786 0
M  V30 2957 N 276.405 1.4127 -0.698611 0
M  V30 2958 C 277.335 2.33447 -0.049629 0
M  V30 2959 C 278.316 1.51982 0.763898 0
M  V30 2960 O 279.501 1.80509 0.716257 0
M  V30 2961 C 276.631 3.35828 0.885267 0
M  V30 2962 C 275.585 4.27627 0.178613 0
M  V30 2963 C 274.911 5.20406 1.22807 0
M  V30 2964 C 276.211 5.13459 -0.956933 0
M  V30 2965 H 277.905 2.87966 -0.81951 0
M  V30 2966 H 275.451 1.38461 -0.395538 0
M  V30 2967 H 277.404 3.9924 1.34854 0
M  V30 2968 H 276.128 2.79666 1.68685 0
M  V30 2969 H 274.787 3.65643 -0.26466 0
M  V30 2970 H 274.435 4.60558 2.02226 0
M  V30 2971 H 274.135 5.82661 0.760239 0
M  V30 2972 H 275.659 5.86695 1.69179 0
M  V30 2973 H 277.073 5.70421 -0.573805 0
M  V30 2974 H 275.47 5.8467 -1.35205 0
M  V30 2975 H 276.54 4.50443 -1.79524 0
M  V30 2976 N 277.883 0.443576 1.51229 0
M  V30 2977 C 279.108 -0.121648 2.07043 0
M  V30 2978 C 279.533 -1.35156 1.30823 0
M  V30 2979 O 278.891 -1.7793 0.347934 0
M  V30 2980 C 278.939 -0.41624 3.5819 0
M  V30 2981 O 278.043 -1.50163 3.8409 0
M  V30 2982 H 277.384 0.000871367 0.663999 0
M  V30 2983 H 279.914 0.626706 1.94765 0
M  V30 2984 H 279.924 -0.664867 4.02546 0
M  V30 2985 H 278.599 0.482653 4.1309 0
M  V30 2986 H 277.176 -1.24248 3.51592 0
M  V30 2987 O 279.4 -1.58373 0.316273 0
M  V30 2988 H 280.091 -1.92143 -0.24513 0
M  V30 END ATOM
M  V30 BEGIN BOND
M  V30 END BOND
M  V30 END CTAB
M  END
$$$$
