drugbank_target|P05019 Insulin-like growth factor I (DB01890; DB02643)
 OpenBabel12092120313D

  0  0  0     0  0            999 V3000
M  V30 BEGIN CTAB
M  V30 COUNTS 3068 3098 0 0 0
M  V30 BEGIN ATOM
M  V30 1 H -0.908 1.98254 -0.117106 0
M  V30 2 N 0 1.576 0 0
M  V30 3 C 0.933 2.03868 1.02534 0
M  V30 4 C 1.911 0.928543 1.3348 0
M  V30 5 O 3.095 1.19667 1.45644 0
M  V30 6 C 0.222 2.43627 2.35294 0
M  V30 7 C -0.732 3.65373 2.2001 0
M  V30 8 S 0.101 5.13292 1.52614 0
M  V30 9 C 1.257 5.56322 2.86805 0
M  V30 10 H 1.49 2.90518 0.631377 0
M  V30 11 H -0.977 1.52953 0.210867 0
M  V30 12 H 0.981 2.67203 3.11629 0
M  V30 13 H -0.358 1.57376 2.7183 0
M  V30 14 H -1.165 3.90944 3.18086 0
M  V30 15 H -1.563 3.418 1.51819 0
M  V30 16 H 0.729 5.58782 3.83104 0
M  V30 17 H 1.672 6.56266 2.65933 0
M  V30 18 H 2.08 4.83886 2.90714 0
M  V30 19 N 1.4781 -0.272755 1.55222 0
M  V30 20 C 2.7261 -1.00234 1.75492 0
M  V30 21 C 3.0471 -1.8681 0.5592 0
M  V30 22 O 2.3171 -1.91215 -0.425882 0
M  V30 23 H 0.8971 -0.373076 0.647166 0
M  V30 24 H 3.5591 -0.296926 1.92625 0
M  V30 25 H 2.6551 -1.63913 2.65592 0
M  V30 26 N 2.9562 -1.48159 -0.537278 0
M  V30 27 C 3.9032 -1.62138 -1.64256 0
M  V30 28 C 4.8732 -0.463668 -1.59497 0
M  V30 29 O 6.0582 -0.686241 -1.78032 0
M  V30 30 C 3.1982 -1.66028 -3.02537 0
M  V30 31 C 2.3112 -2.92855 -3.17585 0
M  V30 32 C 1.4462 -2.87952 -4.46382 0
M  V30 33 C 0.4852 -4.09516 -4.54932 0
M  V30 34 N -0.3778 -4.02733 -5.75109 0
M  V30 35 H 4.4622 -2.56529 -1.51647 0
M  V30 36 H 1.9992 -1.27224 -0.738414 0
M  V30 37 H 3.9572 -1.66265 -3.82638 0
M  V30 38 H 2.5872 -0.751331 -3.13934 0
M  V30 39 H 1.6392 -3.02395 -2.30784 0
M  V30 40 H 2.9512 -3.82822 -3.19764 0
M  V30 41 H 2.1052 -2.8655 -5.34765 0
M  V30 42 H 0.8442 -1.95702 -4.46712 0
M  V30 43 H -0.1508 -4.11201 -3.64957 0
M  V30 44 H 1.0742 -5.02917 -4.56346 0
M  V30 45 H -0.9798 -3.13299 -5.76351 0
M  V30 46 H -1.0628 -4.86397 -5.78752 0
M  V30 47 H 0.2052 -4.05379 -6.65799 0
M  V30 48 N 4.4343 0.785586 -1.36625 0
M  V30 49 C 5.6833 1.53883 -1.30396 0
M  V30 50 C 5.9963 1.95271 0.113452 0
M  V30 51 O 7.2023 2.69858 0.298142 0
M  V30 52 C 5.6583 2.77808 -2.28802 0
M  V30 53 C 5.2663 2.43574 -3.75999 0
M  V30 54 C 7.0103 3.55783 -2.31558 0
M  V30 55 C 4.9173 3.63919 -4.66173 0
M  V30 56 H 3.8473 0.577678 -0.484566 0
M  V30 57 H 6.4983 0.861705 -1.62009 0
M  V30 58 H 4.8803 3.47339 -1.90188 0
M  V30 59 H 6.0543 1.81916 -4.23371 0
M  V30 60 H 4.3693 1.78803 -3.76056 0
M  V30 61 H 6.9663 4.45205 -2.96137 0
M  V30 62 H 7.3093 3.94644 -1.3252 0
M  V30 63 H 7.8423 2.93235 -2.68809 0
M  V30 64 H 4.5813 3.3015 -5.66287 0
M  V30 65 H 4.1013 4.2473 -4.23515 0
M  V30 66 H 5.7803 4.30901 -4.82632 0
M  V30 67 N 5.9124 1.20967 1.01018 0
M  V30 68 C 7.1374 1.0503 1.78839 0
M  V30 69 C 7.5624 -0.395752 1.8389 0
M  V30 70 O 6.9204 -1.28529 1.27867 0
M  V30 71 C 6.9684 1.64602 3.2084 0
M  V30 72 O 6.0724 0.887988 4.02726 0
M  V30 73 H 5.4134 0.369987 0.551367 0
M  V30 74 H 7.9434 1.60399 1.27018 0
M  V30 75 H 7.9534 1.68607 3.71532 0
M  V30 76 H 6.6284 2.69841 3.16479 0
M  V30 77 H 5.2054 0.922648 3.61305 0
M  V30 78 N 7.3905 -1.2043 1.01659 0
M  V30 79 C 8.6155 -1.94318 0.724942 0
M  V30 80 C 9.0405 -1.74266 -0.708034 0
M  V30 81 O 8.3985 -1.03694 -1.48719 0
M  V30 82 C 8.4465 -3.44486 1.06591 0
M  V30 83 O 7.5505 -4.12017 0.177599 0
M  V30 84 H 6.8915 -0.60708 0.26898 0
M  V30 85 H 9.4215 -1.52861 1.35995 0
M  V30 86 H 9.4315 -3.95106 1.01762 0
M  V30 87 H 8.1065 -3.58404 2.10997 0
M  V30 88 H 6.6835 -3.71821 0.283421 0
M  V30 89 N 8.8686 -0.792821 -1.36206 0
M  V30 90 C 9.7986 -0.207853 -2.32573 0
M  V30 91 C 10.7796 0.659055 -1.56813 0
M  V30 92 O 11.9646 0.592176 -1.84951 0
M  V30 93 C 9.0946 0.655449 -3.41059 0
M  V30 94 C 8.0486 -0.111842 -4.27854 0
M  V30 95 C 7.3746 0.872274 -5.27537 0
M  V30 96 C 8.6746 -1.30299 -5.05786 0
M  V30 97 H 10.3686 -1.01294 -2.81744 0
M  V30 98 H 7.9146 -0.48854 -1.3546 0
M  V30 99 H 9.8676 1.07464 -4.07467 0
M  V30 100 H 8.5916 1.49328 -2.90463 0
M  V30 101 H 7.2506 -0.512053 -3.63006 0
M  V30 102 H 6.8986 1.70523 -4.73214 0
M  V30 103 H 6.5986 0.363291 -5.86476 0
M  V30 104 H 8.1226 1.28996 -5.96818 0
M  V30 105 H 9.5366 -0.959379 -5.65216 0
M  V30 106 H 7.9336 -1.7455 -5.74154 0
M  V30 107 H 9.0036 -2.09663 -4.37229 0
M  V30 108 N 10.3467 1.47872 -0.545128 0
M  V30 109 C 11.7577 1.86384 -0.108581 0
M  V30 110 C 12.1087 1.45309 1.31832 0
M  V30 111 O 11.2337 0.850641 1.9898 0
M  V30 112 C 11.8287 3.38265 -0.190274 0
M  V30 113 C 10.3877 3.75914 0.191164 0
M  V30 114 C 9.5347 2.71926 -0.543273 0
M  V30 115 H 12.4857 1.39561 -0.755537 0
M  V30 116 H 12.5067 3.75831 0.594217 0
M  V30 117 H 12.0187 3.6813 -1.2289 0
M  V30 118 H 10.1197 3.51665 1.23136 0
M  V30 119 H 10.2327 4.78836 -0.158987 0
M  V30 120 H 8.5967 2.54697 0.0122495 0
M  V30 121 H 9.3797 3.04634 -1.58282 0
M  V30 122 N 11.8248 0.280983 1.55075 0
M  V30 123 C 13.0528 -0.337293 2.04132 0
M  V30 124 C 13.4678 -1.4903 1.15912 0
M  V30 125 O 12.8248 -1.81606 0.180459 0
M  V30 126 C 12.8758 -0.812706 3.52246 0
M  V30 127 O 12.5968 0.294387 4.3711 0
M  V30 128 C 14.0978 -1.4982 4.17216 0
M  V30 129 H 11.3178 -0.0761638 0.666663 0
M  V30 130 H 13.8618 0.414787 2.00249 0
M  V30 131 H 12.0168 -1.51486 3.56554 0
M  V30 132 H 12.4308 -0.0721325 5.2445 0
M  V30 133 H 13.9048 -1.7822 5.22438 0
M  V30 134 H 14.3818 -2.43168 3.65741 0
M  V30 135 H 14.9878 -0.839742 4.16927 0
M  V30 136 N 13.3029 -1.57598 0.00835791 0
M  V30 137 C 14.2349 -2.05811 -1.00868 0
M  V30 138 C 15.2479 -0.977579 -1.30182 0
M  V30 139 O 16.4369 -1.25421 -1.27011 0
M  V30 140 C 13.5369 -2.45016 -2.34137 0
M  V30 141 C 12.7099 -3.75903 -2.23643 0
M  V30 142 C 11.7689 -4.01884 -3.3967 0
M  V30 143 O 10.7949 -4.72433 -3.17483 0
M  V30 144 N 11.9969 -3.50432 -4.62793 0
M  V30 145 H 14.7619 -2.93684 -0.597458 0
M  V30 146 H 12.3229 -1.60909 -0.178852 0
M  V30 147 H 14.3149 -2.59506 -3.10546 0
M  V30 148 H 12.8849 -1.62618 -2.66972 0
M  V30 149 H 12.1049 -3.7141 -1.32091 0
M  V30 150 H 13.3929 -4.61695 -2.13812 0
M  V30 151 H 12.7909 -2.93317 -4.83716 0
M  V30 152 H 11.3479 -3.70236 -5.3644 0
M  V30 153 N 14.781 0.264519 -1.55364 0
M  V30 154 C 15.711 1.33121 -1.91836 0
M  V30 155 C 16.692 1.51101 -0.781192 0
M  V30 156 O 17.877 1.64003 -1.04003 0
M  V30 157 C 15.007 2.68921 -2.19769 0
M  V30 158 C 13.961 2.65661 -3.35571 0
M  V30 159 C 13.287 4.05093 -3.49004 0
M  V30 160 C 14.587 2.24187 -4.71739 0
M  V30 161 H 16.281 1.02844 -2.81182 0
M  V30 162 H 13.827 0.493286 -1.35287 0
M  V30 163 H 15.78 3.43663 -2.43872 0
M  V30 164 H 14.504 3.00799 -1.27231 0
M  V30 165 H 13.163 1.93377 -3.1145 0
M  V30 166 H 12.811 4.34206 -2.53917 0
M  V30 167 H 12.511 4.03804 -4.26868 0
M  V30 168 H 14.035 4.81561 -3.75408 0
M  V30 169 H 15.449 2.88654 -4.9533 0
M  V30 170 H 13.846 2.34044 -5.52579 0
M  V30 171 H 14.916 1.19327 -4.69988 0
M  V30 172 N 16.2591 1.48442 0.529413 0
M  V30 173 C 17.5061 1.56488 1.28521 0
M  V30 174 C 17.8341 0.239042 1.93025 0
M  V30 175 O 17.0891 -0.770713 1.79885 0
M  V30 176 C 17.3881 2.6523 2.39558 0
M  V30 177 C 17.0541 4.07648 1.92702 0
M  V30 178 C 15.7161 4.46411 1.79641 0
M  V30 179 C 18.0681 4.96896 1.573 0
M  V30 180 C 15.3961 5.72226 1.29514 0
M  V30 181 C 17.7481 6.23202 1.08636 0
M  V30 182 C 16.4121 6.60821 0.941919 0
M  V30 183 H 15.6821 0.572631 0.470292 0
M  V30 184 H 18.3291 1.82161 0.59072 0
M  V30 185 H 16.6341 2.33419 3.14679 0
M  V30 186 H 18.3311 2.68671 2.97686 0
M  V30 187 H 14.9211 3.77036 2.03819 0
M  V30 188 H 19.1051 4.67626 1.66251 0
M  V30 189 H 14.3611 6.00097 1.17019 0
M  V30 190 H 18.5351 6.91753 0.803136 0
M  V30 191 H 16.1621 7.58198 0.5513 0
M  V30 192 N 17.7372 -0.778329 1.37039 0
M  V30 193 C 18.6842 -1.89139 1.32269 0
M  V30 194 C 19.6542 -1.65017 0.189387 0
M  V30 195 O 20.8392 -1.87024 0.377693 0
M  V30 196 C 17.9792 -3.26112 1.12894 0
M  V30 197 C 17.0922 -3.62233 2.35396 0
M  V30 198 C 16.2272 -4.8838 2.08946 0
M  V30 199 C 15.2662 -5.17212 3.2735 0
M  V30 200 N 14.4032 -6.34546 3.00492 0
M  V30 201 H 19.2432 -1.92552 2.27437 0
M  V30 202 H 16.7802 -0.941473 1.13025 0
M  V30 203 H 18.7382 -4.05116 0.996835 0
M  V30 204 H 17.3682 -3.22091 0.213758 0
M  V30 205 H 16.4202 -2.78265 2.5937 0
M  V30 206 H 17.7322 -3.79481 3.23721 0
M  V30 207 H 16.8862 -5.75274 1.92729 0
M  V30 208 H 15.6252 -4.73222 1.17949 0
M  V30 209 H 14.6302 -4.28796 3.44113 0
M  V30 210 H 15.8552 -5.34283 4.19188 0
M  V30 211 H 13.8012 -6.20759 2.12118 0
M  V30 212 H 13.7182 -6.52179 3.82358 0
M  V30 213 H 14.9862 -7.24394 2.87879 0
M  V30 214 N 19.2153 -1.21501 -1.00376 0
M  V30 215 C 20.4553 -1.04444 -1.75701 0
M  V30 216 C 20.8193 0.414644 -1.87469 0
M  V30 217 O 22.0203 0.705763 -2.59369 0
M  V30 218 C 20.2913 -1.72389 -3.13077 0
M  V30 219 S 21.8503 -1.70604 -4.04277 0
M  V30 220 H 18.6683 -0.374249 -0.604532 0
M  V30 221 H 21.2703 -1.54267 -1.20091 0
M  V30 222 H 19.9743 -2.77734 -3.02146 0
M  V30 223 H 19.5053 -1.22751 -3.73759 0
M  V30 224 H 21.5203 -0.748012 -4.9053 0
M  V30 225 N 20.6934 1.19889 -1.02296 0
M  V30 226 C 21.9334 1.91125 -0.724602 0
M  V30 227 C 22.2974 1.77464 0.732835 0
M  V30 228 O 23.4984 2.43241 1.144 0
M  V30 229 C 21.7694 3.38187 -1.15604 0
M  V30 230 S 23.3284 4.27702 -0.980621 0
M  V30 231 H 20.1464 0.66018 -0.263976 0
M  V30 232 H 22.7484 1.44978 -1.31155 0
M  V30 233 H 21.4524 3.45653 -2.21251 0
M  V30 234 H 20.9834 3.89363 -0.562131 0
M  V30 235 H 22.9984 4.96073 0.112225 0
M  V30 236 N 22.1715 0.800033 1.35784 0
M  V30 237 C 23.4185 0.377342 1.98953 0
M  V30 238 C 23.7465 -1.05378 1.6348 0
M  V30 239 O 23.0015 -1.74459 0.886707 0
M  V30 240 C 23.3005 0.500276 3.53881 0
M  V30 241 C 22.9665 1.89375 4.09204 0
M  V30 242 C 21.6285 2.27499 4.24025 0
M  V30 243 C 23.9805 2.8057 4.39238 0
M  V30 244 C 21.3085 3.562 4.66195 0
M  V30 245 C 23.6605 4.0871 4.82844 0
M  V30 246 C 22.3245 4.46843 4.95871 0
M  V30 247 H 21.5945 0.138079 0.728021 0
M  V30 248 H 24.2415 1.01955 1.62103 0
M  V30 249 H 22.5465 -0.225405 3.91151 0
M  V30 250 H 24.2435 0.154097 4.00704 0
M  V30 251 H 20.8335 1.58753 3.98115 0
M  V30 252 H 25.0175 2.52367 4.27346 0
M  V30 253 H 20.2735 3.85602 4.74469 0
M  V30 254 H 24.4475 4.79481 5.05046 0
M  V30 255 H 22.0745 5.46623 5.28306 0
M  V30 256 N 23.6496 -1.47581 0.552962 0
M  V30 257 C 24.8896 -2.04379 0.0296245 0
M  V30 258 C 25.2536 -1.4185 -1.29393 0
M  V30 259 O 26.4546 -1.89669 -1.90471 0
M  V30 260 C 24.7256 -3.57339 -0.0661371 0
M  V30 261 S 26.2846 -4.35511 -0.536213 0
M  V30 262 H 23.1026 -0.710625 0.0230991 0
M  V30 263 H 25.7046 -1.81005 0.738734 0
M  V30 264 H 24.4086 -4.00374 0.901596 0
M  V30 265 H 23.9396 -3.85202 -0.798931 0
M  V30 266 H 25.9546 -4.6253 -1.79668 0
M  V30 267 N 25.1277 -0.289203 -1.54924 0
M  V30 268 C 26.4047 0.376032 -1.91951 0
M  V30 269 C 26.7847 1.72622 -1.21511 0
M  V30 270 O 26.1327 2.25853 -0.346767 0
M  V30 271 C 26.3427 0.502378 -3.45365 0
M  V30 272 C 27.6907 0.778741 -4.17398 0
M  V30 273 O 28.7147 0.586647 -3.51336 0
M  V30 274 O 27.5737 1.14698 -5.34328 0
M  V30 275 H 24.6677 0.208167 -0.800372 0
M  V30 276 H 27.2137 -0.336394 -1.66332 0
M  V30 277 H 25.9857 -0.447255 -3.88736 0
M  V30 278 H 25.6087 1.26373 -3.76982 0
M  V30 279 N 26.6058 1.57591 -0.0167156 0
M  V30 280 C 27.8528 1.91283 0.664597 0
M  V30 281 C 28.1808 0.891949 1.72842 0
M  V30 282 O 27.4358 -0.100931 1.9544 0
M  V30 283 C 27.7348 3.3172 1.33029 0
M  V30 284 C 27.4008 4.4914 0.398047 0
M  V30 285 C 26.0628 4.80992 0.141421 0
M  V30 286 C 28.4148 5.20634 -0.242825 0
M  V30 287 C 25.7428 5.81703 -0.764092 0
M  V30 288 C 28.0948 6.22311 -1.13632 0
M  V30 289 C 26.7588 6.52611 -1.40196 0
M  V30 290 H 26.0288 0.699956 0.243193 0
M  V30 291 H 28.6758 1.9135 -0.0758267 0
M  V30 292 H 26.9808 3.27856 2.14517 0
M  V30 293 H 28.6778 3.55055 1.86379 0
M  V30 294 H 25.2678 4.24262 0.608238 0
M  V30 295 H 29.4518 4.96267 -0.0576019 0
M  V30 296 H 24.7078 6.03532 -0.977732 0
M  V30 297 H 28.8818 6.76834 -1.63917 0
M  V30 298 H 26.5088 7.30467 -2.10529 0
M  V30 299 N 28.0839 -0.256276 1.55502 0
M  V30 300 C 29.0139 -1.32102 1.92539 0
M  V30 301 C 29.9949 -1.50684 0.789194 0
M  V30 302 O 31.1799 -1.63449 1.04872 0
M  V30 303 C 28.3099 -2.67752 2.21192 0
M  V30 304 C 27.2639 -2.63878 3.36975 0
M  V30 305 C 26.5899 -4.03236 3.51147 0
M  V30 306 C 27.8899 -2.21682 4.72921 0
M  V30 307 H 29.5839 -1.01351 2.81724 0
M  V30 308 H 27.1299 -0.486105 1.35547 0
M  V30 309 H 29.0829 -3.42365 2.45691 0
M  V30 310 H 27.8069 -3.0012 1.28824 0
M  V30 311 H 26.4659 -1.91722 3.12471 0
M  V30 312 H 26.1139 -4.32854 2.56216 0
M  V30 313 H 25.8139 -4.01535 4.29003 0
M  V30 314 H 27.3379 -4.79563 3.77957 0
M  V30 315 H 28.7519 -2.86023 4.96854 0
M  V30 316 H 27.1489 -2.3111 5.53812 0
M  V30 317 H 28.2189 -1.16833 4.70615 0
M  V30 318 N 29.562 -1.4872 -0.521534 0
M  V30 319 C 30.509 -1.63871 -1.62527 0
M  V30 320 C 31.479 -0.480559 -1.58996 0
M  V30 321 O 32.664 -0.705085 -1.77294 0
M  V30 322 C 29.804 -1.69227 -3.00759 0
M  V30 323 C 28.917 -2.96207 -3.14461 0
M  V30 324 C 28.052 -2.92671 -4.43303 0
M  V30 325 C 27.091 -4.14318 -4.50563 0
M  V30 326 N 26.228 -4.0881 -5.70805 0
M  V30 327 H 31.068 -2.58123 -1.48918 0
M  V30 328 H 28.605 -1.28 -0.724878 0
M  V30 329 H 30.563 -1.70314 -3.80853 0
M  V30 330 H 29.193 -0.784586 -3.1312 0
M  V30 331 H 28.245 -3.04826 -2.27564 0
M  V30 332 H 29.557 -3.86192 -3.15686 0
M  V30 333 H 28.711 -2.92206 -5.31696 0
M  V30 334 H 27.45 -2.00429 -4.44612 0
M  V30 335 H 26.455 -4.15049 -3.60575 0
M  V30 336 H 27.68 -5.07729 -4.50986 0
M  V30 337 H 25.626 -3.19394 -5.72995 0
M  V30 338 H 25.543 -4.92509 -5.7356 0
M  V30 339 H 26.811 -4.12418 -6.61462 0
M  V30 340 N 31.0401 0.771051 -1.3745 0
M  V30 341 C 32.2861 1.5319 -1.32894 0
M  V30 342 C 32.6191 1.94008 0.0862511 0
M  V30 343 O 31.8941 1.64124 1.04373 0
M  V30 344 C 32.1771 2.79648 -2.26868 0
M  V30 345 C 32.0301 2.45079 -3.77169 0
M  V30 346 C 33.3491 3.81583 -2.19277 0
M  V30 347 H 30.4681 0.555744 -0.484064 0
M  V30 348 H 33.1101 0.884492 -1.68157 0
M  V30 349 H 31.2601 3.34891 -1.96926 0
M  V30 350 H 32.9321 1.95745 -4.1771 0
M  V30 351 H 31.1751 1.77767 -3.95704 0
M  V30 352 H 31.8461 3.35478 -4.38359 0
M  V30 353 H 34.3221 3.35835 -2.45671 0
M  V30 354 H 33.1981 4.67787 -2.87171 0
M  V30 355 H 33.4591 4.25897 -1.18592 0
M  V30 356 N 32.5182 1.22032 0.997298 0
M  V30 357 C 33.4652 0.986467 2.08656 0
M  V30 358 C 34.4352 -0.0902671 1.65855 0
M  V30 359 O 35.6202 0.0584294 1.90711 0
M  V30 360 C 32.7602 0.565569 3.40434 0
M  V30 361 C 31.8732 1.71259 3.96604 0
M  V30 362 C 31.0082 1.24011 5.16522 0
M  V30 363 C 30.0472 2.35896 5.64818 0
M  V30 364 N 29.1842 1.89726 6.7598 0
M  V30 365 H 34.0242 1.91892 2.27994 0
M  V30 366 H 31.5612 0.956199 1.11782 0
M  V30 367 H 33.5192 0.302738 4.161 0
M  V30 368 H 32.1492 -0.329879 3.2111 0
M  V30 369 H 31.2012 2.08986 3.17851 0
M  V30 370 H 32.5132 2.55436 4.28432 0
M  V30 371 H 31.6672 0.934395 5.99461 0
M  V30 372 H 30.4062 0.368487 4.86306 0
M  V30 373 H 29.4112 2.67261 4.8047 0
M  V30 374 H 30.6362 3.23567 5.97061 0
M  V30 375 H 28.5822 1.0492 6.47555 0
M  V30 376 H 28.4992 2.67471 7.07103 0
M  V30 377 H 29.7672 1.62211 7.62435 0
M  V30 378 N 33.9963 -1.19345 1.0293 0
M  V30 379 C 34.9293 -2.21347 0.555029 0
M  V30 380 C 35.9073 -1.57492 -0.404351 0
M  V30 381 O 37.0913 -1.85741 -0.321352 0
M  V30 382 C 34.2183 -3.38163 -0.19064 0
M  V30 383 C 33.2643 -4.20375 0.720236 0
M  V30 384 S 34.0973 -4.88371 2.19668 0
M  V30 385 C 35.2533 -6.08597 1.46153 0
M  V30 386 H 35.4863 -2.61235 1.41929 0
M  V30 387 H 33.0193 -1.29598 0.839272 0
M  V30 388 H 34.9773 -4.05871 -0.614724 0
M  V30 389 H 33.6383 -2.9671 -1.03063 0
M  V30 390 H 32.8313 -5.03793 0.14455 0
M  V30 391 H 32.4333 -3.57987 1.08266 0
M  V30 392 H 34.7253 -6.73354 0.748357 0
M  V30 393 H 35.6683 -6.7065 2.27233 0
M  V30 394 H 36.0763 -5.56297 0.958842 0
M  V30 395 N 35.4744 -0.807222 -1.35358 0
M  V30 396 C 36.4244 -0.190706 -2.27201 0
M  V30 397 C 37.4084 0.635838 -1.47804 0
M  V30 398 O 38.6004 0.492991 -1.69996 0
M  V30 399 C 35.7294 0.659337 -3.36909 0
M  V30 400 C 34.8154 -0.176971 -4.23731 0
M  V30 401 N 35.2064 -1.24029 -4.90357 0
M  V30 402 C 33.5044 0.0412953 -4.45981 0
M  V30 403 C 34.2054 -1.75092 -5.54723 0
M  V30 404 N 33.1814 -1.05727 -5.33219 0
M  V30 405 H 36.9834 -1.0043 -2.76208 0
M  V30 406 H 34.4974 -0.648445 -1.48892 0
M  V30 407 H 36.4944 1.11706 -4.01656 0
M  V30 408 H 35.1544 1.47127 -2.89454 0
M  V30 409 H 36.1654 -1.62295 -4.91814 0
M  V30 410 H 32.8424 0.82232 -4.09322 0
M  V30 411 H 34.2324 -2.63963 -6.17878 0
M  V30 412 N 36.9525 1.47285 -0.560781 0
M  V30 413 C 38.1805 2.06855 -0.0430262 0
M  V30 414 C 38.5955 1.41291 1.25229 0
M  V30 415 O 37.9525 0.510648 1.7521 0
M  V30 416 C 38.0035 3.61178 0.152518 0
M  V30 417 O 37.7245 4.24285 -1.0915 0
M  V30 418 C 39.2255 4.37624 0.707145 0
M  V30 419 H 36.4455 0.669319 -0.0474652 0
M  V30 420 H 38.9895 1.89237 -0.77521 0
M  V30 421 H 37.1445 3.78298 0.834843 0
M  V30 422 H 37.5585 5.16868 -0.891482 0
M  V30 423 H 39.0325 5.46271 0.793244 0
M  V30 424 H 39.5095 4.04152 1.71923 0
M  V30 425 H 40.1155 4.25257 0.0604027 0
M  V30 426 N 38.4306 0.297415 1.54768 0
M  V30 427 C 39.3636 -0.622188 2.19554 0
M  V30 428 C 40.3416 -1.13558 1.16376 0
M  V30 429 O 41.5256 -1.20444 1.45002 0
M  V30 430 C 38.6526 -1.8509 2.83653 0
M  V30 431 C 37.6986 -1.47106 4.00328 0
M  V30 432 S 38.5316 -0.53006 5.3287 0
M  V30 433 C 39.6876 -1.76665 6.0045 0
M  V30 434 H 39.9206 -0.0717806 2.97213 0
M  V30 435 H 37.4536 0.0815678 1.54184 0
M  V30 436 H 39.4116 -2.55605 3.21211 0
M  V30 437 H 38.0726 -2.37247 2.05846 0
M  V30 438 H 37.2656 -2.38594 4.43947 0
M  V30 439 H 36.8676 -0.845885 3.64309 0
M  V30 440 H 39.1596 -2.7077 6.21039 0
M  V30 441 H 40.1026 -1.37308 6.9466 0
M  V30 442 H 40.5106 -1.94174 5.30054 0
M  V30 443 N 39.9087 -1.5758 0.0250728 0
M  V30 444 C 41.1337 -1.96337 -0.668317 0
M  V30 445 C 41.5587 -0.901314 -1.651 0
M  V30 446 O 40.9167 0.138187 -1.80773 0
M  V30 447 C 40.9647 -3.34191 -1.35457 0
M  V30 448 O 40.0687 -3.30269 -2.46974 0
M  V30 449 H 39.4097 -0.640281 -0.175887 0
M  V30 450 H 41.9397 -2.0442 0.0857224 0
M  V30 451 H 41.9497 -3.70331 -1.71228 0
M  V30 452 H 40.6247 -4.11036 -0.634218 0
M  V30 453 H 39.2017 -3.05841 -2.13344 0
M  V30 454 N 41.3868 0.248026 -1.55636 0
M  V30 455 C 42.6118 0.998028 -1.81808 0
M  V30 456 C 43.0368 1.78207 -0.601979 0
M  V30 457 O 42.3948 1.75653 0.448961 0
M  V30 458 C 42.4428 1.9125 -3.05705 0
M  V30 459 O 41.5468 3.00406 -2.82542 0
M  V30 460 H 40.8878 0.284045 -0.600179 0
M  V30 461 H 43.4178 0.269357 -2.02819 0
M  V30 462 H 43.4278 2.32737 -3.35108 0
M  V30 463 H 42.1028 1.33602 -3.93857 0
M  V30 464 H 40.6798 2.63056 -2.64303 0
M  V30 465 N 42.8649 1.48995 0.513639 0
M  V30 466 C 44.0899 1.61792 1.29762 0
M  V30 467 C 44.5149 0.284475 1.85936 0
M  V30 468 O 43.8729 -0.746185 1.65232 0
M  V30 469 C 43.9209 2.67993 2.41272 0
M  V30 470 O 43.0249 2.26287 3.44772 0
M  V30 471 H 42.3659 0.541963 0.38363 0
M  V30 472 H 44.8959 1.95097 0.616307 0
M  V30 473 H 44.9059 2.89772 2.87221 0
M  V30 474 H 43.5809 3.64791 1.9975 0
M  V30 475 H 42.1579 2.14788 3.04829 0
M  V30 476 N 44.343 -0.763751 1.37857 0
M  V30 477 C 45.293 -1.86765 1.30777 0
M  V30 478 C 46.277 -1.59726 0.194015 0
M  V30 479 O 47.469 -1.7172 0.42911 0
M  V30 480 C 44.598 -3.24343 1.12502 0
M  V30 481 C 43.684 -3.57307 2.28456 0
M  V30 482 N 44.075 -3.61398 3.53871 0
M  V30 483 C 42.373 -3.87517 2.20786 0
M  V30 484 C 43.074 -3.91339 4.30382 0
M  V30 485 N 42.05 -4.07649 3.59615 0
M  V30 486 H 45.852 -1.88191 2.25746 0
M  V30 487 H 43.366 -0.9606 1.30944 0
M  V30 488 H 45.363 -4.03327 1.05514 0
M  V30 489 H 44.023 -3.24175 0.184574 0
M  V30 490 H 45.034 -3.43407 3.87675 0
M  V30 491 H 41.711 -3.95125 1.34844 0
M  V30 492 H 43.101 -4.01213 5.3896 0
M  V30 493 N 45.8211 -1.22559 -0.990812 0
M  V30 494 C 46.7511 -1.0218 -2.09956 0
M  V30 495 C 47.7321 0.0579394 -1.70001 0
M  V30 496 O 48.9171 -0.104684 -1.93918 0
M  V30 497 C 46.0471 -0.601023 -3.4206 0
M  V30 498 C 45.0011 -1.62694 -3.95872 0
M  V30 499 C 44.3271 -1.06193 -5.24049 0
M  V30 500 C 45.6271 -3.01743 -4.2632 0
M  V30 501 H 47.3211 -1.94916 -2.27262 0
M  V30 502 H 44.8671 -0.938566 -1.09211 0
M  V30 503 H 46.8201 -0.445561 -4.19038 0
M  V30 504 H 45.5441 0.362005 -3.24588 0
M  V30 505 H 44.2031 -1.77021 -3.21028 0
M  V30 506 H 43.8511 -0.0901903 -5.02919 0
M  V30 507 H 43.5511 -1.74732 -5.61019 0
M  V30 508 H 45.0751 -0.918092 -6.03658 0
M  V30 509 H 46.4891 -2.90777 -4.94087 0
M  V30 510 H 44.8861 -3.67425 -4.74467 0
M  V30 511 H 45.9561 -3.51518 -3.34011 0
M  V30 512 N 47.2992 1.18797 -1.03562 0
M  V30 513 C 48.5462 1.8865 -0.736023 0
M  V30 514 C 48.8742 1.80041 0.735889 0
M  V30 515 O 48.1292 1.19179 1.55225 0
M  V30 516 C 48.4282 3.38692 -1.14117 0
M  V30 517 C 48.0942 3.67504 -2.6125 0
M  V30 518 C 46.7562 3.75078 -3.01447 0
M  V30 519 C 49.1082 3.80293 -3.56408 0
M  V30 520 C 46.4362 3.92915 -4.35701 0
M  V30 521 C 48.7882 3.99645 -4.90374 0
M  V30 522 C 47.4522 4.05453 -5.30249 0
M  V30 523 H 46.7222 0.690321 -0.26933 0
M  V30 524 H 49.3692 1.40641 -1.29971 0
M  V30 525 H 47.6742 3.88645 -0.496202 0
M  V30 526 H 49.3712 3.91072 -0.886789 0
M  V30 527 H 45.9612 3.62223 -2.29113 0
M  V30 528 H 50.1452 3.73779 -3.26501 0
M  V30 529 H 45.4012 3.95653 -4.66121 0
M  V30 530 H 49.5752 4.08482 -5.64017 0
M  V30 531 H 47.2022 4.19027 -6.34288 0
M  V30 532 N 48.7773 0.814389 1.34928 0
M  V30 533 C 50.0073 0.41054 2.0248 0
M  V30 534 C 50.4153 -0.985625 1.61499 0
M  V30 535 O 49.7583 -1.64781 0.811976 0
M  V30 536 C 49.8203 0.423384 3.56998 0
M  V30 537 C 49.4843 1.77141 4.21272 0
M  V30 538 C 50.4813 2.73093 4.42398 0
M  V30 539 C 48.1663 2.05755 4.58225 0
M  V30 540 C 50.1603 3.95838 4.9959 0
M  V30 541 C 47.8473 3.28762 5.1513 0
M  V30 542 C 48.8453 4.23621 5.35755 0
M  V30 543 O 48.5333 5.44456 5.91458 0
M  V30 544 H 48.2653 0.163997 0.655806 0
M  V30 545 H 50.8193 1.10155 1.73364 0
M  V30 546 H 49.0493 -0.324276 3.85338 0
M  V30 547 H 50.7383 0.0407683 4.0588 0
M  V30 548 H 51.5043 2.5228 4.14222 0
M  V30 549 H 47.3833 1.32727 4.4148 0
M  V30 550 H 50.9273 4.69891 5.15605 0
M  V30 551 H 46.8243 3.49443 5.42734 0
M  V30 552 H 47.5923 5.4586 6.09901 0
M  V30 553 N 50.2554 -1.46986 0.568584 0
M  V30 554 C 51.1854 -2.32946 -0.160753 0
M  V30 555 C 52.1664 -1.44487 -0.897631 0
M  V30 556 O 53.3514 -1.73327 -0.875867 0
M  V30 557 C 50.4814 -3.26494 -1.18403 0
M  V30 558 C 49.4354 -4.24282 -0.562895 0
M  V30 559 C 48.7614 -5.07236 -1.69163 0
M  V30 560 C 50.0614 -5.19989 0.490761 0
M  V30 561 H 51.7554 -2.94175 0.556916 0
M  V30 562 H 49.3014 -1.4146 0.26927 0
M  V30 563 H 51.2544 -3.85477 -1.70251 0
M  V30 564 H 49.9784 -2.63343 -1.93179 0
M  V30 565 H 48.6374 -3.66541 -0.0656164 0
M  V30 566 H 48.2854 -4.4048 -2.42871 0
M  V30 567 H 47.9854 -5.7345 -1.28174 0
M  V30 568 H 49.5094 -5.6908 -2.21314 0
M  V30 569 H 50.9234 -5.73271 0.0579047 0
M  V30 570 H 49.3204 -5.94469 0.820165 0
M  V30 571 H 50.3904 -4.64777 1.3824 0
M  V30 572 N 51.7335 -0.305618 -1.54608 0
M  V30 573 C 52.6965 0.555591 -2.22364 0
M  V30 574 C 53.6965 1.05768 -1.21119 0
M  V30 575 O 54.8865 0.952972 -1.45822 0
M  V30 576 C 52.0185 1.76974 -2.91364 0
M  V30 577 H 53.2115 -0.0364572 -2.99878 0
M  V30 578 H 50.7645 -0.0565007 -1.56198 0
M  V30 579 H 51.4995 2.40151 -2.17941 0
M  V30 580 H 51.2845 1.41732 -3.65588 0
M  V30 581 H 52.7745 2.38148 -3.43038 0
M  V30 582 N 53.2116 1.57565 -0.0334293 0
M  V30 583 C 54.1416 2.13511 0.945265 0
M  V30 584 C 55.1226 1.05231 1.33643 0
M  V30 585 O 56.3076 1.33084 1.41429 0
M  V30 586 C 53.4376 2.6657 2.22616 0
M  V30 587 C 52.3916 3.79676 1.97561 0
M  V30 588 C 51.7176 4.1918 3.31952 0
M  V30 589 C 53.0176 5.0557 1.31135 0
M  V30 590 H 54.7116 2.95538 0.479325 0
M  V30 591 H 52.2576 1.42166 0.229115 0
M  V30 592 H 54.2106 3.04344 2.91466 0
M  V30 593 H 52.9346 1.8171 2.71384 0
M  V30 594 H 51.5936 3.42347 1.31127 0
M  V30 595 H 51.2416 3.31296 3.78487 0
M  V30 596 H 50.9416 4.95402 3.15992 0
M  V30 597 H 52.4656 4.59541 4.02063 0
M  V30 598 H 53.8796 5.40903 1.89992 0
M  V30 599 H 52.2766 5.86818 1.25559 0
M  V30 600 H 53.3466 4.84062 0.284894 0
M  V30 601 N 54.6897 -0.239769 1.55765 0
M  V30 602 C 55.9297 -0.974076 1.79697 0
M  V30 603 C 56.2937 -1.82249 0.604088 0
M  V30 604 O 57.4947 -2.58913 0.722324 0
M  V30 605 C 55.7657 -1.80595 3.08416 0
M  V30 606 S 57.3247 -2.59838 3.53596 0
M  V30 607 H 54.1427 -0.327524 0.63107 0
M  V30 608 H 56.7447 -0.241277 1.94005 0
M  V30 609 H 55.4487 -1.17249 3.93295 0
M  V30 610 H 54.9797 -2.58137 2.96865 0
M  V30 611 H 56.9947 -3.82987 3.15492 0
M  V30 612 N 56.1678 -1.49265 -0.50573 0
M  V30 613 C 57.0978 -1.68495 -1.61653 0
M  V30 614 C 58.0788 -0.53366 -1.61512 0
M  V30 615 O 59.2638 -0.76897 -1.78327 0
M  V30 616 C 56.3938 -1.74709 -3.00157 0
M  V30 617 C 55.3478 -2.89581 -3.15162 0
M  V30 618 C 54.6738 -2.80903 -4.5497 0
M  V30 619 C 55.9738 -4.30578 -2.95634 0
M  V30 620 H 57.6678 -2.61493 -1.45814 0
M  V30 621 H 55.2138 -1.25838 -0.70005 0
M  V30 622 H 57.1668 -1.86748 -3.77761 0
M  V30 623 H 55.8908 -0.783067 -3.17074 0
M  V30 624 H 54.5498 -2.77136 -2.39982 0
M  V30 625 H 54.1978 -1.82419 -4.68756 0
M  V30 626 H 53.8978 -3.57999 -4.65951 0
M  V30 627 H 55.4218 -2.94944 -5.34641 0
M  V30 628 H 56.8358 -4.4373 -3.63011 0
M  V30 629 H 55.2328 -5.0886 -3.18091 0
M  V30 630 H 56.3028 -4.45352 -1.91806 0
M  V30 631 N 57.6459 0.756429 -1.3826 0
M  V30 632 C 58.5759 1.88374 -1.37976 0
M  V30 633 C 59.5569 1.68311 -0.246082 0
M  V30 634 O 60.7419 1.88944 -0.44874 0
M  V30 635 C 57.8719 3.25864 -1.20125 0
M  V30 636 C 56.8259 3.60523 -2.30666 0
M  V30 637 C 56.1519 4.9672 -1.97923 0
M  V30 638 C 57.4519 3.65692 -3.72916 0
M  V30 639 H 59.1459 1.88869 -2.32312 0
M  V30 640 H 56.6919 0.907272 -1.11824 0
M  V30 641 H 58.6449 4.0438 -1.18552 0
M  V30 642 H 57.3689 3.25841 -0.222498 0
M  V30 643 H 56.0279 2.84324 -2.3142 0
M  V30 644 H 55.6759 4.93253 -0.985393 0
M  V30 645 H 55.3759 5.20878 -2.71955 0
M  V30 646 H 56.8999 5.77618 -1.97964 0
M  V30 647 H 58.3139 4.34328 -3.74208 0
M  V30 648 H 56.7109 4.01358 -4.4613 0
M  V30 649 H 57.7809 2.65987 -4.05436 0
M  V30 650 N 59.124 1.23083 0.984299 0
M  V30 651 C 60.352 1.08714 1.76037 0
M  V30 652 C 60.767 -0.361691 1.85303 0
M  V30 653 O 60.124 -1.25034 1.32939 0
M  V30 654 C 60.175 1.70206 3.18923 0
M  V30 655 O 59.896 3.09423 3.10144 0
M  V30 656 C 61.397 1.61227 4.12941 0
M  V30 657 H 58.617 0.380664 0.552572 0
M  V30 658 H 61.161 1.62853 1.23689 0
M  V30 659 H 59.316 1.20109 3.6831 0
M  V30 660 H 59.73 3.39188 4.00065 0
M  V30 661 H 61.204 2.08962 5.10919 0
M  V30 662 H 61.681 0.570375 4.35481 0
M  V30 663 H 62.287 2.10671 3.69456 0
M  V30 664 N 60.6021 -1.18246 1.0419 0
M  V30 665 C 61.8491 -1.88257 0.746017 0
M  V30 666 C 62.1771 -1.80429 -0.726331 0
M  V30 667 O 61.4321 -1.2 -1.54591 0
M  V30 668 C 61.7311 -3.38082 1.15911 0
M  V30 669 C 61.3971 -3.66114 2.63195 0
M  V30 670 C 60.0591 -3.73474 3.03432 0
M  V30 671 C 62.4111 -3.78398 3.5842 0
M  V30 672 C 59.7391 -3.90599 4.37778 0
M  V30 673 C 62.0911 -3.97039 4.92487 0
M  V30 674 C 60.7551 -4.02635 5.32392 0
M  V30 675 H 60.0251 -0.688883 0.272987 0
M  V30 676 H 62.6721 -1.3995 1.30715 0
M  V30 677 H 60.9771 -3.88377 0.516806 0
M  V30 678 H 62.6741 -3.90596 0.907516 0
M  V30 679 H 59.2641 -3.61003 2.3103 0
M  V30 680 H 63.4481 -3.72042 3.28479 0
M  V30 681 H 58.7041 -3.93175 4.68213 0
M  V30 682 H 62.8781 -4.05486 5.66175 0
M  V30 683 H 60.5051 -4.15657 6.36501 0
M  V30 684 N 62.0802 -0.821533 -1.34494 0
M  V30 685 C 63.3082 -0.421884 -2.02553 0
M  V30 686 C 63.7232 0.971745 -1.61872 0
M  V30 687 O 63.0802 1.62864 -0.823496 0
M  V30 688 C 63.1312 -0.51285 -3.57844 0
M  V30 689 O 62.8522 -1.85155 -3.97051 0
M  V30 690 C 64.3532 -0.107921 -4.43169 0
M  V30 691 H 61.5732 -0.169482 -0.649243 0
M  V30 692 H 64.1172 -1.1093 -1.71798 0
M  V30 693 H 62.2722 0.126474 -3.87193 0
M  V30 694 H 62.6862 -1.82482 -4.91732 0
M  V30 695 H 64.1602 -0.222657 -5.51551 0
M  V30 696 H 64.6372 0.948401 -4.28838 0
M  V30 697 H 65.2432 -0.720989 -4.19144 0
M  V30 698 N 63.5583 1.46682 -0.576371 0
M  V30 699 C 64.7833 2.07304 -0.0630475 0
M  V30 700 C 65.2083 1.42329 1.2298 0
M  V30 701 O 64.5663 0.504865 1.74129 0
M  V30 702 C 64.6143 3.60472 0.095895 0
M  V30 703 O 63.7183 3.95927 1.15394 0
M  V30 704 H 63.0593 0.661288 -0.0599463 0
M  V30 705 H 65.5893 1.88417 -0.797511 0
M  V30 706 H 65.5993 4.06865 0.304071 0
M  V30 707 H 64.2743 4.07157 -0.84828 0
M  V30 708 H 62.8513 3.61252 0.924724 0
M  V30 709 N 65.0364 0.313813 1.54444 0
M  V30 710 C 66.2614 -0.296681 2.05267 0
M  V30 711 C 66.6864 -1.45757 1.18897 0
M  V30 712 O 66.0444 -1.80239 0.195886 0
M  V30 713 C 66.0924 -0.71831 3.53373 0
M  V30 714 O 65.1964 -1.82175 3.69981 0
M  V30 715 H 64.5374 -0.0554061 0.661684 0
M  V30 716 H 67.0674 0.459387 1.99376 0
M  V30 717 H 67.0774 -1.00364 3.95463 0
M  V30 718 H 65.7524 0.130821 4.15694 0
M  V30 719 H 64.3294 -1.53598 3.39797 0
M  V30 720 N 66.5145 -1.57545 0.0417849 0
M  V30 721 C 67.4775 -2.09885 -0.92093 0
M  V30 722 C 68.4775 -1.01648 -1.24596 0
M  V30 723 O 69.6675 -1.27759 -1.1842 0
M  V30 724 C 66.7995 -2.57527 -2.23367 0
M  V30 725 H 67.9925 -2.96236 -0.467382 0
M  V30 726 H 65.5455 -1.5493 -0.206467 0
M  V30 727 H 66.2805 -1.74542 -2.73323 0
M  V30 728 H 66.0655 -3.36613 -2.01083 0
M  V30 729 H 67.5555 -2.98201 -2.92346 0
M  V30 730 N 67.9926 0.231505 -1.5589 0
M  V30 731 C 69.2206 0.974505 -1.82513 0
M  V30 732 C 69.6356 1.78344 -0.619591 0
M  V30 733 O 68.9926 1.77792 0.411848 0
M  V30 734 C 69.0436 1.90007 -3.07538 0
M  V30 735 O 68.7646 1.12385 -4.2344 0
M  V30 736 C 70.2656 2.75779 -3.47075 0
M  V30 737 H 67.4856 0.286065 -0.606966 0
M  V30 738 H 70.0296 0.249739 -2.02969 0
M  V30 739 H 68.1846 2.57891 -2.89086 0
M  V30 740 H 68.5986 1.75125 -4.944 0
M  V30 741 H 70.0726 3.36443 -4.37619 0
M  V30 742 H 70.5496 3.47672 -2.68367 0
M  V30 743 H 71.1556 2.13323 -3.67931 0
M  V30 744 N 69.4707 1.49531 0.497807 0
M  V30 745 C 70.4337 1.65916 1.58128 0
M  V30 746 C 71.4337 0.530825 1.51786 0
M  V30 747 O 72.6237 0.797342 1.54881 0
M  V30 748 C 69.7557 1.65951 2.9778 0
M  V30 749 H 70.9487 2.62556 1.44929 0
M  V30 750 H 68.5017 1.38611 0.722275 0
M  V30 751 H 69.2367 0.709065 3.16453 0
M  V30 752 H 69.0217 2.47897 3.03792 0
M  V30 753 H 70.5117 1.80673 3.76493 0
M  V30 754 N 70.9488 -0.749086 1.3866 0
M  V30 755 C 72.1968 -1.50535 1.34847 0
M  V30 756 C 72.5178 -1.94909 -0.0595016 0
M  V30 757 O 71.7878 -1.67973 -1.00806 0
M  V30 758 H 70.3678 -0.558395 0.49619 0
M  V30 759 H 73.0298 -0.890165 1.73384 0
M  V30 760 H 72.1258 -2.39413 2.00219 0
M  V30 761 N 72.4269 -1.23603 -0.977757 0
M  V30 762 C 73.8379 -1.06424 -1.53398 0
M  V30 763 C 74.1889 0.367578 -1.92726 0
M  V30 764 O 73.3139 1.25465 -1.76316 0
M  V30 765 C 73.9089 -1.92568 -2.78753 0
M  V30 766 C 72.4679 -1.79642 -3.30765 0
M  V30 767 C 71.6149 -1.88111 -2.03739 0
M  V30 768 H 74.5659 -1.37227 -0.797152 0
M  V30 769 H 74.5869 -1.45203 -3.51705 0
M  V30 770 H 74.0989 -2.96771 -2.50098 0
M  V30 771 H 72.1999 -0.782325 -3.64294 0
M  V30 772 H 72.3129 -2.63174 -4.00345 0
M  V30 773 H 70.6769 -1.31723 -2.17994 0
M  V30 774 H 71.4599 -2.93875 -1.77461 0
M  V30 775 N 73.905 1.17692 -1.04816 0
M  V30 776 C 74.815 2.25229 -0.65643 0
M  V30 777 C 75.831 1.71018 0.320761 0
M  V30 778 O 77.007 2.00649 0.173805 0
M  V30 779 C 74.072 3.46684 -0.0332629 0
M  V30 780 C 73.133 4.15997 -1.06042 0
M  V30 781 C 72.366 5.31654 -0.466893 0
M  V30 782 O 72.589 5.65777 0.724758 0
M  V30 783 O 71.523 5.89831 -1.1993 0
M  V30 784 H 75.349 2.61016 -1.55255 0
M  V30 785 H 72.934 1.24919 -0.81949 0
M  V30 786 H 74.816 4.20234 0.313256 0
M  V30 787 H 73.491 3.12703 0.836566 0
M  V30 788 H 72.398 3.44482 -1.45886 0
M  V30 789 H 73.731 4.53996 -1.90127 0
M  V30 790 N 75.3831 0.828654 1.34056 0
M  V30 791 C 76.6111 0.43262 2.02326 0
M  V30 792 C 77.0261 -0.963147 1.62385 0
M  V30 793 O 76.3831 -1.62425 0.832121 0
M  V30 794 C 76.4341 0.53182 3.57567 0
M  V30 795 O 76.1551 1.87258 3.96063 0
M  V30 796 C 77.6561 0.131422 4.43105 0
M  V30 797 H 74.8761 0.172923 0.648335 0
M  V30 798 H 77.4201 1.1184 1.71208 0
M  V30 799 H 75.5751 -0.105938 3.87255 0
M  V30 800 H 75.9891 1.85087 4.90758 0
M  V30 801 H 77.4631 0.251904 5.51425 0
M  V30 802 H 77.9401 -0.925645 4.29335 0
M  V30 803 H 78.5461 0.743207 4.18756 0
M  V30 804 N 76.8612 -1.46375 0.584142 0
M  V30 805 C 77.7912 -2.33103 -0.136037 0
M  V30 806 C 78.7722 -1.45431 -0.882255 0
M  V30 807 O 79.9572 -1.74246 -0.857434 0
M  V30 808 C 77.0872 -3.27731 -1.14933 0
M  V30 809 C 76.0412 -4.24855 -0.517862 0
M  V30 810 C 75.3672 -5.09001 -1.63773 0
M  V30 811 C 76.6672 -5.19439 0.545886 0
M  V30 812 H 78.3612 -2.93568 0.588086 0
M  V30 813 H 75.9072 -1.41166 0.284259 0
M  V30 814 H 77.8602 -3.87261 -1.66153 0
M  V30 815 H 76.5842 -2.65377 -1.90375 0
M  V30 816 H 75.2432 -3.6659 -0.0267361 0
M  V30 817 H 74.8912 -4.43031 -2.38185 0
M  V30 818 H 74.5912 -5.74777 -1.22085 0
M  V30 819 H 76.1152 -5.71396 -2.15266 0
M  V30 820 H 77.5292 -5.73177 0.118704 0
M  V30 821 H 75.9262 -5.93566 0.88317 0
M  V30 822 H 76.9962 -4.63285 1.43162 0
M  V30 823 N 78.3393 -0.321999 -1.54275 0
M  V30 824 C 79.5793 0.281657 -2.0245 0
M  V30 825 C 79.9433 1.49468 -1.20513 0
M  V30 826 O 81.1443 2.17109 -1.58484 0
M  V30 827 C 79.4153 0.609014 -3.52173 0
M  V30 828 S 80.9743 1.19255 -4.22284 0
M  V30 829 H 77.7923 0.0852825 -0.705867 0
M  V30 830 H 80.3943 -0.454758 -1.90137 0
M  V30 831 H 79.0983 -0.281982 -4.0943 0
M  V30 832 H 78.6293 1.37567 -3.68563 0
M  V30 833 H 80.6443 2.47944 -4.29812 0
M  V30 834 N 79.8174 1.5752 -0.0501392 0
M  V30 835 C 81.0654 1.9227 0.622642 0
M  V30 836 C 81.3864 0.929083 1.71444 0
M  V30 837 O 80.6564 -0.0262186 1.95882 0
M  V30 838 H 79.2364 0.709739 0.232981 0
M  V30 839 H 81.8984 1.94628 -0.102898 0
M  V30 840 H 80.9944 2.93479 1.06191 0
M  V30 841 N 81.2955 -0.223234 1.56011 0
M  V30 842 C 82.2585 -1.26014 1.9145 0
M  V30 843 C 83.2585 -1.3989 0.792937 0
M  V30 844 O 84.4485 -1.38184 1.0607 0
M  V30 845 C 81.5805 -2.63422 2.16383 0
M  V30 846 H 82.7735 -0.95796 2.84189 0
M  V30 847 H 80.3265 -0.463576 1.49267 0
M  V30 848 H 81.0615 -2.98741 1.2619 0
M  V30 849 H 80.8465 -2.54728 2.98088 0
M  V30 850 H 82.3365 -3.38249 2.44903 0
M  V30 851 N 82.7736 -1.49793 -0.48987 0
M  V30 852 C 83.6836 -1.70036 -1.61632 0
M  V30 853 C 84.6996 -0.583102 -1.63939 0
M  V30 854 O 85.8756 -0.859169 -1.82154 0
M  V30 855 C 82.9406 -1.77277 -2.97949 0
M  V30 856 C 82.0016 -3.00918 -3.06181 0
M  V30 857 C 81.2346 -3.07804 -4.35996 0
M  V30 858 O 81.4576 -2.21982 -5.25433 0
M  V30 859 O 80.3916 -4.00369 -4.49431 0
M  V30 860 H 84.2176 -2.65486 -1.47482 0
M  V30 861 H 81.8026 -1.33666 -0.667362 0
M  V30 862 H 83.6846 -1.84329 -3.78947 0
M  V30 863 H 82.3596 -0.850076 -3.12339 0
M  V30 864 H 81.2666 -2.99377 -2.2433 0
M  V30 865 H 82.5996 -3.92704 -2.96723 0
M  V30 866 N 84.2517 0.741722 -1.39055 0
M  V30 867 C 85.1817 1.869 -1.39966 0
M  V30 868 C 86.1627 1.6804 -0.26392 0
M  V30 869 O 87.3477 1.88458 -0.468755 0
M  V30 870 C 84.4777 3.24572 -1.23574 0
M  V30 871 C 83.4317 3.58056 -2.34477 0
M  V30 872 C 82.7577 4.94593 -2.0318 0
M  V30 873 C 84.0577 3.61716 -3.76774 0
M  V30 874 H 85.7517 1.86395 -2.34302 0
M  V30 875 H 83.2977 0.895361 -1.1278 0
M  V30 876 H 85.2507 4.031 -1.22834 0
M  V30 877 H 83.9747 3.25587 -0.257045 0
M  V30 878 H 82.6337 2.81854 -2.34423 0
M  V30 879 H 82.2817 4.92181 -1.03765 0
M  V30 880 H 81.9817 5.17964 -2.77465 0
M  V30 881 H 83.5057 5.75486 -2.04079 0
M  V30 882 H 84.9197 4.30335 -3.78794 0
M  V30 883 H 83.3167 3.96603 -4.50362 0
M  V30 884 H 84.3867 2.61672 -4.08235 0
M  V30 885 N 85.7298 1.2412 0.971189 0
M  V30 886 C 86.9758 1.08041 1.71625 0
M  V30 887 C 87.3088 -0.380407 1.90438 0
M  V30 888 O 86.5838 -1.28127 1.46334 0
M  V30 889 C 86.8668 1.81682 3.10908 0
M  V30 890 C 86.7198 3.35493 2.99608 0
M  V30 891 C 88.0388 1.58671 4.10501 0
M  V30 892 H 85.1578 0.39388 0.622919 0
M  V30 893 H 87.7998 1.52743 1.13003 0
M  V30 894 H 85.9498 1.43684 3.60953 0
M  V30 895 H 87.6218 3.83068 2.57015 0
M  V30 896 H 85.8648 3.64052 2.35899 0
M  V30 897 H 86.5358 3.82217 3.98264 0
M  V30 898 H 89.0118 1.91719 3.69301 0
M  V30 899 H 87.8878 2.1266 5.06031 0
M  V30 900 H 88.1488 0.524161 4.38982 0
M  V30 901 N 87.2079 -1.17134 1.05439 0
M  V30 902 C 88.4849 -1.83411 0.679699 0
M  V30 903 C 88.8649 -1.9368 -0.839726 0
M  V30 904 O 88.2129 -1.47325 -1.74664 0
M  V30 905 C 88.4229 -3.20918 1.37159 0
M  V30 906 C 89.7709 -3.96796 1.51123 0
M  V30 907 O 90.7949 -3.30406 1.3308 0
M  V30 908 O 89.6539 -5.15778 1.80651 0
M  V30 909 H 86.7479 -0.79154 0.239569 0
M  V30 910 H 89.2939 -1.24411 1.15413 0
M  V30 911 H 88.0659 -3.08428 2.40807 0
M  V30 912 H 87.6889 -3.87587 0.886674 0
M  V30 913 N 88.686 -0.835752 -1.33615 0
M  V30 914 C 89.649 -0.272 -2.2758 0
M  V30 915 C 90.649 0.557487 -1.50827 0
M  V30 916 O 91.839 0.37173 -1.70188 0
M  V30 917 C 88.971 0.617173 -3.35267 0
M  V30 918 H 90.164 -1.10111 -2.78954 0
M  V30 919 H 87.717 -0.608594 -1.43965 0
M  V30 920 H 88.452 1.46884 -2.89129 0
M  V30 921 H 88.237 0.0237066 -3.92093 0
M  V30 922 H 89.727 1.005 -4.05326 0
M  V30 923 N 90.1641 1.46063 -0.591896 0
M  V30 924 C 91.0941 2.33172 0.123673 0
M  V30 925 C 92.0751 1.45897 0.87453 0
M  V30 926 O 93.2601 1.74698 0.848181 0
M  V30 927 C 90.3901 3.28336 1.13194 0
M  V30 928 C 89.3441 4.25124 0.495324 0
M  V30 929 C 88.6701 5.09863 1.61071 0
M  V30 930 C 89.9701 5.19143 -0.573425 0
M  V30 931 H 91.6641 2.93252 -0.603646 0
M  V30 932 H 89.2101 1.41014 -0.291741 0
M  V30 933 H 91.1631 3.88137 1.64097 0
M  V30 934 H 89.8871 2.66383 1.88965 0
M  V30 935 H 88.5461 3.66599 0.00729452 0
M  V30 936 H 88.1941 4.44288 2.35832 0
M  V30 937 H 87.8941 5.75417 1.19035 0
M  V30 938 H 89.4181 5.72529 2.12233 0
M  V30 939 H 90.8321 5.73106 -0.1491 0
M  V30 940 H 89.2291 5.93089 -0.914636 0
M  V30 941 H 90.2991 4.62519 -1.45617 0
M  V30 942 N 91.6422 0.330177 1.54103 0
M  V30 943 C 92.5742 -0.566902 2.22079 0
M  V30 944 C 93.5872 -1.07462 1.22294 0
M  V30 945 O 94.7762 -0.987065 1.48726 0
M  V30 946 C 91.8762 -1.79138 2.87685 0
M  V30 947 C 91.0492 -1.42123 4.13666 0
M  V30 948 C 90.1082 -2.50394 4.62806 0
M  V30 949 O 89.1342 -2.14261 5.27334 0
M  V30 950 N 90.3362 -3.81433 4.37595 0
M  V30 951 H 93.1012 0.0151844 2.99696 0
M  V30 952 H 90.6622 0.153681 1.61169 0
M  V30 953 H 92.6542 -2.50975 3.1748 0
M  V30 954 H 91.2242 -2.28115 2.13734 0
M  V30 955 H 90.4442 -0.534201 3.90564 0
M  V30 956 H 91.7322 -1.14971 4.9564 0
M  V30 957 H 91.1302 -4.13584 3.8596 0
M  V30 958 H 89.6872 -4.4948 4.72029 0
M  V30 959 N 93.1203 -1.57491 0.0584922 0
M  V30 960 C 94.3673 -1.92978 -0.613648 0
M  V30 961 C 94.6953 -0.937461 -1.70417 0
M  V30 962 O 93.9503 0.049078 -1.95638 0
M  V30 963 C 94.2493 -3.3513 -1.24188 0
M  V30 964 C 93.9153 -4.50037 -0.278826 0
M  V30 965 C 92.5773 -4.81198 -0.0138447 0
M  V30 966 C 94.9293 -5.19807 0.380777 0
M  V30 967 C 92.2573 -5.79473 0.918052 0
M  V30 968 C 94.6093 -6.19079 1.30091 0
M  V30 969 C 93.2733 -6.48665 1.57449 0
M  V30 970 H 92.5433 -0.706157 -0.22455 0
M  V30 971 H 95.1903 -1.91082 0.126533 0
M  V30 972 H 93.4953 -3.33429 -2.05749 0
M  V30 973 H 95.1923 -3.59871 -1.769 0
M  V30 974 H 91.7823 -4.25726 -0.495539 0
M  V30 975 H 95.9663 -4.95939 0.189158 0
M  V30 976 H 91.2223 -6.00727 1.1374 0
M  V30 977 H 95.3963 -6.7225 1.81804 0
M  V30 978 H 93.0233 -7.24628 2.29822 0
M  V30 979 N 94.5984 0.214957 -1.56127 0
M  V30 980 C 95.8444 0.939762 -1.79712 0
M  V30 981 C 96.1774 1.83723 -0.629247 0
M  V30 982 O 95.4524 1.90925 0.371197 0
M  V30 983 C 95.7354 1.77306 -3.13424 0
M  V30 984 C 95.5884 0.90164 -4.40671 0
M  V30 985 C 96.9074 2.74956 -3.43638 0
M  V30 986 H 94.0264 0.340214 -0.653776 0
M  V30 987 H 96.6684 0.20824 -1.88855 0
M  V30 988 H 94.8184 2.39673 -3.0576 0
M  V30 989 H 96.4904 0.294206 -4.60361 0
M  V30 990 H 94.7334 0.207368 -4.33304 0
M  V30 991 H 95.4044 1.51923 -5.30682 0
M  V30 992 H 97.8804 2.22724 -3.51473 0
M  V30 993 H 96.7564 3.30358 -4.38355 0
M  V30 994 H 97.0174 3.53023 -2.66134 0
M  V30 995 N 96.0765 1.50051 0.48192 0
M  V30 996 C 97.3165 1.62128 1.24474 0
M  V30 997 C 97.6805 0.309742 1.89485 0
M  V30 998 O 98.8815 0.305854 2.67054 0
M  V30 999 C 97.1525 2.76151 2.26882 0
M  V30 1000 S 98.7115 3.08297 3.12247 0
M  V30 1001 H 95.5295 0.571661 0.422759 0
M  V30 1002 H 98.1315 1.87791 0.54359 0
M  V30 1003 H 96.8355 3.69942 1.77683 0
M  V30 1004 H 96.3665 2.52541 3.0164 0
M  V30 1005 H 98.3815 2.51287 4.27866 0
M  V30 1006 N 97.5546 -0.734337 1.39446 0
M  V30 1007 C 98.8026 -1.49096 1.36436 0
M  V30 1008 C 99.1236 -1.94961 -0.0388255 0
M  V30 1009 O 98.3936 -1.69033 -0.990191 0
M  V30 1010 H 96.9736 -0.5531 0.502085 0
M  V30 1011 H 99.6356 -0.871725 1.74319 0
M  V30 1012 H 98.7316 -2.37276 2.02747 0
M  V30 1013 N 99.0327 -1.24633 -0.964593 0
M  V30 1014 C 100.31 -0.995809 -1.68354 0
M  V30 1015 C 100.69 0.480964 -2.05548 0
M  V30 1016 O 100.038 1.45599 -1.76105 0
M  V30 1017 C 100.248 -1.92177 -2.91323 0
M  V30 1018 C 101.596 -2.19446 -3.63495 0
M  V30 1019 O 102.62 -1.89855 -3.01386 0
M  V30 1020 O 101.479 -2.69714 -4.75307 0
M  V30 1021 H 98.5727 -0.376854 -0.736146 0
M  V30 1022 H 101.119 -1.35745 -1.0184 0
M  V30 1023 H 99.8907 -2.91938 -2.60553 0
M  V30 1024 H 99.5137 -1.56349 -3.65569 0
M  V30 1025 N 100.511 1.16574 -1.06058 0
M  V30 1026 C 101.927 1.3904 -0.783585 0
M  V30 1027 C 102.127 1.91784 0.618145 0
M  V30 1028 O 101.183 2.11511 1.37911 0
M  V30 1029 C 102.496 2.37329 -1.84649 0
M  V30 1030 C 104.044 2.51018 -1.86973 0
M  V30 1031 C 104.519 3.52588 -2.92311 0
M  V30 1032 N 106.01 3.60113 -2.91329 0
M  V30 1033 C 106.745 4.38486 -3.69482 0
M  V30 1034 N 106.241 5.20302 -4.57447 0
M  V30 1035 N 108.034 4.33446 -3.57885 0
M  V30 1036 H 100.185 0.806725 -1.96483 0
M  V30 1037 H 102.448 0.417117 -0.851303 0
M  V30 1038 H 102.154 2.05663 -2.85299 0
M  V30 1039 H 102.028 3.36946 -1.6955 0
M  V30 1040 H 104.415 2.81989 -0.869827 0
M  V30 1041 H 104.496 1.51445 -2.0615 0
M  V30 1042 H 104.14 3.22354 -3.92492 0
M  V30 1043 H 104.07 4.51886 -2.70383 0
M  V30 1044 H 106.561 3.01707 -2.27555 0
M  V30 1045 H 106.874 5.77311 -5.13743 0
M  V30 1046 H 105.219 5.19653 -4.61503 0
M  V30 1047 H 108.41 3.68586 -2.88551 0
M  V30 1048 H 108.583 4.94279 -4.19037 0
M  V30 1049 N 101.989 0.842826 1.3317 0
M  V30 1050 C 103.237 0.439577 1.97262 0
M  V30 1051 C 103.558 -1.00548 1.67078 0
M  V30 1052 O 102.828 -1.70098 0.971779 0
M  V30 1053 H 101.408 0.159558 0.72976 0
M  V30 1054 H 104.07 1.07665 1.62463 0
M  V30 1055 H 103.166 0.574886 3.0676 0
M  V30 1056 N 103.467 -1.45747 0.599634 0
M  V30 1057 C 104.714 -2.02292 0.0917284 0
M  V30 1058 C 105.042 -1.46906 -1.27472 0
M  V30 1059 O 104.297 -0.630652 -1.8526 0
M  V30 1060 C 104.596 -3.57399 -0.00602758 0
M  V30 1061 C 104.262 -4.31902 1.29503 0
M  V30 1062 C 102.924 -4.51974 1.65144 0
M  V30 1063 C 105.276 -4.74551 2.15525 0
M  V30 1064 C 102.604 -5.11949 2.86574 0
M  V30 1065 C 104.956 -5.35868 3.36196 0
M  V30 1066 C 103.62 -5.54165 3.72099 0
M  V30 1067 H 102.89 -0.740239 0.0335658 0
M  V30 1068 H 105.537 -1.7491 0.779661 0
M  V30 1069 H 103.842 -3.84014 -0.777183 0
M  V30 1070 H 105.539 -3.98846 -0.415038 0
M  V30 1071 H 102.129 -4.16588 1.00761 0
M  V30 1072 H 106.313 -4.58784 1.8929 0
M  V30 1073 H 101.569 -5.24305 3.14507 0
M  V30 1074 H 105.743 -5.6787 4.03109 0
M  V30 1075 H 103.37 -6.00406 4.6628 0
M  V30 1076 N 104.945 -0.338344 -1.53925 0
M  V30 1077 C 106.175 0.260919 -2.04946 0
M  V30 1078 C 106.583 1.45174 -1.2133 0
M  V30 1079 O 105.926 1.82122 -0.240262 0
M  V30 1080 C 105.988 0.744596 -3.51704 0
M  V30 1081 C 105.652 -0.325883 -4.55837 0
M  V30 1082 C 106.649 -1.16687 -5.06636 0
M  V30 1083 C 104.334 -0.478317 -5.00017 0
M  V30 1084 C 106.328 -2.14588 -6.00192 0
M  V30 1085 C 104.015 -1.46073 -5.93385 0
M  V30 1086 C 105.013 -2.29297 -6.4336 0
M  V30 1087 O 104.701 -3.25867 -7.34892 0
M  V30 1088 H 104.433 0.0551207 -0.673749 0
M  V30 1089 H 106.987 -0.486984 -1.99544 0
M  V30 1090 H 105.217 1.54366 -3.54553 0
M  V30 1091 H 106.906 1.26383 -3.85723 0
M  V30 1092 H 107.672 -1.06016 -4.73271 0
M  V30 1093 H 103.551 0.159613 -4.60724 0
M  V30 1094 H 107.095 -2.79585 -6.39123 0
M  V30 1095 H 102.992 -1.56802 -6.26166 0
M  V30 1096 H 103.76 -3.21278 -7.5281 0
M  V30 1097 N 106.423 1.57458 -0.0668435 0
M  V30 1098 C 107.67 1.93301 0.603406 0
M  V30 1099 C 107.998 0.946486 1.69917 0
M  V30 1100 O 107.253 -0.0387021 1.95662 0
M  V30 1101 C 107.552 3.35784 1.22409 0
M  V30 1102 C 107.218 4.50179 0.254955 0
M  V30 1103 C 105.88 4.81199 -0.0116746 0
M  V30 1104 C 108.232 5.19598 -0.408338 0
M  V30 1105 C 105.56 5.78978 -0.94877 0
M  V30 1106 C 107.912 6.18381 -1.33372 0
M  V30 1107 C 106.576 6.47821 -1.60887 0
M  V30 1108 H 105.846 0.707338 0.220802 0
M  V30 1109 H 108.493 1.91012 -0.136665 0
M  V30 1110 H 106.798 3.34515 2.03978 0
M  V30 1111 H 108.495 3.60804 1.74989 0
M  V30 1112 H 105.085 4.25983 0.472954 0
M  V30 1113 H 109.269 4.95832 -0.215456 0
M  V30 1114 H 104.525 6.00115 -1.16925 0
M  V30 1115 H 108.699 6.71277 -1.85367 0
M  V30 1116 H 106.326 7.23399 -2.33661 0
M  V30 1117 N 107.901 -0.206675 1.56239 0
M  V30 1118 C 108.849 -1.27571 1.94495 0
M  V30 1119 C 109.843 -1.47737 0.828862 0
M  V30 1120 O 111.049 -1.48735 1.0138 0
M  V30 1121 H 107.424 -0.428029 0.6183 0
M  V30 1122 H 109.395 -0.925961 2.8367 0
M  V30 1123 C 108.144 -2.61568 2.29079 0
M  V30 1124 H 107.467 -2.46863 3.14482 0
M  V30 1125 H 108.907 -3.35144 2.5972 0
M  V30 1126 C 107.366 -3.17695 1.12123 0
M  V30 1127 O 107.896 -3.99801 0.390153 0
M  V30 1128 N 106.102 -2.76276 0.901097 0
M  V30 1129 H 105.649 -2.09613 1.49733 0
M  V30 1130 H 105.607 -3.1417 0.120319 0
M  V30 1131 N 109.379 -1.50304 -0.473955 0
M  V30 1132 C 110.326 -1.68959 -1.57231 0
M  V30 1133 C 111.296 -0.530899 -1.57387 0
M  V30 1134 O 112.481 -0.761133 -1.74961 0
M  V30 1135 C 109.621 -1.7871 -2.95223 0
M  V30 1136 C 108.734 -3.06061 -3.04878 0
M  V30 1137 C 107.869 -3.06626 -4.33767 0
M  V30 1138 C 106.908 -4.28443 -4.37154 0
M  V30 1139 N 106.045 -4.26763 -5.5751 0
M  V30 1140 H 110.885 -2.6273 -1.40631 0
M  V30 1141 H 108.422 -1.30241 -0.683789 0
M  V30 1142 H 110.38 -1.82344 -3.75242 0
M  V30 1143 H 109.01 -0.883806 -3.10465 0
M  V30 1144 H 108.062 -3.11911 -2.17751 0
M  V30 1145 H 109.374 -3.96039 -3.0324 0
M  V30 1146 H 108.528 -3.08973 -5.22131 0
M  V30 1147 H 107.267 -2.14473 -4.3801 0
M  V30 1148 H 106.272 -4.2631 -3.47188 0
M  V30 1149 H 107.497 -5.2182 -4.34605 0
M  V30 1150 H 105.443 -3.37462 -5.62544 0
M  V30 1151 H 105.36 -5.10507 -5.57601 0
M  V30 1152 H 106.628 -4.33253 -6.48006 0
M  V30 1153 N 110.857 0.726932 -1.39834 0
M  V30 1154 C 112.268 1.30558 -1.3346 0
M  V30 1155 C 112.619 1.962 -0.00273003 0
M  V30 1156 O 111.744 1.96826 0.899371 0
M  V30 1157 C 112.339 2.37404 -2.41713 0
M  V30 1158 C 110.898 2.90921 -2.38835 0
M  V30 1159 C 110.045 1.64578 -2.2318 0
M  V30 1160 H 112.996 0.523862 -1.49804 0
M  V30 1161 H 113.017 3.17984 -2.08966 0
M  V30 1162 H 112.529 1.89599 -3.38635 0
M  V30 1163 H 110.63 3.42985 -1.45575 0
M  V30 1164 H 110.743 3.43487 -3.33997 0
M  V30 1165 H 109.107 1.89219 -1.70494 0
M  V30 1166 H 109.89 1.18814 -3.22084 0
M  V30 1167 N 112.336 1.25143 0.95797 0
M  V30 1168 C 113.564 1.12424 1.73691 0
M  V30 1169 C 113.979 -0.322304 1.86029 0
M  V30 1170 O 113.336 -1.22186 1.35561 0
M  V30 1171 C 113.387 1.76933 3.15241 0
M  V30 1172 O 113.108 3.15932 3.03511 0
M  V30 1173 C 114.609 1.6995 4.09429 0
M  V30 1174 H 111.829 0.3923 0.544373 0
M  V30 1175 H 114.373 1.6544 1.20207 0
M  V30 1176 H 112.528 1.27895 3.6568 0
M  V30 1177 H 112.942 3.47598 3.9278 0
M  V30 1178 H 114.416 2.19753 5.06372 0
M  V30 1179 H 114.893 0.662619 4.34173 0
M  V30 1180 H 115.499 2.18461 3.64904 0
M  V30 1181 N 113.814 -1.1601 1.06675 0
M  V30 1182 C 115.062 -1.86264 0.784229 0
M  V30 1183 C 115.383 -1.82328 -0.691488 0
M  V30 1184 O 114.653 -1.25947 -1.50047 0
M  V30 1185 H 113.233 -0.689621 0.28711 0
M  V30 1186 H 115.895 -1.40664 1.34906 0
M  V30 1187 H 114.991 -2.91595 1.11259 0
M  V30 1188 N 115.292 -0.849877 -1.32721 0
M  V30 1189 C 116.522 -0.46408 -2.0132 0
M  V30 1190 C 116.93 0.94246 -1.64056 0
M  V30 1191 O 116.273 1.6257 -0.855379 0
M  V30 1192 C 116.335 -0.517887 -3.5575 0
M  V30 1193 C 115.999 -1.88248 -4.16427 0
M  V30 1194 C 116.996 -2.84726 -4.35002 0
M  V30 1195 C 114.681 -2.17832 -4.52609 0
M  V30 1196 C 116.675 -4.08945 -4.8892 0
M  V30 1197 C 114.362 -3.42304 -5.06232 0
M  V30 1198 C 115.36 -4.37677 -5.24335 0
M  V30 1199 O 115.048 -5.59946 -5.76815 0
M  V30 1200 H 114.78 -0.181327 -0.651227 0
M  V30 1201 H 117.334 -1.14713 -1.70382 0
M  V30 1202 H 115.564 0.221997 -3.86062 0
M  V30 1203 H 117.253 -0.148366 -4.05629 0
M  V30 1204 H 118.019 -2.63174 -4.07388 0
M  V30 1205 H 113.898 -1.44385 -4.37806 0
M  V30 1206 H 117.442 -4.83396 -5.02966 0
M  V30 1207 H 113.339 -3.63709 -5.33278 0
M  V30 1208 H 114.107 -5.61838 -5.95214 0
M  V30 1209 N 116.77 1.45427 -0.607355 0
M  V30 1210 C 118.018 2.01841 -0.102253 0
M  V30 1211 C 118.339 1.47832 1.27164 0
M  V30 1212 O 117.609 0.672497 1.83995 0
M  V30 1213 H 116.189 0.746188 -0.0348101 0
M  V30 1214 H 118.851 1.78229 -0.7887 0
M  V30 1215 H 117.947 3.12057 -0.0518585 0
M  V30 1216 N 118.248 0.346503 1.53744 0
M  V30 1217 C 119.473 -0.253074 2.0585 0
M  V30 1218 C 119.898 -1.43202 1.21962 0
M  V30 1219 O 119.256 -1.79783 0.234073 0
M  V30 1220 C 119.304 -0.643193 3.54817 0
M  V30 1221 O 118.408 -1.74286 3.73762 0
M  V30 1222 H 117.749 -0.0413583 0.662711 0
M  V30 1223 H 120.279 0.501574 1.98357 0
M  V30 1224 H 120.289 -0.919526 3.97503 0
M  V30 1225 H 118.964 0.218966 4.15323 0
M  V30 1226 H 117.541 -1.46356 3.42979 0
M  V30 1227 N 119.726 -1.57421 0.075193 0
M  V30 1228 C 120.951 -1.98364 -0.605515 0
M  V30 1229 C 121.376 -0.953383 -1.62149 0
M  V30 1230 O 120.734 0.0806053 -1.81121 0
M  V30 1231 C 120.782 -3.38332 -1.24756 0
M  V30 1232 O 119.886 -3.37959 -2.36342 0
M  V30 1233 H 119.227 -0.645553 -0.155428 0
M  V30 1234 H 121.757 -2.04044 0.150714 0
M  V30 1235 H 121.767 -3.75591 -1.5936 0
M  V30 1236 H 120.442 -4.12846 -0.503129 0
M  V30 1237 H 119.019 -3.12474 -2.03506 0
M  V30 1238 N 121.204 0.198386 -1.56346 0
M  V30 1239 C 122.429 0.939682 -1.84891 0
M  V30 1240 C 122.854 1.76202 -0.658369 0
M  V30 1241 O 122.212 1.76993 0.392851 0
M  V30 1242 C 122.26 1.81428 -3.11635 0
M  V30 1243 O 121.364 2.91265 -2.91956 0
M  V30 1244 H 120.705 0.264807 -0.608912 0
M  V30 1245 H 123.235 0.204695 -2.03573 0
M  V30 1246 H 123.245 2.21958 -3.42343 0
M  V30 1247 H 121.92 1.21004 -3.97908 0
M  V30 1248 H 120.497 2.54514 -2.72538 0
M  V30 1249 N 122.682 1.50554 0.465978 0
M  V30 1250 C 124.098 1.38093 0.800154 0
M  V30 1251 C 124.298 0.440988 1.96615 0
M  V30 1252 O 123.354 -0.114499 2.5224 0
M  V30 1253 C 124.667 2.79565 1.10742 0
M  V30 1254 C 126.215 2.88516 1.21357 0
M  V30 1255 C 126.69 4.30833 1.55393 0
M  V30 1256 N 128.181 4.33807 1.62375 0
M  V30 1257 C 128.916 5.40927 1.90225 0
M  V30 1258 N 128.412 6.58247 2.16062 0
M  V30 1259 N 130.205 5.28376 1.9177 0
M  V30 1260 H 122.356 2.10237 -0.302366 0
M  V30 1261 H 124.619 0.945203 -0.0727746 0
M  V30 1262 H 124.325 3.50208 0.323661 0
M  V30 1263 H 124.199 3.17125 2.04234 0
M  V30 1264 H 126.586 2.1809 1.98799 0
M  V30 1265 H 126.667 2.54492 0.258321 0
M  V30 1266 H 126.311 5.01799 0.784889 0
M  V30 1267 H 126.241 4.62347 2.52076 0
M  V30 1268 H 128.732 3.49212 1.44427 0
M  V30 1269 H 129.045 7.3569 2.36601 0
M  V30 1270 H 127.39 6.61413 2.13444 0
M  V30 1271 H 130.581 4.35715 1.71085 0
M  V30 1272 H 130.754 6.11944 2.13139 0
M  V30 1273 N 124.16 -0.719506 1.40217 0
M  V30 1274 C 125.576 -1.02707 1.22161 0
M  V30 1275 C 125.776 -2.0128 0.0940557 0
M  V30 1276 O 124.832 -2.46452 -0.549318 0
M  V30 1277 C 126.145 -1.57454 2.56181 0
M  V30 1278 C 127.693 -1.69458 2.63159 0
M  V30 1279 C 128.168 -2.27611 3.97438 0
M  V30 1280 N 129.659 -2.35002 3.99159 0
M  V30 1281 C 130.394 -2.80972 4.99842 0
M  V30 1282 N 129.89 -3.26723 6.10921 0
M  V30 1283 N 131.683 -2.80321 4.87213 0
M  V30 1284 H 123.834 -0.0660492 2.12297 0
M  V30 1285 H 126.097 -0.0919077 0.943534 0
M  V30 1286 H 125.803 -0.924873 3.39321 0
M  V30 1287 H 125.677 -2.56036 2.76993 0
M  V30 1288 H 128.064 -2.33543 1.80393 0
M  V30 1289 H 128.145 -0.694867 2.46181 0
M  V30 1290 H 127.789 -1.6415 4.80643 0
M  V30 1291 H 127.719 -3.2829 4.11744 0
M  V30 1292 H 130.21 -2.02685 3.18947 0
M  V30 1293 H 130.523 -3.60355 6.8364 0
M  V30 1294 H 128.868 -3.24692 6.14492 0
M  V30 1295 H 132.059 -2.43912 3.9953 0
M  V30 1296 H 132.232 -3.15831 5.65822 0
M  V30 1297 N 125.638 -1.25649 -0.95132 0
M  V30 1298 C 126.601 -1.06399 -2.03007 0
M  V30 1299 C 127.601 -0.0156794 -1.60792 0
M  V30 1300 O 128.791 -0.25817 -1.72276 0
M  V30 1301 C 125.923 -0.616184 -3.35285 0
M  V30 1302 H 127.116 -2.02164 -2.21517 0
M  V30 1303 H 124.669 -1.08103 -1.12887 0
M  V30 1304 H 125.404 0.343917 -3.22471 0
M  V30 1305 H 125.189 -1.37301 -3.67275 0
M  V30 1306 H 126.679 -0.503032 -4.14559 0
M  V30 1307 N 127.117 1.15442 -1.07289 0
M  V30 1308 C 128.528 1.67803 -0.818475 0
M  V30 1309 C 128.879 1.8489 0.656507 0
M  V30 1310 O 128.004 1.55176 1.50829 0
M  V30 1311 C 128.599 3.04805 -1.47917 0
M  V30 1312 C 127.158 3.54245 -1.27229 0
M  V30 1313 C 126.305 2.29986 -1.54925 0
M  V30 1314 H 129.256 0.996646 -1.23502 0
M  V30 1315 H 129.277 3.69702 -0.90005 0
M  V30 1316 H 128.789 2.92336 -2.55267 0
M  V30 1317 H 126.89 3.71956 -0.21899 0
M  V30 1318 H 127.003 4.35723 -1.99203 0
M  V30 1319 H 125.367 2.35496 -0.970242 0
M  V30 1320 H 126.15 2.20105 -2.63455 0
M  V30 1321 N 128.595 0.856903 1.32268 0
M  V30 1322 C 129.527 0.260412 2.27716 0
M  V30 1323 C 130.54 -0.569137 1.52528 0
M  V30 1324 O 131.729 -0.39326 1.74114 0
M  V30 1325 C 128.829 -0.650477 3.32599 0
M  V30 1326 C 128.002 0.14372 4.37164 0
M  V30 1327 C 127.061 -0.69328 5.21613 0
M  V30 1328 O 126.087 -0.12599 5.69061 0
M  V30 1329 N 127.289 -2.00761 5.44679 0
M  V30 1330 H 130.054 1.08059 2.79541 0
M  V30 1331 H 127.615 0.717103 1.45152 0
M  V30 1332 H 129.607 -1.21581 3.86005 0
M  V30 1333 H 128.177 -1.37133 2.80915 0
M  V30 1334 H 127.397 0.890486 3.8401 0
M  V30 1335 H 128.685 0.68915 5.04111 0
M  V30 1336 H 128.083 -2.49181 5.07863 0
M  V30 1337 H 126.64 -2.52103 6.01072 0
M  V30 1338 N 130.073 -1.45103 0.615059 0
M  V30 1339 C 131.301 -2.06553 0.11977 0
M  V30 1340 C 131.716 -1.45842 -1.19898 0
M  V30 1341 O 131.073 -0.575325 -1.73194 0
M  V30 1342 C 131.124 -3.61495 -0.018364 0
M  V30 1343 O 130.845 -4.19942 1.24822 0
M  V30 1344 C 132.346 -4.39947 -0.544237 0
M  V30 1345 H 129.566 -0.667096 0.0722739 0
M  V30 1346 H 132.11 -1.8623 0.84491 0
M  V30 1347 H 130.265 -3.81135 -0.693865 0
M  V30 1348 H 130.679 -5.13204 1.0827 0
M  V30 1349 H 132.153 -5.48838 -0.589953 0
M  V30 1350 H 132.63 -4.10255 -1.56805 0
M  V30 1351 H 133.236 -4.25188 0.0974703 0
M  V30 1352 N 131.551 -0.354651 -1.53558 0
M  V30 1353 C 132.799 0.237972 -2.00694 0
M  V30 1354 C 133.12 1.50173 -1.24391 0
M  V30 1355 O 132.39 1.92673 -0.354135 0
M  V30 1356 H 130.97 0.0909256 -0.741446 0
M  V30 1357 H 133.632 -0.478368 -1.88938 0
M  V30 1358 H 132.728 0.47264 -3.085 0
M  V30 1359 N 133.029 1.57378 -0.0835403 0
M  V30 1360 C 134.278 1.93106 0.582498 0
M  V30 1361 C 134.591 0.96651 1.70053 0
M  V30 1362 O 135.797 1.21705 2.42693 0
M  V30 1363 C 134.253 3.43076 1.08751 0
M  V30 1364 C 133.861 4.48 -0.000146404 0
M  V30 1365 C 135.605 3.87785 1.72694 0
M  V30 1366 C 133.512 5.89113 0.519568 0
M  V30 1367 H 132.442 0.720775 0.221358 0
M  V30 1368 H 135.093 1.82821 -0.157675 0
M  V30 1369 H 133.475 3.48474 1.88101 0
M  V30 1370 H 134.649 4.54233 -0.775199 0
M  V30 1371 H 132.964 4.1283 -0.54406 0
M  V30 1372 H 135.561 4.90604 2.1263 0
M  V30 1373 H 135.904 3.25796 2.59158 0
M  V30 1374 H 136.437 3.8504 0.999457 0
M  V30 1375 H 133.176 6.54775 -0.308186 0
M  V30 1376 H 132.696 5.86376 1.26188 0
M  V30 1377 H 134.375 6.39346 0.992237 0
M  V30 1378 N 134.507 -0.190092 1.56449 0
M  V30 1379 C 135.753 -0.911052 1.81184 0
M  V30 1380 C 136.086 -1.82699 0.658396 0
M  V30 1381 O 135.361 -1.91491 -0.340775 0
M  V30 1382 C 135.644 -1.72297 3.16205 0
M  V30 1383 C 135.497 -0.831419 4.42049 0
M  V30 1384 C 136.816 -2.69454 3.47969 0
M  V30 1385 H 133.935 -0.32977 0.659106 0
M  V30 1386 H 136.577 -0.178169 1.89163 0
M  V30 1387 H 134.727 -2.34778 3.09534 0
M  V30 1388 H 136.399 -0.220929 4.60771 0
M  V30 1389 H 134.642 -0.138406 4.33579 0
M  V30 1390 H 135.313 -1.43461 5.33032 0
M  V30 1391 H 137.789 -2.17104 3.54972 0
M  V30 1392 H 136.665 -3.23342 4.43555 0
M  V30 1393 H 136.926 -3.48744 2.71717 0
M  V30 1394 N 135.985 -1.50799 -0.457987 0
M  V30 1395 C 137.262 -1.52968 -1.21902 0
M  V30 1396 C 137.642 -0.281906 -2.09209 0
M  V30 1397 O 136.99 0.734076 -2.16388 0
M  V30 1398 C 137.2 -2.8326 -2.03875 0
M  V30 1399 C 138.548 -3.34425 -2.6162 0
M  V30 1400 O 139.572 -2.8467 -2.14106 0
M  V30 1401 O 138.431 -4.21188 -3.48228 0
M  V30 1402 H 135.525 -0.614129 -0.553873 0
M  V30 1403 H 138.071 -1.63098 -0.468739 0
M  V30 1404 H 136.843 -3.65543 -1.39621 0
M  V30 1405 H 136.466 -2.76195 -2.8601 0
M  V30 1406 N 137.463 0.71206 -1.40597 0
M  V30 1407 C 138.373 1.8562 -1.43466 0
M  V30 1408 C 139.389 1.70902 -0.326902 0
M  V30 1409 O 140.565 1.93105 -0.572043 0
M  V30 1410 C 137.63 3.21451 -1.29884 0
M  V30 1411 C 136.691 3.48398 -2.50833 0
M  V30 1412 C 135.924 4.77749 -2.3789 0
M  V30 1413 O 136.147 5.53089 -1.39459 0
M  V30 1414 O 135.081 5.05111 -3.27333 0
M  V30 1415 H 138.907 1.86155 -2.39958 0
M  V30 1416 H 136.492 0.86295 -1.21957 0
M  V30 1417 H 138.374 4.02579 -1.24531 0
M  V30 1418 H 137.049 3.21636 -0.364997 0
M  V30 1419 H 135.956 2.67265 -2.61763 0
M  V30 1420 H 137.289 3.53014 -3.4299 0
M  V30 1421 N 138.941 1.26152 0.944643 0
M  V30 1422 C 140.181 1.12708 1.70517 0
M  V30 1423 C 140.545 -0.324727 1.89234 0
M  V30 1424 O 141.746 -0.581211 2.62441 0
M  V30 1425 C 140.017 1.8713 3.04495 0
M  V30 1426 S 141.576 1.89698 3.95677 0
M  V30 1427 H 138.394 0.402665 0.585988 0
M  V30 1428 H 140.996 1.59821 1.12594 0
M  V30 1429 H 139.7 2.91833 2.88551 0
M  V30 1430 H 139.231 1.40444 3.67477 0
M  V30 1431 H 141.246 0.981198 4.86402 0
M  V30 1432 N 140.419 -1.14872 1.07899 0
M  V30 1433 C 141.659 -1.8745 0.814965 0
M  V30 1434 C 142.023 -1.80758 -0.64733 0
M  V30 1435 O 143.224 -2.48422 -1.02664 0
M  V30 1436 C 141.495 -3.32286 1.31607 0
M  V30 1437 S 143.054 -4.22537 1.18357 0
M  V30 1438 H 139.872 -0.646833 0.295174 0
M  V30 1439 H 142.474 -1.38555 1.37923 0
M  V30 1440 H 141.178 -3.34703 2.37491 0
M  V30 1441 H 140.709 -3.86238 0.747261 0
M  V30 1442 H 142.724 -4.96044 0.124586 0
M  V30 1443 N 141.898 -0.863906 -1.31812 0
M  V30 1444 C 143.145 -0.471836 -1.96926 0
M  V30 1445 C 143.473 0.974578 -1.68322 0
M  V30 1446 O 142.728 1.7003 -0.968933 0
M  V30 1447 C 143.027 -0.668547 -3.51091 0
M  V30 1448 C 142.693 -2.08683 -3.99703 0
M  V30 1449 C 141.355 -2.47471 -4.12688 0
M  V30 1450 C 143.707 -3.01207 -4.25351 0
M  V30 1451 C 141.035 -3.78037 -4.4867 0
M  V30 1452 C 143.387 -4.31282 -4.62794 0
M  V30 1453 C 142.051 -4.69992 -4.73987 0
M  V30 1454 H 141.321 -0.172657 -0.720604 0
M  V30 1455 H 143.968 -1.09573 -1.57054 0
M  V30 1456 H 142.273 0.0385252 -3.91781 0
M  V30 1457 H 143.97 -0.345102 -3.99512 0
M  V30 1458 H 140.56 -1.77566 -3.90087 0
M  V30 1459 H 144.744 -2.72469 -4.14819 0
M  V30 1460 H 140 -4.078 -4.55532 0
M  V30 1461 H 144.174 -5.03031 -4.81594 0
M  V30 1462 H 141.801 -5.71207 -5.01624 0
M  V30 1463 N 143.376 1.44774 -0.622745 0
M  V30 1464 C 144.792 1.56986 -0.287652 0
M  V30 1465 C 144.992 1.61167 1.20944 0
M  V30 1466 O 144.048 1.55015 1.99315 0
M  V30 1467 C 145.361 2.84551 -0.972188 0
M  V30 1468 C 146.909 2.9825 -0.949536 0
M  V30 1469 C 147.384 4.28605 -1.61437 0
M  V30 1470 N 148.875 4.35399 -1.58057 0
M  V30 1471 C 149.61 5.34964 -2.064 0
M  V30 1472 N 149.106 6.40981 -2.62897 0
M  V30 1473 N 150.899 5.26419 -1.97078 0
M  V30 1474 H 143.05 1.40304 -1.59463 0
M  V30 1475 H 145.313 0.671794 -0.668878 0
M  V30 1476 H 145.019 2.87417 -2.02693 0
M  V30 1477 H 144.893 3.73807 -0.504771 0
M  V30 1478 H 147.28 2.94941 0.0967067 0
M  V30 1479 H 147.361 2.10364 -1.45536 0
M  V30 1480 H 147.005 4.32672 -2.66002 0
M  V30 1481 H 146.935 5.15334 -1.08344 0
M  V30 1482 H 149.426 3.59397 -1.16801 0
M  V30 1483 H 149.739 7.13225 -2.97539 0
M  V30 1484 H 148.084 6.4169 -2.66943 0
M  V30 1485 H 151.275 4.42504 -1.52669 0
M  V30 1486 H 151.448 6.03861 -2.35066 0
M  V30 1487 N 144.854 0.36279 1.53368 0
M  V30 1488 C 146.079 -0.231226 2.06107 0
M  V30 1489 C 146.504 -1.419 1.23474 0
M  V30 1490 O 145.862 -1.79524 0.253128 0
M  V30 1491 C 145.91 -0.605523 3.5548 0
M  V30 1492 O 145.014 -1.70312 3.7559 0
M  V30 1493 H 144.355 -0.034327 0.663112 0
M  V30 1494 H 146.885 0.522584 1.97814 0
M  V30 1495 H 146.895 -0.877314 3.98456 0
M  V30 1496 H 145.57 0.263004 4.15068 0
M  V30 1497 H 144.147 -1.4271 3.44512 0
M  V30 1498 N 146.332 -1.57332 0.0918853 0
M  V30 1499 C 147.572 -1.96117 -0.575988 0
M  V30 1500 C 147.936 -0.972499 -1.65549 0
M  V30 1501 O 149.137 -1.24872 -2.38034 0
M  V30 1502 C 147.408 -3.39407 -1.11973 0
M  V30 1503 S 148.967 -4.00185 -1.79992 0
M  V30 1504 H 145.785 -0.685682 -0.188045 0
M  V30 1505 H 148.387 -1.94755 0.170525 0
M  V30 1506 H 147.091 -4.09131 -0.322504 0
M  V30 1507 H 146.622 -3.44358 -1.90214 0
M  V30 1508 H 148.637 -3.88728 -3.08391 0
M  V30 1509 N 147.81 0.181792 -1.56548 0
M  V30 1510 C 149.087 0.926765 -1.72251 0
M  V30 1511 C 149.467 2.00831 -0.650386 0
M  V30 1512 O 148.815 2.26008 0.336521 0
M  V30 1513 C 149.025 1.50106 -3.1507 0
M  V30 1514 C 150.373 1.97805 -3.75711 0
M  V30 1515 O 151.397 1.59922 -3.18282 0
M  V30 1516 O 150.256 2.67555 -4.76525 0
M  V30 1517 H 147.35 0.435506 -0.703039 0
M  V30 1518 H 149.896 0.170443 -1.68842 0
M  V30 1519 H 148.668 0.72212 -3.84579 0
M  V30 1520 H 148.291 2.32186 -3.22763 0
M  V30 1521 N 149.288 1.51039 0.449983 0
M  V30 1522 C 150.218 1.74379 1.55288 0
M  V30 1523 C 151.199 0.593236 1.5942 0
M  V30 1524 O 152.384 0.834625 1.7535 0
M  V30 1525 C 149.514 1.85728 2.93466 0
M  V30 1526 C 148.468 3.01078 3.04197 0
M  V30 1527 C 147.794 2.97595 4.44231 0
M  V30 1528 C 149.094 4.41254 2.7945 0
M  V30 1529 H 150.788 2.66725 1.36008 0
M  V30 1530 H 148.334 1.2835 0.652864 0
M  V30 1531 H 150.287 2.0064 3.70569 0
M  V30 1532 H 149.011 0.900207 3.13949 0
M  V30 1533 H 147.67 2.85851 2.29531 0
M  V30 1534 H 147.318 1.99691 4.61663 0
M  V30 1535 H 147.018 3.75046 4.52343 0
M  V30 1536 H 148.542 3.14583 5.23326 0
M  V30 1537 H 149.956 4.56897 3.46292 0
M  V30 1538 H 148.353 5.20315 2.98985 0
M  V30 1539 H 149.423 4.52164 1.75144 0
M  V30 1540 N 150.766 -0.704594 1.40972 0
M  V30 1541 C 152.182 -1.01406 1.23244 0
M  V30 1542 C 152.382 -2.01169 0.115399 0
M  V30 1543 O 151.438 -2.47021 -0.523147 0
M  V30 1544 C 152.751 -1.54728 2.57836 0
M  V30 1545 C 154.299 -1.66658 2.64942 0
M  V30 1546 C 154.774 -2.23383 3.9983 0
M  V30 1547 N 156.265 -2.30756 4.01629 0
M  V30 1548 C 157 -2.75655 5.02794 0
M  V30 1549 N 156.496 -3.20225 6.14352 0
M  V30 1550 N 158.289 -2.75138 4.90159 0
M  V30 1551 H 150.44 -0.0435285 2.12355 0
M  V30 1552 H 152.703 -0.0818951 0.944456 0
M  V30 1553 H 152.409 -0.888832 3.40283 0
M  V30 1554 H 152.283 -2.53084 2.79693 0
M  V30 1555 H 154.67 -2.31617 1.8286 0
M  V30 1556 H 154.751 -0.668717 2.46904 0
M  V30 1557 H 154.395 -1.59043 4.82357 0
M  V30 1558 H 154.325 -3.23904 4.15203 0
M  V30 1559 H 156.816 -1.99291 3.21079 0
M  V30 1560 H 157.129 -3.53084 6.87424 0
M  V30 1561 H 155.474 -3.18156 6.17901 0
M  V30 1562 H 158.665 -2.39661 4.02095 0
M  V30 1563 H 158.838 -3.09812 5.6914 0
M  V30 1564 N 152.244 -1.26651 -0.937939 0
M  V30 1565 C 153.66 -1.03834 -1.21205 0
M  V30 1566 C 153.86 0.234502 -2.00131 0
M  V30 1567 O 152.916 0.942767 -2.3424 0
M  V30 1568 C 154.229 -2.27167 -1.97017 0
M  V30 1569 C 155.777 -2.32101 -2.09996 0
M  V30 1570 C 156.252 -3.55136 -2.8921 0
M  V30 1571 N 157.743 -3.55632 -2.96783 0
M  V30 1572 C 158.478 -4.475 -3.58512 0
M  V30 1573 N 157.974 -5.4966 -4.21717 0
M  V30 1574 N 159.767 -4.35145 -3.55816 0
M  V30 1575 H 151.918 -2.08398 -0.410391 0
M  V30 1576 H 154.181 -0.916031 -0.244114 0
M  V30 1577 H 153.887 -3.19765 -1.46434 0
M  V30 1578 H 153.761 -2.31672 -2.97671 0
M  V30 1579 H 156.148 -1.40015 -2.59769 0
M  V30 1580 H 156.229 -2.31605 -1.08594 0
M  V30 1581 H 155.873 -4.47553 -2.40123 0
M  V30 1582 H 155.803 -3.5288 -3.90875 0
M  V30 1583 H 158.294 -2.81743 -2.51852 0
M  V30 1584 H 158.607 -6.15943 -4.66727 0
M  V30 1585 H 156.952 -5.53514 -4.20294 0
M  V30 1586 H 160.143 -3.5455 -3.05634 0
M  V30 1587 H 160.316 -5.06934 -4.03636 0
M  V30 1588 N 153.722 1.14298 -1.08507 0
M  V30 1589 C 154.652 2.21542 -0.737646 0
M  V30 1590 C 155.633 1.67773 0.280377 0
M  V30 1591 O 156.818 1.93616 0.150521 0
M  V30 1592 C 153.948 3.46988 -0.147259 0
M  V30 1593 C 152.902 4.13789 -1.09374 0
M  V30 1594 C 152.228 5.33449 -0.365524 0
M  V30 1595 C 153.528 4.62208 -2.4323 0
M  V30 1596 H 155.222 2.5086 -1.6343 0
M  V30 1597 H 152.768 1.20576 -0.787243 0
M  V30 1598 H 154.721 4.21262 0.107808 0
M  V30 1599 H 153.445 3.17037 0.784538 0
M  V30 1600 H 152.104 3.4147 -1.33393 0
M  V30 1601 H 151.752 4.99759 0.57011 0
M  V30 1602 H 151.452 5.79088 -0.996512 0
M  V30 1603 H 152.976 6.10485 -0.118534 0
M  V30 1604 H 154.39 5.27952 -2.23472 0
M  V30 1605 H 152.787 5.18553 -3.02031 0
M  V30 1606 H 153.857 3.77224 -3.04681 0
M  V30 1607 N 155.201 0.870884 1.31352 0
M  V30 1608 C 156.111 0.330783 2.32256 0
M  V30 1609 C 157.127 -0.559767 1.6475 0
M  V30 1610 O 158.303 -0.456263 1.96164 0
M  V30 1611 C 155.368 -0.458137 3.4366 0
M  V30 1612 C 154.429 0.460482 4.26823 0
M  V30 1613 C 153.662 -0.290881 5.32907 0
M  V30 1614 O 153.885 -1.51885 5.49806 0
M  V30 1615 O 152.819 0.351732 6.00871 0
M  V30 1616 H 156.645 1.16718 2.80376 0
M  V30 1617 H 154.23 0.634285 1.35267 0
M  V30 1618 H 156.112 -0.905343 4.1156 0
M  V30 1619 H 154.787 -1.27106 2.97701 0
M  V30 1620 H 153.694 0.956207 3.61673 0
M  V30 1621 H 155.027 1.23903 4.7635 0
M  V30 1622 N 156.679 -1.44442 0.630414 0
M  V30 1623 C 157.612 -2.27862 -0.124247 0
M  V30 1624 C 158.59 -1.38495 -0.851931 0
M  V30 1625 O 159.774 -1.67935 -0.856166 0
M  V30 1626 C 156.901 -3.17407 -1.18197 0
M  V30 1627 C 155.947 -4.22875 -0.554892 0
M  V30 1628 S 156.78 -5.31485 0.654489 0
M  V30 1629 C 157.936 -6.246 -0.40326 0
M  V30 1630 H 158.169 -2.91519 0.583435 0
M  V30 1631 H 155.702 -1.48618 0.418565 0
M  V30 1632 H 157.66 -3.69549 -1.78728 0
M  V30 1633 H 156.321 -2.52971 -1.86184 0
M  V30 1634 H 155.514 -4.85542 -1.35148 0
M  V30 1635 H 155.116 -3.73992 -0.0242105 0
M  V30 1636 H 157.408 -6.65375 -1.27602 0
M  V30 1637 H 158.351 -7.07851 0.187813 0
M  V30 1638 H 158.759 -5.59775 -0.728837 0
M  V30 1639 N 158.157 -0.370918 -1.53173 0
M  V30 1640 C 159.387 0.217389 -2.05453 0
M  V30 1641 C 159.795 1.42568 -1.24382 0
M  V30 1642 O 159.138 1.81571 -0.278839 0
M  V30 1643 C 159.2 0.669827 -3.53205 0
M  V30 1644 C 158.864 -0.4225 -4.55043 0
M  V30 1645 C 159.861 -1.27407 -5.04047 0
M  V30 1646 C 157.546 -0.58427 -4.9889 0
M  V30 1647 C 159.54 -2.27271 -5.95505 0
M  V30 1648 C 157.227 -1.58627 -5.90153 0
M  V30 1649 C 158.225 -2.42892 -6.38351 0
M  V30 1650 O 157.913 -3.41382 -7.27814 0
M  V30 1651 H 157.645 0.0408171 -0.674767 0
M  V30 1652 H 160.199 -0.5292 -1.98466 0
M  V30 1653 H 158.429 1.4681 -3.57748 0
M  V30 1654 H 160.118 1.18173 -3.88317 0
M  V30 1655 H 160.884 -1.16031 -4.70916 0
M  V30 1656 H 156.763 0.061851 -4.60959 0
M  V30 1657 H 160.307 -2.93079 -6.33049 0
M  V30 1658 H 156.204 -1.70048 -6.22699 0
M  V30 1659 H 156.972 -3.37173 -7.45826 0
M  V30 1660 N 159.635 1.57281 -0.100228 0
M  V30 1661 C 160.875 1.96419 0.56558 0
M  V30 1662 C 161.239 0.981265 1.65031 0
M  V30 1663 O 162.44 1.26133 2.37369 0
M  V30 1664 C 160.711 3.39996 1.10171 0
M  V30 1665 S 162.27 4.01134 1.77867 0
M  V30 1666 H 159.088 0.68667 0.184406 0
M  V30 1667 H 161.69 1.94662 -0.180851 0
M  V30 1668 H 160.394 4.09296 0.300803 0
M  V30 1669 H 159.925 3.45361 1.88385 0
M  V30 1670 H 161.94 3.90358 3.06326 0
M  V30 1671 N 161.113 -0.173488 1.56642 0
M  V30 1672 C 162.076 -1.19859 1.95362 0
M  V30 1673 C 163.076 -1.37296 0.83704 0
M  V30 1674 O 164.266 -1.34739 1.10413 0
M  V30 1675 C 161.398 -2.56405 2.24654 0
M  V30 1676 H 162.591 -0.867062 2.87092 0
M  V30 1677 H 160.144 -0.415853 1.50666 0
M  V30 1678 H 160.879 -2.94576 1.35631 0
M  V30 1679 H 160.664 -2.45115 3.06041 0
M  V30 1680 H 162.154 -3.30287 2.5554 0
M  V30 1681 N 162.591 -1.51276 -0.441967 0
M  V30 1682 C 164.002 -1.56244 -1.02199 0
M  V30 1683 C 164.353 -0.383149 -1.92422 0
M  V30 1684 O 163.478 0.500613 -2.1053 0
M  V30 1685 C 164.073 -2.83162 -1.86024 0
M  V30 1686 C 162.632 -2.90716 -2.39084 0
M  V30 1687 C 161.779 -2.50858 -1.18175 0
M  V30 1688 H 164.73 -1.5712 -0.223416 0
M  V30 1689 H 164.751 -2.66663 -2.71425 0
M  V30 1690 H 164.263 -3.68974 -1.20331 0
M  V30 1691 H 162.364 -2.09323 -3.08244 0
M  V30 1692 H 162.477 -3.94266 -2.72198 0
M  V30 1693 H 160.841 -2.03951 -1.52565 0
M  V30 1694 H 161.624 -3.3901 -0.541001 0
M  V30 1695 N 164.069 0.697108 -1.41344 0
M  V30 1696 C 164.999 1.82353 -1.45841 0
M  V30 1697 C 165.98 1.67115 -0.317247 0
M  V30 1698 O 167.165 1.86871 -0.528474 0
M  V30 1699 C 164.295 3.20476 -1.33838 0
M  V30 1700 C 163.249 3.50415 -2.4575 0
M  V30 1701 C 162.575 4.87878 -2.18813 0
M  V30 1702 C 163.875 3.49546 -3.88091 0
M  V30 1703 H 165.569 1.78846 -2.40113 0
M  V30 1704 H 163.115 0.859028 -1.15571 0
M  V30 1705 H 165.068 3.98988 -1.35596 0
M  V30 1706 H 163.792 3.24604 -0.360498 0
M  V30 1707 H 162.451 2.74253 -2.43271 0
M  V30 1708 H 162.099 4.8863 -1.19371 0
M  V30 1709 H 161.799 5.08875 -2.93803 0
M  V30 1710 H 163.323 5.68702 -2.22284 0
M  V30 1711 H 164.737 4.18066 -3.92293 0
M  V30 1712 H 163.134 3.82075 -4.62751 0
M  V30 1713 H 164.204 2.48552 -4.16353 0
M  V30 1714 N 165.547 1.27147 0.931209 0
M  V30 1715 C 166.494 1.09568 2.03134 0
M  V30 1716 C 167.464 -0.00222433 1.661 0
M  V30 1717 O 168.649 0.159439 1.90133 0
M  V30 1718 C 165.789 0.745231 3.36957 0
M  V30 1719 C 164.902 1.92041 3.86968 0
M  V30 1720 C 164.037 1.51216 5.09222 0
M  V30 1721 C 163.076 2.65504 5.5152 0
M  V30 1722 N 162.213 2.25291 6.64972 0
M  V30 1723 H 167.053 2.03708 2.17502 0
M  V30 1724 H 164.59 1.01411 1.06556 0
M  V30 1725 H 166.548 0.522878 4.1391 0
M  V30 1726 H 165.178 -0.159202 3.22407 0
M  V30 1727 H 164.23 2.25541 3.06326 0
M  V30 1728 H 165.542 2.77787 4.1429 0
M  V30 1729 H 164.696 1.25084 5.93666 0
M  V30 1730 H 163.435 0.625749 4.83669 0
M  V30 1731 H 162.44 2.92354 4.65628 0
M  V30 1732 H 163.665 3.54761 5.7907 0
M  V30 1733 H 161.611 1.39098 6.41083 0
M  V30 1734 H 161.528 3.04577 6.91931 0
M  V30 1735 H 162.796 2.02398 7.52765 0
M  V30 1736 N 167.025 -1.13721 1.09112 0
M  V30 1737 C 168.436 -1.6648 0.845068 0
M  V30 1738 C 168.787 -1.85911 -0.62701 0
M  V30 1739 O 167.912 -1.57556 -1.48341 0
M  V30 1740 C 168.507 -3.02413 1.52748 0
M  V30 1741 C 167.066 -3.52176 1.32849 0
M  V30 1742 C 166.213 -2.27492 1.58564 0
M  V30 1743 H 169.164 -0.976872 1.25072 0
M  V30 1744 H 169.185 -3.68223 0.958752 0
M  V30 1745 H 168.697 -2.88238 2.59885 0
M  V30 1746 H 166.798 -3.7156 0.278137 0
M  V30 1747 H 166.911 -4.32499 2.0611 0
M  V30 1748 H 165.275 -2.33923 1.00758 0
M  V30 1749 H 166.058 -2.15886 2.66924 0
M  V30 1750 N 168.503 -0.877838 -1.30888 0
M  V30 1751 C 169.466 -0.344265 -2.266 0
M  V30 1752 C 170.466 0.50922 -1.52524 0
M  V30 1753 O 171.656 0.317398 -1.71284 0
M  V30 1754 C 168.788 0.510198 -3.37061 0
M  V30 1755 H 169.981 -1.1893 -2.7531 0
M  V30 1756 H 167.534 -0.654088 -1.41956 0
M  V30 1757 H 168.269 1.37612 -2.93655 0
M  V30 1758 H 168.054 -0.101047 -3.9197 0
M  V30 1759 H 169.544 0.875537 -4.08319 0
M  V30 1760 N 169.982 1.44106 -0.638065 0
M  V30 1761 C 170.929 2.30715 0.062701 0
M  V30 1762 C 171.899 1.43882 0.829883 0
M  V30 1763 O 173.084 1.72775 0.809532 0
M  V30 1764 C 170.224 3.29258 1.03358 0
M  V30 1765 C 169.337 4.31192 0.26409 0
M  V30 1766 C 168.472 5.16825 1.22741 0
M  V30 1767 C 167.511 6.10462 0.447475 0
M  V30 1768 N 166.648 6.8877 1.36161 0
M  V30 1769 H 171.488 2.90096 -0.681781 0
M  V30 1770 H 169.025 1.42925 -0.347988 0
M  V30 1771 H 170.983 3.84886 1.60992 0
M  V30 1772 H 169.613 2.71562 1.74511 0
M  V30 1773 H 168.665 3.77981 -0.428295 0
M  V30 1774 H 169.977 4.97619 -0.343052 0
M  V30 1775 H 169.131 5.77004 1.87487 0
M  V30 1776 H 167.87 4.50488 1.86847 0
M  V30 1777 H 166.875 5.49386 -0.213433 0
M  V30 1778 H 168.1 6.78837 -0.188968 0
M  V30 1779 H 166.046 6.25096 1.98975 0
M  V30 1780 H 165.963 7.51663 0.808656 0
M  V30 1781 H 167.231 7.53467 1.99769 0
M  V30 1782 N 171.46 0.379036 1.52974 0
M  V30 1783 C 172.685 -0.209353 2.06341 0
M  V30 1784 C 173.11 -1.40583 1.24972 0
M  V30 1785 O 172.468 -1.79246 0.272155 0
M  V30 1786 C 172.516 -0.567786 3.56102 0
M  V30 1787 O 171.62 -1.66318 3.77375 0
M  V30 1788 H 170.961 -0.0272919 0.663439 0
M  V30 1789 H 173.491 0.543536 1.97248 0
M  V30 1790 H 173.501 -0.835003 3.99364 0
M  V30 1791 H 172.176 0.307013 4.14765 0
M  V30 1792 H 170.753 -1.39048 3.46006 0
M  V30 1793 N 172.938 -1.57226 0.108567 0
M  V30 1794 C 173.901 -2.13602 -0.831082 0
M  V30 1795 C 174.901 -1.06841 -1.20173 0
M  V30 1796 O 176.091 -1.32666 -1.12895 0
M  V30 1797 C 173.223 -2.66769 -2.12243 0
M  V30 1798 H 174.416 -2.97951 -0.341317 0
M  V30 1799 H 171.969 -1.55667 -0.14057 0
M  V30 1800 H 172.704 -1.85977 -2.65675 0
M  V30 1801 H 172.489 -3.44839 -1.86625 0
M  V30 1802 H 173.979 -3.10332 -2.79435 0
M  V30 1803 N 174.416 0.165178 -1.56732 0
M  V30 1804 C 175.832 0.517174 -1.50988 0
M  V30 1805 C 176.032 1.84331 -0.813894 0
M  V30 1806 O 175.088 2.49672 -0.37682 0
M  V30 1807 C 176.401 0.544261 -2.95733 0
M  V30 1808 C 177.949 0.631039 -3.06573 0
M  V30 1809 C 178.424 0.68896 -4.52788 0
M  V30 1810 N 179.915 0.751683 -4.5706 0
M  V30 1811 C 180.65 0.817177 -5.67547 0
M  V30 1812 N 180.146 0.843129 -6.8765 0
M  V30 1813 N 181.939 0.856668 -5.55534 0
M  V30 1814 H 174.09 -0.704318 -2.00382 0
M  V30 1815 H 176.353 -0.254687 -0.913148 0
M  V30 1816 H 176.059 -0.361607 -3.49836 0
M  V30 1817 H 175.933 1.3886 -3.5071 0
M  V30 1818 H 178.32 1.52733 -2.52501 0
M  V30 1819 H 178.401 -0.240095 -2.54671 0
M  V30 1820 H 178.045 -0.2031 -5.07494 0
M  V30 1821 H 177.975 1.57633 -5.02454 0
M  V30 1822 H 180.466 0.739661 -3.70591 0
M  V30 1823 H 180.779 0.894448 -7.67606 0
M  V30 1824 H 179.124 0.811304 -6.90248 0
M  V30 1825 H 182.315 0.833437 -4.60621 0
M  V30 1826 H 182.488 0.904247 -6.4166 0
M  V30 1827 N 175.894 1.51508 0.433938 0
M  V30 1828 C 177.119 1.68443 1.21003 0
M  V30 1829 C 177.544 0.382636 1.84167 0
M  V30 1830 O 176.902 -0.65755 1.68956 0
M  V30 1831 C 176.95 2.80405 2.26727 0
M  V30 1832 O 176.054 2.44245 3.32292 0
M  V30 1833 H 175.395 0.561536 0.354363 0
M  V30 1834 H 177.925 1.9809 0.512024 0
M  V30 1835 H 177.935 3.0459 2.71457 0
M  V30 1836 H 176.61 3.74867 1.80132 0
M  V30 1837 H 175.187 2.30644 2.93015 0
M  V30 1838 N 177.372 -0.689602 1.41712 0
M  V30 1839 C 178.618 -1.45181 1.41599 0
M  V30 1840 C 178.951 -1.94181 0.0270081 0
M  V30 1841 O 178.226 -1.6993 -0.946265 0
M  V30 1842 C 178.509 -2.65945 2.42787 0
M  V30 1843 C 178.362 -2.22672 3.90816 0
M  V30 1844 C 179.681 -3.68149 2.41151 0
M  V30 1845 H 176.8 -0.526576 0.515642 0
M  V30 1846 H 179.442 -0.784947 1.73028 0
M  V30 1847 H 177.592 -3.2284 2.16116 0
M  V30 1848 H 179.264 -1.71058 4.28412 0
M  V30 1849 H 177.507 -1.54394 4.05395 0
M  V30 1850 H 178.178 -3.0935 4.57172 0
M  V30 1851 H 180.654 -3.2094 2.64834 0
M  V30 1852 H 179.53 -4.50248 3.13955 0
M  V30 1853 H 179.791 -4.18259 1.43221 0
M  V30 1854 N 178.85 -1.27639 -0.924453 0
M  V30 1855 C 180.266 -1.05113 -1.20097 0
M  V30 1856 C 180.466 0.213262 -2.00368 0
M  V30 1857 O 179.522 0.91787 -2.35226 0
M  V30 1858 C 180.835 -2.29244 -1.94596 0
M  V30 1859 C 182.383 -2.34315 -2.07522 0
M  V30 1860 C 182.858 -3.58183 -2.85427 0
M  V30 1861 N 184.349 -3.5876 -2.92994 0
M  V30 1862 C 185.084 -4.51277 -3.53746 0
M  V30 1863 N 184.58 -5.54102 -4.15863 0
M  V30 1864 N 186.373 -4.38894 -3.51181 0
M  V30 1865 H 178.524 -2.08821 -0.388264 0
M  V30 1866 H 180.787 -0.918568 -0.234385 0
M  V30 1867 H 180.493 -3.21301 -1.43034 0
M  V30 1868 H 180.367 -2.34816 -2.95197 0
M  V30 1869 H 182.754 -1.42762 -2.58269 0
M  V30 1870 H 182.835 -2.32744 -1.06131 0
M  V30 1871 H 182.479 -4.50074 -2.35363 0
M  V30 1872 H 182.409 -3.57006 -3.8711 0
M  V30 1873 H 184.9 -2.84398 -2.4885 0
M  V30 1874 H 185.213 -6.20859 -4.60168 0
M  V30 1875 H 183.558 -5.57941 -4.144 0
M  V30 1876 H 186.749 -3.57772 -3.01856 0
M  V30 1877 H 186.922 -5.11186 -3.98237 0
M  V30 1878 N 180.328 1.1314 -1.09713 0
M  V30 1879 C 181.291 2.16831 -0.742751 0
M  V30 1880 C 182.291 1.59159 0.229129 0
M  V30 1881 O 183.481 1.74199 0.00693237 0
M  V30 1882 C 180.613 3.40756 -0.0989168 0
M  V30 1883 H 181.806 2.49695 -1.66109 0
M  V30 1884 H 179.359 1.2802 -0.896699 0
M  V30 1885 H 180.094 3.13485 0.830514 0
M  V30 1886 H 179.879 3.83888 -0.798265 0
M  V30 1887 H 181.369 4.17386 0.133524 0
M  V30 1888 N 181.806 0.884767 1.30421 0
M  V30 1889 C 182.738 0.308655 2.27112 0
M  V30 1890 C 183.751 -0.536655 1.53701 0
M  V30 1891 O 184.94 -0.35624 1.74909 0
M  V30 1892 C 182.04 -0.579782 3.33904 0
M  V30 1893 C 181.213 0.236417 4.36761 0
M  V30 1894 C 180.272 -0.582482 5.22966 0
M  V30 1895 O 179.298 -0.00525502 5.692 0
M  V30 1896 N 180.5 -1.89163 5.48815 0
M  V30 1897 H 183.265 1.13964 2.77186 0
M  V30 1898 H 180.826 0.747731 1.43599 0
M  V30 1899 H 182.818 -1.13366 3.88497 0
M  V30 1900 H 181.388 -1.31144 2.83761 0
M  V30 1901 H 180.608 0.97174 3.82035 0
M  V30 1902 H 181.896 0.795924 5.02536 0
M  V30 1903 H 181.294 -2.38352 5.13035 0
M  V30 1904 H 179.851 -2.39296 6.06284 0
M  V30 1905 N 183.284 -1.43765 0.645699 0
M  V30 1906 C 184.7 -1.56509 0.312591 0
M  V30 1907 C 184.9 -1.6307 -1.18365 0
M  V30 1908 O 183.956 -1.58167 -1.96824 0
M  V30 1909 C 185.269 -2.82968 1.01733 0
M  V30 1910 C 186.817 -2.96701 0.996865 0
M  V30 1911 C 187.292 -4.25982 1.68236 0
M  V30 1912 N 188.783 -4.32829 1.64964 0
M  V30 1913 C 189.518 -5.31613 2.14885 0
M  V30 1914 N 189.014 -6.36718 2.73061 0
M  V30 1915 N 190.807 -5.23217 2.05428 0
M  V30 1916 H 182.958 -1.3775 1.61675 0
M  V30 1917 H 185.221 -0.661067 0.679481 0
M  V30 1918 H 184.927 -2.84156 2.0724 0
M  V30 1919 H 184.801 -3.72957 0.564177 0
M  V30 1920 H 187.188 -2.95058 -0.0497719 0
M  V30 1921 H 187.269 -2.08022 1.48865 0
M  V30 1922 H 186.913 -4.28386 2.72852 0
M  V30 1923 H 186.843 -5.13545 1.16529 0
M  V30 1924 H 189.334 -3.57493 1.22503 0
M  V30 1925 H 189.647 -7.08401 3.08848 0
M  V30 1926 H 187.992 -6.37362 2.77118 0
M  V30 1927 H 191.183 -4.40019 1.59689 0
M  V30 1928 H 191.356 -6.00045 2.44643 0
M  V30 1929 N 184.763 -0.387143 -1.52771 0
M  V30 1930 C 185.713 0.465942 -2.23188 0
M  V30 1931 C 186.697 1.03138 -1.23496 0
M  V30 1932 O 187.889 0.957845 -1.48843 0
M  V30 1933 C 185.018 1.59384 -3.04059 0
M  V30 1934 C 184.104 1.04024 -4.11144 0
M  V30 1935 N 184.495 0.211416 -5.05358 0
M  V30 1936 C 182.793 1.31295 -4.26237 0
M  V30 1937 C 183.494 -0.0941698 -5.81624 0
M  V30 1938 N 182.47 0.509207 -5.4121 0
M  V30 1939 H 186.272 -0.173856 -2.93385 0
M  V30 1940 H 183.786 -0.19633 -1.61209 0
M  V30 1941 H 185.783 2.21738 -3.53041 0
M  V30 1942 H 184.443 2.23648 -2.35397 0
M  V30 1943 H 185.454 -0.151151 -5.17679 0
M  V30 1944 H 182.131 1.95679 -3.68803 0
M  V30 1945 H 183.521 -0.765572 -6.67524 0
M  V30 1946 N 186.241 1.57166 -0.116904 0
M  V30 1947 C 187.469 1.99473 0.549383 0
M  V30 1948 C 187.884 0.996541 1.60357 0
M  V30 1949 O 187.241 -0.0108731 1.82497 0
M  V30 1950 C 187.292 3.41788 1.17741 0
M  V30 1951 O 187.013 4.37788 0.165362 0
M  V30 1952 C 188.514 3.99216 1.92722 0
M  V30 1953 H 185.734 0.655009 0.145616 0
M  V30 1954 H 188.278 2.03494 -0.202625 0
M  V30 1955 H 186.433 3.38713 1.88021 0
M  V30 1956 H 186.847 5.20806 0.621403 0
M  V30 1957 H 188.321 5.00882 2.31995 0
M  V30 1958 H 188.798 3.3824 2.80161 0
M  V30 1959 H 189.404 4.0583 1.27209 0
M  V30 1960 N 187.719 -0.156864 1.56817 0
M  V30 1961 C 188.996 -0.899244 1.73704 0
M  V30 1962 C 189.376 -1.99771 0.682254 0
M  V30 1963 O 188.724 -2.26515 -0.300522 0
M  V30 1964 C 188.934 -1.45075 3.17418 0
M  V30 1965 C 190.282 -1.91802 3.7881 0
M  V30 1966 O 191.306 -1.54838 3.20786 0
M  V30 1967 O 190.165 -2.5994 4.80722 0
M  V30 1968 H 187.259 -0.424267 0.709878 0
M  V30 1969 H 189.805 -0.143561 1.69092 0
M  V30 1970 H 188.577 -0.660846 3.85679 0
M  V30 1971 H 188.2 -2.27021 3.26416 0
M  V30 1972 N 189.197 -1.51736 -0.425897 0
M  V30 1973 C 190.13 -1.68574 -1.53812 0
M  V30 1974 C 191.108 -0.53328 -1.53606 0
M  V30 1975 O 192.292 -0.758555 -1.72564 0
M  V30 1976 C 189.419 -1.70977 -2.92377 0
M  V30 1977 C 188.465 -2.92324 -3.10563 0
M  V30 1978 S 189.298 -4.52952 -2.85648 0
M  V30 1979 C 190.454 -4.58117 -4.26474 0
M  V30 1980 H 190.687 -2.62647 -1.39298 0
M  V30 1981 H 188.22 -1.41564 -0.616361 0
M  V30 1982 H 190.178 -1.73047 -3.72243 0
M  V30 1983 H 188.839 -0.78061 -3.04245 0
M  V30 1984 H 188.032 -2.90439 -4.11899 0
M  V30 1985 H 187.634 -2.88055 -2.38538 0
M  V30 1986 H 189.926 -4.34462 -5.19855 0
M  V30 1987 H 190.869 -5.59983 -4.33388 0
M  V30 1988 H 191.277 -3.8732 -4.10662 0
M  V30 1989 N 190.675 0.682077 -1.42076 0
M  V30 1990 C 192.086 1.26246 -1.37546 0
M  V30 1991 C 192.437 1.96092 -0.0651481 0
M  V30 1992 O 191.562 1.99587 0.836297 0
M  V30 1993 C 192.157 2.29594 -2.49143 0
M  V30 1994 C 190.716 2.83175 -2.47969 0
M  V30 1995 C 189.863 1.57395 -2.28303 0
M  V30 1996 H 192.814 0.475937 -1.51395 0
M  V30 1997 H 192.835 3.11175 -2.18976 0
M  V30 1998 H 192.347 1.78729 -3.44496 0
M  V30 1999 H 190.448 3.3818 -1.56413 0
M  V30 2000 H 190.561 3.32687 -3.44755 0
M  V30 2001 H 188.925 1.83699 -1.76428 0
M  V30 2002 H 189.708 1.08507 -3.25701 0
M  V30 2003 N 192.153 1.28127 0.917671 0
M  V30 2004 C 193.1 1.11717 2.0196 0
M  V30 2005 C 194.07 0.0153929 1.66093 0
M  V30 2006 O 195.255 0.179596 1.89953 0
M  V30 2007 C 192.395 0.780927 3.36148 0
M  V30 2008 C 191.508 1.96135 3.84909 0
M  V30 2009 C 190.643 1.56609 5.0759 0
M  V30 2010 C 189.682 2.71339 5.48673 0
M  V30 2011 N 188.819 2.32332 6.62545 0
M  V30 2012 H 193.659 2.06003 2.15329 0
M  V30 2013 H 191.196 1.02535 1.05475 0
M  V30 2014 H 193.154 0.56675 4.13333 0
M  V30 2015 H 191.784 -0.124998 3.22558 0
M  V30 2016 H 190.836 2.28777 3.03916 0
M  V30 2017 H 192.148 2.82165 4.1132 0
M  V30 2018 H 191.302 1.31374 5.92305 0
M  V30 2019 H 190.041 0.677014 4.82978 0
M  V30 2020 H 189.046 2.97276 4.62501 0
M  V30 2021 H 190.271 3.60882 5.75274 0
M  V30 2022 H 188.217 1.45889 6.39572 0
M  V30 2023 H 188.134 3.11899 6.88662 0
M  V30 2024 H 189.402 2.10371 7.50576 0
M  V30 2025 N 193.631 -1.12557 1.10312 0
M  V30 2026 C 194.859 -1.87864 0.866873 0
M  V30 2027 C 195.274 -1.79588 -0.582557 0
M  V30 2028 O 194.631 -1.16887 -1.40156 0
M  V30 2029 C 194.682 -3.37125 1.30496 0
M  V30 2030 O 194.403 -3.45201 2.69755 0
M  V30 2031 C 195.904 -4.29373 1.10243 0
M  V30 2032 H 193.124 -0.594452 0.311236 0
M  V30 2033 H 195.668 -1.42429 1.46745 0
M  V30 2034 H 193.823 -3.80109 0.748081 0
M  V30 2035 H 194.237 -4.38056 2.88457 0
M  V30 2036 H 195.711 -5.32394 1.45811 0
M  V30 2037 H 196.188 -4.39181 0.0409492 0
M  V30 2038 H 196.794 -3.92169 1.64571 0
M  V30 2039 N 195.109 -0.891671 -1.2995 0
M  V30 2040 C 196.041 -0.320695 -2.26945 0
M  V30 2041 C 197.054 0.528497 -1.53983 0
M  V30 2042 O 198.243 0.346959 -1.75096 0
M  V30 2043 C 195.343 0.562066 -3.34207 0
M  V30 2044 C 194.516 -0.259576 -4.36629 0
M  V30 2045 C 193.575 0.554739 -5.23268 0
M  V30 2046 O 192.601 -0.0249311 -5.69195 0
M  V30 2047 N 193.803 1.8625 -5.4981 0
M  V30 2048 H 196.568 -1.15432 -2.76578 0
M  V30 2049 H 194.129 -0.755336 -1.432 0
M  V30 2050 H 196.121 1.11304 -3.89093 0
M  V30 2051 H 194.691 1.29637 -2.84452 0
M  V30 2052 H 193.911 -0.991986 -3.81514 0
M  V30 2053 H 195.199 -0.822564 -5.02107 0
M  V30 2054 H 194.597 2.35628 -5.14292 0
M  V30 2055 H 193.154 2.36078 -6.07545 0
M  V30 2056 N 196.587 1.43421 -0.653314 0
M  V30 2057 C 197.534 2.30768 0.0382271 0
M  V30 2058 C 198.504 1.44755 0.814576 0
M  V30 2059 O 199.689 1.73624 0.791162 0
M  V30 2060 C 196.829 3.30336 0.998599 0
M  V30 2061 C 195.942 4.31448 0.218342 0
M  V30 2062 C 195.077 5.18098 1.17252 0
M  V30 2063 C 194.116 6.10902 0.382702 0
M  V30 2064 N 193.253 6.90176 1.28848 0
M  V30 2065 H 198.093 2.89357 -0.712511 0
M  V30 2066 H 195.63 1.42548 -0.363128 0
M  V30 2067 H 197.588 3.86572 1.56901 0
M  V30 2068 H 196.218 2.73397 1.71621 0
M  V30 2069 H 195.27 3.77506 -0.46836 0
M  V30 2070 H 196.582 4.97227 -0.395812 0
M  V30 2071 H 195.736 5.7896 1.81356 0
M  V30 2072 H 194.475 4.52444 1.82058 0
M  V30 2073 H 193.48 5.49128 -0.27169 0
M  V30 2074 H 194.705 6.78598 -0.260957 0
M  V30 2075 H 192.651 6.27171 1.92334 0
M  V30 2076 H 192.568 7.52478 0.728887 0
M  V30 2077 H 193.836 7.55543 1.91766 0
M  V30 2078 N 198.065 0.39524 1.52563 0
M  V30 2079 C 199.295 -0.184675 2.05773 0
M  V30 2080 C 199.703 -1.40571 1.26635 0
M  V30 2081 O 199.046 -1.81105 0.30769 0
M  V30 2082 C 199.108 -0.613551 3.54226 0
M  V30 2083 C 198.772 0.49484 4.54313 0
M  V30 2084 C 199.769 1.3541 5.01956 0
M  V30 2085 C 197.454 0.663565 4.97898 0
M  V30 2086 C 199.448 2.36716 5.91814 0
M  V30 2087 C 197.135 1.67996 5.87555 0
M  V30 2088 C 198.133 2.53017 6.34406 0
M  V30 2089 O 197.821 3.52917 7.22291 0
M  V30 2090 H 197.553 -0.030077 0.675331 0
M  V30 2091 H 200.107 0.560708 1.97599 0
M  V30 2092 H 198.337 -1.411 3.60038 0
M  V30 2093 H 200.026 -1.11981 3.90148 0
M  V30 2094 H 200.792 1.23509 4.6901 0
M  V30 2095 H 196.671 0.0114913 4.60999 0
M  V30 2096 H 200.215 3.03113 6.28306 0
M  V30 2097 H 196.112 1.79933 6.19915 0
M  V30 2098 H 196.88 3.48996 7.40367 0
M  V30 2099 N 199.544 -1.57102 0.125237 0
M  V30 2100 C 200.476 -2.12726 -0.853237 0
M  V30 2101 C 201.489 -1.07145 -1.22571 0
M  V30 2102 O 202.678 -1.34497 -1.17358 0
M  V30 2103 C 199.778 -2.61709 -2.15317 0
M  V30 2104 C 198.951 -3.91456 -1.95143 0
M  V30 2105 C 198.01 -4.25973 -3.08923 0
M  V30 2106 O 197.036 -4.94682 -2.81564 0
M  V30 2107 N 198.238 -3.83795 -4.35524 0
M  V30 2108 H 201.003 -2.97307 -0.377964 0
M  V30 2109 H 198.564 -1.61792 -0.0590011 0
M  V30 2110 H 200.556 -2.81826 -2.90441 0
M  V30 2111 H 199.126 -1.81974 -2.54174 0
M  V30 2112 H 198.346 -3.80185 -1.04177 0
M  V30 2113 H 199.634 -4.76283 -1.78976 0
M  V30 2114 H 199.032 -3.2839 -4.60626 0
M  V30 2115 H 197.589 -4.09008 -5.07499 0
M  V30 2116 N 201.022 0.148545 -1.56898 0
M  V30 2117 C 202.433 0.708766 -1.72723 0
M  V30 2118 C 202.784 1.81734 -0.739395 0
M  V30 2119 O 201.909 2.16194 0.0943169 0
M  V30 2120 C 202.504 1.29245 -3.13179 0
M  V30 2121 C 201.063 1.79925 -3.30611 0
M  V30 2122 C 200.21 0.687111 -2.68652 0
M  V30 2123 H 203.161 -0.0771063 -1.58513 0
M  V30 2124 H 203.182 2.16224 -3.13093 0
M  V30 2125 H 202.694 0.485382 -3.85053 0
M  V30 2126 H 200.795 2.63203 -2.63732 0
M  V30 2127 H 200.908 1.92903 -4.38549 0
M  V30 2128 H 199.272 1.11335 -2.29078 0
M  V30 2129 H 200.055 -0.108483 -3.43129 0
M  V30 2130 N 202.5 1.5196 0.417844 0
M  V30 2131 C 203.911 1.57851 0.997 0
M  V30 2132 C 204.262 0.413714 1.91789 0
M  V30 2133 O 203.387 -0.467057 2.113 0
M  V30 2134 C 203.982 2.86085 1.81496 0
M  V30 2135 C 202.541 2.94483 2.34428 0
M  V30 2136 C 201.688 2.52707 1.14169 0
M  V30 2137 H 204.639 1.57455 0.198392 0
M  V30 2138 H 204.66 2.70947 2.67148 0
M  V30 2139 H 204.172 3.70842 1.14446 0
M  V30 2140 H 202.273 2.142 3.04875 0
M  V30 2141 H 202.386 3.98546 2.65891 0
M  V30 2142 H 200.75 2.06353 1.49301 0
M  V30 2143 H 201.533 3.39828 0.486999 0
M  V30 2144 N 203.978 -0.674533 1.42435 0
M  V30 2145 C 205.203 -1.46784 1.46524 0
M  V30 2146 C 205.628 -1.87938 0.078066 0
M  V30 2147 O 204.986 -1.56014 -0.92354 0
M  V30 2148 C 205.034 -2.69307 2.39805 0
M  V30 2149 O 204.138 -3.67587 1.86959 0
M  V30 2150 H 203.479 -0.440959 0.496439 0
M  V30 2151 H 206.009 -0.827326 1.87127 0
M  V30 2152 H 206.019 -3.17374 2.56393 0
M  V30 2153 H 204.694 -2.38692 3.40586 0
M  V30 2154 H 203.271 -3.2662 1.79927 0
M  V30 2155 N 205.456 -1.28612 -0.910864 0
M  V30 2156 C 206.684 -1.18792 -1.69399 0
M  V30 2157 C 207.099 0.253039 -1.87097 0
M  V30 2158 O 206.456 1.17071 -1.40003 0
M  V30 2159 C 206.507 -1.88511 -3.08457 0
M  V30 2160 O 206.228 -3.26979 -2.91576 0
M  V30 2161 C 207.729 -1.85029 -4.02839 0
M  V30 2162 H 204.949 -0.412233 -0.529438 0
M  V30 2163 H 207.493 -1.69788 -1.13984 0
M  V30 2164 H 205.648 -1.41379 -3.60681 0
M  V30 2165 H 206.062 -3.61936 -3.79608 0
M  V30 2166 H 207.536 -2.38395 -4.97867 0
M  V30 2167 H 208.013 -0.823303 -4.31414 0
M  V30 2168 H 208.619 -2.31853 -3.56545 0
M  V30 2169 N 206.934 1.1197 -1.10907 0
M  V30 2170 C 207.882 2.19927 -0.757303 0
M  V30 2171 C 208.876 1.67564 0.248747 0
M  V30 2172 O 210.082 1.79672 0.108605 0
M  V30 2173 H 206.457 0.716925 -0.226987 0
M  V30 2174 H 208.428 2.46847 -1.67658 0
M  V30 2175 C 207.177 3.47061 -0.210671 0
M  V30 2176 H 206.5 3.87703 -0.976049 0
M  V30 2177 H 207.94 4.24 -0.0026584 0
M  V30 2178 C 206.399 3.19864 1.05777 0
M  V30 2179 O 206.929 3.40049 2.13845 0
M  V30 2180 N 205.135 2.73636 0.978349 0
M  V30 2181 H 204.682 2.5741 0.0988246 0
M  V30 2182 H 204.64 2.55815 1.82773 0
M  V30 2183 N 208.412 0.89855 1.29475 0
M  V30 2184 C 209.359 0.373819 2.27753 0
M  V30 2185 C 210.329 -0.543444 1.56958 0
M  V30 2186 O 211.514 -0.468934 1.84948 0
M  V30 2187 C 208.654 -0.393648 3.42848 0
M  V30 2188 C 207.767 0.554379 4.28428 0
M  V30 2189 C 206.902 -0.230026 5.30702 0
M  V30 2190 C 205.941 0.712599 6.07938 0
M  V30 2191 N 205.078 -0.0373283 7.0209 0
M  V30 2192 H 209.918 1.21699 2.72017 0
M  V30 2193 H 207.455 0.611456 1.33789 0
M  V30 2194 H 209.413 -0.85466 4.08352 0
M  V30 2195 H 208.043 -1.20128 2.99615 0
M  V30 2196 H 207.095 1.13391 3.63107 0
M  V30 2197 H 208.407 1.27597 4.82204 0
M  V30 2198 H 207.561 -0.752288 6.02018 0
M  V30 2199 H 206.3 -0.984758 4.77654 0
M  V30 2200 H 205.305 1.24637 5.35486 0
M  V30 2201 H 206.53 1.46664 6.63074 0
M  V30 2202 H 204.476 -0.774348 6.51414 0
M  V30 2203 H 204.393 0.624374 7.53417 0
M  V30 2204 H 205.661 -0.539891 7.77628 0
M  V30 2205 N 209.89 -1.43072 0.660911 0
M  V30 2206 C 210.838 -2.32569 -0.0378199 0
M  V30 2207 C 211.832 -1.49046 -0.805092 0
M  V30 2208 O 213.038 -1.65206 -0.714624 0
M  V30 2209 H 209.413 -0.75136 -0.031019 0
M  V30 2210 H 211.384 -2.89216 0.734609 0
M  V30 2211 C 210.133 -3.33453 -0.985124 0
M  V30 2212 H 209.456 -3.97752 -0.404147 0
M  V30 2213 H 210.896 -3.98691 -1.44297 0
M  V30 2214 C 209.355 -2.64642 -2.08486 0
M  V30 2215 O 209.885 -2.46776 -3.16961 0
M  V30 2216 N 208.091 -2.23891 -1.8526 0
M  V30 2217 H 207.638 -2.38621 -0.970449 0
M  V30 2218 H 207.596 -1.78181 -2.59034 0
M  V30 2219 N 211.368 -0.403325 -1.52352 0
M  V30 2220 C 212.596 0.174012 -2.06167 0
M  V30 2221 C 213.011 1.39347 -1.27388 0
M  V30 2222 O 212.368 1.79597 -0.324201 0
M  V30 2223 C 212.419 0.530223 -3.5759 0
M  V30 2224 O 212.14 -0.640806 -4.33388 0
M  V30 2225 C 213.641 1.16192 -4.27802 0
M  V30 2226 H 210.861 0.0229464 -0.670608 0
M  V30 2227 H 213.405 -0.572604 -1.9632 0
M  V30 2228 H 211.56 1.22673 -3.67464 0
M  V30 2229 H 211.974 -0.344851 -5.23365 0
M  V30 2230 H 213.448 1.36141 -5.34948 0
M  V30 2231 H 213.925 2.13335 -3.83907 0
M  V30 2232 H 214.531 0.505775 -4.22282 0
M  V30 2233 N 212.846 1.57033 -0.133567 0
M  V30 2234 C 213.793 2.16074 0.811208 0
M  V30 2235 C 214.763 1.08979 1.2535 0
M  V30 2236 O 215.948 1.36958 1.32843 0
M  V30 2237 C 213.088 2.77595 2.05024 0
M  V30 2238 C 212.201 3.99042 1.65498 0
M  V30 2239 C 211.336 4.48603 2.84479 0
M  V30 2240 C 210.375 5.62547 2.41262 0
M  V30 2241 N 209.512 6.06787 3.53206 0
M  V30 2242 H 214.352 2.96477 0.300906 0
M  V30 2243 H 211.889 1.46462 0.136822 0
M  V30 2244 H 213.847 3.11402 2.77642 0
M  V30 2245 H 212.477 1.99859 2.53488 0
M  V30 2246 H 211.529 3.71302 0.826981 0
M  V30 2247 H 212.841 4.81629 1.29748 0
M  V30 2248 H 211.995 4.84395 3.65303 0
M  V30 2249 H 210.734 3.64995 3.23465 0
M  V30 2250 H 209.739 5.26345 1.58874 0
M  V30 2251 H 210.964 6.47931 2.03377 0
M  V30 2252 H 208.91 5.26117 3.91838 0
M  V30 2253 H 208.827 6.84266 3.21427 0
M  V30 2254 H 210.095 6.4722 4.34427 0
M  V30 2255 N 214.325 -0.140222 1.56975 0
M  V30 2256 C 215.55 -0.870414 1.88251 0
M  V30 2257 C 215.975 -1.73637 0.723312 0
M  V30 2258 O 215.333 -1.78329 -0.32689 0
M  V30 2259 C 215.381 -1.69737 3.18154 0
M  V30 2260 O 214.485 -2.80229 3.02565 0
M  V30 2261 H 213.826 -0.242025 0.61832 0
M  V30 2262 H 216.356 -0.128999 2.04193 0
M  V30 2263 H 216.366 -2.09099 3.50345 0
M  V30 2264 H 215.041 -1.06152 4.02125 0
M  V30 2265 H 213.618 -2.44224 2.81796 0
M  V30 2266 N 215.803 -1.52179 -0.40978 0
M  V30 2267 C 216.735 -1.71703 -1.51825 0
M  V30 2268 C 217.748 -0.597445 -1.51441 0
M  V30 2269 O 218.937 -0.872582 -1.55719 0
M  V30 2270 C 216.037 -1.74171 -2.90719 0
M  V30 2271 C 215.21 -3.03156 -3.15302 0
M  V30 2272 C 214.269 -2.97445 -4.34065 0
M  V30 2273 O 213.295 -3.71352 -4.31377 0
M  V30 2274 N 214.497 -2.15191 -5.39141 0
M  V30 2275 H 217.262 -2.67334 -1.35472 0
M  V30 2276 H 214.823 -1.50409 -0.599069 0
M  V30 2277 H 216.815 -1.67884 -3.68235 0
M  V30 2278 H 215.385 -0.860166 -3.00533 0
M  V30 2279 H 214.605 -3.23097 -2.25836 0
M  V30 2280 H 215.893 -3.88484 -3.28569 0
M  V30 2281 H 215.291 -1.54573 -5.44173 0
M  V30 2282 H 213.848 -2.1476 -6.15403 0
M  V30 2283 N 217.281 0.66697 -1.42791 0
M  V30 2284 C 218.697 0.981027 -1.25889 0
M  V30 2285 C 218.897 2.00793 -0.168695 0
M  V30 2286 O 217.953 2.48321 0.45747 0
M  V30 2287 C 219.266 1.47838 -2.61848 0
M  V30 2288 C 220.814 1.59575 -2.69267 0
M  V30 2289 C 221.289 2.12704 -4.05612 0
M  V30 2290 N 222.78 2.20026 -4.07606 0
M  V30 2291 C 223.515 2.62227 -5.09926 0
M  V30 2292 N 223.011 3.03824 -6.22626 0
M  V30 2293 N 224.804 2.62045 -4.97281 0
M  V30 2294 H 216.955 -0.0127891 -2.12396 0
M  V30 2295 H 219.218 0.0568258 -0.946295 0
M  V30 2296 H 218.924 0.798299 -3.4252 0
M  V30 2297 H 218.798 2.45579 -2.86305 0
M  V30 2298 H 221.185 2.26687 -1.88936 0
M  V30 2299 H 221.266 0.60302 -2.48591 0
M  V30 2300 H 220.91 1.46198 -4.86404 0
M  V30 2301 H 220.84 3.12782 -4.23645 0
M  V30 2302 H 223.331 1.90708 -3.2625 0
M  V30 2303 H 223.644 3.34734 -6.96544 0
M  V30 2304 H 221.989 3.01662 -6.26119 0
M  V30 2305 H 225.18 2.28916 -4.08308 0
M  V30 2306 H 225.353 2.94613 -5.77154 0
M  V30 2307 N 218.759 1.29093 0.90403 0
M  V30 2308 C 220.175 1.07011 1.1841 0
M  V30 2309 C 220.375 -0.181358 2.00682 0
M  V30 2310 O 219.431 -0.880331 2.36657 0
M  V30 2311 C 220.744 2.32311 1.90924 0
M  V30 2312 C 222.292 2.37587 2.03768 0
M  V30 2313 C 222.767 3.62679 2.79693 0
M  V30 2314 N 224.258 3.63376 2.87249 0
M  V30 2315 C 224.993 4.56848 3.46522 0
M  V30 2316 N 224.489 5.60648 4.06996 0
M  V30 2317 N 226.282 4.44426 3.44154 0
M  V30 2318 H 218.433 2.09412 0.354993 0
M  V30 2319 H 220.696 0.922181 0.219742 0
M  V30 2320 H 220.402 3.23536 1.37905 0
M  V30 2321 H 220.276 2.39483 2.91424 0
M  V30 2322 H 222.663 1.46853 2.55965 0
M  V30 2323 H 222.744 2.34403 1.02415 0
M  V30 2324 H 222.388 4.53762 2.28173 0
M  V30 2325 H 222.318 3.63119 3.81381 0
M  V30 2326 H 224.809 2.88321 2.44293 0
M  V30 2327 H 225.122 6.28101 4.50232 0
M  V30 2328 H 223.467 5.64463 4.05471 0
M  V30 2329 H 226.658 3.62529 2.96126 0
M  V30 2330 H 226.831 5.17457 3.90054 0
M  V30 2331 N 220.237 -1.11381 1.11499 0
M  V30 2332 C 221.184 -2.17439 0.773887 0
M  V30 2333 C 222.154 -1.64132 -0.254899 0
M  V30 2334 O 223.339 -1.90345 -0.13168 0
M  V30 2335 C 220.479 -3.44373 0.223917 0
M  V30 2336 C 219.592 -4.1168 1.30934 0
M  V30 2337 C 218.727 -5.263 0.71984 0
M  V30 2338 C 217.766 -5.85493 1.78507 0
M  V30 2339 N 216.903 -6.91507 1.21502 0
M  V30 2340 H 221.743 -2.45962 1.68246 0
M  V30 2341 H 219.28 -1.20744 0.840191 0
M  V30 2342 H 221.238 -4.17047 -0.112921 0
M  V30 2343 H 219.868 -3.16232 -0.647851 0
M  V30 2344 H 218.92 -3.37073 1.76312 0
M  V30 2345 H 220.232 -4.51729 2.11524 0
M  V30 2346 H 219.386 -6.05785 0.333094 0
M  V30 2347 H 218.125 -4.87559 -0.117377 0
M  V30 2348 H 217.13 -5.04686 2.18111 0
M  V30 2349 H 218.355 -6.26301 2.62533 0
M  V30 2350 H 216.301 -6.54783 0.399455 0
M  V30 2351 H 216.218 -7.30214 1.95763 0
M  V30 2352 H 217.486 -7.74795 0.855181 0
M  V30 2353 N 221.715 -0.905404 -1.28997 0
M  V30 2354 C 222.963 -0.533192 -1.9494 0
M  V30 2355 C 223.284 0.924618 -1.71685 0
M  V30 2356 O 222.554 1.65268 -1.05183 0
M  V30 2357 H 221.134 -0.194194 -0.721317 0
M  V30 2358 H 223.796 -1.15294 -1.57141 0
M  V30 2359 H 222.892 -0.72059 -3.03667 0
M  V30 2360 N 223.193 1.4272 -0.668489 0
M  V30 2361 C 224.439 2.02443 -0.197076 0
M  V30 2362 C 224.794 1.51882 1.18109 0
M  V30 2363 O 224.087 0.708618 1.78015 0
M  V30 2364 C 224.281 3.57021 -0.164499 0
M  V30 2365 C 224.11 4.22583 -1.53797 0
M  V30 2366 C 222.88 4.58019 -2.13416 0
M  V30 2367 C 225.078 4.50588 -2.47941 0
M  V30 2368 N 223.06 5.08729 -3.4361 0
M  V30 2369 C 224.431 5.02782 -3.62782 0
M  V30 2370 C 226.486 4.32571 -2.46551 0
M  V30 2371 C 225.189 5.38852 -4.76478 0
M  V30 2372 C 227.215 4.69713 -3.59338 0
M  V30 2373 C 226.577 5.22053 -4.72906 0
M  V30 2374 H 222.676 0.773214 -0.116894 0
M  V30 2375 H 225.26 1.73673 -0.880108 0
M  V30 2376 H 223.431 3.85323 0.487925 0
M  V30 2377 H 225.163 4.03439 0.319207 0
M  V30 2378 H 221.918 4.43566 -1.65969 0
M  V30 2379 H 222.342 5.38521 -4.10273 0
M  V30 2380 H 226.984 3.91365 -1.59978 0
M  V30 2381 H 224.702 5.78993 -5.63731 0
M  V30 2382 H 228.288 4.57454 -3.59482 0
M  V30 2383 H 227.168 5.50258 -5.58736 0
M  V30 2384 N 224.671 0.411399 1.52136 0
M  V30 2385 C 226.082 -0.0576826 1.86611 0
M  V30 2386 C 226.433 -1.44238 1.33003 0
M  V30 2387 O 225.558 -2.05759 0.670228 0
M  V30 2388 C 226.153 -0.111448 3.38617 0
M  V30 2389 C 224.712 -0.52487 3.72723 0
M  V30 2390 C 223.859 0.299176 2.75681 0
M  V30 2391 H 226.81 0.628368 1.4573 0
M  V30 2392 H 226.831 -0.926252 3.69054 0
M  V30 2393 H 226.343 0.896488 3.77604 0
M  V30 2394 H 224.444 -1.53936 3.39315 0
M  V30 2395 H 224.557 -0.267681 4.78352 0
M  V30 2396 H 222.921 -0.238814 2.53578 0
M  V30 2397 H 223.704 1.3055 3.17508 0
M  V30 2398 N 226.149 -1.5696 0.141893 0
M  V30 2399 C 227.096 -2.16501 -0.799737 0
M  V30 2400 C 228.066 -1.09643 -1.24771 0
M  V30 2401 O 229.251 -1.3766 -1.32115 0
M  V30 2402 C 226.391 -2.78679 -2.03549 0
M  V30 2403 C 225.504 -3.99914 -1.6338 0
M  V30 2404 C 224.639 -4.50106 -2.82096 0
M  V30 2405 C 223.678 -5.63819 -2.38275 0
M  V30 2406 N 222.815 -6.08651 -3.49983 0
M  V30 2407 H 227.655 -2.96632 -0.285179 0
M  V30 2408 H 225.192 -1.46533 -0.129053 0
M  V30 2409 H 227.15 -3.1287 -2.75986 0
M  V30 2410 H 225.78 -2.012 -2.52425 0
M  V30 2411 H 224.832 -3.71735 -0.807279 0
M  V30 2412 H 226.144 -4.82311 -1.27192 0
M  V30 2413 H 225.298 -4.86325 -3.62729 0
M  V30 2414 H 224.037 -3.66706 -3.21525 0
M  V30 2415 H 223.042 -5.2718 -1.56081 0
M  V30 2416 H 224.267 -6.49 -1.99938 0
M  V30 2417 H 222.213 -5.28188 -3.89042 0
M  V30 2418 H 222.13 -6.85961 -3.17794 0
M  V30 2419 H 223.398 -6.49515 -4.30988 0
M  V30 2420 N 227.627 0.131896 -1.57047 0
M  V30 2421 C 228.855 0.856461 -1.88341 0
M  V30 2422 C 229.27 1.74042 -0.731757 0
M  V30 2423 O 228.627 1.80051 0.297945 0
M  V30 2424 C 228.678 1.70064 -3.18999 0
M  V30 2425 O 228.399 0.852278 -4.2973 0
M  V30 2426 C 229.9 2.53148 -3.63911 0
M  V30 2427 H 227.12 0.246885 -0.62393 0
M  V30 2428 H 229.664 0.120152 -2.04147 0
M  V30 2429 H 227.819 2.38984 -3.04902 0
M  V30 2430 H 228.233 1.43329 -5.04537 0
M  V30 2431 H 229.707 3.07931 -4.58129 0
M  V30 2432 H 230.184 3.29901 -2.89935 0
M  V30 2433 H 230.79 1.89492 -3.80753 0
M  V30 2434 N 229.106 1.52395 0.401703 0
M  V30 2435 C 230.056 1.72649 1.48917 0
M  V30 2436 C 231.04 0.580436 1.50066 0
M  V30 2437 O 232.232 0.83779 1.55917 0
M  V30 2438 C 229.361 1.88729 2.86769 0
M  V30 2439 C 228.447 3.09228 2.90239 0
M  V30 2440 N 228.838 4.31805 2.63396 0
M  V30 2441 C 227.136 3.09214 3.21408 0
M  V30 2442 C 227.837 5.13326 2.73625 0
M  V30 2443 N 226.813 4.48735 3.06819 0
M  V30 2444 H 230.615 2.65058 1.26971 0
M  V30 2445 H 228.129 1.50528 0.609504 0
M  V30 2446 H 230.126 2.01358 3.65049 0
M  V30 2447 H 228.786 0.975252 3.09708 0
M  V30 2448 H 229.797 4.60154 2.37653 0
M  V30 2449 H 226.474 2.27774 3.49893 0
M  V30 2450 H 227.864 6.21003 2.56524 0
M  V30 2451 N 230.584 -0.659388 1.43143 0
M  V30 2452 C 231.995 -1.24041 1.39537 0
M  V30 2453 C 232.346 -1.95963 0.0963364 0
M  V30 2454 O 231.471 -2.00892 -0.804438 0
M  V30 2455 C 232.066 -2.25601 2.52764 0
M  V30 2456 C 230.625 -2.79195 2.52443 0
M  V30 2457 C 229.772 -1.53743 2.30778 0
M  V30 2458 H 232.723 -0.451792 1.52133 0
M  V30 2459 H 232.744 -3.07651 2.23899 0
M  V30 2460 H 232.256 -1.73226 3.47296 0
M  V30 2461 H 230.357 -3.35649 1.61773 0
M  V30 2462 H 230.47 -3.2716 3.50004 0
M  V30 2463 H 228.834 -1.80869 1.79328 0
M  V30 2464 H 229.617 -1.03312 3.27386 0
M  V30 2465 N 232.062 -1.29571 -0.897171 0
M  V30 2466 C 233.31 -1.17456 -1.64464 0
M  V30 2467 C 233.631 0.273698 -1.9307 0
M  V30 2468 O 232.901 1.18684 -1.55855 0
M  V30 2469 H 231.481 -0.431706 -0.609622 0
M  V30 2470 H 234.143 -1.62531 -1.07562 0
M  V30 2471 H 233.239 -1.72648 -2.59998 0
M  V30 2472 N 233.54 1.10788 -1.12088 0
M  V30 2473 C 234.788 1.8231 -0.872205 0
M  V30 2474 C 235.109 1.85419 0.603709 0
M  V30 2475 O 234.379 1.32963 1.43867 0
M  V30 2476 H 232.959 0.675137 -0.319686 0
M  V30 2477 H 235.621 1.34068 -1.41463 0
M  V30 2478 H 234.717 2.85955 -1.25045 0
M  V30 2479 N 235.018 0.912232 1.28515 0
M  V30 2480 C 235.928 0.404506 2.31086 0
M  V30 2481 C 236.944 -0.50707 1.66448 0
M  V30 2482 O 238.12 -0.393624 1.97516 0
M  V30 2483 C 235.185 -0.348572 3.44943 0
M  V30 2484 C 234.246 0.59604 4.25142 0
M  V30 2485 C 233.479 -0.121194 5.33562 0
M  V30 2486 O 233.702 -1.34317 5.5436 0
M  V30 2487 O 232.636 0.542716 5.99448 0
M  V30 2488 H 236.462 1.25579 2.76521 0
M  V30 2489 H 234.047 0.676998 1.33181 0
M  V30 2490 H 235.929 -0.77395 4.14232 0
M  V30 2491 H 234.604 -1.17571 3.01594 0
M  V30 2492 H 233.511 1.07079 3.58448 0
M  V30 2493 H 234.844 1.38995 4.72167 0
M  V30 2494 N 236.496 -1.42363 0.676048 0
M  V30 2495 C 237.428 -2.29164 -0.0404605 0
M  V30 2496 C 238.441 -1.43747 -0.764245 0
M  V30 2497 O 239.63 -1.67453 -0.618195 0
M  V30 2498 C 236.73 -3.21196 -1.08103 0
M  V30 2499 C 235.903 -4.35273 -0.430812 0
M  V30 2500 C 234.962 -5.08017 -1.37133 0
M  V30 2501 O 233.988 -5.62494 -0.87116 0
M  V30 2502 N 235.19 -5.13647 -2.70456 0
M  V30 2503 H 237.955 -2.91298 0.704667 0
M  V30 2504 H 235.516 -1.53303 0.520559 0
M  V30 2505 H 237.508 -3.66728 -1.71152 0
M  V30 2506 H 236.078 -2.60505 -1.72788 0
M  V30 2507 H 235.298 -3.92372 0.379209 0
M  V30 2508 H 236.586 -5.08795 0.0221132 0
M  V30 2509 H 235.984 -4.708 -3.1363 0
M  V30 2510 H 234.541 -5.62821 -3.28749 0
M  V30 2511 N 237.974 -0.419461 -1.51915 0
M  V30 2512 C 238.921 0.400927 -2.27291 0
M  V30 2513 C 239.891 1.03224 -1.30131 0
M  V30 2514 O 241.076 1.05455 -1.59009 0
M  V30 2515 C 238.216 1.50603 -3.10504 0
M  V30 2516 C 237.329 0.89462 -4.22635 0
M  V30 2517 C 236.464 1.97328 -4.93189 0
M  V30 2518 C 235.503 1.33935 -5.97267 0
M  V30 2519 N 234.64 2.3586 -6.61298 0
M  V30 2520 H 239.48 -0.248251 -2.96964 0
M  V30 2521 H 237.017 -0.134266 -1.46486 0
M  V30 2522 H 238.975 2.15783 -3.57062 0
M  V30 2523 H 237.605 2.12509 -2.42981 0
M  V30 2524 H 236.657 0.131583 -3.80172 0
M  V30 2525 H 237.969 0.391641 -4.9726 0
M  V30 2526 H 237.123 2.70211 -5.43204 0
M  V30 2527 H 235.862 2.50994 -4.18155 0
M  V30 2528 H 234.867 0.595896 -5.46561 0
M  V30 2529 H 236.092 0.810252 -6.74249 0
M  V30 2530 H 234.038 2.88639 -5.89087 0
M  V30 2531 H 233.955 1.90403 -7.3163 0
M  V30 2532 H 235.223 3.08282 -7.15949 0
M  V30 2533 N 239.452 1.56882 -0.150215 0
M  V30 2534 C 240.362 2.20494 0.801222 0
M  V30 2535 C 241.378 1.19019 1.26927 0
M  V30 2536 O 242.554 1.51607 1.32579 0
M  V30 2537 C 239.619 2.81659 2.02161 0
M  V30 2538 C 238.68 3.9827 1.60249 0
M  V30 2539 C 237.913 4.56508 2.7647 0
M  V30 2540 O 238.136 4.13627 3.92771 0
M  V30 2541 O 237.07 5.46719 2.51757 0
M  V30 2542 H 240.896 3.02315 0.289717 0
M  V30 2543 H 238.481 1.49202 0.0769684 0
M  V30 2544 H 240.363 3.20522 2.73576 0
M  V30 2545 H 239.038 2.02849 2.52258 0
M  V30 2546 H 237.945 3.64117 0.858477 0
M  V30 2547 H 239.278 4.78609 1.14864 0
M  V30 2548 N 240.93 -0.123565 1.57115 0
M  V30 2549 C 242.178 -0.83051 1.84247 0
M  V30 2550 C 242.499 -1.80629 0.73471 0
M  V30 2551 O 241.769 -1.94403 -0.241688 0
M  V30 2552 H 240.349 -0.309694 0.679778 0
M  V30 2553 H 243.011 -0.111976 1.94578 0
M  V30 2554 H 242.107 -1.37852 2.80006 0
M  V30 2555 N 242.408 -1.52605 -0.393616 0
M  V30 2556 C 243.636 -1.71294 -1.16043 0
M  V30 2557 C 244.051 -0.429259 -1.83855 0
M  V30 2558 O 243.408 0.595921 -1.72496 0
M  V30 2559 C 243.459 -2.8593 -2.21193 0
M  V30 2560 O 243.18 -4.09329 -1.56146 0
M  V30 2561 C 244.681 -3.16259 -3.10636 0
M  V30 2562 H 241.901 -0.573641 -0.348104 0
M  V30 2563 H 244.445 -1.99234 -0.461092 0
M  V30 2564 H 242.6 -2.60465 -2.86769 0
M  V30 2565 H 243.014 -4.73323 -2.25978 0
M  V30 2566 H 244.488 -3.99946 -3.80456 0
M  V30 2567 H 244.965 -2.3045 -3.73884 0
M  V30 2568 H 245.571 -3.43547 -2.50711 0
M  V30 2569 N 243.887 0.651787 -1.4349 0
M  V30 2570 C 244.797 1.79368 -1.5121 0
M  V30 2571 C 245.813 1.69361 -0.399093 0
M  V30 2572 O 246.989 1.90505 -0.653431 0
M  V30 2573 C 244.054 3.15653 -1.43401 0
M  V30 2574 C 243.115 3.37446 -2.65384 0
M  V30 2575 C 242.348 4.67229 -2.57939 0
M  V30 2576 O 242.571 5.46676 -1.62792 0
M  V30 2577 O 241.505 4.90773 -3.48462 0
M  V30 2578 H 245.331 1.7581 -2.47638 0
M  V30 2579 H 242.916 0.810447 -1.25507 0
M  V30 2580 H 244.798 3.96935 -1.41494 0
M  V30 2581 H 243.473 3.19798 -0.501085 0
M  V30 2582 H 242.38 2.55923 -2.72863 0
M  V30 2583 H 243.713 3.38148 -3.57654 0
M  V30 2584 N 245.365 1.30045 0.890287 0
M  V30 2585 C 246.328 1.15963 1.977 0
M  V30 2586 C 247.328 0.0923777 1.60534 0
M  V30 2587 O 248.518 0.340071 1.70848 0
M  V30 2588 C 245.65 0.775451 3.31963 0
M  V30 2589 H 246.843 2.12502 2.11619 0
M  V30 2590 H 244.396 1.13366 1.07601 0
M  V30 2591 H 245.131 -0.189671 3.23745 0
M  V30 2592 H 244.916 1.54668 3.60306 0
M  V30 2593 H 246.406 0.700251 4.11687 0
M  V30 2594 N 246.843 -1.10192 1.12674 0
M  V30 2595 C 248.068 -1.86523 0.906853 0
M  V30 2596 C 248.493 -1.80221 -0.538711 0
M  V30 2597 O 247.851 -1.17396 -1.38158 0
M  V30 2598 C 247.899 -3.32758 1.3894 0
M  V30 2599 O 247.003 -4.08449 0.5695 0
M  V30 2600 H 246.344 -0.578678 0.325619 0
M  V30 2601 H 248.874 -1.39203 1.49946 0
M  V30 2602 H 248.884 -3.83608 1.38958 0
M  V30 2603 H 247.559 -3.36661 2.44197 0
M  V30 2604 H 246.136 -3.67427 0.636528 0
M  V30 2605 N 248.321 -0.919034 -1.28029 0
M  V30 2606 C 249.251 -0.428581 -2.29533 0
M  V30 2607 C 250.232 0.50659 -1.62381 0
M  V30 2608 O 251.417 0.413195 -1.89753 0
M  V30 2609 C 248.547 0.327388 -3.45753 0
M  V30 2610 C 247.501 -0.519137 -4.2484 0
M  V30 2611 C 246.827 0.365486 -5.33449 0
M  V30 2612 C 248.127 -1.77914 -4.91064 0
M  V30 2613 H 249.821 -1.27687 -2.70807 0
M  V30 2614 H 247.367 -0.615428 -1.30186 0
M  V30 2615 H 249.32 0.681378 -4.15855 0
M  V30 2616 H 248.044 1.20963 -3.03374 0
M  V30 2617 H 246.703 -0.855717 -3.56473 0
M  V30 2618 H 246.351 1.24642 -4.87312 0
M  V30 2619 H 246.051 -0.197356 -5.87268 0
M  V30 2620 H 247.575 0.715241 -6.06396 0
M  V30 2621 H 248.989 -1.49374 -5.53498 0
M  V30 2622 H 247.386 -2.2848 -5.54903 0
M  V30 2623 H 248.456 -2.50382 -4.15255 0
M  V30 2624 N 249.799 1.42003 -0.683588 0
M  V30 2625 C 250.731 2.29183 0.0283068 0
M  V30 2626 C 251.744 1.4415 0.756611 0
M  V30 2627 O 252.933 1.67779 0.609306 0
M  V30 2628 C 250.033 3.21765 1.06398 0
M  V30 2629 C 249.206 4.35496 0.407723 0
M  V30 2630 C 248.265 5.08737 1.34437 0
M  V30 2631 O 247.291 5.62948 0.841318 0
M  V30 2632 N 248.493 5.15075 2.67728 0
M  V30 2633 H 251.258 2.9092 -0.720105 0
M  V30 2634 H 248.819 1.53025 -0.528682 0
M  V30 2635 H 250.811 3.6763 1.69204 0
M  V30 2636 H 249.381 2.61418 1.71404 0
M  V30 2637 H 248.601 3.92165 -0.400012 0
M  V30 2638 H 249.889 5.08776 -0.0490956 0
M  V30 2639 H 249.287 4.72457 3.11129 0
M  V30 2640 H 247.844 5.64556 3.2576 0
M  V30 2641 N 251.277 0.427512 1.51691 0
M  V30 2642 C 252.526 -0.143679 2.01188 0
M  V30 2643 C 252.839 -1.44642 1.31674 0
M  V30 2644 O 254.045 -2.09997 1.72086 0
M  V30 2645 C 252.501 -0.306602 3.58592 0
M  V30 2646 C 252.109 0.985125 4.37035 0
M  V30 2647 C 253.853 -0.832091 4.16265 0
M  V30 2648 C 251.76 0.788382 5.86122 0
M  V30 2649 H 250.69 -0.0574701 0.751807 0
M  V30 2650 H 253.341 0.555772 1.74881 0
M  V30 2651 H 251.723 -1.06882 3.81303 0
M  V30 2652 H 252.897 1.75492 4.26074 0
M  V30 2653 H 251.212 1.4384 3.90767 0
M  V30 2654 H 253.809 -0.995617 5.25349 0
M  V30 2655 H 254.152 -1.81186 3.74803 0
M  V30 2656 H 254.685 -0.128444 3.97593 0
M  V30 2657 H 251.424 1.74025 6.31978 0
M  V30 2658 H 250.944 0.0582143 5.99772 0
M  V30 2659 H 252.623 0.437722 6.45518 0
M  V30 2660 N 252.755 -1.56801 0.158532 0
M  V30 2661 C 254.171 -1.5837 -0.197774 0
M  V30 2662 C 254.371 -1.17334 -1.63814 0
M  V30 2663 O 253.427 -0.878988 -2.36707 0
M  V30 2664 C 254.74 -3.00615 0.0714459 0
M  V30 2665 C 256.288 -3.12999 0.00864533 0
M  V30 2666 C 256.763 -4.57313 0.250685 0
M  V30 2667 N 258.254 -4.62777 0.198014 0
M  V30 2668 C 258.989 -5.72271 0.359642 0
M  V30 2669 N 258.485 -6.90371 0.579625 0
M  V30 2670 N 260.278 -5.61318 0.296438 0
M  V30 2671 H 252.429 -1.81765 1.09887 0
M  V30 2672 H 254.692 -0.841849 0.435884 0
M  V30 2673 H 254.398 -3.35068 1.06874 0
M  V30 2674 H 254.272 -3.71683 -0.642757 0
M  V30 2675 H 256.659 -2.7838 -0.979217 0
M  V30 2676 H 256.74 -2.44393 0.755359 0
M  V30 2677 H 256.384 -4.92639 1.2357 0
M  V30 2678 H 256.314 -5.24061 -0.516489 0
M  V30 2679 H 258.805 -3.77885 0.0331115 0
M  V30 2680 H 259.118 -7.69689 0.69275 0
M  V30 2681 H 257.463 -6.92264 0.616087 0
M  V30 2682 H 260.654 -4.67932 0.125258 0
M  V30 2683 H 260.827 -6.46599 0.425831 0
M  V30 2684 N 254.233 0.115231 -1.57178 0
M  V30 2685 C 255.481 0.820727 -1.84685 0
M  V30 2686 C 255.802 1.80237 -0.744279 0
M  V30 2687 O 255.072 1.94529 0.231375 0
M  V30 2688 H 253.652 0.306084 -0.681411 0
M  V30 2689 H 256.314 0.101656 -1.94635 0
M  V30 2690 H 255.41 1.36366 -2.80733 0
M  V30 2691 N 255.711 1.52812 0.385517 0
M  V30 2692 C 256.658 1.77838 1.47113 0
M  V30 2693 C 257.628 0.621757 1.54024 0
M  V30 2694 O 258.813 0.861846 1.70226 0
M  V30 2695 C 255.953 1.95618 2.84302 0
M  V30 2696 C 255.066 3.23316 2.86515 0
M  V30 2697 C 254.201 3.31394 4.15152 0
M  V30 2698 C 253.24 4.53201 4.1143 0
M  V30 2699 N 252.377 4.58542 5.3168 0
M  V30 2700 H 257.217 2.70482 1.25073 0
M  V30 2701 H 254.754 1.34006 0.606692 0
M  V30 2702 H 256.712 2.03912 3.63972 0
M  V30 2703 H 255.342 1.06331 3.04784 0
M  V30 2704 H 254.394 3.24076 1.99195 0
M  V30 2705 H 255.706 4.13045 2.79634 0
M  V30 2706 H 254.86 3.3889 5.03228 0
M  V30 2707 H 253.599 2.39645 4.24761 0
M  V30 2708 H 252.604 4.45827 3.21742 0
M  V30 2709 H 253.829 5.46271 4.03442 0
M  V30 2710 H 251.775 3.69686 5.41912 0
M  V30 2711 H 251.692 5.42148 5.26889 0
M  V30 2712 H 252.96 4.70296 6.21644 0
M  V30 2713 N 257.189 -0.644168 1.43834 0
M  V30 2714 C 258.136 -1.75671 1.49694 0
M  V30 2715 C 259.106 -1.6246 0.345809 0
M  V30 2716 O 260.291 -1.82573 0.554234 0
M  V30 2717 C 257.431 -3.13867 1.43463 0
M  V30 2718 C 256.544 -3.38147 2.6885 0
M  V30 2719 C 255.679 -4.66241 2.54544 0
M  V30 2720 C 254.718 -4.83657 3.75157 0
M  V30 2721 N 253.855 -6.03016 3.59605 0
M  V30 2722 H 258.695 -1.69998 2.44754 0
M  V30 2723 H 256.232 -0.829458 1.21484 0
M  V30 2724 H 258.19 -3.9377 1.37843 0
M  V30 2725 H 256.82 -3.18588 0.519783 0
M  V30 2726 H 255.872 -2.52276 2.84712 0
M  V30 2727 H 257.184 -3.46899 3.58417 0
M  V30 2728 H 256.338 -5.54285 2.46683 0
M  V30 2729 H 255.077 -4.59826 1.62516 0
M  V30 2730 H 254.082 -3.94046 3.83416 0
M  V30 2731 H 255.307 -4.91896 4.68204 0
M  V30 2732 H 253.253 -5.97715 2.7032 0
M  V30 2733 H 253.17 -6.12766 4.42779 0
M  V30 2734 H 254.438 -6.93657 3.55613 0
M  V30 2735 N 258.668 -1.30515 -0.883378 0
M  V30 2736 C 259.615 -1.17032 -1.98927 0
M  V30 2737 C 260.585 -0.0594241 -1.65994 0
M  V30 2738 O 261.77 -0.229895 -1.8941 0
M  V30 2739 C 258.91 -0.869777 -3.33959 0
M  V30 2740 C 258.023 -2.06271 -3.79574 0
M  V30 2741 C 257.158 -1.70011 -5.03259 0
M  V30 2742 C 256.197 -2.8579 -5.41286 0
M  V30 2743 N 255.334 -2.49816 -6.56153 0
M  V30 2744 H 260.174 -2.1164 -2.09792 0
M  V30 2745 H 257.711 -1.05296 -1.02719 0
M  V30 2746 H 259.669 -0.676138 -4.11685 0
M  V30 2747 H 258.299 0.0394332 -3.22776 0
M  V30 2748 H 257.351 -2.36755 -2.97744 0
M  V30 2749 H 258.663 -2.92971 -4.03694 0
M  V30 2750 H 257.817 -1.47032 -5.88614 0
M  V30 2751 H 256.556 -0.804829 -4.81013 0
M  V30 2752 H 255.561 -3.09434 -4.54456 0
M  V30 2753 H 256.786 -3.76008 -5.65504 0
M  V30 2754 H 254.732 -1.62795 -6.35479 0
M  V30 2755 H 254.649 -3.30048 -6.8015 0
M  V30 2756 H 255.917 -2.30197 -7.44735 0
M  V30 2757 N 260.146 1.09593 -1.13257 0
M  V30 2758 C 261.056 2.19739 -0.821691 0
M  V30 2759 C 262.072 1.72926 0.19302 0
M  V30 2760 O 263.248 2.01385 0.0244895 0
M  V30 2761 C 260.313 3.45482 -0.290333 0
M  V30 2762 C 259.374 4.06985 -1.36607 0
M  V30 2763 C 258.607 5.26726 -0.859975 0
M  V30 2764 O 258.83 5.69594 0.303082 0
M  V30 2765 O 257.764 5.7931 -1.63351 0
M  V30 2766 H 261.59 2.48781 -1.74189 0
M  V30 2767 H 259.175 1.18496 -0.909894 0
M  V30 2768 H 261.057 4.214 0.000674022 0
M  V30 2769 H 259.732 3.18047 0.602306 0
M  V30 2770 H 258.639 3.32712 -1.71037 0
M  V30 2771 H 259.972 4.38643 -2.23279 0
M  V30 2772 N 261.624 0.925811 1.2754 0
M  V30 2773 C 262.556 0.380753 2.26015 0
M  V30 2774 C 263.569 -0.487485 1.5533 0
M  V30 2775 O 264.758 -0.300413 1.75954 0
M  V30 2776 C 261.858 -0.473259 3.35579 0
M  V30 2777 C 261.031 0.375249 4.35787 0
M  V30 2778 C 260.09 -0.415809 5.24555 0
M  V30 2779 O 259.116 0.175834 5.68928 0
M  V30 2780 N 260.318 -1.71607 5.54555 0
M  V30 2781 H 263.083 1.22725 2.73421 0
M  V30 2782 H 260.644 0.793037 1.41147 0
M  V30 2783 H 262.636 -1.00949 3.91907 0
M  V30 2784 H 261.206 -1.2205 2.87789 0
M  V30 2785 H 260.426 1.09279 3.7875 0
M  V30 2786 H 261.714 0.955399 4.99749 0
M  V30 2787 H 261.112 -2.2191 5.20358 0
M  V30 2788 H 259.669 -2.19887 6.1359 0
M  V30 2789 N 263.102 -1.41638 0.69111 0
M  V30 2790 C 264.518 -1.55435 0.362224 0
M  V30 2791 C 264.718 -1.66754 -1.13117 0
M  V30 2792 O 263.774 -1.64348 -1.91692 0
M  V30 2793 C 265.087 -2.79588 1.10684 0
M  V30 2794 C 266.635 -2.9338 1.09075 0
M  V30 2795 C 267.11 -4.20414 1.81703 0
M  V30 2796 N 268.601 -4.27362 1.7865 0
M  V30 2797 C 269.336 -5.24507 2.31689 0
M  V30 2798 N 268.832 -6.27708 2.93179 0
M  V30 2799 N 270.625 -5.16416 2.2197 0
M  V30 2800 H 262.776 -1.32536 1.65976 0
M  V30 2801 H 265.039 -0.639115 0.700168 0
M  V30 2802 H 264.745 -2.77419 2.16175 0
M  V30 2803 H 264.619 -3.70973 0.682545 0
M  V30 2804 H 267.006 -2.95067 0.0441238 0
M  V30 2805 H 267.087 -2.0318 1.55407 0
M  V30 2806 H 266.731 -4.19488 2.86343 0
M  V30 2807 H 266.661 -5.09578 1.32808 0
M  V30 2808 H 269.152 -3.53415 1.33815 0
M  V30 2809 H 269.465 -6.98217 3.31229 0
M  V30 2810 H 267.81 -6.28223 2.97255 0
M  V30 2811 H 271.001 -4.34716 1.73607 0
M  V30 2812 H 271.174 -5.91958 2.63609 0
M  V30 2813 N 264.58 -0.43555 -1.51462 0
M  V30 2814 C 265.996 -0.0877501 -1.59359 0
M  V30 2815 C 266.196 1.4027 -1.4466 0
M  V30 2816 O 265.252 2.17243 -1.28693 0
M  V30 2817 C 266.565 -0.606264 -2.94525 0
M  V30 2818 C 268.113 -0.566548 -3.0783 0
M  V30 2819 C 268.588 -1.06201 -4.45517 0
M  V30 2820 N 270.079 -1.01992 -4.51832 0
M  V30 2821 C 270.814 -1.37417 -5.5669 0
M  V30 2822 N 270.31 -1.80119 -6.68976 0
M  V30 2823 N 272.103 -1.29245 -5.47039 0
M  V30 2824 H 264.254 -1.40533 -1.59261 0
M  V30 2825 H 266.517 -0.578992 -0.750648 0
M  V30 2826 H 266.223 -1.64901 -3.10645 0
M  V30 2827 H 266.097 -0.0302097 -3.77188 0
M  V30 2828 H 268.484 0.467208 -2.91378 0
M  V30 2829 H 268.565 -1.17898 -2.2701 0
M  V30 2830 H 268.209 -2.09422 -4.62715 0
M  V30 2831 H 268.139 -0.426127 -5.24873 0
M  V30 2832 H 270.63 -0.706308 -3.71241 0
M  V30 2833 H 270.943 -2.05392 -7.45006 0
M  V30 2834 H 269.288 -1.84044 -6.70189 0
M  V30 2835 H 272.479 -0.957522 -4.58202 0
M  V30 2836 H 272.652 -1.57182 -6.28648 0
M  V30 2837 N 266.058 1.56714 -0.166846 0
M  V30 2838 C 266.968 2.21331 0.777791 0
M  V30 2839 C 267.984 1.20358 1.25658 0
M  V30 2840 O 269.16 1.53005 1.30964 0
M  V30 2841 C 266.225 2.83787 1.99163 0
M  V30 2842 C 265.286 3.99947 1.56016 0
M  V30 2843 C 264.519 4.59415 2.71613 0
M  V30 2844 O 264.742 4.17769 3.88362 0
M  V30 2845 O 263.676 5.49359 2.45945 0
M  V30 2846 H 267.502 3.02605 0.257636 0
M  V30 2847 H 265.087 1.49275 0.0611393 0
M  V30 2848 H 266.969 3.23405 2.70161 0
M  V30 2849 H 265.644 2.05513 2.50092 0
M  V30 2850 H 264.551 3.65007 0.819809 0
M  V30 2851 H 265.884 4.79801 1.09782 0
M  V30 2852 N 267.536 -0.106894 1.57237 0
M  V30 2853 C 268.785 -0.811163 1.8467 0
M  V30 2854 C 269.098 -1.80469 0.754342 0
M  V30 2855 O 270.304 -2.55601 0.915439 0
M  V30 2856 C 268.76 -1.49337 3.27454 0
M  V30 2857 C 268.368 -0.540217 4.44731 0
M  V30 2858 C 270.112 -2.18206 3.64124 0
M  V30 2859 C 268.019 -1.22634 5.78545 0
M  V30 2860 H 266.949 -0.306679 0.688813 0
M  V30 2861 H 269.6 -0.0639887 1.83388 0
M  V30 2862 H 267.982 -2.2876 3.23241 0
M  V30 2863 H 269.156 0.221659 4.60267 0
M  V30 2864 H 267.471 0.042146 4.16379 0
M  V30 2865 H 270.068 -2.70253 4.61376 0
M  V30 2866 H 270.411 -2.96562 2.92158 0
M  V30 2867 H 270.944 -1.45658 3.70174 0
M  V30 2868 H 267.683 -0.483832 6.53712 0
M  V30 2869 H 267.203 -1.95993 5.66874 0
M  V30 2870 H 268.882 -1.75615 6.2271 0
M  V30 2871 N 269.014 -1.53014 -0.377408 0
M  V30 2872 C 270.262 -1.6829 -1.11906 0
M  V30 2873 C 270.583 -0.431206 -1.90173 0
M  V30 2874 O 269.853 0.554595 -1.87886 0
M  V30 2875 H 268.433 -0.620371 -0.416112 0
M  V30 2876 H 271.095 -1.90167 -0.426893 0
M  V30 2877 H 270.191 -2.53862 -1.8155 0
M  V30 2878 N 270.492 0.636531 -1.44174 0
M  V30 2879 C 271.717 1.42847 -1.50364 0
M  V30 2880 C 272.142 1.87665 -0.127867 0
M  V30 2881 O 271.5 1.58408 0.88185 0
M  V30 2882 C 271.548 2.62854 -2.4686 0
M  V30 2883 O 270.652 3.62501 -1.9664 0
M  V30 2884 H 269.993 0.427642 -0.507955 0
M  V30 2885 H 272.523 0.777422 -1.89255 0
M  V30 2886 H 272.533 3.10465 -2.64718 0
M  V30 2887 H 271.208 2.29578 -3.46795 0
M  V30 2888 H 269.785 3.21735 -1.88523 0
M  V30 2889 N 271.97 1.30982 0.876444 0
M  V30 2890 C 273.386 1.09498 1.16113 0
M  V30 2891 C 273.586 -0.13875 2.01022 0
M  V30 2892 O 272.642 -0.829935 2.38471 0
M  V30 2893 C 273.955 2.36308 1.85954 0
M  V30 2894 C 275.503 2.41856 1.98683 0
M  V30 2895 C 275.978 3.6853 2.71937 0
M  V30 2896 N 277.469 3.69387 2.79477 0
M  V30 2897 C 278.204 4.64096 3.36753 0
M  V30 2898 N 277.7 5.69155 3.95012 0
M  V30 2899 N 279.493 4.51626 3.3465 0
M  V30 2900 H 271.644 2.10118 0.310494 0
M  V30 2901 H 273.907 0.926634 0.200131 0
M  V30 2902 H 273.613 3.26388 1.31011 0
M  V30 2903 H 273.487 2.4561 2.86278 0
M  V30 2904 H 275.874 1.52249 2.52793 0
M  V30 2905 H 275.955 2.36523 0.9742 0
M  V30 2906 H 275.599 4.58499 2.18496 0
M  V30 2907 H 275.529 3.71127 3.73593 0
M  V30 2908 H 278.02 2.93438 2.38123 0
M  V30 2909 H 278.333 6.3751 4.36808 0
M  V30 2910 H 276.678 5.72937 3.93406 0
M  V30 2911 H 279.869 3.68728 2.8837 0
M  V30 2912 H 280.042 5.25614 3.7899 0
M  V30 2913 N 273.449 -1.08991 1.13837 0
M  V30 2914 C 274.397 -2.17841 0.815347 0
M  V30 2915 C 275.391 -1.68164 -0.204233 0
M  V30 2916 O 276.597 -1.79897 -0.0609304 0
M  V30 2917 H 272.972 -0.710654 0.245915 0
M  V30 2918 H 274.943 -2.42315 1.74143 0
M  V30 2919 C 273.692 -3.46381 0.302614 0
M  V30 2920 H 273.015 -3.84979 1.0785 0
M  V30 2921 H 274.455 -4.23844 0.115074 0
M  V30 2922 C 272.914 -3.22556 -0.972591 0
M  V30 2923 O 273.444 -3.45599 -2.04754 0
M  V30 2924 N 271.65 -2.76134 -0.905455 0
M  V30 2925 H 271.197 -2.57582 -0.0305421 0
M  V30 2926 H 271.155 -2.60571 -1.75926 0
M  V30 2927 N 274.927 -0.932562 -1.27047 0
M  V30 2928 C 275.89 -0.440064 -2.24936 0
M  V30 2929 C 276.89 0.444071 -1.54547 0
M  V30 2930 O 278.08 0.244465 -1.72476 0
M  V30 2931 C 275.212 0.36678 -3.38921 0
M  V30 2932 H 276.405 -1.305 -2.70018 0
M  V30 2933 H 273.958 -0.713707 -1.39054 0
M  V30 2934 H 274.693 1.25033 -2.99228 0
M  V30 2935 H 274.478 -0.267204 -3.91188 0
M  V30 2936 H 275.968 0.701567 -4.11665 0
M  V30 2937 N 276.405 1.4127 -0.698611 0
M  V30 2938 C 277.315 2.34573 -0.0357891 0
M  V30 2939 C 278.331 1.56393 0.762701 0
M  V30 2940 O 279.507 1.8886 0.699564 0
M  V30 2941 C 276.572 3.35159 0.887089 0
M  V30 2942 C 275.633 4.29225 0.0804634 0
M  V30 2943 C 274.866 5.25006 0.959387 0
M  V30 2944 O 275.089 5.26314 2.19886 0
M  V30 2945 O 274.023 6.00519 0.407439 0
M  V30 2946 H 277.849 2.92838 -0.804957 0
M  V30 2947 H 275.434 1.42175 -0.458966 0
M  V30 2948 H 277.316 3.9689 1.41621 0
M  V30 2949 H 275.991 2.79333 1.6357 0
M  V30 2950 H 274.898 3.70833 -0.493328 0
M  V30 2951 H 276.231 4.88157 -0.629547 0
M  V30 2952 N 277.883 0.443576 1.51229 0
M  V30 2953 C 279.123 -0.119889 2.04048 0
M  V30 2954 C 279.487 -1.39418 1.32009 0
M  V30 2955 O 280.688 -2.03829 1.75235 0
M  V30 2956 C 278.959 -0.327233 3.55899 0
M  V30 2957 S 280.518 -0.853208 4.30425 0
M  V30 2958 H 277.336 -0.028921 0.710412 0
M  V30 2959 H 279.938 0.604413 1.85922 0
M  V30 2960 H 278.642 0.606445 4.05895 0
M  V30 2961 H 278.173 -1.07844 3.7833 0
M  V30 2962 H 280.188 -2.13005 4.48155 0
M  V30 2963 N 279.361 -1.56624 0.175154 0
M  V30 2964 C 280.777 -1.58571 -0.180966 0
M  V30 2965 C 280.977 -1.19065 -1.6256 0
M  V30 2966 O 280.033 -0.904044 -2.35761 0
M  V30 2967 C 281.346 -3.00522 0.103326 0
M  V30 2968 C 282.894 -3.12972 0.0418426 0
M  V30 2969 C 283.369 -4.57022 0.299175 0
M  V30 2970 N 284.86 -4.62541 0.247086 0
M  V30 2971 C 285.595 -5.71857 0.420318 0
M  V30 2972 N 285.091 -6.89717 0.652816 0
M  V30 2973 N 286.884 -5.60972 0.355957 0
M  V30 2974 H 279.035 -1.80589 1.11809 0
M  V30 2975 H 281.298 -0.837178 0.444788 0
M  V30 2976 H 281.004 -3.33916 1.10422 0
M  V30 2977 H 280.878 -3.72344 -0.603299 0
M  V30 2978 H 283.265 -2.79403 -0.949636 0
M  V30 2979 H 283.346 -2.43578 0.781238 0
M  V30 2980 H 282.99 -4.913 1.28788 0
M  V30 2981 H 282.92 -5.24579 -0.460876 0
M  V30 2982 H 285.411 -3.77829 0.0731895 0
M  V30 2983 H 285.724 -7.68911 0.774347 0
M  V30 2984 H 284.069 -6.91572 0.689476 0
M  V30 2985 H 287.26 -4.67773 0.174882 0
M  V30 2986 H 287.433 -6.46111 0.494388 0
M  V30 2987 N 280.839 0.0985539 -1.57292 0
M  V30 2988 C 282.087 0.801092 -1.85545 0
M  V30 2989 C 282.408 1.79438 -0.763353 0
M  V30 2990 O 281.678 1.94763 0.21073 0
M  V30 2991 H 280.258 0.29884 -0.684619 0
M  V30 2992 H 282.92 0.0810064 -1.94732 0
M  V30 2993 H 282.016 1.3338 -2.82163 0
M  V30 2994 N 282.317 1.53212 0.369288 0
M  V30 2995 C 283.264 1.79388 1.45219 0
M  V30 2996 C 284.234 0.638059 1.53356 0
M  V30 2997 O 285.419 0.879852 1.69302 0
M  V30 2998 C 282.559 1.98623 2.82211 0
M  V30 2999 C 281.672 3.26337 2.8307 0
M  V30 3000 C 280.807 3.35779 4.11614 0
M  V30 3001 C 279.846 4.5754 4.06601 0
M  V30 3002 N 278.983 4.64155 5.26787 0
M  V30 3003 H 283.823 2.71794 1.22198 0
M  V30 3004 H 281.36 1.34642 0.592444 0
M  V30 3005 H 283.318 2.07761 3.61789 0
M  V30 3006 H 281.948 1.09558 3.03639 0
M  V30 3007 H 281 3.26171 1.95747 0
M  V30 3008 H 282.312 4.15988 2.75237 0
M  V30 3009 H 281.466 3.44208 4.99606 0
M  V30 3010 H 280.205 2.44137 4.22195 0
M  V30 3011 H 279.21 4.49215 3.16996 0
M  V30 3012 H 280.435 5.50519 3.97625 0
M  V30 3013 H 278.381 3.75413 5.3796 0
M  V30 3014 H 278.298 5.47706 5.21109 0
M  V30 3015 H 279.566 4.76863 6.16621 0
M  V30 3016 N 283.795 -0.628877 1.44509 0
M  V30 3017 C 284.742 -1.74074 1.51549 0
M  V30 3018 C 285.712 -1.62084 0.363021 0
M  V30 3019 O 286.897 -1.81975 0.573567 0
M  V30 3020 C 284.037 -3.12328 1.46784 0
M  V30 3021 C 283.15 -3.35277 2.72422 0
M  V30 3022 C 282.285 -4.63515 2.59475 0
M  V30 3023 C 281.324 -4.7965 3.80266 0
M  V30 3024 N 280.461 -5.99168 3.65981 0
M  V30 3025 H 285.301 -1.67392 2.46544 0
M  V30 3026 H 282.838 -0.816527 1.22357 0
M  V30 3027 H 284.796 -3.92286 1.42012 0
M  V30 3028 H 283.426 -3.18018 0.553544 0
M  V30 3029 H 282.478 -2.49242 2.87372 0
M  V30 3030 H 283.79 -3.43078 3.62076 0
M  V30 3031 H 282.944 -5.51638 2.52548 0
M  V30 3032 H 281.683 -4.58076 1.67384 0
M  V30 3033 H 280.688 -3.89957 3.87574 0
M  V30 3034 H 281.913 -4.86902 4.73395 0
M  V30 3035 H 279.859 -5.94814 2.76644 0
M  V30 3036 H 279.776 -6.08035 4.49254 0
M  V30 3037 H 281.044 -6.89846 3.6295 0
M  V30 3038 N 285.273 -1.31445 -0.869486 0
M  V30 3039 C 286.521 -1.20918 -1.61936 0
M  V30 3040 C 286.842 0.232683 -1.93607 0
M  V30 3041 O 286.112 1.15352 -1.58338 0
M  V30 3042 H 284.692 -0.44454 -0.600328 0
M  V30 3043 H 287.354 -1.64776 -1.0409 0
M  V30 3044 H 286.45 -1.78124 -2.56278 0
M  V30 3045 N 286.751 1.08385 -1.14413 0
M  V30 3046 C 287.698 2.15311 -0.831265 0
M  V30 3047 C 288.668 1.64751 0.211292 0
M  V30 3048 O 289.853 1.90627 0.0811674 0
M  V30 3049 C 286.993 3.43658 -0.315143 0
M  V30 3050 C 286.106 4.08064 -1.41802 0
M  V30 3051 C 285.241 5.24207 -0.859126 0
M  V30 3052 C 284.28 5.80554 -1.93967 0
M  V30 3053 N 283.417 6.88042 -1.39793 0
M  V30 3054 H 288.257 2.41415 -1.74708 0
M  V30 3055 H 285.794 1.18474 -0.871909 0
M  V30 3056 H 287.752 4.172 0.00230884 0
M  V30 3057 H 286.382 3.17839 0.56378 0
M  V30 3058 H 285.434 3.3228 -1.85187 0
M  V30 3059 H 286.746 4.45962 -2.23427 0
M  V30 3060 H 285.9 6.04689 -0.49359 0
M  V30 3061 H 284.639 4.87699 -0.011932 0
M  V30 3062 H 283.644 4.98725 -2.31415 0
M  V30 3063 H 284.869 6.19121 -2.79046 0
M  V30 3064 H 282.815 6.53493 -0.572919 0
M  V30 3065 H 282.732 7.24767 -2.15054 0
M  V30 3066 H 284 7.72255 -1.0603 0
M  V30 3067 O 288.268 1.07005 1.20964 0
M  V30 3068 H 288.959 0.754737 1.78391 0
M  V30 END ATOM
M  V30 BEGIN BOND
M  V30 END BOND
M  V30 END CTAB
M  END
$$$$
