drugbank_target|P05156 Complement factor I (DB01593; DB09130; DB14487)
 OpenBabel12092121073D

  0  0  0     0  0            999 V3000
M  V30 BEGIN CTAB
M  V30 COUNTS 9069 9172 0 0 0
M  V30 BEGIN ATOM
M  V30 1 H -0.908 1.98254 -0.117106 0
M  V30 2 N 0 1.576 0 0
M  V30 3 C 0.933 2.03868 1.02534 0
M  V30 4 C 1.911 0.928543 1.3348 0
M  V30 5 O 3.095 1.19667 1.45644 0
M  V30 6 C 0.222 2.43627 2.35294 0
M  V30 7 C -0.732 3.65373 2.2001 0
M  V30 8 S 0.101 5.13292 1.52614 0
M  V30 9 C 1.257 5.56322 2.86805 0
M  V30 10 H 1.49 2.90518 0.631377 0
M  V30 11 H -0.977 1.52953 0.210867 0
M  V30 12 H 0.981 2.67203 3.11629 0
M  V30 13 H -0.358 1.57376 2.7183 0
M  V30 14 H -1.165 3.90944 3.18086 0
M  V30 15 H -1.563 3.418 1.51819 0
M  V30 16 H 0.729 5.58782 3.83104 0
M  V30 17 H 1.672 6.56266 2.65933 0
M  V30 18 H 2.08 4.83886 2.90714 0
M  V30 19 N 1.4781 -0.272755 1.55222 0
M  V30 20 C 2.4251 -1.33716 1.88119 0
M  V30 21 C 3.3951 -1.49066 0.73271 0
M  V30 22 O 4.5801 -1.63469 0.984002 0
M  V30 23 C 1.7201 -2.69238 2.15882 0
M  V30 24 C 0.8331 -2.62108 3.43399 0
M  V30 25 C -0.0319 -3.89811 3.60861 0
M  V30 26 C -0.9929 -3.77193 4.8207 0
M  V30 27 N -1.8559 -4.9673 4.96189 0
M  V30 28 H 2.9841 -1.04962 2.78903 0
M  V30 29 H 0.5211 -0.507088 1.38083 0
M  V30 30 H 2.4791 -3.48089 2.29978 0
M  V30 31 H 1.1091 -2.96194 1.28331 0
M  V30 32 H 0.1611 -1.74967 3.37773 0
M  V30 33 H 1.4731 -2.48685 4.32386 0
M  V30 34 H 0.6271 -4.77103 3.74777 0
M  V30 35 H -0.6339 -4.06102 2.7006 0
M  V30 36 H -1.6289 -2.88284 4.68159 0
M  V30 37 H -0.4039 -3.62421 5.74307 0
M  V30 38 H -2.4579 -5.13431 4.08319 0
M  V30 39 H -2.5409 -4.85839 5.79221 0
M  V30 40 H -1.2729 -5.85594 5.1449 0
M  V30 41 N 2.9562 -1.48159 -0.537278 0
M  V30 42 C 3.8862 -1.65029 -1.6519 0
M  V30 43 C 4.8672 -0.499281 -1.62607 0
M  V30 44 O 6.0522 -0.730972 -1.79918 0
M  V30 45 C 3.1822 -1.68303 -3.03795 0
M  V30 46 C 2.1362 -2.8283 -3.21234 0
M  V30 47 C 1.4622 -2.71189 -4.60826 0
M  V30 48 C 2.7622 -4.24211 -3.04701 0
M  V30 49 H 4.4562 -2.58341 -1.51328 0
M  V30 50 H 2.0022 -1.24325 -0.726585 0
M  V30 51 H 3.9552 -1.78693 -3.81637 0
M  V30 52 H 2.6792 -0.715635 -3.18663 0
M  V30 53 H 1.3382 -2.71983 -2.45807 0
M  V30 54 H 0.9862 -1.72435 -4.7252 0
M  V30 55 H 0.6862 -3.48035 -4.7344 0
M  V30 56 H 2.2102 -2.83537 -5.40777 0
M  V30 57 H 3.6242 -4.3593 -3.72341 0
M  V30 58 H 2.0212 -5.01998 -3.28813 0
M  V30 59 H 3.0912 -4.41184 -2.01209 0
M  V30 60 N 4.4343 0.785586 -1.36625 0
M  V30 61 C 5.3643 1.91259 -1.33949 0
M  V30 62 C 6.3453 1.68795 -0.210325 0
M  V30 63 O 7.5303 1.89854 -0.408561 0
M  V30 64 C 4.6603 3.28339 -1.13186 0
M  V30 65 C 3.6143 3.65335 -2.22967 0
M  V30 66 C 2.9403 5.00806 -1.87342 0
M  V30 67 C 4.2403 3.7352 -3.65075 0
M  V30 68 H 5.9343 1.93755 -2.28253 0
M  V30 69 H 3.4803 0.930788 -1.09874 0
M  V30 70 H 5.4333 4.06804 -1.09948 0
M  V30 71 H 4.1573 3.2624 -0.153332 0
M  V30 72 H 2.8163 2.89169 -2.25337 0
M  V30 73 H 2.4643 4.95233 -0.880545 0
M  V30 74 H 2.1643 5.26529 -2.60846 0
M  V30 75 H 3.6883 5.81687 -1.85667 0
M  V30 76 H 5.1023 4.42168 -3.64911 0
M  V30 77 H 3.4993 4.10731 -4.37516 0
M  V30 78 H 4.5693 2.74527 -3.99703 0
M  V30 79 N 5.9124 1.20967 1.01018 0
M  V30 80 C 6.8624 0.93182 2.08089 0
M  V30 81 C 7.8464 -0.110898 1.60517 0
M  V30 82 O 9.0384 0.0973392 1.76732 0
M  V30 83 C 6.1674 0.492719 3.39746 0
M  V30 84 C 5.2534 1.56922 3.94 0
M  V30 85 N 5.6444 2.79312 4.21686 0
M  V30 86 C 3.9424 1.43688 4.2222 0
M  V30 87 C 4.6434 3.48797 4.65527 0
M  V30 88 N 3.6194 2.76224 4.68189 0
M  V30 89 H 7.4214 1.86175 2.27412 0
M  V30 90 H 4.9354 1.10463 1.19045 0
M  V30 91 H 6.9324 0.275044 4.15992 0
M  V30 92 H 5.5924 -0.430509 3.21833 0
M  V30 93 H 6.6034 3.15903 4.10397 0
M  V30 94 H 3.2804 0.578548 4.13472 0
M  V30 95 H 4.6704 4.53561 4.95714 0
M  V30 96 N 7.3905 -1.2043 1.01659 0
M  V30 97 C 8.6365 -1.90079 0.706963 0
M  V30 98 C 8.9695 -1.78648 -0.761474 0
M  V30 99 O 8.2445 -1.17069 -1.55323 0
M  V30 100 C 8.5275 -3.41469 1.14327 0
M  V30 101 C 8.3805 -3.61833 2.67201 0
M  V30 102 C 9.6995 -4.34261 0.714529 0
M  V30 103 H 6.8185 -0.690254 0.2583 0
M  V30 104 H 9.4605 -1.41826 1.26433 0
M  V30 105 H 7.6105 -3.82696 0.669056 0
M  V30 106 H 9.2825 -3.2986 3.22475 0
M  V30 107 H 7.5255 -3.05304 3.08175 0
M  V30 108 H 8.1965 -4.67955 2.92783 0
M  V30 109 H 10.6725 -4.00682 1.12221 0
M  V30 110 H 9.5485 -5.38806 1.04784 0
M  V30 111 H 9.8095 -4.40431 -0.383799 0
M  V30 112 N 8.8686 -0.792821 -1.36206 0
M  V30 113 C 10.1156 -0.366786 -1.99151 0
M  V30 114 C 10.4436 1.06243 -1.62919 0
M  V30 115 O 9.6986 1.74927 -0.877442 0
M  V30 116 C 9.9976 -0.481501 -3.54142 0
M  V30 117 C 9.6636 -1.87202 -4.10203 0
M  V30 118 C 8.3256 -2.25248 -4.25226 0
M  V30 119 C 10.6776 -2.78237 -4.40719 0
M  V30 120 C 8.0056 -3.53723 -4.68078 0
M  V30 121 C 10.3576 -4.06144 -4.85005 0
M  V30 122 C 9.0216 -4.44207 -4.98234 0
M  V30 123 H 8.2916 -0.134217 -0.728743 0
M  V30 124 H 10.9386 -1.01094 -1.62641 0
M  V30 125 H 9.2436 0.246146 -3.91026 0
M  V30 126 H 10.9406 -0.132844 -4.0078 0
M  V30 127 H 7.5306 -1.56639 -3.98951 0
M  V30 128 H 11.7146 -2.50097 -4.28679 0
M  V30 129 H 6.9706 -3.8308 -4.76508 0
M  V30 130 H 11.1446 -4.76796 -5.07581 0
M  V30 131 H 8.7716 -5.43814 -5.31197 0
M  V30 132 N 10.3467 1.47872 -0.545128 0
M  V30 133 C 11.2767 2.32661 0.197793 0
M  V30 134 C 12.2577 1.43041 0.920504 0
M  V30 135 O 13.4427 1.71912 0.90333 0
M  V30 136 C 10.5727 3.24569 1.23582 0
M  V30 137 C 9.5267 4.23333 0.630323 0
M  V30 138 C 8.8527 5.0448 1.77211 0
M  V30 139 C 10.1527 5.20704 -0.407974 0
M  V30 140 H 11.8467 2.95024 -0.510045 0
M  V30 141 H 9.3927 1.4187 -0.246731 0
M  V30 142 H 11.3457 3.8272 1.76362 0
M  V30 143 H 10.0697 2.60236 1.97344 0
M  V30 144 H 8.7287 3.6639 0.123922 0
M  V30 145 H 8.3767 4.36561 2.49847 0
M  V30 146 H 8.0767 5.71339 1.37281 0
M  V30 147 H 9.6007 5.65487 2.3034 0
M  V30 148 H 11.0147 5.7329 0.033305 0
M  V30 149 H 9.4117 5.95699 -0.725486 0
M  V30 150 H 10.4817 4.66917 -1.30828 0
M  V30 151 N 11.8248 0.280983 1.55075 0
M  V30 152 C 12.7548 -0.597469 2.25727 0
M  V30 153 C 13.7358 -1.15417 1.24952 0
M  V30 154 O 14.9208 -1.18722 1.53684 0
M  V30 155 C 12.0508 -1.7789 2.98283 0
M  V30 156 C 11.0048 -1.35347 4.06036 0
M  V30 157 C 10.3308 -2.61846 4.66198 0
M  V30 158 C 11.6308 -0.499354 5.19907 0
M  V30 159 H 13.3248 -0.00824265 2.99399 0
M  V30 160 H 10.8708 -0.0025244 1.44 0
M  V30 161 H 12.8238 -2.39937 3.46422 0
M  V30 162 H 11.5478 -2.39405 2.22155 0
M  V30 163 H 10.2068 -0.756156 3.58717 0
M  V30 164 H 9.8548 -3.21632 3.86732 0
M  V30 165 H 9.5548 -2.3409 5.38958 0
M  V30 166 H 11.0788 -3.24732 5.1709 0
M  V30 167 H 12.4928 -1.02498 5.64063 0
M  V30 168 H 10.8898 -0.316424 5.99265 0
M  V30 169 H 11.9598 0.480459 4.82514 0
M  V30 170 N 13.3029 -1.57598 0.00835791 0
M  V30 171 C 14.5499 -1.90928 -0.674732 0
M  V30 172 C 14.8779 -0.88277 -1.73313 0
M  V30 173 O 14.1329 0.111294 -1.95383 0
M  V30 174 C 14.4319 -3.3101 -1.34787 0
M  V30 175 C 14.0979 -4.48922 -0.421861 0
M  V30 176 C 12.7599 -4.8091 -0.166927 0
M  V30 177 C 15.1119 -5.20755 0.215211 0
M  V30 178 C 12.4399 -5.821 0.733232 0
M  V30 179 C 14.7919 -6.22905 1.1033 0
M  V30 180 C 13.4559 -6.53346 1.36733 0
M  V30 181 H 12.7259 -0.698656 -0.246902 0
M  V30 182 H 15.3729 -1.91387 0.0656779 0
M  V30 183 H 13.6779 -3.26714 -2.16253 0
M  V30 184 H 15.3749 -3.54061 -1.8826 0
M  V30 185 H 11.9649 -4.23934 -0.630729 0
M  V30 186 H 16.1489 -4.9629 0.0312829 0
M  V30 187 H 11.4049 -6.04042 0.945712 0
M  V30 188 H 15.5789 -6.77694 1.60325 0
M  V30 189 H 13.2059 -7.31573 2.06652 0
M  V30 190 N 14.781 0.264519 -1.55364 0
M  V30 191 C 15.711 1.33121 -1.91836 0
M  V30 192 C 16.692 1.51101 -0.781192 0
M  V30 193 O 17.877 1.64003 -1.04003 0
M  V30 194 C 15.007 2.68921 -2.19769 0
M  V30 195 C 13.961 2.65661 -3.35571 0
M  V30 196 C 13.287 4.05093 -3.49004 0
M  V30 197 C 14.587 2.24187 -4.71739 0
M  V30 198 H 16.281 1.02844 -2.81182 0
M  V30 199 H 13.827 0.493286 -1.35287 0
M  V30 200 H 15.78 3.43663 -2.43872 0
M  V30 201 H 14.504 3.00799 -1.27231 0
M  V30 202 H 13.163 1.93377 -3.1145 0
M  V30 203 H 12.811 4.34206 -2.53917 0
M  V30 204 H 12.511 4.03804 -4.26868 0
M  V30 205 H 14.035 4.81561 -3.75408 0
M  V30 206 H 15.449 2.88654 -4.9533 0
M  V30 207 H 13.846 2.34044 -5.52579 0
M  V30 208 H 14.916 1.19327 -4.69988 0
M  V30 209 N 16.2591 1.48442 0.529413 0
M  V30 210 C 17.4991 1.58086 1.29569 0
M  V30 211 C 17.8631 0.249302 1.90375 0
M  V30 212 O 19.0641 0.220738 2.67892 0
M  V30 213 C 17.3351 2.68793 2.35552 0
M  V30 214 S 18.8941 2.98207 3.21898 0
M  V30 215 H 15.7121 0.557922 0.440732 0
M  V30 216 H 18.3141 1.85966 0.603059 0
M  V30 217 H 17.0181 3.64102 1.89363 0
M  V30 218 H 16.5491 2.42817 3.09522 0
M  V30 219 H 18.5641 2.37548 4.35644 0
M  V30 220 N 17.7372 -0.778329 1.37039 0
M  V30 221 C 18.9842 -1.53665 1.31884 0
M  V30 222 C 19.3122 -1.9425 -0.0986303 0
M  V30 223 O 18.5672 -1.63832 -1.07041 0
M  V30 224 C 18.8662 -2.81845 2.19768 0
M  V30 225 C 18.5322 -2.60345 3.68146 0
M  V30 226 C 17.1942 -2.5419 4.08584 0
M  V30 227 C 19.5462 -2.40923 4.62175 0
M  V30 228 C 16.8742 -2.26594 5.41177 0
M  V30 229 C 19.2262 -2.14852 5.94997 0
M  V30 230 C 17.8902 -2.07137 6.34547 0
M  V30 231 H 17.1602 -0.562299 0.482598 0
M  V30 232 H 19.8072 -0.897069 1.69189 0
M  V30 233 H 18.1122 -3.50328 1.75436 0
M  V30 234 H 19.8092 -3.39692 2.13097 0
M  V30 235 H 16.3992 -2.65996 3.36072 0
M  V30 236 H 20.5832 -2.44673 4.31797 0
M  V30 237 H 15.8392 -2.19111 5.70789 0
M  V30 238 H 20.0132 -1.98822 6.67415 0
M  V30 239 H 17.6402 -1.85518 7.37216 0
M  V30 240 N 19.2153 -1.21501 -1.00376 0
M  V30 241 C 20.1653 -0.942843 -2.07592 0
M  V30 242 C 21.1493 0.102384 -1.60574 0
M  V30 243 O 22.3413 -0.10671 -1.76678 0
M  V30 244 C 19.4703 -0.510729 -3.3948 0
M  V30 245 C 18.5563 -1.59009 -3.93163 0
M  V30 246 N 18.9473 -2.81544 -4.20198 0
M  V30 247 C 17.2453 -1.45925 -4.21452 0
M  V30 248 C 17.9463 -3.51261 -4.63671 0
M  V30 249 N 16.9223 -2.78703 -4.66718 0
M  V30 250 H 20.7243 -1.87378 -2.26421 0
M  V30 251 H 18.2383 -1.11093 -1.18458 0
M  V30 252 H 20.2353 -0.297101 -4.1584 0
M  V30 253 H 18.8953 0.413436 -3.22057 0
M  V30 254 H 19.9063 -3.18075 -4.08716 0
M  V30 255 H 16.5833 -0.600467 -4.13159 0
M  V30 256 H 17.9733 -4.56183 -4.93302 0
M  V30 257 N 20.6934 1.19889 -1.02296 0
M  V30 258 C 21.6234 2.25141 -0.619174 0
M  V30 259 C 22.6044 1.66051 0.368915 0
M  V30 260 O 23.7894 1.92546 0.252941 0
M  V30 261 C 20.9194 3.4728 0.0368783 0
M  V30 262 C 19.8734 4.19005 -0.872865 0
M  V30 263 C 19.1994 5.34637 -0.0822402 0
M  V30 264 C 20.4994 4.74452 -2.18387 0
M  V30 265 H 22.1934 2.59171 -1.49903 0
M  V30 266 H 19.7394 1.24579 -0.722222 0
M  V30 267 H 21.6924 4.20098 0.330958 0
M  V30 268 H 20.4164 3.12433 0.95149 0
M  V30 269 H 19.0754 3.48061 -1.15105 0
M  V30 270 H 18.7234 4.96034 0.83422 0
M  V30 271 H 18.4234 5.83557 -0.688149 0
M  V30 272 H 19.9474 6.10255 0.205238 0
M  V30 273 H 21.3614 5.39055 -1.95172 0
M  V30 274 H 19.7584 5.33834 -2.74119 0
M  V30 275 H 20.8284 3.92844 -2.84257 0
M  V30 276 N 22.1715 0.800033 1.35784 0
M  V30 277 C 23.5875 0.482977 1.52117 0
M  V30 278 C 23.7875 -0.996948 1.75109 0
M  V30 279 O 22.8435 -1.78216 1.78872 0
M  V30 280 C 24.1565 1.32264 2.70049 0
M  V30 281 C 25.7045 1.31742 2.83924 0
M  V30 282 C 26.1795 2.14106 4.04874 0
M  V30 283 N 27.6705 2.11607 4.12039 0
M  V30 284 C 28.4055 2.72099 5.04727 0
M  V30 285 N 27.9015 3.41492 6.02789 0
M  V30 286 N 29.6945 2.61776 4.97423 0
M  V30 287 H 21.8455 1.75856 1.19115 0
M  V30 288 H 24.1085 0.748122 0.582252 0
M  V30 289 H 23.8145 2.37261 2.59616 0
M  V30 290 H 23.6885 0.971303 3.6448 0
M  V30 291 H 26.0755 0.275333 2.93813 0
M  V30 292 H 26.1565 1.70859 1.9037 0
M  V30 293 H 25.8005 3.18351 3.95746 0
M  V30 294 H 25.7305 1.72353 4.97596 0
M  V30 295 H 28.2215 1.61112 3.41835 0
M  V30 296 H 28.5345 3.84953 6.70098 0
M  V30 297 H 26.8795 3.45596 6.02983 0
M  V30 298 H 30.0705 2.07157 4.19766 0
M  V30 299 H 30.2435 3.0921 5.69468 0
M  V30 300 N 23.6496 -1.47581 0.552962 0
M  V30 301 C 24.8966 -2.02482 0.0273243 0
M  V30 302 C 25.2246 -1.42776 -1.32081 0
M  V30 303 O 24.4796 -0.571393 -1.87173 0
M  V30 304 C 24.7786 -3.57199 -0.119728 0
M  V30 305 C 24.4446 -4.35804 1.15697 0
M  V30 306 C 23.1066 -4.57 1.50681 0
M  V30 307 C 25.4586 -4.81167 2.00319 0
M  V30 308 C 22.7866 -5.20807 2.70142 0
M  V30 309 C 25.1386 -5.46293 3.18978 0
M  V30 310 C 23.8026 -5.65722 3.54281 0
M  V30 311 H 23.0726 -0.740933 0.00999866 0
M  V30 312 H 25.7196 -1.77302 0.72362 0
M  V30 313 H 24.0246 -3.81348 -0.89896 0
M  V30 314 H 25.7216 -3.97324 -0.541718 0
M  V30 315 H 22.3116 -4.19582 0.874561 0
M  V30 316 H 26.4956 -4.64574 1.74599 0
M  V30 317 H 21.7516 -5.34045 2.97668 0
M  V30 318 H 25.9256 -5.80407 3.84838 0
M  V30 319 H 23.5526 -6.14936 4.46942 0
M  V30 320 N 25.1277 -0.289203 -1.54924 0
M  V30 321 C 26.3677 0.324536 -2.01807 0
M  V30 322 C 26.7317 1.5199 -1.17316 0
M  V30 323 O 27.9327 2.20422 -1.53843 0
M  V30 324 C 26.2037 0.683578 -3.50802 0
M  V30 325 S 27.7627 1.28185 -4.19659 0
M  V30 326 H 24.5807 0.100236 -0.703899 0
M  V30 327 H 27.1827 -0.414325 -1.91059 0
M  V30 328 H 25.8867 -0.195073 -4.09936 0
M  V30 329 H 25.4177 1.45354 -3.65562 0
M  V30 330 H 27.4327 2.57006 -4.24456 0
M  V30 331 N 26.6058 1.57591 -0.0167156 0
M  V30 332 C 27.5528 2.09462 0.969251 0
M  V30 333 C 28.5228 0.99381 1.33089 0
M  V30 334 O 29.7078 1.26726 1.42636 0
M  V30 335 C 26.8478 2.61622 2.25051 0
M  V30 336 C 25.9608 3.85666 1.94642 0
M  V30 337 C 25.0958 4.26266 3.16972 0
M  V30 338 C 24.1348 5.43101 2.82326 0
M  V30 339 N 23.2718 5.78915 3.97243 0
M  V30 340 H 28.1118 2.93428 0.519997 0
M  V30 341 H 25.6488 1.45044 0.245087 0
M  V30 342 H 27.6068 2.89949 2.99976 0
M  V30 343 H 26.2368 1.80505 2.67615 0
M  V30 344 H 25.2888 3.64145 1.10013 0
M  V30 345 H 26.6008 4.70678 1.65117 0
M  V30 346 H 25.7548 4.55963 4.00228 0
M  V30 347 H 24.4938 3.39996 3.49648 0
M  V30 348 H 23.4988 5.1311 1.97479 0
M  V30 349 H 24.7238 6.3106 2.50879 0
M  V30 350 H 22.6698 4.95602 4.29785 0
M  V30 351 H 22.5868 6.58539 3.71299 0
M  V30 352 H 23.8548 6.13212 4.81239 0
M  V30 353 N 28.0839 -0.256276 1.55502 0
M  V30 354 C 29.3299 -0.987079 1.77157 0
M  V30 355 C 29.6629 -1.85327 0.580315 0
M  V30 356 O 28.9379 -1.89874 -0.421686 0
M  V30 357 C 29.2209 -1.85553 3.08613 0
M  V30 358 C 29.0739 -1.01816 4.38125 0
M  V30 359 C 30.3929 -2.8397 3.36228 0
M  V30 360 H 27.5119 -0.357428 0.644526 0
M  V30 361 H 30.1539 -0.258239 1.88237 0
M  V30 362 H 28.3039 -2.47695 2.99298 0
M  V30 363 H 29.9759 -0.416159 4.59419 0
M  V30 364 H 28.2189 -0.322178 4.32602 0
M  V30 365 H 28.8899 -1.65939 5.26468 0
M  V30 366 H 31.3659 -2.31964 3.45445 0
M  V30 367 H 30.2419 -3.41864 4.29442 0
M  V30 368 H 30.5029 -3.59955 2.56681 0
M  V30 369 N 29.562 -1.4872 -0.521534 0
M  V30 370 C 30.79 -1.60843 -1.30142 0
M  V30 371 C 31.205 -0.271897 -1.86832 0
M  V30 372 O 30.562 0.739969 -1.66825 0
M  V30 373 C 30.613 -2.66155 -2.4463 0
M  V30 374 O 30.334 -3.94623 -1.90275 0
M  V30 375 C 31.835 -2.88795 -3.36322 0
M  V30 376 H 29.055 -0.542075 -0.395468 0
M  V30 377 H 31.599 -1.94609 -0.628285 0
M  V30 378 H 29.754 -2.35224 -3.07812 0
M  V30 379 H 30.168 -4.52468 -2.65279 0
M  V30 380 H 31.642 -3.66264 -4.12983 0
M  V30 381 H 32.119 -1.97934 -3.9207 0
M  V30 382 H 32.725 -3.21063 -2.78924 0
M  V30 383 N 31.0401 0.771051 -1.3745 0
M  V30 384 C 32.2701 1.55789 -1.35696 0
M  V30 385 C 32.6781 1.89107 0.0594523 0
M  V30 386 O 32.0211 1.51984 1.03183 0
M  V30 387 C 32.0831 2.89515 -2.13123 0
M  V30 388 C 31.7471 2.78829 -3.62082 0
M  V30 389 C 32.7441 2.49812 -4.5595 0
M  V30 390 C 30.4291 2.9683 -4.05213 0
M  V30 391 C 32.4231 2.38923 -5.90927 0
M  V30 392 C 30.1101 2.85562 -5.40276 0
M  V30 393 C 31.1081 2.56649 -6.32946 0
M  V30 394 O 30.7961 2.45408 -7.65526 0
M  V30 395 H 30.5281 0.489257 -0.466481 0
M  V30 396 H 33.0821 0.963446 -1.81403 0
M  V30 397 H 31.3121 3.51081 -1.62107 0
M  V30 398 H 33.0011 3.50915 -2.03994 0
M  V30 399 H 33.7671 2.3559 -4.23937 0
M  V30 400 H 29.6461 3.18335 -3.33442 0
M  V30 401 H 33.1901 2.16277 -6.63227 0
M  V30 402 H 29.0871 2.99351 -5.71891 0
M  V30 403 H 29.8551 2.60753 -7.75855 0
M  V30 404 N 32.5182 1.22032 0.997298 0
M  V30 405 C 33.7462 1.06841 1.7718 0
M  V30 406 C 34.1612 -0.381325 1.84909 0
M  V30 407 O 33.5182 -1.26437 1.31605 0
M  V30 408 C 33.5692 1.66814 3.20711 0
M  V30 409 O 33.2902 3.06116 3.13408 0
M  V30 410 C 34.7912 1.56838 4.14628 0
M  V30 411 H 32.0112 0.374782 0.556578 0
M  V30 412 H 34.5552 1.61532 1.2541 0
M  V30 413 H 32.7102 1.16196 3.69564 0
M  V30 414 H 33.1242 3.34926 4.0364 0
M  V30 415 H 34.5982 2.03532 5.13107 0
M  V30 416 H 35.0752 0.524155 4.36061 0
M  V30 417 H 35.6812 2.06741 3.7167 0
M  V30 418 N 33.9963 -1.19345 1.0293 0
M  V30 419 C 35.2213 -1.93538 0.745511 0
M  V30 420 C 35.6463 -1.75007 -0.689511 0
M  V30 421 O 35.0043 -1.05265 -1.47611 0
M  V30 422 C 35.0523 -3.43336 1.10239 0
M  V30 423 O 34.1563 -4.11806 0.221289 0
M  V30 424 H 33.4973 -0.604193 0.275404 0
M  V30 425 H 36.0273 -1.5141 1.37609 0
M  V30 426 H 36.0373 -3.94004 1.05947 0
M  V30 427 H 34.7123 -3.56146 2.14786 0
M  V30 428 H 33.2893 -3.715 0.322842 0
M  V30 429 N 35.4744 -0.807222 -1.35358 0
M  V30 430 C 36.4064 -0.175717 -2.28525 0
M  V30 431 C 37.4194 0.625354 -1.5031 0
M  V30 432 O 38.6084 0.457611 -1.72535 0
M  V30 433 C 35.7084 0.773471 -3.29956 0
M  V30 434 C 34.8814 0.0186296 -4.37396 0
M  V30 435 C 33.9404 0.886395 -5.18681 0
M  V30 436 O 32.9664 0.337106 -5.68201 0
M  V30 437 N 34.1684 2.20839 -5.36852 0
M  V30 438 H 36.9334 -0.976091 -2.83359 0
M  V30 439 H 34.4944 -0.662737 -1.47714 0
M  V30 440 H 36.4864 1.35824 -3.81227 0
M  V30 441 H 35.0564 1.47465 -2.75632 0
M  V30 442 H 34.2764 -0.747349 -3.87051 0
M  V30 443 H 35.5644 -0.501577 -5.06322 0
M  V30 444 H 34.9624 2.67858 -4.98265 0
M  V30 445 H 33.5194 2.74237 -5.91301 0
M  V30 446 N 36.9525 1.47285 -0.560781 0
M  V30 447 C 37.8625 2.33846 0.187954 0
M  V30 448 C 38.8785 1.48412 0.908293 0
M  V30 449 O 40.0545 1.81332 0.876388 0
M  V30 450 C 37.1195 3.25178 1.2025 0
M  V30 451 C 36.1805 4.26504 0.489208 0
M  V30 452 C 35.4135 5.13472 1.45542 0
M  V30 453 O 35.6365 5.02959 2.6905 0
M  V30 454 O 34.5705 5.93902 0.977963 0
M  V30 455 H 38.3965 2.99177 -0.522177 0
M  V30 456 H 35.9815 1.45903 -0.321364 0
M  V30 457 H 37.8635 3.81584 1.78805 0
M  V30 458 H 36.5385 2.6247 1.89449 0
M  V30 459 H 35.4455 3.73847 -0.137627 0
M  V30 460 H 36.7785 4.91935 -0.161399 0
M  V30 461 N 38.4306 0.297415 1.54768 0
M  V30 462 C 39.7076 -0.365847 1.92148 0
M  V30 463 C 40.0876 -1.71975 1.22424 0
M  V30 464 O 39.4356 -2.25666 0.358739 0
M  V30 465 C 39.6456 -0.484056 3.45627 0
M  V30 466 C 40.9936 -0.756594 4.17805 0
M  V30 467 O 42.0176 -0.568007 3.51642 0
M  V30 468 O 40.8766 -1.11863 5.34929 0
M  V30 469 H 37.9706 -0.203919 0.801465 0
M  V30 470 H 40.5166 0.34521 1.66152 0
M  V30 471 H 39.2886 0.467865 3.88493 0
M  V30 472 H 38.9116 -1.24372 3.77647 0
M  V30 473 N 39.9087 -1.5758 0.0250728 0
M  V30 474 C 40.8387 -2.13007 -0.956575 0
M  V30 475 C 41.8197 -1.0452 -1.342 0
M  V30 476 O 43.0047 -1.32332 -1.42133 0
M  V30 477 C 40.1347 -2.65386 -2.24026 0
M  V30 478 C 39.0887 -3.78623 -1.99571 0
M  V30 479 C 38.4147 -4.17414 -3.3417 0
M  V30 480 C 39.7147 -5.04867 -1.33814 0
M  V30 481 H 41.4087 -2.9528 -0.494991 0
M  V30 482 H 38.9547 -1.42042 -0.236651 0
M  V30 483 H 40.9077 -3.02794 -2.93076 0
M  V30 484 H 39.6317 -1.80268 -2.72343 0
M  V30 485 H 38.2907 -3.41646 -1.32941 0
M  V30 486 H 37.9387 -3.29284 -3.80238 0
M  V30 487 H 37.6387 -4.93719 -3.18615 0
M  V30 488 H 39.1627 -4.57402 -4.04495 0
M  V30 489 H 40.5767 -5.39888 -1.92857 0
M  V30 490 H 38.9737 -5.86144 -1.28669 0
M  V30 491 H 40.0437 -4.83904 -0.310561 0
M  V30 492 N 41.3868 0.248026 -1.55636 0
M  V30 493 C 42.6328 0.97767 -1.77678 0
M  V30 494 C 42.9658 1.85016 -0.590135 0
M  V30 495 O 42.2408 1.90095 0.411611 0
M  V30 496 C 42.5238 1.83914 -3.09593 0
M  V30 497 C 42.3768 0.99491 -4.38659 0
M  V30 498 C 43.6958 2.82183 -3.37729 0
M  V30 499 H 40.8148 0.354005 -0.646413 0
M  V30 500 H 43.4568 0.248253 -1.88371 0
M  V30 501 H 41.6068 2.46104 -3.00608 0
M  V30 502 H 43.2788 0.391789 -4.59633 0
M  V30 503 H 41.5218 0.299231 -4.32767 0
M  V30 504 H 42.1928 1.63145 -5.2734 0
M  V30 505 H 44.6688 2.30129 -3.4667 0
M  V30 506 H 43.5448 3.39582 -4.31249 0
M  V30 507 H 43.8058 3.58588 -2.58586 0
M  V30 508 N 42.8649 1.48995 0.513639 0
M  V30 509 C 43.7749 1.67443 1.64317 0
M  V30 510 C 44.7909 0.556947 1.64846 0
M  V30 511 O 45.9669 0.830082 1.83498 0
M  V30 512 C 43.0319 1.72515 3.00732 0
M  V30 513 C 42.0929 2.96009 3.1093 0
M  V30 514 C 41.3259 3.00829 4.40837 0
M  V30 515 O 41.5489 2.13594 5.28898 0
M  V30 516 O 40.4829 3.93168 4.55744 0
M  V30 517 H 44.3089 2.63106 1.51687 0
M  V30 518 H 41.8939 1.32588 0.688543 0
M  V30 519 H 43.7759 1.78277 3.81831 0
M  V30 520 H 42.4509 0.800278 3.13651 0
M  V30 521 H 41.3579 2.9577 2.29065 0
M  V30 522 H 42.6909 3.87934 3.02933 0
M  V30 523 N 44.343 -0.763751 1.37857 0
M  V30 524 C 45.29 -1.87726 1.34267 0
M  V30 525 C 46.26 -1.64807 0.206879 0
M  V30 526 O 47.445 -1.86613 0.397508 0
M  V30 527 C 44.585 -3.24896 1.16346 0
M  V30 528 C 43.698 -3.59716 2.39225 0
M  V30 529 C 42.833 -4.86137 2.14114 0
M  V30 530 C 41.872 -5.13711 3.32817 0
M  V30 531 N 41.009 -6.31323 3.07206 0
M  V30 532 H 45.849 -1.90129 2.29466 0
M  V30 533 H 43.386 -0.929433 1.14017 0
M  V30 534 H 45.344 -4.04036 1.03975 0
M  V30 535 H 43.974 -3.21847 0.247909 0
M  V30 536 H 43.026 -2.75498 2.62307 0
M  V30 537 H 44.338 -3.76027 3.27728 0
M  V30 538 H 43.492 -5.73198 1.9882 0
M  V30 539 H 42.231 -4.71945 1.22961 0
M  V30 540 H 41.236 -4.25123 3.48641 0
M  V30 541 H 42.461 -5.29807 4.24832 0
M  V30 542 H 40.407 -6.18474 2.1869 0
M  V30 543 H 40.324 -6.48087 3.89254 0
M  V30 544 H 41.592 -7.213 2.95546 0
M  V30 545 N 45.8211 -1.22559 -0.990812 0
M  V30 546 C 46.7681 -0.997519 -2.0813 0
M  V30 547 C 47.7381 0.0814702 -1.659 0
M  V30 548 O 48.9231 -0.0685424 -1.90677 0
M  V30 549 C 46.0631 -0.583615 -3.40129 0
M  V30 550 C 45.1761 -1.7336 -3.9569 0
M  V30 551 C 44.3111 -1.26748 -5.15857 0
M  V30 552 C 43.3501 -2.38888 -5.63559 0
M  V30 553 N 42.4871 -1.93308 -6.74964 0
M  V30 554 H 47.3271 -1.93099 -2.26973 0
M  V30 555 H 44.8641 -0.962114 -1.11273 0
M  V30 556 H 46.8221 -0.324801 -4.15934 0
M  V30 557 H 45.4521 0.312845 -3.2128 0
M  V30 558 H 44.5041 -2.10669 -3.16738 0
M  V30 559 H 45.8161 -2.57704 -4.27071 0
M  V30 560 H 44.9701 -0.966173 -5.98957 0
M  V30 561 H 43.7091 -0.394272 -4.86104 0
M  V30 562 H 42.7141 -2.69805 -4.79046 0
M  V30 563 H 43.9391 -3.26728 -5.95336 0
M  V30 564 H 41.8851 -1.08352 -6.4699 0
M  V30 565 H 41.8021 -2.71217 -7.05675 0
M  V30 566 H 43.0701 -1.66252 -7.61564 0
M  V30 567 N 47.2992 1.18797 -1.03562 0
M  V30 568 C 48.5392 1.90346 -0.744832 0
M  V30 569 C 48.9032 1.78231 0.713972 0
M  V30 570 O 50.1042 2.44441 1.11813 0
M  V30 571 C 48.3752 3.36942 -1.19184 0
M  V30 572 S 49.9342 4.26638 -1.02593 0
M  V30 573 H 46.7522 0.657343 -0.270963 0
M  V30 574 H 49.3542 1.43579 -1.32685 0
M  V30 575 H 48.0582 3.43287 -2.24905 0
M  V30 576 H 47.5892 3.88745 -0.603397 0
M  V30 577 H 49.6042 4.96164 0.0596033 0
M  V30 578 N 48.7773 0.814389 1.34928 0
M  V30 579 C 49.7073 0.244827 2.32213 0
M  V30 580 C 50.6883 -0.634024 1.57842 0
M  V30 581 O 51.8733 -0.562676 1.8587 0
M  V30 582 C 49.0033 -0.601106 3.42058 0
M  V30 583 C 47.9573 0.179896 4.27622 0
M  V30 584 C 47.2833 -0.788237 5.28858 0
M  V30 585 C 48.5833 1.38329 5.03649 0
M  V30 586 H 50.2773 1.05763 2.80097 0
M  V30 587 H 47.8233 0.510029 1.34665 0
M  V30 588 H 49.7763 -1.00968 4.09125 0
M  V30 589 H 48.5003 -1.44688 2.92802 0
M  V30 590 H 47.1593 0.569739 3.62146 0
M  V30 591 H 46.8073 -1.62973 4.75866 0
M  V30 592 H 46.5073 -0.269942 5.8698 0
M  V30 593 H 48.0313 -1.19485 5.98795 0
M  V30 594 H 49.4453 1.04918 5.63618 0
M  V30 595 H 47.8423 1.83662 5.71304 0
M  V30 596 H 48.9123 2.16592 4.33839 0
M  V30 597 N 50.2554 -1.46986 0.568584 0
M  V30 598 C 51.2184 -2.28624 -0.162366 0
M  V30 599 C 52.2184 -1.37596 -0.832103 0
M  V30 600 O 53.4084 -1.60115 -0.68622 0
M  V30 601 C 50.5404 -3.17596 -1.23878 0
M  V30 602 H 51.7334 -2.94722 0.554899 0
M  V30 603 H 49.2864 -1.52863 0.325976 0
M  V30 604 H 50.0214 -2.56214 -1.98808 0
M  V30 605 H 49.8064 -3.846 -0.763219 0
M  V30 606 H 51.2964 -3.79078 -1.75185 0
M  V30 607 N 51.7335 -0.305618 -1.54608 0
M  V30 608 C 52.6805 0.568421 -2.23691 0
M  V30 609 C 53.6505 1.12592 -1.22116 0
M  V30 610 O 54.8355 1.16959 -1.50749 0
M  V30 611 C 51.9755 1.7322 -2.98477 0
M  V30 612 C 51.0885 1.20566 -4.14835 0
M  V30 613 C 50.2235 2.33368 -4.77193 0
M  V30 614 C 49.2625 1.7787 -5.85686 0
M  V30 615 N 48.3995 2.84263 -6.4198 0
M  V30 616 H 53.2395 -0.0272867 -2.97988 0
M  V30 617 H 50.7765 -0.0252363 -1.47078 0
M  V30 618 H 52.7345 2.41675 -3.40072 0
M  V30 619 H 51.3645 2.29947 -2.26548 0
M  V30 620 H 50.4165 0.413223 -3.78149 0
M  V30 621 H 51.7285 0.759417 -4.92985 0
M  V30 622 H 50.8825 3.09761 -5.21664 0
M  V30 623 H 49.6215 2.8132 -3.98385 0
M  V30 624 H 48.6265 0.99968 -5.40635 0
M  V30 625 H 49.8515 1.30816 -6.66381 0
M  V30 626 H 47.7975 3.31541 -5.66053 0
M  V30 627 H 47.7145 2.44149 -7.15491 0
M  V30 628 H 48.9825 3.6054 -6.91109 0
M  V30 629 N 53.2116 1.57565 -0.0334293 0
M  V30 630 C 54.1586 2.10478 0.946981 0
M  V30 631 C 55.1286 1.00787 1.32027 0
M  V30 632 O 56.3136 1.28232 1.41284 0
M  V30 633 C 53.4536 2.63994 2.22263 0
M  V30 634 C 52.5666 3.87709 1.90541 0
M  V30 635 C 51.7016 4.29604 3.12433 0
M  V30 636 C 50.7406 5.46065 2.76549 0
M  V30 637 N 49.8776 5.83096 3.9108 0
M  V30 638 H 54.7176 2.93963 0.488846 0
M  V30 639 H 52.2546 1.45296 0.22969 0
M  V30 640 H 54.2126 2.93114 2.96884 0
M  V30 641 H 52.8426 1.83333 2.65685 0
M  V30 642 H 51.8946 3.65291 1.06144 0
M  V30 643 H 53.2066 4.72403 1.60116 0
M  V30 644 H 52.3606 4.60182 3.9537 0
M  V30 645 H 51.0996 3.43685 3.46023 0
M  V30 646 H 50.1046 5.15176 1.92026 0
M  V30 647 H 51.3296 6.33685 2.44171 0
M  V30 648 H 49.2756 5.00132 4.24504 0
M  V30 649 H 49.1926 6.6244 3.64293 0
M  V30 650 H 50.4606 6.18282 4.74708 0
M  V30 651 N 54.6897 -0.239769 1.55765 0
M  V30 652 C 55.9197 -0.982743 1.8173 0
M  V30 653 C 56.3277 -1.7917 0.607835 0
M  V30 654 O 55.6707 -1.78525 -0.432973 0
M  V30 655 C 55.7327 -1.96332 3.01155 0
M  V30 656 C 55.3967 -1.34062 4.36894 0
M  V30 657 C 56.3937 -0.739539 5.14613 0
M  V30 658 C 54.0787 -1.35784 4.83599 0
M  V30 659 C 56.0727 -0.163989 6.37189 0
M  V30 660 C 53.7597 -0.778441 6.06122 0
M  V30 661 C 54.7577 -0.182548 6.82756 0
M  V30 662 O 54.4457 0.387887 8.02964 0
M  V30 663 H 54.1777 -0.294481 0.608487 0
M  V30 664 H 56.7317 -0.26572 2.03674 0
M  V30 665 H 54.9617 -2.71884 2.74984 0
M  V30 666 H 56.6507 -2.57032 3.14149 0
M  V30 667 H 57.4167 -0.718687 4.79646 0
M  V30 668 H 53.2957 -1.81105 4.23936 0
M  V30 669 H 56.8397 0.301753 6.96947 0
M  V30 670 H 52.7367 -0.796645 6.40565 0
M  V30 671 H 53.5047 0.28044 8.18019 0
M  V30 672 N 56.1678 -1.49265 -0.50573 0
M  V30 673 C 57.3958 -1.62215 -1.28429 0
M  V30 674 C 57.8108 -0.291697 -1.86533 0
M  V30 675 O 57.1678 0.722233 -1.67601 0
M  V30 676 C 57.2188 -2.68735 -2.41793 0
M  V30 677 O 56.9398 -3.96619 -1.86078 0
M  V30 678 C 58.4408 -2.92346 -3.3324 0
M  V30 679 H 55.6608 -0.546239 -0.389697 0
M  V30 680 H 58.2048 -1.95265 -0.607609 0
M  V30 681 H 56.3598 -2.38476 -3.053 0
M  V30 682 H 56.7738 -4.55256 -2.60465 0
M  V30 683 H 58.2478 -3.70623 -4.09075 0
M  V30 684 H 58.7248 -2.02081 -3.89948 0
M  V30 685 H 59.3308 -3.24003 -2.75503 0
M  V30 686 N 57.6459 0.756429 -1.3826 0
M  V30 687 C 58.5959 1.86069 -1.31766 0
M  V30 688 C 59.5799 1.59621 -0.202483 0
M  V30 689 O 60.7719 1.7149 -0.438211 0
M  V30 690 C 57.9009 3.23742 -1.1422 0
M  V30 691 C 56.9869 3.56091 -2.30348 0
M  V30 692 N 57.3779 3.59517 -3.55783 0
M  V30 693 C 55.6759 3.86341 -2.22838 0
M  V30 694 C 56.3769 3.89052 -4.32451 0
M  V30 695 N 55.3529 4.05736 -3.61772 0
M  V30 696 H 59.1549 1.86992 -2.26741 0
M  V30 697 H 56.6689 0.953643 -1.31451 0
M  V30 698 H 58.6659 4.02761 -1.07652 0
M  V30 699 H 57.3259 3.24073 -0.201763 0
M  V30 700 H 58.3369 3.41347 -3.89491 0
M  V30 701 H 55.0139 3.94404 -1.36937 0
M  V30 702 H 56.4039 3.98349 -5.4108 0
M  V30 703 N 59.124 1.23083 0.984299 0
M  V30 704 C 60.054 1.03292 2.09411 0
M  V30 705 C 61.035 -0.048923 1.7003 0
M  V30 706 O 62.22 0.114967 1.93859 0
M  V30 707 C 59.35 0.619155 3.41736 0
M  V30 708 C 58.304 1.64791 3.95004 0
M  V30 709 C 57.63 1.0897 5.23478 0
M  V30 710 C 58.93 3.03999 4.24714 0
M  V30 711 H 60.624 1.96119 2.26225 0
M  V30 712 H 58.17 0.944344 1.08711 0
M  V30 713 H 60.123 0.467777 4.18796 0
M  V30 714 H 58.847 -0.344786 3.24775 0
M  V30 715 H 57.506 1.78721 3.20085 0
M  V30 716 H 57.154 0.11686 5.02864 0
M  V30 717 H 56.854 1.77704 5.60085 0
M  V30 718 H 58.378 0.950093 6.03163 0
M  V30 719 H 59.792 2.93393 4.92538 0
M  V30 720 H 58.189 3.69936 4.72512 0
M  V30 721 H 59.259 3.53285 3.32142 0
M  V30 722 N 60.6021 -1.18246 1.0419 0
M  V30 723 C 61.8271 -1.92736 0.765996 0
M  V30 724 C 62.2521 -1.75728 -0.67091 0
M  V30 725 O 61.6101 -1.06825 -1.46486 0
M  V30 726 C 61.6581 -3.42148 1.13875 0
M  V30 727 O 60.7621 -4.11548 0.264954 0
M  V30 728 H 60.1031 -0.601238 0.281797 0
M  V30 729 H 62.6331 -1.49942 1.39207 0
M  V30 730 H 62.6431 -3.92858 1.1012 0
M  V30 731 H 61.3181 -3.53848 2.18551 0
M  V30 732 H 59.8951 -3.71137 0.362226 0
M  V30 733 N 62.0802 -0.821533 -1.34494 0
M  V30 734 C 63.3202 -0.414785 -2.00147 0
M  V30 735 C 63.6842 1.00299 -1.6372 0
M  V30 736 O 64.8852 1.51255 -2.22206 0
M  V30 737 C 63.1562 -0.609403 -3.52166 0
M  V30 738 S 64.7152 -0.295297 -4.37805 0
M  V30 739 H 61.5332 -0.15679 -0.693497 0
M  V30 740 H 64.1352 -1.06705 -1.63812 0
M  V30 741 H 62.8392 -1.64096 -3.76166 0
M  V30 742 H 62.3702 0.0576414 -3.93358 0
M  V30 743 H 64.3852 0.891531 -4.88125 0
M  V30 744 N 63.5583 1.46682 -0.576371 0
M  V30 745 C 64.8353 1.95599 0.00703437 0
M  V30 746 C 65.2153 1.51904 1.46589 0
M  V30 747 O 64.5633 0.766755 2.15251 0
M  V30 748 C 64.7733 3.4864 -0.158404 0
M  V30 749 C 66.1213 4.24594 -0.0229439 0
M  V30 750 O 67.1453 3.56094 -0.0869173 0
M  V30 751 O 66.0043 5.46373 0.118015 0
M  V30 752 H 63.0983 0.825275 0.053384 0
M  V30 753 H 65.6443 1.56996 -0.644244 0
M  V30 754 H 64.4163 3.7331 -1.17282 0
M  V30 755 H 64.0393 3.94057 0.5296 0
M  V30 756 N 65.0364 0.313813 1.54444 0
M  V30 757 C 65.9834 -0.55655 2.23989 0
M  V30 758 C 66.9534 -1.11943 1.22711 0
M  V30 759 O 68.1384 -1.16158 1.51367 0
M  V30 760 C 65.2784 -1.71635 2.99392 0
M  V30 761 C 64.3914 -1.18364 4.15468 0
M  V30 762 C 63.5264 -2.30834 4.78424 0
M  V30 763 C 62.5654 -1.74762 5.86622 0
M  V30 764 N 61.7024 -2.80855 6.43479 0
M  V30 765 H 66.5424 0.0430893 2.97969 0
M  V30 766 H 64.0794 0.0330359 1.47063 0
M  V30 767 H 66.0374 -2.39868 3.41349 0
M  V30 768 H 64.6674 -2.28742 2.27765 0
M  V30 769 H 63.7194 -0.393163 3.78363 0
M  V30 770 H 65.0314 -0.733262 4.93381 0
M  V30 771 H 64.1854 -3.0699 5.23299 0
M  V30 772 H 62.9244 -2.79204 3.99871 0
M  V30 773 H 61.9294 -0.970995 5.41158 0
M  V30 774 H 63.1544 -1.2728 6.67066 0
M  V30 775 H 61.1004 -3.28535 5.67804 0
M  V30 776 H 61.0174 -2.40351 7.16776 0
M  V30 777 H 62.2854 -3.5687 6.93011 0
M  V30 778 N 66.5145 -1.57545 0.0417849 0
M  V30 779 C 67.7605 -1.92601 -0.635021 0
M  V30 780 C 68.0935 -0.919627 -1.71045 0
M  V30 781 O 67.3685 0.0557892 -1.9442 0
M  V30 782 C 67.6515 -3.38085 -1.23979 0
M  V30 783 C 67.5045 -4.49467 -0.173057 0
M  V30 784 C 68.8235 -3.83776 -2.15416 0
M  V30 785 H 65.9425 -0.700397 -0.229374 0
M  V30 786 H 68.5845 -1.89728 0.101633 0
M  V30 787 H 66.7345 -3.40664 -1.86762 0
M  V30 788 H 68.4065 -4.59018 0.458312 0
M  V30 789 H 66.6495 -4.30909 0.499996 0
M  V30 790 H 67.3205 -5.48323 -0.636054 0
M  V30 791 H 69.7965 -3.83013 -1.62605 0
M  V30 792 H 68.6725 -4.8624 -2.54679 0
M  V30 793 H 68.9335 -3.19998 -3.05047 0
M  V30 794 N 67.9926 0.231505 -1.5589 0
M  V30 795 C 69.2396 0.957352 -1.78441 0
M  V30 796 C 69.5676 1.84726 -0.60882 0
M  V30 797 O 68.8226 1.91416 0.40725 0
M  V30 798 C 69.1216 1.83577 -3.0665 0
M  V30 799 C 68.7876 1.09993 -4.37278 0
M  V30 800 C 67.4496 0.896629 -4.72773 0
M  V30 801 C 69.8016 0.579558 -5.17968 0
M  V30 802 C 67.1296 0.160896 -5.86479 0
M  V30 803 C 69.4816 -0.142783 -6.32439 0
M  V30 804 C 68.1456 -0.357427 -6.66542 0
M  V30 805 H 67.4156 0.35032 -0.65296 0
M  V30 806 H 70.0626 0.226259 -1.90159 0
M  V30 807 H 68.3676 2.63441 -2.90011 0
M  V30 808 H 70.0646 2.39934 -3.21298 0
M  V30 809 H 66.6546 1.26835 -4.09403 0
M  V30 810 H 70.8386 0.724125 -4.90989 0
M  V30 811 H 66.0946 -0.0157293 -6.11398 0
M  V30 812 H 70.2686 -0.553559 -6.94196 0
M  V30 813 H 67.8956 -0.929466 -7.54497 0
M  V30 814 N 69.4707 1.49531 0.497807 0
M  V30 815 C 70.7107 1.60799 1.26187 0
M  V30 816 C 71.0747 0.289627 1.89803 0
M  V30 817 O 72.2757 0.277512 2.67364 0
M  V30 818 C 70.5467 2.73729 2.29798 0
M  V30 819 S 72.1057 3.04968 3.155 0
M  V30 820 H 68.9237 0.567145 0.428798 0
M  V30 821 H 71.5257 1.87204 0.563477 0
M  V30 822 H 70.2297 3.68036 1.81597 0
M  V30 823 H 69.7607 2.49328 3.04301 0
M  V30 824 H 71.7757 2.46735 4.30507 0
M  V30 825 N 70.9488 -0.749086 1.3866 0
M  V30 826 C 71.8808 -1.87273 1.32142 0
M  V30 827 C 72.8938 -1.61127 0.232787 0
M  V30 828 O 74.0828 -1.71623 0.49069 0
M  V30 829 C 71.1828 -3.23005 1.02571 0
M  V30 830 C 70.3558 -3.7662 2.22433 0
M  V30 831 C 69.4148 -4.90879 1.89537 0
M  V30 832 O 68.4408 -5.05276 2.62078 0
M  V30 833 N 69.6428 -5.74198 0.853031 0
M  V30 834 H 72.4078 -1.93373 2.28969 0
M  V30 835 H 69.9688 -0.929216 1.32579 0
M  V30 836 H 71.9608 -3.96992 0.786085 0
M  V30 837 H 70.5308 -3.12262 0.145249 0
M  V30 838 H 69.7508 -2.94147 2.62434 0
M  V30 839 H 71.0388 -4.09173 3.02415 0
M  V30 840 H 70.4368 -5.6514 0.25155 0
M  V30 841 H 68.9938 -6.48313 0.67329 0
M  V30 842 N 72.4269 -1.23603 -0.977757 0
M  V30 843 C 73.8379 -1.06424 -1.53398 0
M  V30 844 C 74.1889 0.367578 -1.92726 0
M  V30 845 O 73.3139 1.25465 -1.76316 0
M  V30 846 C 73.9089 -1.92568 -2.78753 0
M  V30 847 C 72.4679 -1.79642 -3.30765 0
M  V30 848 C 71.6149 -1.88111 -2.03739 0
M  V30 849 H 74.5659 -1.37227 -0.797152 0
M  V30 850 H 74.5869 -1.45203 -3.51705 0
M  V30 851 H 74.0989 -2.96771 -2.50098 0
M  V30 852 H 72.1999 -0.782325 -3.64294 0
M  V30 853 H 72.3129 -2.63174 -4.00345 0
M  V30 854 H 70.6769 -1.31723 -2.17994 0
M  V30 855 H 71.4599 -2.93875 -1.77461 0
M  V30 856 N 73.905 1.17692 -1.04816 0
M  V30 857 C 75.151 1.88389 -0.766892 0
M  V30 858 C 75.506 1.79282 0.698269 0
M  V30 859 O 74.799 1.18739 1.50372 0
M  V30 860 C 74.993 3.37462 -1.17703 0
M  V30 861 C 74.822 3.6108 -2.68051 0
M  V30 862 C 73.592 3.78018 -3.35307 0
M  V30 863 C 75.79 3.61039 -3.66273 0
M  V30 864 N 73.772 3.89444 -4.74559 0
M  V30 865 C 75.143 3.78269 -4.91235 0
M  V30 866 C 77.198 3.44168 -3.59796 0
M  V30 867 C 75.901 3.80376 -6.10497 0
M  V30 868 C 77.927 3.4756 -4.78493 0
M  V30 869 C 77.289 3.65295 -6.02278 0
M  V30 870 H 73.388 0.707651 -0.332798 0
M  V30 871 H 75.972 1.41314 -1.33934 0
M  V30 872 H 74.143 3.83214 -0.63257 0
M  V30 873 H 75.875 3.95759 -0.845989 0
M  V30 874 H 72.63 3.77714 -2.85708 0
M  V30 875 H 73.054 3.98962 -5.46954 0
M  V30 876 H 77.696 3.29396 -2.65062 0
M  V30 877 H 75.414 3.93933 -7.05579 0
M  V30 878 H 79 3.3577 -4.75131 0
M  V30 879 H 77.88 3.6782 -6.92588 0
M  V30 880 N 75.3831 0.828654 1.34056 0
M  V30 881 C 76.3151 0.212052 2.28217 0
M  V30 882 C 77.3281 -0.601362 1.51286 0
M  V30 883 O 78.5171 -0.430104 1.73241 0
M  V30 884 C 75.6171 -0.72088 3.31144 0
M  V30 885 C 74.7901 0.0509587 4.3737 0
M  V30 886 C 73.8491 -0.803766 5.20025 0
M  V30 887 O 72.8751 -0.246667 5.68665 0
M  V30 888 N 74.0771 -2.1227 5.40298 0
M  V30 889 H 76.8421 1.02105 2.81771 0
M  V30 890 H 74.4031 0.686153 1.46641 0
M  V30 891 H 76.3951 -1.29742 3.8334 0
M  V30 892 H 74.9651 -1.43061 2.77943 0
M  V30 893 H 74.1851 0.808831 3.85813 0
M  V30 894 H 75.4731 0.582065 5.0546 0
M  V30 895 H 74.8711 -2.59898 5.02464 0
M  V30 896 H 73.4281 -2.64796 5.95589 0
M  V30 897 N 76.8612 -1.46375 0.584142 0
M  V30 898 C 78.2772 -1.57694 0.245929 0
M  V30 899 C 78.4772 -1.57903 -1.25175 0
M  V30 900 O 77.5332 -1.49676 -2.03355 0
M  V30 901 C 78.8462 -2.87028 0.896402 0
M  V30 902 C 80.3942 -3.00662 0.870127 0
M  V30 903 C 80.8692 -4.32734 1.50017 0
M  V30 904 N 82.3602 -4.39436 1.46458 0
M  V30 905 C 83.0952 -5.40248 1.92144 0
M  V30 906 N 82.5912 -6.47726 2.4581 0
M  V30 907 N 84.3842 -5.31459 1.83052 0
M  V30 908 H 76.5352 -1.44483 1.55687 0
M  V30 909 H 78.7982 -0.689291 0.650831 0
M  V30 910 H 78.5042 -2.9269 1.95002 0
M  V30 911 H 78.3782 -3.75014 0.405486 0
M  V30 912 H 80.7652 -2.94581 -0.174871 0
M  V30 913 H 80.8462 -2.14148 1.39908 0
M  V30 914 H 80.4902 -4.39573 2.54437 0
M  V30 915 H 80.4202 -5.18025 0.946432 0
M  V30 916 H 82.9112 -3.62367 1.07231 0
M  V30 917 H 83.2242 -7.20863 2.78525 0
M  V30 918 H 81.5692 -6.48542 2.49836 0
M  V30 919 H 84.7602 -4.46396 1.40883 0
M  V30 920 H 84.9332 -6.09881 2.18973 0
M  V30 921 N 78.3393 -0.321999 -1.54275 0
M  V30 922 C 79.5793 0.281657 -2.0245 0
M  V30 923 C 79.9433 1.49468 -1.20513 0
M  V30 924 O 81.1443 2.17109 -1.58484 0
M  V30 925 C 79.4153 0.609014 -3.52173 0
M  V30 926 S 80.9743 1.19255 -4.22284 0
M  V30 927 H 77.7923 0.0852825 -0.705867 0
M  V30 928 H 80.3943 -0.454758 -1.90137 0
M  V30 929 H 79.0983 -0.281982 -4.0943 0
M  V30 930 H 78.6293 1.37567 -3.68563 0
M  V30 931 H 80.6443 2.47944 -4.29812 0
M  V30 932 N 79.8174 1.5752 -0.0501392 0
M  V30 933 C 81.0664 1.91827 0.623328 0
M  V30 934 C 81.3794 0.930222 1.72065 0
M  V30 935 O 82.5854 1.1653 2.4522 0
M  V30 936 C 81.0414 3.40692 1.16003 0
M  V30 937 C 80.6494 4.479 0.0948811 0
M  V30 938 C 82.3934 3.84034 1.80881 0
M  V30 939 C 80.3004 5.87879 0.644411 0
M  V30 940 H 79.2304 0.715918 0.236596 0
M  V30 941 H 81.8814 1.83115 -0.118861 0
M  V30 942 H 80.2634 3.44405 1.9545 0
M  V30 943 H 81.4374 4.55775 -0.678675 0
M  V30 944 H 79.7524 4.13892 -0.45637 0
M  V30 945 H 82.3494 4.85984 2.22988 0
M  V30 946 H 82.6924 3.20225 2.6601 0
M  V30 947 H 83.2254 3.82833 1.0809 0
M  V30 948 H 79.9644 6.55282 -0.169229 0
M  V30 949 H 79.4844 5.83567 1.38598 0
M  V30 950 H 81.1634 6.37098 1.12763 0
M  V30 951 N 81.2955 -0.223234 1.56011 0
M  V30 952 C 82.2055 -1.29766 1.95443 0
M  V30 953 C 83.2215 -1.51373 0.858028 0
M  V30 954 O 84.3975 -1.64536 1.16146 0
M  V30 955 C 81.4625 -2.62772 2.26167 0
M  V30 956 C 80.5235 -2.49482 3.49367 0
M  V30 957 C 79.7565 -3.76145 3.78616 0
M  V30 958 O 79.9795 -4.79087 3.09568 0
M  V30 959 O 78.9135 -3.73358 4.72109 0
M  V30 960 H 82.7395 -0.99309 2.87004 0
M  V30 961 H 80.3245 -0.425958 1.43199 0
M  V30 962 H 82.2065 -3.41327 2.47131 0
M  V30 963 H 80.8815 -2.92913 1.37781 0
M  V30 964 H 79.7885 -1.69133 3.33684 0
M  V30 965 H 81.1215 -2.2428 4.38131 0
M  V30 966 N 82.7736 -1.49793 -0.48987 0
M  V30 967 C 84.0216 -1.59525 -1.24081 0
M  V30 968 C 84.3426 -0.288953 -1.92847 0
M  V30 969 O 83.6126 0.692436 -1.83254 0
M  V30 970 H 82.1926 -0.587796 -0.460983 0
M  V30 971 H 84.8546 -1.86477 -0.566778 0
M  V30 972 H 83.9506 -2.39696 -1.99881 0
M  V30 973 N 84.2517 0.741722 -1.39055 0
M  V30 974 C 85.4797 1.53098 -1.39171 0
M  V30 975 C 85.8947 1.88794 0.0155099 0
M  V30 976 O 85.2517 1.53626 0.985159 0
M  V30 977 C 85.3027 2.82274 -2.2584 0
M  V30 978 O 85.0237 2.48097 -3.61081 0
M  V30 979 C 86.5247 3.76343 -2.34266 0
M  V30 980 H 83.7447 0.473335 -0.4756 0
M  V30 981 H 86.2887 0.917045 -1.82785 0
M  V30 982 H 84.4437 3.40015 -1.85656 0
M  V30 983 H 84.8577 3.31029 -4.06842 0
M  V30 984 H 86.3317 4.63898 -2.9917 0
M  V30 985 H 86.8087 4.17619 -1.35982 0
M  V30 986 H 87.4147 3.24523 -2.74891 0
M  V30 987 N 85.7298 1.2412 0.971189 0
M  V30 988 C 86.9698 1.09066 1.7287 0
M  V30 989 C 87.3338 -0.364794 1.88503 0
M  V30 990 O 88.5348 -0.636748 2.61149 0
M  V30 991 C 86.8058 1.80629 3.08396 0
M  V30 992 S 88.3648 1.81263 3.99611 0
M  V30 993 H 85.1828 0.390145 0.594397 0
M  V30 994 H 87.7848 1.57397 1.15959 0
M  V30 995 H 86.4888 2.85647 2.94676 0
M  V30 996 H 86.0198 1.32617 3.70373 0
M  V30 997 H 88.0348 0.877804 4.88374 0
M  V30 998 N 87.2079 -1.17134 1.05439 0
M  V30 999 C 88.4539 -1.87733 0.767077 0
M  V30 1000 C 88.7869 -1.8098 -0.704253 0
M  V30 1001 O 88.0619 -1.21951 -1.5152 0
M  V30 1002 C 88.3449 -3.37659 1.25133 0
M  V30 1003 C 88.1979 -3.53149 2.78578 0
M  V30 1004 C 89.5169 -4.31768 0.852324 0
M  V30 1005 H 86.6359 -0.681687 0.280129 0
M  V30 1006 H 89.2779 -1.37732 1.30881 0
M  V30 1007 H 87.4279 -3.80373 0.790469 0
M  V30 1008 H 89.0999 -3.19434 3.32806 0
M  V30 1009 H 87.3429 -2.95345 3.17732 0
M  V30 1010 H 88.0139 -4.58403 3.07523 0
M  V30 1011 H 90.4899 -3.96909 1.24911 0
M  V30 1012 H 89.3659 -5.35199 1.21873 0
M  V30 1013 H 89.6269 -4.41429 -0.243485 0
M  V30 1014 N 88.686 -0.835752 -1.33615 0
M  V30 1015 C 89.926 -0.43599 -1.99696 0
M  V30 1016 C 90.29 0.98557 -1.64774 0
M  V30 1017 O 91.491 1.48889 -2.23798 0
M  V30 1018 C 89.762 -0.646721 -3.515 0
M  V30 1019 S 91.321 -0.341715 -4.37467 0
M  V30 1020 H 88.139 -0.164136 -0.691795 0
M  V30 1021 H 90.741 -1.08436 -1.62671 0
M  V30 1022 H 89.445 -1.68077 -3.74404 0
M  V30 1023 H 88.976 0.0159173 -3.93397 0
M  V30 1024 H 90.991 0.839708 -4.89043 0
M  V30 1025 N 90.1641 1.46063 -0.591896 0
M  V30 1026 C 91.1111 2.30399 0.136069 0
M  V30 1027 C 92.0811 1.41169 0.875238 0
M  V30 1028 O 93.2661 1.70112 0.86409 0
M  V30 1029 C 90.4061 3.25804 1.13781 0
M  V30 1030 C 89.5191 4.30134 0.401137 0
M  V30 1031 C 88.6541 5.12659 1.39121 0
M  V30 1032 C 87.6931 6.0873 0.641462 0
M  V30 1033 N 86.8301 6.8409 1.58004 0
M  V30 1034 H 91.6701 2.92118 -0.589144 0
M  V30 1035 H 89.2071 1.43959 -0.302342 0
M  V30 1036 H 91.1651 3.79569 1.73156 0
M  V30 1037 H 89.7951 2.65872 1.83062 0
M  V30 1038 H 88.8471 3.79152 -0.307826 0
M  V30 1039 H 90.1591 4.98458 -0.184565 0
M  V30 1040 H 89.3131 5.70747 2.05749 0
M  V30 1041 H 88.0521 4.44316 2.01084 0
M  V30 1042 H 87.0571 5.49786 -0.0385419 0
M  V30 1043 H 88.2821 6.79095 0.0270945 0
M  V30 1044 H 86.2281 6.18449 2.18761 0
M  V30 1045 H 86.1451 7.48709 1.04738 0
M  V30 1046 H 87.4131 7.4673 2.23639 0
M  V30 1047 N 91.6422 0.330177 1.54103 0
M  V30 1048 C 92.5722 -0.525353 2.27513 0
M  V30 1049 C 93.5532 -1.11383 1.2856 0
M  V30 1050 O 94.7382 -1.13773 1.57383 0
M  V30 1051 C 91.8682 -1.6831 3.03791 0
M  V30 1052 C 90.8222 -1.2236 4.10137 0
M  V30 1053 C 90.1482 -2.46882 4.74293 0
M  V30 1054 C 91.4482 -0.333697 5.21233 0
M  V30 1055 H 93.1422 0.087013 2.99274 0
M  V30 1056 H 90.6882 0.0432893 1.43935 0
M  V30 1057 H 92.6412 -2.28795 3.5388 0
M  V30 1058 H 91.3652 -2.32216 2.29659 0
M  V30 1059 H 90.0242 -0.64165 3.60941 0
M  V30 1060 H 89.6722 -3.09165 3.96769 0
M  V30 1061 H 89.3722 -2.16825 5.46133 0
M  V30 1062 H 90.8962 -3.08117 5.27159 0
M  V30 1063 H 92.3102 -0.845013 5.67038 0
M  V30 1064 H 90.7072 -0.125612 5.99969 0
M  V30 1065 H 91.7772 0.633724 4.80741 0
M  V30 1066 N 93.1203 -1.57491 0.0584922 0
M  V30 1067 C 94.5313 -1.80526 -0.476138 0
M  V30 1068 C 94.8823 -0.971334 -1.70469 0
M  V30 1069 O 94.0073 -0.190012 -2.15564 0
M  V30 1070 C 94.6023 -3.27424 -0.870587 0
M  V30 1071 C 93.1613 -3.51351 -1.35015 0
M  V30 1072 C 92.3083 -2.75343 -0.32887 0
M  V30 1073 H 95.2593 -1.56133 0.284312 0
M  V30 1074 H 95.2803 -3.38745 -1.73299 0
M  V30 1075 H 94.7923 -3.88093 0.0237627 0
M  V30 1076 H 92.8933 -2.95971 -2.26345 0
M  V30 1077 H 93.0063 -4.60059 -1.33726 0
M  V30 1078 H 91.3703 -2.417 -0.803321 0
M  V30 1079 H 92.1533 -3.38743 0.557521 0
M  V30 1080 N 94.5984 0.214957 -1.56127 0
M  V30 1081 C 95.8284 0.953707 -1.8327 0
M  V30 1082 C 96.2364 1.78181 -0.636262 0
M  V30 1083 O 95.5794 1.79191 0.404516 0
M  V30 1084 C 95.6414 1.91516 -3.0424 0
M  V30 1085 C 95.3054 1.27094 -4.38972 0
M  V30 1086 C 96.3024 0.657575 -5.15725 0
M  V30 1087 C 93.9874 1.28073 -4.85698 0
M  V30 1088 C 95.9814 0.0625968 -6.37369 0
M  V30 1089 C 93.6684 0.681914 -6.07283 0
M  V30 1090 C 94.6664 0.0739046 -6.8296 0
M  V30 1091 O 94.3544 -0.515582 -8.02245 0
M  V30 1092 H 94.0864 0.284764 -0.613095 0
M  V30 1093 H 96.6404 0.233283 -2.04071 0
M  V30 1094 H 94.8704 2.67475 -2.79274 0
M  V30 1095 H 96.5594 2.52001 -3.18198 0
M  V30 1096 H 97.3254 0.642288 -4.80728 0
M  V30 1097 H 93.2044 1.74337 -4.26764 0
M  V30 1098 H 96.7484 -0.412593 -6.96379 0
M  V30 1099 H 92.6454 0.694636 -6.41752 0
M  V30 1100 H 93.4134 -0.410544 -8.1747 0
M  V30 1101 N 96.0765 1.50051 0.48192 0
M  V30 1102 C 97.0085 1.64263 1.59844 0
M  V30 1103 C 98.0215 0.52451 1.54119 0
M  V30 1104 O 99.2105 0.797293 1.59704 0
M  V30 1105 C 96.3105 1.60102 2.98698 0
M  V30 1106 C 95.4835 2.87767 3.29407 0
M  V30 1107 C 94.5425 2.76397 4.47762 0
M  V30 1108 O 93.5685 3.50348 4.48603 0
M  V30 1109 N 94.7705 1.89222 5.48794 0
M  V30 1110 H 97.5355 2.60566 1.48073 0
M  V30 1111 H 95.0965 1.47379 0.670149 0
M  V30 1112 H 97.0885 1.50123 3.75826 0
M  V30 1113 H 95.6585 0.715798 3.04294 0
M  V30 1114 H 94.8785 3.11954 2.40994 0
M  V30 1115 H 96.1665 3.72365 3.4673 0
M  V30 1116 H 95.5645 1.28434 5.50928 0
M  V30 1117 H 94.1215 1.85154 6.24949 0
M  V30 1118 N 97.5546 -0.734337 1.39446 0
M  V30 1119 C 98.7946 -1.50655 1.38139 0
M  V30 1120 C 99.1586 -1.91986 -0.0228701 0
M  V30 1121 O 100.36 -2.68318 -0.160947 0
M  V30 1122 C 98.6306 -2.71251 2.32718 0
M  V30 1123 S 100.19 -3.60892 2.49605 0
M  V30 1124 H 97.0076 -0.515315 0.489869 0
M  V30 1125 H 99.6096 -0.860392 1.75549 0
M  V30 1126 H 98.3136 -2.39027 3.33608 0
M  V30 1127 H 97.8446 -3.40795 1.96526 0
M  V30 1128 H 99.8596 -4.64899 1.73446 0
M  V30 1129 N 99.0327 -1.24633 -0.964593 0
M  V30 1130 C 100.444 -1.08045 -1.5226 0
M  V30 1131 C 100.795 0.347116 -1.93105 0
M  V30 1132 O 99.9197 1.23588 -1.77637 0
M  V30 1133 C 100.515 -1.95514 -2.76695 0
M  V30 1134 C 99.0737 -1.8314 -3.28841 0
M  V30 1135 C 98.2207 -1.90262 -2.01732 0
M  V30 1136 H 101.172 -1.38064 -0.782553 0
M  V30 1137 H 101.193 -1.48925 -3.50145 0
M  V30 1138 H 100.705 -2.99407 -2.46936 0
M  V30 1139 H 98.8057 -0.82092 -3.63444 0
M  V30 1140 H 98.9187 -2.67406 -3.97531 0
M  V30 1141 H 97.2827 -1.34027 -2.16584 0
M  V30 1142 H 98.0657 -2.9574 -1.74334 0
M  V30 1143 N 100.511 1.16574 -1.06058 0
M  V30 1144 C 101.458 2.20883 -0.669263 0
M  V30 1145 C 102.428 1.62729 0.332918 0
M  V30 1146 O 103.613 1.895 0.222346 0
M  V30 1147 C 100.753 3.45049 -0.0593572 0
M  V30 1148 C 99.8658 4.17458 -1.11143 0
M  V30 1149 C 99.0008 5.29135 -0.467916 0
M  V30 1150 C 98.0398 5.93343 -1.50369 0
M  V30 1151 N 97.1768 6.96516 -0.883706 0
M  V30 1152 H 102.017 2.53709 -1.5632 0
M  V30 1153 H 99.5538 1.24616 -0.781625 0
M  V30 1154 H 101.512 4.16033 0.311771 0
M  V30 1155 H 100.142 3.12781 0.797992 0
M  V30 1156 H 99.1938 3.45101 -1.60029 0
M  V30 1157 H 100.506 4.61307 -1.89731 0
M  V30 1158 H 99.6598 6.06684 -0.0436871 0
M  V30 1159 H 98.3988 4.86443 0.349864 0
M  V30 1160 H 97.4038 5.14517 -1.93784 0
M  V30 1161 H 98.6288 6.38114 -2.32352 0
M  V30 1162 H 96.5748 6.55943 -0.086595 0
M  V30 1163 H 96.4918 7.38723 -1.607 0
M  V30 1164 H 97.7598 7.77993 -0.484543 0
M  V30 1165 N 101.989 0.842826 1.3317 0
M  V30 1166 C 102.937 0.267495 2.31057 0
M  V30 1167 C 103.931 -0.602682 1.58316 0
M  V30 1168 O 105.137 -0.491803 1.73151 0
M  V30 1169 H 101.512 0.0677813 0.748939 0
M  V30 1170 H 103.483 1.10754 2.77085 0
M  V30 1171 C 102.232 -0.539331 3.43492 0
M  V30 1172 H 101.555 0.12095 3.99617 0
M  V30 1173 H 102.995 -0.90767 4.14171 0
M  V30 1174 C 101.454 -1.71981 2.89697 0
M  V30 1175 O 101.984 -2.81862 2.86211 0
M  V30 1176 N 100.19 -1.54299 2.46252 0
M  V30 1177 H 99.7369 -0.649143 2.49287 0
M  V30 1178 H 99.6949 -2.33431 2.10612 0
M  V30 1179 N 103.467 -1.45747 0.599634 0
M  V30 1180 C 104.715 -2.01893 0.0915472 0
M  V30 1181 C 105.036 -1.47155 -1.27946 0
M  V30 1182 O 104.306 -0.66273 -1.84349 0
M  V30 1183 H 102.886 -0.746363 0.0308524 0
M  V30 1184 H 105.548 -1.78645 0.779237 0
M  V30 1185 H 104.644 -3.1208 0.0353086 0
M  V30 1186 N 104.945 -0.338344 -1.53925 0
M  V30 1187 C 106.173 0.261298 -2.05243 0
M  V30 1188 C 106.588 1.44625 -1.21363 0
M  V30 1189 O 105.945 1.80811 -0.247736 0
M  V30 1190 C 105.996 0.681412 -3.5502 0
M  V30 1191 O 105.717 -0.456414 -4.35716 0
M  V30 1192 C 107.218 1.34232 -4.22489 0
M  V30 1193 H 104.438 0.0513685 -0.669031 0
M  V30 1194 H 106.982 -0.488822 -1.98572 0
M  V30 1195 H 105.137 1.38148 -3.61931 0
M  V30 1196 H 105.551 -0.122564 -5.24357 0
M  V30 1197 H 107.025 1.58708 -5.28693 0
M  V30 1198 H 107.502 2.29426 -3.74514 0
M  V30 1199 H 108.108 0.684424 -4.19757 0
M  V30 1200 N 106.423 1.57458 -0.0668435 0
M  V30 1201 C 107.386 2.11323 0.887422 0
M  V30 1202 C 108.386 1.03618 1.22964 0
M  V30 1203 O 109.576 1.29626 1.16373 0
M  V30 1204 C 106.708 2.61048 2.19242 0
M  V30 1205 H 107.901 2.96942 0.420194 0
M  V30 1206 H 105.454 1.55239 0.181793 0
M  V30 1207 H 106.189 1.78868 2.70512 0
M  V30 1208 H 105.974 3.39769 1.95702 0
M  V30 1209 H 107.464 3.02814 2.87565 0
M  V30 1210 N 107.901 -0.206675 1.56239 0
M  V30 1211 C 109.147 -0.930218 1.80208 0
M  V30 1212 C 109.48 -1.83387 0.638981 0
M  V30 1213 O 108.755 -1.91119 -0.361066 0
M  V30 1214 C 109.038 -1.75641 3.1436 0
M  V30 1215 C 108.891 -0.878257 4.41142 0
M  V30 1216 C 110.21 -2.73129 3.45092 0
M  V30 1217 H 107.329 -0.336742 0.655571 0
M  V30 1218 H 109.971 -0.198222 1.88963 0
M  V30 1219 H 108.121 -2.38048 3.07027 0
M  V30 1220 H 109.793 -0.269787 4.6051 0
M  V30 1221 H 108.036 -0.184385 4.33408 0
M  V30 1222 H 108.707 -1.49106 5.3148 0
M  V30 1223 H 111.183 -2.20856 3.52649 0
M  V30 1224 H 110.059 -3.28028 4.40101 0
M  V30 1225 H 110.32 -3.51606 2.68003 0
M  V30 1226 N 109.379 -1.50304 -0.473955 0
M  V30 1227 C 110.619 -1.62786 -1.23612 0
M  V30 1228 C 110.983 -0.319786 -1.89318 0
M  V30 1229 O 112.184 -0.320012 -2.66888 0
M  V30 1230 C 110.455 -2.77351 -2.25414 0
M  V30 1231 S 112.014 -3.09948 -3.10608 0
M  V30 1232 H 108.832 -0.573895 -0.419721 0
M  V30 1233 H 111.434 -1.88076 -0.533623 0
M  V30 1234 H 110.138 -3.70879 -1.75719 0
M  V30 1235 H 109.669 -2.54137 -3.00296 0
M  V30 1236 H 111.684 -2.53553 -4.26527 0
M  V30 1237 N 110.857 0.726932 -1.39834 0
M  V30 1238 C 111.82 1.82269 -1.38962 0
M  V30 1239 C 112.82 1.58248 -0.285334 0
M  V30 1240 O 114.01 1.65499 -0.54366 0
M  V30 1241 C 111.142 3.20186 -1.17019 0
M  V30 1242 H 112.335 1.84443 -2.36476 0
M  V30 1243 H 109.888 0.931416 -1.25516 0
M  V30 1244 H 110.623 3.23669 -0.202204 0
M  V30 1245 H 110.408 3.3902 -1.96998 0
M  V30 1246 H 111.898 4.00235 -1.1917 0
M  V30 1247 N 112.336 1.25143 0.95797 0
M  V30 1248 C 113.564 1.12424 1.73691 0
M  V30 1249 C 113.979 -0.322304 1.86029 0
M  V30 1250 O 113.336 -1.22186 1.35561 0
M  V30 1251 C 113.387 1.76933 3.15241 0
M  V30 1252 O 113.108 3.15932 3.03511 0
M  V30 1253 C 114.609 1.6995 4.09429 0
M  V30 1254 H 111.829 0.3923 0.544373 0
M  V30 1255 H 114.373 1.6544 1.20207 0
M  V30 1256 H 112.528 1.27895 3.6568 0
M  V30 1257 H 112.942 3.47598 3.9278 0
M  V30 1258 H 114.416 2.19753 5.06372 0
M  V30 1259 H 114.893 0.662619 4.34173 0
M  V30 1260 H 115.499 2.18461 3.64904 0
M  V30 1261 N 113.814 -1.1601 1.06675 0
M  V30 1262 C 114.762 -2.22586 0.675157 0
M  V30 1263 C 115.756 -1.66525 -0.310766 0
M  V30 1264 O 116.962 -1.79145 -0.175215 0
M  V30 1265 H 113.337 -0.724855 0.200223 0
M  V30 1266 H 115.308 -2.52899 1.58381 0
M  V30 1267 C 114.057 -3.47604 0.0817162 0
M  V30 1268 H 113.38 -3.91058 0.831484 0
M  V30 1269 H 114.82 -4.23718 -0.154708 0
M  V30 1270 C 113.279 -3.15718 -1.17576 0
M  V30 1271 O 113.809 -3.31878 -2.26318 0
M  V30 1272 N 112.015 -2.69816 -1.07923 0
M  V30 1273 H 111.562 -2.56866 -0.194293 0
M  V30 1274 H 111.52 -2.48855 -1.92141 0
M  V30 1275 N 115.292 -0.849877 -1.32721 0
M  V30 1276 C 116.708 -0.539102 -1.50219 0
M  V30 1277 C 116.908 0.931271 -1.78689 0
M  V30 1278 O 115.964 1.71455 -1.85363 0
M  V30 1279 C 117.277 -1.42196 -2.64954 0
M  V30 1280 C 118.825 -1.42189 -2.78839 0
M  V30 1281 C 119.3 -2.28985 -3.96648 0
M  V30 1282 N 120.791 -2.26754 -4.03902 0
M  V30 1283 C 121.526 -2.90644 -4.94281 0
M  V30 1284 N 121.022 -3.63629 -5.897 0
M  V30 1285 N 122.815 -2.80057 -4.87365 0
M  V30 1286 H 114.966 -1.80156 -1.12506 0
M  V30 1287 H 117.229 -0.769217 -0.554085 0
M  V30 1288 H 116.935 -2.46733 -2.50631 0
M  V30 1289 H 116.809 -1.10591 -3.60624 0
M  V30 1290 H 119.196 -0.38419 -2.92588 0
M  V30 1291 H 119.277 -1.77807 -1.83898 0
M  V30 1292 H 118.921 -3.32819 -3.83658 0
M  V30 1293 H 118.851 -1.90702 -4.90857 0
M  V30 1294 H 121.342 -1.73688 -3.3562 0
M  V30 1295 H 121.655 -4.09558 -6.55349 0
M  V30 1296 H 120 -3.67737 -5.89741 0
M  V30 1297 H 123.191 -2.22593 -4.11789 0
M  V30 1298 H 123.364 -3.30132 -5.57599 0
M  V30 1299 N 116.77 1.45427 -0.607355 0
M  V30 1300 C 118.186 1.57283 -0.270985 0
M  V30 1301 C 118.386 1.59875 1.22647 0
M  V30 1302 O 117.442 1.52893 2.00948 0
M  V30 1303 C 118.755 2.85566 -0.941952 0
M  V30 1304 C 120.303 2.9924 -0.917849 0
M  V30 1305 C 120.778 4.30293 -1.56882 0
M  V30 1306 N 122.269 4.37051 -1.5343 0
M  V30 1307 C 123.004 5.37123 -2.00715 0
M  V30 1308 N 122.5 6.43734 -2.56084 0
M  V30 1309 N 124.293 5.28479 -1.91484 0
M  V30 1310 H 116.444 1.41988 -1.57966 0
M  V30 1311 H 118.707 0.67885 -0.661715 0
M  V30 1312 H 118.413 2.8955 -1.99633 0
M  V30 1313 H 118.287 3.74322 -0.465096 0
M  V30 1314 H 120.674 2.94822 0.127984 0
M  V30 1315 H 120.755 2.11895 -1.43297 0
M  V30 1316 H 120.399 4.35469 -2.61398 0
M  V30 1317 H 120.329 5.16454 -1.02873 0
M  V30 1318 H 122.82 3.60615 -1.12982 0
M  V30 1319 H 123.133 7.16341 -2.89958 0
M  V30 1320 H 121.478 6.44485 -2.60122 0
M  V30 1321 H 124.669 4.44098 -1.47967 0
M  V30 1322 H 124.842 6.0632 -2.28648 0
M  V30 1323 N 118.248 0.346503 1.53744 0
M  V30 1324 C 119.473 -0.253074 2.0585 0
M  V30 1325 C 119.898 -1.43202 1.21962 0
M  V30 1326 O 119.256 -1.79783 0.234073 0
M  V30 1327 C 119.304 -0.643193 3.54817 0
M  V30 1328 O 118.408 -1.74286 3.73762 0
M  V30 1329 H 117.749 -0.0413583 0.662711 0
M  V30 1330 H 120.279 0.501574 1.98357 0
M  V30 1331 H 120.289 -0.919526 3.97503 0
M  V30 1332 H 118.964 0.218966 4.15323 0
M  V30 1333 H 117.541 -1.46356 3.42979 0
M  V30 1334 N 119.726 -1.57421 0.075193 0
M  V30 1335 C 120.973 -1.93618 -0.593146 0
M  V30 1336 C 121.301 -0.955484 -1.69413 0
M  V30 1337 O 120.556 0.0283251 -1.9568 0
M  V30 1338 C 120.855 -3.36428 -1.20626 0
M  V30 1339 C 120.521 -4.50307 -0.231078 0
M  V30 1340 C 119.183 -4.81186 0.0371936 0
M  V30 1341 C 121.535 -5.19374 0.435888 0
M  V30 1342 C 118.863 -5.78466 0.979461 0
M  V30 1343 C 121.215 -6.17665 1.3665 0
M  V30 1344 C 119.879 -6.46958 1.6432 0
M  V30 1345 H 119.149 -0.708499 -0.217047 0
M  V30 1346 H 121.796 -1.90937 0.146793 0
M  V30 1347 H 120.101 -3.35592 -2.02201 0
M  V30 1348 H 121.798 -3.61727 -1.73073 0
M  V30 1349 H 118.388 -4.26227 -0.450357 0
M  V30 1350 H 122.572 -4.95711 0.241748 0
M  V30 1351 H 117.828 -5.99487 1.20106 0
M  V30 1352 H 122.002 -6.70284 1.88924 0
M  V30 1353 H 119.629 -7.2215 2.37494 0
M  V30 1354 N 121.204 0.198386 -1.56346 0
M  V30 1355 C 122.615 0.763358 -1.70381 0
M  V30 1356 C 122.966 1.83995 -0.681203 0
M  V30 1357 O 122.091 2.15785 0.16305 0
M  V30 1358 C 122.686 1.39143 -3.08909 0
M  V30 1359 C 121.245 1.90352 -3.2472 0
M  V30 1360 C 120.392 0.772233 -2.6633 0
M  V30 1361 H 123.343 -0.0266377 -1.58678 0
M  V30 1362 H 123.364 2.26076 -3.06055 0
M  V30 1363 H 122.876 0.607638 -3.83314 0
M  V30 1364 H 120.977 2.71461 -2.55225 0
M  V30 1365 H 121.09 2.06757 -4.3219 0
M  V30 1366 H 119.454 1.18566 -2.2542 0
M  V30 1367 H 120.237 0.00073556 -3.433 0
M  V30 1368 N 122.682 1.50554 0.465978 0
M  V30 1369 C 123.91 1.65563 1.24083 0
M  V30 1370 C 124.325 0.341051 1.85694 0
M  V30 1371 O 123.682 -0.677543 1.69457 0
M  V30 1372 C 123.733 2.75051 2.34583 0
M  V30 1373 O 123.454 4.01413 1.75497 0
M  V30 1374 C 124.955 3.01078 3.25372 0
M  V30 1375 H 122.175 0.55638 0.375077 0
M  V30 1376 H 124.719 1.96807 0.555624 0
M  V30 1377 H 122.874 2.46486 2.9887 0
M  V30 1378 H 123.288 4.62002 2.48303 0
M  V30 1379 H 124.762 3.81339 3.99105 0
M  V30 1380 H 125.239 2.12349 3.84453 0
M  V30 1381 H 125.845 3.31194 2.66816 0
M  V30 1382 N 124.16 -0.719506 1.40217 0
M  V30 1383 C 125.39 -1.50646 1.41384 0
M  V30 1384 C 125.798 -1.89197 0.0107743 0
M  V30 1385 O 125.141 -1.55709 -0.974708 0
M  V30 1386 C 125.203 -2.81405 2.23722 0
M  V30 1387 C 124.867 -2.65199 3.72181 0
M  V30 1388 C 125.864 -2.32717 4.64907 0
M  V30 1389 C 123.549 -2.81586 4.1595 0
M  V30 1390 C 125.543 -2.16827 5.99387 0
M  V30 1391 C 123.23 -2.65313 5.50502 0
M  V30 1392 C 124.228 -2.32981 6.42035 0
M  V30 1393 O 123.916 -2.16827 7.74107 0
M  V30 1394 H 123.648 -0.471606 0.484318 0
M  V30 1395 H 126.202 -0.895456 1.84853 0
M  V30 1396 H 124.432 -3.44823 1.75026 0
M  V30 1397 H 126.121 -3.43102 2.16878 0
M  V30 1398 H 126.887 -2.19694 4.32388 0
M  V30 1399 H 122.766 -3.0574 3.45027 0
M  V30 1400 H 126.31 -1.91513 6.70797 0
M  V30 1401 H 122.207 -2.7792 5.82607 0
M  V30 1402 H 122.975 -2.31778 7.84998 0
M  V30 1403 N 125.638 -1.25649 -0.95132 0
M  V30 1404 C 126.878 -1.11802 -1.71113 0
M  V30 1405 C 127.242 0.334758 -1.89059 0
M  V30 1406 O 128.443 0.595121 -2.62129 0
M  V30 1407 C 126.714 -1.85512 -3.05483 0
M  V30 1408 S 128.273 -1.87597 -3.96677 0
M  V30 1409 H 125.091 -0.399552 -0.588115 0
M  V30 1410 H 127.693 -1.59222 -1.1344 0
M  V30 1411 H 126.397 -2.90299 -2.90094 0
M  V30 1412 H 125.928 -1.38493 -3.68216 0
M  V30 1413 H 127.943 -0.955389 -4.86916 0
M  V30 1414 N 127.117 1.15442 -1.07289 0
M  V30 1415 C 128.049 2.19773 -0.650585 0
M  V30 1416 C 129.062 1.60076 0.296572 0
M  V30 1417 O 130.251 1.78293 0.0859905 0
M  V30 1418 C 127.351 3.38838 0.0650398 0
M  V30 1419 C 126.524 4.2808 -0.898141 0
M  V30 1420 C 125.583 5.2574 -0.219926 0
M  V30 1421 O 124.609 5.62654 -0.860773 0
M  V30 1422 N 125.811 5.71205 1.03466 0
M  V30 1423 H 128.576 2.56622 -1.54808 0
M  V30 1424 H 126.137 1.30551 -0.957494 0
M  V30 1425 H 128.129 4.01222 0.529415 0
M  V30 1426 H 126.699 3.00409 0.864466 0
M  V30 1427 H 125.919 3.62804 -1.54165 0
M  V30 1428 H 127.207 4.84577 -1.5512 0
M  V30 1429 H 126.605 5.43325 1.57526 0
M  V30 1430 H 125.162 6.35633 1.44272 0
M  V30 1431 N 128.595 0.856903 1.32268 0
M  V30 1432 C 129.527 0.260412 2.27716 0
M  V30 1433 C 130.54 -0.569137 1.52528 0
M  V30 1434 O 131.729 -0.39326 1.74114 0
M  V30 1435 C 128.829 -0.650477 3.32599 0
M  V30 1436 C 128.002 0.14372 4.37164 0
M  V30 1437 C 127.061 -0.69328 5.21613 0
M  V30 1438 O 126.087 -0.12599 5.69061 0
M  V30 1439 N 127.289 -2.00761 5.44679 0
M  V30 1440 H 130.054 1.08059 2.79541 0
M  V30 1441 H 127.615 0.717103 1.45152 0
M  V30 1442 H 129.607 -1.21581 3.86005 0
M  V30 1443 H 128.177 -1.37133 2.80915 0
M  V30 1444 H 127.397 0.890486 3.8401 0
M  V30 1445 H 128.685 0.68915 5.04111 0
M  V30 1446 H 128.083 -2.49181 5.07863 0
M  V30 1447 H 126.64 -2.52103 6.01072 0
M  V30 1448 N 130.073 -1.45103 0.615059 0
M  V30 1449 C 131.02 -2.30586 -0.0993978 0
M  V30 1450 C 131.99 -1.42544 -0.852669 0
M  V30 1451 O 133.175 -1.71465 -0.836917 0
M  V30 1452 C 130.315 -3.27572 -1.08583 0
M  V30 1453 C 129.428 -4.30717 -0.332656 0
M  V30 1454 C 128.563 -5.14807 -1.30947 0
M  V30 1455 C 127.602 -6.09673 -0.544538 0
M  V30 1456 N 126.739 -6.86517 -1.47101 0
M  V30 1457 H 131.579 -2.91144 0.635542 0
M  V30 1458 H 129.116 -1.4346 0.325206 0
M  V30 1459 H 131.074 -3.82276 -1.67095 0
M  V30 1460 H 129.704 -2.68751 -1.78809 0
M  V30 1461 H 128.756 -3.78615 0.368107 0
M  V30 1462 H 130.068 -4.98102 0.263842 0
M  V30 1463 H 129.222 -5.73948 -1.96643 0
M  V30 1464 H 127.961 -4.47458 -1.9399 0
M  V30 1465 H 126.966 -5.49656 0.126003 0
M  V30 1466 H 128.191 -6.79052 0.080947 0
M  V30 1467 H 126.137 -6.21851 -2.08895 0
M  V30 1468 H 126.054 -7.50281 -0.928137 0
M  V30 1469 H 127.322 -7.50194 -2.11731 0
M  V30 1470 N 131.551 -0.354651 -1.53558 0
M  V30 1471 C 132.776 0.242153 -2.05981 0
M  V30 1472 C 133.201 1.42553 -1.2272 0
M  V30 1473 O 132.559 1.79656 -0.243604 0
M  V30 1474 C 132.607 0.624367 -3.55154 0
M  V30 1475 O 131.711 1.72301 -3.74681 0
M  V30 1476 H 131.052 0.0378432 -0.662921 0
M  V30 1477 H 133.582 -0.512087 -1.98088 0
M  V30 1478 H 133.592 0.898433 -3.97985 0
M  V30 1479 H 132.267 -0.240989 -4.15201 0
M  V30 1480 H 130.844 1.44535 -3.4375 0
M  V30 1481 N 133.029 1.57378 -0.0835403 0
M  V30 1482 C 133.959 2.1641 0.87686 0
M  V30 1483 C 134.94 1.09429 1.30228 0
M  V30 1484 O 136.125 1.37516 1.37124 0
M  V30 1485 C 133.255 2.73517 2.14022 0
M  V30 1486 C 132.209 3.85769 1.85381 0
M  V30 1487 C 131.535 4.29529 3.18448 0
M  V30 1488 C 132.835 5.09486 1.14984 0
M  V30 1489 H 134.529 2.96914 0.385059 0
M  V30 1490 H 132.075 1.42823 0.18377 0
M  V30 1491 H 134.028 3.13463 2.81636 0
M  V30 1492 H 132.752 1.90252 2.65465 0
M  V30 1493 H 131.411 3.46345 1.20169 0
M  V30 1494 H 131.059 3.43169 3.67755 0
M  V30 1495 H 130.759 5.05204 3.00071 0
M  V30 1496 H 132.283 4.72099 3.8724 0
M  V30 1497 H 133.697 5.46674 1.72687 0
M  V30 1498 H 132.094 5.90515 1.06826 0
M  V30 1499 H 133.164 4.84724 0.130749 0
M  V30 1500 N 134.507 -0.190092 1.56449 0
M  V30 1501 C 135.417 -1.25591 1.98152 0
M  V30 1502 C 136.433 -1.49519 0.889944 0
M  V30 1503 O 137.609 -1.62036 1.19609 0
M  V30 1504 C 134.674 -2.57916 2.3169 0
M  V30 1505 C 133.735 -2.42015 3.5458 0
M  V30 1506 C 132.968 -3.6803 3.8651 0
M  V30 1507 O 133.191 -4.72413 3.1966 0
M  V30 1508 O 132.125 -3.6326 4.79923 0
M  V30 1509 H 135.951 -0.931988 2.89046 0
M  V30 1510 H 133.536 -0.395488 1.4407 0
M  V30 1511 H 135.418 -3.36008 2.54316 0
M  V30 1512 H 134.093 -2.89925 1.43963 0
M  V30 1513 H 133 -1.62017 3.37196 0
M  V30 1514 H 134.333 -2.14937 4.4279 0
M  V30 1515 N 135.985 -1.50799 -0.457987 0
M  V30 1516 C 137.225 -1.64088 -1.21879 0
M  V30 1517 C 137.589 -0.339848 -1.88968 0
M  V30 1518 O 138.79 -0.348301 -2.66534 0
M  V30 1519 C 137.061 -2.79726 -2.2246 0
M  V30 1520 S 138.62 -3.13225 -3.07303 0
M  V30 1521 H 135.438 -0.578314 -0.41361 0
M  V30 1522 H 138.04 -1.88632 -0.513645 0
M  V30 1523 H 136.744 -3.72722 -1.71775 0
M  V30 1524 H 136.275 -2.57308 -2.97584 0
M  V30 1525 H 138.29 -2.58062 -4.23814 0
M  V30 1526 N 137.463 0.71206 -1.40597 0
M  V30 1527 C 138.393 1.83889 -1.43899 0
M  V30 1528 C 139.374 1.67442 -0.299504 0
M  V30 1529 O 140.559 1.87421 -0.508624 0
M  V30 1530 C 137.689 3.21877 -1.30431 0
M  V30 1531 C 136.643 3.53002 -2.42019 0
M  V30 1532 C 135.969 4.90172 -2.13626 0
M  V30 1533 C 137.269 3.53643 -3.84362 0
M  V30 1534 H 138.963 1.81383 -2.38203 0
M  V30 1535 H 136.509 0.871237 -1.14654 0
M  V30 1536 H 138.462 4.00404 -1.31357 0
M  V30 1537 H 137.186 3.24968 -0.326049 0
M  V30 1538 H 135.845 2.76818 -2.40349 0
M  V30 1539 H 135.493 4.89869 -1.14182 0
M  V30 1540 H 135.193 5.11962 -2.88389 0
M  V30 1541 H 136.717 5.71028 -2.1624 0
M  V30 1542 H 138.131 4.22203 -3.87837 0
M  V30 1543 H 136.528 3.86961 -4.58673 0
M  V30 1544 H 137.598 2.52954 -4.13693 0
M  V30 1545 N 138.941 1.26152 0.944643 0
M  V30 1546 C 139.891 1.04081 2.02857 0
M  V30 1547 C 140.875 -0.0256555 1.6088 0
M  V30 1548 O 142.067 0.190884 1.75968 0
M  V30 1549 C 139.196 0.672118 3.36656 0
M  V30 1550 C 138.282 1.77586 3.85128 0
M  V30 1551 N 138.673 3.01272 4.06287 0
M  V30 1552 C 136.971 1.65867 4.1401 0
M  V30 1553 C 137.672 3.72983 4.46384 0
M  V30 1554 N 136.648 3.00653 4.52889 0
M  V30 1555 H 140.45 1.97968 2.17223 0
M  V30 1556 H 137.964 1.16618 1.13022 0
M  V30 1557 H 139.961 0.495166 4.13949 0
M  V30 1558 H 138.621 -0.259307 3.23663 0
M  V30 1559 H 139.632 3.37213 3.93075 0
M  V30 1560 H 136.309 0.796907 4.09824 0
M  V30 1561 H 137.699 4.792 4.70975 0
M  V30 1562 N 140.419 -1.14872 1.07899 0
M  V30 1563 C 141.83 -1.67367 0.827363 0
M  V30 1564 C 142.181 -1.85236 -0.646693 0
M  V30 1565 O 141.306 -1.55974 -1.50004 0
M  V30 1566 C 141.901 -3.04016 1.49532 0
M  V30 1567 C 140.46 -3.53566 1.29106 0
M  V30 1568 C 139.607 -2.29161 1.56143 0
M  V30 1569 H 142.558 -0.990083 1.24028 0
M  V30 1570 H 142.579 -3.69219 0.919643 0
M  V30 1571 H 142.091 -2.90978 2.56814 0
M  V30 1572 H 140.192 -3.71835 0.238713 0
M  V30 1573 H 140.305 -4.34661 2.01511 0
M  V30 1574 H 138.669 -2.34978 0.982717 0
M  V30 1575 H 139.452 -2.18705 2.64619 0
M  V30 1576 N 141.898 -0.863906 -1.31812 0
M  V30 1577 C 143.146 -0.470904 -1.96537 0
M  V30 1578 C 143.467 0.978771 -1.68657 0
M  V30 1579 O 142.737 1.6853 -0.998717 0
M  V30 1580 H 141.317 -0.171148 -0.72713 0
M  V30 1581 H 143.979 -1.10236 -1.60729 0
M  V30 1582 H 143.075 -0.623616 -3.05806 0
M  V30 1583 N 143.376 1.44774 -0.622745 0
M  V30 1584 C 144.604 2.06487 -0.130722 0
M  V30 1585 C 145.019 1.46476 1.19123 0
M  V30 1586 O 144.376 0.584502 1.72887 0
M  V30 1587 C 144.427 3.615 -0.000807207 0
M  V30 1588 O 144.148 4.19274 -1.27048 0
M  V30 1589 C 145.649 4.40229 0.520898 0
M  V30 1590 H 142.869 0.666704 -0.0758106 0
M  V30 1591 H 145.413 1.85779 -0.854774 0
M  V30 1592 H 143.568 3.81498 0.673643 0
M  V30 1593 H 143.982 5.12622 -1.1099 0
M  V30 1594 H 145.456 5.49144 0.560838 0
M  V30 1595 H 145.933 4.1108 1.54627 0
M  V30 1596 H 146.539 4.25131 -0.120018 0
M  V30 1597 N 144.854 0.36279 1.53368 0
M  V30 1598 C 145.801 -0.485008 2.25646 0
M  V30 1599 C 146.771 -1.07982 1.2621 0
M  V30 1600 O 147.956 -1.11284 1.54986 0
M  V30 1601 C 145.096 -1.62023 3.04701 0
M  V30 1602 C 144.209 -1.05086 4.19024 0
M  V30 1603 C 143.344 -2.15496 4.85525 0
M  V30 1604 C 142.383 -1.5601 5.91884 0
M  V30 1605 N 141.52 -2.60241 6.52088 0
M  V30 1606 H 146.36 0.137864 2.97681 0
M  V30 1607 H 143.897 0.0798061 1.46883 0
M  V30 1608 H 145.855 -2.28887 3.48807 0
M  V30 1609 H 144.485 -2.2138 2.34927 0
M  V30 1610 H 143.537 -0.27259 3.79422 0
M  V30 1611 H 144.849 -0.575926 4.95464 0
M  V30 1612 H 144.003 -2.90186 5.32801 0
M  V30 1613 H 142.742 -2.66341 4.08551 0
M  V30 1614 H 141.747 -0.798338 5.43973 0
M  V30 1615 H 142.972 -1.05994 6.70777 0
M  V30 1616 H 140.918 -3.10304 5.77968 0
M  V30 1617 H 140.835 -2.17426 7.24059 0
M  V30 1618 H 142.103 -3.34641 7.04014 0
M  V30 1619 N 146.332 -1.57332 0.0918853 0
M  V30 1620 C 147.579 -1.94236 -0.572577 0
M  V30 1621 C 147.907 -0.973398 -1.6839 0
M  V30 1622 O 147.162 0.00756912 -1.95699 0
M  V30 1623 C 147.461 -3.37689 -1.17051 0
M  V30 1624 C 147.127 -4.50527 -0.183304 0
M  V30 1625 C 145.789 -4.81119 0.0882276 0
M  V30 1626 C 148.141 -5.18883 0.49095 0
M  V30 1627 C 145.469 -5.77395 1.04076 0
M  V30 1628 C 147.821 -6.1618 1.43193 0
M  V30 1629 C 146.485 -6.45179 1.71173 0
M  V30 1630 H 145.755 -0.710762 -0.209521 0
M  V30 1631 H 148.402 -1.9077 0.167036 0
M  V30 1632 H 146.707 -3.37718 -1.9863 0
M  V30 1633 H 148.404 -3.63543 -1.69227 0
M  V30 1634 H 144.994 -4.26681 -0.405124 0
M  V30 1635 H 149.178 -4.95427 0.294312 0
M  V30 1636 H 144.434 -5.98179 1.26457 0
M  V30 1637 H 148.608 -6.68243 1.96023 0
M  V30 1638 H 146.235 -7.1959 2.4514 0
M  V30 1639 N 147.81 0.181792 -1.56548 0
M  V30 1640 C 148.74 1.22765 -1.98623 0
M  V30 1641 C 149.721 1.46747 -0.860189 0
M  V30 1642 O 150.906 1.58259 -1.12551 0
M  V30 1643 C 148.036 2.56894 -2.33715 0
M  V30 1644 C 146.99 2.475 -3.49182 0
M  V30 1645 C 146.316 3.86023 -3.69986 0
M  V30 1646 C 147.616 1.98866 -4.82959 0
M  V30 1647 H 149.31 0.877942 -2.86239 0
M  V30 1648 H 146.856 0.42088 -1.37712 0
M  V30 1649 H 148.809 3.30253 -2.61746 0
M  V30 1650 H 147.533 2.93632 -1.42997 0
M  V30 1651 H 146.192 1.76596 -3.21262 0
M  V30 1652 H 145.84 4.20136 -2.76576 0
M  V30 1653 H 145.54 3.80609 -4.47672 0
M  V30 1654 H 147.064 4.60984 -4.00407 0
M  V30 1655 H 148.478 2.61992 -5.09934 0
M  V30 1656 H 146.875 2.04424 -5.64208 0
M  V30 1657 H 147.945 0.942465 -4.75653 0
M  V30 1658 N 149.288 1.51039 0.449983 0
M  V30 1659 C 150.236 1.71995 1.5659 0
M  V30 1660 C 151.23 0.586029 1.5894 0
M  V30 1661 O 152.436 0.76709 1.62837 0
M  V30 1662 H 148.811 0.543233 0.520001 0
M  V30 1663 H 150.782 2.65562 1.36085 0
M  V30 1664 C 149.531 1.8506 2.9436 0
M  V30 1665 H 148.854 2.71712 2.93279 0
M  V30 1666 H 150.294 2.0374 3.71842 0
M  V30 1667 C 148.753 0.607277 3.31382 0
M  V30 1668 O 149.283 -0.243903 4.00959 0
M  V30 1669 N 147.489 0.455073 2.87015 0
M  V30 1670 H 147.036 1.14879 2.30566 0
M  V30 1671 H 146.994 -0.375611 3.12148 0
M  V30 1672 N 150.766 -0.704594 1.40972 0
M  V30 1673 C 151.714 -1.83994 1.42299 0
M  V30 1674 C 152.708 -1.66684 0.302111 0
M  V30 1675 O 153.914 -1.73655 0.473697 0
M  V30 1676 H 150.289 -0.606171 0.44504 0
M  V30 1677 H 152.26 -1.79992 2.38003 0
M  V30 1678 C 151.009 -3.21946 1.31323 0
M  V30 1679 H 150.332 -3.35878 2.16855 0
M  V30 1680 H 151.772 -4.01491 1.36311 0
M  V30 1681 C 150.231 -3.36891 0.0245977 0
M  V30 1682 O 150.761 -3.90687 -0.934153 0
M  V30 1683 N 148.967 -2.90559 -0.0485243 0
M  V30 1684 H 148.514 -2.46968 0.732419 0
M  V30 1685 H 148.472 -3.00937 -0.910171 0
M  V30 1686 N 152.244 -1.26651 -0.937939 0
M  V30 1687 C 153.492 -1.12165 -1.68118 0
M  V30 1688 C 153.813 0.334983 -1.92101 0
M  V30 1689 O 153.083 1.23583 -1.52 0
M  V30 1690 H 151.663 -0.412093 -0.623048 0
M  V30 1691 H 154.325 -1.59027 -1.12678 0
M  V30 1692 H 153.421 -1.64289 -2.6536 0
M  V30 1693 N 153.722 1.14298 -1.08507 0
M  V30 1694 C 154.95 1.89219 -0.836876 0
M  V30 1695 C 155.365 1.78638 0.611054 0
M  V30 1696 O 154.722 1.14643 1.41998 0
M  V30 1697 C 154.773 3.39158 -1.25116 0
M  V30 1698 O 154.494 3.49449 -2.64229 0
M  V30 1699 C 155.995 4.31073 -1.03398 0
M  V30 1700 H 153.215 0.599328 -0.301739 0
M  V30 1701 H 155.759 1.44746 -1.44461 0
M  V30 1702 H 153.914 3.81251 -0.687514 0
M  V30 1703 H 154.328 4.42589 -2.81452 0
M  V30 1704 H 155.802 5.34646 -1.37323 0
M  V30 1705 H 156.279 4.3919 0.0289259 0
M  V30 1706 H 156.885 3.94738 -1.58311 0
M  V30 1707 N 155.201 0.870884 1.31352 0
M  V30 1708 C 156.441 0.488783 1.9847 0
M  V30 1709 C 156.805 -0.941536 1.67329 0
M  V30 1710 O 158.006 -1.42903 2.27667 0
M  V30 1711 C 156.277 0.739688 3.49662 0
M  V30 1712 S 157.836 0.457582 4.36408 0
M  V30 1713 H 154.654 0.18242 0.6872 0
M  V30 1714 H 157.256 1.12711 1.59739 0
M  V30 1715 H 155.96 1.77944 3.69816 0
M  V30 1716 H 155.491 0.0883905 3.93301 0
M  V30 1717 H 157.506 -0.709752 4.91098 0
M  V30 1718 N 156.679 -1.44442 0.630414 0
M  V30 1719 C 157.907 -2.06414 0.141671 0
M  V30 1720 C 158.322 -1.47105 -1.18345 0
M  V30 1721 O 157.679 -0.593662 -1.72574 0
M  V30 1722 C 157.73 -3.61494 0.0199784 0
M  V30 1723 O 157.451 -4.18594 1.29269 0
M  V30 1724 C 158.952 -4.40499 -0.497544 0
M  V30 1725 H 156.172 -0.666292 0.0793452 0
M  V30 1726 H 158.716 -1.85323 0.864614 0
M  V30 1727 H 156.871 -3.8185 -0.653402 0
M  V30 1728 H 157.285 -5.12026 1.13707 0
M  V30 1729 H 158.759 -5.49433 -0.531708 0
M  V30 1730 H 159.236 -4.11895 -1.52445 0
M  V30 1731 H 159.842 -4.25061 0.142562 0
M  V30 1732 N 158.157 -0.370918 -1.53173 0
M  V30 1733 C 159.12 0.460778 -2.24521 0
M  V30 1734 C 160.12 1.00536 -1.25496 0
M  V30 1735 O 161.31 0.890266 -1.49733 0
M  V30 1736 C 158.442 1.64457 -2.98608 0
M  V30 1737 H 159.635 -0.163613 -2.99453 0
M  V30 1738 H 157.188 -0.122699 -1.55818 0
M  V30 1739 H 157.923 2.30691 -2.2793 0
M  V30 1740 H 157.708 1.26099 -3.7127 0
M  V30 1741 H 159.198 2.23384 -3.5283 0
M  V30 1742 N 159.635 1.57281 -0.100228 0
M  V30 1743 C 160.545 2.17833 0.870965 0
M  V30 1744 C 161.561 1.14921 1.30649 0
M  V30 1745 O 162.737 1.47313 1.37335 0
M  V30 1746 C 159.802 2.75085 2.1102 0
M  V30 1747 C 158.863 3.9297 1.72838 0
M  V30 1748 C 158.096 4.47482 2.90854 0
M  V30 1749 O 158.319 4.00922 4.05731 0
M  V30 1750 O 157.253 5.38433 2.69023 0
M  V30 1751 H 161.079 3.0124 0.38575 0
M  V30 1752 H 158.664 1.48881 0.124397 0
M  V30 1753 H 160.546 3.11656 2.83634 0
M  V30 1754 H 159.221 1.94721 2.58584 0
M  V30 1755 H 158.128 3.61201 0.973883 0
M  V30 1756 H 159.461 4.74713 1.30033 0
M  V30 1757 N 161.113 -0.173488 1.56642 0
M  V30 1758 C 162.361 -0.888706 1.81512 0
M  V30 1759 C 162.682 -1.82875 0.676872 0
M  V30 1760 O 161.952 -1.93536 -0.303414 0
M  V30 1761 H 160.532 -0.331164 0.669582 0
M  V30 1762 H 163.194 -0.173823 1.94123 0
M  V30 1763 H 162.29 -1.46691 2.75478 0
M  V30 1764 N 162.591 -1.51276 -0.441967 0
M  V30 1765 C 163.538 -1.72256 -1.53612 0
M  V30 1766 C 164.508 -0.564164 -1.56225 0
M  V30 1767 O 165.693 -0.798074 -1.73307 0
M  V30 1768 C 162.833 -1.84932 -2.91366 0
M  V30 1769 C 161.946 -3.12459 -2.98317 0
M  V30 1770 C 161.081 -3.15758 -4.27166 0
M  V30 1771 C 160.12 -4.37619 -4.27967 0
M  V30 1772 N 159.257 -4.38493 -5.48333 0
M  V30 1773 H 164.097 -2.65654 -1.35026 0
M  V30 1774 H 161.634 -1.31662 -0.656009 0
M  V30 1775 H 163.592 -1.90263 -3.7129 0
M  V30 1776 H 162.222 -0.949461 -3.08521 0
M  V30 1777 H 161.274 -3.1646 -2.11086 0
M  V30 1778 H 162.586 -4.02382 -2.94771 0
M  V30 1779 H 161.74 -3.19979 -5.15459 0
M  V30 1780 H 160.479 -2.23715 -4.33362 0
M  V30 1781 H 159.484 -4.33579 -3.38067 0
M  V30 1782 H 160.709 -5.30921 -4.23438 0
M  V30 1783 H 158.655 -3.49318 -5.55259 0
M  V30 1784 H 158.572 -5.22219 -5.46647 0
M  V30 1785 H 159.84 -4.469 -6.38671 0
M  V30 1786 N 164.069 0.697108 -1.41344 0
M  V30 1787 C 165.316 1.45714 -1.40619 0
M  V30 1788 C 165.644 1.94494 -0.0147907 0
M  V30 1789 O 164.899 1.69794 0.973066 0
M  V30 1790 C 165.198 2.68553 -2.35826 0
M  V30 1791 C 164.864 2.38438 -3.82698 0
M  V30 1792 C 163.526 2.29936 -4.22709 0
M  V30 1793 C 165.878 2.13567 -4.75435 0
M  V30 1794 C 163.206 1.94656 -5.53467 0
M  V30 1795 C 165.558 1.79797 -6.06511 0
M  V30 1796 C 164.222 1.69789 -6.45545 0
M  V30 1797 H 163.492 0.533206 -0.51456 0
M  V30 1798 H 166.139 0.796901 -1.74131 0
M  V30 1799 H 164.444 3.39503 -1.95563 0
M  V30 1800 H 166.141 3.2669 -2.32539 0
M  V30 1801 H 162.731 2.4595 -3.51008 0
M  V30 1802 H 166.915 2.19082 -4.45328 0
M  V30 1803 H 162.171 1.8546 -5.82593 0
M  V30 1804 H 166.345 1.59572 -6.77872 0
M  V30 1805 H 163.972 1.4222 -7.46778 0
M  V30 1806 N 165.547 1.27147 0.931209 0
M  V30 1807 C 166.772 1.16191 1.71797 0
M  V30 1808 C 167.197 -0.278004 1.86034 0
M  V30 1809 O 166.555 -1.20137 1.35782 0
M  V30 1810 C 166.603 1.84673 3.09723 0
M  V30 1811 O 165.707 1.14231 3.96264 0
M  V30 1812 H 165.048 0.404303 0.526721 0
M  V30 1813 H 167.578 1.68152 1.1656 0
M  V30 1814 H 167.588 1.91893 3.60057 0
M  V30 1815 H 166.263 2.89421 2.98677 0
M  V30 1816 H 164.84 1.15056 3.54706 0
M  V30 1817 N 167.025 -1.13721 1.09112 0
M  V30 1818 C 168.271 -1.85198 0.826414 0
M  V30 1819 C 168.604 -1.83129 -0.646319 0
M  V30 1820 O 167.879 -1.2671 -1.47563 0
M  V30 1821 C 168.162 -3.33507 1.35812 0
M  V30 1822 C 168.015 -3.44108 2.89672 0
M  V30 1823 C 169.334 -4.28838 0.989256 0
M  V30 1824 H 166.453 -0.67243 0.301675 0
M  V30 1825 H 169.095 -1.33499 1.35197 0
M  V30 1826 H 167.245 -3.77666 0.911082 0
M  V30 1827 H 168.917 -3.08684 3.428 0
M  V30 1828 H 167.16 -2.85087 3.26967 0
M  V30 1829 H 167.831 -4.48388 3.21951 0
M  V30 1830 H 170.307 -3.92734 1.37475 0
M  V30 1831 H 169.183 -5.31051 1.38838 0
M  V30 1832 H 169.444 -4.4198 -0.102924 0
M  V30 1833 N 168.503 -0.877838 -1.30888 0
M  V30 1834 C 169.728 -0.506629 -2.01117 0
M  V30 1835 C 170.153 0.895564 -1.65412 0
M  V30 1836 O 169.511 1.5923 -0.866922 0
M  V30 1837 C 169.559 -0.680223 -3.54126 0
M  V30 1838 O 168.663 0.277033 -4.11468 0
M  V30 1839 H 168.004 -0.200518 -0.633 0
M  V30 1840 H 170.534 -1.18342 -1.66902 0
M  V30 1841 H 170.544 -0.5765 -4.03907 0
M  V30 1842 H 169.219 -1.70261 -3.79452 0
M  V30 1843 H 167.796 0.127606 -3.72682 0
M  V30 1844 N 169.982 1.44106 -0.638065 0
M  V30 1845 C 170.912 2.33448 0.0494287 0
M  V30 1846 C 171.893 1.48606 0.827672 0
M  V30 1847 O 173.078 1.77308 0.792173 0
M  V30 1848 C 170.208 3.31771 1.02691 0
M  V30 1849 C 169.162 4.26485 0.359823 0
M  V30 1850 C 168.488 5.14729 1.44769 0
M  V30 1851 C 169.788 5.17056 -0.738296 0
M  V30 1852 H 171.482 2.91183 -0.696636 0
M  V30 1853 H 169.028 1.40014 -0.336456 0
M  V30 1854 H 170.981 3.93161 1.51666 0
M  V30 1855 H 169.705 2.7226 1.80395 0
M  V30 1856 H 168.364 3.66437 -0.10934 0
M  V30 1857 H 168.012 4.51566 2.21578 0
M  V30 1858 H 167.712 5.78913 1.00668 0
M  V30 1859 H 169.236 5.78991 1.93911 0
M  V30 1860 H 170.65 5.72342 -0.331354 0
M  V30 1861 H 169.047 5.89879 -1.10286 0
M  V30 1862 H 170.117 4.57652 -1.60258 0
M  V30 1863 N 171.46 0.379036 1.52974 0
M  V30 1864 C 172.407 -0.461048 2.26148 0
M  V30 1865 C 173.377 -1.06637 1.27349 0
M  V30 1866 O 174.562 -1.09633 1.56157 0
M  V30 1867 C 171.702 -1.58782 3.06402 0
M  V30 1868 C 170.815 -1.00636 4.20115 0
M  V30 1869 C 169.95 -2.10334 4.87784 0
M  V30 1870 C 168.989 -1.49724 5.93506 0
M  V30 1871 N 168.126 -2.5331 6.54812 0
M  V30 1872 H 172.966 0.169429 2.97518 0
M  V30 1873 H 170.503 0.0953806 1.4679 0
M  V30 1874 H 172.461 -2.25174 3.51215 0
M  V30 1875 H 171.091 -2.18876 2.37261 0
M  V30 1876 H 170.143 -0.232332 3.7969 0
M  V30 1877 H 171.455 -0.523343 4.96047 0
M  V30 1878 H 170.609 -2.84519 5.35849 0
M  V30 1879 H 169.348 -2.61992 4.11353 0
M  V30 1880 H 168.353 -0.740598 5.44789 0
M  V30 1881 H 169.578 -0.988732 6.71864 0
M  V30 1882 H 167.524 -3.04156 5.81227 0
M  V30 1883 H 167.441 -2.09734 7.26325 0
M  V30 1884 H 168.709 -3.27155 7.07524 0
M  V30 1885 N 172.938 -1.57226 0.108567 0
M  V30 1886 C 173.888 -2.11305 -0.856396 0
M  V30 1887 C 174.872 -1.03129 -1.23504 0
M  V30 1888 O 176.064 -1.29381 -1.20787 0
M  V30 1889 C 173.193 -2.70771 -2.11041 0
M  V30 1890 C 172.279 -3.86011 -1.7566 0
M  V30 1891 N 172.67 -4.93492 -1.10902 0
M  V30 1892 C 170.968 -3.95999 -2.05185 0
M  V30 1893 C 171.669 -5.73984 -0.944308 0
M  V30 1894 N 170.645 -5.2346 -1.46596 0
M  V30 1895 H 174.447 -2.91784 -0.352002 0
M  V30 1896 H 171.961 -1.62126 -0.0942324 0
M  V30 1897 H 173.958 -3.07851 -2.81128 0
M  V30 1898 H 172.618 -1.91751 -2.62034 0
M  V30 1899 H 173.629 -5.1208 -0.774235 0
M  V30 1900 H 170.306 -3.28007 -2.58298 0
M  V30 1901 H 171.696 -6.70479 -0.436813 0
M  V30 1902 N 174.416 0.165178 -1.56732 0
M  V30 1903 C 175.664 0.879068 -1.8198 0
M  V30 1904 C 175.985 1.82514 -0.686561 0
M  V30 1905 O 175.255 1.93694 0.293146 0
M  V30 1906 H 173.835 0.327608 -0.671329 0
M  V30 1907 H 176.497 0.163526 -1.94213 0
M  V30 1908 H 175.593 1.45228 -2.76252 0
M  V30 1909 N 175.894 1.51508 0.433938 0
M  V30 1910 C 176.842 1.73646 1.54757 0
M  V30 1911 C 177.836 0.602854 1.5831 0
M  V30 1912 O 179.042 0.784318 1.62014 0
M  V30 1913 H 175.417 0.548718 0.51421 0
M  V30 1914 H 177.388 2.66991 1.33261 0
M  V30 1915 C 176.137 1.88172 2.92381 0
M  V30 1916 H 175.46 2.74808 2.90381 0
M  V30 1917 H 176.9 2.07672 3.6966 0
M  V30 1918 C 175.359 0.64239 3.30719 0
M  V30 1919 O 175.889 -0.201362 4.01195 0
M  V30 1920 N 174.095 0.485489 2.86516 0
M  V30 1921 H 173.642 1.17318 2.29334 0
M  V30 1922 H 173.6 -0.342482 3.12529 0
M  V30 1923 N 177.372 -0.689602 1.41712 0
M  V30 1924 C 178.6 -1.47827 1.44758 0
M  V30 1925 C 179.015 -1.88721 0.0545703 0
M  V30 1926 O 178.372 -1.57176 -0.927463 0
M  V30 1927 C 178.423 -2.73698 2.3616 0
M  V30 1928 O 178.144 -2.34524 3.7004 0
M  V30 1929 C 179.645 -3.67389 2.48072 0
M  V30 1930 H 176.865 -0.455357 0.49284 0
M  V30 1931 H 179.409 -0.848574 1.86063 0
M  V30 1932 H 177.564 -3.32891 1.98148 0
M  V30 1933 H 177.978 -3.15701 4.18847 0
M  V30 1934 H 179.452 -4.52475 3.16181 0
M  V30 1935 H 179.929 -4.12284 1.51388 0
M  V30 1936 H 180.535 -3.14097 2.86746 0
M  V30 1937 N 178.85 -1.27639 -0.924453 0
M  V30 1938 C 180.127 -1.04887 -1.651 0
M  V30 1939 C 180.507 0.415327 -2.06974 0
M  V30 1940 O 179.855 1.39923 -1.80648 0
M  V30 1941 C 180.065 -2.01348 -2.85061 0
M  V30 1942 C 181.413 -2.30899 -3.56329 0
M  V30 1943 O 182.437 -1.99348 -2.95193 0
M  V30 1944 O 181.296 -2.84699 -4.66485 0
M  V30 1945 H 178.39 -0.400083 -0.723784 0
M  V30 1946 H 180.936 -1.38916 -0.974703 0
M  V30 1947 H 179.708 -3.0008 -2.51133 0
M  V30 1948 H 179.331 -1.679 -3.6041 0
M  V30 1949 N 180.328 1.1314 -1.09713 0
M  V30 1950 C 181.553 1.88862 -0.857081 0
M  V30 1951 C 181.978 1.78729 0.586304 0
M  V30 1952 O 181.336 1.13692 1.41222 0
M  V30 1953 C 181.384 3.36325 -1.30069 0
M  V30 1954 O 180.488 4.09815 -0.461007 0
M  V30 1955 H 179.829 0.587108 -0.310162 0
M  V30 1956 H 182.359 1.43129 -1.46203 0
M  V30 1957 H 182.369 3.87157 -1.28738 0
M  V30 1958 H 181.044 3.43017 -2.35185 0
M  V30 1959 H 179.621 3.68986 -0.538888 0
M  V30 1960 N 181.806 0.884767 1.30421 0
M  V30 1961 C 182.716 0.355398 2.31892 0
M  V30 1962 C 183.732 -0.542261 1.65335 0
M  V30 1963 O 184.908 -0.435432 1.96637 0
M  V30 1964 C 181.973 -0.421661 3.44126 0
M  V30 1965 C 181.034 0.505727 4.26311 0
M  V30 1966 C 180.267 -0.234343 5.33185 0
M  V30 1967 O 180.49 -1.46045 5.51386 0
M  V30 1968 O 179.424 0.415443 6.00465 0
M  V30 1969 H 183.25 1.19685 2.79122 0
M  V30 1970 H 180.835 0.648596 1.34587 0
M  V30 1971 H 182.717 -0.861641 4.12497 0
M  V30 1972 H 181.392 -1.23942 2.99032 0
M  V30 1973 H 180.299 0.994513 3.60639 0
M  V30 1974 H 181.632 1.28948 4.75009 0
M  V30 1975 N 183.284 -1.43765 0.645699 0
M  V30 1976 C 184.532 -2.01499 0.155731 0
M  V30 1977 C 184.853 -1.51151 -1.232 0
M  V30 1978 O 184.123 -0.721044 -1.82148 0
M  V30 1979 H 182.703 -0.745003 0.0545817 0
M  V30 1980 H 185.365 -1.76075 0.835677 0
M  V30 1981 H 184.461 -3.1181 0.134577 0
M  V30 1982 N 184.763 -0.387143 -1.52771 0
M  V30 1983 C 186.012 0.19697 -2.00736 0
M  V30 1984 C 186.325 1.48082 -1.27793 0
M  V30 1985 O 187.531 2.14485 -1.66458 0
M  V30 1986 C 185.987 0.401568 -3.57653 0
M  V30 1987 C 185.595 -0.868907 -4.39493 0
M  V30 1988 C 187.339 0.942164 -4.13912 0
M  V30 1989 C 185.246 -0.632705 -5.88006 0
M  V30 1990 H 184.176 0.0773827 -0.750019 0
M  V30 1991 H 186.827 -0.50921 -1.76293 0
M  V30 1992 H 185.209 1.16954 -3.78335 0
M  V30 1993 H 186.383 -1.64133 -4.30577 0
M  V30 1994 H 184.698 -1.33429 -3.94443 0
M  V30 1995 H 187.295 1.13455 -5.22525 0
M  V30 1996 H 187.638 1.9106 -3.69867 0
M  V30 1997 H 188.171 0.233814 -3.97112 0
M  V30 1998 H 184.91 -1.57208 -6.36369 0
M  V30 1999 H 184.43 0.100825 -5.99715 0
M  V30 2000 H 186.109 -0.26642 -6.46451 0
M  V30 2001 N 186.241 1.57166 -0.116904 0
M  V30 2002 C 187.487 1.95412 0.542405 0
M  V30 2003 C 187.82 1.00019 1.66463 0
M  V30 2004 O 187.095 0.0370346 1.94465 0
M  V30 2005 C 187.378 3.43615 1.07708 0
M  V30 2006 C 187.231 4.49781 -0.0415868 0
M  V30 2007 C 188.55 3.93616 1.96861 0
M  V30 2008 H 185.669 0.710543 0.195696 0
M  V30 2009 H 188.311 1.89027 -0.192038 0
M  V30 2010 H 186.461 3.49187 1.70296 0
M  V30 2011 H 188.133 4.56308 -0.676793 0
M  V30 2012 H 186.376 4.28033 -0.705019 0
M  V30 2013 H 187.047 5.50733 0.373717 0
M  V30 2014 H 189.523 3.90335 1.44146 0
M  V30 2015 H 188.399 4.97838 2.3119 0
M  V30 2016 H 188.66 3.34188 2.89432 0
M  V30 2017 N 187.719 -0.156864 1.56817 0
M  V30 2018 C 188.629 -1.2136 2.00771 0
M  V30 2019 C 189.645 -1.47598 0.921459 0
M  V30 2020 O 190.821 -1.59462 1.2302 0
M  V30 2021 C 187.886 -2.52943 2.37109 0
M  V30 2022 C 186.947 -2.34439 3.59634 0
M  V30 2023 C 186.18 -3.59748 3.94229 0
M  V30 2024 O 186.403 -4.65526 3.29609 0
M  V30 2025 O 185.337 -3.52998 4.8752 0
M  V30 2026 H 189.163 -0.870468 2.90958 0
M  V30 2027 H 186.748 -0.36484 1.44877 0
M  V30 2028 H 188.63 -3.30538 2.61386 0
M  V30 2029 H 187.305 -2.86806 1.5008 0
M  V30 2030 H 186.212 -1.54828 3.40557 0
M  V30 2031 H 187.545 -2.05496 4.4725 0
M  V30 2032 N 189.197 -1.51736 -0.425897 0
M  V30 2033 C 190.443 -1.65214 -1.1761 0
M  V30 2034 C 190.776 -0.372778 -1.90589 0
M  V30 2035 O 190.051 0.628139 -1.84078 0
M  V30 2036 C 190.334 -2.86312 -2.18398 0
M  V30 2037 C 190.187 -4.24254 -1.49426 0
M  V30 2038 C 191.506 -3.02925 -3.19256 0
M  V30 2039 H 188.625 -0.601263 -0.426206 0
M  V30 2040 H 191.267 -1.8425 -0.463882 0
M  V30 2041 H 189.417 -2.70213 -2.79137 0
M  V30 2042 H 191.089 -4.52046 -0.919362 0
M  V30 2043 H 189.332 -4.26426 -0.796432 0
M  V30 2044 H 190.003 -5.05001 -2.22885 0
M  V30 2045 H 192.479 -3.1781 -2.68581 0
M  V30 2046 H 191.355 -3.89199 -3.8706 0
M  V30 2047 H 191.616 -2.15497 -3.86023 0
M  V30 2048 N 190.675 0.682077 -1.42076 0
M  V30 2049 C 191.622 1.79578 -1.44984 0
M  V30 2050 C 192.592 1.6332 -0.302614 0
M  V30 2051 O 193.777 1.83978 -0.505633 0
M  V30 2052 C 190.917 3.1756 -1.35091 0
M  V30 2053 C 190.03 3.45156 -2.59791 0
M  V30 2054 C 189.165 4.72826 -2.42093 0
M  V30 2055 C 188.204 4.93433 -3.62202 0
M  V30 2056 N 187.341 6.12338 -3.43491 0
M  V30 2057 H 192.181 1.76427 -2.40161 0
M  V30 2058 H 189.718 0.861376 -1.19242 0
M  V30 2059 H 191.676 3.97287 -1.27354 0
M  V30 2060 H 190.306 3.19854 -0.435133 0
M  V30 2061 H 189.358 2.59736 -2.77923 0
M  V30 2062 H 190.67 3.5628 -3.49094 0
M  V30 2063 H 189.824 5.60631 -2.319 0
M  V30 2064 H 188.563 4.63973 -1.50268 0
M  V30 2065 H 187.568 4.04073 -3.72834 0
M  V30 2066 H 188.793 5.04136 -4.54998 0
M  V30 2067 H 186.739 6.04672 -2.54377 0
M  V30 2068 H 186.656 6.2429 -4.26377 0
M  V30 2069 H 187.924 7.02841 -3.37097 0
M  V30 2070 N 192.153 1.28127 0.917671 0
M  V30 2071 C 193.083 1.14248 2.03641 0
M  V30 2072 C 194.064 0.0412748 1.7005 0
M  V30 2073 O 195.249 0.217566 1.92977 0
M  V30 2074 C 192.379 0.799431 3.37974 0
M  V30 2075 C 191.333 1.85497 3.85713 0
M  V30 2076 C 190.659 1.36565 5.16966 0
M  V30 2077 C 191.959 3.26085 4.08002 0
M  V30 2078 H 193.653 2.07835 2.15511 0
M  V30 2079 H 191.199 1.00064 1.03553 0
M  V30 2080 H 193.152 0.689114 4.15727 0
M  V30 2081 H 191.876 -0.172145 3.26146 0
M  V30 2082 H 190.535 1.95437 3.10161 0
M  V30 2083 H 190.183 0.383253 5.01538 0
M  V30 2084 H 189.883 2.07143 5.49878 0
M  V30 2085 H 191.407 1.26848 5.97279 0
M  V30 2086 H 192.821 3.19089 4.76293 0
M  V30 2087 H 191.218 3.94462 4.52238 0
M  V30 2088 H 192.288 3.70394 3.12948 0
M  V30 2089 N 193.631 -1.12557 1.10312 0
M  V30 2090 C 194.877 -1.84311 0.846011 0
M  V30 2091 C 195.21 -1.83805 -0.626859 0
M  V30 2092 O 194.485 -1.28268 -1.46211 0
M  V30 2093 C 194.768 -3.32048 1.39341 0
M  V30 2094 C 194.621 -3.41016 2.93305 0
M  V30 2095 C 195.94 -4.27764 1.03468 0
M  V30 2096 H 193.059 -0.669192 0.30879 0
M  V30 2097 H 195.701 -1.32057 1.36605 0
M  V30 2098 H 193.851 -3.76678 0.951087 0
M  V30 2099 H 195.523 -3.05031 3.46055 0
M  V30 2100 H 193.766 -2.81603 3.29973 0
M  V30 2101 H 194.437 -4.44948 3.26689 0
M  V30 2102 H 196.913 -3.91253 1.41633 0
M  V30 2103 H 195.789 -5.29549 1.44463 0
M  V30 2104 H 196.05 -4.42064 -0.0560404 0
M  V30 2105 N 195.109 -0.891671 -1.2995 0
M  V30 2106 C 196.386 -0.433307 -1.9074 0
M  V30 2107 C 196.766 1.08646 -1.80995 0
M  V30 2108 O 196.114 1.92476 -1.23147 0
M  V30 2109 C 196.324 -0.938895 -3.36134 0
M  V30 2110 C 197.672 -0.977829 -4.13187 0
M  V30 2111 O 198.696 -0.886015 -3.45005 0
M  V30 2112 O 197.555 -1.11453 -5.35015 0
M  V30 2113 H 194.649 -0.133699 -0.816121 0
M  V30 2114 H 197.195 -0.981011 -1.38471 0
M  V30 2115 H 195.967 -1.98281 -3.37343 0
M  V30 2116 H 195.59 -0.37074 -3.95868 0
M  V30 2117 N 196.587 1.43421 -0.653314 0
M  V30 2118 C 197.519 2.29071 0.0769134 0
M  V30 2119 C 198.532 1.42513 0.787017 0
M  V30 2120 O 199.721 1.66449 0.644757 0
M  V30 2121 C 196.821 3.19436 1.13199 0
M  V30 2122 C 195.994 4.34533 0.500006 0
M  V30 2123 C 195.053 5.05771 1.45198 0
M  V30 2124 O 194.079 5.61037 0.960538 0
M  V30 2125 N 195.281 5.0928 2.78594 0
M  V30 2126 H 198.046 2.92382 -0.658235 0
M  V30 2127 H 195.607 1.54112 -0.496104 0
M  V30 2128 H 197.599 3.63958 1.76964 0
M  V30 2129 H 196.169 2.57724 1.7691 0
M  V30 2130 H 195.389 3.92925 -0.316738 0
M  V30 2131 H 196.677 5.08766 0.0588345 0
M  V30 2132 H 196.075 4.65751 3.2108 0
M  V30 2133 H 194.632 5.57519 3.37662 0
M  V30 2134 N 198.065 0.39524 1.52563 0
M  V30 2135 C 199.342 -0.242908 1.94086 0
M  V30 2136 C 199.722 -1.63841 1.33114 0
M  V30 2137 O 199.07 -2.22928 0.501529 0
M  V30 2138 C 199.28 -0.26327 3.48006 0
M  V30 2139 C 200.628 -0.489354 4.21771 0
M  V30 2140 O 201.652 -0.343226 3.54543 0
M  V30 2141 O 200.511 -0.776169 5.4096 0
M  V30 2142 H 197.605 -0.152536 0.812811 0
M  V30 2143 H 200.151 0.450178 1.6362 0
M  V30 2144 H 198.923 0.713985 3.84731 0
M  V30 2145 H 198.546 -1.00103 3.84792 0
M  V30 2146 N 199.544 -1.57102 0.125237 0
M  V30 2147 C 200.491 -2.15641 -0.822655 0
M  V30 2148 C 201.461 -1.08313 -1.25927 0
M  V30 2149 O 202.646 -1.36251 -1.33567 0
M  V30 2150 C 199.786 -2.76504 -2.06494 0
M  V30 2151 C 198.899 -3.98158 -1.67612 0
M  V30 2152 C 198.034 -4.47088 -2.86854 0
M  V30 2153 C 197.073 -5.6126 -2.44242 0
M  V30 2154 N 196.21 -6.04905 -3.56419 0
M  V30 2155 H 201.05 -2.96313 -0.316625 0
M  V30 2156 H 198.587 -1.46388 -0.144588 0
M  V30 2157 H 200.545 -3.09925 -2.79289 0
M  V30 2158 H 199.175 -1.98512 -2.54545 0
M  V30 2159 H 198.227 -3.70858 -0.846661 0
M  V30 2160 H 199.539 -4.80934 -1.32301 0
M  V30 2161 H 198.693 -4.82451 -3.67867 0
M  V30 2162 H 197.432 -3.63275 -3.25396 0
M  V30 2163 H 196.437 -5.25495 -1.61663 0
M  V30 2164 H 197.662 -6.46843 -2.0681 0
M  V30 2165 H 195.608 -5.24032 -3.94623 0
M  V30 2166 H 195.525 -6.82552 -3.25051 0
M  V30 2167 H 196.793 -6.44907 -4.37853 0
M  V30 2168 N 201.022 0.148545 -1.56898 0
M  V30 2169 C 202.25 0.876389 -1.87422 0
M  V30 2170 C 202.665 1.74809 -0.713256 0
M  V30 2171 O 202.022 1.79725 0.317025 0
M  V30 2172 C 202.073 1.73438 -3.17178 0
M  V30 2173 O 201.794 0.897809 -4.28802 0
M  V30 2174 C 203.295 2.56993 -3.61205 0
M  V30 2175 H 200.515 0.253489 -0.621277 0
M  V30 2176 H 203.059 0.141798 -2.04008 0
M  V30 2177 H 201.214 2.42205 -3.0235 0
M  V30 2178 H 201.628 1.48672 -5.02988 0
M  V30 2179 H 203.102 3.12773 -4.54838 0
M  V30 2180 H 203.579 3.32958 -2.86419 0
M  V30 2181 H 204.185 1.9352 -3.78722 0
M  V30 2182 N 202.5 1.5196 0.417844 0
M  V30 2183 C 203.433 1.69387 1.52916 0
M  V30 2184 C 204.411 0.541419 1.53321 0
M  V30 2185 O 205.595 0.767695 1.72159 0
M  V30 2186 C 202.722 1.72525 2.91467 0
M  V30 2187 C 201.768 2.93967 3.09008 0
M  V30 2188 S 202.601 4.54461 2.83242 0
M  V30 2189 C 203.757 4.60372 4.24038 0
M  V30 2190 H 203.99 2.63382 1.37903 0
M  V30 2191 H 201.523 1.41889 0.608845 0
M  V30 2192 H 203.481 1.75018 3.7132 0
M  V30 2193 H 202.142 0.796733 3.03827 0
M  V30 2194 H 201.335 2.92619 4.10353 0
M  V30 2195 H 200.937 2.89316 2.37007 0
M  V30 2196 H 203.229 4.37213 5.17544 0
M  V30 2197 H 204.172 5.62273 4.30412 0
M  V30 2198 H 204.58 3.89492 4.08602 0
M  V30 2199 N 203.978 -0.674533 1.42435 0
M  V30 2200 C 205.225 -1.43459 1.42919 0
M  V30 2201 C 205.553 -1.94446 0.0457312 0
M  V30 2202 O 204.808 -1.7132 -0.94593 0
M  V30 2203 C 205.107 -2.64767 2.40069 0
M  V30 2204 C 204.773 -2.3232 3.86443 0
M  V30 2205 C 203.435 -2.23182 4.26314 0
M  V30 2206 C 205.787 -2.05977 4.78773 0
M  V30 2207 C 203.115 -1.85827 5.56494 0
M  V30 2208 C 205.467 -1.70125 6.09295 0
M  V30 2209 C 204.131 -1.59498 6.48164 0
M  V30 2210 H 203.401 -0.524952 0.522978 0
M  V30 2211 H 206.048 -0.769097 1.75377 0
M  V30 2212 H 204.353 -3.36349 2.00939 0
M  V30 2213 H 206.05 -3.22949 2.37707 0
M  V30 2214 H 202.64 -2.40334 3.54877 0
M  V30 2215 H 206.824 -2.11969 4.48757 0
M  V30 2216 H 202.08 -1.76168 5.8547 0
M  V30 2217 H 206.254 -1.48767 6.80324 0
M  V30 2218 H 203.881 -1.30322 7.48946 0
M  V30 2219 N 205.456 -1.28612 -0.910864 0
M  V30 2220 C 206.705 -1.15311 -1.65488 0
M  V30 2221 C 207.018 0.296999 -1.93332 0
M  V30 2222 O 208.224 0.551168 -2.65847 0
M  V30 2223 C 206.68 -2.01599 -2.98137 0
M  V30 2224 C 206.288 -3.51367 -2.7793 0
M  V30 2225 C 208.032 -1.96993 -3.76024 0
M  V30 2226 C 205.939 -4.29797 -4.06237 0
M  V30 2227 H 204.869 -0.42796 -0.620779 0
M  V30 2228 H 207.52 -1.53166 -1.01057 0
M  V30 2229 H 205.902 -1.56603 -3.63719 0
M  V30 2230 H 207.076 -4.0434 -2.21011 0
M  V30 2231 H 205.391 -3.57529 -2.13452 0
M  V30 2232 H 207.988 -2.52856 -4.71135 0
M  V30 2233 H 208.331 -0.94733 -4.05378 0
M  V30 2234 H 208.864 -2.39973 -3.17266 0
M  V30 2235 H 205.603 -5.32648 -3.82055 0
M  V30 2236 H 205.123 -3.81596 -4.62757 0
M  V30 2237 H 206.802 -4.39869 -4.74473 0
M  V30 2238 N 206.934 1.1197 -1.10907 0
M  V30 2239 C 208.174 1.85224 -0.864378 0
M  V30 2240 C 208.538 1.82411 0.599178 0
M  V30 2241 O 209.739 2.51057 0.960416 0
M  V30 2242 C 208.01 3.2868 -1.40371 0
M  V30 2243 S 209.569 4.1925 -1.29518 0
M  V30 2244 H 206.387 0.63878 -0.312219 0
M  V30 2245 H 208.989 1.3485 -1.41548 0
M  V30 2246 H 207.693 3.28289 -2.46281 0
M  V30 2247 H 207.224 3.84121 -0.849402 0
M  V30 2248 H 209.239 4.95539 -0.256059 0
M  V30 2249 N 208.412 0.89855 1.29475 0
M  V30 2250 C 209.359 0.373819 2.27753 0
M  V30 2251 C 210.329 -0.543444 1.56958 0
M  V30 2252 O 211.514 -0.468934 1.84948 0
M  V30 2253 C 208.654 -0.393648 3.42848 0
M  V30 2254 C 207.767 0.554379 4.28428 0
M  V30 2255 C 206.902 -0.230026 5.30702 0
M  V30 2256 C 205.941 0.712599 6.07938 0
M  V30 2257 N 205.078 -0.0373283 7.0209 0
M  V30 2258 H 209.918 1.21699 2.72017 0
M  V30 2259 H 207.455 0.611456 1.33789 0
M  V30 2260 H 209.413 -0.85466 4.08352 0
M  V30 2261 H 208.043 -1.20128 2.99615 0
M  V30 2262 H 207.095 1.13391 3.63107 0
M  V30 2263 H 208.407 1.27597 4.82204 0
M  V30 2264 H 207.561 -0.752288 6.02018 0
M  V30 2265 H 206.3 -0.984758 4.77654 0
M  V30 2266 H 205.305 1.24637 5.35486 0
M  V30 2267 H 206.53 1.46664 6.63074 0
M  V30 2268 H 204.476 -0.774348 6.51414 0
M  V30 2269 H 204.393 0.624374 7.53417 0
M  V30 2270 H 205.661 -0.539891 7.77628 0
M  V30 2271 N 209.89 -1.43072 0.660911 0
M  V30 2272 C 211.115 -2.06584 0.183805 0
M  V30 2273 C 211.54 -1.49257 -1.14472 0
M  V30 2274 O 210.898 -0.605528 -1.70889 0
M  V30 2275 C 210.946 -3.60418 0.114434 0
M  V30 2276 O 210.05 -4.01981 -0.921137 0
M  V30 2277 H 209.391 -0.656669 0.0983994 0
M  V30 2278 H 211.921 -1.83447 0.906006 0
M  V30 2279 H 211.931 -4.07946 -0.0663394 0
M  V30 2280 H 210.606 -4.01519 1.08422 0
M  V30 2281 H 209.183 -3.66029 -0.71253 0
M  V30 2282 N 211.368 -0.403325 -1.52352 0
M  V30 2283 C 212.593 0.176499 -2.06648 0
M  V30 2284 C 213.018 1.38577 -1.27193 0
M  V30 2285 O 212.376 1.7879 -0.300637 0
M  V30 2286 C 212.424 0.511061 -3.5696 0
M  V30 2287 O 211.528 1.60294 -3.79973 0
M  V30 2288 H 210.869 0.0167337 -0.663789 0
M  V30 2289 H 213.399 -0.574848 -1.96359 0
M  V30 2290 H 213.409 0.771362 -4.00642 0
M  V30 2291 H 212.084 -0.37296 -4.14224 0
M  V30 2292 H 210.661 1.33526 -3.48174 0
M  V30 2293 N 212.846 1.57033 -0.133567 0
M  V30 2294 C 214.092 1.96764 0.515326 0
M  V30 2295 C 214.447 1.01653 1.63353 0
M  V30 2296 O 213.74 0.0491374 1.91537 0
M  V30 2297 C 213.934 3.40674 1.08057 0
M  V30 2298 C 213.763 4.49696 0.0186522 0
M  V30 2299 C 212.533 5.03567 -0.418174 0
M  V30 2300 C 214.731 5.08536 -0.767809 0
M  V30 2301 N 212.713 5.9618 -1.46434 0
M  V30 2302 C 214.084 5.97231 -1.6648 0
M  V30 2303 C 216.139 4.9115 -0.817087 0
M  V30 2304 C 214.842 6.70401 -2.60681 0
M  V30 2305 C 216.868 5.65012 -1.74687 0
M  V30 2306 C 216.23 6.53403 -2.63141 0
M  V30 2307 H 212.329 0.765919 0.157771 0
M  V30 2308 H 214.913 1.93395 -0.22506 0
M  V30 2309 H 213.084 3.44662 1.79061 0
M  V30 2310 H 214.816 3.67495 1.69497 0
M  V30 2311 H 211.571 4.73594 -0.0229803 0
M  V30 2312 H 211.995 6.47191 -1.98678 0
M  V30 2313 H 216.637 4.22543 -0.147326 0
M  V30 2314 H 214.355 7.38245 -3.28664 0
M  V30 2315 H 217.941 5.53559 -1.79063 0
M  V30 2316 H 216.821 7.09556 -3.33917 0
M  V30 2317 N 214.325 -0.140222 1.56975 0
M  V30 2318 C 215.55 -0.870414 1.88251 0
M  V30 2319 C 215.975 -1.73637 0.723312 0
M  V30 2320 O 215.333 -1.78329 -0.32689 0
M  V30 2321 C 215.381 -1.69737 3.18154 0
M  V30 2322 O 214.485 -2.80229 3.02565 0
M  V30 2323 H 213.826 -0.242025 0.61832 0
M  V30 2324 H 216.356 -0.128999 2.04193 0
M  V30 2325 H 216.366 -2.09099 3.50345 0
M  V30 2326 H 215.041 -1.06152 4.02125 0
M  V30 2327 H 213.618 -2.44224 2.81796 0
M  V30 2328 N 215.803 -1.52179 -0.40978 0
M  V30 2329 C 216.736 -1.70196 -1.52015 0
M  V30 2330 C 217.714 -0.549542 -1.53032 0
M  V30 2331 O 218.898 -0.776815 -1.71749 0
M  V30 2332 C 216.025 -1.74069 -2.90547 0
M  V30 2333 C 215.071 -2.95601 -3.07445 0
M  V30 2334 S 215.904 -4.55956 -2.80827 0
M  V30 2335 C 217.06 -4.62614 -4.21591 0
M  V30 2336 H 217.293 -2.64109 -1.36504 0
M  V30 2337 H 214.826 -1.4221 -0.601312 0
M  V30 2338 H 216.784 -1.76985 -3.70387 0
M  V30 2339 H 215.445 -0.812835 -3.034 0
M  V30 2340 H 214.638 -2.94791 -4.08796 0
M  V30 2341 H 214.24 -2.90569 -2.35469 0
M  V30 2342 H 216.532 -4.39951 -5.15218 0
M  V30 2343 H 217.475 -5.64548 -4.27424 0
M  V30 2344 H 217.883 -3.91654 -4.06531 0
M  V30 2345 N 217.281 0.66697 -1.42791 0
M  V30 2346 C 218.697 0.981027 -1.25889 0
M  V30 2347 C 218.897 2.00793 -0.168695 0
M  V30 2348 O 217.953 2.48321 0.45747 0
M  V30 2349 C 219.266 1.47838 -2.61848 0
M  V30 2350 C 220.814 1.59575 -2.69267 0
M  V30 2351 C 221.289 2.12704 -4.05612 0
M  V30 2352 N 222.78 2.20026 -4.07606 0
M  V30 2353 C 223.515 2.62227 -5.09926 0
M  V30 2354 N 223.011 3.03824 -6.22626 0
M  V30 2355 N 224.804 2.62045 -4.97281 0
M  V30 2356 H 216.955 -0.0127891 -2.12396 0
M  V30 2357 H 219.218 0.0568258 -0.946295 0
M  V30 2358 H 218.924 0.798299 -3.4252 0
M  V30 2359 H 218.798 2.45579 -2.86305 0
M  V30 2360 H 221.185 2.26687 -1.88936 0
M  V30 2361 H 221.266 0.60302 -2.48591 0
M  V30 2362 H 220.91 1.46198 -4.86404 0
M  V30 2363 H 220.84 3.12782 -4.23645 0
M  V30 2364 H 223.331 1.90708 -3.2625 0
M  V30 2365 H 223.644 3.34734 -6.96544 0
M  V30 2366 H 221.989 3.01662 -6.26119 0
M  V30 2367 H 225.18 2.28916 -4.08308 0
M  V30 2368 H 225.353 2.94613 -5.77154 0
M  V30 2369 N 218.759 1.29093 0.90403 0
M  V30 2370 C 219.669 1.15727 2.0407 0
M  V30 2371 C 220.685 0.0815308 1.73809 0
M  V30 2372 O 221.861 0.292749 1.99261 0
M  V30 2373 C 218.926 0.830424 3.36608 0
M  V30 2374 C 217.987 1.98955 3.80415 0
M  V30 2375 C 217.22 1.6782 5.06628 0
M  V30 2376 O 217.443 0.597105 5.67266 0
M  V30 2377 O 216.377 2.52486 5.46383 0
M  V30 2378 H 220.203 2.11171 2.18267 0
M  V30 2379 H 217.788 1.08504 1.027 0
M  V30 2380 H 219.67 0.662521 4.16159 0
M  V30 2381 H 218.345 -0.0942678 3.23563 0
M  V30 2382 H 217.252 2.21267 3.01648 0
M  V30 2383 H 218.585 2.89529 3.98037 0
M  V30 2384 N 220.237 -1.11381 1.11499 0
M  V30 2385 C 221.2 -2.15622 0.777153 0
M  V30 2386 C 222.2 -1.59504 -0.203779 0
M  V30 2387 O 223.39 -1.74188 0.020782 0
M  V30 2388 C 220.522 -3.40556 0.153116 0
M  V30 2389 H 221.715 -2.47021 1.70061 0
M  V30 2390 H 219.268 -1.26577 0.916952 0
M  V30 2391 H 220.003 -3.14767 -0.780536 0
M  V30 2392 H 219.788 -3.8257 0.859238 0
M  V30 2393 H 221.278 -4.17546 -0.0671044 0
M  V30 2394 N 221.715 -0.905404 -1.28997 0
M  V30 2395 C 222.663 -0.377431 -2.29517 0
M  V30 2396 C 223.657 0.526461 -1.61012 0
M  V30 2397 O 224.863 0.40863 -1.753 0
M  V30 2398 H 221.238 -0.103437 -0.744852 0
M  V30 2399 H 223.209 -1.23848 -2.71485 0
M  V30 2400 C 221.958 0.374833 -3.45674 0
M  V30 2401 H 221.281 -0.311474 -3.98585 0
M  V30 2402 H 222.721 0.70903 -4.1803 0
M  V30 2403 C 221.18 1.57963 -2.97572 0
M  V30 2404 O 221.71 2.67886 -2.99333 0
M  V30 2405 N 219.916 1.42375 -2.53333 0
M  V30 2406 H 219.463 0.529466 -2.521 0
M  V30 2407 H 219.421 2.23117 -2.21509 0
M  V30 2408 N 223.193 1.4272 -0.668489 0
M  V30 2409 C 224.439 2.01923 -0.188419 0
M  V30 2410 C 224.772 1.52704 1.19979 0
M  V30 2411 O 224.047 0.726566 1.8042 0
M  V30 2412 C 224.33 3.59451 -0.216085 0
M  V30 2413 C 224.183 4.18864 -1.6393 0
M  V30 2414 C 225.502 4.37903 0.439179 0
M  V30 2415 H 222.621 0.733674 -0.0699412 0
M  V30 2416 H 225.263 1.69822 -0.852076 0
M  V30 2417 H 223.413 3.86929 0.349012 0
M  V30 2418 H 225.085 4.02362 -2.25616 0
M  V30 2419 H 223.328 3.74933 -2.18193 0
M  V30 2420 H 223.999 5.27987 -1.61039 0
M  V30 2421 H 226.475 4.16079 -0.0417878 0
M  V30 2422 H 225.351 5.47519 0.389157 0
M  V30 2423 H 225.612 4.15303 1.51577 0
M  V30 2424 N 224.671 0.411399 1.52136 0
M  V30 2425 C 225.634 -0.401089 2.25663 0
M  V30 2426 C 226.634 -0.971732 1.28117 0
M  V30 2427 O 227.824 -0.850254 1.52041 0
M  V30 2428 C 224.956 -1.56483 3.02863 0
M  V30 2429 H 226.149 0.24295 2.98914 0
M  V30 2430 H 223.702 0.163968 1.55438 0
M  V30 2431 H 224.437 -2.24567 2.33967 0
M  V30 2432 H 224.222 -1.16211 3.74483 0
M  V30 2433 H 225.712 -2.13951 3.58629 0
M  V30 2434 N 226.149 -1.5696 0.141893 0
M  V30 2435 C 227.389 -1.9785 -0.513304 0
M  V30 2436 C 227.753 -1.02467 -1.62371 0
M  V30 2437 O 228.954 -1.32382 -2.33941 0
M  V30 2438 C 227.225 -3.42797 -1.01118 0
M  V30 2439 S 228.784 -4.05709 -1.67169 0
M  V30 2440 H 225.602 -0.691318 -0.166135 0
M  V30 2441 H 228.204 -1.94114 0.232398 0
M  V30 2442 H 226.908 -4.0995 -0.192179 0
M  V30 2443 H 226.439 -3.50235 -1.79162 0
M  V30 2444 H 228.454 -3.98342 -2.95868 0
M  V30 2445 N 227.627 0.131896 -1.57047 0
M  V30 2446 C 228.557 1.16384 -2.02428 0
M  V30 2447 C 229.538 1.43936 -0.90644 0
M  V30 2448 O 230.723 1.54599 -1.17528 0
M  V30 2449 C 227.853 2.49328 -2.4177 0
M  V30 2450 C 226.807 2.36266 -3.56879 0
M  V30 2451 C 226.133 3.74057 -3.8208 0
M  V30 2452 C 227.433 1.834 -4.89042 0
M  V30 2453 H 229.127 0.786433 -2.88887 0
M  V30 2454 H 226.673 0.376855 -1.38981 0
M  V30 2455 H 228.626 3.21759 -2.7212 0
M  V30 2456 H 227.35 2.88934 -1.52266 0
M  V30 2457 H 226.009 1.66286 -3.26718 0
M  V30 2458 H 225.657 4.11125 -2.89803 0
M  V30 2459 H 225.357 3.66174 -4.59554 0
M  V30 2460 H 226.881 4.48012 -4.1487 0
M  V30 2461 H 228.295 2.45636 -5.18011 0
M  V30 2462 H 226.692 1.8637 -5.70426 0
M  V30 2463 H 227.762 0.790662 -4.7841 0
M  V30 2464 N 229.106 1.52395 0.401703 0
M  V30 2465 C 230.383 1.57387 1.16141 0
M  V30 2466 C 230.763 0.359359 2.08019 0
M  V30 2467 O 230.111 -0.65326 2.18963 0
M  V30 2468 C 230.321 2.90631 1.93221 0
M  V30 2469 C 231.669 3.43904 2.49028 0
M  V30 2470 O 232.693 2.92421 2.03393 0
M  V30 2471 O 231.552 4.33823 3.32356 0
M  V30 2472 H 228.646 0.634262 0.530698 0
M  V30 2473 H 231.192 1.64725 0.407883 0
M  V30 2474 H 229.964 3.70473 1.25958 0
M  V30 2475 H 229.587 2.8662 2.75563 0
M  V30 2476 N 230.584 -0.659388 1.43143 0
M  V30 2477 C 231.514 -1.78422 1.50625 0
M  V30 2478 C 232.495 -1.66216 0.361443 0
M  V30 2479 O 233.68 -1.85404 0.577834 0
M  V30 2480 C 230.81 -3.16815 1.42287 0
M  V30 2481 C 229.764 -3.43777 2.54954 0
M  V30 2482 C 229.09 -4.81905 2.31671 0
M  V30 2483 C 230.39 -3.39134 3.97222 0
M  V30 2484 H 232.084 -1.72417 2.44771 0
M  V30 2485 H 229.63 -0.828084 1.17808 0
M  V30 2486 H 231.583 -3.95253 1.46127 0
M  V30 2487 H 230.307 -3.23534 0.446435 0
M  V30 2488 H 228.966 -2.67707 2.50457 0
M  V30 2489 H 228.614 -4.85294 1.32284 0
M  V30 2490 H 228.314 -5.00906 3.07192 0
M  V30 2491 H 229.838 -5.62609 2.37284 0
M  V30 2492 H 231.252 -4.07518 4.03239 0
M  V30 2493 H 229.649 -3.69671 4.72719 0
M  V30 2494 H 230.719 -2.37426 4.22797 0
M  V30 2495 N 232.062 -1.29571 -0.897171 0
M  V30 2496 C 233.31 -1.17456 -1.64464 0
M  V30 2497 C 233.631 0.273698 -1.9307 0
M  V30 2498 O 232.901 1.18684 -1.55855 0
M  V30 2499 H 231.481 -0.431706 -0.609622 0
M  V30 2500 H 234.143 -1.62531 -1.07562 0
M  V30 2501 H 233.239 -1.72648 -2.59998 0
M  V30 2502 N 233.54 1.10788 -1.12088 0
M  V30 2503 C 234.787 1.82671 -0.873931 0
M  V30 2504 C 235.115 1.85004 0.600311 0
M  V30 2505 O 234.37 1.30365 1.45957 0
M  V30 2506 C 234.669 3.29294 -1.38926 0
M  V30 2507 C 234.335 3.47113 -2.87791 0
M  V30 2508 C 232.997 3.51684 -3.28439 0
M  V30 2509 C 235.349 3.52808 -3.83635 0
M  V30 2510 C 232.677 3.59513 -4.63646 0
M  V30 2511 C 235.029 3.62169 -5.18668 0
M  V30 2512 C 233.693 3.65003 -5.58864 0
M  V30 2513 H 232.963 0.668441 -0.319794 0
M  V30 2514 H 235.61 1.30613 -1.40045 0
M  V30 2515 H 233.915 3.83894 -0.783122 0
M  V30 2516 H 235.612 3.83416 -1.17443 0
M  V30 2517 H 232.202 3.4423 -2.5535 0
M  V30 2518 H 236.386 3.4853 -3.53328 0
M  V30 2519 H 231.642 3.59987 -4.94185 0
M  V30 2520 H 235.816 3.6552 -5.92763 0
M  V30 2521 H 233.443 3.70822 -6.63623 0
M  V30 2522 N 235.018 0.912232 1.28515 0
M  V30 2523 C 235.95 0.35676 2.26406 0
M  V30 2524 C 236.963 -0.503933 1.54804 0
M  V30 2525 O 238.152 -0.319059 1.75625 0
M  V30 2526 C 235.252 -0.508825 3.35058 0
M  V30 2527 C 234.425 0.329007 4.36161 0
M  V30 2528 C 233.484 -0.471422 5.24084 0
M  V30 2529 O 232.51 0.115482 5.69083 0
M  V30 2530 N 233.712 -1.77479 5.52704 0
M  V30 2531 H 236.477 1.19818 2.74707 0
M  V30 2532 H 234.038 0.778022 1.4198 0
M  V30 2533 H 236.03 -1.051 3.90815 0
M  V30 2534 H 234.6 -1.25095 2.86478 0
M  V30 2535 H 233.82 1.05256 3.79888 0
M  V30 2536 H 235.108 0.90234 5.00735 0
M  V30 2537 H 234.506 -2.27417 5.17975 0
M  V30 2538 H 233.063 -2.26382 6.11224 0
M  V30 2539 N 236.496 -1.42363 0.676048 0
M  V30 2540 C 237.428 -2.29164 -0.0404605 0
M  V30 2541 C 238.441 -1.43747 -0.764245 0
M  V30 2542 O 239.63 -1.67453 -0.618195 0
M  V30 2543 C 236.73 -3.21196 -1.08103 0
M  V30 2544 C 235.903 -4.35273 -0.430812 0
M  V30 2545 C 234.962 -5.08017 -1.37133 0
M  V30 2546 O 233.988 -5.62494 -0.87116 0
M  V30 2547 N 235.19 -5.13647 -2.70456 0
M  V30 2548 H 237.955 -2.91298 0.704667 0
M  V30 2549 H 235.516 -1.53303 0.520559 0
M  V30 2550 H 237.508 -3.66728 -1.71152 0
M  V30 2551 H 236.078 -2.60505 -1.72788 0
M  V30 2552 H 235.298 -3.92372 0.379209 0
M  V30 2553 H 236.586 -5.08795 0.0221132 0
M  V30 2554 H 235.984 -4.708 -3.1363 0
M  V30 2555 H 234.541 -5.62821 -3.28749 0
M  V30 2556 N 237.974 -0.419461 -1.51915 0
M  V30 2557 C 239.222 0.152637 -2.01523 0
M  V30 2558 C 239.543 1.44762 -1.30649 0
M  V30 2559 O 238.813 1.90997 -0.435535 0
M  V30 2560 H 237.393 0.0593966 -0.744635 0
M  V30 2561 H 240.055 -0.558073 -1.86739 0
M  V30 2562 H 239.151 0.341369 -3.10227 0
M  V30 2563 N 239.452 1.56882 -0.150215 0
M  V30 2564 C 240.415 2.1573 0.774157 0
M  V30 2565 C 241.415 1.0999 1.17298 0
M  V30 2566 O 242.605 1.35613 1.09338 0
M  V30 2567 C 239.737 2.72302 2.05096 0
M  V30 2568 H 240.93 2.98752 0.262201 0
M  V30 2569 H 238.483 1.55985 0.099248 0
M  V30 2570 H 239.218 1.92956 2.6065 0
M  V30 2571 H 239.003 3.49665 1.77416 0
M  V30 2572 H 240.493 3.17632 2.71109 0
M  V30 2573 N 240.93 -0.123565 1.57115 0
M  V30 2574 C 242.207 -0.862196 1.75572 0
M  V30 2575 C 242.587 -1.98279 0.724475 0
M  V30 2576 O 241.935 -2.27102 -0.252407 0
M  V30 2577 C 242.145 -1.38309 3.20424 0
M  V30 2578 C 243.493 -1.83724 3.82793 0
M  V30 2579 O 244.517 -1.47999 3.23998 0
M  V30 2580 O 243.376 -2.49685 4.86127 0
M  V30 2581 H 240.47 -0.409113 0.718718 0
M  V30 2582 H 243.016 -0.107661 1.69358 0
M  V30 2583 H 241.788 -0.578889 3.86994 0
M  V30 2584 H 241.411 -2.20046 3.31158 0
M  V30 2585 N 242.408 -1.52605 -0.393616 0
M  V30 2586 C 243.636 -1.71294 -1.16043 0
M  V30 2587 C 244.051 -0.429259 -1.83855 0
M  V30 2588 O 243.408 0.595921 -1.72496 0
M  V30 2589 C 243.459 -2.8593 -2.21193 0
M  V30 2590 O 243.18 -4.09329 -1.56146 0
M  V30 2591 C 244.681 -3.16259 -3.10636 0
M  V30 2592 H 241.901 -0.573641 -0.348104 0
M  V30 2593 H 244.445 -1.99234 -0.461092 0
M  V30 2594 H 242.6 -2.60465 -2.86769 0
M  V30 2595 H 243.014 -4.73323 -2.25978 0
M  V30 2596 H 244.488 -3.99946 -3.80456 0
M  V30 2597 H 244.965 -2.3045 -3.73884 0
M  V30 2598 H 245.571 -3.43547 -2.50711 0
M  V30 2599 N 243.887 0.651787 -1.4349 0
M  V30 2600 C 244.819 1.77725 -1.44729 0
M  V30 2601 C 245.832 1.59141 -0.343231 0
M  V30 2602 O 247.021 1.67835 -0.607751 0
M  V30 2603 C 244.121 3.15172 -1.24579 0
M  V30 2604 C 243.294 3.60402 -2.47849 0
M  V30 2605 C 242.353 4.76656 -2.22902 0
M  V30 2606 O 241.379 4.86022 -2.96263 0
M  V30 2607 N 242.581 5.66958 -1.24656 0
M  V30 2608 H 245.346 1.77141 -2.41746 0
M  V30 2609 H 242.907 0.835678 -1.38665 0
M  V30 2610 H 244.899 3.90634 -1.0577 0
M  V30 2611 H 243.469 3.1052 -0.360015 0
M  V30 2612 H 242.689 2.75369 -2.82073 0
M  V30 2613 H 243.977 3.87368 -3.29884 0
M  V30 2614 H 243.375 5.62065 -0.640265 0
M  V30 2615 H 241.932 6.42135 -1.1183 0
M  V30 2616 N 245.365 1.30045 0.890287 0
M  V30 2617 C 246.781 1.08261 1.17268 0
M  V30 2618 C 246.981 -0.160063 2.00863 0
M  V30 2619 O 246.037 -0.855181 2.37577 0
M  V30 2620 C 247.35 2.34323 1.8845 0
M  V30 2621 C 248.898 2.39735 2.01237 0
M  V30 2622 C 249.373 3.65625 2.7583 0
M  V30 2623 N 250.864 3.66402 2.83379 0
M  V30 2624 C 251.599 4.60498 3.41657 0
M  V30 2625 N 251.095 5.64933 4.01026 0
M  V30 2626 N 252.888 4.48051 3.39421 0
M  V30 2627 H 245.039 2.09777 0.332762 0
M  V30 2628 H 247.302 0.92446 0.209948 0
M  V30 2629 H 247.008 3.2498 1.34465 0
M  V30 2630 H 246.882 2.4256 2.88867 0
M  V30 2631 H 249.269 1.4956 2.54393 0
M  V30 2632 H 249.35 2.35476 0.999232 0
M  V30 2633 H 248.994 4.56156 2.23347 0
M  V30 2634 H 248.924 3.67144 3.77509 0
M  V30 2635 H 251.415 2.90896 2.41222 0
M  V30 2636 H 251.728 6.32841 4.43545 0
M  V30 2637 H 250.073 5.68732 3.99461 0
M  V30 2638 H 253.264 3.65649 2.92264 0
M  V30 2639 H 253.437 5.21565 3.84544 0
M  V30 2640 N 246.843 -1.10192 1.12674 0
M  V30 2641 C 248.259 -1.34235 0.863317 0
M  V30 2642 C 248.459 -1.95062 -0.505277 0
M  V30 2643 O 247.515 -2.19192 -1.25345 0
M  V30 2644 C 248.828 -2.2616 1.98172 0
M  V30 2645 C 250.376 -2.3969 2.0129 0
M  V30 2646 C 250.851 -3.34946 3.1237 0
M  V30 2647 N 252.342 -3.42515 3.11829 0
M  V30 2648 C 253.077 -4.16199 3.94419 0
M  V30 2649 N 252.573 -4.92747 4.87004 0
M  V30 2650 N 254.366 -4.11843 3.82547 0
M  V30 2651 H 246.517 -0.690798 2.00853 0
M  V30 2652 H 248.78 -0.366774 0.874174 0
M  V30 2653 H 248.486 -1.8868 2.96804 0
M  V30 2654 H 248.36 -3.26488 1.88906 0
M  V30 2655 H 250.747 -2.76438 1.03276 0
M  V30 2656 H 250.828 -1.39169 2.14629 0
M  V30 2657 H 250.472 -2.98923 4.10619 0
M  V30 2658 H 250.402 -4.35353 2.96269 0
M  V30 2659 H 252.893 -2.87926 2.44759 0
M  V30 2660 H 253.206 -5.46376 5.46528 0
M  V30 2661 H 251.551 -4.91862 4.91016 0
M  V30 2662 H 254.742 -3.51136 3.0955 0
M  V30 2663 H 254.915 -4.69007 4.47142 0
M  V30 2664 N 248.321 -0.919034 -1.28029 0
M  V30 2665 C 249.568 -0.554934 -1.94748 0
M  V30 2666 C 249.896 0.90231 -1.72304 0
M  V30 2667 O 249.151 1.65767 -1.04018 0
M  V30 2668 C 249.45 -0.816855 -3.4794 0
M  V30 2669 C 249.116 -2.25448 -3.90492 0
M  V30 2670 C 247.778 -2.64752 -4.01821 0
M  V30 2671 C 250.13 -3.18977 -4.12193 0
M  V30 2672 C 247.458 -3.96727 -4.32232 0
M  V30 2673 C 249.81 -4.50523 -4.44086 0
M  V30 2674 C 248.474 -4.89673 -4.53626 0
M  V30 2675 H 247.744 -0.203065 -0.712633 0
M  V30 2676 H 250.391 -1.16136 -1.52265 0
M  V30 2677 H 248.696 -0.127677 -3.91592 0
M  V30 2678 H 250.393 -0.514238 -3.97689 0
M  V30 2679 H 246.983 -1.93952 -3.82205 0
M  V30 2680 H 251.167 -2.89817 -4.02889 0
M  V30 2681 H 246.423 -4.26754 -4.37825 0
M  V30 2682 H 250.597 -5.23005 -4.59825 0
M  V30 2683 H 248.224 -5.91969 -4.76946 0
M  V30 2684 N 249.799 1.42003 -0.683588 0
M  V30 2685 C 250.746 2.30798 -0.0107309 0
M  V30 2686 C 251.716 1.4645 0.783688 0
M  V30 2687 O 252.901 1.75263 0.754156 0
M  V30 2688 C 250.041 3.3238 0.928306 0
M  V30 2689 C 249.154 4.31814 0.126776 0
M  V30 2690 C 248.289 5.20468 1.06236 0
M  V30 2691 C 247.328 6.11577 0.253035 0
M  V30 2692 N 246.465 6.92754 1.14179 0
M  V30 2693 H 251.305 2.8778 -0.773727 0
M  V30 2694 H 248.842 1.41745 -0.393283 0
M  V30 2695 H 250.8 3.89813 1.48666 0
M  V30 2696 H 249.43 2.76976 1.65783 0
M  V30 2697 H 248.482 3.76427 -0.54833 0
M  V30 2698 H 249.794 4.96276 -0.501192 0
M  V30 2699 H 248.948 5.82677 1.69035 0
M  V30 2700 H 247.687 4.56204 1.7242 0
M  V30 2701 H 246.692 5.48428 -0.388108 0
M  V30 2702 H 247.917 6.77892 -0.404839 0
M  V30 2703 H 245.863 6.3111 1.78987 0
M  V30 2704 H 245.78 7.53855 0.569111 0
M  V30 2705 H 247.048 7.59441 1.75697 0
M  V30 2706 N 251.277 0.427512 1.51691 0
M  V30 2707 C 252.207 -0.3796 2.30394 0
M  V30 2708 C 253.188 -1.02982 1.35384 0
M  V30 2709 O 254.373 -1.03534 1.643 0
M  V30 2710 C 251.503 -1.48649 3.1388 0
M  V30 2711 C 250.457 -0.960294 4.17088 0
M  V30 2712 C 249.783 -2.16219 4.89033 0
M  V30 2713 C 251.083 -0.00153679 5.223 0
M  V30 2714 H 252.777 0.277164 2.98114 0
M  V30 2715 H 250.323 0.134739 1.43368 0
M  V30 2716 H 252.276 -2.05826 3.67714 0
M  V30 2717 H 251 -2.1714 2.43962 0
M  V30 2718 H 249.659 -0.410806 3.64291 0
M  V30 2719 H 249.307 -2.83307 4.15628 0
M  V30 2720 H 249.007 -1.81654 5.58816 0
M  V30 2721 H 250.531 -2.73968 5.45687 0
M  V30 2722 H 251.945 -0.482687 5.71264 0
M  V30 2723 H 250.342 0.256199 5.99553 0
M  V30 2724 H 251.412 0.938174 4.75738 0
M  V30 2725 N 252.755 -1.56801 0.158532 0
M  V30 2726 C 253.98 -2.01295 -0.499516 0
M  V30 2727 C 254.405 -1.03799 -1.56867 0
M  V30 2728 O 253.763 -0.0155162 -1.81293 0
M  V30 2729 C 253.811 -3.44469 -1.06647 0
M  V30 2730 O 252.915 -3.50012 -2.18095 0
M  V30 2731 H 252.256 -0.652884 -0.12099 0
M  V30 2732 H 254.786 -2.02958 0.258661 0
M  V30 2733 H 254.796 -3.8351 -1.39227 0
M  V30 2734 H 253.471 -4.14932 -0.283581 0
M  V30 2735 H 252.048 -3.22822 -1.86656 0
M  V30 2736 N 254.233 0.115231 -1.57178 0
M  V30 2737 C 255.51 0.852873 -1.76027 0
M  V30 2738 C 255.89 1.97892 -0.73498 0
M  V30 2739 O 255.238 2.27232 0.24036 0
M  V30 2740 C 255.448 1.36608 -3.21153 0
M  V30 2741 C 256.796 1.81692 -3.83762 0
M  V30 2742 O 257.82 1.46278 -3.24779 0
M  V30 2743 O 256.679 2.47104 -4.87444 0
M  V30 2744 H 253.773 0.405296 -0.720877 0
M  V30 2745 H 256.319 0.0986785 -1.69413 0
M  V30 2746 H 255.091 0.558357 -3.87296 0
M  V30 2747 H 254.714 2.18287 -3.3232 0
M  V30 2748 N 255.711 1.52812 0.385517 0
M  V30 2749 C 256.641 1.80808 1.47752 0
M  V30 2750 C 257.622 0.660318 1.5676 0
M  V30 2751 O 258.807 0.908246 1.71652 0
M  V30 2752 C 255.937 1.98008 2.85324 0
M  V30 2753 C 254.891 3.13709 2.91154 0
M  V30 2754 C 254.217 3.16169 4.31209 0
M  V30 2755 C 255.517 4.52709 2.60483 0
M  V30 2756 H 257.211 2.72253 1.24573 0
M  V30 2757 H 254.757 1.31003 0.597839 0
M  V30 2758 H 256.71 2.16176 3.61726 0
M  V30 2759 H 255.434 1.03255 3.09848 0
M  V30 2760 H 254.093 2.95329 2.17201 0
M  V30 2761 H 253.741 2.19092 4.52778 0
M  V30 2762 H 253.441 3.93894 4.36029 0
M  V30 2763 H 254.965 3.36496 5.09512 0
M  V30 2764 H 256.379 4.71173 3.26602 0
M  V30 2765 H 254.776 5.32528 2.76648 0
M  V30 2766 H 255.846 4.59186 1.55809 0
M  V30 2767 N 257.189 -0.644168 1.43834 0
M  V30 2768 C 258.414 -1.43642 1.49605 0
M  V30 2769 C 258.839 -1.8773 0.117913 0
M  V30 2770 O 258.197 -1.57938 -0.890239 0
M  V30 2771 C 258.245 -2.6416 2.45463 0
M  V30 2772 O 257.349 -3.63538 1.94714 0
M  V30 2773 H 256.69 -0.430329 0.50568 0
M  V30 2774 H 259.22 -0.787448 1.8884 0
M  V30 2775 H 259.23 -3.11864 2.63068 0
M  V30 2776 H 257.905 -2.31414 3.45572 0
M  V30 2777 H 256.482 -3.2273 1.86814 0
M  V30 2778 N 258.668 -1.30515 -0.883378 0
M  V30 2779 C 259.917 -1.18795 -1.63005 0
M  V30 2780 C 260.23 0.255923 -1.93919 0
M  V30 2781 O 261.436 0.494654 -2.66956 0
M  V30 2782 C 259.892 -2.07878 -2.93794 0
M  V30 2783 C 259.5 -3.57184 -2.70414 0
M  V30 2784 C 261.244 -2.04924 -3.71761 0
M  V30 2785 C 259.151 -4.38317 -3.97029 0
M  V30 2786 H 258.081 -0.441031 -0.611562 0
M  V30 2787 H 260.732 -1.55275 -0.977854 0
M  V30 2788 H 259.114 -1.64283 -3.60315 0
M  V30 2789 H 260.288 -4.08937 -2.12384 0
M  V30 2790 H 258.603 -3.61976 -2.0582 0
M  V30 2791 H 261.2 -2.62792 -4.65665 0
M  V30 2792 H 261.543 -1.0331 -4.03277 0
M  V30 2793 H 262.076 -2.46649 -3.12104 0
M  V30 2794 H 258.815 -5.40632 -3.70671 0
M  V30 2795 H 258.335 -3.91326 -4.54559 0
M  V30 2796 H 260.014 -4.49834 -4.65036 0
M  V30 2797 N 260.146 1.09593 -1.13257 0
M  V30 2798 C 261.094 2.18271 -0.803783 0
M  V30 2799 C 262.088 1.68054 0.213148 0
M  V30 2800 O 263.294 1.79862 0.0704699 0
M  V30 2801 H 259.669 0.711949 -0.242143 0
M  V30 2802 H 261.64 2.43235 -1.72856 0
M  V30 2803 C 260.389 3.46536 -0.28424 0
M  V30 2804 H 259.712 3.85545 -1.05807 0
M  V30 2805 H 261.152 4.23899 -0.0925945 0
M  V30 2806 C 259.611 3.22036 0.989684 0
M  V30 2807 O 260.141 3.44509 2.06584 0
M  V30 2808 N 258.347 2.7565 0.920086 0
M  V30 2809 H 257.894 2.57562 0.0442019 0
M  V30 2810 H 257.852 2.59635 1.77306 0
M  V30 2811 N 261.624 0.925811 1.2754 0
M  V30 2812 C 262.849 0.580924 1.99098 0
M  V30 2813 C 263.274 -0.833555 1.68622 0
M  V30 2814 O 262.632 -1.55903 0.925422 0
M  V30 2815 C 262.68 0.811186 3.51358 0
M  V30 2816 O 261.784 -0.124129 4.12213 0
M  V30 2817 H 261.125 0.223873 0.625122 0
M  V30 2818 H 263.655 1.24455 1.62395 0
M  V30 2819 H 263.665 0.72601 4.01489 0
M  V30 2820 H 262.34 1.84227 3.72872 0
M  V30 2821 H 260.917 0.0108006 3.72898 0
M  V30 2822 N 263.102 -1.41638 0.69111 0
M  V30 2823 C 264.33 -2.05628 0.22909 0
M  V30 2824 C 264.745 -1.51992 -1.11999 0
M  V30 2825 O 264.102 -0.666322 -1.69901 0
M  V30 2826 C 264.153 -3.61084 0.173283 0
M  V30 2827 O 263.874 -4.12735 1.46907 0
M  V30 2828 C 265.375 -4.42213 -0.310266 0
M  V30 2829 H 262.595 -0.662327 0.107534 0
M  V30 2830 H 265.139 -1.81489 0.942438 0
M  V30 2831 H 263.294 -3.84278 -0.490858 0
M  V30 2832 H 263.708 -5.06743 1.35322 0
M  V30 2833 H 265.182 -5.51194 -0.298196 0
M  V30 2834 H 265.659 -4.1799 -1.34838 0
M  V30 2835 H 266.265 -4.24074 0.322716 0
M  V30 2836 N 264.58 -0.43555 -1.51462 0
M  V30 2837 C 265.49 0.383001 -2.31453 0
M  V30 2838 C 266.506 1.02931 -1.4029 0
M  V30 2839 O 267.682 1.02507 -1.73362 0
M  V30 2840 C 264.747 1.47043 -3.13973 0
M  V30 2841 C 263.808 0.844433 -4.20913 0
M  V30 2842 C 263.041 1.88004 -4.9949 0
M  V30 2843 O 263.264 3.10199 -4.78678 0
M  V30 2844 O 262.198 1.47157 -5.83634 0
M  V30 2845 H 266.024 -0.269964 -3.02498 0
M  V30 2846 H 263.609 -0.19813 -1.4808 0
M  V30 2847 H 265.491 2.10113 -3.65281 0
M  V30 2848 H 264.166 2.10751 -2.45695 0
M  V30 2849 H 263.073 0.175729 -3.73687 0
M  V30 2850 H 264.406 0.250869 -4.9156 0
M  V30 2851 N 266.058 1.56714 -0.166846 0
M  V30 2852 C 267.298 1.98641 0.481763 0
M  V30 2853 C 267.662 1.05038 1.6072 0
M  V30 2854 O 268.863 1.36087 2.31805 0
M  V30 2855 C 267.134 3.44362 0.956517 0
M  V30 2856 S 268.693 4.08317 1.60694 0
M  V30 2857 H 265.511 0.693873 0.155116 0
M  V30 2858 H 268.113 1.93719 -0.263251 0
M  V30 2859 H 266.817 4.10204 0.126936 0
M  V30 2860 H 266.348 3.53041 1.73568 0
M  V30 2861 H 268.363 4.02999 2.89494 0
M  V30 2862 N 267.536 -0.106894 1.57237 0
M  V30 2863 C 268.466 -1.13148 2.04254 0
M  V30 2864 C 269.447 -1.42476 0.929224 0
M  V30 2865 O 270.632 -1.52709 1.19973 0
M  V30 2866 C 267.762 -2.4545 2.45706 0
M  V30 2867 C 266.716 -2.30558 3.60592 0
M  V30 2868 C 266.042 -3.67931 3.87983 0
M  V30 2869 C 267.342 -1.75597 4.91897 0
M  V30 2870 H 269.036 -0.740374 2.90101 0
M  V30 2871 H 266.582 -0.354696 1.39563 0
M  V30 2872 H 268.535 -3.17389 2.77205 0
M  V30 2873 H 267.259 -2.86475 1.56843 0
M  V30 2874 H 265.918 -1.61067 3.29322 0
M  V30 2875 H 265.566 -4.06462 2.96306 0
M  V30 2876 H 265.266 -3.58817 4.65322 0
M  V30 2877 H 266.79 -4.41356 4.21945 0
M  V30 2878 H 268.204 -2.37364 5.21854 0
M  V30 2879 H 266.601 -1.77272 5.73319 0
M  V30 2880 H 267.671 -0.714451 4.79608 0
M  V30 2881 N 269.014 -1.53014 -0.377408 0
M  V30 2882 C 269.964 -1.74996 -1.46152 0
M  V30 2883 C 270.948 -0.604236 -1.49123 0
M  V30 2884 O 272.14 -0.862489 -1.54564 0
M  V30 2885 C 269.269 -1.93267 -2.8373 0
M  V30 2886 C 268.355 -3.13807 -2.85283 0
M  V30 2887 N 268.746 -4.35941 -2.56493 0
M  V30 2888 C 267.044 -3.14288 -3.16448 0
M  V30 2889 C 267.745 -5.17615 -2.65424 0
M  V30 2890 N 266.721 -4.53559 -2.99641 0
M  V30 2891 H 270.523 -2.67044 -1.22738 0
M  V30 2892 H 268.037 -1.51479 -0.585479 0
M  V30 2893 H 270.034 -2.0714 -3.61799 0
M  V30 2894 H 268.694 -1.0244 -3.08117 0
M  V30 2895 H 269.705 -4.63876 -2.30302 0
M  V30 2896 H 266.382 -2.33312 -3.46225 0
M  V30 2897 H 267.772 -6.25006 -2.46612 0
M  V30 2898 N 270.492 0.636531 -1.44174 0
M  V30 2899 C 271.738 1.39826 -1.4689 0
M  V30 2900 C 272.071 1.93947 -0.0990585 0
M  V30 2901 O 271.346 1.73325 0.882544 0
M  V30 2902 C 271.629 2.56751 -2.5249 0
M  V30 2903 C 271.482 2.08014 -3.98811 0
M  V30 2904 C 272.801 3.58946 -2.54649 0
M  V30 2905 H 269.92 0.507075 -0.53483 0
M  V30 2906 H 272.562 0.720188 -1.75822 0
M  V30 2907 H 270.712 3.14597 -2.2795 0
M  V30 2908 H 272.384 1.5504 -4.34466 0
M  V30 2909 H 270.627 1.39242 -4.10846 0
M  V30 2910 H 271.298 2.92169 -4.68339 0
M  V30 2911 H 273.774 3.1089 -2.76563 0
M  V30 2912 H 272.65 4.38286 -3.3045 0
M  V30 2913 H 272.911 4.12655 -1.58646 0
M  V30 2914 N 271.97 1.30982 0.876444 0
M  V30 2915 C 272.92 1.14688 1.97055 0
M  V30 2916 C 273.904 0.0596593 1.60789 0
M  V30 2917 O 275.096 0.283892 1.74708 0
M  V30 2918 C 272.225 0.849627 3.3262 0
M  V30 2919 C 271.311 1.97752 3.75173 0
M  V30 2920 N 271.702 3.22384 3.89746 0
M  V30 2921 C 270 1.8758 4.04635 0
M  V30 2922 C 270.701 3.96121 4.25985 0
M  V30 2923 N 269.677 3.24237 4.36315 0
M  V30 2924 H 273.479 2.09204 2.06424 0
M  V30 2925 H 270.993 1.22445 1.06682 0
M  V30 2926 H 272.99 0.713895 4.10742 0
M  V30 2927 H 271.65 -0.087376 3.24582 0
M  V30 2928 H 272.661 3.57575 3.74647 0
M  V30 2929 H 269.338 1.01303 4.05024 0
M  V30 2930 H 270.728 5.03491 4.44911 0
M  V30 2931 N 273.449 -1.08991 1.13837 0
M  V30 2932 C 274.689 -1.82867 0.913183 0
M  V30 2933 C 275.053 -1.83936 -0.550604 0
M  V30 2934 O 276.254 -2.53515 -0.893515 0
M  V30 2935 C 274.525 -3.24843 1.49036 0
M  V30 2936 S 276.084 -4.15669 1.40588 0
M  V30 2937 H 272.902 -0.630278 0.329046 0
M  V30 2938 H 275.504 -1.31049 1.45073 0
M  V30 2939 H 274.208 -3.21644 2.54899 0
M  V30 2940 H 273.739 -3.81734 0.950947 0
M  V30 2941 H 275.754 -4.94686 0.387353 0
M  V30 2942 N 274.927 -0.932562 -1.27047 0
M  V30 2943 C 276.343 -0.633544 -1.46487 0
M  V30 2944 C 276.543 0.815746 -1.84249 0
M  V30 2945 O 275.599 1.59319 -1.95892 0
M  V30 2946 C 276.912 -1.58758 -2.55375 0
M  V30 2947 C 278.46 -1.59634 -2.69232 0
M  V30 2948 C 278.935 -2.53747 -3.81283 0
M  V30 2949 N 280.426 -2.51982 -3.88664 0
M  V30 2950 C 281.161 -3.21491 -4.74796 0
M  V30 2951 N 280.657 -4.00395 -5.65381 0
M  V30 2952 N 282.45 -3.10485 -4.68568 0
M  V30 2953 H 274.601 -1.86946 -1.00821 0
M  V30 2954 H 276.864 -0.802897 -0.504044 0
M  V30 2955 H 276.57 -2.62172 -2.34432 0
M  V30 2956 H 276.444 -1.33301 -3.52861 0
M  V30 2957 H 278.831 -0.569488 -2.89553 0
M  V30 2958 H 278.912 -1.89142 -1.72218 0
M  V30 2959 H 278.556 -3.56545 -3.61715 0
M  V30 2960 H 278.486 -2.21532 -4.77735 0
M  V30 2961 H 280.977 -1.94681 -3.23895 0
M  V30 2962 H 281.29 -4.50406 -6.27976 0
M  V30 2963 H 279.635 -4.04498 -5.65161 0
M  V30 2964 H 282.826 -2.48331 -3.96799 0
M  V30 2965 H 282.999 -3.64925 -5.35475 0
M  V30 2966 N 276.405 1.4127 -0.698611 0
M  V30 2967 C 277.653 2.00782 -0.230409 0
M  V30 2968 C 277.974 1.5562 1.17505 0
M  V30 2969 O 277.244 0.78815 1.79346 0
M  V30 2970 H 275.824 0.742464 -0.0821944 0
M  V30 2971 H 278.486 1.72852 -0.90045 0
M  V30 2972 H 277.582 3.11095 -0.25021 0
M  V30 2973 N 277.883 0.443576 1.51229 0
M  V30 2974 C 278.813 -0.355142 2.30783 0
M  V30 2975 C 279.794 -1.0154 1.36468 0
M  V30 2976 O 280.979 -1.01785 1.65389 0
M  V30 2977 C 278.109 -1.45312 3.15439 0
M  V30 2978 C 277.063 -0.916002 4.18083 0
M  V30 2979 C 276.389 -2.1102 4.91299 0
M  V30 2980 C 277.689 0.0538602 5.22272 0
M  V30 2981 H 279.383 0.308767 2.97804 0
M  V30 2982 H 276.929 0.149937 1.43217 0
M  V30 2983 H 278.882 -2.01914 3.69876 0
M  V30 2984 H 277.606 -2.14541 2.46252 0
M  V30 2985 H 276.265 -0.372145 3.64706 0
M  V30 2986 H 275.913 -2.78882 4.18609 0
M  V30 2987 H 275.613 -1.75717 5.60712 0
M  V30 2988 H 277.137 -2.68164 5.48562 0
M  V30 2989 H 278.551 -0.422069 5.71744 0
M  V30 2990 H 276.948 0.319776 5.99247 0
M  V30 2991 H 278.018 0.98858 4.74716 0
M  V30 2992 N 279.361 -1.56624 0.175154 0
M  V30 2993 C 280.271 -2.21741 -0.766042 0
M  V30 2994 C 281.287 -1.21023 -1.25018 0
M  V30 2995 O 282.463 -1.53697 -1.3015 0
M  V30 2996 C 279.528 -2.84839 -1.97655 0
M  V30 2997 C 278.589 -4.00769 -1.53892 0
M  V30 2998 C 277.822 -4.60849 -2.69173 0
M  V30 2999 O 278.045 -4.19823 -3.86141 0
M  V30 3000 O 276.979 -5.50655 -2.43028 0
M  V30 3001 H 280.805 -3.02738 -0.241585 0
M  V30 3002 H 278.39 -1.49305 -0.053222 0
M  V30 3003 H 280.272 -3.24834 -2.68442 0
M  V30 3004 H 278.947 -2.06836 -2.48999 0
M  V30 3005 H 277.854 -3.65436 -0.80044 0
M  V30 3006 H 279.187 -4.80376 -1.07236 0
M  V30 3007 N 280.839 0.0985539 -1.57292 0
M  V30 3008 C 282.067 0.816318 -1.90115 0
M  V30 3009 C 282.482 1.72451 -0.768509 0
M  V30 3010 O 281.839 1.80643 0.259687 0
M  V30 3011 C 281.89 1.63259 -3.22535 0
M  V30 3012 O 281.611 0.760934 -4.31441 0
M  V30 3013 C 283.112 2.45372 -3.69199 0
M  V30 3014 H 280.332 0.233595 -0.629027 0
M  V30 3015 H 282.876 0.0768229 -2.04356 0
M  V30 3016 H 281.031 2.32463 -3.09903 0
M  V30 3017 H 281.445 1.32595 -5.07463 0
M  V30 3018 H 282.919 2.98144 -4.64558 0
M  V30 3019 H 283.396 3.23677 -2.96867 0
M  V30 3020 H 284.002 1.81373 -3.84687 0
M  V30 3021 N 282.317 1.53212 0.369288 0
M  V30 3022 C 283.542 1.73423 1.1375 0
M  V30 3023 C 283.967 0.460404 1.82378 0
M  V30 3024 O 283.325 -0.585298 1.71592 0
M  V30 3025 C 283.373 2.89769 2.1463 0
M  V30 3026 O 282.477 2.58119 3.21634 0
M  V30 3027 H 281.818 0.576061 0.330227 0
M  V30 3028 H 284.348 2.00083 0.427547 0
M  V30 3029 H 284.358 3.15829 2.58294 0
M  V30 3030 H 283.033 3.8217 1.64071 0
M  V30 3031 H 281.61 2.42864 2.82969 0
M  V30 3032 N 283.795 -0.628877 1.44509 0
M  V30 3033 C 284.725 -1.75187 1.54376 0
M  V30 3034 C 285.706 -1.65411 0.396618 0
M  V30 3035 O 286.891 -1.84137 0.617031 0
M  V30 3036 C 284.021 -3.13725 1.48976 0
M  V30 3037 C 282.975 -3.38291 2.62189 0
M  V30 3038 C 282.301 -4.76883 2.41841 0
M  V30 3039 C 283.601 -3.30632 4.04326 0
M  V30 3040 H 285.295 -1.67187 2.48373 0
M  V30 3041 H 282.841 -0.802909 1.19538 0
M  V30 3042 H 284.794 -3.92064 1.54478 0
M  V30 3043 H 283.518 -3.22515 0.514961 0
M  V30 3044 H 282.177 -2.62334 2.56079 0
M  V30 3045 H 281.825 -4.82378 1.42548 0
M  V30 3046 H 281.525 -4.94278 3.17747 0
M  V30 3047 H 283.049 -5.57449 2.49165 0
M  V30 3048 H 284.463 -3.98873 4.11793 0
M  V30 3049 H 282.86 -3.59561 4.80454 0
M  V30 3050 H 283.93 -2.28404 4.27738 0
M  V30 3051 N 285.273 -1.31445 -0.869486 0
M  V30 3052 C 286.236 -1.19094 -1.9583 0
M  V30 3053 C 287.236 -0.117906 -1.60367 0
M  V30 3054 O 288.426 -0.367208 -1.70286 0
M  V30 3055 C 285.558 -0.828165 -3.30688 0
M  V30 3056 H 286.751 -2.15842 -2.08212 0
M  V30 3057 H 284.304 -1.15063 -1.05784 0
M  V30 3058 H 285.039 0.138142 -3.24006 0
M  V30 3059 H 284.824 -1.6038 -3.578 0
M  V30 3060 H 286.314 -0.765658 -4.10521 0
M  V30 3061 N 286.751 1.08385 -1.14413 0
M  V30 3062 C 287.661 2.18856 -0.844951 0
M  V30 3063 C 288.677 1.73121 0.174668 0
M  V30 3064 O 289.853 2.014 0.00312857 0
M  V30 3065 C 286.918 3.45155 -0.32696 0
M  V30 3066 C 285.979 4.05513 -1.40916 0
M  V30 3067 C 285.212 5.25784 -0.915793 0
M  V30 3068 O 285.435 5.69884 0.242651 0
M  V30 3069 O 284.369 5.77545 -1.69487 0
M  V30 3070 H 288.195 2.46919 -1.76818 0
M  V30 3071 H 285.78 1.17524 -0.922411 0
M  V30 3072 H 287.662 4.21377 -0.0440211 0
M  V30 3073 H 286.337 3.18668 0.568539 0
M  V30 3074 H 285.244 3.30879 -1.74556 0
M  V30 3075 H 286.577 4.3625 -2.27919 0
M  V30 3076 N 288.23 0.939286 1.26551 0
M  V30 3077 C 289.47 0.5933 1.956 0
M  V30 3078 C 289.834 -0.851515 1.72085 0
M  V30 3079 O 291.035 -1.30634 2.34921 0
M  V30 3080 C 289.306 0.923996 3.45249 0
M  V30 3081 S 290.865 0.688269 4.33369 0
M  V30 3082 H 287.683 0.218591 0.676564 0
M  V30 3083 H 290.285 1.2102 1.5354 0
M  V30 3084 H 288.989 1.97297 3.59864 0
M  V30 3085 H 288.52 0.296746 3.92279 0
M  V30 3086 H 290.535 -0.448434 4.9417 0
M  V30 3087 N 289.708 -1.40897 0.706093 0
M  V30 3088 C 290.936 -2.05373 0.250887 0
M  V30 3089 C 291.351 -1.53172 -1.10381 0
M  V30 3090 O 290.708 -0.684305 -1.69185 0
M  V30 3091 C 290.759 -3.6088 0.211571 0
M  V30 3092 O 290.48 -4.11153 1.51276 0
M  V30 3093 C 291.981 -4.42517 -0.263346 0
M  V30 3094 H 289.201 -0.66115 0.114552 0
M  V30 3095 H 291.745 -1.80479 0.961635 0
M  V30 3096 H 289.9 -3.84777 -0.450073 0
M  V30 3097 H 290.314 -5.05279 1.40689 0
M  V30 3098 H 291.788 -5.51479 -0.239718 0
M  V30 3099 H 292.265 -4.19396 -1.30397 0
M  V30 3100 H 292.871 -4.23708 0.367677 0
M  V30 3101 N 291.186 -0.45159 -1.50991 0
M  V30 3102 C 292.433 0.110074 -2.02201 0
M  V30 3103 C 292.761 1.4146 -1.33489 0
M  V30 3104 O 292.016 1.90617 -0.443125 0
M  V30 3105 C 292.315 0.361728 -3.55565 0
M  V30 3106 C 291.981 -0.858717 -4.42648 0
M  V30 3107 C 290.643 -1.19338 -4.66167 0
M  V30 3108 C 292.995 -1.67221 -4.93646 0
M  V30 3109 C 290.323 -2.34195 -5.37931 0
M  V30 3110 C 292.675 -2.8119 -5.6667 0
M  V30 3111 C 291.339 -3.15094 -5.88449 0
M  V30 3112 H 290.609 0.040279 -0.739904 0
M  V30 3113 H 293.256 -0.601696 -1.81802 0
M  V30 3114 H 291.561 1.15554 -3.74372 0
M  V30 3115 H 293.258 0.80996 -3.92735 0
M  V30 3116 H 289.848 -0.58796 -4.24548 0
M  V30 3117 H 294.032 -1.42686 -4.75347 0
M  V30 3118 H 289.288 -2.6076 -5.53005 0
M  V30 3119 H 293.462 -3.44585 -6.05173 0
M  V30 3120 H 291.089 -4.04204 -6.43835 0
M  V30 3121 N 292.664 1.56529 -0.183458 0
M  V30 3122 C 293.892 2.01623 0.464285 0
M  V30 3123 C 294.307 1.06366 1.55986 0
M  V30 3124 O 293.664 0.0665398 1.82379 0
M  V30 3125 C 293.715 3.46475 1.03139 0
M  V30 3126 O 293.436 4.38095 -0.0204675 0
M  V30 3127 C 294.937 4.0703 1.75617 0
M  V30 3128 H 292.157 0.660596 0.117704 0
M  V30 3129 H 294.701 2.02451 -0.288751 0
M  V30 3130 H 292.856 3.46383 1.73486 0
M  V30 3131 H 293.27 5.22973 0.399952 0
M  V30 3132 H 294.744 5.10271 2.10542 0
M  V30 3133 H 295.221 3.49819 2.65563 0
M  V30 3134 H 295.827 4.1086 1.09882 0
M  V30 3135 N 294.142 -0.090211 1.57342 0
M  V30 3136 C 295.089 -1.10909 2.02405 0
M  V30 3137 C 296.059 -1.39523 0.901252 0
M  V30 3138 O 297.244 -1.50903 1.1676 0
M  V30 3139 C 294.384 -2.42277 2.45755 0
M  V30 3140 C 293.497 -2.20352 3.71576 0
M  V30 3141 C 292.632 -3.45154 4.03785 0
M  V30 3142 C 291.671 -3.18512 5.22701 0
M  V30 3143 N 290.808 -4.35593 5.50639 0
M  V30 3144 H 295.648 -0.71782 2.89225 0
M  V30 3145 H 293.185 -0.342901 1.43048 0
M  V30 3146 H 295.143 -3.18951 2.68935 0
M  V30 3147 H 293.773 -2.79242 1.61938 0
M  V30 3148 H 292.825 -1.34458 3.55844 0
M  V30 3149 H 294.137 -1.96661 4.58395 0
M  V30 3150 H 293.291 -4.30233 4.27767 0
M  V30 3151 H 292.03 -3.71904 3.15498 0
M  V30 3152 H 291.035 -2.31827 4.98534 0
M  V30 3153 H 292.26 -2.93103 6.12591 0
M  V30 3154 H 290.206 -4.6241 4.6531 0
M  V30 3155 H 290.123 -4.1511 6.31838 0
M  V30 3156 H 291.391 -5.21723 5.7916 0
M  V30 3157 N 295.62 -1.53406 -0.361157 0
M  V30 3158 C 297.036 -1.43277 -0.703124 0
M  V30 3159 C 297.236 -0.575384 -1.9311 0
M  V30 3160 O 296.292 -0.0595362 -2.5243 0
M  V30 3161 C 297.605 -2.8653 -0.9122 0
M  V30 3162 C 299.153 -2.96191 -1.01193 0
M  V30 3163 C 299.628 -4.40514 -1.25345 0
M  V30 3164 N 301.119 -4.43962 -1.32105 0
M  V30 3165 C 301.854 -5.52746 -1.5251 0
M  V30 3166 N 301.35 -6.71567 -1.70203 0
M  V30 3167 N 303.143 -5.40331 -1.54916 0
M  V30 3168 H 295.294 -2.07654 0.446475 0
M  V30 3169 H 297.557 -0.937944 0.137715 0
M  V30 3170 H 297.263 -3.51605 -0.0816414 0
M  V30 3171 H 297.137 -3.30441 -1.81903 0
M  V30 3172 H 299.524 -2.31266 -1.83303 0
M  V30 3173 H 299.605 -2.55667 -0.0823929 0
M  V30 3174 H 299.249 -5.06014 -0.437346 0
M  V30 3175 H 299.179 -4.78614 -2.19627 0
M  V30 3176 H 301.67 -3.58332 -1.20028 0
M  V30 3177 H 301.983 -7.50241 -1.85359 0
M  V30 3178 H 300.328 -6.74545 -1.67373 0
M  V30 3179 H 303.519 -4.46465 -1.40663 0
M  V30 3180 H 303.692 -6.25173 -1.70477 0
M  V30 3181 N 297.098 0.621204 -1.44841 0
M  V30 3182 C 298.514 0.94048 -1.28946 0
M  V30 3183 C 298.714 2.00154 -0.23249 0
M  V30 3184 O 297.77 2.49651 0.378237 0
M  V30 3185 C 299.083 1.39433 -2.66419 0
M  V30 3186 C 300.631 1.50927 -2.74208 0
M  V30 3187 C 301.106 1.99692 -4.12174 0
M  V30 3188 N 302.597 2.06947 -4.144 0
M  V30 3189 C 303.332 2.45871 -5.1801 0
M  V30 3190 N 302.828 2.83862 -6.31977 0
M  V30 3191 N 304.621 2.46092 -5.05366 0
M  V30 3192 H 296.772 -0.0803548 -2.12248 0
M  V30 3193 H 299.035 0.0266913 -0.947624 0
M  V30 3194 H 298.741 0.688925 -3.44887 0
M  V30 3195 H 298.615 2.36347 -2.93973 0
M  V30 3196 H 301.002 2.20561 -1.96053 0
M  V30 3197 H 301.083 0.523627 -2.50383 0
M  V30 3198 H 300.727 1.30649 -4.90809 0
M  V30 3199 H 300.657 2.99146 -4.33381 0
M  V30 3200 H 303.148 1.80232 -3.32152 0
M  V30 3201 H 303.461 3.12405 -7.0684 0
M  V30 3202 H 301.806 2.8159 -6.35399 0
M  V30 3203 H 304.997 2.1581 -4.15384 0
M  V30 3204 H 305.17 2.76102 -5.86235 0
M  V30 3205 N 298.576 1.31904 0.862503 0
M  V30 3206 C 299.804 1.24998 1.64873 0
M  V30 3207 C 300.219 -0.183425 1.87907 0
M  V30 3208 O 299.576 -1.11794 1.44251 0
M  V30 3209 C 299.627 1.99829 3.01248 0
M  V30 3210 O 299.348 3.37575 2.79239 0
M  V30 3211 C 300.849 1.99852 3.95694 0
M  V30 3212 H 298.069 0.431599 0.513773 0
M  V30 3213 H 300.613 1.73901 1.07604 0
M  V30 3214 H 298.768 1.54668 3.55185 0
M  V30 3215 H 299.182 3.75776 3.65914 0
M  V30 3216 H 300.656 2.56709 4.88676 0
M  V30 3217 H 301.133 0.982852 4.28062 0
M  V30 3218 H 301.739 2.44926 3.47694 0
M  V30 3219 N 300.054 -1.07777 1.14986 0
M  V30 3220 C 300.987 -2.14228 0.786243 0
M  V30 3221 C 301.965 -1.60888 -0.235347 0
M  V30 3222 O 303.149 -1.88099 -0.122909 0
M  V30 3223 C 300.276 -3.38281 0.168433 0
M  V30 3224 C 299.322 -4.10387 1.16123 0
M  V30 3225 S 300.155 -4.62371 2.70135 0
M  V30 3226 C 301.311 -5.89704 2.09762 0
M  V30 3227 H 301.544 -2.44741 1.68787 0
M  V30 3228 H 299.077 -1.19984 0.971756 0
M  V30 3229 H 301.035 -4.10098 -0.181588 0
M  V30 3230 H 299.696 -3.05953 -0.710725 0
M  V30 3231 H 298.889 -4.99431 0.677086 0
M  V30 3232 H 298.491 -3.44513 1.45556 0
M  V30 3233 H 300.783 -6.61648 1.45701 0
M  V30 3234 H 301.726 -6.42824 2.96955 0
M  V30 3235 H 302.134 -5.4302 1.54239 0
M  V30 3236 N 301.532 -0.945985 -1.26051 0
M  V30 3237 C 302.78 -0.594941 -1.93145 0
M  V30 3238 C 303.101 0.86953 -1.7454 0
M  V30 3239 O 302.371 1.61838 -1.10387 0
M  V30 3240 H 300.951 -0.217044 -0.714773 0
M  V30 3241 H 303.613 -1.20235 -1.53393 0
M  V30 3242 H 302.709 -0.816835 -3.01221 0
M  V30 3243 N 303.011 1.40521 -0.713556 0
M  V30 3244 C 304.241 2.0494 -0.261395 0
M  V30 3245 C 304.649 1.53861 1.10107 0
M  V30 3246 O 303.992 0.689321 1.70276 0
M  V30 3247 C 304.054 3.59138 -0.161227 0
M  V30 3248 C 303.718 4.33096 -1.45865 0
M  V30 3249 C 304.715 4.61182 -2.40016 0
M  V30 3250 C 302.4 4.72043 -1.71701 0
M  V30 3251 C 304.394 5.27196 -3.58251 0
M  V30 3252 C 302.081 5.37789 -2.90218 0
M  V30 3253 C 303.079 5.65295 -3.83315 0
M  V30 3254 O 302.767 6.29683 -4.99754 0
M  V30 3255 H 302.499 0.666041 -0.115608 0
M  V30 3256 H 305.053 1.80954 -0.971849 0
M  V30 3257 H 303.283 3.81936 0.605153 0
M  V30 3258 H 304.972 4.05091 0.256105 0
M  V30 3259 H 305.738 4.31559 -2.21318 0
M  V30 3260 H 301.617 4.50003 -1.00092 0
M  V30 3261 H 305.161 5.48582 -4.30934 0
M  V30 3262 H 301.058 5.66831 -3.08825 0
M  V30 3263 H 301.826 6.4818 -4.99805 0
M  V30 3264 N 304.489 0.459591 1.5075 0
M  V30 3265 C 305.421 -0.37665 2.26084 0
M  V30 3266 C 306.434 -0.967109 1.30961 0
M  V30 3267 O 307.623 -0.857468 1.56556 0
M  V30 3268 C 304.723 -1.54112 3.01832 0
M  V30 3269 C 303.896 -1.06553 4.24223 0
M  V30 3270 C 302.955 -2.1027 4.82362 0
M  V30 3271 O 301.981 -1.68798 5.43595 0
M  V30 3272 N 303.183 -3.42974 4.68347 0
M  V30 3273 H 305.948 0.269124 2.98489 0
M  V30 3274 H 303.509 0.28972 1.59287 0
M  V30 3275 H 305.501 -2.23165 3.37608 0
M  V30 3276 H 304.071 -2.0918 2.32298 0
M  V30 3277 H 303.291 -0.201274 3.93686 0
M  V30 3278 H 304.579 -0.725516 5.03601 0
M  V30 3279 H 303.977 -3.79385 4.19623 0
M  V30 3280 H 302.534 -4.07858 5.08424 0
M  V30 3281 N 305.967 -1.56429 0.191757 0
M  V30 3282 C 307.244 -1.89224 -0.495332 0
M  V30 3283 C 307.624 -1.10478 -1.79883 0
M  V30 3284 O 306.972 -0.204852 -2.2758 0
M  V30 3285 C 307.182 -3.41548 -0.717367 0
M  V30 3286 C 308.53 -4.11711 -1.03823 0
M  V30 3287 O 309.554 -3.4698 -0.805204 0
M  V30 3288 O 308.413 -5.2611 -1.47887 0
M  V30 3289 H 305.507 -0.785788 -0.25781 0
M  V30 3290 H 308.053 -1.68111 0.231721 0
M  V30 3291 H 306.825 -3.90772 0.203287 0
M  V30 3292 H 306.448 -3.68342 -1.497 0
M  V30 3293 N 307.445 0.0818655 -1.57387 0
M  V30 3294 C 308.692 0.782914 -1.86753 0
M  V30 3295 C 309.02 1.78082 -0.782118 0
M  V30 3296 O 308.275 1.94426 0.22295 0
M  V30 3297 C 308.574 1.53513 -3.22752 0
M  V30 3298 C 308.24 0.678134 -4.45771 0
M  V30 3299 C 306.902 0.441929 -4.79166 0
M  V30 3300 C 309.254 0.0832243 -5.21134 0
M  V30 3301 C 306.582 -0.398833 -5.85343 0
M  V30 3302 C 308.934 -0.744935 -6.28199 0
M  V30 3303 C 307.598 -0.991107 -6.60101 0
M  V30 3304 H 306.868 0.286489 -0.683378 0
M  V30 3305 H 309.515 0.0439808 -1.91449 0
M  V30 3306 H 307.82 2.34599 -3.138 0
M  V30 3307 H 309.517 2.08218 -3.42705 0
M  V30 3308 H 306.107 0.872357 -4.19628 0
M  V30 3309 H 310.291 0.252847 -4.95655 0
M  V30 3310 H 305.547 -0.598405 -6.08465 0
M  V30 3311 H 309.721 -1.21271 -6.8576 0
M  V30 3312 H 307.348 -1.64437 -7.42202 0
M  V30 3313 N 308.923 1.53595 0.353017 0
M  V30 3314 C 309.886 1.80232 1.41594 0
M  V30 3315 C 310.886 0.673081 1.46035 0
M  V30 3316 O 312.076 0.941335 1.46576 0
M  V30 3317 C 309.208 1.93578 2.80607 0
M  V30 3318 H 310.401 2.75174 1.19244 0
M  V30 3319 H 307.954 1.44864 0.586872 0
M  V30 3320 H 308.689 1.00746 3.08254 0
M  V30 3321 H 308.474 2.75724 2.78781 0
M  V30 3322 H 309.964 2.15735 3.57558 0
M  V30 3323 N 310.401 -0.613514 1.45168 0
M  V30 3324 C 311.678 -1.37263 1.39349 0
M  V30 3325 C 312.058 -2.11012 0.0610848 0
M  V30 3326 O 311.406 -2.07502 -0.956825 0
M  V30 3327 C 311.616 -2.3244 2.60332 0
M  V30 3328 C 312.964 -2.9523 3.05163 0
M  V30 3329 O 313.988 -2.42762 2.60663 0
M  V30 3330 O 312.847 -3.90454 3.82372 0
M  V30 3331 H 309.941 -0.615188 0.552696 0
M  V30 3332 H 312.487 -0.637097 1.57287 0
M  V30 3333 H 311.259 -1.77164 3.48896 0
M  V30 3334 H 310.882 -3.13383 2.44698 0
M  V30 3335 N 311.879 -1.3236 -0.855495 0
M  V30 3336 C 313.125 -1.23054 -1.612 0
M  V30 3337 C 313.458 0.207404 -1.93089 0
M  V30 3338 O 312.733 1.14432 -1.57275 0
M  V30 3339 C 313.016 -2.08937 -2.93287 0
M  V30 3340 C 312.869 -3.61105 -2.68185 0
M  V30 3341 C 314.188 -1.94986 -3.94549 0
M  V30 3342 H 311.307 -0.448364 -0.584926 0
M  V30 3343 H 313.949 -1.62297 -0.987917 0
M  V30 3344 H 312.099 -1.75599 -3.46551 0
M  V30 3345 H 313.771 -4.04652 -2.21483 0
M  V30 3346 H 312.014 -3.83813 -2.02164 0
M  V30 3347 H 312.685 -4.16522 -3.62234 0
M  V30 3348 H 315.161 -2.24189 -3.5054 0
M  V30 3349 H 314.037 -2.57356 -4.84829 0
M  V30 3350 H 314.298 -0.917263 -4.3248 0
M  V30 3351 N 313.357 1.07166 -1.15556 0
M  V30 3352 C 314.603 1.80065 -0.932984 0
M  V30 3353 C 314.936 1.86586 0.53845 0
M  V30 3354 O 314.211 1.35098 1.39924 0
M  V30 3355 C 314.494 3.25022 -1.55025 0
M  V30 3356 C 314.347 3.26634 -3.09242 0
M  V30 3357 C 315.666 4.22341 -1.2376 0
M  V30 3358 H 312.785 0.653697 -0.340366 0
M  V30 3359 H 315.427 1.25389 -1.4275 0
M  V30 3360 H 313.577 3.71712 -1.12972 0
M  V30 3361 H 315.249 2.88173 -3.60214 0
M  V30 3362 H 313.492 2.65539 -3.43033 0
M  V30 3363 H 314.163 4.28854 -3.47546 0
M  V30 3364 H 316.639 3.8405 -1.60139 0
M  V30 3365 H 315.515 5.22053 -1.69564 0
M  V30 3366 H 315.776 4.41828 -0.154938 0
M  V30 3367 N 314.835 0.952656 1.25548 0
M  V30 3368 C 316.075 0.614013 1.9496 0
M  V30 3369 C 316.439 -0.833215 1.72978 0
M  V30 3370 O 317.64 -1.28135 2.36294 0
M  V30 3371 C 315.911 0.960562 3.4425 0
M  V30 3372 S 317.47 0.734195 4.32614 0
M  V30 3373 H 314.288 0.225754 0.674208 0
M  V30 3374 H 316.89 1.22641 1.52248 0
M  V30 3375 H 315.594 2.01103 3.57751 0
M  V30 3376 H 315.125 0.338336 3.91942 0
M  V30 3377 H 317.14 -0.395995 4.94617 0
M  V30 3378 N 316.313 -1.40141 0.720998 0
M  V30 3379 C 317.543 -2.04798 0.27226 0
M  V30 3380 C 317.951 -1.54442 -1.09289 0
M  V30 3381 O 317.294 -0.698342 -1.69908 0
M  V30 3382 C 317.356 -3.59048 0.18027 0
M  V30 3383 C 317.02 -4.32317 1.48159 0
M  V30 3384 C 318.017 -4.59902 2.42458 0
M  V30 3385 C 315.702 -4.71125 1.74202 0
M  V30 3386 C 317.696 -5.25288 3.61042 0
M  V30 3387 C 315.383 -5.36242 2.93066 0
M  V30 3388 C 316.381 -5.63254 3.86308 0
M  V30 3389 O 316.069 -6.27024 5.03086 0
M  V30 3390 H 315.801 -0.665419 0.119139 0
M  V30 3391 H 318.355 -1.80436 0.981432 0
M  V30 3392 H 316.585 -3.82251 -0.58489 0
M  V30 3393 H 318.274 -4.05221 -0.234618 0
M  V30 3394 H 319.04 -4.30379 2.23604 0
M  V30 3395 H 314.919 -4.49466 1.02477 0
M  V30 3396 H 318.463 -5.46289 4.33837 0
M  V30 3397 H 314.36 -5.65185 3.11826 0
M  V30 3398 H 315.128 -6.4552 5.03235 0
M  V30 3399 N 317.792 -0.46758 -1.50504 0
M  V30 3400 C 319.02 0.0864133 -2.06719 0
M  V30 3401 C 319.435 1.33819 -1.33184 0
M  V30 3402 O 318.792 1.78061 -0.400083 0
M  V30 3403 C 318.843 0.378079 -3.59517 0
M  V30 3404 O 318.564 -0.824044 -4.3028 0
M  V30 3405 C 320.065 0.979426 -4.32345 0
M  V30 3406 H 317.285 -0.00551697 -0.670977 0
M  V30 3407 H 319.829 -0.655354 -1.93715 0
M  V30 3408 H 317.984 1.06977 -3.72337 0
M  V30 3409 H 318.398 -0.566518 -5.21432 0
M  V30 3410 H 319.872 1.1333 -5.40241 0
M  V30 3411 H 320.349 1.9686 -3.9261 0
M  V30 3412 H 320.955 0.326216 -4.24047 0
M  V30 3413 N 319.27 1.56325 -0.20005 0
M  V30 3414 C 320.202 2.16555 0.750771 0
M  V30 3415 C 321.215 1.12871 1.1732 0
M  V30 3416 O 322.404 1.39943 1.10807 0
M  V30 3417 C 319.504 2.71684 2.02586 0
M  V30 3418 C 318.677 4.00321 1.76244 0
M  V30 3419 C 317.736 4.40227 2.88248 0
M  V30 3420 O 316.762 5.07552 2.57642 0
M  V30 3421 N 317.964 4.04138 4.16717 0
M  V30 3422 H 320.729 2.98772 0.235685 0
M  V30 3423 H 318.29 1.6189 -0.0182594 0
M  V30 3424 H 320.282 2.95363 2.76664 0
M  V30 3425 H 318.852 1.93893 2.45202 0
M  V30 3426 H 318.072 3.84723 0.85919 0
M  V30 3427 H 319.36 4.84279 1.56048 0
M  V30 3428 H 318.758 3.49993 4.44434 0
M  V30 3429 H 317.315 4.32756 4.87407 0
M  V30 3430 N 320.748 -0.0735177 1.57428 0
M  V30 3431 C 321.695 -1.08756 2.0357 0
M  V30 3432 C 322.665 -1.38559 0.916 0
M  V30 3433 O 323.85 -1.49656 1.18354 0
M  V30 3434 C 320.99 -2.39657 2.48311 0
M  V30 3435 C 320.103 -2.16399 3.73892 0
M  V30 3436 C 319.238 -3.40852 4.07423 0
M  V30 3437 C 318.277 -3.1295 5.2605 0
M  V30 3438 N 317.414 -4.29729 5.55228 0
M  V30 3439 H 322.254 -0.687104 2.8997 0
M  V30 3440 H 319.791 -0.327709 1.43403 0
M  V30 3441 H 321.749 -3.16081 2.72303 0
M  V30 3442 H 320.379 -2.77508 1.64891 0
M  V30 3443 H 319.431 -1.30676 3.57251 0
M  V30 3444 H 320.743 -1.91788 4.60455 0
M  V30 3445 H 319.897 -4.25671 4.32306 0
M  V30 3446 H 318.636 -3.68537 3.19425 0
M  V30 3447 H 317.641 -2.26526 5.00965 0
M  V30 3448 H 318.866 -2.86589 6.15665 0
M  V30 3449 H 316.812 -4.57448 4.70188 0
M  V30 3450 H 316.729 -4.08385 6.36206 0
M  V30 3451 H 317.997 -5.1555 5.84661 0
M  V30 3452 N 322.226 -1.5378 -0.344866 0
M  V30 3453 C 323.189 -1.80981 -1.40637 0
M  V30 3454 C 324.189 -0.680816 -1.45676 0
M  V30 3455 O 325.379 -0.949095 -1.46075 0
M  V30 3456 C 322.511 -1.95063 -2.79577 0
M  V30 3457 H 323.704 -2.75803 -1.17783 0
M  V30 3458 H 321.257 -1.45173 -0.579181 0
M  V30 3459 H 321.992 -1.02379 -3.07716 0
M  V30 3460 H 321.777 -2.77198 -2.77315 0
M  V30 3461 H 323.267 -2.17629 -3.56409 0
M  V30 3462 N 323.704 0.605807 -1.45491 0
M  V30 3463 C 324.981 1.36522 -1.40075 0
M  V30 3464 C 325.361 2.10976 -0.0722744 0
M  V30 3465 O 324.709 2.08007 0.945808 0
M  V30 3466 C 324.919 2.31056 -2.61561 0
M  V30 3467 C 326.267 2.93608 -3.06724 0
M  V30 3468 O 327.291 2.41376 -2.61946 0
M  V30 3469 O 326.15 3.88421 -3.84437 0
M  V30 3470 H 323.244 0.612248 -0.555951 0
M  V30 3471 H 325.79 0.628747 -1.57623 0
M  V30 3472 H 324.562 1.75311 -3.49831 0
M  V30 3473 H 324.185 3.12081 -2.46356 0
M  V30 3474 N 325.182 1.32811 0.848464 0
M  V30 3475 C 326.407 1.26882 1.6406 0
M  V30 3476 C 326.832 -0.15913 1.87426 0
M  V30 3477 O 326.19 -1.11258 1.43148 0
M  V30 3478 C 326.238 2.03997 2.97351 0
M  V30 3479 O 325.342 1.39201 3.88197 0
M  V30 3480 H 324.683 0.436982 0.499943 0
M  V30 3481 H 327.213 1.75224 1.0563 0
M  V30 3482 H 327.223 2.14403 3.47124 0
M  V30 3483 H 325.898 3.0783 2.79666 0
M  V30 3484 H 324.475 1.37381 3.46671 0
M  V30 3485 N 326.66 -1.06551 1.16123 0
M  V30 3486 C 328.071 -1.60768 0.949232 0
M  V30 3487 C 328.422 -1.89523 -0.507508 0
M  V30 3488 O 327.547 -1.66671 -1.38021 0
M  V30 3489 C 328.142 -2.92086 1.71671 0
M  V30 3490 C 326.701 -3.43015 1.54977 0
M  V30 3491 C 325.848 -2.16947 1.72711 0
M  V30 3492 H 328.799 -0.895354 1.31031 0
M  V30 3493 H 328.82 -3.6138 1.19099 0
M  V30 3494 H 328.332 -2.71127 2.7769 0
M  V30 3495 H 326.433 -3.69039 0.513873 0
M  V30 3496 H 326.546 -4.18516 2.33198 0
M  V30 3497 H 324.91 -2.27041 1.15431 0
M  V30 3498 H 325.693 -1.98473 2.80113 0
M  V30 3499 N 328.138 -0.959301 -1.25041 0
M  V30 3500 C 329.071 -0.427418 -2.24161 0
M  V30 3501 C 330.049 0.493837 -1.54919 0
M  V30 3502 O 331.233 0.427144 -1.83597 0
M  V30 3503 C 328.36 0.383893 -3.36517 0
M  V30 3504 C 327.406 -0.478431 -4.23808 0
M  V30 3505 S 328.239 -1.91353 -5.00144 0
M  V30 3506 C 329.395 -1.11077 -6.15965 0
M  V30 3507 H 329.628 -1.26743 -2.6893 0
M  V30 3508 H 327.161 -0.763714 -1.34189 0
M  V30 3509 H 329.119 0.846039 -4.01687 0
M  V30 3510 H 327.78 1.19878 -2.90324 0
M  V30 3511 H 326.973 0.14406 -5.03794 0
M  V30 3512 H 326.575 -0.87597 -3.63597 0
M  V30 3513 H 328.867 -0.361699 -6.76534 0
M  V30 3514 H 329.81 -1.88472 -6.82557 0
M  V30 3515 H 330.218 -0.638843 -5.60873 0
M  V30 3516 N 329.616 1.39756 -0.72842 0
M  V30 3517 C 330.893 1.94574 -0.200079 0
M  V30 3518 C 331.273 1.66569 1.29684 0
M  V30 3519 O 330.621 0.990326 2.05924 0
M  V30 3520 C 330.831 3.45004 -0.526608 0
M  V30 3521 C 332.179 4.21965 -0.472318 0
M  V30 3522 O 333.203 3.53173 -0.463413 0
M  V30 3523 O 332.062 5.44552 -0.461075 0
M  V30 3524 H 329.156 0.826289 -0.0342851 0
M  V30 3525 H 331.702 1.49293 -0.806829 0
M  V30 3526 H 330.474 3.58796 -1.56144 0
M  V30 3527 H 330.097 3.97449 0.109449 0
M  V30 3528 N 331.094 0.475555 1.50254 0
M  V30 3529 C 332.371 -0.139685 1.95101 0
M  V30 3530 C 332.751 -1.56555 1.41611 0
M  V30 3531 O 332.099 -2.19956 0.618993 0
M  V30 3532 C 332.309 -0.0784298 3.48912 0
M  V30 3533 C 333.657 -0.265095 4.23772 0
M  V30 3534 O 334.681 -0.154808 3.55863 0
M  V30 3535 O 333.54 -0.488327 5.44314 0
M  V30 3536 H 330.634 -0.109236 0.819754 0
M  V30 3537 H 333.18 0.536276 1.61004 0
M  V30 3538 H 331.952 0.916918 3.80405 0
M  V30 3539 H 331.575 -0.795655 3.89558 0
M  V30 3540 N 332.573 -1.56217 0.208337 0
M  V30 3541 C 333.82 -1.97949 -0.42692 0
M  V30 3542 C 334.148 -1.09562 -1.60706 0
M  V30 3543 O 333.403 -0.137616 -1.95216 0
M  V30 3544 C 333.702 -3.45441 -0.916797 0
M  V30 3545 C 333.368 -4.50646 0.151391 0
M  V30 3546 C 332.03 -4.79139 0.444867 0
M  V30 3547 C 334.382 -5.13811 0.874492 0
M  V30 3548 C 331.71 -5.68084 1.46619 0
M  V30 3549 C 334.062 -6.03861 1.88506 0
M  V30 3550 C 332.726 -6.30704 2.18559 0
M  V30 3551 H 331.996 -0.724345 -0.156221 0
M  V30 3552 H 334.643 -1.89006 0.308084 0
M  V30 3553 H 332.948 -3.51521 -1.73032 0
M  V30 3554 H 334.645 -3.75094 -1.41794 0
M  V30 3555 H 331.235 -4.28511 -0.0875068 0
M  V30 3556 H 335.419 -4.91879 0.660996 0
M  V30 3557 H 330.675 -5.87151 1.7048 0
M  V30 3558 H 334.849 -6.51861 2.45051 0
M  V30 3559 H 332.476 -6.99424 2.97843 0
M  V30 3560 N 334.051 0.0651679 -1.57465 0
M  V30 3561 C 335.298 0.763063 -1.87573 0
M  V30 3562 C 335.626 1.77242 -0.800961 0
M  V30 3563 O 334.881 1.94651 0.202316 0
M  V30 3564 C 335.18 1.50081 -3.24362 0
M  V30 3565 C 334.846 0.630816 -4.46466 0
M  V30 3566 C 333.508 0.391082 -4.79608 0
M  V30 3567 C 335.86 0.0279465 -5.21193 0
M  V30 3568 C 333.188 -0.460894 -5.84887 0
M  V30 3569 C 335.54 -0.811522 -6.27373 0
M  V30 3570 C 334.204 -1.06106 -6.59013 0
M  V30 3571 H 333.474 0.279224 -0.686378 0
M  V30 3572 H 336.121 0.0236726 -1.91485 0
M  V30 3573 H 334.426 2.31258 -3.16271 0
M  V30 3574 H 336.123 2.04571 -3.44894 0
M  V30 3575 H 332.713 0.8278 -4.2053 0
M  V30 3576 H 336.897 0.200262 -4.95896 0
M  V30 3577 H 332.153 -0.662907 -6.07796 0
M  V30 3578 H 336.327 -1.28537 -6.84435 0
M  V30 3579 H 333.954 -1.723 -7.40417 0
M  V30 3580 N 335.529 1.53961 0.336706 0
M  V30 3581 C 336.461 1.78751 1.4346 0
M  V30 3582 C 337.474 0.669019 1.48418 0
M  V30 3583 O 338.663 0.945884 1.51378 0
M  V30 3584 C 335.763 1.87844 2.82078 0
M  V30 3585 C 334.936 3.17854 3.00479 0
M  V30 3586 C 333.995 3.17816 4.19379 0
M  V30 3587 O 333.021 3.91511 4.13168 0
M  V30 3588 N 334.223 2.40669 5.2826 0
M  V30 3589 H 336.988 2.73493 1.22563 0
M  V30 3590 H 334.549 1.53096 0.526625 0
M  V30 3591 H 336.541 1.85261 3.59806 0
M  V30 3592 H 335.111 1.00257 2.96086 0
M  V30 3593 H 334.331 3.33504 2.10163 0
M  V30 3594 H 335.619 4.03718 3.0966 0
M  V30 3595 H 335.017 1.8036 5.36178 0
M  V30 3596 H 333.574 2.43877 6.04456 0
M  V30 3597 N 337.007 -0.598083 1.45811 0
M  V30 3598 C 338.247 -1.36802 1.5187 0
M  V30 3599 C 338.611 -1.9133 0.160224 0
M  V30 3600 O 339.812 -2.6863 0.0955302 0
M  V30 3601 C 338.083 -2.47835 2.57513 0
M  V30 3602 S 339.642 -3.35458 2.82866 0
M  V30 3603 H 336.46 -0.466278 0.536755 0
M  V30 3604 H 339.062 -0.689152 1.82951 0
M  V30 3605 H 337.766 -2.06141 3.54872 0
M  V30 3606 H 337.297 -3.20512 2.28114 0
M  V30 3607 H 339.312 -4.46251 2.16967 0
M  V30 3608 N 338.485 -1.33259 -0.841409 0
M  V30 3609 C 339.731 -1.24757 -1.59886 0
M  V30 3610 C 340.064 0.186913 -1.93298 0
M  V30 3611 O 339.339 1.12757 -1.5848 0
M  V30 3612 C 339.622 -2.12036 -2.91055 0
M  V30 3613 C 339.475 -3.63929 -2.6434 0
M  V30 3614 C 340.794 -1.9916 -3.92458 0
M  V30 3615 H 337.913 -0.454542 -0.580138 0
M  V30 3616 H 340.555 -1.63335 -0.970647 0
M  V30 3617 H 338.705 -1.79265 -3.44669 0
M  V30 3618 H 340.377 -4.06978 -2.17178 0
M  V30 3619 H 338.62 -3.85935 -1.98082 0
M  V30 3620 H 339.291 -4.20341 -3.57796 0
M  V30 3621 H 341.767 -2.27895 -3.48143 0
M  V30 3622 H 340.643 -2.62484 -4.82072 0
M  V30 3623 H 340.904 -0.963082 -4.31482 0
M  V30 3624 N 339.963 1.05934 -1.16686 0
M  V30 3625 C 340.911 2.15603 -0.872817 0
M  V30 3626 C 341.905 1.68647 0.159576 0
M  V30 3627 O 343.111 1.79995 0.0132125 0
M  V30 3628 H 339.486 0.703885 -0.264671 0
M  V30 3629 H 341.457 2.37613 -1.80507 0
M  V30 3630 C 340.206 3.45457 -0.394344 0
M  V30 3631 H 339.529 3.81984 -1.18019 0
M  V30 3632 H 340.969 4.2339 -0.227408 0
M  V30 3633 C 339.428 3.25021 0.88673 0
M  V30 3634 O 339.958 3.50906 1.95519 0
M  V30 3635 N 338.164 2.78437 0.831925 0
M  V30 3636 H 337.711 2.57572 -0.0377619 0
M  V30 3637 H 337.669 2.65144 1.68956 0
M  V30 3638 N 341.441 0.965919 1.2453 0
M  V30 3639 C 342.689 0.625593 1.92174 0
M  V30 3640 C 343.01 -0.841652 1.75901 0
M  V30 3641 O 342.28 -1.60061 1.12948 0
M  V30 3642 H 340.86 0.228388 0.71123 0
M  V30 3643 H 343.522 1.2266 1.51461 0
M  V30 3644 H 342.618 0.864653 2.99884 0
M  V30 3645 N 342.919 -1.39368 0.735821 0
M  V30 3646 C 343.866 -2.30599 0.0963825 0
M  V30 3647 C 344.836 -1.49257 -0.728794 0
M  V30 3648 O 346.021 -1.77941 -0.688588 0
M  V30 3649 C 343.161 -3.35596 -0.804305 0
M  V30 3650 C 342.274 -4.31987 0.0335761 0
M  V30 3651 C 341.409 -5.24053 -0.868461 0
M  V30 3652 C 340.448 -6.12095 -0.0258776 0
M  V30 3653 N 339.585 -6.96514 -0.883893 0
M  V30 3654 H 344.425 -2.8471 0.880002 0
M  V30 3655 H 341.962 -1.40188 0.445619 0
M  V30 3656 H 343.92 -3.95062 -1.34096 0
M  V30 3657 H 342.55 -2.82938 -1.55389 0
M  V30 3658 H 341.602 -3.74133 0.68766 0
M  V30 3659 H 342.914 -4.94074 0.685036 0
M  V30 3660 H 342.068 -5.88549 -1.47293 0
M  V30 3661 H 340.807 -4.62289 -1.5537 0
M  V30 3662 H 339.812 -5.4661 0.591386 0
M  V30 3663 H 341.037 -6.75923 0.656156 0
M  V30 3664 H 338.983 -6.37318 -1.55441 0
M  V30 3665 H 338.9 -7.55448 -0.288931 0
M  V30 3666 H 340.168 -7.65439 -1.4739 0
M  V30 3667 N 344.397 -0.483516 -1.5 0
M  V30 3668 C 345.627 0.0643896 -2.065 0
M  V30 3669 C 346.035 1.32949 -1.34615 0
M  V30 3670 O 345.378 1.79003 -0.412756 0
M  V30 3671 C 345.44 0.405983 -3.572 0
M  V30 3672 C 345.104 -0.758875 -4.50655 0
M  V30 3673 C 346.101 -1.64445 -4.93208 0
M  V30 3674 C 343.786 -0.952725 -4.93182 0
M  V30 3675 C 345.78 -2.70818 -5.77006 0
M  V30 3676 C 343.467 -2.01966 -5.76761 0
M  V30 3677 C 344.465 -2.89574 -6.18576 0
M  V30 3678 O 344.153 -3.94429 -7.00486 0
M  V30 3679 H 343.885 -0.00934786 -0.675935 0
M  V30 3680 H 346.439 -0.674959 -1.93993 0
M  V30 3681 H 344.669 1.19869 -3.67652 0
M  V30 3682 H 346.358 0.890433 -3.96013 0
M  V30 3683 H 347.124 -1.50643 -4.61012 0
M  V30 3684 H 343.003 -0.280247 -4.60147 0
M  V30 3685 H 346.547 -3.3923 -6.09565 0
M  V30 3686 H 342.444 -2.1577 -6.0837 0
M  V30 3687 H 343.212 -3.91568 -7.1876 0
M  V30 3688 N 345.875 1.56104 -0.216619 0
M  V30 3689 C 347.124 1.97348 0.416744 0
M  V30 3690 C 347.437 1.10715 1.6125 0
M  V30 3691 O 348.643 1.41836 2.31506 0
M  V30 3692 C 347.099 3.51059 0.792835 0
M  V30 3693 C 346.707 4.46387 -0.379828 0
M  V30 3694 C 348.451 4.01026 1.39208 0
M  V30 3695 C 346.358 5.91397 0.0184223 0
M  V30 3696 H 345.288 0.736942 0.159475 0
M  V30 3697 H 347.939 1.80827 -0.31205 0
M  V30 3698 H 346.321 3.63162 1.57891 0
M  V30 3699 H 347.495 4.46029 -1.15737 0
M  V30 3700 H 345.81 4.06734 -0.891979 0
M  V30 3701 H 348.407 5.0686 1.70286 0
M  V30 3702 H 348.75 3.46587 2.30614 0
M  V30 3703 H 349.283 3.92125 0.669537 0
M  V30 3704 H 346.022 6.49807 -0.862002 0
M  V30 3705 H 345.542 5.94961 0.760384 0
M  V30 3706 H 347.221 6.45455 0.446818 0
M  V30 3707 N 347.353 -0.0568162 1.57498 0
M  V30 3708 C 348.578 -0.769402 1.92601 0
M  V30 3709 C 349.003 -1.69559 0.814336 0
M  V30 3710 O 348.361 -1.79811 -0.231903 0
M  V30 3711 C 348.409 -1.52634 3.26704 0
M  V30 3712 O 347.513 -2.63797 3.16994 0
M  V30 3713 H 346.854 -0.208909 0.63028 0
M  V30 3714 H 349.384 -0.0205798 2.0459 0
M  V30 3715 H 349.394 -1.90234 3.60936 0
M  V30 3716 H 348.069 -0.846875 4.07186 0
M  V30 3717 H 346.646 -2.28943 2.94346 0
M  V30 3718 N 348.832 -1.54138 -0.328536 0
M  V30 3719 C 349.764 -1.79509 -1.4251 0
M  V30 3720 C 350.777 -0.67688 -1.48061 0
M  V30 3721 O 351.966 -0.953898 -1.50874 0
M  V30 3722 C 349.066 -1.89337 -2.81078 0
M  V30 3723 C 348.239 -3.19443 -2.98789 0
M  V30 3724 C 347.298 -3.20036 -4.17688 0
M  V30 3725 O 346.324 -3.93697 -4.11086 0
M  V30 3726 N 347.526 -2.43467 -5.26976 0
M  V30 3727 H 350.291 -2.74139 -1.21111 0
M  V30 3728 H 347.852 -1.53373 -0.518499 0
M  V30 3729 H 349.844 -1.87167 -3.58818 0
M  V30 3730 H 348.414 -1.01826 -2.95551 0
M  V30 3731 H 347.634 -3.34614 -2.08391 0
M  V30 3732 H 348.922 -4.05354 -3.07515 0
M  V30 3733 H 348.32 -1.83201 -5.35214 0
M  V30 3734 H 346.877 -2.4708 -6.03154 0
M  V30 3735 N 350.31 0.590341 -1.46126 0
M  V30 3736 C 351.243 1.71434 -1.50617 0
M  V30 3737 C 352.221 1.58543 -0.360948 0
M  V30 3738 O 353.405 1.79865 -0.563985 0
M  V30 3739 C 350.532 3.09422 -1.37753 0
M  V30 3740 C 349.578 3.40854 -2.5636 0
M  V30 3741 S 350.411 3.33773 -4.18755 0
M  V30 3742 C 351.567 4.74312 -4.08386 0
M  V30 3743 H 351.8 1.67364 -2.45717 0
M  V30 3744 H 349.333 0.76845 -1.33919 0
M  V30 3745 H 351.291 3.8903 -1.31018 0
M  V30 3746 H 349.952 3.10989 -0.440949 0
M  V30 3747 H 349.145 4.41368 -2.43332 0
M  V30 3748 H 348.747 2.68798 -2.60046 0
M  V30 3749 H 351.039 5.64522 -3.74595 0
M  V30 3750 H 351.982 4.92397 -5.08872 0
M  V30 3751 H 352.39 4.50803 -3.3976 0
M  V30 3752 N 351.788 1.33704 0.83433 0
M  V30 3753 C 352.735 1.24335 1.94447 0
M  V30 3754 C 353.705 0.120991 1.65659 0
M  V30 3755 O 354.89 0.300035 1.88426 0
M  V30 3756 C 352.03 0.993124 3.30501 0
M  V30 3757 C 351.143 2.20217 3.71657 0
M  V30 3758 C 350.278 1.88572 4.96602 0
M  V30 3759 C 349.317 3.05683 5.30306 0
M  V30 3760 N 348.454 2.73997 6.46429 0
M  V30 3761 H 353.294 2.1928 2.01792 0
M  V30 3762 H 350.831 1.09035 0.987404 0
M  V30 3763 H 352.789 0.828467 4.08892 0
M  V30 3764 H 351.419 0.0803902 3.227 0
M  V30 3765 H 350.471 2.47642 2.88752 0
M  V30 3766 H 351.783 3.07752 3.92543 0
M  V30 3767 H 350.937 1.68776 5.82752 0
M  V30 3768 H 349.676 0.982799 4.77695 0
M  V30 3769 H 348.681 3.26088 4.42659 0
M  V30 3770 H 349.906 3.96737 5.51159 0
M  V30 3771 H 347.852 1.86268 6.28999 0
M  V30 3772 H 347.769 3.55064 6.67432 0
M  V30 3773 H 349.037 2.57679 7.35678 0
M  V30 3774 N 353.266 -1.05314 1.17247 0
M  V30 3775 C 354.229 -2.112 0.890357 0
M  V30 3776 C 355.229 -1.60359 -0.118943 0
M  V30 3777 O 356.419 -1.73833 0.113086 0
M  V30 3778 C 353.551 -3.39266 0.333422 0
M  V30 3779 H 354.744 -2.37659 1.82916 0
M  V30 3780 H 352.297 -1.21538 0.982758 0
M  V30 3781 H 353.032 -3.18462 -0.612587 0
M  V30 3782 H 352.817 -3.77477 1.06082 0
M  V30 3783 H 354.307 -4.17315 0.154322 0
M  V30 3784 N 354.744 -0.972509 -1.24016 0
M  V30 3785 C 355.984 -0.644951 -1.93958 0
M  V30 3786 C 356.348 0.80559 -1.74282 0
M  V30 3787 O 357.549 1.2436 -2.38302 0
M  V30 3788 C 355.82 -1.01521 -3.42678 0
M  V30 3789 S 357.379 -0.802927 -4.31391 0
M  V30 3790 H 354.197 -0.236452 -0.670531 0
M  V30 3791 H 356.799 -1.25048 -1.50277 0
M  V30 3792 H 355.503 -2.06769 -3.54506 0
M  V30 3793 H 355.034 -0.400648 -3.91355 0
M  V30 3794 H 357.049 0.317256 -4.95185 0
M  V30 3795 N 356.222 1.38976 -0.743202 0
M  V30 3796 C 357.499 1.94351 -0.220705 0
M  V30 3797 C 357.879 1.67935 1.2791 0
M  V30 3798 O 357.227 1.01211 2.04862 0
M  V30 3799 C 357.437 3.44426 -0.563171 0
M  V30 3800 C 358.785 4.2144 -0.517046 0
M  V30 3801 O 359.809 3.52661 -0.500846 0
M  V30 3802 O 358.668 5.44032 -0.518806 0
M  V30 3803 H 355.762 0.825879 -0.043047 0
M  V30 3804 H 358.308 1.48429 -0.822618 0
M  V30 3805 H 357.08 3.5712 -1.59941 0
M  V30 3806 H 356.703 3.97543 0.0672883 0
M  V30 3807 N 357.7 0.491464 1.49741 0
M  V30 3808 C 358.948 -0.0563141 2.02022 0
M  V30 3809 C 359.269 -1.38363 1.37407 0
M  V30 3810 O 358.539 -1.88702 0.526166 0
M  V30 3811 H 357.119 -0.0238014 0.746621 0
M  V30 3812 H 359.781 0.646533 1.83864 0
M  V30 3813 H 358.877 -0.192967 3.11503 0
M  V30 3814 N 359.178 -1.55987 0.224894 0
M  V30 3815 C 360.427 -1.97566 -0.406273 0
M  V30 3816 C 360.74 -1.11569 -1.6066 0
M  V30 3817 O 361.946 -1.43062 -2.3075 0
M  V30 3818 C 360.402 -3.51474 -0.774207 0
M  V30 3819 C 360.01 -4.46179 0.403496 0
M  V30 3820 C 361.754 -4.01758 -1.37079 0
M  V30 3821 C 359.661 -5.91399 0.0129412 0
M  V30 3822 H 358.591 -0.737777 -0.155565 0
M  V30 3823 H 361.242 -1.80659 0.321635 0
M  V30 3824 H 359.624 -3.63994 -1.55963 0
M  V30 3825 H 360.798 -4.45409 1.18101 0
M  V30 3826 H 359.113 -4.06255 0.913536 0
M  V30 3827 H 361.71 -5.07756 -1.67596 0
M  V30 3828 H 362.053 -3.47805 -2.28773 0
M  V30 3829 H 362.586 -3.92475 -0.648733 0
M  V30 3830 H 359.325 -6.49341 0.896451 0
M  V30 3831 H 358.845 -5.95356 -0.728821 0
M  V30 3832 H 360.524 -6.45683 -0.412582 0
M  V30 3833 N 360.656 0.0484629 -1.57525 0
M  V30 3834 C 361.604 1.07359 -2.06341 0
M  V30 3835 C 362.598 1.3865 -0.973269 0
M  V30 3836 O 363.804 1.37783 -1.15827 0
M  V30 3837 H 360.179 0.363662 -0.65822 0
M  V30 3838 H 362.15 0.635916 -2.91545 0
M  V30 3839 C 360.899 2.37198 -2.54229 0
M  V30 3840 H 360.222 2.13977 -3.37719 0
M  V30 3841 H 361.662 3.07319 -2.92115 0
M  V30 3842 C 360.121 3.04805 -1.43511 0
M  V30 3843 O 360.651 3.93848 -0.79034 0
M  V30 3844 N 358.857 2.65811 -1.17444 0
M  V30 3845 H 358.404 1.93488 -1.70059 0
M  V30 3846 H 358.362 3.11366 -0.435737 0
M  V30 3847 N 362.134 1.5431 0.320358 0
M  V30 3848 C 363.411 1.63322 1.07635 0
M  V30 3849 C 363.791 0.46912 2.05821 0
M  V30 3850 O 363.139 -0.536274 2.22118 0
M  V30 3851 C 363.349 3.00465 1.77544 0
M  V30 3852 C 364.697 3.56621 2.30449 0
M  V30 3853 O 365.721 3.02791 1.87606 0
M  V30 3854 O 364.58 4.5083 3.08892 0
M  V30 3855 H 361.674 0.661502 0.496331 0
M  V30 3856 H 364.22 1.66656 0.319992 0
M  V30 3857 H 362.992 3.76629 1.06143 0
M  V30 3858 H 362.615 3.00824 2.59982 0
M  V30 3859 N 363.613 -0.582584 1.46437 0
M  V30 3860 C 364.853 -1.35184 1.53312 0
M  V30 3861 C 365.217 -1.9115 0.180508 0
M  V30 3862 O 366.418 -2.68514 0.124017 0
M  V30 3863 C 364.689 -2.45089 2.60127 0
M  V30 3864 S 366.248 -3.32439 2.86408 0
M  V30 3865 H 363.066 -0.460559 0.54167 0
M  V30 3866 H 365.668 -0.669709 1.83671 0
M  V30 3867 H 364.372 -2.02366 3.57038 0
M  V30 3868 H 363.903 -3.18074 2.315 0
M  V30 3869 H 365.918 -4.43924 2.21688 0
M  V30 3870 N 365.091 -1.34144 -0.827227 0
M  V30 3871 C 366.339 -1.26009 -1.58007 0
M  V30 3872 C 366.66 0.170971 -1.94249 0
M  V30 3873 O 365.93 1.10256 -1.61927 0
M  V30 3874 H 364.51 -0.463414 -0.585881 0
M  V30 3875 H 367.172 -1.68005 -0.987951 0
M  V30 3876 H 366.268 -1.86187 -2.50481 0
M  V30 3877 N 366.569 1.04691 -1.17803 0
M  V30 3878 C 367.846 1.7472 -0.879328 0
M  V30 3879 C 368.226 2.01812 0.619271 0
M  V30 3880 O 367.574 1.65824 1.57209 0
M  V30 3881 C 367.784 3.03686 -1.71976 0
M  V30 3882 C 369.132 3.77542 -1.94286 0
M  V30 3883 O 370.156 3.13569 -1.68976 0
M  V30 3884 O 369.015 4.92506 -2.36855 0
M  V30 3885 H 366.109 0.760011 -0.326056 0
M  V30 3886 H 368.655 1.10813 -1.28525 0
M  V30 3887 H 367.427 2.79754 -2.73594 0
M  V30 3888 H 367.05 3.75332 -1.31194 0
M  V30 3889 N 368.047 0.979072 1.23499 0
M  V30 3890 C 368.979 0.476271 2.24197 0
M  V30 3891 C 369.992 -0.421166 1.57258 0
M  V30 3892 O 371.181 -0.225515 1.7707 0
M  V30 3893 C 368.281 -0.330503 3.37285 0
M  V30 3894 C 367.454 0.559744 4.33804 0
M  V30 3895 C 366.513 -0.192954 5.25846 0
M  V30 3896 O 365.539 0.416978 5.67671 0
M  V30 3897 N 366.741 -1.47932 5.61334 0
M  V30 3898 H 369.506 1.34211 2.67969 0
M  V30 3899 H 367.067 0.852189 1.37657 0
M  V30 3900 H 369.059 -0.842361 3.95836 0
M  V30 3901 H 367.629 -1.09734 2.92707 0
M  V30 3902 H 366.849 1.25245 3.73775 0
M  V30 3903 H 368.137 1.1665 4.95248 0
M  V30 3904 H 367.535 -1.9964 5.29302 0
M  V30 3905 H 366.092 -1.93664 6.22364 0
M  V30 3906 N 369.525 -1.3858 0.750561 0
M  V30 3907 C 370.75 -2.04997 0.314812 0
M  V30 3908 C 371.175 -1.56235 -1.04749 0
M  V30 3909 O 370.533 -0.712981 -1.66692 0
M  V30 3910 C 370.581 -3.58961 0.343415 0
M  V30 3911 O 369.685 -4.07025 -0.663628 0
M  V30 3912 H 369.026 -0.649081 0.139962 0
M  V30 3913 H 371.556 -1.77313 1.02084 0
M  V30 3914 H 371.566 -4.07542 0.193233 0
M  V30 3915 H 370.241 -3.93811 1.33738 0
M  V30 3916 H 368.818 -3.6982 -0.478307 0
M  V30 3917 N 371.003 -0.499398 -1.49478 0
M  V30 3918 C 372.28 0.108629 -1.95298 0
M  V30 3919 C 372.66 1.54282 -1.44084 0
M  V30 3920 O 372.008 2.18944 -0.653908 0
M  V30 3921 C 372.218 0.0229111 -3.48992 0
M  V30 3922 C 373.566 0.197643 -4.2414 0
M  V30 3923 O 374.59 0.0981735 -3.56065 0
M  V30 3924 O 373.449 0.401669 -5.45022 0
M  V30 3925 H 370.543 0.096181 -0.821388 0
M  V30 3926 H 373.089 -0.561822 -1.6013 0
M  V30 3927 H 371.861 -0.977321 -3.78899 0
M  V30 3928 H 371.484 0.733579 -3.90774 0
M  V30 3929 N 372.481 1.55866 -0.233164 0
M  V30 3930 C 373.391 2.24431 0.683217 0
M  V30 3931 C 374.407 1.2558 1.2044 0
M  V30 3932 O 375.583 1.58422 1.24356 0
M  V30 3933 C 372.648 2.91979 1.86947 0
M  V30 3934 C 371.709 4.06204 1.38912 0
M  V30 3935 C 370.942 4.70522 2.51883 0
M  V30 3936 O 371.165 4.33865 3.70293 0
M  V30 3937 O 370.099 5.59296 2.22423 0
M  V30 3938 H 373.925 3.03426 0.129059 0
M  V30 3939 H 371.51 1.494 -0.0022283 0
M  V30 3940 H 373.392 3.34573 2.56201 0
M  V30 3941 H 372.067 2.15935 2.41151 0
M  V30 3942 H 370.974 3.68155 0.664259 0
M  V30 3943 H 372.307 4.84025 0.893328 0
M  V30 3944 N 373.959 -0.0401083 1.57549 0
M  V30 3945 C 374.889 -1.04384 2.08869 0
M  V30 3946 C 375.87 -1.38407 0.988817 0
M  V30 3947 O 377.055 -1.47483 1.26342 0
M  V30 3948 C 374.185 -2.34808 2.55895 0
M  V30 3949 C 373.139 -2.15057 3.70047 0
M  V30 3950 C 372.465 -3.51145 4.03239 0
M  V30 3951 C 373.765 -1.54576 4.98902 0
M  V30 3952 H 375.459 -0.616666 2.92981 0
M  V30 3953 H 373.005 -0.295184 1.40942 0
M  V30 3954 H 374.958 -3.05346 2.90417 0
M  V30 3955 H 373.682 -2.79565 1.68853 0
M  V30 3956 H 372.341 -1.46954 3.35857 0
M  V30 3957 H 371.989 -3.93529 3.13279 0
M  V30 3958 H 371.689 -3.38758 4.80122 0
M  V30 3959 H 373.213 -4.23062 4.40285 0
M  V30 3960 H 374.627 -2.15017 5.31451 0
M  V30 3961 H 373.024 -1.52796 5.80322 0
M  V30 3962 H 374.094 -0.51039 4.82206 0
M  V30 3963 N 375.437 -1.54477 -0.31217 0
M  V30 3964 C 376.677 -1.74958 -1.05684 0
M  V30 3965 C 377.041 -0.518414 -1.84869 0
M  V30 3966 O 378.242 -0.600759 -2.62001 0
M  V30 3967 C 376.513 -2.99656 -1.94785 0
M  V30 3968 S 378.072 -3.4109 -2.76049 0
M  V30 3969 H 374.89 -0.615104 -0.356606 0
M  V30 3970 H 377.492 -1.92669 -0.331514 0
M  V30 3971 H 376.196 -3.87397 -1.35468 0
M  V30 3972 H 375.727 -2.845 -2.71704 0
M  V30 3973 H 377.742 -2.97283 -3.97287 0
M  V30 3974 N 376.915 0.57481 -1.46744 0
M  V30 3975 C 378.155 1.34369 -1.54027 0
M  V30 3976 C 378.519 1.91051 -0.190642 0
M  V30 3977 O 379.72 2.68444 -0.138255 0
M  V30 3978 C 377.991 2.43706 -2.61423 0
M  V30 3979 S 379.55 3.30915 -2.88167 0
M  V30 3980 H 376.368 0.45768 -0.544105 0
M  V30 3981 H 378.97 0.659959 -1.84024 0
M  V30 3982 H 377.674 2.0047 -3.58106 0
M  V30 3983 H 377.205 3.16842 -2.33184 0
M  V30 3984 H 379.22 4.42742 -2.24039 0
M  V30 3985 N 378.394 1.34581 0.820102 0
M  V30 3986 C 379.341 1.2639 1.93117 0
M  V30 3987 C 380.311 0.138554 1.65521 0
M  V30 3988 O 381.496 0.320004 1.88097 0
M  V30 3989 C 378.636 1.02812 3.29429 0
M  V30 3990 C 377.749 2.24146 3.693 0
M  V30 3991 C 376.884 1.93829 4.94574 0
M  V30 3992 C 375.923 3.1129 5.27034 0
M  V30 3993 N 375.06 2.80838 6.43486 0
M  V30 3994 H 379.9 2.21408 1.99455 0
M  V30 3995 H 377.437 1.10077 0.975784 0
M  V30 3996 H 379.395 0.871788 4.0799 0
M  V30 3997 H 378.025 0.114612 3.22596 0
M  V30 3998 H 377.077 2.50691 2.86109 0
M  V30 3999 H 378.389 3.11899 3.89257 0
M  V30 4000 H 377.543 1.74948 5.80929 0
M  V30 4001 H 376.282 1.03341 4.76626 0
M  V30 4002 H 375.287 3.30764 4.39175 0
M  V30 4003 H 376.512 4.02561 5.4692 0
M  V30 4004 H 374.458 1.92929 6.26988 0
M  V30 4005 H 374.375 3.62123 6.63629 0
M  V30 4006 H 375.643 2.65467 7.32903 0
M  V30 4007 N 379.872 -1.04064 1.18357 0
M  V30 4008 C 380.835 -2.10243 0.912707 0
M  V30 4009 C 381.835 -1.60477 -0.101928 0
M  V30 4010 O 383.025 -1.73703 0.131517 0
M  V30 4011 C 380.157 -3.38893 0.369387 0
M  V30 4012 H 381.35 -2.35706 1.85426 0
M  V30 4013 H 378.903 -1.20489 0.995594 0
M  V30 4014 H 379.638 -3.19094 -0.578776 0
M  V30 4015 H 379.423 -3.76331 1.1008 0
M  V30 4016 H 380.913 -4.17128 0.198575 0
M  V30 4017 N 381.35 -0.985608 -1.22978 0
M  V30 4018 C 382.59 -0.665487 -1.93263 0
M  V30 4019 C 382.954 0.78706 -1.75127 0
M  V30 4020 O 384.155 1.21826 -2.39608 0
M  V30 4021 C 382.426 -1.0515 -3.41582 0
M  V30 4022 S 383.985 -0.848637 -4.30516 0
M  V30 4023 H 380.803 -0.24355 -0.667985 0
M  V30 4024 H 383.405 -1.26635 -1.48942 0
M  V30 4025 H 382.109 -2.10517 -3.52293 0
M  V30 4026 H 381.64 -0.442134 -3.90908 0
M  V30 4027 H 383.655 0.264717 -4.95493 0
M  V30 4028 N 382.828 1.3818 -0.7579 0
M  V30 4029 C 383.76 2.2901 -0.0932177 0
M  V30 4030 C 384.773 1.47958 0.679136 0
M  V30 4031 O 385.962 1.70773 0.519514 0
M  V30 4032 C 383.062 3.26953 0.89192 0
M  V30 4033 C 382.235 4.37045 0.176303 0
M  V30 4034 C 381.294 5.15148 1.07281 0
M  V30 4035 O 380.32 5.66616 0.541728 0
M  V30 4036 N 381.522 5.28542 2.40049 0
M  V30 4037 H 384.287 2.86694 -0.873303 0
M  V30 4038 H 381.848 1.50007 -0.609054 0
M  V30 4039 H 383.84 3.76083 1.49479 0
M  V30 4040 H 382.41 2.70136 1.57306 0
M  V30 4041 H 381.63 3.89493 -0.607328 0
M  V30 4042 H 382.918 5.07801 -0.318718 0
M  V30 4043 H 382.316 4.88285 2.85647 0
M  V30 4044 H 380.873 5.8103 2.95376 0
M  V30 4045 N 384.306 0.507319 1.49211 0
M  V30 4046 C 385.554 -0.0348839 2.0207 0
M  V30 4047 C 385.875 -1.36898 1.38866 0
M  V30 4048 O 385.145 -1.88133 0.546151 0
M  V30 4049 H 383.725 -0.0158812 0.746831 0
M  V30 4050 H 386.387 0.665998 1.83168 0
M  V30 4051 H 385.483 -0.159917 3.1169 0
M  V30 4052 N 385.784 -1.5574 0.241426 0
M  V30 4053 C 386.731 -2.21149 -0.660432 0
M  V30 4054 C 387.701 -1.17356 -1.17545 0
M  V30 4055 O 388.886 -1.45784 -1.23093 0
M  V30 4056 C 386.026 -2.91059 -1.85414 0
M  V30 4057 C 385.139 -4.09495 -1.37616 0
M  V30 4058 C 384.274 -4.67135 -2.529 0
M  V30 4059 C 383.313 -5.77831 -2.01936 0
M  V30 4060 N 382.45 -6.29677 -3.10566 0
M  V30 4061 H 387.29 -2.97845 -0.095955 0
M  V30 4062 H 384.827 -1.47057 -0.0356024 0
M  V30 4063 H 386.785 -3.29788 -2.5553 0
M  V30 4064 H 385.415 -2.16846 -2.39118 0
M  V30 4065 H 384.467 -3.76117 -0.569235 0
M  V30 4066 H 385.779 -4.89423 -0.962618 0
M  V30 4067 H 384.933 -5.08409 -3.31067 0
M  V30 4068 H 383.672 -3.86411 -2.97553 0
M  V30 4069 H 382.677 -5.36039 -1.22238 0
M  V30 4070 H 383.902 -6.60402 -1.58259 0
M  V30 4071 H 381.848 -5.5186 -3.54664 0
M  V30 4072 H 381.765 -7.04783 -2.73526 0
M  V30 4073 H 383.033 -6.75609 -3.88809 0
M  V30 4074 N 387.262 0.0317525 -1.57568 0
M  V30 4075 C 388.51 0.721676 -1.88776 0
M  V30 4076 C 388.831 1.76039 -0.838772 0
M  V30 4077 O 388.101 1.95482 0.127935 0
M  V30 4078 H 386.681 0.269534 -0.696678 0
M  V30 4079 H 389.343 -0.00165879 -1.949 0
M  V30 4080 H 388.439 1.21293 -2.87566 0
M  V30 4081 N 388.74 1.54641 0.303973 0
M  V30 4082 C 389.987 1.7378 1.03955 0
M  V30 4083 C 390.315 0.521986 1.87365 0
M  V30 4084 O 389.57 -0.496099 1.89308 0
M  V30 4085 C 389.869 2.97753 1.97681 0
M  V30 4086 C 389.535 4.31671 1.30271 0
M  V30 4087 C 388.197 4.68075 1.11619 0
M  V30 4088 C 390.549 5.147 0.82055 0
M  V30 4089 C 387.877 5.8509 0.434304 0
M  V30 4090 C 390.229 6.32416 0.152395 0
M  V30 4091 C 388.893 6.67484 -0.0461067 0
M  V30 4092 H 388.163 0.635908 0.380398 0
M  V30 4093 H 390.81 1.88896 0.314718 0
M  V30 4094 H 389.115 2.77406 2.76682 0
M  V30 4095 H 390.812 3.09756 2.54661 0
M  V30 4096 H 387.402 4.03041 1.45795 0
M  V30 4097 H 391.586 4.87077 0.952374 0
M  V30 4098 H 386.842 6.10806 0.269495 0
M  V30 4099 H 391.016 6.96023 -0.229126 0
M  V30 4100 H 388.643 7.58011 -0.576494 0
M  V30 4101 N 390.218 -0.567019 1.47046 0
M  V30 4102 C 391.168 -1.67018 1.55207 0
M  V30 4103 C 392.152 -1.55543 0.411714 0
M  V30 4104 O 393.344 -1.64192 0.661064 0
M  V30 4105 C 390.473 -3.05801 1.56014 0
M  V30 4106 C 389.559 -3.22515 2.75399 0
M  V30 4107 N 389.95 -3.09329 4.00186 0
M  V30 4108 C 388.248 -3.53493 2.71954 0
M  V30 4109 C 388.949 -3.2847 4.80086 0
M  V30 4110 N 387.925 -3.54352 4.12233 0
M  V30 4111 H 391.727 -1.55377 2.4947 0
M  V30 4112 H 389.241 -0.771503 1.42904 0
M  V30 4113 H 391.238 -3.84996 1.59949 0
M  V30 4114 H 389.898 -3.18561 0.628396 0
M  V30 4115 H 390.909 -2.86863 4.31196 0
M  V30 4116 H 387.586 -3.7284 1.87873 0
M  V30 4117 H 388.976 -3.23326 5.88991 0
M  V30 4118 N 391.696 -1.35014 -0.812953 0
M  V30 4119 C 392.936 -1.29289 -1.58315 0
M  V30 4120 C 393.3 0.132727 -1.91541 0
M  V30 4121 O 394.501 0.314269 -2.66957 0
M  V30 4122 C 392.772 -2.1681 -2.84127 0
M  V30 4123 S 394.331 -2.28538 -3.74588 0
M  V30 4124 H 391.149 -0.459569 -0.542511 0
M  V30 4125 H 393.751 -1.70336 -0.959467 0
M  V30 4126 H 392.455 -3.19379 -2.57731 0
M  V30 4127 H 391.986 -1.76697 -3.51485 0
M  V30 4128 H 394.001 -1.4655 -4.74065 0
M  V30 4129 N 393.175 1.03435 -1.18907 0
M  V30 4130 C 394.122 2.11591 -0.921837 0
M  V30 4131 C 395.092 1.65499 0.141226 0
M  V30 4132 O 396.277 1.908 0.000242829 0
M  V30 4133 C 393.417 3.42012 -0.460616 0
M  V30 4134 C 392.53 4.01682 -1.58982 0
M  V30 4135 C 391.665 5.20091 -1.08069 0
M  V30 4136 C 390.704 5.71805 -2.18416 0
M  V30 4137 N 389.841 6.81494 -1.68849 0
M  V30 4138 H 394.681 2.33787 -1.8479 0
M  V30 4139 H 392.218 1.1467 -0.921373 0
M  V30 4140 H 394.176 4.16834 -0.174642 0
M  V30 4141 H 392.806 3.19944 0.428467 0
M  V30 4142 H 391.858 3.24127 -1.99113 0
M  V30 4143 H 393.17 4.36084 -2.4214 0
M  V30 4144 H 392.324 6.02051 -0.749615 0
M  V30 4145 H 391.063 4.87209 -0.218771 0
M  V30 4146 H 390.068 4.88461 -2.5236 0
M  V30 4147 H 391.293 6.06728 -3.05054 0
M  V30 4148 H 389.239 6.50475 -0.849572 0
M  V30 4149 H 389.156 7.14994 -2.45601 0
M  V30 4150 H 390.424 7.67063 -1.38689 0
M  V30 4151 N 394.653 0.992116 1.22453 0
M  V30 4152 C 395.878 0.685644 1.95739 0
M  V30 4153 C 396.303 -0.743 1.72804 0
M  V30 4154 O 395.661 -1.50778 1.00676 0
M  V30 4155 C 395.709 0.996293 3.46564 0
M  V30 4156 O 394.813 0.0945512 4.12292 0
M  V30 4157 H 394.154 0.256694 0.612376 0
M  V30 4158 H 396.684 1.32888 1.5557 0
M  V30 4159 H 396.694 0.93781 3.97076 0
M  V30 4160 H 395.369 2.03733 3.62582 0
M  V30 4161 H 393.946 0.208451 3.72317 0
M  V30 4162 N 396.131 -1.37776 0.765217 0
M  V30 4163 C 397.379 -1.99454 0.325943 0
M  V30 4164 C 397.7 -1.61049 -1.09947 0
M  V30 4165 O 396.97 -0.872821 -1.75381 0
M  V30 4166 H 395.55 -0.737697 0.117525 0
M  V30 4167 H 398.212 -1.68359 0.981895 0
M  V30 4168 H 397.308 -3.09547 0.398353 0
M  V30 4169 N 397.609 -0.515225 -1.4894 0
M  V30 4170 C 398.855 0.0242508 -2.02785 0
M  V30 4171 C 399.188 1.35323 -1.39289 0
M  V30 4172 O 398.463 1.87041 -0.533469 0
M  V30 4173 C 398.746 0.16184 -3.59736 0
M  V30 4174 C 398.599 -1.19127 -4.33738 0
M  V30 4175 C 399.918 0.895719 -4.30888 0
M  V30 4176 H 397.037 0.00733914 -0.736963 0
M  V30 4177 H 399.679 -0.669395 -1.77818 0
M  V30 4178 H 397.829 0.752624 -3.8114 0
M  V30 4179 H 399.501 -1.82202 -4.23792 0
M  V30 4180 H 397.744 -1.77695 -3.95736 0
M  V30 4181 H 398.415 -1.04815 -5.41957 0
M  V30 4182 H 400.891 0.394528 -4.14225 0
M  V30 4183 H 399.767 0.960859 -5.40425 0
M  V30 4184 H 400.028 1.9427 -3.97129 0
M  V30 4185 N 399.087 1.5561 -0.249682 0
M  V30 4186 C 400.327 2.00916 0.37579 0
M  V30 4187 C 400.691 1.13409 1.54927 0
M  V30 4188 O 401.892 1.48183 2.24266 0
M  V30 4189 C 400.163 3.48949 0.772633 0
M  V30 4190 S 401.722 4.16261 1.38824 0
M  V30 4191 H 398.54 0.70112 0.118117 0
M  V30 4192 H 401.142 1.92052 -0.365567 0
M  V30 4193 H 399.846 4.103 -0.090683 0
M  V30 4194 H 399.377 3.61745 1.5461 0
M  V30 4195 H 401.392 4.17778 2.67724 0
M  V30 4196 N 400.565 -0.0233959 1.57583 0
M  V30 4197 C 401.814 -0.712133 1.8871 0
M  V30 4198 C 402.127 -1.76217 0.848944 0
M  V30 4199 O 403.333 -2.50389 1.04964 0
M  V30 4200 C 401.789 -1.3177 3.3491 0
M  V30 4201 C 401.397 -0.303715 4.46969 0
M  V30 4202 C 403.141 -1.98598 3.75179 0
M  V30 4203 C 401.048 -0.917945 5.84233 0
M  V30 4204 H 399.978 -0.269735 0.704101 0
M  V30 4205 H 402.629 0.0333114 1.8347 0
M  V30 4206 H 401.011 -2.11304 3.34913 0
M  V30 4207 H 402.185 0.465325 4.58445 0
M  V30 4208 H 400.5 0.2628 4.1557 0
M  V30 4209 H 403.097 -2.45416 4.75053 0
M  V30 4210 H 403.44 -2.80659 3.07468 0
M  V30 4211 H 403.973 -1.25831 3.77374 0
M  V30 4212 H 400.712 -0.136633 6.55358 0
M  V30 4213 H 400.232 -1.65669 5.76467 0
M  V30 4214 H 401.911 -1.4236 6.31144 0
M  V30 4215 N 402.043 -1.548 -0.295768 0
M  V30 4216 C 403.454 -1.65274 -0.868411 0
M  V30 4217 C 403.805 -0.56481 -1.87894 0
M  V30 4218 O 402.93 0.29767 -2.14343 0
M  V30 4219 C 403.525 -2.99603 -1.58188 0
M  V30 4220 C 402.084 -3.12181 -2.10286 0
M  V30 4221 C 401.231 -2.6098 -0.93727 0
M  V30 4222 H 404.182 -1.58534 -0.0726422 0
M  V30 4223 H 404.203 -2.91319 -2.44772 0
M  V30 4224 H 403.715 -3.78764 -0.846151 0
M  V30 4225 H 401.816 -2.3775 -2.8689 0
M  V30 4226 H 401.929 -4.18415 -2.33379 0
M  V30 4227 H 400.293 -2.17564 -1.32431 0
M  V30 4228 H 401.076 -3.42623 -0.215414 0
M  V30 4229 N 403.521 0.559213 -1.47345 0
M  V30 4230 C 404.746 1.34676 -1.57725 0
M  V30 4231 C 405.171 1.86723 -0.227164 0
M  V30 4232 O 404.529 1.6286 0.796642 0
M  V30 4233 C 404.577 2.49399 -2.60447 0
M  V30 4234 O 403.681 3.51567 -2.15578 0
M  V30 4235 H 403.022 0.400115 -0.52991 0
M  V30 4236 H 405.552 0.676009 -1.93109 0
M  V30 4237 H 405.562 2.95996 -2.80803 0
M  V30 4238 H 404.237 2.10873 -3.58477 0
M  V30 4239 H 402.814 3.11289 -2.05313 0
M  V30 4240 N 404.999 1.35443 0.805782 0
M  V30 4241 C 405.931 1.24285 1.92577 0
M  V30 4242 C 406.944 0.165962 1.61952 0
M  V30 4243 O 408.133 0.419303 1.73505 0
M  V30 4244 C 405.233 0.891272 3.2697 0
M  V30 4245 C 404.406 2.06669 3.85495 0
M  V30 4246 C 403.465 1.69077 4.98297 0
M  V30 4247 O 402.491 2.4096 5.15681 0
M  V30 4248 N 403.693 0.614869 5.77234 0
M  V30 4249 H 406.458 2.20777 2.02676 0
M  V30 4250 H 404.019 1.28623 0.983243 0
M  V30 4251 H 406.011 0.621256 3.99903 0
M  V30 4252 H 404.581 0.016004 3.12596 0
M  V30 4253 H 403.801 2.50046 3.04747 0
M  V30 4254 H 405.089 2.85237 4.21328 0
M  V30 4255 H 404.487 0.017648 5.65697 0
M  V30 4256 H 403.044 0.404636 6.50543 0
M  V30 4257 N 406.477 -1.02803 1.19454 0
M  V30 4258 C 407.707 -1.79581 1.02149 0
M  V30 4259 C 408.115 -1.84182 -0.432851 0
M  V30 4260 O 407.458 -1.28534 -1.31243 0
M  V30 4261 C 407.52 -3.25993 1.51554 0
M  V30 4262 C 407.184 -3.45025 2.99678 0
M  V30 4263 C 408.181 -3.35175 3.97434 0
M  V30 4264 C 405.866 -3.71212 3.38389 0
M  V30 4265 C 407.86 -3.51238 5.31893 0
M  V30 4266 C 405.547 -3.8692 4.73008 0
M  V30 4267 C 406.545 -3.76936 5.69569 0
M  V30 4268 O 406.233 -3.92179 7.01748 0
M  V30 4269 H 405.965 -0.571962 0.360327 0
M  V30 4270 H 408.519 -1.30367 1.58725 0
M  V30 4271 H 406.749 -3.76235 0.893543 0
M  V30 4272 H 408.438 -3.84368 1.30444 0
M  V30 4273 H 409.204 -3.14895 3.68872 0
M  V30 4274 H 405.083 -3.78075 2.6378 0
M  V30 4275 H 408.627 -3.43362 6.07247 0
M  V30 4276 H 404.524 -4.06699 5.01265 0
M  V30 4277 H 405.292 -4.09265 7.08833 0
M  V30 4278 N 407.956 -0.998596 -1.21925 0
M  V30 4279 C 408.888 -0.511879 -2.23411 0
M  V30 4280 C 409.901 0.396094 -1.57908 0
M  V30 4281 O 411.09 0.197316 -1.77406 0
M  V30 4282 C 408.19 0.276802 -3.37768 0
M  V30 4283 C 407.363 -0.628687 -4.32858 0
M  V30 4284 C 406.422 0.109272 -5.26087 0
M  V30 4285 O 405.448 -0.507237 -5.66935 0
M  V30 4286 N 406.65 1.38983 -5.63617 0
M  V30 4287 H 409.415 -1.38457 -2.658 0
M  V30 4288 H 406.976 -0.873981 -1.36283 0
M  V30 4289 H 408.968 0.77928 -3.97126 0
M  V30 4290 H 407.538 1.05063 -2.94415 0
M  V30 4291 H 406.758 -1.31175 -3.71735 0
M  V30 4292 H 408.046 -1.24514 -4.93329 0
M  V30 4293 H 407.444 1.91194 -5.32411 0
M  V30 4294 H 406.001 1.83739 -6.25367 0
M  V30 4295 N 409.434 1.37368 -0.772513 0
M  V30 4296 C 410.674 2.01512 -0.342361 0
M  V30 4297 C 411.038 1.59997 1.06136 0
M  V30 4298 O 412.239 2.16609 1.59167 0
M  V30 4299 C 410.51 3.54134 -0.482048 0
M  V30 4300 S 412.069 4.38585 -0.137272 0
M  V30 4301 H 408.887 0.698699 -0.131686 0
M  V30 4302 H 411.489 1.67552 -1.0073 0
M  V30 4303 H 410.193 3.81837 -1.50428 0
M  V30 4304 H 409.724 3.92894 0.199413 0
M  V30 4305 H 411.739 4.84594 1.06692 0
M  V30 4306 N 410.912 0.523116 1.48665 0
M  V30 4307 C 411.86 -0.256859 2.31177 0
M  V30 4308 C 412.854 -0.94199 1.40794 0
M  V30 4309 O 414.06 -0.867157 1.57735 0
M  V30 4310 H 410.435 -0.1017 0.745091 0
M  V30 4311 H 412.406 0.458739 2.94853 0
M  V30 4312 C 411.155 -1.29503 3.22683 0
M  V30 4313 H 410.478 -0.777248 3.92172 0
M  V30 4314 H 411.918 -1.81233 3.83315 0
M  V30 4315 C 410.377 -2.32501 2.43813 0
M  V30 4316 O 410.907 -3.3881 2.15803 0
M  V30 4317 N 409.113 -2.05538 2.05432 0
M  V30 4318 H 408.66 -1.19104 2.28412 0
M  V30 4319 H 408.618 -2.74676 1.52973 0
M  V30 4320 N 412.39 -1.55475 0.257931 0
M  V30 4321 C 413.638 -1.98813 -0.363009 0
M  V30 4322 C 413.959 -1.14757 -1.57657 0
M  V30 4323 O 413.229 -0.232956 -1.9451 0
M  V30 4324 H 411.809 -0.734308 -0.137113 0
M  V30 4325 H 414.471 -1.9156 0.359281 0
M  V30 4326 H 413.567 -3.04941 -0.664634 0
M  V30 4327 N 413.868 0.0150385 -1.57593 0
M  V30 4328 C 414.778 1.02791 -2.10882 0
M  V30 4329 C 415.794 1.38702 -1.0506 0
M  V30 4330 O 416.97 1.47739 -1.36877 0
M  V30 4331 C 414.035 2.30568 -2.58919 0
M  V30 4332 C 413.096 2.01108 -3.79281 0
M  V30 4333 C 412.329 3.22794 -4.25018 0
M  V30 4334 O 412.552 4.33959 -3.70183 0
M  V30 4335 O 411.486 3.07672 -5.17322 0
M  V30 4336 H 415.312 0.604973 -2.97613 0
M  V30 4337 H 412.897 0.23292 -1.47573 0
M  V30 4338 H 414.779 3.05662 -2.90084 0
M  V30 4339 H 413.454 2.72129 -1.75293 0
M  V30 4340 H 412.361 1.23537 -3.53114 0
M  V30 4341 H 413.694 1.64394 -4.63935 0
M  V30 4342 N 415.346 1.54954 0.287554 0
M  V30 4343 C 416.592 1.75132 1.02257 0
M  V30 4344 C 416.925 0.542858 1.86458 0
M  V30 4345 O 416.2 -0.459856 1.88986 0
M  V30 4346 C 416.483 3.04812 1.91733 0
M  V30 4347 C 416.336 4.35985 1.10622 0
M  V30 4348 C 417.655 3.30438 2.90687 0
M  V30 4349 H 414.774 0.637194 0.370341 0
M  V30 4350 H 417.416 1.87678 0.296111 0
M  V30 4351 H 415.566 2.94247 2.53675 0
M  V30 4352 H 417.238 4.58487 0.508636 0
M  V30 4353 H 415.481 4.31865 0.409271 0
M  V30 4354 H 416.152 5.23017 1.76513 0
M  V30 4355 H 418.628 3.40701 2.38877 0
M  V30 4356 H 417.504 4.22467 3.50447 0
M  V30 4357 H 417.765 2.49377 3.65053 0
M  V30 4358 N 416.824 -0.551391 1.4764 0
M  V30 4359 C 418.101 -1.31229 1.45046 0
M  V30 4360 C 418.481 -2.10563 0.150527 0
M  V30 4361 O 417.829 -2.11374 -0.867956 0
M  V30 4362 C 418.039 -2.21189 2.69956 0
M  V30 4363 C 419.387 -2.82021 3.1741 0
M  V30 4364 O 420.411 -2.31488 2.70724 0
M  V30 4365 O 419.27 -3.73885 3.98588 0
M  V30 4366 H 416.364 -0.591193 0.578291 0
M  V30 4367 H 418.91 -0.569813 1.59847 0
M  V30 4368 H 417.682 -1.62207 3.56096 0
M  V30 4369 H 417.305 -3.02722 2.57769 0
M  V30 4370 N 418.302 -1.35869 -0.798587 0
M  V30 4371 C 419.542 -1.30961 -1.56935 0
M  V30 4372 C 419.906 0.112404 -1.91671 0
M  V30 4373 O 421.107 0.285937 -2.67275 0
M  V30 4374 C 419.378 -2.19811 -2.81811 0
M  V30 4375 S 420.937 -2.32498 -3.72143 0
M  V30 4376 H 417.755 -0.465297 -0.537606 0
M  V30 4377 H 420.357 -1.71344 -0.941346 0
M  V30 4378 H 419.061 -3.22095 -2.54329 0
M  V30 4379 H 418.592 -1.80415 -3.49591 0
M  V30 4380 H 420.607 -1.5157 -4.72484 0
M  V30 4381 N 419.78 1.02168 -1.19998 0
M  V30 4382 C 421.029 1.75091 -1.0013 0
M  V30 4383 C 421.342 1.89923 0.467835 0
M  V30 4384 O 422.548 2.59888 0.785515 0
M  V30 4385 C 421.004 3.14892 -1.74273 0
M  V30 4386 C 420.612 3.0809 -3.25245 0
M  V30 4387 C 422.356 3.9206 -1.62755 0
M  V30 4388 C 420.263 4.42867 -3.91948 0
M  V30 4389 H 419.193 0.656394 -0.37103 0
M  V30 4390 H 421.844 1.14284 -1.43567 0
M  V30 4391 H 420.226 3.7621 -1.2362 0
M  V30 4392 H 421.4 2.5611 -3.83072 0
M  V30 4393 H 419.715 2.44416 -3.3712 0
M  V30 4394 H 422.312 4.91764 -2.09934 0
M  V30 4395 H 422.655 4.12199 -0.582894 0
M  V30 4396 H 423.188 3.37359 -2.10793 0
M  V30 4397 H 419.927 4.27931 -4.96543 0
M  V30 4398 H 419.447 4.94874 -3.3891 0
M  V30 4399 H 421.126 5.11728 -3.95909 0
M  V30 4400 N 421.258 1.00505 1.21394 0
M  V30 4401 C 422.486 0.706609 1.9446 0
M  V30 4402 C 422.901 -0.73081 1.74082 0
M  V30 4403 O 422.258 -1.49446 1.04747 0
M  V30 4404 C 422.309 1.01824 3.46863 0
M  V30 4405 O 422.03 2.39919 3.66566 0
M  V30 4406 C 423.531 0.739216 4.37093 0
M  V30 4407 H 420.751 0.260394 0.618414 0
M  V30 4408 H 423.295 1.34311 1.54211 0
M  V30 4409 H 421.45 0.427343 3.85036 0
M  V30 4410 H 421.864 2.50784 4.6066 0
M  V30 4411 H 423.338 1.00744 5.42729 0
M  V30 4412 H 423.815 -0.326746 4.37983 0
M  V30 4413 H 424.421 1.31173 4.04566 0
M  V30 4414 N 422.737 -1.36956 0.779787 0
M  V30 4415 C 423.985 -1.99097 0.347079 0
M  V30 4416 C 424.306 -1.62206 -1.08232 0
M  V30 4417 O 423.576 -0.891373 -1.74446 0
M  V30 4418 H 422.156 -0.736409 0.125342 0
M  V30 4419 H 424.818 -1.67308 0.999696 0
M  V30 4420 H 423.914 -3.09107 0.431162 0
M  V30 4421 N 424.215 -0.530993 -1.48385 0
M  V30 4422 C 425.125 0.23503 -2.3342 0
M  V30 4423 C 426.141 0.93801 -1.46552 0
M  V30 4424 O 427.317 0.912745 -1.7953 0
M  V30 4425 C 424.382 1.26778 -3.22689 0
M  V30 4426 C 423.443 0.575038 -4.25431 0
M  V30 4427 C 422.676 1.55858 -5.10435 0
M  V30 4428 O 422.899 2.79129 -4.97437 0
M  V30 4429 O 421.833 1.09742 -5.91811 0
M  V30 4430 H 425.659 -0.461794 -3.00169 0
M  V30 4431 H 423.244 -0.291903 -1.46521 0
M  V30 4432 H 425.126 1.86457 -3.77904 0
M  V30 4433 H 423.801 1.94699 -2.586 0
M  V30 4434 H 422.708 -0.0622782 -3.74048 0
M  V30 4435 H 424.041 -0.062253 -4.92161 0
M  V30 4436 N 425.693 1.55336 -0.266172 0
M  V30 4437 C 426.97 1.91372 0.404486 0
M  V30 4438 C 427.35 1.18935 1.74407 0
M  V30 4439 O 426.698 0.3132 2.26343 0
M  V30 4440 C 426.908 3.44581 0.553593 0
M  V30 4441 C 428.256 4.16196 0.840618 0
M  V30 4442 O 429.28 3.50426 0.638739 0
M  V30 4443 O 428.139 5.32567 1.22618 0
M  V30 4444 H 425.233 0.797194 0.220025 0
M  V30 4445 H 427.779 1.66813 -0.311664 0
M  V30 4446 H 426.551 3.89357 -0.389498 0
M  V30 4447 H 426.174 3.75065 1.31955 0
M  V30 4448 N 427.171 -0.0066808 1.57599 0
M  V30 4449 C 428.081 -1.01671 2.11424 0
M  V30 4450 C 429.097 -1.38143 1.05795 0
M  V30 4451 O 430.273 -1.47011 1.37658 0
M  V30 4452 C 427.338 -2.29192 2.60139 0
M  V30 4453 C 426.399 -1.99094 3.80342 0
M  V30 4454 C 425.632 -3.20535 4.26724 0
M  V30 4455 O 425.855 -4.3199 3.72479 0
M  V30 4456 O 424.789 -3.04924 5.18946 0
M  V30 4457 H 428.615 -0.589181 2.9793 0
M  V30 4458 H 426.2 -0.225091 1.47695 0
M  V30 4459 H 428.082 -3.0412 2.917 0
M  V30 4460 H 426.757 -2.71195 1.76733 0
M  V30 4461 H 425.664 -1.21663 3.53764 0
M  V30 4462 H 426.997 -1.61931 4.648 0
M  V30 4463 N 428.649 -1.55105 -0.279332 0
M  V30 4464 C 429.895 -1.75672 -1.01327 0
M  V30 4465 C 430.228 -0.552739 -1.86168 0
M  V30 4466 O 429.503 0.449827 -1.89227 0
M  V30 4467 C 429.786 -3.05825 -1.90114 0
M  V30 4468 C 429.639 -4.36565 -1.08309 0
M  V30 4469 C 430.958 -3.31975 -2.8893 0
M  V30 4470 H 428.077 -0.639149 -0.366957 0
M  V30 4471 H 430.719 -1.87833 -0.286154 0
M  V30 4472 H 428.869 -2.95588 -2.52111 0
M  V30 4473 H 430.541 -4.58751 -0.484314 0
M  V30 4474 H 428.784 -4.32076 -0.386362 0
M  V30 4475 H 429.455 -5.23946 -1.73737 0
M  V30 4476 H 431.931 -3.41963 -2.37067 0
M  V30 4477 H 430.807 -4.2432 -3.48201 0
M  V30 4478 H 431.068 -2.51309 -3.63725 0
M  V30 4479 N 430.127 0.543554 -1.4793 0
M  V30 4480 C 431.375 1.29752 -1.54948 0
M  V30 4481 C 431.696 1.93764 -0.219242 0
M  V30 4482 O 430.966 1.80639 0.75805 0
M  V30 4483 H 429.546 0.481874 -0.570795 0
M  V30 4484 H 432.208 0.633636 -1.84312 0
M  V30 4485 H 431.304 2.08392 -2.32334 0
M  V30 4486 N 431.605 1.3629 0.791371 0
M  V30 4487 C 432.845 1.31792 1.56238 0
M  V30 4488 C 433.209 -0.102237 1.91728 0
M  V30 4489 O 434.41 -0.271759 2.67423 0
M  V30 4490 C 432.681 2.21303 2.80642 0
M  V30 4491 S 434.24 2.34468 3.70904 0
M  V30 4492 H 431.058 0.468141 0.535131 0
M  V30 4493 H 433.66 1.71841 0.932246 0
M  V30 4494 H 432.364 3.23439 2.52617 0
M  V30 4495 H 431.895 1.82266 3.4863 0
M  V30 4496 H 433.91 1.54074 4.71673 0
M  V30 4497 N 433.083 -1.0153 1.20538 0
M  V30 4498 C 434.046 -2.0826 0.957098 0
M  V30 4499 C 435.046 -1.60657 -0.0678655 0
M  V30 4500 O 436.236 -1.73385 0.168332 0
M  V30 4501 C 433.368 -3.38033 0.441188 0
M  V30 4502 H 434.561 -2.31719 1.90384 0
M  V30 4503 H 432.114 -1.1835 1.02093 0
M  V30 4504 H 432.849 -3.20249 -0.510961 0
M  V30 4505 H 432.634 -3.73911 1.18038 0
M  V30 4506 H 434.124 -4.16613 0.287009 0
M  V30 4507 N 434.561 -1.01147 -1.20859 0
M  V30 4508 C 435.809 -0.696486 -1.89719 0
M  V30 4509 C 436.13 0.775788 -1.78904 0
M  V30 4510 O 435.4 1.55759 -1.18811 0
M  V30 4511 H 433.98 -0.254628 -0.702263 0
M  V30 4512 H 436.642 -1.28197 -1.46804 0
M  V30 4513 H 435.738 -0.975357 -2.96468 0
M  V30 4514 N 436.039 1.36541 -0.78704 0
M  V30 4515 C 437.286 1.99304 -0.358341 0
M  V30 4516 C 437.614 1.62467 1.06933 0
M  V30 4517 O 436.869 0.870019 1.75297 0
M  V30 4518 C 437.168 3.54343 -0.466485 0
M  V30 4519 C 436.834 4.10993 -1.85461 0
M  V30 4520 C 435.496 4.26177 -2.23443 0
M  V30 4521 C 437.848 4.41895 -2.76366 0
M  V30 4522 C 435.176 4.69573 -3.51736 0
M  V30 4523 C 437.528 4.86722 -4.04084 0
M  V30 4524 C 436.192 5.00112 -4.42091 0
M  V30 4525 H 435.462 0.729306 -0.131126 0
M  V30 4526 H 438.109 1.63068 -1.00404 0
M  V30 4527 H 436.414 3.90918 0.262719 0
M  V30 4528 H 438.111 4.00833 -0.115854 0
M  V30 4529 H 434.701 3.99612 -1.54946 0
M  V30 4530 H 438.885 4.29735 -2.48277 0
M  V30 4531 H 434.141 4.78127 -3.81057 0
M  V30 4532 H 438.315 5.09598 -4.7464 0
M  V30 4533 H 435.942 5.33498 -5.41557 0
M  V30 4534 N 437.518 0.538854 1.48102 0
M  V30 4535 C 438.481 -0.208395 2.28251 0
M  V30 4536 C 439.481 -0.859656 1.35892 0
M  V30 4537 O 440.671 -0.71834 1.58699 0
M  V30 4538 C 437.803 -1.30252 3.15035 0
M  V30 4539 H 438.996 0.495407 2.9578 0
M  V30 4540 H 436.549 0.295112 1.53489 0
M  V30 4541 H 437.284 -2.0393 2.52157 0
M  V30 4542 H 437.069 -0.840551 3.82985 0
M  V30 4543 H 438.559 -1.82787 3.75471 0
M  V30 4544 N 438.996 -1.55193 0.274407 0
M  V30 4545 C 440.221 -2.04446 -0.348824 0
M  V30 4546 C 440.646 -1.15149 -1.48735 0
M  V30 4547 O 440.004 -0.149952 -1.80679 0
M  V30 4548 C 440.052 -3.51431 -0.808009 0
M  V30 4549 O 439.156 -3.65225 -1.91531 0
M  V30 4550 H 438.497 -0.66006 -0.0722276 0
M  V30 4551 H 441.027 -2.00481 0.408498 0
M  V30 4552 H 441.037 -3.92781 -1.10395 0
M  V30 4553 H 439.712 -4.15892 0.0249865 0
M  V30 4554 H 438.289 -3.35778 -1.62196 0
M  V30 4555 N 440.474 -0.00167713 -1.576 0
M  V30 4556 C 441.72 0.683832 -1.90923 0
M  V30 4557 C 442.053 1.7333 -0.875799 0
M  V30 4558 O 441.328 1.94215 0.10525 0
M  V30 4559 C 441.611 1.32543 -3.3482 0
M  V30 4560 C 441.464 0.287387 -4.48881 0
M  V30 4561 C 442.783 2.25114 -3.78169 0
M  V30 4562 H 439.902 0.247125 -0.694333 0
M  V30 4563 H 442.544 -0.0533149 -1.89925 0
M  V30 4564 H 440.694 1.95372 -3.35801 0
M  V30 4565 H 442.366 -0.341346 -4.60035 0
M  V30 4566 H 440.609 -0.39017 -4.32042 0
M  V30 4567 H 441.28 0.775393 -5.46527 0
M  V30 4568 H 443.756 1.723 -3.7875 0
M  V30 4569 H 442.632 2.66971 -4.79602 0
M  V30 4570 H 442.893 3.13092 -3.12131 0
M  V30 4571 N 441.952 1.55251 0.271103 0
M  V30 4572 C 443.18 1.79974 1.02064 0
M  V30 4573 C 443.595 0.574003 1.79863 0
M  V30 4574 O 442.952 -0.456962 1.76686 0
M  V30 4575 C 443.003 3.02603 1.97772 0
M  V30 4576 O 442.724 4.20443 1.23124 0
M  V30 4577 C 444.225 3.39944 2.84522 0
M  V30 4578 H 441.445 0.599489 0.301419 0
M  V30 4579 H 443.989 2.02268 0.301313 0
M  V30 4580 H 442.144 2.8243 2.65165 0
M  V30 4581 H 442.558 4.89783 1.87651 0
M  V30 4582 H 444.032 4.28915 3.47471 0
M  V30 4583 H 444.509 2.59432 3.54389 0
M  V30 4584 H 445.115 3.62383 2.22618 0
M  V30 4585 N 443.43 -0.535701 1.48216 0
M  V30 4586 C 444.362 -1.65662 1.58394 0
M  V30 4587 C 445.375 -1.5591 0.468607 0
M  V30 4588 O 446.564 -1.62475 0.7392 0
M  V30 4589 C 443.664 -3.04276 1.4923 0
M  V30 4590 C 442.837 -3.39567 2.75705 0
M  V30 4591 C 441.896 -4.57436 2.60075 0
M  V30 4592 O 440.922 -4.60942 3.33948 0
M  V30 4593 N 442.124 -5.55259 1.69315 0
M  V30 4594 H 444.889 -1.5737 2.55058 0
M  V30 4595 H 442.45 -0.722845 1.44867 0
M  V30 4596 H 444.442 -3.80994 1.36477 0
M  V30 4597 H 443.012 -3.06677 0.605632 0
M  V30 4598 H 442.232 -2.52083 3.03064 0
M  V30 4599 H 443.52 -3.59929 3.59623 0
M  V30 4600 H 442.918 -5.552 1.08489 0
M  V30 4601 H 441.475 -6.31218 1.62504 0
M  V30 4602 N 444.908 -1.36708 -0.784132 0
M  V30 4603 C 445.818 -1.3363 -1.92822 0
M  V30 4604 C 446.834 -0.237686 -1.72369 0
M  V30 4605 O 448.01 -0.470962 -1.95816 0
M  V30 4606 C 445.075 -1.13011 -3.27764 0
M  V30 4607 C 444.136 -2.32397 -3.60957 0
M  V30 4608 C 443.369 -2.12752 -4.89461 0
M  V30 4609 O 443.592 -1.10541 -5.59586 0
M  V30 4610 O 442.526 -3.00653 -5.21432 0
M  V30 4611 H 446.352 -2.29964 -1.98369 0
M  V30 4612 H 443.937 -1.1731 -0.925136 0
M  V30 4613 H 445.819 -1.03451 -4.08504 0
M  V30 4614 H 444.494 -0.19743 -3.23097 0
M  V30 4615 H 443.401 -2.47527 -2.80502 0
M  V30 4616 H 444.734 -3.2419 -3.70354 0
M  V30 4617 N 446.386 1.0089 -1.21074 0
M  V30 4618 C 447.296 2.13039 -0.982425 0
M  V30 4619 C 448.312 1.73881 0.0642161 0
M  V30 4620 O 449.488 2.01012 -0.12496 0
M  V30 4621 C 446.553 3.42377 -0.545803 0
M  V30 4622 C 445.614 3.95731 -1.6642 0
M  V30 4623 C 444.847 5.18896 -1.24832 0
M  V30 4624 O 445.07 5.70273 -0.120265 0
M  V30 4625 O 444.004 5.65597 -2.05873 0
M  V30 4626 H 447.83 2.35175 -1.92163 0
M  V30 4627 H 445.415 1.1142 -0.995285 0
M  V30 4628 H 447.297 4.20244 -0.311912 0
M  V30 4629 H 445.972 3.21639 0.364727 0
M  V30 4630 H 444.879 3.19108 -1.95246 0
M  V30 4631 H 446.212 4.20872 -2.55201 0
M  V30 4632 N 447.864 1.01787 1.20321 0
M  V30 4633 C 449.092 0.727194 1.937 0
M  V30 4634 C 449.507 -0.712305 1.74848 0
M  V30 4635 O 448.864 -1.48327 1.06327 0
M  V30 4636 C 448.915 1.05497 3.45764 0
M  V30 4637 O 448.636 2.43794 3.64 0
M  V30 4638 C 450.137 0.785534 4.36285 0
M  V30 4639 H 447.357 0.266939 0.615617 0
M  V30 4640 H 449.901 1.35939 1.52777 0
M  V30 4641 H 448.056 0.468158 3.84561 0
M  V30 4642 H 448.47 2.55656 4.57974 0
M  V30 4643 H 449.944 1.06495 5.4163 0
M  V30 4644 H 450.421 -0.280273 4.38305 0
M  V30 4645 H 451.027 1.35456 4.03152 0
M  V30 4646 N 449.342 -1.36122 0.79427 0
M  V30 4647 C 450.252 -2.33769 0.197296 0
M  V30 4648 C 451.268 -1.61276 -0.653153 0
M  V30 4649 O 452.444 -1.9323 -0.5678 0
M  V30 4650 C 449.509 -3.40474 -0.654098 0
M  V30 4651 C 448.57 -4.28759 0.215411 0
M  V30 4652 C 447.803 -5.30368 -0.595443 0
M  V30 4653 O 448.026 -5.40211 -1.83107 0
M  V30 4654 O 446.96 -6.019 0.00721351 0
M  V30 4655 H 450.786 -2.86597 1.00478 0
M  V30 4656 H 448.371 -1.38676 0.555818 0
M  V30 4657 H 450.253 -4.05703 -1.13944 0
M  V30 4658 H 448.928 -2.89937 -1.43938 0
M  V30 4659 H 447.835 -3.66554 0.747615 0
M  V30 4660 H 449.168 -4.82661 0.964332 0
M  V30 4661 N 450.82 -0.546701 -1.47814 0
M  V30 4662 C 452.069 -0.0166497 -2.01693 0
M  V30 4663 C 452.382 1.33721 -1.42752 0
M  V30 4664 O 453.588 1.95658 -1.8823 0
M  V30 4665 C 452.044 0.0206769 -3.59894 0
M  V30 4666 C 451.652 -1.3293 -4.27824 0
M  V30 4667 C 453.396 0.498674 -4.21561 0
M  V30 4668 C 451.303 -1.25165 -5.78003 0
M  V30 4669 H 450.233 -0.0024541 -0.753996 0
M  V30 4670 H 452.884 -0.692984 -1.69912 0
M  V30 4671 H 451.266 0.76244 -3.88591 0
M  V30 4672 H 452.44 -2.08795 -4.10781 0
M  V30 4673 H 450.755 -1.74438 -3.78101 0
M  V30 4674 H 453.352 0.575 -5.31599 0
M  V30 4675 H 453.695 1.5083 -3.88016 0
M  V30 4676 H 454.228 -0.18791 -3.97356 0
M  V30 4677 H 450.967 -2.23695 -6.1615 0
M  V30 4678 H 450.487 -0.53464 -5.97412 0
M  V30 4679 H 452.166 -0.949299 -6.39998 0
M  V30 4680 N 452.299 1.55045 -0.282633 0
M  V30 4681 C 453.229 2.2579 0.595066 0
M  V30 4682 C 454.21 1.25074 1.15284 0
M  V30 4683 O 455.395 1.5381 1.18559 0
M  V30 4684 C 452.525 2.98472 1.77572 0
M  V30 4685 C 451.479 4.0618 1.34914 0
M  V30 4686 C 450.805 4.66477 2.6135 0
M  V30 4687 C 452.105 5.1996 0.493821 0
M  V30 4688 H 453.799 2.994 0.00505653 0
M  V30 4689 H 451.345 1.44 0.000992001 0
M  V30 4690 H 453.298 3.46677 2.39568 0
M  V30 4691 H 452.022 2.2241 2.39168 0
M  V30 4692 H 450.681 3.58797 0.752338 0
M  V30 4693 H 450.329 3.87074 3.2122 0
M  V30 4694 H 450.029 5.39207 2.33516 0
M  V30 4695 H 451.553 5.17435 3.24181 0
M  V30 4696 H 452.967 5.64172 1.01898 0
M  V30 4697 H 451.364 5.99299 0.310047 0
M  V30 4698 H 452.434 4.82462 -0.485593 0
M  V30 4699 N 453.777 0.010035 1.57597 0
M  V30 4700 C 455.005 -0.683413 1.95287 0
M  V30 4701 C 455.42 -1.66747 0.885481 0
M  V30 4702 O 454.777 -1.82003 -0.134629 0
M  V30 4703 C 454.828 -1.40652 3.33015 0
M  V30 4704 O 454.549 -0.461916 4.35658 0
M  V30 4705 C 456.05 -2.19356 3.85225 0
M  V30 4706 H 453.27 -0.189708 0.643624 0
M  V30 4707 H 455.814 0.0641359 2.04399 0
M  V30 4708 H 453.969 -2.10562 3.2518 0
M  V30 4709 H 454.383 -0.973215 5.15392 0
M  V30 4710 H 455.857 -2.65433 4.83993 0
M  V30 4711 H 456.334 -3.02457 3.18459 0
M  V30 4712 H 456.94 -1.54442 3.96267 0
M  V30 4713 N 455.255 -1.55392 -0.262866 0
M  V30 4714 C 456.218 -1.88181 -1.30846 0
M  V30 4715 C 457.218 -0.757079 -1.41862 0
M  V30 4716 O 458.408 -1.02519 -1.40838 0
M  V30 4717 C 455.54 -2.09609 -2.68844 0
M  V30 4718 H 456.733 -2.81659 -1.02997 0
M  V30 4719 H 454.286 -1.48039 -0.501414 0
M  V30 4720 H 455.021 -1.18547 -3.01856 0
M  V30 4721 H 454.806 -2.91508 -2.62231 0
M  V30 4722 H 456.296 -2.36215 -3.44372 0
M  V30 4723 N 456.733 0.527833 -1.48498 0
M  V30 4724 C 458.01 1.28905 -1.47115 0
M  V30 4725 C 458.39 2.10297 -0.184007 0
M  V30 4726 O 457.738 2.12728 0.834218 0
M  V30 4727 C 457.948 2.16866 -2.73441 0
M  V30 4728 C 459.296 2.76936 -3.21857 0
M  V30 4729 O 460.32 2.27152 -2.74373 0
M  V30 4730 O 459.179 3.67496 -4.04486 0
M  V30 4731 H 456.273 0.581918 -0.587623 0
M  V30 4732 H 458.819 0.544311 -1.60734 0
M  V30 4733 H 457.591 1.56521 -3.58632 0
M  V30 4734 H 457.214 2.98583 -2.62553 0
M  V30 4735 N 458.211 1.37122 0.776871 0
M  V30 4736 C 459.144 1.26835 1.89705 0
M  V30 4737 C 460.122 0.14992 1.61907 0
M  V30 4738 O 461.306 0.323242 1.85708 0
M  V30 4739 C 458.433 0.95986 3.24814 0
M  V30 4740 C 457.479 2.09447 3.7153 0
M  V30 4741 S 458.312 3.71368 3.85806 0
M  V30 4742 C 459.468 3.42659 5.23771 0
M  V30 4743 H 459.701 2.21647 1.98141 0
M  V30 4744 H 457.234 1.22685 0.937433 0
M  V30 4745 H 459.192 0.788696 4.02852 0
M  V30 4746 H 457.853 0.0293137 3.14086 0
M  V30 4747 H 457.046 1.8335 4.69467 0
M  V30 4748 H 456.648 2.2255 3.00578 0
M  V30 4749 H 458.94 2.9733 6.0877 0
M  V30 4750 H 459.883 4.39905 5.54878 0
M  V30 4751 H 460.291 2.77708 4.91466 0
M  V30 4752 N 459.689 -1.00246 1.21608 0
M  V30 4753 C 460.966 -1.71336 0.943568 0
M  V30 4754 C 461.346 -2.03972 -0.543943 0
M  V30 4755 O 460.694 -1.71545 -1.50946 0
M  V30 4756 C 460.904 -2.97094 1.83128 0
M  V30 4757 C 462.252 -3.70071 2.08165 0
M  V30 4758 O 463.276 -3.07081 1.80498 0
M  V30 4759 O 462.135 -4.83376 2.54971 0
M  V30 4760 H 459.229 -0.747386 0.354039 0
M  V30 4761 H 461.775 -1.05967 1.32549 0
M  V30 4762 H 460.547 -2.69407 2.83788 0
M  V30 4763 H 460.17 -3.70204 1.45034 0
M  V30 4764 N 461.167 -1.02423 -1.1978 0
M  V30 4765 C 462.13 -0.605703 -2.21052 0
M  V30 4766 C 463.13 0.328209 -1.57415 0
M  V30 4767 O 464.32 0.115853 -1.73814 0
M  V30 4768 C 461.452 0.114366 -3.40708 0
M  V30 4769 H 462.645 -1.5017 -2.59594 0
M  V30 4770 H 460.198 -0.814888 -1.33376 0
M  V30 4771 H 460.933 1.02492 -3.07678 0
M  V30 4772 H 460.718 -0.556641 -3.88129 0
M  V30 4773 H 462.208 0.394272 -4.15735 0
M  V30 4774 N 462.645 1.35699 -0.801477 0
M  V30 4775 C 463.555 2.33661 -0.209691 0
M  V30 4776 C 464.571 1.6162 0.644591 0
M  V30 4777 O 465.747 1.93529 0.557545 0
M  V30 4778 C 462.812 3.40816 0.636033 0
M  V30 4779 C 461.873 4.28639 -0.238147 0
M  V30 4780 C 461.106 5.30676 0.567307 0
M  V30 4781 O 461.329 5.41174 1.8024 0
M  V30 4782 O 460.263 6.01887 -0.0391336 0
M  V30 4783 H 464.089 2.8606 -1.01996 0
M  V30 4784 H 461.674 1.38379 -0.563164 0
M  V30 4785 H 463.556 4.06301 1.11791 0
M  V30 4786 H 462.231 2.90696 1.42399 0
M  V30 4787 H 461.138 3.66152 -0.767044 0
M  V30 4788 H 462.471 4.82143 -0.989915 0
M  V30 4789 N 464.123 0.554532 1.47522 0
M  V30 4790 C 465.539 0.214107 1.58157 0
M  V30 4791 C 465.739 -1.28331 1.55349 0
M  V30 4792 O 464.795 -2.06329 1.45549 0
M  V30 4793 C 466.108 0.838391 2.88776 0
M  V30 4794 C 467.656 0.809374 3.02354 0
M  V30 4795 C 468.131 1.41268 4.35669 0
M  V30 4796 N 469.622 1.37574 4.42298 0
M  V30 4797 C 470.357 1.8122 5.4401 0
M  V30 4798 N 469.853 2.3271 6.52547 0
M  V30 4799 N 471.646 1.72307 5.35039 0
M  V30 4800 H 463.797 1.52744 1.4759 0
M  V30 4801 H 466.06 0.636812 0.702264 0
M  V30 4802 H 465.766 1.89065 2.96559 0
M  V30 4803 H 465.64 0.329847 3.75755 0
M  V30 4804 H 468.027 -0.234187 2.94169 0
M  V30 4805 H 468.108 1.35565 2.16924 0
M  V30 4806 H 467.752 2.45529 4.4461 0
M  V30 4807 H 467.682 0.841871 5.19827 0
M  V30 4808 H 470.173 0.999081 3.64454 0
M  V30 4809 H 470.486 2.63944 7.26329 0
M  V30 4810 H 468.831 2.36719 6.53444 0
M  V30 4811 H 472.022 1.3186 4.49144 0
M  V30 4812 H 472.195 2.06641 6.14169 0
M  V30 4813 N 465.601 -1.54893 0.290851 0
M  V30 4814 C 467.017 -1.59476 -0.0628432 0
M  V30 4815 C 467.217 -1.30795 -1.5328 0
M  V30 4816 O 466.273 -1.07644 -2.28406 0
M  V30 4817 C 467.586 -2.98928 0.325962 0
M  V30 4818 C 469.134 -3.11799 0.273882 0
M  V30 4819 C 469.609 -4.53544 0.637359 0
M  V30 4820 N 471.1 -4.59433 0.589507 0
M  V30 4821 C 471.835 -5.67164 0.84335 0
M  V30 4822 N 471.331 -6.82975 1.16263 0
M  V30 4823 N 473.124 -5.56786 0.771091 0
M  V30 4824 H 465.275 -1.71798 1.24896 0
M  V30 4825 H 467.538 -0.801879 0.505663 0
M  V30 4826 H 467.244 -3.24805 1.34887 0
M  V30 4827 H 467.118 -3.75793 -0.325441 0
M  V30 4828 H 469.505 -2.85677 -0.739765 0
M  V30 4829 H 469.586 -2.37112 0.959766 0
M  V30 4830 H 469.23 -4.80394 1.64877 0
M  V30 4831 H 469.16 -5.26553 -0.0704866 0
M  V30 4832 H 471.651 -3.76245 0.353252 0
M  V30 4833 H 471.964 -7.61048 1.34257 0
M  V30 4834 H 470.309 -6.84552 1.20057 0
M  V30 4835 H 473.5 -4.65187 0.521383 0
M  V30 4836 H 473.673 -6.40664 0.972295 0
M  V30 4837 N 467.08 -0.0183926 -1.57589 0
M  V30 4838 C 468.496 0.337897 -1.55982 0
M  V30 4839 C 468.696 1.73604 -1.02294 0
M  V30 4840 O 467.752 2.43589 -0.664895 0
M  V30 4841 C 469.065 0.196305 -3.00059 0
M  V30 4842 C 470.613 0.269875 -3.11834 0
M  V30 4843 C 471.088 0.157197 -4.5773 0
M  V30 4844 N 472.579 0.214521 -4.62703 0
M  V30 4845 C 473.314 0.150955 -5.73201 0
M  V30 4846 N 472.81 0.0369212 -6.9279 0
M  V30 4847 N 474.603 0.204162 -5.61729 0
M  V30 4848 H 466.754 -0.93279 -1.90821 0
M  V30 4849 H 469.017 -0.359253 -0.877292 0
M  V30 4850 H 468.723 -0.766383 -3.43248 0
M  V30 4851 H 468.597 0.970908 -3.6449 0
M  V30 4852 H 470.984 1.22302 -2.68563 0
M  V30 4853 H 471.065 -0.534918 -2.50144 0
M  V30 4854 H 470.709 -0.792479 -5.01679 0
M  V30 4855 H 470.639 0.980717 -5.17387 0
M  V30 4856 H 473.13 0.303238 -3.76681 0
M  V30 4857 H 473.443 -0.00518321 -7.728 0
M  V30 4858 H 471.788 0.0022886 -6.95 0
M  V30 4859 H 474.979 0.291575 -4.67191 0
M  V30 4860 H 475.152 0.15116 -6.47824 0
M  V30 4861 N 468.558 1.5553 0.254621 0
M  V30 4862 C 469.807 1.76202 0.981612 0
M  V30 4863 C 470.12 0.580883 1.86776 0
M  V30 4864 O 471.326 0.670448 2.63092 0
M  V30 4865 C 469.782 3.11921 1.79537 0
M  V30 4866 C 469.39 4.37659 0.956991 0
M  V30 4867 C 471.134 3.41936 2.51555 0
M  V30 4868 C 469.041 5.64411 1.76619 0
M  V30 4869 H 467.971 0.656841 0.370237 0
M  V30 4870 H 470.622 1.81969 0.236556 0
M  V30 4871 H 469.004 3.00241 2.58208 0
M  V30 4872 H 470.178 4.60307 0.21315 0
M  V30 4873 H 468.493 4.14922 0.350497 0
M  V30 4874 H 471.09 4.33849 3.12536 0
M  V30 4875 H 471.433 2.62905 3.22779 0
M  V30 4876 H 471.966 3.54797 1.799 0
M  V30 4877 H 468.705 6.46241 1.09783 0
M  V30 4878 H 468.225 5.45877 2.48551 0
M  V30 4879 H 469.904 6.03386 2.33527 0
M  V30 4880 N 470.036 -0.519951 1.48776 0
M  V30 4881 C 470.983 -1.62352 1.64044 0
M  V30 4882 C 471.953 -1.58945 0.482251 0
M  V30 4883 O 473.138 -1.77219 0.706971 0
M  V30 4884 C 470.278 -3.00579 1.69547 0
M  V30 4885 C 469.391 -3.14145 2.96541 0
M  V30 4886 C 468.526 -4.42991 2.93142 0
M  V30 4887 C 467.565 -4.50122 4.14797 0
M  V30 4888 N 466.702 -5.7037 4.09418 0
M  V30 4889 H 471.542 -1.48643 2.58281 0
M  V30 4890 H 469.079 -0.723516 1.28077 0
M  V30 4891 H 471.037 -3.80671 1.70719 0
M  V30 4892 H 469.667 -3.13036 0.787918 0
M  V30 4893 H 468.719 -2.27239 3.05068 0
M  V30 4894 H 470.031 -3.15275 3.86527 0
M  V30 4895 H 469.185 -5.31385 2.92772 0
M  V30 4896 H 467.924 -4.44398 2.00902 0
M  V30 4897 H 466.929 -3.60133 4.15433 0
M  V30 4898 H 468.154 -4.50445 5.08208 0
M  V30 4899 H 466.1 -5.72655 3.20004 0
M  V30 4900 H 466.017 -5.73036 4.93119 0
M  V30 4901 H 467.285 -6.61023 4.13121 0
M  V30 4902 N 471.514 -1.37532 -0.769588 0
M  V30 4903 C 472.739 -1.36231 -1.56384 0
M  V30 4904 C 473.164 0.0495849 -1.88035 0
M  V30 4905 O 472.522 1.02723 -1.49391 0
M  V30 4906 C 472.57 -2.20986 -2.84952 0
M  V30 4907 O 471.674 -1.61597 -3.79421 0
M  V30 4908 H 471.015 -0.465387 -0.473615 0
M  V30 4909 H 473.545 -1.81085 -0.952342 0
M  V30 4910 H 473.555 -2.34277 -3.34034 0
M  V30 4911 H 472.23 -3.23612 -2.61243 0
M  V30 4912 H 470.807 -1.57359 -3.38072 0
M  V30 4913 N 472.992 0.995999 -1.22138 0
M  V30 4914 C 473.922 2.10387 -1.01289 0
M  V30 4915 C 474.903 1.69975 0.0651454 0
M  V30 4916 O 476.088 1.9396 -0.0964628 0
M  V30 4917 C 473.218 3.42312 -0.586517 0
M  V30 4918 C 472.172 3.96558 -1.61014 0
M  V30 4919 C 471.498 5.24494 -1.0397 0
M  V30 4920 C 472.798 4.27595 -2.99933 0
M  V30 4921 H 474.492 2.28086 -1.93951 0
M  V30 4922 H 472.038 1.09607 -0.933928 0
M  V30 4923 H 473.991 4.19223 -0.427793 0
M  V30 4924 H 472.715 3.24431 0.375761 0
M  V30 4925 H 471.374 3.21776 -1.75658 0
M  V30 4926 H 471.022 5.02953 -0.0688703 0
M  V30 4927 H 470.722 5.61755 -1.72352 0
M  V30 4928 H 472.246 6.04042 -0.892494 0
M  V30 4929 H 473.66 4.95315 -2.8868 0
M  V30 4930 H 472.057 4.76021 -3.6541 0
M  V30 4931 H 473.127 3.35498 -3.50099 0
M  V30 4932 N 474.47 1.03057 1.19235 0
M  V30 4933 C 475.4 0.633497 2.24742 0
M  V30 4934 C 476.381 -0.358335 1.66283 0
M  V30 4935 O 477.566 -0.240676 1.92703 0
M  V30 4936 C 474.696 -0.0147648 3.47297 0
M  V30 4937 C 473.65 0.899527 4.18441 0
M  V30 4938 C 472.976 0.116281 5.34574 0
M  V30 4939 C 474.276 2.21404 4.73051 0
M  V30 4940 H 475.97 1.5155 2.58211 0
M  V30 4941 H 473.516 0.73014 1.24117 0
M  V30 4942 H 475.469 -0.304202 4.20301 0
M  V30 4943 H 474.193 -0.931577 3.13032 0
M  V30 4944 H 472.852 1.17319 3.47321 0
M  V30 4945 H 472.5 -0.802619 4.96555 0
M  V30 4946 H 472.2 0.725293 5.83107 0
M  V30 4947 H 473.724 -0.166376 6.10373 0
M  V30 4948 H 475.138 1.98601 5.37802 0
M  V30 4949 H 473.535 2.77512 5.32078 0
M  V30 4950 H 474.605 2.86752 3.91026 0
M  V30 4951 N 475.948 -1.35272 0.808662 0
M  V30 4952 C 477.359 -1.81179 0.450688 0
M  V30 4953 C 477.71 -1.67143 -1.02751 0
M  V30 4954 O 476.835 -1.20325 -1.79864 0
M  V30 4955 C 477.43 -3.28943 0.811275 0
M  V30 4956 C 475.989 -3.72985 0.505871 0
M  V30 4957 C 475.136 -2.57229 1.03578 0
M  V30 4958 H 478.087 -1.2322 1.00012 0
M  V30 4959 H 478.108 -3.80342 0.109588 0
M  V30 4960 H 477.62 -3.39127 1.88718 0
M  V30 4961 H 475.721 -3.68349 -0.561209 0
M  V30 4962 H 475.834 -4.67677 1.03995 0
M  V30 4963 H 474.198 -2.50548 0.458005 0
M  V30 4964 H 474.981 -2.7019 2.11784 0
M  V30 4965 N 477.426 -0.562348 -1.47226 0
M  V30 4966 C 478.373 0.182461 -2.30078 0
M  V30 4967 C 479.343 0.903503 -1.39377 0
M  V30 4968 O 480.528 0.898188 -1.68337 0
M  V30 4969 C 477.668 1.20322 -3.23445 0
M  V30 4970 C 476.781 0.487717 -4.29238 0
M  V30 4971 C 475.916 1.49422 -5.09752 0
M  V30 4972 C 474.955 0.763976 -6.07314 0
M  V30 4973 N 474.092 1.71755 -6.80768 0
M  V30 4974 H 478.932 -0.530169 -2.93246 0
M  V30 4975 H 476.469 -0.273276 -1.44539 0
M  V30 4976 H 478.427 1.80768 -3.76004 0
M  V30 4977 H 477.057 1.88382 -2.6213 0
M  V30 4978 H 476.109 -0.231374 -3.79696 0
M  V30 4979 H 477.421 -0.0841003 -4.98729 0
M  V30 4980 H 476.575 2.17206 -5.66486 0
M  V30 4981 H 475.314 2.09995 -4.40174 0
M  V30 4982 H 474.319 0.0722344 -5.49753 0
M  V30 4983 H 475.544 0.16391 -6.78902 0
M  V30 4984 H 473.49 2.31177 -6.13916 0
M  V30 4985 H 473.407 1.19802 -7.46447 0
M  V30 4986 H 474.675 2.38638 -7.42073 0
M  V30 4987 N 478.904 1.54736 -0.299062 0
M  V30 4988 C 479.834 2.26409 0.571085 0
M  V30 4989 C 480.815 1.2629 1.13951 0
M  V30 4990 O 482 1.55059 1.16921 0
M  V30 4991 C 479.13 3.00338 1.74396 0
M  V30 4992 C 478.084 4.07588 1.30599 0
M  V30 4993 C 477.41 4.69222 2.56387 0
M  V30 4994 C 478.71 5.20455 0.438645 0
M  V30 4995 H 480.404 2.99388 -0.0266991 0
M  V30 4996 H 477.95 1.43993 -0.0142812 0
M  V30 4997 H 479.903 3.49198 2.35878 0
M  V30 4998 H 478.627 2.24934 2.36796 0
M  V30 4999 H 477.286 3.59575 0.71424 0
M  V30 5000 H 476.934 3.9046 3.17097 0
M  V30 5001 H 476.634 5.41653 2.27784 0
M  V30 5002 H 478.158 5.20844 3.18675 0
M  V30 5003 H 479.572 5.65221 0.959085 0
M  V30 5004 H 477.969 5.99594 0.246466 0
M  V30 5005 H 479.039 4.8192 -0.536738 0
M  V30 5006 N 480.382 0.0267497 1.57577 0
M  V30 5007 C 481.607 -0.666227 1.96408 0
M  V30 5008 C 482.032 -1.65004 0.903071 0
M  V30 5009 O 481.39 -1.80787 -0.136263 0
M  V30 5010 C 481.438 -1.35101 3.34335 0
M  V30 5011 O 480.542 -2.46623 3.30531 0
M  V30 5012 H 479.883 -0.175206 0.640468 0
M  V30 5013 H 482.413 0.0878977 2.04411 0
M  V30 5014 H 482.423 -1.70834 3.70513 0
M  V30 5015 H 481.098 -0.629844 4.11103 0
M  V30 5016 H 479.675 -2.13019 3.06068 0
M  V30 5017 N 481.861 -1.55662 -0.24637 0
M  V30 5018 C 483.101 -1.79283 -0.981685 0
M  V30 5019 C 483.465 -0.596356 -1.82504 0
M  V30 5020 O 484.666 -0.711342 -2.59217 0
M  V30 5021 C 482.937 -3.07648 -1.819 0
M  V30 5022 S 484.496 -3.52491 -2.61334 0
M  V30 5023 H 481.314 -0.629676 -0.330196 0
M  V30 5024 H 483.916 -1.93901 -0.249498 0
M  V30 5025 H 482.62 -3.92794 -1.18915 0
M  V30 5026 H 482.151 -2.95768 -2.59393 0
M  V30 5027 H 484.166 -3.13866 -3.84321 0
M  V30 5028 N 483.339 0.512053 -1.4905 0
M  V30 5029 C 484.587 1.26436 -1.57665 0
M  V30 5030 C 484.908 1.93255 -0.260293 0
M  V30 5031 O 484.178 1.82206 0.719564 0
M  V30 5032 H 482.758 0.469658 -0.580888 0
M  V30 5033 H 485.42 0.594398 -1.85615 0
M  V30 5034 H 484.516 2.03417 -2.36702 0
M  V30 5035 N 484.817 1.37938 0.762283 0
M  V30 5036 C 486.063 1.33866 1.52341 0
M  V30 5037 C 486.396 -0.0738961 1.94059 0
M  V30 5038 O 485.671 -1.03326 1.64785 0
M  V30 5039 C 485.954 2.28644 2.78197 0
M  V30 5040 C 485.807 3.78722 2.42672 0
M  V30 5041 C 487.126 2.21702 3.80179 0
M  V30 5042 H 484.245 0.487593 0.55265 0
M  V30 5043 H 486.887 1.68717 0.873767 0
M  V30 5044 H 485.037 1.99055 3.33631 0
M  V30 5045 H 486.709 4.18948 1.93081 0
M  V30 5046 H 484.952 3.96827 1.75244 0
M  V30 5047 H 485.623 4.40486 3.3268 0
M  V30 5048 H 488.099 2.47805 3.34263 0
M  V30 5049 H 486.975 2.90143 4.65949 0
M  V30 5050 H 487.236 1.21301 4.25133 0
M  V30 5051 N 486.295 -0.989507 1.22664 0
M  V30 5052 C 487.242 -2.08024 0.999733 0
M  V30 5053 C 488.212 -1.65909 -0.0797047 0
M  V30 5054 O 489.397 -1.90669 0.0705715 0
M  V30 5055 C 486.537 -3.40067 0.587234 0
M  V30 5056 C 485.65 -3.95505 1.73781 0
M  V30 5057 C 484.785 -5.15722 1.27297 0
M  V30 5058 C 483.824 -5.63305 2.39488 0
M  V30 5059 N 482.961 -6.74758 1.94026 0
M  V30 5060 H 487.801 -2.26768 1.9334 0
M  V30 5061 H 485.338 -1.11171 0.963297 0
M  V30 5062 H 487.296 -4.15899 0.329227 0
M  V30 5063 H 485.926 -3.21314 -0.309426 0
M  V30 5064 H 484.978 -3.16513 2.11006 0
M  V30 5065 H 486.29 -4.26797 2.58158 0
M  V30 5066 H 485.444 -5.98854 0.972546 0
M  V30 5067 H 484.183 -4.86061 0.399445 0
M  V30 5068 H 483.188 -4.78759 2.70315 0
M  V30 5069 H 484.413 -5.94988 3.27362 0
M  V30 5070 H 482.359 -6.46874 1.09041 0
M  V30 5071 H 482.276 -7.05386 2.71968 0
M  V30 5072 H 483.544 -7.61387 1.67062 0
M  V30 5073 N 487.773 -1.03688 -1.18687 0
M  V30 5074 C 488.721 -0.618292 -2.24232 0
M  V30 5075 C 489.715 0.353045 -1.6568 0
M  V30 5076 O 490.921 0.220749 -1.78641 0
M  V30 5077 H 487.296 -0.181711 -0.729716 0
M  V30 5078 H 489.267 -1.51893 -2.56848 0
M  V30 5079 C 488.016 0.00677342 -3.47699 0
M  V30 5080 H 487.339 -0.731692 -3.93047 0
M  V30 5081 H 488.779 0.262492 -4.23187 0
M  V30 5082 C 487.238 1.25572 -3.12623 0
M  V30 5083 O 487.768 2.34691 -3.26011 0
M  V30 5084 N 485.974 1.14755 -2.66982 0
M  V30 5085 H 485.521 0.259601 -2.56289 0
M  V30 5086 H 485.479 1.98412 -2.43885 0
M  V30 5087 N 489.251 1.34841 -0.815825 0
M  V30 5088 C 490.667 1.51543 -0.500697 0
M  V30 5089 C 490.867 1.76261 0.976444 0
M  V30 5090 O 489.923 1.8094 1.76117 0
M  V30 5091 C 491.236 2.68487 -1.35407 0
M  V30 5092 C 492.784 2.82368 -1.35046 0
M  V30 5093 C 493.259 4.02347 -2.18816 0
M  V30 5094 N 494.75 4.09542 -2.16402 0
M  V30 5095 C 495.485 5.01517 -2.77971 0
M  V30 5096 N 494.981 5.98763 -3.48503 0
M  V30 5097 N 496.774 4.94334 -2.67563 0
M  V30 5098 H 488.925 1.17055 -1.77234 0
M  V30 5099 H 491.188 0.573481 -0.754866 0
M  V30 5100 H 490.894 2.56829 -2.40274 0
M  V30 5101 H 490.768 3.63321 -1.01377 0
M  V30 5102 H 493.155 2.93471 -0.309604 0
M  V30 5103 H 493.236 1.88363 -1.73069 0
M  V30 5104 H 492.88 3.92004 -3.22948 0
M  V30 5105 H 492.81 4.95551 -1.78148 0
M  V30 5106 H 495.301 3.39932 -1.65091 0
M  V30 5107 H 495.614 6.6556 -3.92747 0
M  V30 5108 H 493.959 5.98909 -3.52609 0
M  V30 5109 H 497.15 4.1732 -2.12041 0
M  V30 5110 H 497.323 5.6582 -3.15834 0
M  V30 5111 N 490.729 0.570148 1.46925 0
M  V30 5112 C 491.662 -0.218362 2.27153 0
M  V30 5113 C 492.64 -0.90847 1.34854 0
M  V30 5114 O 493.824 -0.924875 1.64251 0
M  V30 5115 C 490.951 -1.3122 3.12248 0
M  V30 5116 C 489.997 -0.729277 4.20219 0
M  V30 5117 S 490.83 0.434159 5.33737 0
M  V30 5118 C 491.986 -0.661188 6.22398 0
M  V30 5119 H 492.219 0.462393 2.93682 0
M  V30 5120 H 489.752 0.356753 1.50222 0
M  V30 5121 H 491.71 -1.93856 3.61842 0
M  V30 5122 H 490.371 -1.96485 2.45056 0
M  V30 5123 H 489.564 -1.5511 4.79538 0
M  V30 5124 H 489.166 -0.178836 3.73572 0
M  V30 5125 H 491.458 -1.55006 6.5953 0
M  V30 5126 H 492.401 -0.105046 7.08022 0
M  V30 5127 H 492.809 -0.959682 5.56283 0
M  V30 5128 N 492.207 -1.54576 0.307264 0
M  V30 5129 C 493.157 -2.20467 -0.581249 0
M  V30 5130 C 494.141 -1.17972 -1.09414 0
M  V30 5131 O 495.333 -1.43667 -1.03387 0
M  V30 5132 C 492.462 -2.95369 -1.74963 0
M  V30 5133 C 491.548 -4.05186 -1.25241 0
M  V30 5134 N 491.939 -5.03577 -0.47364 0
M  V30 5135 C 490.237 -4.18841 -1.53259 0
M  V30 5136 C 490.938 -5.81328 -0.208083 0
M  V30 5137 N 489.914 -5.37834 -0.789651 0
M  V30 5138 H 493.716 -2.93892 0.0212221 0
M  V30 5139 H 491.23 -1.62011 0.112325 0
M  V30 5140 H 493.227 -3.41046 -2.39777 0
M  V30 5141 H 491.887 -2.23461 -2.35574 0
M  V30 5142 H 492.898 -5.17766 -0.117963 0
M  V30 5143 H 489.575 -3.58141 -2.14573 0
M  V30 5144 H 490.965 -6.706 0.417793 0
M  V30 5145 N 493.685 -0.035106 -1.57561 0
M  V30 5146 C 494.934 0.641604 -1.91223 0
M  V30 5147 C 495.247 1.72944 -0.913761 0
M  V30 5148 O 496.453 2.46321 -1.14185 0
M  V30 5149 C 494.909 1.19249 -3.3957 0
M  V30 5150 C 494.517 0.137616 -4.47789 0
M  V30 5151 C 496.261 1.84537 -3.82291 0
M  V30 5152 C 494.168 0.700478 -5.87237 0
M  V30 5153 H 493.098 0.243417 -0.713627 0
M  V30 5154 H 495.749 -0.101382 -1.8322 0
M  V30 5155 H 494.131 1.98728 -3.42525 0
M  V30 5156 H 495.305 -0.635153 -4.56402 0
M  V30 5157 H 493.62 -0.416855 -4.14308 0
M  V30 5158 H 496.217 2.27616 -4.83834 0
M  V30 5159 H 496.56 2.69054 -3.17672 0
M  V30 5160 H 497.093 1.11739 -3.81784 0
M  V30 5161 H 493.832 -0.106693 -6.55413 0
M  V30 5162 H 493.352 1.4416 -5.82218 0
M  V30 5163 H 495.031 1.18837 -6.35993 0
M  V30 5164 N 495.163 1.55791 0.238111 0
M  V30 5165 C 496.579 1.48411 0.587045 0
M  V30 5166 C 496.779 0.72702 1.87927 0
M  V30 5167 O 495.835 0.259942 2.51158 0
M  V30 5168 C 497.148 2.92873 0.681623 0
M  V30 5169 C 498.696 3.03295 0.773363 0
M  V30 5170 C 499.171 4.49082 0.899428 0
M  V30 5171 N 500.662 4.53056 0.964075 0
M  V30 5172 C 501.397 5.63117 1.08104 0
M  V30 5173 N 500.893 6.82969 1.16299 0
M  V30 5174 N 502.686 5.50933 1.11488 0
M  V30 5175 H 494.837 2.0345 -0.610076 0
M  V30 5176 H 497.1 0.924034 -0.211813 0
M  V30 5177 H 496.806 3.51142 -0.19802 0
M  V30 5178 H 496.68 3.43851 1.55069 0
M  V30 5179 H 499.067 2.45101 1.64346 0
M  V30 5180 H 499.148 2.55513 -0.121034 0
M  V30 5181 H 498.792 5.07889 0.0338586 0
M  V30 5182 H 498.722 4.94553 1.809 0
M  V30 5183 H 501.213 3.66737 0.91173 0
M  V30 5184 H 501.526 7.62598 1.25155 0
M  V30 5185 H 499.871 6.85712 1.13241 0
M  V30 5186 H 503.062 4.56231 1.0474 0
M  V30 5187 H 503.235 6.36743 1.20259 0
M  V30 5188 N 496.642 -0.504142 1.49319 0
M  V30 5189 C 498.058 -0.835039 1.36012 0
M  V30 5190 C 498.258 -1.97674 0.390808 0
M  V30 5191 O 497.314 -2.51867 -0.178655 0
M  V30 5192 C 498.627 -1.17821 2.76656 0
M  V30 5193 C 500.175 -1.2866 2.85334 0
M  V30 5194 C 500.65 -1.66307 4.26739 0
M  V30 5195 N 502.141 -1.73362 4.29534 0
M  V30 5196 C 502.876 -2.0393 5.35911 0
M  V30 5197 N 502.372 -2.32744 6.52535 0
M  V30 5198 N 504.165 -2.05155 5.23324 0
M  V30 5199 H 496.316 0.248764 2.10938 0
M  V30 5200 H 498.579 0.0486962 0.946748 0
M  V30 5201 H 498.285 -0.412682 3.4927 0
M  V30 5202 H 498.159 -2.12239 3.11825 0
M  V30 5203 H 500.546 -2.04285 2.1296 0
M  V30 5204 H 500.627 -0.323004 2.53752 0
M  V30 5205 H 500.271 -0.91234 4.99639 0
M  V30 5206 H 500.201 -2.63761 4.55782 0
M  V30 5207 H 502.692 -1.53268 3.45424 0
M  V30 5208 H 503.005 -2.55248 7.2943 0
M  V30 5209 H 501.35 -2.30207 6.55767 0
M  V30 5210 H 504.541 -1.82119 4.3122 0
M  V30 5211 H 504.714 -2.28644 6.06322 0
M  V30 5212 N 498.12 -1.38341 -0.754957 0
M  V30 5213 C 499.067 -1.3546 -1.86867 0
M  V30 5214 C 500.037 -0.217369 -1.64672 0
M  V30 5215 O 501.222 -0.409383 -1.86356 0
M  V30 5216 C 498.362 -1.18413 -3.24149 0
M  V30 5217 C 497.475 -2.41511 -3.58185 0
M  V30 5218 C 496.61 -2.17205 -4.84763 0
M  V30 5219 C 495.649 -3.36081 -5.11582 0
M  V30 5220 N 494.786 -3.11219 -6.29354 0
M  V30 5221 H 499.626 -2.30672 -1.88664 0
M  V30 5222 H 497.163 -1.14607 -0.922154 0
M  V30 5223 H 499.121 -1.06545 -4.03366 0
M  V30 5224 H 497.751 -0.268397 -3.21682 0
M  V30 5225 H 496.803 -2.64056 -2.73822 0
M  V30 5226 H 498.115 -3.30115 -3.73932 0
M  V30 5227 H 497.269 -2.02465 -5.7192 0
M  V30 5228 H 496.008 -1.25964 -4.71152 0
M  V30 5229 H 495.013 -3.51341 -4.22894 0
M  V30 5230 H 496.238 -4.28196 -5.27091 0
M  V30 5231 H 494.184 -2.22624 -6.17069 0
M  V30 5232 H 494.101 -3.93373 -6.45596 0
M  V30 5233 H 495.369 -3.00132 -7.19403 0
M  V30 5234 N 499.598 0.982988 -1.23187 0
M  V30 5235 C 501.014 1.2487 -0.993967 0
M  V30 5236 C 501.214 1.99155 0.306498 0
M  V30 5237 O 500.27 2.30688 1.0266 0
M  V30 5238 C 501.583 2.05078 -2.19917 0
M  V30 5239 C 503.131 2.18227 -2.2438 0
M  V30 5240 C 503.606 3.01825 -3.44479 0
M  V30 5241 N 505.097 3.09411 -3.44702 0
M  V30 5242 C 505.832 3.74412 -4.34285 0
M  V30 5243 N 505.328 4.41259 -5.341 0
M  V30 5244 N 507.121 3.71273 -4.22035 0
M  V30 5245 H 499.272 0.485253 -2.06783 0
M  V30 5246 H 501.535 0.276979 -0.906635 0
M  V30 5247 H 501.241 1.57867 -3.14279 0
M  V30 5248 H 501.115 3.05829 -2.2079 0
M  V30 5249 H 503.502 2.64648 -1.30559 0
M  V30 5250 H 503.583 1.16873 -2.2754 0
M  V30 5251 H 503.227 2.56102 -4.38605 0
M  V30 5252 H 503.157 4.03342 -3.38559 0
M  V30 5253 H 505.648 2.61845 -2.7248 0
M  V30 5254 H 505.961 4.88629 -5.98717 0
M  V30 5255 H 504.306 4.39975 -5.38002 0
M  V30 5256 H 507.497 3.18217 -3.43301 0
M  V30 5257 H 507.67 4.21649 -4.92053 0
M  V30 5258 N 501.076 1.04316 1.18135 0
M  V30 5259 C 502.325 0.74319 1.87509 0
M  V30 5260 C 502.638 -0.732136 1.81381 0
M  V30 5261 O 503.844 -1.14572 2.46141 0
M  V30 5262 C 502.3 1.27913 3.36402 0
M  V30 5263 C 501.908 2.78326 3.51053 0
M  V30 5264 C 503.652 1.0558 4.11161 0
M  V30 5265 C 501.559 3.25266 4.93919 0
M  V30 5266 H 500.489 0.274313 0.702331 0
M  V30 5267 H 503.14 1.25931 1.33467 0
M  V30 5268 H 501.522 0.690853 3.89927 0
M  V30 5269 H 502.696 3.42933 3.07788 0
M  V30 5270 H 501.011 2.991 2.89704 0
M  V30 5271 H 503.608 1.38161 5.16542 0
M  V30 5272 H 503.951 -0.00684729 4.16299 0
M  V30 5273 H 504.484 1.60882 3.63816 0
M  V30 5274 H 501.223 4.30922 4.9395 0
M  V30 5275 H 500.743 2.65396 5.3789 0
M  V30 5276 H 502.422 3.19433 5.62647 0
M  V30 5277 N 502.554 -1.34406 0.822964 0
M  V30 5278 C 503.8 -1.98578 0.411666 0
M  V30 5279 C 504.133 -1.65093 -1.02264 0
M  V30 5280 O 503.408 -0.92258 -1.71227 0
M  V30 5281 C 503.691 -3.54823 0.614235 0
M  V30 5282 C 503.544 -3.9805 2.09466 0
M  V30 5283 C 504.863 -4.40071 0.050221 0
M  V30 5284 H 501.982 -0.721355 0.151047 0
M  V30 5285 H 504.624 -1.59301 1.03554 0
M  V30 5286 H 502.774 -3.88411 0.0831774 0
M  V30 5287 H 504.446 -3.74795 2.68936 0
M  V30 5288 H 502.689 -3.4836 2.5851 0
M  V30 5289 H 503.36 -5.06819 2.18721 0
M  V30 5290 H 505.836 -4.13037 0.503953 0
M  V30 5291 H 504.712 -5.48452 0.221759 0
M  V30 5292 H 504.973 -4.29576 -1.04482 0
M  V30 5293 N 504.032 -0.577932 -1.46621 0
M  V30 5294 C 505.28 -0.061566 -2.02006 0
M  V30 5295 C 505.601 1.30117 -1.4524 0
M  V30 5296 O 504.871 1.85313 -0.63529 0
M  V30 5297 H 503.451 -0.0197692 -0.746738 0
M  V30 5298 H 506.113 -0.752631 -1.79782 0
M  V30 5299 H 505.209 0.0110238 -3.12098 0
M  V30 5300 N 505.51 1.54411 -0.315457 0
M  V30 5301 C 506.758 2.00023 0.288971 0
M  V30 5302 C 507.079 1.20529 1.5329 0
M  V30 5303 O 506.349 0.304986 1.93511 0
M  V30 5304 H 504.929 0.738891 0.109766 0
M  V30 5305 H 507.591 1.90094 -0.430129 0
M  V30 5306 H 506.687 3.07198 0.550999 0
M  V30 5307 N 506.988 0.0434614 1.5754 0
M  V30 5308 C 507.935 -0.93356 2.11077 0
M  V30 5309 C 508.905 -1.31383 1.01626 0
M  V30 5310 O 510.09 -1.40465 1.29129 0
M  V30 5311 C 507.23 -2.20578 2.65404 0
M  V30 5312 C 506.343 -1.88068 3.88914 0
M  V30 5313 C 505.478 -3.09691 4.31584 0
M  V30 5314 C 504.517 -2.73067 5.47815 0
M  V30 5315 N 503.654 -3.87359 5.85574 0
M  V30 5316 H 508.494 -0.470118 2.94268 0
M  V30 5317 H 506.031 -0.220434 1.45439 0
M  V30 5318 H 507.989 -2.95011 2.94999 0
M  V30 5319 H 506.619 -2.64513 1.85021 0
M  V30 5320 H 505.671 -1.03816 3.6596 0
M  V30 5321 H 506.983 -1.57104 4.73413 0
M  V30 5322 H 506.137 -3.92431 4.62691 0
M  V30 5323 H 504.876 -3.43827 3.45882 0
M  V30 5324 H 503.881 -1.88742 5.16388 0
M  V30 5325 H 505.106 -2.40131 6.35227 0
M  V30 5326 H 503.052 -4.21311 5.02825 0
M  V30 5327 H 502.969 -3.60068 6.64746 0
M  V30 5328 H 504.237 -4.70761 6.21292 0
M  V30 5329 N 508.466 -1.55915 -0.229846 0
M  V30 5330 C 509.882 -1.48721 -0.579166 0
M  V30 5331 C 510.082 -0.736976 -1.87539 0
M  V30 5332 O 509.138 -0.273258 -2.51017 0
M  V30 5333 C 510.451 -2.9323 -0.666082 0
M  V30 5334 C 511.999 -3.03701 -0.757267 0
M  V30 5335 C 512.474 -4.49552 -0.8756 0
M  V30 5336 N 513.965 -4.53561 -0.940035 0
M  V30 5337 C 514.7 -5.63683 -1.05116 0
M  V30 5338 N 514.196 -6.83576 -1.12675 0
M  V30 5339 N 515.989 -5.51516 -1.08565 0
M  V30 5340 H 508.14 -2.03123 0.620857 0
M  V30 5341 H 510.403 -0.922898 0.21671 0
M  V30 5342 H 510.109 -3.51032 0.21664 0
M  V30 5343 H 509.983 -3.44668 -1.53243 0
M  V30 5344 H 512.37 -2.45969 -1.63043 0
M  V30 5345 H 512.451 -2.55446 0.134583 0
M  V30 5346 H 512.095 -5.079 -0.00692351 0
M  V30 5347 H 512.025 -4.95506 -1.78274 0
M  V30 5348 H 514.516 -3.67215 -0.892269 0
M  V30 5349 H 514.829 -7.63251 -1.21109 0
M  V30 5350 H 513.174 -6.86303 -1.09603 0
M  V30 5351 H 516.365 -4.5678 -1.02319 0
M  V30 5352 H 516.538 -6.37372 -1.1688 0
M  V30 5353 N 509.944 0.496216 -1.49584 0
M  V30 5354 C 510.907 1.57952 -1.66084 0
M  V30 5355 C 511.907 1.51729 -0.53244 0
M  V30 5356 O 513.097 1.54796 -0.79899 0
M  V30 5357 C 510.229 2.97604 -1.66268 0
M  V30 5358 H 511.422 1.44649 -2.6271 0
M  V30 5359 H 508.975 0.7208 -1.38687 0
M  V30 5360 H 509.71 3.16378 -0.712432 0
M  V30 5361 H 509.495 3.03528 -2.4822 0
M  V30 5362 H 510.985 3.76301 -1.81073 0
M  V30 5363 N 511.423 1.38739 0.74761 0
M  V30 5364 C 512.355 1.32341 1.87132 0
M  V30 5365 C 513.368 0.234502 1.61102 0
M  V30 5366 O 514.557 0.492516 1.71571 0
M  V30 5367 C 511.657 1.02915 3.22896 0
M  V30 5368 C 510.83 2.22834 3.76383 0
M  V30 5369 C 509.889 1.90059 4.90677 0
M  V30 5370 O 508.915 2.62615 5.04997 0
M  V30 5371 N 510.117 0.859141 5.74107 0
M  V30 5372 H 512.882 2.29175 1.93129 0
M  V30 5373 H 510.443 1.32678 0.927805 0
M  V30 5374 H 512.435 0.79031 3.96908 0
M  V30 5375 H 511.005 0.148572 3.12247 0
M  V30 5376 H 510.225 2.62747 2.93867 0
M  V30 5377 H 511.513 3.02851 4.08851 0
M  V30 5378 H 510.911 0.257564 5.65113 0
M  V30 5379 H 509.468 0.680189 6.48241 0
M  V30 5380 N 512.901 -0.976442 1.23707 0
M  V30 5381 C 513.831 -2.08749 1.04624 0
M  V30 5382 C 514.812 -1.70057 -0.0380956 0
M  V30 5383 O 515.997 -1.93782 0.127308 0
M  V30 5384 C 513.127 -3.41335 0.640902 0
M  V30 5385 C 512.081 -3.93947 1.67302 0
M  V30 5386 C 511.407 -5.22774 1.12301 0
M  V30 5387 C 512.707 -4.22769 3.06697 0
M  V30 5388 H 514.401 -2.24972 1.97555 0
M  V30 5389 H 511.947 -1.08108 0.951247 0
M  V30 5390 H 513.9 -4.18489 0.494434 0
M  V30 5391 H 512.624 -3.24988 -0.324099 0
M  V30 5392 H 511.283 -3.18941 1.80755 0
M  V30 5393 H 510.931 -5.0278 0.148877 0
M  V30 5394 H 510.631 -5.58942 1.81267 0
M  V30 5395 H 512.155 -6.02546 0.988479 0
M  V30 5396 H 513.569 -4.90659 2.96524 0
M  V30 5397 H 511.966 -4.70147 3.72937 0
M  V30 5398 H 513.036 -3.29885 3.55392 0
M  V30 5399 N 514.379 -1.04941 -1.1758 0
M  V30 5400 C 515.627 -0.756492 -1.87408 0
M  V30 5401 C 515.948 0.718478 -1.81281 0
M  V30 5402 O 515.218 1.519 -1.23706 0
M  V30 5403 H 513.798 -0.276841 -0.693807 0
M  V30 5404 H 516.46 -1.32803 -1.42652 0
M  V30 5405 H 515.556 -1.06918 -2.93215 0
M  V30 5406 N 515.857 1.33968 -0.830081 0
M  V30 5407 C 517.134 1.92554 -0.343858 0
M  V30 5408 C 517.514 1.7573 1.16971 0
M  V30 5409 O 516.862 1.14035 1.98011 0
M  V30 5410 C 517.072 3.40147 -0.781073 0
M  V30 5411 C 518.42 4.17299 -0.78402 0
M  V30 5412 O 519.444 3.48762 -0.724112 0
M  V30 5413 O 518.303 5.39631 -0.863739 0
M  V30 5414 H 515.397 0.821469 -0.0954827 0
M  V30 5415 H 517.943 1.42897 -0.915348 0
M  V30 5416 H 516.715 3.46225 -1.82329 0
M  V30 5417 H 516.338 3.97166 -0.18567 0
M  V30 5418 N 517.335 0.585699 1.46312 0
M  V30 5419 C 518.265 -0.133556 2.33118 0
M  V30 5420 C 519.246 -0.880707 1.45525 0
M  V30 5421 O 520.431 -0.855579 1.74337 0
M  V30 5422 C 517.561 -1.14585 3.27853 0
M  V30 5423 C 516.515 -0.513341 4.2491 0
M  V30 5424 C 515.841 -1.63231 5.09175 0
M  V30 5425 C 517.141 0.551413 5.19381 0
M  V30 5426 H 518.835 0.59121 2.93505 0
M  V30 5427 H 516.381 0.285761 1.41136 0
M  V30 5428 H 518.334 -1.65741 3.87438 0
M  V30 5429 H 517.058 -1.90093 2.65579 0
M  V30 5430 H 515.717 -0.0228349 3.66593 0
M  V30 5431 H 515.365 -2.37713 4.43285 0
M  V30 5432 H 515.065 -1.21473 5.74907 0
M  V30 5433 H 516.589 -2.14658 5.71624 0
M  V30 5434 H 518.003 0.124804 5.73164 0
M  V30 5435 H 516.4 0.889486 5.93471 0
M  V30 5436 H 517.47 1.43655 4.63132 0
M  V30 5437 N 518.813 -1.54241 0.323641 0
M  V30 5438 C 520.224 -1.85975 -0.164405 0
M  V30 5439 C 520.575 -1.24529 -1.51615 0
M  V30 5440 O 519.7 -0.551351 -2.09258 0
M  V30 5441 C 520.295 -3.37424 -0.305091 0
M  V30 5442 C 518.854 -3.69107 -0.737358 0
M  V30 5443 C 518.001 -2.76942 0.140884 0
M  V30 5444 H 520.952 -1.49088 0.543922 0
M  V30 5445 H 520.973 -3.63147 -1.13598 0
M  V30 5446 H 520.485 -3.82116 0.678876 0
M  V30 5447 H 518.586 -3.29947 -1.73107 0
M  V30 5448 H 518.699 -4.76035 -0.541053 0
M  V30 5449 H 517.063 -2.51795 -0.383572 0
M  V30 5450 H 517.846 -3.24461 1.12162 0
M  V30 5451 N 520.291 -0.0518155 -1.57515 0
M  V30 5452 C 521.537 0.616839 -1.93821 0
M  V30 5453 C 521.892 1.68413 -0.930307 0
M  V30 5454 O 521.185 1.91534 0.0504231 0
M  V30 5455 C 521.379 1.25607 -3.34601 0
M  V30 5456 C 521.208 0.252222 -4.48992 0
M  V30 5457 C 519.978 -0.156031 -5.05059 0
M  V30 5458 C 522.176 -0.502613 -5.11838 0
M  V30 5459 N 520.158 -1.15267 -6.02981 0
M  V30 5460 C 521.529 -1.35232 -6.05072 0
M  V30 5461 C 523.584 -0.560855 -4.94731 0
M  V30 5462 C 522.287 -2.25505 -6.83037 0
M  V30 5463 C 524.313 -1.45102 -5.73323 0
M  V30 5464 C 523.675 -2.28845 -6.6619 0
M  V30 5465 H 519.774 0.197344 -0.75669 0
M  V30 5466 H 522.358 -0.124297 -1.94303 0
M  V30 5467 H 520.529 1.96723 -3.34895 0
M  V30 5468 H 522.261 1.88358 -3.58195 0
M  V30 5469 H 519.016 0.22306 -4.73074 0
M  V30 5470 H 519.44 -1.64791 -6.56638 0
M  V30 5471 H 524.082 0.0723639 -4.22738 0
M  V30 5472 H 521.8 -2.89872 -7.54321 0
M  V30 5473 H 525.386 -1.50066 -5.62113 0
M  V30 5474 H 524.266 -2.96608 -7.25943 0
M  V30 5475 N 521.769 1.56035 0.221574 0
M  V30 5476 C 522.701 1.889 1.29805 0
M  V30 5477 C 523.714 0.777269 1.43047 0
M  V30 5478 O 524.903 1.05557 1.43945 0
M  V30 5479 C 522.003 2.0825 2.67367 0
M  V30 5480 C 521.176 3.39267 2.76073 0
M  V30 5481 C 520.235 3.48049 3.94649 0
M  V30 5482 O 519.261 4.2108 3.82988 0
M  V30 5483 N 520.463 2.79191 5.08953 0
M  V30 5484 H 523.228 2.81831 1.01938 0
M  V30 5485 H 520.789 1.5658 0.411612 0
M  V30 5486 H 522.781 2.11441 3.45072 0
M  V30 5487 H 521.351 1.21944 2.87834 0
M  V30 5488 H 520.571 3.48175 1.84846 0
M  V30 5489 H 521.859 4.25575 2.7886 0
M  V30 5490 H 521.257 2.19635 5.21322 0
M  V30 5491 H 519.814 2.88043 5.84701 0
M  V30 5492 N 523.247 -0.488276 1.49845 0
M  V30 5493 C 524.493 -1.24341 1.6021 0
M  V30 5494 C 524.826 -1.91967 0.293651 0
M  V30 5495 O 524.101 -1.81323 -0.703718 0
M  V30 5496 C 524.384 -2.3005 2.77036 0
M  V30 5497 C 524.237 -1.66842 4.17713 0
M  V30 5498 C 525.556 -3.31509 2.89464 0
M  V30 5499 H 522.675 -0.450704 0.583125 0
M  V30 5500 H 525.317 -0.539673 1.82174 0
M  V30 5501 H 523.467 -2.90071 2.58439 0
M  V30 5502 H 525.139 -1.1055 4.47858 0
M  V30 5503 H 523.382 -0.972079 4.22768 0
M  V30 5504 H 524.053 -2.43576 4.95353 0
M  V30 5505 H 526.529 -2.81493 3.06433 0
M  V30 5506 H 525.405 -4.02822 3.72861 0
M  V30 5507 H 525.666 -3.94603 1.99351 0
M  V30 5508 N 524.725 -1.39134 -0.740242 0
M  V30 5509 C 525.688 -1.37217 -1.83587 0
M  V30 5510 C 526.688 -0.270221 -1.58513 0
M  V30 5511 O 527.878 -0.527843 -1.6601 0
M  V30 5512 C 525.01 -1.13959 -3.21288 0
M  V30 5513 H 526.203 -2.34705 -1.86691 0
M  V30 5514 H 523.756 -1.24622 -0.94335 0
M  V30 5515 H 524.491 -0.17131 -3.23847 0
M  V30 5516 H 524.276 -1.93754 -3.40884 0
M  V30 5517 H 525.766 -1.15346 -4.01354 0
M  V30 5518 N 526.204 0.969867 -1.24223 0
M  V30 5519 C 527.453 1.70687 -1.07466 0
M  V30 5520 C 527.766 1.91736 0.386861 0
M  V30 5521 O 528.972 2.62986 0.674581 0
M  V30 5522 C 527.428 3.07217 -1.87472 0
M  V30 5523 C 527.036 2.94018 -3.3802 0
M  V30 5524 C 528.78 3.84804 -1.79237 0
M  V30 5525 C 526.687 4.25844 -4.10379 0
M  V30 5526 H 525.617 0.640067 -0.398536 0
M  V30 5527 H 528.268 1.08092 -1.48285 0
M  V30 5528 H 526.65 3.70628 -1.39466 0
M  V30 5529 H 527.824 2.39632 -3.9359 0
M  V30 5530 H 526.139 2.29898 -3.47183 0
M  V30 5531 H 528.736 4.82417 -2.30603 0
M  V30 5532 H 529.079 4.09356 -0.757197 0
M  V30 5533 H 529.612 3.28115 -2.24912 0
M  V30 5534 H 526.351 4.06486 -5.14246 0
M  V30 5535 H 525.871 4.80054 -3.59594 0
M  V30 5536 H 527.55 4.94475 -4.17257 0
M  V30 5537 N 527.682 1.05563 1.17022 0
M  V30 5538 C 528.629 0.659893 2.21165 0
M  V30 5539 C 529.599 -0.339813 1.62587 0
M  V30 5540 O 530.784 -0.230378 1.89404 0
M  V30 5541 C 527.924 0.0447297 3.45071 0
M  V30 5542 C 527.037 1.09372 4.17926 0
M  V30 5543 C 526.172 0.445481 5.29329 0
M  V30 5544 C 525.211 1.47852 5.93975 0
M  V30 5545 N 524.348 0.854172 6.96885 0
M  V30 5546 H 529.188 1.55243 2.54369 0
M  V30 5547 H 526.725 0.776336 1.24946 0
M  V30 5548 H 528.683 -0.329404 4.15898 0
M  V30 5549 H 527.313 -0.811244 3.1244 0
M  V30 5550 H 526.365 1.58564 3.45777 0
M  V30 5551 H 527.677 1.87773 4.62107 0
M  V30 5552 H 526.831 0.0179688 6.06697 0
M  V30 5553 H 525.57 -0.370481 4.86291 0
M  V30 5554 H 524.575 1.91601 5.15334 0
M  V30 5555 H 525.8 2.29645 6.39093 0
M  V30 5556 H 523.746 0.0587882 6.55974 0
M  V30 5557 H 523.663 1.57567 7.39397 0
M  V30 5558 H 524.931 0.451559 7.78191 0
M  V30 5559 N 529.16 -1.33526 0.837174 0
M  V30 5560 C 530.437 -1.92369 0.354065 0
M  V30 5561 C 530.817 -1.76348 -1.16038 0
M  V30 5562 O 530.165 -1.15083 -1.97403 0
M  V30 5563 C 530.375 -3.39728 0.799101 0
M  V30 5564 C 531.723 -4.16877 0.806139 0
M  V30 5565 O 532.747 -3.48373 0.742597 0
M  V30 5566 O 531.606 -5.39166 0.892345 0
M  V30 5567 H 528.7 -0.820952 0.0998378 0
M  V30 5568 H 531.246 -1.42409 0.922913 0
M  V30 5569 H 530.018 -3.45254 1.84162 0
M  V30 5570 H 529.641 -3.97062 0.206731 0
M  V30 5571 N 530.638 -0.59345 -1.46 0
M  V30 5572 C 531.601 0.123538 -2.28867 0
M  V30 5573 C 532.601 0.808628 -1.38989 0
M  V30 5574 O 533.791 0.658945 -1.61256 0
M  V30 5575 C 530.923 1.1847 -3.19653 0
M  V30 5576 H 532.116 -0.604843 -2.93737 0
M  V30 5577 H 529.669 -0.351875 -1.52288 0
M  V30 5578 H 530.404 1.94431 -2.59552 0
M  V30 5579 H 530.189 0.69783 -3.8584 0
M  V30 5580 H 531.679 1.68726 -3.81997 0
M  V30 5581 N 532.116 1.54067 -0.331816 0
M  V30 5582 C 533.341 2.05599 0.272705 0
M  V30 5583 C 533.766 1.2059 1.44359 0
M  V30 5584 O 533.124 0.216907 1.79998 0
M  V30 5585 C 533.172 3.54188 0.677021 0
M  V30 5586 O 532.276 3.72082 1.77844 0
M  V30 5587 H 531.617 0.662286 0.0476801 0
M  V30 5588 H 534.147 1.98826 -0.482624 0
M  V30 5589 H 534.157 3.96608 0.957415 0
M  V30 5590 H 532.832 4.15513 -0.179325 0
M  V30 5591 H 531.409 3.41566 1.49622 0
M  V30 5592 N 533.594 0.0601682 1.57485 0
M  V30 5593 C 534.842 -0.610386 1.92662 0
M  V30 5594 C 535.163 -1.70849 0.939981 0
M  V30 5595 O 534.433 -1.95895 -0.0137455 0
M  V30 5596 H 533.013 -0.228457 0.711208 0
M  V30 5597 H 535.675 0.115288 1.94559 0
M  V30 5598 H 534.771 -1.0432 2.94149 0
M  V30 5599 N 535.072 -1.5615 -0.213296 0
M  V30 5600 C 536.321 -1.78743 -0.93455 0
M  V30 5601 C 536.634 -0.630199 -1.8517 0
M  V30 5602 O 537.84 -0.739966 -2.61222 0
M  V30 5603 C 536.296 -3.16571 -1.71203 0
M  V30 5604 C 535.904 -4.40043 -0.840617 0
M  V30 5605 C 537.648 -3.48485 -2.42401 0
M  V30 5606 C 535.555 -5.68895 -1.61592 0
M  V30 5607 H 534.485 -0.666426 -0.352692 0
M  V30 5608 H 537.136 -1.82532 -0.188227 0
M  V30 5609 H 535.518 -3.06981 -2.50157 0
M  V30 5610 H 536.692 -4.6071 -0.0910326 0
M  V30 5611 H 535.007 -4.15706 -0.240365 0
M  V30 5612 H 537.604 -4.41983 -3.00924 0
M  V30 5613 H 537.947 -2.71371 -3.15695 0
M  V30 5614 H 538.48 -3.59442 -1.7043 0
M  V30 5615 H 535.219 -6.48925 -0.926106 0
M  V30 5616 H 534.739 -5.52275 -2.33991 0
M  V30 5617 H 536.418 -6.09365 -2.17447 0
M  V30 5618 N 536.55 0.480323 -1.50102 0
M  V30 5619 C 537.778 1.25657 -1.64371 0
M  V30 5620 C 538.193 1.86011 -0.323316 0
M  V30 5621 O 537.55 1.68803 0.693682 0
M  V30 5622 C 537.601 2.37197 -2.728 0
M  V30 5623 O 537.322 1.7932 -3.9972 0
M  V30 5624 C 538.823 3.2823 -2.9796 0
M  V30 5625 H 536.043 0.380369 -0.552775 0
M  V30 5626 H 538.587 0.574379 -1.96268 0
M  V30 5627 H 536.742 3.01208 -2.43623 0
M  V30 5628 H 537.156 2.52701 -4.59611 0
M  V30 5629 H 538.63 4.02725 -3.77513 0
M  V30 5630 H 539.107 3.86462 -2.08671 0
M  V30 5631 H 539.713 2.69964 -3.28633 0
M  V30 5632 N 538.028 1.39524 0.732853 0
M  V30 5633 C 539.268 1.383 1.50508 0
M  V30 5634 C 539.632 -0.0208271 1.91989 0
M  V30 5635 O 540.833 -0.158091 2.68335 0
M  V30 5636 C 539.104 2.33007 2.71003 0
M  V30 5637 S 540.663 2.49989 3.60626 0
M  V30 5638 H 537.481 0.490417 0.514794 0
M  V30 5639 H 540.083 1.75641 0.858524 0
M  V30 5640 H 538.787 3.33862 2.38672 0
M  V30 5641 H 538.318 1.96889 3.40585 0
M  V30 5642 H 540.333 1.7394 4.64714 0
M  V30 5643 N 539.506 -0.963266 1.24736 0
M  V30 5644 C 540.754 -1.70343 1.08755 0
M  V30 5645 C 541.075 -1.91387 -0.373619 0
M  V30 5646 O 540.345 -1.4948 -1.2662 0
M  V30 5647 H 538.925 -0.631224 0.399456 0
M  V30 5648 H 541.587 -1.15859 1.56725 0
M  V30 5649 H 540.683 -2.68616 1.58909 0
M  V30 5650 N 540.985 -1.06182 -1.16461 0
M  V30 5651 C 542.233 -0.776326 -1.86595 0
M  V30 5652 C 542.554 0.69921 -1.82033 0
M  V30 5653 O 541.824 1.50579 -1.2531 0
M  V30 5654 H 540.404 -0.284184 -0.690832 0
M  V30 5655 H 543.066 -1.34308 -1.41235 0
M  V30 5656 H 542.162 -1.10022 -2.92064 0
M  V30 5657 N 542.463 1.3308 -0.844243 0
M  V30 5658 C 543.712 1.96868 -0.438833 0
M  V30 5659 C 544.025 1.67599 1.00846 0
M  V30 5660 O 545.231 2.25043 1.51881 0
M  V30 5661 C 543.687 3.5234 -0.73377 0
M  V30 5662 C 543.295 3.90481 -2.1961 0
M  V30 5663 C 545.039 4.22653 -0.395574 0
M  V30 5664 C 542.946 5.38954 -2.43481 0
M  V30 5665 H 541.876 0.736749 -0.160364 0
M  V30 5666 H 544.527 1.51623 -1.03358 0
M  V30 5667 H 542.909 3.95941 -0.068589 0
M  V30 5668 H 544.083 3.57922 -2.90221 0
M  V30 5669 H 542.398 3.33165 -2.4978 0
M  V30 5670 H 544.995 5.31848 -0.551477 0
M  V30 5671 H 545.338 4.11004 0.661921 0
M  V30 5672 H 545.871 3.84601 -1.01621 0
M  V30 5673 H 542.61 5.55612 -3.47816 0
M  V30 5674 H 542.13 5.72954 -1.77437 0
M  V30 5675 H 543.809 6.05907 -2.26905 0
M  V30 5676 N 543.941 0.601185 1.45683 0
M  V30 5677 C 545.171 0.0999093 2.06358 0
M  V30 5678 C 545.579 -1.21831 1.44754 0
M  V30 5679 O 544.922 -1.75157 0.553695 0
M  V30 5680 C 544.984 -0.12085 3.59297 0
M  V30 5681 C 544.648 1.11459 4.432 0
M  V30 5682 C 545.645 2.03118 4.7858 0
M  V30 5683 C 543.33 1.34162 4.84051 0
M  V30 5684 C 545.324 3.15814 5.53661 0
M  V30 5685 C 543.011 2.4716 5.58888 0
M  V30 5686 C 544.009 3.37814 5.93608 0
M  V30 5687 O 543.697 4.48846 6.66928 0
M  V30 5688 H 543.429 0.0630316 0.673055 0
M  V30 5689 H 545.983 0.826982 1.88016 0
M  V30 5690 H 544.213 -0.902744 3.76015 0
M  V30 5691 H 545.902 -0.572925 4.01836 0
M  V30 5692 H 546.668 1.86801 4.47583 0
M  V30 5693 H 542.547 0.645018 4.56465 0
M  V30 5694 H 546.091 3.86596 5.8068 0
M  V30 5695 H 541.988 2.63432 5.89299 0
M  V30 5696 H 542.756 4.47446 6.85371 0
M  V30 5697 N 545.419 -1.53889 0.339982 0
M  V30 5698 C 546.668 -2.00035 -0.258604 0
M  V30 5699 C 546.981 -1.23179 -1.51942 0
M  V30 5700 O 548.187 -1.59784 -2.19503 0
M  V30 5701 C 546.643 -3.56249 -0.511359 0
M  V30 5702 C 546.251 -4.41957 0.733349 0
M  V30 5703 C 547.995 -4.1082 -1.069 0
M  V30 5704 C 545.902 -5.89673 0.451591 0
M  V30 5705 H 544.832 -0.747284 -0.10041 0
M  V30 5706 H 547.483 -1.77776 0.454758 0
M  V30 5707 H 545.865 -3.7456 -1.28533 0
M  V30 5708 H 547.039 -4.35421 1.50815 0
M  V30 5709 H 545.354 -3.9836 1.21237 0
M  V30 5710 H 547.951 -5.18789 -1.2947 0
M  V30 5711 H 548.294 -3.63817 -2.02343 0
M  V30 5712 H 548.827 -3.96205 -0.355817 0
M  V30 5713 H 545.566 -6.40903 1.37565 0
M  V30 5714 H 545.086 -5.99122 -0.285193 0
M  V30 5715 H 546.765 -6.46965 0.0675067 0
M  V30 5716 N 546.897 -0.0685191 -1.57451 0
M  V30 5717 C 548.145 0.60016 -1.92983 0
M  V30 5718 C 548.466 1.70348 -0.949028 0
M  V30 5719 O 547.736 1.959 0.00335647 0
M  V30 5720 H 546.316 0.224682 -0.712409 0
M  V30 5721 H 548.978 -0.125605 -1.94495 0
M  V30 5722 H 548.074 1.02759 -2.94698 0
M  V30 5723 N 548.375 1.56261 0.205012 0
M  V30 5724 C 549.623 1.79684 0.925096 0
M  V30 5725 C 549.944 0.63989 1.84202 0
M  V30 5726 O 549.214 -0.342345 1.92885 0
M  V30 5727 H 547.794 0.662774 0.344587 0
M  V30 5728 H 550.456 1.93734 0.212899 0
M  V30 5729 H 549.552 2.72467 1.52211 0
M  V30 5730 N 549.853 -0.472356 1.50355 0
M  V30 5731 C 551.093 -1.23439 1.62918 0
M  V30 5732 C 551.457 -1.89284 0.321801 0
M  V30 5733 O 552.658 -2.66854 0.322852 0
M  V30 5734 C 550.929 -2.25119 2.7759 0
M  V30 5735 S 552.488 -3.10278 3.10279 0
M  V30 5736 H 549.306 -0.41911 0.574341 0
M  V30 5737 H 551.908 -0.531621 1.88133 0
M  V30 5738 H 550.612 -1.75324 3.71066 0
M  V30 5739 H 550.143 -3.00026 2.54457 0
M  V30 5740 H 552.158 -4.26257 2.54007 0
M  V30 5741 N 551.331 -1.39911 -0.725443 0
M  V30 5742 C 552.577 -1.38862 -1.48624 0
M  V30 5743 C 552.932 0.0125913 -1.92396 0
M  V30 5744 O 552.225 0.981046 -1.64578 0
M  V30 5745 C 552.419 -2.30368 -2.7325 0
M  V30 5746 C 552.248 -3.79247 -2.41665 0
M  V30 5747 C 551.018 -4.48119 -2.3349 0
M  V30 5748 C 553.216 -4.70988 -2.06579 0
M  V30 5749 N 551.198 -5.82282 -1.94476 0
M  V30 5750 C 552.569 -5.93873 -1.78087 0
M  V30 5751 C 554.624 -4.58917 -1.9313 0
M  V30 5752 C 553.327 -7.06036 -1.37499 0
M  V30 5753 C 555.353 -5.71012 -1.53946 0
M  V30 5754 C 554.715 -6.92976 -1.26345 0
M  V30 5755 H 550.814 -0.563394 -0.54232 0
M  V30 5756 H 553.398 -1.75542 -0.842213 0
M  V30 5757 H 551.569 -1.95831 -3.35417 0
M  V30 5758 H 553.301 -2.20245 -3.39521 0
M  V30 5759 H 550.056 -4.01677 -2.50904 0
M  V30 5760 H 550.48 -6.53307 -1.77535 0
M  V30 5761 H 555.122 -3.65149 -2.13134 0
M  V30 5762 H 552.84 -7.99697 -1.16237 0
M  V30 5763 H 556.426 -5.63664 -1.44132 0
M  V30 5764 H 555.306 -7.78243 -0.964787 0
M  V30 5765 N 552.809 0.956637 -1.25245 0
M  V30 5766 C 554.058 1.69537 -1.0927 0
M  V30 5767 C 554.371 1.92136 0.366503 0
M  V30 5768 O 555.577 2.63687 0.64665 0
M  V30 5769 C 554.033 3.05211 -1.9072 0
M  V30 5770 C 553.641 2.90416 -3.41119 0
M  V30 5771 C 555.385 3.82882 -1.83308 0
M  V30 5772 C 553.292 4.21468 -4.14872 0
M  V30 5773 H 552.222 0.635804 -0.405302 0
M  V30 5774 H 554.873 1.06513 -1.49423 0
M  V30 5775 H 553.255 3.69128 -1.43389 0
M  V30 5776 H 554.429 2.35444 -3.9611 0
M  V30 5777 H 552.744 2.26203 -3.49602 0
M  V30 5778 H 555.341 4.79944 -2.35706 0
M  V30 5779 H 555.684 4.0853 -0.800572 0
M  V30 5780 H 556.217 3.25711 -2.28379 0
M  V30 5781 H 552.956 4.01009 -5.18529 0
M  V30 5782 H 552.476 4.76213 -3.64665 0
M  V30 5783 H 554.155 4.90022 -4.22478 0
M  V30 5784 N 554.287 1.06798 1.15896 0
M  V30 5785 C 555.217 0.704677 2.22613 0
M  V30 5786 C 556.198 -0.305252 1.67339 0
M  V30 5787 O 557.383 -0.179247 1.93371 0
M  V30 5788 C 554.513 0.0957325 3.47168 0
M  V30 5789 C 553.467 1.0322 4.15367 0
M  V30 5790 C 552.793 0.286293 5.33933 0
M  V30 5791 C 554.093 2.36341 4.65768 0
M  V30 5792 H 555.787 1.59688 2.53259 0
M  V30 5793 H 553.333 0.769257 1.21731 0
M  V30 5794 H 555.286 -0.170333 4.21056 0
M  V30 5795 H 554.01 -0.831516 3.15838 0
M  V30 5796 H 552.669 1.28309 3.43413 0
M  V30 5797 H 552.317 -0.644237 4.98857 0
M  V30 5798 H 552.017 0.910436 5.80504 0
M  V30 5799 H 553.541 0.0278938 6.10594 0
M  V30 5800 H 554.955 2.1561 5.31211 0
M  V30 5801 H 553.352 2.94299 5.2298 0
M  V30 5802 H 554.422 2.99047 3.81705 0
M  V30 5803 N 555.766 -1.3263 0.851289 0
M  V30 5804 C 556.994 -2.01563 0.466899 0
M  V30 5805 C 557.409 -1.63996 -0.935447 0
M  V30 5806 O 556.766 -0.85957 -1.6099 0
M  V30 5807 C 556.817 -3.56613 0.592433 0
M  V30 5808 O 556.538 -3.92828 1.93954 0
M  V30 5809 C 558.039 -4.42818 0.206612 0
M  V30 5810 H 555.259 -0.645307 0.183902 0
M  V30 5811 H 557.803 -1.69285 1.1473 0
M  V30 5812 H 555.958 -3.87379 -0.0401936 0
M  V30 5813 H 556.372 -4.87545 1.9339 0
M  V30 5814 H 557.846 -5.50918 0.345462 0
M  V30 5815 H 558.323 -4.30844 -0.85264 0
M  V30 5816 H 558.929 -4.17434 0.814176 0
M  V30 5817 N 557.244 -0.608902 -1.45362 0
M  V30 5818 C 558.207 0.0992563 -2.28985 0
M  V30 5819 C 559.207 0.793841 -1.39838 0
M  V30 5820 O 560.397 0.641804 -1.61946 0
M  V30 5821 C 557.529 1.15073 -3.20891 0
M  V30 5822 H 558.722 -0.635964 -2.93079 0
M  V30 5823 H 556.275 -0.368007 -1.51906 0
M  V30 5824 H 557.01 1.91667 -2.616 0
M  V30 5825 H 556.795 0.656867 -3.86559 0
M  V30 5826 H 558.285 1.64665 -3.83765 0
M  V30 5827 N 558.722 1.53707 -0.348139 0
M  V30 5828 C 559.685 2.23812 0.494058 0
M  V30 5829 C 560.685 1.23989 1.02388 0
M  V30 5830 O 561.875 1.48395 0.912396 0
M  V30 5831 C 559.007 2.96133 1.68872 0
M  V30 5832 H 560.2 2.99663 -0.119141 0
M  V30 5833 H 557.753 1.55983 -0.0995539 0
M  V30 5834 H 558.488 2.24481 2.34049 0
M  V30 5835 H 558.273 3.69357 1.31596 0
M  V30 5836 H 559.763 3.49475 2.28597 0
M  V30 5837 N 560.2 0.0768682 1.57412 0
M  V30 5838 C 561.15 -0.898795 2.09537 0
M  V30 5839 C 562.134 -1.25556 1.0062 0
M  V30 5840 O 563.326 -1.23369 1.26921 0
M  V30 5841 C 560.455 -2.16453 2.66464 0
M  V30 5842 C 559.541 -1.83401 3.82393 0
M  V30 5843 N 559.932 -1.20823 4.91157 0
M  V30 5844 C 558.23 -2.13121 3.91785 0
M  V30 5845 C 558.931 -1.05976 5.71965 0
M  V30 5846 N 557.907 -1.57113 5.204 0
M  V30 5847 H 561.709 -0.410718 2.91016 0
M  V30 5848 H 559.223 -0.126878 1.61904 0
M  V30 5849 H 561.22 -2.87274 3.02125 0
M  V30 5850 H 559.88 -2.65844 1.86433 0
M  V30 5851 H 560.891 -0.877249 5.10416 0
M  V30 5852 H 557.568 -2.64854 3.22736 0
M  V30 5853 H 558.958 -0.571809 6.69462 0
M  V30 5854 N 561.678 -1.56367 -0.196722 0
M  V30 5855 C 562.918 -1.82315 -0.92415 0
M  V30 5856 C 563.282 -0.654117 -1.80514 0
M  V30 5857 O 564.483 -0.79345 -2.56823 0
M  V30 5858 C 562.754 -3.13279 -1.72021 0
M  V30 5859 S 564.313 -3.60627 -2.49988 0
M  V30 5860 H 561.131 -0.639862 -0.309997 0
M  V30 5861 H 563.733 -1.94597 -0.187684 0
M  V30 5862 H 562.437 -3.96379 -1.06358 0
M  V30 5863 H 561.968 -3.03871 -2.49852 0
M  V30 5864 H 563.983 -3.25934 -3.74141 0
M  V30 5865 N 563.156 0.464375 -1.50603 0
M  V30 5866 C 564.086 1.56944 -1.72889 0
M  V30 5867 C 565.067 1.59979 -0.577997 0
M  V30 5868 O 566.252 1.76138 -0.817855 0
M  V30 5869 C 563.382 2.95225 -1.8292 0
M  V30 5870 C 562.336 3.07056 -2.98162 0
M  V30 5871 C 561.662 4.47051 -2.93343 0
M  V30 5872 C 562.962 2.83648 -4.38567 0
M  V30 5873 H 564.656 1.38547 -2.65415 0
M  V30 5874 H 562.202 0.665082 -1.27721 0
M  V30 5875 H 564.155 3.72467 -1.97095 0
M  V30 5876 H 562.879 3.14793 -0.870209 0
M  V30 5877 H 561.538 2.32248 -2.83648 0
M  V30 5878 H 561.186 4.63547 -1.95276 0
M  V30 5879 H 560.886 4.55902 -3.70712 0
M  V30 5880 H 562.41 5.26304 -3.09575 0
M  V30 5881 H 563.824 3.50636 -4.53572 0
M  V30 5882 H 562.221 3.03937 -5.17438 0
M  V30 5883 H 563.291 1.79451 -4.50472 0
M  V30 5884 N 564.634 1.40294 0.718013 0
M  V30 5885 C 566.05 1.2227 1.02577 0
M  V30 5886 C 566.25 0.0961976 2.0127 0
M  V30 5887 O 565.306 -0.546695 2.46511 0
M  V30 5888 C 566.619 2.56348 1.57182 0
M  V30 5889 C 568.167 2.6334 1.69178 0
M  V30 5890 C 568.642 3.9768 2.27188 0
M  V30 5891 N 570.133 3.99409 2.34578 0
M  V30 5892 C 570.868 5.00141 2.8044 0
M  V30 5893 N 570.364 6.11268 3.26073 0
M  V30 5894 N 572.157 4.87511 2.79802 0
M  V30 5895 H 564.308 2.12304 0.0637899 0
M  V30 5896 H 566.571 0.943632 0.0909036 0
M  V30 5897 H 566.277 3.3942 0.921262 0
M  V30 5898 H 566.151 2.77266 2.55741 0
M  V30 5899 H 568.538 1.80641 2.33351 0
M  V30 5900 H 568.619 2.46255 0.692247 0
M  V30 5901 H 568.263 4.80817 1.63638 0
M  V30 5902 H 568.193 4.12093 3.27852 0
M  V30 5903 H 570.684 3.19162 2.02346 0
M  V30 5904 H 570.997 6.84023 3.59628 0
M  V30 5905 H 569.342 6.14837 3.24038 0
M  V30 5906 H 572.533 3.9979 2.43487 0
M  V30 5907 H 572.706 5.66158 3.15228 0
M  V30 5908 N 566.112 -0.949982 1.2575 0
M  V30 5909 C 567.075 -2.02894 1.06615 0
M  V30 5910 C 568.075 -1.60791 0.0173905 0
M  V30 5911 O 569.265 -1.72249 0.260003 0
M  V30 5912 C 566.397 -3.35219 0.619751 0
M  V30 5913 H 567.59 -2.21302 2.02399 0
M  V30 5914 H 565.143 -1.12772 1.08223 0
M  V30 5915 H 565.878 -3.22508 -0.340486 0
M  V30 5916 H 565.663 -3.67129 1.37692 0
M  V30 5917 H 567.153 -4.14505 0.507443 0
M  V30 5918 N 567.59 -1.07411 -1.15328 0
M  V30 5919 C 568.815 -0.818856 -1.90551 0
M  V30 5920 C 569.24 0.622194 -1.77512 0
M  V30 5921 O 568.598 1.43484 -1.10824 0
M  V30 5922 C 568.646 -1.23267 -3.38877 0
M  V30 5923 O 567.75 -0.378345 -4.10661 0
M  V30 5924 H 567.091 -0.29827 -0.593238 0
M  V30 5925 H 569.621 -1.43289 -1.46046 0
M  V30 5926 H 569.631 -1.20912 -3.89672 0
M  V30 5927 H 568.306 -2.28226 -3.47686 0
M  V30 5928 H 566.883 -0.464437 -3.69996 0
M  V30 5929 N 569.068 1.32177 -0.85831 0
M  V30 5930 C 570.015 2.28794 -0.303607 0
M  V30 5931 C 570.985 1.55213 0.591453 0
M  V30 5932 O 572.17 1.83418 0.525585 0
M  V30 5933 C 569.31 3.41475 0.49889 0
M  V30 5934 C 568.423 4.2993 -0.422373 0
M  V30 5935 C 567.558 5.29743 0.393111 0
M  V30 5936 C 566.597 6.09842 -0.525317 0
M  V30 5937 N 565.734 7.01643 0.253208 0
M  V30 5938 H 570.574 2.75631 -1.13276 0
M  V30 5939 H 568.111 1.35606 -0.570026 0
M  V30 5940 H 570.069 4.05531 0.979826 0
M  V30 5941 H 568.699 2.95779 1.29284 0
M  V30 5942 H 567.751 3.66422 -1.02171 0
M  V30 5943 H 569.063 4.85899 -1.12709 0
M  V30 5944 H 568.217 5.9942 0.937056 0
M  V30 5945 H 566.956 4.744 1.13117 0
M  V30 5946 H 565.961 5.39066 -1.08112 0
M  V30 5947 H 567.186 6.6727 -1.26205 0
M  V30 5948 H 565.132 6.48725 0.974295 0
M  V30 5949 H 565.049 7.54981 -0.392398 0
M  V30 5950 H 566.317 7.756 0.778761 0
M  V30 5951 N 570.547 0.616602 1.45037 0
M  V30 5952 C 571.775 0.121968 2.0654 0
M  V30 5953 C 572.19 -1.19743 1.45969 0
M  V30 5954 O 571.547 -1.73133 0.577168 0
M  V30 5955 C 571.598 -0.0145171 3.61497 0
M  V30 5956 O 571.319 1.25269 4.19809 0
M  V30 5957 C 572.82 -0.539555 4.40004 0
M  V30 5958 H 570.04 0.0729837 0.667019 0
M  V30 5959 H 572.584 0.846891 1.8614 0
M  V30 5960 H 570.739 -0.689809 3.81209 0
M  V30 5961 H 571.153 1.08816 5.13088 0
M  V30 5962 H 572.627 -0.584112 5.48901 0
M  V30 5963 H 573.104 -1.56368 4.10421 0
M  V30 5964 H 573.71 0.101995 4.25178 0
M  V30 5965 N 572.025 -1.5352 0.356285 0
M  V30 5966 C 572.975 -2.22204 -0.510815 0
M  V30 5967 C 573.959 -1.21393 -1.05605 0
M  V30 5968 O 575.151 -1.46883 -0.987639 0
M  V30 5969 C 572.28 -3.00786 -1.65478 0
M  V30 5970 C 571.366 -4.08965 -1.12287 0
M  V30 5971 N 571.757 -5.04829 -0.313191 0
M  V30 5972 C 570.055 -4.23505 -1.39856 0
M  V30 5973 C 570.756 -5.81695 -0.0230322 0
M  V30 5974 N 569.732 -5.40074 -0.618144 0
M  V30 5975 H 573.534 -2.93676 0.114711 0
M  V30 5976 H 571.048 -1.61572 0.163811 0
M  V30 5977 H 573.045 -3.48502 -2.28806 0
M  V30 5978 H 571.705 -2.30843 -2.28345 0
M  V30 5979 H 572.716 -5.17879 0.0468202 0
M  V30 5980 H 569.393 -3.64786 -2.0307 0
M  V30 5981 H 570.783 -6.68931 0.630927 0
M  V30 5982 N 573.503 -0.0852151 -1.57369 0
M  V30 5983 C 574.919 0.271436 -1.57275 0
M  V30 5984 C 575.119 1.69109 -1.09565 0
M  V30 5985 O 574.175 2.40549 -0.767611 0
M  V30 5986 C 575.488 0.0688638 -3.00621 0
M  V30 5987 C 577.036 0.137373 -3.12698 0
M  V30 5988 C 577.511 -0.0370832 -4.57985 0
M  V30 5989 N 579.002 0.0180794 -4.63196 0
M  V30 5990 C 579.737 -0.0922953 -5.73326 0
M  V30 5991 N 579.233 -0.256948 -6.92323 0
M  V30 5992 N 581.026 -0.0342702 -5.6209 0
M  V30 5993 H 573.177 -1.01288 -1.86693 0
M  V30 5994 H 575.44 -0.396138 -0.861266 0
M  V30 5995 H 575.146 -0.911277 -3.39689 0
M  V30 5996 H 575.02 0.815442 -3.6828 0
M  V30 5997 H 577.407 1.10801 -2.73509 0
M  V30 5998 H 577.488 -0.640532 -2.47651 0
M  V30 5999 H 577.132 -1.00455 -4.97867 0
M  V30 6000 H 577.062 0.760392 -5.21081 0
M  V30 6001 H 579.553 0.143202 -3.77629 0
M  V30 6002 H 579.866 -0.332949 -7.72082 0
M  V30 6003 H 578.211 -0.292487 -6.94384 0
M  V30 6004 H 581.402 0.0931605 -4.68007 0
M  V30 6005 H 581.575 -0.12374 -6.47882 0
M  V30 6006 N 574.981 1.5647 0.188427 0
M  V30 6007 C 576.211 1.84863 0.922463 0
M  V30 6008 C 576.619 0.666413 1.77075 0
M  V30 6009 O 575.962 -0.374044 1.79852 0
M  V30 6010 C 576.024 3.07447 1.86324 0
M  V30 6011 C 575.688 4.41066 1.19625 0
M  V30 6012 C 576.685 5.16767 0.569946 0
M  V30 6013 C 574.37 4.87802 1.19811 0
M  V30 6014 C 576.364 6.37384 -0.045594 0
M  V30 6015 C 574.051 6.08353 0.57874 0
M  V30 6016 C 575.049 6.82987 -0.0420259 0
M  V30 6017 O 574.737 8.01254 -0.651675 0
M  V30 6018 H 574.469 0.61784 0.274316 0
M  V30 6019 H 577.023 2.04437 0.198613 0
M  V30 6020 H 575.253 2.83774 2.62696 0
M  V30 6021 H 576.942 3.2243 2.46564 0
M  V30 6022 H 577.708 4.81749 0.560601 0
M  V30 6023 H 573.587 4.29662 1.67069 0
M  V30 6024 H 577.131 6.95578 -0.530731 0
M  V30 6025 H 573.028 6.42838 0.58561 0
M  V30 6026 H 573.796 8.16655 -0.549236 0
M  V30 6027 N 576.459 -0.456382 1.50847 0
M  V30 6028 C 577.391 -1.57033 1.66953 0
M  V30 6029 C 578.404 -1.53207 0.550593 0
M  V30 6030 O 579.593 -1.58328 0.824285 0
M  V30 6031 C 576.693 -2.95937 1.65149 0
M  V30 6032 C 575.866 -3.24475 2.93317 0
M  V30 6033 C 574.925 -4.43007 2.83957 0
M  V30 6034 O 573.951 -4.42592 3.57912 0
M  V30 6035 N 575.153 -5.45503 1.9851 0
M  V30 6036 H 577.918 -1.43629 2.63042 0
M  V30 6037 H 575.479 -0.645037 1.48495 0
M  V30 6038 H 577.471 -3.73224 1.56481 0
M  V30 6039 H 576.041 -3.03036 0.767343 0
M  V30 6040 H 575.261 -2.35664 3.16 0
M  V30 6041 H 576.549 -3.4036 3.78196 0
M  V30 6042 H 575.947 -5.48668 1.37766 0
M  V30 6043 H 574.504 -6.21716 1.95735 0
M  V30 6044 N 577.937 -1.40673 -0.710563 0
M  V30 6045 C 579.186 -1.38525 -1.46607 0
M  V30 6046 C 579.499 0.0077024 -1.95598 0
M  V30 6047 O 580.705 0.151792 -2.71075 0
M  V30 6048 C 579.161 -2.43489 -2.6503 0
M  V30 6049 C 578.769 -3.88619 -2.22888 0
M  V30 6050 C 580.513 -2.50456 -3.42742 0
M  V30 6051 C 578.42 -4.85168 -3.3818 0
M  V30 6052 H 577.35 -0.515092 -0.550632 0
M  V30 6053 H 580.001 -1.66431 -0.772846 0
M  V30 6054 H 578.383 -2.0869 -3.36548 0
M  V30 6055 H 579.557 -4.32588 -1.58758 0
M  V30 6056 H 577.872 -3.85174 -1.58208 0
M  V30 6057 H 580.469 -3.19776 -4.28541 0
M  V30 6058 H 580.812 -1.53665 -3.86902 0
M  V30 6059 H 581.345 -2.84271 -2.78271 0
M  V30 6060 H 578.084 -5.8331 -2.99047 0
M  V30 6061 H 577.604 -4.4586 -4.01209 0
M  V30 6062 H 579.283 -5.05225 -4.04174 0
M  V30 6063 N 579.415 0.9433 -1.26252 0
M  V30 6064 C 580.661 1.69226 -1.12846 0
M  V30 6065 C 581.016 1.8963 0.325282 0
M  V30 6066 O 580.309 1.46435 1.23561 0
M  V30 6067 C 580.503 3.07073 -1.82868 0
M  V30 6068 C 580.332 3.00118 -3.34902 0
M  V30 6069 C 579.102 3.03251 -4.04186 0
M  V30 6070 C 581.3 2.80418 -4.31127 0
M  V30 6071 N 579.282 2.86573 -5.42908 0
M  V30 6072 C 580.653 2.72287 -5.5701 0
M  V30 6073 C 582.708 2.65185 -4.21404 0
M  V30 6074 C 581.411 2.50479 -6.74279 0
M  V30 6075 C 583.437 2.4475 -5.38378 0
M  V30 6076 C 582.799 2.37349 -6.63208 0
M  V30 6077 H 578.898 0.626716 -0.467708 0
M  V30 6078 H 581.482 1.11645 -1.5951 0
M  V30 6079 H 579.653 3.62797 -1.38682 0
M  V30 6080 H 581.385 3.70816 -1.62103 0
M  V30 6081 H 578.14 3.12882 -3.55531 0
M  V30 6082 H 578.564 2.81408 -6.15742 0
M  V30 6083 H 583.206 2.69675 -3.25631 0
M  V30 6084 H 580.924 2.4473 -7.70151 0
M  V30 6085 H 584.51 2.33872 -5.32724 0
M  V30 6086 H 583.39 2.21746 -7.52196 0
M  V30 6087 N 580.893 1.08022 1.14757 0
M  V30 6088 C 582.121 0.828847 1.89572 0
M  V30 6089 C 582.536 -0.618621 1.78377 0
M  V30 6090 O 581.893 -1.42482 1.1404 0
M  V30 6091 C 581.944 1.23677 3.39685 0
M  V30 6092 O 581.665 2.62746 3.50566 0
M  V30 6093 C 583.166 1.01569 4.31507 0
M  V30 6094 H 580.386 0.299196 0.600602 0
M  V30 6095 H 582.93 1.43846 1.45357 0
M  V30 6096 H 581.085 0.671347 3.81539 0
M  V30 6097 H 581.499 2.79573 4.43778 0
M  V30 6098 H 582.973 1.35055 5.35223 0
M  V30 6099 H 583.45 -0.0475433 4.39174 0
M  V30 6100 H 584.056 1.56636 3.95405 0
M  V30 6101 N 582.371 -1.3172 0.865308 0
M  V30 6102 C 583.599 -2.01057 0.488251 0
M  V30 6103 C 584.014 -1.64979 -0.918 0
M  V30 6104 O 583.371 -0.876597 -1.60069 0
M  V30 6105 C 583.422 -3.55964 0.630224 0
M  V30 6106 O 583.143 -3.90749 1.98109 0
M  V30 6107 C 584.644 -4.42574 0.253567 0
M  V30 6108 H 581.864 -0.64332 0.190736 0
M  V30 6109 H 584.408 -1.68058 1.16519 0
M  V30 6110 H 582.563 -3.874 0.000895422 0
M  V30 6111 H 582.977 -4.85467 1.9855 0
M  V30 6112 H 584.451 -5.50521 0.403875 0
M  V30 6113 H 584.928 -4.31724 -0.806895 0
M  V30 6114 H 585.534 -4.16547 0.858404 0
M  V30 6115 N 583.85 -0.624285 -1.44708 0
M  V30 6116 C 585.096 -0.126237 -2.02407 0
M  V30 6117 C 585.428 1.24618 -1.48943 0
M  V30 6118 O 584.704 1.82569 -0.670742 0
M  V30 6119 C 584.986 -0.105449 -3.59946 0
M  V30 6120 C 584.84 -1.50972 -4.23707 0
M  V30 6121 C 586.159 0.573629 -4.36346 0
M  V30 6122 H 583.278 -0.0473472 -0.735478 0
M  V30 6123 H 585.92 -0.799452 -1.72362 0
M  V30 6124 H 584.07 0.46783 -3.85673 0
M  V30 6125 H 585.742 -2.13136 -4.0911 0
M  V30 6126 H 583.985 -2.0656 -3.81465 0
M  V30 6127 H 584.656 -1.44727 -5.32689 0
M  V30 6128 H 587.132 0.0861787 -4.16011 0
M  V30 6129 H 586.008 0.557338 -5.46063 0
M  V30 6130 H 586.269 1.64276 -4.10446 0
M  V30 6131 N 585.328 1.53329 -0.364422 0
M  V30 6132 C 586.574 2.01537 0.225969 0
M  V30 6133 C 586.907 1.25128 1.48515 0
M  V30 6134 O 586.182 0.344653 1.91422 0
M  V30 6135 C 586.465 3.56339 0.519092 0
M  V30 6136 C 586.318 4.43441 -0.753639 0
M  V30 6137 C 587.637 4.19833 1.32015 0
M  V30 6138 H 584.756 0.732573 0.0806548 0
M  V30 6139 H 587.398 1.83597 -0.489084 0
M  V30 6140 H 585.548 3.71756 1.12825 0
M  V30 6141 H 587.22 4.39823 -1.39116 0
M  V30 6142 H 585.463 4.11457 -1.37424 0
M  V30 6143 H 586.134 5.49699 -0.503517 0
M  V30 6144 H 588.61 4.08242 0.804859 0
M  V30 6145 H 587.486 5.28177 1.49399 0
M  V30 6146 H 587.747 3.75821 2.32832 0
M  V30 6147 N 586.806 0.0935595 1.57322 0
M  V30 6148 C 588.083 -0.612692 1.85756 0
M  V30 6149 C 588.463 -1.86439 0.99013 0
M  V30 6150 O 587.811 -2.28416 0.0621362 0
M  V30 6151 C 588.021 -0.929547 3.36393 0
M  V30 6152 C 589.369 -1.29366 4.04413 0
M  V30 6153 O 590.393 -1.02061 3.41265 0
M  V30 6154 O 589.252 -1.80498 5.15832 0
M  V30 6155 H 586.346 -0.306444 0.768128 0
M  V30 6156 H 588.892 0.126141 1.69231 0
M  V30 6157 H 587.664 -0.0414766 3.91278 0
M  V30 6158 H 587.287 -1.72441 3.5826 0
M  V30 6159 N 588.284 -1.56567 -0.180126 0
M  V30 6160 C 589.53 -1.82658 -0.894859 0
M  V30 6161 C 589.885 -0.672826 -1.80252 0
M  V30 6162 O 589.178 0.331227 -1.88715 0
M  V30 6163 C 589.372 -3.1252 -1.73395 0
M  V30 6164 C 589.201 -4.40417 -0.909028 0
M  V30 6165 C 587.971 -5.01872 -0.587562 0
M  V30 6166 C 590.169 -5.13669 -0.254698 0
M  V30 6167 N 588.151 -6.13373 0.254428 0
M  V30 6168 C 589.522 -6.18373 0.448837 0
M  V30 6169 C 591.577 -4.97603 -0.171958 0
M  V30 6170 C 590.28 -7.08753 1.22725 0
M  V30 6171 C 592.306 -5.88418 0.593101 0
M  V30 6172 C 591.668 -6.92579 1.28503 0
M  V30 6173 H 587.767 -0.719493 -0.306356 0
M  V30 6174 H 590.351 -1.94021 -0.16247 0
M  V30 6175 H 588.522 -3.02365 -2.43783 0
M  V30 6176 H 590.254 -3.2664 -2.38931 0
M  V30 6177 H 587.009 -4.64666 -0.915557 0
M  V30 6178 H 587.433 -6.73721 0.665474 0
M  V30 6179 H 592.075 -4.17089 -0.692555 0
M  V30 6180 H 589.793 -7.88718 1.75923 0
M  V30 6181 H 593.379 -5.78059 0.658674 0
M  V30 6182 H 592.259 -7.61638 1.86754 0
M  V30 6183 N 589.762 0.448376 -1.51087 0
M  V30 6184 C 591.011 1.19561 -1.62444 0
M  V30 6185 C 591.324 1.92602 -0.341151 0
M  V30 6186 O 592.53 2.69439 -0.333936 0
M  V30 6187 C 590.986 2.17373 -2.8684 0
M  V30 6188 C 590.594 1.5003 -4.22131 0
M  V30 6189 C 592.338 2.92597 -3.0755 0
M  V30 6190 C 590.245 2.46262 -5.37689 0
M  V30 6191 H 589.175 0.449975 -0.605011 0
M  V30 6192 H 591.826 0.463735 -1.77544 0
M  V30 6193 H 590.208 2.93948 -2.65349 0
M  V30 6194 H 591.382 0.790886 -4.53962 0
M  V30 6195 H 589.697 0.870011 -4.0721 0
M  V30 6196 H 592.294 3.64663 -3.91056 0
M  V30 6197 H 592.637 3.53306 -2.20183 0
M  V30 6198 H 593.17 2.23131 -3.29329 0
M  V30 6199 H 589.909 1.90258 -6.27281 0
M  V30 6200 H 589.429 3.15289 -5.10248 0
M  V30 6201 H 591.108 3.07623 -5.6919 0
M  V30 6202 N 591.24 1.41047 0.703093 0
M  V30 6203 C 592.19 1.38774 1.80903 0
M  V30 6204 C 593.174 0.263275 1.58731 0
M  V30 6205 O 594.366 0.503362 1.69692 0
M  V30 6206 C 591.495 1.26497 3.19145 0
M  V30 6207 C 590.581 2.43775 3.47037 0
M  V30 6208 N 590.972 3.69249 3.45672 0
M  V30 6209 C 589.27 2.37425 3.77552 0
M  V30 6210 C 589.971 4.46989 3.72258 0
M  V30 6211 N 588.947 3.76998 3.91629 0
M  V30 6212 H 592.749 2.33714 1.78199 0
M  V30 6213 H 590.263 1.34996 0.902762 0
M  V30 6214 H 592.26 1.2295 3.98358 0
M  V30 6215 H 590.92 0.32534 3.23066 0
M  V30 6216 H 591.931 4.02239 3.26228 0
M  V30 6217 H 588.608 1.51895 3.88888 0
M  V30 6218 H 589.998 5.55894 3.77402 0
M  V30 6219 N 592.718 -0.936591 1.26751 0
M  V30 6220 C 594.129 -1.49816 1.1141 0
M  V30 6221 C 594.48 -1.9383 -0.304015 0
M  V30 6222 O 593.605 -1.80346 -1.196 0
M  V30 6223 C 594.2 -2.72271 2.01629 0
M  V30 6224 C 592.759 -3.2468 1.9042 0
M  V30 6225 C 591.906 -1.97444 1.94708 0
M  V30 6226 H 594.857 -0.751604 1.39773 0
M  V30 6227 H 594.878 -3.46741 1.56688 0
M  V30 6228 H 594.39 -2.40205 3.04833 0
M  V30 6229 H 592.491 -3.61525 0.901674 0
M  V30 6230 H 592.604 -3.91476 2.76195 0
M  V30 6231 H 590.968 -2.13545 1.38818 0
M  V30 6232 H 591.751 -1.67703 2.9955 0
M  V30 6233 N 594.196 -1.08629 -1.14182 0
M  V30 6234 C 595.473 -0.73002 -1.81466 0
M  V30 6235 C 595.853 0.785996 -1.95922 0
M  V30 6236 O 595.201 1.70535 -1.52086 0
M  V30 6237 C 595.411 -1.45957 -3.17014 0
M  V30 6238 C 596.759 -1.62008 -3.92477 0
M  V30 6239 O 597.783 -1.42141 -3.26611 0
M  V30 6240 O 596.642 -1.94806 -5.106 0
M  V30 6241 H 593.736 -0.261307 -0.784632 0
M  V30 6242 H 596.282 -1.188 -1.2118 0
M  V30 6243 H 595.054 -2.49221 -3.01669 0
M  V30 6244 H 594.677 -0.993222 -3.84995 0
M  V30 6245 N 595.674 1.31259 -0.872281 0
M  V30 6246 C 596.604 2.30929 -0.345554 0
M  V30 6247 C 597.585 1.60449 0.5648 0
M  V30 6248 O 598.77 1.8814 0.481335 0
M  V30 6249 C 595.9 3.44348 0.451823 0
M  V30 6250 C 594.854 4.26435 -0.365641 0
M  V30 6251 C 594.18 5.31785 0.557562 0
M  V30 6252 C 595.48 4.97159 -1.60095 0
M  V30 6253 H 597.174 2.75234 -1.17841 0
M  V30 6254 H 594.72 1.3232 -0.568094 0
M  V30 6255 H 596.673 4.13128 0.830854 0
M  V30 6256 H 595.397 2.98816 1.31821 0
M  V30 6257 H 594.056 3.59326 -0.726649 0
M  V30 6258 H 593.704 4.82502 1.4213 0
M  V30 6259 H 593.404 5.87598 0.0144878 0
M  V30 6260 H 594.928 6.03424 0.933387 0
M  V30 6261 H 596.342 5.58523 -1.29323 0
M  V30 6262 H 594.739 5.62779 -2.08327 0
M  V30 6263 H 595.809 4.24012 -2.35249 0
M  V30 6264 N 597.152 0.631951 1.44375 0
M  V30 6265 C 598.099 -0.0724807 2.30686 0
M  V30 6266 C 599.069 -0.835975 1.43529 0
M  V30 6267 O 600.254 -0.816849 1.7243 0
M  V30 6268 C 597.394 -1.04753 3.28817 0
M  V30 6269 C 596.507 -0.282367 4.31076 0
M  V30 6270 C 595.642 -1.2493 5.163 0
M  V30 6271 C 594.681 -0.473349 6.10267 0
M  V30 6272 N 593.818 -1.39079 6.88187 0
M  V30 6273 H 598.658 0.669477 2.90383 0
M  V30 6274 H 596.195 0.341927 1.43071 0
M  V30 6275 H 598.153 -1.62623 3.842 0
M  V30 6276 H 596.783 -1.75661 2.70819 0
M  V30 6277 H 595.835 0.412268 3.78159 0
M  V30 6278 H 597.147 0.321955 4.9776 0
M  V30 6279 H 596.301 -1.89931 5.76204 0
M  V30 6280 H 595.04 -1.88755 4.49692 0
M  V30 6281 H 594.045 0.190142 5.49471 0
M  V30 6282 H 595.27 0.16019 6.78911 0
M  V30 6283 H 593.216 -2.01623 6.24247 0
M  V30 6284 H 593.133 -0.840513 7.51313 0
M  V30 6285 H 594.401 -2.02961 7.52613 0
M  V30 6286 N 598.631 -1.53133 0.372548 0
M  V30 6287 C 600.047 -1.59585 0.02178 0
M  V30 6288 C 600.247 -1.38736 -1.46132 0
M  V30 6289 O 599.303 -1.19599 -2.22379 0
M  V30 6290 C 600.616 -2.9678 0.483959 0
M  V30 6291 C 602.164 -3.09909 0.438775 0
M  V30 6292 C 602.639 -4.49527 0.876876 0
M  V30 6293 N 604.13 -4.55663 0.832214 0
M  V30 6294 C 604.865 -5.61896 1.14281 0
M  V30 6295 N 604.361 -6.75852 1.52303 0
M  V30 6296 N 606.154 -5.51916 1.06515 0
M  V30 6297 H 598.305 -1.64936 1.33827 0
M  V30 6298 H 600.568 -0.773947 0.547458 0
M  V30 6299 H 600.274 -3.17198 1.51915 0
M  V30 6300 H 600.148 -3.7699 -0.125784 0
M  V30 6301 H 602.535 -2.89197 -0.587294 0
M  V30 6302 H 602.616 -2.31691 1.0841 0
M  V30 6303 H 602.26 -4.70979 1.90109 0
M  V30 6304 H 602.19 -5.26186 0.208727 0
M  V30 6305 H 604.681 -3.73844 0.552195 0
M  V30 6306 H 604.994 -7.52862 1.7441 0
M  V30 6307 H 603.339 -6.77226 1.56175 0
M  V30 6308 H 606.53 -4.6177 0.767235 0
M  V30 6309 H 606.703 -6.34609 1.31053 0
M  V30 6310 N 600.109 -0.101901 -1.5727 0
M  V30 6311 C 601.358 0.559922 -1.93772 0
M  V30 6312 C 601.671 1.68913 -0.98629 0
M  V30 6313 O 602.877 2.41256 -1.24529 0
M  V30 6314 C 601.333 1.04739 -3.44322 0
M  V30 6315 C 600.941 -0.05243 -4.47969 0
M  V30 6316 C 602.685 1.68157 -3.89774 0
M  V30 6317 C 600.592 0.450781 -5.8968 0
M  V30 6318 H 599.522 0.212931 -0.723309 0
M  V30 6319 H 602.173 -0.179001 -1.82625 0
M  V30 6320 H 600.555 1.84021 -3.50645 0
M  V30 6321 H 601.729 -0.828157 -4.53297 0
M  V30 6322 H 600.044 -0.592202 -4.12167 0
M  V30 6323 H 602.641 2.0689 -4.93052 0
M  V30 6324 H 602.984 2.55338 -3.28798 0
M  V30 6325 H 603.517 0.954453 -3.8618 0
M  V30 6326 H 600.256 -0.38458 -6.54371 0
M  V30 6327 H 599.776 1.19336 -5.87809 0
M  V30 6328 H 601.455 0.917555 -6.40461 0
M  V30 6329 N 601.587 1.56661 0.17182 0
M  V30 6330 C 602.833 1.82235 0.889845 0
M  V30 6331 C 603.166 0.679673 1.81918 0
M  V30 6332 O 602.441 -0.318404 1.91876 0
M  V30 6333 C 602.724 3.18195 1.68595 0
M  V30 6334 C 602.577 4.42989 0.779773 0
M  V30 6335 C 603.896 3.5109 2.65375 0
M  V30 6336 H 601.015 0.66291 0.322056 0
M  V30 6337 H 603.657 1.89358 0.15608 0
M  V30 6338 H 601.807 3.12253 2.3115 0
M  V30 6339 H 603.479 4.60997 0.16714 0
M  V30 6340 H 601.722 4.33711 0.0877964 0
M  V30 6341 H 602.393 5.3467 1.3723 0
M  V30 6342 H 604.869 3.57482 2.12946 0
M  V30 6343 H 603.745 4.47298 3.18144 0
M  V30 6344 H 604.006 2.75768 3.45549 0
M  V30 6345 N 603.065 -0.440357 1.51323 0
M  V30 6346 C 604.314 -1.18697 1.63076 0
M  V30 6347 C 604.627 -1.92418 0.35136 0
M  V30 6348 O 605.833 -2.69258 0.348221 0
M  V30 6349 C 604.289 -2.15849 2.87988 0
M  V30 6350 C 603.897 -1.47789 4.22921 0
M  V30 6351 C 605.641 -2.90962 3.09098 0
M  V30 6352 C 603.548 -2.43407 5.38987 0
M  V30 6353 H 602.478 -0.44676 0.607389 0
M  V30 6354 H 605.129 -0.454313 1.77787 0
M  V30 6355 H 603.511 -2.92537 2.66905 0
M  V30 6356 H 604.685 -0.7668 4.54375 0
M  V30 6357 H 603 -0.848404 4.07665 0
M  V30 6358 H 605.597 -3.62584 3.92985 0
M  V30 6359 H 605.94 -3.52133 2.22053 0
M  V30 6360 H 606.473 -2.21381 3.30507 0
M  V30 6361 H 603.212 -1.86929 6.28282 0
M  V30 6362 H 602.732 -3.12579 5.11913 0
M  V30 6363 H 604.411 -3.046 5.70813 0
M  V30 6364 N 604.543 -1.41418 -0.695603 0
M  V30 6365 C 605.453 -1.45622 -1.83933 0
M  V30 6366 C 606.469 -0.346825 -1.70508 0
M  V30 6367 O 607.645 -0.59454 -1.92424 0
M  V30 6368 C 604.71 -1.33627 -3.19914 0
M  V30 6369 C 603.771 -2.54882 -3.45447 0
M  V30 6370 C 603.004 -2.43449 -4.7494 0
M  V30 6371 O 603.227 -1.45905 -5.51424 0
M  V30 6372 O 602.161 -3.33206 -5.01256 0
M  V30 6373 H 605.987 -2.42114 -1.83342 0
M  V30 6374 H 603.572 -1.22956 -0.848658 0
M  V30 6375 H 605.454 -1.29221 -4.01098 0
M  V30 6376 H 604.129 -0.402508 -3.21188 0
M  V30 6377 H 603.036 -2.64865 -2.64192 0
M  V30 6378 H 604.369 -3.47087 -3.48987 0
M  V30 6379 N 606.021 0.929856 -1.27246 0
M  V30 6380 C 607.251 1.70895 -1.16096 0
M  V30 6381 C 607.659 1.87039 0.285122 0
M  V30 6382 O 607.002 1.38557 1.20614 0
M  V30 6383 C 607.064 3.12919 -1.7698 0
M  V30 6384 C 606.728 3.2012 -3.26148 0
M  V30 6385 C 607.725 3.02533 -4.22812 0
M  V30 6386 C 605.41 3.43148 -3.66817 0
M  V30 6387 C 607.404 3.07861 -5.58122 0
M  V30 6388 C 605.091 3.48109 -5.02258 0
M  V30 6389 C 606.089 3.30483 -5.97721 0
M  V30 6390 O 605.777 3.35175 -7.30694 0
M  V30 6391 H 605.509 0.54152 -0.404639 0
M  V30 6392 H 608.063 1.17342 -1.68582 0
M  V30 6393 H 606.293 3.67945 -1.18969 0
M  V30 6394 H 607.982 3.72787 -1.60576 0
M  V30 6395 H 608.748 2.84586 -3.92728 0
M  V30 6396 H 604.627 3.55918 -2.9299 0
M  V30 6397 H 608.171 2.94021 -6.32612 0
M  V30 6398 H 604.068 3.65579 -5.31998 0
M  V30 6399 H 604.836 3.51644 -7.39114 0
M  V30 6400 N 607.499 1.09233 1.13605 0
M  V30 6401 C 608.745 0.828385 1.8511 0
M  V30 6402 C 609.078 -0.64437 1.83198 0
M  V30 6403 O 608.353 -1.47428 1.26867 0
M  V30 6404 C 608.636 1.36167 3.33363 0
M  V30 6405 C 608.489 2.90038 3.438 0
M  V30 6406 C 609.808 0.993819 4.28732 0
M  V30 6407 H 606.927 0.30239 0.672108 0
M  V30 6408 H 609.569 1.35339 1.33355 0
M  V30 6409 H 607.719 0.9151 3.77569 0
M  V30 6410 H 609.391 3.43128 3.08319 0
M  V30 6411 H 607.634 3.27271 2.84739 0
M  V30 6412 H 608.305 3.22428 4.48045 0
M  V30 6413 H 610.781 1.37893 3.92587 0
M  V30 6414 H 609.657 1.39403 5.30903 0
M  V30 6415 H 609.918 -0.0982206 4.41991 0
M  V30 6416 N 608.977 -1.30795 0.87923 0
M  V30 6417 C 610.254 -1.91145 0.415086 0
M  V30 6418 C 610.634 -1.7995 -1.10368 0
M  V30 6419 O 609.982 -1.21305 -1.93642 0
M  V30 6420 C 610.192 -3.37014 0.906778 0
M  V30 6421 C 611.54 -4.14101 0.938358 0
M  V30 6422 O 612.564 -3.45834 0.853053 0
M  V30 6423 O 611.423 -5.36054 1.06342 0
M  V30 6424 H 608.517 -0.81736 0.125905 0
M  V30 6425 H 611.063 -1.39401 0.967753 0
M  V30 6426 H 609.835 -3.3922 1.95053 0
M  V30 6427 H 609.458 -3.96204 0.332948 0
M  V30 6428 N 610.455 -0.639598 -1.44038 0
M  V30 6429 C 611.871 -0.305953 -1.5664 0
M  V30 6430 C 612.071 1.19055 -1.62567 0
M  V30 6431 O 611.127 1.97492 -1.57331 0
M  V30 6432 C 612.44 -1.00533 -2.83397 0
M  V30 6433 C 613.988 -0.984278 -2.97121 0
M  V30 6434 C 614.463 -1.66428 -4.26691 0
M  V30 6435 N 615.954 -1.63127 -4.33525 0
M  V30 6436 C 616.689 -2.12629 -5.32519 0
M  V30 6437 N 616.185 -2.70359 -6.3787 0
M  V30 6438 N 617.978 -2.03208 -5.24083 0
M  V30 6439 H 610.129 -1.6109 -1.38434 0
M  V30 6440 H 612.392 -0.676672 -0.663942 0
M  V30 6441 H 612.098 -2.06034 -2.85032 0
M  V30 6442 H 611.972 -0.548362 -3.73193 0
M  V30 6443 H 614.359 0.0622792 -2.95034 0
M  V30 6444 H 614.44 -1.47981 -2.08651 0
M  V30 6445 H 614.084 -2.71034 -4.29538 0
M  V30 6446 H 614.014 -1.14351 -5.14034 0
M  V30 6447 H 616.505 -1.20987 -3.58009 0
M  V30 6448 H 616.818 -3.05842 -7.09704 0
M  V30 6449 H 615.163 -2.74414 -6.38531 0
M  V30 6450 H 618.354 -1.57823 -4.40692 0
M  V30 6451 H 618.527 -2.42097 -6.01077 0
M  V30 6452 N 611.933 1.52934 -0.380664 0
M  V30 6453 C 613.182 2.00651 0.205477 0
M  V30 6454 C 613.495 1.27164 1.48623 0
M  V30 6455 O 614.701 1.65547 2.15189 0
M  V30 6456 C 613.157 3.57479 0.416726 0
M  V30 6457 C 612.765 4.39857 -0.850268 0
M  V30 6458 C 614.509 4.13509 0.959702 0
M  V30 6459 C 612.416 5.88269 -0.607773 0
M  V30 6460 H 611.346 0.749684 0.0805614 0
M  V30 6461 H 613.997 1.76508 -0.501732 0
M  V30 6462 H 612.379 3.77836 1.18557 0
M  V30 6463 H 613.553 4.31269 -1.62307 0
M  V30 6464 H 611.868 3.95005 -1.31756 0
M  V30 6465 H 614.465 5.22039 1.15669 0
M  V30 6466 H 614.808 3.69054 1.92626 0
M  V30 6467 H 615.341 3.9701 0.250645 0
M  V30 6468 H 612.08 6.3703 -1.54509 0
M  V30 6469 H 611.6 5.99667 0.126247 0
M  V30 6470 H 613.279 6.46558 -0.239014 0
M  V30 6471 N 613.412 0.11024 1.57214 0
M  V30 6472 C 614.661 -0.549638 1.94067 0
M  V30 6473 C 614.974 -1.68388 0.995234 0
M  V30 6474 O 616.18 -2.40593 1.25807 0
M  V30 6475 C 614.636 -1.02912 3.44873 0
M  V30 6476 C 614.244 0.0761861 4.47935 0
M  V30 6477 C 615.988 -1.66087 3.9066 0
M  V30 6478 C 613.895 -0.419502 5.8991 0
M  V30 6479 H 612.825 -0.209092 0.724428 0
M  V30 6480 H 615.476 0.188683 1.82527 0
M  V30 6481 H 613.858 -1.82159 3.51616 0
M  V30 6482 H 615.032 0.852185 4.52851 0
M  V30 6483 H 613.347 0.614052 4.11847 0
M  V30 6484 H 615.944 -2.04272 4.94143 0
M  V30 6485 H 616.287 -2.53591 3.30148 0
M  V30 6486 H 616.82 -0.933959 3.86681 0
M  V30 6487 H 613.559 0.419277 6.54158 0
M  V30 6488 H 613.079 -1.16217 5.88433 0
M  V30 6489 H 614.758 -0.883577 6.40938 0
M  V30 6490 N 614.89 -1.56749 -0.16351 0
M  V30 6491 C 616.137 -1.82434 -0.878866 0
M  V30 6492 C 616.465 -0.688557 -1.81904 0
M  V30 6493 O 615.72 0.323644 -1.93005 0
M  V30 6494 C 616.019 -3.14342 -1.70071 0
M  V30 6495 C 615.685 -4.41647 -0.908775 0
M  V30 6496 C 614.347 -4.76224 -0.690236 0
M  V30 6497 C 616.699 -5.19998 -0.353815 0
M  V30 6498 C 614.027 -5.86624 0.0942374 0
M  V30 6499 C 616.379 -6.3122 0.41761 0
M  V30 6500 C 615.043 -6.64358 0.646879 0
M  V30 6501 H 614.313 -0.667574 -0.3216 0
M  V30 6502 H 616.96 -1.90963 -0.14337 0
M  V30 6503 H 615.265 -3.0119 -2.50583 0
M  V30 6504 H 616.962 -3.31426 -2.25738 0
M  V30 6505 H 613.552 -4.1453 -1.08916 0
M  V30 6506 H 617.736 -4.93673 -0.509975 0
M  V30 6507 H 612.992 -6.10751 0.281529 0
M  V30 6508 H 617.166 -6.91133 0.854849 0
M  V30 6509 H 614.793 -7.49742 1.25662 0
M  V30 6510 N 616.368 0.432326 -1.51554 0
M  V30 6511 C 617.318 1.52366 -1.69614 0
M  V30 6512 C 618.302 1.51205 -0.550083 0
M  V30 6513 O 619.494 1.57573 -0.806206 0
M  V30 6514 C 616.623 2.90513 -1.82913 0
M  V30 6515 C 615.709 2.9641 -3.03318 0
M  V30 6516 N 616.1 2.72043 -4.26411 0
M  V30 6517 C 614.398 3.27572 -3.02675 0
M  V30 6518 C 615.099 2.83912 -5.07709 0
M  V30 6519 N 614.075 3.15798 -4.42462 0
M  V30 6520 H 617.877 1.32285 -2.62446 0
M  V30 6521 H 615.391 0.639708 -1.4927 0
M  V30 6522 H 617.388 3.69032 -1.93962 0
M  V30 6523 H 616.048 3.1161 -0.912655 0
M  V30 6524 H 617.059 2.46876 -4.55272 0
M  V30 6525 H 613.736 3.54411 -2.20678 0
M  V30 6526 H 615.126 2.68984 -6.15709 0
M  V30 6527 N 617.846 1.41785 0.688094 0
M  V30 6528 C 618.756 1.46596 1.83158 0
M  V30 6529 C 619.772 0.355862 1.70322 0
M  V30 6530 O 620.948 0.604737 1.92106 0
M  V30 6531 C 618.013 1.35322 3.192 0
M  V30 6532 C 617.074 2.56711 3.4409 0
M  V30 6533 C 616.307 2.45965 4.73642 0
M  V30 6534 O 616.53 1.48827 5.50642 0
M  V30 6535 O 615.464 3.35859 4.99482 0
M  V30 6536 H 619.29 2.43083 1.82056 0
M  V30 6537 H 616.875 1.23404 0.842126 0
M  V30 6538 H 618.757 1.31347 4.00407 0
M  V30 6539 H 617.432 0.419536 3.2097 0
M  V30 6540 H 616.339 2.66262 2.62784 0
M  V30 6541 H 617.672 3.48933 3.47141 0
M  V30 6542 N 619.324 -0.923095 1.27737 0
M  V30 6543 C 620.272 -2.04567 1.10703 0
M  V30 6544 C 621.266 -1.69375 0.0288445 0
M  V30 6545 O 622.472 -1.79027 0.186913 0
M  V30 6546 H 618.847 -0.670109 0.34126 0
M  V30 6547 H 620.818 -2.1608 2.05796 0
M  V30 6548 C 619.567 -3.38934 0.775837 0
M  V30 6549 H 618.89 -3.66501 1.59741 0
M  V30 6550 H 620.33 -4.18239 0.696548 0
M  V30 6551 C 618.789 -3.32863 -0.520012 0
M  V30 6552 O 619.319 -3.70462 -1.55308 0
M  V30 6553 N 617.525 -2.85958 -0.51732 0
M  V30 6554 H 617.072 -2.55557 0.32379 0
M  V30 6555 H 617.03 -2.82279 -1.38441 0
M  V30 6556 N 620.802 -1.09834 -1.13024 0
M  V30 6557 C 622.032 -0.857657 -1.87957 0
M  V30 6558 C 622.44 0.595008 -1.796 0
M  V30 6559 O 621.783 1.42158 -1.16347 0
M  V30 6560 C 621.845 -1.21949 -3.38185 0
M  V30 6561 C 621.509 -2.67791 -3.7032 0
M  V30 6562 C 622.506 -3.66036 -3.69207 0
M  V30 6563 C 620.191 -3.04019 -3.99847 0
M  V30 6564 C 622.185 -4.98533 -3.9717 0
M  V30 6565 C 619.872 -4.36706 -4.27471 0
M  V30 6566 C 620.87 -5.33772 -4.26118 0
M  V30 6567 O 620.558 -6.64072 -4.53061 0
M  V30 6568 H 620.29 -0.308009 -0.601753 0
M  V30 6569 H 622.844 -1.46496 -1.43973 0
M  V30 6570 H 621.074 -0.555249 -3.82693 0
M  V30 6571 H 622.763 -0.957281 -3.9445 0
M  V30 6572 H 623.529 -3.39392 -3.46465 0
M  V30 6573 H 619.408 -2.29096 -4.00045 0
M  V30 6574 H 622.952 -5.74288 -3.96029 0
M  V30 6575 H 618.849 -4.63091 -4.49685 0
M  V30 6576 H 619.617 -6.69608 -4.7071 0
M  V30 6577 N 622.28 1.30327 -0.886154 0
M  V30 6578 C 623.228 2.30052 -0.343317 0
M  V30 6579 C 624.222 1.60212 0.550305 0
M  V30 6580 O 625.428 1.74674 0.434609 0
M  V30 6581 H 621.803 0.746306 -0.0923681 0
M  V30 6582 H 623.774 2.73294 -1.19804 0
M  V30 6583 C 622.523 3.45079 0.426107 0
M  V30 6584 H 621.846 3.99003 -0.25227 0
M  V30 6585 H 623.286 4.16931 0.771009 0
M  V30 6586 C 621.745 2.95195 1.62363 0
M  V30 6587 O 622.275 2.95323 2.723 0
M  V30 6588 N 620.481 2.51192 1.4612 0
M  V30 6589 H 620.028 2.51286 0.566832 0
M  V30 6590 H 619.986 2.18173 2.2638 0
M  V30 6591 N 623.758 0.647228 1.43697 0
M  V30 6592 C 624.721 -0.0385101 2.29168 0
M  V30 6593 C 625.721 -0.756487 1.41894 0
M  V30 6594 O 626.911 -0.598641 1.63591 0
M  V30 6595 C 624.043 -1.06524 3.23829 0
M  V30 6596 H 625.236 0.713445 2.9129 0
M  V30 6597 H 622.789 0.408153 1.50877 0
M  V30 6598 H 623.524 -1.84664 2.66589 0
M  V30 6599 H 623.309 -0.554147 3.88164 0
M  V30 6600 H 624.799 -1.54432 3.87996 0
M  V30 6601 N 625.236 -1.5273 0.388769 0
M  V30 6602 C 626.484 -2.01174 -0.193208 0
M  V30 6603 C 626.805 -1.27705 -1.47365 0
M  V30 6604 O 626.075 -0.396966 -1.91836 0
M  V30 6605 H 624.655 -0.743287 -0.0743871 0
M  V30 6606 H 627.317 -1.87826 0.520336 0
M  V30 6607 H 626.413 -3.09477 -0.403803 0
M  V30 6608 N 626.714 -0.118576 -1.57153 0
M  V30 6609 C 627.942 0.54726 -1.99531 0
M  V30 6610 C 628.357 1.60251 -0.998246 0
M  V30 6611 O 627.714 1.82498 0.00893106 0
M  V30 6612 C 627.765 1.17378 -3.41913 0
M  V30 6613 O 627.486 0.160703 -4.37805 0
M  V30 6614 C 628.987 1.92297 -3.9942 0
M  V30 6615 H 626.207 0.144919 -0.655164 0
M  V30 6616 H 628.751 -0.20479 -2.03472 0
M  V30 6617 H 626.906 1.87661 -3.38913 0
M  V30 6618 H 627.32 0.61586 -5.20872 0
M  V30 6619 H 628.794 2.31462 -5.01128 0
M  V30 6620 H 629.271 2.79801 -3.38538 0
M  V30 6621 H 629.877 1.26777 -4.05965 0
M  V30 6622 N 628.193 1.56834 0.155195 0
M  V30 6623 C 629.423 1.86778 0.883044 0
M  V30 6624 C 629.831 0.703824 1.75622 0
M  V30 6625 O 629.174 -0.33581 1.80605 0
M  V30 6626 C 629.236 3.1133 1.79761 0
M  V30 6627 C 628.9 4.43504 1.10242 0
M  V30 6628 C 629.897 5.17859 0.460204 0
M  V30 6629 C 627.582 4.90233 1.09437 0
M  V30 6630 C 629.576 6.37144 -0.180782 0
M  V30 6631 C 627.263 6.09444 0.449569 0
M  V30 6632 C 628.261 6.82744 -0.186888 0
M  V30 6633 O 627.949 7.99692 -0.821486 0
M  V30 6634 H 627.681 0.62352 0.261149 0
M  V30 6635 H 630.235 2.04813 0.155204 0
M  V30 6636 H 628.465 2.89282 2.56618 0
M  V30 6637 H 630.154 3.27587 2.39669 0
M  V30 6638 H 630.92 4.8283 0.458289 0
M  V30 6639 H 626.799 4.33109 1.57917 0
M  V30 6640 H 630.343 6.94296 -0.678154 0
M  V30 6641 H 626.24 6.43936 0.449123 0
M  V30 6642 H 627.008 8.15306 -0.722337 0
M  V30 6643 N 629.671 -0.424282 1.51781 0
M  V30 6644 C 630.603 -1.53457 1.70246 0
M  V30 6645 C 631.616 -1.52004 0.582967 0
M  V30 6646 O 632.805 -1.56544 0.857683 0
M  V30 6647 C 629.905 -2.92368 1.71389 0
M  V30 6648 C 629.078 -3.1818 3.00133 0
M  V30 6649 C 628.137 -4.36884 2.9329 0
M  V30 6650 O 627.163 -4.34901 3.67219 0
M  V30 6651 N 628.365 -5.4117 2.10036 0
M  V30 6652 H 631.13 -1.38017 2.66029 0
M  V30 6653 H 628.691 -0.613394 1.4983 0
M  V30 6654 H 630.683 -3.6982 1.64362 0
M  V30 6655 H 629.253 -3.0134 0.831449 0
M  V30 6656 H 628.473 -2.28908 3.20928 0
M  V30 6657 H 629.761 -3.32261 3.85331 0
M  V30 6658 H 629.159 -5.45623 1.49373 0
M  V30 6659 H 627.716 -6.17425 2.08878 0
M  V30 6660 N 631.149 -1.42148 -0.680565 0
M  V30 6661 C 632.097 -1.45401 -1.81552 0
M  V30 6662 C 633.091 -0.33036 -1.66147 0
M  V30 6663 O 634.297 -0.503103 -1.72826 0
M  V30 6664 H 630.672 -0.455265 -0.59853 0
M  V30 6665 H 632.643 -2.41024 -1.75926 0
M  V30 6666 C 631.392 -1.36769 -3.19671 0
M  V30 6667 H 630.715 -2.22525 -3.32149 0
M  V30 6668 H 632.155 -1.43106 -3.9912 0
M  V30 6669 C 630.614 -0.0817752 -3.36801 0
M  V30 6670 O 631.144 0.867707 -3.92216 0
M  V30 6671 N 629.35 -0.000799811 -2.906 0
M  V30 6672 H 628.897 -0.774231 -2.4569 0
M  V30 6673 H 628.855 0.858961 -3.02439 0
M  V30 6674 N 632.627 0.916307 -1.28225 0
M  V30 6675 C 633.904 1.64429 -1.05936 0
M  V30 6676 C 634.284 2.07234 0.402139 0
M  V30 6677 O 633.632 1.81535 1.3877 0
M  V30 6678 C 633.842 2.83773 -2.03159 0
M  V30 6679 C 635.19 3.54852 -2.33164 0
M  V30 6680 O 636.214 2.93918 -2.01223 0
M  V30 6681 O 635.073 4.64663 -2.87664 0
M  V30 6682 H 632.167 0.721221 -0.404683 0
M  V30 6683 H 634.713 0.965838 -1.39534 0
M  V30 6684 H 633.485 2.49217 -3.01673 0
M  V30 6685 H 633.108 3.59333 -1.70192 0
M  V30 6686 N 634.105 1.10431 1.1244 0
M  V30 6687 C 635.354 0.841539 1.83306 0
M  V30 6688 C 635.667 -0.634961 1.85007 0
M  V30 6689 O 636.873 -1.01363 2.51869 0
M  V30 6690 C 635.329 1.45565 3.29149 0
M  V30 6691 C 634.937 2.96544 3.35806 0
M  V30 6692 C 636.681 1.27227 4.04986 0
M  V30 6693 C 634.588 3.5099 4.75983 0
M  V30 6694 H 633.518 0.311156 0.686803 0
M  V30 6695 H 636.169 1.32829 1.26604 0
M  V30 6696 H 634.551 0.896574 3.85717 0
M  V30 6697 H 635.725 3.58766 2.89177 0
M  V30 6698 H 634.04 3.14036 2.73442 0
M  V30 6699 H 636.637 1.65348 5.08492 0
M  V30 6700 H 636.98 0.213834 4.1575 0
M  V30 6701 H 637.513 1.79941 3.54776 0
M  V30 6702 H 634.252 4.56499 4.70413 0
M  V30 6703 H 633.772 2.93535 5.23065 0
M  V30 6704 H 635.451 3.48808 5.44924 0
M  V30 6705 N 635.583 -1.29855 0.893053 0
M  V30 6706 C 636.546 -2.26183 0.370687 0
M  V30 6707 C 637.546 -1.53108 -0.491385 0
M  V30 6708 O 638.736 -1.71643 -0.297386 0
M  V30 6709 C 635.868 -3.37633 -0.470827 0
M  V30 6710 H 637.061 -2.73903 1.22135 0
M  V30 6711 H 634.614 -1.41183 0.67061 0
M  V30 6712 H 635.349 -2.95241 -1.34175 0
M  V30 6713 H 635.134 -3.91825 0.146784 0
M  V30 6714 H 636.624 -4.09313 -0.827825 0
M  V30 6715 N 637.061 -0.65484 -1.43351 0
M  V30 6716 C 637.991 0.0221809 -2.33489 0
M  V30 6717 C 638.972 0.810272 -1.49561 0
M  V30 6718 O 640.157 0.771426 -1.78221 0
M  V30 6719 C 637.287 0.988117 -3.32947 0
M  V30 6720 C 636.241 0.310026 -4.26876 0
M  V30 6721 C 635.567 1.38752 -5.16384 0
M  V30 6722 C 636.867 -0.798589 -5.16159 0
M  V30 6723 H 638.561 -0.730571 -2.9035 0
M  V30 6724 H 636.107 -0.352773 -1.39612 0
M  V30 6725 H 638.06 1.47067 -3.94904 0
M  V30 6726 H 636.784 1.77205 -2.74346 0
M  V30 6727 H 635.443 -0.152097 -3.66284 0
M  V30 6728 H 635.091 2.16293 -4.54121 0
M  V30 6729 H 634.791 0.939051 -5.80048 0
M  V30 6730 H 636.315 1.87141 -5.81215 0
M  V30 6731 H 637.729 -0.398126 -5.71916 0
M  V30 6732 H 636.126 -1.17163 -5.88552 0
M  V30 6733 H 637.196 -1.65588 -4.55751 0
M  V30 6734 N 638.539 1.52521 -0.396863 0
M  V30 6735 C 639.788 2.00857 0.184184 0
M  V30 6736 C 640.101 1.28733 1.47265 0
M  V30 6737 O 641.307 1.67821 2.13421 0
M  V30 6738 C 639.763 3.57901 0.378787 0
M  V30 6739 C 639.371 4.38931 -0.896873 0
M  V30 6740 C 641.115 4.14504 0.915789 0
M  V30 6741 C 639.022 5.87591 -0.670133 0
M  V30 6742 H 637.952 0.750496 0.0726055 0
M  V30 6743 H 640.603 1.75965 -0.520425 0
M  V30 6744 H 638.985 3.79072 1.14543 0
M  V30 6745 H 640.159 4.29524 -1.66872 0
M  V30 6746 H 638.474 3.93586 -1.35938 0
M  V30 6747 H 641.071 5.23236 1.10126 0
M  V30 6748 H 641.414 3.71076 1.88701 0
M  V30 6749 H 641.947 3.97253 0.208523 0
M  V30 6750 H 638.686 6.35355 -1.61257 0
M  V30 6751 H 638.206 5.99767 0.0626368 0
M  V30 6752 H 639.885 6.46268 -0.307577 0
M  V30 6753 N 640.017 0.126909 1.57088 0
M  V30 6754 C 640.927 -0.833867 2.1928 0
M  V30 6755 C 641.943 -1.2868 1.17122 0
M  V30 6756 O 643.119 -1.34815 1.49622 0
M  V30 6757 C 640.184 -2.0632 2.78627 0
M  V30 6758 C 639.245 -1.66143 3.95847 0
M  V30 6759 C 638.478 -2.83217 4.52354 0
M  V30 6760 O 638.701 -3.98868 4.0775 0
M  V30 6761 O 637.635 -2.59846 5.42922 0
M  V30 6762 H 641.461 -0.334564 3.01852 0
M  V30 6763 H 639.046 -0.0991091 1.49071 0
M  V30 6764 H 640.928 -2.78304 3.16425 0
M  V30 6765 H 639.603 -2.55242 1.99082 0
M  V30 6766 H 638.51 -0.912435 3.62802 0
M  V30 6767 H 639.843 -1.21957 4.76852 0
M  V30 6768 N 641.495 -1.56914 -0.146875 0
M  V30 6769 C 642.428 -1.93425 -1.21087 0
M  V30 6770 C 643.406 -0.800106 -1.41552 0
M  V30 6771 O 644.59 -1.05572 -1.56162 0
M  V30 6772 C 641.717 -2.20639 -2.56975 0
M  V30 6773 C 640.763 -3.43279 -2.53104 0
M  V30 6774 S 641.596 -4.96836 -1.99786 0
M  V30 6775 C 642.752 -5.27172 -3.37403 0
M  V30 6776 H 642.985 -2.8337 -0.899378 0
M  V30 6777 H 640.518 -1.50322 -0.352494 0
M  V30 6778 H 642.476 -2.36998 -3.35175 0
M  V30 6779 H 641.137 -1.31357 -2.85314 0
M  V30 6780 H 640.33 -3.59599 -3.53136 0
M  V30 6781 H 639.932 -3.26163 -1.83012 0
M  V30 6782 H 642.224 -5.20647 -4.33513 0
M  V30 6783 H 643.167 -6.28626 -3.25937 0
M  V30 6784 H 643.575 -4.54687 -3.34544 0
M  V30 6785 N 642.974 0.416227 -1.52004 0
M  V30 6786 C 643.921 1.50666 -1.74838 0
M  V30 6787 C 644.891 1.55245 -0.590599 0
M  V30 6788 O 646.076 1.71928 -0.827374 0
M  V30 6789 C 643.216 2.88185 -1.89851 0
M  V30 6790 C 642.329 2.92971 -3.17478 0
M  V30 6791 C 641.464 4.21745 -3.22962 0
M  V30 6792 C 640.503 4.20478 -4.4482 0
M  V30 6793 N 639.64 5.40811 -4.47736 0
M  V30 6794 H 644.48 1.30498 -2.67907 0
M  V30 6795 H 642.017 0.633568 -1.32757 0
M  V30 6796 H 643.975 3.68007 -1.96537 0
M  V30 6797 H 642.605 3.06865 -1.00169 0
M  V30 6798 H 641.657 2.05684 -3.19997 0
M  V30 6799 H 642.969 2.87899 -4.07328 0
M  V30 6800 H 642.123 5.09954 -3.28682 0
M  V30 6801 H 640.862 4.29503 -2.31038 0
M  V30 6802 H 639.867 3.30659 -4.39254 0
M  V30 6803 H 641.092 4.14366 -5.38031 0
M  V30 6804 H 639.038 5.4925 -3.58692 0
M  V30 6805 H 638.955 5.37705 -5.31422 0
M  V30 6806 H 640.223 6.30993 -4.57676 0
M  V30 6807 N 644.452 1.42507 0.673017 0
M  V30 6808 C 645.399 1.46124 1.78651 0
M  V30 6809 C 646.369 0.313007 1.63124 0
M  V30 6810 O 647.554 0.517337 1.83653 0
M  V30 6811 C 644.694 1.3711 3.16694 0
M  V30 6812 C 643.807 2.61983 3.43495 0
M  V30 6813 C 642.942 2.45098 4.71275 0
M  V30 6814 C 641.981 3.65336 4.91117 0
M  V30 6815 N 641.118 3.47383 6.10139 0
M  V30 6816 H 645.958 2.4128 1.74895 0
M  V30 6817 H 643.495 1.19788 0.853766 0
M  V30 6818 H 645.453 1.29881 3.96468 0
M  V30 6819 H 644.083 0.45549 3.1957 0
M  V30 6820 H 643.135 2.79571 2.57961 0
M  V30 6821 H 644.447 3.51355 3.5405 0
M  V30 6822 H 643.601 2.35466 5.59143 0
M  V30 6823 H 642.34 1.53219 4.63007 0
M  V30 6824 H 641.345 3.754 4.0169 0
M  V30 6825 H 642.57 4.58199 5.01229 0
M  V30 6826 H 640.516 2.58222 6.0304 0
M  V30 6827 H 640.433 4.30344 6.21563 0
M  V30 6828 H 641.701 3.41565 7.00681 0
M  V30 6829 N 645.93 -0.909495 1.28709 0
M  V30 6830 C 647.207 -1.63865 1.06806 0
M  V30 6831 C 647.587 -2.07445 -0.391143 0
M  V30 6832 O 646.935 -1.82269 -1.37805 0
M  V30 6833 C 647.145 -2.82692 2.04661 0
M  V30 6834 C 648.493 -3.5361 2.35042 0
M  V30 6835 O 649.517 -2.92847 2.02779 0
M  V30 6836 O 648.376 -4.63131 2.90124 0
M  V30 6837 H 645.47 -0.719065 0.408502 0
M  V30 6838 H 648.016 -0.958424 1.40044 0
M  V30 6839 H 646.788 -2.47614 3.0299 0
M  V30 6840 H 646.411 -3.58426 1.72095 0
M  V30 6841 N 647.408 -1.11026 -1.11852 0
M  V30 6842 C 648.656 -0.854769 -1.83134 0
M  V30 6843 C 648.977 0.621375 -1.84835 0
M  V30 6844 O 648.247 1.45129 -1.31584 0
M  V30 6845 H 646.827 -0.313229 -0.678157 0
M  V30 6846 H 649.489 -1.40178 -1.35411 0
M  V30 6847 H 648.585 -1.22311 -2.87135 0
M  V30 6848 N 648.886 1.2938 -0.899927 0
M  V30 6849 C 649.834 2.29675 -0.367698 0
M  V30 6850 C 650.828 1.60787 0.533282 0
M  V30 6851 O 652.034 1.75126 0.416058 0
M  V30 6852 H 648.409 0.745284 -0.100279 0
M  V30 6853 H 650.38 2.72008 -1.22696 0
M  V30 6854 C 649.129 3.45512 0.389483 0
M  V30 6855 H 648.452 3.98713 -0.294575 0
M  V30 6856 H 649.892 4.17725 0.726744 0
M  V30 6857 C 648.351 2.969 1.59223 0
M  V30 6858 O 648.881 2.98195 2.69152 0
M  V30 6859 N 647.087 2.52728 1.43447 0
M  V30 6860 H 646.634 2.51873 0.540148 0
M  V30 6861 H 646.592 2.20561 2.24054 0
M  V30 6862 N 650.364 0.662433 1.43002 0
M  V30 6863 C 651.311 -0.0235324 2.30788 0
M  V30 6864 C 652.281 -0.805342 1.4527 0
M  V30 6865 O 653.466 -0.78009 1.74124 0
M  V30 6866 C 650.606 -0.977545 3.30965 0
M  V30 6867 C 649.719 -0.190865 4.31578 0
M  V30 6868 C 648.854 -1.13951 5.18834 0
M  V30 6869 C 647.893 -0.343796 6.11134 0
M  V30 6870 N 647.03 -1.2445 6.90982 0
M  V30 6871 H 651.87 0.730921 2.88897 0
M  V30 6872 H 649.407 0.372197 1.42313 0
M  V30 6873 H 651.365 -1.54437 3.87563 0
M  V30 6874 H 649.995 -1.69877 2.74484 0
M  V30 6875 H 649.047 0.492388 3.772 0
M  V30 6876 H 650.359 0.427464 4.96965 0
M  V30 6877 H 649.513 -1.77666 5.80103 0
M  V30 6878 H 648.252 -1.79174 4.53595 0
M  V30 6879 H 647.257 0.30665 5.48944 0
M  V30 6880 H 648.482 0.304161 6.78419 0
M  V30 6881 H 646.428 -1.88336 6.28383 0
M  V30 6882 H 646.345 -0.680959 7.52927 0
M  V30 6883 H 647.613 -1.86952 7.56749 0
M  V30 6884 N 651.842 -1.52309 0.404946 0
M  V30 6885 C 652.789 -2.26898 -0.422597 0
M  V30 6886 C 653.759 -1.2914 -1.04461 0
M  V30 6887 O 654.944 -1.57996 -1.06967 0
M  V30 6888 C 652.084 -3.09053 -1.53559 0
M  V30 6889 C 651.197 -4.21762 -0.934908 0
M  V30 6890 C 650.332 -4.91283 -2.02025 0
M  V30 6891 C 649.371 -5.95962 -1.39628 0
M  V30 6892 N 648.508 -6.59017 -2.42159 0
M  V30 6893 H 653.348 -2.97188 0.219903 0
M  V30 6894 H 650.885 -1.46607 0.120282 0
M  V30 6895 H 652.843 -3.54987 -2.19181 0
M  V30 6896 H 651.473 -2.40942 -2.14818 0
M  V30 6897 H 650.525 -3.80029 -0.167854 0
M  V30 6898 H 651.837 -4.96864 -0.439073 0
M  V30 6899 H 650.991 -5.40601 -2.75383 0
M  V30 6900 H 649.73 -4.15741 -2.54973 0
M  V30 6901 H 648.735 -5.45968 -0.648023 0
M  V30 6902 H 649.96 -6.73445 -0.874553 0
M  V30 6903 H 647.906 -5.86306 -2.94247 0
M  V30 6904 H 647.823 -7.2978 -1.97376 0
M  V30 6905 H 649.091 -7.12974 -3.15099 0
M  V30 6906 N 653.32 -0.135238 -1.57019 0
M  V30 6907 C 654.597 0.563227 -1.87316 0
M  V30 6908 C 654.977 1.83749 -1.03921 0
M  V30 6909 O 654.325 2.2817 -0.122675 0
M  V30 6910 C 654.535 0.840031 -3.3874 0
M  V30 6911 C 655.883 1.18598 -4.077 0
M  V30 6912 O 656.907 0.92977 -3.43851 0
M  V30 6913 O 655.766 1.66758 -5.20436 0
M  V30 6914 H 652.86 0.285971 -0.775983 0
M  V30 6915 H 655.406 -0.170965 -1.68837 0
M  V30 6916 H 654.178 -0.0622785 -3.9125 0
M  V30 6917 H 653.801 1.62882 -3.62706 0
M  V30 6918 N 654.798 1.5699 0.138552 0
M  V30 6919 C 656.038 1.85619 0.855849 0
M  V30 6920 C 656.402 0.720663 1.77962 0
M  V30 6921 O 657.603 0.888221 2.53701 0
M  V30 6922 C 655.874 3.19447 1.60275 0
M  V30 6923 S 657.433 3.69656 2.36431 0
M  V30 6924 H 654.251 0.650926 0.286035 0
M  V30 6925 H 656.853 1.9516 0.115331 0
M  V30 6926 H 655.557 4.00053 0.915737 0
M  V30 6927 H 655.088 3.12935 2.38402 0
M  V30 6928 H 657.103 3.39595 3.61787 0
M  V30 6929 N 656.276 -0.40816 1.52223 0
M  V30 6930 C 657.186 -1.52202 1.78526 0
M  V30 6931 C 658.202 -1.60546 0.670892 0
M  V30 6932 O 659.378 -1.77242 0.956404 0
M  V30 6933 C 656.443 -2.87928 1.93128 0
M  V30 6934 C 655.504 -2.89463 3.17033 0
M  V30 6935 C 654.737 -4.18715 3.30929 0
M  V30 6936 O 654.96 -5.12662 2.50067 0
M  V30 6937 O 653.894 -4.27125 4.24084 0
M  V30 6938 H 657.72 -1.32911 2.73072 0
M  V30 6939 H 655.305 -0.594112 1.37079 0
M  V30 6940 H 657.187 -3.68426 2.04549 0
M  V30 6941 H 655.862 -3.07285 1.01772 0
M  V30 6942 H 654.769 -2.07815 3.11069 0
M  V30 6943 H 656.102 -2.75055 4.08174 0
M  V30 6944 N 657.755 -1.42862 -0.66545 0
M  V30 6945 C 658.685 -1.49867 -1.79059 0
M  V30 6946 C 659.666 -0.354394 -1.66367 0
M  V30 6947 O 660.851 -0.569969 -1.85647 0
M  V30 6948 C 657.981 -1.40943 -3.17415 0
M  V30 6949 C 656.935 -2.53495 -3.44854 0
M  V30 6950 C 656.261 -2.29626 -4.82883 0
M  V30 6951 C 657.561 -3.95781 -3.40815 0
M  V30 6952 H 659.255 -2.44037 -1.73453 0
M  V30 6953 H 656.801 -1.17456 -0.833071 0
M  V30 6954 H 658.754 -1.4445 -3.95869 0
M  V30 6955 H 657.478 -0.432716 -3.23721 0
M  V30 6956 H 656.137 -2.4932 -2.68766 0
M  V30 6957 H 655.785 -1.30226 -4.8585 0
M  V30 6958 H 655.485 -3.05065 -5.02204 0
M  V30 6959 H 657.009 -2.34897 -5.63609 0
M  V30 6960 H 658.423 -4.01508 -4.09224 0
M  V30 6961 H 656.82 -4.71148 -3.71672 0
M  V30 6962 H 657.89 -4.21786 -2.39216 0
M  V30 6963 N 659.233 0.902656 -1.29189 0
M  V30 6964 C 660.644 1.46809 -1.15343 0
M  V30 6965 C 660.995 1.94568 0.252517 0
M  V30 6966 O 660.12 1.83454 1.14777 0
M  V30 6967 C 660.715 2.66829 -2.08776 0
M  V30 6968 C 659.274 3.19518 -1.98961 0
M  V30 6969 C 658.421 1.92212 -1.99874 0
M  V30 6970 H 661.372 0.714282 -1.41717 0
M  V30 6971 H 661.393 3.42465 -1.65826 0
M  V30 6972 H 660.905 2.32039 -3.11094 0
M  V30 6973 H 659.006 3.59008 -0.99721 0
M  V30 6974 H 659.119 3.84016 -2.86477 0
M  V30 6975 H 657.483 2.0979 -1.44431 0
M  V30 6976 H 658.266 1.59702 -3.03891 0
M  V30 6977 N 660.711 1.11618 1.11262 0
M  V30 6978 C 662.127 0.850468 1.35053 0
M  V30 6979 C 662.327 -0.523868 1.94571 0
M  V30 6980 O 661.383 -1.2743 2.17986 0
M  V30 6981 C 662.696 1.96005 2.28041 0
M  V30 6982 C 664.244 1.98993 2.416 0
M  V30 6983 C 664.719 3.0916 3.37911 0
M  V30 6984 N 666.21 3.08547 3.45475 0
M  V30 6985 C 666.945 3.9043 4.19943 0
M  V30 6986 N 666.441 4.8228 4.97371 0
M  V30 6987 N 668.234 3.786 4.15474 0
M  V30 6988 H 660.385 2.00184 0.709932 0
M  V30 6989 H 662.648 0.870635 0.375099 0
M  V30 6990 H 662.354 2.9499 1.91503 0
M  V30 6991 H 662.228 1.85782 3.28275 0
M  V30 6992 H 664.615 1.00633 2.77411 0
M  V30 6993 H 664.696 2.13292 1.4121 0
M  V30 6994 H 664.34 4.07748 3.02827 0
M  V30 6995 H 664.27 2.92102 4.3816 0
M  V30 6996 H 666.761 2.42 2.90249 0
M  V30 6997 H 667.074 5.41289 5.51567 0
M  V30 6998 H 665.419 4.863 4.96525 0
M  V30 6999 H 668.61 3.06185 3.54074 0
M  V30 7000 H 668.783 4.42647 4.73253 0
M  V30 7001 N 662.189 -1.289 0.906776 0
M  V30 7002 C 663.414 -1.99939 0.551303 0
M  V30 7003 C 663.839 -1.67366 -0.858496 0
M  V30 7004 O 663.197 -0.902176 -1.57259 0
M  V30 7005 C 663.245 -3.52523 0.758937 0
M  V30 7006 O 662.349 -4.11983 -0.185308 0
M  V30 7007 H 661.69 -0.628376 0.214568 0
M  V30 7008 H 664.22 -1.64225 1.2203 0
M  V30 7009 H 664.23 -4.02522 0.666329 0
M  V30 7010 H 662.905 -3.75566 1.78671 0
M  V30 7011 H 661.482 -3.72873 -0.0445577 0
M  V30 7012 N 663.667 -0.670007 -1.42649 0
M  V30 7013 C 664.916 -0.187526 -2.00826 0
M  V30 7014 C 665.229 1.21142 -1.53571 0
M  V30 7015 O 666.435 1.79001 -2.04134 0
M  V30 7016 C 664.891 -0.284409 -3.58774 0
M  V30 7017 C 664.499 -1.6871 -4.15019 0
M  V30 7018 C 666.243 0.139605 -4.2427 0
M  V30 7019 C 664.15 -1.73701 -5.65316 0
M  V30 7020 H 663.08 -0.0663468 -0.751075 0
M  V30 7021 H 665.731 -0.834492 -1.63427 0
M  V30 7022 H 664.113 0.430364 -3.93655 0
M  V30 7023 H 665.287 -2.42857 -3.91608 0
M  V30 7024 H 663.602 -2.05855 -3.61957 0
M  V30 7025 H 666.199 0.122398 -5.3456 0
M  V30 7026 H 666.542 1.17403 -3.99402 0
M  V30 7027 H 667.075 -0.523995 -3.94334 0
M  V30 7028 H 663.814 -2.75109 -5.94975 0
M  V30 7029 H 663.334 -1.03903 -5.90732 0
M  V30 7030 H 665.013 -1.48829 -6.2965 0
M  V30 7031 N 665.145 1.52092 -0.413018 0
M  V30 7032 C 666.556 1.86617 0.0556967 0
M  V30 7033 C 666.907 1.33156 1.44097 0
M  V30 7034 O 666.032 0.672417 2.05688 0
M  V30 7035 C 666.627 3.38628 0.107844 0
M  V30 7036 C 665.186 3.72778 0.520904 0
M  V30 7037 C 664.333 2.75649 -0.302109 0
M  V30 7038 H 667.284 1.45663 -0.629919 0
M  V30 7039 H 667.305 3.69152 0.922324 0
M  V30 7040 H 666.817 3.77508 -0.900506 0
M  V30 7041 H 664.918 3.39478 1.53575 0
M  V30 7042 H 665.031 4.7838 0.262591 0
M  V30 7043 H 663.395 2.53603 0.236115 0
M  V30 7044 H 664.178 3.17369 -1.30888 0
M  V30 7045 N 666.623 0.143563 1.56945 0
M  V30 7046 C 667.586 -0.783295 2.154 0
M  V30 7047 C 668.586 -1.17763 1.09492 0
M  V30 7048 O 669.776 -1.09912 1.35148 0
M  V30 7049 C 666.908 -2.06248 2.7143 0
M  V30 7050 H 668.101 -0.274863 2.98638 0
M  V30 7051 H 665.654 -0.105859 1.55941 0
M  V30 7052 H 666.389 -2.61466 1.91849 0
M  V30 7053 H 666.174 -1.78897 3.4891 0
M  V30 7054 H 667.664 -2.72453 3.16479 0
M  V30 7055 N 668.101 -1.57061 -0.130224 0
M  V30 7056 C 669.341 -1.86071 -0.845993 0
M  V30 7057 C 669.705 -0.73009 -1.77577 0
M  V30 7058 O 670.906 -0.901663 -2.53226 0
M  V30 7059 C 669.177 -3.20293 -1.58579 0
M  V30 7060 S 670.736 -3.70905 -2.34467 0
M  V30 7061 H 667.554 -0.652434 -0.282579 0
M  V30 7062 H 670.156 -1.95218 -0.10498 0
M  V30 7063 H 668.86 -4.00533 -0.894509 0
M  V30 7064 H 668.391 -3.14195 -2.36739 0
M  V30 7065 H 670.406 -3.41509 -3.59981 0
M  V30 7066 N 669.579 0.400081 -1.52437 0
M  V30 7067 C 670.825 1.14788 -1.67187 0
M  V30 7068 C 671.158 1.89928 -0.405074 0
M  V30 7069 O 670.433 1.85118 0.596804 0
M  V30 7070 C 670.716 2.13507 -2.89977 0
M  V30 7071 C 670.569 1.42204 -4.2673 0
M  V30 7072 C 671.888 3.14069 -3.083 0
M  V30 7073 H 669.007 0.415939 -0.608411 0
M  V30 7074 H 671.649 0.432542 -1.85011 0
M  V30 7075 H 669.799 2.7451 -2.74912 0
M  V30 7076 H 671.471 0.842503 -4.53541 0
M  V30 7077 H 669.714 0.723939 -4.27717 0
M  V30 7078 H 670.385 2.14281 -5.08712 0
M  V30 7079 H 672.861 2.63148 -3.22323 0
M  V30 7080 H 671.737 3.80398 -3.95713 0
M  V30 7081 H 671.998 3.82309 -2.22018 0
M  V30 7082 N 671.057 1.43213 0.657864 0
M  V30 7083 C 672.468 1.39669 1.23893 0
M  V30 7084 C 672.819 0.0984217 1.95953 0
M  V30 7085 O 671.944 -0.8023 2.00978 0
M  V30 7086 C 672.539 2.53004 2.25332 0
M  V30 7087 C 671.098 2.5274 2.78926 0
M  V30 7088 C 670.245 2.30941 1.53497 0
M  V30 7089 H 673.196 1.52181 0.450172 0
M  V30 7090 H 673.217 2.24226 3.07413 0
M  V30 7091 H 672.729 3.4748 1.72856 0
M  V30 7092 H 670.83 1.6213 3.35477 0
M  V30 7093 H 670.943 3.50352 3.26787 0
M  V30 7094 H 669.307 1.7952 1.80678 0
M  V30 7095 H 670.09 3.27496 1.02963 0
M  V30 7096 N 672.536 -0.895792 1.29666 0
M  V30 7097 C 673.782 -1.64921 1.19049 0
M  V30 7098 C 674.137 -1.90707 -0.254678 0
M  V30 7099 O 673.43 -1.5092 -1.18041 0
M  V30 7100 C 673.624 -3.00075 1.94139 0
M  V30 7101 C 673.453 -2.87482 3.4581 0
M  V30 7102 C 672.223 -2.88041 4.15163 0
M  V30 7103 C 674.421 -2.64224 4.41237 0
M  V30 7104 N 672.403 -2.66226 5.5317 0
M  V30 7105 C 673.774 -2.51427 5.66732 0
M  V30 7106 C 675.829 -2.49362 4.30956 0
M  V30 7107 C 674.532 -2.25281 6.83111 0
M  V30 7108 C 676.558 -2.246 5.47091 0
M  V30 7109 C 675.92 -2.12571 6.7156 0
M  V30 7110 H 672.019 -0.608926 0.490646 0
M  V30 7111 H 674.603 -1.05648 1.63544 0
M  V30 7112 H 672.774 -3.574 1.52052 0
M  V30 7113 H 674.506 -3.64544 1.75754 0
M  V30 7114 H 671.261 -2.99471 3.66898 0
M  V30 7115 H 671.685 -2.58361 6.25762 0
M  V30 7116 H 676.327 -2.57403 3.35415 0
M  V30 7117 H 674.045 -2.15978 7.78704 0
M  V30 7118 H 677.631 -2.13939 5.41037 0
M  V30 7119 H 676.511 -1.93676 7.59907 0
M  V30 7120 N 674.014 -1.12206 -1.10668 0
M  V30 7121 C 675.239 -0.898938 -1.86906 0
M  V30 7122 C 675.664 0.546346 -1.79991 0
M  V30 7123 O 675.022 1.38655 -1.1681 0
M  V30 7124 C 675.07 -1.37529 -3.33344 0
M  V30 7125 O 674.174 -0.55218 -4.08687 0
M  V30 7126 H 673.515 -0.323163 -0.580053 0
M  V30 7127 H 676.045 -1.49355 -1.39837 0
M  V30 7128 H 676.055 -1.3733 -3.84193 0
M  V30 7129 H 674.73 -2.42767 -3.37693 0
M  V30 7130 H 673.307 -0.620947 -3.67694 0
M  V30 7131 N 675.492 1.28418 -0.913599 0
M  V30 7132 C 676.903 1.77024 -0.593237 0
M  V30 7133 C 677.254 1.74779 0.891441 0
M  V30 7134 O 676.379 1.34237 1.69733 0
M  V30 7135 C 676.974 3.21456 -1.07011 0
M  V30 7136 C 675.533 3.67786 -0.800664 0
M  V30 7137 C 674.68 2.48185 -1.23691 0
M  V30 7138 H 677.631 1.14883 -1.09487 0
M  V30 7139 H 677.652 3.78269 -0.411481 0
M  V30 7140 H 677.164 3.23058 -2.1507 0
M  V30 7141 H 675.265 3.71644 0.266725 0
M  V30 7142 H 675.378 4.57934 -1.4083 0
M  V30 7143 H 673.742 2.46116 -0.655655 0
M  V30 7144 H 674.525 2.52506 -2.32585 0
M  V30 7145 N 676.97 0.677563 1.42291 0
M  V30 7146 C 678.2 0.209155 2.05539 0
M  V30 7147 C 678.608 -1.13987 1.51009 0
M  V30 7148 O 677.951 -1.71976 0.645764 0
M  V30 7149 C 678.013 0.0697758 3.59432 0
M  V30 7150 C 677.677 1.34795 4.36668 0
M  V30 7151 C 678.674 2.28201 4.67141 0
M  V30 7152 C 676.359 1.59632 4.76259 0
M  V30 7153 C 678.353 3.44718 5.36142 0
M  V30 7154 C 676.04 2.76437 5.45 0
M  V30 7155 C 677.038 3.68805 5.74867 0
M  V30 7156 O 676.726 4.83567 6.42198 0
M  V30 7157 H 676.458 0.0986202 0.668768 0
M  V30 7158 H 679.012 0.925483 1.83368 0
M  V30 7159 H 677.242 -0.702157 3.80272 0
M  V30 7160 H 678.931 -0.359115 4.04308 0
M  V30 7161 H 679.697 2.10264 4.37052 0
M  V30 7162 H 675.576 0.886073 4.52404 0
M  V30 7163 H 679.12 4.16833 5.59371 0
M  V30 7164 H 675.017 2.94299 5.74507 0
M  V30 7165 H 675.785 4.83147 6.6069 0
M  V30 7166 N 678.448 -1.51871 0.421078 0
M  V30 7167 C 679.378 -2.30231 -0.389363 0
M  V30 7168 C 680.359 -1.34946 -1.03555 0
M  V30 7169 O 681.544 -1.63859 -1.04229 0
M  V30 7170 C 678.674 -3.13247 -1.49979 0
M  V30 7171 C 677.628 -4.16677 -0.977966 0
M  V30 7172 C 676.954 -4.88112 -2.1829 0
M  V30 7173 C 678.254 -5.22295 -0.0236775 0
M  V30 7174 H 679.948 -2.98229 0.264524 0
M  V30 7175 H 677.494 -1.43424 0.12866 0
M  V30 7176 H 679.447 -3.66838 -2.07383 0
M  V30 7177 H 678.171 -2.4304 -2.18173 0
M  V30 7178 H 676.83 -3.64114 -0.426245 0
M  V30 7179 H 676.478 -4.14423 -2.85066 0
M  V30 7180 H 676.178 -5.58041 -1.84021 0
M  V30 7181 H 677.702 -5.44521 -2.76278 0
M  V30 7182 H 679.116 -5.71055 -0.506899 0
M  V30 7183 H 677.513 -5.99656 0.230782 0
M  V30 7184 H 678.583 -4.76131 0.917999 0
M  V30 7185 N 679.926 -0.151884 -1.56866 0
M  V30 7186 C 681.173 0.498004 -1.96281 0
M  V30 7187 C 681.501 1.64551 -1.03698 0
M  V30 7188 O 680.756 1.95585 -0.0671497 0
M  V30 7189 C 681.055 1.04074 -3.41911 0
M  V30 7190 C 680.721 0.0111688 -4.50899 0
M  V30 7191 C 679.383 -0.271844 -4.80432 0
M  V30 7192 C 681.735 -0.68869 -5.1663 0
M  V30 7193 C 679.063 -1.26044 -5.73001 0
M  V30 7194 C 681.415 -1.66613 -6.10264 0
M  V30 7195 C 680.079 -1.9568 -6.38174 0
M  V30 7196 H 679.349 0.182233 -0.718242 0
M  V30 7197 H 681.996 -0.239746 -1.89993 0
M  V30 7198 H 680.301 1.85592 -3.45055 0
M  V30 7199 H 681.998 1.55224 -3.69738 0
M  V30 7200 H 678.588 0.241932 -4.27917 0
M  V30 7201 H 682.772 -0.48324 -4.93942 0
M  V30 7202 H 678.028 -1.49202 -5.92915 0
M  V30 7203 H 682.202 -2.21392 -6.60272 0
M  V30 7204 H 679.829 -2.72434 -7.09707 0
M  V30 7205 N 681.404 1.57128 0.121893 0
M  V30 7206 C 682.336 1.96773 1.17529 0
M  V30 7207 C 683.349 0.866668 1.37814 0
M  V30 7208 O 684.538 1.14497 1.3694 0
M  V30 7209 C 681.638 2.24832 2.53582 0
M  V30 7210 C 680.811 3.56138 2.53939 0
M  V30 7211 C 679.87 3.72443 3.71716 0
M  V30 7212 O 678.896 4.44584 3.55434 0
M  V30 7213 N 680.098 3.10993 4.90167 0
M  V30 7214 H 682.863 2.87743 0.838086 0
M  V30 7215 H 680.424 1.58881 0.311199 0
M  V30 7216 H 682.416 2.32958 3.30927 0
M  V30 7217 H 680.986 1.40002 2.79496 0
M  V30 7218 H 680.206 3.59226 1.62329 0
M  V30 7219 H 681.494 4.42448 2.51231 0
M  V30 7220 H 680.892 2.52345 5.06299 0
M  V30 7221 H 679.449 3.24644 5.65198 0
M  V30 7222 N 682.882 -0.391992 1.52647 0
M  V30 7223 C 684.293 -0.970064 1.5952 0
M  V30 7224 C 684.644 -1.91059 0.446207 0
M  V30 7225 O 683.769 -2.12062 -0.431125 0
M  V30 7226 C 684.364 -1.76614 2.89125 0
M  V30 7227 C 682.923 -2.29396 2.9842 0
M  V30 7228 C 682.07 -1.09864 2.54608 0
M  V30 7229 H 685.021 -0.171638 1.57769 0
M  V30 7230 H 685.042 -2.62511 2.75442 0
M  V30 7231 H 684.554 -1.08135 3.72731 0
M  V30 7232 H 682.655 -3.01196 2.19344 0
M  V30 7233 H 682.768 -2.59088 4.03002 0
M  V30 7234 H 681.132 -1.45777 2.08857 0
M  V30 7235 H 681.915 -0.429249 3.40606 0
M  V30 7236 N 684.36 -1.4356 -0.65026 0
M  V30 7237 C 685.308 -1.49219 -1.78427 0
M  V30 7238 C 686.302 -0.365528 -1.65409 0
M  V30 7239 O 687.508 -0.539649 -1.7172 0
M  V30 7240 H 683.883 -0.467858 -0.588738 0
M  V30 7241 H 685.854 -2.44701 -1.70774 0
M  V30 7242 C 684.603 -1.43519 -3.16698 0
M  V30 7243 H 683.926 -2.2952 -3.27354 0
M  V30 7244 H 685.366 -1.5154 -3.95995 0
M  V30 7245 C 683.825 -0.153197 -3.36552 0
M  V30 7246 O 684.355 0.784317 -3.93969 0
M  V30 7247 N 682.561 -0.0624402 -2.90533 0
M  V30 7248 H 682.108 -0.826172 -2.43992 0
M  V30 7249 H 682.066 0.794616 -3.04193 0
M  V30 7250 N 685.838 0.888903 -1.30139 0
M  V30 7251 C 687.115 1.62145 -1.094 0
M  V30 7252 C 687.495 2.08041 0.358091 0
M  V30 7253 O 686.843 1.84438 1.34888 0
M  V30 7254 C 687.053 2.794 -2.09133 0
M  V30 7255 C 688.401 3.49826 -2.40638 0
M  V30 7256 O 689.425 2.89583 -2.07412 0
M  V30 7257 O 688.284 4.58457 -2.97455 0
M  V30 7258 H 685.378 0.712475 -0.41989 0
M  V30 7259 H 687.924 0.936023 -1.41551 0
M  V30 7260 H 686.696 2.42762 -3.06891 0
M  V30 7261 H 686.319 3.55643 -1.77776 0
M  V30 7262 N 687.317 1.12792 1.10072 0
M  V30 7263 C 688.545 0.908506 1.85886 0
M  V30 7264 C 688.96 -0.542408 1.80841 0
M  V30 7265 O 688.317 -1.37517 1.1998 0
M  V30 7266 C 688.368 1.37973 3.34134 0
M  V30 7267 O 688.089 2.77378 3.39106 0
M  V30 7268 C 689.59 1.1978 4.26811 0
M  V30 7269 H 686.81 0.3244 0.587372 0
M  V30 7270 H 689.354 1.49882 1.39125 0
M  V30 7271 H 687.509 0.832566 3.78348 0
M  V30 7272 H 687.923 2.98144 4.31521 0
M  V30 7273 H 689.397 1.57635 5.29014 0
M  V30 7274 H 689.874 0.138768 4.38981 0
M  V30 7275 H 690.48 1.73266 3.88406 0
M  V30 7276 N 688.795 -1.27931 0.920396 0
M  V30 7277 C 690.035 -1.96459 0.564198 0
M  V30 7278 C 690.399 -1.70802 -0.876967 0
M  V30 7279 O 691.6 -2.32956 -1.34107 0
M  V30 7280 C 689.871 -3.46583 0.872641 0
M  V30 7281 S 691.43 -4.34343 0.623859 0
M  V30 7282 H 688.248 -0.679735 0.208523 0
M  V30 7283 H 690.85 -1.55319 1.18727 0
M  V30 7284 H 689.554 -3.62753 1.91933 0
M  V30 7285 H 689.085 -3.92677 0.238479 0
M  V30 7286 H 691.1 -4.93449 -0.521744 0
M  V30 7287 N 690.273 -0.685099 -1.4193 0
M  V30 7288 C 691.522 -0.208816 -2.00616 0
M  V30 7289 C 691.835 1.19506 -1.54847 0
M  V30 7290 O 693.041 1.76826 -2.06021 0
M  V30 7291 C 691.497 -0.322446 -3.58453 0
M  V30 7292 C 691.105 -1.73102 -4.13206 0
M  V30 7293 C 692.849 0.0945979 -4.24395 0
M  V30 7294 C 690.756 -1.79687 -5.63442 0
M  V30 7295 H 689.686 -0.0743092 -0.750329 0
M  V30 7296 H 692.337 -0.851778 -1.62533 0
M  V30 7297 H 690.719 0.388588 -3.94089 0
M  V30 7298 H 691.893 -2.46997 -3.8901 0
M  V30 7299 H 690.208 -2.09682 -3.59753 0
M  V30 7300 H 692.805 0.0656937 -5.3466 0
M  V30 7301 H 693.148 1.1316 -4.00625 0
M  V30 7302 H 693.681 -0.56579 -3.93756 0
M  V30 7303 H 690.42 -2.81404 -5.92024 0
M  V30 7304 H 689.94 -1.10162 -5.89597 0
M  V30 7305 H 691.619 -1.55498 -6.28036 0
M  V30 7306 N 691.751 1.51645 -0.429126 0
M  V30 7307 C 692.997 2.02314 0.140286 0
M  V30 7308 C 693.33 1.31314 1.43074 0
M  V30 7309 O 692.605 0.425531 1.89788 0
M  V30 7310 C 692.888 3.5822 0.36749 0
M  V30 7311 C 692.741 4.39846 -0.941039 0
M  V30 7312 C 694.06 4.25055 1.14089 0
M  V30 7313 H 691.179 0.735335 0.0495112 0
M  V30 7314 H 693.821 1.81358 -0.566514 0
M  V30 7315 H 691.971 3.76207 0.969556 0
M  V30 7316 H 693.643 4.33527 -1.57646 0
M  V30 7317 H 691.886 4.05259 -1.54751 0
M  V30 7318 H 692.557 5.47069 -0.73621 0
M  V30 7319 H 695.033 4.11288 0.630986 0
M  V30 7320 H 693.909 5.34038 1.26863 0
M  V30 7321 H 694.17 3.85358 2.16683 0
M  V30 7322 N 693.229 0.160201 1.56784 0
M  V30 7323 C 694.454 -0.497373 2.01348 0
M  V30 7324 C 694.879 -1.56757 1.03966 0
M  V30 7325 O 694.237 -1.81292 0.0174455 0
M  V30 7326 C 694.285 -1.0628 3.44582 0
M  V30 7327 O 693.389 -2.17723 3.50244 0
M  V30 7328 H 692.73 -0.120295 0.653012 0
M  V30 7329 H 695.26 0.260821 2.02931 0
M  V30 7330 H 695.27 -1.38819 3.83658 0
M  V30 7331 H 693.945 -0.279166 4.14962 0
M  V30 7332 H 692.522 -1.86313 3.2302 0
M  V30 7333 N 694.707 -1.5719 -0.113559 0
M  V30 7334 C 695.955 -1.84772 -0.818761 0
M  V30 7335 C 696.276 -0.746196 -1.80158 0
M  V30 7336 O 695.546 0.229305 -1.94553 0
M  V30 7337 H 694.126 -0.681737 -0.305359 0
M  V30 7338 H 696.788 -1.94645 -0.0995845 0
M  V30 7339 H 695.884 -2.80878 -1.36067 0
M  V30 7340 N 696.185 0.383891 -1.52853 0
M  V30 7341 C 697.431 1.12667 -1.69345 0
M  V30 7342 C 697.786 1.87519 -0.430635 0
M  V30 7343 O 697.079 1.82742 0.575846 0
M  V30 7344 C 697.273 2.12881 -2.87082 0
M  V30 7345 C 697.102 1.47873 -4.24692 0
M  V30 7346 C 695.872 1.24064 -4.89833 0
M  V30 7347 C 698.07 0.926118 -5.05893 0
M  V30 7348 N 696.052 0.552138 -6.11412 0
M  V30 7349 C 697.423 0.365966 -6.18919 0
M  V30 7350 C 699.478 0.823023 -4.91051 0
M  V30 7351 C 698.181 -0.287204 -7.18726 0
M  V30 7352 C 700.207 0.183666 -5.91115 0
M  V30 7353 C 699.569 -0.365693 -7.0345 0
M  V30 7354 H 695.668 0.398064 -0.673104 0
M  V30 7355 H 698.252 0.415504 -1.90215 0
M  V30 7356 H 696.423 2.81329 -2.67784 0
M  V30 7357 H 698.155 2.79703 -2.92486 0
M  V30 7358 H 694.91 1.51701 -4.48647 0
M  V30 7359 H 695.334 0.223783 -6.7663 0
M  V30 7360 H 699.976 1.23354 -4.04405 0
M  V30 7361 H 697.694 -0.709719 -8.04977 0
M  V30 7362 H 701.28 0.105074 -5.81705 0
M  V30 7363 H 700.16 -0.85261 -7.79551 0
M  V30 7364 N 697.663 1.43903 0.642637 0
M  V30 7365 C 698.911 1.45791 1.39962 0
M  V30 7366 C 699.232 0.0873144 1.94804 0
M  V30 7367 O 698.502 -0.878825 1.75081 0
M  V30 7368 H 697.082 0.536797 0.519479 0
M  V30 7369 H 699.744 1.7959 0.757189 0
M  V30 7370 H 698.84 2.17665 2.2367 0
M  V30 7371 N 699.141 -0.881989 1.30609 0
M  V30 7372 C 700.557 -1.16576 1.09005 0
M  V30 7373 C 700.757 -2.00961 -0.14727 0
M  V30 7374 O 699.813 -2.38117 -0.840036 0
M  V30 7375 C 701.126 -1.86954 2.35518 0
M  V30 7376 C 702.674 -1.99706 2.41011 0
M  V30 7377 C 703.149 -2.73497 3.67374 0
M  V30 7378 N 704.64 -2.8104 3.68199 0
M  V30 7379 C 705.375 -3.38718 4.62664 0
M  V30 7380 N 704.871 -3.97421 5.67475 0
M  V30 7381 N 706.664 -3.36561 4.50203 0
M  V30 7382 H 698.815 -0.319398 2.09985 0
M  V30 7383 H 701.078 -0.204058 0.925778 0
M  V30 7384 H 700.784 -1.32393 3.2583 0
M  V30 7385 H 700.658 -2.87317 2.44395 0
M  V30 7386 H 703.045 -2.53436 1.51176 0
M  V30 7387 H 703.126 -0.984218 2.36108 0
M  V30 7388 H 702.77 -2.20438 4.57569 0
M  V30 7389 H 702.7 -3.75163 3.6954 0
M  V30 7390 H 705.191 -2.39365 2.92426 0
M  V30 7391 H 705.504 -4.39507 6.35652 0
M  V30 7392 H 703.849 -3.95832 5.71264 0
M  V30 7393 H 707.04 -2.8993 3.67503 0
M  V30 7394 H 707.213 -3.81215 5.24003 0
M  V30 7395 N 700.619 -1.13374 -1.09472 0
M  V30 7396 C 701.529 -0.824029 -2.19652 0
M  V30 7397 C 702.545 0.19118 -1.72947 0
M  V30 7398 O 703.721 0.0223464 -2.01388 0
M  V30 7399 C 700.786 -0.294009 -3.45451 0
M  V30 7400 C 699.847 -1.3704 -4.0684 0
M  V30 7401 C 699.08 -0.86558 -5.26634 0
M  V30 7402 O 699.303 0.29702 -5.69626 0
M  V30 7403 O 698.237 -1.63968 -5.79136 0
M  V30 7404 H 702.063 -1.74454 -2.48595 0
M  V30 7405 H 699.648 -0.911155 -1.18399 0
M  V30 7406 H 701.53 -0.00381039 -4.214 0
M  V30 7407 H 700.205 0.598921 -3.18111 0
M  V30 7408 H 699.112 -1.71391 -3.3253 0
M  V30 7409 H 700.445 -2.23746 -4.38405 0
M  V30 7410 N 702.098 1.27442 -0.927168 0
M  V30 7411 C 703.045 2.26863 -0.424459 0
M  V30 7412 C 704.015 1.5813 0.508346 0
M  V30 7413 O 705.2 1.85946 0.42762 0
M  V30 7414 C 702.34 3.43639 0.31718 0
M  V30 7415 C 701.453 4.27087 -0.649675 0
M  V30 7416 C 700.588 5.31082 0.111753 0
M  V30 7417 C 699.627 6.062 -0.847843 0
M  V30 7418 N 698.764 7.01999 -0.119074 0
M  V30 7419 H 703.604 2.69239 -1.27728 0
M  V30 7420 H 701.141 1.32394 -0.641106 0
M  V30 7421 H 703.099 4.10155 0.763486 0
M  V30 7422 H 701.729 3.02217 1.13424 0
M  V30 7423 H 700.781 3.60491 -1.21451 0
M  V30 7424 H 702.093 4.79242 -1.38307 0
M  V30 7425 H 701.247 6.03544 0.618 0
M  V30 7426 H 699.986 4.7973 0.878114 0
M  V30 7427 H 698.991 5.32577 -1.36534 0
M  V30 7428 H 700.216 6.59642 -1.61398 0
M  V30 7429 H 698.162 6.52977 0.629051 0
M  V30 7430 H 698.079 7.5184 -0.792046 0
M  V30 7431 H 699.347 7.78638 0.366537 0
M  V30 7432 N 703.576 0.692616 1.41565 0
M  V30 7433 C 704.853 0.150496 1.9502 0
M  V30 7434 C 705.233 -1.33881 1.63215 0
M  V30 7435 O 704.581 -2.08378 0.937598 0
M  V30 7436 C 704.791 0.438636 3.46233 0
M  V30 7437 C 706.139 0.364777 4.2303 0
M  V30 7438 O 707.163 0.373383 3.54238 0
M  V30 7439 O 706.022 0.32234 5.45549 0
M  V30 7440 H 703.116 0.0132454 0.826894 0
M  V30 7441 H 705.662 0.768574 1.51298 0
M  V30 7442 H 704.434 1.46962 3.62654 0
M  V30 7443 H 704.057 -0.210562 3.97042 0
M  V30 7444 N 705.054 -1.51416 0.437162 0
M  V30 7445 C 706.002 -2.29328 -0.388765 0
M  V30 7446 C 706.996 -1.35171 -1.02104 0
M  V30 7447 O 708.202 -1.52513 -0.956024 0
M  V30 7448 H 704.577 -0.738048 -0.144183 0
M  V30 7449 H 706.548 -2.96995 0.289212 0
M  V30 7450 C 705.297 -3.14741 -1.47761 0
M  V30 7451 H 704.62 -3.8708 -1.00045 0
M  V30 7452 H 706.06 -3.72313 -2.02877 0
M  V30 7453 C 704.519 -2.30105 -2.46076 0
M  V30 7454 O 705.049 -1.96055 -3.50607 0
M  V30 7455 N 703.255 -1.93331 -2.1696 0
M  V30 7456 H 702.802 -2.2122 -1.31983 0
M  V30 7457 H 702.76 -1.36999 -2.82982 0
M  V30 7458 N 706.532 -0.168513 -1.56696 0
M  V30 7459 C 707.442 0.775435 -2.21414 0
M  V30 7460 C 708.458 1.25529 -1.20492 0
M  V30 7461 O 709.634 1.30801 -1.53144 0
M  V30 7462 C 706.699 1.9886 -2.83999 0
M  V30 7463 C 705.76 1.5559 -4.00113 0
M  V30 7464 C 704.993 2.71124 -4.59704 0
M  V30 7465 O 705.216 3.87917 -4.18182 0
M  V30 7466 O 704.15 2.4536 -5.4962 0
M  V30 7467 H 707.976 0.254416 -3.02632 0
M  V30 7468 H 705.561 0.0595507 -1.49281 0
M  V30 7469 H 707.443 2.69816 -3.23693 0
M  V30 7470 H 706.118 2.49874 -2.05779 0
M  V30 7471 H 705.025 0.815924 -3.65094 0
M  V30 7472 H 706.358 1.09271 -4.79917 0
M  V30 7473 N 708.01 1.57248 0.105221 0
M  V30 7474 C 709.426 1.52853 0.459153 0
M  V30 7475 C 709.626 0.883674 1.8109 0
M  V30 7476 O 708.682 0.471864 2.48052 0
M  V30 7477 C 709.995 2.97596 0.43096 0
M  V30 7478 C 711.543 3.08758 0.513536 0
M  V30 7479 C 712.018 4.55089 0.515593 0
M  V30 7480 N 713.509 4.59597 0.576639 0
M  V30 7481 C 714.244 5.70253 0.599904 0
M  V30 7482 N 713.74 6.90368 0.579985 0
M  V30 7483 N 715.533 5.58399 0.643953 0
M  V30 7484 H 707.684 1.97547 -0.780306 0
M  V30 7485 H 709.947 0.902758 -0.289363 0
M  V30 7486 H 709.653 3.48201 -0.494903 0
M  V30 7487 H 709.527 3.55756 1.2537 0
M  V30 7488 H 711.914 2.58148 1.42982 0
M  V30 7489 H 711.995 2.53568 -0.337148 0
M  V30 7490 H 711.639 5.06348 -0.396701 0
M  V30 7491 H 711.569 5.08105 1.38335 0
M  V30 7492 H 714.06 3.73144 0.597639 0
M  V30 7493 H 714.373 7.70462 0.600741 0
M  V30 7494 H 712.718 6.92843 0.547191 0
M  V30 7495 H 715.909 4.63467 0.656975 0
M  V30 7496 H 716.082 6.44644 0.658616 0
M  V30 7497 N 709.488 -0.375779 1.53054 0
M  V30 7498 C 710.734 -1.12114 1.68992 0
M  V30 7499 C 711.067 -1.8926 0.435238 0
M  V30 7500 O 710.342 -1.86044 -0.567278 0
M  V30 7501 C 710.625 -2.08867 2.93337 0
M  V30 7502 C 710.478 -1.35397 4.28938 0
M  V30 7503 C 711.797 -3.09124 3.13257 0
M  V30 7504 H 708.916 -0.406207 0.614951 0
M  V30 7505 H 711.558 -0.403054 1.85676 0
M  V30 7506 H 709.708 -2.70102 2.79244 0
M  V30 7507 H 711.38 -0.770242 4.54824 0
M  V30 7508 H 709.623 -0.655801 4.28814 0
M  V30 7509 H 710.294 -2.06161 5.12056 0
M  V30 7510 H 712.77 -2.57987 3.26469 0
M  V30 7511 H 711.646 -3.74054 4.01715 0
M  V30 7512 H 711.907 -3.78729 2.28072 0
M  V30 7513 N 710.966 -1.44241 -0.634997 0
M  V30 7514 C 712.213 -1.46821 -1.39463 0
M  V30 7515 C 712.541 -0.0993362 -1.94246 0
M  V30 7516 O 711.796 0.898325 -1.73864 0
M  V30 7517 C 712.095 -2.47279 -2.58046 0
M  V30 7518 C 711.761 -3.92703 -2.21574 0
M  V30 7519 C 710.423 -4.32306 -2.1134 0
M  V30 7520 C 712.775 -4.84271 -1.92695 0
M  V30 7521 C 710.103 -5.61407 -1.70409 0
M  V30 7522 C 712.455 -6.13755 -1.53258 0
M  V30 7523 C 711.119 -6.52316 -1.41562 0
M  V30 7524 H 710.389 -0.537256 -0.51033 0
M  V30 7525 H 713.036 -1.77431 -0.720441 0
M  V30 7526 H 711.341 -2.10138 -3.3068 0
M  V30 7527 H 713.038 -2.46523 -3.16271 0
M  V30 7528 H 709.628 -3.61369 -2.30456 0
M  V30 7529 H 713.812 -4.54432 -1.99513 0
M  V30 7530 H 709.068 -5.90105 -1.59955 0
M  V30 7531 H 713.242 -6.84168 -1.29949 0
M  V30 7532 H 710.869 -7.52255 -1.09619 0
M  V30 7533 N 712.444 0.87505 -1.31075 0
M  V30 7534 C 713.669 1.66583 -1.23551 0
M  V30 7535 C 714.094 1.87067 0.19686 0
M  V30 7536 O 713.452 1.40877 1.1412 0
M  V30 7537 C 713.5 3.01401 -1.97965 0
M  V30 7538 O 712.604 3.90923 -1.31351 0
M  V30 7539 H 711.945 0.508645 -0.426821 0
M  V30 7540 H 714.475 1.09139 -1.7306 0
M  V30 7541 H 714.485 3.51374 -2.07366 0
M  V30 7542 H 713.16 2.85812 -3.02133 0
M  V30 7543 H 711.737 3.49369 -1.30368 0
M  V30 7544 N 713.922 1.13953 1.08869 0
M  V30 7545 C 714.852 0.844824 2.17681 0
M  V30 7546 C 715.833 -0.198213 1.68941 0
M  V30 7547 O 717.018 -0.0559073 1.9412 0
M  V30 7548 C 714.148 0.316325 3.45856 0
M  V30 7549 C 713.102 1.29426 4.07962 0
M  V30 7550 C 712.428 0.625275 5.31031 0
M  V30 7551 C 713.728 2.65484 4.49795 0
M  V30 7552 H 715.422 1.75471 2.42591 0
M  V30 7553 H 712.968 0.845116 1.16592 0
M  V30 7554 H 714.921 0.0977876 4.21287 0
M  V30 7555 H 713.645 -0.628972 3.20486 0
M  V30 7556 H 712.304 1.49889 3.34558 0
M  V30 7557 H 711.952 -0.325678 5.01945 0
M  V30 7558 H 711.652 1.27777 5.73539 0
M  V30 7559 H 713.176 0.416152 6.0918 0
M  V30 7560 H 714.59 2.48957 5.16424 0
M  V30 7561 H 712.987 3.26963 5.03205 0
M  V30 7562 H 714.057 3.22717 3.61914 0
M  V30 7563 N 715.4 -1.26948 0.933913 0
M  V30 7564 C 716.332 -2.25768 0.395137 0
M  V30 7565 C 717.345 -1.55637 -0.477585 0
M  V30 7566 O 718.534 -1.76142 -0.289204 0
M  V30 7567 C 715.634 -3.35874 -0.451882 0
M  V30 7568 C 714.807 -4.3554 0.40299 0
M  V30 7569 C 713.866 -5.24809 -0.3824 0
M  V30 7570 O 712.892 -5.68805 0.212057 0
M  V30 7571 N 714.094 -5.55636 -1.68072 0
M  V30 7572 H 716.859 -2.72634 1.24463 0
M  V30 7573 H 714.42 -1.40639 0.802008 0
M  V30 7574 H 716.412 -3.92542 -0.984516 0
M  V30 7575 H 714.982 -2.8856 -1.20215 0
M  V30 7576 H 714.202 -3.78047 1.11688 0
M  V30 7577 H 715.49 -4.99131 0.987201 0
M  V30 7578 H 714.888 -5.2176 -2.18592 0
M  V30 7579 H 713.445 -6.14978 -2.15975 0
M  V30 7580 N 716.879 -0.700114 -1.41195 0
M  V30 7581 C 718.125 -0.242122 -2.01954 0
M  V30 7582 C 718.48 1.14697 -1.54475 0
M  V30 7583 O 717.773 1.76392 -0.748095 0
M  V30 7584 C 717.967 -0.243986 -3.56566 0
M  V30 7585 C 717.796 -1.63172 -4.19053 0
M  V30 7586 C 716.566 -2.23566 -4.53152 0
M  V30 7587 C 718.764 -2.57916 -4.44954 0
M  V30 7588 N 716.746 -3.54856 -5.00949 0
M  V30 7589 C 718.117 -3.73892 -4.94576 0
M  V30 7590 C 720.172 -2.56125 -4.26971 0
M  V30 7591 C 718.875 -4.88363 -5.28104 0
M  V30 7592 C 720.901 -3.69712 -4.61592 0
M  V30 7593 C 720.263 -4.84418 -5.11389 0
M  V30 7594 H 716.362 -0.134088 -0.770418 0
M  V30 7595 H 718.946 -0.918576 -1.71669 0
M  V30 7596 H 717.117 0.401971 -3.86314 0
M  V30 7597 H 718.849 0.229261 -4.0405 0
M  V30 7598 H 715.604 -1.75809 -4.39759 0
M  V30 7599 H 716.028 -4.22167 -5.29249 0
M  V30 7600 H 720.67 -1.68656 -3.87705 0
M  V30 7601 H 718.388 -5.76488 -5.66292 0
M  V30 7602 H 721.974 -3.69583 -4.49332 0
M  V30 7603 H 720.854 -5.70855 -5.37675 0
M  V30 7604 N 718.357 1.51182 -0.445186 0
M  V30 7605 C 719.605 2.01753 0.11841 0
M  V30 7606 C 719.926 1.33087 1.42523 0
M  V30 7607 O 719.196 0.467891 1.9023 0
M  V30 7608 H 717.776 0.745536 0.0467492 0
M  V30 7609 H 720.438 1.85765 -0.589688 0
M  V30 7610 H 719.534 3.10762 0.288665 0
M  V30 7611 N 719.835 0.176821 1.56605 0
M  V30 7612 C 720.745 -0.763682 2.21822 0
M  V30 7613 C 721.761 -1.24889 1.21156 0
M  V30 7614 O 722.937 -1.29987 1.53836 0
M  V30 7615 C 720.002 -1.97352 2.8505 0
M  V30 7616 C 719.063 -1.53466 4.00932 0
M  V30 7617 C 718.296 -2.68682 4.61135 0
M  V30 7618 O 718.519 -3.85694 4.20234 0
M  V30 7619 O 717.453 -2.42442 5.50913 0
M  V30 7620 H 721.279 -0.238363 3.02763 0
M  V30 7621 H 718.864 -0.0516331 1.49311 0
M  V30 7622 H 720.746 -2.68096 3.25119 0
M  V30 7623 H 719.421 -2.48779 2.07101 0
M  V30 7624 H 718.328 -0.796551 3.65521 0
M  V30 7625 H 719.661 -1.06724 4.8049 0
M  V30 7626 N 721.313 -1.57302 -0.09688 0
M  V30 7627 C 722.559 -1.86273 -0.801885 0
M  V30 7628 C 722.892 -0.765694 -1.78468 0
M  V30 7629 O 722.167 0.226495 -1.93177 0
M  V30 7630 C 722.45 -3.25876 -1.53221 0
M  V30 7631 C 722.303 -4.46205 -0.567529 0
M  V30 7632 C 723.622 -3.63352 -2.48321 0
M  V30 7633 H 720.741 -0.67752 -0.29006 0
M  V30 7634 H 723.383 -1.89887 -0.0655577 0
M  V30 7635 H 721.533 -3.22926 -2.15988 0
M  V30 7636 H 723.205 -4.6127 0.0529982 0
M  V30 7637 H 721.448 -4.33636 0.119233 0
M  V30 7638 H 722.119 -5.40608 -1.11564 0
M  V30 7639 H 724.595 -3.67234 -1.95648 0
M  V30 7640 H 723.471 -4.61968 -2.9644 0
M  V30 7641 H 723.732 -2.91941 -3.31998 0
M  V30 7642 N 722.791 0.367657 -1.53252 0
M  V30 7643 C 723.738 1.45028 -1.79543 0
M  V30 7644 C 724.708 1.53288 -0.63969 0
M  V30 7645 O 725.893 1.69209 -0.881653 0
M  V30 7646 C 723.033 2.82 -1.98923 0
M  V30 7647 C 722.146 2.82722 -3.26638 0
M  V30 7648 C 721.281 4.11257 -3.36216 0
M  V30 7649 C 720.32 4.06113 -4.57972 0
M  V30 7650 N 719.457 5.26293 -4.64715 0
M  V30 7651 H 724.297 1.21908 -2.71923 0
M  V30 7652 H 721.834 0.591011 -1.34705 0
M  V30 7653 H 723.792 3.61568 -2.08146 0
M  V30 7654 H 722.422 3.03523 -1.09881 0
M  V30 7655 H 721.474 1.95399 -3.26379 0
M  V30 7656 H 722.786 2.74794 -4.16281 0
M  V30 7657 H 721.94 4.99239 -3.44739 0
M  V30 7658 H 720.679 4.21935 -2.44586 0
M  V30 7659 H 719.684 3.16517 -4.49552 0
M  V30 7660 H 720.909 3.97039 -5.50942 0
M  V30 7661 H 718.855 5.37561 -3.75985 0
M  V30 7662 H 718.772 5.20526 -5.4826 0
M  V30 7663 H 720.04 6.16113 -4.77519 0
M  V30 7664 N 724.269 1.44576 0.627338 0
M  V30 7665 C 725.199 1.54562 1.75022 0
M  V30 7666 C 726.18 0.398378 1.65369 0
M  V30 7667 O 727.365 0.61899 1.84071 0
M  V30 7668 C 724.495 1.49309 3.13567 0
M  V30 7669 C 723.449 2.62549 3.38012 0
M  V30 7670 C 722.775 2.42348 4.76625 0
M  V30 7671 C 724.075 4.04678 3.30202 0
M  V30 7672 H 725.769 2.4855 1.66922 0
M  V30 7673 H 723.315 1.19624 0.801636 0
M  V30 7674 H 725.268 1.54895 3.919 0
M  V30 7675 H 723.992 0.518392 3.2246 0
M  V30 7676 H 722.651 2.56358 2.62061 0
M  V30 7677 H 722.299 1.43062 4.82226 0
M  V30 7678 H 721.999 3.18273 4.93939 0
M  V30 7679 H 723.523 2.49758 5.57183 0
M  V30 7680 H 724.937 4.12217 3.98435 0
M  V30 7681 H 723.334 4.80836 3.5905 0
M  V30 7682 H 724.404 4.2798 2.27949 0
M  V30 7683 N 725.747 -0.868086 1.31537 0
M  V30 7684 C 726.996 -1.61607 1.20689 0
M  V30 7685 C 727.309 -1.94204 -0.233275 0
M  V30 7686 O 728.515 -2.67515 -0.463465 0
M  V30 7687 C 726.971 -2.91348 2.11292 0
M  V30 7688 C 726.579 -2.66227 3.60315 0
M  V30 7689 C 728.323 -3.69344 2.09249 0
M  V30 7690 C 726.23 -3.91887 4.42921 0
M  V30 7691 H 725.16 -0.606373 0.448138 0
M  V30 7692 H 727.811 -0.959666 1.56405 0
M  V30 7693 H 726.193 -3.58374 1.68477 0
M  V30 7694 H 727.367 -2.07597 4.11388 0
M  V30 7695 H 725.682 -2.01582 3.64354 0
M  V30 7696 H 728.279 -4.62567 2.68209 0
M  V30 7697 H 728.622 -4.02044 1.0801 0
M  V30 7698 H 729.155 -3.09205 2.50274 0
M  V30 7699 H 725.894 -3.64336 5.44922 0
M  V30 7700 H 725.414 -4.49961 3.96605 0
M  V30 7701 H 727.093 -4.59754 4.55231 0
M  V30 7702 N 727.225 -1.14528 -1.08264 0
M  V30 7703 C 728.45 -0.938381 -1.84957 0
M  V30 7704 C 728.875 0.508044 -1.81109 0
M  V30 7705 O 728.233 1.36146 -1.19724 0
M  V30 7706 C 728.281 -1.44568 -3.30352 0
M  V30 7707 O 727.385 -0.638745 -4.07423 0
M  V30 7708 H 726.726 -0.335394 -0.573068 0
M  V30 7709 H 729.256 -1.52287 -1.36637 0
M  V30 7710 H 729.266 -1.45449 -3.81194 0
M  V30 7711 H 727.941 -2.49876 -3.32468 0
M  V30 7712 H 726.518 -0.698801 -3.66294 0
M  V30 7713 N 728.703 1.26451 -0.940633 0
M  V30 7714 C 729.651 2.28389 -0.440581 0
M  V30 7715 C 730.645 1.62402 0.481859 0
M  V30 7716 O 731.851 1.76361 0.360132 0
M  V30 7717 H 728.226 0.741716 -0.123938 0
M  V30 7718 H 730.197 2.67967 -1.31288 0
M  V30 7719 C 728.946 3.46576 0.279364 0
M  V30 7720 H 728.269 3.97574 -0.421274 0
M  V30 7721 H 729.709 4.19826 0.59348 0
M  V30 7722 C 728.168 3.01815 1.49697 0
M  V30 7723 O 728.698 3.06607 2.59529 0
M  V30 7724 N 726.904 2.57163 1.35334 0
M  V30 7725 H 726.451 2.53464 0.459743 0
M  V30 7726 H 726.409 2.27578 2.16923 0
M  V30 7727 N 730.181 0.707592 1.40822 0
M  V30 7728 C 731.421 0.247986 2.0289 0
M  V30 7729 C 731.785 -1.13484 1.54872 0
M  V30 7730 O 732.986 -1.69098 2.08948 0
M  V30 7731 C 731.257 0.316326 3.55997 0
M  V30 7732 S 732.816 -0.0674698 4.38748 0
M  V30 7733 H 729.634 0.09895 0.704081 0
M  V30 7734 H 732.236 0.928039 1.72069 0
M  V30 7735 H 730.94 1.32453 3.88438 0
M  V30 7736 H 730.471 -0.382474 3.91536 0
M  V30 7737 H 732.486 -1.29182 4.79089 0
M  V30 7738 N 731.66 -1.50943 0.453197 0
M  V30 7739 C 732.885 -2.07116 -0.108463 0
M  V30 7740 C 733.31 -1.31681 -1.3432 0
M  V30 7741 O 732.668 -0.359256 -1.77705 0
M  V30 7742 C 732.716 -3.58447 -0.393424 0
M  V30 7743 O 731.82 -3.85038 -1.47714 0
M  V30 7744 H 731.161 -0.66398 0.0050993 0
M  V30 7745 H 733.691 -1.94362 0.639095 0
M  V30 7746 H 733.701 -4.02961 -0.639222 0
M  V30 7747 H 732.376 -4.12774 0.508946 0
M  V30 7748 H 730.953 -3.52376 -1.22006 0
M  V30 7749 N 733.138 -0.185124 -1.56509 0
M  V30 7750 C 734.085 0.739729 -2.18624 0
M  V30 7751 C 735.055 1.217 -1.13042 0
M  V30 7752 O 736.24 1.28268 -1.41251 0
M  V30 7753 C 733.38 1.95787 -2.84186 0
M  V30 7754 C 732.493 1.52289 -4.04267 0
M  V30 7755 C 731.628 2.69576 -4.57714 0
M  V30 7756 C 730.667 2.22636 -5.70175 0
M  V30 7757 N 729.804 3.33065 -6.18071 0
M  V30 7758 H 734.644 0.203269 -2.97306 0
M  V30 7759 H 732.181 0.0885946 -1.46833 0
M  V30 7760 H 734.139 2.67253 -3.20361 0
M  V30 7761 H 732.769 2.4678 -2.08085 0
M  V30 7762 H 731.821 0.704458 -3.7382 0
M  V30 7763 H 733.133 1.13843 -4.85635 0
M  V30 7764 H 732.287 3.4918 -4.96143 0
M  V30 7765 H 731.026 3.1129 -3.75433 0
M  V30 7766 H 730.031 1.41483 -5.31284 0
M  V30 7767 H 731.256 1.81964 -6.54267 0
M  V30 7768 H 729.202 3.74328 -5.38715 0
M  V30 7769 H 729.119 2.98756 -6.94464 0
M  V30 7770 H 730.387 4.12912 -6.61153 0
M  V30 7771 N 734.616 1.57351 0.0885366 0
M  V30 7772 C 735.863 1.86419 0.790824 0
M  V30 7773 C 736.191 0.774561 1.78412 0
M  V30 7774 O 735.446 -0.23119 1.9433 0
M  V30 7775 C 735.745 3.22098 1.5488 0
M  V30 7776 C 735.411 4.4548 0.697025 0
M  V30 7777 C 734.073 4.78975 0.462237 0
M  V30 7778 C 736.425 5.21094 0.105315 0
M  V30 7779 C 733.753 5.85507 -0.374016 0
M  V30 7780 C 736.105 6.28509 -0.718298 0
M  V30 7781 C 734.769 6.60515 -0.963116 0
M  V30 7782 H 734.039 0.682157 0.289383 0
M  V30 7783 H 736.686 1.91429 0.0520961 0
M  V30 7784 H 734.991 3.12803 2.35927 0
M  V30 7785 H 736.688 3.41819 2.09669 0
M  V30 7786 H 733.278 4.19255 0.890137 0
M  V30 7787 H 737.462 4.95544 0.273856 0
M  V30 7788 H 732.718 6.08713 -0.572606 0
M  V30 7789 H 736.892 6.86268 -1.18362 0
M  V30 7790 H 734.519 7.42893 -1.6129 0
M  V30 7791 N 736.094 -0.359525 1.53444 0
M  V30 7792 C 737.324 -1.12036 1.73585 0
M  V30 7793 C 737.732 -1.83335 0.467438 0
M  V30 7794 O 737.075 -1.74641 -0.569753 0
M  V30 7795 C 737.137 -2.19036 2.85068 0
M  V30 7796 C 736.801 -1.67451 4.25217 0
M  V30 7797 C 737.798 -1.13534 5.07352 0
M  V30 7798 C 735.483 -1.72781 4.71648 0
M  V30 7799 C 737.477 -0.656321 6.34012 0
M  V30 7800 C 735.164 -1.2449 5.98285 0
M  V30 7801 C 736.162 -0.710068 6.79299 0
M  V30 7802 O 735.85 -0.234314 8.03558 0
M  V30 7803 H 735.582 -0.340662 0.583888 0
M  V30 7804 H 738.136 -0.422452 2.01009 0
M  V30 7805 H 736.366 -2.92338 2.53131 0
M  V30 7806 H 738.055 -2.80559 2.93328 0
M  V30 7807 H 738.821 -1.08751 4.7265 0
M  V30 7808 H 734.7 -2.13351 4.08659 0
M  V30 7809 H 738.244 -0.238193 6.97193 0
M  V30 7810 H 734.141 -1.28969 6.32485 0
M  V30 7811 H 734.909 -0.353084 8.17738 0
M  V30 7812 N 737.572 -1.44907 -0.619662 0
M  V30 7813 C 738.82 -1.47999 -1.37625 0
M  V30 7814 C 739.141 -0.118295 -1.94641 0
M  V30 7815 O 738.411 0.85086 -1.76457 0
M  V30 7816 H 736.991 -0.544993 -0.510873 0
M  V30 7817 H 739.653 -1.80772 -0.728522 0
M  V30 7818 H 738.749 -2.21196 -2.20179 0
M  V30 7819 N 739.05 0.861098 -1.31996 0
M  V30 7820 C 739.998 1.99052 -1.20337 0
M  V30 7821 C 740.992 1.69045 -0.109623 0
M  V30 7822 O 742.198 1.77931 -0.272117 0
M  V30 7823 H 738.573 0.653064 -0.372843 0
M  V30 7824 H 740.544 2.06015 -2.15872 0
M  V30 7825 C 739.293 3.34846 -0.936663 0
M  V30 7826 H 738.616 3.58462 -1.77045 0
M  V30 7827 H 740.056 4.1444 -0.895302 0
M  V30 7828 C 738.515 3.34965 0.360607 0
M  V30 7829 O 739.045 3.7745 1.37456 0
M  V30 7830 N 737.251 2.88101 0.380296 0
M  V30 7831 H 736.798 2.53721 -0.445351 0
M  V30 7832 H 736.756 2.88563 1.24816 0
M  V30 7833 N 740.528 1.15101 1.07655 0
M  V30 7834 C 741.944 0.893004 1.32279 0
M  V30 7835 C 742.144 -0.461701 1.96139 0
M  V30 7836 O 741.2 -1.20431 2.21929 0
M  V30 7837 C 742.513 2.03161 2.21689 0
M  V30 7838 C 744.061 2.06579 2.35147 0
M  V30 7839 C 744.536 3.19754 3.27905 0
M  V30 7840 N 746.027 3.19382 3.35484 0
M  V30 7841 C 746.762 4.03592 4.07309 0
M  V30 7842 N 746.258 4.97859 4.81776 0
M  V30 7843 N 748.051 3.91626 4.03219 0
M  V30 7844 H 740.202 2.02341 0.645886 0
M  V30 7845 H 742.465 0.882127 0.347211 0
M  V30 7846 H 742.171 3.00934 1.82021 0
M  V30 7847 H 742.045 1.96132 3.22199 0
M  V30 7848 H 744.432 1.09408 2.74069 0
M  V30 7849 H 744.513 2.17676 1.34353 0
M  V30 7850 H 744.157 4.17175 2.89702 0
M  V30 7851 H 744.087 3.05893 4.28645 0
M  V30 7852 H 746.578 2.51112 2.82403 0
M  V30 7853 H 746.891 5.58563 5.34067 0
M  V30 7854 H 745.236 5.0185 4.80803 0
M  V30 7855 H 748.427 3.17295 3.44154 0
M  V30 7856 H 748.6 4.57479 4.5893 0
M  V30 7857 N 742.006 -1.2595 0.947325 0
M  V30 7858 C 743.253 -1.93463 0.598178 0
M  V30 7859 C 743.581 -1.74271 -0.863705 0
M  V30 7860 O 742.836 -1.07684 -1.63409 0
M  V30 7861 C 743.135 -3.46034 0.894158 0
M  V30 7862 C 742.801 -3.85373 2.3409 0
M  V30 7863 C 741.463 -3.95823 2.73637 0
M  V30 7864 C 743.815 -4.04986 3.2808 0
M  V30 7865 C 741.143 -4.23288 4.06257 0
M  V30 7866 C 743.495 -4.3394 4.60303 0
M  V30 7867 C 742.159 -4.42606 4.99656 0
M  V30 7868 H 741.429 -0.707933 0.218889 0
M  V30 7869 H 744.076 -1.4964 1.19499 0
M  V30 7870 H 742.381 -3.9121 0.214874 0
M  V30 7871 H 744.078 -3.96445 0.602698 0
M  V30 7872 H 740.668 -3.7779 2.02417 0
M  V30 7873 H 744.852 -3.96333 2.9872 0
M  V30 7874 H 740.108 -4.28211 4.36401 0
M  V30 7875 H 744.282 -4.48061 5.33118 0
M  V30 7876 H 741.909 -4.63641 6.02446 0
M  V30 7877 N 743.484 -0.715051 -1.40445 0
M  V30 7878 C 744.714 -0.263576 -2.04912 0
M  V30 7879 C 745.122 1.09943 -1.53978 0
M  V30 7880 O 744.465 1.70203 -0.691133 0
M  V30 7881 C 744.527 -0.165048 -3.59121 0
M  V30 7882 C 744.191 -1.46325 -4.32941 0
M  V30 7883 C 745.188 -2.40506 -4.60926 0
M  V30 7884 C 742.873 -1.72203 -4.7186 0
M  V30 7885 C 744.867 -3.58812 -5.26814 0
M  V30 7886 C 742.554 -2.9079 -5.3748 0
M  V30 7887 C 743.552 -3.83917 -5.64887 0
M  V30 7888 O 743.24 -5.00424 -6.29151 0
M  V30 7889 H 742.972 -0.116317 -0.665918 0
M  V30 7890 H 745.526 -0.973774 -1.8085 0
M  V30 7891 H 743.756 0.601088 -3.82 0
M  V30 7892 H 745.445 0.251794 -4.05118 0
M  V30 7893 H 746.211 -2.21778 -4.31323 0
M  V30 7894 H 742.09 -1.00571 -4.49896 0
M  V30 7895 H 745.634 -4.31517 -5.48123 0
M  V30 7896 H 741.531 -3.09428 -5.66502 0
M  V30 7897 H 742.299 -5.00494 -6.47648 0
M  V30 7898 N 744.962 1.50701 -0.461195 0
M  V30 7899 C 745.872 2.32069 0.343661 0
M  V30 7900 C 746.888 1.42016 1.00535 0
M  V30 7901 O 748.064 1.75077 0.995498 0
M  V30 7902 C 745.129 3.16424 1.41692 0
M  V30 7903 C 744.19 4.22286 0.772869 0
M  V30 7904 C 743.423 5.02609 1.79499 0
M  V30 7905 O 743.646 4.83874 3.0203 0
M  V30 7906 O 742.58 5.86047 1.3723 0
M  V30 7907 H 746.406 3.01996 -0.321268 0
M  V30 7908 H 743.991 1.47723 -0.223235 0
M  V30 7909 H 745.873 3.68795 2.03883 0
M  V30 7910 H 744.548 2.49236 2.0655 0
M  V30 7911 H 743.455 3.73931 0.112277 0
M  V30 7912 H 744.788 4.91915 0.167399 0
M  V30 7913 N 746.441 0.193421 1.56409 0
M  V30 7914 C 747.388 -0.728124 2.19014 0
M  V30 7915 C 748.358 -1.21098 1.13686 0
M  V30 7916 O 749.543 -1.27517 1.4193 0
M  V30 7917 C 746.683 -1.94277 2.8522 0
M  V30 7918 C 745.796 -1.50143 4.05069 0
M  V30 7919 C 744.931 -2.67145 4.59137 0
M  V30 7920 C 743.97 -2.19609 5.71348 0
M  V30 7921 N 743.107 -3.29782 6.19829 0
M  V30 7922 H 747.947 -0.187499 2.9741 0
M  V30 7923 H 745.484 -0.0808064 1.46878 0
M  V30 7924 H 747.442 -2.65551 3.21774 0
M  V30 7925 H 746.072 -2.45673 2.09391 0
M  V30 7926 H 745.124 -0.684624 3.74189 0
M  V30 7927 H 746.436 -1.11266 4.86232 0
M  V30 7928 H 745.59 -3.46544 4.97988 0
M  V30 7929 H 744.329 -3.09295 3.77078 0
M  V30 7930 H 743.334 -1.38664 5.32027 0
M  V30 7931 H 744.559 -1.78492 6.55223 0
M  V30 7932 H 742.505 -3.71466 5.40693 0
M  V30 7933 H 742.422 -2.95069 6.96039 0
M  V30 7934 H 743.69 -4.094 6.63334 0
M  V30 7935 N 747.919 -1.57396 -0.0801906 0
M  V30 7936 C 748.829 -2.06451 -1.11423 0
M  V30 7937 C 749.845 -0.992352 -1.42928 0
M  V30 7938 O 751.021 -1.30651 -1.53272 0
M  V30 7939 C 748.086 -2.49164 -2.41077 0
M  V30 7940 C 747.147 -3.70641 -2.16619 0
M  V30 7941 C 746.38 -4.11307 -3.40092 0
M  V30 7942 O 746.603 -3.51922 -4.48895 0
M  V30 7943 O 745.537 -5.04157 -3.288 0
M  V30 7944 H 749.363 -2.94857 -0.727519 0
M  V30 7945 H 746.948 -1.46484 -0.293743 0
M  V30 7946 H 748.83 -2.77196 -3.17396 0
M  V30 7947 H 747.505 -1.6389 -2.79145 0
M  V30 7948 H 746.412 -3.47703 -1.38033 0
M  V30 7949 H 747.745 -4.5674 -1.83437 0
M  V30 7950 N 749.397 0.351382 -1.53633 0
M  V30 7951 C 750.33 1.45407 -1.75875 0
M  V30 7952 C 751.308 1.50822 -0.607566 0
M  V30 7953 O 752.492 1.68658 -0.841818 0
M  V30 7954 C 749.619 2.8369 -1.85034 0
M  V30 7955 C 748.665 2.95935 -3.07123 0
M  V30 7956 S 749.498 2.63215 -4.66345 0
M  V30 7957 C 750.654 4.03622 -4.78373 0
M  V30 7958 H 750.887 1.26322 -2.69128 0
M  V30 7959 H 748.42 0.546581 -1.44402 0
M  V30 7960 H 750.378 3.6336 -1.90996 0
M  V30 7961 H 749.039 3.00076 -0.928074 0
M  V30 7962 H 748.232 3.97243 -3.10183 0
M  V30 7963 H 747.834 2.24205 -2.99346 0
M  V30 7964 H 750.126 4.98046 -4.593 0
M  V30 7965 H 751.069 4.05559 -5.80454 0
M  V30 7966 H 751.477 3.91282 -4.06889 0
M  V30 7967 N 750.875 1.45233 0.611969 0
M  V30 7968 C 751.785 1.56098 1.7513 0
M  V30 7969 C 752.801 0.445646 1.68196 0
M  V30 7970 O 753.977 0.705718 1.88631 0
M  V30 7971 C 751.042 1.52052 3.11579 0
M  V30 7972 C 750.103 2.74589 3.29999 0
M  V30 7973 C 749.336 2.70726 4.59938 0
M  V30 7974 O 749.559 1.77806 5.41979 0
M  V30 7975 O 748.493 3.61864 4.80976 0
M  V30 7976 H 752.319 2.52392 1.68914 0
M  V30 7977 H 749.904 1.27695 0.775528 0
M  V30 7978 H 751.786 1.52387 3.92882 0
M  V30 7979 H 750.461 0.589085 3.18295 0
M  V30 7980 H 749.368 2.79817 2.48301 0
M  V30 7981 H 750.701 3.66843 3.28157 0
M  V30 7982 N 752.353 -0.854086 1.3245 0
M  V30 7983 C 753.593 -1.62216 1.2436 0
M  V30 7984 C 753.957 -1.91042 -0.191564 0
M  V30 7985 O 755.158 -2.65864 -0.396211 0
M  V30 7986 C 753.429 -2.9066 2.0797 0
M  V30 7987 S 754.988 -3.81438 2.16911 0
M  V30 7988 H 751.806 -0.556386 0.442669 0
M  V30 7989 H 754.408 -1.01139 1.67305 0
M  V30 7990 H 753.112 -2.6743 3.11302 0
M  V30 7991 H 752.643 -3.56753 1.65805 0
M  V30 7992 H 754.658 -4.78347 1.31903 0
M  V30 7993 N 753.831 -1.1567 -1.07043 0
M  V30 7994 C 754.794 -0.858906 -2.12498 0
M  V30 7995 C 755.794 0.142735 -1.60165 0
M  V30 7996 O 756.984 -0.0872678 -1.73981 0
M  V30 7997 C 754.116 -0.283021 -3.39723 0
M  V30 7998 H 755.309 -1.79368 -2.40348 0
M  V30 7999 H 752.862 -0.964608 -1.22984 0
M  V30 8000 H 753.597 0.659796 -3.17517 0
M  V30 8001 H 753.382 -1.00467 -3.7901 0
M  V30 8002 H 754.872 -0.0923543 -4.17498 0
M  V30 8003 N 755.309 1.25446 -0.953992 0
M  V30 8004 C 756.557 1.92762 -0.607227 0
M  V30 8005 C 756.878 1.7509 0.858399 0
M  V30 8006 O 756.148 1.11416 1.61132 0
M  V30 8007 H 754.728 0.713377 -0.221591 0
M  V30 8008 H 757.39 1.52625 -1.21209 0
M  V30 8009 H 756.486 3.00695 -0.835998 0
M  V30 8010 N 756.787 0.722489 1.40064 0
M  V30 8011 C 758.015 0.274838 2.05066 0
M  V30 8012 C 758.43 -1.08586 1.54449 0
M  V30 8013 O 757.787 -1.68375 0.704003 0
M  V30 8014 C 757.838 0.253673 3.60609 0
M  V30 8015 O 757.559 1.56064 4.0936 0
M  V30 8016 C 759.06 -0.211684 4.42794 0
M  V30 8017 H 756.28 0.12226 0.659768 0
M  V30 8018 H 758.824 0.982632 1.79345 0
M  V30 8019 H 756.979 -0.405137 3.85276 0
M  V30 8020 H 757.393 1.46576 5.03603 0
M  V30 8021 H 758.867 -0.175341 5.51721 0
M  V30 8022 H 759.344 -1.25493 4.2089 0
M  V30 8023 H 759.95 0.4171 4.2325 0
M  V30 8024 N 758.265 -1.50454 0.469181 0
M  V30 8025 C 759.495 -2.06429 -0.0840913 0
M  V30 8026 C 759.903 -1.3334 -1.34227 0
M  V30 8027 O 759.246 -0.395656 -1.79389 0
M  V30 8028 C 759.308 -3.56797 -0.440049 0
M  V30 8029 C 758.972 -4.51359 0.715838 0
M  V30 8030 C 759.969 -4.94754 1.59732 0
M  V30 8031 C 757.654 -4.94069 0.905621 0
M  V30 8032 C 759.648 -5.79564 2.653 0
M  V30 8033 C 757.335 -5.78662 1.96453 0
M  V30 8034 C 758.333 -6.21311 2.83658 0
M  V30 8035 O 758.021 -7.04218 3.87727 0
M  V30 8036 H 757.753 -0.675994 0.00289751 0
M  V30 8037 H 760.307 -1.94629 0.656417 0
M  V30 8038 H 758.537 -3.66492 -1.23372 0
M  V30 8039 H 760.226 -3.95145 -0.928181 0
M  V30 8040 H 760.992 -4.62428 1.46237 0
M  V30 8041 H 756.871 -4.60394 0.236326 0
M  V30 8042 H 760.415 -6.12774 3.33398 0
M  V30 8043 H 756.312 -6.10401 2.09955 0
M  V30 8044 H 757.08 -7.22464 3.84692 0
M  V30 8045 N 759.743 -0.201713 -1.56304 0
M  V30 8046 C 761.02 0.483273 -1.89536 0
M  V30 8047 C 761.4 1.79176 -1.11621 0
M  V30 8048 O 760.748 2.27445 -0.219339 0
M  V30 8049 C 760.958 0.695604 -3.41998 0
M  V30 8050 C 762.306 1.012 -4.12364 0
M  V30 8051 O 763.33 0.783094 -3.47485 0
M  V30 8052 O 762.189 1.44534 -5.27041 0
M  V30 8053 H 759.283 0.252801 -0.787414 0
M  V30 8054 H 761.829 -0.24242 -1.6796 0
M  V30 8055 H 760.601 -0.228165 -3.90634 0
M  V30 8056 H 760.224 1.47351 -3.69288 0
M  V30 8057 N 761.222 1.57436 0.0718424 0
M  V30 8058 C 762.47 1.86878 0.769484 0
M  V30 8059 C 762.791 0.7937 1.78116 0
M  V30 8060 O 762.061 -0.177642 1.95093 0
M  V30 8061 H 760.641 0.689593 0.287177 0
M  V30 8062 H 763.303 1.94841 0.0479427 0
M  V30 8063 H 762.399 2.84387 1.28572 0
M  V30 8064 N 762.7 -0.34323 1.53817 0
M  V30 8065 C 763.925 -1.1079 1.75329 0
M  V30 8066 C 764.35 -1.81571 0.491293 0
M  V30 8067 O 763.708 -1.72561 -0.556089 0
M  V30 8068 C 763.756 -2.09681 2.9337 0
M  V30 8069 O 762.86 -3.17207 2.63541 0
M  V30 8070 H 762.201 -0.320402 0.581583 0
M  V30 8071 H 764.731 -0.393525 2.0078 0
M  V30 8072 H 764.741 -2.52897 3.20168 0
M  V30 8073 H 763.416 -1.5756 3.84899 0
M  V30 8074 H 761.993 -2.78806 2.47632 0
M  V30 8075 N 764.178 -1.45556 -0.604258 0
M  V30 8076 C 765.427 -1.49019 -1.35928 0
M  V30 8077 C 765.74 -0.137409 -1.95117 0
M  V30 8078 O 766.946 -0.0497032 -2.71455 0
M  V30 8079 C 765.402 -2.62477 -2.46239 0
M  V30 8080 C 765.01 -4.04082 -1.93447 0
M  V30 8081 C 766.754 -2.7519 -3.23219 0
M  V30 8082 C 764.661 -5.08917 -3.0126 0
M  V30 8083 H 763.591 -0.554518 -0.510907 0
M  V30 8084 H 766.242 -1.71705 -0.647262 0
M  V30 8085 H 764.624 -2.3308 -3.2014 0
M  V30 8086 H 765.798 -4.43173 -1.26232 0
M  V30 8087 H 764.113 -3.95849 -1.29201 0
M  V30 8088 H 766.71 -3.50683 -4.0364 0
M  V30 8089 H 767.053 -1.81941 -3.74437 0
M  V30 8090 H 767.586 -3.04129 -2.56418 0
M  V30 8091 H 764.325 -6.03886 -2.54955 0
M  V30 8092 H 763.845 -4.74393 -3.67031 0
M  V30 8093 H 765.524 -5.33814 -3.65584 0
M  V30 8094 N 765.656 0.84705 -1.32902 0
M  V30 8095 C 766.933 1.58583 -1.14503 0
M  V30 8096 C 767.313 2.09075 0.291724 0
M  V30 8097 O 766.661 1.88636 1.28952 0
M  V30 8098 C 766.871 2.72605 -2.17916 0
M  V30 8099 C 768.219 3.41993 -2.51646 0
M  V30 8100 O 769.243 2.82838 -2.1652 0
M  V30 8101 O 768.102 4.48761 -3.1189 0
M  V30 8102 H 765.196 0.698756 -0.442345 0
M  V30 8103 H 767.742 0.890516 -1.44457 0
M  V30 8104 H 766.514 2.32876 -3.14459 0
M  V30 8105 H 766.137 3.49807 -1.89 0
M  V30 8106 N 767.134 1.16236 1.06428 0
M  V30 8107 C 768.097 0.870163 2.1204 0
M  V30 8108 C 769.097 -0.134239 1.60239 0
M  V30 8109 O 770.287 0.0964932 1.73933 0
M  V30 8110 C 767.419 0.301033 3.39568 0
M  V30 8111 H 768.612 1.8064 2.39394 0
M  V30 8112 H 766.165 0.971116 1.2247 0
M  V30 8113 H 766.9 -0.642948 3.17863 0
M  V30 8114 H 766.685 1.02475 3.78472 0
M  V30 8115 H 768.175 0.114494 4.17443 0
M  V30 8116 N 768.612 -1.24939 0.960631 0
M  V30 8117 C 769.852 -1.94565 0.626414 0
M  V30 8118 C 770.216 -1.73505 -0.822184 0
M  V30 8119 O 771.417 -2.37105 -1.26628 0
M  V30 8120 C 769.688 -3.43631 0.982462 0
M  V30 8121 S 771.247 -4.32138 0.761726 0
M  V30 8122 H 768.065 -0.672757 0.230043 0
M  V30 8123 H 770.667 -1.51464 1.23608 0
M  V30 8124 H 769.371 -3.56463 2.03377 0
M  V30 8125 H 768.902 -3.91719 0.363286 0
M  V30 8126 H 770.917 -4.94859 -0.364493 0
M  V30 8127 N 770.09 -0.729906 -1.39679 0
M  V30 8128 C 771.037 -0.0866063 -2.30637 0
M  V30 8129 C 772.007 0.735115 -1.48947 0
M  V30 8130 O 773.192 0.696125 -1.77648 0
M  V30 8131 C 770.332 0.818524 -3.35252 0
M  V30 8132 C 769.445 -0.0152635 -4.31997 0
M  V30 8133 C 768.58 0.890669 -5.2368 0
M  V30 8134 C 767.619 0.0518246 -6.12078 0
M  V30 8135 N 766.756 0.913411 -6.96133 0
M  V30 8136 H 771.596 -0.867925 -2.85081 0
M  V30 8137 H 769.133 -0.439673 -1.40376 0
M  V30 8138 H 771.091 1.3577 -3.9449 0
M  V30 8139 H 769.721 1.56587 -2.82277 0
M  V30 8140 H 768.773 -0.671794 -3.74421 0
M  V30 8141 H 770.085 -0.664086 -4.9436 0
M  V30 8142 H 769.239 1.49787 -5.87919 0
M  V30 8143 H 767.978 1.57328 -4.61627 0
M  V30 8144 H 766.983 -0.568209 -5.46856 0
M  V30 8145 H 768.208 -0.627497 -6.76195 0
M  V30 8146 H 766.154 1.58141 -6.36653 0
M  V30 8147 H 766.071 0.320952 -7.55318 0
M  V30 8148 H 767.339 1.50633 -7.64807 0
M  V30 8149 N 771.568 1.50203 -0.477153 0
M  V30 8150 C 772.816 2.01959 0.0755889 0
M  V30 8151 C 773.137 1.3608 1.39668 0
M  V30 8152 O 772.407 0.508136 1.89195 0
M  V30 8153 H 770.987 0.74636 0.0309248 0
M  V30 8154 H 773.649 1.84473 -0.628959 0
M  V30 8155 H 772.745 3.11305 0.222683 0
M  V30 8156 N 773.046 0.209999 1.56195 0
M  V30 8157 C 774.323 -0.473214 1.89789 0
M  V30 8158 C 774.703 -1.78581 1.1257 0
M  V30 8159 O 774.051 -2.27325 0.231398 0
M  V30 8160 C 774.261 -0.677458 3.42362 0
M  V30 8161 C 775.609 -0.990114 4.12895 0
M  V30 8162 O 776.633 -0.764655 3.47896 0
M  V30 8163 O 775.492 -1.41737 5.278 0
M  V30 8164 H 772.586 -0.248622 0.788743 0
M  V30 8165 H 775.132 0.251324 1.67829 0
M  V30 8166 H 773.904 0.248878 3.90508 0
M  V30 8167 H 773.527 -1.45391 3.70064 0
M  V30 8168 N 774.524 -1.57472 -0.0634922 0
M  V30 8169 C 775.749 -1.92273 -0.77756 0
M  V30 8170 C 776.174 -0.807141 -1.69902 0
M  V30 8171 O 775.532 0.239523 -1.79711 0
M  V30 8172 C 775.58 -3.26054 -1.54017 0
M  V30 8173 O 774.684 -3.15873 -2.65138 0
M  V30 8174 H 774.025 -0.629389 -0.211579 0
M  V30 8175 H 776.555 -2.04579 -0.0292523 0
M  V30 8176 H 776.565 -3.60127 -1.91763 0
M  V30 8177 H 775.24 -4.06824 -0.864128 0
M  V30 8178 H 773.817 -2.93373 -2.30189 0
M  V30 8179 N 776.003 0.335068 -1.53997 0
M  V30 8180 C 777.251 1.07223 -1.71312 0
M  V30 8181 C 777.572 1.88911 -0.483486 0
M  V30 8182 O 776.842 1.89344 0.50257 0
M  V30 8183 H 775.422 0.398846 -0.63161 0
M  V30 8184 H 778.084 0.374288 -1.91272 0
M  V30 8185 H 777.18 1.7448 -2.58772 0
M  V30 8186 N 777.481 1.45874 0.596531 0
M  V30 8187 C 778.729 1.5017 1.35253 0
M  V30 8188 C 779.05 0.149246 1.94428 0
M  V30 8189 O 778.32 -0.82268 1.77789 0
M  V30 8190 H 776.9 0.553052 0.502138 0
M  V30 8191 H 779.562 1.81908 0.699671 0
M  V30 8192 H 778.658 2.24671 2.16632 0
M  V30 8193 N 778.959 -0.83999 1.33349 0
M  V30 8194 C 780.37 -1.41139 1.22216 0
M  V30 8195 C 780.721 -1.95551 -0.159398 0
M  V30 8196 O 779.846 -1.88721 -1.05893 0
M  V30 8197 C 780.441 -2.56564 2.21269 0
M  V30 8198 C 779 -3.09661 2.13979 0
M  V30 8199 C 778.147 -1.82457 2.08818 0
M  V30 8200 H 781.098 -0.645853 1.44964 0
M  V30 8201 H 781.119 -3.34163 1.81976 0
M  V30 8202 H 780.631 -2.16932 3.21811 0
M  V30 8203 H 778.732 -3.53841 1.16736 0
M  V30 8204 H 778.845 -3.6991 3.04472 0
M  V30 8205 H 777.209 -2.0266 1.54276 0
M  V30 8206 H 777.992 -1.45022 3.11165 0
M  V30 8207 N 780.437 -1.16799 -1.0581 0
M  V30 8208 C 781.367 -0.902241 -2.15364 0
M  V30 8209 C 782.348 0.153351 -1.69407 0
M  V30 8210 O 783.533 0.00442032 -1.94199 0
M  V30 8211 C 780.663 -0.407911 -3.44896 0
M  V30 8212 C 779.617 -1.40197 -4.04387 0
M  V30 8213 C 778.943 -0.765848 -5.29187 0
M  V30 8214 C 780.243 -2.77316 -4.42598 0
M  V30 8215 H 781.937 -1.81841 -2.37853 0
M  V30 8216 H 779.483 -0.875731 -1.14311 0
M  V30 8217 H 781.436 -0.20945 -4.20879 0
M  V30 8218 H 780.16 0.54378 -3.22041 0
M  V30 8219 H 778.819 -1.58707 -3.30466 0
M  V30 8220 H 778.467 0.192482 -5.02632 0
M  V30 8221 H 778.167 -1.42939 -5.69949 0
M  V30 8222 H 779.691 -0.577519 -6.07863 0
M  V30 8223 H 781.105 -2.62561 -5.09642 0
M  V30 8224 H 779.502 -3.4019 -4.94359 0
M  V30 8225 H 780.572 -3.32199 -3.53231 0
M  V30 8226 N 781.915 1.24427 -0.967243 0
M  V30 8227 C 783.161 1.92772 -0.629812 0
M  V30 8228 C 783.494 1.75436 0.832827 0
M  V30 8229 O 782.769 1.10716 1.59913 0
M  V30 8230 C 783.052 3.45798 -1.00477 0
M  V30 8231 C 782.905 3.72304 -2.52407 0
M  V30 8232 C 784.224 4.36787 -0.538999 0
M  V30 8233 H 781.343 0.700099 -0.230282 0
M  V30 8234 H 783.985 1.46805 -1.20616 0
M  V30 8235 H 782.135 3.8508 -0.514336 0
M  V30 8236 H 783.807 3.42584 -3.08924 0
M  V30 8237 H 782.05 3.17472 -2.95625 0
M  V30 8238 H 782.721 4.7937 -2.73693 0
M  V30 8239 H 785.197 4.04877 -0.959874 0
M  V30 8240 H 784.073 5.4259 -0.829926 0
M  V30 8241 H 784.334 4.38527 0.560923 0
M  V30 8242 N 783.393 0.737304 1.3929 0
M  V30 8243 C 784.633 0.290966 2.02318 0
M  V30 8244 C 784.997 -1.10174 1.57244 0
M  V30 8245 O 786.198 -1.64628 2.12488 0
M  V30 8246 C 784.469 0.391767 3.55246 0
M  V30 8247 S 786.028 0.0256103 4.38793 0
M  V30 8248 H 782.846 0.113862 0.701824 0
M  V30 8249 H 785.448 0.964329 1.70062 0
M  V30 8250 H 784.152 1.40662 3.85542 0
M  V30 8251 H 783.683 -0.299338 3.9226 0
M  V30 8252 H 785.698 -1.18991 4.81722 0
M  V30 8253 N 784.871 -1.49948 0.485112 0
M  V30 8254 C 785.804 -2.25531 -0.348027 0
M  V30 8255 C 786.782 -1.29433 -0.984172 0
M  V30 8256 O 787.966 -1.58687 -1.01738 0
M  V30 8257 C 785.093 -3.04225 -1.48878 0
M  V30 8258 C 784.139 -4.15355 -0.968616 0
M  V30 8259 S 784.972 -5.35347 0.127934 0
M  V30 8260 C 786.128 -6.17593 -1.01637 0
M  V30 8261 H 786.361 -2.95847 0.293529 0
M  V30 8262 H 783.894 -1.52018 0.27018 0
M  V30 8263 H 785.852 -3.50153 -2.14251 0
M  V30 8264 H 784.513 -2.33407 -2.1019 0
M  V30 8265 H 783.706 -4.69873 -1.82305 0
M  V30 8266 H 783.308 -3.71936 -0.392377 0
M  V30 8267 H 785.6 -6.49576 -1.92503 0
M  V30 8268 H 786.543 -7.0626 -0.510149 0
M  V30 8269 H 786.951 -5.49877 -1.27653 0
M  V30 8270 N 786.349 -0.21828 -1.56081 0
M  V30 8271 C 787.626 0.463143 -1.90038 0
M  V30 8272 C 788.006 1.77982 -1.13515 0
M  V30 8273 O 787.354 2.27199 -0.24345 0
M  V30 8274 C 787.564 0.659292 -3.42716 0
M  V30 8275 C 788.912 0.968203 -4.13414 0
M  V30 8276 O 789.936 0.746195 -3.48296 0
M  V30 8277 O 788.795 1.38936 -5.28544 0
M  V30 8278 H 785.889 0.244435 -0.790051 0
M  V30 8279 H 788.435 -0.260221 -1.67693 0
M  V30 8280 H 787.207 -0.269584 -3.9037 0
M  V30 8281 H 786.83 1.43426 -3.7083 0
M  V30 8282 N 787.827 1.57504 0.0551401 0
M  V30 8283 C 788.79 2.03826 1.04821 0
M  V30 8284 C 789.79 0.937968 1.30609 0
M  V30 8285 O 790.98 1.20237 1.2605 0
M  V30 8286 C 788.112 2.43309 2.38775 0
M  V30 8287 H 789.305 2.92802 0.6486 0
M  V30 8288 H 786.858 1.53368 0.301315 0
M  V30 8289 H 787.593 1.5741 2.83536 0
M  V30 8290 H 787.378 3.23615 2.21395 0
M  V30 8291 H 788.868 2.79666 3.10124 0
M  V30 8292 N 789.305 -0.326896 1.54172 0
M  V30 8293 C 790.253 -1.42232 1.84046 0
M  V30 8294 C 791.247 -1.53705 0.712115 0
M  V30 8295 O 792.453 -1.56131 0.895724 0
M  V30 8296 H 788.828 -0.474568 0.583343 0
M  V30 8297 H 790.799 -1.14259 2.75658 0
M  V30 8298 C 789.548 -2.78502 2.08163 0
M  V30 8299 H 788.871 -2.70447 2.94446 0
M  V30 8300 H 790.311 -3.54228 2.33021 0
M  V30 8301 C 788.77 -3.25415 0.872152 0
M  V30 8302 O 789.3 -4.01621 0.0797648 0
M  V30 8303 N 787.506 -2.82418 0.684716 0
M  V30 8304 H 787.053 -2.20566 1.33072 0
M  V30 8305 H 787.011 -3.14159 -0.123031 0
M  V30 8306 N 790.784 -1.46188 -0.588786 0
M  V30 8307 C 791.732 -1.56653 -1.71938 0
M  V30 8308 C 792.726 -0.435354 -1.6371 0
M  V30 8309 O 793.932 -0.611996 -1.69277 0
M  V30 8310 H 790.307 -0.492408 -0.568365 0
M  V30 8311 H 792.278 -2.51724 -1.60242 0
M  V30 8312 C 791.027 -1.56822 -3.10326 0
M  V30 8313 H 790.35 -2.43198 -3.17325 0
M  V30 8314 H 791.79 -1.68199 -3.89211 0
M  V30 8315 C 790.249 -0.295802 -3.35599 0
M  V30 8316 O 790.779 0.616515 -3.96941 0
M  V30 8317 N 788.985 -0.185609 -2.90007 0
M  V30 8318 H 788.532 -0.928914 -2.40269 0
M  V30 8319 H 788.49 0.664883 -3.07289 0
M  V30 8320 N 792.262 0.832906 -1.33792 0
M  V30 8321 C 793.508 1.59089 -1.25772 0
M  V30 8322 C 793.841 1.93414 0.174601 0
M  V30 8323 O 793.116 1.59195 1.11746 0
M  V30 8324 C 793.399 2.89699 -2.13885 0
M  V30 8325 C 793.252 2.62017 -3.65605 0
M  V30 8326 C 794.571 3.91182 -2.01654 0
M  V30 8327 H 791.69 0.577232 -0.458227 0
M  V30 8328 H 794.332 0.960227 -1.6395 0
M  V30 8329 H 792.482 3.4352 -1.81456 0
M  V30 8330 H 794.154 2.14582 -4.08353 0
M  V30 8331 H 792.397 1.95621 -3.87189 0
M  V30 8332 H 793.068 3.55112 -4.2261 0
M  V30 8333 H 795.544 3.46684 -2.30107 0
M  V30 8334 H 794.42 4.80391 -2.65548 0
M  V30 8335 H 794.681 4.30861 -0.990536 0
M  V30 8336 N 793.74 1.17359 1.05189 0
M  V30 8337 C 794.968 0.986529 1.81866 0
M  V30 8338 C 795.383 -0.46522 1.82979 0
M  V30 8339 O 794.74 -1.32305 1.25705 0
M  V30 8340 C 794.791 1.52021 3.27982 0
M  V30 8341 O 794.512 2.91511 3.27037 0
M  V30 8342 C 796.013 1.37774 4.21347 0
M  V30 8343 H 793.233 0.349021 0.573084 0
M  V30 8344 H 795.777 1.55648 1.32643 0
M  V30 8345 H 793.932 0.992287 3.74476 0
M  V30 8346 H 794.346 3.16178 4.18488 0
M  V30 8347 H 795.82 1.7993 5.21852 0
M  V30 8348 H 796.297 0.32483 4.37997 0
M  V30 8349 H 796.903 1.89583 3.80708 0
M  V30 8350 N 795.218 -1.23913 0.973828 0
M  V30 8351 C 796.448 -1.95911 0.655938 0
M  V30 8352 C 796.856 -1.72375 -0.779967 0
M  V30 8353 O 796.199 -1.00807 -1.5357 0
M  V30 8354 C 796.261 -3.49103 0.858324 0
M  V30 8355 C 795.925 -3.96347 2.27504 0
M  V30 8356 C 796.922 -4.05537 3.25324 0
M  V30 8357 C 794.607 -4.29509 2.60437 0
M  V30 8358 C 796.601 -4.47233 4.5416 0
M  V30 8359 C 794.288 -4.70887 3.89498 0
M  V30 8360 C 795.286 -4.79714 4.86172 0
M  V30 8361 O 794.974 -5.20166 6.1293 0
M  V30 8362 H 794.706 -0.630721 0.243244 0
M  V30 8363 H 797.26 -1.58534 1.30599 0
M  V30 8364 H 795.49 -3.86405 0.151097 0
M  V30 8365 H 797.179 -4.02311 0.538592 0
M  V30 8366 H 797.945 -3.80128 3.0121 0
M  V30 8367 H 793.824 -4.21853 1.85906 0
M  V30 8368 H 797.368 -4.54038 5.29618 0
M  V30 8369 H 793.265 -4.95744 4.1341 0
M  V30 8370 H 794.033 -5.38298 6.16586 0
M  V30 8371 N 796.696 -0.74468 -1.38897 0
M  V30 8372 C 797.942 -0.297324 -2.00609 0
M  V30 8373 C 798.275 1.11547 -1.58968 0
M  V30 8374 O 797.55 1.76227 -0.823057 0
M  V30 8375 C 797.833 -0.410125 -3.57757 0
M  V30 8376 C 797.686 -1.86338 -4.09387 0
M  V30 8377 C 799.005 0.20176 -4.39637 0
M  V30 8378 H 796.124 -0.109509 -0.728819 0
M  V30 8379 H 798.766 -0.942653 -1.64967 0
M  V30 8380 H 796.916 0.139287 -3.8825 0
M  V30 8381 H 798.588 -2.47042 -3.89574 0
M  V30 8382 H 796.831 -2.38146 -3.62586 0
M  V30 8383 H 797.502 -1.89352 -5.18507 0
M  V30 8384 H 799.978 -0.266703 -4.15244 0
M  V30 8385 H 798.854 0.0925415 -5.48822 0
M  V30 8386 H 799.115 1.289 -4.22891 0
M  V30 8387 N 798.174 1.49689 -0.493057 0
M  V30 8388 C 799.42 2.03347 0.0463792 0
M  V30 8389 C 799.775 1.36671 1.35421 0
M  V30 8390 O 799.068 0.4907 1.8521 0
M  V30 8391 C 799.262 3.56427 0.263536 0
M  V30 8392 C 799.091 4.3794 -1.02169 0
M  V30 8393 C 797.861 4.8025 -1.57125 0
M  V30 8394 C 800.059 4.77 -1.9229 0
M  V30 8395 N 798.041 5.46162 -2.80321 0
M  V30 8396 C 799.412 5.42549 -3.00067 0
M  V30 8397 C 801.467 4.58945 -1.93064 0
M  V30 8398 C 800.17 5.91954 -4.08635 0
M  V30 8399 C 802.196 5.09306 -3.00602 0
M  V30 8400 C 801.558 5.74849 -4.07097 0
M  V30 8401 H 797.657 0.781644 -0.0236097 0
M  V30 8402 H 800.241 1.82949 -0.666151 0
M  V30 8403 H 798.412 3.76725 0.945118 0
M  V30 8404 H 800.144 3.96729 0.79927 0
M  V30 8405 H 796.899 4.60228 -1.11746 0
M  V30 8406 H 797.323 5.83711 -3.42944 0
M  V30 8407 H 801.965 4.07685 -1.12039 0
M  V30 8408 H 799.683 6.4224 -4.90463 0
M  V30 8409 H 803.269 4.97152 -3.0221 0
M  V30 8410 H 802.149 6.13113 -4.88939 0
M  V30 8411 N 799.652 0.226554 1.55963 0
M  V30 8412 C 800.9 -0.402991 1.98041 0
M  V30 8413 C 801.221 -1.59938 1.11557 0
M  V30 8414 O 800.491 -1.9494 0.193719 0
M  V30 8415 H 799.071 -0.15188 0.731397 0
M  V30 8416 H 801.733 0.320613 1.92245 0
M  V30 8417 H 800.829 -0.725937 3.0354 0
M  V30 8418 N 801.13 -1.57531 -0.0467866 0
M  V30 8419 C 802.376 -1.8873 -0.742218 0
M  V30 8420 C 802.709 -0.822084 -1.75941 0
M  V30 8421 O 801.984 0.164922 -1.938 0
M  V30 8422 C 802.267 -3.30586 -1.42776 0
M  V30 8423 C 802.12 -4.47785 -0.425285 0
M  V30 8424 C 803.439 -3.71068 -2.36636 0
M  V30 8425 H 800.558 -0.686406 -0.268359 0
M  V30 8426 H 803.2 -1.89999 -0.00511341 0
M  V30 8427 H 801.35 -3.29634 -2.05605 0
M  V30 8428 H 803.022 -4.60867 0.199721 0
M  V30 8429 H 801.265 -4.33037 0.25713 0
M  V30 8430 H 801.936 -5.43884 -0.943086 0
M  V30 8431 H 804.412 -3.73273 -1.83866 0
M  V30 8432 H 803.288 -4.71165 -2.81593 0
M  V30 8433 H 803.549 -3.02355 -3.22542 0
M  V30 8434 N 802.608 0.318715 -1.54344 0
M  V30 8435 C 803.854 1.05765 -1.73037 0
M  V30 8436 C 804.187 1.87514 -0.505181 0
M  V30 8437 O 803.462 1.88021 0.497838 0
M  V30 8438 C 803.745 1.97836 -3.00887 0
M  V30 8439 C 803.598 1.19384 -4.33668 0
M  V30 8440 C 804.917 2.97285 -3.24514 0
M  V30 8441 H 802.036 0.383104 -0.629603 0
M  V30 8442 H 804.678 0.333864 -1.87044 0
M  V30 8443 H 802.828 2.59552 -2.89076 0
M  V30 8444 H 804.5 0.600906 -4.57369 0
M  V30 8445 H 802.743 0.496198 -4.30953 0
M  V30 8446 H 803.414 1.87014 -5.19355 0
M  V30 8447 H 805.89 2.45693 -3.35819 0
M  V30 8448 H 804.766 3.58887 -4.15321 0
M  V30 8449 H 805.027 3.70003 -2.41971 0
M  V30 8450 N 804.086 1.46499 0.581025 0
M  V30 8451 C 805.311 1.55708 1.37002 0
M  V30 8452 C 805.736 0.19942 1.8704 0
M  V30 8453 O 805.094 -0.820731 1.61659 0
M  V30 8454 C 805.142 2.56716 2.53238 0
M  V30 8455 O 804.246 2.10336 3.54729 0
M  V30 8456 H 803.587 0.523912 0.407937 0
M  V30 8457 H 806.117 1.92085 0.704602 0
M  V30 8458 H 806.127 2.76378 3.00132 0
M  V30 8459 H 804.802 3.55307 2.16171 0
M  V30 8460 H 803.379 2.00669 3.14303 0
M  V30 8461 N 805.565 -0.825799 1.34232 0
M  V30 8462 C 806.811 -1.58379 1.27623 0
M  V30 8463 C 807.166 -1.91789 -0.15323 0
M  V30 8464 O 806.459 -1.56965 -1.09875 0
M  V30 8465 C 806.653 -2.89362 2.09772 0
M  V30 8466 C 806.482 -2.68747 3.60562 0
M  V30 8467 C 805.252 -2.6563 4.29848 0
M  V30 8468 C 807.45 -2.40463 4.54623 0
M  V30 8469 N 805.432 -2.3653 5.66504 0
M  V30 8470 C 806.803 -2.21032 5.79262 0
M  V30 8471 C 808.858 -2.26168 4.43568 0
M  V30 8472 C 807.561 -1.88754 6.94093 0
M  V30 8473 C 809.587 -1.95284 5.58228 0
M  V30 8474 C 808.949 -1.76674 6.81884 0
M  V30 8475 H 805.048 -0.582062 0.522234 0
M  V30 8476 H 807.632 -0.968308 1.68914 0
M  V30 8477 H 805.803 -3.48838 1.70783 0
M  V30 8478 H 807.535 -3.54716 1.94831 0
M  V30 8479 H 804.29 -2.79601 3.82257 0
M  V30 8480 H 804.714 -2.24827 6.38578 0
M  V30 8481 H 809.356 -2.39262 3.48588 0
M  V30 8482 H 807.074 -1.74397 7.89057 0
M  V30 8483 H 810.66 -1.84959 5.51617 0
M  V30 8484 H 809.54 -1.53123 7.69105 0
M  V30 8485 N 807.043 -1.17915 -1.04565 0
M  V30 8486 C 808.291 -0.969505 -1.77327 0
M  V30 8487 C 808.612 0.502569 -1.88412 0
M  V30 8488 O 807.882 1.36467 -1.40547 0
M  V30 8489 H 806.462 -0.355723 -0.656864 0
M  V30 8490 H 809.124 -1.48506 -1.26223 0
M  V30 8491 H 808.22 -1.40324 -2.78775 0
M  V30 8492 N 808.521 1.23394 -0.980386 0
M  V30 8493 C 809.431 2.28561 -0.528864 0
M  V30 8494 C 810.447 1.68946 0.416329 0
M  V30 8495 O 811.623 1.99355 0.286251 0
M  V30 8496 C 808.688 3.46323 0.16155 0
M  V30 8497 C 807.749 4.21297 -0.825044 0
M  V30 8498 C 806.982 5.33437 -0.167483 0
M  V30 8499 O 807.205 5.60812 1.04146 0
M  V30 8500 O 806.139 5.95637 -0.866047 0
M  V30 8501 H 809.965 2.69326 -1.40346 0
M  V30 8502 H 807.55 1.29325 -0.748019 0
M  V30 8503 H 809.432 4.17811 0.548841 0
M  V30 8504 H 808.107 3.0751 1.01092 0
M  V30 8505 H 807.014 3.52134 -1.26303 0
M  V30 8506 H 808.347 4.6396 -1.64322 0
M  V30 8507 N 809.999 0.752036 1.385 0
M  V30 8508 C 810.947 0.112634 2.32327 0
M  V30 8509 C 811.941 -0.707037 1.53939 0
M  V30 8510 O 813.147 -0.606309 1.69481 0
M  V30 8511 H 809.522 0.0176275 0.751793 0
M  V30 8512 H 811.493 0.920074 2.83861 0
M  V30 8513 C 810.242 -0.767458 3.39124 0
M  V30 8514 H 809.565 -0.146122 3.99533 0
M  V30 8515 H 811.005 -1.18216 4.07187 0
M  V30 8516 C 809.464 -1.90938 2.77568 0
M  V30 8517 O 809.994 -3.00342 2.66754 0
M  V30 8518 N 808.2 -1.70396 2.35401 0
M  V30 8519 H 807.747 -0.81413 2.44397 0
M  V30 8520 H 807.705 -2.46972 1.94557 0
M  V30 8521 N 811.477 -1.49425 0.500989 0
M  V30 8522 C 812.717 -2.04357 -0.0419004 0
M  V30 8523 C 813.081 -1.37236 -1.34277 0
M  V30 8524 O 814.282 -1.82889 -1.9699 0
M  V30 8525 C 812.553 -3.56889 -0.19112 0
M  V30 8526 S 814.112 -4.33369 -0.688259 0
M  V30 8527 H 810.93 -0.710998 -0.00177796 0
M  V30 8528 H 813.532 -1.83479 0.674953 0
M  V30 8529 H 812.236 -4.03283 0.760964 0
M  V30 8530 H 811.767 -3.82171 -0.933214 0
M  V30 8531 H 813.782 -4.55961 -1.9574 0
M  V30 8532 N 812.955 -0.234822 -1.55841 0
M  V30 8533 C 814.203 0.392483 -1.98252 0
M  V30 8534 C 814.524 1.59344 -1.12404 0
M  V30 8535 O 813.794 1.94834 -0.204055 0
M  V30 8536 H 812.374 0.147999 -0.732192 0
M  V30 8537 H 815.036 -0.330804 -1.92072 0
M  V30 8538 H 814.132 0.709829 -3.03921 0
M  V30 8539 N 814.433 1.57553 0.0384317 0
M  V30 8540 C 815.38 2.05942 1.04194 0
M  V30 8541 C 816.35 0.946637 1.36484 0
M  V30 8542 O 817.535 1.21658 1.46983 0
M  V30 8543 C 814.675 2.53588 2.34066 0
M  V30 8544 C 813.788 3.7862 2.08017 0
M  V30 8545 C 812.923 4.14915 3.31692 0
M  V30 8546 C 811.962 5.32891 3.01155 0
M  V30 8547 N 811.099 5.64662 4.17254 0
M  V30 8548 H 815.939 2.91429 0.622341 0
M  V30 8549 H 813.476 1.44098 0.295684 0
M  V30 8550 H 815.434 2.79276 3.09937 0
M  V30 8551 H 814.064 1.71031 2.73767 0
M  V30 8552 H 813.116 3.60073 1.22686 0
M  V30 8553 H 814.428 4.64613 1.81484 0
M  V30 8554 H 813.582 4.41681 4.15936 0
M  V30 8555 H 812.321 3.27555 3.6133 0
M  V30 8556 H 811.326 5.05887 2.15311 0
M  V30 8557 H 812.551 6.21896 2.72804 0
M  V30 8558 H 810.497 4.80261 4.46861 0
M  V30 8559 H 810.414 6.45145 3.94112 0
M  V30 8560 H 811.682 5.96 5.02399 0
M  V30 8561 N 815.911 -0.310526 1.54511 0
M  V30 8562 C 817.322 -0.884142 1.64438 0
M  V30 8563 C 817.673 -1.88425 0.546855 0
M  V30 8564 O 816.798 -2.14049 -0.31811 0
M  V30 8565 C 817.393 -1.6104 2.9808 0
M  V30 8566 C 815.952 -2.13255 3.1016 0
M  V30 8567 C 815.099 -0.96213 2.60074 0
M  V30 8568 H 818.05 -0.0877666 1.58457 0
M  V30 8569 H 818.071 -2.47541 2.8897 0
M  V30 8570 H 817.583 -0.882255 3.77939 0
M  V30 8571 H 815.684 -2.89145 2.35002 0
M  V30 8572 H 815.797 -2.37361 4.16169 0
M  V30 8573 H 814.161 -1.34501 2.16291 0
M  V30 8574 H 814.944 -0.248098 3.42402 0
M  V30 8575 N 817.389 -1.46805 -0.573248 0
M  V30 8576 C 818.299 -1.60687 -1.70929 0
M  V30 8577 C 819.315 -0.490084 -1.66956 0
M  V30 8578 O 820.491 -0.755482 -1.86693 0
M  V30 8579 C 817.556 -1.60259 -3.07438 0
M  V30 8580 C 816.617 -2.83242 -3.22603 0
M  V30 8581 C 815.85 -2.82825 -4.52599 0
M  V30 8582 O 816.073 -1.92113 -5.37074 0
M  V30 8583 O 815.007 -3.74489 -4.71213 0
M  V30 8584 H 818.833 -2.56782 -1.62163 0
M  V30 8585 H 816.418 -1.29706 -0.741399 0
M  V30 8586 H 818.3 -1.6275 -3.88704 0
M  V30 8587 H 816.975 -0.673268 -3.16621 0
M  V30 8588 H 815.882 -2.86302 -2.40794 0
M  V30 8589 H 817.215 -3.75415 -3.18315 0
M  V30 8590 N 818.867 0.818669 -1.34668 0
M  V30 8591 C 820.114 1.57512 -1.27264 0
M  V30 8592 C 820.442 1.93871 0.156254 0
M  V30 8593 O 819.697 1.60582 1.11857 0
M  V30 8594 C 819.996 2.88245 -2.11304 0
M  V30 8595 C 819.662 2.71159 -3.60255 0
M  V30 8596 C 818.324 2.66207 -4.00858 0
M  V30 8597 C 820.676 2.54538 -4.54819 0
M  V30 8598 C 818.004 2.4256 -5.34211 0
M  V30 8599 C 820.356 2.32421 -5.88356 0
M  V30 8600 C 819.02 2.25884 -6.28118 0
M  V30 8601 H 818.29 0.576378 -0.465692 0
M  V30 8602 H 820.937 0.9469 -1.66451 0
M  V30 8603 H 819.242 3.55381 -1.64958 0
M  V30 8604 H 820.939 3.45869 -2.02919 0
M  V30 8605 H 817.529 2.75856 -3.28027 0
M  V30 8606 H 821.713 2.57384 -4.24343 0
M  V30 8607 H 816.969 2.35959 -5.64033 0
M  V30 8608 H 821.143 2.18548 -6.61218 0
M  V30 8609 H 818.77 2.07322 -7.31383 0
M  V30 8610 N 820.346 1.18468 1.03938 0
M  V30 8611 C 821.757 0.984808 1.58614 0
M  V30 8612 C 822.108 -0.465165 1.90606 0
M  V30 8613 O 821.233 -1.34274 1.69704 0
M  V30 8614 C 821.828 1.78135 2.8819 0
M  V30 8615 C 820.387 1.62579 3.39478 0
M  V30 8616 C 819.534 1.77501 2.13046 0
M  V30 8617 H 822.485 1.32993 0.865944 0
M  V30 8618 H 822.506 1.27119 3.58638 0
M  V30 8619 H 822.018 2.83661 2.64874 0
M  V30 8620 H 820.119 0.59595 3.67803 0
M  V30 8621 H 820.232 2.42463 4.13217 0
M  V30 8622 H 818.596 1.2046 2.24414 0
M  V30 8623 H 819.379 2.84464 1.92185 0
M  V30 8624 N 821.824 -1.22873 0.986916 0
M  V30 8625 C 823.072 -1.91084 0.658121 0
M  V30 8626 C 823.393 -1.77304 -0.811675 0
M  V30 8627 O 822.663 -1.15649 -1.58121 0
M  V30 8628 H 821.243 -0.707251 0.240427 0
M  V30 8629 H 823.905 -1.49357 1.25213 0
M  V30 8630 H 823.001 -2.98373 0.915428 0
M  V30 8631 N 823.302 -0.75937 -1.38099 0
M  V30 8632 C 824.548 -0.318584 -2.00282 0
M  V30 8633 C 824.881 1.09854 -1.60143 0
M  V30 8634 O 824.156 1.75344 -0.841702 0
M  V30 8635 C 824.439 -0.448047 -3.57302 0
M  V30 8636 C 824.292 -1.9067 -4.07388 0
M  V30 8637 C 825.611 0.155119 -4.39827 0
M  V30 8638 H 822.73 -0.117233 -0.727616 0
M  V30 8639 H 825.372 -0.960097 -1.63958 0
M  V30 8640 H 823.522 0.0981003 -3.88376 0
M  V30 8641 H 825.194 -2.5116 -3.86932 0
M  V30 8642 H 823.437 -2.41979 -3.6004 0
M  V30 8643 H 824.108 -1.94841 -5.1647 0
M  V30 8644 H 826.584 -0.31073 -4.14938 0
M  V30 8645 H 825.46 0.0343264 -5.48889 0
M  V30 8646 H 825.721 1.24407 -4.24235 0
M  V30 8647 N 824.78 1.49157 -0.508906 0
M  V30 8648 C 826.01 2.06579 0.0293308 0
M  V30 8649 C 826.418 1.36852 1.30645 0
M  V30 8650 O 825.761 0.443079 1.78276 0
M  V30 8651 C 825.823 3.57838 0.345296 0
M  V30 8652 C 825.487 4.49302 -0.835256 0
M  V30 8653 C 826.484 4.90345 -1.72793 0
M  V30 8654 C 824.169 4.91494 -1.0363 0
M  V30 8655 C 826.163 5.72327 -2.80573 0
M  V30 8656 C 823.85 5.7325 -2.11726 0
M  V30 8657 C 824.848 6.13572 -3.00032 0
M  V30 8658 O 824.536 6.93691 -4.06261 0
M  V30 8659 H 824.268 0.675679 -0.0208193 0
M  V30 8660 H 826.822 1.9282 -0.707789 0
M  V30 8661 H 825.052 3.69634 1.13612 0
M  V30 8662 H 826.741 3.97467 0.823089 0
M  V30 8663 H 827.507 4.58388 -1.58446 0
M  V30 8664 H 823.386 4.59605 -0.358308 0
M  V30 8665 H 826.93 6.03719 -3.49527 0
M  V30 8666 H 822.827 6.0462 -2.26065 0
M  V30 8667 H 823.595 7.12011 -4.03711 0
M  V30 8668 N 826.258 0.243083 1.55714 0
M  V30 8669 C 827.486 -0.386971 2.03249 0
M  V30 8670 C 827.901 -1.51812 1.12243 0
M  V30 8671 O 827.258 -1.81992 0.136119 0
M  V30 8672 C 827.309 -0.898361 3.5016 0
M  V30 8673 O 827.03 0.187708 4.37698 0
M  V30 8674 C 828.531 -1.59949 4.13438 0
M  V30 8675 H 825.751 -0.0923981 0.664608 0
M  V30 8676 H 828.295 0.365832 2.01201 0
M  V30 8677 H 826.45 -1.60136 3.52754 0
M  V30 8678 H 826.864 -0.200001 5.24119 0
M  V30 8679 H 828.338 -1.90907 5.17937 0
M  V30 8680 H 828.815 -2.52014 3.59702 0
M  V30 8681 H 829.421 -0.941163 4.14756 0
M  V30 8682 N 827.736 -1.57571 -0.0300757 0
M  V30 8683 C 828.683 -2.06492 -1.03101 0
M  V30 8684 C 829.653 -0.953862 -1.3598 0
M  V30 8685 O 830.838 -1.22436 -1.46335 0
M  V30 8686 C 827.978 -2.54826 -2.32718 0
M  V30 8687 C 827.091 -3.79718 -2.06006 0
M  V30 8688 C 826.226 -4.16668 -3.29487 0
M  V30 8689 C 825.265 -5.3448 -2.98324 0
M  V30 8690 N 824.402 -5.66867 -4.14254 0
M  V30 8691 H 829.242 -2.91755 -0.606877 0
M  V30 8692 H 826.779 -1.44252 -0.288038 0
M  V30 8693 H 828.737 -2.80916 -3.08451 0
M  V30 8694 H 827.367 -1.72481 -2.72856 0
M  V30 8695 H 826.419 -3.60718 -1.20774 0
M  V30 8696 H 827.731 -4.65569 -1.79017 0
M  V30 8697 H 826.885 -4.43881 -4.13588 0
M  V30 8698 H 825.624 -3.29466 -3.59588 0
M  V30 8699 H 824.629 -5.07021 -2.12625 0
M  V30 8700 H 825.854 -6.23334 -2.69502 0
M  V30 8701 H 823.8 -4.82625 -4.44308 0
M  V30 8702 H 823.717 -6.47226 -3.90685 0
M  V30 8703 H 824.985 -5.98656 -4.99231 0
M  V30 8704 N 829.214 0.302327 -1.54673 0
M  V30 8705 C 830.46 1.03924 -1.74149 0
M  V30 8706 C 830.793 1.86968 -0.525041 0
M  V30 8707 O 830.068 1.88538 0.477868 0
M  V30 8708 C 830.351 1.94633 -3.02969 0
M  V30 8709 C 830.204 1.14778 -4.34909 0
M  V30 8710 C 831.523 2.93826 -3.27649 0
M  V30 8711 H 828.642 0.376405 -0.633631 0
M  V30 8712 H 831.284 0.314007 -1.87387 0
M  V30 8713 H 829.434 2.56471 -2.91813 0
M  V30 8714 H 831.106 0.552363 -4.57981 0
M  V30 8715 H 829.349 0.450462 -4.31455 0
M  V30 8716 H 830.02 1.81495 -5.21309 0
M  V30 8717 H 832.496 2.42117 -3.38406 0
M  V30 8718 H 831.372 3.54462 -4.19104 0
M  V30 8719 H 831.633 3.67416 -2.45882 0
M  V30 8720 N 830.692 1.47107 0.565454 0
M  V30 8721 C 831.655 1.58535 1.65527 0
M  V30 8722 C 832.655 0.461081 1.54048 0
M  V30 8723 O 833.845 0.725911 1.58355 0
M  V30 8724 C 830.977 1.52204 3.05036 0
M  V30 8725 H 832.17 2.55676 1.56747 0
M  V30 8726 H 829.723 1.35174 0.78471 0
M  V30 8727 H 830.458 0.564071 3.19357 0
M  V30 8728 H 830.243 2.3379 3.14777 0
M  V30 8729 H 831.733 1.63322 3.84338 0
M  V30 8730 N 832.17 -0.811516 1.35101 0
M  V30 8731 C 833.118 -1.94449 1.27642 0
M  V30 8732 C 834.112 -1.68522 0.172287 0
M  V30 8733 O 835.318 -1.76799 0.337967 0
M  V30 8734 H 831.693 -0.638776 0.396824 0
M  V30 8735 H 833.664 -1.97861 2.23369 0
M  V30 8736 C 832.413 -3.31139 1.06029 0
M  V30 8737 H 831.736 -3.51644 1.90227 0
M  V30 8738 H 833.176 -4.10831 1.0485 0
M  V30 8739 C 831.635 -3.36072 -0.236039 0
M  V30 8740 O 832.165 -3.82292 -1.23353 0
M  V30 8741 N 830.371 -2.89314 -0.273107 0
M  V30 8742 H 829.918 -2.51893 0.539211 0
M  V30 8743 H 829.876 -2.92996 -1.1402 0
M  V30 8744 N 833.648 -1.19017 -1.03309 0
M  V30 8745 C 834.878 -1.01387 -1.80012 0
M  V30 8746 C 835.286 0.440655 -1.83997 0
M  V30 8747 O 834.629 1.31786 -1.27977 0
M  V30 8748 C 834.691 -1.50171 -3.26633 0
M  V30 8749 C 834.355 -2.98213 -3.46292 0
M  V30 8750 C 835.352 -3.96009 -3.36857 0
M  V30 8751 C 833.037 -3.36812 -3.72643 0
M  V30 8752 C 835.031 -5.30399 -3.5349 0
M  V30 8753 C 832.718 -4.71363 -3.88922 0
M  V30 8754 C 833.716 -5.67966 -3.79347 0
M  V30 8755 O 833.404 -7.00079 -3.95151 0
M  V30 8756 H 833.136 -0.357899 -0.573484 0
M  V30 8757 H 835.69 -1.58171 -1.31039 0
M  V30 8758 H 833.92 -0.877586 -3.7661 0
M  V30 8759 H 835.609 -1.28814 -3.84918 0
M  V30 8760 H 836.375 -3.67534 -3.16455 0
M  V30 8761 H 832.254 -2.62175 -3.7919 0
M  V30 8762 H 835.798 -6.05786 -3.45933 0
M  V30 8763 H 831.695 -4.99536 -4.0882 0
M  V30 8764 H 832.463 -7.07092 -4.12266 0
M  V30 8765 N 835.127 1.22348 -0.993418 0
M  V30 8766 C 836.374 1.9111 -0.669568 0
M  V30 8767 C 836.702 1.77357 0.79843 0
M  V30 8768 O 835.957 1.13675 1.593 0
M  V30 8769 C 836.256 3.42477 -1.02197 0
M  V30 8770 C 835.922 3.7642 -2.48232 0
M  V30 8771 C 834.584 3.85395 -2.88139 0
M  V30 8772 C 836.936 3.9253 -3.42884 0
M  V30 8773 C 834.264 4.07918 -4.21687 0
M  V30 8774 C 836.616 4.16557 -4.76091 0
M  V30 8775 C 835.28 4.23757 -5.15739 0
M  V30 8776 H 834.55 0.699321 -0.245012 0
M  V30 8777 H 837.197 1.45102 -1.2497 0
M  V30 8778 H 835.502 3.90143 -0.359921 0
M  V30 8779 H 837.199 3.93935 -0.74942 0
M  V30 8780 H 833.789 3.70017 -2.16299 0
M  V30 8781 H 837.973 3.84974 -3.13224 0
M  V30 8782 H 833.229 4.11719 -4.51993 0
M  V30 8783 H 837.403 4.27966 -5.4938 0
M  V30 8784 H 835.03 4.40962 -6.19239 0
M  V30 8785 N 836.605 0.766683 1.37694 0
M  V30 8786 C 837.882 0.25366 1.93948 0
M  V30 8787 C 838.262 -1.25041 1.70082 0
M  V30 8788 O 837.61 -2.03115 1.04674 0
M  V30 8789 C 837.82 0.621549 3.43421 0
M  V30 8790 C 839.168 0.588504 4.20502 0
M  V30 8791 O 840.192 0.560632 3.5176 0
M  V30 8792 O 839.051 0.61107 5.43073 0
M  V30 8793 H 836.145 0.0570586 0.825029 0
M  V30 8794 H 838.691 0.847693 1.47011 0
M  V30 8795 H 837.463 1.65979 3.54354 0
M  V30 8796 H 837.086 0.000197027 3.976 0
M  V30 8797 N 838.083 -1.48885 0.516809 0
M  V30 8798 C 839.329 -2.03395 -0.0140225 0
M  V30 8799 C 839.684 -1.38808 -1.33229 0
M  V30 8800 O 838.977 -0.520104 -1.84406 0
M  V30 8801 C 839.171 -3.56801 -0.206798 0
M  V30 8802 C 839 -4.36259 1.09124 0
M  V30 8803 C 837.77 -4.77689 1.64745 0
M  V30 8804 C 839.968 -4.73881 1.99854 0
M  V30 8805 N 837.95 -5.41634 2.88975 0
M  V30 8806 C 839.321 -5.37707 3.08661 0
M  V30 8807 C 841.376 -4.55816 2.00341 0
M  V30 8808 C 840.079 -5.85379 4.18001 0
M  V30 8809 C 842.105 -5.04459 3.08666 0
M  V30 8810 C 841.467 -5.68299 4.16191 0
M  V30 8811 H 837.566 -0.781169 0.036042 0
M  V30 8812 H 840.15 -1.81867 0.695173 0
M  V30 8813 H 838.321 -3.78181 -0.885064 0
M  V30 8814 H 840.053 -3.9795 -0.736053 0
M  V30 8815 H 836.808 -4.58392 1.19054 0
M  V30 8816 H 837.232 -5.78181 3.52187 0
M  V30 8817 H 841.874 -4.05851 1.18511 0
M  V30 8818 H 839.592 -6.34356 5.00618 0
M  V30 8819 H 843.178 -4.92281 3.10082 0
M  V30 8820 H 842.058 -6.05257 4.98631 0
M  V30 8821 N 839.561 -0.251338 -1.55583 0
M  V30 8822 C 840.81 0.372681 -1.98227 0
M  V30 8823 C 841.123 1.58743 -1.1428 0
M  V30 8824 O 842.329 2.28289 -1.46957 0
M  V30 8825 C 840.785 0.714439 -3.52738 0
M  V30 8826 C 840.393 -0.479168 -4.4543 0
M  V30 8827 C 842.137 1.3024 -4.04027 0
M  V30 8828 C 840.044 -0.113318 -5.91291 0
M  V30 8829 H 838.974 0.14302 -0.740312 0
M  V30 8830 H 841.625 -0.352253 -1.80087 0
M  V30 8831 H 840.007 1.49762 -3.66589 0
M  V30 8832 H 841.181 -1.25644 -4.4334 0
M  V30 8833 H 839.496 -0.982359 -4.04646 0
M  V30 8834 H 842.093 1.58953 -5.10527 0
M  V30 8835 H 842.436 2.22837 -3.51638 0
M  V30 8836 H 842.969 0.582024 -3.93519 0
M  V30 8837 H 839.708 -1.00654 -6.47726 0
M  V30 8838 H 839.228 0.627666 -5.96507 0
M  V30 8839 H 840.907 0.30293 -6.4629 0
M  V30 8840 N 841.039 1.57585 0.0217189 0
M  V30 8841 C 842.264 1.94267 0.726309 0
M  V30 8842 C 842.689 0.851904 1.67703 0
M  V30 8843 O 842.047 -0.191792 1.80283 0
M  V30 8844 C 842.095 3.30023 1.45318 0
M  V30 8845 O 841.199 3.22791 2.5667 0
M  V30 8846 H 840.54 0.634777 0.194818 0
M  V30 8847 H 843.07 2.04585 -0.0249985 0
M  V30 8848 H 843.08 3.65084 1.82147 0
M  V30 8849 H 841.755 4.08972 0.755962 0
M  V30 8850 H 840.332 2.99373 2.2233 0
M  V30 8851 N 842.517 -0.29412 1.54831 0
M  V30 8852 C 843.747 -1.04572 1.7818 0
M  V30 8853 C 844.155 -1.81187 0.544776 0
M  V30 8854 O 843.498 -1.769 -0.495169 0
M  V30 8855 C 843.56 -2.06748 2.94101 0
M  V30 8856 C 843.224 -1.49265 4.31936 0
M  V30 8857 C 844.221 -0.919136 5.11711 0
M  V30 8858 C 841.906 -1.52621 4.78552 0
M  V30 8859 C 843.9 -0.386824 6.36225 0
M  V30 8860 C 841.587 -0.990031 6.03027 0
M  V30 8861 C 842.585 -0.421315 6.81699 0
M  V30 8862 O 842.273 0.106713 8.03829 0
M  V30 8863 H 842.005 -0.31559 0.597812 0
M  V30 8864 H 844.559 -0.336817 2.0262 0
M  V30 8865 H 842.789 -2.81339 2.65303 0
M  V30 8866 H 844.478 -2.67865 3.04964 0
M  V30 8867 H 845.244 -0.886062 4.76837 0
M  V30 8868 H 841.123 -1.95826 4.17341 0
M  V30 8869 H 844.667 0.0577248 6.97576 0
M  V30 8870 H 840.564 -1.02027 6.37386 0
M  V30 8871 H 841.332 -0.00593526 8.185 0
M  V30 8872 N 843.995 -1.47404 -0.557645 0
M  V30 8873 C 844.945 -1.56267 -1.66026 0
M  V30 8874 C 845.929 -0.42161 -1.55278 0
M  V30 8875 O 847.121 -0.671505 -1.63768 0
M  V30 8876 C 844.25 -1.57958 -3.04802 0
M  V30 8877 C 843.336 -2.77447 -3.20755 0
M  V30 8878 N 843.727 -4.02148 -3.06775 0
M  V30 8879 C 842.025 -2.74199 -3.51754 0
M  V30 8880 C 842.726 -4.82168 -3.25406 0
M  V30 8881 N 841.702 -4.14481 -3.5172 0
M  V30 8882 H 845.504 -2.50454 -1.53785 0
M  V30 8883 H 843.018 -1.43392 -0.762388 0
M  V30 8884 H 845.015 -1.62397 -3.8397 0
M  V30 8885 H 843.675 -0.648667 -3.18155 0
M  V30 8886 H 844.686 -4.33014 -2.84111 0
M  V30 8887 H 841.363 -1.90243 -3.71637 0
M  V30 8888 H 842.753 -5.91037 -3.19569 0
M  V30 8889 N 845.473 0.80434 -1.35529 0
M  V30 8890 C 846.719 1.56385 -1.29118 0
M  V30 8891 C 847.052 1.9374 0.133536 0
M  V30 8892 O 846.327 1.6153 1.08344 0
M  V30 8893 C 846.61 2.85097 -2.19981 0
M  V30 8894 C 846.463 2.54204 -3.7108 0
M  V30 8895 C 847.782 3.86817 -2.09907 0
M  V30 8896 H 844.901 0.567382 -0.470368 0
M  V30 8897 H 847.543 0.925235 -1.6595 0
M  V30 8898 H 845.693 3.39594 -1.88701 0
M  V30 8899 H 847.365 2.05872 -4.12813 0
M  V30 8900 H 845.608 1.87364 -3.91251 0
M  V30 8901 H 846.279 3.46068 -4.30048 0
M  V30 8902 H 848.755 3.41725 -2.37409 0
M  V30 8903 H 847.631 4.7465 -2.75678 0
M  V30 8904 H 847.892 4.28663 -1.08171 0
M  V30 8905 N 846.951 1.19563 1.02676 0
M  V30 8906 C 848.199 0.997593 1.75763 0
M  V30 8907 C 848.52 -0.47253 1.89188 0
M  V30 8908 O 847.79 -1.34214 1.42701 0
M  V30 8909 H 846.37 0.366128 0.651122 0
M  V30 8910 H 849.032 1.50495 1.23844 0
M  V30 8911 H 848.128 1.44741 2.76508 0
M  V30 8912 N 848.429 -1.21819 0.999893 0
M  V30 8913 C 849.845 -1.42847 0.711824 0
M  V30 8914 C 850.045 -1.88391 -0.714928 0
M  V30 8915 O 849.101 -2.0422 -1.48494 0
M  V30 8916 C 850.414 -2.46417 1.72334 0
M  V30 8917 C 851.962 -2.60207 1.73958 0
M  V30 8918 C 852.437 -3.67005 2.73992 0
M  V30 8919 N 853.928 -3.7447 2.72628 0
M  V30 8920 C 854.663 -4.56718 3.46693 0
M  V30 8921 N 854.159 -5.42904 4.3038 0
M  V30 8922 N 855.952 -4.51094 3.35366 0
M  V30 8923 H 848.103 -0.905656 1.92124 0
M  V30 8924 H 850.366 -0.459893 0.828977 0
M  V30 8925 H 850.072 -2.19914 2.74465 0
M  V30 8926 H 849.946 -3.45137 1.52186 0
M  V30 8927 H 852.333 -2.8605 0.725217 0
M  V30 8928 H 852.414 -1.61739 1.98177 0
M  V30 8929 H 852.058 -3.41908 3.75582 0
M  V30 8930 H 851.988 -4.65058 2.4704 0
M  V30 8931 H 854.479 -3.12895 2.11909 0
M  V30 8932 H 854.792 -6.02704 4.83702 0
M  V30 8933 H 853.137 -5.42463 4.34464 0
M  V30 8934 H 856.328 -3.82791 2.69423 0
M  V30 8935 H 856.501 -5.1496 3.93344 0
M  V30 8936 N 849.908 -0.773975 -1.37286 0
M  V30 8937 C 851.319 -0.404433 -1.82267 0
M  V30 8938 C 851.67 1.06971 -1.64474 0
M  V30 8939 O 850.795 1.82867 -1.15708 0
M  V30 8940 C 851.39 -0.727298 -3.30902 0
M  V30 8941 C 849.949 -0.410784 -3.74152 0
M  V30 8942 C 849.096 -0.969983 -2.59782 0
M  V30 8943 H 852.047 -0.968437 -1.25726 0
M  V30 8944 H 852.068 -0.0127575 -3.80498 0
M  V30 8945 H 851.58 -1.80026 -3.4382 0
M  V30 8946 H 849.681 0.65477 -3.66802 0
M  V30 8947 H 849.794 -0.920592 -4.70172 0
M  V30 8948 H 848.158 -0.394094 -2.51633 0
M  V30 8949 H 848.941 -2.04839 -2.75492 0
M  V30 8950 N 851.386 1.48609 -0.524698 0
M  V30 8951 C 852.633 2.02497 0.0113214 0
M  V30 8952 C 852.961 1.40229 1.34781 0
M  V30 8953 O 852.216 0.53557 1.88229 0
M  V30 8954 C 852.515 3.56906 0.187873 0
M  V30 8955 C 852.181 4.37932 -1.07359 0
M  V30 8956 C 850.843 4.59792 -1.41933 0
M  V30 8957 C 853.195 4.84902 -1.911 0
M  V30 8958 C 850.523 5.25868 -2.60154 0
M  V30 8959 C 852.875 5.52281 -3.08495 0
M  V30 8960 C 851.539 5.7238 -3.4342 0
M  V30 8961 H 850.809 0.740988 0.0041428 0
M  V30 8962 H 853.456 1.78651 -0.689652 0
M  V30 8963 H 851.761 3.79563 0.971572 0
M  V30 8964 H 853.458 3.96218 0.617443 0
M  V30 8965 H 850.048 4.21175 -0.794331 0
M  V30 8966 H 854.232 4.67821 -1.65701 0
M  V30 8967 H 849.488 5.39628 -2.87422 0
M  V30 8968 H 853.662 5.87645 -3.73692 0
M  V30 8969 H 851.289 6.23354 -4.35126 0
M  V30 8970 N 852.864 0.259585 1.55447 0
M  V30 8971 C 854.113 -0.362163 1.98422 0
M  V30 8972 C 854.426 -1.58135 1.1512 0
M  V30 8973 O 855.632 -2.27506 1.48166 0
M  V30 8974 C 854.088 -0.695722 3.53111 0
M  V30 8975 C 853.696 0.502784 4.4517 0
M  V30 8976 C 855.44 -1.28096 4.04712 0
M  V30 8977 C 853.347 0.144674 5.91223 0
M  V30 8978 H 852.277 -0.139092 0.74106 0
M  V30 8979 H 854.928 0.361798 1.79898 0
M  V30 8980 H 853.31 -1.47816 3.67378 0
M  V30 8981 H 854.484 1.27994 4.42667 0
M  V30 8982 H 852.799 1.0038 4.0412 0
M  V30 8983 H 855.396 -1.56243 5.11363 0
M  V30 8984 H 855.739 -2.20969 3.52815 0
M  V30 8985 H 856.272 -0.561146 3.93822 0
M  V30 8986 H 853.011 1.04087 6.47183 0
M  V30 8987 H 852.531 -0.596023 5.96831 0
M  V30 8988 H 854.21 -0.268651 6.46442 0
M  V30 8989 N 854.342 -1.57594 -0.0133615 0
M  V30 8990 C 855.567 -1.94649 -0.715996 0
M  V30 8991 C 855.992 -0.860786 -1.67249 0
M  V30 8992 O 855.35 0.182228 -1.80382 0
M  V30 8993 C 855.398 -3.30789 -1.43566 0
M  V30 8994 O 854.502 -3.24148 -2.54955 0
M  V30 8995 H 853.843 -0.635801 -0.191449 0
M  V30 8996 H 856.373 -2.04569 0.0358478 0
M  V30 8997 H 856.383 -3.66045 -1.80208 0
M  V30 8998 H 855.058 -4.09367 -0.734263 0
M  V30 8999 H 853.635 -3.00548 -2.20739 0
M  V30 9000 N 855.82 0.285905 -1.54985 0
M  V30 9001 C 856.752 1.37505 -1.83371 0
M  V30 9002 C 857.765 1.46138 -0.717454 0
M  V30 9003 O 858.954 1.48186 -0.995142 0
M  V30 9004 C 856.054 2.7575 -1.97016 0
M  V30 9005 C 855.227 2.89866 -3.27561 0
M  V30 9006 C 854.286 4.08704 -3.31433 0
M  V30 9007 O 853.312 4.00073 -4.04883 0
M  V30 9008 N 854.514 5.20062 -2.57907 0
M  V30 9009 H 857.279 1.13505 -2.77375 0
M  V30 9010 H 854.84 0.476006 -1.54744 0
M  V30 9011 H 856.832 3.5352 -1.96991 0
M  V30 9012 H 855.402 2.9263 -1.09938 0
M  V30 9013 H 854.622 1.99085 -3.40234 0
M  V30 9014 H 855.91 2.96219 -4.13681 0
M  V30 9015 H 855.308 5.29958 -1.97891 0
M  V30 9016 H 853.865 5.96111 -2.63619 0
M  V30 9017 N 857.298 1.47698 0.54982 0
M  V30 9018 C 858.528 1.58101 1.32995 0
M  V30 9019 C 858.936 0.232939 1.87761 0
M  V30 9020 O 858.279 -0.785058 1.6608 0
M  V30 9021 C 858.341 2.55228 2.53178 0
M  V30 9022 C 858.005 4.00756 2.19645 0
M  V30 9023 C 859.002 4.89025 1.76496 0
M  V30 9024 C 856.687 4.46147 2.30777 0
M  V30 9025 C 858.681 6.20707 1.44919 0
M  V30 9026 C 856.368 5.77856 1.98812 0
M  V30 9027 C 857.366 6.64957 1.55952 0
M  V30 9028 O 857.054 7.94217 1.24396 0
M  V30 9029 H 856.786 0.536362 0.411451 0
M  V30 9030 H 859.34 1.94092 0.67212 0
M  V30 9031 H 857.57 2.14319 3.21876 0
M  V30 9032 H 859.259 2.55678 3.15251 0
M  V30 9033 H 860.025 4.55201 1.67383 0
M  V30 9034 H 855.904 3.78552 2.63096 0
M  V30 9035 H 859.448 6.88649 1.11392 0
M  V30 9036 H 855.345 6.11219 2.0756 0
M  V30 9037 H 856.113 8.06789 1.37964 0
M  V30 9038 N 858.776 -0.797141 1.35954 0
M  V30 9039 C 859.724 -1.93084 1.29697 0
M  V30 9040 C 860.718 -1.68329 0.190152 0
M  V30 9041 O 861.924 -1.7643 0.3567 0
M  V30 9042 H 858.299 -0.634531 0.403577 0
M  V30 9043 H 860.27 -1.95481 2.25455 0
M  V30 9044 C 859.019 -3.29996 1.09536 0
M  V30 9045 H 858.342 -3.49607 1.93946 0
M  V30 9046 H 859.782 -4.09696 1.09202 0
M  V30 9047 C 858.241 -3.36304 -0.200381 0
M  V30 9048 O 858.771 -3.83579 -1.19291 0
M  V30 9049 N 856.977 -2.89587 -0.242406 0
M  V30 9050 H 856.524 -2.51307 0.565897 0
M  V30 9051 H 856.482 -2.94189 -1.10906 0
M  V30 9052 N 860.254 -1.20106 -1.0204 0
M  V30 9053 C 861.5 -1.01039 -1.75838 0
M  V30 9054 C 861.833 0.456819 -1.88751 0
M  V30 9055 O 861.108 1.33919 -1.41053 0
M  V30 9056 C 861.391 -1.69009 -3.17975 0
M  V30 9057 C 861.244 -3.2315 -3.1288 0
M  V30 9058 C 862.563 -1.42005 -4.16561 0
M  V30 9059 H 859.682 -0.368465 -0.638281 0
M  V30 9060 H 862.324 -1.48066 -1.19064 0
M  V30 9061 H 860.474 -1.29026 -3.66449 0
M  V30 9062 H 862.146 -3.72402 -2.72239 0
M  V30 9063 H 860.389 -3.54253 -2.50374 0
M  V30 9064 H 861.06 -3.65862 -4.13339 0
M  V30 9065 H 863.536 -1.76685 -3.76725 0
M  V30 9066 H 862.412 -1.92101 -5.14187 0
M  V30 9067 H 862.673 -0.346884 -4.40737 0
M  V30 9068 O 861.771 1.15001 -1.13389 0
M  V30 9069 H 862.462 1.74049 -0.85009 0
M  V30 END ATOM
M  V30 BEGIN BOND
M  V30 END BOND
M  V30 END CTAB
M  END
$$$$
