drugbank_target|P05193 Beta-lactamase (DB00355)
 OpenBabel12092119543D

  0  0  0     0  0            999 V3000
M  V30 BEGIN CTAB
M  V30 COUNTS 5928 6005 0 0 0
M  V30 BEGIN ATOM
M  V30 1 H -0.908 1.98254 -0.117106 0
M  V30 2 N 0 1.576 0 0
M  V30 3 C 0.933 2.03868 1.02534 0
M  V30 4 C 1.911 0.928543 1.3348 0
M  V30 5 O 3.095 1.19667 1.45644 0
M  V30 6 C 0.222 2.43627 2.35294 0
M  V30 7 C -0.732 3.65373 2.2001 0
M  V30 8 S 0.101 5.13292 1.52614 0
M  V30 9 C 1.257 5.56322 2.86805 0
M  V30 10 H 1.49 2.90518 0.631377 0
M  V30 11 H -0.977 1.52953 0.210867 0
M  V30 12 H 0.981 2.67203 3.11629 0
M  V30 13 H -0.358 1.57376 2.7183 0
M  V30 14 H -1.165 3.90944 3.18086 0
M  V30 15 H -1.563 3.418 1.51819 0
M  V30 16 H 0.729 5.58782 3.83104 0
M  V30 17 H 1.672 6.56266 2.65933 0
M  V30 18 H 2.08 4.83886 2.90714 0
M  V30 19 N 1.4781 -0.272755 1.55222 0
M  V30 20 C 2.4111 -1.3627 1.83046 0
M  V30 21 C 3.3891 -1.47536 0.683521 0
M  V30 22 O 4.5731 -1.64157 0.926545 0
M  V30 23 C 1.7001 -2.73908 1.99229 0
M  V30 24 C 0.7461 -2.79925 3.21783 0
M  V30 25 S 1.5791 -2.39146 4.79134 0
M  V30 26 C 2.7351 -3.78758 4.9829 0
M  V30 27 H 2.9681 -1.12464 2.75207 0
M  V30 28 H 0.5011 -0.472398 1.46996 0
M  V30 29 H 2.4591 -3.53171 2.09238 0
M  V30 30 H 1.1201 -2.94965 1.07956 0
M  V30 31 H 0.3131 -3.80946 3.29994 0
M  V30 32 H -0.0849 -2.08683 3.10367 0
M  V30 33 H 2.2071 -4.7403 4.84047 0
M  V30 34 H 3.1501 -3.75499 6.00338 0
M  V30 35 H 3.5581 -3.70072 4.26271 0
M  V30 36 N 2.9562 -1.48159 -0.537278 0
M  V30 37 C 3.9032 -1.62138 -1.64256 0
M  V30 38 C 4.8732 -0.463668 -1.59497 0
M  V30 39 O 6.0582 -0.686241 -1.78032 0
M  V30 40 C 3.1982 -1.66028 -3.02537 0
M  V30 41 C 2.3112 -2.92855 -3.17585 0
M  V30 42 C 1.4462 -2.87952 -4.46382 0
M  V30 43 C 0.4852 -4.09516 -4.54932 0
M  V30 44 N -0.3778 -4.02733 -5.75109 0
M  V30 45 H 4.4622 -2.56529 -1.51647 0
M  V30 46 H 1.9992 -1.27224 -0.738414 0
M  V30 47 H 3.9572 -1.66265 -3.82638 0
M  V30 48 H 2.5872 -0.751331 -3.13934 0
M  V30 49 H 1.6392 -3.02395 -2.30784 0
M  V30 50 H 2.9512 -3.82822 -3.19764 0
M  V30 51 H 2.1052 -2.8655 -5.34765 0
M  V30 52 H 0.8442 -1.95702 -4.46712 0
M  V30 53 H -0.1508 -4.11201 -3.64957 0
M  V30 54 H 1.0742 -5.02917 -4.56346 0
M  V30 55 H -0.9798 -3.13299 -5.76351 0
M  V30 56 H -1.0628 -4.86397 -5.78752 0
M  V30 57 H 0.2052 -4.05379 -6.65799 0
M  V30 58 N 4.4343 0.785586 -1.36625 0
M  V30 59 C 5.3813 1.89838 -1.31264 0
M  V30 60 C 6.3513 1.65115 -0.180633 0
M  V30 61 O 7.5363 1.87222 -0.36777 0
M  V30 62 C 4.6763 3.26706 -1.11163 0
M  V30 63 C 3.7893 3.63476 -2.33472 0
M  V30 64 C 2.9243 4.89481 -2.06353 0
M  V30 65 C 1.9633 5.18941 -3.24602 0
M  V30 66 N 1.1003 6.36131 -2.97123 0
M  V30 67 H 5.9403 1.93756 -2.26413 0
M  V30 68 H 3.4773 0.947454 -1.12524 0
M  V30 69 H 5.4353 4.05639 -0.975337 0
M  V30 70 H 4.0653 3.222 -0.196674 0
M  V30 71 H 3.1173 2.79636 -2.57891 0
M  V30 72 H 4.4293 3.81193 -3.21704 0
M  V30 73 H 3.5833 5.76288 -1.89675 0
M  V30 74 H 2.3223 4.73841 -1.15437 0
M  V30 75 H 1.3273 4.30615 -3.41834 0
M  V30 76 H 2.5523 5.36498 -4.16349 0
M  V30 77 H 0.4983 6.21875 -2.08823 0
M  V30 78 H 0.4153 6.54198 -3.78894 0
M  V30 79 H 1.6833 7.2591 -2.84033 0
M  V30 80 N 5.9124 1.20967 1.01018 0
M  V30 81 C 7.1374 1.0503 1.78839 0
M  V30 82 C 7.5624 -0.395752 1.8389 0
M  V30 83 O 6.9204 -1.28529 1.27867 0
M  V30 84 C 6.9684 1.64602 3.2084 0
M  V30 85 O 6.0724 0.887988 4.02726 0
M  V30 86 H 5.4134 0.369987 0.551367 0
M  V30 87 H 7.9434 1.60399 1.27018 0
M  V30 88 H 7.9534 1.68607 3.71532 0
M  V30 89 H 6.6284 2.69841 3.16479 0
M  V30 90 H 5.2054 0.922648 3.61305 0
M  V30 91 N 7.3905 -1.2043 1.01659 0
M  V30 92 C 8.6395 -1.89118 0.701237 0
M  V30 93 C 8.9525 -1.79705 -0.772358 0
M  V30 94 O 10.1585 -2.43528 -1.20026 0
M  V30 95 C 8.6145 -3.39168 1.20388 0
M  V30 96 C 8.2225 -3.57166 2.70438 0
M  V30 97 C 9.9665 -4.1341 0.963953 0
M  V30 98 C 7.8735 -5.01042 3.14183 0
M  V30 99 H 6.8035 -0.708267 0.2586 0
M  V30 100 H 9.4545 -1.36239 1.22927 0
M  V30 101 H 7.8365 -3.91369 0.603824 0
M  V30 102 H 9.0105 -3.15351 3.35992 0
M  V30 103 H 7.3255 -2.96294 2.92572 0
M  V30 104 H 9.9225 -5.19491 1.26621 0
M  V30 105 H 10.2655 -4.16181 -0.099578 0
M  V30 106 H 10.7985 -3.67309 1.52738 0
M  V30 107 H 7.5375 -5.03426 4.19812 0
M  V30 108 H 7.0575 -5.43668 2.53348 0
M  V30 109 H 8.7365 -5.69623 3.0682 0
M  V30 110 N 8.8686 -0.792821 -1.36206 0
M  V30 111 C 10.1086 -0.372238 -2.00982 0
M  V30 112 C 10.4726 1.03749 -1.61555 0
M  V30 113 O 11.6736 1.55934 -2.18948 0
M  V30 114 C 9.9446 -0.534566 -3.5338 0
M  V30 115 S 11.5036 -0.202365 -4.38333 0
M  V30 116 H 8.3216 -0.142044 -0.696667 0
M  V30 117 H 10.9236 -1.03206 -1.66039 0
M  V30 118 H 9.6276 -1.5608 -3.79562 0
M  V30 119 H 9.1586 0.141065 -3.93147 0
M  V30 120 H 11.1736 0.994869 -4.86124 0
M  V30 121 N 10.3467 1.47872 -0.545128 0
M  V30 122 C 11.5867 2.04391 -0.0187854 0
M  V30 123 C 11.9507 1.41162 1.30144 0
M  V30 124 O 13.1517 1.88656 1.91474 0
M  V30 125 C 11.4227 3.57299 0.0850867 0
M  V30 126 S 12.9817 4.35221 0.559302 0
M  V30 127 H 9.7997 0.710737 -0.0193301 0
M  V30 128 H 12.4017 1.81395 -0.729125 0
M  V30 129 H 11.1057 4.00847 -0.880351 0
M  V30 130 H 10.6367 3.84773 0.819348 0
M  V30 131 H 12.6517 4.61571 1.82118 0
M  V30 132 N 11.8248 0.280983 1.55075 0
M  V30 133 C 12.7878 -0.590896 2.21452 0
M  V30 134 C 13.7878 -1.07682 1.19421 0
M  V30 135 O 14.9778 -0.97605 1.44288 0
M  V30 136 C 12.1098 -1.81587 2.88511 0
M  V30 137 H 13.3028 -0.0112554 2.99898 0
M  V30 138 H 10.8558 0.0316438 1.56268 0
M  V30 139 H 11.5908 -2.43587 2.14093 0
M  V30 140 H 11.3758 -1.4753 3.63287 0
M  V30 141 H 12.8658 -2.43575 3.39206 0
M  V30 142 N 13.3029 -1.57598 0.00835791 0
M  V30 143 C 14.2329 -2.1198 -0.979113 0
M  V30 144 C 15.2139 -1.03091 -1.35301 0
M  V30 145 O 16.3989 -1.30818 -1.43528 0
M  V30 146 C 13.5289 -2.62995 -2.26828 0
M  V30 147 C 12.4829 -3.76485 -2.03576 0
M  V30 148 C 11.8089 -4.13846 -3.38579 0
M  V30 149 C 13.1089 -5.0342 -1.39161 0
M  V30 150 H 14.8029 -2.94738 -0.526281 0
M  V30 151 H 12.3489 -1.41783 -0.251704 0
M  V30 152 H 14.3019 -2.99669 -2.96271 0
M  V30 153 H 13.0259 -1.7737 -2.7424 0
M  V30 154 H 11.6849 -3.40217 -1.36557 0
M  V30 155 H 11.3329 -3.25232 -3.83709 0
M  V30 156 H 11.0329 -4.90312 -3.23834 0
M  V30 157 H 12.5569 -4.53086 -4.09323 0
M  V30 158 H 13.9709 -5.37812 -1.98573 0
M  V30 159 H 12.3679 -5.84746 -1.34878 0
M  V30 160 H 13.4379 -4.83548 -0.361868 0
M  V30 161 N 14.781 0.264519 -1.55364 0
M  V30 162 C 15.711 1.33121 -1.91836 0
M  V30 163 C 16.692 1.51101 -0.781192 0
M  V30 164 O 17.877 1.64003 -1.04003 0
M  V30 165 C 15.007 2.68921 -2.19769 0
M  V30 166 C 13.961 2.65661 -3.35571 0
M  V30 167 C 13.287 4.05093 -3.49004 0
M  V30 168 C 14.587 2.24187 -4.71739 0
M  V30 169 H 16.281 1.02844 -2.81182 0
M  V30 170 H 13.827 0.493286 -1.35287 0
M  V30 171 H 15.78 3.43663 -2.43872 0
M  V30 172 H 14.504 3.00799 -1.27231 0
M  V30 173 H 13.163 1.93377 -3.1145 0
M  V30 174 H 12.811 4.34206 -2.53917 0
M  V30 175 H 12.511 4.03804 -4.26868 0
M  V30 176 H 14.035 4.81561 -3.75408 0
M  V30 177 H 15.449 2.88654 -4.9533 0
M  V30 178 H 13.846 2.34044 -5.52579 0
M  V30 179 H 14.916 1.19327 -4.69988 0
M  V30 180 N 16.2591 1.48442 0.529413 0
M  V30 181 C 17.1891 1.65902 1.64313 0
M  V30 182 C 18.1701 0.507897 1.6234 0
M  V30 183 O 19.3551 0.740503 1.79528 0
M  V30 184 C 16.4851 1.69911 3.02898 0
M  V30 185 C 15.4391 2.8453 3.19729 0
M  V30 186 C 14.7651 2.73629 4.59381 0
M  V30 187 C 16.0651 4.25821 3.02447 0
M  V30 188 H 17.7591 2.5914 1.49955 0
M  V30 189 H 15.3051 1.24709 0.719982 0
M  V30 190 H 17.2581 1.80715 3.80684 0
M  V30 191 H 15.9821 0.732524 3.18279 0
M  V30 192 H 14.6411 2.73283 2.44361 0
M  V30 193 H 14.2891 1.74938 4.71599 0
M  V30 194 H 13.9891 3.50541 4.71588 0
M  V30 195 H 15.5131 2.86401 5.39265 0
M  V30 196 H 16.9271 4.37898 3.70024 0
M  V30 197 H 15.3241 5.03735 3.26146 0
M  V30 198 H 16.3941 4.42244 1.98867 0
M  V30 199 N 17.7372 -0.778329 1.37039 0
M  V30 200 C 18.9652 -1.56734 1.35063 0
M  V30 201 C 19.3802 -1.88686 -0.0655597 0
M  V30 202 O 18.7372 -1.5096 -1.02554 0
M  V30 203 C 18.7882 -2.88163 2.18276 0
M  V30 204 O 18.5092 -2.57583 3.54376 0
M  V30 205 C 20.0102 -3.82422 2.24206 0
M  V30 206 H 17.2302 -0.485778 0.462883 0
M  V30 207 H 19.7742 -0.965185 1.8029 0
M  V30 208 H 17.9292 -3.44818 1.76576 0
M  V30 209 H 18.3432 -3.41699 3.97922 0
M  V30 210 H 19.8172 -4.71667 2.86765 0
M  V30 211 H 20.2942 -4.21078 1.24861 0
M  V30 212 H 20.9002 -3.31697 2.6619 0
M  V30 213 N 19.2153 -1.21501 -1.00376 0
M  V30 214 C 20.1783 -0.976927 -2.07337 0
M  V30 215 C 21.1783 0.0525322 -1.60714 0
M  V30 216 O 22.3683 -0.184869 -1.73216 0
M  V30 217 C 19.5003 -0.473423 -3.37597 0
M  V30 218 H 20.6933 -1.92587 -2.29892 0
M  V30 219 H 18.2463 -1.03217 -1.17371 0
M  V30 220 H 18.9813 0.480379 -3.20722 0
M  V30 221 H 18.7663 -1.216 -3.72768 0
M  V30 222 H 20.2563 -0.32675 -4.1632 0
M  V30 223 N 20.6934 1.19889 -1.02296 0
M  V30 224 C 21.9184 1.9393 -0.735237 0
M  V30 225 C 22.3434 1.74639 0.698782 0
M  V30 226 O 21.7014 1.04481 1.48167 0
M  V30 227 C 21.7494 3.43916 -1.08417 0
M  V30 228 O 20.8534 4.11917 -0.199446 0
M  V30 229 H 20.1944 0.605645 -0.272196 0
M  V30 230 H 22.7244 1.52137 -1.36804 0
M  V30 231 H 22.7344 3.9456 -1.03856 0
M  V30 232 H 21.4094 3.5728 -2.12894 0
M  V30 233 H 19.9864 3.71666 -0.303136 0
M  V30 234 N 22.1715 0.800033 1.35784 0
M  V30 235 C 23.4185 0.377342 1.98953 0
M  V30 236 C 23.7465 -1.05378 1.6348 0
M  V30 237 O 23.0015 -1.74459 0.886707 0
M  V30 238 C 23.3005 0.500276 3.53881 0
M  V30 239 C 22.9665 1.89375 4.09204 0
M  V30 240 C 21.6285 2.27499 4.24025 0
M  V30 241 C 23.9805 2.8057 4.39238 0
M  V30 242 C 21.3085 3.562 4.66195 0
M  V30 243 C 23.6605 4.0871 4.82844 0
M  V30 244 C 22.3245 4.46843 4.95871 0
M  V30 245 H 21.5945 0.138079 0.728021 0
M  V30 246 H 24.2415 1.01955 1.62103 0
M  V30 247 H 22.5465 -0.225405 3.91151 0
M  V30 248 H 24.2435 0.154097 4.00704 0
M  V30 249 H 20.8335 1.58753 3.98115 0
M  V30 250 H 25.0175 2.52367 4.27346 0
M  V30 251 H 20.2735 3.85602 4.74469 0
M  V30 252 H 24.4475 4.79481 5.05046 0
M  V30 253 H 22.0745 5.46623 5.28306 0
M  V30 254 N 23.6496 -1.47581 0.552962 0
M  V30 255 C 24.8746 -2.07378 0.0300593 0
M  V30 256 C 25.2996 -1.40355 -1.25229 0
M  V30 257 O 24.6576 -0.477099 -1.7491 0
M  V30 258 C 24.7056 -3.60274 -0.153231 0
M  V30 259 O 23.8096 -3.94041 -1.21678 0
M  V30 260 H 23.1506 -0.662158 0.0494182 0
M  V30 261 H 25.6806 -1.89662 0.767434 0
M  V30 262 H 25.6906 -4.0633 -0.368761 0
M  V30 263 H 24.3656 -4.08455 0.783397 0
M  V30 264 H 22.9426 -3.59735 -0.982079 0
M  V30 265 N 25.1277 -0.289203 -1.54924 0
M  V30 266 C 26.3557 0.326463 -2.04308 0
M  V30 267 C 26.7707 1.48413 -1.16701 0
M  V30 268 O 26.1277 1.81507 -0.190087 0
M  V30 269 C 26.1787 0.794014 -3.52672 0
M  V30 270 O 25.8997 -0.317564 -4.36948 0
M  V30 271 C 27.4007 1.47605 -4.18004 0
M  V30 272 H 24.6207 0.0726272 -0.667058 0
M  V30 273 H 27.1647 -0.425401 -2.00026 0
M  V30 274 H 25.3197 1.49593 -3.57352 0
M  V30 275 H 25.7337 0.0443186 -5.24481 0
M  V30 276 H 27.2077 1.75447 -5.23376 0
M  V30 277 H 27.6847 2.41224 -3.67025 0
M  V30 278 H 28.2907 0.81762 -4.17367 0
M  V30 279 N 26.6058 1.57591 -0.0167156 0
M  V30 280 C 27.8528 1.91283 0.664597 0
M  V30 281 C 28.1808 0.891949 1.72842 0
M  V30 282 O 27.4358 -0.100931 1.9544 0
M  V30 283 C 27.7348 3.3172 1.33029 0
M  V30 284 C 27.4008 4.4914 0.398047 0
M  V30 285 C 26.0628 4.80992 0.141421 0
M  V30 286 C 28.4148 5.20634 -0.242825 0
M  V30 287 C 25.7428 5.81703 -0.764092 0
M  V30 288 C 28.0948 6.22311 -1.13632 0
M  V30 289 C 26.7588 6.52611 -1.40196 0
M  V30 290 H 26.0288 0.699956 0.243193 0
M  V30 291 H 28.6758 1.9135 -0.0758267 0
M  V30 292 H 26.9808 3.27856 2.14517 0
M  V30 293 H 28.6778 3.55055 1.86379 0
M  V30 294 H 25.2678 4.24262 0.608238 0
M  V30 295 H 29.4518 4.96267 -0.0576019 0
M  V30 296 H 24.7078 6.03532 -0.977732 0
M  V30 297 H 28.8818 6.76834 -1.63917 0
M  V30 298 H 26.5088 7.30467 -2.10529 0
M  V30 299 N 28.0839 -0.256276 1.55502 0
M  V30 300 C 29.0469 -1.30047 1.88734 0
M  V30 301 C 30.0469 -1.4154 0.763086 0
M  V30 302 O 31.2369 -1.40403 1.03115 0
M  V30 303 C 28.3689 -2.67953 2.10747 0
M  V30 304 H 29.5619 -1.01802 2.82093 0
M  V30 305 H 27.1149 -0.495134 1.4825 0
M  V30 306 H 27.8499 -3.01351 1.19825 0
M  V30 307 H 27.6349 -2.60993 2.92617 0
M  V30 308 H 29.1249 -3.43368 2.37673 0
M  V30 309 N 29.562 -1.4872 -0.521534 0
M  V30 310 C 30.525 -1.63379 -1.60748 0
M  V30 311 C 31.525 -0.50661 -1.52611 0
M  V30 312 O 32.715 -0.772601 -1.5613 0
M  V30 313 C 29.847 -1.61192 -3.00383 0
M  V30 314 H 31.04 -2.60217 -1.49087 0
M  V30 315 H 28.593 -1.37444 -0.744235 0
M  V30 316 H 29.328 -0.65863 -3.17541 0
M  V30 317 H 29.113 -2.43032 -3.07698 0
M  V30 318 H 30.603 -1.7466 -3.7932 0
M  V30 319 N 31.0401 0.771051 -1.3745 0
M  V30 320 C 32.0031 1.86598 -1.33093 0
M  V30 321 C 33.0031 1.59076 -0.234845 0
M  V30 322 O 34.1931 1.67145 -0.490732 0
M  V30 323 C 31.3251 3.23747 -1.06773 0
M  V30 324 H 32.5181 1.91873 -2.30488 0
M  V30 325 H 30.0711 0.970876 -1.2249 0
M  V30 326 H 30.8061 3.24148 -0.099129 0
M  V30 327 H 30.5911 3.45115 -1.86112 0
M  V30 328 H 32.0811 4.03824 -1.06377 0
M  V30 329 N 32.5182 1.22032 0.997298 0
M  V30 330 C 33.4652 0.986467 2.08656 0
M  V30 331 C 34.4352 -0.0902671 1.65855 0
M  V30 332 O 35.6202 0.0584294 1.90711 0
M  V30 333 C 32.7602 0.565569 3.40434 0
M  V30 334 C 31.8732 1.71259 3.96604 0
M  V30 335 C 31.0082 1.24011 5.16522 0
M  V30 336 C 30.0472 2.35896 5.64818 0
M  V30 337 N 29.1842 1.89726 6.7598 0
M  V30 338 H 34.0242 1.91892 2.27994 0
M  V30 339 H 31.5612 0.956199 1.11782 0
M  V30 340 H 33.5192 0.302738 4.161 0
M  V30 341 H 32.1492 -0.329879 3.2111 0
M  V30 342 H 31.2012 2.08986 3.17851 0
M  V30 343 H 32.5132 2.55436 4.28432 0
M  V30 344 H 31.6672 0.934395 5.99461 0
M  V30 345 H 30.4062 0.368487 4.86306 0
M  V30 346 H 29.4112 2.67261 4.8047 0
M  V30 347 H 30.6362 3.23567 5.97061 0
M  V30 348 H 28.5822 1.0492 6.47555 0
M  V30 349 H 28.4992 2.67471 7.07103 0
M  V30 350 H 29.7672 1.62211 7.62435 0
M  V30 351 N 33.9963 -1.19345 1.0293 0
M  V30 352 C 35.2243 -1.92997 0.745644 0
M  V30 353 C 35.6393 -1.75519 -0.695589 0
M  V30 354 O 34.9963 -1.07737 -1.47306 0
M  V30 355 C 35.0473 -3.44741 1.08792 0
M  V30 356 O 34.7683 -3.61658 2.47256 0
M  V30 357 C 36.2693 -4.35515 0.827129 0
M  V30 358 H 33.4893 -0.613042 0.272801 0
M  V30 359 H 36.0333 -1.51473 1.3739 0
M  V30 360 H 34.1883 -3.84097 0.504832 0
M  V30 361 H 34.6023 -4.55514 2.60015 0
M  V30 362 H 36.0763 -5.40589 1.11658 0
M  V30 363 H 36.5533 -4.38552 -0.238436 0
M  V30 364 H 37.1593 -4.01841 1.39297 0
M  V30 365 N 35.4744 -0.807222 -1.35358 0
M  V30 366 C 36.3844 -0.219594 -2.3357 0
M  V30 367 C 37.4004 0.637734 -1.61892 0
M  V30 368 O 38.5764 0.549336 -1.93763 0
M  V30 369 C 35.6414 0.62158 -3.41083 0
M  V30 370 C 34.7024 -0.256315 -4.28534 0
M  V30 371 C 33.9354 0.544807 -5.30912 0
M  V30 372 O 34.1584 1.77944 -5.41934 0
M  V30 373 O 33.0924 -0.0646478 -6.01865 0
M  V30 374 H 36.9184 -1.03208 -2.85625 0
M  V30 375 H 34.5034 -0.569025 -1.38139 0
M  V30 376 H 36.3854 1.10067 -4.06772 0
M  V30 377 H 35.0604 1.41165 -2.91297 0
M  V30 378 H 33.9674 -0.782559 -3.65823 0
M  V30 379 H 35.3004 -1.01034 -4.81719 0
M  V30 380 N 36.9525 1.47285 -0.560781 0
M  V30 381 C 37.8845 2.28118 0.222438 0
M  V30 382 C 38.8975 1.37219 0.876056 0
M  V30 383 O 40.0865 1.62011 0.749307 0
M  V30 384 C 37.1865 3.1159 1.33285 0
M  V30 385 C 36.3595 4.30473 0.77534 0
M  V30 386 C 35.4185 4.95513 1.77069 0
M  V30 387 O 34.4445 5.53792 1.31539 0
M  V30 388 N 35.6465 4.90531 3.10418 0
M  V30 389 H 38.4115 2.95976 -0.470958 0
M  V30 390 H 35.9725 1.56955 -0.39709 0
M  V30 391 H 37.9645 3.51967 1.99752 0
M  V30 392 H 36.5345 2.45951 1.92943 0
M  V30 393 H 35.7545 3.94144 -0.0662113 0
M  V30 394 H 37.0425 5.07362 0.382272 0
M  V30 395 H 36.4405 4.44389 3.5005 0
M  V30 396 H 34.9975 5.34917 3.72434 0
M  V30 397 N 38.4306 0.297415 1.54768 0
M  V30 398 C 39.3626 -0.613881 2.20826 0
M  V30 399 C 40.3756 -1.10032 1.19987 0
M  V30 400 O 41.5646 -1.01839 1.46598 0
M  V30 401 C 38.6646 -1.852 2.83821 0
M  V30 402 C 37.8376 -1.50865 4.10559 0
M  V30 403 C 36.8966 -2.60154 4.57391 0
M  V30 404 O 35.9226 -2.25398 5.2267 0
M  V30 405 N 37.1246 -3.90629 4.29406 0
M  V30 406 H 39.8896 -0.048389 2.99661 0
M  V30 407 H 37.4506 0.11946 1.61459 0
M  V30 408 H 39.4426 -2.57652 3.12086 0
M  V30 409 H 38.0126 -2.32597 2.08847 0
M  V30 410 H 37.2326 -0.616925 3.89343 0
M  V30 411 H 38.5206 -1.25458 4.9309 0
M  V30 412 H 37.9186 -4.21677 3.77101 0
M  V30 413 H 36.4756 -4.59391 4.62388 0
M  V30 414 N 39.9087 -1.5758 0.0250728 0
M  V30 415 C 41.1577 -1.90811 -0.653767 0
M  V30 416 C 41.4707 -0.90273 -1.73523 0
M  V30 417 O 42.6767 -1.12614 -2.47043 0
M  V30 418 C 41.1327 -3.38804 -1.21409 0
M  V30 419 C 40.7407 -4.47692 -0.166126 0
M  V30 420 C 42.4847 -3.81108 -1.86967 0
M  V30 421 C 40.3917 -5.86779 -0.737856 0
M  V30 422 H 39.3217 -0.712063 -0.247956 0
M  V30 423 H 41.9727 -1.83281 0.0897137 0
M  V30 424 H 40.3547 -3.41252 -2.00905 0
M  V30 425 H 41.5287 -4.56797 0.606079 0
M  V30 426 H 39.8437 -4.14565 0.390466 0
M  V30 427 H 42.4407 -4.82375 -2.30692 0
M  V30 428 H 42.7837 -3.15953 -2.71071 0
M  V30 429 H 43.3167 -3.81065 -1.14167 0
M  V30 430 H 40.0557 -6.55468 0.0649577 0
M  V30 431 H 39.5757 -5.81288 -1.47864 0
M  V30 432 H 41.2547 -6.35223 -1.22884 0
M  V30 433 N 41.3868 0.248026 -1.55636 0
M  V30 434 C 42.3498 1.29044 -1.89421 0
M  V30 435 C 43.3498 1.41134 -0.770581 0
M  V30 436 O 44.5398 1.39854 -1.03858 0
M  V30 437 C 41.6718 2.66831 -2.12165 0
M  V30 438 H 42.8648 1.00305 -2.82629 0
M  V30 439 H 40.4178 0.487265 -1.48511 0
M  V30 440 H 41.1528 3.00711 -1.21422 0
M  V30 441 H 40.9378 2.59438 -2.93997 0
M  V30 442 H 42.4278 3.42103 -2.3949 0
M  V30 443 N 42.8649 1.48995 0.513639 0
M  V30 444 C 44.1419 1.48338 1.27495 0
M  V30 445 C 44.5219 0.204065 2.10111 0
M  V30 446 O 43.8699 -0.813881 2.13514 0
M  V30 447 C 44.0799 2.75498 2.14247 0
M  V30 448 C 45.4279 3.24484 2.73852 0
M  V30 449 O 46.4519 2.76528 2.24523 0
M  V30 450 O 45.3109 4.07974 3.6362 0
M  V30 451 H 42.4049 0.593149 0.576284 0
M  V30 452 H 44.9509 1.61246 0.528948 0
M  V30 453 H 43.7229 3.60109 1.53092 0
M  V30 454 H 43.3459 2.6539 2.96064 0
M  V30 455 N 44.343 -0.763751 1.37857 0
M  V30 456 C 45.592 -1.51789 1.32827 0
M  V30 457 C 45.905 -1.95426 -0.0823719 0
M  V30 458 O 47.111 -2.70298 -0.255172 0
M  V30 459 C 45.567 -2.74133 2.33193 0
M  V30 460 C 45.175 -2.37562 3.79827 0
M  V30 461 C 46.919 -3.52054 2.37188 0
M  V30 462 C 44.826 -3.56456 4.71904 0
M  V30 463 H 43.756 -0.569896 0.493695 0
M  V30 464 H 46.407 -0.835822 1.63359 0
M  V30 465 H 44.789 -3.4427 1.9569 0
M  V30 466 H 45.963 -1.75157 4.26212 0
M  V30 467 H 44.278 -1.72798 3.78853 0
M  V30 468 H 46.875 -4.40437 3.03182 0
M  V30 469 H 47.218 -3.92486 1.38782 0
M  V30 470 H 47.751 -2.88921 2.7344 0
M  V30 471 H 44.49 -3.21099 5.71468 0
M  V30 472 H 44.01 -4.17938 4.30218 0
M  V30 473 H 45.689 -4.23168 4.89426 0
M  V30 474 N 45.8211 -1.22559 -0.990812 0
M  V30 475 C 47.0671 -1.05297 -1.73322 0
M  V30 476 C 47.4001 0.410655 -1.89808 0
M  V30 477 O 46.6751 1.30439 -1.44277 0
M  V30 478 C 46.9581 -1.76713 -3.13759 0
M  V30 479 C 46.8111 -3.30684 -3.04907 0
M  V30 480 C 48.1301 -1.52121 -4.12974 0
M  V30 481 H 45.2491 -0.38392 -0.629106 0
M  V30 482 H 47.8911 -1.50926 -1.15418 0
M  V30 483 H 46.0411 -1.37924 -3.63193 0
M  V30 484 H 47.7131 -3.7893 -2.63077 0
M  V30 485 H 45.9561 -3.60253 -2.41661 0
M  V30 486 H 46.6271 -3.75833 -4.04294 0
M  V30 487 H 49.1031 -1.85819 -3.72304 0
M  V30 488 H 47.9791 -2.04582 -5.0935 0
M  V30 489 H 48.2401 -0.454257 -4.3976 0
M  V30 490 N 47.2992 1.18797 -1.03562 0
M  V30 491 C 48.2472 2.24297 -0.615905 0
M  V30 492 C 49.2412 1.65643 0.354808 0
M  V30 493 O 50.4472 1.78618 0.22265 0
M  V30 494 H 46.8222 0.729909 -0.180934 0
M  V30 495 H 48.7932 2.5701 -1.5162 0
M  V30 496 C 47.5422 3.47698 0.0104735 0
M  V30 497 H 46.8652 3.93125 -0.727509 0
M  V30 498 H 48.3052 4.23159 0.266995 0
M  V30 499 C 46.7642 3.12489 1.25905 0
M  V30 500 O 47.2942 3.25761 2.35038 0
M  V30 501 N 45.5002 2.6686 1.15039 0
M  V30 502 H 45.0472 2.56261 0.262328 0
M  V30 503 H 45.0052 2.43674 1.98672 0
M  V30 504 N 48.7773 0.814389 1.34928 0
M  V30 505 C 50.1933 0.499084 1.51596 0
M  V30 506 C 50.3933 -0.978319 1.76157 0
M  V30 507 O 49.4493 -1.76309 1.80752 0
M  V30 508 C 50.7623 1.35121 2.68631 0
M  V30 509 C 52.3103 1.34746 2.82511 0
M  V30 510 C 52.7853 2.18388 4.0258 0
M  V30 511 N 54.2763 2.15966 4.09772 0
M  V30 512 C 55.0113 2.77437 5.01813 0
M  V30 513 N 54.5073 3.47866 5.99134 0
M  V30 514 N 56.3003 2.67037 4.94619 0
M  V30 515 H 48.4513 1.7711 1.17243 0
M  V30 516 H 50.7143 0.754256 0.574284 0
M  V30 517 H 50.4203 2.40001 2.57085 0
M  V30 518 H 50.2943 1.00991 3.63429 0
M  V30 519 H 52.6813 0.30648 2.93504 0
M  V30 520 H 52.7623 1.72869 1.88547 0
M  V30 521 H 52.4063 3.2253 3.92347 0
M  V30 522 H 52.3363 1.77621 4.9574 0
M  V30 523 H 54.8273 1.64729 3.40107 0
M  V30 524 H 55.1403 3.92038 6.65977 0
M  V30 525 H 53.4853 3.51972 5.99284 0
M  V30 526 H 56.6763 2.11597 4.17546 0
M  V30 527 H 56.8493 3.15232 5.66156 0
M  V30 528 N 50.2554 -1.46986 0.568584 0
M  V30 529 C 51.4834 -2.0683 0.0539956 0
M  V30 530 C 51.8984 -1.41953 -1.24478 0
M  V30 531 O 51.2554 -0.519933 -1.74937 0
M  V30 532 C 51.3064 -3.61254 -0.133362 0
M  V30 533 O 51.0274 -4.237 1.11399 0
M  V30 534 C 52.5284 -4.37992 -0.683927 0
M  V30 535 H 49.7484 -0.669058 0.0510141 0
M  V30 536 H 52.2924 -1.88824 0.785234 0
M  V30 537 H 50.4474 -3.78735 -0.81477 0
M  V30 538 H 50.8614 -5.16388 0.91888 0
M  V30 539 H 52.3354 -5.46684 -0.764263 0
M  V30 540 H 52.8124 -4.05058 -1.69778 0
M  V30 541 H 53.4184 -4.25283 -0.0378494 0
M  V30 542 N 51.7335 -0.305618 -1.54608 0
M  V30 543 C 52.9825 0.303098 -1.9941 0
M  V30 544 C 53.2955 1.54648 -1.19764 0
M  V30 545 O 54.5015 2.23007 -1.54855 0
M  V30 546 C 52.9575 0.590588 -3.55021 0
M  V30 547 C 52.5655 -0.634719 -4.43481 0
M  V30 548 C 54.3095 1.16025 -4.08336 0
M  V30 549 C 52.2165 -0.320126 -5.90533 0
M  V30 550 H 51.1465 0.117031 -0.744862 0
M  V30 551 H 53.7975 -0.415045 -1.78745 0
M  V30 552 H 52.1795 1.36845 -3.71604 0
M  V30 553 H 53.3535 -1.41079 -4.38672 0
M  V30 554 H 51.6685 -1.12333 -4.00962 0
M  V30 555 H 54.2655 1.40994 -5.15776 0
M  V30 556 H 54.6085 2.10397 -3.5922 0
M  V30 557 H 55.1415 0.443985 -3.95315 0
M  V30 558 H 51.8805 -1.23254 -6.43808 0
M  V30 559 H 51.4005 0.418579 -5.98338 0
M  V30 560 H 53.0795 0.0766241 -6.46955 0
M  V30 561 N 53.2116 1.57565 -0.0334293 0
M  V30 562 C 54.4396 1.9628 0.654347 0
M  V30 563 C 54.8546 0.910138 1.65414 0
M  V30 564 O 54.2116 -0.107595 1.82183 0
M  V30 565 C 54.2626 3.35067 1.35693 0
M  V30 566 O 53.9836 4.36296 0.397191 0
M  V30 567 C 55.4846 3.88439 2.13613 0
M  V30 568 H 52.7046 0.646369 0.180132 0
M  V30 569 H 55.2486 2.04282 -0.0944721 0
M  V30 570 H 53.4036 3.2827 2.05712 0
M  V30 571 H 53.8176 5.1678 0.896597 0
M  V30 572 H 55.2916 4.8788 2.58219 0
M  V30 573 H 55.7686 3.22914 2.97696 0
M  V30 574 H 56.3746 3.98516 1.48543 0
M  V30 575 N 54.6897 -0.239769 1.55765 0
M  V30 576 C 56.1007 -0.808263 1.68297 0
M  V30 577 C 56.4517 -1.85736 0.632181 0
M  V30 578 O 55.5767 -2.15277 -0.220204 0
M  V30 579 C 56.1717 -1.47284 3.05111 0
M  V30 580 C 54.7307 -1.98895 3.19559 0
M  V30 581 C 53.8777 -0.842575 2.64189 0
M  V30 582 H 56.8287 -0.0154422 1.58692 0
M  V30 583 H 56.8497 -2.34111 2.99954 0
M  V30 584 H 56.3617 -0.709053 3.81568 0
M  V30 585 H 54.4627 -2.78132 2.47938 0
M  V30 586 H 54.5757 -2.18143 4.26556 0
M  V30 587 H 52.9397 -1.24501 2.22197 0
M  V30 588 H 53.7227 -0.0917552 3.43177 0
M  V30 589 N 56.1678 -1.49265 -0.50573 0
M  V30 590 C 57.0978 -1.68495 -1.61653 0
M  V30 591 C 58.0788 -0.53366 -1.61512 0
M  V30 592 O 59.2638 -0.76897 -1.78327 0
M  V30 593 C 56.3938 -1.74709 -3.00157 0
M  V30 594 C 55.3478 -2.89581 -3.15162 0
M  V30 595 C 54.6738 -2.80903 -4.5497 0
M  V30 596 C 55.9738 -4.30578 -2.95634 0
M  V30 597 H 57.6678 -2.61493 -1.45814 0
M  V30 598 H 55.2138 -1.25838 -0.70005 0
M  V30 599 H 57.1668 -1.86748 -3.77761 0
M  V30 600 H 55.8908 -0.783067 -3.17074 0
M  V30 601 H 54.5498 -2.77136 -2.39982 0
M  V30 602 H 54.1978 -1.82419 -4.68756 0
M  V30 603 H 53.8978 -3.57999 -4.65951 0
M  V30 604 H 55.4218 -2.94944 -5.34641 0
M  V30 605 H 56.8358 -4.4373 -3.63011 0
M  V30 606 H 55.2328 -5.0886 -3.18091 0
M  V30 607 H 56.3028 -4.45352 -1.91806 0
M  V30 608 N 57.6459 0.756429 -1.3826 0
M  V30 609 C 58.5789 1.87802 -1.29637 0
M  V30 610 C 59.5569 1.61667 -0.173939 0
M  V30 611 O 60.7409 1.85208 -0.350775 0
M  V30 612 C 57.8679 3.23354 -1.00797 0
M  V30 613 C 56.9139 3.68379 -2.14939 0
M  V30 614 S 57.7469 3.8025 -3.77054 0
M  V30 615 C 58.9029 5.18626 -3.50396 0
M  V30 616 H 59.1359 1.94829 -2.24564 0
M  V30 617 H 56.6689 0.919117 -1.24063 0
M  V30 618 H 58.6269 4.01637 -0.848413 0
M  V30 619 H 57.2879 3.14008 -0.0759369 0
M  V30 620 H 56.4809 4.66693 -1.90299 0
M  V30 621 H 56.0829 2.97242 -2.26988 0
M  V30 622 H 58.3749 6.04289 -3.06334 0
M  V30 623 H 59.3179 5.48286 -4.48094 0
M  V30 624 H 59.7259 4.87289 -2.84973 0
M  V30 625 N 59.124 1.23083 0.984299 0
M  V30 626 C 60.056 0.96636 2.07832 0
M  V30 627 C 61.069 -0.0582135 1.62696 0
M  V30 628 O 62.258 0.176843 1.77622 0
M  V30 629 C 59.358 0.433397 3.36117 0
M  V30 630 C 58.531 1.51722 4.10243 0
M  V30 631 C 57.59 0.989821 5.16807 0
M  V30 632 O 56.616 1.67794 5.43906 0
M  V30 633 N 57.818 -0.184367 5.80207 0
M  V30 634 H 60.583 1.90824 2.31098 0
M  V30 635 H 58.144 1.13888 1.1507 0
M  V30 636 H 60.136 0.065699 4.04647 0
M  V30 637 H 58.706 -0.413806 3.09849 0
M  V30 638 H 57.926 2.05786 3.36223 0
M  V30 639 H 59.214 2.24619 4.56534 0
M  V30 640 H 58.612 -0.760062 5.60571 0
M  V30 641 H 57.169 -0.493366 6.4993 0
M  V30 642 N 60.6021 -1.18246 1.0419 0
M  V30 643 C 61.5121 -2.25574 0.644476 0
M  V30 644 C 62.5281 -1.70845 -0.329826 0
M  V30 645 O 63.7041 -2.00554 -0.184443 0
M  V30 646 C 60.7691 -3.46697 0.014877 0
M  V30 647 C 59.8301 -4.16554 1.03834 0
M  V30 648 C 59.0631 -5.31894 0.438692 0
M  V30 649 O 59.2861 -5.65385 -0.754752 0
M  V30 650 O 58.2201 -5.90459 1.168 0
M  V30 651 H 62.0461 -2.61836 1.53869 0
M  V30 652 H 59.6311 -1.25352 0.812854 0
M  V30 653 H 61.5131 -4.20062 -0.335538 0
M  V30 654 H 60.1881 -3.12255 -0.853138 0
M  V30 655 H 59.0951 -3.45251 1.44057 0
M  V30 656 H 60.4281 -4.54998 1.87716 0
M  V30 657 N 62.0802 -0.821533 -1.34494 0
M  V30 658 C 63.0122 -0.199946 -2.28326 0
M  V30 659 C 64.0252 0.609377 -1.50965 0
M  V30 660 O 65.2142 0.439285 -1.7301 0
M  V30 661 C 62.3142 0.738431 -3.30757 0
M  V30 662 C 61.4872 -0.0277632 -4.37391 0
M  V30 663 C 60.5462 0.831332 -5.19591 0
M  V30 664 O 59.5722 0.276822 -5.68526 0
M  V30 665 N 60.7742 2.15132 -5.39165 0
M  V30 666 H 63.5392 -1.00609 -2.82308 0
M  V30 667 H 61.1002 -0.678366 -1.47003 0
M  V30 668 H 63.0922 1.31773 -3.82646 0
M  V30 669 H 61.6622 1.44533 -2.7718 0
M  V30 670 H 60.8822 -0.788359 -3.86236 0
M  V30 671 H 62.1702 -0.555251 -5.05761 0
M  V30 672 H 61.5682 2.62559 -5.01078 0
M  V30 673 H 60.1252 2.6795 -5.94177 0
M  V30 674 N 63.5583 1.46682 -0.576371 0
M  V30 675 C 64.5213 2.28707 0.150239 0
M  V30 676 C 65.5213 1.38035 0.824794 0
M  V30 677 O 66.7113 1.60476 0.677719 0
M  V30 678 C 63.8433 3.18248 1.22192 0
M  V30 679 H 65.0363 2.94423 -0.570521 0
M  V30 680 H 62.5893 1.52688 -0.334078 0
M  V30 681 H 63.3243 2.57265 1.97447 0
M  V30 682 H 63.1093 3.85 0.742812 0
M  V30 683 H 64.5993 3.80001 1.73172 0
M  V30 684 N 65.0364 0.313813 1.54444 0
M  V30 685 C 66.2854 -0.292519 1.99568 0
M  V30 686 C 66.5984 -1.54011 1.20582 0
M  V30 687 O 67.8044 -2.22183 1.56035 0
M  V30 688 C 66.2604 -0.571752 3.55329 0
M  V30 689 C 65.8684 0.658229 4.43138 0
M  V30 690 C 67.6124 -1.13857 4.08946 0
M  V30 691 C 65.5194 0.351439 5.90355 0
M  V30 692 H 64.4494 -0.113079 0.745472 0
M  V30 693 H 67.1004 0.424518 1.78522 0
M  V30 694 H 65.4824 -1.34872 3.72325 0
M  V30 695 H 66.6564 1.43403 4.37918 0
M  V30 696 H 64.9714 1.14458 4.0036 0
M  V30 697 H 67.5684 -1.38257 5.16516 0
M  V30 698 H 67.9114 -2.08489 3.6033 0
M  V30 699 H 68.4444 -0.423015 3.95544 0
M  V30 700 H 65.1834 1.26667 6.43145 0
M  V30 701 H 64.7034 -0.386842 5.98551 0
M  V30 702 H 66.3824 -0.0423134 6.46986 0
M  V30 703 N 66.5145 -1.57545 0.0417849 0
M  V30 704 C 67.9255 -1.80011 -0.495259 0
M  V30 705 C 68.2765 -0.953199 -1.71489 0
M  V30 706 O 67.4015 -0.167138 -2.15754 0
M  V30 707 C 67.9965 -3.26482 -0.905265 0
M  V30 708 C 66.5555 -3.499 -1.38734 0
M  V30 709 C 65.7025 -2.74979 -0.358056 0
M  V30 710 H 68.6535 -1.56425 0.267736 0
M  V30 711 H 68.6745 -3.36887 -1.76882 0
M  V30 712 H 68.1865 -3.88096 -0.017401 0
M  V30 713 H 66.2875 -2.93553 -2.29471 0
M  V30 714 H 66.4005 -4.58615 -1.38598 0
M  V30 715 H 64.7645 -2.40834 -0.828912 0
M  V30 716 H 65.5475 -3.39315 0.521561 0
M  V30 717 N 67.9926 0.231505 -1.5589 0
M  V30 718 C 69.2406 0.955461 -1.78088 0
M  V30 719 C 69.5616 1.85262 -0.608533 0
M  V30 720 O 68.8316 1.92277 0.375035 0
M  V30 721 H 67.4116 0.355787 -0.656829 0
M  V30 722 H 70.0736 0.245751 -1.93344 0
M  V30 723 H 69.1696 1.56814 -2.69844 0
M  V30 724 N 69.4707 1.49531 0.497807 0
M  V30 725 C 70.4037 1.61043 1.6168 0
M  V30 726 C 71.3817 0.459386 1.55976 0
M  V30 727 O 72.5657 0.675358 1.75986 0
M  V30 728 C 69.6927 1.56833 3.00202 0
M  V30 729 C 68.7387 2.77173 3.24156 0
M  V30 730 S 69.5717 4.38808 3.06933 0
M  V30 731 C 70.7277 4.37248 4.47845 0
M  V30 732 H 70.9607 2.55702 1.51671 0
M  V30 733 H 68.4937 1.38462 0.683201 0
M  V30 734 H 70.4517 1.55089 3.80076 0
M  V30 735 H 69.1127 0.634561 3.07623 0
M  V30 736 H 68.3057 2.70456 4.25288 0
M  V30 737 H 67.9077 2.76346 2.5201 0
M  V30 738 H 70.1997 4.09164 5.39992 0
M  V30 739 H 71.1427 5.38668 4.59612 0
M  V30 740 H 71.5507 3.67286 4.28674 0
M  V30 741 N 70.9488 -0.749086 1.3866 0
M  V30 742 C 71.9118 -1.84457 1.36045 0
M  V30 743 C 72.9118 -1.58682 0.260122 0
M  V30 744 O 74.1018 -1.66343 0.517261 0
M  V30 745 C 71.2338 -3.22008 1.11911 0
M  V30 746 H 72.4268 -1.88182 2.33512 0
M  V30 747 H 69.9798 -0.951266 1.24019 0
M  V30 748 H 70.7148 -3.2395 0.150686 0
M  V30 749 H 70.4998 -3.42111 1.91579 0
M  V30 750 H 71.9898 -4.0208 1.12788 0
M  V30 751 N 72.4269 -1.23603 -0.977757 0
M  V30 752 C 73.6729 -1.07129 -1.72195 0
M  V30 753 C 74.0059 0.390501 -1.90233 0
M  V30 754 O 73.2809 1.28902 -1.45653 0
M  V30 755 C 73.5639 -1.80031 -3.11867 0
M  V30 756 C 73.4169 -3.33899 -3.01383 0
M  V30 757 C 74.7359 -1.56492 -4.11337 0
M  V30 758 H 71.8549 -0.390571 -0.624999 0
M  V30 759 H 74.4969 -1.52142 -1.13811 0
M  V30 760 H 72.6469 -1.41768 -3.6171 0
M  V30 761 H 74.3189 -3.81699 -2.59043 0
M  V30 762 H 72.5619 -3.62796 -2.37827 0
M  V30 763 H 73.2329 -3.801 -4.00285 0
M  V30 764 H 75.7089 -1.89757 -3.70313 0
M  V30 765 H 74.5849 -2.09973 -5.07151 0
M  V30 766 H 74.8459 -0.500874 -4.39254 0
M  V30 767 N 73.905 1.17692 -1.04816 0
M  V30 768 C 74.868 2.19787 -0.650117 0
M  V30 769 C 75.868 1.58044 0.296427 0
M  V30 770 O 77.058 1.74012 0.0808097 0
M  V30 771 C 74.19 3.40869 0.0456987 0
M  V30 772 H 75.383 2.56516 -1.5537 0
M  V30 773 H 72.936 1.31708 -0.841594 0
M  V30 774 H 73.671 3.09681 0.962726 0
M  V30 775 H 73.456 3.86928 -0.634727 0
M  V30 776 H 74.946 4.16445 0.310432 0
M  V30 777 N 75.3831 0.828654 1.34056 0
M  V30 778 C 76.6321 0.415828 1.97367 0
M  V30 779 C 76.9451 -1.02796 1.6641 0
M  V30 780 O 78.1511 -1.54497 2.23255 0
M  V30 781 C 76.6071 0.692601 3.53173 0
M  V30 782 C 76.2151 2.15038 3.93017 0
M  V30 783 C 77.9591 0.346222 4.23086 0
M  V30 784 C 75.8661 2.37174 5.41758 0
M  V30 785 H 74.7961 0.151755 0.738571 0
M  V30 786 H 77.4471 1.01581 1.52819 0
M  V30 787 H 75.8291 0.0223764 3.95994 0
M  V30 788 H 77.0031 2.86024 3.61285 0
M  V30 789 H 75.3181 2.45875 3.36057 0
M  V30 790 H 77.9151 0.48937 5.32456 0
M  V30 791 H 78.2581 -0.709842 4.10204 0
M  V30 792 H 78.7911 0.971258 3.85761 0
M  V30 793 H 75.5301 3.41308 5.59633 0
M  V30 794 H 75.0501 1.70738 5.74986 0
M  V30 795 H 76.7291 2.19818 6.08514 0
M  V30 796 N 76.8612 -1.46375 0.584142 0
M  V30 797 C 78.1102 -2.01585 0.0679741 0
M  V30 798 C 78.4232 -1.46109 -1.30045 0
M  V30 799 O 79.6292 -1.93148 -1.90804 0
M  V30 800 C 78.0852 -3.5983 0.0709207 0
M  V30 801 C 77.6932 -4.24303 1.43775 0
M  V30 802 C 79.4372 -4.22693 -0.391228 0
M  V30 803 C 77.3442 -5.74631 1.39834 0
M  V30 804 H 76.2742 -0.753689 0.0216421 0
M  V30 805 H 78.9252 -1.68093 0.736001 0
M  V30 806 H 77.3072 -3.90405 -0.663299 0
M  V30 807 H 78.4812 -4.05335 2.19181 0
M  V30 808 H 76.7962 -3.73539 1.84004 0
M  V30 809 H 79.3932 -5.3289 -0.439524 0
M  V30 810 H 79.7362 -3.91728 -1.40906 0
M  V30 811 H 80.2692 -3.96749 0.288974 0
M  V30 812 H 77.0082 -6.10258 2.39303 0
M  V30 813 H 76.5282 -5.95858 0.686505 0
M  V30 814 H 78.2072 -6.37375 1.11187 0
M  V30 815 N 78.3393 -0.321999 -1.54275 0
M  V30 816 C 79.5693 0.282642 -2.04658 0
M  V30 817 C 79.9773 1.46453 -1.19784 0
M  V30 818 O 79.3203 1.82367 -0.220932 0
M  V30 819 C 79.3823 0.781857 -3.50895 0
M  V30 820 C 79.0463 -0.277517 -4.56157 0
M  V30 821 C 80.0433 -1.11307 -5.07845 0
M  V30 822 C 77.7283 -0.425256 -5.00497 0
M  V30 823 C 79.7223 -2.08211 -6.02434 0
M  V30 824 C 77.4093 -1.39771 -5.94901 0
M  V30 825 C 78.4073 -2.2246 -6.45756 0
M  V30 826 O 78.0953 -3.18054 -7.38307 0
M  V30 827 H 77.8273 0.0622636 -0.673126 0
M  V30 828 H 80.3813 -0.465792 -2.00049 0
M  V30 829 H 78.6113 1.58118 -3.52896 0
M  V30 830 H 80.3003 1.30467 -3.84361 0
M  V30 831 H 81.0663 -1.00991 -4.74369 0
M  V30 832 H 76.9453 0.20847 -4.60528 0
M  V30 833 H 80.4893 -2.72791 -6.42052 0
M  V30 834 H 76.3863 -1.50152 -6.27794 0
M  V30 835 H 77.1543 -3.13275 -7.56175 0
M  V30 836 N 79.8174 1.5752 -0.0501392 0
M  V30 837 C 80.7274 2.14952 0.939827 0
M  V30 838 C 81.7434 1.10706 1.34239 0
M  V30 839 O 82.9194 1.42869 1.41952 0
M  V30 840 C 79.9844 2.68232 2.19665 0
M  V30 841 C 79.0454 3.87272 1.85253 0
M  V30 842 C 78.2784 4.38002 3.04943 0
M  V30 843 O 78.5014 3.87811 4.18281 0
M  V30 844 O 77.4354 5.29602 2.86017 0
M  V30 845 H 81.2614 2.9986 0.481392 0
M  V30 846 H 78.8464 1.4841 0.171699 0
M  V30 847 H 80.7284 3.02475 2.93406 0
M  V30 848 H 79.4034 1.86395 2.64648 0
M  V30 849 H 78.3104 3.5792 1.0883 0
M  V30 850 H 79.6434 4.70336 1.4507 0
M  V30 851 N 81.2955 -0.223234 1.56011 0
M  V30 852 C 82.5435 -0.946003 1.78592 0
M  V30 853 C 82.8645 -1.84936 0.618349 0
M  V30 854 O 82.1345 -1.92473 -0.364833 0
M  V30 855 H 80.7145 -0.352298 0.658707 0
M  V30 856 H 83.3765 -0.235494 1.93472 0
M  V30 857 H 82.4725 -1.55381 2.70672 0
M  V30 858 N 82.7736 -1.49793 -0.48987 0
M  V30 859 C 83.7206 -1.67281 -1.59014 0
M  V30 860 C 84.6906 -0.514177 -1.57941 0
M  V30 861 O 85.8756 -0.742533 -1.75759 0
M  V30 862 C 83.0156 -1.75569 -2.97102 0
M  V30 863 C 82.1286 -3.0281 -3.08107 0
M  V30 864 C 81.2636 -3.02008 -4.36995 0
M  V30 865 C 80.3026 -4.23782 -4.41673 0
M  V30 866 N 79.4396 -4.20826 -5.62005 0
M  V30 867 H 84.2796 -2.61224 -1.43409 0
M  V30 868 H 81.8166 -1.29508 -0.697565 0
M  V30 869 H 83.7746 -1.78354 -3.77155 0
M  V30 870 H 82.4046 -0.850827 -3.11385 0
M  V30 871 H 81.4566 -3.09584 -2.21047 0
M  V30 872 H 82.7686 -3.92801 -3.07423 0
M  V30 873 H 81.9226 -3.03418 -5.25378 0
M  V30 874 H 80.6616 -2.09815 -4.4026 0
M  V30 875 H 79.6666 -4.22604 -3.5169 0
M  V30 876 H 80.8916 -5.17181 -4.40115 0
M  V30 877 H 78.8376 -3.31476 -5.66091 0
M  V30 878 H 78.7546 -5.04564 -5.62984 0
M  V30 879 H 80.0226 -4.26355 -6.52565 0
M  V30 880 N 84.2517 0.741722 -1.39055 0
M  V30 881 C 85.6627 1.31966 -1.32068 0
M  V30 882 C 86.0137 1.96192 0.0180797 0
M  V30 883 O 85.1387 1.95861 0.920196 0
M  V30 884 C 85.7337 2.39954 -2.39181 0
M  V30 885 C 84.2927 2.93438 -2.35735 0
M  V30 886 C 83.4397 1.66936 -2.21422 0
M  V30 887 H 86.3907 0.539721 -1.4924 0
M  V30 888 H 86.4117 3.20182 -2.05581 0
M  V30 889 H 85.9237 1.9318 -3.36605 0
M  V30 890 H 84.0247 3.4451 -1.41929 0
M  V30 891 H 84.1377 3.4701 -3.30335 0
M  V30 892 H 82.5017 1.91016 -1.68478 0
M  V30 893 H 83.2847 1.22224 -3.20806 0
M  V30 894 N 85.7298 1.2412 0.971189 0
M  V30 895 C 86.9598 1.10415 1.7462 0
M  V30 896 C 87.3678 -0.346462 1.86001 0
M  V30 897 O 86.7108 -1.25104 1.34517 0
M  V30 898 C 86.7728 1.66596 3.18568 0
M  V30 899 C 86.4368 3.15446 3.3067 0
M  V30 900 C 87.4338 4.12636 3.16271 0
M  V30 901 C 85.1188 3.55337 3.55022 0
M  V30 902 C 87.1128 5.47699 3.26044 0
M  V30 903 C 84.7998 4.90542 3.64434 0
M  V30 904 C 85.7978 5.86532 3.49956 0
M  V30 905 O 85.4858 7.19279 3.59017 0
M  V30 906 H 85.2178 0.386616 0.55453 0
M  V30 907 H 87.7718 1.64633 1.22821 0
M  V30 908 H 86.0018 1.06808 3.71657 0
M  V30 909 H 87.6908 1.48232 3.77865 0
M  V30 910 H 88.4568 3.8316 2.97344 0
M  V30 911 H 84.3358 2.8113 3.65359 0
M  V30 912 H 87.8798 6.22603 3.14661 0
M  V30 913 H 83.7768 5.19691 3.82873 0
M  V30 914 H 84.5448 7.27153 3.75754 0
M  V30 915 N 87.2079 -1.17134 1.05439 0
M  V30 916 C 88.4379 -1.91094 0.785274 0
M  V30 917 C 88.8459 -1.77198 -0.663142 0
M  V30 918 O 88.1889 -1.10835 -1.46497 0
M  V30 919 C 88.2509 -3.42594 1.08949 0
M  V30 920 C 87.9149 -3.80274 2.53458 0
M  V30 921 C 88.9119 -3.82912 3.51673 0
M  V30 922 C 86.5969 -4.11162 2.88532 0
M  V30 923 C 88.5909 -4.15913 4.83006 0
M  V30 924 C 86.2779 -4.43831 4.20068 0
M  V30 925 C 87.2759 -4.46185 5.17115 0
M  V30 926 O 86.9639 -4.78083 6.46291 0
M  V30 927 H 86.6959 -0.613073 0.284811 0
M  V30 928 H 89.2499 -1.49461 1.40893 0
M  V30 929 H 87.4799 -3.84534 0.408741 0
M  V30 930 H 89.1689 -3.97817 0.805991 0
M  V30 931 H 89.9349 -3.5917 3.25917 0
M  V30 932 H 85.8139 -4.085 2.13656 0
M  V30 933 H 89.3579 -4.17665 5.5875 0
M  V30 934 H 85.2549 -4.67037 4.45586 0
M  V30 935 H 86.0229 -4.9593 6.51149 0
M  V30 936 N 88.686 -0.835752 -1.33615 0
M  V30 937 C 89.933 -0.429959 -1.97883 0
M  V30 938 C 90.261 1.01006 -1.66217 0
M  V30 939 O 89.516 1.72047 -0.93265 0
M  V30 940 C 89.815 -0.593925 -3.52431 0
M  V30 941 C 89.481 -2.00158 -4.04039 0
M  V30 942 C 88.143 -2.38662 -4.17844 0
M  V30 943 C 90.495 -2.92117 -4.31644 0
M  V30 944 C 87.823 -3.68435 -4.56588 0
M  V30 945 C 90.175 -4.21368 -4.71838 0
M  V30 946 C 88.839 -4.59833 -4.83849 0
M  V30 947 H 88.109 -0.157333 -0.724104 0
M  V30 948 H 90.756 -1.06217 -1.59343 0
M  V30 949 H 89.061 0.121619 -3.91611 0
M  V30 950 H 90.758 -0.260282 -4.00154 0
M  V30 951 H 87.348 -1.69252 -3.93766 0
M  V30 952 H 91.532 -2.63608 -4.20505 0
M  V30 953 H 86.788 -3.98046 -4.64079 0
M  V30 954 H 90.962 -4.92703 -4.92155 0
M  V30 955 H 88.589 -5.60438 -5.13627 0
M  V30 956 N 90.1641 1.46063 -0.591896 0
M  V30 957 C 91.3921 2.06717 -0.0868936 0
M  V30 958 C 91.8071 1.43916 1.22203 0
M  V30 959 O 91.1641 0.547698 1.74088 0
M  V30 960 C 91.2151 3.6142 0.0758725 0
M  V30 961 O 90.9361 4.21874 -1.18126 0
M  V30 962 C 92.4371 4.39025 0.61416 0
M  V30 963 H 89.6571 0.668162 -0.0616518 0
M  V30 964 H 92.2011 1.8755 -0.815175 0
M  V30 965 H 90.3561 3.79983 0.754413 0
M  V30 966 H 90.7701 5.14861 -1.00092 0
M  V30 967 H 92.2441 5.4783 0.677193 0
M  V30 968 H 92.7211 4.07708 1.63312 0
M  V30 969 H 93.3271 4.2529 -0.0298142 0
M  V30 970 N 91.6422 0.330177 1.54103 0
M  V30 971 C 92.8882 -0.263542 2.01685 0
M  V30 972 C 93.2432 -1.49258 1.21408 0
M  V30 973 O 92.5362 -1.89395 0.289852 0
M  V30 974 C 92.7302 -0.643134 3.51566 0
M  V30 975 C 92.5592 0.547571 4.46354 0
M  V30 976 C 91.3292 1.04873 4.94297 0
M  V30 977 C 93.5272 1.40184 4.94826 0
M  V30 978 N 91.5092 2.20316 5.73005 0
M  V30 979 C 92.8802 2.40335 5.71524 0
M  V30 980 C 94.9352 1.42884 4.76958 0
M  V30 981 C 93.6382 3.42998 6.32254 0
M  V30 982 C 95.6642 2.44421 5.38528 0
M  V30 983 C 95.0262 3.43298 6.15082 0
M  V30 984 H 91.1252 -0.0601026 0.779687 0
M  V30 985 H 93.7092 0.466714 1.89023 0
M  V30 986 H 91.8802 -1.34251 3.6446 0
M  V30 987 H 93.6122 -1.21889 3.85908 0
M  V30 988 H 90.3672 0.618956 4.69538 0
M  V30 989 H 90.7912 2.78565 6.17034 0
M  V30 990 H 95.4332 0.678049 4.17328 0
M  V30 991 H 93.1512 4.1898 6.91 0
M  V30 992 H 96.7372 2.4732 5.26616 0
M  V30 993 H 95.6172 4.20579 6.61878 0
M  V30 994 N 93.1203 -1.57491 0.0584922 0
M  V30 995 C 94.3683 -1.92597 -0.612436 0
M  V30 996 C 94.6893 -0.938162 -1.70949 0
M  V30 997 O 93.9593 0.0158301 -1.95894 0
M  V30 998 H 92.5393 -0.710964 -0.229214 0
M  V30 999 H 95.2013 -1.94571 0.113218 0
M  V30 1000 H 94.2973 -2.94038 -1.04633 0
M  V30 1001 N 94.5984 0.214957 -1.56127 0
M  V30 1002 C 95.5454 1.26642 -1.92952 0
M  V30 1003 C 96.5154 1.46244 -0.78753 0
M  V30 1004 O 97.7004 1.59704 -1.04399 0
M  V30 1005 C 94.8404 2.6104 -2.25726 0
M  V30 1006 C 93.9534 2.49183 -3.52891 0
M  V30 1007 C 93.0884 3.76149 -3.7508 0
M  V30 1008 C 92.1274 3.59041 -4.95738 0
M  V30 1009 N 91.2644 4.77972 -5.14283 0
M  V30 1010 H 96.1044 0.945384 -2.82607 0
M  V30 1011 H 93.6414 0.455489 -1.3987 0
M  V30 1012 H 95.5994 3.39313 -2.42739 0
M  V30 1013 H 94.2294 2.91227 -1.39236 0
M  V30 1014 H 93.2814 1.6231 -3.44034 0
M  V30 1015 H 94.5934 2.32466 -4.41318 0
M  V30 1016 H 93.7474 4.62865 -3.92226 0
M  V30 1017 H 92.4864 3.95799 -2.84947 0
M  V30 1018 H 91.4914 2.7071 -4.78535 0
M  V30 1019 H 92.7164 3.40856 -5.87362 0
M  V30 1020 H 90.6624 4.97923 -4.27093 0
M  V30 1021 H 90.5794 4.64006 -5.96853 0
M  V30 1022 H 91.8474 5.66096 -5.35869 0
M  V30 1023 N 96.0765 1.50051 0.48192 0
M  V30 1024 C 97.0395 1.67584 1.5636 0
M  V30 1025 C 98.0395 0.546894 1.51214 0
M  V30 1026 O 99.2295 0.813725 1.54026 0
M  V30 1027 C 96.3615 1.691 2.96003 0
M  V30 1028 H 97.5545 2.64078 1.42136 0
M  V30 1029 H 95.1075 1.39369 0.707533 0
M  V30 1030 H 95.8425 0.742589 3.15684 0
M  V30 1031 H 95.6275 2.51105 3.01146 0
M  V30 1032 H 97.1175 1.84656 3.74556 0
M  V30 1033 N 97.5546 -0.734337 1.39446 0
M  V30 1034 C 98.8316 -1.48579 1.27215 0
M  V30 1035 C 99.2116 -2.1077 -0.117968 0
M  V30 1036 O 98.5596 -1.98646 -1.12924 0
M  V30 1037 C 98.7696 -2.53667 2.39696 0
M  V30 1038 C 100.118 -3.20031 2.79044 0
M  V30 1039 O 101.142 -2.6398 2.39151 0
M  V30 1040 O 100.001 -4.21455 3.47905 0
M  V30 1041 H 97.0946 -0.659816 0.49857 0
M  V30 1042 H 99.6406 -0.768106 1.51322 0
M  V30 1043 H 98.4126 -2.06096 3.32626 0
M  V30 1044 H 98.0356 -3.32994 2.17258 0
M  V30 1045 N 99.0327 -1.24633 -0.964593 0
M  V30 1046 C 100.282 -1.08188 -1.7023 0
M  V30 1047 C 100.595 0.37873 -1.91898 0
M  V30 1048 O 101.801 0.663427 -2.6327 0
M  V30 1049 C 100.257 -1.88773 -3.06419 0
M  V30 1050 C 99.8647 -3.39263 -2.92582 0
M  V30 1051 C 101.609 -1.80867 -3.84041 0
M  V30 1052 C 99.5157 -4.1218 -4.24101 0
M  V30 1053 H 98.4457 -0.401245 -0.638372 0
M  V30 1054 H 101.097 -1.48742 -1.07462 0
M  V30 1055 H 99.4787 -1.41035 -3.70034 0
M  V30 1056 H 100.653 -3.94603 -2.37961 0
M  V30 1057 H 98.9677 -3.48154 -2.28424 0
M  V30 1058 H 101.565 -2.32646 -4.81435 0
M  V30 1059 H 101.908 -0.774543 -4.09031 0
M  V30 1060 H 102.441 -2.26301 -3.27159 0
M  V30 1061 H 99.1797 -5.15965 -4.04303 0
M  V30 1062 H 98.6997 -3.61626 -4.78526 0
M  V30 1063 H 100.379 -4.19349 -4.92702 0
M  V30 1064 N 100.511 1.16574 -1.06058 0
M  V30 1065 C 101.474 2.19085 -0.673392 0
M  V30 1066 C 102.474 1.5835 0.279648 0
M  V30 1067 O 103.664 1.74088 0.0623488 0
M  V30 1068 C 100.796 3.40899 0.00954234 0
M  V30 1069 H 101.989 2.54853 -1.58081 0
M  V30 1070 H 99.5418 1.30808 -0.855516 0
M  V30 1071 H 100.277 3.10684 0.929826 0
M  V30 1072 H 100.062 3.86233 -0.67573 0
M  V30 1073 H 101.552 4.1675 0.266245 0
M  V30 1074 N 101.989 0.842826 1.3317 0
M  V30 1075 C 102.937 0.267495 2.31057 0
M  V30 1076 C 103.931 -0.602682 1.58316 0
M  V30 1077 O 105.137 -0.491803 1.73151 0
M  V30 1078 H 101.512 0.0677813 0.748939 0
M  V30 1079 H 103.483 1.10754 2.77085 0
M  V30 1080 C 102.232 -0.539331 3.43492 0
M  V30 1081 H 101.555 0.12095 3.99617 0
M  V30 1082 H 102.995 -0.90767 4.14171 0
M  V30 1083 C 101.454 -1.71981 2.89697 0
M  V30 1084 O 101.984 -2.81862 2.86211 0
M  V30 1085 N 100.19 -1.54299 2.46252 0
M  V30 1086 H 99.7369 -0.649143 2.49287 0
M  V30 1087 H 99.6949 -2.33431 2.10612 0
M  V30 1088 N 103.467 -1.45747 0.599634 0
M  V30 1089 C 104.415 -2.322 -0.136426 0
M  V30 1090 C 105.409 -1.45497 -0.867583 0
M  V30 1091 O 106.615 -1.62027 -0.78405 0
M  V30 1092 H 102.99 -0.749368 -0.0628588 0
M  V30 1093 H 104.961 -2.92072 0.611281 0
M  V30 1094 C 103.71 -3.28974 -1.12567 0
M  V30 1095 H 103.033 -3.9568 -0.572484 0
M  V30 1096 H 104.473 -3.92212 -1.61077 0
M  V30 1097 C 102.932 -2.55561 -2.19523 0
M  V30 1098 O 103.462 -2.33111 -3.27143 0
M  V30 1099 N 101.668 -2.15832 -1.94589 0
M  V30 1100 H 101.215 -2.3429 -1.07078 0
M  V30 1101 H 101.173 -1.67034 -2.66359 0
M  V30 1102 N 104.945 -0.338344 -1.53925 0
M  V30 1103 C 105.895 0.536712 -2.21593 0
M  V30 1104 C 106.879 1.07015 -1.20153 0
M  V30 1105 O 108.071 1.00471 -1.45721 0
M  V30 1106 C 105.2 1.68977 -2.98834 0
M  V30 1107 C 104.286 1.17052 -4.07627 0
M  V30 1108 N 104.677 0.372085 -5.0443 0
M  V30 1109 C 102.975 1.44789 -4.21844 0
M  V30 1110 C 103.676 0.0909171 -5.81629 0
M  V30 1111 N 102.652 0.681131 -5.39316 0
M  V30 1112 H 106.454 -0.0804298 -2.9379 0
M  V30 1113 H 103.968 -0.144943 -1.61752 0
M  V30 1114 H 105.965 2.32857 -3.45808 0
M  V30 1115 H 104.625 2.31024 -2.28162 0
M  V30 1116 H 105.636 0.0136217 -5.17898 0
M  V30 1117 H 102.313 2.07313 -3.62391 0
M  V30 1118 H 103.703 -0.552817 -6.69622 0
M  V30 1119 N 106.423 1.57458 -0.0668435 0
M  V30 1120 C 107.834 1.80776 0.466558 0
M  V30 1121 C 108.185 0.980361 1.69951 0
M  V30 1122 O 107.31 0.201441 2.1546 0
M  V30 1123 C 107.905 3.27881 0.85321 0
M  V30 1124 C 106.464 3.52062 1.3315 0
M  V30 1125 C 105.611 2.75513 0.314264 0
M  V30 1126 H 108.562 1.5598 -0.292588 0
M  V30 1127 H 108.583 3.39659 1.715 0
M  V30 1128 H 108.095 3.88075 -0.0443439 0
M  V30 1129 H 106.196 2.97167 2.24772 0
M  V30 1130 H 106.309 4.60762 1.31285 0
M  V30 1131 H 104.673 2.42123 0.790492 0
M  V30 1132 H 105.456 3.38442 -0.575477 0
M  V30 1133 N 107.901 -0.206675 1.56239 0
M  V30 1134 C 109.147 -0.930218 1.80208 0
M  V30 1135 C 109.48 -1.83387 0.638981 0
M  V30 1136 O 108.755 -1.91119 -0.361066 0
M  V30 1137 C 109.038 -1.75641 3.1436 0
M  V30 1138 C 108.891 -0.878257 4.41142 0
M  V30 1139 C 110.21 -2.73129 3.45092 0
M  V30 1140 H 107.329 -0.336742 0.655571 0
M  V30 1141 H 109.971 -0.198222 1.88963 0
M  V30 1142 H 108.121 -2.38048 3.07027 0
M  V30 1143 H 109.793 -0.269787 4.6051 0
M  V30 1144 H 108.036 -0.184385 4.33408 0
M  V30 1145 H 108.707 -1.49106 5.3148 0
M  V30 1146 H 111.183 -2.20856 3.52649 0
M  V30 1147 H 110.059 -3.28028 4.40101 0
M  V30 1148 H 110.32 -3.51606 2.68003 0
M  V30 1149 N 109.379 -1.50304 -0.473955 0
M  V30 1150 C 110.607 -1.64902 -1.24959 0
M  V30 1151 C 111.022 -0.331198 -1.85872 0
M  V30 1152 O 110.379 0.68652 -1.69095 0
M  V30 1153 C 110.43 -2.73803 -2.36038 0
M  V30 1154 O 110.151 -4.00477 -1.77624 0
M  V30 1155 C 111.652 -2.99349 -3.26964 0
M  V30 1156 H 108.872 -0.554383 -0.378022 0
M  V30 1157 H 111.416 -1.9651 -0.566054 0
M  V30 1158 H 109.571 -2.44898 -3.00173 0
M  V30 1159 H 109.985 -4.60678 -2.5075 0
M  V30 1160 H 111.459 -3.79217 -4.01121 0
M  V30 1161 H 111.936 -2.10307 -3.85574 0
M  V30 1162 H 112.542 -3.29774 -2.68569 0
M  V30 1163 N 110.857 0.726932 -1.39834 0
M  V30 1164 C 111.789 1.85147 -1.35104 0
M  V30 1165 C 112.802 1.60736 -0.258392 0
M  V30 1166 O 113.991 1.70821 -0.517931 0
M  V30 1167 C 111.091 3.21332 -1.07697 0
M  V30 1168 C 110.264 3.73033 -2.28396 0
M  V30 1169 C 109.323 4.87802 -1.97322 0
M  V30 1170 O 108.349 5.01043 -2.70083 0
M  V30 1171 N 109.551 5.72768 -0.944273 0
M  V30 1172 H 112.316 1.89706 -2.32017 0
M  V30 1173 H 109.877 0.908006 -1.3404 0
M  V30 1174 H 111.869 3.95691 -0.849144 0
M  V30 1175 H 110.439 3.11992 -0.194909 0
M  V30 1176 H 109.659 2.89934 -2.6708 0
M  V30 1177 H 110.947 4.0431 -3.08887 0
M  V30 1178 H 110.345 5.64669 -0.341427 0
M  V30 1179 H 108.902 6.4716 -0.776346 0
M  V30 1180 N 112.336 1.25143 0.95797 0
M  V30 1181 C 113.268 1.01023 2.05735 0
M  V30 1182 C 114.281 -0.0236902 1.62783 0
M  V30 1183 O 115.47 0.21448 1.77207 0
M  V30 1184 C 112.57 0.504595 3.35122 0
M  V30 1185 C 111.743 1.6039 4.06932 0
M  V30 1186 C 110.802 1.09922 5.14591 0
M  V30 1187 O 109.828 1.79293 5.40225 0
M  V30 1188 N 111.03 -0.0612545 5.80468 0
M  V30 1189 H 113.795 1.95683 2.26998 0
M  V30 1190 H 111.356 1.16303 1.12629 0
M  V30 1191 H 113.348 0.151516 4.04416 0
M  V30 1192 H 111.918 -0.347989 3.10657 0
M  V30 1193 H 111.138 2.12872 3.31782 0
M  V30 1194 H 112.426 2.34252 4.51667 0
M  V30 1195 H 111.824 -0.640985 5.62057 0
M  V30 1196 H 110.381 -0.355395 6.5083 0
M  V30 1197 N 113.814 -1.1601 1.06675 0
M  V30 1198 C 115.042 -1.90527 0.806667 0
M  V30 1199 C 115.457 -1.77643 -0.639396 0
M  V30 1200 O 114.814 -1.12369 -1.43803 0
M  V30 1201 C 114.865 -3.41106 1.19705 0
M  V30 1202 O 114.586 -3.53608 2.58636 0
M  V30 1203 C 116.087 -4.32663 0.965266 0
M  V30 1204 H 113.307 -0.604053 0.292166 0
M  V30 1205 H 115.851 -1.47026 1.4214 0
M  V30 1206 H 114.006 -3.82296 0.626774 0
M  V30 1207 H 114.42 -4.47011 2.74375 0
M  V30 1208 H 115.894 -5.36763 1.288 0
M  V30 1209 H 116.371 -4.39089 -0.0987936 0
M  V30 1210 H 116.977 -3.97206 1.52011 0
M  V30 1211 N 115.292 -0.849877 -1.32721 0
M  V30 1212 C 116.222 -0.306308 -2.31482 0
M  V30 1213 C 117.203 0.591952 -1.59468 0
M  V30 1214 O 118.388 0.513199 -1.87296 0
M  V30 1215 C 115.518 0.510204 -3.43532 0
M  V30 1216 C 114.472 -0.293209 -4.26994 0
M  V30 1217 C 113.798 0.647743 -5.30762 0
M  V30 1218 C 115.098 -1.51634 -4.99804 0
M  V30 1219 H 116.792 -1.13153 -2.77195 0
M  V30 1220 H 114.338 -0.545553 -1.33266 0
M  V30 1221 H 116.291 0.900856 -4.11658 0
M  V30 1222 H 115.015 1.36874 -2.96535 0
M  V30 1223 H 113.674 -0.665555 -3.60508 0
M  V30 1224 H 113.322 1.50299 -4.8002 0
M  V30 1225 H 113.022 0.11422 -5.87489 0
M  V30 1226 H 114.546 1.03567 -6.01753 0
M  V30 1227 H 115.96 -1.19824 -5.60638 0
M  V30 1228 H 114.357 -1.98745 -5.66234 0
M  V30 1229 H 115.427 -2.28018 -4.27943 0
M  V30 1230 N 116.77 1.45427 -0.607355 0
M  V30 1231 C 118.017 2.02241 -0.102455 0
M  V30 1232 C 118.345 1.4758 1.26691 0
M  V30 1233 O 117.6 0.640468 1.84923 0
M  V30 1234 C 117.899 3.57398 -0.0129263 0
M  V30 1235 C 117.565 4.3121 -1.31792 0
M  V30 1236 C 116.227 4.51092 -1.67539 0
M  V30 1237 C 118.579 4.73401 -2.18039 0
M  V30 1238 C 115.907 5.10422 -2.89285 0
M  V30 1239 C 118.259 5.34078 -3.39034 0
M  V30 1240 C 116.923 5.52184 -3.75033 0
M  V30 1241 H 116.193 0.740051 -0.037491 0
M  V30 1242 H 118.84 1.74494 -0.788926 0
M  V30 1243 H 117.145 3.84421 0.756806 0
M  V30 1244 H 118.842 3.99061 0.393881 0
M  V30 1245 H 115.432 4.16047 -1.02968 0
M  V30 1246 H 119.616 4.57774 -1.91721 0
M  V30 1247 H 114.872 5.22629 -3.17283 0
M  V30 1248 H 119.046 5.65724 -4.06115 0
M  V30 1249 H 116.673 5.97925 -4.69457 0
M  V30 1250 N 118.248 0.346503 1.53744 0
M  V30 1251 C 119.158 -0.517293 2.28826 0
M  V30 1252 C 120.174 -1.10935 1.3405 0
M  V30 1253 O 121.35 -1.1244 1.6709 0
M  V30 1254 C 118.415 -1.65098 3.04866 0
M  V30 1255 C 117.476 -1.0884 4.15274 0
M  V30 1256 C 116.709 -2.16806 4.87679 0
M  V30 1257 O 116.932 -3.3758 4.59778 0
M  V30 1258 O 115.866 -1.80934 5.74061 0
M  V30 1259 H 119.692 0.0931396 3.03557 0
M  V30 1260 H 117.277 0.111458 1.48984 0
M  V30 1261 H 119.159 -2.31053 3.5241 0
M  V30 1262 H 117.834 -2.24717 2.32989 0
M  V30 1263 H 116.741 -0.3933 3.72027 0
M  V30 1264 H 118.074 -0.537036 4.89261 0
M  V30 1265 N 119.726 -1.57421 0.075193 0
M  V30 1266 C 120.656 -2.15942 -0.888324 0
M  V30 1267 C 121.637 -1.08737 -1.30806 0
M  V30 1268 O 122.822 -1.36787 -1.37851 0
M  V30 1269 C 119.952 -2.72379 -2.1547 0
M  V30 1270 C 118.906 -3.8478 -1.87425 0
M  V30 1271 C 118.232 -4.27834 -3.20721 0
M  V30 1272 C 119.532 -5.08869 -1.17684 0
M  V30 1273 H 121.226 -2.96705 -0.400799 0
M  V30 1274 H 118.772 -1.42723 -0.191342 0
M  V30 1275 H 120.725 -3.11965 -2.83295 0
M  V30 1276 H 119.449 -1.88841 -2.6647 0
M  V30 1277 H 118.108 -3.45703 -1.22004 0
M  V30 1278 H 117.756 -3.41214 -3.6957 0
M  V30 1279 H 117.456 -5.03605 -3.02746 0
M  V30 1280 H 118.98 -4.70039 -3.89738 0
M  V30 1281 H 120.394 -5.4575 -1.75584 0
M  V30 1282 H 118.791 -5.8994 -1.09956 0
M  V30 1283 H 119.861 -4.84648 -0.156453 0
M  V30 1284 N 121.204 0.198386 -1.56346 0
M  V30 1285 C 122.452 0.91747 -1.80075 0
M  V30 1286 C 122.773 1.83929 -0.647692 0
M  V30 1287 O 122.043 1.93029 0.334166 0
M  V30 1288 H 120.623 0.341774 -0.664228 0
M  V30 1289 H 123.285 0.204684 -1.93822 0
M  V30 1290 H 122.381 1.51055 -2.7311 0
M  V30 1291 N 122.682 1.50554 0.465978 0
M  V30 1292 C 123.907 1.65838 1.24549 0
M  V30 1293 C 124.332 0.343486 1.84937 0
M  V30 1294 O 123.69 -0.69324 1.67523 0
M  V30 1295 C 123.738 2.75533 2.32624 0
M  V30 1296 O 122.842 2.37142 3.37398 0
M  V30 1297 H 122.183 0.553893 0.366194 0
M  V30 1298 H 124.713 1.96959 0.553927 0
M  V30 1299 H 124.723 2.98763 2.77857 0
M  V30 1300 H 123.398 3.70962 1.88043 0
M  V30 1301 H 121.975 2.24377 2.97841 0
M  V30 1302 N 124.16 -0.719506 1.40217 0
M  V30 1303 C 125.406 -1.48152 1.38488 0
M  V30 1304 C 125.739 -1.94195 -0.0141867 0
M  V30 1305 O 125.014 -1.67884 -0.982096 0
M  V30 1306 C 125.297 -2.71035 2.37091 0
M  V30 1307 C 125.15 -2.30912 3.86005 0
M  V30 1308 C 126.469 -3.73182 2.33288 0
M  V30 1309 H 123.588 -0.537395 0.504357 0
M  V30 1310 H 126.23 -0.821472 1.71324 0
M  V30 1311 H 124.38 -3.27352 2.0922 0
M  V30 1312 H 126.052 -1.80107 4.24687 0
M  V30 1313 H 124.295 -1.62958 4.02029 0
M  V30 1314 H 124.966 -3.18978 4.50508 0
M  V30 1315 H 127.442 -3.26485 2.57966 0
M  V30 1316 H 126.318 -4.56806 3.04334 0
M  V30 1317 H 126.579 -4.21202 1.34317 0
M  V30 1318 N 125.638 -1.25649 -0.95132 0
M  V30 1319 C 126.863 -1.13443 -1.73624 0
M  V30 1320 C 127.288 0.307565 -1.85568 0
M  V30 1321 O 126.646 1.22282 -1.33854 0
M  V30 1322 C 126.694 -1.79723 -3.12621 0
M  V30 1323 O 125.798 -1.07912 -3.98031 0
M  V30 1324 H 125.139 -0.395872 -0.533086 0
M  V30 1325 H 127.669 -1.66276 -1.1922 0
M  V30 1326 H 127.679 -1.86141 -3.63064 0
M  V30 1327 H 126.354 -2.84633 -3.03244 0
M  V30 1328 H 124.931 -1.09398 -3.56492 0
M  V30 1329 N 127.117 1.15442 -1.07289 0
M  V30 1330 C 128.064 2.20161 -0.692653 0
M  V30 1331 C 129.034 1.63073 0.31564 0
M  V30 1332 O 130.219 1.89725 0.202235 0
M  V30 1333 C 127.359 3.44967 -0.0959509 0
M  V30 1334 C 126.472 4.16256 -1.15564 0
M  V30 1335 C 125.607 5.28609 -0.524011 0
M  V30 1336 C 124.646 5.91715 -1.56653 0
M  V30 1337 N 123.783 6.9554 -0.957531 0
M  V30 1338 H 128.623 2.52037 -1.59002 0
M  V30 1339 H 126.16 1.2378 -0.794798 0
M  V30 1340 H 128.118 4.16341 0.267628 0
M  V30 1341 H 126.748 3.1361 0.764772 0
M  V30 1342 H 125.8 3.43385 -1.6368 0
M  V30 1343 H 127.112 4.59268 -1.94613 0
M  V30 1344 H 126.266 6.06604 -0.108032 0
M  V30 1345 H 125.005 4.86787 0.29825 0
M  V30 1346 H 124.01 5.12433 -1.9923 0
M  V30 1347 H 125.235 6.35614 -2.39107 0
M  V30 1348 H 123.181 6.55814 -0.156162 0
M  V30 1349 H 123.098 7.36977 -1.68526 0
M  V30 1350 H 124.366 7.77435 -0.567032 0
M  V30 1351 N 128.595 0.856903 1.32268 0
M  V30 1352 C 129.823 0.475439 2.01363 0
M  V30 1353 C 130.238 -0.928486 1.64392 0
M  V30 1354 O 129.595 -1.60624 0.866387 0
M  V30 1355 C 129.646 0.607545 3.56358 0
M  V30 1356 O 129.367 1.95617 3.92002 0
M  V30 1357 C 130.868 0.225382 4.42727 0
M  V30 1358 H 128.088 0.186636 0.644521 0
M  V30 1359 H 130.632 1.15446 1.68797 0
M  V30 1360 H 128.787 -0.0237719 3.87393 0
M  V30 1361 H 129.201 1.95455 4.86721 0
M  V30 1362 H 130.675 0.368813 5.50767 0
M  V30 1363 H 131.152 -0.834369 4.31202 0
M  V30 1364 H 131.758 0.831864 4.17085 0
M  V30 1365 N 130.073 -1.45103 0.615059 0
M  V30 1366 C 131.32 -2.02183 0.113179 0
M  V30 1367 C 131.648 -1.48249 -1.25906 0
M  V30 1368 O 130.903 -0.650265 -1.84581 0
M  V30 1369 C 131.202 -3.57386 0.0318797 0
M  V30 1370 C 130.868 -4.30505 1.34077 0
M  V30 1371 C 129.53 -4.50197 1.69929 0
M  V30 1372 C 131.882 -4.72238 2.20546 0
M  V30 1373 C 129.21 -5.08881 2.91988 0
M  V30 1374 C 131.562 -5.32272 3.41861 0
M  V30 1375 C 130.226 -5.50187 3.77956 0
M  V30 1376 H 129.496 -0.739842 0.0414151 0
M  V30 1377 H 132.143 -1.74073 0.798168 0
M  V30 1378 H 130.448 -3.84817 -0.736409 0
M  V30 1379 H 132.145 -3.99264 -0.372712 0
M  V30 1380 H 128.735 -4.15496 1.05173 0
M  V30 1381 H 132.919 -4.56751 1.94146 0
M  V30 1382 H 128.175 -5.20939 3.2005 0
M  V30 1383 H 132.349 -5.63563 4.09109 0
M  V30 1384 H 129.976 -5.95427 4.72622 0
M  V30 1385 N 131.551 -0.354651 -1.53558 0
M  V30 1386 C 132.499 0.512195 -2.26891 0
M  V30 1387 C 133.493 1.09263 -1.29452 0
M  V30 1388 O 134.699 1.03709 -1.47121 0
M  V30 1389 H 131.074 0.183878 -0.729173 0
M  V30 1390 H 133.045 -0.128202 -2.98124 0
M  V30 1391 C 131.794 1.64563 -3.06291 0
M  V30 1392 H 131.117 1.20829 -3.81104 0
M  V30 1393 H 132.557 2.22711 -3.60799 0
M  V30 1394 C 131.016 2.58158 -2.16462 0
M  V30 1395 O 131.546 3.60695 -1.76811 0
M  V30 1396 N 129.752 2.27096 -1.81317 0
M  V30 1397 H 129.299 1.43751 -2.1376 0
M  V30 1398 H 129.257 2.89975 -1.21498 0
M  V30 1399 N 133.029 1.57378 -0.0835403 0
M  V30 1400 C 134.277 1.93547 0.581718 0
M  V30 1401 C 134.598 0.96524 1.69435 0
M  V30 1402 O 133.868 0.0153369 1.95894 0
M  V30 1403 H 132.448 0.714521 0.217874 0
M  V30 1404 H 135.11 1.94366 -0.144158 0
M  V30 1405 H 134.206 2.95665 0.999423 0
M  V30 1406 N 134.507 -0.190092 1.56449 0
M  V30 1407 C 135.753 -0.911052 1.81184 0
M  V30 1408 C 136.086 -1.82699 0.658396 0
M  V30 1409 O 135.361 -1.91491 -0.340775 0
M  V30 1410 C 135.644 -1.72297 3.16205 0
M  V30 1411 C 135.497 -0.831419 4.42049 0
M  V30 1412 C 136.816 -2.69454 3.47969 0
M  V30 1413 H 133.935 -0.32977 0.659106 0
M  V30 1414 H 136.577 -0.178169 1.89163 0
M  V30 1415 H 134.727 -2.34778 3.09534 0
M  V30 1416 H 136.399 -0.220929 4.60771 0
M  V30 1417 H 134.642 -0.138406 4.33579 0
M  V30 1418 H 135.313 -1.43461 5.33032 0
M  V30 1419 H 137.789 -2.17104 3.54972 0
M  V30 1420 H 136.665 -3.23342 4.43555 0
M  V30 1421 H 136.926 -3.48744 2.71717 0
M  V30 1422 N 135.985 -1.50799 -0.457987 0
M  V30 1423 C 136.915 -1.73553 -1.5621 0
M  V30 1424 C 137.896 -0.584774 -1.59732 0
M  V30 1425 O 139.081 -0.825314 -1.7579 0
M  V30 1426 C 136.211 -1.84169 -2.94447 0
M  V30 1427 C 135.165 -2.99461 -3.0579 0
M  V30 1428 C 134.491 -2.95235 -4.45803 0
M  V30 1429 C 135.791 -4.39766 -2.81786 0
M  V30 1430 H 137.485 -2.66 -1.37421 0
M  V30 1431 H 135.031 -1.28002 -0.659662 0
M  V30 1432 H 136.984 -1.98672 -3.71628 0
M  V30 1433 H 135.708 -0.883545 -3.14422 0
M  V30 1434 H 134.367 -2.8463 -2.31044 0
M  V30 1435 H 134.015 -1.97239 -4.62715 0
M  V30 1436 H 133.715 -3.72642 -4.54326 0
M  V30 1437 H 135.239 -3.11803 -5.24987 0
M  V30 1438 H 136.653 -4.55054 -3.4871 0
M  V30 1439 H 135.05 -5.18722 -3.0174 0
M  V30 1440 H 136.12 -4.51229 -1.7754 0
M  V30 1441 N 137.463 0.71206 -1.40597 0
M  V30 1442 C 138.711 1.46907 -1.38791 0
M  V30 1443 C 139.032 1.94998 0.00780391 0
M  V30 1444 O 138.302 1.70587 0.963174 0
M  V30 1445 H 136.882 0.545043 -0.51082 0
M  V30 1446 H 139.544 0.843882 -1.75683 0
M  V30 1447 H 138.64 2.34021 -2.06496 0
M  V30 1448 N 138.941 1.26152 0.944643 0
M  V30 1449 C 140.189 1.11271 1.6871 0
M  V30 1450 C 140.51 -0.345166 1.91921 0
M  V30 1451 O 139.78 -1.24387 1.51343 0
M  V30 1452 H 138.36 0.408783 0.625224 0
M  V30 1453 H 141.022 1.58427 1.1352 0
M  V30 1454 H 140.118 1.62879 2.66227 0
M  V30 1455 N 140.419 -1.14872 1.07899 0
M  V30 1456 C 141.696 -1.81928 0.71845 0
M  V30 1457 C 142.076 -1.95417 -0.798455 0
M  V30 1458 O 141.424 -1.50997 -1.715 0
M  V30 1459 C 141.634 -3.17937 1.43935 0
M  V30 1460 C 142.982 -3.93501 1.59506 0
M  V30 1461 O 144.006 -3.27509 1.40058 0
M  V30 1462 O 142.865 -5.1183 1.91551 0
M  V30 1463 H 139.959 -0.78628 0.256305 0
M  V30 1464 H 142.505 -1.21934 1.18026 0
M  V30 1465 H 141.277 -3.0325 2.47295 0
M  V30 1466 H 140.9 -3.85619 0.968687 0
M  V30 1467 N 141.898 -0.863906 -1.31812 0
M  V30 1468 C 143.314 -0.555004 -1.49639 0
M  V30 1469 C 143.514 0.912266 -1.79666 0
M  V30 1470 O 142.57 1.69479 -1.87171 0
M  V30 1471 C 143.883 -1.44998 -2.63431 0
M  V30 1472 C 145.431 -1.45138 -2.77316 0
M  V30 1473 C 145.906 -2.33179 -3.94197 0
M  V30 1474 N 147.397 -2.31025 -4.01474 0
M  V30 1475 C 148.132 -2.95871 -4.9117 0
M  V30 1476 N 147.628 -3.69863 -5.8581 0
M  V30 1477 N 149.421 -2.85211 -4.84367 0
M  V30 1478 H 141.572 -1.81339 -1.10589 0
M  V30 1479 H 143.835 -0.77505 -0.545895 0
M  V30 1480 H 143.541 -2.49377 -2.48 0
M  V30 1481 H 143.415 -1.14409 -3.59431 0
M  V30 1482 H 145.802 -0.415201 -2.92164 0
M  V30 1483 H 145.883 -1.79747 -1.82001 0
M  V30 1484 H 145.527 -3.3687 -3.80107 0
M  V30 1485 H 145.457 -1.95897 -4.88807 0
M  V30 1486 H 147.948 -1.77238 -3.33759 0
M  V30 1487 H 148.261 -4.16486 -6.50968 0
M  V30 1488 H 146.606 -3.73971 -5.85808 0
M  V30 1489 H 149.797 -2.26948 -4.09405 0
M  V30 1490 H 149.97 -3.36027 -5.54066 0
M  V30 1491 N 143.376 1.44774 -0.622745 0
M  V30 1492 C 144.625 2.01334 -0.121397 0
M  V30 1493 C 144.938 1.49505 1.26125 0
M  V30 1494 O 146.144 1.98139 1.85616 0
M  V30 1495 C 144.6 3.59516 -0.166298 0
M  V30 1496 C 144.208 4.20342 -1.54974 0
M  V30 1497 C 145.952 4.23582 0.279021 0
M  V30 1498 C 143.859 5.70721 -1.55021 0
M  V30 1499 H 142.789 0.752851 -0.0416172 0
M  V30 1500 H 145.44 1.66083 -0.780309 0
M  V30 1501 H 143.822 3.92027 0.559557 0
M  V30 1502 H 144.996 3.99381 -2.29851 0
M  V30 1503 H 143.311 3.68529 -1.93843 0
M  V30 1504 H 145.908 5.33868 0.298083 0
M  V30 1505 H 146.251 3.95327 1.30471 0
M  V30 1506 H 146.784 3.95843 -0.394063 0
M  V30 1507 H 143.523 6.03698 -2.55399 0
M  V30 1508 H 143.043 5.93829 -0.844245 0
M  V30 1509 H 144.722 6.34203 -1.28047 0
M  V30 1510 N 144.854 0.36279 1.53368 0
M  V30 1511 C 145.817 -0.472679 2.24273 0
M  V30 1512 C 146.817 -1.012 1.24961 0
M  V30 1513 O 148.007 -0.898194 1.49259 0
M  V30 1514 C 145.139 -1.66039 2.97731 0
M  V30 1515 H 146.332 0.14773 2.99536 0
M  V30 1516 H 143.885 0.114434 1.55881 0
M  V30 1517 H 144.62 -2.31896 2.26704 0
M  V30 1518 H 144.405 -1.28066 3.70596 0
M  V30 1519 H 145.895 -2.25252 3.51641 0
M  V30 1520 N 146.332 -1.57332 0.0918853 0
M  V30 1521 C 147.748 -1.57389 -0.264766 0
M  V30 1522 C 147.948 -1.10281 -1.68643 0
M  V30 1523 O 147.004 -0.777801 -2.40222 0
M  V30 1524 C 148.317 -3.00648 -0.0561195 0
M  V30 1525 C 149.865 -3.12754 -0.124116 0
M  V30 1526 C 150.34 -4.57965 0.0564972 0
M  V30 1527 N 151.831 -4.632 0.00155611 0
M  V30 1528 C 152.566 -5.73281 0.116598 0
M  V30 1529 N 152.062 -6.92208 0.286294 0
M  V30 1530 N 153.855 -5.6207 0.0580973 0
M  V30 1531 H 146.006 -1.86262 1.02079 0
M  V30 1532 H 148.269 -0.859579 0.399786 0
M  V30 1533 H 147.975 -3.393 0.925669 0
M  V30 1534 H 147.849 -3.68623 -0.799823 0
M  V30 1535 H 150.236 -2.73976 -1.09641 0
M  V30 1536 H 150.317 -2.47377 0.651024 0
M  V30 1537 H 149.961 -4.97436 1.02564 0
M  V30 1538 H 149.891 -5.21399 -0.738297 0
M  V30 1539 H 152.382 -3.77686 -0.127192 0
M  V30 1540 H 152.695 -7.71934 0.365676 0
M  V30 1541 H 151.04 -6.94254 0.32192 0
M  V30 1542 H 154.231 -4.68043 -0.0733204 0
M  V30 1543 H 154.404 -6.47824 0.151203 0
M  V30 1544 N 147.81 0.181792 -1.56548 0
M  V30 1545 C 149.058 0.89832 -1.81038 0
M  V30 1546 C 149.379 1.83232 -0.667164 0
M  V30 1547 O 148.649 1.93372 0.313673 0
M  V30 1548 H 147.229 0.33471 -0.667816 0
M  V30 1549 H 149.891 0.184116 -1.94028 0
M  V30 1550 H 148.987 1.4815 -2.74696 0
M  V30 1551 N 149.288 1.51039 0.449983 0
M  V30 1552 C 150.198 1.74261 1.57067 0
M  V30 1553 C 151.214 0.626363 1.62335 0
M  V30 1554 O 152.39 0.907162 1.79812 0
M  V30 1555 C 149.455 1.85114 2.93144 0
M  V30 1556 C 148.516 3.0893 2.98095 0
M  V30 1557 C 147.749 3.19256 4.27681 0
M  V30 1558 O 147.972 2.35835 5.19363 0
M  V30 1559 O 146.906 4.12144 4.38658 0
M  V30 1560 H 150.732 2.69303 1.40391 0
M  V30 1561 H 148.317 1.35389 0.631688 0
M  V30 1562 H 150.199 1.94311 3.73926 0
M  V30 1563 H 148.874 0.932588 3.09975 0
M  V30 1564 H 147.781 3.0522 2.16314 0
M  V30 1565 H 149.114 4.00433 2.86206 0
M  V30 1566 N 150.766 -0.704594 1.40972 0
M  V30 1567 C 152.015 -1.46018 1.39146 0
M  V30 1568 C 152.328 -1.956 0.000589254 0
M  V30 1569 O 153.534 -2.71137 -0.1403 0
M  V30 1570 C 151.99 -2.63996 2.4461 0
M  V30 1571 C 151.598 -2.21238 3.89561 0
M  V30 1572 C 153.342 -3.41677 2.51907 0
M  V30 1573 C 151.249 -3.3612 4.86598 0
M  V30 1574 H 150.179 -0.548444 0.517422 0
M  V30 1575 H 152.83 -0.765784 1.66757 0
M  V30 1576 H 151.212 -3.3566 2.10115 0
M  V30 1577 H 152.386 -1.56923 4.33257 0
M  V30 1578 H 150.701 -1.56574 3.85841 0
M  V30 1579 H 153.298 -4.27182 3.2159 0
M  V30 1580 H 153.641 -3.86247 1.55303 0
M  V30 1581 H 154.174 -2.77064 2.85448 0
M  V30 1582 H 150.913 -2.96572 5.84573 0
M  V30 1583 H 150.433 -3.99315 4.47557 0
M  V30 1584 H 152.112 -4.02029 5.06934 0
M  V30 1585 N 152.244 -1.26651 -0.937939 0
M  V30 1586 C 153.191 -1.0849 -2.03712 0
M  V30 1587 C 154.161 0.011033 -1.66096 0
M  V30 1588 O 155.346 -0.149353 -1.90215 0
M  V30 1589 C 152.486 -0.72735 -3.37348 0
M  V30 1590 C 151.599 -1.89986 -3.87981 0
M  V30 1591 C 150.734 -1.48513 -5.10017 0
M  V30 1592 C 149.773 -2.62575 -5.5292 0
M  V30 1593 N 148.91 -2.21762 -6.66158 0
M  V30 1594 H 153.75 -2.02551 -2.18579 0
M  V30 1595 H 151.287 -1.00844 -1.07093 0
M  V30 1596 H 153.245 -0.50092 -4.14182 0
M  V30 1597 H 151.875 0.176298 -3.22318 0
M  V30 1598 H 150.927 -2.23913 -3.07518 0
M  V30 1599 H 152.239 -2.75586 -4.15757 0
M  V30 1600 H 151.393 -1.21934 -5.94321 0
M  V30 1601 H 150.132 -0.60009 -4.83994 0
M  V30 1602 H 149.137 -2.8988 -4.67172 0
M  V30 1603 H 150.362 -3.51685 -5.80943 0
M  V30 1604 H 148.308 -1.35696 -6.41812 0
M  V30 1605 H 148.225 -3.00903 -6.93537 0
M  V30 1606 H 149.493 -1.98403 -7.53828 0
M  V30 1607 N 153.722 1.14298 -1.08507 0
M  V30 1608 C 154.652 2.21542 -0.737646 0
M  V30 1609 C 155.633 1.67773 0.280377 0
M  V30 1610 O 156.818 1.93616 0.150521 0
M  V30 1611 C 153.948 3.46988 -0.147259 0
M  V30 1612 C 152.902 4.13789 -1.09374 0
M  V30 1613 C 152.228 5.33449 -0.365524 0
M  V30 1614 C 153.528 4.62208 -2.4323 0
M  V30 1615 H 155.222 2.5086 -1.6343 0
M  V30 1616 H 152.768 1.20576 -0.787243 0
M  V30 1617 H 154.721 4.21262 0.107808 0
M  V30 1618 H 153.445 3.17037 0.784538 0
M  V30 1619 H 152.104 3.4147 -1.33393 0
M  V30 1620 H 151.752 4.99759 0.57011 0
M  V30 1621 H 151.452 5.79088 -0.996512 0
M  V30 1622 H 152.976 6.10485 -0.118534 0
M  V30 1623 H 154.39 5.27952 -2.23472 0
M  V30 1624 H 152.787 5.18553 -3.02031 0
M  V30 1625 H 153.857 3.77224 -3.04681 0
M  V30 1626 N 155.201 0.870884 1.31352 0
M  V30 1627 C 156.426 0.495957 2.01383 0
M  V30 1628 C 156.851 -0.904324 1.64935 0
M  V30 1629 O 156.209 -1.59687 0.858466 0
M  V30 1630 C 156.257 0.661433 3.54482 0
M  V30 1631 O 155.361 -0.298851 4.11316 0
M  V30 1632 H 154.702 0.197158 0.634054 0
M  V30 1633 H 157.232 1.17455 1.67527 0
M  V30 1634 H 157.242 0.555072 4.04207 0
M  V30 1635 H 155.917 1.68246 3.8035 0
M  V30 1636 H 154.494 -0.147368 3.72609 0
M  V30 1637 N 156.679 -1.44442 0.630414 0
M  V30 1638 C 157.956 -1.9549 0.0655657 0
M  V30 1639 C 158.336 -1.5724 -1.40851 0
M  V30 1640 O 157.684 -0.846116 -2.12257 0
M  V30 1641 C 157.894 -3.47812 0.287691 0
M  V30 1642 C 159.242 -4.24216 0.180513 0
M  V30 1643 O 160.266 -3.55526 0.219019 0
M  V30 1644 O 159.125 -5.46434 0.0848493 0
M  V30 1645 H 156.219 -0.826688 -0.0227177 0
M  V30 1646 H 158.765 -1.54496 0.702068 0
M  V30 1647 H 157.537 -3.687 1.31056 0
M  V30 1648 H 157.16 -3.95751 -0.382984 0
M  V30 1649 N 158.157 -0.370918 -1.53173 0
M  V30 1650 C 159.568 0.107139 -1.86392 0
M  V30 1651 C 159.919 1.47714 -1.29132 0
M  V30 1652 O 159.044 2.07464 -0.615439 0
M  V30 1653 C 159.639 0.201187 -3.38202 0
M  V30 1654 C 158.198 0.623507 -3.712 0
M  V30 1655 C 157.345 -0.225978 -2.76378 0
M  V30 1656 H 160.296 -0.58951 -1.47345 0
M  V30 1657 H 160.317 1.02377 -3.66468 0
M  V30 1658 H 159.829 -0.796058 -3.79848 0
M  V30 1659 H 157.93 1.62879 -3.35114 0
M  V30 1660 H 158.043 0.394414 -4.77474 0
M  V30 1661 H 156.407 0.305962 -2.52856 0
M  V30 1662 H 157.19 -1.22086 -3.20858 0
M  V30 1663 N 159.635 1.57281 -0.100228 0
M  V30 1664 C 160.881 1.94826 0.563101 0
M  V30 1665 C 161.214 0.982475 1.67514 0
M  V30 1666 O 160.489 0.0164069 1.94493 0
M  V30 1667 C 160.772 3.42453 1.11346 0
M  V30 1668 C 160.625 4.498 0.00612081 0
M  V30 1669 C 161.944 3.91506 2.01024 0
M  V30 1670 H 159.063 0.708428 0.203221 0
M  V30 1671 H 161.705 1.8922 -0.171979 0
M  V30 1672 H 159.855 3.47361 1.7399 0
M  V30 1673 H 161.527 4.57 -0.628357 0
M  V30 1674 H 159.77 4.28756 -0.659581 0
M  V30 1675 H 160.441 5.50306 0.432109 0
M  V30 1676 H 162.917 3.88784 1.48278 0
M  V30 1677 H 161.793 4.95358 2.36457 0
M  V30 1678 H 162.054 3.31099 2.92961 0
M  V30 1679 N 161.113 -0.173488 1.56642 0
M  V30 1680 C 162.341 -0.906095 1.86004 0
M  V30 1681 C 162.756 -1.75921 0.685355 0
M  V30 1682 O 162.113 -1.79198 -0.345578 0
M  V30 1683 C 162.164 -1.78462 3.14378 0
M  V30 1684 O 161.885 -0.965914 4.27319 0
M  V30 1685 C 163.386 -2.62707 3.57071 0
M  V30 1686 H 160.606 -0.263341 0.617165 0
M  V30 1687 H 163.15 -0.174236 2.03756 0
M  V30 1688 H 161.305 -2.46984 2.98459 0
M  V30 1689 H 161.719 -1.56655 5.00559 0
M  V30 1690 H 163.193 -3.19969 4.49804 0
M  V30 1691 H 163.67 -3.37472 2.81086 0
M  V30 1692 H 164.276 -1.99521 3.75595 0
M  V30 1693 N 162.591 -1.51276 -0.441967 0
M  V30 1694 C 163.538 -1.72256 -1.53612 0
M  V30 1695 C 164.508 -0.564164 -1.56225 0
M  V30 1696 O 165.693 -0.798074 -1.73307 0
M  V30 1697 C 162.833 -1.84932 -2.91366 0
M  V30 1698 C 161.946 -3.12459 -2.98317 0
M  V30 1699 C 161.081 -3.15758 -4.27166 0
M  V30 1700 C 160.12 -4.37619 -4.27967 0
M  V30 1701 N 159.257 -4.38493 -5.48333 0
M  V30 1702 H 164.097 -2.65654 -1.35026 0
M  V30 1703 H 161.634 -1.31662 -0.656009 0
M  V30 1704 H 163.592 -1.90263 -3.7129 0
M  V30 1705 H 162.222 -0.949461 -3.08521 0
M  V30 1706 H 161.274 -3.1646 -2.11086 0
M  V30 1707 H 162.586 -4.02382 -2.94771 0
M  V30 1708 H 161.74 -3.19979 -5.15459 0
M  V30 1709 H 160.479 -2.23715 -4.33362 0
M  V30 1710 H 159.484 -4.33579 -3.38067 0
M  V30 1711 H 160.709 -5.30921 -4.23438 0
M  V30 1712 H 158.655 -3.49318 -5.55259 0
M  V30 1713 H 158.572 -5.22219 -5.46647 0
M  V30 1714 H 159.84 -4.469 -6.38671 0
M  V30 1715 N 164.069 0.697108 -1.41344 0
M  V30 1716 C 165.299 1.48377 -1.43763 0
M  V30 1717 C 165.707 1.89156 -0.0408726 0
M  V30 1718 O 165.05 1.57239 0.949812 0
M  V30 1719 C 165.112 2.7781 -2.2817 0
M  V30 1720 C 164.776 2.59244 -3.76353 0
M  V30 1721 C 165.773 2.25292 -4.68551 0
M  V30 1722 C 163.458 2.74933 -4.20378 0
M  V30 1723 C 165.452 2.07264 -6.02761 0
M  V30 1724 C 163.139 2.56521 -5.54653 0
M  V30 1725 C 164.137 2.22737 -6.4566 0
M  V30 1726 O 163.825 2.04485 -7.77458 0
M  V30 1727 H 163.557 0.463842 -0.491759 0
M  V30 1728 H 166.111 0.865934 -1.86255 0
M  V30 1729 H 164.341 3.41995 -1.8049 0
M  V30 1730 H 166.03 3.39608 -2.22309 0
M  V30 1731 H 166.796 2.12787 -4.35829 0
M  V30 1732 H 162.675 3.00213 -3.49848 0
M  V30 1733 H 166.219 1.80817 -6.73759 0
M  V30 1734 H 162.116 2.68616 -5.86955 0
M  V30 1735 H 162.884 2.1926 -7.88586 0
M  V30 1736 N 165.547 1.27147 0.931209 0
M  V30 1737 C 166.793 1.14455 1.68141 0
M  V30 1738 C 167.148 -0.307172 1.89932 0
M  V30 1739 O 166.441 -1.22158 1.47607 0
M  V30 1740 C 166.635 1.8579 3.05314 0
M  V30 1741 C 166.464 3.3775 2.96909 0
M  V30 1742 C 165.234 4.07062 2.99381 0
M  V30 1743 C 167.432 4.33783 2.76291 0
M  V30 1744 N 165.414 5.45618 2.8138 0
M  V30 1745 C 166.785 5.59582 2.6696 0
M  V30 1746 C 168.84 4.23915 2.61152 0
M  V30 1747 C 167.543 6.76639 2.44033 0
M  V30 1748 C 169.569 5.40689 2.39602 0
M  V30 1749 C 168.931 6.65443 2.3101 0
M  V30 1750 H 165.03 0.473667 0.622225 0
M  V30 1751 H 167.614 1.60568 1.10118 0
M  V30 1752 H 165.785 1.42138 3.61457 0
M  V30 1753 H 167.517 1.65634 3.69253 0
M  V30 1754 H 164.272 3.585 3.09475 0
M  V30 1755 H 164.696 6.184 2.75519 0
M  V30 1756 H 169.338 3.28189 2.66555 0
M  V30 1757 H 167.056 7.72451 2.3737 0
M  V30 1758 H 170.642 5.34932 2.28778 0
M  V30 1759 H 169.522 7.54277 2.14558 0
M  V30 1760 N 167.025 -1.13721 1.09112 0
M  V30 1761 C 168.436 -1.6648 0.845068 0
M  V30 1762 C 168.787 -1.85911 -0.62701 0
M  V30 1763 O 167.912 -1.57556 -1.48341 0
M  V30 1764 C 168.507 -3.02413 1.52748 0
M  V30 1765 C 167.066 -3.52176 1.32849 0
M  V30 1766 C 166.213 -2.27492 1.58564 0
M  V30 1767 H 169.164 -0.976872 1.25072 0
M  V30 1768 H 169.185 -3.68223 0.958752 0
M  V30 1769 H 168.697 -2.88238 2.59885 0
M  V30 1770 H 166.798 -3.7156 0.278137 0
M  V30 1771 H 166.911 -4.32499 2.0611 0
M  V30 1772 H 165.275 -2.33923 1.00758 0
M  V30 1773 H 166.058 -2.15886 2.66924 0
M  V30 1774 N 168.503 -0.877838 -1.30888 0
M  V30 1775 C 169.413 -0.343096 -2.32078 0
M  V30 1776 C 170.429 0.551022 -1.65045 0
M  V30 1777 O 171.605 0.445854 -1.96403 0
M  V30 1778 C 168.67 0.439905 -3.43898 0
M  V30 1779 C 167.731 -0.483111 -4.26573 0
M  V30 1780 C 166.964 0.262616 -5.33053 0
M  V30 1781 O 167.187 1.48967 -5.50604 0
M  V30 1782 O 166.121 -0.383593 -6.00676 0
M  V30 1783 H 169.947 -1.18203 -2.79753 0
M  V30 1784 H 167.532 -0.64145 -1.34929 0
M  V30 1785 H 169.414 0.883504 -4.12034 0
M  V30 1786 H 168.089 1.25526 -2.98371 0
M  V30 1787 H 166.996 -0.975374 -3.61161 0
M  V30 1788 H 168.329 -1.26427 -4.75686 0
M  V30 1789 N 169.982 1.44106 -0.638065 0
M  V30 1790 C 170.912 2.33448 0.0494287 0
M  V30 1791 C 171.893 1.48606 0.827672 0
M  V30 1792 O 173.078 1.77308 0.792173 0
M  V30 1793 C 170.208 3.31771 1.02691 0
M  V30 1794 C 169.162 4.26485 0.359823 0
M  V30 1795 C 168.488 5.14729 1.44769 0
M  V30 1796 C 169.788 5.17056 -0.738296 0
M  V30 1797 H 171.482 2.91183 -0.696636 0
M  V30 1798 H 169.028 1.40014 -0.336456 0
M  V30 1799 H 170.981 3.93161 1.51666 0
M  V30 1800 H 169.705 2.7226 1.80395 0
M  V30 1801 H 168.364 3.66437 -0.10934 0
M  V30 1802 H 168.012 4.51566 2.21578 0
M  V30 1803 H 167.712 5.78913 1.00668 0
M  V30 1804 H 169.236 5.78991 1.93911 0
M  V30 1805 H 170.65 5.72342 -0.331354 0
M  V30 1806 H 169.047 5.89879 -1.10286 0
M  V30 1807 H 170.117 4.57652 -1.60258 0
M  V30 1808 N 171.46 0.379036 1.52974 0
M  V30 1809 C 172.688 -0.20679 2.05864 0
M  V30 1810 C 173.103 -1.41356 1.25155 0
M  V30 1811 O 172.46 -1.8009 0.295588 0
M  V30 1812 C 172.511 -0.587045 3.56702 0
M  V30 1813 O 172.232 0.571776 4.34353 0
M  V30 1814 C 173.733 -1.22983 4.25899 0
M  V30 1815 H 170.953 -0.0336123 0.670158 0
M  V30 1816 H 173.497 0.541298 1.97206 0
M  V30 1817 H 171.652 -1.28504 3.65466 0
M  V30 1818 H 172.066 0.261544 5.23847 0
M  V30 1819 H 173.54 -1.44635 5.32715 0
M  V30 1820 H 174.017 -2.19416 3.80465 0
M  V30 1821 H 174.623 -0.572892 4.21424 0
M  V30 1822 N 172.938 -1.57226 0.108567 0
M  V30 1823 C 174.186 -1.94448 -0.550853 0
M  V30 1824 C 174.507 -0.992074 -1.67878 0
M  V30 1825 O 173.777 -0.0465 -1.95845 0
M  V30 1826 H 172.357 -0.717897 -0.206479 0
M  V30 1827 H 175.019 -1.94112 0.175062 0
M  V30 1828 H 174.115 -2.97218 -0.952259 0
M  V30 1829 N 174.416 0.165178 -1.56732 0
M  V30 1830 C 175.363 1.2044 -1.96883 0
M  V30 1831 C 176.333 1.43664 -0.833657 0
M  V30 1832 O 177.518 1.56302 -1.09427 0
M  V30 1833 C 174.658 2.53727 -2.33916 0
M  V30 1834 C 173.771 2.3783 -3.6064 0
M  V30 1835 C 172.906 3.64026 -3.86857 0
M  V30 1836 C 171.945 3.43088 -5.06909 0
M  V30 1837 N 171.082 4.61369 -5.29229 0
M  V30 1838 H 175.922 0.854996 -2.85471 0
M  V30 1839 H 173.459 0.41076 -1.41249 0
M  V30 1840 H 175.417 3.31419 -2.53411 0
M  V30 1841 H 174.047 2.8665 -1.48431 0
M  V30 1842 H 173.099 1.51282 -3.49024 0
M  V30 1843 H 174.411 2.18308 -4.4849 0
M  V30 1844 H 173.565 4.50152 -4.06753 0
M  V30 1845 H 172.304 3.86533 -2.97394 0
M  V30 1846 H 171.309 2.55349 -4.86906 0
M  V30 1847 H 172.534 3.21997 -5.97909 0
M  V30 1848 H 170.48 4.84084 -4.42718 0
M  V30 1849 H 170.397 4.44783 -6.11313 0
M  V30 1850 H 171.665 5.48761 -5.53608 0
M  V30 1851 N 175.894 1.51508 0.433938 0
M  V30 1852 C 176.826 1.69266 1.54537 0
M  V30 1853 C 177.839 0.573276 1.52373 0
M  V30 1854 O 179.028 0.847698 1.57087 0
M  V30 1855 C 176.128 1.69524 2.93453 0
M  V30 1856 C 175.301 2.98101 3.20085 0
M  V30 1857 C 174.36 2.90502 4.38742 0
M  V30 1858 O 173.386 3.64442 4.3723 0
M  V30 1859 N 174.588 2.06586 5.42496 0
M  V30 1860 H 177.353 2.65145 1.39708 0
M  V30 1861 H 174.914 1.49437 0.622922 0
M  V30 1862 H 176.906 1.62004 3.70859 0
M  V30 1863 H 175.476 0.812245 3.01863 0
M  V30 1864 H 174.696 3.19464 2.30947 0
M  V30 1865 H 175.984 3.83207 3.34708 0
M  V30 1866 H 175.382 1.45896 5.46563 0
M  V30 1867 H 173.939 2.04943 6.18742 0
M  V30 1868 N 177.372 -0.689602 1.41712 0
M  V30 1869 C 178.618 -1.45041 1.42599 0
M  V30 1870 C 178.973 -1.92366 0.0363764 0
M  V30 1871 O 178.266 -1.67022 -0.938844 0
M  V30 1872 C 178.46 -2.67298 2.37247 0
M  V30 1873 C 178.289 -2.31935 3.85274 0
M  V30 1874 C 177.059 -2.2201 4.53916 0
M  V30 1875 C 179.257 -1.94526 4.76093 0
M  V30 1876 N 177.239 -1.79594 5.87043 0
M  V30 1877 C 178.61 -1.62915 5.98213 0
M  V30 1878 C 180.665 -1.81388 4.63684 0
M  V30 1879 C 179.368 -1.19486 7.09306 0
M  V30 1880 C 181.394 -1.39364 5.74745 0
M  V30 1881 C 180.756 -1.08668 6.95967 0
M  V30 1882 H 176.855 -0.527806 0.577014 0
M  V30 1883 H 179.439 -0.797266 1.77628 0
M  V30 1884 H 177.61 -3.30325 2.04304 0
M  V30 1885 H 179.342 -3.33806 2.28814 0
M  V30 1886 H 176.097 -2.406 4.07932 0
M  V30 1887 H 176.521 -1.60851 6.57614 0
M  V30 1888 H 181.163 -2.03772 3.70455 0
M  V30 1889 H 178.881 -0.958477 8.02396 0
M  V30 1890 H 182.467 -1.2974 5.6715 0
M  V30 1891 H 181.347 -0.766417 7.80446 0
M  V30 1892 N 178.85 -1.27639 -0.924453 0
M  V30 1893 C 180.266 -1.05113 -1.20097 0
M  V30 1894 C 180.466 0.213262 -2.00368 0
M  V30 1895 O 179.522 0.91787 -2.35226 0
M  V30 1896 C 180.835 -2.29244 -1.94596 0
M  V30 1897 C 182.383 -2.34315 -2.07522 0
M  V30 1898 C 182.858 -3.58183 -2.85427 0
M  V30 1899 N 184.349 -3.5876 -2.92994 0
M  V30 1900 C 185.084 -4.51277 -3.53746 0
M  V30 1901 N 184.58 -5.54102 -4.15863 0
M  V30 1902 N 186.373 -4.38894 -3.51181 0
M  V30 1903 H 178.524 -2.08821 -0.388264 0
M  V30 1904 H 180.787 -0.918568 -0.234385 0
M  V30 1905 H 180.493 -3.21301 -1.43034 0
M  V30 1906 H 180.367 -2.34816 -2.95197 0
M  V30 1907 H 182.754 -1.42762 -2.58269 0
M  V30 1908 H 182.835 -2.32744 -1.06131 0
M  V30 1909 H 182.479 -4.50074 -2.35363 0
M  V30 1910 H 182.409 -3.57006 -3.8711 0
M  V30 1911 H 184.9 -2.84398 -2.4885 0
M  V30 1912 H 185.213 -6.20859 -4.60168 0
M  V30 1913 H 183.558 -5.57941 -4.144 0
M  V30 1914 H 186.749 -3.57772 -3.01856 0
M  V30 1915 H 186.922 -5.11186 -3.98237 0
M  V30 1916 N 180.328 1.1314 -1.09713 0
M  V30 1917 C 181.576 1.84119 -0.833338 0
M  V30 1918 C 181.897 1.84097 0.642904 0
M  V30 1919 O 181.167 1.29881 1.46655 0
M  V30 1920 H 179.747 0.681766 -0.305293 0
M  V30 1921 H 182.409 1.37038 -1.38588 0
M  V30 1922 H 181.505 2.88543 -1.18951 0
M  V30 1923 N 181.806 0.884767 1.30421 0
M  V30 1924 C 183.055 0.499164 1.95426 0
M  V30 1925 C 183.368 -0.95645 1.70621 0
M  V30 1926 O 184.574 -1.44889 2.29607 0
M  V30 1927 C 183.03 0.84177 3.49917 0
M  V30 1928 C 182.638 2.31514 3.83543 0
M  V30 1929 C 184.382 0.525355 4.21237 0
M  V30 1930 C 182.289 2.59939 5.31212 0
M  V30 1931 H 181.219 0.182944 0.73147 0
M  V30 1932 H 183.87 1.07971 1.48373 0
M  V30 1933 H 182.252 0.190311 3.95542 0
M  V30 1934 H 183.426 3.0109 3.48829 0
M  V30 1935 H 181.741 2.59907 3.25326 0
M  V30 1936 H 184.338 0.714762 5.29901 0
M  V30 1937 H 184.681 -0.535222 4.12845 0
M  V30 1938 H 185.214 1.134 3.81294 0
M  V30 1939 H 181.953 3.64736 5.44654 0
M  V30 1940 H 181.473 1.94972 5.67227 0
M  V30 1941 H 183.152 2.45429 5.98643 0
M  V30 1942 N 183.284 -1.43765 0.645699 0
M  V30 1943 C 184.509 -2.06767 0.161883 0
M  V30 1944 C 184.934 -1.48034 -1.16049 0
M  V30 1945 O 184.292 -0.587369 -1.71522 0
M  V30 1946 C 184.34 -3.60519 0.0762003 0
M  V30 1947 O 183.444 -4.00982 -0.963721 0
M  V30 1948 H 182.785 -0.657675 0.091429 0
M  V30 1949 H 185.315 -1.84397 0.886499 0
M  V30 1950 H 185.325 -4.07853 -0.109604 0
M  V30 1951 H 184 -4.02646 1.04157 0
M  V30 1952 H 182.577 -3.65253 -0.751312 0
M  V30 1953 N 184.763 -0.387143 -1.52771 0
M  V30 1954 C 185.693 0.440551 -2.29306 0
M  V30 1955 C 186.674 1.06535 -1.32606 0
M  V30 1956 O 187.859 1.07853 -1.61497 0
M  V30 1957 C 184.989 1.56919 -3.09829 0
M  V30 1958 C 183.943 1.07054 -4.14395 0
M  V30 1959 C 183.269 2.29109 -4.83129 0
M  V30 1960 C 184.569 0.140015 -5.22112 0
M  V30 1961 H 186.263 -0.198026 -2.98744 0
M  V30 1962 H 183.809 -0.09668 -1.43675 0
M  V30 1963 H 185.762 2.15503 -3.62128 0
M  V30 1964 H 184.486 2.23532 -2.3812 0
M  V30 1965 H 183.145 0.507247 -3.63074 0
M  V30 1966 H 182.793 2.94227 -4.0797 0
M  V30 1967 H 182.493 1.96406 -5.53804 0
M  V30 1968 H 184.017 2.88339 -5.38231 0
M  V30 1969 H 185.431 0.633978 -5.69784 0
M  V30 1970 H 183.828 -0.0971485 -6.00021 0
M  V30 1971 H 184.898 -0.811711 -4.78058 0
M  V30 1972 N 186.241 1.57166 -0.116904 0
M  V30 1973 C 187.171 2.18222 0.830759 0
M  V30 1974 C 188.152 1.12167 1.27877 0
M  V30 1975 O 189.337 1.40394 1.34176 0
M  V30 1976 C 186.467 2.77996 2.08172 0
M  V30 1977 C 185.421 3.89614 1.77157 0
M  V30 1978 C 184.747 4.36187 3.09265 0
M  V30 1979 C 186.047 5.1181 1.04151 0
M  V30 1980 H 187.741 2.97664 0.321992 0
M  V30 1981 H 185.287 1.4318 0.153434 0
M  V30 1982 H 187.24 3.19366 2.74924 0
M  V30 1983 H 185.964 1.9584 2.6137 0
M  V30 1984 H 184.623 3.48816 1.12796 0
M  V30 1985 H 184.271 3.50893 3.60393 0
M  V30 1986 H 183.971 5.11455 2.89288 0
M  V30 1987 H 185.495 4.80207 3.77139 0
M  V30 1988 H 186.909 5.50214 1.61052 0
M  V30 1989 H 185.306 5.92648 0.942762 0
M  V30 1990 H 186.376 4.84892 0.0279022 0
M  V30 1991 N 187.719 -0.156864 1.56817 0
M  V30 1992 C 188.669 -1.19891 1.93934 0
M  V30 1993 C 189.653 -1.39061 0.809372 0
M  V30 1994 O 190.845 -1.40789 1.07273 0
M  V30 1995 C 187.974 -2.53493 2.31508 0
M  V30 1996 C 187.06 -2.37957 3.51052 0
M  V30 1997 N 187.451 -1.92158 4.67877 0
M  V30 1998 C 185.749 -2.68739 3.55943 0
M  V30 1999 C 186.45 -1.8943 5.49992 0
M  V30 2000 N 185.426 -2.32375 4.91429 0
M  V30 2001 H 189.228 -0.836746 2.81737 0
M  V30 2002 H 186.742 -0.365012 1.58245 0
M  V30 2003 H 188.739 -3.28811 2.56299 0
M  V30 2004 H 187.399 -2.905 1.45051 0
M  V30 2005 H 188.41 -1.62274 4.91821 0
M  V30 2006 H 185.087 -3.09687 2.80001 0
M  V30 2007 H 186.477 -1.55596 6.53636 0
M  V30 2008 N 189.197 -1.51736 -0.425897 0
M  V30 2009 C 190.127 -1.76827 -1.52494 0
M  V30 2010 C 191.108 -0.618524 -1.58456 0
M  V30 2011 O 192.293 -0.862416 -1.74 0
M  V30 2012 C 189.423 -1.90374 -2.90474 0
M  V30 2013 C 188.377 -3.0588 -2.99369 0
M  V30 2014 C 187.703 -3.04625 -4.3944 0
M  V30 2015 C 189.003 -4.45644 -2.72394 0
M  V30 2016 H 190.697 -2.68855 -1.31748 0
M  V30 2017 H 188.243 -1.29372 -0.632362 0
M  V30 2018 H 190.196 -2.0651 -3.6733 0
M  V30 2019 H 188.92 -0.95004 -3.12477 0
M  V30 2020 H 187.579 -2.89467 -2.24954 0
M  V30 2021 H 187.227 -2.0701 -4.58428 0
M  V30 2022 H 186.927 -3.82195 -4.46319 0
M  V30 2023 H 188.451 -3.22869 -5.18255 0
M  V30 2024 H 189.865 -4.62348 -3.38979 0
M  V30 2025 H 188.262 -5.25006 -2.9067 0
M  V30 2026 H 189.332 -4.54893 -1.67929 0
M  V30 2027 N 190.675 0.682077 -1.42076 0
M  V30 2028 C 191.638 1.77756 -1.44691 0
M  V30 2029 C 192.638 1.5726 -0.335535 0
M  V30 2030 O 193.828 1.63686 -0.596037 0
M  V30 2031 C 190.96 3.16301 -1.27146 0
M  V30 2032 H 192.153 1.76826 -2.42224 0
M  V30 2033 H 189.706 0.891012 -1.28416 0
M  V30 2034 H 190.441 3.22862 -0.305075 0
M  V30 2035 H 190.226 3.32581 -2.07683 0
M  V30 2036 H 191.716 3.96241 -1.31843 0
M  V30 2037 N 192.153 1.28127 0.917671 0
M  V30 2038 C 193.381 1.17892 1.70026 0
M  V30 2039 C 193.796 -0.262958 1.8696 0
M  V30 2040 O 193.153 -1.17811 1.3938 0
M  V30 2041 C 193.204 1.86872 3.09453 0
M  V30 2042 O 192.925 3.25428 2.93306 0
M  V30 2043 C 194.426 1.8289 4.03815 0
M  V30 2044 H 191.646 0.40942 0.531617 0
M  V30 2045 H 194.19 1.69181 1.14883 0
M  V30 2046 H 192.345 1.39464 3.61426 0
M  V30 2047 H 192.759 3.59918 3.81523 0
M  V30 2048 H 194.233 2.35751 4.99125 0
M  V30 2049 H 194.71 0.800412 4.31845 0
M  V30 2050 H 195.316 2.29959 3.57769 0
M  V30 2051 N 193.631 -1.12557 1.10312 0
M  V30 2052 C 194.861 -1.87592 0.865617 0
M  V30 2053 C 195.269 -1.79851 -0.587389 0
M  V30 2054 O 194.612 -1.16949 -1.41664 0
M  V30 2055 C 194.674 -3.37665 1.23381 0
M  V30 2056 C 194.338 -3.69181 2.69359 0
M  V30 2057 C 195.335 -3.67652 3.67597 0
M  V30 2058 C 193.02 -3.98555 3.05711 0
M  V30 2059 C 195.014 -3.95053 5.00212 0
M  V30 2060 C 192.701 -4.25616 4.38514 0
M  V30 2061 C 193.699 -4.23851 5.35574 0
M  V30 2062 O 193.387 -4.50242 6.65986 0
M  V30 2063 H 193.119 -0.600442 0.310557 0
M  V30 2064 H 195.673 -1.4335 1.47105 0
M  V30 2065 H 193.903 -3.82454 0.571467 0
M  V30 2066 H 195.592 -3.94041 0.973994 0
M  V30 2067 H 196.358 -3.45024 3.40857 0
M  V30 2068 H 192.237 -3.99071 2.30789 0
M  V30 2069 H 195.781 -3.93591 5.75962 0
M  V30 2070 H 191.678 -4.47718 4.64994 0
M  V30 2071 H 192.446 -4.67867 6.71597 0
M  V30 2072 N 195.109 -0.891671 -1.2995 0
M  V30 2073 C 196.337 -0.52866 -2.00032 0
M  V30 2074 C 196.752 0.884574 -1.66795 0
M  V30 2075 O 196.109 1.5827 -0.908669 0
M  V30 2076 C 196.16 -0.701814 -3.54622 0
M  V30 2077 O 195.881 -2.05942 -3.86678 0
M  V30 2078 C 197.382 -0.342683 -4.41973 0
M  V30 2079 H 194.602 -0.203659 -0.639347 0
M  V30 2080 H 197.146 -1.19881 -1.65677 0
M  V30 2081 H 195.301 -0.0789468 -3.8732 0
M  V30 2082 H 195.715 -2.08291 -4.81368 0
M  V30 2083 H 197.189 -0.514709 -5.49595 0
M  V30 2084 H 197.666 0.71975 -4.33262 0
M  V30 2085 H 198.272 -0.942154 -4.14733 0
M  V30 2086 N 196.587 1.43421 -0.653314 0
M  V30 2087 C 197.55 2.29182 0.0287951 0
M  V30 2088 C 198.55 1.42213 0.750465 0
M  V30 2089 O 199.74 1.63843 0.591701 0
M  V30 2090 C 196.872 3.24278 1.05151 0
M  V30 2091 H 198.065 2.90985 -0.725786 0
M  V30 2092 H 195.618 1.50702 -0.414545 0
M  V30 2093 H 196.353 2.6737 1.83532 0
M  V30 2094 H 196.138 3.88396 0.537687 0
M  V30 2095 H 197.628 3.88647 1.52786 0
M  V30 2096 N 198.065 0.39524 1.52563 0
M  V30 2097 C 199.313 -0.184678 2.01254 0
M  V30 2098 C 199.634 -1.46822 1.28329 0
M  V30 2099 O 198.904 -1.91666 0.405094 0
M  V30 2100 H 197.484 -0.0712355 0.743596 0
M  V30 2101 H 200.146 0.528293 1.87603 0
M  V30 2102 H 199.242 -0.390681 3.09645 0
M  V30 2103 N 199.544 -1.57102 0.125237 0
M  V30 2104 C 200.792 -1.95021 -0.530198 0
M  V30 2105 C 201.113 -1.00982 -1.66816 0
M  V30 2106 O 200.383 -0.0672693 -1.95784 0
M  V30 2107 H 198.963 -0.720046 -0.198853 0
M  V30 2108 H 201.625 -1.93916 0.19564 0
M  V30 2109 H 200.721 -2.98211 -0.920681 0
M  V30 2110 N 201.022 0.148545 -1.56898 0
M  V30 2111 C 201.952 1.18524 -2.01182 0
M  V30 2112 C 202.933 1.4489 -0.891123 0
M  V30 2113 O 204.118 1.55836 -1.15882 0
M  V30 2114 C 201.248 2.51879 -2.39112 0
M  V30 2115 C 200.202 2.40038 -3.54353 0
M  V30 2116 C 199.528 3.78089 -3.78091 0
M  V30 2117 C 200.828 1.88577 -4.87069 0
M  V30 2118 H 202.522 0.817029 -2.88036 0
M  V30 2119 H 200.068 0.391575 -1.38574 0
M  V30 2120 H 202.021 3.24627 -2.68692 0
M  V30 2121 H 200.745 2.90532 -1.49193 0
M  V30 2122 H 199.404 1.69742 -3.24936 0
M  V30 2123 H 199.052 4.14175 -2.85426 0
M  V30 2124 H 198.752 3.71028 -4.55645 0
M  V30 2125 H 200.276 4.52387 -4.10095 0
M  V30 2126 H 201.69 2.51117 -5.15377 0
M  V30 2127 H 200.087 1.9241 -5.68417 0
M  V30 2128 H 201.157 0.84136 -4.77545 0
M  V30 2129 N 202.5 1.5196 0.417844 0
M  V30 2130 C 203.911 1.57851 0.997 0
M  V30 2131 C 204.262 0.413714 1.91789 0
M  V30 2132 O 203.387 -0.467057 2.113 0
M  V30 2133 C 203.982 2.86085 1.81496 0
M  V30 2134 C 202.541 2.94483 2.34428 0
M  V30 2135 C 201.688 2.52707 1.14169 0
M  V30 2136 H 204.639 1.57455 0.198392 0
M  V30 2137 H 204.66 2.70947 2.67148 0
M  V30 2138 H 204.172 3.70842 1.14446 0
M  V30 2139 H 202.273 2.142 3.04875 0
M  V30 2140 H 202.386 3.98546 2.65891 0
M  V30 2141 H 200.75 2.06353 1.49301 0
M  V30 2142 H 201.533 3.39828 0.486999 0
M  V30 2143 N 203.978 -0.674533 1.42435 0
M  V30 2144 C 204.908 -1.80009 1.48724 0
M  V30 2145 C 205.889 -1.6659 0.343793 0
M  V30 2146 O 207.074 -1.86007 0.558137 0
M  V30 2147 C 204.204 -3.18306 1.38919 0
M  V30 2148 C 203.158 -3.46461 2.51294 0
M  V30 2149 C 202.484 -4.84335 2.26547 0
M  V30 2150 C 203.784 -3.43328 3.93603 0
M  V30 2151 H 205.478 -1.75004 2.42928 0
M  V30 2152 H 203.024 -0.840533 1.16923 0
M  V30 2153 H 204.977 -3.9678 1.41927 0
M  V30 2154 H 203.701 -3.2399 0.412094 0
M  V30 2155 H 202.36 -2.70348 2.47604 0
M  V30 2156 H 202.008 -4.86669 1.2713 0
M  V30 2157 H 201.708 -5.04136 3.01861 0
M  V30 2158 H 203.232 -5.65094 2.31304 0
M  V30 2159 H 204.646 -4.11772 3.98894 0
M  V30 2160 H 203.043 -3.74664 4.68771 0
M  V30 2161 H 204.113 -2.41897 4.20255 0
M  V30 2162 N 205.456 -1.28612 -0.910864 0
M  V30 2163 C 206.388 -1.08589 -2.01844 0
M  V30 2164 C 207.401 -0.0367419 -1.62759 0
M  V30 2165 O 208.59 -0.280101 -1.76289 0
M  V30 2166 C 205.69 -0.628626 -3.33019 0
M  V30 2167 C 204.863 -1.75382 -4.00699 0
M  V30 2168 C 203.922 -1.28945 -5.10156 0
M  V30 2169 O 202.948 -1.9922 -5.33198 0
M  V30 2170 N 204.15 -0.154224 -5.80295 0
M  V30 2171 H 206.915 -2.03973 -2.19579 0
M  V30 2172 H 204.476 -1.20403 -1.08234 0
M  V30 2173 H 206.468 -0.301508 -4.03575 0
M  V30 2174 H 205.038 0.232451 -3.11735 0
M  V30 2175 H 204.258 -2.25039 -3.23653 0
M  V30 2176 H 205.546 -2.50854 -4.42662 0
M  V30 2177 H 204.944 0.43194 -5.64049 0
M  V30 2178 H 203.501 0.113599 -6.51701 0
M  V30 2179 N 206.934 1.1197 -1.10907 0
M  V30 2180 C 208.183 1.82947 -0.849302 0
M  V30 2181 C 208.496 1.85275 0.627112 0
M  V30 2182 O 209.702 2.52296 1.00295 0
M  V30 2183 C 208.158 3.28529 -1.46959 0
M  V30 2184 C 207.766 3.34546 -2.97965 0
M  V30 2185 C 209.51 4.04443 -1.28942 0
M  V30 2186 C 207.417 4.74491 -3.53004 0
M  V30 2187 H 206.347 0.685477 -0.314065 0
M  V30 2188 H 208.998 1.2604 -1.33365 0
M  V30 2189 H 207.38 3.85333 -0.912917 0
M  V30 2190 H 208.554 2.87654 -3.59989 0
M  V30 2191 H 206.869 2.72108 -3.15192 0
M  V30 2192 H 209.466 5.07787 -1.67502 0
M  V30 2193 H 209.809 4.15656 -0.231456 0
M  V30 2194 H 210.342 3.5401 -1.81443 0
M  V30 2195 H 207.081 4.68474 -4.58489 0
M  V30 2196 H 206.601 5.21816 -2.9575 0
M  V30 2197 H 208.28 5.4344 -3.51115 0
M  V30 2198 N 208.412 0.89855 1.29475 0
M  V30 2199 C 209.823 0.572537 1.77705 0
M  V30 2200 C 210.174 -0.911778 1.73727 0
M  V30 2201 O 209.299 -1.71288 1.32247 0
M  V30 2202 C 209.894 1.03252 3.22683 0
M  V30 2203 C 208.453 0.757687 3.68695 0
M  V30 2204 C 207.6 1.20787 2.49612 0
M  V30 2205 H 210.551 1.08139 1.16153 0
M  V30 2206 H 210.572 0.367307 3.78723 0
M  V30 2207 H 210.084 2.11285 3.25546 0
M  V30 2208 H 208.185 -0.310079 3.71308 0
M  V30 2209 H 208.298 1.35476 4.59547 0
M  V30 2210 H 206.662 0.626888 2.46865 0
M  V30 2211 H 207.445 2.29622 2.55203 0
M  V30 2212 N 209.89 -1.43072 0.660911 0
M  V30 2213 C 211.138 -2.01323 0.177094 0
M  V30 2214 C 211.459 -1.5245 -1.2159 0
M  V30 2215 O 210.729 -0.740322 -1.81373 0
M  V30 2216 H 209.309 -0.744382 0.0624804 0
M  V30 2217 H 211.971 -1.75179 0.854305 0
M  V30 2218 H 211.067 -3.11649 0.167641 0
M  V30 2219 N 211.368 -0.403325 -1.52352 0
M  V30 2220 C 212.645 0.232611 -1.94212 0
M  V30 2221 C 213.025 1.63133 -1.33981 0
M  V30 2222 O 212.373 2.22659 -0.513344 0
M  V30 2223 C 212.583 0.244811 -3.4814 0
M  V30 2224 C 213.931 0.46698 -4.22024 0
M  V30 2225 O 214.955 0.324419 -3.5472 0
M  V30 2226 O 213.814 0.74747 -5.41364 0
M  V30 2227 H 210.908 0.148223 -0.813609 0
M  V30 2228 H 213.454 -0.458848 -1.63379 0
M  V30 2229 H 212.226 -0.734378 -3.84347 0
M  V30 2230 H 211.849 0.980611 -3.85318 0
M  V30 2231 N 212.846 1.57033 -0.133567 0
M  V30 2232 C 214.092 1.95976 0.521649 0
M  V30 2233 C 214.425 1.01779 1.65393 0
M  V30 2234 O 213.7 0.0576581 1.94415 0
M  V30 2235 C 213.983 3.44738 1.04057 0
M  V30 2236 C 213.836 4.49711 -0.0892897 0
M  V30 2237 C 215.155 3.95682 1.92675 0
M  V30 2238 H 212.274 0.712579 0.188149 0
M  V30 2239 H 214.916 1.88813 -0.212076 0
M  V30 2240 H 213.066 3.50973 1.66583 0
M  V30 2241 H 214.738 4.55565 -0.725152 0
M  V30 2242 H 212.981 4.27261 -0.750378 0
M  V30 2243 H 213.652 5.51099 0.315284 0
M  V30 2244 H 216.128 3.91841 1.39998 0
M  V30 2245 H 215.004 5.00262 2.25897 0
M  V30 2246 H 215.265 3.37239 2.85872 0
M  V30 2247 N 214.325 -0.140222 1.56975 0
M  V30 2248 C 215.553 -0.866437 1.87884 0
M  V30 2249 C 215.968 -1.74428 0.722517 0
M  V30 2250 O 215.325 -1.79891 -0.30749 0
M  V30 2251 C 215.376 -1.71753 3.18093 0
M  V30 2252 O 215.097 -0.875056 4.29272 0
M  V30 2253 C 216.598 -2.55074 3.62563 0
M  V30 2254 H 213.818 -0.25019 0.622612 0
M  V30 2255 H 216.362 -0.130977 2.0408 0
M  V30 2256 H 214.517 -2.40598 3.03631 0
M  V30 2257 H 214.931 -1.46002 5.03769 0
M  V30 2258 H 216.405 -3.10356 4.5649 0
M  V30 2259 H 216.882 -3.31434 2.88181 0
M  V30 2260 H 217.488 -1.91509 3.79743 0
M  V30 2261 N 215.803 -1.52179 -0.40978 0
M  V30 2262 C 217.08 -1.56769 -1.16974 0
M  V30 2263 C 217.46 -0.348322 -2.08206 0
M  V30 2264 O 216.808 0.664862 -2.18613 0
M  V30 2265 C 217.018 -2.89603 -1.9476 0
M  V30 2266 C 218.366 -3.42579 -2.50849 0
M  V30 2267 O 219.39 -2.91338 -2.04941 0
M  V30 2268 O 218.249 -4.32054 -3.34652 0
M  V30 2269 H 215.343 -0.631439 -0.534054 0
M  V30 2270 H 217.889 -1.64507 -0.416613 0
M  V30 2271 H 216.661 -3.698 -1.27921 0
M  V30 2272 H 216.284 -2.85155 -2.77079 0
M  V30 2273 N 217.281 0.66697 -1.42791 0
M  V30 2274 C 218.228 1.7803 -1.4688 0
M  V30 2275 C 219.198 1.6299 -0.319919 0
M  V30 2276 O 220.383 1.83432 -0.525118 0
M  V30 2277 C 217.523 3.1611 -1.38451 0
M  V30 2278 C 216.636 3.42381 -2.63437 0
M  V30 2279 C 215.771 4.70232 -2.47094 0
M  V30 2280 C 214.81 4.89564 -3.67415 0
M  V30 2281 N 213.947 6.08661 -3.49966 0
M  V30 2282 H 218.787 1.7387 -2.42019 0
M  V30 2283 H 216.324 0.84868 -1.20149 0
M  V30 2284 H 218.282 3.95914 -1.31561 0
M  V30 2285 H 216.912 3.19374 -0.469033 0
M  V30 2286 H 215.964 2.56774 -2.80662 0
M  V30 2287 H 217.276 3.52557 -3.52853 0
M  V30 2288 H 216.43 5.5814 -2.37834 0
M  V30 2289 H 215.169 4.62353 -1.5518 0
M  V30 2290 H 214.174 4.00096 -3.77099 0
M  V30 2291 H 215.399 4.99282 -4.6032 0
M  V30 2292 H 213.345 6.0194 -2.60776 0
M  V30 2293 H 213.262 6.19733 -4.32975 0
M  V30 2294 H 214.53 6.99226 -3.44532 0
M  V30 2295 N 218.759 1.29093 0.90403 0
M  V30 2296 C 219.722 1.1386 1.98919 0
M  V30 2297 C 220.722 0.0753457 1.60623 0
M  V30 2298 O 221.912 0.321931 1.71199 0
M  V30 2299 C 219.044 0.740198 3.32767 0
M  V30 2300 H 220.237 2.10246 2.13861 0
M  V30 2301 H 217.79 1.12218 1.08797 0
M  V30 2302 H 218.525 -0.223997 3.23525 0
M  V30 2303 H 218.31 1.50838 3.61926 0
M  V30 2304 H 219.8 0.656546 4.12407 0
M  V30 2305 N 220.237 -1.11381 1.11499 0
M  V30 2306 C 221.147 -2.21019 0.786628 0
M  V30 2307 C 222.163 -1.72597 -0.220507 0
M  V30 2308 O 223.339 -2.01321 -0.0565251 0
M  V30 2309 C 220.404 -3.459 0.235333 0
M  V30 2310 C 219.465 -4.09107 1.30115 0
M  V30 2311 C 218.698 -5.28027 0.776068 0
M  V30 2312 O 218.921 -5.6904 -0.393661 0
M  V30 2313 O 217.855 -5.81835 1.54114 0
M  V30 2314 H 221.681 -2.51521 1.70209 0
M  V30 2315 H 219.266 -1.19928 0.890928 0
M  V30 2316 H 221.148 -4.21346 -0.067715 0
M  V30 2317 H 219.823 -3.17049 -0.652828 0
M  V30 2318 H 218.73 -3.35391 1.65722 0
M  V30 2319 H 220.063 -4.42139 2.16273 0
M  V30 2320 N 221.715 -0.905404 -1.28997 0
M  V30 2321 C 222.645 -0.404212 -2.29975 0
M  V30 2322 C 223.626 0.523784 -1.61835 0
M  V30 2323 O 224.811 0.433298 -1.89304 0
M  V30 2324 C 221.941 0.364042 -3.45387 0
M  V30 2325 C 220.895 -0.474048 -4.25367 0
M  V30 2326 C 220.221 0.422045 -5.33032 0
M  V30 2327 C 221.521 -1.72696 -4.92923 0
M  V30 2328 H 223.215 -1.24807 -2.72146 0
M  V30 2329 H 220.761 -0.601585 -1.30832 0
M  V30 2330 H 222.714 0.725447 -4.15109 0
M  V30 2331 H 221.438 1.24174 -3.02074 0
M  V30 2332 H 220.097 -0.81786 -3.57361 0
M  V30 2333 H 219.745 1.29804 -4.85963 0
M  V30 2334 H 219.445 -0.135057 -5.87445 0
M  V30 2335 H 220.969 0.779517 -6.05604 0
M  V30 2336 H 222.383 -1.43495 -5.55051 0
M  V30 2337 H 220.78 -2.22582 -5.57295 0
M  V30 2338 H 221.85 -2.45964 -4.17887 0
M  V30 2339 N 223.193 1.4272 -0.668489 0
M  V30 2340 C 224.123 2.335 -0.000100175 0
M  V30 2341 C 225.104 1.50328 0.795964 0
M  V30 2342 O 226.289 1.78949 0.754385 0
M  V30 2343 C 223.419 3.33874 0.956302 0
M  V30 2344 C 222.373 4.27152 0.269278 0
M  V30 2345 C 221.699 5.17684 1.33818 0
M  V30 2346 C 222.999 5.15373 -0.847805 0
M  V30 2347 H 224.693 2.89639 -0.758244 0
M  V30 2348 H 222.239 1.39269 -0.366079 0
M  V30 2349 H 224.192 3.9629 1.43292 0
M  V30 2350 H 222.916 2.76025 1.74579 0
M  V30 2351 H 221.575 3.66123 -0.187042 0
M  V30 2352 H 221.223 4.56165 2.1195 0
M  V30 2353 H 220.923 5.80918 0.883659 0
M  V30 2354 H 222.447 5.82974 1.81586 0
M  V30 2355 H 223.861 5.7151 -0.452681 0
M  V30 2356 H 222.258 5.87407 -1.22773 0
M  V30 2357 H 223.328 4.5415 -1.69929 0
M  V30 2358 N 224.671 0.411399 1.52136 0
M  V30 2359 C 226.087 0.0623865 1.59478 0
M  V30 2360 C 226.287 -1.42554 1.4241 0
M  V30 2361 O 225.343 -2.19263 1.2522 0
M  V30 2362 C 226.656 0.559331 2.95452 0
M  V30 2363 C 228.204 0.517503 3.08692 0
M  V30 2364 C 228.679 0.990994 4.4715 0
M  V30 2365 N 230.17 0.947908 4.53397 0
M  V30 2366 C 230.905 1.28544 5.58806 0
M  V30 2367 N 230.401 1.69454 6.71757 0
M  V30 2368 N 232.194 1.20526 5.49026 0
M  V30 2369 H 224.345 1.37982 1.61477 0
M  V30 2370 H 226.608 0.566977 0.759764 0
M  V30 2371 H 226.314 1.59938 3.1323 0
M  V30 2372 H 226.188 -0.0298014 3.77188 0
M  V30 2373 H 228.575 -0.513505 2.90598 0
M  V30 2374 H 228.656 1.14272 2.28857 0
M  V30 2375 H 228.3 2.02034 4.65988 0
M  V30 2376 H 228.23 0.34257 5.25485 0
M  V30 2377 H 230.721 0.647157 3.72317 0
M  V30 2378 H 231.034 1.93513 7.48179 0
M  V30 2379 H 229.379 1.73359 6.73032 0
M  V30 2380 H 232.57 0.884505 4.59667 0
M  V30 2381 H 232.743 1.47161 6.31069 0
M  V30 2382 N 226.149 -1.5696 0.141893 0
M  V30 2383 C 227.396 -1.9596 -0.510492 0
M  V30 2384 C 227.724 -1.02648 -1.65208 0
M  V30 2385 O 226.979 -0.0546947 -1.95624 0
M  V30 2386 C 227.278 -3.41242 -1.06249 0
M  V30 2387 C 226.944 -4.50882 -0.0398791 0
M  V30 2388 C 225.606 -4.80595 0.241247 0
M  V30 2389 C 227.958 -5.17058 0.65578 0
M  V30 2390 C 225.286 -5.73792 1.22393 0
M  V30 2391 C 227.638 -6.11313 1.62724 0
M  V30 2392 C 226.302 -6.39407 1.91612 0
M  V30 2393 H 225.572 -0.717068 -0.186802 0
M  V30 2394 H 228.219 -1.90142 0.227643 0
M  V30 2395 H 226.524 -3.43866 -1.87785 0
M  V30 2396 H 228.221 -3.68742 -1.57576 0
M  V30 2397 H 224.811 -4.27754 -0.269174 0
M  V30 2398 H 228.995 -4.94239 0.451779 0
M  V30 2399 H 224.251 -5.93853 1.45424 0
M  V30 2400 H 228.425 -6.61668 2.17183 0
M  V30 2401 H 226.052 -7.11427 2.6791 0
M  V30 2402 N 227.627 0.131896 -1.57047 0
M  V30 2403 C 228.857 0.855219 -1.88068 0
M  V30 2404 C 229.265 1.74557 -0.729817 0
M  V30 2405 O 228.608 1.81083 0.308962 0
M  V30 2406 C 228.67 1.75119 -3.13964 0
M  V30 2407 C 228.334 1.03646 -4.45091 0
M  V30 2408 C 229.331 0.383276 -5.18485 0
M  V30 2409 C 227.016 1.02148 -4.91804 0
M  V30 2410 C 229.01 -0.275347 -6.36805 0
M  V30 2411 C 226.697 0.359047 -6.10044 0
M  V30 2412 C 227.695 -0.288222 -6.82392 0
M  V30 2413 O 227.383 -0.94011 -7.98384 0
M  V30 2414 H 227.115 0.251864 -0.627328 0
M  V30 2415 H 229.669 0.124782 -2.05021 0
M  V30 2416 H 227.899 2.52295 -2.9306 0
M  V30 2417 H 229.588 2.3478 -3.31109 0
M  V30 2418 H 230.354 0.386562 -4.83457 0
M  V30 2419 H 226.233 1.5147 -4.35405 0
M  V30 2420 H 229.777 -0.781148 -6.93213 0
M  V30 2421 H 225.674 0.35348 -6.44531 0
M  V30 2422 H 226.442 -0.84329 -8.14144 0
M  V30 2423 N 229.106 1.52395 0.401703 0
M  V30 2424 C 230.038 1.72505 1.50912 0
M  V30 2425 C 231.051 0.605468 1.51122 0
M  V30 2426 O 232.24 0.880828 1.55254 0
M  V30 2427 C 229.34 1.75711 2.89791 0
M  V30 2428 C 228.513 3.04824 3.1369 0
M  V30 2429 C 227.572 2.99743 4.32482 0
M  V30 2430 O 226.598 3.73635 4.29402 0
M  V30 2431 N 227.8 2.18047 5.37992 0
M  V30 2432 H 230.565 2.68049 1.34052 0
M  V30 2433 H 228.126 1.50724 0.591084 0
M  V30 2434 H 230.118 1.69834 3.6734 0
M  V30 2435 H 228.688 0.876092 3.00072 0
M  V30 2436 H 227.908 3.2429 2.24119 0
M  V30 2437 H 229.196 3.90221 3.26504 0
M  V30 2438 H 228.594 1.57456 5.43345 0
M  V30 2439 H 227.151 2.18021 6.14256 0
M  V30 2440 N 230.584 -0.659388 1.43143 0
M  V30 2441 C 231.532 -1.79374 1.4808 0
M  V30 2442 C 232.526 -1.65639 0.354988 0
M  V30 2443 O 233.732 -1.7206 0.528704 0
M  V30 2444 H 230.107 -0.591705 0.4641 0
M  V30 2445 H 232.078 -1.72329 2.43609 0
M  V30 2446 C 230.827 -3.17606 1.41499 0
M  V30 2447 H 230.15 -3.28809 2.27431 0
M  V30 2448 H 231.59 -3.96951 1.49015 0
M  V30 2449 C 230.049 -3.36642 0.131765 0
M  V30 2450 O 230.579 -3.93461 -0.809386 0
M  V30 2451 N 228.785 -2.90567 0.0439396 0
M  V30 2452 H 228.332 -2.44513 0.810619 0
M  V30 2453 H 228.29 -3.03681 -0.813969 0
M  V30 2454 N 232.062 -1.29571 -0.897171 0
M  V30 2455 C 233.308 -1.18873 -1.65048 0
M  V30 2456 C 233.663 0.256707 -1.9068 0
M  V30 2457 O 232.956 1.18202 -1.50794 0
M  V30 2458 C 233.15 -1.9382 -3.00281 0
M  V30 2459 C 232.979 -3.45503 -2.8785 0
M  V30 2460 C 231.749 -4.14856 -2.88483 0
M  V30 2461 C 233.947 -4.40956 -2.64693 0
M  V30 2462 N 231.929 -5.52886 -2.66815 0
M  V30 2463 C 233.3 -5.66464 -2.5203 0
M  V30 2464 C 235.355 -4.3069 -2.49821 0
M  V30 2465 C 234.058 -6.82871 -2.26008 0
M  V30 2466 C 236.084 -5.46852 -2.25182 0
M  V30 2467 C 235.446 -6.71333 -2.13286 0
M  V30 2468 H 231.545 -0.489998 -0.609447 0
M  V30 2469 H 234.129 -1.63431 -1.05822 0
M  V30 2470 H 232.3 -1.51671 -3.57562 0
M  V30 2471 H 234.032 -1.75366 -3.64731 0
M  V30 2472 H 230.787 -3.66579 -2.99861 0
M  V30 2473 H 231.211 -6.25487 -2.59027 0
M  V30 2474 H 235.853 -3.35141 -2.5776 0
M  V30 2475 H 233.571 -7.78473 -2.16806 0
M  V30 2476 H 237.157 -5.40809 -2.14515 0
M  V30 2477 H 236.037 -7.59701 -1.94485 0
M  V30 2478 N 233.54 1.10788 -1.12088 0
M  V30 2479 C 234.472 2.16816 -0.743213 0
M  V30 2480 C 235.485 1.6119 0.228412 0
M  V30 2481 O 236.674 1.78497 0.0102931 0
M  V30 2482 C 233.774 3.38809 -0.0787313 0
M  V30 2483 C 232.947 4.23885 -1.0789 0
M  V30 2484 C 232.006 5.24334 -0.442713 0
M  V30 2485 O 231.032 5.58497 -1.09864 0
M  V30 2486 N 232.234 5.75079 0.791457 0
M  V30 2487 H 234.999 2.49825 -1.65552 0
M  V30 2488 H 232.56 1.26373 -1.012 0
M  V30 2489 H 234.552 4.03107 0.358766 0
M  V30 2490 H 233.122 3.03805 0.736275 0
M  V30 2491 H 232.342 3.55939 -1.69414 0
M  V30 2492 H 233.63 4.77562 -1.75533 0
M  V30 2493 H 233.028 5.49517 1.3434 0
M  V30 2494 H 231.585 6.4118 1.17183 0
M  V30 2495 N 235.018 0.912232 1.28515 0
M  V30 2496 C 236.429 0.591352 1.77087 0
M  V30 2497 C 236.78 -0.8933 1.74684 0
M  V30 2498 O 235.905 -1.69876 1.34056 0
M  V30 2499 C 236.5 1.06668 3.2157 0
M  V30 2500 C 235.059 0.79675 3.67871 0
M  V30 2501 C 234.206 1.23427 2.48316 0
M  V30 2502 H 237.157 1.09365 1.15 0
M  V30 2503 H 237.178 0.407455 3.78312 0
M  V30 2504 H 236.69 2.14726 3.23287 0
M  V30 2505 H 234.791 -0.270679 3.71616 0
M  V30 2506 H 234.904 1.40343 4.58084 0
M  V30 2507 H 233.268 0.653036 2.46186 0
M  V30 2508 H 234.051 2.32316 2.52753 0
M  V30 2509 N 236.496 -1.42363 0.676048 0
M  V30 2510 C 237.428 -2.29164 -0.0404605 0
M  V30 2511 C 238.441 -1.43747 -0.764245 0
M  V30 2512 O 239.63 -1.67453 -0.618195 0
M  V30 2513 C 236.73 -3.21196 -1.08103 0
M  V30 2514 C 235.903 -4.35273 -0.430812 0
M  V30 2515 C 234.962 -5.08017 -1.37133 0
M  V30 2516 O 233.988 -5.62494 -0.87116 0
M  V30 2517 N 235.19 -5.13647 -2.70456 0
M  V30 2518 H 237.955 -2.91298 0.704667 0
M  V30 2519 H 235.516 -1.53303 0.520559 0
M  V30 2520 H 237.508 -3.66728 -1.71152 0
M  V30 2521 H 236.078 -2.60505 -1.72788 0
M  V30 2522 H 235.298 -3.92372 0.379209 0
M  V30 2523 H 236.586 -5.08795 0.0221132 0
M  V30 2524 H 235.984 -4.708 -3.1363 0
M  V30 2525 H 234.541 -5.62821 -3.28749 0
M  V30 2526 N 237.974 -0.419461 -1.51915 0
M  V30 2527 C 239.22 0.145505 -2.02879 0
M  V30 2528 C 239.575 1.41926 -1.29903 0
M  V30 2529 O 238.868 1.87383 -0.399782 0
M  V30 2530 C 239.062 0.437067 -3.54717 0
M  V30 2531 C 238.891 -0.806877 -4.42402 0
M  V30 2532 C 237.661 -1.33514 -4.87342 0
M  V30 2533 C 239.859 -1.68796 -4.85811 0
M  V30 2534 N 237.841 -2.53349 -5.59185 0
M  V30 2535 C 239.212 -2.73247 -5.56539 0
M  V30 2536 C 241.267 -1.70449 -4.67816 0
M  V30 2537 C 239.97 -3.79276 -6.11181 0
M  V30 2538 C 241.996 -2.75403 -5.23361 0
M  V30 2539 C 241.358 -3.78575 -5.9402 0
M  V30 2540 H 237.457 0.0145424 -0.781865 0
M  V30 2541 H 240.041 -0.576126 -1.85981 0
M  V30 2542 H 238.212 1.12774 -3.71667 0
M  V30 2543 H 239.944 0.99182 -3.92358 0
M  V30 2544 H 236.699 -0.891657 -4.65131 0
M  V30 2545 H 237.123 -3.14066 -5.99743 0
M  V30 2546 H 241.765 -0.920209 -4.12664 0
M  V30 2547 H 239.483 -4.58554 -6.65397 0
M  V30 2548 H 243.069 -2.77603 -5.113 0
M  V30 2549 H 241.949 -4.58453 -6.36231 0
M  V30 2550 N 239.452 1.56882 -0.150215 0
M  V30 2551 C 240.68 2.00593 0.506948 0
M  V30 2552 C 241.095 1.03033 1.58208 0
M  V30 2553 O 240.452 0.0278396 1.82479 0
M  V30 2554 C 240.503 3.44209 1.10465 0
M  V30 2555 O 240.224 4.3804 0.0724636 0
M  V30 2556 C 241.725 4.03214 1.84211 0
M  V30 2557 H 238.945 0.65795 0.13169 0
M  V30 2558 H 241.489 2.03018 -0.245743 0
M  V30 2559 H 239.644 3.42625 1.80795 0
M  V30 2560 H 240.058 5.22007 0.510793 0
M  V30 2561 H 241.532 5.0569 2.21318 0
M  V30 2562 H 242.009 3.44107 2.72923 0
M  V30 2563 H 242.615 4.08437 1.18572 0
M  V30 2564 N 240.93 -0.123565 1.57115 0
M  V30 2565 C 242.341 -0.681198 1.73829 0
M  V30 2566 C 242.692 -1.80535 0.768214 0
M  V30 2567 O 241.817 -2.16317 -0.0599103 0
M  V30 2568 C 242.412 -1.24246 3.15196 0
M  V30 2569 C 240.971 -1.74643 3.33432 0
M  V30 2570 C 240.118 -0.644284 2.69711 0
M  V30 2571 H 243.069 0.102315 1.5837 0
M  V30 2572 H 243.09 -2.11216 3.16493 0
M  V30 2573 H 242.602 -0.424062 3.85776 0
M  V30 2574 H 240.703 -2.58974 2.67886 0
M  V30 2575 H 240.816 -1.85902 4.41562 0
M  V30 2576 H 239.18 -1.07676 2.3082 0
M  V30 2577 H 239.963 0.163058 3.42913 0
M  V30 2578 N 242.408 -1.52605 -0.393616 0
M  V30 2579 C 243.656 -1.67093 -1.13685 0
M  V30 2580 C 243.977 -0.411011 -1.90619 0
M  V30 2581 O 243.247 0.574491 -1.87287 0
M  V30 2582 H 241.827 -0.615923 -0.422668 0
M  V30 2583 H 244.489 -1.89704 -0.447039 0
M  V30 2584 H 243.585 -2.51922 -1.84232 0
M  V30 2585 N 243.887 0.651787 -1.4349 0
M  V30 2586 C 244.85 1.74647 -1.48429 0
M  V30 2587 C 245.85 1.56513 -0.368817 0
M  V30 2588 O 247.04 1.62385 -0.630623 0
M  V30 2589 C 244.172 3.13533 -1.33827 0
M  V30 2590 H 245.365 1.71649 -2.4592 0
M  V30 2591 H 242.918 0.863573 -1.30277 0
M  V30 2592 H 243.653 3.22142 -0.37349 0
M  V30 2593 H 243.438 3.28101 -2.14691 0
M  V30 2594 H 244.928 3.93356 -1.40218 0
M  V30 2595 N 245.365 1.30045 0.890287 0
M  V30 2596 C 246.312 1.15976 1.99545 0
M  V30 2597 C 247.282 0.0506202 1.66023 0
M  V30 2598 O 248.467 0.219847 1.89529 0
M  V30 2599 C 245.607 0.852054 3.34416 0
M  V30 2600 C 244.72 2.04255 3.80662 0
M  V30 2601 C 243.855 1.6734 5.04154 0
M  V30 2602 C 242.894 2.82916 5.42794 0
M  V30 2603 N 242.031 2.46333 6.57468 0
M  V30 2604 H 246.871 2.10524 2.10911 0
M  V30 2605 H 244.408 1.04749 1.03276 0
M  V30 2606 H 246.366 0.654296 4.12037 0
M  V30 2607 H 244.996 -0.0565502 3.2275 0
M  V30 2608 H 244.048 2.35172 2.98995 0
M  V30 2609 H 245.36 2.90826 4.05242 0
M  V30 2610 H 244.514 1.43908 5.89386 0
M  V30 2611 H 243.253 0.779308 4.81433 0
M  V30 2612 H 242.258 3.0702 4.56091 0
M  V30 2613 H 243.483 3.73004 5.6749 0
M  V30 2614 H 241.429 1.59423 6.36334 0
M  V30 2615 H 241.346 3.26436 6.81891 0
M  V30 2616 H 242.614 2.26244 7.45945 0
M  V30 2617 N 246.843 -1.10192 1.12674 0
M  V30 2618 C 248.259 -1.34235 0.863317 0
M  V30 2619 C 248.459 -1.95062 -0.505277 0
M  V30 2620 O 247.515 -2.19192 -1.25345 0
M  V30 2621 C 248.828 -2.2616 1.98172 0
M  V30 2622 C 250.376 -2.3969 2.0129 0
M  V30 2623 C 250.851 -3.34946 3.1237 0
M  V30 2624 N 252.342 -3.42515 3.11829 0
M  V30 2625 C 253.077 -4.16199 3.94419 0
M  V30 2626 N 252.573 -4.92747 4.87004 0
M  V30 2627 N 254.366 -4.11843 3.82547 0
M  V30 2628 H 246.517 -0.690798 2.00853 0
M  V30 2629 H 248.78 -0.366774 0.874174 0
M  V30 2630 H 248.486 -1.8868 2.96804 0
M  V30 2631 H 248.36 -3.26488 1.88906 0
M  V30 2632 H 250.747 -2.76438 1.03276 0
M  V30 2633 H 250.828 -1.39169 2.14629 0
M  V30 2634 H 250.472 -2.98923 4.10619 0
M  V30 2635 H 250.402 -4.35353 2.96269 0
M  V30 2636 H 252.893 -2.87926 2.44759 0
M  V30 2637 H 253.206 -5.46376 5.46528 0
M  V30 2638 H 251.551 -4.91862 4.91016 0
M  V30 2639 H 254.742 -3.51136 3.0955 0
M  V30 2640 H 254.915 -4.69007 4.47142 0
M  V30 2641 N 248.321 -0.919034 -1.28029 0
M  V30 2642 C 249.251 -0.428581 -2.29533 0
M  V30 2643 C 250.232 0.50659 -1.62381 0
M  V30 2644 O 251.417 0.413195 -1.89753 0
M  V30 2645 C 248.547 0.327388 -3.45753 0
M  V30 2646 C 247.501 -0.519137 -4.2484 0
M  V30 2647 C 246.827 0.365486 -5.33449 0
M  V30 2648 C 248.127 -1.77914 -4.91064 0
M  V30 2649 H 249.821 -1.27687 -2.70807 0
M  V30 2650 H 247.367 -0.615428 -1.30186 0
M  V30 2651 H 249.32 0.681378 -4.15855 0
M  V30 2652 H 248.044 1.20963 -3.03374 0
M  V30 2653 H 246.703 -0.855717 -3.56473 0
M  V30 2654 H 246.351 1.24642 -4.87312 0
M  V30 2655 H 246.051 -0.197356 -5.87268 0
M  V30 2656 H 247.575 0.715241 -6.06396 0
M  V30 2657 H 248.989 -1.49374 -5.53498 0
M  V30 2658 H 247.386 -2.2848 -5.54903 0
M  V30 2659 H 248.456 -2.50382 -4.15255 0
M  V30 2660 N 249.799 1.42003 -0.683588 0
M  V30 2661 C 251.029 2.05448 -0.217866 0
M  V30 2662 C 251.437 1.51491 1.13346 0
M  V30 2663 O 250.78 0.653048 1.717 0
M  V30 2664 C 250.842 3.59399 -0.0850118 0
M  V30 2665 C 250.506 4.36093 -1.36645 0
M  V30 2666 C 251.503 4.66169 -2.30179 0
M  V30 2667 C 249.188 4.75578 -1.61649 0
M  V30 2668 C 251.182 5.34676 -3.46988 0
M  V30 2669 C 248.869 5.43824 -2.78745 0
M  V30 2670 C 249.867 5.73299 -3.71238 0
M  V30 2671 O 249.555 6.40142 -4.86285 0
M  V30 2672 H 249.287 0.668344 -0.101454 0
M  V30 2673 H 251.841 1.82974 -0.933248 0
M  V30 2674 H 250.071 3.80566 0.686031 0
M  V30 2675 H 251.76 4.04457 0.341973 0
M  V30 2676 H 252.526 4.36156 -2.12115 0
M  V30 2677 H 248.405 4.52025 -0.905243 0
M  V30 2678 H 251.949 5.57599 -4.19201 0
M  V30 2679 H 247.846 5.73254 -2.96732 0
M  V30 2680 H 248.614 6.58636 -4.85944 0
M  V30 2681 N 251.277 0.427512 1.51691 0
M  V30 2682 C 252.24 -0.377132 2.26076 0
M  V30 2683 C 253.24 -0.958089 1.29141 0
M  V30 2684 O 254.43 -0.83408 1.52934 0
M  V30 2685 C 251.562 -1.53262 3.04506 0
M  V30 2686 H 252.755 0.27464 2.9864 0
M  V30 2687 H 250.308 0.180445 1.55255 0
M  V30 2688 H 251.043 -2.22072 2.36335 0
M  V30 2689 H 250.828 -1.12232 3.75694 0
M  V30 2690 H 252.318 -2.10135 3.60878 0
M  V30 2691 N 252.755 -1.56801 0.158532 0
M  V30 2692 C 253.703 -2.18638 -0.793729 0
M  V30 2693 C 254.697 -1.14669 -1.24689 0
M  V30 2694 O 255.903 -1.32895 -1.21403 0
M  V30 2695 H 252.278 -0.700226 -0.274204 0
M  V30 2696 H 254.249 -2.97367 -0.248095 0
M  V30 2697 C 252.998 -2.83139 -2.0181 0
M  V30 2698 H 252.321 -3.62863 -1.67841 0
M  V30 2699 H 253.761 -3.29894 -2.66357 0
M  V30 2700 C 252.22 -1.82244 -2.83353 0
M  V30 2701 O 252.75 -1.3 -3.80083 0
M  V30 2702 N 250.956 -1.51288 -2.48114 0
M  V30 2703 H 250.503 -1.93964 -1.69516 0
M  V30 2704 H 250.461 -0.840296 -3.02963 0
M  V30 2705 N 254.233 0.115231 -1.57178 0
M  V30 2706 C 255.458 0.840354 -1.89612 0
M  V30 2707 C 255.883 1.72464 -0.750845 0
M  V30 2708 O 255.241 1.78826 0.298478 0
M  V30 2709 C 255.289 1.64654 -3.20814 0
M  V30 2710 O 254.393 2.7538 -3.06985 0
M  V30 2711 H 253.734 0.232158 -0.622092 0
M  V30 2712 H 256.264 0.0964977 -2.04372 0
M  V30 2713 H 256.274 2.03499 -3.53627 0
M  V30 2714 H 254.949 0.997416 -4.03763 0
M  V30 2715 H 253.526 2.3971 -2.85646 0
M  V30 2716 N 255.711 1.52812 0.385517 0
M  V30 2717 C 256.936 1.72207 1.15583 0
M  V30 2718 C 257.361 0.441034 1.82857 0
M  V30 2719 O 256.719 -0.603465 1.70962 0
M  V30 2720 C 256.767 2.87476 2.17692 0
M  V30 2721 O 255.871 2.54693 3.24354 0
M  V30 2722 H 255.212 0.572526 0.336319 0
M  V30 2723 H 257.742 1.99618 0.448744 0
M  V30 2724 H 257.752 3.13072 2.6163 0
M  V30 2725 H 256.427 3.80408 1.68115 0
M  V30 2726 H 255.004 2.3985 2.85529 0
M  V30 2727 N 257.189 -0.644168 1.43834 0
M  V30 2728 C 258.438 -1.39985 1.45214 0
M  V30 2729 C 258.751 -1.95421 0.0835494 0
M  V30 2730 O 259.957 -2.71488 -0.0251748 0
M  V30 2731 C 258.413 -2.53384 2.55587 0
M  V30 2732 C 258.021 -2.04517 3.98594 0
M  V30 2733 C 259.765 -3.30685 2.66172 0
M  V30 2734 C 257.672 -3.1518 5.00416 0
M  V30 2735 H 256.602 -0.526005 0.540218 0
M  V30 2736 H 259.253 -0.694367 1.69855 0
M  V30 2737 H 257.635 -3.26446 2.24163 0
M  V30 2738 H 258.809 -1.38405 4.39523 0
M  V30 2739 H 257.124 -1.40068 3.92135 0
M  V30 2740 H 259.721 -4.13158 3.39418 0
M  V30 2741 H 260.064 -3.79312 1.71546 0
M  V30 2742 H 260.597 -2.64708 2.96942 0
M  V30 2743 H 257.336 -2.71511 5.96625 0
M  V30 2744 H 256.856 -3.79974 4.64091 0
M  V30 2745 H 258.535 -3.80166 5.23529 0
M  V30 2746 N 258.668 -1.30515 -0.883378 0
M  V30 2747 C 259.916 -1.19194 -1.63209 0
M  V30 2748 C 260.237 0.253205 -1.93349 0
M  V30 2749 O 259.507 1.17025 -1.57105 0
M  V30 2750 H 258.087 -0.438148 -0.605009 0
M  V30 2751 H 260.749 -1.63663 -1.05832 0
M  V30 2752 H 259.845 -1.75396 -2.58153 0
M  V30 2753 N 260.146 1.09593 -1.13257 0
M  V30 2754 C 261.076 2.18214 -0.830946 0
M  V30 2755 C 262.057 1.68812 0.208966 0
M  V30 2756 O 263.242 1.9408 0.0682666 0
M  V30 2757 C 260.372 3.46051 -0.294296 0
M  V30 2758 C 259.326 4.08778 -1.26826 0
M  V30 2759 C 258.652 5.31419 -0.591449 0
M  V30 2760 C 259.952 4.51476 -2.62615 0
M  V30 2761 H 261.646 2.43703 -1.73923 0
M  V30 2762 H 259.192 1.17128 -0.837675 0
M  V30 2763 H 261.145 4.2134 -0.0709606 0
M  V30 2764 H 259.869 3.20079 0.649366 0
M  V30 2765 H 258.528 3.35505 -1.47756 0
M  V30 2766 H 258.176 5.01727 0.357633 0
M  V30 2767 H 257.876 5.74341 -1.24123 0
M  V30 2768 H 259.4 6.09433 -0.377355 0
M  V30 2769 H 260.814 5.17999 -2.45663 0
M  V30 2770 H 259.211 5.05277 -3.23752 0
M  V30 2771 H 260.281 3.63962 -3.20406 0
M  V30 2772 N 261.624 0.925811 1.2754 0
M  V30 2773 C 262.871 0.565255 1.94451 0
M  V30 2774 C 263.199 -0.89316 1.7278 0
M  V30 2775 O 262.454 -1.65213 1.04895 0
M  V30 2776 C 262.753 0.835296 3.47502 0
M  V30 2777 C 262.419 2.27515 3.89291 0
M  V30 2778 C 261.081 2.66879 4.00411 0
M  V30 2779 C 263.433 3.21158 4.10496 0
M  V30 2780 C 260.761 3.99014 4.30122 0
M  V30 2781 C 263.113 4.52871 4.4169 0
M  V30 2782 C 261.777 4.92072 4.51023 0
M  V30 2783 H 261.047 0.206841 0.711546 0
M  V30 2784 H 263.694 1.16942 1.51647 0
M  V30 2785 H 261.999 0.148442 3.91519 0
M  V30 2786 H 263.696 0.535322 3.97411 0
M  V30 2787 H 260.286 1.95976 3.81171 0
M  V30 2788 H 264.47 2.9195 4.01346 0
M  V30 2789 H 259.726 4.2907 4.35556 0
M  V30 2790 H 263.9 5.25436 4.57045 0
M  V30 2791 H 261.527 5.9449 4.738 0
M  V30 2792 N 263.102 -1.41638 0.69111 0
M  V30 2793 C 264.35 -2.00902 0.219758 0
M  V30 2794 C 264.671 -1.54994 -1.18329 0
M  V30 2795 O 263.941 -0.778628 -1.79762 0
M  V30 2796 H 262.521 -0.74289 0.0782558 0
M  V30 2797 H 265.183 -1.73327 0.891271 0
M  V30 2798 H 264.279 -3.11224 0.233708 0
M  V30 2799 N 264.58 -0.43555 -1.51462 0
M  V30 2800 C 265.543 0.365137 -2.26273 0
M  V30 2801 C 266.543 0.951227 -1.29647 0
M  V30 2802 O 267.733 0.825958 -1.53374 0
M  V30 2803 C 264.865 1.51645 -3.05314 0
M  V30 2804 H 266.058 -0.290474 -2.9849 0
M  V30 2805 H 263.611 -0.188676 -1.55157 0
M  V30 2806 H 264.346 2.20816 -2.3751 0
M  V30 2807 H 264.131 1.10238 -3.76284 0
M  V30 2808 H 265.621 2.08218 -3.61987 0
M  V30 2809 N 266.058 1.56714 -0.166846 0
M  V30 2810 C 266.988 2.20754 0.760913 0
M  V30 2811 C 267.969 1.16178 1.24244 0
M  V30 2812 O 269.154 1.44592 1.29641 0
M  V30 2813 C 266.284 2.84478 1.99223 0
M  V30 2814 C 265.238 3.95053 1.64672 0
M  V30 2815 C 264.564 4.45805 2.95232 0
M  V30 2816 C 265.864 5.14865 0.878155 0
M  V30 2817 H 267.558 2.98537 0.22713 0
M  V30 2818 H 265.104 1.43596 0.107805 0
M  V30 2819 H 267.057 3.27951 2.64624 0
M  V30 2820 H 265.781 2.04056 2.55007 0
M  V30 2821 H 264.44 3.52228 1.01641 0
M  V30 2822 H 264.088 3.62181 3.49047 0
M  V30 2823 H 263.788 5.204 2.7287 0
M  V30 2824 H 265.312 4.91962 3.6167 0
M  V30 2825 H 266.726 5.55059 1.43466 0
M  V30 2826 H 265.123 5.95348 0.753738 0
M  V30 2827 H 266.193 4.84735 -0.126377 0
M  V30 2828 N 267.536 -0.106894 1.57237 0
M  V30 2829 C 268.499 -1.11466 2.0027 0
M  V30 2830 C 269.499 -1.33623 0.894519 0
M  V30 2831 O 270.689 -1.29935 1.16028 0
M  V30 2832 C 267.821 -2.46646 2.35327 0
M  V30 2833 H 269.014 -0.744516 2.90512 0
M  V30 2834 H 266.567 -0.351576 1.52295 0
M  V30 2835 H 267.302 -2.88558 1.48003 0
M  V30 2836 H 267.087 -2.31915 3.16161 0
M  V30 2837 H 268.577 -3.19151 2.69318 0
M  V30 2838 N 269.014 -1.53014 -0.377408 0
M  V30 2839 C 270.26 -1.68872 -1.12294 0
M  V30 2840 C 270.593 -0.433224 -1.89306 0
M  V30 2841 O 269.868 0.569258 -1.85983 0
M  V30 2842 C 270.151 -2.93115 -2.09179 0
M  V30 2843 C 270.004 -4.28794 -1.35853 0
M  V30 2844 C 271.323 -3.12928 -3.09458 0
M  V30 2845 H 268.442 -0.614518 -0.406862 0
M  V30 2846 H 271.084 -1.85633 -0.40503 0
M  V30 2847 H 269.234 -2.78956 -2.70399 0
M  V30 2848 H 270.906 -4.54742 -0.775082 0
M  V30 2849 H 269.149 -4.28744 -0.660364 0
M  V30 2850 H 269.82 -5.11837 -2.06706 0
M  V30 2851 H 272.296 -3.26194 -2.58334 0
M  V30 2852 H 271.172 -4.01316 -3.74482 0
M  V30 2853 H 271.433 -2.27669 -3.78971 0
M  V30 2854 N 270.492 0.636531 -1.44174 0
M  V30 2855 C 271.439 1.74875 -1.50624 0
M  V30 2856 C 272.409 1.62275 -0.35442 0
M  V30 2857 O 273.594 1.82276 -0.563908 0
M  V30 2858 C 270.734 3.13102 -1.45125 0
M  V30 2859 C 269.847 3.36717 -2.7064 0
M  V30 2860 C 268.982 4.64885 -2.57013 0
M  V30 2861 C 268.021 4.8166 -3.77717 0
M  V30 2862 N 267.158 6.01101 -3.62798 0
M  V30 2863 H 271.998 1.68697 -2.45653 0
M  V30 2864 H 269.535 0.823004 -1.21922 0
M  V30 2865 H 271.493 3.93034 -1.39929 0
M  V30 2866 H 270.123 3.18308 -0.536671 0
M  V30 2867 H 269.175 2.50763 -2.86046 0
M  V30 2868 H 270.487 3.44993 -3.60252 0
M  V30 2869 H 269.641 5.52969 -2.49619 0
M  V30 2870 H 268.38 4.58957 -1.64953 0
M  V30 2871 H 267.385 3.92007 -3.85501 0
M  V30 2872 H 268.61 4.89406 -4.70807 0
M  V30 2873 H 266.556 5.96273 -2.73486 0
M  V30 2874 H 266.473 6.10409 -4.46023 0
M  V30 2875 H 267.741 6.91761 -3.59286 0
M  V30 2876 N 271.97 1.30982 0.876444 0
M  V30 2877 C 273.195 1.23373 1.66715 0
M  V30 2878 C 273.62 -0.19885 1.87046 0
M  V30 2879 O 272.978 -1.1427 1.40756 0
M  V30 2880 C 273.026 1.97644 3.01611 0
M  V30 2881 O 272.13 1.30935 3.91062 0
M  V30 2882 H 271.471 0.426279 0.509099 0
M  V30 2883 H 274.001 1.72944 1.09323 0
M  V30 2884 H 274.011 2.06992 3.51594 0
M  V30 2885 H 272.686 3.01829 2.86133 0
M  V30 2886 H 271.263 1.29996 3.49507 0
M  V30 2887 N 273.449 -1.08991 1.13837 0
M  V30 2888 C 274.674 -1.85551 0.926585 0
M  V30 2889 C 275.099 -1.80782 -0.519566 0
M  V30 2890 O 274.457 -1.18855 -1.36906 0
M  V30 2891 C 274.505 -3.31266 1.42462 0
M  V30 2892 O 273.609 -4.07822 0.612789 0
M  V30 2893 H 272.95 -0.575192 0.331738 0
M  V30 2894 H 275.48 -1.37604 1.51414 0
M  V30 2895 H 275.49 -3.82112 1.43019 0
M  V30 2896 H 274.165 -3.34052 2.47754 0
M  V30 2897 H 272.742 -3.66731 0.675463 0
M  V30 2898 N 274.927 -0.932562 -1.27047 0
M  V30 2899 C 276.175 -0.574422 -1.93765 0
M  V30 2900 C 276.496 0.887993 -1.73608 0
M  V30 2901 O 275.766 1.62999 -1.08665 0
M  V30 2902 H 274.346 -0.209451 -0.717035 0
M  V30 2903 H 277.008 -1.18601 -1.5466 0
M  V30 2904 H 276.104 -0.784841 -3.02071 0
M  V30 2905 N 276.405 1.4127 -0.698611 0
M  V30 2906 C 277.338 2.28195 0.0153898 0
M  V30 2907 C 278.316 1.42402 0.784883 0
M  V30 2908 O 279.5 1.71828 0.775067 0
M  V30 2909 C 276.627 3.22685 1.02918 0
M  V30 2910 C 275.673 4.25041 0.352501 0
M  V30 2911 S 276.506 5.27757 -0.907322 0
M  V30 2912 C 277.662 6.25812 0.104796 0
M  V30 2913 H 277.895 2.88403 -0.721858 0
M  V30 2914 H 275.428 1.46452 -0.488996 0
M  V30 2915 H 277.386 3.77655 1.60893 0
M  V30 2916 H 276.047 2.61566 1.73902 0
M  V30 2917 H 275.24 4.91437 1.11828 0
M  V30 2918 H 274.842 3.73682 -0.154254 0
M  V30 2919 H 277.134 6.70705 0.957103 0
M  V30 2920 H 278.077 7.06149 -0.525323 0
M  V30 2921 H 278.485 5.62615 0.460931 0
M  V30 2922 N 277.883 0.443576 1.51229 0
M  V30 2923 C 279.108 -0.121648 2.07043 0
M  V30 2924 C 279.533 -1.35156 1.30823 0
M  V30 2925 O 278.891 -1.7793 0.347934 0
M  V30 2926 C 278.939 -0.41624 3.5819 0
M  V30 2927 O 278.043 -1.50163 3.8409 0
M  V30 2928 H 277.384 0.000871367 0.663999 0
M  V30 2929 H 279.914 0.626706 1.94765 0
M  V30 2930 H 279.924 -0.664867 4.02546 0
M  V30 2931 H 278.599 0.482653 4.1309 0
M  V30 2932 H 277.176 -1.24248 3.51592 0
M  V30 2933 N 279.361 -1.56624 0.175154 0
M  V30 2934 C 280.591 -2.01082 -0.474283 0
M  V30 2935 C 280.999 -1.05447 -1.57091 0
M  V30 2936 O 280.342 -0.0480595 -1.83637 0
M  V30 2937 C 280.404 -3.41963 -1.10911 0
M  V30 2938 C 280.068 -4.56742 -0.153666 0
M  V30 2939 C 281.065 -5.16076 0.629448 0
M  V30 2940 C 278.75 -5.02277 -0.0483776 0
M  V30 2941 C 280.744 -6.19377 1.50501 0
M  V30 2942 C 278.431 -6.05427 0.830768 0
M  V30 2943 C 279.429 -6.63849 1.60605 0
M  V30 2944 O 279.117 -7.64998 2.47049 0
M  V30 2945 H 278.849 -0.664261 -0.125432 0
M  V30 2946 H 281.403 -2.03549 0.275163 0
M  V30 2947 H 279.633 -3.36422 -1.90676 0
M  V30 2948 H 281.322 -3.70352 -1.66114 0
M  V30 2949 H 282.088 -4.81776 0.558297 0
M  V30 2950 H 277.967 -4.56513 -0.641611 0
M  V30 2951 H 281.511 -6.64906 2.1106 0
M  V30 2952 H 277.408 -6.39151 0.903107 0
M  V30 2953 H 278.176 -7.82336 2.40607 0
M  V30 2954 N 280.839 0.0985539 -1.57292 0
M  V30 2955 C 281.749 1.13824 -2.05137 0
M  V30 2956 C 282.765 1.44076 -0.975604 0
M  V30 2957 O 283.941 1.54786 -1.28853 0
M  V30 2958 C 281.006 2.43969 -2.46333 0
M  V30 2959 C 280.067 2.2093 -3.68087 0
M  V30 2960 C 279.3 3.44869 -4.0731 0
M  V30 2961 O 279.523 4.52972 -3.46659 0
M  V30 2962 O 278.457 3.34661 -5.00285 0
M  V30 2963 H 282.283 0.761881 -2.93988 0
M  V30 2964 H 279.868 0.310818 -1.46131 0
M  V30 2965 H 281.75 3.20609 -2.73473 0
M  V30 2966 H 280.425 2.81038 -1.60621 0
M  V30 2967 H 279.332 1.42081 -3.46069 0
M  V30 2968 H 280.665 1.88755 -4.54568 0
M  V30 2969 N 282.317 1.53212 0.369288 0
M  V30 2970 C 283.227 1.82342 1.47609 0
M  V30 2971 C 284.243 0.711532 1.58787 0
M  V30 2972 O 285.419 1.0012 1.74751 0
M  V30 2973 C 282.484 2.00393 2.8292 0
M  V30 2974 C 281.545 3.24297 2.81301 0
M  V30 2975 C 280.778 3.41478 4.10157 0
M  V30 2976 O 281.001 2.63033 5.06132 0
M  V30 2977 O 279.935 4.34817 4.16194 0
M  V30 2978 H 283.761 2.76366 1.25918 0
M  V30 2979 H 281.346 1.38547 0.559034 0
M  V30 2980 H 283.228 2.13859 3.63101 0
M  V30 2981 H 281.903 1.09559 3.04596 0
M  V30 2982 H 280.81 3.16257 1.99831 0
M  V30 2983 H 282.143 4.15041 2.64578 0
M  V30 2984 N 283.795 -0.628877 1.44509 0
M  V30 2985 C 284.758 -1.72263 1.51188 0
M  V30 2986 C 285.758 -1.55907 0.39367 0
M  V30 2987 O 286.948 -1.61361 0.656377 0
M  V30 2988 C 284.08 -3.11365 1.38798 0
M  V30 2989 H 285.273 -1.67714 2.4862 0
M  V30 2990 H 282.826 -0.842737 1.31634 0
M  V30 2991 H 283.561 -3.21507 0.424693 0
M  V30 2992 H 283.346 -3.24644 2.19884 0
M  V30 2993 H 284.836 -3.91075 1.46458 0
M  V30 2994 N 285.273 -1.31445 -0.869486 0
M  V30 2995 C 286.206 -1.13465 -1.97992 0
M  V30 2996 C 287.184 -0.0380291 -1.62556 0
M  V30 2997 O 288.368 -0.194544 -1.87493 0
M  V30 2998 C 285.495 -0.733822 -3.30655 0
M  V30 2999 C 284.541 -1.83356 -3.85075 0
M  V30 3000 S 285.374 -3.43909 -4.10472 0
M  V30 3001 C 286.53 -3.05763 -5.46132 0
M  V30 3002 H 286.763 -2.07471 -2.1294 0
M  V30 3003 H 284.296 -1.15936 -1.01972 0
M  V30 3004 H 286.254 -0.509306 -4.07328 0
M  V30 3005 H 284.915 0.187123 -3.13542 0
M  V30 3006 H 284.108 -1.50574 -4.80982 0
M  V30 3007 H 283.71 -2.01315 -3.15195 0
M  V30 3008 H 286.002 -2.54686 -6.27807 0
M  V30 3009 H 286.945 -4.00635 -5.83864 0
M  V30 3010 H 287.353 -2.43192 -5.09429 0
M  V30 3011 N 286.751 1.08385 -1.14413 0
M  V30 3012 C 287.979 1.84517 -0.936001 0
M  V30 3013 C 288.394 1.81626 0.515503 0
M  V30 3014 O 287.751 1.22008 1.35721 0
M  V30 3015 C 287.802 3.32049 -1.42918 0
M  V30 3016 O 287.523 3.34951 -2.82381 0
M  V30 3017 C 289.024 4.24986 -1.26103 0
M  V30 3018 H 286.244 0.582491 -0.333084 0
M  V30 3019 H 288.788 1.36885 -1.5193 0
M  V30 3020 H 286.943 3.7707 -0.888641 0
M  V30 3021 H 287.357 4.27048 -3.04517 0
M  V30 3022 H 288.831 5.26615 -1.6547 0
M  V30 3023 H 289.308 4.38726 -0.20392 0
M  V30 3024 H 289.914 3.85791 -1.79012 0
M  V30 3025 N 288.23 0.939286 1.26551 0
M  V30 3026 C 289.646 0.641304 1.46149 0
M  V30 3027 C 289.846 -0.805964 1.84679 0
M  V30 3028 O 288.902 -1.58278 1.96734 0
M  V30 3029 C 290.215 1.6011 2.54529 0
M  V30 3030 C 291.763 1.6106 2.68382 0
M  V30 3031 C 292.238 2.55765 3.79932 0
M  V30 3032 N 293.729 2.5404 3.87322 0
M  V30 3033 C 294.464 3.24004 4.73085 0
M  V30 3034 N 293.96 4.03388 5.63249 0
M  V30 3035 N 295.753 3.12965 4.66914 0
M  V30 3036 H 287.904 1.87478 0.998285 0
M  V30 3037 H 290.167 0.805559 0.499779 0
M  V30 3038 H 289.873 2.63412 2.33039 0
M  V30 3039 H 289.747 1.35171 3.52149 0
M  V30 3040 H 292.134 0.584835 2.89247 0
M  V30 3041 H 292.215 1.90053 1.71212 0
M  V30 3042 H 291.859 3.58458 3.5982 0
M  V30 3043 H 291.789 2.24063 4.76554 0
M  V30 3044 H 294.28 1.96396 3.22858 0
M  V30 3045 H 294.593 4.5373 6.25579 0
M  V30 3046 H 292.938 4.07489 5.63008 0
M  V30 3047 H 296.129 2.50432 3.95476 0
M  V30 3048 H 296.302 3.67759 5.33533 0
M  V30 3049 N 289.708 -1.40897 0.706093 0
M  V30 3050 C 291.124 -1.55042 0.37869 0
M  V30 3051 C 291.324 -1.67944 -1.11342 0
M  V30 3052 O 290.38 -1.66372 -1.89938 0
M  V30 3053 C 291.693 -2.78398 1.13643 0
M  V30 3054 C 293.241 -2.92206 1.12181 0
M  V30 3055 C 293.716 -4.18463 1.86152 0
M  V30 3056 N 295.207 -4.25443 1.83173 0
M  V30 3057 C 295.942 -5.2202 2.37239 0
M  V30 3058 N 295.438 -6.24563 2.99821 0
M  V30 3059 N 297.231 -5.14033 2.27435 0
M  V30 3060 H 289.382 -1.30769 1.67372 0
M  V30 3061 H 291.645 -0.631653 0.706907 0
M  V30 3062 H 291.351 -2.7511 2.19106 0
M  V30 3063 H 291.225 -3.70228 0.721853 0
M  V30 3064 H 293.612 -2.95004 0.0754171 0
M  V30 3065 H 293.693 -2.01521 1.57554 0
M  V30 3066 H 293.337 -4.16427 2.90776 0
M  V30 3067 H 293.267 -5.08141 1.38206 0
M  V30 3068 H 295.758 -3.51976 1.37556 0
M  V30 3069 H 296.071 -6.94665 3.38616 0
M  V30 3070 H 294.416 -6.25035 3.03902 0
M  V30 3071 H 297.607 -4.3285 1.78208 0
M  V30 3072 H 297.78 -5.89129 2.69873 0
M  V30 3073 N 291.186 -0.45159 -1.50991 0
M  V30 3074 C 292.432 0.110237 -2.025 0
M  V30 3075 C 292.765 1.41109 -1.33424 0
M  V30 3076 O 292.04 1.89135 -0.453659 0
M  V30 3077 C 292.323 0.314271 -3.58726 0
M  V30 3078 C 292.176 -1.00623 -4.38401 0
M  V30 3079 C 293.495 1.07767 -4.26702 0
M  V30 3080 H 290.614 0.0385897 -0.735989 0
M  V30 3081 H 293.256 -0.593374 -1.80497 0
M  V30 3082 H 291.406 0.913601 -3.77605 0
M  V30 3083 H 293.078 -1.64064 -4.31139 0
M  V30 3084 H 291.321 -1.6075 -4.02917 0
M  V30 3085 H 291.992 -0.817341 -5.45915 0
M  V30 3086 H 294.468 0.56986 -4.12179 0
M  V30 3087 H 293.344 1.18921 -5.35863 0
M  V30 3088 H 293.605 2.10939 -3.88532 0
M  V30 3089 N 292.664 1.56529 -0.183458 0
M  V30 3090 C 293.594 2.21549 0.737456 0
M  V30 3091 C 294.575 1.17489 1.23005 0
M  V30 3092 O 295.76 1.45959 1.281 0
M  V30 3093 C 292.89 2.86575 1.96194 0
M  V30 3094 C 291.844 3.96778 1.60473 0
M  V30 3095 C 291.17 4.48911 2.90487 0
M  V30 3096 C 292.47 5.15767 0.823497 0
M  V30 3097 H 294.164 2.98761 0.195453 0
M  V30 3098 H 291.71 1.43702 0.0925686 0
M  V30 3099 H 293.663 3.30739 2.61131 0
M  V30 3100 H 292.387 2.06749 2.52828 0
M  V30 3101 H 291.046 3.53286 0.978997 0
M  V30 3102 H 290.694 3.65862 3.45186 0
M  V30 3103 H 290.394 5.23265 2.67335 0
M  V30 3104 H 291.918 4.95771 3.56432 0
M  V30 3105 H 293.332 5.56549 1.37571 0
M  V30 3106 H 291.729 5.96114 0.690551 0
M  V30 3107 H 292.799 4.84574 -0.177782 0
M  V30 3108 N 294.142 -0.090211 1.57342 0
M  V30 3109 C 295.074 -1.13541 1.99101 0
M  V30 3110 C 296.087 -1.3604 0.894258 0
M  V30 3111 O 297.276 -1.34606 1.17233 0
M  V30 3112 C 294.376 -2.49001 2.29895 0
M  V30 3113 C 293.549 -2.46712 3.61182 0
M  V30 3114 C 292.608 -3.64136 3.79857 0
M  V30 3115 O 291.634 -3.46405 4.51655 0
M  V30 3116 N 292.836 -4.83802 3.20806 0
M  V30 3117 H 295.601 -0.779942 2.89373 0
M  V30 3118 H 293.162 -0.279125 1.59476 0
M  V30 3119 H 295.154 -3.26166 2.39578 0
M  V30 3120 H 293.724 -2.76619 1.45605 0
M  V30 3121 H 292.944 -1.55058 3.62423 0
M  V30 3122 H 294.232 -2.42265 4.4742 0
M  V30 3123 H 293.63 -5.01112 2.62494 0
M  V30 3124 H 292.187 -5.58543 3.35966 0
M  V30 3125 N 295.62 -1.53406 -0.361157 0
M  V30 3126 C 297.031 -1.61442 -0.937728 0
M  V30 3127 C 297.382 -0.48461 -1.90121 0
M  V30 3128 O 296.507 0.388312 -2.12888 0
M  V30 3129 C 297.102 -2.92624 -1.70753 0
M  V30 3130 C 295.661 -3.02981 -2.23337 0
M  V30 3131 C 294.808 -2.5677 -1.04712 0
M  V30 3132 H 297.759 -1.58083 -0.139816 0
M  V30 3133 H 297.78 -2.80675 -2.56908 0
M  V30 3134 H 297.292 -3.74834 -1.00604 0
M  V30 3135 H 295.393 -2.25368 -2.96715 0
M  V30 3136 H 295.506 -4.0814 -2.50916 0
M  V30 3137 H 293.87 -2.11752 -1.41539 0
M  V30 3138 H 294.653 -3.41402 -0.360539 0
M  V30 3139 N 297.098 0.621204 -1.44841 0
M  V30 3140 C 298.028 1.74366 -1.55303 0
M  V30 3141 C 299.009 1.65199 -0.405385 0
M  V30 3142 O 300.194 1.83807 -0.626787 0
M  V30 3143 C 297.324 3.12931 -1.50637 0
M  V30 3144 C 296.278 3.36896 -2.63979 0
M  V30 3145 C 295.604 4.75594 -2.44366 0
M  V30 3146 C 296.904 3.28483 -4.06074 0
M  V30 3147 H 298.598 1.65867 -2.49256 0
M  V30 3148 H 296.144 0.796558 -1.19962 0
M  V30 3149 H 298.097 3.9124 -1.56555 0
M  V30 3150 H 296.821 3.22237 -0.532057 0
M  V30 3151 H 295.48 2.60972 -2.57467 0
M  V30 3152 H 295.128 4.81616 -1.45105 0
M  V30 3153 H 294.828 4.92586 -3.20364 0
M  V30 3154 H 296.352 5.5612 -2.52117 0
M  V30 3155 H 297.766 3.96684 -4.13902 0
M  V30 3156 H 296.163 3.57008 -4.82354 0
M  V30 3157 H 297.233 2.26133 -4.28943 0
M  V30 3158 N 298.576 1.31904 0.862503 0
M  V30 3159 C 299.523 1.20182 1.9704 0
M  V30 3160 C 300.493 0.0858247 1.65878 0
M  V30 3161 O 301.678 0.26 1.8902 0
M  V30 3162 C 298.818 0.922797 3.32533 0
M  V30 3163 C 297.931 2.12284 3.76244 0
M  V30 3164 C 297.066 1.77996 5.00491 0
M  V30 3165 C 296.105 2.94366 5.36671 0
M  V30 3166 N 295.242 2.60223 6.52095 0
M  V30 3167 H 300.082 2.14951 2.06398 0
M  V30 3168 H 297.619 1.06917 1.01031 0
M  V30 3169 H 299.577 0.741548 4.10557 0
M  V30 3170 H 298.207 0.0119227 3.22798 0
M  V30 3171 H 297.259 2.41461 2.9394 0
M  V30 3172 H 298.571 2.99357 3.98982 0
M  V30 3173 H 297.725 1.56377 5.862 0
M  V30 3174 H 296.464 0.881252 4.79672 0
M  V30 3175 H 295.469 3.16625 4.49476 0
M  V30 3176 H 296.694 3.84957 5.59451 0
M  V30 3177 H 294.64 1.72884 6.32809 0
M  V30 3178 H 294.557 3.40827 6.74814 0
M  V30 3179 H 295.825 2.42016 7.40978 0
M  V30 3180 N 300.054 -1.07777 1.14986 0
M  V30 3181 C 300.984 -2.16865 0.865557 0
M  V30 3182 C 301.965 -1.69123 -0.182083 0
M  V30 3183 O 303.15 -1.94164 -0.0373815 0
M  V30 3184 C 300.28 -3.45539 0.349313 0
M  V30 3185 C 299.234 -4.06708 1.33313 0
M  V30 3186 C 298.56 -5.30411 0.675918 0
M  V30 3187 C 299.86 -4.47241 2.69764 0
M  V30 3188 H 301.554 -2.40905 1.77778 0
M  V30 3189 H 299.1 -1.15781 0.856203 0
M  V30 3190 H 301.053 -4.21174 0.137983 0
M  V30 3191 H 299.777 -3.21072 -0.598362 0
M  V30 3192 H 298.436 -3.33112 1.53075 0
M  V30 3193 H 298.084 -5.02232 -0.277767 0
M  V30 3194 H 297.784 -5.72293 1.33244 0
M  V30 3195 H 299.308 -6.08755 0.474262 0
M  V30 3196 H 300.722 -5.14025 2.53873 0
M  V30 3197 H 299.119 -5.00062 3.3175 0
M  V30 3198 H 300.189 -3.58818 3.26156 0
M  V30 3199 N 301.532 -0.945985 -1.26051 0
M  V30 3200 C 302.495 -0.463897 -2.24456 0
M  V30 3201 C 303.495 0.427655 -1.55009 0
M  V30 3202 O 304.685 0.226157 -1.72726 0
M  V30 3203 C 301.817 0.330812 -3.39291 0
M  V30 3204 H 303.01 -1.33357 -2.68619 0
M  V30 3205 H 300.563 -0.728416 -1.38289 0
M  V30 3206 H 301.298 1.21852 -3.00537 0
M  V30 3207 H 301.083 -0.308679 -3.90883 0
M  V30 3208 H 302.573 0.657865 -4.12386 0
M  V30 3209 N 303.011 1.40521 -0.713556 0
M  V30 3210 C 303.961 2.27971 -0.036165 0
M  V30 3211 C 304.945 1.43151 0.734623 0
M  V30 3212 O 306.137 1.66261 0.607158 0
M  V30 3213 C 303.266 3.31661 0.886331 0
M  V30 3214 C 302.352 4.23955 0.110836 0
M  V30 3215 N 302.743 4.97641 -0.904847 0
M  V30 3216 C 301.041 4.44674 0.343692 0
M  V30 3217 C 301.742 5.65322 -1.37064 0
M  V30 3218 N 300.718 5.39162 -0.693168 0
M  V30 3219 H 304.52 2.82384 -0.814645 0
M  V30 3220 H 302.034 1.52948 -0.545963 0
M  V30 3221 H 304.031 3.93154 1.38692 0
M  V30 3222 H 302.691 2.78808 1.66421 0
M  V30 3223 H 303.702 5.01689 -1.28563 0
M  V30 3224 H 300.379 4.02801 1.09805 0
M  V30 3225 H 301.769 6.34359 -2.21447 0
M  V30 3226 N 304.489 0.459591 1.5075 0
M  V30 3227 C 305.717 -0.0973749 2.06671 0
M  V30 3228 C 306.132 -1.34524 1.32472 0
M  V30 3229 O 305.489 -1.7827 0.390634 0
M  V30 3230 C 305.54 -0.39714 3.59312 0
M  V30 3231 O 305.261 0.801214 4.30711 0
M  V30 3232 C 306.762 -1.00234 4.31819 0
M  V30 3233 H 303.982 0.00195854 0.670997 0
M  V30 3234 H 306.526 0.645072 1.94059 0
M  V30 3235 H 304.681 -1.08951 3.71764 0
M  V30 3236 H 305.095 0.538857 5.21725 0
M  V30 3237 H 306.569 -1.16193 5.39632 0
M  V30 3238 H 307.046 -1.98939 3.91561 0
M  V30 3239 H 307.652 -0.348699 4.23868 0
M  V30 3240 N 305.967 -1.56429 0.191757 0
M  V30 3241 C 307.213 -1.98541 -0.441943 0
M  V30 3242 C 307.568 -1.07646 -1.59468 0
M  V30 3243 O 306.861 -0.120191 -1.91223 0
M  V30 3244 C 307.055 -3.44449 -0.953384 0
M  V30 3245 C 306.884 -4.49456 0.148262 0
M  V30 3246 C 305.654 -5.01668 0.604781 0
M  V30 3247 C 307.852 -5.05336 0.95602 0
M  V30 3248 N 305.834 -5.90334 1.6846 0
M  V30 3249 C 307.205 -5.9064 1.88531 0
M  V30 3250 C 309.26 -4.87779 0.998811 0
M  V30 3251 C 307.963 -6.60264 2.85383 0
M  V30 3252 C 309.989 -5.58139 1.95537 0
M  V30 3253 C 309.351 -6.43187 2.8721 0
M  V30 3254 H 305.45 -0.771247 -0.129236 0
M  V30 3255 H 308.034 -1.92426 0.296682 0
M  V30 3256 H 306.205 -3.5107 -1.66146 0
M  V30 3257 H 307.937 -3.73533 -1.55741 0
M  V30 3258 H 304.692 -4.73183 0.198736 0
M  V30 3259 H 305.116 -6.39371 2.22561 0
M  V30 3260 H 309.758 -4.21705 0.304048 0
M  V30 3261 H 307.476 -7.25538 3.55837 0
M  V30 3262 H 311.062 -5.46532 1.99484 0
M  V30 3263 H 309.942 -6.96674 3.60022 0
M  V30 3264 N 307.445 0.0818655 -1.57387 0
M  V30 3265 C 308.694 0.781681 -1.85937 0
M  V30 3266 C 309.007 1.79246 -0.782957 0
M  V30 3267 O 310.213 2.54112 -0.955987 0
M  V30 3268 C 308.669 1.44109 -3.29789 0
M  V30 3269 C 308.277 0.469396 -4.45534 0
M  V30 3270 C 310.021 2.12386 -3.67549 0
M  V30 3271 C 307.928 1.13415 -5.80423 0
M  V30 3272 H 306.858 0.295682 -0.693605 0
M  V30 3273 H 309.509 0.0348051 -1.83467 0
M  V30 3274 H 307.891 2.23588 -3.2684 0
M  V30 3275 H 309.065 -0.294856 -4.59856 0
M  V30 3276 H 307.38 -0.108383 -4.16259 0
M  V30 3277 H 309.977 2.62878 -4.65617 0
M  V30 3278 H 310.32 2.91877 -2.96839 0
M  V30 3279 H 310.853 1.39751 -3.72444 0
M  V30 3280 H 307.592 0.379771 -6.54399 0
M  V30 3281 H 307.112 1.8695 -5.69921 0
M  V30 3282 H 308.791 1.65686 -6.25426 0
M  V30 3283 N 308.923 1.53595 0.353017 0
M  V30 3284 C 310.151 1.74311 1.1146 0
M  V30 3285 C 310.566 0.477854 1.82653 0
M  V30 3286 O 309.923 -0.549977 1.74016 0
M  V30 3287 C 309.974 2.91694 2.13534 0
M  V30 3288 O 309.695 4.13325 1.45238 0
M  V30 3289 C 311.196 3.24384 3.02142 0
M  V30 3290 H 308.416 0.582669 0.332773 0
M  V30 3291 H 310.96 2.00386 0.408107 0
M  V30 3292 H 309.115 2.67977 2.79763 0
M  V30 3293 H 309.529 4.79148 2.13349 0
M  V30 3294 H 311.003 4.09893 3.69718 0
M  V30 3295 H 311.48 2.40282 3.67643 0
M  V30 3296 H 312.086 3.50073 2.41514 0
M  V30 3297 N 310.401 -0.613514 1.45168 0
M  V30 3298 C 311.647 -1.37471 1.49096 0
M  V30 3299 C 311.98 -1.93765 0.129901 0
M  V30 3300 O 311.255 -1.74707 -0.854858 0
M  V30 3301 C 311.538 -2.52701 2.56542 0
M  V30 3302 C 311.391 -2.01643 4.0207 0
M  V30 3303 C 312.71 -3.54849 2.60327 0
M  V30 3304 H 309.829 -0.498502 0.54283 0
M  V30 3305 H 312.471 -0.692125 1.76945 0
M  V30 3306 H 310.621 -3.10931 2.32926 0
M  V30 3307 H 312.293 -1.48108 4.36877 0
M  V30 3308 H 310.536 -1.32688 4.13009 0
M  V30 3309 H 311.207 -2.84681 4.72928 0
M  V30 3310 H 313.683 -3.0645 2.81474 0
M  V30 3311 H 312.559 -4.32973 3.37381 0
M  V30 3312 H 312.82 -4.10079 1.6519 0
M  V30 3313 N 311.879 -1.3236 -0.855495 0
M  V30 3314 C 313.29 -1.2056 -1.42556 0
M  V30 3315 C 313.641 0.182209 -1.95352 0
M  V30 3316 O 312.766 1.08088 -1.87472 0
M  V30 3317 C 313.361 -2.1826 -2.59129 0
M  V30 3318 C 311.92 -2.10351 -3.12137 0
M  V30 3319 C 311.067 -2.06674 -1.84882 0
M  V30 3320 H 314.018 -1.442 -0.662727 0
M  V30 3321 H 314.039 -1.78064 -3.36264 0
M  V30 3322 H 313.551 -3.19257 -2.20673 0
M  V30 3323 H 311.652 -1.12599 -3.55179 0
M  V30 3324 H 311.765 -3.00135 -3.73438 0
M  V30 3325 H 310.129 -1.51901 -2.04446 0
M  V30 3326 H 310.912 -3.09451 -1.48643 0
M  V30 3327 N 313.357 1.07166 -1.15556 0
M  V30 3328 C 314.289 2.14341 -0.811815 0
M  V30 3329 C 315.302 1.61835 0.177015 0
M  V30 3330 O 316.491 1.78439 -0.0464996 0
M  V30 3331 C 313.591 3.38387 -0.186481 0
M  V30 3332 C 312.764 4.20238 -1.21321 0
M  V30 3333 C 311.823 5.2266 -0.609302 0
M  V30 3334 O 310.849 5.54719 -1.27576 0
M  V30 3335 N 312.051 5.77306 0.608099 0
M  V30 3336 H 314.816 2.44431 -1.73417 0
M  V30 3337 H 312.377 1.23089 -1.0517 0
M  V30 3338 H 314.369 4.04044 0.230339 0
M  V30 3339 H 312.939 3.05994 0.639249 0
M  V30 3340 H 312.159 3.50369 -1.80652 0
M  V30 3341 H 313.447 4.71736 -1.90638 0
M  V30 3342 H 312.845 5.53513 1.1679 0
M  V30 3343 H 311.402 6.44583 0.96725 0
M  V30 3344 N 314.835 0.952656 1.25548 0
M  V30 3345 C 316.06 0.623025 1.97821 0
M  V30 3346 C 316.485 -0.7976 1.70352 0
M  V30 3347 O 315.843 -1.53905 0.958283 0
M  V30 3348 C 315.891 0.885532 3.49558 0
M  V30 3349 O 314.995 -0.0366641 4.12384 0
M  V30 3350 H 314.336 0.237082 0.620232 0
M  V30 3351 H 316.866 1.27871 1.59719 0
M  V30 3352 H 316.876 0.811009 3.99858 0
M  V30 3353 H 315.551 1.92094 3.6888 0
M  V30 3354 H 314.128 0.0898954 3.72792 0
M  V30 3355 N 316.313 -1.40141 0.720998 0
M  V30 3356 C 317.223 -2.34486 0.0731031 0
M  V30 3357 C 318.239 -1.57587 -0.737723 0
M  V30 3358 O 319.415 -1.89949 -0.669429 0
M  V30 3359 C 316.48 -3.36528 -0.833656 0
M  V30 3360 C 315.541 -4.29298 -0.0121673 0
M  V30 3361 C 314.774 -5.26466 -0.875742 0
M  V30 3362 O 314.997 -5.29745 -2.11485 0
M  V30 3363 O 313.931 -6.01092 -0.31185 0
M  V30 3364 H 317.757 -2.9152 0.851444 0
M  V30 3365 H 315.342 -1.41427 0.481527 0
M  V30 3366 H 317.224 -3.99093 -1.35289 0
M  V30 3367 H 315.899 -2.81899 -1.59105 0
M  V30 3368 H 314.806 -3.70001 0.552262 0
M  V30 3369 H 316.139 -4.87094 0.707129 0
M  V30 3370 N 317.792 -0.46758 -1.50504 0
M  V30 3371 C 318.724 0.364655 -2.26281 0
M  V30 3372 C 319.737 0.960151 -1.31472 0
M  V30 3373 O 320.926 0.849153 -1.57008 0
M  V30 3374 C 318.026 1.52509 -3.02645 0
M  V30 3375 C 317.199 1.04302 -4.24782 0
M  V30 3376 C 316.258 2.07709 -4.8347 0
M  V30 3377 O 315.284 1.65913 -5.44483 0
M  V30 3378 N 316.486 3.40485 -4.70159 0
M  V30 3379 H 319.251 -0.28495 -2.98342 0
M  V30 3380 H 316.812 -0.298163 -1.59131 0
M  V30 3381 H 318.804 2.21371 -3.38787 0
M  V30 3382 H 317.374 2.07945 -2.33404 0
M  V30 3383 H 316.594 0.180393 -3.93787 0
M  V30 3384 H 317.882 0.698798 -5.03978 0
M  V30 3385 H 317.28 3.77155 -4.21629 0
M  V30 3386 H 315.837 4.05156 -5.1058 0
M  V30 3387 N 319.27 1.56325 -0.20005 0
M  V30 3388 C 320.217 2.1932 0.718833 0
M  V30 3389 C 321.187 1.14198 1.20615 0
M  V30 3390 O 322.372 1.42469 1.26914 0
M  V30 3391 C 319.512 2.86041 1.93066 0
M  V30 3392 C 318.625 4.05702 1.48425 0
M  V30 3393 C 317.76 4.60266 2.65196 0
M  V30 3394 C 316.799 5.72273 2.17185 0
M  V30 3395 N 315.936 6.21221 3.27152 0
M  V30 3396 H 320.776 2.97486 0.17489 0
M  V30 3397 H 318.313 1.46911 0.0745794 0
M  V30 3398 H 320.271 3.22897 2.64184 0
M  V30 3399 H 318.901 2.1043 2.44783 0
M  V30 3400 H 317.953 3.74475 0.668755 0
M  V30 3401 H 319.265 4.86699 1.09204 0
M  V30 3402 H 318.419 4.99453 3.4443 0
M  V30 3403 H 317.158 3.78386 3.07693 0
M  V30 3404 H 316.163 5.3261 1.36407 0
M  V30 3405 H 317.388 6.55974 1.75713 0
M  V30 3406 H 315.334 5.42263 3.69171 0
M  V30 3407 H 315.251 6.97284 2.92116 0
M  V30 3408 H 316.519 6.65063 4.06585 0
M  V30 3409 N 320.748 -0.0735177 1.57428 0
M  V30 3410 C 321.696 -1.10628 2.04607 0
M  V30 3411 C 322.69 -1.40181 0.951088 0
M  V30 3412 O 323.896 -1.39608 1.1362 0
M  V30 3413 H 320.271 -0.374088 0.652351 0
M  V30 3414 H 322.242 -0.682218 2.90497 0
M  V30 3415 C 320.991 -2.41212 2.50423 0
M  V30 3416 H 320.314 -2.19322 3.34272 0
M  V30 3417 H 321.754 -3.11927 2.87189 0
M  V30 3418 C 320.213 -3.0705 1.38644 0
M  V30 3419 O 320.743 -3.95056 0.727582 0
M  V30 3420 N 318.949 -2.67645 1.132 0
M  V30 3421 H 318.496 -1.96169 1.66959 0
M  V30 3422 H 318.454 -3.1202 0.386147 0
M  V30 3423 N 322.226 -1.5378 -0.344866 0
M  V30 3424 C 323.456 -1.74646 -1.10374 0
M  V30 3425 C 323.864 -0.48491 -1.8288 0
M  V30 3426 O 323.207 0.553062 -1.75177 0
M  V30 3427 C 323.269 -2.87145 -2.16306 0
M  V30 3428 C 322.933 -4.26795 -1.63386 0
M  V30 3429 C 323.93 -5.08412 -1.08688 0
M  V30 3430 C 321.615 -4.73276 -1.68272 0
M  V30 3431 C 323.609 -6.34609 -0.595792 0
M  V30 3432 C 321.296 -5.99446 -1.18776 0
M  V30 3433 C 322.294 -6.79946 -0.645215 0
M  V30 3434 O 321.982 -8.03745 -0.157626 0
M  V30 3435 H 321.714 -0.587112 -0.335075 0
M  V30 3436 H 324.268 -2.01403 -0.403252 0
M  V30 3437 H 322.498 -2.55909 -2.89909 0
M  V30 3438 H 324.187 -2.95992 -2.77747 0
M  V30 3439 H 324.953 -4.73666 -1.04236 0
M  V30 3440 H 320.832 -4.10677 -2.09442 0
M  V30 3441 H 324.376 -6.97389 -0.171654 0
M  V30 3442 H 320.273 -6.33687 -1.22928 0
M  V30 3443 H 321.041 -8.18038 -0.275037 0
M  V30 3444 N 323.704 0.605807 -1.45491 0
M  V30 3445 C 324.667 1.69836 -1.5391 0
M  V30 3446 C 325.667 1.55261 -0.418424 0
M  V30 3447 O 326.857 1.60296 -0.681965 0
M  V30 3448 C 323.989 3.09117 -1.43734 0
M  V30 3449 H 325.182 1.63738 -2.51257 0
M  V30 3450 H 322.735 0.821689 -1.32959 0
M  V30 3451 H 323.47 3.20791 -0.475788 0
M  V30 3452 H 323.255 3.21104 -2.25021 0
M  V30 3453 H 324.745 3.88696 -1.52661 0
M  V30 3454 N 325.182 1.32811 0.848464 0
M  V30 3455 C 326.428 1.24917 1.60522 0
M  V30 3456 C 326.783 -0.185761 1.91501 0
M  V30 3457 O 326.076 -1.12524 1.55077 0
M  V30 3458 C 326.27 2.04831 2.92881 0
M  V30 3459 C 326.099 3.55949 2.74828 0
M  V30 3460 C 324.869 4.25277 2.72887 0
M  V30 3461 C 327.067 4.50476 2.48145 0
M  V30 3462 N 325.049 5.62408 2.46111 0
M  V30 3463 C 326.42 5.75427 2.30832 0
M  V30 3464 C 328.475 4.39665 2.33664 0
M  V30 3465 C 327.178 6.90789 2.00508 0
M  V30 3466 C 329.204 5.54833 2.04731 0
M  V30 3467 C 328.566 6.78787 1.88223 0
M  V30 3468 H 324.665 0.512279 0.590842 0
M  V30 3469 H 327.249 1.67246 0.996839 0
M  V30 3470 H 325.42 1.64837 3.51686 0
M  V30 3471 H 327.152 1.88782 3.57971 0
M  V30 3472 H 323.907 3.77456 2.86049 0
M  V30 3473 H 324.331 6.3467 2.35634 0
M  V30 3474 H 328.973 3.44477 2.45144 0
M  V30 3475 H 326.691 7.85984 1.87765 0
M  V30 3476 H 330.277 5.48398 1.94295 0
M  V30 3477 H 329.157 7.66396 1.66155 0
M  V30 3478 N 326.66 -1.06551 1.16123 0
M  V30 3479 C 327.908 -1.78947 0.939267 0
M  V30 3480 C 328.229 -1.87532 -0.534476 0
M  V30 3481 O 327.499 -1.38211 -1.38833 0
M  V30 3482 H 326.079 -0.662807 0.344523 0
M  V30 3483 H 328.741 -1.28725 1.46342 0
M  V30 3484 H 327.837 -2.81117 1.35572 0
M  V30 3485 N 328.138 -0.959301 -1.25041 0
M  V30 3486 C 329.368 -0.63303 -1.96663 0
M  V30 3487 C 329.776 0.800031 -1.71453 0
M  V30 3488 O 329.119 1.54736 -0.99008 0
M  V30 3489 C 329.181 -0.817523 -3.50081 0
M  V30 3490 C 328.845 -2.22863 -3.98975 0
M  V30 3491 C 329.842 -3.20569 -4.09306 0
M  V30 3492 C 327.527 -2.55407 -4.32519 0
M  V30 3493 C 329.521 -4.4891 -4.52503 0
M  V30 3494 C 327.208 -3.83976 -4.754 0
M  V30 3495 C 328.206 -4.8054 -4.85356 0
M  V30 3496 O 327.894 -6.06817 -5.27284 0
M  V30 3497 H 327.626 -0.235866 -0.633516 0
M  V30 3498 H 330.18 -1.2874 -1.60047 0
M  V30 3499 H 328.41 -0.105992 -3.86555 0
M  V30 3500 H 330.099 -0.491604 -4.02912 0
M  V30 3501 H 330.865 -2.96753 -3.83618 0
M  V30 3502 H 326.744 -1.8097 -4.23994 0
M  V30 3503 H 330.288 -5.24283 -4.60188 0
M  V30 3504 H 326.185 -4.07596 -5.00535 0
M  V30 3505 H 326.953 -6.10262 -5.45457 0
M  V30 3506 N 329.616 1.39756 -0.72842 0
M  V30 3507 C 330.546 2.33289 -0.0991354 0
M  V30 3508 C 331.527 1.53568 0.731489 0
M  V30 3509 O 332.712 1.81987 0.677807 0
M  V30 3510 C 329.842 3.3763 0.813834 0
M  V30 3511 C 328.796 4.2791 0.0878663 0
M  V30 3512 C 328.122 5.22894 1.11741 0
M  V30 3513 C 329.422 5.11314 -1.06563 0
M  V30 3514 H 331.116 2.86163 -0.880408 0
M  V30 3515 H 328.662 1.37591 -0.424819 0
M  V30 3516 H 330.615 4.0201 1.26355 0
M  V30 3517 H 329.339 2.83181 1.62715 0
M  V30 3518 H 327.998 3.65 -0.342159 0
M  V30 3519 H 327.646 4.64744 1.92412 0
M  V30 3520 H 327.346 5.84143 0.636477 0
M  V30 3521 H 328.87 5.90151 1.56697 0
M  V30 3522 H 330.284 5.69076 -0.694671 0
M  V30 3523 H 328.681 5.81671 -1.47577 0
M  V30 3524 H 329.751 4.46534 -1.89038 0
M  V30 3525 N 331.094 0.475555 1.50254 0
M  V30 3526 C 332.004 -0.321501 2.32387 0
M  V30 3527 C 333.02 -0.991755 1.42969 0
M  V30 3528 O 334.196 -0.978747 1.76018 0
M  V30 3529 C 331.261 -1.38667 3.17762 0
M  V30 3530 C 330.322 -0.732538 4.23004 0
M  V30 3531 C 329.555 -1.74695 5.04299 0
M  V30 3532 O 329.778 -2.97399 4.86734 0
M  V30 3533 O 328.712 -1.31631 5.8733 0
M  V30 3534 H 332.538 0.350071 3.01676 0
M  V30 3535 H 330.123 0.237321 1.47503 0
M  V30 3536 H 332.005 -2.00354 3.70724 0
M  V30 3537 H 330.68 -2.04163 2.51196 0
M  V30 3538 H 329.587 -0.0765902 3.74022 0
M  V30 3539 H 330.92 -0.120452 4.92053 0
M  V30 3540 N 332.573 -1.56217 0.208337 0
M  V30 3541 C 333.821 -1.97558 -0.426076 0
M  V30 3542 C 334.142 -1.09683 -1.61229 0
M  V30 3543 O 333.412 -0.170956 -1.95153 0
M  V30 3544 H 331.992 -0.729575 -0.160405 0
M  V30 3545 H 334.654 -1.92606 0.298155 0
M  V30 3546 H 333.75 -3.02672 -0.761312 0
M  V30 3547 N 334.051 0.0651679 -1.57465 0
M  V30 3548 C 334.998 1.07675 -2.04144 0
M  V30 3549 C 335.968 1.38071 -0.923335 0
M  V30 3550 O 337.153 1.49026 -1.19146 0
M  V30 3551 C 334.293 2.38337 -2.49579 0
M  V30 3552 C 333.406 2.14413 -3.75035 0
M  V30 3553 C 332.541 3.38686 -4.09225 0
M  V30 3554 C 331.58 3.10156 -5.27702 0
M  V30 3555 N 330.717 4.26778 -5.57499 0
M  V30 3556 H 335.557 0.671716 -2.90331 0
M  V30 3557 H 333.094 0.3201 -1.43575 0
M  V30 3558 H 335.052 3.14632 -2.73975 0
M  V30 3559 H 333.682 2.7663 -1.6636 0
M  V30 3560 H 332.734 1.2878 -3.57939 0
M  V30 3561 H 334.046 1.89344 -4.61466 0
M  V30 3562 H 333.2 4.23373 -4.34558 0
M  V30 3563 H 331.939 3.66837 -3.21374 0
M  V30 3564 H 330.944 2.23866 -5.02159 0
M  V30 3565 H 332.169 2.8332 -6.17176 0
M  V30 3566 H 330.115 4.54948 -4.72608 0
M  V30 3567 H 330.032 4.05005 -6.38362 0
M  V30 3568 H 331.3 5.12443 -5.87386 0
M  V30 3569 N 335.529 1.53961 0.336706 0
M  V30 3570 C 336.94 1.62914 0.911925 0
M  V30 3571 C 337.291 0.514795 1.89326 0
M  V30 3572 O 336.416 -0.354395 2.13478 0
M  V30 3573 C 337.011 2.95304 1.66076 0
M  V30 3574 C 335.57 3.06496 2.18489 0
M  V30 3575 C 334.717 2.58403 1.00613 0
M  V30 3576 H 337.668 1.58285 0.114649 0
M  V30 3577 H 337.689 2.84727 2.5241 0
M  V30 3578 H 337.201 3.76387 0.946276 0
M  V30 3579 H 335.302 2.3006 2.93092 0
M  V30 3580 H 335.415 4.1208 2.44391 0
M  V30 3581 H 333.779 2.13977 1.38152 0
M  V30 3582 H 334.562 3.41932 0.306179 0
M  V30 3583 N 337.007 -0.598083 1.45811 0
M  V30 3584 C 338.253 -1.35882 1.50545 0
M  V30 3585 C 338.586 -1.93616 0.150445 0
M  V30 3586 O 337.861 -1.75604 -0.83628 0
M  V30 3587 C 338.144 -2.49966 2.59208 0
M  V30 3588 C 337.997 -1.97367 4.04186 0
M  V30 3589 C 339.316 -3.52068 2.64076 0
M  V30 3590 H 336.435 -0.492717 0.548087 0
M  V30 3591 H 339.077 -0.673319 1.77669 0
M  V30 3592 H 337.227 -3.08443 2.3621 0
M  V30 3593 H 338.899 -1.43466 4.38423 0
M  V30 3594 H 337.142 -1.283 4.14393 0
M  V30 3595 H 337.813 -2.79649 4.75921 0
M  V30 3596 H 340.289 -3.03448 2.84708 0
M  V30 3597 H 339.165 -4.2937 3.41954 0
M  V30 3598 H 339.426 -4.08304 1.69531 0
M  V30 3599 N 338.485 -1.33259 -0.841409 0
M  V30 3600 C 339.435 -1.19872 -1.93945 0
M  V30 3601 C 340.419 -0.102269 -1.60575 0
M  V30 3602 O 341.611 -0.330114 -1.73894 0
M  V30 3603 C 338.74 -0.937517 -3.30251 0
M  V30 3604 C 337.826 -2.07629 -3.69799 0
M  V30 3605 N 338.217 -3.32604 -3.81062 0
M  V30 3606 C 336.515 -1.98242 -3.9952 0
M  V30 3607 C 337.216 -4.07275 -4.15333 0
M  V30 3608 N 336.192 -3.35691 -4.27566 0
M  V30 3609 H 339.994 -2.14604 -2.00805 0
M  V30 3610 H 337.508 -1.2523 -1.03398 0
M  V30 3611 H 339.505 -0.822545 -4.08705 0
M  V30 3612 H 338.165 0.00128798 -3.247 0
M  V30 3613 H 339.176 -3.67382 -3.65035 0
M  V30 3614 H 335.853 -1.12005 -4.02195 0
M  V30 3615 H 337.243 -5.1511 -4.31406 0
M  V30 3616 N 339.963 1.05934 -1.16686 0
M  V30 3617 C 341.209 1.79065 -0.95203 0
M  V30 3618 C 341.542 1.87147 0.518629 0
M  V30 3619 O 340.817 1.36574 1.38484 0
M  V30 3620 C 341.1 3.23359 -1.58464 0
M  V30 3621 C 340.953 3.23336 -3.12689 0
M  V30 3622 C 342.272 4.21004 -1.28232 0
M  V30 3623 H 339.391 0.65005 -0.34728 0
M  V30 3624 H 342.033 1.23868 -1.44072 0
M  V30 3625 H 340.183 3.70493 -1.16908 0
M  V30 3626 H 341.855 2.84336 -3.6325 0
M  V30 3627 H 340.098 2.61886 -3.4583 0
M  V30 3628 H 340.769 4.25144 -3.52075 0
M  V30 3629 H 343.245 3.8233 -1.64203 0
M  V30 3630 H 342.121 5.20225 -1.75092 0
M  V30 3631 H 342.382 4.41639 -0.201791 0
M  V30 3632 N 341.441 0.965919 1.2453 0
M  V30 3633 C 342.666 0.643971 1.97149 0
M  V30 3634 C 343.091 -0.779487 1.71189 0
M  V30 3635 O 342.449 -1.5288 0.974553 0
M  V30 3636 C 342.497 0.922557 3.48599 0
M  V30 3637 O 341.601 0.00707672 4.12399 0
M  V30 3638 H 340.942 0.243647 0.617683 0
M  V30 3639 H 343.472 1.29558 1.58353 0
M  V30 3640 H 343.482 0.853373 3.98976 0
M  V30 3641 H 342.157 1.95996 3.66822 0
M  V30 3642 H 340.734 0.12943 3.72675 0
M  V30 3643 N 342.919 -1.39368 0.735821 0
M  V30 3644 C 344.33 -1.83313 0.354015 0
M  V30 3645 C 344.681 -1.61461 -1.11466 0
M  V30 3646 O 343.806 -1.10621 -1.85989 0
M  V30 3647 C 344.401 -3.32781 0.635769 0
M  V30 3648 C 342.96 -3.75142 0.307448 0
M  V30 3649 C 342.107 -2.62358 0.897974 0
M  V30 3650 H 345.058 -1.28349 0.933398 0
M  V30 3651 H 345.079 -3.80388 -0.0921773 0
M  V30 3652 H 344.591 -3.48654 1.70476 0
M  V30 3653 H 342.692 -3.64857 -0.755674 0
M  V30 3654 H 342.805 -4.72532 0.790583 0
M  V30 3655 H 341.169 -2.52624 0.324551 0
M  V30 3656 H 341.952 -2.81036 1.97164 0
M  V30 3657 N 344.397 -0.483516 -1.5 0
M  V30 3658 C 345.645 0.067027 -2.01989 0
M  V30 3659 C 345.966 1.3909 -1.36671 0
M  V30 3660 O 345.236 1.88978 -0.516152 0
M  V30 3661 H 343.816 0.0277606 -0.746484 0
M  V30 3662 H 346.478 -0.636773 -1.84204 0
M  V30 3663 H 345.574 0.209484 -3.11396 0
M  V30 3664 N 345.875 1.56104 -0.216619 0
M  V30 3665 C 346.807 2.17339 0.72776 0
M  V30 3666 C 347.82 1.14109 1.16116 0
M  V30 3667 O 349.009 1.4111 1.09317 0
M  V30 3668 C 346.109 2.73818 1.99693 0
M  V30 3669 C 345.282 4.02168 1.71988 0
M  V30 3670 C 344.341 4.43259 2.83562 0
M  V30 3671 O 343.367 5.10257 2.52244 0
M  V30 3672 N 344.569 4.08535 4.12407 0
M  V30 3673 H 347.334 2.99005 0.203983 0
M  V30 3674 H 344.895 1.61861 -0.0354289 0
M  V30 3675 H 346.887 2.9828 2.73516 0
M  V30 3676 H 345.457 1.96483 2.43132 0
M  V30 3677 H 344.677 3.85612 0.818337 0
M  V30 3678 H 345.965 4.85907 1.50903 0
M  V30 3679 H 345.363 3.54687 4.40696 0
M  V30 3680 H 343.92 4.37901 4.8279 0
M  V30 3681 N 347.353 -0.0568162 1.57498 0
M  V30 3682 C 348.283 -1.06593 2.0775 0
M  V30 3683 C 349.264 -1.39448 0.974082 0
M  V30 3684 O 350.449 -1.48815 1.24771 0
M  V30 3685 C 347.579 -2.37509 2.5339 0
M  V30 3686 C 346.533 -2.1897 3.67745 0
M  V30 3687 C 345.859 -3.55402 3.99492 0
M  V30 3688 C 347.159 -1.59859 4.97235 0
M  V30 3689 H 348.853 -0.647706 2.9231 0
M  V30 3690 H 346.399 -0.310116 1.40621 0
M  V30 3691 H 348.352 -3.08409 2.87162 0
M  V30 3692 H 347.076 -2.8134 1.65878 0
M  V30 3693 H 345.735 -1.50508 3.3428 0
M  V30 3694 H 345.383 -3.9683 3.09088 0
M  V30 3695 H 345.083 -3.43831 4.76502 0
M  V30 3696 H 346.607 -4.27708 4.35773 0
M  V30 3697 H 348.021 -2.20642 5.29141 0
M  V30 3698 H 346.418 -1.58942 5.78669 0
M  V30 3699 H 347.488 -0.561506 4.81638 0
M  V30 3700 N 348.832 -1.54138 -0.328536 0
M  V30 3701 C 350.109 -1.62749 -1.08499 0
M  V30 3702 C 350.489 -0.458198 -2.06067 0
M  V30 3703 O 349.837 0.548046 -2.2183 0
M  V30 3704 C 350.047 -2.99519 -1.79135 0
M  V30 3705 C 351.395 -3.55394 -2.32337 0
M  V30 3706 O 352.419 -3.01792 -1.89209 0
M  V30 3707 O 351.278 -4.49186 -3.11279 0
M  V30 3708 H 348.372 -0.65886 -0.499832 0
M  V30 3709 H 350.918 -1.66484 -0.328826 0
M  V30 3710 H 349.69 -3.76061 -1.08139 0
M  V30 3711 H 349.313 -2.99441 -2.61574 0
M  V30 3712 N 350.31 0.590341 -1.46126 0
M  V30 3713 C 351.273 1.68194 -1.55703 0
M  V30 3714 C 352.273 1.54808 -0.434868 0
M  V30 3715 O 353.463 1.59564 -0.698928 0
M  V30 3716 C 350.595 3.07575 -1.47005 0
M  V30 3717 H 351.788 1.61064 -2.52979 0
M  V30 3718 H 349.341 0.807541 -1.33823 0
M  V30 3719 H 350.076 3.20268 -0.509785 0
M  V30 3720 H 349.861 3.187 -2.28414 0
M  V30 3721 H 351.351 3.87055 -1.56776 0
M  V30 3722 N 351.788 1.33704 0.83433 0
M  V30 3723 C 352.698 1.26382 1.97648 0
M  V30 3724 C 353.714 0.173548 1.73132 0
M  V30 3725 O 354.89 0.397962 1.97429 0
M  V30 3726 C 351.955 1.00769 3.31733 0
M  V30 3727 C 351.016 2.1884 3.69334 0
M  V30 3728 C 350.249 1.9444 4.9702 0
M  V30 3729 O 350.472 0.896961 5.63303 0
M  V30 3730 O 349.406 2.81093 5.32231 0
M  V30 3731 H 353.232 2.22444 2.06767 0
M  V30 3732 H 350.817 1.13795 0.968037 0
M  V30 3733 H 352.699 0.882186 4.12062 0
M  V30 3734 H 351.374 0.0773783 3.23608 0
M  V30 3735 H 350.281 2.36946 2.89495 0
M  V30 3736 H 351.614 3.10221 3.82131 0
M  V30 3737 N 353.266 -1.05314 1.17247 0
M  V30 3738 C 354.229 -2.112 0.890357 0
M  V30 3739 C 355.229 -1.60359 -0.118943 0
M  V30 3740 O 356.419 -1.73833 0.113086 0
M  V30 3741 C 353.551 -3.39266 0.333422 0
M  V30 3742 H 354.744 -2.37659 1.82916 0
M  V30 3743 H 352.297 -1.21538 0.982758 0
M  V30 3744 H 353.032 -3.18462 -0.612587 0
M  V30 3745 H 352.817 -3.77477 1.06082 0
M  V30 3746 H 354.307 -4.17315 0.154322 0
M  V30 3747 N 354.744 -0.972509 -1.24016 0
M  V30 3748 C 355.974 -0.653853 -1.9598 0
M  V30 3749 C 356.382 0.781801 -1.72292 0
M  V30 3750 O 355.725 1.53677 -1.00644 0
M  V30 3751 C 355.787 -0.854608 -3.49194 0
M  V30 3752 C 355.451 -2.27082 -3.96589 0
M  V30 3753 C 356.448 -3.24892 -4.05883 0
M  V30 3754 C 354.133 -2.5998 -4.29786 0
M  V30 3755 C 356.127 -4.53684 -4.47716 0
M  V30 3756 C 353.814 -3.88997 -4.71301 0
M  V30 3757 C 354.812 -4.85661 -4.80232 0
M  V30 3758 O 354.5 -6.12376 -5.20818 0
M  V30 3759 H 354.232 -0.242572 -0.630979 0
M  V30 3760 H 356.786 -1.30431 -1.58673 0
M  V30 3761 H 355.016 -0.146985 -3.86421 0
M  V30 3762 H 356.705 -0.534311 -4.02368 0
M  V30 3763 H 357.471 -3.00805 -3.80449 0
M  V30 3764 H 353.35 -1.85457 -4.22051 0
M  V30 3765 H 356.894 -5.29135 -4.54601 0
M  V30 3766 H 352.791 -4.12882 -4.96184 0
M  V30 3767 H 353.559 -6.16013 -5.38953 0
M  V30 3768 N 356.222 1.38976 -0.743202 0
M  V30 3769 C 357.47 1.99948 -0.29417 0
M  V30 3770 C 357.791 1.59279 1.12495 0
M  V30 3771 O 357.061 0.844808 1.76748 0
M  V30 3772 H 355.641 0.739473 -0.105774 0
M  V30 3773 H 358.303 1.699 -0.954986 0
M  V30 3774 H 357.399 3.10142 -0.349056 0
M  V30 3775 N 357.7 0.491464 1.49741 0
M  V30 3776 C 358.946 -0.0565092 2.02721 0
M  V30 3777 C 359.279 -1.37522 1.37118 0
M  V30 3778 O 358.554 -1.87866 0.503645 0
M  V30 3779 C 358.837 -0.219051 3.59433 0
M  V30 3780 C 358.69 1.12211 4.35579 0
M  V30 3781 C 360.009 -0.964157 4.29409 0
M  V30 3782 H 357.128 -0.0190627 0.736753 0
M  V30 3783 H 359.77 0.641021 1.7886 0
M  V30 3784 H 357.92 -0.813165 3.79895 0
M  V30 3785 H 359.592 1.75437 4.26637 0
M  V30 3786 H 357.835 1.71377 3.98513 0
M  V30 3787 H 358.506 0.961794 5.43556 0
M  V30 3788 H 360.982 -0.460378 4.13545 0
M  V30 3789 H 359.858 -1.04671 5.38828 0
M  V30 3790 H 360.119 -2.00563 3.93988 0
M  V30 3791 N 359.178 -1.55987 0.224894 0
M  V30 3792 C 360.125 -2.20436 -0.68385 0
M  V30 3793 C 361.095 -1.16102 -1.18783 0
M  V30 3794 O 362.28 -1.4447 -1.24632 0
M  V30 3795 C 359.42 -2.89076 -1.88491 0
M  V30 3796 C 358.533 -4.08012 -1.41951 0
M  V30 3797 C 357.668 -4.64426 -2.5784 0
M  V30 3798 C 356.707 -5.75656 -2.08053 0
M  V30 3799 N 355.844 -6.26347 -3.17227 0
M  V30 3800 H 360.684 -2.97727 -0.12754 0
M  V30 3801 H 358.221 -1.47011 -0.0511978 0
M  V30 3802 H 360.179 -3.27059 -2.59014 0
M  V30 3803 H 358.809 -2.14298 -2.41405 0
M  V30 3804 H 357.861 -3.75492 -0.609095 0
M  V30 3805 H 359.173 -4.88375 -1.01447 0
M  V30 3806 H 358.327 -5.04869 -3.3644 0
M  V30 3807 H 357.066 -3.83233 -3.01635 0
M  V30 3808 H 356.071 -5.34712 -1.27916 0
M  V30 3809 H 357.296 -6.58686 -1.65255 0
M  V30 3810 H 355.242 -5.48067 -3.60497 0
M  V30 3811 H 355.159 -7.01843 -2.80986 0
M  V30 3812 H 356.427 -6.71447 -3.95953 0
M  V30 3813 N 360.656 0.0484629 -1.57525 0
M  V30 3814 C 361.881 0.759177 -1.93006 0
M  V30 3815 C 362.306 1.69125 -0.823317 0
M  V30 3816 O 361.664 1.79931 0.222364 0
M  V30 3817 C 361.712 1.50899 -3.27509 0
M  V30 3818 O 360.816 2.62112 -3.18388 0
M  V30 3819 H 360.157 0.205564 -0.631379 0
M  V30 3820 H 362.687 0.00972959 -2.04598 0
M  V30 3821 H 362.697 1.88317 -3.6194 0
M  V30 3822 H 361.372 0.825269 -4.0763 0
M  V30 3823 H 359.949 2.27379 -2.95556 0
M  V30 3824 N 362.134 1.5431 0.320358 0
M  V30 3825 C 363.359 1.76954 1.08175 0
M  V30 3826 C 363.784 0.518193 1.80821 0
M  V30 3827 O 363.142 -0.530411 1.73368 0
M  V30 3828 C 363.19 2.96451 2.05303 0
M  V30 3829 O 362.294 2.68221 3.13259 0
M  V30 3830 H 361.635 0.586275 0.311733 0
M  V30 3831 H 364.165 2.01342 0.363676 0
M  V30 3832 H 364.175 3.23887 2.48116 0
M  V30 3833 H 362.85 3.87196 1.51829 0
M  V30 3834 H 361.427 2.51744 2.75099 0
M  V30 3835 N 363.613 -0.582584 1.46437 0
M  V30 3836 C 364.859 -1.34278 1.51978 0
M  V30 3837 C 365.192 -1.93446 0.170973 0
M  V30 3838 O 364.467 -1.76481 -0.817608 0
M  V30 3839 C 364.75 -2.47203 2.61845 0
M  V30 3840 C 364.603 -1.93069 4.06257 0
M  V30 3841 C 365.922 -3.49247 2.67795 0
M  V30 3842 H 363.041 -0.486876 0.553282 0
M  V30 3843 H 365.683 -0.654437 1.78374 0
M  V30 3844 H 363.833 -3.0592 2.39469 0
M  V30 3845 H 365.505 -1.38808 4.3992 0
M  V30 3846 H 363.748 -1.23898 4.1573 0
M  V30 3847 H 364.419 -2.74586 4.7886 0
M  V30 3848 H 366.895 -3.00411 2.8791 0
M  V30 3849 H 365.771 -4.25719 3.46489 0
M  V30 3850 H 366.032 -4.06482 1.73852 0
M  V30 3851 N 365.091 -1.34144 -0.827227 0
M  V30 3852 C 366.34 -1.25602 -1.5782 0
M  V30 3853 C 366.653 0.173445 -1.94829 0
M  V30 3854 O 367.859 0.380984 -2.68814 0
M  V30 3855 C 366.315 -2.20151 -2.84713 0
M  V30 3856 C 365.923 -3.68331 -2.55021 0
M  V30 3857 C 367.667 -2.20508 -3.62735 0
M  V30 3858 C 365.574 -4.54762 -3.78082 0
M  V30 3859 H 364.504 -0.466573 -0.592306 0
M  V30 3860 H 367.155 -1.59283 -0.911116 0
M  V30 3861 H 365.537 -1.79417 -3.53023 0
M  V30 3862 H 366.711 -4.17577 -1.94849 0
M  V30 3863 H 365.026 -3.7038 -1.90283 0
M  V30 3864 H 367.623 -2.82306 -4.54101 0
M  V30 3865 H 367.966 -1.20322 -3.98533 0
M  V30 3866 H 368.499 -2.59664 -3.01362 0
M  V30 3867 H 365.238 -5.55867 -3.47407 0
M  V30 3868 H 364.758 -4.10254 -4.37552 0
M  V30 3869 H 366.437 -4.69153 -4.45538 0
M  V30 3870 N 366.569 1.04691 -1.17803 0
M  V30 3871 C 367.846 1.7472 -0.879328 0
M  V30 3872 C 368.226 2.01812 0.619271 0
M  V30 3873 O 367.574 1.65824 1.57209 0
M  V30 3874 C 367.784 3.03686 -1.71976 0
M  V30 3875 C 369.132 3.77542 -1.94286 0
M  V30 3876 O 370.156 3.13569 -1.68976 0
M  V30 3877 O 369.015 4.92506 -2.36855 0
M  V30 3878 H 366.109 0.760011 -0.326056 0
M  V30 3879 H 368.655 1.10813 -1.28525 0
M  V30 3880 H 367.427 2.79754 -2.73594 0
M  V30 3881 H 367.05 3.75332 -1.31194 0
M  V30 3882 N 368.047 0.979072 1.23499 0
M  V30 3883 C 368.98 0.463027 2.23453 0
M  V30 3884 C 369.958 -0.469128 1.55685 0
M  V30 3885 O 371.142 -0.397882 1.84253 0
M  V30 3886 C 368.269 -0.330308 3.37086 0
M  V30 3887 C 367.315 0.545795 4.22993 0
M  V30 3888 S 368.148 1.99285 4.97037 0
M  V30 3889 C 369.304 1.20862 6.1412 0
M  V30 3890 H 369.537 1.31005 2.6688 0
M  V30 3891 H 367.07 0.784965 1.32957 0
M  V30 3892 H 369.028 -0.782027 4.02982 0
M  V30 3893 H 367.689 -1.15244 2.92194 0
M  V30 3894 H 366.882 -0.0638928 5.03959 0
M  V30 3895 H 366.484 0.933705 3.62157 0
M  V30 3896 H 368.776 0.469284 6.75873 0
M  V30 3897 H 369.719 1.99307 6.79472 0
M  V30 3898 H 370.127 0.727992 5.59786 0
M  V30 3899 N 369.525 -1.3858 0.750561 0
M  V30 3900 C 370.488 -2.28836 0.129152 0
M  V30 3901 C 371.488 -1.47045 -0.650714 0
M  V30 3902 O 372.678 -1.6753 -0.477428 0
M  V30 3903 C 369.81 -3.30751 -0.825622 0
M  V30 3904 H 371.003 -2.85294 0.924516 0
M  V30 3905 H 368.556 -1.47489 0.517376 0
M  V30 3906 H 369.291 -2.79378 -1.64677 0
M  V30 3907 H 369.076 -3.91177 -0.268852 0
M  V30 3908 H 370.566 -3.98249 -1.2565 0
M  V30 3909 N 371.003 -0.499398 -1.49478 0
M  V30 3910 C 372.419 -0.155261 -1.58843 0
M  V30 3911 C 372.619 1.34008 -1.50479 0
M  V30 3912 O 371.675 2.11589 -1.37791 0
M  V30 3913 C 372.988 -0.730636 -2.91689 0
M  V30 3914 C 374.536 -0.696599 -3.0515 0
M  V30 3915 C 375.011 -1.25001 -4.40612 0
M  V30 3916 N 376.502 -1.21064 -4.47099 0
M  V30 3917 C 377.237 -1.60905 -5.50361 0
M  V30 3918 N 376.733 -2.08331 -6.60735 0
M  V30 3919 N 378.526 -1.52331 -5.41065 0
M  V30 3920 H 370.677 -1.47162 -1.53158 0
M  V30 3921 H 372.94 -0.610309 -0.725415 0
M  V30 3922 H 372.646 -1.77928 -3.03372 0
M  V30 3923 H 372.52 -0.190161 -3.7672 0
M  V30 3924 H 374.907 0.343204 -2.93097 0
M  V30 3925 H 374.988 -1.2742 -2.21806 0
M  V30 3926 H 374.632 -2.28859 -4.53416 0
M  V30 3927 H 374.562 -0.64836 -5.22593 0
M  V30 3928 H 377.053 -0.863128 -3.67911 0
M  V30 3929 H 377.366 -2.36805 -7.35624 0
M  V30 3930 H 375.711 -2.12304 -6.6178 0
M  V30 3931 H 378.902 -1.151 -4.53729 0
M  V30 3932 H 379.075 -1.83704 -6.21415 0
M  V30 3933 N 372.481 1.55866 -0.233164 0
M  V30 3934 C 373.727 1.99643 0.389148 0
M  V30 3935 C 374.082 1.11836 1.56558 0
M  V30 3936 O 373.375 0.170848 1.90837 0
M  V30 3937 C 373.569 3.46856 0.861724 0
M  V30 3938 C 373.398 4.48904 -0.267376 0
M  V30 3939 C 372.168 4.99888 -0.737577 0
M  V30 3940 C 374.366 5.02624 -1.08966 0
M  V30 3941 N 372.348 5.8566 -1.84052 0
M  V30 3942 C 373.719 5.85434 -2.04125 0
M  V30 3943 C 375.774 4.84959 -1.12779 0
M  V30 3944 C 374.477 6.52466 -3.02789 0
M  V30 3945 C 376.503 5.52759 -2.10266 0
M  V30 3946 C 375.865 6.35346 -3.04162 0
M  V30 3947 H 371.964 0.774402 0.108742 0
M  V30 3948 H 374.548 1.91572 -0.347596 0
M  V30 3949 H 372.719 3.55352 1.5678 0
M  V30 3950 H 374.451 3.77531 1.45783 0
M  V30 3951 H 371.206 4.7249 -0.324122 0
M  V30 3952 H 371.63 6.33246 -2.39434 0
M  V30 3953 H 376.272 4.20751 -0.415749 0
M  V30 3954 H 373.99 7.15849 -3.74948 0
M  V30 3955 H 377.576 5.41051 -2.13905 0
M  V30 3956 H 376.456 6.86883 -3.78366 0
M  V30 3957 N 373.959 -0.0401083 1.57549 0
M  V30 3958 C 375.205 -0.734211 1.89043 0
M  V30 3959 C 375.538 -1.75591 0.829535 0
M  V30 3960 O 374.813 -1.93868 -0.156706 0
M  V30 3961 C 375.096 -1.41374 3.31188 0
M  V30 3962 C 374.949 -0.406299 4.47961 0
M  V30 3963 C 376.268 -2.35061 3.72068 0
M  V30 3964 H 373.387 -0.265447 0.687537 0
M  V30 3965 H 376.029 0.00294087 1.9 0
M  V30 3966 H 374.179 -2.04206 3.30503 0
M  V30 3967 H 375.851 0.219255 4.60779 0
M  V30 3968 H 374.094 0.275485 4.32924 0
M  V30 3969 H 374.765 -0.920022 5.44279 0
M  V30 3970 H 377.241 -1.82282 3.74049 0
M  V30 3971 H 376.117 -2.79593 4.72355 0
M  V30 3972 H 376.378 -3.21258 3.0372 0
M  V30 3973 N 375.437 -1.54477 -0.31217 0
M  V30 3974 C 376.369 -1.81011 -1.40598 0
M  V30 3975 C 377.382 -0.692546 -1.47335 0
M  V30 3976 O 378.571 -0.969847 -1.49854 0
M  V30 3977 C 375.671 -1.92307 -2.79054 0
M  V30 3978 C 374.844 -3.22594 -2.95384 0
M  V30 3979 C 373.903 -3.24448 -4.1427 0
M  V30 3980 O 372.929 -3.98035 -4.06887 0
M  V30 3981 N 374.131 -2.49042 -5.24365 0
M  V30 3982 H 376.896 -2.75408 -1.18196 0
M  V30 3983 H 374.457 -1.53914 -0.502202 0
M  V30 3984 H 376.449 -1.90962 -3.56813 0
M  V30 3985 H 375.019 -1.04955 -2.94454 0
M  V30 3986 H 374.239 -3.36806 -2.04831 0
M  V30 3987 H 375.527 -4.08593 -3.03198 0
M  V30 3988 H 374.925 -1.88867 -5.33241 0
M  V30 3989 H 373.482 -2.53463 -6.005 0
M  V30 3990 N 376.915 0.57481 -1.46744 0
M  V30 3991 C 377.878 1.66533 -1.57478 0
M  V30 3992 C 378.878 1.54338 -0.451263 0
M  V30 3993 O 380.068 1.58814 -0.715813 0
M  V30 3994 C 377.2 3.05999 -1.50259 0
M  V30 3995 H 378.393 1.58372 -2.54673 0
M  V30 3996 H 375.946 0.793301 -1.34672 0
M  V30 3997 H 376.681 3.19709 -0.543725 0
M  V30 3998 H 376.466 3.16259 -2.31781 0
M  V30 3999 H 377.956 3.8537 -1.60872 0
M  V30 4000 N 378.394 1.34581 0.820102 0
M  V30 4001 C 379.342 1.26401 1.95258 0
M  V30 4002 C 380.336 0.161553 1.68628 0
M  V30 4003 O 381.542 0.326703 1.7701 0
M  V30 4004 H 377.917 0.392749 0.64129 0
M  V30 4005 H 379.888 2.22105 1.99279 0
M  V30 4006 C 378.637 1.03919 3.31807 0
M  V30 4007 H 377.96 1.87984 3.52848 0
M  V30 4008 H 379.4 1.02232 4.11491 0
M  V30 4009 C 377.859 -0.257433 3.35915 0
M  V30 4010 O 378.389 -1.25784 3.81499 0
M  V30 4011 N 376.595 -0.291524 2.89134 0
M  V30 4012 H 376.142 0.523161 2.52232 0
M  V30 4013 H 376.1 -1.15883 2.92264 0
M  V30 4014 N 379.872 -1.04064 1.18357 0
M  V30 4015 C 380.805 -2.11618 0.854 0
M  V30 4016 C 381.783 -1.61555 -0.184043 0
M  V30 4017 O 382.967 -1.88395 -0.0630048 0
M  V30 4018 C 380.094 -3.37574 0.27597 0
M  V30 4019 C 379.14 -4.06485 1.2912 0
M  V30 4020 S 379.973 -4.53543 2.84709 0
M  V30 4021 C 381.129 -5.82732 2.28417 0
M  V30 4022 H 381.362 -2.39247 1.76488 0
M  V30 4023 H 378.895 -1.16832 1.00944 0
M  V30 4024 H 380.853 -4.10468 -0.051026 0
M  V30 4025 H 379.514 -3.0806 -0.613028 0
M  V30 4026 H 378.707 -4.97024 0.835633 0
M  V30 4027 H 378.309 -3.39708 1.56443 0
M  V30 4028 H 380.601 -6.56677 1.66677 0
M  V30 4029 H 381.544 -6.33052 3.17256 0
M  V30 4030 H 381.952 -5.37838 1.71436 0
M  V30 4031 N 381.35 -0.985608 -1.22978 0
M  V30 4032 C 382.627 -0.573599 -1.87001 0
M  V30 4033 C 383.007 0.949213 -1.88555 0
M  V30 4034 O 382.355 1.82811 -1.37086 0
M  V30 4035 C 382.565 -1.18564 -3.28243 0
M  V30 4036 C 383.913 -1.28163 -4.04796 0
M  V30 4037 O 384.937 -1.13949 -3.37482 0
M  V30 4038 O 383.796 -1.50832 -5.25273 0
M  V30 4039 H 380.89 -0.193868 -0.803955 0
M  V30 4040 H 383.436 -1.08102 -1.30813 0
M  V30 4041 H 382.208 -2.22758 -3.21706 0
M  V30 4042 H 381.831 -0.663363 -3.92027 0
M  V30 4043 N 382.828 1.3818 -0.7579 0
M  V30 4044 C 383.791 2.28764 -0.141286 0
M  V30 4045 C 384.791 1.47388 0.642907 0
M  V30 4046 O 385.981 1.67781 0.468536 0
M  V30 4047 C 383.113 3.31184 0.808069 0
M  V30 4048 H 384.306 2.848 -0.939633 0
M  V30 4049 H 381.859 1.47212 -0.525191 0
M  V30 4050 H 382.594 2.80247 1.63193 0
M  V30 4051 H 382.379 3.91314 0.248104 0
M  V30 4052 H 383.869 3.98909 1.23536 0
M  V30 4053 N 384.306 0.507319 1.49211 0
M  V30 4054 C 385.531 -0.033725 2.07373 0
M  V30 4055 C 385.956 -1.29485 1.36437 0
M  V30 4056 O 385.314 -1.76294 0.423087 0
M  V30 4057 C 385.362 -0.263945 3.59633 0
M  V30 4058 O 384.466 -1.33737 3.90113 0
M  V30 4059 H 383.807 0.0290331 0.663365 0
M  V30 4060 H 386.337 0.708749 1.91932 0
M  V30 4061 H 386.347 -0.493536 4.05004 0
M  V30 4062 H 385.022 0.657424 4.10671 0
M  V30 4063 H 383.599 -1.09224 3.56545 0
M  V30 4064 N 385.784 -1.5574 0.241426 0
M  V30 4065 C 386.734 -2.17803 -0.674233 0
M  V30 4066 C 387.718 -1.13225 -1.14319 0
M  V30 4067 O 388.91 -1.39153 -1.09387 0
M  V30 4068 C 386.039 -2.87682 -1.87333 0
M  V30 4069 C 385.125 -3.99509 -1.42313 0
M  V30 4070 N 385.516 -5.01115 -0.686798 0
M  V30 4071 C 383.814 -4.11964 -1.70885 0
M  V30 4072 C 384.515 -5.79922 -0.454456 0
M  V30 4073 N 383.491 -5.34001 -1.01705 0
M  V30 4074 H 387.293 -2.93718 -0.103447 0
M  V30 4075 H 384.807 -1.62342 0.0435095 0
M  V30 4076 H 386.804 -3.3057 -2.54026 0
M  V30 4077 H 385.464 -2.13269 -2.4484 0
M  V30 4078 H 386.475 -5.16799 -0.337459 0
M  V30 4079 H 383.152 -3.48718 -2.2957 0
M  V30 4080 H 384.542 -6.71768 0.132992 0
M  V30 4081 N 387.262 0.0317525 -1.57568 0
M  V30 4082 C 388.508 0.724175 -1.8943 0
M  V30 4083 C 388.841 1.75149 -0.838836 0
M  V30 4084 O 388.116 1.93948 0.146422 0
M  V30 4085 C 388.399 1.39615 -3.31933 0
M  V30 4086 C 388.252 0.382537 -4.4817 0
M  V30 4087 C 389.571 2.33084 -3.73309 0
M  V30 4088 H 386.69 0.261797 -0.688935 0
M  V30 4089 H 389.332 -0.013017 -1.89996 0
M  V30 4090 H 387.482 2.02451 -3.31581 0
M  V30 4091 H 389.154 -0.243689 -4.60656 0
M  V30 4092 H 387.397 -0.29844 -4.32772 0
M  V30 4093 H 388.068 0.891145 -5.44759 0
M  V30 4094 H 390.544 1.80295 -3.7501 0
M  V30 4095 H 389.42 2.77084 -4.73831 0
M  V30 4096 H 389.681 3.19643 -3.05419 0
M  V30 4097 N 388.74 1.54641 0.303973 0
M  V30 4098 C 389.672 1.81754 1.39636 0
M  V30 4099 C 390.685 0.70035 1.46966 0
M  V30 4100 O 391.874 0.97778 1.49338 0
M  V30 4101 C 388.974 1.93785 2.7803 0
M  V30 4102 C 388.147 3.24156 2.93669 0
M  V30 4103 C 387.206 3.26641 4.12544 0
M  V30 4104 O 386.232 4.00187 4.04771 0
M  V30 4105 N 387.434 2.5182 5.23036 0
M  V30 4106 H 390.199 2.76031 1.16734 0
M  V30 4107 H 387.76 1.54178 0.494033 0
M  V30 4108 H 389.752 1.92852 3.55795 0
M  V30 4109 H 388.322 1.06515 2.93893 0
M  V30 4110 H 387.542 3.37887 2.03042 0
M  V30 4111 H 388.83 4.10195 3.01027 0
M  V30 4112 H 388.228 1.91692 5.32232 0
M  V30 4113 H 386.785 2.56644 5.99147 0
M  V30 4114 N 390.218 -0.567019 1.47046 0
M  V30 4115 C 391.128 -1.70247 1.6141 0
M  V30 4116 C 392.144 -1.66746 0.497157 0
M  V30 4117 O 393.32 -1.86371 0.763389 0
M  V30 4118 C 390.385 -3.06756 1.61561 0
M  V30 4119 C 389.446 -3.21399 2.84607 0
M  V30 4120 C 388.679 -4.51396 2.84741 0
M  V30 4121 O 388.902 -5.36255 1.94388 0
M  V30 4122 O 387.836 -4.69621 3.76483 0
M  V30 4123 H 391.662 -1.61073 2.57467 0
M  V30 4124 H 389.247 -0.735894 1.30019 0
M  V30 4125 H 391.129 -3.8801 1.64396 0
M  V30 4126 H 389.804 -3.16333 0.686684 0
M  V30 4127 H 388.711 -2.39579 2.8732 0
M  V30 4128 H 390.044 -3.16721 3.76761 0
M  V30 4129 N 391.696 -1.35014 -0.812953 0
M  V30 4130 C 392.643 -1.27412 -1.92444 0
M  V30 4131 C 393.613 -0.14733 -1.65445 0
M  V30 4132 O 394.798 -0.329974 -1.87925 0
M  V30 4133 C 391.938 -1.04558 -3.28879 0
M  V30 4134 C 391.051 -2.26101 -3.68106 0
M  V30 4135 C 390.186 -1.96449 -4.9354 0
M  V30 4136 C 389.225 -3.14081 -5.25376 0
M  V30 4137 N 388.362 -2.84246 -6.41988 0
M  V30 4138 H 393.202 -2.22463 -1.98278 0
M  V30 4139 H 390.739 -1.10593 -0.969933 0
M  V30 4140 H 392.697 -0.893413 -4.07522 0
M  V30 4141 H 391.327 -0.131719 -3.22531 0
M  V30 4142 H 390.379 -2.52204 -2.84775 0
M  V30 4143 H 391.691 -3.13959 -3.87597 0
M  V30 4144 H 390.845 -1.78026 -5.79993 0
M  V30 4145 H 389.584 -1.05867 -4.76071 0
M  V30 4146 H 388.589 -3.33089 -4.37415 0
M  V30 4147 H 389.814 -4.05455 -5.44778 0
M  V30 4148 H 387.76 -1.96252 -6.25956 0
M  V30 4149 H 387.677 -3.65637 -6.61699 0
M  V30 4150 H 388.945 -2.6935 -7.31485 0
M  V30 4151 N 393.175 1.03435 -1.18907 0
M  V30 4152 C 394.403 1.80381 -1.01342 0
M  V30 4153 C 394.818 1.83649 0.438005 0
M  V30 4154 O 394.175 1.27655 1.30424 0
M  V30 4155 C 394.226 3.25689 -1.56873 0
M  V30 4156 O 393.947 3.22673 -2.96334 0
M  V30 4157 C 395.448 4.19255 -1.44014 0
M  V30 4158 H 392.668 0.56784 -0.35749 0
M  V30 4159 H 395.212 1.30317 -1.576 0
M  V30 4160 H 393.367 3.72962 -1.04777 0
M  V30 4161 H 393.781 4.13748 -3.22355 0
M  V30 4162 H 395.255 5.19123 -1.87657 0
M  V30 4163 H 395.732 4.37467 -0.389815 0
M  V30 4164 H 396.338 3.77851 -1.95214 0
M  V30 4165 N 394.653 0.992116 1.22453 0
M  V30 4166 C 395.583 0.561677 2.26644 0
M  V30 4167 C 396.564 -0.411055 1.65059 0
M  V30 4168 O 397.749 -0.301861 1.9184 0
M  V30 4169 C 394.879 -0.125247 3.47074 0
M  V30 4170 C 393.833 0.765948 4.21091 0
M  V30 4171 C 393.159 -0.0538484 5.34673 0
M  V30 4172 C 394.459 2.06242 4.79856 0
M  V30 4173 H 396.153 1.43259 2.62902 0
M  V30 4174 H 393.699 0.690283 1.26377 0
M  V30 4175 H 395.652 -0.437764 4.1912 0
M  V30 4176 H 394.376 -1.03069 3.0991 0
M  V30 4177 H 393.035 1.0621 3.50878 0
M  V30 4178 H 392.683 -0.960188 4.9375 0
M  V30 4179 H 392.383 0.539415 5.85119 0
M  V30 4180 H 393.907 -0.360477 6.09535 0
M  V30 4181 H 395.321 1.8139 5.43848 0
M  V30 4182 H 393.718 2.60444 5.40638 0
M  V30 4183 H 394.788 2.74167 3.99951 0
M  V30 4184 N 396.131 -1.37776 0.765217 0
M  V30 4185 C 397.063 -2.28958 0.105361 0
M  V30 4186 C 398.076 -1.48316 -0.67128 0
M  V30 4187 O 399.265 -1.71046 -0.51045 0
M  V30 4188 C 396.365 -3.27421 -0.874569 0
M  V30 4189 C 395.538 -4.37132 -0.153123 0
M  V30 4190 C 394.597 -5.1571 -1.04547 0
M  V30 4191 O 393.623 -5.66896 -0.511672 0
M  V30 4192 N 394.825 -5.29808 -2.37243 0
M  V30 4193 H 397.59 -2.86227 0.888495 0
M  V30 4194 H 395.151 -1.49682 0.617 0
M  V30 4195 H 397.143 -3.7687 -1.47483 0
M  V30 4196 H 395.713 -2.70967 -1.55871 0
M  V30 4197 H 394.933 -3.89166 0.627975 0
M  V30 4198 H 396.221 -5.07625 0.345643 0
M  V30 4199 H 395.619 -4.89793 -2.83054 0
M  V30 4200 H 394.176 -5.82589 -2.9229 0
M  V30 4201 N 397.609 -0.515225 -1.4894 0
M  V30 4202 C 398.541 0.292481 -2.27326 0
M  V30 4203 C 399.554 0.917838 -1.3446 0
M  V30 4204 O 400.743 0.798772 -1.5963 0
M  V30 4205 C 397.843 1.42803 -3.07344 0
M  V30 4206 C 397.016 0.907347 -4.27885 0
M  V30 4207 C 396.075 1.92222 -4.89834 0
M  V30 4208 O 395.101 1.48506 -5.49486 0
M  V30 4209 N 396.303 3.25355 -4.80754 0
M  V30 4210 H 399.068 -0.379721 -2.97285 0
M  V30 4211 H 396.629 -0.348638 -1.58102 0
M  V30 4212 H 398.621 2.10481 -3.45658 0
M  V30 4213 H 397.191 2.00414 -2.39902 0
M  V30 4214 H 396.411 0.0550218 -3.94162 0
M  V30 4215 H 397.699 0.538108 -5.05946 0
M  V30 4216 H 397.097 3.6355 -4.33414 0
M  V30 4217 H 395.654 3.88707 -5.23211 0
M  V30 4218 N 399.087 1.5561 -0.249682 0
M  V30 4219 C 400.335 1.98618 0.373548 0
M  V30 4220 C 400.656 1.13919 1.58264 0
M  V30 4221 O 399.926 0.222637 1.94631 0
M  V30 4222 H 398.506 0.733571 0.141006 0
M  V30 4223 H 401.168 1.91748 -0.349117 0
M  V30 4224 H 400.264 3.04584 0.680796 0
M  V30 4225 N 400.565 -0.0233959 1.57583 0
M  V30 4226 C 401.814 -0.712133 1.8871 0
M  V30 4227 C 402.127 -1.76217 0.848944 0
M  V30 4228 O 403.333 -2.50389 1.04964 0
M  V30 4229 C 401.789 -1.3177 3.3491 0
M  V30 4230 C 401.397 -0.303715 4.46969 0
M  V30 4231 C 403.141 -1.98598 3.75179 0
M  V30 4232 C 401.048 -0.917945 5.84233 0
M  V30 4233 H 399.978 -0.269735 0.704101 0
M  V30 4234 H 402.629 0.0333114 1.8347 0
M  V30 4235 H 401.011 -2.11304 3.34913 0
M  V30 4236 H 402.185 0.465325 4.58445 0
M  V30 4237 H 400.5 0.2628 4.1557 0
M  V30 4238 H 403.097 -2.45416 4.75053 0
M  V30 4239 H 403.44 -2.80659 3.07468 0
M  V30 4240 H 403.973 -1.25831 3.77374 0
M  V30 4241 H 400.712 -0.136633 6.55358 0
M  V30 4242 H 400.232 -1.65669 5.76467 0
M  V30 4243 H 401.911 -1.4236 6.31144 0
M  V30 4244 N 402.043 -1.548 -0.295768 0
M  V30 4245 C 402.953 -1.89177 -1.38742 0
M  V30 4246 C 403.969 -0.786481 -1.55211 0
M  V30 4247 O 405.145 -1.08344 -1.69775 0
M  V30 4248 C 402.21 -2.13663 -2.73036 0
M  V30 4249 C 401.271 -3.37349 -2.65508 0
M  V30 4250 C 400.504 -3.60658 -3.93398 0
M  V30 4251 O 400.727 -2.86882 -4.93006 0
M  V30 4252 O 399.661 -4.54179 -3.94975 0
M  V30 4253 H 403.487 -2.82059 -1.12589 0
M  V30 4254 H 401.072 -1.41056 -0.492295 0
M  V30 4255 H 402.954 -2.3094 -3.52484 0
M  V30 4256 H 401.629 -1.23967 -2.99022 0
M  V30 4257 H 400.536 -3.25431 -1.84514 0
M  V30 4258 H 401.869 -4.27192 -2.44474 0
M  V30 4259 N 403.521 0.559213 -1.47345 0
M  V30 4260 C 404.451 1.67622 -1.62558 0
M  V30 4261 C 405.432 1.63331 -0.475087 0
M  V30 4262 O 406.617 1.80983 -0.704182 0
M  V30 4263 C 403.747 3.0626 -1.63774 0
M  V30 4264 C 402.701 3.25397 -2.7803 0
M  V30 4265 C 402.027 4.64801 -2.64318 0
M  V30 4266 C 403.327 3.10965 -4.19641 0
M  V30 4267 H 405.021 1.55146 -2.56067 0
M  V30 4268 H 402.567 0.744961 -1.23233 0
M  V30 4269 H 404.52 3.84247 -1.73008 0
M  V30 4270 H 403.244 3.1969 -0.66825 0
M  V30 4271 H 401.903 2.49817 -2.68304 0
M  V30 4272 H 401.551 4.75028 -1.65401 0
M  V30 4273 H 401.251 4.78555 -3.40968 0
M  V30 4274 H 402.775 5.44926 -2.75478 0
M  V30 4275 H 404.189 3.78772 -4.30354 0
M  V30 4276 H 402.586 3.36229 -4.97062 0
M  V30 4277 H 403.656 2.07736 -4.38148 0
M  V30 4278 N 404.999 1.35443 0.805782 0
M  V30 4279 C 405.962 1.28301 1.89925 0
M  V30 4280 C 406.962 0.194285 1.59622 0
M  V30 4281 O 408.152 0.448036 1.6834 0
M  V30 4282 C 405.284 0.984997 3.2636 0
M  V30 4283 H 406.477 2.2553 1.97677 0
M  V30 4284 H 404.03 1.19979 1.00173 0
M  V30 4285 H 404.765 0.016603 3.24296 0
M  V30 4286 H 404.55 1.77269 3.4974 0
M  V30 4287 H 406.04 0.960651 4.064 0
M  V30 4288 N 406.477 -1.02803 1.19454 0
M  V30 4289 C 407.409 -2.11181 0.890807 0
M  V30 4290 C 408.422 -1.6238 -0.116829 0
M  V30 4291 O 409.611 -1.78144 0.112694 0
M  V30 4292 C 406.711 -3.37461 0.311942 0
M  V30 4293 C 405.884 -4.15446 1.36834 0
M  V30 4294 C 404.943 -5.20039 0.802864 0
M  V30 4295 O 403.969 -5.49602 1.48077 0
M  V30 4296 N 405.171 -5.79165 -0.393417 0
M  V30 4297 H 407.936 -2.37827 1.82369 0
M  V30 4298 H 405.497 -1.19101 1.09666 0
M  V30 4299 H 407.489 -4.0462 -0.0802225 0
M  V30 4300 H 406.059 -3.08156 -0.52524 0
M  V30 4301 H 405.279 -3.43423 1.93531 0
M  V30 4302 H 406.567 -4.64335 2.08015 0
M  V30 4303 H 405.965 -5.57466 -0.961658 0
M  V30 4304 H 404.522 -6.47729 -0.727351 0
M  V30 4305 N 407.956 -0.998596 -1.21925 0
M  V30 4306 C 409.181 -0.696015 -1.95372 0
M  V30 4307 C 409.606 0.733826 -1.73195 0
M  V30 4308 O 408.964 1.50242 -1.01474 0
M  V30 4309 C 409.012 -1.01466 -3.4603 0
M  V30 4310 O 408.116 -0.116415 -4.12236 0
M  V30 4311 H 407.457 -0.259938 -0.611006 0
M  V30 4312 H 409.987 -1.33711 -1.54863 0
M  V30 4313 H 409.997 -0.958855 -3.96573 0
M  V30 4314 H 408.672 -2.05653 -3.61497 0
M  V30 4315 H 407.249 -0.228193 -3.72201 0
M  V30 4316 N 409.434 1.37368 -0.772513 0
M  V30 4317 C 410.85 1.53059 -0.452231 0
M  V30 4318 C 411.05 1.73065 1.03203 0
M  V30 4319 O 410.106 1.75245 1.81784 0
M  V30 4320 C 411.419 2.72659 -1.26797 0
M  V30 4321 C 412.967 2.86521 -1.25995 0
M  V30 4322 C 413.442 4.09105 -2.05905 0
M  V30 4323 N 414.933 4.16219 -2.03263 0
M  V30 4324 C 415.668 5.10107 -2.61875 0
M  V30 4325 N 415.164 6.09547 -3.29278 0
M  V30 4326 N 416.957 5.02596 -2.51701 0
M  V30 4327 H 409.108 1.22634 -1.7342 0
M  V30 4328 H 411.371 0.597206 -0.736239 0
M  V30 4329 H 411.077 2.64343 -2.31982 0
M  V30 4330 H 410.951 3.66363 -0.897672 0
M  V30 4331 H 413.338 2.94308 -0.216081 0
M  V30 4332 H 413.419 1.93774 -1.66989 0
M  V30 4333 H 413.063 4.0208 -3.10313 0
M  V30 4334 H 412.993 5.00968 -1.62292 0
M  V30 4335 H 415.484 3.45012 -1.54192 0
M  V30 4336 H 415.797 6.77718 -3.71374 0
M  V30 4337 H 414.142 6.09824 -3.33377 0
M  V30 4338 H 417.333 4.23855 -1.98657 0
M  V30 4339 H 417.506 5.75582 -2.97673 0
M  V30 4340 N 410.912 0.523116 1.48665 0
M  V30 4341 C 412.142 -0.00961724 2.06598 0
M  V30 4342 C 412.55 -1.29333 1.38093 0
M  V30 4343 O 411.893 -1.77846 0.46007 0
M  V30 4344 C 411.955 -0.311135 3.58151 0
M  V30 4345 C 411.619 0.878092 4.48485 0
M  V30 4346 C 412.616 1.77464 4.88674 0
M  V30 4347 C 410.301 1.08315 4.90483 0
M  V30 4348 C 412.295 2.86021 5.69623 0
M  V30 4349 C 409.982 2.17187 5.71203 0
M  V30 4350 C 410.98 3.05873 6.10681 0
M  V30 4351 O 410.668 4.12862 6.89783 0
M  V30 4352 H 410.4 0.0272658 0.67545 0
M  V30 4353 H 412.954 0.726156 1.92136 0
M  V30 4354 H 411.184 -1.10079 3.70701 0
M  V30 4355 H 412.873 -0.785125 3.98234 0
M  V30 4356 H 413.639 1.62813 4.56855 0
M  V30 4357 H 409.518 0.402149 4.59243 0
M  V30 4358 H 413.062 3.55272 6.00356 0
M  V30 4359 H 408.959 2.31824 6.02435 0
M  V30 4360 H 409.727 4.10487 7.08126 0
M  V30 4361 N 412.39 -1.55475 0.257931 0
M  V30 4362 C 413.636 -2.00237 -0.357338 0
M  V30 4363 C 413.991 -1.14313 -1.54759 0
M  V30 4364 O 413.284 -0.201187 -1.90541 0
M  V30 4365 C 413.478 -3.48183 -0.806433 0
M  V30 4366 C 413.307 -4.48422 0.338758 0
M  V30 4367 C 412.077 -4.98651 0.817011 0
M  V30 4368 C 414.275 -5.00827 1.16949 0
M  V30 4369 N 412.257 -5.82658 1.93346 0
M  V30 4370 C 413.628 -5.82113 2.13413 0
M  V30 4371 C 415.683 -4.83104 1.2048 0
M  V30 4372 C 414.386 -6.47566 3.13131 0
M  V30 4373 C 416.412 -5.49343 2.19034 0
M  V30 4374 C 415.774 -6.30427 3.14232 0
M  V30 4375 H 411.873 -0.776034 -0.0964083 0
M  V30 4376 H 414.457 -1.90995 0.37803 0
M  V30 4377 H 412.628 -3.57801 -1.51107 0
M  V30 4378 H 414.36 -3.79802 -1.39758 0
M  V30 4379 H 411.115 -4.71914 0.39925 0
M  V30 4380 H 411.539 -6.29356 2.49478 0
M  V30 4381 H 416.181 -4.20036 0.482634 0
M  V30 4382 H 413.899 -7.09793 3.8629 0
M  V30 4383 H 417.485 -5.37579 2.22485 0
M  V30 4384 H 416.365 -6.80777 3.89246 0
M  V30 4385 N 413.868 0.0150385 -1.57593 0
M  V30 4386 C 415.284 0.370907 -1.5523 0
M  V30 4387 C 415.484 1.75735 -0.985882 0
M  V30 4388 O 414.54 2.44944 -0.613077 0
M  V30 4389 C 415.853 0.259908 -2.99575 0
M  V30 4390 C 417.401 0.335959 -3.11192 0
M  V30 4391 C 417.876 0.254253 -4.57294 0
M  V30 4392 N 419.367 0.312618 -4.62144 0
M  V30 4393 C 420.102 0.272505 -5.72752 0
M  V30 4394 N 419.598 0.183864 -6.92556 0
M  V30 4395 N 421.391 0.323267 -5.6117 0
M  V30 4396 H 413.542 -0.892104 -1.92757 0
M  V30 4397 H 415.805 -0.340563 -0.884715 0
M  V30 4398 H 415.511 -0.693403 -3.44797 0
M  V30 4399 H 415.385 1.048 -3.62349 0
M  V30 4400 H 417.772 1.27971 -2.65909 0
M  V30 4401 H 417.853 -0.481739 -2.51223 0
M  V30 4402 H 417.497 -0.685887 -5.03247 0
M  V30 4403 H 417.427 1.09024 -5.15191 0
M  V30 4404 H 419.918 0.38307 -3.75953 0
M  V30 4405 H 420.231 0.15874 -7.72637 0
M  V30 4406 H 418.576 0.149708 -6.94839 0
M  V30 4407 H 421.767 0.390607 -4.66467 0
M  V30 4408 H 421.94 0.288539 -6.47357 0
M  V30 4409 N 415.346 1.54954 0.287554 0
M  V30 4410 C 416.595 1.74081 1.01877 0
M  V30 4411 C 416.908 0.541135 1.87966 0
M  V30 4412 O 418.114 0.614491 2.64455 0
M  V30 4413 C 416.57 3.08042 1.86113 0
M  V30 4414 C 416.178 4.35531 1.04961 0
M  V30 4415 C 417.922 3.36523 2.58752 0
M  V30 4416 C 415.829 5.60538 1.88551 0
M  V30 4417 H 414.759 0.64884 0.384087 0
M  V30 4418 H 417.41 1.81426 0.275101 0
M  V30 4419 H 415.792 2.94696 2.64519 0
M  V30 4420 H 416.966 4.59751 0.31074 0
M  V30 4421 H 415.281 4.14085 0.43843 0
M  V30 4422 H 417.878 4.27122 3.21668 0
M  V30 4423 H 418.221 2.56 3.28283 0
M  V30 4424 H 418.754 3.50901 1.87386 0
M  V30 4425 H 415.493 6.43767 1.23466 0
M  V30 4426 H 415.013 5.40483 2.60074 0
M  V30 4427 H 416.692 5.98297 2.46273 0
M  V30 4428 N 416.824 -0.551391 1.4764 0
M  V30 4429 C 418.072 -1.30572 1.54258 0
M  V30 4430 C 418.393 -1.93877 0.208963 0
M  V30 4431 O 417.663 -1.80234 -0.767619 0
M  V30 4432 H 416.243 -0.484894 0.568231 0
M  V30 4433 H 418.905 -0.643402 1.83974 0
M  V30 4434 H 418.001 -2.09621 2.31226 0
M  V30 4435 N 418.302 -1.35869 -0.798587 0
M  V30 4436 C 419.579 -1.20145 -1.54352 0
M  V30 4437 C 419.959 0.216161 -2.0999 0
M  V30 4438 O 419.307 1.22068 -1.93162 0
M  V30 4439 C 419.517 -2.27602 -2.64572 0
M  V30 4440 C 420.865 -2.63811 -3.32699 0
M  V30 4441 O 421.889 -2.26576 -2.74849 0
M  V30 4442 O 420.748 -3.27866 -4.37226 0
M  V30 4443 H 417.842 -0.467248 -0.682355 0
M  V30 4444 H 420.388 -1.47574 -0.837859 0
M  V30 4445 H 419.16 -3.2265 -2.21388 0
M  V30 4446 H 418.783 -2.01488 -3.42766 0
M  V30 4447 N 419.78 1.02168 -1.19998 0
M  V30 4448 C 420.713 2.10232 -0.887558 0
M  V30 4449 C 421.691 1.61827 0.158317 0
M  V30 4450 O 422.875 1.88471 0.0330249 0
M  V30 4451 C 420.002 3.37092 -0.32964 0
M  V30 4452 C 419.048 4.0438 -1.3557 0
M  V30 4453 S 419.881 4.48956 -2.91888 0
M  V30 4454 C 421.037 5.79024 -2.37658 0
M  V30 4455 H 421.27 2.36409 -1.80272 0
M  V30 4456 H 418.803 1.15211 -1.0279 0
M  V30 4457 H 420.761 4.10498 -0.0142824 0
M  V30 4458 H 419.422 3.08996 0.563941 0
M  V30 4459 H 418.615 4.95632 -0.9146 0
M  V30 4460 H 418.217 3.37176 -1.61828 0
M  V30 4461 H 420.509 6.53942 -1.77103 0
M  V30 4462 H 421.452 6.27924 -3.27287 0
M  V30 4463 H 421.86 5.35043 -1.79971 0
M  V30 4464 N 421.258 1.00505 1.21394 0
M  V30 4465 C 422.488 0.705584 1.94178 0
M  V30 4466 C 422.896 -0.735846 1.74304 0
M  V30 4467 O 422.239 -1.50954 1.04683 0
M  V30 4468 C 422.301 0.94689 3.46806 0
M  V30 4469 C 421.965 2.37517 3.90429 0
M  V30 4470 C 422.962 3.35539 3.97127 0
M  V30 4471 C 420.647 2.71284 4.22742 0
M  V30 4472 C 422.641 4.65395 4.3553 0
M  V30 4473 C 420.328 4.01356 4.60822 0
M  V30 4474 C 421.326 4.98223 4.67186 0
M  V30 4475 O 421.014 6.25969 5.04399 0
M  V30 4476 H 420.746 0.259216 0.624326 0
M  V30 4477 H 423.3 1.34592 1.55159 0
M  V30 4478 H 421.53 0.249386 3.85895 0
M  V30 4479 H 423.219 0.640804 4.0081 0
M  V30 4480 H 423.985 3.10786 3.7234 0
M  V30 4481 H 419.864 1.96581 4.16985 0
M  V30 4482 H 423.408 5.41002 4.40412 0
M  V30 4483 H 419.305 4.25893 4.85063 0
M  V30 4484 H 420.073 6.30085 5.22431 0
M  V30 4485 N 422.737 -1.36956 0.779787 0
M  V30 4486 C 423.669 -2.28833 0.129639 0
M  V30 4487 C 424.682 -1.4902 -0.655511 0
M  V30 4488 O 425.871 -1.71578 -0.492279 0
M  V30 4489 C 422.971 -3.2833 -0.839792 0
M  V30 4490 C 422.144 -4.3727 -0.10675 0
M  V30 4491 C 421.203 -5.16789 -0.990717 0
M  V30 4492 O 420.229 -5.67406 -0.451516 0
M  V30 4493 N 421.431 -5.32294 -2.3161 0
M  V30 4494 H 424.196 -2.85268 0.918803 0
M  V30 4495 H 421.757 -1.49019 0.632841 0
M  V30 4496 H 423.749 -3.78413 -1.43477 0
M  V30 4497 H 422.319 -2.72605 -1.52988 0
M  V30 4498 H 421.539 -3.88478 0.669216 0
M  V30 4499 H 422.827 -5.07229 0.399464 0
M  V30 4500 H 422.225 -4.92768 -2.77843 0
M  V30 4501 H 420.782 -5.85656 -2.86095 0
M  V30 4502 N 424.215 -0.530993 -1.48385 0
M  V30 4503 C 425.463 0.00273189 -2.021 0
M  V30 4504 C 425.784 1.34672 -1.41027 0
M  V30 4505 O 425.054 1.8724 -0.576012 0
M  V30 4506 H 423.634 0.00399774 -0.746989 0
M  V30 4507 H 426.296 -0.695054 -1.82085 0
M  V30 4508 H 425.392 0.11031 -3.11905 0
M  V30 4509 N 425.693 1.55336 -0.266172 0
M  V30 4510 C 426.623 2.25146 0.618981 0
M  V30 4511 C 427.604 1.23845 1.16604 0
M  V30 4512 O 428.789 1.52544 1.20183 0
M  V30 4513 C 425.919 2.96572 1.80728 0
M  V30 4514 C 424.873 4.04726 1.39215 0
M  V30 4515 C 424.199 4.63678 2.66283 0
M  V30 4516 C 425.499 5.19407 0.548942 0
M  V30 4517 H 427.193 2.99377 0.0368116 0
M  V30 4518 H 424.739 1.43991 0.0162651 0
M  V30 4519 H 426.692 3.44116 2.43232 0
M  V30 4520 H 425.416 2.19861 2.41514 0
M  V30 4521 H 424.075 3.57979 0.790351 0
M  V30 4522 H 423.723 3.83646 3.25308 0
M  V30 4523 H 423.423 5.367 2.39222 0
M  V30 4524 H 424.947 5.13967 3.29651 0
M  V30 4525 H 426.361 5.63059 1.07876 0
M  V30 4526 H 424.758 5.98936 0.373593 0
M  V30 4527 H 425.828 4.8295 -0.434394 0
M  V30 4528 N 427.171 -0.0066808 1.57599 0
M  V30 4529 C 428.419 -0.691552 1.899 0
M  V30 4530 C 428.74 -1.74682 0.866672 0
M  V30 4531 O 428.01 -1.95661 -0.0968189 0
M  V30 4532 H 426.59 -0.258416 0.700878 0
M  V30 4533 H 429.252 0.0326655 1.94873 0
M  V30 4534 H 428.348 -1.16702 2.8946 0
M  V30 4535 N 428.649 -1.55105 -0.279332 0
M  V30 4536 C 429.895 -1.76597 -1.00921 0
M  V30 4537 C 430.25 -0.556831 -1.84166 0
M  V30 4538 O 429.543 0.450573 -1.86227 0
M  V30 4539 C 429.737 -3.0086 -1.92919 0
M  V30 4540 C 429.566 -4.33744 -1.18728 0
M  V30 4541 C 428.336 -4.9712 -0.905545 0
M  V30 4542 C 430.534 -5.11009 -0.580857 0
M  V30 4543 N 428.516 -6.13749 -0.136169 0
M  V30 4544 C 429.887 -6.19976 0.0546661 0
M  V30 4545 C 431.942 -4.95502 -0.488067 0
M  V30 4546 C 430.645 -7.15123 0.774028 0
M  V30 4547 C 432.671 -5.90999 0.217688 0
M  V30 4548 C 432.033 -6.9935 0.841975 0
M  V30 4549 H 428.132 -0.698553 -0.351493 0
M  V30 4550 H 430.716 -1.92595 -0.285531 0
M  V30 4551 H 428.887 -2.86249 -2.62519 0
M  V30 4552 H 430.619 -3.10784 -2.59221 0
M  V30 4553 H 427.374 -4.57903 -1.20921 0
M  V30 4554 H 427.798 -6.7659 0.235665 0
M  V30 4555 H 432.44 -4.11841 -0.956406 0
M  V30 4556 H 430.158 -7.9831 1.25407 0
M  V30 4557 H 433.744 -5.81078 0.289717 0
M  V30 4558 H 432.624 -7.71973 1.37939 0
M  V30 4559 N 430.127 0.543554 -1.4793 0
M  V30 4560 C 431.037 1.67657 -1.64098 0
M  V30 4561 C 432.053 1.65934 -0.523622 0
M  V30 4562 O 433.229 1.85133 -0.792943 0
M  V30 4563 C 430.294 3.04146 -1.66421 0
M  V30 4564 C 429.355 3.16831 -2.89684 0
M  V30 4565 C 428.588 4.46809 -2.91886 0
M  V30 4566 O 428.811 5.33095 -2.02895 0
M  V30 4567 O 427.745 4.63573 -3.83906 0
M  V30 4568 H 431.571 1.56957 -2.59997 0
M  V30 4569 H 429.156 0.715116 -1.31173 0
M  V30 4570 H 431.038 3.85346 -1.70548 0
M  V30 4571 H 429.713 3.152 -0.736923 0
M  V30 4572 H 428.62 2.34977 -2.91095 0
M  V30 4573 H 429.953 3.10687 -3.81752 0
M  V30 4574 N 431.605 1.3629 0.791371 0
M  V30 4575 C 432.538 1.24816 1.9104 0
M  V30 4576 C 433.516 0.132739 1.62057 0
M  V30 4577 O 434.7 0.303527 1.8604 0
M  V30 4578 C 431.827 0.925355 3.25814 0
M  V30 4579 C 430.873 2.05495 3.7373 0
M  V30 4580 S 431.706 3.67255 3.89723 0
M  V30 4581 C 432.862 3.37084 5.27376 0
M  V30 4582 H 433.095 2.19533 2.00481 0
M  V30 4583 H 430.628 1.21684 0.950393 0
M  V30 4584 H 432.586 0.745924 4.03666 0
M  V30 4585 H 431.247 -0.00400098 3.141 0
M  V30 4586 H 430.44 1.7836 4.71385 0
M  V30 4587 H 430.042 2.1935 3.02922 0
M  V30 4588 H 432.334 2.90856 6.1189 0
M  V30 4589 H 433.277 4.33995 5.59512 0
M  V30 4590 H 433.685 2.7248 4.94383 0
M  V30 4591 N 433.083 -1.0153 1.20538 0
M  V30 4592 C 434.013 -2.11972 0.979295 0
M  V30 4593 C 434.994 -1.6985 -0.0921787 0
M  V30 4594 O 436.179 -1.94089 0.0655932 0
M  V30 4595 C 433.309 -3.43201 0.531984 0
M  V30 4596 C 432.263 -3.9907 1.54685 0
M  V30 4597 C 431.589 -5.26082 0.956127 0
M  V30 4598 C 432.889 -4.32313 2.93092 0
M  V30 4599 H 434.583 -2.31143 1.90298 0
M  V30 4600 H 432.129 -1.11079 0.916372 0
M  V30 4601 H 434.082 -4.1985 0.361044 0
M  V30 4602 H 432.806 -3.23792 -0.427327 0
M  V30 4603 H 431.465 -3.2453 1.70517 0
M  V30 4604 H 431.113 -5.02999 -0.0111538 0
M  V30 4605 H 430.813 -5.64426 1.63393 0
M  V30 4606 H 432.337 -6.05386 0.796284 0
M  V30 4607 H 433.751 -4.99845 2.80763 0
M  V30 4608 H 432.148 -4.81774 3.57791 0
M  V30 4609 H 433.218 -3.41025 3.44717 0
M  V30 4610 N 434.561 -1.01147 -1.20859 0
M  V30 4611 C 435.509 -0.57059 -2.25493 0
M  V30 4612 C 436.503 0.388109 -1.64894 0
M  V30 4613 O 437.709 0.258592 -1.78133 0
M  V30 4614 H 434.084 -0.166191 -0.733406 0
M  V30 4615 H 436.055 -1.46411 -2.60012 0
M  V30 4616 C 434.804 0.0805241 -3.47607 0
M  V30 4617 H 434.127 -0.648156 -3.94511 0
M  V30 4618 H 435.567 0.352197 -4.22535 0
M  V30 4619 C 434.026 1.32175 -3.09889 0
M  V30 4620 O 434.556 2.41553 -3.20959 0
M  V30 4621 N 432.762 1.20392 -2.64488 0
M  V30 4622 H 432.309 0.313905 -2.5568 0
M  V30 4623 H 432.267 2.03541 -2.39621 0
M  V30 4624 N 436.039 1.36541 -0.78704 0
M  V30 4625 C 437.285 2.00044 -0.367938 0
M  V30 4626 C 437.64 1.61345 1.04812 0
M  V30 4627 O 436.933 0.856936 1.71368 0
M  V30 4628 C 437.127 3.54343 -0.466485 0
M  V30 4629 C 436.956 4.08029 -1.89058 0
M  V30 4630 C 435.726 4.38284 -2.51466 0
M  V30 4631 C 437.924 4.27954 -2.85236 0
M  V30 4632 N 435.906 4.77778 -3.85488 0
M  V30 4633 C 437.277 4.70227 -4.04088 0
M  V30 4634 C 439.332 4.10119 -2.82324 0
M  V30 4635 C 438.035 4.96532 -5.20432 0
M  V30 4636 C 440.061 4.37569 -3.97854 0
M  V30 4637 C 439.423 4.80095 -5.15449 0
M  V30 4638 H 435.522 0.760525 -0.182004 0
M  V30 4639 H 438.106 1.65589 -1.02413 0
M  V30 4640 H 436.277 3.88072 0.159606 0
M  V30 4641 H 438.009 4.04693 -0.0238577 0
M  V30 4642 H 434.764 4.27905 -2.02965 0
M  V30 4643 H 435.188 5.01813 -4.54437 0
M  V30 4644 H 439.83 3.76399 -1.92571 0
M  V30 4645 H 437.548 5.29134 -6.10773 0
M  V30 4646 H 441.134 4.25341 -3.96958 0
M  V30 4647 H 440.014 5.00925 -6.0336 0
M  V30 4648 N 437.518 0.538854 1.48102 0
M  V30 4649 C 438.929 0.100679 1.86428 0
M  V30 4650 C 439.28 -1.32447 1.44749 0
M  V30 4651 O 438.405 -1.99339 0.842199 0
M  V30 4652 C 439 0.175933 3.38343 0
M  V30 4653 C 437.559 -0.207098 3.7583 0
M  V30 4654 C 436.706 0.531741 2.72154 0
M  V30 4655 H 439.657 0.749614 1.3988 0
M  V30 4656 H 439.678 -0.610144 3.75576 0
M  V30 4657 H 439.19 1.21328 3.68648 0
M  V30 4658 H 437.291 -1.24626 3.5114 0
M  V30 4659 H 437.404 0.138687 4.78899 0
M  V30 4660 H 435.768 -0.0230462 2.5469 0
M  V30 4661 H 436.551 1.56989 3.05302 0
M  V30 4662 N 438.996 -1.55193 0.274407 0
M  V30 4663 C 439.926 -2.25471 -0.607032 0
M  V30 4664 C 440.907 -1.24461 -1.15946 0
M  V30 4665 O 442.092 -1.53179 -1.19373 0
M  V30 4666 C 439.222 -2.97526 -1.79153 0
M  V30 4667 C 438.176 -4.05459 -1.37067 0
M  V30 4668 C 437.502 -4.65084 -2.6382 0
M  V30 4669 C 438.802 -5.19691 -0.521389 0
M  V30 4670 H 440.496 -2.99393 -0.0209343 0
M  V30 4671 H 438.042 -1.43997 -0.00862866 0
M  V30 4672 H 439.995 -3.45402 -2.41404 0
M  V30 4673 H 438.719 -2.21138 -2.40344 0
M  V30 4674 H 437.378 -3.58393 -0.771355 0
M  V30 4675 H 437.026 -3.85365 -3.23268 0
M  V30 4676 H 436.726 -5.37961 -2.36372 0
M  V30 4677 H 438.25 -5.15708 -3.26921 0
M  V30 4678 H 439.664 -5.63623 -1.04889 0
M  V30 4679 H 438.061 -5.99126 -0.341825 0
M  V30 4680 H 439.131 -4.82713 0.46 0
M  V30 4681 N 440.474 -0.00167713 -1.576 0
M  V30 4682 C 441.421 0.989195 -2.08527 0
M  V30 4683 C 442.391 1.34031 -0.981065 0
M  V30 4684 O 443.576 1.43839 -1.2536 0
M  V30 4685 C 440.716 2.27537 -2.59463 0
M  V30 4686 C 439.829 1.98314 -3.83791 0
M  V30 4687 C 438.964 3.21025 -4.23222 0
M  V30 4688 C 438.003 2.87495 -5.40382 0
M  V30 4689 N 437.14 4.02749 -5.75098 0
M  V30 4690 H 441.98 0.547973 -2.92919 0
M  V30 4691 H 439.517 0.258917 -1.44803 0
M  V30 4692 H 441.475 3.02729 -2.87073 0
M  V30 4693 H 440.105 2.69325 -1.77943 0
M  V30 4694 H 439.157 1.13482 -3.63078 0
M  V30 4695 H 440.469 1.69601 -4.69081 0
M  V30 4696 H 439.623 4.04561 -4.52123 0
M  V30 4697 H 438.362 3.52877 -3.36644 0
M  V30 4698 H 437.367 2.02367 -5.11202 0
M  V30 4699 H 438.592 2.56889 -6.28637 0
M  V30 4700 H 436.538 4.34494 -4.91478 0
M  V30 4701 H 436.455 3.77566 -6.54966 0
M  V30 4702 H 437.723 4.87068 -6.08592 0
M  V30 4703 N 441.952 1.55251 0.271103 0
M  V30 4704 C 442.915 1.87484 1.31842 0
M  V30 4705 C 443.915 0.749545 1.42262 0
M  V30 4706 O 445.105 1.01771 1.4138 0
M  V30 4707 C 442.237 2.0818 2.69951 0
M  V30 4708 H 443.43 2.81108 1.0449 0
M  V30 4709 H 440.983 1.47771 0.509258 0
M  V30 4710 H 441.718 1.16944 3.02481 0
M  V30 4711 H 441.503 2.90114 2.63774 0
M  V30 4712 H 442.993 2.34385 3.4562 0
M  V30 4713 N 443.43 -0.535701 1.48216 0
M  V30 4714 C 444.707 -1.29683 1.46429 0
M  V30 4715 C 445.087 -2.10391 0.172852 0
M  V30 4716 O 444.435 -2.12282 -0.845488 0
M  V30 4717 C 444.645 -2.18313 2.72287 0
M  V30 4718 C 445.993 -2.78639 3.20383 0
M  V30 4719 O 447.017 -2.28604 2.73164 0
M  V30 4720 O 445.876 -3.69636 4.02531 0
M  V30 4721 H 442.97 -0.585026 0.584529 0
M  V30 4722 H 445.516 -0.552827 1.60443 0
M  V30 4723 H 444.288 -1.58421 3.57797 0
M  V30 4724 H 443.911 -2.99971 2.60966 0
M  V30 4725 N 444.908 -1.36708 -0.784132 0
M  V30 4726 C 446.133 -1.34565 -1.5782 0
M  V30 4727 C 446.558 0.0695257 -1.87971 0
M  V30 4728 O 445.916 1.04302 -1.48293 0
M  V30 4729 C 445.964 -2.17952 -2.87279 0
M  V30 4730 O 445.068 -1.57563 -3.81114 0
M  V30 4731 H 444.409 -0.460337 -0.478524 0
M  V30 4732 H 446.939 -1.80064 -0.971495 0
M  V30 4733 H 446.949 -2.30721 -3.365 0
M  V30 4734 H 445.624 -3.20823 -2.64661 0
M  V30 4735 H 444.201 -1.53764 -3.39722 0
M  V30 4736 N 446.386 1.0089 -1.21074 0
M  V30 4737 C 447.635 1.74019 -1.01981 0
M  V30 4738 C 447.948 1.90408 0.447665 0
M  V30 4739 O 449.154 2.60707 0.757906 0
M  V30 4740 C 447.61 3.13026 -1.77603 0
M  V30 4741 C 447.218 3.04623 -3.28495 0
M  V30 4742 C 448.962 3.90312 -1.66904 0
M  V30 4743 C 446.869 4.38685 -3.96623 0
M  V30 4744 H 445.799 0.652422 -0.377971 0
M  V30 4745 H 448.45 1.12755 -1.44771 0
M  V30 4746 H 446.832 3.74878 -1.27604 0
M  V30 4747 H 448.006 2.52032 -3.85767 0
M  V30 4748 H 446.321 2.40827 -3.39693 0
M  V30 4749 H 448.918 4.8951 -2.15138 0
M  V30 4750 H 449.261 4.11558 -0.62658 0
M  V30 4751 H 449.794 3.35104 -2.14359 0
M  V30 4752 H 446.533 4.22641 -5.01054 0
M  V30 4753 H 446.053 4.91252 -3.4414 0
M  V30 4754 H 447.732 5.075 -4.01314 0
M  V30 4755 N 447.864 1.01787 1.20321 0
M  V30 4756 C 449.113 0.703249 1.89043 0
M  V30 4757 C 449.426 -0.770445 1.79787 0
M  V30 4758 O 450.632 -1.19767 2.43656 0
M  V30 4759 C 449.088 1.20749 3.3904 0
M  V30 4760 C 448.696 2.70817 3.56878 0
M  V30 4761 C 450.44 0.968352 4.13308 0
M  V30 4762 C 448.347 3.14716 5.00708 0
M  V30 4763 H 447.277 0.259354 0.707991 0
M  V30 4764 H 449.928 1.23072 1.36108 0
M  V30 4765 H 448.31 0.607989 3.91305 0
M  V30 4766 H 449.484 3.36327 3.14993 0
M  V30 4767 H 447.799 2.92888 2.95983 0
M  V30 4768 H 450.396 1.27173 5.19356 0
M  V30 4769 H 450.739 -0.095149 4.16191 0
M  V30 4770 H 451.272 1.53129 3.67146 0
M  V30 4771 H 448.011 4.20347 5.02979 0
M  V30 4772 H 447.531 2.53927 5.43398 0
M  V30 4773 H 449.21 3.07426 5.69296 0
M  V30 4774 N 449.342 -1.36122 0.79427 0
M  V30 4775 C 450.29 -2.31871 0.184023 0
M  V30 4776 C 451.284 -1.56041 -0.659365 0
M  V30 4777 O 452.49 -1.71266 -0.553906 0
M  V30 4778 H 448.865 -0.750896 0.0407373 0
M  V30 4779 H 450.836 -2.80898 1.00693 0
M  V30 4780 C 449.585 -3.41324 -0.662813 0
M  V30 4781 H 448.908 -3.99793 -0.0231944 0
M  V30 4782 H 450.348 -4.10629 -1.05639 0
M  V30 4783 C 448.807 -2.83308 -1.82313 0
M  V30 4784 O 449.337 -2.75863 -2.91997 0
M  V30 4785 N 447.543 -2.40529 -1.63077 0
M  V30 4786 H 447.09 -2.46785 -0.738591 0
M  V30 4787 H 447.048 -2.02059 -2.40872 0
M  V30 4788 N 450.82 -0.546701 -1.47814 0
M  V30 4789 C 452.068 -0.0187037 -2.02091 0
M  V30 4790 C 452.389 1.33168 -1.42447 0
M  V30 4791 O 451.659 1.86619 -0.595839 0
M  V30 4792 H 450.239 -0.00392531 -0.74699 0
M  V30 4793 H 452.901 -0.714327 -1.81338 0
M  V30 4794 H 451.997 0.0772219 -3.12004 0
M  V30 4795 N 452.299 1.55045 -0.282633 0
M  V30 4796 C 453.524 2.04628 0.337977 0
M  V30 4797 C 453.949 1.15937 1.48123 0
M  V30 4798 O 453.307 0.159532 1.80597 0
M  V30 4799 C 453.355 3.51854 0.78936 0
M  V30 4800 O 452.459 3.66236 1.89592 0
M  V30 4801 H 451.8 0.660434 0.0687261 0
M  V30 4802 H 454.33 2.00261 -0.419124 0
M  V30 4803 H 454.34 3.93361 1.08311 0
M  V30 4804 H 453.015 4.15873 -0.0470419 0
M  V30 4805 H 451.592 3.36633 1.60413 0
M  V30 4806 N 453.777 0.010035 1.57597 0
M  V30 4807 C 455.054 -0.710296 1.82248 0
M  V30 4808 C 455.434 -1.91426 0.889911 0
M  V30 4809 O 454.782 -2.28424 -0.0590292 0
M  V30 4810 C 454.992 -1.10655 3.30993 0
M  V30 4811 C 456.34 -1.50621 3.96987 0
M  V30 4812 O 457.364 -1.20007 3.35375 0
M  V30 4813 O 456.223 -2.07587 5.05539 0
M  V30 4814 H 453.317 -0.34673 0.750804 0
M  V30 4815 H 455.863 0.0362578 1.69661 0
M  V30 4816 H 454.635 -0.248826 3.90508 0
M  V30 4817 H 454.258 -1.91189 3.48615 0
M  V30 4818 N 455.255 -1.55392 -0.262866 0
M  V30 4819 C 456.48 -1.80847 -1.01533 0
M  V30 4820 C 456.905 -0.584946 -1.78774 0
M  V30 4821 O 456.263 0.465701 -1.75217 0
M  V30 4822 C 456.311 -3.03866 -1.94159 0
M  V30 4823 O 455.415 -2.79662 -3.03089 0
M  V30 4824 H 454.756 -0.597441 -0.289759 0
M  V30 4825 H 457.286 -2.02553 -0.288698 0
M  V30 4826 H 457.296 -3.32872 -2.35924 0
M  V30 4827 H 455.971 -3.92564 -1.37354 0
M  V30 4828 H 454.548 -2.61781 -2.65566 0
M  V30 4829 N 456.733 0.527833 -1.48498 0
M  V30 4830 C 457.68 1.6322 -1.6318 0
M  V30 4831 C 458.65 1.59199 -0.473815 0
M  V30 4832 O 459.835 1.77591 -0.697563 0
M  V30 4833 C 456.975 3.01474 -1.67951 0
M  V30 4834 C 456.088 3.15713 -2.94871 0
M  V30 4835 C 455.223 4.44539 -2.90789 0
M  V30 4836 C 454.262 4.52315 -4.12404 0
M  V30 4837 N 453.399 5.72533 -4.06387 0
M  V30 4838 H 458.239 1.50011 -2.57489 0
M  V30 4839 H 455.776 0.730298 -1.27691 0
M  V30 4840 H 457.734 3.81572 -1.68698 0
M  V30 4841 H 456.364 3.1345 -0.771306 0
M  V30 4842 H 455.416 2.28854 -3.03859 0
M  V30 4843 H 456.728 3.1732 -3.8485 0
M  V30 4844 H 455.882 5.3293 -2.89949 0
M  V30 4845 H 454.621 4.45457 -1.98542 0
M  V30 4846 H 453.626 3.62331 -4.13517 0
M  V30 4847 H 454.851 4.53134 -5.05812 0
M  V30 4848 H 452.797 5.74344 -3.16962 0
M  V30 4849 H 452.714 5.75643 -4.90073 0
M  V30 4850 H 453.982 6.63204 -4.0961 0
M  V30 4851 N 458.211 1.37122 0.776871 0
M  V30 4852 C 459.457 1.32243 1.53752 0
M  V30 4853 C 459.79 -0.0944745 1.9397 0
M  V30 4854 O 459.065 -1.05068 1.6368 0
M  V30 4855 C 459.348 2.25681 2.80607 0
M  V30 4856 C 459.201 3.76127 2.46676 0
M  V30 4857 C 460.52 2.17657 3.82509 0
M  V30 4858 H 457.639 0.481704 0.557791 0
M  V30 4859 H 460.281 1.6778 0.891612 0
M  V30 4860 H 458.431 1.95505 3.35723 0
M  V30 4861 H 460.103 4.16877 1.97513 0
M  V30 4862 H 458.346 3.94946 1.79443 0
M  V30 4863 H 459.017 4.36933 3.37333 0
M  V30 4864 H 461.493 2.44245 3.36873 0
M  V30 4865 H 460.369 2.85185 4.69 0
M  V30 4866 H 460.63 1.16785 4.26396 0
M  V30 4867 N 459.689 -1.00246 1.21608 0
M  V30 4868 C 460.652 -2.07233 0.979133 0
M  V30 4869 C 461.652 -1.6072 -0.0508219 0
M  V30 4870 O 462.842 -1.73196 0.186712 0
M  V30 4871 C 459.974 -3.37546 0.477016 0
M  V30 4872 H 461.167 -2.29687 1.92831 0
M  V30 4873 H 458.72 -1.17261 1.03342 0
M  V30 4874 H 459.455 -3.20773 -0.476966 0
M  V30 4875 H 459.24 -3.72638 1.21997 0
M  V30 4876 H 460.73 -4.16285 0.331181 0
M  V30 4877 N 461.167 -1.02423 -1.1978 0
M  V30 4878 C 462.097 -0.62157 -2.25075 0
M  V30 4879 C 463.078 0.367148 -1.6609 0
M  V30 4880 O 464.263 0.250892 -1.92573 0
M  V30 4881 C 461.393 0.0331826 -3.47284 0
M  V30 4882 C 460.347 -0.877323 -4.18912 0
M  V30 4883 C 459.673 -0.0879296 -5.34628 0
M  V30 4884 C 460.973 -2.18892 -4.74219 0
M  V30 4885 H 462.667 -1.50179 -2.59011 0
M  V30 4886 H 460.213 -0.723547 -1.24502 0
M  V30 4887 H 462.166 0.326488 -4.20133 0
M  V30 4888 H 460.89 0.948164 -3.12534 0
M  V30 4889 H 459.549 -1.15475 -3.47938 0
M  V30 4890 H 459.197 0.828941 -4.96123 0
M  V30 4891 H 458.897 -0.694359 -5.83483 0
M  V30 4892 H 460.421 0.198743 -6.10276 0
M  V30 4893 H 461.835 -1.95746 -5.38847 0
M  V30 4894 H 460.232 -2.74686 -5.33542 0
M  V30 4895 H 461.302 -2.84674 -3.92541 0
M  V30 4896 N 462.645 1.35699 -0.801477 0
M  V30 4897 C 463.608 2.28199 -0.213994 0
M  V30 4898 C 464.608 1.49359 0.595691 0
M  V30 4899 O 465.798 1.69186 0.414921 0
M  V30 4900 C 462.93 3.33587 0.702297 0
M  V30 4901 H 464.123 2.81666 -1.02976 0
M  V30 4902 H 461.676 1.45467 -0.571759 0
M  V30 4903 H 462.411 2.85297 1.54195 0
M  V30 4904 H 462.196 3.91906 0.123484 0
M  V30 4905 H 463.686 4.02638 1.10783 0
M  V30 4906 N 464.123 0.554532 1.47522 0
M  V30 4907 C 465.086 -0.184174 2.28459 0
M  V30 4908 C 466.086 -0.845195 1.36796 0
M  V30 4909 O 467.276 -0.701467 1.59452 0
M  V30 4910 C 464.408 -1.26903 3.16399 0
M  V30 4911 H 465.601 0.526751 2.95238 0
M  V30 4912 H 463.154 0.311375 1.53167 0
M  V30 4913 H 463.889 -2.01244 2.54306 0
M  V30 4914 H 463.674 -0.799883 3.83854 0
M  V30 4915 H 465.164 -1.78794 3.77389 0
M  V30 4916 N 465.601 -1.54893 0.290851 0
M  V30 4917 C 466.531 -2.26103 -0.583084 0
M  V30 4918 C 467.512 -1.25684 -1.14619 0
M  V30 4919 O 468.697 -1.54436 -1.17741 0
M  V30 4920 C 465.827 -2.99409 -1.75987 0
M  V30 4921 C 464.781 -4.0689 -1.32758 0
M  V30 4922 C 464.107 -4.67856 -2.58872 0
M  V30 4923 C 465.407 -5.20215 -0.46624 0
M  V30 4924 H 467.101 -2.99398 0.0108214 0
M  V30 4925 H 464.647 -1.43998 0.00664468 0
M  V30 4926 H 466.6 -3.47943 -2.37727 0
M  V30 4927 H 465.324 -2.23675 -2.37985 0
M  V30 4928 H 463.983 -3.59191 -0.733299 0
M  V30 4929 H 463.631 -3.88772 -3.19163 0
M  V30 4930 H 463.331 -5.40438 -2.30653 0
M  V30 4931 H 464.855 -5.19147 -3.21433 0
M  V30 4932 H 466.269 -5.64704 -0.989047 0
M  V30 4933 H 464.666 -5.99455 -0.27826 0
M  V30 4934 H 465.736 -4.82198 0.511173 0
M  V30 4935 N 467.08 -0.0183926 -1.57589 0
M  V30 4936 C 468.491 0.521927 -1.79256 0
M  V30 4937 C 468.842 1.72885 -0.927636 0
M  V30 4938 O 467.967 2.15978 -0.135091 0
M  V30 4939 C 468.562 0.953632 -3.25102 0
M  V30 4940 C 467.121 1.43913 -3.47801 0
M  V30 4941 C 466.268 0.398837 -2.74417 0
M  V30 4942 H 469.219 -0.244485 -1.56805 0
M  V30 4943 H 469.24 1.81863 -3.34224 0
M  V30 4944 H 468.752 0.0750123 -3.88028 0
M  V30 4945 H 466.853 2.33804 -2.90115 0
M  V30 4946 H 466.966 1.45391 -4.56507 0
M  V30 4947 H 465.33 0.864572 -2.39577 0
M  V30 4948 H 466.113 -0.471132 -3.40052 0
M  V30 4949 N 468.558 1.5553 0.254621 0
M  V30 4950 C 469.521 1.88872 1.29846 0
M  V30 4951 C 470.521 0.764591 1.41459 0
M  V30 4952 O 471.711 1.03265 1.40293 0
M  V30 4953 C 468.843 2.11032 2.67728 0
M  V30 4954 H 470.036 2.82201 1.01502 0
M  V30 4955 H 467.589 1.48303 0.493556 0
M  V30 4956 H 468.324 1.20146 3.01223 0
M  V30 4957 H 468.109 2.92895 2.60682 0
M  V30 4958 H 469.599 2.38038 3.43115 0
M  V30 4959 N 470.036 -0.519951 1.48776 0
M  V30 4960 C 471.282 -1.27711 1.57536 0
M  V30 4961 C 471.615 -1.92547 0.252866 0
M  V30 4962 O 470.89 -1.7979 -0.742021 0
M  V30 4963 C 471.173 -2.35875 2.72094 0
M  V30 4964 C 471.026 -1.75664 4.1408 0
M  V30 4965 C 472.345 -3.37575 2.82367 0
M  V30 4966 H 469.464 -0.462971 0.573434 0
M  V30 4967 H 472.106 -0.578194 1.80989 0
M  V30 4968 H 470.256 -2.95488 2.52228 0
M  V30 4969 H 471.928 -1.20025 4.45412 0
M  V30 4970 H 470.171 -1.06154 4.20611 0
M  V30 4971 H 470.842 -2.54029 4.90075 0
M  V30 4972 H 473.318 -2.87929 3.00393 0
M  V30 4973 H 472.194 -4.1064 3.64233 0
M  V30 4974 H 472.455 -3.98743 1.90936 0
M  V30 4975 N 471.514 -1.37532 -0.769588 0
M  V30 4976 C 472.424 -1.35668 -1.91393 0
M  V30 4977 C 473.44 -0.255954 -1.72107 0
M  V30 4978 O 474.616 -0.491704 -1.95305 0
M  V30 4979 C 471.681 -1.16481 -3.26547 0
M  V30 4980 C 470.742 -2.36212 -3.58472 0
M  V30 4981 C 469.975 -2.17932 -4.87177 0
M  V30 4982 O 470.198 -1.1647 -5.58382 0
M  V30 4983 O 469.132 -3.06167 -5.18214 0
M  V30 4984 H 472.958 -2.32055 -1.95918 0
M  V30 4985 H 470.543 -1.18284 -0.912641 0
M  V30 4986 H 472.425 -1.07778 -4.07384 0
M  V30 4987 H 471.1 -0.231687 -3.2287 0
M  V30 4988 H 470.007 -2.50488 -2.77861 0
M  V30 4989 H 471.34 -3.281 -3.66894 0
M  V30 4990 N 472.992 0.995999 -1.22138 0
M  V30 4991 C 474.238 1.73767 -1.04561 0
M  V30 4992 C 474.571 1.89633 0.418698 0
M  V30 4993 O 473.846 1.43723 1.3105 0
M  V30 4994 C 474.129 3.14505 -1.75382 0
M  V30 4995 C 473.982 3.06306 -3.29388 0
M  V30 4996 C 475.301 4.13615 -1.50369 0
M  V30 4997 H 472.42 0.630728 -0.38125 0
M  V30 4998 H 475.062 1.16057 -1.50435 0
M  V30 4999 H 473.212 3.63775 -1.36383 0
M  V30 5000 H 474.884 2.64681 -3.77812 0
M  V30 5001 H 473.127 2.43186 -3.59226 0
M  V30 5002 H 473.798 4.05884 -3.74116 0
M  V30 5003 H 476.274 3.73089 -1.84239 0
M  V30 5004 H 475.15 5.10212 -2.02421 0
M  V30 5005 H 475.411 4.39949 -0.435611 0
M  V30 5006 N 474.47 1.03057 1.19235 0
M  V30 5007 C 475.418 0.606391 2.24557 0
M  V30 5008 C 476.412 -0.361826 1.65491 0
M  V30 5009 O 477.618 -0.23022 1.78522 0
M  V30 5010 H 473.993 0.177838 0.730669 0
M  V30 5011 H 475.964 1.50529 2.5765 0
M  V30 5012 C 474.713 -0.0252127 3.47691 0
M  V30 5013 H 474.036 0.710838 3.9343 0
M  V30 5014 H 475.476 -0.284931 4.23042 0
M  V30 5015 C 473.935 -1.27229 3.11953 0
M  V30 5016 O 474.465 -2.36416 3.24762 0
M  V30 5017 N 472.671 -1.16169 2.6637 0
M  V30 5018 H 472.218 -0.273189 2.56147 0
M  V30 5019 H 472.176 -1.99703 2.42829 0
M  V30 5020 N 475.948 -1.35272 0.808662 0
M  V30 5021 C 477.359 -1.81179 0.450688 0
M  V30 5022 C 477.71 -1.67143 -1.02751 0
M  V30 5023 O 476.835 -1.20325 -1.79864 0
M  V30 5024 C 477.43 -3.28943 0.811275 0
M  V30 5025 C 475.989 -3.72985 0.505871 0
M  V30 5026 C 475.136 -2.57229 1.03578 0
M  V30 5027 H 478.087 -1.2322 1.00012 0
M  V30 5028 H 478.108 -3.80342 0.109588 0
M  V30 5029 H 477.62 -3.39127 1.88718 0
M  V30 5030 H 475.721 -3.68349 -0.561209 0
M  V30 5031 H 475.834 -4.67677 1.03995 0
M  V30 5032 H 474.198 -2.50548 0.458005 0
M  V30 5033 H 474.981 -2.7019 2.11784 0
M  V30 5034 N 477.426 -0.562348 -1.47226 0
M  V30 5035 C 478.837 -0.130325 -1.86245 0
M  V30 5036 C 479.188 1.30128 -1.46838 0
M  V30 5037 O 478.313 1.97974 -0.873805 0
M  V30 5038 C 478.908 -0.229738 -3.3802 0
M  V30 5039 C 477.467 0.14728 -3.76112 0
M  V30 5040 C 476.614 -0.574971 -2.71274 0
M  V30 5041 H 479.565 -0.771773 -1.3867 0
M  V30 5042 H 479.586 0.550316 -3.76499 0
M  V30 5043 H 479.098 -1.27178 -3.66671 0
M  V30 5044 H 477.199 1.19023 -3.53078 0
M  V30 5045 H 477.312 -0.214858 -4.78618 0
M  V30 5046 H 475.676 -0.0174756 -2.54694 0
M  V30 5047 H 476.459 -1.61827 -3.02766 0
M  V30 5048 N 478.904 1.54736 -0.299062 0
M  V30 5049 C 479.867 2.22127 0.565012 0
M  V30 5050 C 480.867 1.20669 1.06281 0
M  V30 5051 O 482.057 1.45417 0.959145 0
M  V30 5052 C 479.189 2.90611 1.78208 0
M  V30 5053 H 480.382 2.99891 -0.0237448 0
M  V30 5054 H 477.935 1.5622 -0.0498788 0
M  V30 5055 H 478.67 2.16921 2.41072 0
M  V30 5056 H 478.455 3.64984 1.43281 0
M  V30 5057 H 479.945 3.42026 2.396 0
M  V30 5058 N 480.382 0.0267497 1.57577 0
M  V30 5059 C 481.793 -0.512413 1.79531 0
M  V30 5060 C 482.144 -1.72391 0.936791 0
M  V30 5061 O 481.269 -2.15903 0.146543 0
M  V30 5062 C 481.864 -0.936378 3.25603 0
M  V30 5063 C 480.423 -1.42067 3.4856 0
M  V30 5064 C 479.57 -0.384278 2.74624 0
M  V30 5065 H 482.521 0.252797 1.56674 0
M  V30 5066 H 482.542 -1.80088 3.35184 0
M  V30 5067 H 482.054 -0.0544332 3.88062 0
M  V30 5068 H 480.155 -2.32262 2.9135 0
M  V30 5069 H 480.268 -1.42968 4.57271 0
M  V30 5070 H 478.632 -0.851855 2.40032 0
M  V30 5071 H 479.415 0.489159 3.39797 0
M  V30 5072 N 481.861 -1.55662 -0.24637 0
M  V30 5073 C 482.824 -1.89558 -1.28842 0
M  V30 5074 C 483.824 -0.772082 -1.41052 0
M  V30 5075 O 485.014 -1.04007 -1.39743 0
M  V30 5076 C 482.146 -2.12449 -2.66605 0
M  V30 5077 H 483.339 -2.82735 -1.00004 0
M  V30 5078 H 480.892 -1.48562 -0.485684 0
M  V30 5079 H 481.627 -1.21742 -3.00582 0
M  V30 5080 H 481.412 -2.94273 -2.59125 0
M  V30 5081 H 482.902 -2.39854 -3.41847 0
M  V30 5082 N 483.339 0.512053 -1.4905 0
M  V30 5083 C 484.585 1.26874 -1.58212 0
M  V30 5084 C 484.918 1.9241 -0.263073 0
M  V30 5085 O 484.193 1.80181 0.732476 0
M  V30 5086 C 484.476 2.34428 -2.73341 0
M  V30 5087 C 484.329 1.73466 -4.15006 0
M  V30 5088 C 485.648 3.36073 -2.84154 0
M  V30 5089 H 482.767 0.459924 -0.575881 0
M  V30 5090 H 485.409 0.568587 -1.81293 0
M  V30 5091 H 483.559 2.94146 -2.53792 0
M  V30 5092 H 485.231 1.17661 -4.46042 0
M  V30 5093 H 483.474 1.03921 -4.21168 0
M  V30 5094 H 484.145 2.51426 -4.91415 0
M  V30 5095 H 486.621 2.86332 -3.01916 0
M  V30 5096 H 485.497 4.08703 -3.66406 0
M  V30 5097 H 485.758 3.97725 -1.93048 0
M  V30 5098 N 484.817 1.37938 0.762283 0
M  V30 5099 C 485.764 1.34467 1.87583 0
M  V30 5100 C 486.734 0.208633 1.64785 0
M  V30 5101 O 487.919 0.399494 1.86571 0
M  V30 5102 C 485.059 1.16692 3.24772 0
M  V30 5103 C 484.172 2.39608 3.59461 0
M  V30 5104 C 483.307 2.14631 4.85908 0
M  V30 5105 C 482.346 3.33364 5.13357 0
M  V30 5106 N 481.483 3.07877 6.30996 0
M  V30 5107 H 486.323 2.29669 1.89885 0
M  V30 5108 H 483.86 1.14116 0.928219 0
M  V30 5109 H 485.818 1.04405 4.03925 0
M  V30 5110 H 484.448 0.251333 3.2182 0
M  V30 5111 H 483.5 2.626 2.75219 0
M  V30 5112 H 484.812 3.28128 3.75678 0
M  V30 5113 H 483.966 1.99429 5.72986 0
M  V30 5114 H 482.705 1.23463 4.71814 0
M  V30 5115 H 481.71 3.49094 4.24751 0
M  V30 5116 H 482.935 4.25395 5.29354 0
M  V30 5117 H 480.881 2.19348 6.18241 0
M  V30 5118 H 480.798 3.89944 6.47673 0
M  V30 5119 H 482.066 2.96313 7.20985 0
M  V30 5120 N 486.295 -0.989507 1.22664 0
M  V30 5121 C 487.258 -2.06183 1.00106 0
M  V30 5122 C 488.258 -1.60765 -0.0337726 0
M  V30 5123 O 489.448 -1.72989 0.205072 0
M  V30 5124 C 486.58 -3.37021 0.51279 0
M  V30 5125 H 487.773 -2.27629 1.95256 0
M  V30 5126 H 485.326 -1.16158 1.0458 0
M  V30 5127 H 486.061 -3.21261 -0.442917 0
M  V30 5128 H 485.846 -3.71323 1.25942 0
M  V30 5129 H 487.336 -4.1591 0.375315 0
M  V30 5130 N 487.773 -1.03688 -1.18687 0
M  V30 5131 C 488.998 -0.757819 -1.93059 0
M  V30 5132 C 489.423 0.678353 -1.75442 0
M  V30 5133 O 488.781 1.46938 -1.06203 0
M  V30 5134 C 488.829 -1.12423 -3.42627 0
M  V30 5135 O 487.933 -0.247505 -4.11657 0
M  V30 5136 H 487.274 -0.279245 -0.602427 0
M  V30 5137 H 489.804 -1.3857 -1.5053 0
M  V30 5138 H 489.814 -1.08454 -3.93322 0
M  V30 5139 H 488.489 -2.17049 -3.54771 0
M  V30 5140 H 487.066 -0.34649 -3.71287 0
M  V30 5141 N 489.251 1.34841 -0.815825 0
M  V30 5142 C 490.497 1.99219 -0.410288 0
M  V30 5143 C 490.852 1.63532 1.01366 0
M  V30 5144 O 490.145 0.893093 1.69512 0
M  V30 5145 C 490.339 3.53273 -0.541541 0
M  V30 5146 C 490.168 4.03927 -1.9767 0
M  V30 5147 C 488.938 4.32852 -2.60706 0
M  V30 5148 C 491.136 4.21808 -2.9425 0
M  V30 5149 N 489.118 4.69494 -3.95536 0
M  V30 5150 C 490.489 4.6155 -4.13971 0
M  V30 5151 C 492.544 4.04038 -2.9096 0
M  V30 5152 C 491.247 4.85381 -5.30847 0
M  V30 5153 C 493.273 4.29031 -4.07046 0
M  V30 5154 C 492.635 4.69054 -5.25517 0
M  V30 5155 H 488.734 0.756494 -0.198094 0
M  V30 5156 H 491.318 1.63379 -1.05902 0
M  V30 5157 H 489.489 3.88323 0.0772544 0
M  V30 5158 H 491.221 4.04551 -0.109694 0
M  V30 5159 H 487.976 4.23503 -2.11995 0
M  V30 5160 H 488.4 4.92061 -4.64979 0
M  V30 5161 H 493.042 3.7223 -2.00512 0
M  V30 5162 H 490.76 5.16059 -6.21859 0
M  V30 5163 H 494.346 4.16826 -4.05891 0
M  V30 5164 H 493.226 4.88014 -6.1385 0
M  V30 5165 N 490.729 0.570148 1.46925 0
M  V30 5166 C 491.975 0.0510284 2.02736 0
M  V30 5167 C 492.308 -1.3006 1.44215 0
M  V30 5168 O 491.583 -1.84932 0.602521 0
M  V30 5169 C 491.866 -0.028215 3.60089 0
M  V30 5170 C 491.719 1.35142 4.29018 0
M  V30 5171 C 493.038 -0.735181 4.33916 0
M  V30 5172 H 490.157 0.0200178 0.736728 0
M  V30 5173 H 492.799 0.73493 1.75211 0
M  V30 5174 H 490.949 -0.610648 3.83671 0
M  V30 5175 H 492.621 1.97806 4.16738 0
M  V30 5176 H 490.864 1.9226 3.88868 0
M  V30 5177 H 491.535 1.24857 5.37694 0
M  V30 5178 H 494.011 -0.240519 4.15404 0
M  V30 5179 H 492.887 -0.759622 5.43618 0
M  V30 5180 H 493.148 -1.79397 4.04066 0
M  V30 5181 N 492.207 -1.54576 0.307264 0
M  V30 5182 C 493.157 -2.20467 -0.581249 0
M  V30 5183 C 494.141 -1.17972 -1.09414 0
M  V30 5184 O 495.333 -1.43667 -1.03387 0
M  V30 5185 C 492.462 -2.95369 -1.74963 0
M  V30 5186 C 491.548 -4.05186 -1.25241 0
M  V30 5187 N 491.939 -5.03577 -0.47364 0
M  V30 5188 C 490.237 -4.18841 -1.53259 0
M  V30 5189 C 490.938 -5.81328 -0.208083 0
M  V30 5190 N 489.914 -5.37834 -0.789651 0
M  V30 5191 H 493.716 -2.93892 0.0212221 0
M  V30 5192 H 491.23 -1.62011 0.112325 0
M  V30 5193 H 493.227 -3.41046 -2.39777 0
M  V30 5194 H 491.887 -2.23461 -2.35574 0
M  V30 5195 H 492.898 -5.17766 -0.117963 0
M  V30 5196 H 489.575 -3.58141 -2.14573 0
M  V30 5197 H 490.965 -6.706 0.417793 0
M  V30 5198 N 493.685 -0.035106 -1.57561 0
M  V30 5199 C 494.632 0.94474 -2.10578 0
M  V30 5200 C 495.602 1.3192 -1.00927 0
M  V30 5201 O 496.787 1.41147 -1.28382 0
M  V30 5202 C 493.927 2.21982 -2.64231 0
M  V30 5203 C 493.04 1.90128 -3.87911 0
M  V30 5204 C 492.175 3.11975 -4.29936 0
M  V30 5205 C 491.214 2.75968 -5.46359 0
M  V30 5206 N 490.351 3.90459 -5.83512 0
M  V30 5207 H 495.191 0.485717 -2.94015 0
M  V30 5208 H 492.728 0.228143 -1.4532 0
M  V30 5209 H 494.686 2.96572 -2.9343 0
M  V30 5210 H 493.316 2.6549 -1.83616 0
M  V30 5211 H 492.368 1.05755 -3.65404 0
M  V30 5212 H 493.68 1.59613 -4.72573 0
M  V30 5213 H 492.834 3.9488 -4.60603 0
M  V30 5214 H 491.573 3.45657 -3.44053 0
M  V30 5215 H 490.578 1.91478 -5.1538 0
M  V30 5216 H 491.803 2.43497 -6.33945 0
M  V30 5217 H 489.749 4.23971 -5.00584 0
M  V30 5218 H 489.666 3.63588 -6.62827 0
M  V30 5219 H 490.934 4.7405 -6.18787 0
M  V30 5220 N 495.163 1.55791 0.238111 0
M  V30 5221 C 496.391 1.82098 0.982233 0
M  V30 5222 C 496.806 0.612025 1.78605 0
M  V30 5223 O 496.163 -0.419381 1.77616 0
M  V30 5224 C 496.214 3.0673 1.91309 0
M  V30 5225 O 495.935 4.2296 1.14179 0
M  V30 5226 C 497.436 3.45903 2.77248 0
M  V30 5227 H 494.656 0.605748 0.288635 0
M  V30 5228 H 497.2 2.02862 0.258341 0
M  V30 5229 H 495.355 2.87991 2.59114 0
M  V30 5230 H 495.769 4.93653 1.7722 0
M  V30 5231 H 497.243 4.36189 3.38295 0
M  V30 5232 H 497.72 2.66891 3.48806 0
M  V30 5233 H 498.326 3.67024 2.14881 0
M  V30 5234 N 496.642 -0.504142 1.49319 0
M  V30 5235 C 497.89 -1.25598 1.58334 0
M  V30 5236 C 498.211 -1.93114 0.270538 0
M  V30 5237 O 497.481 -1.82585 -0.709891 0
M  V30 5238 H 496.061 -0.466571 0.58337 0
M  V30 5239 H 498.723 -0.584547 1.85928 0
M  V30 5240 H 497.819 -2.02159 2.37778 0
M  V30 5241 N 498.12 -1.38341 -0.754957 0
M  V30 5242 C 499.345 -1.37882 -1.5493 0
M  V30 5243 C 499.77 0.0296385 -1.88077 0
M  V30 5244 O 499.128 1.01133 -1.50472 0
M  V30 5245 C 499.176 -2.23996 -2.82592 0
M  V30 5246 O 498.28 -1.65612 -3.77686 0
M  V30 5247 H 497.621 -0.470384 -0.468652 0
M  V30 5248 H 500.151 -1.82084 -0.933082 0
M  V30 5249 H 500.161 -2.37806 -3.3153 0
M  V30 5250 H 498.836 -3.26365 -2.57796 0
M  V30 5251 H 497.413 -1.60936 -3.36384 0
M  V30 5252 N 499.598 0.982988 -1.23187 0
M  V30 5253 C 500.826 1.75921 -1.08901 0
M  V30 5254 C 501.241 1.85341 0.359719 0
M  V30 5255 O 500.598 1.33072 1.24892 0
M  V30 5256 C 500.649 3.18742 -1.70545 0
M  V30 5257 O 500.37 3.09814 -3.09753 0
M  V30 5258 C 501.871 4.1277 -1.61667 0
M  V30 5259 H 499.091 0.552166 -0.381252 0
M  V30 5260 H 501.635 1.23516 -1.62985 0
M  V30 5261 H 499.79 3.68182 -1.20501 0
M  V30 5262 H 500.204 3.99703 -3.39614 0
M  V30 5263 H 501.678 5.10697 -2.09506 0
M  V30 5264 H 502.155 4.3542 -0.575009 0
M  V30 5265 H 502.761 3.69232 -2.11064 0
M  V30 5266 N 501.076 1.04316 1.18135 0
M  V30 5267 C 502.324 0.746542 1.87806 0
M  V30 5268 C 502.645 -0.728082 1.80898 0
M  V30 5269 O 501.915 -1.52554 1.22899 0
M  V30 5270 H 500.495 0.273157 0.695265 0
M  V30 5271 H 503.157 1.32044 1.43354 0
M  V30 5272 H 502.253 1.05362 2.93778 0
M  V30 5273 N 502.554 -1.34406 0.822964 0
M  V30 5274 C 503.802 -1.97892 0.410245 0
M  V30 5275 C 504.123 -1.65567 -1.03017 0
M  V30 5276 O 503.393 -0.94642 -1.71522 0
M  V30 5277 H 501.973 -0.732049 0.148707 0
M  V30 5278 H 504.635 -1.64043 1.05242 0
M  V30 5279 H 503.731 -3.07579 0.529284 0
M  V30 5280 N 504.032 -0.577932 -1.46621 0
M  V30 5281 C 505.279 -0.0616879 -2.02406 0
M  V30 5282 C 505.607 1.29638 -1.44997 0
M  V30 5283 O 504.862 1.86176 -0.60308 0
M  V30 5284 C 505.161 0.0590832 -3.57351 0
M  V30 5285 C 504.827 -1.23077 -4.33777 0
M  V30 5286 C 503.489 -1.58416 -4.54376 0
M  V30 5287 C 505.841 -2.08457 -4.77698 0
M  V30 5288 C 503.169 -2.78943 -5.16147 0
M  V30 5289 C 505.521 -3.28204 -5.408 0
M  V30 5290 C 504.185 -3.63832 -5.59627 0
M  V30 5291 H 503.455 -0.0225732 -0.740656 0
M  V30 5292 H 506.102 -0.753609 -1.76048 0
M  V30 5293 H 504.407 0.834104 -3.82818 0
M  V30 5294 H 506.104 0.474202 -3.98186 0
M  V30 5295 H 502.694 -0.945652 -4.18038 0
M  V30 5296 H 506.878 -1.82459 -4.61544 0
M  V30 5297 H 502.134 -3.06689 -5.28916 0
M  V30 5298 H 506.308 -3.94634 -5.73792 0
M  V30 5299 H 503.935 -4.57315 -6.07262 0
M  V30 5300 N 505.51 1.54411 -0.315457 0
M  V30 5301 C 506.758 2.00023 0.288971 0
M  V30 5302 C 507.079 1.20529 1.5329 0
M  V30 5303 O 506.349 0.304986 1.93511 0
M  V30 5304 H 504.929 0.738891 0.109766 0
M  V30 5305 H 507.591 1.90094 -0.430129 0
M  V30 5306 H 506.687 3.07198 0.550999 0
M  V30 5307 N 506.988 0.0434614 1.5754 0
M  V30 5308 C 508.213 -0.645358 1.97104 0
M  V30 5309 C 508.638 -1.64037 0.920521 0
M  V30 5310 O 507.996 -1.80922 -0.11708 0
M  V30 5311 C 508.044 -1.31547 3.35749 0
M  V30 5312 O 507.148 -2.43103 3.33129 0
M  V30 5313 H 506.489 -0.168403 0.64229 0
M  V30 5314 H 509.019 0.109573 2.04306 0
M  V30 5315 H 509.029 -1.66895 3.72304 0
M  V30 5316 H 507.704 -0.586205 4.11748 0
M  V30 5317 H 506.281 -2.0976 3.0831 0
M  V30 5318 N 508.466 -1.55915 -0.229846 0
M  V30 5319 C 509.696 -1.82352 -0.971152 0
M  V30 5320 C 510.104 -0.619231 -1.7878 0
M  V30 5321 O 509.447 0.421597 -1.78797 0
M  V30 5322 C 509.509 -3.02399 -1.9441 0
M  V30 5323 C 509.173 -4.37739 -1.31277 0
M  V30 5324 C 510.17 -5.15074 -0.706757 0
M  V30 5325 C 507.855 -4.84454 -1.32702 0
M  V30 5326 C 509.849 -6.37281 -0.123413 0
M  V30 5327 C 507.536 -6.06605 -0.739831 0
M  V30 5328 C 508.534 -6.82858 -0.139071 0
M  V30 5329 O 508.222 -8.027 0.439007 0
M  V30 5330 H 507.954 -0.61035 -0.290601 0
M  V30 5331 H 510.508 -2.03839 -0.252746 0
M  V30 5332 H 508.738 -2.76709 -2.70128 0
M  V30 5333 H 510.427 -3.15779 -2.55026 0
M  V30 5334 H 511.193 -4.80093 -0.688131 0
M  V30 5335 H 507.072 -4.25081 -1.78402 0
M  V30 5336 H 510.616 -6.96741 0.346124 0
M  V30 5337 H 506.513 -6.4106 -0.755841 0
M  V30 5338 H 507.281 -8.17824 0.332521 0
M  V30 5339 N 509.944 0.496216 -1.49584 0
M  V30 5340 C 511.19 1.25189 -1.59548 0
M  V30 5341 C 511.523 1.9212 -0.283466 0
M  V30 5342 O 510.798 1.80947 0.713324 0
M  V30 5343 C 511.081 2.31516 -2.75812 0
M  V30 5344 C 510.934 1.69054 -4.16822 0
M  V30 5345 C 512.253 3.3304 -2.87702 0
M  V30 5346 H 509.372 0.45379 -0.580727 0
M  V30 5347 H 512.014 0.549327 -1.81886 0
M  V30 5348 H 510.164 2.91438 -2.56897 0
M  V30 5349 H 511.836 1.12923 -4.47265 0
M  V30 5350 H 510.079 0.994485 -4.22247 0
M  V30 5351 H 510.75 2.462 -4.94054 0
M  V30 5352 H 513.226 2.83114 -3.04936 0
M  V30 5353 H 512.102 4.04794 -3.7072 0
M  V30 5354 H 512.363 3.95655 -1.97255 0
M  V30 5355 N 511.423 1.38739 0.74761 0
M  V30 5356 C 512.386 1.36241 1.84312 0
M  V30 5357 C 513.386 0.261811 1.58654 0
M  V30 5358 O 514.576 0.519031 1.66288 0
M  V30 5359 C 511.708 1.12253 3.21888 0
M  V30 5360 H 512.901 2.33712 1.87933 0
M  V30 5361 H 510.454 1.2412 0.949946 0
M  V30 5362 H 511.189 0.154133 3.23934 0
M  V30 5363 H 510.974 1.91943 3.41907 0
M  V30 5364 H 512.464 1.13215 4.0196 0
M  V30 5365 N 512.901 -0.976442 1.23707 0
M  V30 5366 C 514.148 -1.71827 1.07153 0
M  V30 5367 C 514.476 -1.9053 -0.390982 0
M  V30 5368 O 513.731 -1.45779 -1.30564 0
M  V30 5369 C 514.03 -3.11814 1.74662 0
M  V30 5370 C 513.696 -3.12978 3.24585 0
M  V30 5371 C 512.358 -3.13003 3.6549 0
M  V30 5372 C 514.71 -3.07986 4.20469 0
M  V30 5373 C 512.038 -3.05757 5.00729 0
M  V30 5374 C 514.39 -3.02282 5.55705 0
M  V30 5375 C 513.054 -3.00631 5.95968 0
M  V30 5376 H 512.324 -0.628758 0.392102 0
M  V30 5377 H 514.971 -1.14239 1.53693 0
M  V30 5378 H 513.276 -3.72812 1.20492 0
M  V30 5379 H 514.973 -3.67989 1.59328 0
M  V30 5380 H 511.563 -3.13718 2.92026 0
M  V30 5381 H 515.747 -3.07103 3.89874 0
M  V30 5382 H 511.003 -3.02834 5.31132 0
M  V30 5383 H 515.177 -2.97376 6.29714 0
M  V30 5384 H 512.804 -2.94771 7.00724 0
M  V30 5385 N 514.379 -1.04941 -1.1758 0
M  V30 5386 C 515.625 -0.759112 -1.88057 0
M  V30 5387 C 515.958 0.711918 -1.8068 0
M  V30 5388 O 515.233 1.52035 -1.21308 0
M  V30 5389 C 515.516 -1.237 -3.38187 0
M  V30 5390 C 515.369 -2.77078 -3.54327 0
M  V30 5391 C 516.688 -0.834014 -4.32125 0
M  V30 5392 H 513.807 -0.277237 -0.682868 0
M  V30 5393 H 516.449 -1.30296 -1.38286 0
M  V30 5394 H 514.599 -0.774337 -3.80705 0
M  V30 5395 H 516.271 -3.31449 -3.20842 0
M  V30 5396 H 514.514 -3.16477 -2.96689 0
M  V30 5397 H 515.185 -3.05577 -4.59703 0
M  V30 5398 H 517.661 -1.23228 -3.97434 0
M  V30 5399 H 516.537 -1.19603 -5.35711 0
M  V30 5400 H 516.798 0.262195 -4.41322 0
M  V30 5401 N 515.857 1.33968 -0.830081 0
M  V30 5402 C 517.268 1.80439 -0.479455 0
M  V30 5403 C 517.619 1.68756 1.00079 0
M  V30 5404 O 516.744 1.23171 1.77927 0
M  V30 5405 C 517.339 3.27611 -0.863505 0
M  V30 5406 C 515.898 3.72133 -0.565145 0
M  V30 5407 C 515.045 2.55549 -1.07657 0
M  V30 5408 H 517.996 1.21614 -1.0196 0
M  V30 5409 H 518.017 3.8012 -0.170083 0
M  V30 5410 H 517.529 3.36082 -1.94089 0
M  V30 5411 H 515.63 3.69196 0.502536 0
M  V30 5412 H 515.743 4.65963 -1.11422 0
M  V30 5413 H 514.107 2.49788 -0.497807 0
M  V30 5414 H 514.89 2.66786 -2.16055 0
M  V30 5415 N 517.335 0.585699 1.46312 0
M  V30 5416 C 518.245 -0.148236 2.34131 0
M  V30 5417 C 519.261 -0.882972 1.49932 0
M  V30 5418 O 520.437 -0.845484 1.82794 0
M  V30 5419 C 517.502 -1.14714 3.27172 0
M  V30 5420 C 516.563 -0.416746 4.27272 0
M  V30 5421 C 515.796 -1.36806 5.15868 0
M  V30 5422 O 516.019 -2.60475 5.07454 0
M  V30 5423 O 514.953 -0.877018 5.95476 0
M  V30 5424 H 518.779 0.572882 2.98248 0
M  V30 5425 H 516.364 0.346082 1.45336 0
M  V30 5426 H 518.246 -1.72303 3.84564 0
M  V30 5427 H 516.921 -1.84967 2.65648 0
M  V30 5428 H 515.828 0.201061 3.73559 0
M  V30 5429 H 517.161 0.244872 4.9159 0
M  V30 5430 N 518.813 -1.54241 0.323641 0
M  V30 5431 C 519.76 -2.24339 -0.542277 0
M  V30 5432 C 520.73 -1.23421 -1.11159 0
M  V30 5433 O 521.915 -1.52104 -1.15192 0
M  V30 5434 C 519.055 -3.00479 -1.69725 0
M  V30 5435 C 518.168 -4.16214 -1.15716 0
M  V30 5436 C 517.303 -4.79884 -2.27783 0
M  V30 5437 C 516.342 -5.87722 -1.71023 0
M  V30 5438 N 515.479 -6.45254 -2.76752 0
M  V30 5439 H 520.319 -2.97935 0.0620613 0
M  V30 5440 H 517.856 -1.47039 0.0423993 0
M  V30 5441 H 519.814 -3.42869 -2.3769 0
M  V30 5442 H 518.444 -2.29217 -2.27288 0
M  V30 5443 H 517.496 -3.78605 -0.369063 0
M  V30 5444 H 518.808 -4.93838 -0.701832 0
M  V30 5445 H 517.962 -5.25243 -3.03651 0
M  V30 5446 H 516.701 -4.01641 -2.76652 0
M  V30 5447 H 515.706 -5.41765 -0.936518 0
M  V30 5448 H 516.931 -6.67863 -1.2303 0
M  V30 5449 H 514.877 -5.69884 -3.24912 0
M  V30 5450 H 514.794 -7.18292 -2.35782 0
M  V30 5451 H 516.062 -6.95269 -3.5245 0
M  V30 5452 N 520.291 -0.0518155 -1.57515 0
M  V30 5453 C 521.239 0.940195 -2.12751 0
M  V30 5454 C 522.233 1.3218 -1.05948 0
M  V30 5455 O 523.439 1.30138 -1.24355 0
M  V30 5456 H 519.814 0.321066 -0.680015 0
M  V30 5457 H 521.785 0.449217 -2.94999 0
M  V30 5458 C 520.534 2.2055 -2.68799 0
M  V30 5459 H 519.857 1.92066 -3.50643 0
M  V30 5460 H 521.297 2.88119 -3.11068 0
M  V30 5461 C 519.756 2.95061 -1.62605 0
M  V30 5462 O 520.286 3.88025 -1.03921 0
M  V30 5463 N 518.492 2.57804 -1.34111 0
M  V30 5464 H 518.039 1.82281 -1.8202 0
M  V30 5465 H 517.997 3.07964 -0.632872 0
M  V30 5466 N 521.769 1.56035 0.221574 0
M  V30 5467 C 522.699 1.95434 1.2778 0
M  V30 5468 C 523.68 0.822564 1.48889 0
M  V30 5469 O 524.865 1.08486 1.61072 0
M  V30 5470 C 521.995 2.27102 2.62759 0
M  V30 5471 C 520.949 3.4277 2.56306 0
M  V30 5472 C 520.275 3.60043 3.95314 0
M  V30 5473 C 521.575 4.77742 2.11093 0
M  V30 5474 H 523.269 2.83912 0.950504 0
M  V30 5475 H 520.815 1.36596 0.455791 0
M  V30 5476 H 522.768 2.53256 3.36807 0
M  V30 5477 H 521.492 1.35478 2.97176 0
M  V30 5478 H 520.151 3.16664 1.84715 0
M  V30 5479 H 519.799 2.65794 4.27039 0
M  V30 5480 H 519.499 4.37841 3.91879 0
M  V30 5481 H 521.023 3.88545 4.71025 0
M  V30 5482 H 522.437 5.03102 2.74885 0
M  V30 5483 H 520.834 5.58823 2.18716 0
M  V30 5484 H 521.904 4.731 1.06321 0
M  V30 5485 N 523.247 -0.488276 1.49845 0
M  V30 5486 C 524.495 -1.23911 1.59657 0
M  V30 5487 C 524.816 -1.92816 0.291005 0
M  V30 5488 O 524.086 -1.83328 -0.690485 0
M  V30 5489 H 522.666 -0.460357 0.588286 0
M  V30 5490 H 525.328 -0.564794 1.86537 0
M  V30 5491 H 524.424 -1.99625 2.39909 0
M  V30 5492 N 524.725 -1.39134 -0.740242 0
M  V30 5493 C 525.974 -1.35384 -1.49512 0
M  V30 5494 C 526.287 0.04919 -1.95538 0
M  V30 5495 O 527.493 0.209257 -2.70692 0
M  V30 5496 C 525.949 -2.37812 -2.70136 0
M  V30 5497 C 525.557 -3.83804 -2.31081 0
M  V30 5498 C 527.301 -2.4313 -3.47977 0
M  V30 5499 C 525.208 -4.77886 -3.48395 0
M  V30 5500 H 524.138 -0.503297 -0.561434 0
M  V30 5501 H 526.789 -1.64754 -0.807974 0
M  V30 5502 H 525.171 -2.01505 -3.40899 0
M  V30 5503 H 526.345 -4.29123 -1.67898 0
M  V30 5504 H 524.66 -3.81732 -1.66343 0
M  V30 5505 H 527.257 -3.10614 -4.35228 0
M  V30 5506 H 527.6 -1.45423 -3.90074 0
M  V30 5507 H 528.133 -2.78304 -2.84239 0
M  V30 5508 H 524.872 -5.76836 -3.11353 0
M  V30 5509 H 524.392 -4.3725 -4.10576 0
M  V30 5510 H 526.071 -4.96538 -4.148 0
M  V30 5511 N 526.204 0.969867 -1.24223 0
M  V30 5512 C 527.45 1.7151 -1.08223 0
M  V30 5513 C 527.783 1.90478 0.37838 0
M  V30 5514 O 527.058 1.4647 1.27971 0
M  V30 5515 C 527.341 3.10714 -1.82013 0
M  V30 5516 C 527.194 2.9925 -3.35811 0
M  V30 5517 C 528.513 4.10332 -1.59108 0
M  V30 5518 H 525.632 0.622499 -0.394543 0
M  V30 5519 H 528.274 1.1284 -1.52863 0
M  V30 5520 H 526.424 3.608 -1.44068 0
M  V30 5521 H 528.096 2.56608 -3.83341 0
M  V30 5522 H 526.339 2.35512 -3.64303 0
M  V30 5523 H 527.01 3.97857 -3.82641 0
M  V30 5524 H 529.486 3.69097 -1.92111 0
M  V30 5525 H 528.362 5.05804 -2.13198 0
M  V30 5526 H 528.623 4.38926 -0.528832 0
M  V30 5527 N 527.682 1.05563 1.17022 0
M  V30 5528 C 528.615 0.604197 2.20056 0
M  V30 5529 C 529.593 -0.369169 1.58354 0
M  V30 5530 O 530.777 -0.279898 1.8641 0
M  V30 5531 C 527.904 -0.115265 3.38504 0
M  V30 5532 C 526.95 0.813698 4.18666 0
M  V30 5533 S 527.783 2.30492 4.83357 0
M  V30 5534 C 528.939 1.59674 6.0519 0
M  V30 5535 H 529.172 1.47713 2.58008 0
M  V30 5536 H 526.705 0.867932 1.27696 0
M  V30 5537 H 528.663 -0.524162 4.0714 0
M  V30 5538 H 527.324 -0.964284 2.98932 0
M  V30 5539 H 526.517 0.256736 5.03346 0
M  V30 5540 H 526.119 1.16213 3.55486 0
M  V30 5541 H 528.411 0.898164 6.7152 0
M  V30 5542 H 529.354 2.42115 6.65422 0
M  V30 5543 H 529.762 1.08252 5.54023 0
M  V30 5544 N 529.16 -1.33526 0.837174 0
M  V30 5545 C 530.09 -2.31764 0.284206 0
M  V30 5546 C 531.071 -1.58896 -0.607142 0
M  V30 5547 O 532.256 -1.86798 -0.531047 0
M  V30 5548 C 529.386 -3.43029 -0.542962 0
M  V30 5549 C 528.34 -4.27255 0.252451 0
M  V30 5550 C 527.666 -5.3012 -0.69836 0
M  V30 5551 C 528.966 -5.01229 1.46858 0
M  V30 5552 H 530.66 -2.78262 1.10502 0
M  V30 5553 H 528.206 -1.3378 0.532812 0
M  V30 5554 H 530.159 -4.1078 -0.940096 0
M  V30 5555 H 528.883 -2.95216 -1.39697 0
M  V30 5556 H 527.542 -3.61127 0.631124 0
M  V30 5557 H 527.19 -4.78564 -1.54872 0
M  V30 5558 H 526.89 -5.87353 -0.170274 0
M  V30 5559 H 528.414 -6.00737 -1.09305 0
M  V30 5560 H 529.828 -5.61756 1.14469 0
M  V30 5561 H 528.225 -5.68104 1.93333 0
M  V30 5562 H 529.295 -4.301 2.23924 0
M  V30 5563 N 530.638 -0.59345 -1.46 0
M  V30 5564 C 531.601 0.123538 -2.28867 0
M  V30 5565 C 532.601 0.808628 -1.38989 0
M  V30 5566 O 533.791 0.658945 -1.61256 0
M  V30 5567 C 530.923 1.1847 -3.19653 0
M  V30 5568 H 532.116 -0.604843 -2.93737 0
M  V30 5569 H 529.669 -0.351875 -1.52288 0
M  V30 5570 H 530.404 1.94431 -2.59552 0
M  V30 5571 H 530.189 0.69783 -3.8584 0
M  V30 5572 H 531.679 1.68726 -3.81997 0
M  V30 5573 N 532.116 1.54067 -0.331816 0
M  V30 5574 C 533.064 2.26105 0.54582 0
M  V30 5575 C 534.058 1.27816 1.11173 0
M  V30 5576 O 535.264 1.45565 1.05882 0
M  V30 5577 H 531.639 0.726363 0.194683 0
M  V30 5578 H 533.61 2.98282 -0.083931 0
M  V30 5579 C 532.359 3.03814 1.69092 0
M  V30 5580 H 531.682 3.79269 1.26473 0
M  V30 5581 H 533.122 3.57453 2.28043 0
M  V30 5582 C 531.581 2.12606 2.61343 0
M  V30 5583 O 532.111 1.71437 3.6328 0
M  V30 5584 N 530.317 1.77925 2.29763 0
M  V30 5585 H 529.864 2.11602 1.46909 0
M  V30 5586 H 529.822 1.1718 2.91747 0
M  V30 5587 N 533.594 0.0601682 1.57485 0
M  V30 5588 C 534.541 -0.91112 2.12055 0
M  V30 5589 C 535.511 -1.30298 1.03013 0
M  V30 5590 O 536.696 -1.39087 1.30612 0
M  V30 5591 C 533.836 -2.1775 2.67729 0
M  V30 5592 C 532.949 -1.83933 3.90887 0
M  V30 5593 C 532.084 -3.05096 4.34845 0
M  V30 5594 C 531.123 -2.67241 5.5068 0
M  V30 5595 N 530.26 -3.81127 5.8965 0
M  V30 5596 H 535.1 -0.43888 2.9475 0
M  V30 5597 H 532.637 -0.204995 1.45665 0
M  V30 5598 H 534.595 -2.91866 2.98111 0
M  V30 5599 H 533.225 -2.62535 1.87816 0
M  V30 5600 H 532.277 -0.999287 3.6704 0
M  V30 5601 H 533.589 -1.52074 4.75052 0
M  V30 5602 H 532.743 -3.87502 4.66827 0
M  V30 5603 H 531.482 -3.40139 3.49509 0
M  V30 5604 H 530.487 -1.83254 5.18361 0
M  V30 5605 H 531.712 -2.3338 6.37738 0
M  V30 5606 H 529.658 -4.15954 5.07266 0
M  V30 5607 H 529.575 -3.52997 6.68528 0
M  V30 5608 H 530.843 -4.64145 6.2625 0
M  V30 5609 N 535.072 -1.5615 -0.213296 0
M  V30 5610 C 536.297 -1.83986 -0.957282 0
M  V30 5611 C 536.722 -0.641526 -1.76822 0
M  V30 5612 O 536.08 0.409722 -1.7661 0
M  V30 5613 C 536.128 -3.09889 -1.84393 0
M  V30 5614 O 535.232 -2.89163 -2.94038 0
M  V30 5615 H 534.573 -0.606357 -0.270605 0
M  V30 5616 H 537.103 -2.03369 -0.224111 0
M  V30 5617 H 537.113 -3.40209 -2.25215 0
M  V30 5618 H 535.788 -3.96735 -1.24795 0
M  V30 5619 H 534.365 -2.70097 -2.57103 0
M  V30 5620 N 536.55 0.480323 -1.50102 0
M  V30 5621 C 537.78 1.25475 -1.64133 0
M  V30 5622 C 538.188 1.8647 -0.320272 0
M  V30 5623 O 537.531 1.69561 0.70673 0
M  V30 5624 C 537.593 2.40996 -2.6676 0
M  V30 5625 C 537.257 2.00711 -4.10565 0
M  V30 5626 C 538.254 1.53492 -4.96725 0
M  V30 5627 C 535.939 2.09714 -4.56427 0
M  V30 5628 C 537.933 1.15806 -6.26792 0
M  V30 5629 C 535.62 1.7164 -5.86501 0
M  V30 5630 C 536.618 1.24763 -6.71508 0
M  V30 5631 O 536.306 0.872122 -7.99155 0
M  V30 5632 H 536.038 0.385983 -0.554971 0
M  V30 5633 H 538.592 0.580848 -1.97016 0
M  V30 5634 H 536.822 3.11528 -2.291 0
M  V30 5635 H 538.511 3.02981 -2.70106 0
M  V30 5636 H 539.277 1.45966 -4.62514 0
M  V30 5637 H 535.156 2.4515 -3.90413 0
M  V30 5638 H 538.7 0.791465 -6.93096 0
M  V30 5639 H 534.597 1.78822 -6.20236 0
M  V30 5640 H 535.365 1.00178 -8.12346 0
M  V30 5641 N 538.028 1.39524 0.732853 0
M  V30 5642 C 539.439 1.32905 1.31122 0
M  V30 5643 C 539.79 -0.00558708 1.96199 0
M  V30 5644 O 538.915 -0.907706 1.96443 0
M  V30 5645 C 539.51 2.40704 2.38426 0
M  V30 5646 C 538.069 2.37599 2.91931 0
M  V30 5647 C 537.216 2.2248 1.65523 0
M  V30 5648 H 540.167 1.49581 0.530207 0
M  V30 5649 H 540.188 2.07616 3.18867 0
M  V30 5650 H 539.7 3.37829 1.91033 0
M  V30 5651 H 537.801 1.44119 3.43599 0
M  V30 5652 H 537.914 3.32538 3.44899 0
M  V30 5653 H 536.278 1.69691 1.8994 0
M  V30 5654 H 537.061 3.21577 1.20178 0
M  V30 5655 N 539.506 -0.963266 1.24736 0
M  V30 5656 C 540.454 -2.07985 1.04139 0
M  V30 5657 C 541.448 -1.69381 -0.0250556 0
M  V30 5658 O 542.654 -1.79531 0.129863 0
M  V30 5659 H 539.029 -0.680627 0.319768 0
M  V30 5660 H 541 -2.22517 1.98818 0
M  V30 5661 C 539.749 -3.4123 0.667615 0
M  V30 5662 H 539.072 -3.71397 1.48 0
M  V30 5663 H 540.512 -4.20244 0.563136 0
M  V30 5664 C 538.971 -3.3104 -0.625647 0
M  V30 5665 O 539.501 -3.65334 -1.67016 0
M  V30 5666 N 537.707 -2.84168 -0.608033 0
M  V30 5667 H 537.254 -2.56458 0.242323 0
M  V30 5668 H 537.212 -2.77732 -1.47352 0
M  V30 5669 N 540.985 -1.06182 -1.16461 0
M  V30 5670 C 542.396 -0.802426 -1.68576 0
M  V30 5671 C 542.747 0.67412 -1.84255 0
M  V30 5672 O 541.872 1.52303 -1.5373 0
M  V30 5673 C 542.467 -1.45002 -3.06202 0
M  V30 5674 C 541.026 -1.23843 -3.55443 0
M  V30 5675 C 540.173 -1.52724 -2.31454 0
M  V30 5676 H 543.124 -1.22545 -1.00839 0
M  V30 5677 H 543.145 -0.864731 -3.70544 0
M  V30 5678 H 542.657 -2.52466 -2.94759 0
M  V30 5679 H 540.758 -0.183487 -3.72148 0
M  V30 5680 H 540.871 -1.95036 -4.37604 0
M  V30 5681 H 539.235 -0.947726 -2.36411 0
M  V30 5682 H 540.018 -2.61343 -2.22609 0
M  V30 5683 N 542.463 1.3308 -0.844243 0
M  V30 5684 C 543.426 2.27403 -0.286485 0
M  V30 5685 C 544.426 1.51179 0.547872 0
M  V30 5686 O 545.616 1.70421 0.360886 0
M  V30 5687 C 542.748 3.35653 0.595813 0
M  V30 5688 H 543.941 2.78248 -1.11885 0
M  V30 5689 H 541.494 1.43574 -0.617749 0
M  V30 5690 H 542.229 2.90058 1.4504 0
M  V30 5691 H 542.014 3.921 -0.00125994 0
M  V30 5692 H 543.504 4.05958 0.979168 0
M  V30 5693 N 543.941 0.601185 1.45683 0
M  V30 5694 C 545.357 0.264315 1.57396 0
M  V30 5695 C 545.557 -1.23324 1.59353 0
M  V30 5696 O 544.613 -2.01594 1.52039 0
M  V30 5697 C 545.926 0.929839 2.85962 0
M  V30 5698 C 547.474 0.905156 2.99626 0
M  V30 5699 C 547.949 1.55057 4.30954 0
M  V30 5700 N 549.44 1.51576 4.37697 0
M  V30 5701 C 550.175 1.98436 5.37969 0
M  V30 5702 N 549.671 2.53352 6.44813 0
M  V30 5703 N 551.464 1.89242 5.29286 0
M  V30 5704 H 543.615 1.57363 1.42656 0
M  V30 5705 H 545.878 0.658831 0.681649 0
M  V30 5706 H 545.584 1.98404 2.90394 0
M  V30 5707 H 545.458 0.449224 3.74515 0
M  V30 5708 H 547.845 -0.14048 2.94765 0
M  V30 5709 H 547.926 1.42397 2.12501 0
M  V30 5710 H 547.57 2.5955 4.36573 0
M  V30 5711 H 547.5 1.00682 5.16886 0
M  V30 5712 H 549.991 1.11452 3.61091 0
M  V30 5713 H 550.304 2.86918 7.17564 0
M  V30 5714 H 548.649 2.57388 6.45582 0
M  V30 5715 H 551.84 1.46083 4.44722 0
M  V30 5716 H 552.013 2.26075 6.07284 0
M  V30 5717 N 545.419 -1.53889 0.339982 0
M  V30 5718 C 546.665 -2.01152 -0.258003 0
M  V30 5719 C 546.998 -1.22749 -1.50487 0
M  V30 5720 O 546.273 -0.314156 -1.91946 0
M  V30 5721 C 546.556 -3.55468 -0.575717 0
M  V30 5722 C 546.409 -4.44584 0.682996 0
M  V30 5723 C 547.728 -4.1768 -1.38677 0
M  V30 5724 H 544.847 -0.731198 -0.0922992 0
M  V30 5725 H 547.489 -1.84352 0.459814 0
M  V30 5726 H 545.639 -3.69914 -1.18725 0
M  V30 5727 H 547.311 -4.41981 1.32102 0
M  V30 5728 H 545.554 -4.13592 1.3086 0
M  V30 5729 H 546.225 -5.5043 0.416001 0
M  V30 5730 H 548.701 -4.0691 -0.869705 0
M  V30 5731 H 547.577 -5.25734 -1.57783 0
M  V30 5732 H 547.838 -3.72069 -2.38782 0
M  V30 5733 N 546.897 -0.0685191 -1.57451 0
M  V30 5734 C 547.807 0.914677 -2.16034 0
M  V30 5735 C 548.823 1.32938 -1.12265 0
M  V30 5736 O 549.999 1.40275 -1.44516 0
M  V30 5737 C 547.064 2.16519 -2.70777 0
M  V30 5738 C 546.125 1.80721 -3.89408 0
M  V30 5739 C 545.358 2.9981 -4.41531 0
M  V30 5740 O 545.581 4.13727 -3.92666 0
M  V30 5741 O 544.515 2.79817 -5.32903 0
M  V30 5742 H 548.341 0.446364 -3.00402 0
M  V30 5743 H 545.926 0.154367 -1.486 0
M  V30 5744 H 547.808 2.89856 -3.05878 0
M  V30 5745 H 546.483 2.62454 -1.89471 0
M  V30 5746 H 545.39 1.04646 -3.59166 0
M  V30 5747 H 546.723 1.39571 -4.71997 0
M  V30 5748 N 548.375 1.56261 0.205012 0
M  V30 5749 C 549.338 1.92908 1.23771 0
M  V30 5750 C 550.338 0.809208 1.38955 0
M  V30 5751 O 551.528 1.07676 1.36936 0
M  V30 5752 C 548.66 2.19442 2.60879 0
M  V30 5753 H 549.853 2.85287 0.924728 0
M  V30 5754 H 547.406 1.49798 0.446125 0
M  V30 5755 H 548.141 1.29668 2.97248 0
M  V30 5756 H 547.926 3.0104 2.51232 0
M  V30 5757 H 549.416 2.48833 3.35368 0
M  V30 5758 N 549.853 -0.472356 1.50355 0
M  V30 5759 C 550.816 -1.5529 1.68576 0
M  V30 5760 C 551.816 -1.50863 0.556511 0
M  V30 5761 O 553.006 -1.53505 0.823516 0
M  V30 5762 C 550.138 -2.94921 1.70981 0
M  V30 5763 H 551.331 -1.40451 2.64978 0
M  V30 5764 H 548.884 -0.698645 1.39816 0
M  V30 5765 H 549.619 -3.15204 0.762675 0
M  V30 5766 H 549.404 -2.99541 2.53017 0
M  V30 5767 H 550.894 -3.73372 1.87037 0
M  V30 5768 N 551.331 -1.39911 -0.725443 0
M  V30 5769 C 552.577 -1.38862 -1.48624 0
M  V30 5770 C 552.932 0.0125913 -1.92396 0
M  V30 5771 O 552.225 0.981046 -1.64578 0
M  V30 5772 C 552.419 -2.30368 -2.7325 0
M  V30 5773 C 552.248 -3.79247 -2.41665 0
M  V30 5774 C 551.018 -4.48119 -2.3349 0
M  V30 5775 C 553.216 -4.70988 -2.06579 0
M  V30 5776 N 551.198 -5.82282 -1.94476 0
M  V30 5777 C 552.569 -5.93873 -1.78087 0
M  V30 5778 C 554.624 -4.58917 -1.9313 0
M  V30 5779 C 553.327 -7.06036 -1.37499 0
M  V30 5780 C 555.353 -5.71012 -1.53946 0
M  V30 5781 C 554.715 -6.92976 -1.26345 0
M  V30 5782 H 550.814 -0.563394 -0.54232 0
M  V30 5783 H 553.398 -1.75542 -0.842213 0
M  V30 5784 H 551.569 -1.95831 -3.35417 0
M  V30 5785 H 553.301 -2.20245 -3.39521 0
M  V30 5786 H 550.056 -4.01677 -2.50904 0
M  V30 5787 H 550.48 -6.53307 -1.77535 0
M  V30 5788 H 555.122 -3.65149 -2.13134 0
M  V30 5789 H 552.84 -7.99697 -1.16237 0
M  V30 5790 H 556.426 -5.63664 -1.44132 0
M  V30 5791 H 555.306 -7.78243 -0.964787 0
M  V30 5792 N 552.809 0.956637 -1.25245 0
M  V30 5793 C 554.225 1.22733 -1.02023 0
M  V30 5794 C 554.425 1.99761 0.264186 0
M  V30 5795 O 553.481 2.32814 0.977436 0
M  V30 5796 C 554.794 2.00367 -2.24217 0
M  V30 5797 C 556.342 2.13418 -2.28958 0
M  V30 5798 C 556.817 2.9445 -3.50803 0
M  V30 5799 N 558.308 3.02029 -3.51187 0
M  V30 5800 C 559.043 3.65116 -4.42129 0
M  V30 5801 N 558.539 4.2983 -5.43339 0
M  V30 5802 N 560.332 3.62237 -4.29815 0
M  V30 5803 H 552.483 0.441282 -2.07765 0
M  V30 5804 H 554.746 0.257686 -0.912306 0
M  V30 5805 H 554.452 1.51165 -3.17556 0
M  V30 5806 H 554.326 3.01077 -2.27228 0
M  V30 5807 H 556.713 2.61819 -1.36143 0
M  V30 5808 H 556.794 1.1202 -2.29968 0
M  V30 5809 H 556.438 2.46741 -4.43939 0
M  V30 5810 H 556.368 3.9607 -3.47039 0
M  V30 5811 H 558.859 2.56007 -2.77973 0
M  V30 5812 H 559.172 4.75819 -6.08947 0
M  V30 5813 H 557.517 4.28465 -5.47214 0
M  V30 5814 H 560.708 3.10863 -3.49974 0
M  V30 5815 H 560.881 4.11117 -5.00886 0
M  V30 5816 N 554.287 1.06798 1.15896 0
M  V30 5817 C 555.536 0.782796 1.8589 0
M  V30 5818 C 555.849 -0.693498 1.82893 0
M  V30 5819 O 557.055 -1.09325 2.48516 0
M  V30 5820 C 555.511 1.3502 3.33613 0
M  V30 5821 C 555.119 2.8571 3.45071 0
M  V30 5822 C 556.863 1.14278 4.08829 0
M  V30 5823 C 554.77 3.35669 4.86909 0
M  V30 5824 H 553.7 0.289149 0.696354 0
M  V30 5825 H 556.351 1.28734 1.30766 0
M  V30 5826 H 554.733 0.773407 3.88374 0
M  V30 5827 H 555.907 3.49385 3.00445 0
M  V30 5828 H 554.222 3.05178 2.83294 0
M  V30 5829 H 556.819 1.49087 5.13495 0
M  V30 5830 H 557.162 0.0814575 4.1622 0
M  V30 5831 H 557.695 1.68563 3.60321 0
M  V30 5832 H 554.434 4.41302 4.84698 0
M  V30 5833 H 553.954 2.76745 5.32139 0
M  V30 5834 H 555.633 3.31296 5.55745 0
M  V30 5835 N 555.766 -1.3263 0.851289 0
M  V30 5836 C 556.696 -2.31449 0.308771 0
M  V30 5837 C 557.677 -1.59531 -0.590255 0
M  V30 5838 O 558.862 -1.87351 -0.511205 0
M  V30 5839 C 555.992 -3.43586 -0.506548 0
M  V30 5840 C 554.946 -4.26963 0.297753 0
M  V30 5841 C 554.272 -5.30831 -0.642094 0
M  V30 5842 C 555.572 -4.99643 1.52166 0
M  V30 5843 H 557.266 -2.77074 1.13447 0
M  V30 5844 H 554.812 -1.33207 0.546971 0
M  V30 5845 H 556.765 -4.11754 -0.896474 0
M  V30 5846 H 555.489 -2.96681 -1.36558 0
M  V30 5847 H 554.148 -3.60437 0.669391 0
M  V30 5848 H 553.796 -4.8018 -1.49788 0
M  V30 5849 H 553.496 -5.87501 -0.107968 0
M  V30 5850 H 555.02 -6.01862 -1.02927 0
M  V30 5851 H 556.434 -5.6051 1.20421 0
M  V30 5852 H 554.831 -5.66022 1.99347 0
M  V30 5853 H 555.901 -4.27701 2.28474 0
M  V30 5854 N 557.244 -0.608902 -1.45362 0
M  V30 5855 C 558.154 0.110969 -2.34337 0
M  V30 5856 C 559.17 0.859007 -1.51318 0
M  V30 5857 O 560.346 0.816296 -1.84116 0
M  V30 5858 C 557.411 1.09494 -3.28956 0
M  V30 5859 C 556.472 0.348718 -4.27881 0
M  V30 5860 C 555.705 1.28582 -5.17979 0
M  V30 5861 O 555.928 2.52369 -5.11533 0
M  V30 5862 O 554.862 0.782172 -5.96796 0
M  V30 5863 H 558.688 -0.620258 -2.97299 0
M  V30 5864 H 556.273 -0.36916 -1.44767 0
M  V30 5865 H 558.155 1.66163 -3.87257 0
M  V30 5866 H 556.83 1.80717 -2.68557 0
M  V30 5867 H 555.737 -0.260465 -3.73192 0
M  V30 5868 H 557.07 -0.323049 -4.91139 0
M  V30 5869 N 558.722 1.53707 -0.348139 0
M  V30 5870 C 559.669 2.25173 0.506518 0
M  V30 5871 C 560.639 1.25174 1.09182 0
M  V30 5872 O 561.824 1.53917 1.12757 0
M  V30 5873 C 558.964 3.03141 1.64923 0
M  V30 5874 C 558.077 4.18002 1.0908 0
M  V30 5875 C 557.212 4.83447 2.20119 0
M  V30 5876 C 556.251 5.90369 1.61651 0
M  V30 5877 N 555.388 6.49575 2.66451 0
M  V30 5878 H 560.228 2.97799 -0.109452 0
M  V30 5879 H 557.765 1.46953 -0.0657866 0
M  V30 5880 H 559.723 3.46607 2.32205 0
M  V30 5881 H 558.353 2.32803 2.23612 0
M  V30 5882 H 557.405 3.79145 0.308783 0
M  V30 5883 H 558.717 4.94892 0.623178 0
M  V30 5884 H 557.871 5.30008 2.95257 0
M  V30 5885 H 556.61 4.05991 2.70227 0
M  V30 5886 H 555.615 5.43186 0.850209 0
M  V30 5887 H 556.84 6.69735 1.1239 0
M  V30 5888 H 554.786 5.74981 3.15805 0
M  V30 5889 H 554.703 7.21952 2.24325 0
M  V30 5890 H 555.971 7.00789 3.41344 0
M  V30 5891 N 560.2 0.0768682 1.57412 0
M  V30 5892 C 561.13 -0.886026 2.16037 0
M  V30 5893 C 562.111 -1.30691 1.08876 0
M  V30 5894 O 563.296 -1.37705 1.36934 0
M  V30 5895 C 560.426 -2.1518 2.72608 0
M  V30 5896 C 559.38 -1.87015 3.8498 0
M  V30 5897 C 558.706 -3.20266 4.28175 0
M  V30 5898 C 560.006 -1.17143 5.08994 0
M  V30 5899 H 561.7 -0.397642 2.96748 0
M  V30 5900 H 559.246 -0.189823 1.42743 0
M  V30 5901 H 561.199 -2.82962 3.12266 0
M  V30 5902 H 559.923 -2.66269 1.89125 0
M  V30 5903 H 558.582 -1.21636 3.45833 0
M  V30 5904 H 558.23 -3.69207 3.41607 0
M  V30 5905 H 557.93 -3.0221 5.03927 0
M  V30 5906 H 559.454 -3.89237 4.70454 0
M  V30 5907 H 560.868 -1.75003 5.45937 0
M  V30 5908 H 559.265 -1.09328 5.90057 0
M  V30 5909 H 560.335 -0.151295 4.84664 0
M  V30 5910 N 561.678 -1.56367 -0.196722 0
M  V30 5911 C 562.61 -1.90941 -1.26784 0
M  V30 5912 C 563.623 -0.799928 -1.41792 0
M  V30 5913 O 564.812 -1.07833 -1.42247 0
M  V30 5914 C 561.912 -2.12477 -2.6402 0
M  V30 5915 C 561.085 -3.43616 -2.70641 0
M  V30 5916 C 560.144 -3.54284 -3.89062 0
M  V30 5917 O 559.17 -4.2712 -3.76241 0
M  V30 5918 N 560.372 -2.87252 -5.04447 0
M  V30 5919 H 563.137 -2.83417 -0.974417 0
M  V30 5920 H 560.698 -1.57215 -0.386649 0
M  V30 5921 H 562.69 -2.16904 -3.41665 0
M  V30 5922 H 561.26 -1.26508 -2.85857 0
M  V30 5923 H 560.48 -3.51072 -1.79283 0
M  V30 5924 H 561.768 -4.29958 -2.72054 0
M  V30 5925 H 561.166 -2.27901 -5.17762 0
M  V30 5926 H 559.723 -2.97308 -5.80044 0
M  V30 5927 O 563.195 0.341958 -1.57838 0
M  V30 5928 H 563.886 0.991482 -1.66401 0
M  V30 END ATOM
M  V30 BEGIN BOND
M  V30 END BOND
M  V30 END CTAB
M  END
$$$$
