drugbank_target|P05155 Plasma protease C1 inhibitor (DB05961; DB09130)
 OpenBabel12092120213D

  0  0  0     0  0            999 V3000
M  V30 BEGIN CTAB
M  V30 COUNTS 7802 7880 0 0 0
M  V30 BEGIN ATOM
M  V30 1 H -0.908 1.98254 -0.117106 0
M  V30 2 N 0 1.576 0 0
M  V30 3 C 0.933 2.03868 1.02534 0
M  V30 4 C 1.911 0.928543 1.3348 0
M  V30 5 O 3.095 1.19667 1.45644 0
M  V30 6 C 0.222 2.43627 2.35294 0
M  V30 7 C -0.732 3.65373 2.2001 0
M  V30 8 S 0.101 5.13292 1.52614 0
M  V30 9 C 1.257 5.56322 2.86805 0
M  V30 10 H 1.49 2.90518 0.631377 0
M  V30 11 H -0.977 1.52953 0.210867 0
M  V30 12 H 0.981 2.67203 3.11629 0
M  V30 13 H -0.358 1.57376 2.7183 0
M  V30 14 H -1.165 3.90944 3.18086 0
M  V30 15 H -1.563 3.418 1.51819 0
M  V30 16 H 0.729 5.58782 3.83104 0
M  V30 17 H 1.672 6.56266 2.65933 0
M  V30 18 H 2.08 4.83886 2.90714 0
M  V30 19 N 1.4781 -0.272755 1.55222 0
M  V30 20 C 2.4411 -1.32041 1.87344 0
M  V30 21 C 3.4411 -1.42342 0.74803 0
M  V30 22 O 4.6311 -1.41488 1.0162 0
M  V30 23 C 1.7631 -2.70173 2.07893 0
M  V30 24 H 2.9561 -1.04789 2.80997 0
M  V30 25 H 0.5091 -0.51083 1.47717 0
M  V30 26 H 1.2441 -3.02605 1.16622 0
M  V30 27 H 1.0291 -2.64082 2.89833 0
M  V30 28 H 2.5191 -3.45869 2.34017 0
M  V30 29 N 2.9562 -1.48159 -0.537278 0
M  V30 30 C 4.1812 -1.59707 -1.32319 0
M  V30 31 C 4.6062 -0.254859 -1.86365 0
M  V30 32 O 3.9642 0.772378 -1.64024 0
M  V30 33 C 4.0122 -2.6412 -2.45505 0
M  V30 34 O 3.1162 -2.20774 -3.48328 0
M  V30 35 H 2.4572 -0.535791 -0.392204 0
M  V30 36 H 4.9872 -1.94092 -0.647268 0
M  V30 37 H 4.9972 -2.85166 -2.91795 0
M  V30 38 H 3.6722 -3.61567 -2.05528 0
M  V30 39 H 2.2492 -2.09911 -3.08207 0
M  V30 40 N 4.4343 0.785586 -1.36625 0
M  V30 41 C 5.8503 1.08419 -1.17122 0
M  V30 42 C 6.0503 2.015 0.00208491 0
M  V30 43 O 5.1063 2.43551 0.666278 0
M  V30 44 C 6.4193 1.69498 -2.48377 0
M  V30 45 C 7.9673 1.81821 -2.54775 0
M  V30 46 C 8.4423 2.46315 -3.86126 0
M  V30 47 N 9.9333 2.53779 -3.87492 0
M  V30 48 C 10.6683 3.045 -4.85868 0
M  V30 49 N 10.1643 3.55499 -5.94637 0
M  V30 50 N 11.9573 3.03247 -4.73284 0
M  V30 51 H 4.1083 0.167264 -2.1174 0
M  V30 52 H 6.3713 0.13682 -0.938075 0
M  V30 53 H 6.0773 1.08571 -3.34522 0
M  V30 54 H 5.9513 2.6896 -2.64462 0
M  V30 55 H 8.3383 2.41884 -1.69045 0
M  V30 56 H 8.4193 0.811532 -2.42586 0
M  V30 57 H 8.0633 1.86895 -4.72263 0
M  V30 58 H 7.9933 3.47561 -3.95612 0
M  V30 59 H 10.4843 2.17672 -3.08913 0
M  V30 60 H 10.7973 3.92562 -6.65669 0
M  V30 61 H 9.1423 3.5364 -5.98301 0
M  V30 62 H 12.3333 2.62696 -3.87438 0
M  V30 63 H 12.5063 3.42467 -5.50109 0
M  V30 64 N 5.9124 1.20967 1.01018 0
M  V30 65 C 6.8424 0.988272 2.11555 0
M  V30 66 C 7.8234 -0.0849778 1.69888 0
M  V30 67 O 9.0084 0.0738202 1.9406 0
M  V30 68 C 6.1384 0.546528 3.42973 0
M  V30 69 C 5.0924 1.56375 3.9841 0
M  V30 70 C 4.4184 0.97842 5.25672 0
M  V30 71 C 5.7184 2.94922 4.31066 0
M  V30 72 H 7.4124 1.91276 2.30334 0
M  V30 73 H 4.9584 0.921073 1.1069 0
M  V30 74 H 6.9114 0.378839 4.19694 0
M  V30 75 H 5.6354 -0.413598 3.23971 0
M  V30 76 H 4.2944 1.71891 3.23804 0
M  V30 77 H 3.9424 0.0101688 5.02999 0
M  V30 78 H 3.6424 1.65784 5.63728 0
M  V30 79 H 5.1664 0.821939 6.05043 0
M  V30 80 H 6.5804 2.8288 4.9865 0
M  V30 81 H 4.9774 3.5983 4.80253 0
M  V30 82 H 6.0474 3.4616 3.39561 0
M  V30 83 N 7.3905 -1.2043 1.01659 0
M  V30 84 C 8.6185 -1.93777 0.725132 0
M  V30 85 C 9.0335 -1.74772 -0.714166 0
M  V30 86 O 8.3905 -1.06169 -1.4844 0
M  V30 87 C 8.4415 -3.45876 1.05129 0
M  V30 88 O 8.1625 -3.6426 2.43406 0
M  V30 89 C 9.6635 -4.36368 0.780891 0
M  V30 90 H 6.8835 -0.615901 0.266284 0
M  V30 91 H 9.4275 -1.52922 1.35776 0
M  V30 92 H 7.5825 -3.8461 0.464065 0
M  V30 93 H 7.9965 -4.58246 2.55169 0
M  V30 94 H 9.4705 -5.41743 1.05918 0
M  V30 95 H 9.9475 -4.38275 -0.284937 0
M  V30 96 H 10.5535 -4.03296 1.35027 0
M  V30 97 N 8.8686 -0.792821 -1.36206 0
M  V30 98 C 9.7986 -0.207853 -2.32573 0
M  V30 99 C 10.7796 0.659055 -1.56813 0
M  V30 100 O 11.9646 0.592176 -1.84951 0
M  V30 101 C 9.0946 0.655449 -3.41059 0
M  V30 102 C 8.0486 -0.111842 -4.27854 0
M  V30 103 C 7.3746 0.872274 -5.27537 0
M  V30 104 C 8.6746 -1.30299 -5.05786 0
M  V30 105 H 10.3686 -1.01294 -2.81744 0
M  V30 106 H 7.9146 -0.48854 -1.3546 0
M  V30 107 H 9.8676 1.07464 -4.07467 0
M  V30 108 H 8.5916 1.49328 -2.90463 0
M  V30 109 H 7.2506 -0.512053 -3.63006 0
M  V30 110 H 6.8986 1.70523 -4.73214 0
M  V30 111 H 6.5986 0.363291 -5.86476 0
M  V30 112 H 8.1226 1.28996 -5.96818 0
M  V30 113 H 9.5366 -0.959379 -5.65216 0
M  V30 114 H 7.9336 -1.7455 -5.74154 0
M  V30 115 H 9.0036 -2.09663 -4.37229 0
M  V30 116 N 10.3467 1.47872 -0.545128 0
M  V30 117 C 11.2767 2.32661 0.197793 0
M  V30 118 C 12.2577 1.43041 0.920504 0
M  V30 119 O 13.4427 1.71912 0.90333 0
M  V30 120 C 10.5727 3.24569 1.23582 0
M  V30 121 C 9.5267 4.23333 0.630323 0
M  V30 122 C 8.8527 5.0448 1.77211 0
M  V30 123 C 10.1527 5.20704 -0.407974 0
M  V30 124 H 11.8467 2.95024 -0.510045 0
M  V30 125 H 9.3927 1.4187 -0.246731 0
M  V30 126 H 11.3457 3.8272 1.76362 0
M  V30 127 H 10.0697 2.60236 1.97344 0
M  V30 128 H 8.7287 3.6639 0.123922 0
M  V30 129 H 8.3767 4.36561 2.49847 0
M  V30 130 H 8.0767 5.71339 1.37281 0
M  V30 131 H 9.6007 5.65487 2.3034 0
M  V30 132 H 11.0147 5.7329 0.033305 0
M  V30 133 H 9.4117 5.95699 -0.725486 0
M  V30 134 H 10.4817 4.66917 -1.30828 0
M  V30 135 N 11.8248 0.280983 1.55075 0
M  V30 136 C 13.0528 -0.337293 2.04132 0
M  V30 137 C 13.4678 -1.4903 1.15912 0
M  V30 138 O 12.8248 -1.81606 0.180459 0
M  V30 139 C 12.8758 -0.812706 3.52246 0
M  V30 140 O 12.5968 0.294387 4.3711 0
M  V30 141 C 14.0978 -1.4982 4.17216 0
M  V30 142 H 11.3178 -0.0761638 0.666663 0
M  V30 143 H 13.8618 0.414787 2.00249 0
M  V30 144 H 12.0168 -1.51486 3.56554 0
M  V30 145 H 12.4308 -0.0721325 5.2445 0
M  V30 146 H 13.9048 -1.7822 5.22438 0
M  V30 147 H 14.3818 -2.43168 3.65741 0
M  V30 148 H 14.9878 -0.839742 4.16927 0
M  V30 149 N 13.3029 -1.57598 0.00835791 0
M  V30 150 C 14.2329 -2.1198 -0.979113 0
M  V30 151 C 15.2139 -1.03091 -1.35301 0
M  V30 152 O 16.3989 -1.30818 -1.43528 0
M  V30 153 C 13.5289 -2.62995 -2.26828 0
M  V30 154 C 12.4829 -3.76485 -2.03576 0
M  V30 155 C 11.8089 -4.13846 -3.38579 0
M  V30 156 C 13.1089 -5.0342 -1.39161 0
M  V30 157 H 14.8029 -2.94738 -0.526281 0
M  V30 158 H 12.3489 -1.41783 -0.251704 0
M  V30 159 H 14.3019 -2.99669 -2.96271 0
M  V30 160 H 13.0259 -1.7737 -2.7424 0
M  V30 161 H 11.6849 -3.40217 -1.36557 0
M  V30 162 H 11.3329 -3.25232 -3.83709 0
M  V30 163 H 11.0329 -4.90312 -3.23834 0
M  V30 164 H 12.5569 -4.53086 -4.09323 0
M  V30 165 H 13.9709 -5.37812 -1.98573 0
M  V30 166 H 12.3679 -5.84746 -1.34878 0
M  V30 167 H 13.4379 -4.83548 -0.361868 0
M  V30 168 N 14.781 0.264519 -1.55364 0
M  V30 169 C 15.711 1.33121 -1.91836 0
M  V30 170 C 16.692 1.51101 -0.781192 0
M  V30 171 O 17.877 1.64003 -1.04003 0
M  V30 172 C 15.007 2.68921 -2.19769 0
M  V30 173 C 13.961 2.65661 -3.35571 0
M  V30 174 C 13.287 4.05093 -3.49004 0
M  V30 175 C 14.587 2.24187 -4.71739 0
M  V30 176 H 16.281 1.02844 -2.81182 0
M  V30 177 H 13.827 0.493286 -1.35287 0
M  V30 178 H 15.78 3.43663 -2.43872 0
M  V30 179 H 14.504 3.00799 -1.27231 0
M  V30 180 H 13.163 1.93377 -3.1145 0
M  V30 181 H 12.811 4.34206 -2.53917 0
M  V30 182 H 12.511 4.03804 -4.26868 0
M  V30 183 H 14.035 4.81561 -3.75408 0
M  V30 184 H 15.449 2.88654 -4.9533 0
M  V30 185 H 13.846 2.34044 -5.52579 0
M  V30 186 H 14.916 1.19327 -4.69988 0
M  V30 187 N 16.2591 1.48442 0.529413 0
M  V30 188 C 17.1891 1.65902 1.64313 0
M  V30 189 C 18.1701 0.507897 1.6234 0
M  V30 190 O 19.3551 0.740503 1.79528 0
M  V30 191 C 16.4851 1.69911 3.02898 0
M  V30 192 C 15.4391 2.8453 3.19729 0
M  V30 193 C 14.7651 2.73629 4.59381 0
M  V30 194 C 16.0651 4.25821 3.02447 0
M  V30 195 H 17.7591 2.5914 1.49955 0
M  V30 196 H 15.3051 1.24709 0.719982 0
M  V30 197 H 17.2581 1.80715 3.80684 0
M  V30 198 H 15.9821 0.732524 3.18279 0
M  V30 199 H 14.6411 2.73283 2.44361 0
M  V30 200 H 14.2891 1.74938 4.71599 0
M  V30 201 H 13.9891 3.50541 4.71588 0
M  V30 202 H 15.5131 2.86401 5.39265 0
M  V30 203 H 16.9271 4.37898 3.70024 0
M  V30 204 H 15.3241 5.03735 3.26146 0
M  V30 205 H 16.3941 4.42244 1.98867 0
M  V30 206 N 17.7372 -0.778329 1.37039 0
M  V30 207 C 18.6672 -1.90546 1.34962 0
M  V30 208 C 19.6482 -1.68681 0.219274 0
M  V30 209 O 20.8332 -1.89634 0.418624 0
M  V30 210 C 17.9632 -3.27734 1.14925 0
M  V30 211 C 16.9172 -3.64147 2.24902 0
M  V30 212 C 16.2432 -4.99806 1.89996 0
M  V30 213 C 17.5432 -3.71579 3.67051 0
M  V30 214 H 19.2372 -1.92541 2.29277 0
M  V30 215 H 16.7832 -0.924948 1.10366 0
M  V30 216 H 18.7362 -4.06215 1.12104 0
M  V30 217 H 17.4602 -3.26154 0.170631 0
M  V30 218 H 16.1192 -2.8797 2.26868 0
M  V30 219 H 15.7672 -4.94759 0.906796 0
M  V30 220 H 15.4672 -5.25139 2.63634 0
M  V30 221 H 16.9912 -5.80694 1.88749 0
M  V30 222 H 18.4052 -4.40227 3.67251 0
M  V30 223 H 16.8022 -4.08405 4.39688 0
M  V30 224 H 17.8722 -2.72404 4.01154 0
M  V30 225 N 19.2153 -1.21501 -1.00376 0
M  V30 226 C 20.1453 -0.999478 -2.11028 0
M  V30 227 C 21.1263 0.0759671 -1.6993 0
M  V30 228 O 22.3113 -0.0841106 -1.94018 0
M  V30 229 C 19.4413 -0.564709 -3.42678 0
M  V30 230 C 18.3953 -1.58486 -3.97576 0
M  V30 231 C 17.7213 -1.00628 -5.25146 0
M  V30 232 C 19.0213 -2.97204 -4.29496 0
M  V30 233 H 20.7153 -1.92495 -2.29317 0
M  V30 234 H 18.2613 -0.92693 -1.102 0
M  V30 235 H 20.2143 -0.401091 -4.19487 0
M  V30 236 H 18.9383 0.396411 -3.24185 0
M  V30 237 H 17.5973 -1.73606 -3.22888 0
M  V30 238 H 17.2453 -0.0368439 -5.02987 0
M  V30 239 H 16.9453 -1.68771 -5.62841 0
M  V30 240 H 18.4693 -0.854015 -6.04598 0
M  V30 241 H 19.8833 -2.8552 -4.97143 0
M  V30 242 H 18.2803 -3.62372 -4.78338 0
M  V30 243 H 19.3503 -3.47956 -3.3772 0
M  V30 244 N 20.6934 1.19889 -1.02296 0
M  V30 245 C 21.6234 2.25141 -0.619174 0
M  V30 246 C 22.6044 1.66051 0.368915 0
M  V30 247 O 23.7894 1.92546 0.252941 0
M  V30 248 C 20.9194 3.4728 0.0368783 0
M  V30 249 C 19.8734 4.19005 -0.872865 0
M  V30 250 C 19.1994 5.34637 -0.0822402 0
M  V30 251 C 20.4994 4.74452 -2.18387 0
M  V30 252 H 22.1934 2.59171 -1.49903 0
M  V30 253 H 19.7394 1.24579 -0.722222 0
M  V30 254 H 21.6924 4.20098 0.330958 0
M  V30 255 H 20.4164 3.12433 0.95149 0
M  V30 256 H 19.0754 3.48061 -1.15105 0
M  V30 257 H 18.7234 4.96034 0.83422 0
M  V30 258 H 18.4234 5.83557 -0.688149 0
M  V30 259 H 19.9474 6.10255 0.205238 0
M  V30 260 H 21.3614 5.39055 -1.95172 0
M  V30 261 H 19.7584 5.33834 -2.74119 0
M  V30 262 H 20.8284 3.92844 -2.84257 0
M  V30 263 N 22.1715 0.800033 1.35784 0
M  V30 264 C 23.1345 0.211565 2.28221 0
M  V30 265 C 24.1345 -0.59728 1.49296 0
M  V30 266 O 25.3245 -0.416721 1.69142 0
M  V30 267 C 22.4565 -0.705846 3.33513 0
M  V30 268 H 23.6495 1.02677 2.81776 0
M  V30 269 H 21.2025 0.570211 1.45528 0
M  V30 270 H 21.9375 -1.54498 2.85133 0
M  V30 271 H 21.7225 -0.127655 3.91892 0
M  V30 272 H 23.2125 -1.11211 4.02519 0
M  V30 273 N 23.6496 -1.47581 0.552962 0
M  V30 274 C 24.8976 -2.02082 0.0272703 0
M  V30 275 C 25.2186 -1.4301 -1.32563 0
M  V30 276 O 24.4886 -0.603745 -1.86365 0
M  V30 277 H 23.0686 -0.746966 0.00709182 0
M  V30 278 H 25.7306 -1.81033 0.722008 0
M  V30 279 H 24.8266 -3.12034 -0.0639951 0
M  V30 280 N 25.1277 -0.289203 -1.54924 0
M  V30 281 C 26.4047 0.376032 -1.91951 0
M  V30 282 C 26.7847 1.72622 -1.21511 0
M  V30 283 O 26.1327 2.25853 -0.346767 0
M  V30 284 C 26.3427 0.502378 -3.45365 0
M  V30 285 C 27.6907 0.778741 -4.17398 0
M  V30 286 O 28.7147 0.586647 -3.51336 0
M  V30 287 O 27.5737 1.14698 -5.34328 0
M  V30 288 H 24.6677 0.208167 -0.800372 0
M  V30 289 H 27.2137 -0.336394 -1.66332 0
M  V30 290 H 25.9857 -0.447255 -3.88736 0
M  V30 291 H 25.6087 1.26373 -3.76982 0
M  V30 292 N 26.6058 1.57591 -0.0167156 0
M  V30 293 C 28.0218 1.55946 0.339557 0
M  V30 294 C 28.2218 1.02109 1.73713 0
M  V30 295 O 27.2778 0.662303 2.43659 0
M  V30 296 C 28.5908 3.00037 0.199499 0
M  V30 297 C 30.1388 3.11805 0.273193 0
M  V30 298 C 30.6138 4.57713 0.162068 0
M  V30 299 N 32.1048 4.6268 0.219444 0
M  V30 300 C 32.8398 5.73185 0.157054 0
M  V30 301 N 32.3358 6.92786 0.0442936 0
M  V30 302 N 34.1288 5.61707 0.21014 0
M  V30 303 H 26.2798 1.90921 -0.930758 0
M  V30 304 H 28.5428 0.877674 -0.358319 0
M  V30 305 H 28.2488 3.4333 -0.76273 0
M  V30 306 H 28.1228 3.64387 0.974786 0
M  V30 307 H 30.5098 2.68433 1.22587 0
M  V30 308 H 30.5908 2.50201 -0.532256 0
M  V30 309 H 30.2348 5.01763 -0.78714 0
M  V30 310 H 30.1648 5.17283 0.986222 0
M  V30 311 H 32.6558 3.76649 0.307246 0
M  V30 312 H 32.9688 7.728 0.00304069 0
M  V30 313 H 31.3138 6.94999 0.00968457 0
M  V30 314 H 34.5048 4.6716 0.296546 0
M  V30 315 H 34.6778 6.47807 0.158054 0
M  V30 316 N 28.0839 -0.256276 1.55502 0
M  V30 317 C 29.0469 -1.30047 1.88734 0
M  V30 318 C 30.0469 -1.4154 0.763086 0
M  V30 319 O 31.2369 -1.40403 1.03115 0
M  V30 320 C 28.3689 -2.67953 2.10747 0
M  V30 321 H 29.5619 -1.01802 2.82093 0
M  V30 322 H 27.1149 -0.495134 1.4825 0
M  V30 323 H 27.8499 -3.01351 1.19825 0
M  V30 324 H 27.6349 -2.60993 2.92617 0
M  V30 325 H 29.1249 -3.43368 2.37673 0
M  V30 326 N 29.562 -1.4872 -0.521534 0
M  V30 327 C 30.787 -1.61101 -1.30618 0
M  V30 328 C 31.212 -0.274611 -1.86085 0
M  V30 329 O 30.57 0.754937 -1.64834 0
M  V30 330 C 30.618 -2.66709 -2.4269 0
M  V30 331 O 29.722 -2.24456 -3.45967 0
M  V30 332 H 29.063 -0.539921 -0.386499 0
M  V30 333 H 31.593 -1.94767 -0.626645 0
M  V30 334 H 31.603 -2.88245 -2.88754 0
M  V30 335 H 30.278 -3.63727 -2.01682 0
M  V30 336 H 28.855 -2.13168 -3.05964 0
M  V30 337 N 31.0401 0.771051 -1.3745 0
M  V30 338 C 32.2651 1.56529 -1.36065 0
M  V30 339 C 32.6901 1.88029 0.0515859 0
M  V30 340 O 32.0481 1.49282 1.02882 0
M  V30 341 C 32.0961 2.85187 -2.20683 0
M  V30 342 O 31.2001 3.79593 -1.61193 0
M  V30 343 H 30.5411 0.47411 -0.464883 0
M  V30 344 H 33.0711 0.954269 -1.80983 0
M  V30 345 H 33.0811 3.34283 -2.33921 0
M  V30 346 H 31.7561 2.61588 -3.23334 0
M  V30 347 H 30.3331 3.38239 -1.56999 0
M  V30 348 N 32.5182 1.22032 0.997298 0
M  V30 349 C 33.4662 0.983634 2.10778 0
M  V30 350 C 34.4602 -0.0717564 1.69248 0
M  V30 351 O 35.6662 0.080304 1.79821 0
M  V30 352 H 32.0412 0.300877 0.689186 0
M  V30 353 H 34.0122 1.92606 2.27916 0
M  V30 354 C 32.7612 0.57326 3.42942 0
M  V30 355 H 32.0842 1.37702 3.75338 0
M  V30 356 H 33.5242 0.447031 4.21637 0
M  V30 357 C 31.9832 -0.7167 3.29188 0
M  V30 358 O 32.5132 -1.77027 3.60589 0
M  V30 359 N 30.7192 -0.686167 2.82383 0
M  V30 360 H 30.2662 0.171507 2.57028 0
M  V30 361 H 30.2242 -1.54955 2.73562 0
M  V30 362 N 33.9963 -1.19345 1.0293 0
M  V30 363 C 35.4073 -1.70725 0.755633 0
M  V30 364 C 35.7583 -1.82326 -0.724676 0
M  V30 365 O 34.8833 -1.49471 -1.56484 0
M  V30 366 C 35.4783 -3.10084 1.36503 0
M  V30 367 C 34.0373 -3.58723 1.13994 0
M  V30 368 C 33.1843 -2.35577 1.46283 0
M  V30 369 H 36.1353 -1.0418 1.19718 0
M  V30 370 H 36.1563 -3.72787 0.762217 0
M  V30 371 H 35.6683 -3.01609 2.44241 0
M  V30 372 H 33.7693 -3.72512 0.0807901 0
M  V30 373 H 33.8823 -4.42816 1.82894 0
M  V30 374 H 32.2463 -2.38935 0.88217 0
M  V30 375 H 33.0293 -2.29731 2.55105 0
M  V30 376 N 35.4744 -0.807222 -1.35358 0
M  V30 377 C 36.4224 -0.20614 -2.31685 0
M  V30 378 C 37.4164 0.644445 -1.56663 0
M  V30 379 O 38.6224 0.537538 -1.71786 0
M  V30 380 H 34.9974 -0.0479006 -0.750473 0
M  V30 381 H 36.9684 -1.03369 -2.79924 0
M  V30 382 C 35.7174 0.630212 -3.41941 0
M  V30 383 H 35.0404 -0.0149558 -3.99797 0
M  V30 384 H 36.4804 1.01716 -4.11619 0
M  V30 385 C 34.9394 1.79601 -2.85035 0
M  V30 386 O 35.4694 2.89351 -2.78637 0
M  V30 387 N 33.6754 1.60774 -2.42074 0
M  V30 388 H 33.2224 0.715009 -2.47478 0
M  V30 389 H 33.1804 2.38933 -2.04349 0
M  V30 390 N 36.9525 1.47285 -0.560781 0
M  V30 391 C 37.9155 2.28535 0.174488 0
M  V30 392 C 38.9155 1.37153 0.839388 0
M  V30 393 O 40.1055 1.59748 0.694702 0
M  V30 394 C 37.2375 3.16934 1.25561 0
M  V30 395 H 38.4305 2.95012 -0.539262 0
M  V30 396 H 35.9835 1.53034 -0.317865 0
M  V30 397 H 36.7185 2.55157 2.00164 0
M  V30 398 H 36.5035 3.8419 0.783604 0
M  V30 399 H 37.9935 3.78143 1.77193 0
M  V30 400 N 38.4306 0.297415 1.54768 0
M  V30 401 C 39.6586 -0.315623 2.04478 0
M  V30 402 C 40.0736 -1.47792 1.17486 0
M  V30 403 O 39.4306 -1.81404 0.19971 0
M  V30 404 C 39.4816 -0.7753 3.53088 0
M  V30 405 O 39.2026 0.340732 4.36773 0
M  V30 406 C 40.7036 -1.45386 4.18781 0
M  V30 407 H 37.9236 -0.0690887 0.667434 0
M  V30 408 H 40.4676 0.436003 1.99798 0
M  V30 409 H 38.6226 -1.47696 3.58141 0
M  V30 410 H 39.0366 -0.0165035 5.24497 0
M  V30 411 H 40.5106 -1.72669 5.24299 0
M  V30 412 H 40.9876 -2.39275 3.68299 0
M  V30 413 H 41.5936 -0.795475 4.17795 0
M  V30 414 N 39.9087 -1.5758 0.0250728 0
M  V30 415 C 41.1337 -1.96337 -0.668317 0
M  V30 416 C 41.5587 -0.901314 -1.651 0
M  V30 417 O 40.9167 0.138187 -1.80773 0
M  V30 418 C 40.9647 -3.34191 -1.35457 0
M  V30 419 O 40.0687 -3.30269 -2.46974 0
M  V30 420 H 39.4097 -0.640281 -0.175887 0
M  V30 421 H 41.9397 -2.0442 0.0857224 0
M  V30 422 H 41.9497 -3.70331 -1.71228 0
M  V30 423 H 40.6247 -4.11036 -0.634218 0
M  V30 424 H 39.2017 -3.05841 -2.13344 0
M  V30 425 N 41.3868 0.248026 -1.55636 0
M  V30 426 C 42.6118 0.998028 -1.81808 0
M  V30 427 C 43.0368 1.78207 -0.601979 0
M  V30 428 O 42.3948 1.75653 0.448961 0
M  V30 429 C 42.4428 1.9125 -3.05705 0
M  V30 430 O 41.5468 3.00406 -2.82542 0
M  V30 431 H 40.8878 0.284045 -0.600179 0
M  V30 432 H 43.4178 0.269357 -2.02819 0
M  V30 433 H 43.4278 2.32737 -3.35108 0
M  V30 434 H 42.1028 1.33602 -3.93857 0
M  V30 435 H 40.6798 2.63056 -2.64303 0
M  V30 436 N 42.8649 1.48995 0.513639 0
M  V30 437 C 44.0899 1.61792 1.29762 0
M  V30 438 C 44.5149 0.284475 1.85936 0
M  V30 439 O 43.8729 -0.746185 1.65232 0
M  V30 440 C 43.9209 2.67993 2.41272 0
M  V30 441 O 43.0249 2.26287 3.44772 0
M  V30 442 H 42.3659 0.541963 0.38363 0
M  V30 443 H 44.8959 1.95097 0.616307 0
M  V30 444 H 44.9059 2.89772 2.87221 0
M  V30 445 H 43.5809 3.64791 1.9975 0
M  V30 446 H 42.1579 2.14788 3.04829 0
M  V30 447 N 44.343 -0.763751 1.37857 0
M  V30 448 C 45.568 -1.55805 1.36893 0
M  V30 449 C 45.993 -1.88054 -0.0416135 0
M  V30 450 O 45.351 -1.49825 -1.02089 0
M  V30 451 C 45.399 -2.84012 2.22192 0
M  V30 452 O 44.503 -3.78732 1.63204 0
M  V30 453 H 43.844 -0.471638 0.46739 0
M  V30 454 H 46.374 -0.944657 1.81487 0
M  V30 455 H 46.384 -3.33037 2.35691 0
M  V30 456 H 45.059 -2.59869 3.24716 0
M  V30 457 H 43.636 -3.37402 1.58791 0
M  V30 458 N 45.8211 -1.22559 -0.990812 0
M  V30 459 C 46.7531 -0.955325 -2.08342 0
M  V30 460 C 47.7661 0.0668408 -1.62663 0
M  V30 461 O 48.9551 -0.167421 -1.77713 0
M  V30 462 C 46.0551 -0.415566 -3.36342 0
M  V30 463 C 45.2281 -1.49544 -4.11042 0
M  V30 464 C 44.2871 -0.962399 -5.17324 0
M  V30 465 O 43.3131 -1.64907 -5.44788 0
M  V30 466 N 44.5151 0.215134 -5.80101 0
M  V30 467 H 47.2801 -1.89596 -2.32106 0
M  V30 468 H 44.8411 -1.13276 -1.15673 0
M  V30 469 H 46.8331 -0.0442386 -4.04676 0
M  V30 470 H 45.4031 0.430232 -3.09625 0
M  V30 471 H 44.6231 -2.04 -3.37309 0
M  V30 472 H 45.9111 -2.22195 -4.57719 0
M  V30 473 H 45.3091 0.789779 -5.6016 0
M  V30 474 H 43.8661 0.527826 -6.49659 0
M  V30 475 N 47.2992 1.18797 -1.03562 0
M  V30 476 C 48.5762 1.84469 -0.650434 0
M  V30 477 C 48.9562 1.92319 0.870433 0
M  V30 478 O 48.3042 1.44528 1.76986 0
M  V30 479 C 48.5142 3.2306 -1.32036 0
M  V30 480 C 49.8622 3.9915 -1.44792 0
M  V30 481 O 50.8862 3.32481 -1.27806 0
M  V30 482 O 49.7452 5.18587 -1.72423 0
M  V30 483 H 46.8392 0.795251 -0.226946 0
M  V30 484 H 49.3852 1.26231 -1.13419 0
M  V30 485 H 48.1572 3.1222 -2.3587 0
M  V30 486 H 47.7802 3.88949 -0.8249 0
M  V30 487 N 48.7773 0.814389 1.34928 0
M  V30 488 C 50.1883 0.458364 1.80986 0
M  V30 489 C 50.5393 -1.02042 1.67577 0
M  V30 490 O 49.6643 -1.79352 1.21086 0
M  V30 491 C 50.2593 0.825212 3.28597 0
M  V30 492 C 48.8183 0.521677 3.72767 0
M  V30 493 C 47.9653 1.04668 2.56788 0
M  V30 494 H 50.9163 1.00533 1.22795 0
M  V30 495 H 50.9373 0.12571 3.80292 0
M  V30 496 H 50.4493 1.90154 3.38324 0
M  V30 497 H 48.5503 -0.545589 3.68584 0
M  V30 498 H 48.6633 1.05977 4.67232 0
M  V30 499 H 47.0273 0.468622 2.50352 0
M  V30 500 H 47.8103 2.12927 2.6929 0
M  V30 501 N 50.2554 -1.46986 0.568584 0
M  V30 502 C 51.1654 -2.33942 -0.17555 0
M  V30 503 C 52.1814 -1.48891 -0.90041 0
M  V30 504 O 53.3574 -1.81794 -0.86676 0
M  V30 505 C 50.4224 -3.25811 -1.18524 0
M  V30 506 C 49.4834 -4.26757 -0.466582 0
M  V30 507 C 48.7164 -5.14236 -1.42817 0
M  V30 508 O 48.9394 -5.04379 -2.66379 0
M  V30 509 O 47.8734 -5.94412 -0.946453 0
M  V30 510 H 51.6994 -2.98896 0.538036 0
M  V30 511 H 49.2844 -1.4573 0.329097 0
M  V30 512 H 51.1664 -3.82527 -1.76779 0
M  V30 513 H 49.8414 -2.63471 -1.88055 0
M  V30 514 H 48.7484 -3.73769 0.157451 0
M  V30 515 H 50.0814 -4.91843 0.187485 0
M  V30 516 N 51.7335 -0.305618 -1.54608 0
M  V30 517 C 52.9585 0.307562 -2.05107 0
M  V30 518 C 53.3835 1.46385 -1.18123 0
M  V30 519 O 52.7415 1.8034 -0.186324 0
M  V30 520 C 52.7895 0.73704 -3.52987 0
M  V30 521 O 51.8935 1.84134 -3.6901 0
M  V30 522 H 51.2345 0.0589143 -0.661381 0
M  V30 523 H 53.7645 -0.448807 -1.99617 0
M  V30 524 H 53.7745 1.02459 -3.94925 0
M  V30 525 H 52.4495 -0.108773 -4.15758 0
M  V30 526 H 51.0265 1.55398 -3.38978 0
M  V30 527 N 53.2116 1.57565 -0.0334293 0
M  V30 528 C 54.1416 2.13511 0.945265 0
M  V30 529 C 55.1226 1.05231 1.33643 0
M  V30 530 O 56.3076 1.33084 1.41429 0
M  V30 531 C 53.4376 2.6657 2.22616 0
M  V30 532 C 52.3916 3.79676 1.97561 0
M  V30 533 C 51.7176 4.1918 3.31952 0
M  V30 534 C 53.0176 5.0557 1.31135 0
M  V30 535 H 54.7116 2.95538 0.479325 0
M  V30 536 H 52.2576 1.42166 0.229115 0
M  V30 537 H 54.2106 3.04344 2.91466 0
M  V30 538 H 52.9346 1.8171 2.71384 0
M  V30 539 H 51.5936 3.42347 1.31127 0
M  V30 540 H 51.2416 3.31296 3.78487 0
M  V30 541 H 50.9416 4.95402 3.15992 0
M  V30 542 H 52.4656 4.59541 4.02063 0
M  V30 543 H 53.8796 5.40903 1.89992 0
M  V30 544 H 52.2766 5.86818 1.25559 0
M  V30 545 H 53.3466 4.84062 0.284894 0
M  V30 546 N 54.6897 -0.239769 1.55765 0
M  V30 547 C 55.6217 -1.32001 1.87372 0
M  V30 548 C 56.6347 -1.43944 0.760522 0
M  V30 549 O 57.8237 -1.45167 1.0387 0
M  V30 550 C 54.9237 -2.69779 2.05115 0
M  V30 551 C 54.0967 -2.80014 3.36022 0
M  V30 552 C 53.1557 -3.98684 3.4342 0
M  V30 553 O 52.1817 -3.87877 4.16582 0
M  V30 554 N 53.3837 -5.12176 2.73232 0
M  V30 555 H 56.1487 -1.0522 2.80622 0
M  V30 556 H 53.7097 -0.429857 1.56089 0
M  V30 557 H 55.7017 -3.47517 2.07399 0
M  V30 558 H 54.2717 -2.89237 1.18577 0
M  V30 559 H 53.4917 -1.88896 3.45994 0
M  V30 560 H 54.7797 -2.83808 4.22292 0
M  V30 561 H 54.1777 -5.2385 2.13536 0
M  V30 562 H 52.7347 -5.88022 2.81199 0
M  V30 563 N 56.1678 -1.49265 -0.50573 0
M  V30 564 C 57.4448 -1.49012 -1.26707 0
M  V30 565 C 57.8248 -0.215205 -2.1 0
M  V30 566 O 57.1728 0.802547 -2.13943 0
M  V30 567 C 57.3828 -2.7663 -2.12783 0
M  V30 568 C 58.7308 -3.25932 -2.72127 0
M  V30 569 O 59.7548 -2.77715 -2.23054 0
M  V30 570 O 58.6138 -4.09897 -3.61451 0
M  V30 571 H 55.7078 -0.596197 -0.57313 0
M  V30 572 H 58.2538 -1.61524 -0.52039 0
M  V30 573 H 57.0258 -3.60916 -1.5118 0
M  V30 574 H 56.6488 -2.66956 -2.94653 0
M  V30 575 N 57.6459 0.756429 -1.3826 0
M  V30 576 C 59.0619 1.0591 -1.19395 0
M  V30 577 C 59.2619 2.01459 -0.0406567 0
M  V30 578 O 58.3179 2.44909 0.614467 0
M  V30 579 C 59.6309 1.64191 -2.51916 0
M  V30 580 C 61.1789 1.76376 -2.58574 0
M  V30 581 C 61.6539 2.38069 -3.91264 0
M  V30 582 N 63.1449 2.45503 -3.92788 0
M  V30 583 C 63.8799 2.94126 -4.92217 0
M  V30 584 N 63.3759 3.42805 -6.02043 0
M  V30 585 N 65.1689 2.9314 -4.7961 0
M  V30 586 H 57.3199 0.122313 -2.12048 0
M  V30 587 H 59.5829 0.116892 -0.940766 0
M  V30 588 H 59.2889 1.01451 -3.3675 0
M  V30 589 H 59.1629 2.6329 -2.70108 0
M  V30 590 H 61.5499 2.38244 -1.74137 0
M  V30 591 H 61.6309 0.759894 -2.44252 0
M  V30 592 H 61.2749 1.76835 -4.76121 0
M  V30 593 H 61.2049 3.39091 -4.02895 0
M  V30 594 H 63.6959 2.1107 -3.13461 0
M  V30 595 H 64.0089 3.78354 -6.73846 0
M  V30 596 H 62.3539 3.4087 -6.05667 0
M  V30 597 H 65.5449 2.54419 -3.92923 0
M  V30 598 H 65.7179 3.30721 -5.5725 0
M  V30 599 N 59.124 1.23083 0.984299 0
M  V30 600 C 60.372 1.05848 1.72165 0
M  V30 601 C 60.693 -0.406049 1.90726 0
M  V30 602 O 59.963 -1.29139 1.47309 0
M  V30 603 H 58.543 0.388685 0.637913 0
M  V30 604 H 61.205 1.54736 1.18503 0
M  V30 605 H 60.301 1.54327 2.71274 0
M  V30 606 N 60.6021 -1.18246 1.0419 0
M  V30 607 C 61.5121 -2.25574 0.644476 0
M  V30 608 C 62.5281 -1.70845 -0.329826 0
M  V30 609 O 63.7041 -2.00554 -0.184443 0
M  V30 610 C 60.7691 -3.46697 0.014877 0
M  V30 611 C 59.8301 -4.16554 1.03834 0
M  V30 612 C 59.0631 -5.31894 0.438692 0
M  V30 613 O 59.2861 -5.65385 -0.754752 0
M  V30 614 O 58.2201 -5.90459 1.168 0
M  V30 615 H 62.0461 -2.61836 1.53869 0
M  V30 616 H 59.6311 -1.25352 0.812854 0
M  V30 617 H 61.5131 -4.20062 -0.335538 0
M  V30 618 H 60.1881 -3.12255 -0.853138 0
M  V30 619 H 59.0951 -3.45251 1.44057 0
M  V30 620 H 60.4281 -4.54998 1.87716 0
M  V30 621 N 62.0802 -0.821533 -1.34494 0
M  V30 622 C 63.3282 -0.408139 -1.97936 0
M  V30 623 C 63.6492 1.03193 -1.65457 0
M  V30 624 O 62.9192 1.71622 -0.944595 0
M  V30 625 H 61.4992 -0.147928 -0.732206 0
M  V30 626 H 64.1612 -1.05067 -1.64155 0
M  V30 627 H 63.2572 -0.52601 -3.07635 0
M  V30 628 N 63.5583 1.46682 -0.576371 0
M  V30 629 C 64.5053 2.30241 0.160499 0
M  V30 630 C 65.4753 1.40233 0.890162 0
M  V30 631 O 66.6603 1.69186 0.882084 0
M  V30 632 C 63.8003 3.24578 1.1723 0
M  V30 633 C 62.9133 4.29684 0.446736 0
M  V30 634 C 62.0483 5.11154 1.44551 0
M  V30 635 C 61.0873 6.08015 0.70599 0
M  V30 636 N 60.2243 6.82376 1.65251 0
M  V30 637 H 65.0643 2.92727 -0.558127 0
M  V30 638 H 62.6013 1.44272 -0.287056 0
M  V30 639 H 64.5593 3.77711 1.77172 0
M  V30 640 H 63.1893 2.63916 1.85872 0
M  V30 641 H 62.2413 3.79458 -0.267594 0
M  V30 642 H 63.5533 4.98626 -0.131686 0
M  V30 643 H 62.7073 5.68533 2.11791 0
M  V30 644 H 61.4463 4.42158 2.05786 0
M  V30 645 H 60.4513 5.49796 0.0197725 0
M  V30 646 H 61.6763 6.79028 0.09912 0
M  V30 647 H 59.6223 6.16094 2.25308 0
M  V30 648 H 59.5393 7.47556 1.12673 0
M  V30 649 H 60.8073 7.44316 2.31546 0
M  V30 650 N 65.0364 0.313813 1.54444 0
M  V30 651 C 66.2824 -0.292108 2.00685 0
M  V30 652 C 66.6154 -1.52548 1.20177 0
M  V30 653 O 65.8904 -1.92452 0.281531 0
M  V30 654 C 66.1734 -0.635968 3.5444 0
M  V30 655 C 66.0264 0.607437 4.4568 0
M  V30 656 C 67.3454 -1.45747 4.15266 0
M  V30 657 H 64.4644 -0.104697 0.729526 0
M  V30 658 H 67.1064 0.428457 1.85106 0
M  V30 659 H 65.2564 -1.24986 3.67846 0
M  V30 660 H 66.9284 1.24581 4.44159 0
M  V30 661 H 65.1714 1.23822 4.15753 0
M  V30 662 H 65.8424 0.322515 5.51057 0
M  V30 663 H 68.3184 -0.938645 4.05375 0
M  V30 664 H 67.1944 -1.66683 5.2298 0
M  V30 665 H 67.4554 -2.45063 3.67963 0
M  V30 666 N 66.5145 -1.57545 0.0417849 0
M  V30 667 C 67.4775 -2.09885 -0.92093 0
M  V30 668 C 68.4775 -1.01648 -1.24596 0
M  V30 669 O 69.6675 -1.27759 -1.1842 0
M  V30 670 C 66.7995 -2.57527 -2.23367 0
M  V30 671 H 67.9925 -2.96236 -0.467382 0
M  V30 672 H 65.5455 -1.5493 -0.206467 0
M  V30 673 H 66.2805 -1.74542 -2.73323 0
M  V30 674 H 66.0655 -3.36613 -2.01083 0
M  V30 675 H 67.5555 -2.98201 -2.92346 0
M  V30 676 N 67.9926 0.231505 -1.5589 0
M  V30 677 C 69.2206 0.974505 -1.82513 0
M  V30 678 C 69.6356 1.78344 -0.619591 0
M  V30 679 O 68.9926 1.77792 0.411848 0
M  V30 680 C 69.0436 1.90007 -3.07538 0
M  V30 681 O 68.7646 1.12385 -4.2344 0
M  V30 682 C 70.2656 2.75779 -3.47075 0
M  V30 683 H 67.4856 0.286065 -0.606966 0
M  V30 684 H 70.0296 0.249739 -2.02969 0
M  V30 685 H 68.1846 2.57891 -2.89086 0
M  V30 686 H 68.5986 1.75125 -4.944 0
M  V30 687 H 70.0726 3.36443 -4.37619 0
M  V30 688 H 70.5496 3.47672 -2.68367 0
M  V30 689 H 71.1556 2.13323 -3.67931 0
M  V30 690 N 69.4707 1.49531 0.497807 0
M  V30 691 C 70.6987 1.62893 1.27567 0
M  V30 692 C 71.1137 0.301585 1.86376 0
M  V30 693 O 70.4707 -0.713335 1.67982 0
M  V30 694 C 70.5217 2.70013 2.40364 0
M  V30 695 O 70.2427 3.976 1.83972 0
M  V30 696 C 71.7437 2.94109 3.31685 0
M  V30 697 H 68.9637 0.548298 0.386794 0
M  V30 698 H 71.5077 1.95584 0.597245 0
M  V30 699 H 69.6627 2.40092 3.04031 0
M  V30 700 H 70.0767 4.56631 2.58047 0
M  V30 701 H 71.5507 3.72788 4.07104 0
M  V30 702 H 72.0277 2.04147 3.88871 0
M  V30 703 H 72.6337 3.2546 2.73781 0
M  V30 704 N 70.9488 -0.749086 1.3866 0
M  V30 705 C 72.1948 -1.51056 1.35314 0
M  V30 706 C 72.5278 -1.94121 -0.0553751 0
M  V30 707 O 71.8028 -1.65763 -1.01749 0
M  V30 708 C 72.0858 -2.76003 2.31288 0
M  V30 709 C 71.9388 -2.39047 3.8102 0
M  V30 710 C 73.2578 -3.78046 2.2532 0
M  V30 711 H 70.3768 -0.547972 0.492844 0
M  V30 712 H 73.0188 -0.857628 1.69543 0
M  V30 713 H 71.1688 -3.31716 2.02229 0
M  V30 714 H 72.8408 -1.89074 4.20771 0
M  V30 715 H 71.0838 -1.71449 3.98482 0
M  V30 716 H 71.7548 -3.28462 4.4364 0
M  V30 717 H 74.2308 -3.31884 2.50983 0
M  V30 718 H 73.1068 -4.63159 2.94576 0
M  V30 719 H 73.3678 -4.23957 1.25352 0
M  V30 720 N 72.4269 -1.23603 -0.977757 0
M  V30 721 C 73.6759 -1.06377 -1.71368 0
M  V30 722 C 73.9889 0.399062 -1.91486 0
M  V30 723 O 75.1949 0.691312 -2.62551 0
M  V30 724 C 73.6509 -1.85512 -3.08404 0
M  V30 725 C 73.2589 -3.36141 -2.96164 0
M  V30 726 C 75.0029 -1.76783 -3.85938 0
M  V30 727 C 72.9099 -4.07659 -4.28449 0
M  V30 728 H 71.8399 -0.394452 -0.642591 0
M  V30 729 H 74.4909 -1.47594 -1.09034 0
M  V30 730 H 72.8729 -1.37103 -3.71509 0
M  V30 731 H 74.0469 -3.92056 -2.42133 0
M  V30 732 H 72.3619 -3.45712 -2.32104 0
M  V30 733 H 74.9589 -2.27526 -4.83876 0
M  V30 734 H 75.3019 -0.731116 -4.0983 0
M  V30 735 H 75.8349 -2.22818 -3.2954 0
M  V30 736 H 72.5739 -5.11648 -4.09752 0
M  V30 737 H 72.0939 -3.5653 -4.82334 0
M  V30 738 H 73.7729 -4.141 -4.97122 0
M  V30 739 N 73.905 1.17692 -1.04816 0
M  V30 740 C 75.13 1.92327 -0.776207 0
M  V30 741 C 75.555 1.76082 0.661581 0
M  V30 742 O 74.913 1.076 1.45917 0
M  V30 743 C 74.961 3.41539 -1.15687 0
M  V30 744 O 74.065 4.11402 -0.286775 0
M  V30 745 H 73.406 0.599735 -0.284981 0
M  V30 746 H 75.936 1.49201 -1.4 0
M  V30 747 H 75.946 3.92269 -1.12202 0
M  V30 748 H 74.621 3.52684 -2.20425 0
M  V30 749 H 73.198 3.70939 -0.381903 0
M  V30 750 N 75.3831 0.828654 1.34056 0
M  V30 751 C 76.3301 0.252567 2.29414 0
M  V30 752 C 77.3001 -0.62588 1.53857 0
M  V30 753 O 78.4851 -0.566312 1.82202 0
M  V30 754 C 75.6251 -0.574831 3.40279 0
M  V30 755 C 74.7381 0.326499 4.30764 0
M  V30 756 C 73.8731 -0.511016 5.28736 0
M  V30 757 C 72.9121 0.389342 6.1086 0
M  V30 758 N 72.0491 -0.409439 7.00905 0
M  V30 759 H 76.8891 1.07108 2.78086 0
M  V30 760 H 74.4261 0.539677 1.36843 0
M  V30 761 H 76.3841 -1.06992 4.03248 0
M  V30 762 H 75.0141 -1.35841 2.92826 0
M  V30 763 H 74.0661 0.939837 3.68607 0
M  V30 764 H 75.3781 1.01857 4.88289 0
M  V30 765 H 74.5321 -1.07035 5.97184 0
M  V30 766 H 73.2711 -1.23657 4.71763 0
M  V30 767 H 72.2761 0.960769 5.4134 0
M  V30 768 H 73.5011 1.1131 6.69916 0
M  V30 769 H 71.4471 -1.11856 6.46393 0
M  V30 770 H 71.3641 0.224126 7.55668 0
M  V30 771 H 72.6321 -0.951336 7.73673 0
M  V30 772 N 76.8612 -1.46375 0.584142 0
M  V30 773 C 77.7942 -2.27351 -0.196676 0
M  V30 774 C 78.7722 -1.35715 -0.895561 0
M  V30 775 O 79.9562 -1.65126 -0.90916 0
M  V30 776 C 77.0832 -3.13486 -1.28235 0
M  V30 777 C 76.1292 -4.20896 -0.689145 0
M  V30 778 S 76.9622 -5.33299 0.48507 0
M  V30 779 C 78.1182 -6.23 -0.601767 0
M  V30 780 H 78.3512 -2.93228 0.490395 0
M  V30 781 H 75.8842 -1.49875 0.371071 0
M  V30 782 H 77.8422 -3.63676 -1.90395 0
M  V30 783 H 76.5032 -2.4692 -1.94138 0
M  V30 784 H 75.6962 -4.80997 -1.50527 0
M  V30 785 H 75.2982 -3.73726 -0.143181 0
M  V30 786 H 77.5902 -6.60979 -1.48705 0
M  V30 787 H 78.5332 -7.0809 -0.0374799 0
M  V30 788 H 78.9412 -5.57173 -0.906557 0
M  V30 789 N 78.3393 -0.321999 -1.54275 0
M  V30 790 C 79.2693 0.537411 -2.27231 0
M  V30 791 C 80.2503 1.12064 -1.27968 0
M  V30 792 O 81.4353 1.14606 -1.56777 0
M  V30 793 C 78.5653 1.69919 -3.02894 0
M  V30 794 C 77.5193 1.24534 -4.09482 0
M  V30 795 C 76.8453 2.49394 -4.72977 0
M  V30 796 C 78.1453 0.361335 -5.21049 0
M  V30 797 H 79.8393 -0.0711406 -2.99315 0
M  V30 798 H 77.3853 -0.0356555 -1.43956 0
M  V30 799 H 79.3383 2.30668 -3.52662 0
M  V30 800 H 78.0623 2.33431 -2.28424 0
M  V30 801 H 76.7213 0.660782 -3.60596 0
M  V30 802 H 76.3693 3.11265 -3.95124 0
M  V30 803 H 76.0693 2.19718 -5.44975 0
M  V30 804 H 77.5933 3.10908 -5.25517 0
M  V30 805 H 79.0073 0.875072 -5.66582 0
M  V30 806 H 77.4043 0.157428 -5.99893 0
M  V30 807 H 78.4743 -0.60822 -4.8107 0
M  V30 808 N 79.8174 1.5752 -0.0501392 0
M  V30 809 C 81.0644 1.9265 0.623874 0
M  V30 810 C 81.3924 0.928411 1.70912 0
M  V30 811 O 80.6474 -0.0594525 1.9561 0
M  V30 812 C 80.9464 3.34467 1.25963 0
M  V30 813 C 80.6124 4.49883 0.302689 0
M  V30 814 C 79.2744 4.81184 0.0393636 0
M  V30 815 C 81.6264 5.20002 -0.353205 0
M  V30 816 C 78.9544 5.79951 -0.887308 0
M  V30 817 C 81.3064 6.1976 -1.26806 0
M  V30 818 C 79.9704 6.49491 -1.54007 0
M  V30 819 H 79.2404 0.704957 0.228292 0
M  V30 820 H 81.8874 1.91146 -0.116398 0
M  V30 821 H 80.1924 3.32333 2.07514 0
M  V30 822 H 81.8894 3.58928 1.78806 0
M  V30 823 H 78.4794 4.25457 0.518109 0
M  V30 824 H 82.6634 4.96033 -0.162854 0
M  V30 825 H 77.9194 6.01322 -1.10553 0
M  V30 826 H 82.0934 6.73205 -1.78236 0
M  V30 827 H 79.7204 7.25837 -2.25976 0
M  V30 828 N 81.2955 -0.223234 1.56011 0
M  V30 829 C 82.5415 -0.949279 1.79211 0
M  V30 830 C 82.8745 -1.84054 0.619494 0
M  V30 831 O 82.1495 -1.90726 -0.381317 0
M  V30 832 C 82.4325 -1.78965 3.12479 0
M  V30 833 C 82.2855 -0.924997 4.40186 0
M  V30 834 C 83.6045 -2.76774 3.42175 0
M  V30 835 H 80.7235 -0.343676 0.651963 0
M  V30 836 H 83.3655 -0.218253 1.88742 0
M  V30 837 H 81.5155 -2.41291 3.04485 0
M  V30 838 H 83.1875 -0.318615 4.60198 0
M  V30 839 H 81.4305 -0.230344 4.33188 0
M  V30 840 H 82.1015 -1.54735 5.29869 0
M  V30 841 H 84.5775 -2.24584 3.50287 0
M  V30 842 H 83.4535 -3.32678 4.36597 0
M  V30 843 H 83.7145 -3.54429 2.64258 0
M  V30 844 N 82.7736 -1.49793 -0.48987 0
M  V30 845 C 83.6836 -1.70036 -1.61632 0
M  V30 846 C 84.6996 -0.583102 -1.63939 0
M  V30 847 O 85.8756 -0.859169 -1.82154 0
M  V30 848 C 82.9406 -1.77277 -2.97949 0
M  V30 849 C 82.0016 -3.00918 -3.06181 0
M  V30 850 C 81.2346 -3.07804 -4.35996 0
M  V30 851 O 81.4576 -2.21982 -5.25433 0
M  V30 852 O 80.3916 -4.00369 -4.49431 0
M  V30 853 H 84.2176 -2.65486 -1.47482 0
M  V30 854 H 81.8026 -1.33666 -0.667362 0
M  V30 855 H 83.6846 -1.84329 -3.78947 0
M  V30 856 H 82.3596 -0.850076 -3.12339 0
M  V30 857 H 81.2666 -2.99377 -2.2433 0
M  V30 858 H 82.5996 -3.92704 -2.96723 0
M  V30 859 N 84.2517 0.741722 -1.39055 0
M  V30 860 C 85.6627 1.31966 -1.32068 0
M  V30 861 C 86.0137 1.96192 0.0180797 0
M  V30 862 O 85.1387 1.95861 0.920196 0
M  V30 863 C 85.7337 2.39954 -2.39181 0
M  V30 864 C 84.2927 2.93438 -2.35735 0
M  V30 865 C 83.4397 1.66936 -2.21422 0
M  V30 866 H 86.3907 0.539721 -1.4924 0
M  V30 867 H 86.4117 3.20182 -2.05581 0
M  V30 868 H 85.9237 1.9318 -3.36605 0
M  V30 869 H 84.0247 3.4451 -1.41929 0
M  V30 870 H 84.1377 3.4701 -3.30335 0
M  V30 871 H 82.5017 1.91016 -1.68478 0
M  V30 872 H 83.2847 1.22224 -3.20806 0
M  V30 873 N 85.7298 1.2412 0.971189 0
M  V30 874 C 86.9788 1.07284 1.70801 0
M  V30 875 C 87.2918 -0.388902 1.91695 0
M  V30 876 O 88.4978 -0.677379 2.62914 0
M  V30 877 C 86.9538 1.87145 3.07416 0
M  V30 878 C 86.5618 3.37707 2.94377 0
M  V30 879 C 88.3058 1.78828 3.84995 0
M  V30 880 C 86.2128 4.09925 4.26281 0
M  V30 881 H 85.1428 0.397854 0.64049 0
M  V30 882 H 87.7938 1.4817 1.0825 0
M  V30 883 H 86.1758 1.39071 3.70777 0
M  V30 884 H 87.3498 3.93335 2.4005 0
M  V30 885 H 85.6648 3.46938 2.30267 0
M  V30 886 H 88.2618 2.30089 4.82662 0
M  V30 887 H 88.6048 0.75284 4.09436 0
M  V30 888 H 89.1378 2.24563 3.28354 0
M  V30 889 H 85.8768 5.13813 4.07033 0
M  V30 890 H 85.3968 3.59083 4.80437 0
M  V30 891 H 87.0758 4.1673 4.94919 0
M  V30 892 N 87.2079 -1.17134 1.05439 0
M  V30 893 C 88.1379 -2.2342 0.678649 0
M  V30 894 C 89.1189 -1.66971 -0.32476 0
M  V30 895 O 90.3039 -1.93149 -0.201802 0
M  V30 896 C 87.4339 -3.47256 0.0552099 0
M  V30 897 C 86.3879 -4.16543 0.98365 0
M  V30 898 C 85.7139 -5.34231 0.223961 0
M  V30 899 C 87.0139 -4.68495 2.3089 0
M  V30 900 H 88.7079 -2.55105 1.56722 0
M  V30 901 H 86.2539 -1.2262 0.754998 0
M  V30 902 H 88.2069 -4.20828 -0.21946 0
M  V30 903 H 86.9309 -3.14846 -0.868319 0
M  V30 904 H 85.5899 -3.44887 1.24293 0
M  V30 905 H 85.2379 -4.98071 -0.702412 0
M  V30 906 H 84.9379 -5.81527 0.842627 0
M  V30 907 H 86.4619 -6.10585 -0.0433671 0
M  V30 908 H 87.8759 -5.33691 2.09396 0
M  V30 909 H 86.2729 -5.26379 2.88176 0
M  V30 910 H 87.3429 -3.85169 2.94572 0
M  V30 911 N 88.686 -0.835752 -1.33615 0
M  V30 912 C 89.596 -0.269088 -2.33052 0
M  V30 913 C 90.612 0.603251 -1.63208 0
M  V30 914 O 91.788 0.508112 -1.94885 0
M  V30 915 C 88.853 0.549091 -3.42324 0
M  V30 916 C 87.914 -0.347156 -4.27894 0
M  V30 917 C 87.147 0.43207 -5.31948 0
M  V30 918 O 87.37 1.66409 -5.45586 0
M  V30 919 O 86.304 -0.192298 -6.01593 0
M  V30 920 H 90.13 -1.09243 -2.83372 0
M  V30 921 H 87.715 -0.598198 -1.36901 0
M  V30 922 H 89.597 1.01414 -4.09015 0
M  V30 923 H 88.272 1.34955 -2.94226 0
M  V30 924 H 87.179 -0.859979 -3.64081 0
M  V30 925 H 88.512 -1.1123 -4.79467 0
M  V30 926 N 90.1641 1.46063 -0.591896 0
M  V30 927 C 91.4101 2.02638 -0.0811191 0
M  V30 928 C 91.7431 1.4613 1.27905 0
M  V30 929 O 91.0181 0.629908 1.84017 0
M  V30 930 C 91.3011 3.60091 -0.0252436 0
M  V30 931 C 91.1541 4.26965 -1.41496 0
M  V30 932 C 92.4731 4.3496 0.670685 0
M  V30 933 H 89.5921 0.73635 -0.0309524 0
M  V30 934 H 92.2341 1.741 -0.760859 0
M  V30 935 H 90.3841 3.84535 0.553624 0
M  V30 936 H 92.0561 4.13756 -2.0397 0
M  V30 937 H 90.2991 3.85971 -1.98011 0
M  V30 938 H 90.9701 5.35781 -1.32825 0
M  V30 939 H 93.4461 4.15716 0.178825 0
M  V30 940 H 92.3221 5.44686 0.678837 0
M  V30 941 H 92.5831 4.06685 1.73379 0
M  V30 942 N 91.6422 0.330177 1.54103 0
M  V30 943 C 92.8672 -0.274893 2.0557 0
M  V30 944 C 93.2922 -1.44487 1.20437 0
M  V30 945 O 92.6502 -1.80021 0.214991 0
M  V30 946 C 92.6982 -0.68079 3.54115 0
M  V30 947 O 91.8022 -1.7824 3.71893 0
M  V30 948 H 91.1432 -0.0483849 0.662235 0
M  V30 949 H 93.6732 0.480508 1.98878 0
M  V30 950 H 93.6832 -0.961635 3.96505 0
M  V30 951 H 92.3582 0.174903 4.15532 0
M  V30 952 H 90.9352 -1.49985 3.41407 0
M  V30 953 N 93.1203 -1.57491 0.0584922 0
M  V30 954 C 94.3453 -1.97711 -0.62652 0
M  V30 955 C 94.7703 -0.936132 -1.63151 0
M  V30 956 O 94.1283 0.099811 -1.81025 0
M  V30 957 C 94.1763 -3.36989 -1.28338 0
M  V30 958 O 93.2803 -3.35433 -2.39913 0
M  V30 959 H 92.6213 -0.643868 -0.162266 0
M  V30 960 H 95.1513 -2.04193 0.129064 0
M  V30 961 H 95.1613 -3.73879 -1.63335 0
M  V30 962 H 93.8363 -4.12289 -0.546889 0
M  V30 963 H 92.4133 -3.10298 -2.06809 0
M  V30 964 N 94.5984 0.214957 -1.56127 0
M  V30 965 C 95.5284 1.2695 -1.95974 0
M  V30 966 C 96.5094 1.48539 -0.828868 0
M  V30 967 O 97.6944 1.60611 -1.09168 0
M  V30 968 C 94.8244 2.61794 -2.28214 0
M  V30 969 C 93.7784 2.54851 -3.43853 0
M  V30 970 C 93.1044 3.93785 -3.61715 0
M  V30 971 C 94.4044 2.09065 -4.78632 0
M  V30 972 H 96.0984 0.93846 -2.84312 0
M  V30 973 H 93.6444 0.449996 -1.36788 0
M  V30 974 H 95.5974 3.35731 -2.54682 0
M  V30 975 H 94.3214 2.96599 -1.36736 0
M  V30 976 H 92.9804 1.8337 -3.17444 0
M  V30 977 H 92.6284 4.25908 -2.67602 0
M  V30 978 H 92.3284 3.90019 -4.39498 0
M  V30 979 H 93.8524 4.69374 -3.90539 0
M  V30 980 H 95.2664 2.7275 -5.04262 0
M  V30 981 H 93.6634 2.16346 -5.59745 0
M  V30 982 H 94.7334 1.04315 -4.73547 0
M  V30 983 N 96.0765 1.50051 0.48192 0
M  V30 984 C 97.4875 1.5348 1.06305 0
M  V30 985 C 97.8385 0.331997 1.93371 0
M  V30 986 O 96.9635 -0.556256 2.09129 0
M  V30 987 C 97.5585 2.7813 1.93466 0
M  V30 988 C 96.1175 2.84275 2.46707 0
M  V30 989 C 95.2645 2.47637 1.24785 0
M  V30 990 H 98.2155 1.56472 0.264995 0
M  V30 991 H 98.2365 2.59372 2.78399 0
M  V30 992 H 97.7485 3.65654 1.30072 0
M  V30 993 H 95.8495 2.01077 3.13686 0
M  V30 994 H 95.9625 3.8691 2.82555 0
M  V30 995 H 94.3265 1.99835 1.57918 0
M  V30 996 H 95.1095 3.37457 0.630694 0
M  V30 997 N 97.5546 -0.734337 1.39446 0
M  V30 998 C 98.7826 -1.52358 1.39981 0
M  V30 999 C 99.1976 -1.88799 -0.0054975 0
M  V30 1000 O 98.5546 -1.54146 -0.976998 0
M  V30 1001 C 98.6056 -2.81072 2.27333 0
M  V30 1002 O 98.3266 -2.46178 3.62392 0
M  V30 1003 C 99.8276 -3.75096 2.36259 0
M  V30 1004 H 97.0476 -0.470806 0.478103 0
M  V30 1005 H 99.5916 -0.907339 1.83269 0
M  V30 1006 H 97.7466 -3.39026 1.87457 0
M  V30 1007 H 98.1606 -3.28866 4.08592 0
M  V30 1008 H 99.6346 -4.62305 3.01626 0
M  V30 1009 H 100.112 -4.16892 1.38194 0
M  V30 1010 H 100.718 -3.23061 2.76608 0
M  V30 1011 N 99.0327 -1.24633 -0.964593 0
M  V30 1012 C 100.261 -1.11501 -1.74285 0
M  V30 1013 C 100.676 0.332165 -1.85855 0
M  V30 1014 O 100.033 1.22903 -1.34911 0
M  V30 1015 C 100.084 -1.75258 -3.16175 0
M  V30 1016 O 99.8047 -3.14318 -3.05182 0
M  V30 1017 C 101.306 -1.67776 -4.10324 0
M  V30 1018 H 98.5257 -0.389407 -0.546446 0
M  V30 1019 H 101.07 -1.64801 -1.21083 0
M  V30 1020 H 99.2247 -1.25954 -3.66353 0
M  V30 1021 H 99.6387 -3.4551 -3.94618 0
M  V30 1022 H 101.113 -2.17064 -5.0753 0
M  V30 1023 H 101.59 -0.639584 -4.34518 0
M  V30 1024 H 102.196 -2.16522 -3.66058 0
M  V30 1025 N 100.511 1.16574 -1.06058 0
M  V30 1026 C 101.459 2.22941 -0.663343 0
M  V30 1027 C 102.453 1.66358 0.319593 0
M  V30 1028 O 103.659 1.7905 0.184713 0
M  V30 1029 H 100.034 0.725907 -0.196376 0
M  V30 1030 H 102.005 2.53736 -1.57037 0
M  V30 1031 C 100.754 3.47642 -0.0632808 0
M  V30 1032 H 100.077 3.91493 -0.810733 0
M  V30 1033 H 101.517 4.2363 0.177177 0
M  V30 1034 C 99.9758 3.1509 1.19248 0
M  V30 1035 O 100.506 3.30673 2.28075 0
M  V30 1036 N 98.7118 2.6924 1.09353 0
M  V30 1037 H 98.2588 2.5676 0.207912 0
M  V30 1038 H 98.2168 2.47833 1.93458 0
M  V30 1039 N 101.989 0.842826 1.3317 0
M  V30 1040 C 103.214 0.453129 2.02389 0
M  V30 1041 C 103.639 -0.939105 1.6298 0
M  V30 1042 O 102.997 -1.61472 0.8244 0
M  V30 1043 C 103.045 0.586094 3.55805 0
M  V30 1044 O 102.149 -0.386029 4.10589 0
M  V30 1045 H 101.49 0.183664 0.638094 0
M  V30 1046 H 104.02 1.13875 1.69981 0
M  V30 1047 H 104.03 0.469209 4.05293 0
M  V30 1048 H 102.705 1.6014 3.83833 0
M  V30 1049 H 101.282 -0.226371 3.72212 0
M  V30 1050 N 103.467 -1.45747 0.599634 0
M  V30 1051 C 104.695 -2.06668 0.0978551 0
M  V30 1052 C 105.11 -1.44562 -1.21439 0
M  V30 1053 O 104.467 -0.556923 -1.73795 0
M  V30 1054 C 104.518 -3.61456 -0.0567044 0
M  V30 1055 O 104.239 -4.21242 1.20361 0
M  V30 1056 C 105.74 -4.39345 -0.590869 0
M  V30 1057 H 102.96 -0.667825 0.0651943 0
M  V30 1058 H 105.504 -1.87115 0.82511 0
M  V30 1059 H 103.659 -3.80378 -0.734251 0
M  V30 1060 H 104.073 -5.14323 1.02821 0
M  V30 1061 H 105.547 -5.48182 -0.648131 0
M  V30 1062 H 106.024 -4.08568 -1.61147 0
M  V30 1063 H 106.63 -4.25268 0.0523679 0
M  V30 1064 N 104.945 -0.338344 -1.53925 0
M  V30 1065 C 106.173 0.261298 -2.05243 0
M  V30 1066 C 106.588 1.44625 -1.21363 0
M  V30 1067 O 105.945 1.80811 -0.247736 0
M  V30 1068 C 105.996 0.681412 -3.5502 0
M  V30 1069 O 105.717 -0.456414 -4.35716 0
M  V30 1070 C 107.218 1.34232 -4.22489 0
M  V30 1071 H 104.438 0.0513685 -0.669031 0
M  V30 1072 H 106.982 -0.488822 -1.98572 0
M  V30 1073 H 105.137 1.38148 -3.61931 0
M  V30 1074 H 105.551 -0.122564 -5.24357 0
M  V30 1075 H 107.025 1.58708 -5.28693 0
M  V30 1076 H 107.502 2.29426 -3.74514 0
M  V30 1077 H 108.108 0.684424 -4.19757 0
M  V30 1078 N 106.423 1.57458 -0.0668435 0
M  V30 1079 C 107.371 2.13639 0.919851 0
M  V30 1080 C 108.365 1.07204 1.31163 0
M  V30 1081 O 109.571 1.25591 1.28945 0
M  V30 1082 H 105.946 0.683048 0.314562 0
M  V30 1083 H 107.917 2.95415 0.421047 0
M  V30 1084 C 106.666 2.70892 2.17975 0
M  V30 1085 H 105.989 3.5246 1.88711 0
M  V30 1086 H 107.429 3.13803 2.85138 0
M  V30 1087 C 105.888 1.65414 2.93496 0
M  V30 1088 O 106.418 1.07619 3.87015 0
M  V30 1089 N 104.624 1.36564 2.56512 0
M  V30 1090 H 104.171 1.83751 1.80536 0
M  V30 1091 H 104.129 0.66223 3.07347 0
M  V30 1092 N 107.901 -0.206675 1.56239 0
M  V30 1093 C 109.126 -0.949474 1.8439 0
M  V30 1094 C 109.551 -1.76549 0.649016 0
M  V30 1095 O 108.909 -1.76782 -0.402231 0
M  V30 1096 C 108.957 -1.83078 3.10668 0
M  V30 1097 O 108.061 -2.9281 2.90407 0
M  V30 1098 H 107.402 -0.268033 0.607499 0
M  V30 1099 H 109.932 -0.215488 2.03462 0
M  V30 1100 H 109.942 -2.2377 3.41161 0
M  V30 1101 H 108.617 -1.23112 3.97261 0
M  V30 1102 H 107.194 -2.55956 2.71184 0
M  V30 1103 N 109.379 -1.50304 -0.473955 0
M  V30 1104 C 110.342 -1.6841 -1.55469 0
M  V30 1105 C 111.342 -0.554905 -1.50922 0
M  V30 1106 O 112.532 -0.821882 -1.53593 0
M  V30 1107 C 109.664 -1.70667 -2.95102 0
M  V30 1108 H 110.857 -2.64828 -1.40733 0
M  V30 1109 H 108.41 -1.39742 -0.700132 0
M  V30 1110 H 109.145 -0.75932 -3.15285 0
M  V30 1111 H 108.93 -2.52698 -2.9981 0
M  V30 1112 H 110.42 -1.8664 -3.73571 0
M  V30 1113 N 110.857 0.726932 -1.39834 0
M  V30 1114 C 112.085 1.51613 -1.40787 0
M  V30 1115 C 112.5 1.88799 -0.00451505 0
M  V30 1116 O 111.857 1.54662 0.968809 0
M  V30 1117 C 111.908 2.79863 -2.28821 0
M  V30 1118 O 111.629 2.44253 -3.63692 0
M  V30 1119 C 113.13 3.73837 -2.38245 0
M  V30 1120 H 110.35 0.468264 -0.480593 0
M  V30 1121 H 112.894 0.897607 -1.83748 0
M  V30 1122 H 111.049 3.38027 -1.89252 0
M  V30 1123 H 111.463 3.26695 -4.1033 0
M  V30 1124 H 112.937 4.60699 -3.04073 0
M  V30 1125 H 113.414 4.16153 -1.40403 0
M  V30 1126 H 114.02 3.21589 -2.78317 0
M  V30 1127 N 112.336 1.25143 0.95797 0
M  V30 1128 C 113.283 1.05235 2.05412 0
M  V30 1129 C 114.253 -0.0374561 1.66058 0
M  V30 1130 O 115.438 0.119073 1.90428 0
M  V30 1131 C 112.578 0.673589 3.38462 0
M  V30 1132 C 111.691 1.8379 3.90954 0
M  V30 1133 C 110.826 1.40381 5.12315 0
M  V30 1134 C 109.865 2.53746 5.57027 0
M  V30 1135 N 109.002 2.11136 6.69601 0
M  V30 1136 H 113.842 1.99048 2.21774 0
M  V30 1137 H 111.379 0.991277 1.08683 0
M  V30 1138 H 113.337 0.434964 4.14926 0
M  V30 1139 H 111.967 -0.227554 3.21997 0
M  V30 1140 H 111.019 2.18992 3.11041 0
M  V30 1141 H 112.331 2.68937 4.20089 0
M  V30 1142 H 111.485 1.12464 5.96185 0
M  V30 1143 H 110.224 0.523015 4.84887 0
M  V30 1144 H 109.229 2.82412 4.71724 0
M  V30 1145 H 110.454 3.42398 5.86464 0
M  V30 1146 H 108.4 1.25468 6.4389 0
M  V30 1147 H 108.317 2.89832 6.98236 0
M  V30 1148 H 109.585 1.86385 7.56889 0
M  V30 1149 N 113.814 -1.1601 1.06675 0
M  V30 1150 C 115.063 -1.85973 0.780818 0
M  V30 1151 C 115.376 -1.82819 -0.695444 0
M  V30 1152 O 116.582 -2.484 -1.09589 0
M  V30 1153 C 115.038 -3.33757 1.34665 0
M  V30 1154 C 114.646 -3.45374 2.85343 0
M  V30 1155 C 116.39 -4.0895 1.13843 0
M  V30 1156 C 114.297 -4.87266 3.35151 0
M  V30 1157 H 113.227 -0.696661 0.288407 0
M  V30 1158 H 115.878 -1.30903 1.28595 0
M  V30 1159 H 114.26 -3.88456 0.769274 0
M  V30 1160 H 115.434 -3.00816 3.49065 0
M  V30 1161 H 113.749 -2.83619 3.04876 0
M  V30 1162 H 116.346 -5.13654 1.4854 0
M  V30 1163 H 116.689 -4.16229 0.0770282 0
M  V30 1164 H 117.222 -3.605 1.68179 0
M  V30 1165 H 113.961 -4.85168 4.40786 0
M  V30 1166 H 113.481 -5.32433 2.76179 0
M  V30 1167 H 115.16 -5.56097 3.30704 0
M  V30 1168 N 115.292 -0.849877 -1.32721 0
M  V30 1169 C 116.52 -0.464754 -2.01613 0
M  V30 1170 C 116.935 0.937191 -1.63897 0
M  V30 1171 O 116.292 1.61081 -0.857856 0
M  V30 1172 C 116.343 -0.588638 -3.56675 0
M  V30 1173 O 116.064 -1.93535 -3.93034 0
M  V30 1174 C 117.565 -0.2019 -4.4284 0
M  V30 1175 H 114.785 -0.183215 -0.645502 0
M  V30 1176 H 117.329 -1.1455 -1.69407 0
M  V30 1177 H 115.484 0.0443159 -3.87375 0
M  V30 1178 H 115.898 -1.92871 -4.87751 0
M  V30 1179 H 117.372 -0.339599 -5.50954 0
M  V30 1180 H 117.849 0.857224 -4.30753 0
M  V30 1181 H 118.455 -0.809733 -4.17521 0
M  V30 1182 N 116.77 1.45427 -0.607355 0
M  V30 1183 C 117.733 2.28974 0.101693 0
M  V30 1184 C 118.733 1.39754 0.795329 0
M  V30 1185 O 119.923 1.61878 0.643527 0
M  V30 1186 C 117.055 3.20768 1.15414 0
M  V30 1187 H 118.248 2.93147 -0.632844 0
M  V30 1188 H 115.801 1.51945 -0.366391 0
M  V30 1189 H 116.536 2.61395 1.91945 0
M  V30 1190 H 116.321 3.86489 0.66098 0
M  V30 1191 H 117.811 3.83589 1.65073 0
M  V30 1192 N 118.248 0.346503 1.53744 0
M  V30 1193 C 119.196 -0.52422 2.26616 0
M  V30 1194 C 120.19 -1.09948 1.28871 0
M  V30 1195 O 121.396 -1.04488 1.46568 0
M  V30 1196 H 117.771 -0.187743 0.728187 0
M  V30 1197 H 119.742 0.11239 2.98188 0
M  V30 1198 C 118.491 -1.66186 3.05414 0
M  V30 1199 H 117.814 -1.22848 3.80458 0
M  V30 1200 H 119.254 -2.24622 3.59612 0
M  V30 1201 C 117.713 -2.59302 2.1509 0
M  V30 1202 O 118.243 -3.61628 1.74895 0
M  V30 1203 N 116.449 -2.28055 1.8011 0
M  V30 1204 H 115.996 -1.44883 2.12994 0
M  V30 1205 H 115.954 -2.90615 1.19958 0
M  V30 1206 N 119.726 -1.57421 0.075193 0
M  V30 1207 C 120.954 -1.97946 -0.602076 0
M  V30 1208 C 121.369 -0.953674 -1.62943 0
M  V30 1209 O 120.726 0.0592551 -1.82404 0
M  V30 1210 C 120.777 -3.38546 -1.26762 0
M  V30 1211 O 120.498 -4.37195 -0.281376 0
M  V30 1212 C 121.999 -3.93966 -2.03239 0
M  V30 1213 H 119.219 -0.650918 -0.162931 0
M  V30 1214 H 121.763 -2.03959 0.148601 0
M  V30 1215 H 119.918 -3.33609 -1.96936 0
M  V30 1216 H 120.332 -5.18975 -0.759267 0
M  V30 1217 H 121.806 -4.94555 -2.45193 0
M  V30 1218 H 122.283 -3.30693 -2.8903 0
M  V30 1219 H 122.889 -4.02315 -1.37924 0
M  V30 1220 N 121.204 0.198386 -1.56346 0
M  V30 1221 C 122.432 0.935572 -1.84539 0
M  V30 1222 C 122.847 1.76989 -0.657281 0
M  V30 1223 O 122.204 1.78626 0.374043 0
M  V30 1224 C 122.255 1.8344 -3.11499 0
M  V30 1225 O 121.976 1.03377 -4.25728 0
M  V30 1226 C 123.477 2.68355 -3.52846 0
M  V30 1227 H 120.697 0.273126 -0.612897 0
M  V30 1228 H 123.241 0.20663 -2.03453 0
M  V30 1229 H 121.396 2.51701 -2.94492 0
M  V30 1230 H 121.81 1.64599 -4.98003 0
M  V30 1231 H 123.284 3.27085 -4.44657 0
M  V30 1232 H 123.761 3.41901 -2.75681 0
M  V30 1233 H 124.367 2.05471 -3.72373 0
M  V30 1234 N 122.682 1.50554 0.465978 0
M  V30 1235 C 123.959 1.5232 1.22712 0
M  V30 1236 C 124.339 0.270807 2.09356 0
M  V30 1237 O 123.687 -0.745541 2.15995 0
M  V30 1238 C 123.897 2.82175 2.05374 0
M  V30 1239 C 125.245 3.33033 2.6339 0
M  V30 1240 O 126.269 2.83531 2.15612 0
M  V30 1241 O 125.128 4.19336 3.50456 0
M  V30 1242 H 122.222 0.611183 0.557122 0
M  V30 1243 H 124.768 1.62847 0.477381 0
M  V30 1244 H 123.54 3.64797 1.41558 0
M  V30 1245 H 123.163 2.74675 2.87471 0
M  V30 1246 N 124.16 -0.719506 1.40217 0
M  V30 1247 C 125.07 -1.86378 1.42479 0
M  V30 1248 C 126.086 -1.71073 0.317834 0
M  V30 1249 O 127.262 -1.93406 0.561794 0
M  V30 1250 C 124.327 -3.22136 1.28178 0
M  V30 1251 C 123.388 -3.49723 2.48982 0
M  V30 1252 C 122.621 -4.79004 2.35353 0
M  V30 1253 O 122.844 -5.53821 1.36524 0
M  V30 1254 O 121.778 -5.06839 3.2465 0
M  V30 1255 H 125.604 -1.87425 2.38968 0
M  V30 1256 H 123.189 -0.869405 1.21498 0
M  V30 1257 H 125.071 -4.03234 1.22395 0
M  V30 1258 H 123.746 -3.21825 0.347934 0
M  V30 1259 H 122.653 -2.6865 2.60342 0
M  V30 1260 H 123.986 -3.54828 3.41113 0
M  V30 1261 N 125.638 -1.25649 -0.95132 0
M  V30 1262 C 127.049 -1.09654 -1.51106 0
M  V30 1263 C 127.4 0.326615 -1.93462 0
M  V30 1264 O 126.525 1.21697 -1.78938 0
M  V30 1265 C 127.12 -1.98437 -2.74605 0
M  V30 1266 C 125.679 -1.86618 -3.2688 0
M  V30 1267 C 124.826 -1.9239 -1.99703 0
M  V30 1268 H 127.777 -1.38887 -0.767865 0
M  V30 1269 H 127.798 -1.5263 -3.48546 0
M  V30 1270 H 127.31 -3.02009 -2.43746 0
M  V30 1271 H 125.411 -0.859421 -3.62553 0
M  V30 1272 H 125.524 -2.71607 -3.94673 0
M  V30 1273 H 123.888 -1.36317 -2.15151 0
M  V30 1274 H 124.671 -2.97573 -1.71188 0
M  V30 1275 N 127.117 1.15442 -1.07289 0
M  V30 1276 C 128.345 1.90096 -0.81676 0
M  V30 1277 C 128.76 1.7798 0.629966 0
M  V30 1278 O 128.117 1.1313 1.43206 0
M  V30 1279 C 128.168 3.40466 -1.21512 0
M  V30 1280 O 127.889 3.52232 -2.60508 0
M  V30 1281 C 129.39 4.32145 -0.988198 0
M  V30 1282 H 126.61 0.602495 -0.295366 0
M  V30 1283 H 129.154 1.4627 -1.42918 0
M  V30 1284 H 127.309 3.81958 -0.647039 0
M  V30 1285 H 127.723 4.45549 -2.76742 0
M  V30 1286 H 129.197 5.36072 -1.31645 0
M  V30 1287 H 129.674 4.39135 0.0755063 0
M  V30 1288 H 130.28 3.96395 -1.54115 0
M  V30 1289 N 128.595 0.856903 1.32268 0
M  V30 1290 C 129.823 0.475439 2.01363 0
M  V30 1291 C 130.238 -0.928486 1.64392 0
M  V30 1292 O 129.595 -1.60624 0.866387 0
M  V30 1293 C 129.646 0.607545 3.56358 0
M  V30 1294 O 129.367 1.95617 3.92002 0
M  V30 1295 C 130.868 0.225382 4.42727 0
M  V30 1296 H 128.088 0.186636 0.644521 0
M  V30 1297 H 130.632 1.15446 1.68797 0
M  V30 1298 H 128.787 -0.0237719 3.87393 0
M  V30 1299 H 129.201 1.95455 4.86721 0
M  V30 1300 H 130.675 0.368813 5.50767 0
M  V30 1301 H 131.152 -0.834369 4.31202 0
M  V30 1302 H 131.758 0.831864 4.17085 0
M  V30 1303 N 130.073 -1.45103 0.615059 0
M  V30 1304 C 131.005 -2.28786 -0.13762 0
M  V30 1305 C 132.018 -1.40376 -0.824525 0
M  V30 1306 O 133.207 -1.64681 -0.688662 0
M  V30 1307 C 130.307 -3.16322 -1.21628 0
M  V30 1308 C 129.48 -4.33054 -0.615039 0
M  V30 1309 C 128.539 -5.01743 -1.58556 0
M  V30 1310 O 127.565 -5.58293 -1.10895 0
M  V30 1311 N 128.767 -5.01714 -2.91998 0
M  V30 1312 H 131.532 -2.94025 0.580483 0
M  V30 1313 H 129.093 -1.55373 0.45507 0
M  V30 1314 H 131.085 -3.59139 -1.86552 0
M  V30 1315 H 129.655 -2.52943 -1.83681 0
M  V30 1316 H 128.875 -3.93627 0.21245 0
M  V30 1317 H 130.163 -5.08431 -0.193704 0
M  V30 1318 H 129.561 -4.57075 -3.33316 0
M  V30 1319 H 128.118 -5.48371 -3.52325 0
M  V30 1320 N 131.551 -0.354651 -1.53558 0
M  V30 1321 C 132.962 0.126902 -1.86268 0
M  V30 1322 C 133.313 1.49075 -1.27558 0
M  V30 1323 O 132.438 2.08105 -0.5934 0
M  V30 1324 C 133.033 0.237046 -3.3797 0
M  V30 1325 C 131.592 0.662842 -3.70518 0
M  V30 1326 C 130.739 -0.196652 -2.76602 0
M  V30 1327 H 133.69 -0.573849 -1.47962 0
M  V30 1328 H 133.711 1.06259 -3.65362 0
M  V30 1329 H 133.223 -0.755725 -3.80671 0
M  V30 1330 H 131.324 1.66424 -3.33367 0
M  V30 1331 H 131.437 0.445034 -4.77029 0
M  V30 1332 H 129.801 0.332763 -2.52517 0
M  V30 1333 H 130.584 -1.18676 -3.22135 0
M  V30 1334 N 133.029 1.57378 -0.0835403 0
M  V30 1335 C 134.257 1.98263 0.59157 0
M  V30 1336 C 134.672 0.962302 1.62435 0
M  V30 1337 O 134.029 -0.049581 1.82433 0
M  V30 1338 C 134.08 3.39214 1.24965 0
M  V30 1339 O 133.801 4.37339 0.258186 0
M  V30 1340 C 135.302 3.95038 2.01147 0
M  V30 1341 H 132.522 0.651773 0.159477 0
M  V30 1342 H 135.066 2.03878 -0.159415 0
M  V30 1343 H 133.221 3.34649 1.95164 0
M  V30 1344 H 133.635 5.19371 0.731734 0
M  V30 1345 H 135.109 4.95848 2.42567 0
M  V30 1346 H 135.586 3.32222 2.87272 0
M  V30 1347 H 136.192 4.0304 1.35789 0
M  V30 1348 N 134.507 -0.190092 1.56449 0
M  V30 1349 C 135.735 -0.925772 1.85033 0
M  V30 1350 C 136.15 -1.76638 0.666658 0
M  V30 1351 O 135.507 -1.78822 -0.364565 0
M  V30 1352 C 135.558 -1.81786 3.12468 0
M  V30 1353 O 135.279 -1.01118 4.26271 0
M  V30 1354 C 136.78 -2.6648 3.54265 0
M  V30 1355 H 134 -0.269872 0.614337 0
M  V30 1356 H 136.544 -0.195837 2.0356 0
M  V30 1357 H 134.699 -2.50136 2.95822 0
M  V30 1358 H 135.113 -1.61956 4.98869 0
M  V30 1359 H 136.587 -3.24722 4.46385 0
M  V30 1360 H 137.064 -3.40434 2.77491 0
M  V30 1361 H 137.67 -2.03493 3.73458 0
M  V30 1362 N 135.985 -1.50799 -0.457987 0
M  V30 1363 C 136.895 -1.73426 -1.57989 0
M  V30 1364 C 137.911 -0.617745 -1.62665 0
M  V30 1365 O 139.087 -0.897614 -1.80291 0
M  V30 1366 C 136.152 -1.83557 -2.94122 0
M  V30 1367 C 135.213 -3.07345 -2.99729 0
M  V30 1368 C 134.446 -3.16983 -4.29368 0
M  V30 1369 O 134.669 -2.33077 -5.20607 0
M  V30 1370 O 133.603 -4.09812 -4.40837 0
M  V30 1371 H 137.429 -2.68555 -1.41817 0
M  V30 1372 H 135.014 -1.35052 -0.638859 0
M  V30 1373 H 136.896 -1.92326 -3.74952 0
M  V30 1374 H 135.571 -0.916137 -3.10465 0
M  V30 1375 H 134.478 -3.04068 -2.1793 0
M  V30 1376 H 135.811 -3.9891 -2.88326 0
M  V30 1377 N 137.463 0.71206 -1.40597 0
M  V30 1378 C 138.874 1.29135 -1.34837 0
M  V30 1379 C 139.225 1.96186 -0.0235395 0
M  V30 1380 O 138.35 1.97768 0.878444 0
M  V30 1381 C 138.945 2.34827 -2.44217 0
M  V30 1382 C 137.504 2.88371 -2.41907 0
M  V30 1383 C 136.651 1.62202 -2.24913 0
M  V30 1384 H 139.602 0.507944 -1.50352 0
M  V30 1385 H 139.623 3.15749 -2.12327 0
M  V30 1386 H 139.135 1.85996 -3.40627 0
M  V30 1387 H 137.236 3.41422 -1.49204 0
M  V30 1388 H 137.349 3.39925 -3.37621 0
M  V30 1389 H 135.713 1.874 -1.72492 0
M  V30 1390 H 136.496 1.15391 -3.23326 0
M  V30 1391 N 138.941 1.26152 0.944643 0
M  V30 1392 C 140.169 1.14259 1.72489 0
M  V30 1393 C 140.584 -0.302555 1.8636 0
M  V30 1394 O 139.941 -1.20741 1.36849 0
M  V30 1395 C 139.992 1.80266 3.13347 0
M  V30 1396 O 139.713 3.19133 3.00143 0
M  V30 1397 C 141.214 1.74283 4.07603 0
M  V30 1398 H 138.434 0.398051 0.540181 0
M  V30 1399 H 140.978 1.66706 1.18446 0
M  V30 1400 H 139.133 1.31766 3.64303 0
M  V30 1401 H 139.547 3.51744 3.89071 0
M  V30 1402 H 141.021 2.25111 5.04013 0
M  V30 1403 H 141.498 0.708631 4.33446 0
M  V30 1404 H 142.104 2.22319 3.62567 0
M  V30 1405 N 140.419 -1.14872 1.07899 0
M  V30 1406 C 141.647 -1.89661 0.82683 0
M  V30 1407 C 142.062 -1.78312 -0.620519 0
M  V30 1408 O 141.419 -1.13888 -1.42604 0
M  V30 1409 C 141.47 -3.39817 1.23316 0
M  V30 1410 O 141.191 -3.50845 2.62372 0
M  V30 1411 C 142.692 -4.31615 1.0111 0
M  V30 1412 H 139.912 -0.60092 0.298557 0
M  V30 1413 H 142.456 -1.4551 1.43691 0
M  V30 1414 H 140.611 -3.8161 0.667286 0
M  V30 1415 H 141.025 -4.44076 2.79101 0
M  V30 1416 H 142.499 -5.35367 1.34486 0
M  V30 1417 H 142.976 -4.39169 -0.0522168 0
M  V30 1418 H 143.582 -3.95572 1.56215 0
M  V30 1419 N 141.898 -0.863906 -1.31812 0
M  V30 1420 C 142.83 -0.272485 -2.27575 0
M  V30 1421 C 143.843 0.56104 -1.52827 0
M  V30 1422 O 145.032 0.384021 -1.7432 0
M  V30 1423 C 142.132 0.63283 -3.32939 0
M  V30 1424 C 141.305 -0.166902 -4.37081 0
M  V30 1425 C 140.364 0.665608 -5.21973 0
M  V30 1426 O 139.39 0.0958091 -5.69119 0
M  V30 1427 N 140.592 1.9787 -5.45736 0
M  V30 1428 H 143.357 -1.0954 -2.78964 0
M  V30 1429 H 140.918 -0.724791 -1.4477 0
M  V30 1430 H 142.91 1.19532 -3.86645 0
M  V30 1431 H 141.48 1.35642 -2.81638 0
M  V30 1432 H 140.7 -0.910838 -3.83533 0
M  V30 1433 H 141.988 -0.715874 -5.03739 0
M  V30 1434 H 141.386 2.46484 -5.09178 0
M  V30 1435 H 139.943 2.48911 -6.024 0
M  V30 1436 N 143.376 1.44774 -0.622745 0
M  V30 1437 C 144.787 1.85546 -0.207226 0
M  V30 1438 C 145.138 1.52093 1.23944 0
M  V30 1439 O 144.263 0.95492 1.94191 0
M  V30 1440 C 144.858 3.36781 -0.369313 0
M  V30 1441 C 143.417 3.76399 -0.00836847 0
M  V30 1442 C 142.564 2.68664 -0.686651 0
M  V30 1443 H 145.515 1.3536 -0.828454 0
M  V30 1444 H 145.536 3.78453 0.394162 0
M  V30 1445 H 145.048 3.61098 -1.42231 0
M  V30 1446 H 143.149 3.57698 1.04322 0
M  V30 1447 H 143.262 4.7732 -0.412584 0
M  V30 1448 H 141.626 2.54404 -0.122777 0
M  V30 1449 H 142.409 2.95815 -1.74208 0
M  V30 1450 N 144.854 0.36279 1.53368 0
M  V30 1451 C 146.082 -0.228613 2.05633 0
M  V30 1452 C 146.497 -1.42676 1.23649 0
M  V30 1453 O 145.854 -1.80394 0.27647 0
M  V30 1454 C 145.905 -0.624845 3.56059 0
M  V30 1455 O 145.626 0.525675 4.34935 0
M  V30 1456 C 147.127 -1.27493 4.24571 0
M  V30 1457 H 144.347 -0.0407183 0.669763 0
M  V30 1458 H 146.891 0.520352 1.97769 0
M  V30 1459 H 145.046 -1.32373 3.64083 0
M  V30 1460 H 145.46 0.205969 5.24095 0
M  V30 1461 H 146.934 -1.50277 5.31151 0
M  V30 1462 H 147.411 -2.23439 3.78116 0
M  V30 1463 H 148.017 -0.617558 4.20792 0
M  V30 1464 N 146.332 -1.57332 0.0918853 0
M  V30 1465 C 147.581 -1.93412 -0.572249 0
M  V30 1466 C 147.894 -0.975515 -1.69538 0
M  V30 1467 O 149.1 -1.22991 -2.42045 0
M  V30 1468 C 147.556 -3.43648 -1.0693 0
M  V30 1469 C 147.164 -4.47994 0.0239049 0
M  V30 1470 C 148.908 -3.88695 -1.70635 0
M  V30 1471 C 146.815 -5.89381 -0.488319 0
M  V30 1472 H 145.745 -0.721939 -0.217532 0
M  V30 1473 H 148.396 -1.82735 0.167369 0
M  V30 1474 H 146.778 -3.49466 -1.8625 0
M  V30 1475 H 147.952 -4.53815 0.799277 0
M  V30 1476 H 146.267 -4.12536 0.565946 0
M  V30 1477 H 148.864 -4.91725 -2.10025 0
M  V30 1478 H 149.207 -3.27166 -2.57426 0
M  V30 1479 H 149.74 -3.85564 -0.979023 0
M  V30 1480 H 146.479 -6.54602 0.342906 0
M  V30 1481 H 145.999 -5.87037 -1.23077 0
M  V30 1482 H 147.678 -6.39863 -0.958317 0
M  V30 1483 N 147.81 0.181792 -1.56548 0
M  V30 1484 C 148.742 1.24956 -1.92142 0
M  V30 1485 C 149.755 1.41022 -0.813422 0
M  V30 1486 O 150.944 1.41212 -1.09186 0
M  V30 1487 C 148.044 2.61981 -2.14987 0
M  V30 1488 C 147.217 2.6735 -3.46183 0
M  V30 1489 C 146.276 3.85664 -3.5798 0
M  V30 1490 O 145.302 3.72148 -4.30691 0
M  V30 1491 N 146.504 5.01683 -2.92053 0
M  V30 1492 H 149.269 0.947329 -2.84334 0
M  V30 1493 H 146.83 0.371629 -1.57577 0
M  V30 1494 H 148.822 3.3958 -2.20154 0
M  V30 1495 H 147.392 2.84637 -1.2923 0
M  V30 1496 H 146.612 1.75925 -3.52766 0
M  V30 1497 H 147.9 2.67939 -4.32534 0
M  V30 1498 H 147.298 5.15564 -2.32832 0
M  V30 1499 H 145.855 5.77181 -3.0283 0
M  V30 1500 N 149.288 1.51039 0.449983 0
M  V30 1501 C 150.699 1.557 1.03026 0
M  V30 1502 C 151.05 0.372939 1.92623 0
M  V30 1503 O 150.175 -0.511771 2.10261 0
M  V30 1504 C 150.77 2.82171 1.87523 0
M  V30 1505 C 149.329 2.89444 2.40622 0
M  V30 1506 C 148.476 2.50228 1.19504 0
M  V30 1507 H 151.427 1.56999 0.231745 0
M  V30 1508 H 151.448 2.65219 2.72835 0
M  V30 1509 H 150.96 3.68331 1.22286 0
M  V30 1510 H 149.061 2.07685 3.0935 0
M  V30 1511 H 149.174 3.92816 2.74285 0
M  V30 1512 H 147.538 2.03139 1.53644 0
M  V30 1513 H 148.321 3.38719 0.558972 0
M  V30 1514 N 150.766 -0.704594 1.40972 0
M  V30 1515 C 151.994 -1.49354 1.43182 0
M  V30 1516 C 152.409 -1.88768 0.0345508 0
M  V30 1517 O 151.766 -1.56184 -0.944081 0
M  V30 1518 C 151.817 -2.76187 2.33244 0
M  V30 1519 O 151.538 -2.38436 3.67532 0
M  V30 1520 C 153.039 -3.7 2.44162 0
M  V30 1521 H 150.259 -0.460559 0.487982 0
M  V30 1522 H 152.803 -0.868261 1.85153 0
M  V30 1523 H 150.958 -3.34974 1.94606 0
M  V30 1524 H 151.372 -3.20126 4.15475 0
M  V30 1525 H 152.846 -4.55803 3.11364 0
M  V30 1526 H 153.323 -4.13867 1.47006 0
M  V30 1527 H 153.929 -3.17121 2.83398 0
M  V30 1528 N 152.244 -1.26651 -0.937939 0
M  V30 1529 C 153.176 -1.04283 -2.04102 0
M  V30 1530 C 154.189 -0.00221014 -1.628 0
M  V30 1531 O 155.378 -0.242645 -1.76843 0
M  V30 1532 C 152.478 -0.557846 -3.34277 0
M  V30 1533 C 151.651 -1.66843 -4.04329 0
M  V30 1534 C 150.71 -1.18095 -5.12777 0
M  V30 1535 O 149.736 -1.87865 -5.37304 0
M  V30 1536 N 150.938 -0.0311006 -5.80492 0
M  V30 1537 H 153.703 -1.9927 -2.23856 0
M  V30 1538 H 151.264 -1.1808 -1.10764 0
M  V30 1539 H 153.256 -0.215836 -4.04124 0
M  V30 1540 H 151.826 0.298523 -3.11171 0
M  V30 1541 H 151.046 -2.18123 -3.28353 0
M  V30 1542 H 152.334 -2.41408 -4.47883 0
M  V30 1543 H 151.732 0.551486 -5.63005 0
M  V30 1544 H 150.289 0.251809 -6.51313 0
M  V30 1545 N 153.722 1.14298 -1.08507 0
M  V30 1546 C 155.133 1.66926 -0.836227 0
M  V30 1547 C 155.484 1.85576 0.63686 0
M  V30 1548 O 154.609 1.56767 1.49175 0
M  V30 1549 C 155.204 3.03219 -1.51142 0
M  V30 1550 C 153.763 3.52876 -1.30979 0
M  V30 1551 C 152.91 2.2833 -1.57356 0
M  V30 1552 H 155.861 0.983491 -1.24552 0
M  V30 1553 H 155.882 3.68726 -0.939211 0
M  V30 1554 H 155.394 2.89612 -2.58353 0
M  V30 1555 H 153.495 3.71703 -0.258429 0
M  V30 1556 H 153.608 4.33586 -2.03814 0
M  V30 1557 H 151.972 2.34454 -0.995164 0
M  V30 1558 H 152.755 2.17298 -2.65775 0
M  V30 1559 N 155.201 0.870884 1.31352 0
M  V30 1560 C 156.429 0.49677 2.00848 0
M  V30 1561 C 156.844 -0.910998 1.65367 0
M  V30 1562 O 156.201 -1.59696 0.883374 0
M  V30 1563 C 156.252 0.645308 3.55694 0
M  V30 1564 O 155.973 1.99764 3.89905 0
M  V30 1565 C 157.474 0.272326 4.42463 0
M  V30 1566 H 154.694 0.193462 0.642506 0
M  V30 1567 H 157.238 1.1723 1.67563 0
M  V30 1568 H 155.393 0.0173176 3.87396 0
M  V30 1569 H 155.807 2.00607 4.84621 0
M  V30 1570 H 157.281 0.427208 5.50344 0
M  V30 1571 H 157.758 -0.788587 4.32062 0
M  V30 1572 H 158.364 0.876054 4.1618 0
M  V30 1573 N 156.679 -1.44442 0.630414 0
M  V30 1574 C 157.907 -2.06414 0.141671 0
M  V30 1575 C 158.322 -1.47105 -1.18345 0
M  V30 1576 O 157.679 -0.593662 -1.72574 0
M  V30 1577 C 157.73 -3.61494 0.0199784 0
M  V30 1578 O 157.451 -4.18594 1.29269 0
M  V30 1579 C 158.952 -4.40499 -0.497544 0
M  V30 1580 H 156.172 -0.666292 0.0793452 0
M  V30 1581 H 158.716 -1.85323 0.864614 0
M  V30 1582 H 156.871 -3.8185 -0.653402 0
M  V30 1583 H 157.285 -5.12026 1.13707 0
M  V30 1584 H 158.759 -5.49433 -0.531708 0
M  V30 1585 H 159.236 -4.11895 -1.52445 0
M  V30 1586 H 159.842 -4.25061 0.142562 0
M  V30 1587 N 158.157 -0.370918 -1.53173 0
M  V30 1588 C 159.089 0.507823 -2.23503 0
M  V30 1589 C 160.102 1.04182 -1.251 0
M  V30 1590 O 161.291 0.947286 -1.5129 0
M  V30 1591 C 158.391 1.71447 -2.92334 0
M  V30 1592 C 157.564 1.31105 -4.17289 0
M  V30 1593 C 156.623 2.38035 -4.69282 0
M  V30 1594 O 155.649 2.00204 -5.32829 0
M  V30 1595 N 156.851 3.69697 -4.47554 0
M  V30 1596 H 159.616 -0.0946382 -2.99551 0
M  V30 1597 H 157.177 -0.196358 -1.60705 0
M  V30 1598 H 159.169 2.42469 -3.24023 0
M  V30 1599 H 157.739 2.22368 -2.19707 0
M  V30 1600 H 156.959 0.430462 -3.91843 0
M  V30 1601 H 158.247 1.0179 -4.98514 0
M  V30 1602 H 157.645 4.03205 -3.9679 0
M  V30 1603 H 156.202 4.36807 -4.8378 0
M  V30 1604 N 159.635 1.57281 -0.100228 0
M  V30 1605 C 160.565 2.17328 0.853857 0
M  V30 1606 C 161.546 1.10804 1.2906 0
M  V30 1607 O 162.731 1.38963 1.35657 0
M  V30 1608 C 159.861 2.75772 2.11109 0
M  V30 1609 C 158.815 3.87713 1.81279 0
M  V30 1610 C 158.141 4.32882 3.13874 0
M  V30 1611 C 159.441 5.10677 1.09574 0
M  V30 1612 H 161.135 2.97305 0.353545 0
M  V30 1613 H 158.681 1.43009 0.168612 0
M  V30 1614 H 160.634 3.16433 2.78296 0
M  V30 1615 H 159.358 1.93057 2.63432 0
M  V30 1616 H 158.017 3.476 1.16489 0
M  V30 1617 H 157.665 3.47051 3.64095 0
M  V30 1618 H 157.365 5.08358 2.94696 0
M  V30 1619 H 158.889 4.7618 3.82211 0
M  V30 1620 H 160.303 5.48474 1.66879 0
M  V30 1621 H 158.7 5.91615 1.00557 0
M  V30 1622 H 159.77 4.84835 0.0793299 0
M  V30 1623 N 161.113 -0.173488 1.56642 0
M  V30 1624 C 162.524 -0.736155 1.71574 0
M  V30 1625 C 162.875 -1.82888 0.710389 0
M  V30 1626 O 162 -2.16017 -0.1287 0
M  V30 1627 C 162.595 -1.34211 3.11083 0
M  V30 1628 C 161.154 -1.85162 3.27707 0
M  V30 1629 C 160.301 -0.729765 2.67525 0
M  V30 1630 H 163.252 0.0518786 1.58615 0
M  V30 1631 H 163.273 -2.21178 3.09613 0
M  V30 1632 H 162.785 -0.546579 3.84232 0
M  V30 1633 H 160.886 -2.67366 2.59512 0
M  V30 1634 H 160.999 -1.99855 4.35425 0
M  V30 1635 H 159.363 -1.14965 2.27278 0
M  V30 1636 H 160.146 0.0538806 3.43258 0
M  V30 1637 N 162.591 -1.51276 -0.441967 0
M  V30 1638 C 163.819 -1.67516 -1.21434 0
M  V30 1639 C 164.234 -0.37055 -1.85128 0
M  V30 1640 O 163.591 0.650498 -1.70513 0
M  V30 1641 C 163.642 -2.78748 -2.30177 0
M  V30 1642 O 163.363 -4.04154 -1.69089 0
M  V30 1643 C 164.864 -3.06217 -3.20541 0
M  V30 1644 H 162.084 -0.562276 -0.366178 0
M  V30 1645 H 164.628 -1.97666 -0.524244 0
M  V30 1646 H 162.783 -2.5121 -2.94911 0
M  V30 1647 H 163.197 -4.65894 -2.40922 0
M  V30 1648 H 164.671 -3.8764 -3.92987 0
M  V30 1649 H 165.148 -2.18439 -3.81026 0
M  V30 1650 H 165.754 -3.35397 -2.61513 0
M  V30 1651 N 164.069 0.697108 -1.41344 0
M  V30 1652 C 165.346 1.45154 -1.31109 0
M  V30 1653 C 165.726 2.11009 0.0620449 0
M  V30 1654 O 165.074 2.01571 1.07618 0
M  V30 1655 C 165.284 2.47223 -2.46337 0
M  V30 1656 C 166.632 3.1252 -2.87431 0
M  V30 1657 O 167.656 2.57547 -2.46065 0
M  V30 1658 O 166.515 4.12083 -3.58957 0
M  V30 1659 H 163.609 0.646365 -0.515889 0
M  V30 1660 H 166.155 0.727716 -1.53305 0
M  V30 1661 H 164.927 1.97204 -3.37974 0
M  V30 1662 H 164.55 3.27116 -2.2601 0
M  V30 1663 N 165.547 1.27147 0.931209 0
M  V30 1664 C 166.772 1.16191 1.71797 0
M  V30 1665 C 167.197 -0.278004 1.86034 0
M  V30 1666 O 166.555 -1.20137 1.35782 0
M  V30 1667 C 166.603 1.84673 3.09723 0
M  V30 1668 O 165.707 1.14231 3.96264 0
M  V30 1669 H 165.048 0.404303 0.526721 0
M  V30 1670 H 167.578 1.68152 1.1656 0
M  V30 1671 H 167.588 1.91893 3.60057 0
M  V30 1672 H 166.263 2.89421 2.98677 0
M  V30 1673 H 164.84 1.15056 3.54706 0
M  V30 1674 N 167.025 -1.13721 1.09112 0
M  V30 1675 C 168.436 -1.6648 0.845068 0
M  V30 1676 C 168.787 -1.85911 -0.62701 0
M  V30 1677 O 167.912 -1.57556 -1.48341 0
M  V30 1678 C 168.507 -3.02413 1.52748 0
M  V30 1679 C 167.066 -3.52176 1.32849 0
M  V30 1680 C 166.213 -2.27492 1.58564 0
M  V30 1681 H 169.164 -0.976872 1.25072 0
M  V30 1682 H 169.185 -3.68223 0.958752 0
M  V30 1683 H 168.697 -2.88238 2.59885 0
M  V30 1684 H 166.798 -3.7156 0.278137 0
M  V30 1685 H 166.911 -4.32499 2.0611 0
M  V30 1686 H 165.275 -2.33923 1.00758 0
M  V30 1687 H 166.058 -2.15886 2.66924 0
M  V30 1688 N 168.503 -0.877838 -1.30888 0
M  V30 1689 C 169.731 -0.507414 -2.00581 0
M  V30 1690 C 170.146 0.902216 -1.65848 0
M  V30 1691 O 169.503 1.59225 -0.891831 0
M  V30 1692 C 169.554 -0.664162 -3.55347 0
M  V30 1693 O 169.275 -2.01829 -3.8884 0
M  V30 1694 C 170.776 -0.295787 -4.42312 0
M  V30 1695 H 167.996 -0.196866 -0.641471 0
M  V30 1696 H 170.54 -1.18117 -1.66939 0
M  V30 1697 H 168.695 -0.0378619 -3.87381 0
M  V30 1698 H 169.109 -2.03174 -4.8355 0
M  V30 1699 H 170.583 -0.456388 -5.5011 0
M  V30 1700 H 171.06 0.765663 -4.32475 0
M  V30 1701 H 171.666 -0.898113 -4.15709 0
M  V30 1702 N 169.982 1.44106 -0.638065 0
M  V30 1703 C 170.914 2.28976 0.101205 0
M  V30 1704 C 171.927 1.4167 0.802088 0
M  V30 1705 O 173.116 1.65755 0.662375 0
M  V30 1706 C 170.216 3.18217 1.16581 0
M  V30 1707 C 169.389 4.33978 0.546066 0
M  V30 1708 C 168.448 5.04202 1.50554 0
M  V30 1709 O 167.474 5.59986 1.01999 0
M  V30 1710 N 168.676 5.06296 2.8398 0
M  V30 1711 H 171.441 2.93064 -0.627186 0
M  V30 1712 H 169.002 1.54629 -0.479731 0
M  V30 1713 H 170.994 3.62061 1.80815 0
M  V30 1714 H 169.564 2.55833 1.79634 0
M  V30 1715 H 168.784 3.93239 -0.275046 0
M  V30 1716 H 170.072 5.08675 0.112793 0
M  V30 1717 H 169.47 4.62319 3.26002 0
M  V30 1718 H 168.027 5.53907 3.43556 0
M  V30 1719 N 171.46 0.379036 1.52974 0
M  V30 1720 C 172.871 -0.0972525 1.86447 0
M  V30 1721 C 173.222 -1.47027 1.29914 0
M  V30 1722 O 172.347 -2.07135 0.626433 0
M  V30 1723 C 172.942 -0.183248 3.38304 0
M  V30 1724 C 171.501 -0.603812 3.71525 0
M  V30 1725 C 170.648 0.240632 2.76254 0
M  V30 1726 H 173.599 0.597316 1.4703 0
M  V30 1727 H 173.62 -1.00432 3.67006 0
M  V30 1728 H 173.132 0.816191 3.79421 0
M  V30 1729 H 171.233 -1.61099 3.35973 0
M  V30 1730 H 171.346 -0.369086 4.77676 0
M  V30 1731 H 169.71 -0.292548 2.53014 0
M  V30 1732 H 170.493 1.23786 3.20206 0
M  V30 1733 N 172.938 -1.57226 0.108567 0
M  V30 1734 C 174.166 -1.99179 -0.559954 0
M  V30 1735 C 174.581 -0.988022 -1.60884 0
M  V30 1736 O 173.938 0.0205512 -1.82488 0
M  V30 1737 C 173.989 -3.41159 -1.19552 0
M  V30 1738 O 173.71 -4.37694 -0.188577 0
M  V30 1739 C 175.211 -3.98188 -1.94837 0
M  V30 1740 H 172.431 -0.654228 -0.149088 0
M  V30 1741 H 174.975 -2.03598 0.19183 0
M  V30 1742 H 173.13 -3.37711 -1.89815 0
M  V30 1743 H 173.544 -5.20469 -0.649014 0
M  V30 1744 H 175.018 -4.99644 -2.34648 0
M  V30 1745 H 175.495 -3.3675 -2.81951 0
M  V30 1746 H 176.101 -4.0515 -1.2936 0
M  V30 1747 N 174.416 0.165178 -1.56732 0
M  V30 1748 C 175.644 0.896218 -1.86482 0
M  V30 1749 C 176.059 1.75555 -0.694675 0
M  V30 1750 O 175.416 1.79379 0.33607 0
M  V30 1751 C 175.467 1.76792 -3.1532 0
M  V30 1752 O 175.188 0.943239 -4.27825 0
M  V30 1753 C 176.689 2.6081 -3.58459 0
M  V30 1754 H 173.909 0.260064 -0.618553 0
M  V30 1755 H 176.453 0.163428 -2.03846 0
M  V30 1756 H 174.608 2.45398 -2.99764 0
M  V30 1757 H 175.022 1.53998 -5.01383 0
M  V30 1758 H 176.496 3.17579 -4.51495 0
M  V30 1759 H 176.973 3.35977 -2.82872 0
M  V30 1760 H 177.579 1.97526 -3.76648 0
M  V30 1761 N 175.894 1.51508 0.433938 0
M  V30 1762 C 177.142 1.6402 1.18075 0
M  V30 1763 C 177.463 0.360328 1.91642 0
M  V30 1764 O 176.733 -0.623945 1.85698 0
M  V30 1765 H 175.313 0.6045 0.43885 0
M  V30 1766 H 177.975 1.88452 0.497178 0
M  V30 1767 H 177.071 2.46949 1.90847 0
M  V30 1768 N 177.372 -0.689602 1.41712 0
M  V30 1769 C 178.597 -1.48329 1.44959 0
M  V30 1770 C 179.022 -1.8801 0.0581283 0
M  V30 1771 O 178.38 -1.55026 -0.940035 0
M  V30 1772 C 178.428 -2.71835 2.36935 0
M  V30 1773 O 177.532 -3.69549 1.8305 0
M  V30 1774 H 176.873 -0.446199 0.491734 0
M  V30 1775 H 179.403 -0.847127 1.86239 0
M  V30 1776 H 179.413 -3.20076 2.53013 0
M  V30 1777 H 178.088 -2.42291 3.38035 0
M  V30 1778 H 176.665 -3.2851 1.76452 0
M  V30 1779 N 178.85 -1.27639 -0.924453 0
M  V30 1780 C 180.097 -1.14167 -1.67249 0
M  V30 1781 C 180.425 0.311863 -1.91984 0
M  V30 1782 O 179.68 1.24425 -1.51053 0
M  V30 1783 C 179.979 -1.87407 -3.04325 0
M  V30 1784 C 179.645 -3.37249 -2.99289 0
M  V30 1785 C 178.307 -3.7812 -2.97622 0
M  V30 1786 C 180.659 -4.32845 -2.90336 0
M  V30 1787 C 177.987 -5.12944 -2.8479 0
M  V30 1788 C 180.339 -5.6773 -2.79045 0
M  V30 1789 C 179.003 -6.07889 -2.7573 0
M  V30 1790 H 178.273 -0.417766 -0.612007 0
M  V30 1791 H 180.92 -1.58286 -1.07786 0
M  V30 1792 H 179.225 -1.35805 -3.67511 0
M  V30 1793 H 180.922 -1.74408 -3.61086 0
M  V30 1794 H 177.512 -3.04748 -3.01374 0
M  V30 1795 H 181.696 -4.02239 -2.90719 0
M  V30 1796 H 176.952 -5.432 -2.80612 0
M  V30 1797 H 181.126 -6.41472 -2.71083 0
M  V30 1798 H 178.753 -7.12314 -2.65544 0
M  V30 1799 N 180.328 1.1314 -1.09713 0
M  V30 1800 C 181.568 1.8613 -0.844683 0
M  V30 1801 C 181.932 1.81765 0.618491 0
M  V30 1802 O 183.133 2.50024 0.98699 0
M  V30 1803 C 181.404 3.30151 -1.36877 0
M  V30 1804 S 182.963 4.206 -1.25064 0
M  V30 1805 H 179.781 0.642056 -0.305427 0
M  V30 1806 H 182.383 1.36343 -1.4011 0
M  V30 1807 H 181.087 3.30883 -2.42786 0
M  V30 1808 H 180.618 3.85 -0.808614 0
M  V30 1809 H 182.633 4.95783 -0.203486 0
M  V30 1810 N 181.806 0.884767 1.30421 0
M  V30 1811 C 183.217 0.553656 1.78302 0
M  V30 1812 C 183.568 -0.930153 1.7275 0
M  V30 1813 O 182.693 -1.72681 1.30423 0
M  V30 1814 C 183.288 0.998234 3.2376 0
M  V30 1815 C 181.847 0.71854 3.69478 0
M  V30 1816 C 180.994 1.18132 2.50879 0
M  V30 1817 H 183.945 1.06901 1.17294 0
M  V30 1818 H 183.966 0.327118 3.79091 0
M  V30 1819 H 183.478 2.0782 3.27769 0
M  V30 1820 H 181.579 -0.349444 3.70958 0
M  V30 1821 H 181.692 1.30595 4.60958 0
M  V30 1822 H 180.056 0.600669 2.47516 0
M  V30 1823 H 180.839 2.26902 2.57624 0
M  V30 1824 N 183.284 -1.43765 0.645699 0
M  V30 1825 C 184.532 -2.01499 0.155731 0
M  V30 1826 C 184.853 -1.51151 -1.232 0
M  V30 1827 O 184.123 -0.721044 -1.82148 0
M  V30 1828 H 182.703 -0.745003 0.0545817 0
M  V30 1829 H 185.365 -1.76075 0.835677 0
M  V30 1830 H 184.461 -3.1181 0.134577 0
M  V30 1831 N 184.763 -0.387143 -1.52771 0
M  V30 1832 C 186.174 0.0873634 -1.86495 0
M  V30 1833 C 186.525 1.46336 -1.30691 0
M  V30 1834 O 185.65 2.068 -0.637409 0
M  V30 1835 C 186.245 0.165305 -3.38396 0
M  V30 1836 C 184.804 0.584101 -3.7184 0
M  V30 1837 C 183.951 -0.255279 -2.76122 0
M  V30 1838 H 186.902 -0.605104 -1.46711 0
M  V30 1839 H 186.923 0.984848 -3.67534 0
M  V30 1840 H 186.435 -0.836301 -3.78982 0
M  V30 1841 H 184.536 1.59315 -3.36823 0
M  V30 1842 H 184.649 0.343749 -4.77865 0
M  V30 1843 H 183.013 0.279126 -2.53166 0
M  V30 1844 H 183.796 -1.25482 -3.19545 0
M  V30 1845 N 186.241 1.57166 -0.116904 0
M  V30 1846 C 187.487 1.95412 0.542405 0
M  V30 1847 C 187.82 1.00019 1.66463 0
M  V30 1848 O 187.095 0.0370346 1.94465 0
M  V30 1849 C 187.378 3.43615 1.07708 0
M  V30 1850 C 187.231 4.49781 -0.0415868 0
M  V30 1851 C 188.55 3.93616 1.96861 0
M  V30 1852 H 185.669 0.710543 0.195696 0
M  V30 1853 H 188.311 1.89027 -0.192038 0
M  V30 1854 H 186.461 3.49187 1.70296 0
M  V30 1855 H 188.133 4.56308 -0.676793 0
M  V30 1856 H 186.376 4.28033 -0.705019 0
M  V30 1857 H 187.047 5.50733 0.373717 0
M  V30 1858 H 189.523 3.90335 1.44146 0
M  V30 1859 H 188.399 4.97838 2.3119 0
M  V30 1860 H 188.66 3.34188 2.89432 0
M  V30 1861 N 187.719 -0.156864 1.56817 0
M  V30 1862 C 188.947 -0.886316 1.86955 0
M  V30 1863 C 189.362 -1.75185 0.703975 0
M  V30 1864 O 188.719 -1.79555 -0.326552 0
M  V30 1865 C 188.77 -1.75117 3.16253 0
M  V30 1866 O 188.491 -0.920537 4.2832 0
M  V30 1867 C 189.992 -2.58905 3.59837 0
M  V30 1868 H 187.212 -0.25678 0.619923 0
M  V30 1869 H 189.756 -0.152615 2.0393 0
M  V30 1870 H 187.911 -2.43805 3.01062 0
M  V30 1871 H 188.325 -1.51337 5.02192 0
M  V30 1872 H 189.799 -3.1518 4.53172 0
M  V30 1873 H 190.276 -3.34472 2.84649 0
M  V30 1874 H 190.882 -1.95526 3.7769 0
M  V30 1875 N 189.197 -1.51736 -0.425897 0
M  V30 1876 C 190.127 -1.76827 -1.52494 0
M  V30 1877 C 191.108 -0.618524 -1.58456 0
M  V30 1878 O 192.293 -0.862416 -1.74 0
M  V30 1879 C 189.423 -1.90374 -2.90474 0
M  V30 1880 C 188.377 -3.0588 -2.99369 0
M  V30 1881 C 187.703 -3.04625 -4.3944 0
M  V30 1882 C 189.003 -4.45644 -2.72394 0
M  V30 1883 H 190.697 -2.68855 -1.31748 0
M  V30 1884 H 188.243 -1.29372 -0.632362 0
M  V30 1885 H 190.196 -2.0651 -3.6733 0
M  V30 1886 H 188.92 -0.95004 -3.12477 0
M  V30 1887 H 187.579 -2.89467 -2.24954 0
M  V30 1888 H 187.227 -2.0701 -4.58428 0
M  V30 1889 H 186.927 -3.82195 -4.46319 0
M  V30 1890 H 188.451 -3.22869 -5.18255 0
M  V30 1891 H 189.865 -4.62348 -3.38979 0
M  V30 1892 H 188.262 -5.25006 -2.9067 0
M  V30 1893 H 189.332 -4.54893 -1.67929 0
M  V30 1894 N 190.675 0.682077 -1.42076 0
M  V30 1895 C 191.915 1.45424 -1.43636 0
M  V30 1896 C 192.279 1.91939 -0.0484001 0
M  V30 1897 O 193.48 2.6873 0.0612514 0
M  V30 1898 C 191.751 2.62427 -2.42625 0
M  V30 1899 S 193.31 3.51379 -2.62827 0
M  V30 1900 H 190.128 0.496779 -0.508657 0
M  V30 1901 H 192.73 0.794645 -1.78621 0
M  V30 1902 H 191.434 2.26481 -3.42249 0
M  V30 1903 H 190.965 3.33266 -2.09039 0
M  V30 1904 H 192.98 4.58141 -1.9058 0
M  V30 1905 N 192.153 1.28127 0.917671 0
M  V30 1906 C 193.378 1.18007 1.70555 0
M  V30 1907 C 193.803 -0.258257 1.86319 0
M  V30 1908 O 193.161 -1.1869 1.37049 0
M  V30 1909 C 193.209 1.87948 3.07746 0
M  V30 1910 O 192.313 1.18427 3.9503 0
M  V30 1911 H 191.654 0.409867 0.522403 0
M  V30 1912 H 194.184 1.69379 1.1477 0
M  V30 1913 H 194.194 1.95701 3.58001 0
M  V30 1914 H 192.869 2.92573 2.95591 0
M  V30 1915 H 191.446 1.18811 3.53466 0
M  V30 1916 N 193.631 -1.12557 1.10312 0
M  V30 1917 C 194.908 -1.80363 0.756878 0
M  V30 1918 C 195.288 -1.97067 -0.756824 0
M  V30 1919 O 194.636 -1.54601 -1.68259 0
M  V30 1920 C 194.846 -3.14812 1.50647 0
M  V30 1921 C 196.194 -3.90029 1.67817 0
M  V30 1922 O 197.218 -3.24464 1.46974 0
M  V30 1923 O 196.077 -5.07652 2.02365 0
M  V30 1924 H 193.171 -0.780667 0.272926 0
M  V30 1925 H 195.717 -1.19404 1.20586 0
M  V30 1926 H 194.489 -2.97936 2.53672 0
M  V30 1927 H 194.112 -3.83478 1.05026 0
M  V30 1928 N 195.109 -0.891671 -1.2995 0
M  V30 1929 C 196.039 -0.379797 -2.30391 0
M  V30 1930 C 197.02 0.540919 -1.6127 0
M  V30 1931 O 198.205 0.453352 -1.88834 0
M  V30 1932 C 195.335 0.400654 -3.44981 0
M  V30 1933 C 194.289 -0.428905 -4.25846 0
M  V30 1934 C 193.615 0.478557 -5.32554 0
M  V30 1935 C 194.915 -1.67458 -4.94727 0
M  V30 1936 H 196.609 -1.21914 -2.73454 0
M  V30 1937 H 194.155 -0.587675 -1.31462 0
M  V30 1938 H 196.108 0.769434 -4.14316 0
M  V30 1939 H 194.832 1.27371 -3.0074 0
M  V30 1940 H 193.491 -0.779911 -3.58208 0
M  V30 1941 H 193.139 1.34951 -4.84559 0
M  V30 1942 H 192.839 -0.0727433 -5.87555 0
M  V30 1943 H 194.363 0.843705 -6.04743 0
M  V30 1944 H 195.777 -1.376 -5.56542 0
M  V30 1945 H 194.174 -2.16659 -5.59624 0
M  V30 1946 H 195.244 -2.41518 -4.20473 0
M  V30 1947 N 196.587 1.43421 -0.653314 0
M  V30 1948 C 197.497 2.34568 0.0388565 0
M  V30 1949 C 198.513 1.53888 0.81207 0
M  V30 1950 O 199.689 1.86539 0.759294 0
M  V30 1951 C 196.754 3.32167 0.993269 0
M  V30 1952 C 195.815 4.28751 0.216977 0
M  V30 1953 C 195.048 5.21688 1.12593 0
M  V30 1954 O 195.271 5.19052 2.36519 0
M  V30 1955 O 194.205 5.98919 0.598284 0
M  V30 1956 H 198.031 2.95251 -0.711386 0
M  V30 1957 H 195.616 1.43564 -0.413502 0
M  V30 1958 H 197.498 3.92183 1.54176 0
M  V30 1959 H 196.173 2.73987 1.72374 0
M  V30 1960 H 195.08 3.72215 -0.375101 0
M  V30 1961 H 196.413 4.89913 -0.473924 0
M  V30 1962 N 198.065 0.39524 1.52563 0
M  V30 1963 C 199.29 -0.187456 2.06551 0
M  V30 1964 C 199.715 -1.39249 1.26457 0
M  V30 1965 O 199.073 -1.78947 0.291151 0
M  V30 1966 C 199.121 -0.529985 3.56684 0
M  V30 1967 O 198.225 -1.62307 3.79118 0
M  V30 1968 H 197.566 -0.0202537 0.663691 0
M  V30 1969 H 200.096 0.564426 1.96661 0
M  V30 1970 H 200.106 -0.792598 4.00227 0
M  V30 1971 H 198.781 0.350987 4.14416 0
M  V30 1972 H 197.358 -1.3537 3.47461 0
M  V30 1973 N 199.544 -1.57102 0.125237 0
M  V30 1974 C 200.494 -2.12202 -0.833936 0
M  V30 1975 C 201.478 -1.04433 -1.22403 0
M  V30 1976 O 202.67 -1.30655 -1.19408 0
M  V30 1977 C 199.799 -2.72994 -2.08157 0
M  V30 1978 C 198.885 -3.87852 -1.71556 0
M  V30 1979 N 199.276 -4.9464 -1.05662 0
M  V30 1980 C 197.574 -3.98153 -2.00973 0
M  V30 1981 C 198.275 -5.74953 -0.883376 0
M  V30 1982 N 197.251 -5.24985 -1.41036 0
M  V30 1983 H 201.053 -2.92141 -0.321035 0
M  V30 1984 H 198.567 -1.62217 -0.0770315 0
M  V30 1985 H 200.564 -3.10816 -2.77847 0
M  V30 1986 H 199.224 -1.9452 -2.59985 0
M  V30 1987 H 200.235 -5.12872 -0.719878 0
M  V30 1988 H 196.912 -3.30728 -2.54804 0
M  V30 1989 H 198.302 -6.70904 -0.365675 0
M  V30 1990 N 201.022 0.148545 -1.56898 0
M  V30 1991 C 202.247 0.880385 -1.87787 0
M  V30 1992 C 202.672 1.74018 -0.714093 0
M  V30 1993 O 202.03 1.78153 0.336343 0
M  V30 1994 C 202.078 1.71422 -3.17249 0
M  V30 1995 O 201.182 2.8183 -3.01074 0
M  V30 1996 H 200.523 0.245301 -0.617028 0
M  V30 1997 H 203.053 0.139826 -2.04122 0
M  V30 1998 H 203.063 2.10954 -3.49231 0
M  V30 1999 H 201.738 1.08284 -4.01556 0
M  V30 2000 H 200.315 2.45715 -2.80497 0
M  V30 2001 N 202.5 1.5196 0.417844 0
M  V30 2002 C 203.728 1.69426 1.18753 0
M  V30 2003 C 204.143 0.399955 1.84515 0
M  V30 2004 O 203.5 -0.623288 1.71527 0
M  V30 2005 C 203.551 2.82375 2.25714 0
M  V30 2006 O 203.272 4.06793 1.62638 0
M  V30 2007 C 204.773 3.11277 3.15628 0
M  V30 2008 H 201.993 0.568031 0.357186 0
M  V30 2009 H 204.537 1.98475 0.49273 0
M  V30 2010 H 202.692 2.5587 2.90877 0
M  V30 2011 H 203.106 4.69667 2.3348 0
M  V30 2012 H 204.58 3.93843 3.86771 0
M  V30 2013 H 205.057 2.24473 3.77503 0
M  V30 2014 H 205.663 3.39515 2.56144 0
M  V30 2015 N 203.978 -0.674533 1.42435 0
M  V30 2016 C 204.888 -1.81751 1.48337 0
M  V30 2017 C 205.904 -1.69975 0.372099 0
M  V30 2018 O 207.08 -1.91521 0.62304 0
M  V30 2019 C 204.145 -3.17895 1.38361 0
M  V30 2020 C 203.206 -3.41625 2.59982 0
M  V30 2021 C 202.439 -4.71274 2.50473 0
M  V30 2022 O 202.662 -5.49197 1.54075 0
M  V30 2023 O 201.596 -4.96254 3.4061 0
M  V30 2024 H 205.422 -1.79728 2.44809 0
M  V30 2025 H 203.007 -0.830312 1.24202 0
M  V30 2026 H 204.889 -3.99136 1.35161 0
M  V30 2027 H 203.564 -3.20555 0.450144 0
M  V30 2028 H 202.471 -2.60231 2.68757 0
M  V30 2029 H 203.804 -3.43796 3.52229 0
M  V30 2030 N 205.456 -1.28612 -0.910864 0
M  V30 2031 C 206.419 -1.12803 -1.9952 0
M  V30 2032 C 207.419 -0.0668264 -1.60661 0
M  V30 2033 O 208.609 -0.312847 -1.71368 0
M  V30 2034 C 205.741 -0.72254 -3.33155 0
M  V30 2035 H 206.934 -2.09109 -2.14973 0
M  V30 2036 H 204.487 -1.11639 -1.09391 0
M  V30 2037 H 205.222 0.241152 -3.23402 0
M  V30 2038 H 205.007 -1.48916 -3.62721 0
M  V30 2039 H 206.497 -0.634666 -4.12749 0
M  V30 2040 N 206.934 1.1197 -1.10907 0
M  V30 2041 C 208.18 1.8386 -0.855773 0
M  V30 2042 C 208.513 1.84134 0.617103 0
M  V30 2043 O 207.788 1.29041 1.45529 0
M  V30 2044 C 208.071 3.31305 -1.411 0
M  V30 2045 C 207.924 3.39456 -2.9511 0
M  V30 2046 C 209.243 4.2721 -1.05736 0
M  V30 2047 H 206.362 0.667545 -0.312334 0
M  V30 2048 H 209.004 1.31331 -1.37303 0
M  V30 2049 H 207.154 3.76169 -0.97105 0
M  V30 2050 H 208.826 3.03191 -3.47668 0
M  V30 2051 H 207.069 2.79849 -3.31462 0
M  V30 2052 H 207.74 4.43209 -3.29044 0
M  V30 2053 H 210.216 3.90497 -1.43706 0
M  V30 2054 H 209.092 5.28775 -1.47269 0
M  V30 2055 H 209.353 4.42088 0.0325958 0
M  V30 2056 N 208.412 0.89855 1.29475 0
M  V30 2057 C 209.342 0.39201 2.30186 0
M  V30 2058 C 210.323 -0.532359 1.61555 0
M  V30 2059 O 211.508 -0.443331 1.89072 0
M  V30 2060 C 208.638 -0.382353 3.45189 0
M  V30 2061 C 207.592 0.451483 4.25612 0
M  V30 2062 C 206.918 -0.450307 5.328 0
M  V30 2063 C 208.218 1.70079 4.93832 0
M  V30 2064 H 209.912 1.23362 2.72804 0
M  V30 2065 H 207.458 0.594638 1.31149 0
M  V30 2066 H 209.411 -0.747451 4.14718 0
M  V30 2067 H 208.135 -1.25774 3.01411 0
M  V30 2068 H 206.794 0.798897 3.57789 0
M  V30 2069 H 206.442 -1.32379 4.85268 0
M  V30 2070 H 206.142 0.103902 5.87508 0
M  V30 2071 H 207.666 -0.811623 6.05182 0
M  V30 2072 H 209.08 1.40549 5.55805 0
M  V30 2073 H 207.477 2.19623 5.58467 0
M  V30 2074 H 208.547 2.43744 4.19186 0
M  V30 2075 N 209.89 -1.43072 0.660911 0
M  V30 2076 C 211.138 -2.01323 0.177094 0
M  V30 2077 C 211.459 -1.5245 -1.2159 0
M  V30 2078 O 210.729 -0.740322 -1.81373 0
M  V30 2079 H 209.309 -0.744382 0.0624804 0
M  V30 2080 H 211.971 -1.75179 0.854305 0
M  V30 2081 H 211.067 -3.11649 0.167641 0
M  V30 2082 N 211.368 -0.403325 -1.52352 0
M  V30 2083 C 212.645 0.232611 -1.94212 0
M  V30 2084 C 213.025 1.63133 -1.33981 0
M  V30 2085 O 212.373 2.22659 -0.513344 0
M  V30 2086 C 212.583 0.244811 -3.4814 0
M  V30 2087 C 213.931 0.46698 -4.22024 0
M  V30 2088 O 214.955 0.324419 -3.5472 0
M  V30 2089 O 213.814 0.74747 -5.41364 0
M  V30 2090 H 210.908 0.148223 -0.813609 0
M  V30 2091 H 213.454 -0.458848 -1.63379 0
M  V30 2092 H 212.226 -0.734378 -3.84347 0
M  V30 2093 H 211.849 0.980611 -3.85318 0
M  V30 2094 N 212.846 1.57033 -0.133567 0
M  V30 2095 C 213.809 2.14897 0.796995 0
M  V30 2096 C 214.809 1.0874 1.18458 0
M  V30 2097 O 215.999 1.34446 1.1077 0
M  V30 2098 C 213.131 2.70112 2.07973 0
M  V30 2099 H 214.324 2.98457 0.293873 0
M  V30 2100 H 211.877 1.55871 0.115787 0
M  V30 2101 H 212.612 1.9018 2.62682 0
M  V30 2102 H 212.397 3.47764 1.81115 0
M  V30 2103 H 213.887 3.14738 2.74462 0
M  V30 2104 N 214.325 -0.140222 1.56975 0
M  V30 2105 C 215.255 -1.17456 2.01808 0
M  V30 2106 C 216.236 -1.44415 0.898794 0
M  V30 2107 O 217.421 -1.5522 1.16707 0
M  V30 2108 C 214.551 -2.50607 2.40444 0
M  V30 2109 C 213.505 -2.38155 3.55621 0
M  V30 2110 C 212.831 -3.76078 3.80091 0
M  V30 2111 C 214.131 -1.85991 4.88062 0
M  V30 2112 H 215.825 -0.801743 2.88466 0
M  V30 2113 H 213.371 -0.38422 1.38779 0
M  V30 2114 H 215.324 -3.23197 2.7041 0
M  V30 2115 H 214.048 -2.89737 1.50732 0
M  V30 2116 H 212.707 -1.68016 3.25832 0
M  V30 2117 H 212.355 -4.12656 2.87618 0
M  V30 2118 H 212.055 -3.68606 4.57606 0
M  V30 2119 H 213.579 -4.50206 4.12488 0
M  V30 2120 H 214.993 -2.4838 5.16701 0
M  V30 2121 H 213.39 -1.89393 5.6943 0
M  V30 2122 H 214.46 -0.816023 4.77984 0
M  V30 2123 N 215.803 -1.52179 -0.40978 0
M  V30 2124 C 217.049 -1.66453 -1.15851 0
M  V30 2125 C 217.382 -0.392972 -1.90182 0
M  V30 2126 O 216.657 0.608579 -1.84734 0
M  V30 2127 C 216.94 -2.88612 -2.15349 0
M  V30 2128 C 216.793 -4.25815 -1.44918 0
M  V30 2129 C 218.112 -3.06294 -3.16026 0
M  V30 2130 H 215.231 -0.60575 -0.419805 0
M  V30 2131 H 217.873 -1.84732 -0.444314 0
M  V30 2132 H 216.023 -2.73158 -2.76255 0
M  V30 2133 H 217.695 -4.52995 -0.871365 0
M  V30 2134 H 215.938 -4.27247 -0.751159 0
M  V30 2135 H 216.609 -5.07337 -2.17516 0
M  V30 2136 H 219.085 -3.20641 -2.65195 0
M  V30 2137 H 217.961 -3.93283 -3.8291 0
M  V30 2138 H 218.222 -2.19579 -3.83715 0
M  V30 2139 N 217.281 0.66697 -1.42791 0
M  V30 2140 C 218.558 1.4234 -1.34159 0
M  V30 2141 C 218.938 2.11093 0.0172729 0
M  V30 2142 O 218.286 2.03808 1.03318 0
M  V30 2143 C 218.496 2.41942 -2.51526 0
M  V30 2144 C 219.844 3.06353 -2.93995 0
M  V30 2145 O 220.868 2.52269 -2.51473 0
M  V30 2146 O 219.727 4.04376 -3.67617 0
M  V30 2147 H 216.821 0.635277 -0.529483 0
M  V30 2148 H 219.367 0.695034 -1.54814 0
M  V30 2149 H 218.139 1.89991 -3.42081 0
M  V30 2150 H 217.762 3.22249 -2.32898 0
M  V30 2151 N 218.759 1.29093 0.90403 0
M  V30 2152 C 220.006 1.16813 1.65411 0
M  V30 2153 C 220.334 -0.28128 1.92455 0
M  V30 2154 O 219.589 -1.22006 1.53013 0
M  V30 2155 C 219.888 1.92224 3.01305 0
M  V30 2156 C 219.554 3.41968 2.93885 0
M  V30 2157 C 218.216 3.82807 2.91569 0
M  V30 2158 C 220.568 4.37409 2.83413 0
M  V30 2159 C 217.896 5.1741 2.76594 0
M  V30 2160 C 220.248 5.72097 2.69977 0
M  V30 2161 C 218.912 6.12199 2.66024 0
M  V30 2162 H 218.182 0.42745 0.605283 0
M  V30 2163 H 220.829 1.59981 1.05254 0
M  V30 2164 H 219.134 1.41635 3.65304 0
M  V30 2165 H 220.831 1.80131 3.58265 0
M  V30 2166 H 217.421 3.09504 2.96488 0
M  V30 2167 H 221.605 4.06813 2.84283 0
M  V30 2168 H 216.861 5.47596 2.71935 0
M  V30 2169 H 221.035 6.45704 2.60844 0
M  V30 2170 H 218.662 7.16448 2.54178 0
M  V30 2171 N 220.237 -1.11381 1.11499 0
M  V30 2172 C 221.462 -1.87475 0.887019 0
M  V30 2173 C 221.887 -1.79639 -0.557796 0
M  V30 2174 O 221.245 -1.15924 -1.39396 0
M  V30 2175 C 221.293 -3.34213 1.35403 0
M  V30 2176 O 220.397 -4.0903 0.526146 0
M  V30 2177 H 219.738 -0.582099 0.319463 0
M  V30 2178 H 222.268 -1.40785 1.48461 0
M  V30 2179 H 222.278 -3.8506 1.34881 0
M  V30 2180 H 220.953 -3.39232 2.40612 0
M  V30 2181 H 219.53 -3.68082 0.597522 0
M  V30 2182 N 221.715 -0.905404 -1.28997 0
M  V30 2183 C 222.645 -0.404212 -2.29975 0
M  V30 2184 C 223.626 0.523784 -1.61835 0
M  V30 2185 O 224.811 0.433298 -1.89304 0
M  V30 2186 C 221.941 0.364042 -3.45387 0
M  V30 2187 C 220.895 -0.474048 -4.25367 0
M  V30 2188 C 220.221 0.422045 -5.33032 0
M  V30 2189 C 221.521 -1.72696 -4.92923 0
M  V30 2190 H 223.215 -1.24807 -2.72146 0
M  V30 2191 H 220.761 -0.601585 -1.30832 0
M  V30 2192 H 222.714 0.725447 -4.15109 0
M  V30 2193 H 221.438 1.24174 -3.02074 0
M  V30 2194 H 220.097 -0.81786 -3.57361 0
M  V30 2195 H 219.745 1.29804 -4.85963 0
M  V30 2196 H 219.445 -0.135057 -5.87445 0
M  V30 2197 H 220.969 0.779517 -6.05604 0
M  V30 2198 H 222.383 -1.43495 -5.55051 0
M  V30 2199 H 220.78 -2.22582 -5.57295 0
M  V30 2200 H 221.85 -2.45964 -4.17887 0
M  V30 2201 N 223.193 1.4272 -0.668489 0
M  V30 2202 C 224.14 2.30796 0.0137489 0
M  V30 2203 C 225.11 1.4561 0.799177 0
M  V30 2204 O 226.295 1.74453 0.772702 0
M  V30 2205 C 223.435 3.31377 0.963507 0
M  V30 2206 C 222.548 4.31655 0.172569 0
M  V30 2207 C 221.683 5.19312 1.1175 0
M  V30 2208 C 220.722 6.11274 0.317886 0
M  V30 2209 N 219.859 6.91504 1.2152 0
M  V30 2210 H 224.699 2.88585 -0.743161 0
M  V30 2211 H 222.236 1.42154 -0.378226 0
M  V30 2212 H 224.194 3.88214 1.52792 0
M  V30 2213 H 222.824 2.75202 1.68712 0
M  V30 2214 H 221.876 3.76988 -0.508374 0
M  V30 2215 H 223.188 4.96779 -0.448527 0
M  V30 2216 H 222.342 5.80851 1.75206 0
M  V30 2217 H 221.081 4.5435 1.77249 0
M  V30 2218 H 220.086 5.48809 -0.329918 0
M  V30 2219 H 221.311 6.78283 -0.332917 0
M  V30 2220 H 219.257 6.29176 1.85671 0
M  V30 2221 H 219.174 7.53209 0.649036 0
M  V30 2222 H 220.442 7.57535 1.83742 0
M  V30 2223 N 224.671 0.411399 1.52136 0
M  V30 2224 C 225.601 -0.404015 2.29978 0
M  V30 2225 C 226.582 -1.04412 1.34284 0
M  V30 2226 O 227.767 -1.0527 1.63192 0
M  V30 2227 C 224.897 -1.5197 3.12286 0
M  V30 2228 C 223.851 -1.00448 4.16046 0
M  V30 2229 C 223.177 -2.21393 4.86712 0
M  V30 2230 C 224.477 -0.0569336 5.22269 0
M  V30 2231 H 226.171 0.245529 2.98392 0
M  V30 2232 H 223.717 0.119525 1.43503 0
M  V30 2233 H 225.67 -2.09715 3.6551 0
M  V30 2234 H 224.394 -2.19716 2.41646 0
M  V30 2235 H 223.053 -0.449421 3.63835 0
M  V30 2236 H 222.701 -2.87699 4.12599 0
M  V30 2237 H 222.401 -1.87571 5.56858 0
M  V30 2238 H 223.925 -2.7974 5.4275 0
M  V30 2239 H 225.339 -0.54325 5.7072 0
M  V30 2240 H 223.736 0.192594 5.99791 0
M  V30 2241 H 224.806 0.887663 4.76706 0
M  V30 2242 N 226.149 -1.5696 0.141893 0
M  V30 2243 C 227.379 -2.00031 -0.516828 0
M  V30 2244 C 227.787 -1.02091 -1.59293 0
M  V30 2245 O 227.13 -0.00909657 -1.83698 0
M  V30 2246 C 227.192 -3.39534 -1.1814 0
M  V30 2247 C 226.856 -4.56313 -0.250513 0
M  V30 2248 C 227.853 -5.17295 0.519839 0
M  V30 2249 C 225.538 -5.02061 -0.154907 0
M  V30 2250 C 227.532 -6.2243 1.3733 0
M  V30 2251 C 225.219 -6.07053 0.702161 0
M  V30 2252 C 226.217 -6.67106 1.46487 0
M  V30 2253 O 225.905 -7.70066 2.30767 0
M  V30 2254 H 225.637 -0.661451 -0.139493 0
M  V30 2255 H 228.191 -2.04086 0.231926 0
M  V30 2256 H 226.421 -3.32302 -1.97769 0
M  V30 2257 H 228.11 -3.66745 -1.73933 0
M  V30 2258 H 228.876 -4.82852 0.45598 0
M  V30 2259 H 224.755 -4.5505 -0.7383 0
M  V30 2260 H 228.299 -6.69233 1.96909 0
M  V30 2261 H 224.196 -6.40923 0.76733 0
M  V30 2262 H 224.964 -7.87264 2.23959 0
M  V30 2263 N 227.627 0.131896 -1.57047 0
M  V30 2264 C 228.577 1.1679 -1.95816 0
M  V30 2265 C 229.561 1.37756 -0.831393 0
M  V30 2266 O 230.753 1.39065 -1.09499 0
M  V30 2267 C 227.882 2.49778 -2.35512 0
M  V30 2268 C 226.968 2.32342 -3.54793 0
M  V30 2269 N 227.359 1.8469 -4.70875 0
M  V30 2270 C 225.657 2.63043 -3.60173 0
M  V30 2271 C 226.358 1.80656 -5.52936 0
M  V30 2272 N 225.334 2.24528 -4.95064 0
M  V30 2273 H 229.136 0.791818 -2.83033 0
M  V30 2274 H 226.65 0.339791 -1.58805 0
M  V30 2275 H 228.647 3.24692 -2.61498 0
M  V30 2276 H 227.307 2.88156 -1.49654 0
M  V30 2277 H 228.318 1.54429 -4.9434 0
M  V30 2278 H 224.995 3.05193 -2.84892 0
M  V30 2279 H 226.385 1.45178 -6.56028 0
M  V30 2280 N 229.106 1.52395 0.401703 0
M  V30 2281 C 230.069 1.75636 1.47257 0
M  V30 2282 C 231.069 0.62628 1.48103 0
M  V30 2283 O 232.259 0.894227 1.49497 0
M  V30 2284 C 229.391 1.84553 2.86624 0
M  V30 2285 H 230.584 2.71241 1.27938 0
M  V30 2286 H 228.137 1.42923 0.632662 0
M  V30 2287 H 228.872 0.908882 3.11303 0
M  V30 2288 H 228.657 2.66715 2.87412 0
M  V30 2289 H 230.147 2.04251 3.64241 0
M  V30 2290 N 230.584 -0.659388 1.43143 0
M  V30 2291 C 231.831 -1.41935 1.44433 0
M  V30 2292 C 232.159 -1.94387 0.0663522 0
M  V30 2293 O 231.414 -1.72314 -0.927706 0
M  V30 2294 C 231.713 -2.62206 2.42864 0
M  V30 2295 C 231.379 -2.28208 3.88886 0
M  V30 2296 C 230.041 -2.18647 4.28657 0
M  V30 2297 C 232.393 -2.00887 4.8093 0
M  V30 2298 C 229.721 -1.79914 5.58433 0
M  V30 2299 C 232.073 -1.63653 6.11065 0
M  V30 2300 C 230.737 -1.52614 6.49819 0
M  V30 2301 H 230.007 -0.519376 0.528517 0
M  V30 2302 H 232.654 -0.750453 1.76183 0
M  V30 2303 H 230.959 -3.34199 2.04495 0
M  V30 2304 H 232.656 -3.2041 2.41119 0
M  V30 2305 H 229.246 -2.36557 3.57406 0
M  V30 2306 H 233.43 -2.07198 4.5098 0
M  V30 2307 H 228.686 -1.69948 5.87305 0
M  V30 2308 H 232.86 -1.41543 6.81864 0
M  V30 2309 H 230.487 -1.22371 7.50286 0
M  V30 2310 N 232.062 -1.29571 -0.897171 0
M  V30 2311 C 233.287 -1.20705 -1.68656 0
M  V30 2312 C 233.712 0.228582 -1.86706 0
M  V30 2313 O 233.07 1.16494 -1.3892 0
M  V30 2314 C 233.118 -1.9282 -3.04717 0
M  V30 2315 O 232.222 -1.24697 -3.93096 0
M  V30 2316 H 231.563 -0.418126 -0.515816 0
M  V30 2317 H 234.093 -1.71183 -1.12061 0
M  V30 2318 H 234.103 -2.01372 -3.54843 0
M  V30 2319 H 232.778 -2.97239 -2.90899 0
M  V30 2320 H 231.355 -1.2442 -3.51531 0
M  V30 2321 N 233.54 1.10788 -1.12088 0
M  V30 2322 C 234.503 2.15207 -0.788577 0
M  V30 2323 C 235.503 1.59609 0.195317 0
M  V30 2324 O 236.693 1.74174 -0.0300193 0
M  V30 2325 C 233.825 3.4047 -0.171174 0
M  V30 2326 H 235.018 2.46116 -1.71368 0
M  V30 2327 H 232.571 1.26089 -0.923652 0
M  V30 2328 H 233.306 3.15176 0.763832 0
M  V30 2329 H 233.091 3.82109 -0.879514 0
M  V30 2330 H 234.581 4.17576 0.04496 0
M  V30 2331 N 235.018 0.912232 1.28515 0
M  V30 2332 C 235.951 0.343928 2.25593 0
M  V30 2333 C 236.929 -0.550994 1.5298 0
M  V30 2334 O 238.113 -0.494991 1.81885 0
M  V30 2335 C 235.24 -0.508525 3.34861 0
M  V30 2336 C 234.286 0.320808 4.25292 0
M  V30 2337 S 235.119 1.72658 5.06902 0
M  V30 2338 C 236.275 0.881394 6.19663 0
M  V30 2339 H 236.508 1.16674 2.73449 0
M  V30 2340 H 234.041 0.713384 1.36931 0
M  V30 2341 H 235.999 -0.994539 3.9827 0
M  V30 2342 H 234.66 -1.30571 2.85675 0
M  V30 2343 H 233.853 -0.330941 5.02912 0
M  V30 2344 H 233.455 0.74042 3.66598 0
M  V30 2345 H 235.747 0.110359 6.7741 0
M  V30 2346 H 236.69 1.63009 6.89082 0
M  V30 2347 H 237.098 0.430239 5.62858 0
M  V30 2348 N 236.496 -1.42363 0.676048 0
M  V30 2349 C 237.443 -2.308 -0.00150904 0
M  V30 2350 C 238.413 -1.46032 -0.791444 0
M  V30 2351 O 239.598 -1.74861 -0.76344 0
M  V30 2352 C 236.738 -3.31883 -0.945919 0
M  V30 2353 C 235.851 -4.31741 -0.149675 0
M  V30 2354 C 234.986 -5.19898 -1.08995 0
M  V30 2355 C 234.025 -6.11434 -0.285465 0
M  V30 2356 N 233.162 -6.92138 -1.17851 0
M  V30 2357 H 238.002 -2.88187 0.758455 0
M  V30 2358 H 235.539 -1.41952 0.38576 0
M  V30 2359 H 237.497 -3.89019 -1.50731 0
M  V30 2360 H 236.127 -2.76093 -1.6725 0
M  V30 2361 H 235.179 -3.76713 0.528359 0
M  V30 2362 H 236.491 -4.96534 0.474866 0
M  V30 2363 H 235.645 -5.81772 -1.72123 0
M  V30 2364 H 234.384 -4.55284 -1.74837 0
M  V30 2365 H 233.389 -5.48627 0.359018 0
M  V30 2366 H 234.614 -6.78097 0.368883 0
M  V30 2367 H 232.56 -6.30152 -1.82332 0
M  V30 2368 H 232.477 -7.53542 -0.609082 0
M  V30 2369 H 233.745 -7.58499 -1.79722 0
M  V30 2370 N 237.974 -0.419461 -1.51915 0
M  V30 2371 C 238.921 0.400927 -2.27291 0
M  V30 2372 C 239.891 1.03224 -1.30131 0
M  V30 2373 O 241.076 1.05455 -1.59009 0
M  V30 2374 C 238.216 1.50603 -3.10504 0
M  V30 2375 C 237.329 0.89462 -4.22635 0
M  V30 2376 C 236.464 1.97328 -4.93189 0
M  V30 2377 C 235.503 1.33935 -5.97267 0
M  V30 2378 N 234.64 2.3586 -6.61298 0
M  V30 2379 H 239.48 -0.248251 -2.96964 0
M  V30 2380 H 237.017 -0.134266 -1.46486 0
M  V30 2381 H 238.975 2.15783 -3.57062 0
M  V30 2382 H 237.605 2.12509 -2.42981 0
M  V30 2383 H 236.657 0.131583 -3.80172 0
M  V30 2384 H 237.969 0.391641 -4.9726 0
M  V30 2385 H 237.123 2.70211 -5.43204 0
M  V30 2386 H 235.862 2.50994 -4.18155 0
M  V30 2387 H 234.867 0.595896 -5.46561 0
M  V30 2388 H 236.092 0.810252 -6.74249 0
M  V30 2389 H 234.038 2.88639 -5.89087 0
M  V30 2390 H 233.955 1.90403 -7.3163 0
M  V30 2391 H 235.223 3.08282 -7.15949 0
M  V30 2392 N 239.452 1.56882 -0.150215 0
M  V30 2393 C 240.698 1.96518 0.500834 0
M  V30 2394 C 241.031 1.03527 1.64304 0
M  V30 2395 O 240.306 0.0782751 1.94342 0
M  V30 2396 C 240.589 3.45822 1.00395 0
M  V30 2397 C 240.442 4.49591 -0.136983 0
M  V30 2398 C 241.761 3.97704 1.88467 0
M  V30 2399 H 238.88 0.714535 0.18058 0
M  V30 2400 H 241.522 1.88577 -0.232091 0
M  V30 2401 H 239.672 3.5272 1.62851 0
M  V30 2402 H 241.344 4.5477 -0.77343 0
M  V30 2403 H 239.587 4.26441 -0.795652 0
M  V30 2404 H 240.258 5.51402 0.256815 0
M  V30 2405 H 242.734 3.93304 1.35834 0
M  V30 2406 H 241.61 5.0263 2.20578 0
M  V30 2407 H 241.871 3.40252 2.82279 0
M  V30 2408 N 240.93 -0.123565 1.57115 0
M  V30 2409 C 241.84 -1.17074 2.033 0
M  V30 2410 C 242.856 -1.4561 0.952559 0
M  V30 2411 O 244.032 -1.56817 1.26374 0
M  V30 2412 C 241.097 -2.47857 2.42421 0
M  V30 2413 C 240.158 -2.26758 3.64526 0
M  V30 2414 C 239.391 -3.51305 4.01771 0
M  V30 2415 O 239.614 -4.5843 3.39409 0
M  V30 2416 O 238.548 -3.42578 4.94898 0
M  V30 2417 H 242.374 -0.808555 2.92739 0
M  V30 2418 H 239.959 -0.334027 1.45618 0
M  V30 2419 H 241.841 -3.2492 2.68338 0
M  V30 2420 H 240.516 -2.83558 1.5613 0
M  V30 2421 H 239.423 -1.47569 3.43765 0
M  V30 2422 H 240.756 -1.95963 4.51508 0
M  V30 2423 N 242.408 -1.52605 -0.393616 0
M  V30 2424 C 243.636 -1.71294 -1.16043 0
M  V30 2425 C 244.051 -0.429259 -1.83855 0
M  V30 2426 O 243.408 0.595921 -1.72496 0
M  V30 2427 C 243.459 -2.8593 -2.21193 0
M  V30 2428 O 243.18 -4.09329 -1.56146 0
M  V30 2429 C 244.681 -3.16259 -3.10636 0
M  V30 2430 H 241.901 -0.573641 -0.348104 0
M  V30 2431 H 244.445 -1.99234 -0.461092 0
M  V30 2432 H 242.6 -2.60465 -2.86769 0
M  V30 2433 H 243.014 -4.73323 -2.25978 0
M  V30 2434 H 244.488 -3.99946 -3.80456 0
M  V30 2435 H 244.965 -2.3045 -3.73884 0
M  V30 2436 H 245.571 -3.43547 -2.50711 0
M  V30 2437 N 243.887 0.651787 -1.4349 0
M  V30 2438 C 244.835 1.78586 -1.49029 0
M  V30 2439 C 245.829 1.65448 -0.363767 0
M  V30 2440 O 247.035 1.71777 -0.537821 0
M  V30 2441 H 243.41 0.589236 -0.467231 0
M  V30 2442 H 245.381 1.71035 -2.44519 0
M  V30 2443 C 244.13 3.16851 -1.43181 0
M  V30 2444 H 243.453 3.27598 -2.29171 0
M  V30 2445 H 244.893 3.96156 -1.51118 0
M  V30 2446 C 243.352 3.36568 -0.149616 0
M  V30 2447 O 243.882 3.93885 0.788509 0
M  V30 2448 N 242.088 2.90539 -0.0593484 0
M  V30 2449 H 241.635 2.4408 -0.823575 0
M  V30 2450 H 241.593 3.04108 0.797853 0
M  V30 2451 N 245.365 1.30045 0.890287 0
M  V30 2452 C 246.298 1.10301 1.99772 0
M  V30 2453 C 247.276 0.0121631 1.62595 0
M  V30 2454 O 248.46 0.16469 1.87779 0
M  V30 2455 C 245.587 0.681125 3.31781 0
M  V30 2456 C 244.633 1.77206 3.87944 0
M  V30 2457 S 245.466 3.37335 4.15891 0
M  V30 2458 C 246.622 2.97036 5.50927 0
M  V30 2459 H 246.855 2.04057 2.16213 0
M  V30 2460 H 244.388 1.14299 1.03804 0
M  V30 2461 H 246.346 0.444439 4.08087 0
M  V30 2462 H 245.007 -0.236981 3.13205 0
M  V30 2463 H 244.2 1.42903 4.83316 0
M  V30 2464 H 243.802 1.96275 3.18358 0
M  V30 2465 H 246.094 2.44666 6.31779 0
M  V30 2466 H 247.037 3.91296 5.90164 0
M  V30 2467 H 247.445 2.35057 5.13233 0
M  V30 2468 N 246.843 -1.10192 1.12674 0
M  V30 2469 C 247.806 -2.14786 0.799979 0
M  V30 2470 C 248.806 -1.59711 -0.18685 0
M  V30 2471 O 249.996 -1.74156 0.0392558 0
M  V30 2472 C 247.128 -3.40374 0.189228 0
M  V30 2473 H 248.321 -2.45203 1.72671 0
M  V30 2474 H 245.874 -1.25597 0.930326 0
M  V30 2475 H 246.609 -3.15577 -0.747107 0
M  V30 2476 H 246.394 -3.81637 0.899766 0
M  V30 2477 H 247.884 -4.17594 -0.0228143 0
M  V30 2478 N 248.321 -0.919034 -1.28029 0
M  V30 2479 C 249.568 -0.554934 -1.94748 0
M  V30 2480 C 249.896 0.90231 -1.72304 0
M  V30 2481 O 249.151 1.65767 -1.04018 0
M  V30 2482 C 249.45 -0.816855 -3.4794 0
M  V30 2483 C 249.116 -2.25448 -3.90492 0
M  V30 2484 C 247.778 -2.64752 -4.01821 0
M  V30 2485 C 250.13 -3.18977 -4.12193 0
M  V30 2486 C 247.458 -3.96727 -4.32232 0
M  V30 2487 C 249.81 -4.50523 -4.44086 0
M  V30 2488 C 248.474 -4.89673 -4.53626 0
M  V30 2489 H 247.744 -0.203065 -0.712633 0
M  V30 2490 H 250.391 -1.16136 -1.52265 0
M  V30 2491 H 248.696 -0.127677 -3.91592 0
M  V30 2492 H 250.393 -0.514238 -3.97689 0
M  V30 2493 H 246.983 -1.93952 -3.82205 0
M  V30 2494 H 251.167 -2.89817 -4.02889 0
M  V30 2495 H 246.423 -4.26754 -4.37825 0
M  V30 2496 H 250.597 -5.23005 -4.59825 0
M  V30 2497 H 248.224 -5.91969 -4.76946 0
M  V30 2498 N 249.799 1.42003 -0.683588 0
M  V30 2499 C 251.024 2.06265 -0.216647 0
M  V30 2500 C 251.449 1.51059 1.12083 0
M  V30 2501 O 250.807 0.632638 1.69904 0
M  V30 2502 C 250.855 3.60191 -0.171759 0
M  V30 2503 O 249.959 4.03396 0.857069 0
M  V30 2504 H 249.3 0.65502 -0.108834 0
M  V30 2505 H 251.83 1.81982 -0.935077 0
M  V30 2506 H 251.84 4.08 0.0014303 0
M  V30 2507 H 250.515 3.99743 -1.14796 0
M  V30 2508 H 249.092 3.67117 0.654208 0
M  V30 2509 N 251.277 0.427512 1.51691 0
M  V30 2510 C 252.688 -0.0378867 1.86662 0
M  V30 2511 C 253.039 -1.42819 1.34525 0
M  V30 2512 O 252.164 -2.05037 0.692014 0
M  V30 2513 C 252.759 -0.0755266 3.38716 0
M  V30 2514 C 251.318 -0.485309 3.73258 0
M  V30 2515 C 250.465 0.328399 2.75349 0
M  V30 2516 H 253.416 0.64379 1.45055 0
M  V30 2517 H 253.437 -0.887056 3.70016 0
M  V30 2518 H 252.949 0.936487 3.76632 0
M  V30 2519 H 251.05 -1.50329 3.40928 0
M  V30 2520 H 251.163 -0.21693 4.78609 0
M  V30 2521 H 249.527 -0.211905 2.53817 0
M  V30 2522 H 250.31 1.3391 3.16106 0
M  V30 2523 N 252.755 -1.56801 0.158532 0
M  V30 2524 C 254.002 -1.9649 -0.489679 0
M  V30 2525 C 254.33 -1.04394 -1.6411 0
M  V30 2526 O 253.585 -0.0754401 -1.95555 0
M  V30 2527 C 253.884 -3.4235 -1.02623 0
M  V30 2528 C 253.55 -4.50899 0.00794526 0
M  V30 2529 C 252.212 -4.80312 0.292207 0
M  V30 2530 C 254.564 -5.16333 0.710584 0
M  V30 2531 C 251.892 -5.72461 1.28472 0
M  V30 2532 C 254.244 -6.09553 1.69199 0
M  V30 2533 C 252.908 -6.37339 1.98383 0
M  V30 2534 H 252.178 -0.719009 -0.179186 0
M  V30 2535 H 254.825 -1.8989 0.247798 0
M  V30 2536 H 253.13 -3.45838 -1.84128 0
M  V30 2537 H 254.827 -3.70393 -1.53656 0
M  V30 2538 H 251.417 -4.28015 -0.22379 0
M  V30 2539 H 255.601 -4.93732 0.504174 0
M  V30 2540 H 250.857 -5.92278 1.51714 0
M  V30 2541 H 255.031 -6.59327 2.24189 0
M  V30 2542 H 252.658 -7.08546 2.7544 0
M  V30 2543 N 254.233 0.115231 -1.57178 0
M  V30 2544 C 255.458 0.840354 -1.89612 0
M  V30 2545 C 255.883 1.72464 -0.750845 0
M  V30 2546 O 255.241 1.78826 0.298478 0
M  V30 2547 C 255.289 1.64654 -3.20814 0
M  V30 2548 O 254.393 2.7538 -3.06985 0
M  V30 2549 H 253.734 0.232158 -0.622092 0
M  V30 2550 H 256.264 0.0964977 -2.04372 0
M  V30 2551 H 256.274 2.03499 -3.53627 0
M  V30 2552 H 254.949 0.997416 -4.03763 0
M  V30 2553 H 253.526 2.3971 -2.85646 0
M  V30 2554 N 255.711 1.52812 0.385517 0
M  V30 2555 C 256.96 1.67249 1.12741 0
M  V30 2556 C 257.273 0.4205 1.91027 0
M  V30 2557 O 258.479 0.445064 2.67827 0
M  V30 2558 C 256.935 2.95583 2.05326 0
M  V30 2559 C 256.543 4.27974 1.32447 0
M  V30 2560 C 258.287 3.19386 2.7963 0
M  V30 2561 C 256.194 5.47412 2.23818 0
M  V30 2562 H 255.124 0.6231 0.424573 0
M  V30 2563 H 257.775 1.79309 0.389924 0
M  V30 2564 H 256.157 2.77277 2.82725 0
M  V30 2565 H 257.331 4.56844 0.602495 0
M  V30 2566 H 255.646 4.10459 0.700885 0
M  V30 2567 H 258.243 4.05801 3.48181 0
M  V30 2568 H 258.586 2.34604 3.43899 0
M  V30 2569 H 259.119 3.38274 2.09322 0
M  V30 2570 H 255.858 6.34612 1.64157 0
M  V30 2571 H 255.378 5.22849 2.93921 0
M  V30 2572 H 257.057 5.81423 2.83824 0
M  V30 2573 N 257.189 -0.644168 1.43834 0
M  V30 2574 C 258.152 -1.73857 1.49353 0
M  V30 2575 C 259.152 -1.56315 0.377112 0
M  V30 2576 O 260.342 -1.62048 0.639226 0
M  V30 2577 C 257.474 -3.12819 1.35488 0
M  V30 2578 H 258.667 -1.70342 2.46827 0
M  V30 2579 H 256.22 -0.856652 1.30733 0
M  V30 2580 H 256.955 -3.2194 0.390569 0
M  V30 2581 H 256.74 -3.26958 2.16428 0
M  V30 2582 H 258.23 -3.92606 1.42302 0
M  V30 2583 N 258.668 -1.30515 -0.883378 0
M  V30 2584 C 259.893 -1.22487 -1.67367 0
M  V30 2585 C 260.318 0.208767 -1.86938 0
M  V30 2586 O 259.676 1.15015 -1.40148 0
M  V30 2587 C 259.724 -1.96041 -3.02655 0
M  V30 2588 O 258.828 -1.28859 -3.91751 0
M  V30 2589 H 258.169 -0.423573 -0.511353 0
M  V30 2590 H 260.699 -1.72362 -1.10239 0
M  V30 2591 H 260.709 -2.05124 -3.52687 0
M  V30 2592 H 259.384 -3.00307 -2.8773 0
M  V30 2593 H 257.961 -1.28141 -3.50192 0
M  V30 2594 N 260.146 1.09593 -1.13257 0
M  V30 2595 C 261.076 2.18214 -0.830946 0
M  V30 2596 C 262.057 1.68812 0.208966 0
M  V30 2597 O 263.242 1.9408 0.0682666 0
M  V30 2598 C 260.372 3.46051 -0.294296 0
M  V30 2599 C 259.326 4.08778 -1.26826 0
M  V30 2600 C 258.652 5.31419 -0.591449 0
M  V30 2601 C 259.952 4.51476 -2.62615 0
M  V30 2602 H 261.646 2.43703 -1.73923 0
M  V30 2603 H 259.192 1.17128 -0.837675 0
M  V30 2604 H 261.145 4.2134 -0.0709606 0
M  V30 2605 H 259.869 3.20079 0.649366 0
M  V30 2606 H 258.528 3.35505 -1.47756 0
M  V30 2607 H 258.176 5.01727 0.357633 0
M  V30 2608 H 257.876 5.74341 -1.24123 0
M  V30 2609 H 259.4 6.09433 -0.377355 0
M  V30 2610 H 260.814 5.17999 -2.45663 0
M  V30 2611 H 259.211 5.05277 -3.23752 0
M  V30 2612 H 260.281 3.63962 -3.20406 0
M  V30 2613 N 261.624 0.925811 1.2754 0
M  V30 2614 C 262.554 0.440748 2.29303 0
M  V30 2615 C 263.535 -0.497971 1.62648 0
M  V30 2616 O 264.72 -0.403126 1.8997 0
M  V30 2617 C 261.85 -0.309048 3.45922 0
M  V30 2618 C 260.804 0.54166 4.24559 0
M  V30 2619 C 260.13 -0.337191 5.33636 0
M  V30 2620 C 261.43 1.80516 4.90114 0
M  V30 2621 H 263.124 1.29121 2.70126 0
M  V30 2622 H 260.67 0.622323 1.29858 0
M  V30 2623 H 262.623 -0.659315 4.1621 0
M  V30 2624 H 261.347 -1.19352 3.04011 0
M  V30 2625 H 260.006 0.874609 3.56014 0
M  V30 2626 H 259.654 -1.22056 4.87966 0
M  V30 2627 H 259.354 0.228497 5.87156 0
M  V30 2628 H 260.878 -0.683072 6.06767 0
M  V30 2629 H 262.292 1.52307 5.52698 0
M  V30 2630 H 260.689 2.3142 5.53683 0
M  V30 2631 H 261.759 2.52581 4.13921 0
M  V30 2632 N 263.102 -1.41638 0.69111 0
M  V30 2633 C 264.33 -2.05628 0.22909 0
M  V30 2634 C 264.745 -1.51992 -1.11999 0
M  V30 2635 O 264.102 -0.666322 -1.69901 0
M  V30 2636 C 264.153 -3.61084 0.173283 0
M  V30 2637 O 263.874 -4.12735 1.46907 0
M  V30 2638 C 265.375 -4.42213 -0.310266 0
M  V30 2639 H 262.595 -0.662327 0.107534 0
M  V30 2640 H 265.139 -1.81489 0.942438 0
M  V30 2641 H 263.294 -3.84278 -0.490858 0
M  V30 2642 H 263.708 -5.06743 1.35322 0
M  V30 2643 H 265.182 -5.51194 -0.298196 0
M  V30 2644 H 265.659 -4.1799 -1.34838 0
M  V30 2645 H 266.265 -4.24074 0.322716 0
M  V30 2646 N 264.58 -0.43555 -1.51462 0
M  V30 2647 C 265.512 0.41257 -2.25456 0
M  V30 2648 C 266.525 0.987822 -1.29406 0
M  V30 2649 O 267.714 0.882266 -1.55172 0
M  V30 2650 C 264.814 1.58894 -2.99342 0
M  V30 2651 C 263.987 1.13288 -4.22474 0
M  V30 2652 C 263.046 2.17917 -4.78956 0
M  V30 2653 O 262.072 1.77425 -5.40841 0
M  V30 2654 N 263.274 3.50382 -4.62832 0
M  V30 2655 H 266.039 -0.221603 -2.9888 0
M  V30 2656 H 263.6 -0.264342 -1.59727 0
M  V30 2657 H 265.592 2.28508 -3.34015 0
M  V30 2658 H 264.162 2.12849 -2.28941 0
M  V30 2659 H 263.382 0.263881 -3.93316 0
M  V30 2660 H 264.67 0.805542 -5.02383 0
M  V30 2661 H 264.068 3.86013 -4.13534 0
M  V30 2662 H 262.625 4.15895 -5.01871 0
M  V30 2663 N 266.058 1.56714 -0.166846 0
M  V30 2664 C 267.304 1.97039 0.479962 0
M  V30 2665 C 267.637 1.05264 1.63197 0
M  V30 2666 O 266.912 0.0988833 1.94248 0
M  V30 2667 C 267.195 3.46867 0.967212 0
M  V30 2668 C 267.048 4.49421 -0.18466 0
M  V30 2669 C 268.367 3.9968 1.84238 0
M  V30 2670 H 265.486 0.71641 0.172992 0
M  V30 2671 H 268.128 1.8832 -0.252079 0
M  V30 2672 H 266.278 3.54428 1.59101 0
M  V30 2673 H 267.95 4.53924 -0.821621 0
M  V30 2674 H 266.193 4.25573 -0.840837 0
M  V30 2675 H 266.864 5.51644 0.198317 0
M  V30 2676 H 269.34 3.94723 1.31655 0
M  V30 2677 H 268.216 5.04941 2.15234 0
M  V30 2678 H 268.477 3.43226 2.78654 0
M  V30 2679 N 267.536 -0.106894 1.57237 0
M  V30 2680 C 268.466 -1.13148 2.04254 0
M  V30 2681 C 269.447 -1.42476 0.929224 0
M  V30 2682 O 270.632 -1.52709 1.19973 0
M  V30 2683 C 267.762 -2.4545 2.45706 0
M  V30 2684 C 266.716 -2.30558 3.60592 0
M  V30 2685 C 266.042 -3.67931 3.87983 0
M  V30 2686 C 267.342 -1.75597 4.91897 0
M  V30 2687 H 269.036 -0.740374 2.90101 0
M  V30 2688 H 266.582 -0.354696 1.39563 0
M  V30 2689 H 268.535 -3.17389 2.77205 0
M  V30 2690 H 267.259 -2.86475 1.56843 0
M  V30 2691 H 265.918 -1.61067 3.29322 0
M  V30 2692 H 265.566 -4.06462 2.96306 0
M  V30 2693 H 265.266 -3.58817 4.65322 0
M  V30 2694 H 266.79 -4.41356 4.21945 0
M  V30 2695 H 268.204 -2.37364 5.21854 0
M  V30 2696 H 266.601 -1.77272 5.73319 0
M  V30 2697 H 267.671 -0.714451 4.79608 0
M  V30 2698 N 269.014 -1.53014 -0.377408 0
M  V30 2699 C 269.944 -1.81589 -1.46791 0
M  V30 2700 C 270.925 -0.668622 -1.56408 0
M  V30 2701 O 272.11 -0.917337 -1.71168 0
M  V30 2702 C 269.24 -1.99519 -2.8427 0
M  V30 2703 C 268.194 -3.15249 -2.89486 0
M  V30 2704 C 267.52 -3.18451 -4.29527 0
M  V30 2705 C 268.82 -4.54084 -2.58079 0
M  V30 2706 H 270.514 -2.7291 -1.23127 0
M  V30 2707 H 268.06 -1.31319 -0.590883 0
M  V30 2708 H 270.013 -2.18092 -3.60575 0
M  V30 2709 H 268.737 -1.04897 -3.09296 0
M  V30 2710 H 267.396 -2.96477 -2.15631 0
M  V30 2711 H 267.044 -2.2149 -4.5161 0
M  V30 2712 H 266.744 -3.962 -4.33934 0
M  V30 2713 H 268.268 -3.39193 -5.07721 0
M  V30 2714 H 269.682 -4.72899 -3.24098 0
M  V30 2715 H 268.079 -5.33987 -2.7382 0
M  V30 2716 H 269.149 -4.60006 -1.53372 0
M  V30 2717 N 270.492 0.636531 -1.44174 0
M  V30 2718 C 271.74 1.39343 -1.46383 0
M  V30 2719 C 272.061 1.94766 -0.0955715 0
M  V30 2720 O 271.331 1.75452 0.871395 0
M  V30 2721 H 269.911 0.517199 -0.538994 0
M  V30 2722 H 272.573 0.74957 -1.7991 0
M  V30 2723 H 271.669 2.22746 -2.18611 0
M  V30 2724 N 271.97 1.30982 0.876444 0
M  V30 2725 C 272.933 1.18054 1.96459 0
M  V30 2726 C 273.933 0.109399 1.60427 0
M  V30 2727 O 275.123 0.358173 1.70478 0
M  V30 2728 C 272.255 0.810616 3.31122 0
M  V30 2729 H 273.448 2.14735 2.09354 0
M  V30 2730 H 271.001 1.145 1.06392 0
M  V30 2731 H 271.736 -0.155322 3.23928 0
M  V30 2732 H 271.521 1.58481 3.58645 0
M  V30 2733 H 273.011 0.743876 4.10921 0
M  V30 2734 N 273.449 -1.08991 1.13837 0
M  V30 2735 C 274.697 -1.80899 0.901098 0
M  V30 2736 C 275.018 -1.86356 -0.574134 0
M  V30 2737 O 274.288 -1.35235 -1.41733 0
M  V30 2738 H 272.868 -0.669966 0.330386 0
M  V30 2739 H 275.53 -1.318 1.43578 0
M  V30 2740 H 274.626 -2.83929 1.29578 0
M  V30 2741 N 274.927 -0.932562 -1.27047 0
M  V30 2742 C 275.837 -0.441219 -2.30414 0
M  V30 2743 C 276.853 0.480525 -1.67233 0
M  V30 2744 O 278.029 0.362151 -1.98117 0
M  V30 2745 C 275.094 0.293651 -3.45454 0
M  V30 2746 C 274.155 -0.663601 -4.2414 0
M  V30 2747 C 273.388 0.0362932 -5.33688 0
M  V30 2748 O 273.611 1.2548 -5.56427 0
M  V30 2749 O 272.545 -0.638015 -5.98509 0
M  V30 2750 H 276.371 -1.29962 -2.74488 0
M  V30 2751 H 273.956 -0.6981 -1.32087 0
M  V30 2752 H 275.838 0.707951 -4.15411 0
M  V30 2753 H 274.513 1.12758 -3.03426 0
M  V30 2754 H 273.42 -1.12768 -3.56699 0
M  V30 2755 H 274.753 -1.46489 -4.69896 0
M  V30 2756 N 276.405 1.4127 -0.698611 0
M  V30 2757 C 277.353 2.32588 -0.023855 0
M  V30 2758 C 278.347 1.51128 0.765292 0
M  V30 2759 O 279.553 1.67043 0.670571 0
M  V30 2760 H 275.928 0.751918 0.0110871 0
M  V30 2761 H 277.899 2.87167 -0.811031 0
M  V30 2762 C 276.648 3.35947 0.896369 0
M  V30 2763 H 275.971 3.98684 0.298548 0
M  V30 2764 H 277.411 4.02376 1.33676 0
M  V30 2765 C 275.87 2.70076 2.01396 0
M  V30 2766 O 276.4 2.55093 3.10307 0
M  V30 2767 N 274.606 2.28724 1.79259 0
M  V30 2768 H 274.153 2.4111 0.906841 0
M  V30 2769 H 274.111 1.84986 2.54219 0
M  V30 2770 N 277.883 0.443576 1.51229 0
M  V30 2771 C 279.111 -0.11929 2.06556 0
M  V30 2772 C 279.526 -1.35921 1.31038 0
M  V30 2773 O 278.883 -1.78675 0.371704 0
M  V30 2774 C 278.934 -0.435228 3.5887 0
M  V30 2775 O 278.655 0.755486 4.31537 0
M  V30 2776 C 280.156 -1.04808 4.30732 0
M  V30 2777 H 277.376 -0.0051584 0.67098 0
M  V30 2778 H 279.92 0.624453 1.94733 0
M  V30 2779 H 278.075 -1.12887 3.70588 0
M  V30 2780 H 278.489 0.483491 5.22267 0
M  V30 2781 H 279.963 -1.2191 5.3837 0
M  V30 2782 H 280.44 -2.03081 3.89429 0
M  V30 2783 H 281.046 -0.393637 4.23474 0
M  V30 2784 N 279.361 -1.56624 0.175154 0
M  V30 2785 C 280.308 -2.18149 -0.753634 0
M  V30 2786 C 281.278 -1.12265 -1.22417 0
M  V30 2787 O 282.463 -1.40432 -1.29165 0
M  V30 2788 C 279.603 -2.82933 -1.97592 0
M  V30 2789 C 278.716 -4.03289 -1.5486 0
M  V30 2790 C 277.851 -4.55988 -2.72485 0
M  V30 2791 C 276.89 -5.68746 -2.26262 0
M  V30 2792 N 276.027 -6.15938 -3.36994 0
M  V30 2793 H 280.867 -2.9717 -0.222195 0
M  V30 2794 H 278.404 -1.46774 -0.0979422 0
M  V30 2795 H 280.362 -3.18653 -2.69288 0
M  V30 2796 H 278.992 -2.06509 -2.481 0
M  V30 2797 H 278.044 -3.73364 -0.728246 0
M  V30 2798 H 279.356 -4.849 -1.16933 0
M  V30 2799 H 278.51 -4.9391 -3.52332 0
M  V30 2800 H 277.249 -3.73443 -3.13674 0
M  V30 2801 H 276.254 -5.30372 -1.44863 0
M  V30 2802 H 277.479 -6.53095 -1.86127 0
M  V30 2803 H 275.425 -5.36321 -3.77751 0
M  V30 2804 H 275.342 -6.92548 -3.03172 0
M  V30 2805 H 276.61 -6.58511 -4.17114 0
M  V30 2806 N 280.839 0.0985539 -1.57292 0
M  V30 2807 C 282.067 0.816318 -1.90115 0
M  V30 2808 C 282.482 1.72451 -0.768509 0
M  V30 2809 O 281.839 1.80643 0.259687 0
M  V30 2810 C 281.89 1.63259 -3.22535 0
M  V30 2811 O 281.611 0.760934 -4.31441 0
M  V30 2812 C 283.112 2.45372 -3.69199 0
M  V30 2813 H 280.332 0.233595 -0.629027 0
M  V30 2814 H 282.876 0.0768229 -2.04356 0
M  V30 2815 H 281.031 2.32463 -3.09903 0
M  V30 2816 H 281.445 1.32595 -5.07463 0
M  V30 2817 H 282.919 2.98144 -4.64558 0
M  V30 2818 H 283.396 3.23677 -2.96867 0
M  V30 2819 H 284.002 1.81373 -3.84687 0
M  V30 2820 N 282.317 1.53212 0.369288 0
M  V30 2821 C 283.265 1.80054 1.47253 0
M  V30 2822 C 284.259 0.669456 1.55611 0
M  V30 2823 O 285.465 0.852328 1.58541 0
M  V30 2824 H 281.84 0.570034 0.490475 0
M  V30 2825 H 283.811 2.72403 1.21817 0
M  V30 2826 C 282.56 2.00403 2.84137 0
M  V30 2827 H 281.883 2.86876 2.78464 0
M  V30 2828 H 283.323 2.23164 3.60519 0
M  V30 2829 C 281.782 0.782081 3.27697 0
M  V30 2830 O 282.312 -0.0310205 4.01688 0
M  V30 2831 N 280.518 0.606573 2.84199 0
M  V30 2832 H 280.065 1.26939 2.24152 0
M  V30 2833 H 280.023 -0.20962 3.137 0
M  V30 2834 N 283.795 -0.628877 1.44509 0
M  V30 2835 C 284.725 -1.75187 1.54376 0
M  V30 2836 C 285.706 -1.65411 0.396618 0
M  V30 2837 O 286.891 -1.84137 0.617031 0
M  V30 2838 C 284.021 -3.13725 1.48976 0
M  V30 2839 C 282.975 -3.38291 2.62189 0
M  V30 2840 C 282.301 -4.76883 2.41841 0
M  V30 2841 C 283.601 -3.30632 4.04326 0
M  V30 2842 H 285.295 -1.67187 2.48373 0
M  V30 2843 H 282.841 -0.802909 1.19538 0
M  V30 2844 H 284.794 -3.92064 1.54478 0
M  V30 2845 H 283.518 -3.22515 0.514961 0
M  V30 2846 H 282.177 -2.62334 2.56079 0
M  V30 2847 H 281.825 -4.82378 1.42548 0
M  V30 2848 H 281.525 -4.94278 3.17747 0
M  V30 2849 H 283.049 -5.57449 2.49165 0
M  V30 2850 H 284.463 -3.98873 4.11793 0
M  V30 2851 H 282.86 -3.59561 4.80454 0
M  V30 2852 H 283.93 -2.28404 4.27738 0
M  V30 2853 N 285.273 -1.31445 -0.869486 0
M  V30 2854 C 286.183 -1.21097 -2.0093 0
M  V30 2855 C 287.199 -0.127584 -1.73532 0
M  V30 2856 O 288.375 -0.345477 -1.98415 0
M  V30 2857 C 285.44 -0.919378 -3.34288 0
M  V30 2858 C 284.501 -2.08971 -3.75006 0
M  V30 2859 C 283.734 -1.81194 -5.02001 0
M  V30 2860 O 283.957 -0.747296 -5.65484 0
M  V30 2861 O 282.891 -2.66883 -5.39497 0
M  V30 2862 H 286.717 -2.16883 -2.12592 0
M  V30 2863 H 284.302 -1.11189 -0.997868 0
M  V30 2864 H 286.184 -0.772625 -4.14257 0
M  V30 2865 H 284.859 0.00844772 -3.23699 0
M  V30 2866 H 283.766 -2.29187 -2.95676 0
M  V30 2867 H 285.099 -2.9998 -3.90221 0
M  V30 2868 N 286.751 1.08385 -1.14413 0
M  V30 2869 C 287.976 1.85057 -0.936413 0
M  V30 2870 C 288.401 1.81055 0.509971 0
M  V30 2871 O 287.759 1.1958 1.36273 0
M  V30 2872 C 287.807 3.30505 -1.44217 0
M  V30 2873 O 286.911 4.07491 -0.634409 0
M  V30 2874 H 286.252 0.573425 -0.334784 0
M  V30 2875 H 288.782 1.36799 -1.52142 0
M  V30 2876 H 288.792 3.81348 -1.45043 0
M  V30 2877 H 287.467 3.32734 -2.49522 0
M  V30 2878 H 286.044 3.66368 -0.694902 0
M  V30 2879 N 288.23 0.939286 1.26551 0
M  V30 2880 C 289.479 0.581601 1.93133 0
M  V30 2881 C 289.792 -0.883224 1.74524 0
M  V30 2882 O 290.998 -1.3502 2.35546 0
M  V30 2883 C 289.454 0.989425 3.46032 0
M  V30 2884 C 289.062 2.47573 3.73379 0
M  V30 2885 C 290.806 0.703544 4.18629 0
M  V30 2886 C 288.713 2.82235 5.19709 0
M  V30 2887 H 287.643 0.213803 0.723052 0
M  V30 2888 H 290.294 1.14167 1.4366 0
M  V30 2889 H 288.676 0.357902 3.94379 0
M  V30 2890 H 289.85 3.15614 3.35744 0
M  V30 2891 H 288.165 2.73471 3.1401 0
M  V30 2892 H 290.762 0.938869 5.26393 0
M  V30 2893 H 291.105 -0.359639 4.14744 0
M  V30 2894 H 291.638 1.2947 3.76141 0
M  V30 2895 H 288.377 3.87509 5.28694 0
M  V30 2896 H 287.897 2.18854 5.58447 0
M  V30 2897 H 289.576 2.70599 5.87695 0
M  V30 2898 N 289.708 -1.40897 0.706093 0
M  V30 2899 C 290.638 -2.33418 0.0620085 0
M  V30 2900 C 291.619 -1.52385 -0.755827 0
M  V30 2901 O 292.804 -1.80886 -0.706674 0
M  V30 2902 C 289.934 -3.36293 -0.867445 0
M  V30 2903 C 288.888 -4.27716 -0.155932 0
M  V30 2904 C 288.214 -5.2105 -1.20046 0
M  V30 2905 C 289.514 -5.12944 0.984149 0
M  V30 2906 H 291.208 -2.87527 0.83477 0
M  V30 2907 H 288.754 -1.38249 0.402875 0
M  V30 2908 H 290.707 -3.99949 -1.32735 0
M  V30 2909 H 289.431 -2.80556 -1.67199 0
M  V30 2910 H 288.09 -3.65498 0.284047 0
M  V30 2911 H 287.738 -4.61624 -1.99781 0
M  V30 2912 H 287.438 -5.83056 -0.729328 0
M  V30 2913 H 288.962 -5.87584 -1.66066 0
M  V30 2914 H 290.376 -5.70109 0.604048 0
M  V30 2915 H 288.773 -5.83945 1.38304 0
M  V30 2916 H 289.843 -4.49485 1.81911 0
M  V30 2917 N 291.186 -0.45159 -1.50991 0
M  V30 2918 C 292.411 0.110667 -2.07105 0
M  V30 2919 C 292.836 1.3446 -1.31538 0
M  V30 2920 O 292.194 1.77743 -0.357365 0
M  V30 2921 C 292.242 0.397238 -3.58405 0
M  V30 2922 O 291.346 1.48124 -3.84881 0
M  V30 2923 H 290.687 -0.00439271 -0.663985 0
M  V30 2924 H 293.217 -0.637026 -1.9443 0
M  V30 2925 H 293.227 0.64351 -4.02893 0
M  V30 2926 H 291.902 -0.504553 -4.12828 0
M  V30 2927 H 290.479 1.22381 -3.52246 0
M  V30 2928 N 292.664 1.56529 -0.183458 0
M  V30 2929 C 293.894 2.01331 0.463612 0
M  V30 2930 C 294.302 1.06278 1.5653 0
M  V30 2931 O 293.645 0.0577976 1.83609 0
M  V30 2932 C 293.707 3.42547 1.09096 0
M  V30 2933 C 293.371 4.56817 0.129442 0
M  V30 2934 C 294.368 5.15734 -0.656807 0
M  V30 2935 C 292.053 5.02295 0.02174 0
M  V30 2936 C 294.047 6.1857 -1.53784 0
M  V30 2937 C 291.734 6.04978 -0.862864 0
M  V30 2938 C 292.732 6.62988 -1.64123 0
M  V30 2939 O 292.42 7.63677 -2.51103 0
M  V30 2940 H 292.152 0.664917 0.121907 0
M  V30 2941 H 294.706 2.034 -0.285954 0
M  V30 2942 H 292.936 3.37428 1.88889 0
M  V30 2943 H 294.625 3.71228 1.64148 0
M  V30 2944 H 295.391 4.81473 -0.583839 0
M  V30 2945 H 291.27 4.56847 0.617392 0
M  V30 2946 H 294.814 6.63777 -2.14583 0
M  V30 2947 H 290.711 6.38663 -0.93699 0
M  V30 2948 H 291.479 7.81049 -2.44753 0
M  V30 2949 N 294.142 -0.090211 1.57342 0
M  V30 2950 C 295.553 -0.644173 1.75235 0
M  V30 2951 C 295.904 -1.78865 0.806335 0
M  V30 2952 O 295.029 -2.16395 -0.0140128 0
M  V30 2953 C 295.624 -1.17532 3.1776 0
M  V30 2954 C 294.183 -1.67531 3.37061 0
M  V30 2955 C 293.33 -0.58693 2.71017 0
M  V30 2956 H 296.281 0.135884 1.58117 0
M  V30 2957 H 296.302 -2.04455 3.20902 0
M  V30 2958 H 295.814 -0.342138 3.86589 0
M  V30 2959 H 293.915 -2.53234 2.73319 0
M  V30 2960 H 294.028 -1.76493 4.45406 0
M  V30 2961 H 292.392 -1.02756 2.33052 0
M  V30 2962 H 293.175 0.235758 3.4249 0
M  V30 2963 N 295.62 -1.53406 -0.361157 0
M  V30 2964 C 296.567 -1.80156 -1.44265 0
M  V30 2965 C 297.537 -0.646183 -1.53015 0
M  V30 2966 O 298.722 -0.888818 -1.68833 0
M  V30 2967 C 295.862 -2.00116 -2.81154 0
M  V30 2968 C 294.975 -3.27833 -2.81335 0
M  V30 2969 C 294.11 -3.37957 -4.09828 0
M  V30 2970 C 293.149 -4.59689 -4.04168 0
M  V30 2971 N 292.286 -4.66942 -5.24318 0
M  V30 2972 H 297.126 -2.72438 -1.20754 0
M  V30 2973 H 294.663 -1.34954 -0.585296 0
M  V30 2974 H 296.621 -2.09677 -3.60682 0
M  V30 2975 H 295.251 -1.11167 -3.03054 0
M  V30 2976 H 294.303 -3.27204 -1.94014 0
M  V30 2977 H 295.615 -4.17442 -2.73027 0
M  V30 2978 H 294.769 -3.46853 -4.97773 0
M  V30 2979 H 293.508 -2.46372 -4.20894 0
M  V30 2980 H 292.513 -4.50889 -3.14609 0
M  V30 2981 H 293.738 -5.5262 -3.947 0
M  V30 2982 H 291.684 -3.7826 -5.35962 0
M  V30 2983 H 291.601 -5.50462 -5.18197 0
M  V30 2984 H 292.869 -4.80127 -6.14084 0
M  V30 2985 N 297.098 0.621204 -1.44841 0
M  V30 2986 C 298.375 1.38 -1.38619 0
M  V30 2987 C 298.755 2.11041 -0.0498935 0
M  V30 2988 O 298.103 2.06992 0.967816 0
M  V30 2989 C 298.313 2.33817 -2.59096 0
M  V30 2990 C 299.661 2.96844 -3.03593 0
M  V30 2991 O 300.685 2.44141 -2.59371 0
M  V30 2992 O 299.544 3.92476 -3.80296 0
M  V30 2993 H 296.638 0.61811 -0.549426 0
M  V30 2994 H 299.184 0.645429 -1.56947 0
M  V30 2995 H 297.956 1.79012 -3.47952 0
M  V30 2996 H 297.579 3.14676 -2.43032 0
M  V30 2997 N 298.576 1.31904 0.862503 0
M  V30 2998 C 299.823 1.22017 1.61611 0
M  V30 2999 C 300.151 -0.21991 1.93253 0
M  V30 3000 O 299.406 -1.17076 1.56817 0
M  V30 3001 C 299.705 2.01713 2.95037 0
M  V30 3002 C 299.371 3.51145 2.82857 0
M  V30 3003 C 298.033 3.91889 2.79243 0
M  V30 3004 C 300.385 4.46204 2.69353 0
M  V30 3005 C 297.713 5.25947 2.59993 0
M  V30 3006 C 300.065 5.80397 2.5164 0
M  V30 3007 C 298.729 6.20352 2.46413 0
M  V30 3008 H 297.999 0.44649 0.591378 0
M  V30 3009 H 300.646 1.63248 1.00111 0
M  V30 3010 H 298.951 1.53185 3.60613 0
M  V30 3011 H 300.648 1.91437 3.52353 0
M  V30 3012 H 297.238 3.1878 2.86491 0
M  V30 3013 H 301.422 4.15652 2.71196 0
M  V30 3014 H 296.678 5.5597 2.54376 0
M  V30 3015 H 300.852 6.53676 2.40169 0
M  V30 3016 H 298.479 7.24172 2.31256 0
M  V30 3017 N 300.054 -1.07777 1.14986 0
M  V30 3018 C 301.282 -1.84018 0.945773 0
M  V30 3019 C 301.697 -1.81897 -0.505863 0
M  V30 3020 O 301.054 -1.22726 -1.35072 0
M  V30 3021 C 301.105 -3.31287 1.44677 0
M  V30 3022 O 300.826 -3.33449 2.84154 0
M  V30 3023 C 302.327 -4.24311 1.28355 0
M  V30 3024 H 299.547 -0.580716 0.336169 0
M  V30 3025 H 302.091 -1.36077 1.52654 0
M  V30 3026 H 300.246 -3.76594 0.908625 0
M  V30 3027 H 300.66 -4.25427 3.06777 0
M  V30 3028 H 302.134 -5.2573 1.68261 0
M  V30 3029 H 302.611 -4.38612 0.227184 0
M  V30 3030 H 303.217 -3.84836 1.81056 0
M  V30 3031 N 301.532 -0.945985 -1.26051 0
M  V30 3032 C 302.772 -0.603665 -1.95282 0
M  V30 3033 C 303.136 0.842377 -1.72534 0
M  V30 3034 O 304.337 1.29387 -2.35611 0
M  V30 3035 C 302.608 -0.942292 -3.44754 0
M  V30 3036 S 304.167 -0.711242 -4.32997 0
M  V30 3037 H 300.985 -0.222176 -0.675395 0
M  V30 3038 H 303.587 -1.21832 -1.52896 0
M  V30 3039 H 302.291 -1.99203 -3.58812 0
M  V30 3040 H 301.822 -0.317546 -3.92116 0
M  V30 3041 H 303.837 0.422221 -4.944 0
M  V30 3042 N 303.011 1.40521 -0.713556 0
M  V30 3043 C 304.257 2.01221 -0.252564 0
M  V30 3044 C 304.59 1.56444 1.1506 0
M  V30 3045 O 303.865 0.783597 1.78017 0
M  V30 3046 C 304.148 3.58582 -0.330332 0
M  V30 3047 C 304.001 4.13437 -1.77173 0
M  V30 3048 C 305.32 4.39079 0.299641 0
M  V30 3049 H 302.439 0.731077 -0.0932471 0
M  V30 3050 H 305.081 1.67026 -0.905673 0
M  V30 3051 H 303.231 3.87844 0.225737 0
M  V30 3052 H 304.903 3.9498 -2.38303 0
M  V30 3053 H 303.146 3.67801 -2.3001 0
M  V30 3054 H 303.817 5.22597 -1.77755 0
M  V30 3055 H 306.293 4.15735 -0.174139 0
M  V30 3056 H 305.169 5.4848 0.214771 0
M  V30 3057 H 305.43 4.19915 1.38288 0
M  V30 3058 N 304.489 0.459591 1.5075 0
M  V30 3059 C 305.439 -0.358926 2.25157 0
M  V30 3060 C 306.423 -0.971285 1.28276 0
M  V30 3061 O 307.615 -0.885739 1.53244 0
M  V30 3062 C 304.744 -1.44695 3.11317 0
M  V30 3063 C 303.83 -0.842894 4.15639 0
M  V30 3064 N 304.221 0.0299373 5.05791 0
M  V30 3065 C 302.519 -1.10809 4.32015 0
M  V30 3066 C 303.22 0.371563 5.80512 0
M  V30 3067 N 302.196 -0.250409 5.43023 0
M  V30 3068 H 305.998 0.313636 2.92222 0
M  V30 3069 H 303.512 0.273021 1.60089 0
M  V30 3070 H 305.509 -2.04641 3.63218 0
M  V30 3071 H 304.169 -2.12162 2.45799 0
M  V30 3072 H 305.18 0.39797 5.16369 0
M  V30 3073 H 301.857 -1.7786 3.77719 0
M  V30 3074 H 303.247 1.08319 6.63111 0
M  V30 3075 N 305.967 -1.56429 0.191757 0
M  V30 3076 C 306.899 -2.16154 -0.762245 0
M  V30 3077 C 307.912 -1.12247 -1.17917 0
M  V30 3078 O 309.101 -1.39353 -1.11548 0
M  V30 3079 C 306.201 -2.70606 -2.04024 0
M  V30 3080 C 305.374 -3.99381 -1.78364 0
M  V30 3081 C 304.433 -4.38692 -2.90578 0
M  V30 3082 O 303.459 -5.06179 -2.6033 0
M  V30 3083 N 304.661 -4.01922 -4.18854 0
M  V30 3084 H 307.426 -2.98643 -0.251526 0
M  V30 3085 H 304.987 -1.61897 0.00967373 0
M  V30 3086 H 306.979 -2.93891 -2.78227 0
M  V30 3087 H 305.549 -1.9259 -2.46227 0
M  V30 3088 H 304.769 -3.84262 -0.879581 0
M  V30 3089 H 306.057 -4.83445 -1.58614 0
M  V30 3090 H 305.455 -3.47631 -4.46283 0
M  V30 3091 H 304.012 -4.30165 -4.89695 0
M  V30 3092 N 307.445 0.0818655 -1.57387 0
M  V30 3093 C 308.408 1.08265 -2.02018 0
M  V30 3094 C 309.408 1.32183 -0.915664 0
M  V30 3095 O 310.598 1.28073 -1.18081 0
M  V30 3096 C 307.73 2.42871 -2.39221 0
M  V30 3097 H 308.923 0.698204 -2.91659 0
M  V30 3098 H 306.476 0.327303 -1.52835 0
M  V30 3099 H 307.211 2.86167 -1.52575 0
M  V30 3100 H 306.996 2.26855 -3.19811 0
M  V30 3101 H 308.486 3.14826 -2.74362 0
M  V30 3102 N 308.923 1.53595 0.353017 0
M  V30 3103 C 309.853 1.83902 1.43883 0
M  V30 3104 C 310.834 0.693421 1.55324 0
M  V30 3105 O 312.019 0.944452 1.69687 0
M  V30 3106 C 309.149 2.04016 2.8106 0
M  V30 3107 C 308.103 3.19814 2.84434 0
M  V30 3108 C 307.429 3.25244 4.24406 0
M  V30 3109 C 308.729 4.58133 2.50822 0
M  V30 3110 H 310.423 2.74835 1.1877 0
M  V30 3111 H 307.969 1.32242 0.569917 0
M  V30 3112 H 309.922 2.238 3.57059 0
M  V30 3113 H 308.646 1.09804 3.07588 0
M  V30 3114 H 307.305 2.9987 2.10887 0
M  V30 3115 H 306.953 2.28646 4.48029 0
M  V30 3116 H 306.653 4.03054 4.27576 0
M  V30 3117 H 308.177 3.47228 5.0226 0
M  V30 3118 H 309.591 4.77995 3.16534 0
M  V30 3119 H 307.988 5.38276 2.6529 0
M  V30 3120 H 309.058 4.62387 1.46034 0
M  V30 3121 N 310.401 -0.613514 1.45168 0
M  V30 3122 C 311.348 -1.72456 1.53387 0
M  V30 3123 C 312.318 -1.6169 0.380191 0
M  V30 3124 O 313.503 -1.81356 0.592836 0
M  V30 3125 C 310.643 -3.10753 1.50088 0
M  V30 3126 C 309.756 -3.32368 2.75963 0
M  V30 3127 C 308.891 -4.60737 2.64376 0
M  V30 3128 C 307.93 -4.7559 3.85332 0
M  V30 3129 N 307.067 -5.95253 3.72315 0
M  V30 3130 H 311.907 -1.64768 2.48305 0
M  V30 3131 H 309.444 -0.803503 1.23216 0
M  V30 3132 H 311.402 -3.90758 1.46164 0
M  V30 3133 H 310.032 -3.17413 0.587243 0
M  V30 3134 H 309.084 -2.4618 2.89999 0
M  V30 3135 H 310.396 -3.39218 3.65695 0
M  V30 3136 H 309.55 -5.48928 2.58385 0
M  V30 3137 H 308.289 -4.56275 1.72233 0
M  V30 3138 H 307.294 -3.85824 3.91688 0
M  V30 3139 H 308.519 -4.81854 4.78533 0
M  V30 3140 H 306.465 -5.91847 2.82937 0
M  V30 3141 H 306.382 -6.03236 4.55677 0
M  V30 3142 H 307.65 -6.85958 3.70246 0
M  V30 3143 N 311.879 -1.3236 -0.855495 0
M  V30 3144 C 313.127 -1.22629 -1.60644 0
M  V30 3145 C 313.448 0.212136 -1.93843 0
M  V30 3146 O 312.718 1.13666 -1.59552 0
M  V30 3147 H 311.298 -0.450882 -0.595579 0
M  V30 3148 H 313.96 -1.65871 -1.02337 0
M  V30 3149 H 313.056 -1.80832 -2.54374 0
M  V30 3150 N 313.357 1.07166 -1.15556 0
M  V30 3151 C 314.604 1.79798 -0.931604 0
M  V30 3152 C 314.932 1.8682 0.54115 0
M  V30 3153 O 314.187 1.34942 1.41736 0
M  V30 3154 C 314.486 3.24707 -1.49332 0
M  V30 3155 C 314.152 3.37781 -2.98688 0
M  V30 3156 C 312.814 3.41057 -3.39461 0
M  V30 3157 C 315.166 3.40424 -3.94665 0
M  V30 3158 C 312.494 3.4458 -4.74849 0
M  V30 3159 C 314.846 3.45485 -5.29927 0
M  V30 3160 C 313.51 3.47039 -5.70193 0
M  V30 3161 H 312.78 0.657928 -0.340898 0
M  V30 3162 H 315.427 1.26091 -1.44129 0
M  V30 3163 H 313.732 3.81208 -0.904859 0
M  V30 3164 H 315.429 3.79486 -1.29582 0
M  V30 3165 H 312.019 3.35932 -2.66172 0
M  V30 3166 H 316.203 3.37113 -3.64237 0
M  V30 3167 H 311.459 3.44083 -5.05388 0
M  V30 3168 H 315.633 3.46476 -6.04092 0
M  V30 3169 H 313.26 3.49522 -6.75084 0
M  V30 3170 N 314.835 0.952656 1.25548 0
M  V30 3171 C 316.063 0.623496 1.97282 0
M  V30 3172 C 316.478 -0.803987 1.70826 0
M  V30 3173 O 315.835 -1.53755 0.983147 0
M  V30 3174 C 315.886 0.870209 3.5087 0
M  V30 3175 O 315.607 2.24156 3.76412 0
M  V30 3176 C 317.108 0.553164 4.39835 0
M  V30 3177 H 314.328 0.233931 0.628902 0
M  V30 3178 H 316.872 1.27649 1.59768 0
M  V30 3179 H 315.027 0.263652 3.86502 0
M  V30 3180 H 315.441 2.31021 4.70882 0
M  V30 3181 H 316.915 0.776342 5.46513 0
M  V30 3182 H 317.392 -0.512215 4.36203 0
M  V30 3183 H 317.998 1.13896 4.09766 0
M  V30 3184 N 316.313 -1.40141 0.720998 0
M  V30 3185 C 317.541 -2.05096 0.272656 0
M  V30 3186 C 317.956 -1.54334 -1.0875 0
M  V30 3187 O 317.313 -0.702211 -1.6845 0
M  V30 3188 C 317.364 -3.60636 0.249835 0
M  V30 3189 O 317.085 -4.09526 1.55629 0
M  V30 3190 C 318.586 -4.42772 -0.216396 0
M  V30 3191 H 315.806 -0.659897 0.121558 0
M  V30 3192 H 318.35 -1.79449 0.980723 0
M  V30 3193 H 316.505 -3.85232 -0.409237 0
M  V30 3194 H 316.919 -5.03758 1.4604 0
M  V30 3195 H 318.393 -5.51702 -0.181212 0
M  V30 3196 H 318.87 -4.20756 -1.25941 0
M  V30 3197 H 319.476 -4.23294 0.412596 0
M  V30 3198 N 317.792 -0.46758 -1.50504 0
M  V30 3199 C 318.739 0.328413 -2.28452 0
M  V30 3200 C 319.709 0.990313 -1.33349 0
M  V30 3201 O 320.894 1.00343 -1.62284 0
M  V30 3202 C 318.034 1.40648 -3.15138 0
M  V30 3203 C 317.147 0.759709 -4.25267 0
M  V30 3204 C 316.282 1.81537 -4.99217 0
M  V30 3205 C 315.321 1.14866 -6.01226 0
M  V30 3206 N 314.458 2.14702 -6.68467 0
M  V30 3207 H 319.298 -0.342603 -2.96024 0
M  V30 3208 H 316.835 -0.180801 -1.45985 0
M  V30 3209 H 318.793 2.04315 -3.63746 0
M  V30 3210 H 317.423 2.04671 -2.49619 0
M  V30 3211 H 316.475 0.0105671 -3.80399 0
M  V30 3212 H 317.787 0.233243 -4.98254 0
M  V30 3213 H 316.941 2.52793 -5.51526 0
M  V30 3214 H 315.68 2.37564 -4.25928 0
M  V30 3215 H 314.685 0.42171 -5.4818 0
M  V30 3216 H 315.91 0.595334 -6.76485 0
M  V30 3217 H 313.856 2.69752 -5.97972 0
M  V30 3218 H 313.773 1.6703 -7.37317 0
M  V30 3219 H 315.041 2.85348 -7.25394 0
M  V30 3220 N 319.27 1.56325 -0.20005 0
M  V30 3221 C 320.518 1.97329 0.436547 0
M  V30 3222 C 320.839 1.08826 1.61808 0
M  V30 3223 O 320.109 0.160604 1.95241 0
M  V30 3224 H 318.689 0.728714 0.164272 0
M  V30 3225 H 321.351 1.92761 -0.287937 0
M  V30 3226 H 320.447 3.02264 0.777353 0
M  V30 3227 N 320.748 -0.0735177 1.57428 0
M  V30 3228 C 321.994 -0.774145 1.87443 0
M  V30 3229 C 322.327 -1.77311 0.792103 0
M  V30 3230 O 321.602 -1.93492 -0.197793 0
M  V30 3231 C 321.885 -1.48367 3.28115 0
M  V30 3232 C 321.738 -0.501227 4.46999 0
M  V30 3233 C 323.057 -2.429 3.66998 0
M  V30 3234 H 320.176 -0.279971 0.681752 0
M  V30 3235 H 322.818 -0.0373616 1.89963 0
M  V30 3236 H 320.968 -2.11171 3.26097 0
M  V30 3237 H 322.64 0.121468 4.6114 0
M  V30 3238 H 320.883 0.183593 4.33411 0
M  V30 3239 H 321.554 -1.03526 5.42205 0
M  V30 3240 H 324.03 -1.90175 3.70098 0
M  V30 3241 H 322.906 -2.89549 4.66318 0
M  V30 3242 H 323.167 -3.27628 2.96837 0
M  V30 3243 N 322.226 -1.5378 -0.344866 0
M  V30 3244 C 323.454 -1.74899 -1.10534 0
M  V30 3245 C 323.869 -0.487534 -1.82397 0
M  V30 3246 O 323.226 0.540741 -1.74305 0
M  V30 3247 C 323.277 -2.92822 -2.11984 0
M  V30 3248 O 322.998 -4.14089 -1.43044 0
M  V30 3249 C 324.499 -3.25982 -3.00417 0
M  V30 3250 H 321.719 -0.584426 -0.329678 0
M  V30 3251 H 324.263 -2.006 -0.397474 0
M  V30 3252 H 322.418 -2.69457 -2.78338 0
M  V30 3253 H 322.832 -4.80272 -2.10805 0
M  V30 3254 H 324.306 -4.11848 -3.67539 0
M  V30 3255 H 324.783 -2.42228 -3.66363 0
M  V30 3256 H 325.389 -3.51349 -2.39654 0
M  V30 3257 N 323.704 0.605807 -1.45491 0
M  V30 3258 C 324.929 1.39625 -1.53361 0
M  V30 3259 C 325.354 1.87351 -0.167645 0
M  V30 3260 O 324.712 1.60243 0.848051 0
M  V30 3261 C 324.76 2.57559 -2.5238 0
M  V30 3262 O 323.864 3.58248 -2.04285 0
M  V30 3263 H 323.205 0.416771 -0.516912 0
M  V30 3264 H 325.735 0.737103 -1.90861 0
M  V30 3265 H 325.745 3.0478 -2.71244 0
M  V30 3266 H 324.42 2.22171 -3.51586 0
M  V30 3267 H 322.997 3.17664 -1.95305 0
M  V30 3268 N 325.182 1.32811 0.848464 0
M  V30 3269 C 326.428 1.23907 1.60546 0
M  V30 3270 C 326.761 -0.197161 1.93197 0
M  V30 3271 O 326.036 -1.13596 1.5788 0
M  V30 3272 C 326.319 2.10489 2.92175 0
M  V30 3273 C 326.172 3.62522 2.66266 0
M  V30 3274 C 327.491 1.97075 3.93509 0
M  V30 3275 H 324.61 0.451459 0.58254 0
M  V30 3276 H 327.252 1.62818 0.979296 0
M  V30 3277 H 325.402 1.77434 3.45614 0
M  V30 3278 H 327.074 4.05821 2.19334 0
M  V30 3279 H 325.317 3.84879 2.00126 0
M  V30 3280 H 325.988 4.18437 3.6002 0
M  V30 3281 H 328.464 2.26045 3.49346 0
M  V30 3282 H 327.34 2.59923 4.83457 0
M  V30 3283 H 327.601 0.940186 4.31987 0
M  V30 3284 N 326.66 -1.06551 1.16123 0
M  V30 3285 C 327.885 -1.83544 0.965735 0
M  V30 3286 C 328.31 -1.81843 -0.481102 0
M  V30 3287 O 327.668 -1.21732 -1.34354 0
M  V30 3288 C 327.716 -3.28169 1.49457 0
M  V30 3289 O 326.82 -4.0643 0.699157 0
M  V30 3290 H 326.161 -0.568026 0.343864 0
M  V30 3291 H 328.691 -1.34362 1.54299 0
M  V30 3292 H 328.701 -3.78992 1.51092 0
M  V30 3293 H 327.376 -3.28722 2.54784 0
M  V30 3294 H 325.953 -3.65216 0.7531 0
M  V30 3295 N 328.138 -0.959301 -1.25041 0
M  V30 3296 C 329.07 -0.440543 -2.24926 0
M  V30 3297 C 330.083 0.446131 -1.56568 0
M  V30 3298 O 331.272 0.253657 -1.76689 0
M  V30 3299 C 328.372 0.38412 -3.36716 0
M  V30 3300 C 327.545 -0.490658 -4.34639 0
M  V30 3301 C 326.604 0.276587 -5.25473 0
M  V30 3302 O 325.63 -0.326614 -5.68262 0
M  V30 3303 N 326.832 1.56844 -5.5891 0
M  V30 3304 H 329.597 -1.29931 -2.70071 0
M  V30 3305 H 327.158 -0.830181 -1.38995 0
M  V30 3306 H 329.15 0.905228 -3.94446 0
M  V30 3307 H 327.72 1.14377 -2.90924 0
M  V30 3308 H 326.94 -1.19282 -3.7572 0
M  V30 3309 H 328.228 -1.08756 -4.97041 0
M  V30 3310 H 327.626 2.08036 -5.26059 0
M  V30 3311 H 326.183 2.03541 -6.19205 0
M  V30 3312 N 329.616 1.39756 -0.72842 0
M  V30 3313 C 330.865 1.99879 -0.270407 0
M  V30 3314 C 331.178 1.58449 1.14688 0
M  V30 3315 O 332.384 2.11362 1.70407 0
M  V30 3316 C 330.84 3.57292 -0.43252 0
M  V30 3317 C 330.448 4.07688 -1.85727 0
M  V30 3318 C 332.192 4.24485 -0.0359507 0
M  V30 3319 C 330.099 5.5765 -1.96928 0
M  V30 3320 H 329.029 0.747689 -0.0973472 0
M  V30 3321 H 331.68 1.59837 -0.901355 0
M  V30 3322 H 330.062 3.95097 0.267219 0
M  V30 3323 H 331.236 3.81231 -2.58843 0
M  V30 3324 H 329.551 3.53135 -2.20646 0
M  V30 3325 H 332.148 5.34609 -0.0987484 0
M  V30 3326 H 332.491 4.03915 1.00787 0
M  V30 3327 H 333.024 3.9183 -0.686604 0
M  V30 3328 H 329.763 5.8309 -2.99476 0
M  V30 3329 H 329.283 5.8593 -1.28241 0
M  V30 3330 H 330.962 6.22957 -1.74737 0
M  V30 3331 N 331.094 0.475555 1.50254 0
M  V30 3332 C 332.341 -0.0778919 2.0235 0
M  V30 3333 C 332.669 -1.39319 1.35722 0
M  V30 3334 O 331.924 -1.89888 0.473395 0
M  V30 3335 C 332.223 -0.305114 3.56095 0
M  V30 3336 C 331.889 0.92903 4.41225 0
M  V30 3337 C 330.551 1.26739 4.6421 0
M  V30 3338 C 332.903 1.75054 4.90923 0
M  V30 3339 C 330.231 2.42724 5.34137 0
M  V30 3340 C 332.583 2.9017 5.62125 0
M  V30 3341 C 331.247 3.24416 5.83362 0
M  V30 3342 H 330.517 -0.0285027 0.740452 0
M  V30 3343 H 333.164 0.630543 1.80821 0
M  V30 3344 H 331.469 -1.09584 3.76163 0
M  V30 3345 H 333.166 -0.747377 3.93974 0
M  V30 3346 H 329.756 0.655428 4.23559 0
M  V30 3347 H 333.94 1.50231 4.73016 0
M  V30 3348 H 329.196 2.69525 5.48786 0
M  V30 3349 H 333.37 3.54169 5.99614 0
M  V30 3350 H 330.997 4.14396 6.37323 0
M  V30 3351 N 332.573 -1.56217 0.208337 0
M  V30 3352 C 333.523 -2.16324 -0.720281 0
M  V30 3353 C 334.507 -1.10775 -1.16695 0
M  V30 3354 O 335.699 -1.36801 -1.12314 0
M  V30 3355 C 332.828 -2.83644 -1.93393 0
M  V30 3356 C 331.914 -3.96401 -1.50755 0
M  V30 3357 N 332.305 -4.99546 -0.792937 0
M  V30 3358 C 330.603 -4.08246 -1.79585 0
M  V30 3359 C 331.304 -5.78828 -0.577364 0
M  V30 3360 N 330.28 -5.31723 -1.1301 0
M  V30 3361 H 334.082 -2.93432 -0.165725 0
M  V30 3362 H 331.596 -1.62397 0.00906463 0
M  V30 3363 H 333.593 -3.25107 -2.60981 0
M  V30 3364 H 332.253 -2.08027 -2.49308 0
M  V30 3365 H 333.264 -5.15967 -0.447004 0
M  V30 3366 H 329.941 -3.4377 -2.36915 0
M  V30 3367 H 331.331 -6.71899 -0.00952956 0
M  V30 3368 N 334.051 0.0651679 -1.57465 0
M  V30 3369 C 335.276 0.779605 -1.9219 0
M  V30 3370 C 335.701 1.69988 -0.805333 0
M  V30 3371 O 335.059 1.79685 0.241435 0
M  V30 3372 C 335.107 1.54364 -3.2589 0
M  V30 3373 O 334.211 2.65474 -3.1559 0
M  V30 3374 H 333.552 0.212249 -0.629163 0
M  V30 3375 H 336.082 0.0314294 -2.04576 0
M  V30 3376 H 336.092 1.92146 -3.59922 0
M  V30 3377 H 334.767 0.868457 -4.06732 0
M  V30 3378 H 333.344 2.30501 -2.93128 0
M  V30 3379 N 335.529 1.53961 0.336706 0
M  V30 3380 C 336.94 1.62914 0.911925 0
M  V30 3381 C 337.291 0.514795 1.89326 0
M  V30 3382 O 336.416 -0.354395 2.13478 0
M  V30 3383 C 337.011 2.95304 1.66076 0
M  V30 3384 C 335.57 3.06496 2.18489 0
M  V30 3385 C 334.717 2.58403 1.00613 0
M  V30 3386 H 337.668 1.58285 0.114649 0
M  V30 3387 H 337.689 2.84727 2.5241 0
M  V30 3388 H 337.201 3.76387 0.946276 0
M  V30 3389 H 335.302 2.3006 2.93092 0
M  V30 3390 H 335.415 4.1208 2.44391 0
M  V30 3391 H 333.779 2.13977 1.38152 0
M  V30 3392 H 334.562 3.41932 0.306179 0
M  V30 3393 N 337.007 -0.598083 1.45811 0
M  V30 3394 C 338.284 -1.35777 1.40797 0
M  V30 3395 C 338.664 -2.10935 0.083462 0
M  V30 3396 O 338.012 -2.08505 -0.934763 0
M  V30 3397 C 338.222 -2.29666 2.62783 0
M  V30 3398 C 339.57 -2.91977 3.08277 0
M  V30 3399 O 340.594 -2.39984 2.63223 0
M  V30 3400 O 339.453 -3.86376 3.86491 0
M  V30 3401 H 336.547 -0.609291 0.55919 0
M  V30 3402 H 339.093 -0.620379 1.57954 0
M  V30 3403 H 337.865 -1.73454 3.50756 0
M  V30 3404 H 337.488 -3.1077 2.48008 0
M  V30 3405 N 338.485 -1.33259 -0.841409 0
M  V30 3406 C 339.415 -1.25926 -1.96634 0
M  V30 3407 C 340.396 -0.140349 -1.6952 0
M  V30 3408 O 341.581 -0.329707 -1.91381 0
M  V30 3409 C 338.711 -0.99512 -3.32738 0
M  V30 3410 C 337.665 -2.0767 -3.74242 0
M  V30 3411 C 336.991 -1.66474 -5.08125 0
M  V30 3412 C 338.291 -3.49318 -3.88297 0
M  V30 3413 H 339.985 -2.20046 -2.03027 0
M  V30 3414 H 337.531 -1.05931 -0.975425 0
M  V30 3415 H 339.484 -0.930323 -4.11002 0
M  V30 3416 H 338.208 -0.0183004 -3.26595 0
M  V30 3417 H 336.867 -2.13187 -2.98239 0
M  V30 3418 H 336.515 -0.675012 -4.9845 0
M  V30 3419 H 336.215 -2.3885 -5.36865 0
M  V30 3420 H 337.739 -1.61455 -5.88867 0
M  V30 3421 H 339.153 -3.46316 -4.56879 0
M  V30 3422 H 337.55 -4.20158 -4.28471 0
M  V30 3423 H 338.62 -3.8801 -2.9082 0
M  V30 3424 N 339.963 1.05934 -1.16686 0
M  V30 3425 C 340.926 2.11669 -0.879144 0
M  V30 3426 C 341.926 1.60294 0.127445 0
M  V30 3427 O 343.116 1.7389 -0.103865 0
M  V30 3428 C 340.248 3.39438 -0.315425 0
M  V30 3429 H 341.441 2.38626 -1.81653 0
M  V30 3430 H 338.994 1.22058 -0.976299 0
M  V30 3431 H 339.729 3.18132 0.629468 0
M  V30 3432 H 339.514 3.78034 -1.04079 0
M  V30 3433 H 341.004 4.17391 -0.132189 0
M  V30 3434 N 341.441 0.965919 1.2453 0
M  V30 3435 C 342.69 0.622437 1.91856 0
M  V30 3436 C 343.003 -0.846006 1.76358 0
M  V30 3437 O 344.209 -1.29993 2.38357 0
M  V30 3438 C 342.665 1.0626 3.43856 0
M  V30 3439 C 342.273 2.55437 3.68043 0
M  V30 3440 C 344.017 0.792183 4.17043 0
M  V30 3441 C 341.924 2.93196 5.13605 0
M  V30 3442 H 340.854 0.229092 0.718354 0
M  V30 3443 H 343.505 1.17189 1.41206 0
M  V30 3444 H 341.887 0.441476 3.93531 0
M  V30 3445 H 343.061 3.22665 3.28974 0
M  V30 3446 H 341.376 2.8007 3.08139 0
M  V30 3447 H 343.973 1.05031 5.24283 0
M  V30 3448 H 344.316 -0.271584 4.15413 0
M  V30 3449 H 344.849 1.37419 3.73311 0
M  V30 3450 H 341.588 3.98636 5.20355 0
M  V30 3451 H 341.108 2.30651 5.53679 0
M  V30 3452 H 342.787 2.83004 5.81823 0
M  V30 3453 N 342.919 -1.39368 0.735821 0
M  V30 3454 C 344.335 -1.54204 0.411492 0
M  V30 3455 C 344.535 -1.70268 -1.07755 0
M  V30 3456 O 343.591 -1.70364 -1.86366 0
M  V30 3457 C 344.904 -2.75925 1.19523 0
M  V30 3458 C 346.452 -2.89761 1.18354 0
M  V30 3459 C 346.927 -4.14421 1.94986 0
M  V30 3460 N 348.418 -4.21462 1.92156 0
M  V30 3461 C 349.153 -5.16871 2.48258 0
M  V30 3462 N 348.649 -6.18063 3.13001 0
M  V30 3463 N 350.442 -5.09093 2.38287 0
M  V30 3464 H 342.593 -1.27189 1.70108 0
M  V30 3465 H 344.856 -0.616517 0.720147 0
M  V30 3466 H 344.562 -2.70401 2.24892 0
M  V30 3467 H 344.436 -3.68614 0.800222 0
M  V30 3468 H 346.823 -2.94777 0.137975 0
M  V30 3469 H 346.904 -1.98133 1.61793 0
M  V30 3470 H 346.548 -4.10166 2.99543 0
M  V30 3471 H 346.478 -5.05095 1.48953 0
M  V30 3472 H 348.969 -3.48979 1.44991 0
M  V30 3473 H 349.282 -6.87326 3.53275 0
M  V30 3474 H 347.627 -6.18448 3.17091 0
M  V30 3475 H 350.818 -4.28973 1.8735 0
M  V30 3476 H 350.991 -5.83272 2.82308 0
M  V30 3477 N 344.397 -0.483516 -1.5 0
M  V30 3478 C 345.674 0.129337 -1.95172 0
M  V30 3479 C 346.054 1.55802 -1.4244 0
M  V30 3480 O 345.402 2.19625 -0.630649 0
M  V30 3481 C 345.612 0.0599251 -3.48949 0
M  V30 3482 C 346.96 0.242617 -4.23906 0
M  V30 3483 O 347.984 0.135933 -3.55941 0
M  V30 3484 O 346.843 0.459454 -5.44565 0
M  V30 3485 H 343.937 0.104887 -0.820322 0
M  V30 3486 H 346.483 -0.544807 -1.60717 0
M  V30 3487 H 345.255 -0.937079 -3.79914 0
M  V30 3488 H 344.878 0.774984 -3.89974 0
M  V30 3489 N 345.875 1.56104 -0.216619 0
M  V30 3490 C 347.103 2.02563 0.421413 0
M  V30 3491 C 347.518 1.0965 1.53695 0
M  V30 3492 O 346.875 0.10521 1.82196 0
M  V30 3493 C 346.926 3.48584 0.957665 0
M  V30 3494 O 346.647 4.37953 -0.113389 0
M  V30 3495 C 348.148 4.10664 1.66943 0
M  V30 3496 H 345.368 0.662944 0.103665 0
M  V30 3497 H 347.912 2.01793 -0.331629 0
M  V30 3498 H 346.067 3.49985 1.661 0
M  V30 3499 H 346.481 5.23704 0.288932 0
M  V30 3500 H 347.955 5.14622 1.99671 0
M  V30 3501 H 348.432 3.55373 2.58083 0
M  V30 3502 H 349.038 4.13098 1.01142 0
M  V30 3503 N 347.353 -0.0568162 1.57498 0
M  V30 3504 C 348.6 -0.753104 1.87975 0
M  V30 3505 C 348.928 -1.76815 0.81035 0
M  V30 3506 O 348.183 -1.94756 -0.19199 0
M  V30 3507 C 348.482 -1.48359 3.25153 0
M  V30 3508 C 348.148 -0.60713 4.46794 0
M  V30 3509 C 346.81 -0.365642 4.79809 0
M  V30 3510 C 349.162 -0.000305978 5.212 0
M  V30 3511 C 346.49 0.491905 5.84634 0
M  V30 3512 C 348.842 0.844781 6.26934 0
M  V30 3513 C 347.506 1.096 6.58441 0
M  V30 3514 H 346.776 -0.27558 0.687849 0
M  V30 3515 H 349.423 -0.0135173 1.91495 0
M  V30 3516 H 347.728 -2.29577 3.17492 0
M  V30 3517 H 349.425 -2.02739 3.45974 0
M  V30 3518 H 346.015 -0.805487 4.20963 0
M  V30 3519 H 350.199 -0.173961 4.95995 0
M  V30 3520 H 345.455 0.695131 6.07436 0
M  V30 3521 H 349.629 1.32165 6.83744 0
M  V30 3522 H 347.256 1.76224 7.39492 0
M  V30 3523 N 348.832 -1.54138 -0.328536 0
M  V30 3524 C 350.078 -1.7236 -1.06865 0
M  V30 3525 C 350.411 -0.493231 -1.87832 0
M  V30 3526 O 349.686 0.5098 -1.877 0
M  V30 3527 C 349.969 -2.99621 -1.99747 0
M  V30 3528 C 349.822 -4.32899 -1.22143 0
M  V30 3529 C 351.141 -3.22615 -2.99345 0
M  V30 3530 H 348.26 -0.627151 -0.387105 0
M  V30 3531 H 350.902 -1.86827 -0.345767 0
M  V30 3532 H 349.052 -2.87418 -2.61387 0
M  V30 3533 H 350.724 -4.56978 -0.630017 0
M  V30 3534 H 348.967 -4.30628 -0.523628 0
M  V30 3535 H 349.638 -5.18154 -1.90318 0
M  V30 3536 H 352.114 -3.34248 -2.47826 0
M  V30 3537 H 350.99 -4.13027 -3.61524 0
M  V30 3538 H 351.251 -2.3961 -3.71536 0
M  V30 3539 N 350.31 0.590341 -1.46126 0
M  V30 3540 C 351.258 1.72105 -1.5647 0
M  V30 3541 C 352.252 1.63756 -0.433612 0
M  V30 3542 O 353.458 1.69342 -0.610194 0
M  V30 3543 H 349.833 0.568889 -0.491802 0
M  V30 3544 H 351.804 1.6051 -2.51553 0
M  V30 3545 C 350.553 3.10493 -1.56491 0
M  V30 3546 H 349.876 3.17583 -2.4286 0
M  V30 3547 H 351.316 3.8939 -1.67785 0
M  V30 3548 C 349.775 3.3563 -0.292231 0
M  V30 3549 O 350.305 3.96875 0.620739 0
M  V30 3550 N 348.511 2.90026 -0.182523 0
M  V30 3551 H 348.058 2.40367 -0.926356 0
M  V30 3552 H 348.016 3.07218 0.668152 0
M  V30 3553 N 351.788 1.33704 0.83433 0
M  V30 3554 C 352.751 1.24244 1.92603 0
M  V30 3555 C 353.751 0.160383 1.59998 0
M  V30 3556 O 354.941 0.412228 1.69252 0
M  V30 3557 C 352.073 0.91555 3.28376 0
M  V30 3558 H 353.266 2.21287 2.02416 0
M  V30 3559 H 350.819 1.17827 1.02696 0
M  V30 3560 H 351.554 -0.0521886 3.24258 0
M  V30 3561 H 351.339 1.69811 3.53422 0
M  V30 3562 H 352.829 0.874231 4.08347 0
M  V30 3563 N 353.266 -1.05314 1.17247 0
M  V30 3564 C 354.491 -1.82509 0.985148 0
M  V30 3565 C 354.916 -1.82343 -0.461788 0
M  V30 3566 O 354.274 -1.23151 -1.33055 0
M  V30 3567 C 354.322 -3.26566 1.52929 0
M  V30 3568 O 353.426 -4.05666 0.742225 0
M  V30 3569 H 352.767 -0.564347 0.349869 0
M  V30 3570 H 355.297 -1.32718 1.55715 0
M  V30 3571 H 355.307 -3.77369 1.55103 0
M  V30 3572 H 353.982 -3.26001 2.58256 0
M  V30 3573 H 352.559 -3.64397 0.791794 0
M  V30 3574 N 354.744 -0.972509 -1.24016 0
M  V30 3575 C 356.16 -0.679827 -1.44397 0
M  V30 3576 C 356.36 0.756716 -1.86751 0
M  V30 3577 O 355.416 1.53007 -2.00861 0
M  V30 3578 C 356.729 -1.66803 -2.50195 0
M  V30 3579 C 358.277 -1.68119 -2.64017 0
M  V30 3580 C 358.752 -2.65748 -3.73017 0
M  V30 3581 N 360.243 -2.64219 -3.8045 0
M  V30 3582 C 360.978 -3.36433 -4.64328 0
M  V30 3583 N 360.474 -4.1818 -5.52356 0
M  V30 3584 N 362.267 -3.25235 -4.58453 0
M  V30 3585 H 354.418 -1.90059 -0.948228 0
M  V30 3586 H 356.681 -0.818527 -0.478245 0
M  V30 3587 H 356.387 -2.69498 -2.25973 0
M  V30 3588 H 356.261 -1.4446 -3.48441 0
M  V30 3589 H 358.648 -0.661319 -2.87594 0
M  V30 3590 H 358.729 -1.94525 -1.66113 0
M  V30 3591 H 358.373 -3.67872 -3.50189 0
M  V30 3592 H 358.303 -2.36619 -4.70446 0
M  V30 3593 H 360.794 -2.04887 -3.17537 0
M  V30 3594 H 361.107 -4.70157 -6.13329 0
M  V30 3595 H 359.452 -4.22273 -5.52006 0
M  V30 3596 H 362.643 -2.60829 -3.88698 0
M  V30 3597 H 362.816 -3.81776 -5.23594 0
M  V30 3598 N 356.222 1.38976 -0.743202 0
M  V30 3599 C 357.45 2.04636 -0.30525 0
M  V30 3600 C 357.865 1.56044 1.06281 0
M  V30 3601 O 357.222 0.728921 1.67311 0
M  V30 3602 C 357.273 3.60193 -0.307177 0
M  V30 3603 O 356.994 4.06998 -1.62124 0
M  V30 3604 C 358.495 4.4306 0.145928 0
M  V30 3605 H 355.715 0.65788 -0.132041 0
M  V30 3606 H 358.259 1.77866 -1.00915 0
M  V30 3607 H 356.414 3.85835 0.347898 0
M  V30 3608 H 356.828 5.01371 -1.54036 0
M  V30 3609 H 358.302 5.51921 0.0934183 0
M  V30 3610 H 358.779 4.22706 1.19231 0
M  V30 3611 H 359.385 4.22584 -0.479886 0
M  V30 3612 N 357.7 0.491464 1.49741 0
M  V30 3613 C 358.63 -0.28154 2.31796 0
M  V30 3614 C 359.611 -0.971473 1.3963 0
M  V30 3615 O 360.796 -0.964719 1.68543 0
M  V30 3616 C 357.926 -1.35203 3.19902 0
M  V30 3617 C 356.88 -0.782529 4.20786 0
M  V30 3618 C 356.206 -1.95283 4.97764 0
M  V30 3619 C 357.506 0.21999 5.21837 0
M  V30 3620 H 359.2 0.403355 2.96671 0
M  V30 3621 H 356.746 0.195425 1.42668 0
M  V30 3622 H 358.699 -1.90045 3.76113 0
M  V30 3623 H 357.423 -2.06598 2.52953 0
M  V30 3624 H 356.082 -0.255928 3.65706 0
M  V30 3625 H 355.73 -2.65423 4.2727 0
M  V30 3626 H 355.43 -1.57789 5.66018 0
M  V30 3627 H 356.954 -2.50577 5.56816 0
M  V30 3628 H 358.368 -0.23996 5.72798 0
M  V30 3629 H 356.765 0.51026 5.97927 0
M  V30 3630 H 357.835 1.13911 4.7133 0
M  V30 3631 N 359.178 -1.55987 0.224894 0
M  V30 3632 C 360.408 -2.02489 -0.41007 0
M  V30 3633 C 360.816 -1.10391 -1.53657 0
M  V30 3634 O 360.159 -0.106458 -1.83391 0
M  V30 3635 C 360.221 -3.45319 -0.999757 0
M  V30 3636 C 359.885 -4.56999 -0.00827976 0
M  V30 3637 C 360.882 -5.13812 0.793314 0
M  V30 3638 C 358.567 -5.02176 0.111442 0
M  V30 3639 C 360.561 -6.14276 1.7013 0
M  V30 3640 C 358.248 -6.02477 1.02296 0
M  V30 3641 C 359.246 -6.58403 1.81643 0
M  V30 3642 O 358.934 -7.56751 2.71262 0
M  V30 3643 H 358.666 -0.667915 -0.104235 0
M  V30 3644 H 361.22 -2.0257 0.339782 0
M  V30 3645 H 359.45 -3.42318 -1.79876 0
M  V30 3646 H 361.139 -3.7545 -1.54248 0
M  V30 3647 H 361.905 -4.79756 0.711288 0
M  V30 3648 H 357.784 -4.58323 -0.49605 0
M  V30 3649 H 361.328 -6.57854 2.32107 0
M  V30 3650 H 357.225 -6.35954 1.10599 0
M  V30 3651 H 357.993 -7.74286 2.65375 0
M  V30 3652 N 360.656 0.0484629 -1.57525 0
M  V30 3653 C 361.881 0.759177 -1.93006 0
M  V30 3654 C 362.306 1.69125 -0.823317 0
M  V30 3655 O 361.664 1.79931 0.222364 0
M  V30 3656 C 361.712 1.50899 -3.27509 0
M  V30 3657 O 360.816 2.62112 -3.18388 0
M  V30 3658 H 360.157 0.205564 -0.631379 0
M  V30 3659 H 362.687 0.00972959 -2.04598 0
M  V30 3660 H 362.697 1.88317 -3.6194 0
M  V30 3661 H 361.372 0.825269 -4.0763 0
M  V30 3662 H 359.949 2.27379 -2.95556 0
M  V30 3663 N 362.134 1.5431 0.320358 0
M  V30 3664 C 363.359 1.76954 1.08175 0
M  V30 3665 C 363.784 0.518193 1.80821 0
M  V30 3666 O 363.142 -0.530411 1.73368 0
M  V30 3667 C 363.19 2.96451 2.05303 0
M  V30 3668 O 362.294 2.68221 3.13259 0
M  V30 3669 H 361.635 0.586275 0.311733 0
M  V30 3670 H 364.165 2.01342 0.363676 0
M  V30 3671 H 364.175 3.23887 2.48116 0
M  V30 3672 H 362.85 3.87196 1.51829 0
M  V30 3673 H 361.427 2.51744 2.75099 0
M  V30 3674 N 363.613 -0.582584 1.46437 0
M  V30 3675 C 364.838 -1.37168 1.55563 0
M  V30 3676 C 365.263 -1.87061 0.19743 0
M  V30 3677 O 364.621 -1.61572 -0.822451 0
M  V30 3678 C 364.669 -2.53511 2.56446 0
M  V30 3679 O 363.773 -3.54953 2.09958 0
M  V30 3680 H 363.114 -0.408494 0.523477 0
M  V30 3681 H 365.644 -0.706646 1.9201 0
M  V30 3682 H 365.654 -3.00426 2.76058 0
M  V30 3683 H 364.329 -2.16549 3.55076 0
M  V30 3684 H 362.906 -3.14516 2.00334 0
M  V30 3685 N 365.091 -1.34144 -0.827227 0
M  V30 3686 C 366.502 -1.23557 -1.39966 0
M  V30 3687 C 366.853 0.140731 -1.95695 0
M  V30 3688 O 365.978 1.04087 -1.89723 0
M  V30 3689 C 366.573 -2.23708 -2.54441 0
M  V30 3690 C 365.132 -2.16924 -3.07605 0
M  V30 3691 C 364.279 -2.10549 -1.80456 0
M  V30 3692 H 367.23 -1.45573 -0.631991 0
M  V30 3693 H 367.251 -1.85157 -3.32411 0
M  V30 3694 H 366.763 -3.23866 -2.13851 0
M  V30 3695 H 364.864 -1.20107 -3.52711 0
M  V30 3696 H 364.977 -3.07988 -3.66988 0
M  V30 3697 H 363.341 -1.56203 -2.01178 0
M  V30 3698 H 364.124 -3.12535 -1.42046 0
M  V30 3699 N 366.569 1.04691 -1.17803 0
M  V30 3700 C 367.985 1.29963 -0.926379 0
M  V30 3701 C 368.185 1.97251 0.411635 0
M  V30 3702 O 367.241 2.24922 1.14744 0
M  V30 3703 C 368.554 2.16447 -2.08737 0
M  V30 3704 C 370.102 2.29814 -2.12496 0
M  V30 3705 C 370.577 3.19661 -3.27995 0
M  V30 3706 N 372.068 3.27247 -3.27816 0
M  V30 3707 C 372.803 3.96906 -4.13827 0
M  V30 3708 N 372.299 4.6895 -5.09959 0
M  V30 3709 N 374.092 3.93122 -4.01761 0
M  V30 3710 H 366.243 0.594182 -2.0392 0
M  V30 3711 H 368.506 0.324649 -0.890678 0
M  V30 3712 H 368.212 1.74304 -3.05469 0
M  V30 3713 H 368.086 3.17103 -2.04268 0
M  V30 3714 H 370.473 2.71196 -1.16347 0
M  V30 3715 H 370.554 1.2877 -2.21025 0
M  V30 3716 H 370.198 2.78991 -4.24413 0
M  V30 3717 H 370.128 4.20722 -3.16703 0
M  V30 3718 H 372.619 2.75921 -2.58217 0
M  V30 3719 H 372.932 5.19679 -5.71974 0
M  V30 3720 H 371.277 4.67875 -5.13924 0
M  V30 3721 H 374.468 3.35967 -3.2595 0
M  V30 3722 H 374.641 4.47139 -4.6901 0
M  V30 3723 N 368.047 0.979072 1.23499 0
M  V30 3724 C 369.293 0.648178 1.92163 0
M  V30 3725 C 369.626 -0.816049 1.76222 0
M  V30 3726 O 368.901 -1.58849 1.12237 0
M  V30 3727 C 369.184 1.03773 3.44824 0
M  V30 3728 C 369.037 2.55948 3.69879 0
M  V30 3729 C 370.356 0.580653 4.36253 0
M  V30 3730 H 367.475 0.236952 0.69787 0
M  V30 3731 H 370.117 1.22012 1.45647 0
M  V30 3732 H 368.267 0.551058 3.84572 0
M  V30 3733 H 369.939 3.12179 3.3962 0
M  V30 3734 H 368.182 2.98641 3.14636 0
M  V30 3735 H 368.853 2.78255 4.76737 0
M  V30 3736 H 371.329 0.998465 4.03943 0
M  V30 3737 H 370.205 0.881663 5.41773 0
M  V30 3738 H 370.466 -0.519052 4.39042 0
M  V30 3739 N 369.525 -1.3858 0.750561 0
M  V30 3740 C 370.455 -2.33102 0.136237 0
M  V30 3741 C 371.436 -1.54713 -0.706965 0
M  V30 3742 O 372.621 -1.83043 -0.648769 0
M  V30 3743 C 369.751 -3.38882 -0.760017 0
M  V30 3744 C 368.705 -4.27995 -0.0197785 0
M  V30 3745 C 368.031 -5.24605 -1.03408 0
M  V30 3746 C 369.331 -5.09554 1.14684 0
M  V30 3747 H 371.025 -2.84726 0.925822 0
M  V30 3748 H 368.571 -1.36898 0.446654 0
M  V30 3749 H 370.524 -4.0397 -1.19943 0
M  V30 3750 H 369.248 -2.85734 -1.58189 0
M  V30 3751 H 367.907 -3.64409 0.400184 0
M  V30 3752 H 367.555 -4.67746 -1.84994 0
M  V30 3753 H 367.255 -5.85081 -0.543464 0
M  V30 3754 H 368.779 -5.9257 -1.47288 0
M  V30 3755 H 370.193 -5.67899 0.785118 0
M  V30 3756 H 368.59 -5.7925 1.56812 0
M  V30 3757 H 369.66 -4.4347 1.96118 0
M  V30 3758 N 371.003 -0.499398 -1.49478 0
M  V30 3759 C 372.228 0.044722 -2.07352 0
M  V30 3760 C 372.653 1.30207 -1.35749 0
M  V30 3761 O 372.011 1.76516 -0.413732 0
M  V30 3762 C 372.059 0.283013 -3.59488 0
M  V30 3763 O 371.163 1.35804 -3.89398 0
M  V30 3764 H 370.504 -0.0255147 -0.66351 0
M  V30 3765 H 373.034 -0.698561 -1.92305 0
M  V30 3766 H 373.044 0.515007 -4.04737 0
M  V30 3767 H 371.719 -0.635636 -4.11014 0
M  V30 3768 H 370.296 1.11113 -3.55961 0
M  V30 3769 N 372.481 1.55866 -0.233164 0
M  V30 3770 C 373.429 2.22176 0.68851 0
M  V30 3771 C 374.423 1.20487 1.19076 0
M  V30 3772 O 375.629 1.38536 1.14925 0
M  V30 3773 H 372.004 0.712511 0.240483 0
M  V30 3774 H 373.975 2.98212 0.105935 0
M  V30 3775 C 372.724 2.92446 1.88071 0
M  V30 3776 H 372.047 3.70458 1.50337 0
M  V30 3777 H 373.487 3.42226 2.50314 0
M  V30 3778 C 371.946 1.95555 2.74335 0
M  V30 3779 O 372.476 1.47986 3.73447 0
M  V30 3780 N 370.682 1.62953 2.40613 0
M  V30 3781 H 370.229 2.01831 1.60069 0
M  V30 3782 H 370.187 0.983886 2.98609 0
M  V30 3783 N 373.959 -0.0401083 1.57549 0
M  V30 3784 C 374.907 -1.06264 2.06908 0
M  V30 3785 C 375.901 -1.38132 0.980608 0
M  V30 3786 O 377.107 -1.37167 1.16556 0
M  V30 3787 H 373.482 -0.360166 0.660139 0
M  V30 3788 H 375.453 -0.620445 2.91878 0
M  V30 3789 C 374.202 -2.35846 2.55483 0
M  V30 3790 H 373.525 -2.12183 3.38849 0
M  V30 3791 H 374.965 -3.05765 2.93741 0
M  V30 3792 C 373.424 -3.0404 1.45126 0
M  V30 3793 O 373.954 -3.93424 0.811216 0
M  V30 3794 N 372.16 -2.65184 1.18852 0
M  V30 3795 H 371.707 -1.92584 1.71083 0
M  V30 3796 H 371.665 -3.1113 0.452244 0
M  V30 3797 N 375.437 -1.54477 -0.31217 0
M  V30 3798 C 376.662 -1.77526 -1.07235 0
M  V30 3799 C 377.087 -0.527775 -1.80544 0
M  V30 3800 O 376.445 0.52121 -1.73646 0
M  V30 3801 C 376.493 -2.97535 -2.03728 0
M  V30 3802 O 375.597 -2.69878 -3.11833 0
M  V30 3803 H 374.938 -0.58792 -0.30862 0
M  V30 3804 H 377.468 -2.01532 -0.352993 0
M  V30 3805 H 377.478 -3.25198 -2.46395 0
M  V30 3806 H 376.153 -3.87996 -1.49774 0
M  V30 3807 H 374.73 -2.53199 -2.7376 0
M  V30 3808 N 376.915 0.57481 -1.46744 0
M  V30 3809 C 378.192 1.3352 -1.4294 0
M  V30 3810 C 378.572 2.10775 -0.117009 0
M  V30 3811 O 377.92 2.09966 0.901474 0
M  V30 3812 C 378.13 2.25456 -2.66403 0
M  V30 3813 C 379.478 2.87035 -3.12883 0
M  V30 3814 O 380.502 2.35766 -2.67007 0
M  V30 3815 O 379.361 3.80179 -3.92589 0
M  V30 3816 H 376.455 0.600318 -0.568812 0
M  V30 3817 H 379.001 0.595171 -1.58921 0
M  V30 3818 H 377.773 1.67851 -3.53471 0
M  V30 3819 H 377.396 3.06785 -2.52921 0
M  V30 3820 N 378.394 1.34581 0.820102 0
M  V30 3821 C 379.357 1.2628 1.91275 0
M  V30 3822 C 380.357 0.177344 1.59819 0
M  V30 3823 O 381.547 0.430156 1.68806 0
M  V30 3824 C 378.679 0.950327 3.27386 0
M  V30 3825 H 379.872 2.23421 2.00057 0
M  V30 3826 H 377.425 1.1891 1.0144 0
M  V30 3827 H 378.16 -0.0177938 3.24295 0
M  V30 3828 H 377.945 1.73549 3.51601 0
M  V30 3829 H 379.435 0.917492 4.07396 0
M  V30 3830 N 379.872 -1.04064 1.18357 0
M  V30 3831 C 380.82 -2.14187 0.907007 0
M  V30 3832 C 381.814 -1.68879 -0.132725 0
M  V30 3833 O 383.02 -1.79993 0.0154248 0
M  V30 3834 H 379.395 -0.699585 0.275835 0
M  V30 3835 H 381.366 -2.34711 1.84264 0
M  V30 3836 C 380.115 -3.44785 0.449254 0
M  V30 3837 H 379.438 -3.80058 1.24081 0
M  V30 3838 H 380.878 -4.22974 0.294737 0
M  V30 3839 C 379.337 -3.26391 -0.834909 0
M  V30 3840 O 379.867 -3.53973 -1.89911 0
M  V30 3841 N 378.073 -2.79726 -0.787523 0
M  V30 3842 H 377.62 -2.5748 0.0787347 0
M  V30 3843 H 377.578 -2.67798 -1.64716 0
M  V30 3844 N 381.35 -0.985608 -1.22978 0
M  V30 3845 C 382.28 -0.549649 -2.26939 0
M  V30 3846 C 383.261 0.419803 -1.64838 0
M  V30 3847 O 384.446 0.31203 -1.91677 0
M  V30 3848 C 381.576 0.143652 -3.47003 0
M  V30 3849 C 380.53 -0.743606 -4.21491 0
M  V30 3850 C 379.856 0.0822027 -5.34637 0
M  V30 3851 C 381.156 -2.03694 -4.80943 0
M  V30 3852 H 382.85 -1.41862 -2.63658 0
M  V30 3853 H 380.396 -0.683571 -1.26741 0
M  V30 3854 H 382.349 0.459985 -4.18882 0
M  V30 3855 H 381.073 1.04711 -3.09359 0
M  V30 3856 H 379.732 -1.04347 -3.51436 0
M  V30 3857 H 379.38 0.986359 -4.93234 0
M  V30 3858 H 379.08 -0.508377 -5.85397 0
M  V30 3859 H 380.604 0.392797 -6.09335 0
M  V30 3860 H 382.018 -1.78504 -5.44802 0
M  V30 3861 H 380.415 -2.57573 -5.42011 0
M  V30 3862 H 381.485 -2.72042 -4.01399 0
M  V30 3863 N 382.828 1.3818 -0.7579 0
M  V30 3864 C 383.738 2.3421 -0.135247 0
M  V30 3865 C 384.754 1.59487 0.695683 0
M  V30 3866 O 385.93 1.91657 0.618832 0
M  V30 3867 C 382.995 3.3862 0.744139 0
M  V30 3868 C 382.056 4.2918 -0.101658 0
M  V30 3869 C 381.289 5.28603 0.735851 0
M  V30 3870 O 381.512 5.35166 1.97366 0
M  V30 3871 O 380.446 6.01707 0.152372 0
M  V30 3872 H 384.272 2.8916 -0.928436 0
M  V30 3873 H 381.857 1.40101 -0.518855 0
M  V30 3874 H 383.739 4.02539 1.2466 0
M  V30 3875 H 382.414 2.86019 1.51575 0
M  V30 3876 H 381.321 3.68407 -0.650167 0
M  V30 3877 H 382.654 4.85048 -0.836024 0
M  V30 3878 N 384.306 0.507319 1.49211 0
M  V30 3879 C 385.236 -0.256939 2.32082 0
M  V30 3880 C 386.217 -0.956609 1.40652 0
M  V30 3881 O 387.402 -0.946788 1.69557 0
M  V30 3882 C 384.532 -1.31802 3.21318 0
M  V30 3883 C 383.486 -0.737855 4.21592 0
M  V30 3884 C 382.812 -1.89992 4.99807 0
M  V30 3885 C 384.112 0.275325 5.21574 0
M  V30 3886 H 385.806 0.434798 2.96226 0
M  V30 3887 H 383.352 0.210546 1.42452 0
M  V30 3888 H 385.305 -1.86045 3.78107 0
M  V30 3889 H 384.029 -2.03903 2.5513 0
M  V30 3890 H 382.688 -0.217126 3.65956 0
M  V30 3891 H 382.336 -2.60877 4.30061 0
M  V30 3892 H 382.036 -1.51777 5.6766 0
M  V30 3893 H 383.56 -2.44657 5.59442 0
M  V30 3894 H 384.974 -0.179193 5.7302 0
M  V30 3895 H 383.371 0.573649 5.97352 0
M  V30 3896 H 384.441 1.18903 4.70096 0
M  V30 3897 N 385.784 -1.5574 0.241426 0
M  V30 3898 C 387.033 -1.97986 -0.385295 0
M  V30 3899 C 387.346 -1.13267 -1.59468 0
M  V30 3900 O 388.552 -1.45501 -2.2922 0
M  V30 3901 C 387.008 -3.52275 -0.736884 0
M  V30 3902 C 386.616 -4.45726 0.450796 0
M  V30 3903 C 388.36 -4.03189 -1.3281 0
M  V30 3904 C 386.267 -5.91352 0.0756662 0
M  V30 3905 H 385.197 -0.739386 -0.147731 0
M  V30 3906 H 387.848 -1.80308 0.340779 0
M  V30 3907 H 386.23 -3.65628 -1.52094 0
M  V30 3908 H 387.404 -4.44131 1.22819 0
M  V30 3909 H 385.719 -4.05264 0.956573 0
M  V30 3910 H 388.316 -5.09505 -1.62201 0
M  V30 3911 H 388.659 -3.50212 -2.25071 0
M  V30 3912 H 389.192 -3.93141 -0.607069 0
M  V30 3913 H 385.931 -6.48354 0.965272 0
M  V30 3914 H 385.451 -5.96095 -0.665635 0
M  V30 3915 H 387.13 -6.46084 -0.344075 0
M  V30 3916 N 387.262 0.0317525 -1.57568 0
M  V30 3917 C 388.21 1.05165 -2.07468 0
M  V30 3918 C 389.204 1.3761 -0.98792 0
M  V30 3919 O 390.41 1.36546 -1.17282 0
M  V30 3920 H 386.785 0.35666 -0.66204 0
M  V30 3921 H 388.756 0.604958 -2.92203 0
M  V30 3922 C 387.505 2.34488 -2.56731 0
M  V30 3923 H 386.828 2.10383 -3.39969 0
M  V30 3924 H 388.268 3.04203 -2.95358 0
M  V30 3925 C 386.727 3.03266 -1.46736 0
M  V30 3926 O 387.257 3.92988 -0.832069 0
M  V30 3927 N 385.463 2.6455 -1.20256 0
M  V30 3928 H 385.01 1.91674 -1.72102 0
M  V30 3929 H 384.968 3.10886 -0.468737 0
M  V30 3930 N 388.74 1.54641 0.303973 0
M  V30 3931 C 389.968 1.77768 1.05858 0
M  V30 3932 C 390.383 0.535722 1.8104 0
M  V30 3933 O 389.74 -0.494337 1.75677 0
M  V30 3934 C 389.791 2.9834 2.04146 0
M  V30 3935 O 389.512 4.17736 1.32015 0
M  V30 3936 C 391.013 3.33832 2.91669 0
M  V30 3937 H 388.233 0.592961 0.314067 0
M  V30 3938 H 390.777 2.01583 0.344149 0
M  V30 3939 H 388.932 2.76742 2.71096 0
M  V30 3940 H 389.346 4.85693 1.97998 0
M  V30 3941 H 390.82 4.21448 3.56491 0
M  V30 3942 H 391.297 2.51857 3.59812 0
M  V30 3943 H 391.903 3.57579 2.30254 0
M  V30 3944 N 390.218 -0.567019 1.47046 0
M  V30 3945 C 391.464 -1.32434 1.54379 0
M  V30 3946 C 391.819 -1.91365 0.199276 0
M  V30 3947 O 391.112 -1.74378 -0.793915 0
M  V30 3948 C 391.306 -2.4623 2.59047 0
M  V30 3949 C 391.135 -1.98448 4.03545 0
M  V30 3950 C 389.905 -1.82741 4.71098 0
M  V30 3951 C 392.103 -1.53477 4.90866 0
M  V30 3952 N 390.085 -1.29196 6.00151 0
M  V30 3953 C 391.456 -1.1163 6.09868 0
M  V30 3954 C 393.511 -1.41438 4.77388 0
M  V30 3955 C 392.214 -0.589425 7.16881 0
M  V30 3956 C 394.24 -0.901528 5.84488 0
M  V30 3957 C 393.602 -0.492932 7.02673 0
M  V30 3958 H 389.701 -0.477005 0.61967 0
M  V30 3959 H 392.285 -0.643856 1.83746 0
M  V30 3960 H 390.456 -3.11821 2.31564 0
M  V30 3961 H 392.188 -3.13213 2.56281 0
M  V30 3962 H 388.943 -2.05162 4.26855 0
M  V30 3963 H 389.367 -1.0454 6.6888 0
M  V30 3964 H 394.009 -1.71643 3.86392 0
M  V30 3965 H 391.727 -0.274994 8.07632 0
M  V30 3966 H 395.313 -0.812071 5.76105 0
M  V30 3967 H 394.193 -0.102227 7.84133 0
M  V30 3968 N 391.696 -1.35014 -0.812953 0
M  V30 3969 C 392.942 -1.2812 -1.57204 0
M  V30 3970 C 393.275 0.145869 -1.93651 0
M  V30 3971 O 392.55 1.0937 -1.60836 0
M  V30 3972 C 392.833 -2.18162 -2.86492 0
M  V30 3973 C 392.686 -3.69454 -2.56561 0
M  V30 3974 C 394.005 -2.07439 -3.88145 0
M  V30 3975 H 391.124 -0.466746 -0.570366 0
M  V30 3976 H 393.766 -1.65357 -0.935783 0
M  V30 3977 H 391.916 -1.86535 -3.40789 0
M  V30 3978 H 393.588 -4.11493 -2.08497 0
M  V30 3979 H 391.831 -3.9005 -1.89851 0
M  V30 3980 H 392.502 -4.27835 -3.48799 0
M  V30 3981 H 394.978 -2.35228 -3.4323 0
M  V30 3982 H 393.854 -2.7265 -4.76396 0
M  V30 3983 H 394.115 -1.05439 -4.29343 0
M  V30 3984 N 393.175 1.03435 -1.18907 0
M  V30 3985 C 394.138 2.09756 -0.923844 0
M  V30 3986 C 395.138 1.60528 0.093416 0
M  V30 3987 O 396.328 1.73631 -0.140727 0
M  V30 3988 C 393.46 3.38692 -0.387354 0
M  V30 3989 H 394.653 2.34719 -1.86674 0
M  V30 3990 H 392.206 1.19959 -1.00197 0
M  V30 3991 H 392.941 3.19396 0.561845 0
M  V30 3992 H 392.726 3.75742 -1.12074 0
M  V30 3993 H 394.216 4.17016 -0.220694 0
M  V30 3994 N 394.653 0.992116 1.22453 0
M  V30 3995 C 395.6 0.541731 2.24352 0
M  V30 3996 C 396.57 -0.425519 1.60557 0
M  V30 3997 O 397.755 -0.330453 1.87917 0
M  V30 3998 C 394.895 -0.138248 3.44823 0
M  V30 3999 C 394.008 0.870649 4.23136 0
M  V30 4000 C 393.143 0.164269 5.30946 0
M  V30 4001 C 392.182 1.16159 6.00977 0
M  V30 4002 N 391.319 0.483568 7.00433 0
M  V30 4003 H 396.159 1.41541 2.62241 0
M  V30 4004 H 393.696 0.709013 1.28885 0
M  V30 4005 H 395.654 -0.5494 4.13567 0
M  V30 4006 H 394.284 -0.975721 3.077 0
M  V30 4007 H 393.336 1.40013 3.53696 0
M  V30 4008 H 394.648 1.63014 4.7141 0
M  V30 4009 H 393.802 -0.303653 6.0594 0
M  V30 4010 H 392.541 -0.627733 4.83643 0
M  V30 4011 H 391.546 1.64015 5.24766 0
M  V30 4012 H 392.771 1.95445 6.50368 0
M  V30 4013 H 390.717 -0.289012 6.55363 0
M  V30 4014 H 390.634 1.18152 7.4671 0
M  V30 4015 H 391.902 0.0384219 7.79491 0
M  V30 4016 N 396.131 -1.37776 0.765217 0
M  V30 4017 C 397.079 -2.32209 0.134798 0
M  V30 4018 C 398.073 -1.54607 -0.692315 0
M  V30 4019 O 399.279 -1.70052 -0.590109 0
M  V30 4020 H 395.654 -0.751591 0.0248005 0
M  V30 4021 H 397.625 -2.8297 0.947119 0
M  V30 4022 C 396.374 -3.39841 -0.735063 0
M  V30 4023 H 395.697 -3.99654 -0.107991 0
M  V30 4024 H 397.137 -4.08296 -1.14326 0
M  V30 4025 C 395.596 -2.79378 -1.88281 0
M  V30 4026 O 396.126 -2.69608 -2.97783 0
M  V30 4027 N 394.332 -2.37016 -1.68142 0
M  V30 4028 H 393.879 -2.45162 -0.790772 0
M  V30 4029 H 393.837 -1.96905 -2.45104 0
M  V30 4030 N 397.609 -0.515225 -1.4894 0
M  V30 4031 C 398.837 0.0206034 -2.0689 0
M  V30 4032 C 399.252 1.29514 -1.37374 0
M  V30 4033 O 398.609 1.76698 -0.456529 0
M  V30 4034 C 398.66 0.26351 -3.60538 0
M  V30 4035 O 398.381 -0.960517 -4.27441 0
M  V30 4036 C 399.882 0.841383 -4.35242 0
M  V30 4037 H 397.102 -0.0268608 -0.670462 0
M  V30 4038 H 399.646 -0.716651 -1.91532 0
M  V30 4039 H 397.801 0.950777 -3.75552 0
M  V30 4040 H 398.215 -0.73212 -5.19365 0
M  V30 4041 H 399.689 0.96085 -5.43573 0
M  V30 4042 H 400.166 1.8427 -3.98674 0
M  V30 4043 H 400.772 0.191143 -4.2487 0
M  V30 4044 N 399.087 1.5561 -0.249682 0
M  V30 4045 C 400.035 2.22894 0.664906 0
M  V30 4046 C 401.029 1.21743 1.17792 0
M  V30 4047 O 402.235 1.39748 1.13449 0
M  V30 4048 H 398.61 0.715022 0.232912 0
M  V30 4049 H 400.581 2.98307 0.0742998 0
M  V30 4050 C 399.33 2.94424 1.84959 0
M  V30 4051 H 398.653 3.72031 1.46399 0
M  V30 4052 H 400.093 3.44862 2.4667 0
M  V30 4053 C 398.552 1.98454 2.72245 0
M  V30 4054 O 399.082 1.51939 3.71857 0
M  V30 4055 N 397.288 1.65496 2.38871 0
M  V30 4056 H 396.835 2.03517 1.57919 0
M  V30 4057 H 396.793 1.0155 2.97548 0
M  V30 4058 N 400.565 -0.0233959 1.57583 0
M  V30 4059 C 401.513 -1.04063 2.08023 0
M  V30 4060 C 402.507 -1.37084 0.995204 0
M  V30 4061 O 403.713 -1.35923 1.18004 0
M  V30 4062 H 400.088 -0.353144 0.663922 0
M  V30 4063 H 402.059 -0.589453 2.9252 0
M  V30 4064 C 400.808 -2.33123 2.57971 0
M  V30 4065 H 400.131 -2.08577 3.4108 0
M  V30 4066 H 401.571 -3.02632 2.96967 0
M  V30 4067 C 400.03 -3.02483 1.48342 0
M  V30 4068 O 400.56 -3.92541 0.852898 0
M  V30 4069 N 398.766 -2.63909 1.21658 0
M  V30 4070 H 398.313 -1.90758 1.73116 0
M  V30 4071 H 398.271 -3.10633 0.485218 0
M  V30 4072 N 402.043 -1.548 -0.295768 0
M  V30 4073 C 402.99 -1.86113 -1.36494 0
M  V30 4074 C 403.96 -0.7105 -1.50137 0
M  V30 4075 O 405.145 -0.959626 -1.64912 0
M  V30 4076 C 402.285 -2.11861 -2.72413 0
M  V30 4077 C 401.398 -3.39471 -2.67177 0
M  V30 4078 C 400.533 -3.55035 -3.95125 0
M  V30 4079 C 399.572 -4.76418 -3.84308 0
M  V30 4080 N 398.709 -4.8876 -5.04042 0
M  V30 4081 H 403.549 -2.77314 -1.09091 0
M  V30 4082 H 401.086 -1.37315 -0.52753 0
M  V30 4083 H 403.044 -2.24786 -3.51464 0
M  V30 4084 H 401.674 -1.2392 -2.98066 0
M  V30 4085 H 400.726 -3.35139 -1.79962 0
M  V30 4086 H 402.038 -4.28646 -2.55076 0
M  V30 4087 H 401.192 -3.67653 -4.82614 0
M  V30 4088 H 399.931 -2.64002 -4.10066 0
M  V30 4089 H 398.936 -4.63827 -2.95202 0
M  V30 4090 H 400.161 -5.68863 -3.70906 0
M  V30 4091 H 398.107 -4.00652 -5.19436 0
M  V30 4092 H 398.024 -5.71945 -4.94384 0
M  V30 4093 H 399.292 -5.0574 -5.93167 0
M  V30 4094 N 403.521 0.559213 -1.47345 0
M  V30 4095 C 404.77 1.31281 -1.53128 0
M  V30 4096 C 405.083 1.94602 -0.197344 0
M  V30 4097 O 406.289 2.71173 -0.133154 0
M  V30 4098 C 404.745 2.38051 -2.69925 0
M  V30 4099 C 404.353 1.8093 -4.0984 0
M  V30 4100 C 406.097 3.14604 -2.84999 0
M  V30 4101 C 404.004 2.85468 -5.1794 0
M  V30 4102 H 402.934 0.493614 -0.569966 0
M  V30 4103 H 405.585 0.594155 -1.73615 0
M  V30 4104 H 403.967 3.12822 -2.42814 0
M  V30 4105 H 405.141 1.12544 -4.46845 0
M  V30 4106 H 403.456 1.16967 -3.99634 0
M  V30 4107 H 406.053 3.92666 -3.62929 0
M  V30 4108 H 406.396 3.68665 -1.93369 0
M  V30 4109 H 406.929 2.46945 -3.1187 0
M  V30 4110 H 403.668 2.36264 -6.1144 0
M  V30 4111 H 403.188 3.52269 -4.85455 0
M  V30 4112 H 404.867 3.48996 -5.44803 0
M  V30 4113 N 404.999 1.35443 0.805782 0
M  V30 4114 C 406.224 1.32037 1.59941 0
M  V30 4115 C 406.649 -0.0994215 1.87837 0
M  V30 4116 O 406.007 -1.06648 1.46615 0
M  V30 4117 C 406.055 2.13354 2.90711 0
M  V30 4118 O 405.159 1.5148 3.83572 0
M  V30 4119 H 404.5 0.452666 0.485787 0
M  V30 4120 H 407.03 1.78496 1.00002 0
M  V30 4121 H 407.04 2.25338 3.40128 0
M  V30 4122 H 405.715 3.16572 2.69732 0
M  V30 4123 H 404.292 1.4834 3.42125 0
M  V30 4124 N 406.477 -1.02803 1.19454 0
M  V30 4125 C 407.893 -1.28473 0.946937 0
M  V30 4126 C 408.093 -1.97881 -0.380202 0
M  V30 4127 O 407.149 -2.26719 -1.11151 0
M  V30 4128 C 408.462 -2.13099 2.12154 0
M  V30 4129 C 410.01 -2.26404 2.16126 0
M  V30 4130 C 410.485 -3.14402 3.33039 0
M  V30 4131 N 411.976 -3.21991 3.32981 0
M  V30 4132 C 412.711 -3.90272 4.20089 0
M  V30 4133 N 412.207 -4.60777 5.17355 0
M  V30 4134 N 414 -3.8668 4.07964 0
M  V30 4135 H 406.151 -0.561665 2.04839 0
M  V30 4136 H 408.414 -0.310438 0.89573 0
M  V30 4137 H 408.12 -1.69422 3.08203 0
M  V30 4138 H 407.994 -3.13813 2.09287 0
M  V30 4139 H 410.381 -2.69311 1.20647 0
M  V30 4140 H 410.462 -1.25237 2.23045 0
M  V30 4141 H 410.106 -2.72204 4.28798 0
M  V30 4142 H 410.036 -4.1563 3.23356 0
M  V30 4143 H 412.527 -2.71778 2.62574 0
M  V30 4144 H 412.84 -5.10513 5.80169 0
M  V30 4145 H 411.185 -4.5964 5.21302 0
M  V30 4146 H 414.376 -3.30739 3.31254 0
M  V30 4147 H 414.549 -4.39621 4.76064 0
M  V30 4148 N 407.956 -0.998596 -1.21925 0
M  V30 4149 C 408.886 -0.573688 -2.26343 0
M  V30 4150 C 409.867 0.402296 -1.65274 0
M  V30 4151 O 411.052 0.291683 -1.91997 0
M  V30 4152 C 408.182 0.106839 -3.47136 0
M  V30 4153 C 407.136 -0.788269 -4.20678 0
M  V30 4154 C 406.462 0.0254927 -5.34694 0
M  V30 4155 C 407.762 -2.08784 -4.78755 0
M  V30 4156 H 409.456 -1.44651 -2.62138 0
M  V30 4157 H 407.002 -0.696975 -1.26009 0
M  V30 4158 H 408.955 0.415531 -4.19346 0
M  V30 4159 H 407.679 1.01424 -3.10452 0
M  V30 4160 H 406.338 -1.08069 -3.50309 0
M  V30 4161 H 405.986 0.933989 -4.94253 0
M  V30 4162 H 405.686 -0.570437 -5.84825 0
M  V30 4163 H 407.21 0.328147 -6.09718 0
M  V30 4164 H 408.624 -1.84272 -5.42878 0
M  V30 4165 H 407.021 -2.63307 -5.39249 0
M  V30 4166 H 408.091 -2.76284 -3.98491 0
M  V30 4167 N 409.434 1.37368 -0.772513 0
M  V30 4168 C 410.364 2.32856 -0.173304 0
M  V30 4169 C 411.345 1.55818 0.682262 0
M  V30 4170 O 412.53 1.84052 0.619566 0
M  V30 4171 C 409.66 3.40048 0.706007 0
M  V30 4172 C 408.614 4.27973 -0.0483144 0
M  V30 4173 C 407.94 5.26184 0.950491 0
M  V30 4174 C 409.24 5.07665 -1.22776 0
M  V30 4175 H 410.934 2.83217 -0.971002 0
M  V30 4176 H 408.48 1.3617 -0.468377 0
M  V30 4177 H 410.433 4.05827 1.13501 0
M  V30 4178 H 409.157 2.88214 1.53623 0
M  V30 4179 H 407.816 3.63726 -0.458107 0
M  V30 4180 H 407.464 4.7063 1.77529 0
M  V30 4181 H 407.164 5.85872 0.450314 0
M  V30 4182 H 408.688 5.94838 1.37842 0
M  V30 4183 H 410.102 5.66578 -0.875366 0
M  V30 4184 H 408.499 5.76681 -1.66007 0
M  V30 4185 H 409.569 4.40294 -2.03149 0
M  V30 4186 N 410.912 0.523116 1.48665 0
M  V30 4187 C 412.189 -0.0775449 1.95446 0
M  V30 4188 C 412.569 -1.5197 1.4652 0
M  V30 4189 O 411.917 -2.17876 0.688657 0
M  V30 4190 C 412.127 0.0326135 3.48985 0
M  V30 4191 C 413.475 -0.130141 4.24401 0
M  V30 4192 O 414.499 -0.0415142 3.56176 0
M  V30 4193 O 413.358 -0.31491 5.45592 0
M  V30 4194 H 410.452 -0.0831012 0.822814 0
M  V30 4195 H 412.998 0.587227 1.59216 0
M  V30 4196 H 411.77 1.03748 3.77296 0
M  V30 4197 H 411.393 -0.671317 3.91892 0
M  V30 4198 N 412.39 -1.55475 0.257931 0
M  V30 4199 C 413.615 -2.04064 -0.370488 0
M  V30 4200 C 414.04 -1.13565 -1.49948 0
M  V30 4201 O 413.398 -0.130781 -1.80828 0
M  V30 4202 C 413.446 -3.50554 -0.845237 0
M  V30 4203 O 412.55 -3.63173 -1.95394 0
M  V30 4204 H 411.891 -0.659257 -0.0792243 0
M  V30 4205 H 414.421 -2.00903 0.387212 0
M  V30 4206 H 414.431 -3.91588 -1.14555 0
M  V30 4207 H 413.106 -4.15896 -0.0191259 0
M  V30 4208 H 411.683 -3.34039 -1.65748 0
M  V30 4209 N 413.868 0.0150385 -1.57593 0
M  V30 4210 C 414.798 1.01047 -2.10503 0
M  V30 4211 C 415.779 1.36816 -1.01071 0
M  V30 4212 O 416.964 1.45455 -1.28672 0
M  V30 4213 C 414.094 2.30708 -2.59598 0
M  V30 4214 C 413.048 2.09142 -3.73421 0
M  V30 4215 C 412.374 3.44685 -4.08774 0
M  V30 4216 C 413.674 1.46619 -5.01298 0
M  V30 4217 H 415.368 0.569978 -2.93925 0
M  V30 4218 H 412.914 0.272724 -1.41394 0
M  V30 4219 H 414.867 3.00687 -2.95238 0
M  V30 4220 H 413.591 2.76843 -1.73279 0
M  V30 4221 H 412.25 1.41592 -3.38153 0
M  V30 4222 H 411.898 3.88495 -3.195 0
M  V30 4223 H 411.598 3.31077 -4.8545 0
M  V30 4224 H 413.122 4.16004 -4.4696 0
M  V30 4225 H 414.536 2.06535 -5.34805 0
M  V30 4226 H 412.933 1.43544 -5.82679 0
M  V30 4227 H 414.003 0.433611 -4.82957 0
M  V30 4228 N 415.346 1.54954 0.287554 0
M  V30 4229 C 416.757 1.65732 0.859634 0
M  V30 4230 C 417.108 0.574767 1.87592 0
M  V30 4231 O 416.233 -0.286299 2.14498 0
M  V30 4232 C 416.828 3.00438 1.56597 0
M  V30 4233 C 415.387 3.13292 2.08627 0
M  V30 4234 C 414.534 2.61473 0.923416 0
M  V30 4235 H 417.485 1.5857 0.0642338 0
M  V30 4236 H 417.506 2.92613 2.43224 0
M  V30 4237 H 417.018 3.79207 0.826053 0
M  V30 4238 H 415.119 2.39268 2.85625 0
M  V30 4239 H 415.232 4.19647 2.31157 0
M  V30 4240 H 413.596 2.18264 1.31275 0
M  V30 4241 H 414.379 3.42733 0.197241 0
M  V30 4242 N 416.824 -0.551391 1.4764 0
M  V30 4243 C 418.049 -1.33837 1.58437 0
M  V30 4244 C 418.474 -1.866 0.237063 0
M  V30 4245 O 417.832 -1.6328 -0.787994 0
M  V30 4246 C 417.88 -2.48014 2.61766 0
M  V30 4247 O 416.984 -3.50419 2.1744 0
M  V30 4248 H 416.325 -0.397299 0.532024 0
M  V30 4249 H 418.855 -0.665759 1.93465 0
M  V30 4250 H 418.865 -2.94503 2.82369 0
M  V30 4251 H 417.54 -2.08969 3.5959 0
M  V30 4252 H 416.117 -3.10196 2.06961 0
M  V30 4253 N 418.302 -1.35869 -0.798587 0
M  V30 4254 C 419.579 -1.20145 -1.54352 0
M  V30 4255 C 419.959 0.216161 -2.0999 0
M  V30 4256 O 419.307 1.22068 -1.93162 0
M  V30 4257 C 419.517 -2.27602 -2.64572 0
M  V30 4258 C 420.865 -2.63811 -3.32699 0
M  V30 4259 O 421.889 -2.26576 -2.74849 0
M  V30 4260 O 420.748 -3.27866 -4.37226 0
M  V30 4261 H 417.842 -0.467248 -0.682355 0
M  V30 4262 H 420.388 -1.47574 -0.837859 0
M  V30 4263 H 419.16 -3.2265 -2.21388 0
M  V30 4264 H 418.783 -2.01488 -3.42766 0
M  V30 4265 N 419.78 1.02168 -1.19998 0
M  V30 4266 C 421.008 1.79296 -1.03249 0
M  V30 4267 C 421.423 1.84103 0.418502 0
M  V30 4268 O 420.78 1.29031 1.29063 0
M  V30 4269 C 420.831 3.24007 -1.60319 0
M  V30 4270 O 420.552 3.19512 -2.99739 0
M  V30 4271 C 422.053 4.17704 -1.48453 0
M  V30 4272 H 419.273 0.564016 -0.363493 0
M  V30 4273 H 421.817 1.28639 -1.58973 0
M  V30 4274 H 419.972 3.7183 -1.08727 0
M  V30 4275 H 420.386 4.10306 -3.26725 0
M  V30 4276 H 421.86 5.17104 -1.93153 0
M  V30 4277 H 422.337 4.37029 -0.436193 0
M  V30 4278 H 422.943 3.7576 -1.99211 0
M  V30 4279 N 421.258 1.00505 1.21394 0
M  V30 4280 C 422.674 0.717873 1.42544 0
M  V30 4281 C 422.874 -0.706936 1.88692 0
M  V30 4282 O 421.93 -1.47627 2.04847 0
M  V30 4283 C 423.243 1.73377 2.45684 0
M  V30 4284 C 424.791 1.75059 2.59467 0
M  V30 4285 C 425.266 2.75545 3.6584 0
M  V30 4286 N 426.757 2.74213 3.73311 0
M  V30 4287 C 427.492 3.48626 4.55245 0
M  V30 4288 N 426.988 4.32678 5.41075 0
M  V30 4289 N 428.781 3.37276 4.49668 0
M  V30 4290 H 420.932 1.92506 0.897503 0
M  V30 4291 H 423.195 0.830919 0.456375 0
M  V30 4292 H 422.901 2.75395 2.18748 0
M  V30 4293 H 422.775 1.53647 3.44489 0
M  V30 4294 H 425.162 0.737337 2.8574 0
M  V30 4295 H 425.243 1.98861 1.60897 0
M  V30 4296 H 424.887 3.77028 3.40313 0
M  V30 4297 H 424.817 2.49009 4.64007 0
M  V30 4298 H 427.308 2.13234 3.11993 0
M  V30 4299 H 427.621 4.86253 6.00648 0
M  V30 4300 H 425.966 4.3676 5.40616 0
M  V30 4301 H 429.157 2.71043 3.81646 0
M  V30 4302 H 429.33 3.95524 5.13288 0
M  V30 4303 N 422.737 -1.36956 0.779787 0
M  V30 4304 C 423.667 -2.32761 0.185651 0
M  V30 4305 C 424.648 -1.56177 -0.673989 0
M  V30 4306 O 425.833 -1.84378 -0.609797 0
M  V30 4307 C 422.963 -3.40418 -0.687964 0
M  V30 4308 C 421.917 -4.27941 0.0710102 0
M  V30 4309 C 421.243 -5.26681 -0.922573 0
M  V30 4310 C 422.543 -5.07006 1.25467 0
M  V30 4311 H 424.237 -2.82698 0.986008 0
M  V30 4312 H 421.783 -1.3592 0.475592 0
M  V30 4313 H 423.736 -4.06423 -1.11348 0
M  V30 4314 H 422.46 -2.89025 -1.52093 0
M  V30 4315 H 421.119 -3.63478 0.47739 0
M  V30 4316 H 420.767 -4.71565 -1.7503 0
M  V30 4317 H 420.467 -5.86103 -0.419237 0
M  V30 4318 H 421.991 -5.9556 -1.34686 0
M  V30 4319 H 423.405 -5.66105 0.905401 0
M  V30 4320 H 421.802 -5.75793 1.69063 0
M  V30 4321 H 422.872 -4.3921 2.05481 0
M  V30 4322 N 424.215 -0.530993 -1.48385 0
M  V30 4323 C 425.461 0.00274135 -2.028 0
M  V30 4324 C 425.794 1.33838 -1.40716 0
M  V30 4325 O 425.069 1.86465 -0.553277 0
M  V30 4326 C 425.352 0.123676 -3.59888 0
M  V30 4327 C 425.205 -1.2372 -4.3245 0
M  V30 4328 C 426.524 0.849967 -4.31814 0
M  V30 4329 H 423.643 -0.000477758 -0.737 0
M  V30 4330 H 426.285 -0.688217 -1.77098 0
M  V30 4331 H 424.435 0.712157 -3.81917 0
M  V30 4332 H 426.107 -1.86687 -4.21836 0
M  V30 4333 H 424.35 -1.81882 -3.93829 0
M  V30 4334 H 425.021 -1.10557 -5.40815 0
M  V30 4335 H 427.497 0.350572 -4.14621 0
M  V30 4336 H 426.373 0.903486 -5.41413 0
M  V30 4337 H 426.634 1.90047 -3.99167 0
M  V30 4338 N 425.693 1.55336 -0.266172 0
M  V30 4339 C 426.623 2.25146 0.618981 0
M  V30 4340 C 427.604 1.23845 1.16604 0
M  V30 4341 O 428.789 1.52544 1.20183 0
M  V30 4342 C 425.919 2.96572 1.80728 0
M  V30 4343 C 424.873 4.04726 1.39215 0
M  V30 4344 C 424.199 4.63678 2.66283 0
M  V30 4345 C 425.499 5.19407 0.548942 0
M  V30 4346 H 427.193 2.99377 0.0368116 0
M  V30 4347 H 424.739 1.43991 0.0162651 0
M  V30 4348 H 426.692 3.44116 2.43232 0
M  V30 4349 H 425.416 2.19861 2.41514 0
M  V30 4350 H 424.075 3.57979 0.790351 0
M  V30 4351 H 423.723 3.83646 3.25308 0
M  V30 4352 H 423.423 5.367 2.39222 0
M  V30 4353 H 424.947 5.13967 3.29651 0
M  V30 4354 H 426.361 5.63059 1.07876 0
M  V30 4355 H 424.758 5.98936 0.373593 0
M  V30 4356 H 425.828 4.8295 -0.434394 0
M  V30 4357 N 427.171 -0.0066808 1.57599 0
M  V30 4358 C 428.101 -0.999296 2.11036 0
M  V30 4359 C 429.082 -1.36278 1.01795 0
M  V30 4360 O 430.267 -1.4477 1.29442 0
M  V30 4361 C 427.397 -2.29328 2.60818 0
M  V30 4362 C 426.351 -2.07159 3.74525 0
M  V30 4363 C 425.677 -3.42512 4.10596 0
M  V30 4364 C 426.977 -1.43959 5.02069 0
M  V30 4365 H 428.671 -0.554382 2.94223 0
M  V30 4366 H 426.217 -0.265221 1.41536 0
M  V30 4367 H 428.17 -2.99117 2.96828 0
M  V30 4368 H 426.894 -2.7592 1.74745 0
M  V30 4369 H 425.553 -1.39797 3.38899 0
M  V30 4370 H 425.201 -3.86795 3.21556 0
M  V30 4371 H 424.901 -3.28498 4.87199 0
M  V30 4372 H 426.425 -4.13628 4.4916 0
M  V30 4373 H 427.839 -2.03696 5.35893 0
M  V30 4374 H 426.236 -1.40452 5.83432 0
M  V30 4375 H 427.306 -0.407992 4.83181 0
M  V30 4376 N 428.649 -1.55105 -0.279332 0
M  V30 4377 C 429.597 -1.88333 -1.36505 0
M  V30 4378 C 430.591 -0.759043 -1.51443 0
M  V30 4379 O 431.797 -0.943312 -1.53302 0
M  V30 4380 H 428.172 -0.59766 -0.456406 0
M  V30 4381 H 430.143 -2.79041 -1.05728 0
M  V30 4382 C 428.892 -2.16628 -2.7197 0
M  V30 4383 H 428.215 -3.02624 -2.61264 0
M  V30 4384 H 429.655 -2.43803 -3.46895 0
M  V30 4385 C 428.114 -0.971807 -3.22579 0
M  V30 4386 O 428.644 -0.203228 -4.01186 0
M  V30 4387 N 426.85 -0.771238 -2.80179 0
M  V30 4388 H 426.397 -1.39792 -2.1637 0
M  V30 4389 H 426.355 0.0263667 -3.14389 0
M  V30 4390 N 430.127 0.543554 -1.4793 0
M  V30 4391 C 431.09 1.63156 -1.60975 0
M  V30 4392 C 432.09 1.53346 -0.483899 0
M  V30 4393 O 433.28 1.5726 -0.749339 0
M  V30 4394 C 430.412 3.02743 -1.56716 0
M  V30 4395 H 431.605 1.52934 -2.57975 0
M  V30 4396 H 429.158 0.764557 -1.36324 0
M  V30 4397 H 429.893 3.18484 -0.611418 0
M  V30 4398 H 429.678 3.11272 -2.38438 0
M  V30 4399 H 431.168 3.81871 -1.6901 0
M  V30 4400 N 431.605 1.3629 0.791371 0
M  V30 4401 C 432.854 1.29742 1.54434 0
M  V30 4402 C 433.167 -0.121729 1.95221 0
M  V30 4403 O 434.373 -0.309579 2.69729 0
M  V30 4404 C 432.829 2.27623 2.78776 0
M  V30 4405 C 432.437 3.74963 2.45166 0
M  V30 4406 C 434.181 2.30047 3.56761 0
M  V30 4407 C 432.088 4.64626 3.65891 0
M  V30 4408 H 431.018 0.482113 0.579727 0
M  V30 4409 H 433.669 1.61642 0.868565 0
M  V30 4410 H 432.051 1.88714 3.48142 0
M  V30 4411 H 433.225 4.22596 1.83709 0
M  V30 4412 H 431.54 3.75295 1.80396 0
M  V30 4413 H 434.137 2.94247 4.46456 0
M  V30 4414 H 434.48 1.30846 3.95203 0
M  V30 4415 H 435.013 2.67563 2.94372 0
M  V30 4416 H 431.752 5.64883 3.32547 0
M  V30 4417 H 431.272 4.2171 4.26521 0
M  V30 4418 H 432.951 4.80801 4.32943 0
M  V30 4419 N 433.083 -1.0153 1.20538 0
M  V30 4420 C 434.313 -1.78487 1.04048 0
M  V30 4421 C 434.721 -1.84631 -0.413292 0
M  V30 4422 O 434.064 -1.29919 -1.29872 0
M  V30 4423 C 434.126 -3.24367 1.55003 0
M  V30 4424 C 433.79 -3.41827 3.0332 0
M  V30 4425 C 434.787 -3.30941 4.00966 0
M  V30 4426 C 432.472 -3.67602 3.42307 0
M  V30 4427 C 434.466 -3.45577 5.35589 0
M  V30 4428 C 432.153 -3.81881 4.77085 0
M  V30 4429 C 433.151 -3.70874 5.73534 0
M  V30 4430 O 432.839 -3.84714 7.05868 0
M  V30 4431 H 432.571 -0.568108 0.366373 0
M  V30 4432 H 435.125 -1.28677 1.60098 0
M  V30 4433 H 433.355 -3.75266 0.933397 0
M  V30 4434 H 435.044 -3.82963 1.34514 0
M  V30 4435 H 435.81 -3.10964 3.72191 0
M  V30 4436 H 431.689 -3.75256 2.67776 0
M  V30 4437 H 435.233 -3.36902 6.10854 0
M  V30 4438 H 431.13 -4.01359 5.0555 0
M  V30 4439 H 431.898 -4.01724 7.13134 0
M  V30 4440 N 434.561 -1.01147 -1.20859 0
M  V30 4441 C 435.491 -0.597663 -2.25722 0
M  V30 4442 C 436.472 0.384744 -1.65692 0
M  V30 4443 O 437.657 0.271303 -1.92296 0
M  V30 4444 C 434.787 0.0700149 -3.47229 0
M  V30 4445 C 433.741 -0.832843 -4.19819 0
M  V30 4446 C 433.067 -0.0312202 -5.34691 0
M  V30 4447 C 434.367 -2.1385 -4.76514 0
M  V30 4448 H 436.061 -1.47423 -2.60589 0
M  V30 4449 H 433.607 -0.710301 -1.25263 0
M  V30 4450 H 435.56 0.37103 -4.19763 0
M  V30 4451 H 434.284 0.981259 -3.11511 0
M  V30 4452 H 432.943 -1.11778 -3.49144 0
M  V30 4453 H 432.591 0.881515 -4.95215 0
M  V30 4454 H 432.291 -0.632434 -5.84187 0
M  V30 4455 H 433.815 0.26346 -6.10031 0
M  V30 4456 H 435.229 -1.9002 -5.40893 0
M  V30 4457 H 433.626 -2.69012 -5.36426 0
M  V30 4458 H 434.696 -2.80495 -3.95538 0
M  V30 4459 N 436.039 1.36541 -0.78704 0
M  V30 4460 C 437.264 2.0409 -0.369053 0
M  V30 4461 C 437.689 1.58957 1.00569 0
M  V30 4462 O 437.047 0.756926 1.64743 0
M  V30 4463 C 437.095 3.57924 -0.438466 0
M  V30 4464 O 436.199 4.08642 0.555479 0
M  V30 4465 H 435.54 0.645142 -0.157122 0
M  V30 4466 H 438.07 1.74545 -1.06749 0
M  V30 4467 H 438.08 4.06887 -0.301218 0
M  V30 4468 H 436.755 3.90127 -1.44132 0
M  V30 4469 H 435.332 3.70958 0.380088 0
M  V30 4470 N 437.518 0.538854 1.48102 0
M  V30 4471 C 438.481 -0.208395 2.28251 0
M  V30 4472 C 439.481 -0.859656 1.35892 0
M  V30 4473 O 440.671 -0.71834 1.58699 0
M  V30 4474 C 437.803 -1.30252 3.15035 0
M  V30 4475 H 438.996 0.495407 2.9578 0
M  V30 4476 H 436.549 0.295112 1.53489 0
M  V30 4477 H 437.284 -2.0393 2.52157 0
M  V30 4478 H 437.069 -0.840551 3.82985 0
M  V30 4479 H 438.559 -1.82787 3.75471 0
M  V30 4480 N 438.996 -1.55193 0.274407 0
M  V30 4481 C 439.943 -2.225 -0.613374 0
M  V30 4482 C 440.913 -1.19823 -1.15029 0
M  V30 4483 O 442.098 -1.48362 -1.19973 0
M  V30 4484 C 439.238 -2.94927 -1.79199 0
M  V30 4485 C 438.351 -4.12322 -1.28899 0
M  V30 4486 C 437.486 -4.72394 -2.42934 0
M  V30 4487 C 436.525 -5.81984 -1.89634 0
M  V30 4488 N 435.662 -6.36123 -2.9714 0
M  V30 4489 H 440.502 -2.97982 -0.032756 0
M  V30 4490 H 438.039 -1.47099 -0.00440146 0
M  V30 4491 H 439.997 -3.35134 -2.48478 0
M  V30 4492 H 438.627 -2.2187 -2.34465 0
M  V30 4493 H 437.679 -3.7724 -0.489327 0
M  V30 4494 H 438.991 -4.91355 -0.858587 0
M  V30 4495 H 438.145 -5.15317 -3.20208 0
M  V30 4496 H 436.884 -3.92636 -2.8929 0
M  V30 4497 H 435.889 -5.38511 -1.1084 0
M  V30 4498 H 437.114 -6.6361 -1.44215 0
M  V30 4499 H 435.06 -5.59259 -3.42878 0
M  V30 4500 H 434.977 -7.10427 -2.58515 0
M  V30 4501 H 436.245 -6.83704 -3.74391 0
M  V30 4502 N 440.474 -0.00167713 -1.576 0
M  V30 4503 C 441.72 0.67819 -1.91761 0
M  V30 4504 C 442.075 1.71288 -0.876256 0
M  V30 4505 O 441.368 1.91276 0.111333 0
M  V30 4506 C 441.562 1.36189 -3.30435 0
M  V30 4507 C 441.391 0.394938 -4.47962 0
M  V30 4508 C 440.161 0.00472875 -5.053 0
M  V30 4509 C 442.359 -0.339521 -5.13178 0
M  V30 4510 N 440.341 -0.960257 -6.06343 0
M  V30 4511 C 441.712 -1.15914 -6.09068 0
M  V30 4512 C 443.767 -0.403177 -4.96265 0
M  V30 4513 C 442.47 -2.03661 -6.89866 0
M  V30 4514 C 444.496 -1.26788 -5.77649 0
M  V30 4515 C 443.858 -2.07535 -6.73134 0
M  V30 4516 H 439.957 0.221317 -0.750028 0
M  V30 4517 H 442.541 -0.0624182 -1.946 0
M  V30 4518 H 440.712 2.07278 -3.28467 0
M  V30 4519 H 442.444 1.99658 -3.52021 0
M  V30 4520 H 439.199 0.373452 -4.72125 0
M  V30 4521 H 439.623 -1.43817 -6.61548 0
M  V30 4522 H 444.265 0.206818 -4.22294 0
M  V30 4523 H 441.983 -2.65727 -7.63161 0
M  V30 4524 H 445.569 -1.32107 -5.66603 0
M  V30 4525 H 444.449 -2.73363 -7.35012 0
M  V30 4526 N 441.952 1.55251 0.271103 0
M  V30 4527 C 442.899 1.88261 1.33516 0
M  V30 4528 C 443.869 0.734296 1.48988 0
M  V30 4529 O 445.054 0.985741 1.63364 0
M  V30 4530 C 442.194 2.16168 2.69008 0
M  V30 4531 C 441.307 3.43678 2.61743 0
M  V30 4532 C 440.442 3.61276 3.89427 0
M  V30 4533 C 439.481 4.82472 3.7668 0
M  V30 4534 N 438.618 4.96717 4.96202 0
M  V30 4535 H 443.458 2.79015 1.04665 0
M  V30 4536 H 440.995 1.38137 0.505618 0
M  V30 4537 H 442.953 2.30349 3.47844 0
M  V30 4538 H 441.583 1.28646 2.96057 0
M  V30 4539 H 440.635 3.37959 1.74607 0
M  V30 4540 H 441.947 4.3265 2.48224 0
M  V30 4541 H 441.101 3.75284 4.76704 0
M  V30 4542 H 439.84 2.70492 4.05814 0
M  V30 4543 H 438.845 4.68465 2.87786 0
M  V30 4544 H 440.07 5.74692 3.61809 0
M  V30 4545 H 438.016 4.08865 5.12997 0
M  V30 4546 H 437.933 5.79738 4.85222 0
M  V30 4547 H 439.201 5.15113 5.85046 0
M  V30 4548 N 443.43 -0.535701 1.48216 0
M  V30 4549 C 444.658 -1.31671 1.59594 0
M  V30 4550 C 445.073 -1.87083 0.254056 0
M  V30 4551 O 444.43 -1.66112 -0.755854 0
M  V30 4552 C 444.481 -2.47158 2.63809 0
M  V30 4553 O 444.202 -1.94032 3.92789 0
M  V30 4554 C 445.703 -3.39062 2.85573 0
M  V30 4555 H 442.923 -0.400623 0.538277 0
M  V30 4556 H 445.467 -0.646827 1.94001 0
M  V30 4557 H 443.622 -3.10043 2.32276 0
M  V30 4558 H 444.036 -2.69585 4.49916 0
M  V30 4559 H 445.51 -4.16459 3.62306 0
M  V30 4560 H 445.987 -3.93941 1.94184 0
M  V30 4561 H 446.593 -2.81975 3.18387 0
M  V30 4562 N 444.908 -1.36708 -0.784132 0
M  V30 4563 C 446.136 -1.34398 -1.57305 0
M  V30 4564 C 446.551 0.0735577 -1.88657 0
M  V30 4565 O 445.908 1.03193 -1.50524 0
M  V30 4566 C 445.959 -2.17053 -2.89085 0
M  V30 4567 O 445.68 -3.53281 -2.59083 0
M  V30 4568 C 447.181 -2.22583 -3.83369 0
M  V30 4569 H 444.401 -0.460819 -0.487736 0
M  V30 4570 H 446.945 -1.79879 -0.972819 0
M  V30 4571 H 445.1 -1.75113 -3.45564 0
M  V30 4572 H 445.514 -3.9647 -3.43383 0
M  V30 4573 H 446.988 -2.84763 -4.72878 0
M  V30 4574 H 447.465 -1.23075 -4.21603 0
M  V30 4575 H 448.071 -2.64781 -3.32823 0
M  V30 4576 N 446.386 1.0089 -1.21074 0
M  V30 4577 C 447.633 1.74607 -1.0256 0
M  V30 4578 C 447.961 1.89426 0.44136 0
M  V30 4579 O 447.216 1.42266 1.34384 0
M  V30 4580 C 447.515 3.16335 -1.66334 0
M  V30 4581 C 447.181 3.21474 -3.16173 0
M  V30 4582 C 445.843 3.22583 -3.57062 0
M  V30 4583 C 448.195 3.19025 -4.12156 0
M  V30 4584 C 445.523 3.18925 -4.92446 0
M  V30 4585 C 447.875 3.16909 -5.47496 0
M  V30 4586 C 446.539 3.16326 -5.87787 0
M  V30 4587 H 445.809 0.638933 -0.375294 0
M  V30 4588 H 448.456 1.18274 -1.50611 0
M  V30 4589 H 446.761 3.75876 -1.10566 0
M  V30 4590 H 448.458 3.72083 -1.49516 0
M  V30 4591 H 445.048 3.2135 -2.83605 0
M  V30 4592 H 449.232 3.17332 -3.81595 0
M  V30 4593 H 444.488 3.16809 -5.22917 0
M  V30 4594 H 448.662 3.13968 -6.21609 0
M  V30 4595 H 446.289 3.13246 -6.92662 0
M  V30 4596 N 447.864 1.01787 1.20321 0
M  V30 4597 C 449.141 0.622978 1.85414 0
M  V30 4598 C 449.521 -0.898887 1.91006 0
M  V30 4599 O 448.869 -1.79112 1.41884 0
M  V30 4600 C 449.079 1.27226 3.24984 0
M  V30 4601 C 450.427 1.3885 4.01255 0
M  V30 4602 O 451.451 1.22857 3.34342 0
M  V30 4603 O 450.31 1.64705 5.2109 0
M  V30 4604 H 447.404 0.215116 0.798533 0
M  V30 4605 H 449.95 1.11533 1.27901 0
M  V30 4606 H 448.722 2.31209 3.15687 0
M  V30 4607 H 448.345 0.767069 3.90131 0
M  V30 4608 N 449.342 -1.36122 0.79427 0
M  V30 4609 C 450.753 -1.81646 0.431446 0
M  V30 4610 C 451.104 -1.66043 -1.04518 0
M  V30 4611 O 450.229 -1.1841 -1.8113 0
M  V30 4612 C 450.824 -3.29785 0.776341 0
M  V30 4613 C 449.383 -3.73501 0.466282 0
M  V30 4614 C 448.53 -2.58313 1.00844 0
M  V30 4615 H 451.481 -1.24274 0.986995 0
M  V30 4616 H 451.502 -3.80437 0.0692413 0
M  V30 4617 H 451.014 -3.4111 1.8511 0
M  V30 4618 H 449.115 -3.67733 -0.600245 0
M  V30 4619 H 449.228 -4.68754 0.990288 0
M  V30 4620 H 447.592 -2.5102 0.431406 0
M  V30 4621 H 448.375 -2.72421 2.08906 0
M  V30 4622 N 450.82 -0.546701 -1.47814 0
M  V30 4623 C 451.767 0.206854 -2.29871 0
M  V30 4624 C 452.737 0.918235 -1.38411 0
M  V30 4625 O 453.922 0.915991 -1.67375 0
M  V30 4626 C 451.062 1.23746 -3.22151 0
M  V30 4627 C 450.175 0.533216 -4.28697 0
M  V30 4628 C 449.31 1.5482 -5.08138 0
M  V30 4629 C 448.349 0.828347 -6.06469 0
M  V30 4630 N 447.486 1.78966 -6.78908 0
M  V30 4631 H 452.326 -0.499037 -2.93792 0
M  V30 4632 H 449.863 -0.25793 -1.44821 0
M  V30 4633 H 451.821 1.84746 -3.74065 0
M  V30 4634 H 450.451 1.91151 -2.60117 0
M  V30 4635 H 449.503 -0.191089 -3.7992 0
M  V30 4636 H 450.815 -0.0311987 -4.9879 0
M  V30 4637 H 449.969 2.23202 -5.6415 0
M  V30 4638 H 448.708 2.14652 -4.37922 0
M  V30 4639 H 447.713 0.130539 -5.49645 0
M  V30 4640 H 448.938 0.235907 -6.7869 0
M  V30 4641 H 446.884 2.37675 -6.1143 0
M  V30 4642 H 446.801 1.27712 -7.45135 0
M  V30 4643 H 448.069 2.46496 -7.395 0
M  V30 4644 N 452.299 1.55045 -0.282633 0
M  V30 4645 C 453.246 2.22822 0.601566 0
M  V30 4646 C 454.216 1.20431 1.14392 0
M  V30 4647 O 455.401 1.48996 1.19184 0
M  V30 4648 C 452.541 2.95873 1.77632 0
M  V30 4649 C 451.654 4.12999 1.26711 0
M  V30 4650 C 450.789 4.73676 2.40426 0
M  V30 4651 C 449.828 5.82981 1.86545 0
M  V30 4652 N 448.965 6.3769 2.93762 0
M  V30 4653 H 453.805 2.97995 0.0169528 0
M  V30 4654 H 451.342 1.471 -0.00339964 0
M  V30 4655 H 453.3 3.36447 2.46697 0
M  V30 4656 H 451.93 2.2311 2.33285 0
M  V30 4657 H 450.982 3.77494 0.469314 0
M  V30 4658 H 452.294 4.91803 0.832518 0
M  V30 4659 H 451.448 5.17008 3.17471 0
M  V30 4660 H 450.187 3.94164 2.87203 0
M  V30 4661 H 449.192 5.39092 1.07983 0
M  V30 4662 H 450.417 6.64366 1.40694 0
M  V30 4663 H 448.363 5.61069 3.39908 0
M  V30 4664 H 448.28 7.11788 2.54744 0
M  V30 4665 H 449.548 6.8568 3.7076 0
M  V30 4666 N 453.777 0.010035 1.57597 0
M  V30 4667 C 455.005 -0.683413 1.95287 0
M  V30 4668 C 455.42 -1.66747 0.885481 0
M  V30 4669 O 454.777 -1.82003 -0.134629 0
M  V30 4670 C 454.828 -1.40652 3.33015 0
M  V30 4671 O 454.549 -0.461916 4.35658 0
M  V30 4672 C 456.05 -2.19356 3.85225 0
M  V30 4673 H 453.27 -0.189708 0.643624 0
M  V30 4674 H 455.814 0.0641359 2.04399 0
M  V30 4675 H 453.969 -2.10562 3.2518 0
M  V30 4676 H 454.383 -0.973215 5.15392 0
M  V30 4677 H 455.857 -2.65433 4.83993 0
M  V30 4678 H 456.334 -3.02457 3.18459 0
M  V30 4679 H 456.94 -1.54442 3.96267 0
M  V30 4680 N 455.255 -1.55392 -0.262866 0
M  V30 4681 C 456.671 -1.47459 -0.610582 0
M  V30 4682 C 456.871 -0.697031 -1.8906 0
M  V30 4683 O 455.927 -0.219952 -2.5154 0
M  V30 4684 C 457.24 -2.91751 -0.728131 0
M  V30 4685 C 458.788 -3.02027 -0.821517 0
M  V30 4686 C 459.263 -4.47594 -0.97076 0
M  V30 4687 N 460.754 -4.51465 -1.03603 0
M  V30 4688 C 461.489 -5.61326 -1.17049 0
M  V30 4689 N 460.985 -6.81032 -1.2715 0
M  V30 4690 N 462.778 -5.49089 -1.20239 0
M  V30 4691 H 454.929 -2.04395 0.577632 0
M  V30 4692 H 457.192 -0.927287 0.197086 0
M  V30 4693 H 456.898 -3.51413 0.142132 0
M  V30 4694 H 456.772 -3.4134 -1.6052 0
M  V30 4695 H 459.159 -2.42456 -1.68224 0
M  V30 4696 H 459.24 -2.55674 0.0803688 0
M  V30 4697 H 458.884 -5.07771 -0.114655 0
M  V30 4698 H 458.814 -4.91613 -1.88745 0
M  V30 4699 H 461.305 -3.6524 -0.96996 0
M  V30 4700 H 461.618 -7.60511 -1.37271 0
M  V30 4701 H 459.963 -6.83824 -1.24136 0
M  V30 4702 H 463.154 -4.54507 -1.11985 0
M  V30 4703 H 463.327 -6.34749 -1.30373 0
M  V30 4704 N 456.733 0.527833 -1.48498 0
M  V30 4705 C 457.666 1.64892 -1.57753 0
M  V30 4706 C 458.644 1.5687 -0.427867 0
M  V30 4707 O 459.828 1.77311 -0.639764 0
M  V30 4708 C 456.955 3.03301 -1.50752 0
M  V30 4709 C 456.001 3.29675 -2.70586 0
M  V30 4710 S 456.834 3.15712 -4.32535 0
M  V30 4711 C 457.99 4.56564 -4.28136 0
M  V30 4712 H 458.223 1.56792 -2.52594 0
M  V30 4713 H 455.756 0.710959 -1.37057 0
M  V30 4714 H 457.714 3.83123 -1.474 0
M  V30 4715 H 456.375 3.08839 -0.572454 0
M  V30 4716 H 455.568 4.3065 -2.61833 0
M  V30 4717 H 455.17 2.57526 -2.71212 0
M  V30 4718 H 457.462 5.48126 -3.98201 0
M  V30 4719 H 458.405 4.70371 -5.29298 0
M  V30 4720 H 458.813 4.35987 -3.58574 0
M  V30 4721 N 458.211 1.37122 0.776871 0
M  V30 4722 C 459.121 1.34651 1.9211 0
M  V30 4723 C 460.137 0.246824 1.7224 0
M  V30 4724 O 461.313 0.48134 1.95563 0
M  V30 4725 C 458.378 1.14748 3.2716 0
M  V30 4726 C 457.439 2.34308 3.5972 0
M  V30 4727 C 456.672 2.15345 4.88326 0
M  V30 4728 O 456.895 1.13507 5.58992 0
M  V30 4729 O 455.829 3.03414 5.1983 0
M  V30 4730 H 459.655 2.31013 1.97146 0
M  V30 4731 H 457.24 1.17799 0.918901 0
M  V30 4732 H 459.122 1.05616 4.0795 0
M  V30 4733 H 457.797 0.214562 3.22988 0
M  V30 4734 H 456.704 2.49011 2.79185 0
M  V30 4735 H 458.037 3.26149 3.68629 0
M  V30 4736 N 459.689 -1.00246 1.21608 0
M  V30 4737 C 461.1 -1.55511 1.03312 0
M  V30 4738 C 461.451 -1.91946 -0.406332 0
M  V30 4739 O 460.576 -1.73753 -1.28992 0
M  V30 4740 C 461.171 -2.82576 1.86913 0
M  V30 4741 C 459.73 -3.34318 1.72941 0
M  V30 4742 C 458.877 -2.07487 1.83968 0
M  V30 4743 H 461.828 -0.824638 1.35593 0
M  V30 4744 H 461.849 -3.54559 1.38087 0
M  V30 4745 H 461.361 -2.56026 2.91672 0
M  V30 4746 H 459.462 -3.65797 0.70877 0
M  V30 4747 H 459.575 -4.05566 2.55055 0
M  V30 4748 H 457.939 -2.20603 1.27304 0
M  V30 4749 H 458.722 -1.83346 2.9024 0
M  V30 4750 N 461.167 -1.02423 -1.1978 0
M  V30 4751 C 462.414 -0.717988 -1.89344 0
M  V30 4752 C 462.742 0.753036 -1.79331 0
M  V30 4753 O 461.997 1.56355 -1.17692 0
M  V30 4754 C 462.296 -1.1088 -3.39765 0
M  V30 4755 C 461.962 -2.57731 -3.6998 0
M  V30 4756 C 460.624 -2.97854 -3.77937 0
M  V30 4757 C 462.976 -3.52763 -3.83677 0
M  V30 4758 C 460.304 -4.31931 -3.97054 0
M  V30 4759 C 462.656 -4.86538 -4.04306 0
M  V30 4760 C 461.32 -5.26356 -4.10494 0
M  V30 4761 H 460.59 -0.26273 -0.692859 0
M  V30 4762 H 463.237 -1.28623 -1.41875 0
M  V30 4763 H 461.542 -0.459094 -3.89101 0
M  V30 4764 H 463.239 -0.849432 -3.919 0
M  V30 4765 H 459.829 -2.25646 -3.64393 0
M  V30 4766 H 464.013 -3.2292 -3.76877 0
M  V30 4767 H 459.269 -4.62324 -4.00083 0
M  V30 4768 H 463.443 -5.60093 -4.13846 0
M  V30 4769 H 461.07 -6.3026 -4.2506 0
M  V30 4770 N 462.645 1.35699 -0.801477 0
M  V30 4771 C 463.595 2.2728 -0.181073 0
M  V30 4772 C 464.579 1.47533 0.642098 0
M  V30 4773 O 465.771 1.69785 0.500193 0
M  V30 4774 C 462.9 3.36626 0.673612 0
M  V30 4775 C 461.986 4.23802 -0.159008 0
M  V30 4776 N 462.377 4.90879 -1.2195 0
M  V30 4777 C 460.675 4.45959 0.0602005 0
M  V30 4778 C 461.376 5.5546 -1.72738 0
M  V30 4779 N 460.352 5.33663 -1.03465 0
M  V30 4780 H 464.154 2.76632 -0.992582 0
M  V30 4781 H 461.668 1.49166 -0.642127 0
M  V30 4782 H 463.665 4.01179 1.13408 0
M  V30 4783 H 462.325 2.88828 1.48353 0
M  V30 4784 H 463.336 4.92497 -1.60209 0
M  V30 4785 H 460.013 4.08969 0.839664 0
M  V30 4786 H 461.403 6.18991 -2.61342 0
M  V30 4787 N 464.123 0.554532 1.47522 0
M  V30 4788 C 465.37 0.029479 2.02479 0
M  V30 4789 C 465.698 -1.31929 1.42916 0
M  V30 4790 O 464.953 -1.87112 0.573385 0
M  V30 4791 C 465.252 -0.115927 3.57212 0
M  V30 4792 C 464.918 1.16161 4.3568 0
M  V30 4793 C 463.58 1.51168 4.56839 0
M  V30 4794 C 465.932 2.0083 4.80954 0
M  V30 4795 C 463.26 2.70696 5.2052 0
M  V30 4796 C 465.612 3.19559 5.45953 0
M  V30 4797 C 464.276 3.54882 5.65345 0
M  V30 4798 H 463.546 0.0107871 0.740921 0
M  V30 4799 H 466.193 0.725506 1.77225 0
M  V30 4800 H 464.498 -0.894902 3.81443 0
M  V30 4801 H 466.195 -0.53749 3.97381 0
M  V30 4802 H 462.785 0.879026 4.19489 0
M  V30 4803 H 466.969 1.75093 4.64388 0
M  V30 4804 H 462.225 2.98236 5.33728 0
M  V30 4805 H 466.399 3.85456 5.79997 0
M  V30 4806 H 464.026 4.47596 6.1446 0
M  V30 4807 N 465.601 -1.54893 0.290851 0
M  V30 4808 C 466.548 -2.23138 -0.58974 0
M  V30 4809 C 467.518 -1.21036 -1.13752 0
M  V30 4810 O 468.703 -1.49626 -1.18392 0
M  V30 4811 C 465.843 -2.96811 -1.76061 0
M  V30 4812 C 464.956 -4.13665 -1.24519 0
M  V30 4813 C 464.091 -4.74944 -2.3791 0
M  V30 4814 C 463.13 -5.83963 -1.83451 0
M  V30 4815 N 462.267 -6.39239 -2.90376 0
M  V30 4816 H 467.107 -2.98 -0.00114915 0
M  V30 4817 H 464.644 -1.47096 0.0112006 0
M  V30 4818 H 466.602 -3.37751 -2.44909 0
M  V30 4819 H 465.232 -2.24344 -2.32098 0
M  V30 4820 H 464.284 -3.77737 -0.449288 0
M  V30 4821 H 465.596 -4.92238 -0.806424 0
M  V30 4822 H 464.75 -5.18684 -3.14724 0
M  V30 4823 H 463.489 -3.95682 -2.85109 0
M  V30 4824 H 462.494 -5.39657 -1.05122 0
M  V30 4825 H 463.719 -6.65103 -1.37169 0
M  V30 4826 H 461.665 -5.62864 -3.36927 0
M  V30 4827 H 461.582 -7.13129 -2.50965 0
M  V30 4828 H 462.85 -6.87637 -3.67118 0
M  V30 4829 N 467.08 -0.0183926 -1.57589 0
M  V30 4830 C 468.028 0.985111 -2.10709 0
M  V30 4831 C 469.022 1.34397 -1.0312 0
M  V30 4832 O 470.228 1.32746 -1.21567 0
M  V30 4833 H 466.603 0.335418 -0.673052 0
M  V30 4834 H 468.574 0.511689 -2.9398 0
M  V30 4835 C 467.323 2.26202 -2.64061 0
M  V30 4836 H 466.646 1.9946 -3.4649 0
M  V30 4837 H 468.086 2.94652 -3.04887 0
M  V30 4838 C 466.545 2.98444 -1.5631 0
M  V30 4839 O 467.075 3.90142 -0.956674 0
M  V30 4840 N 465.281 2.6059 -1.28612 0
M  V30 4841 H 464.828 1.86101 -1.78112 0
M  V30 4842 H 464.786 3.09238 -0.567406 0
M  V30 4843 N 468.558 1.5553 0.254621 0
M  V30 4844 C 469.783 1.81383 1.00573 0
M  V30 4845 C 470.208 0.594419 1.78461 0
M  V30 4846 O 469.566 -0.456403 1.75461 0
M  V30 4847 C 469.614 3.04892 1.92545 0
M  V30 4848 O 468.718 2.81266 3.01601 0
M  V30 4849 H 468.059 0.598969 0.286587 0
M  V30 4850 H 470.589 2.02703 0.277952 0
M  V30 4851 H 470.599 3.34119 2.34155 0
M  V30 4852 H 469.274 3.93287 1.3527 0
M  V30 4853 H 467.851 2.63185 2.64174 0
M  V30 4854 N 470.036 -0.519951 1.48776 0
M  V30 4855 C 471.282 -1.27711 1.57536 0
M  V30 4856 C 471.615 -1.92547 0.252866 0
M  V30 4857 O 470.89 -1.7979 -0.742021 0
M  V30 4858 C 471.173 -2.35875 2.72094 0
M  V30 4859 C 471.026 -1.75664 4.1408 0
M  V30 4860 C 472.345 -3.37575 2.82367 0
M  V30 4861 H 469.464 -0.462971 0.573434 0
M  V30 4862 H 472.106 -0.578194 1.80989 0
M  V30 4863 H 470.256 -2.95488 2.52228 0
M  V30 4864 H 471.928 -1.20025 4.45412 0
M  V30 4865 H 470.171 -1.06154 4.20611 0
M  V30 4866 H 470.842 -2.54029 4.90075 0
M  V30 4867 H 473.318 -2.87929 3.00393 0
M  V30 4868 H 472.194 -4.1064 3.64233 0
M  V30 4869 H 472.455 -3.98743 1.90936 0
M  V30 4870 N 471.514 -1.37532 -0.769588 0
M  V30 4871 C 472.763 -1.32183 -1.5235 0
M  V30 4872 C 473.076 0.0906555 -1.9539 0
M  V30 4873 O 474.282 0.266628 -2.70188 0
M  V30 4874 C 472.738 -2.32029 -2.75119 0
M  V30 4875 C 472.346 -3.78816 -2.3917 0
M  V30 4876 C 474.09 -2.35694 -3.53056 0
M  V30 4877 C 471.997 -4.70388 -3.58453 0
M  V30 4878 H 470.927 -0.491275 -0.571984 0
M  V30 4879 H 473.578 -1.63004 -0.842739 0
M  V30 4880 H 471.96 -1.94229 -3.45096 0
M  V30 4881 H 473.134 -4.25466 -1.76962 0
M  V30 4882 H 471.449 -3.78117 -1.74402 0
M  V30 4883 H 474.046 -3.01312 -4.41718 0
M  V30 4884 H 474.389 -1.37117 -3.93071 0
M  V30 4885 H 474.922 -2.72212 -2.90078 0
M  V30 4886 H 471.661 -5.70102 -3.23518 0
M  V30 4887 H 471.181 -4.28442 -4.19758 0
M  V30 4888 H 472.86 -4.87628 -4.25239 0
M  V30 4889 N 472.992 0.995999 -1.22138 0
M  V30 4890 C 473.939 2.08551 -0.988687 0
M  V30 4891 C 474.909 1.65864 0.0885021 0
M  V30 4892 O 476.094 1.90704 -0.0604589 0
M  V30 4893 C 473.234 3.40374 -0.569191 0
M  V30 4894 C 472.347 3.96421 -1.71681 0
M  V30 4895 C 471.482 5.1639 -1.2456 0
M  V30 4896 C 470.521 5.64567 -2.36497 0
M  V30 4897 N 469.658 6.75777 -1.90445 0
M  V30 4898 H 474.498 2.2779 -1.92135 0
M  V30 4899 H 472.035 1.1168 -0.957388 0
M  V30 4900 H 473.993 4.16068 -0.307166 0
M  V30 4901 H 472.623 3.21145 0.326462 0
M  V30 4902 H 471.675 3.17628 -2.09324 0
M  V30 4903 H 472.987 4.2816 -2.55891 0
M  V30 4904 H 472.141 5.99362 -0.940774 0
M  V30 4905 H 470.88 4.86266 -0.373662 0
M  V30 4906 H 469.885 4.80185 -2.67772 0
M  V30 4907 H 471.11 5.96716 -3.24202 0
M  V30 4908 H 469.056 6.47443 -1.05609 0
M  V30 4909 H 468.973 7.06818 -2.68223 0
M  V30 4910 H 470.241 7.62262 -1.63022 0
M  V30 4911 N 474.47 1.03057 1.19235 0
M  V30 4912 C 475.716 0.729098 1.89241 0
M  V30 4913 C 476.049 -0.740573 1.79525 0
M  V30 4914 O 475.324 -1.53946 1.18874 0
M  V30 4915 C 475.607 1.18304 3.40112 0
M  V30 4916 C 475.46 2.71406 3.5869 0
M  V30 4917 C 476.779 0.765161 4.33397 0
M  V30 4918 H 473.898 0.266338 0.687192 0
M  V30 4919 H 476.54 1.28079 1.40341 0
M  V30 4920 H 474.69 0.713672 3.81889 0
M  V30 4921 H 476.362 3.26303 3.26074 0
M  V30 4922 H 474.605 3.11717 3.01687 0
M  V30 4923 H 475.276 2.98225 4.64506 0
M  V30 4924 H 477.752 1.16889 3.99345 0
M  V30 4925 H 476.628 1.11065 5.37546 0
M  V30 4926 H 476.889 -0.332372 4.40849 0
M  V30 4927 N 475.948 -1.35272 0.808662 0
M  V30 4928 C 477.359 -1.81179 0.450688 0
M  V30 4929 C 477.71 -1.67143 -1.02751 0
M  V30 4930 O 476.835 -1.20325 -1.79864 0
M  V30 4931 C 477.43 -3.28943 0.811275 0
M  V30 4932 C 475.989 -3.72985 0.505871 0
M  V30 4933 C 475.136 -2.57229 1.03578 0
M  V30 4934 H 478.087 -1.2322 1.00012 0
M  V30 4935 H 478.108 -3.80342 0.109588 0
M  V30 4936 H 477.62 -3.39127 1.88718 0
M  V30 4937 H 475.721 -3.68349 -0.561209 0
M  V30 4938 H 475.834 -4.67677 1.03995 0
M  V30 4939 H 474.198 -2.50548 0.458005 0
M  V30 4940 H 474.981 -2.7019 2.11784 0
M  V30 4941 N 477.426 -0.562348 -1.47226 0
M  V30 4942 C 478.359 0.230405 -2.27034 0
M  V30 4943 C 479.337 0.915609 -1.3437 0
M  V30 4944 O 480.521 0.933573 -1.63758 0
M  V30 4945 C 477.648 1.32874 -3.11548 0
M  V30 4946 C 476.694 0.751552 -4.19826 0
M  V30 4947 S 477.527 -0.405848 -5.3396 0
M  V30 4948 C 478.683 0.694186 -6.22038 0
M  V30 4949 H 478.916 -0.446811 -2.93923 0
M  V30 4950 H 476.449 -0.348781 -1.50409 0
M  V30 4951 H 478.407 1.95773 -3.60809 0
M  V30 4952 H 477.068 1.97782 -2.44011 0
M  V30 4953 H 476.261 1.57651 -4.78709 0
M  V30 4954 H 475.863 0.198645 -3.73472 0
M  V30 4955 H 478.155 1.58501 -6.58698 0
M  V30 4956 H 479.098 0.142592 -7.07956 0
M  V30 4957 H 479.506 0.989169 -5.55766 0
M  V30 4958 N 478.904 1.54736 -0.299062 0
M  V30 4959 C 479.837 2.1962 0.619851 0
M  V30 4960 C 480.815 1.16496 1.13434 0
M  V30 4961 O 481.999 1.4513 1.2029 0
M  V30 4962 C 479.126 2.8385 1.84788 0
M  V30 4963 C 478.172 4.00484 1.46679 0
M  V30 4964 S 479.005 5.32926 0.524389 0
M  V30 4965 C 480.161 6.00638 1.76026 0
M  V30 4966 H 480.394 2.97221 0.0686177 0
M  V30 4967 H 477.927 1.54176 -0.0832085 0
M  V30 4968 H 479.885 3.21483 2.55263 0
M  V30 4969 H 478.546 2.06099 2.37028 0
M  V30 4970 H 477.739 4.44201 2.38121 0
M  V30 4971 H 477.341 3.64398 0.842008 0
M  V30 4972 H 479.633 6.21327 2.70109 0
M  V30 4973 H 480.576 6.94805 1.36569 0
M  V30 4974 H 480.984 5.3026 1.93609 0
M  V30 4975 N 480.382 0.0267497 1.57577 0
M  V30 4976 C 481.33 -0.973923 2.11229 0
M  V30 4977 C 482.324 -1.33849 1.03831 0
M  V30 4978 O 483.53 -1.321 1.22269 0
M  V30 4979 H 479.905 -0.331844 0.674821 0
M  V30 4980 H 481.876 -0.496092 2.94247 0
M  V30 4981 C 480.625 -2.24798 2.65257 0
M  V30 4982 H 479.948 -1.9762 3.47543 0
M  V30 4983 H 481.388 -2.93031 3.06445 0
M  V30 4984 C 479.847 -2.97611 1.57891 0
M  V30 4985 O 480.377 -3.89629 0.97735 0
M  V30 4986 N 478.583 -2.59905 1.29992 0
M  V30 4987 H 478.13 -1.85154 1.79097 0
M  V30 4988 H 478.088 -3.08932 0.583798 0
M  V30 4989 N 481.861 -1.55662 -0.24637 0
M  V30 4990 C 483.086 -1.81914 -0.996093 0
M  V30 4991 C 483.511 -0.603875 -1.78143 0
M  V30 4992 O 482.869 0.447091 -1.75701 0
M  V30 4993 C 482.917 -3.05908 -1.90925 0
M  V30 4994 O 482.021 -2.82861 -3.00105 0
M  V30 4995 H 481.362 -0.600481 -0.283406 0
M  V30 4996 H 483.892 -2.02848 -0.267199 0
M  V30 4997 H 483.902 -3.35356 -2.3238 0
M  V30 4998 H 482.577 -3.93999 -1.33183 0
M  V30 4999 H 481.154 -2.64583 -2.62775 0
M  V30 5000 N 483.339 0.512053 -1.4905 0
M  V30 5001 C 484.286 1.6148 -1.64902 0
M  V30 5002 C 485.256 1.58687 -0.490673 0
M  V30 5003 O 486.441 1.76842 -0.71636 0
M  V30 5004 C 483.581 2.99676 -1.71139 0
M  V30 5005 C 482.694 3.12568 -2.98203 0
M  V30 5006 C 481.829 4.4143 -2.95487 0
M  V30 5007 C 480.868 4.47916 -4.17179 0
M  V30 5008 N 480.005 5.68191 -4.12437 0
M  V30 5009 H 484.845 1.47271 -2.59066 0
M  V30 5010 H 482.382 0.716713 -1.28459 0
M  V30 5011 H 484.34 3.79761 -1.72736 0
M  V30 5012 H 482.97 3.12614 -0.804508 0
M  V30 5013 H 482.022 2.25618 -3.06269 0
M  V30 5014 H 483.334 3.1322 -3.88194 0
M  V30 5015 H 482.488 5.29825 -2.95585 0
M  V30 5016 H 481.227 4.43326 -2.03256 0
M  V30 5017 H 480.232 3.57925 -4.17337 0
M  V30 5018 H 481.457 4.47744 -5.1059 0
M  V30 5019 H 479.403 5.7095 -3.23036 0
M  V30 5020 H 479.32 5.70413 -4.96151 0
M  V30 5021 H 480.588 6.58823 -4.16621 0
M  V30 5022 N 484.817 1.37938 0.762283 0
M  V30 5023 C 485.764 1.34467 1.87583 0
M  V30 5024 C 486.734 0.208633 1.64785 0
M  V30 5025 O 487.919 0.399494 1.86571 0
M  V30 5026 C 485.059 1.16692 3.24772 0
M  V30 5027 C 484.172 2.39608 3.59461 0
M  V30 5028 C 483.307 2.14631 4.85908 0
M  V30 5029 C 482.346 3.33364 5.13357 0
M  V30 5030 N 481.483 3.07877 6.30996 0
M  V30 5031 H 486.323 2.29669 1.89885 0
M  V30 5032 H 483.86 1.14116 0.928219 0
M  V30 5033 H 485.818 1.04405 4.03925 0
M  V30 5034 H 484.448 0.251333 3.2182 0
M  V30 5035 H 483.5 2.626 2.75219 0
M  V30 5036 H 484.812 3.28128 3.75678 0
M  V30 5037 H 483.966 1.99429 5.72986 0
M  V30 5038 H 482.705 1.23463 4.71814 0
M  V30 5039 H 481.71 3.49094 4.24751 0
M  V30 5040 H 482.935 4.25395 5.29354 0
M  V30 5041 H 480.881 2.19348 6.18241 0
M  V30 5042 H 480.798 3.89944 6.47673 0
M  V30 5043 H 482.066 2.96313 7.20985 0
M  V30 5044 N 486.295 -0.989507 1.22664 0
M  V30 5045 C 487.525 -1.7624 1.0781 0
M  V30 5046 C 487.933 -1.85466 -0.374036 0
M  V30 5047 O 487.276 -1.32645 -1.27087 0
M  V30 5048 C 487.338 -3.21007 1.61849 0
M  V30 5049 C 487.002 -3.35316 3.10503 0
M  V30 5050 C 487.999 -3.22362 4.07896 0
M  V30 5051 C 485.684 -3.60258 3.50028 0
M  V30 5052 C 487.678 -3.34139 5.42798 0
M  V30 5053 C 485.365 -3.71676 4.85078 0
M  V30 5054 C 486.363 -3.58625 5.81272 0
M  V30 5055 O 486.051 -3.69655 7.1387 0
M  V30 5056 H 485.783 -0.560209 0.378341 0
M  V30 5057 H 488.337 -1.25252 1.62792 0
M  V30 5058 H 486.567 -3.73202 1.01279 0
M  V30 5059 H 488.256 -3.80024 1.42606 0
M  V30 5060 H 489.022 -3.03 3.78703 0
M  V30 5061 H 484.901 -3.69492 2.75675 0
M  V30 5062 H 488.445 -3.23869 6.17863 0
M  V30 5063 H 484.342 -3.90545 5.1395 0
M  V30 5064 H 485.11 -3.86507 7.21495 0
M  V30 5065 N 487.773 -1.03688 -1.18687 0
M  V30 5066 C 489.184 -0.766488 -1.70241 0
M  V30 5067 C 489.535 0.713052 -1.82784 0
M  V30 5068 O 488.66 1.55529 -1.50465 0
M  V30 5069 C 489.255 -1.38475 -3.09209 0
M  V30 5070 C 487.814 -1.16276 -3.5799 0
M  V30 5071 C 486.961 -1.4778 -2.34641 0
M  V30 5072 H 489.912 -1.20378 -1.03415 0
M  V30 5073 H 489.933 -0.785939 -3.72295 0
M  V30 5074 H 489.445 -2.46157 -3.00048 0
M  V30 5075 H 487.546 -0.104508 -3.72453 0
M  V30 5076 H 487.659 -1.8571 -4.41643 0
M  V30 5077 H 486.023 -0.897366 -2.38368 0
M  V30 5078 H 486.806 -2.56562 -2.28102 0
M  V30 5079 N 489.251 1.34841 -0.815825 0
M  V30 5080 C 490.497 1.98793 -0.401129 0
M  V30 5081 C 490.83 1.64548 1.03139 0
M  V30 5082 O 490.105 0.913487 1.71714 0
M  V30 5083 C 490.388 3.55143 -0.595409 0
M  V30 5084 C 490.241 3.99155 -2.07352 0
M  V30 5085 C 491.56 4.40092 -0.0268823 0
M  V30 5086 H 488.679 0.722146 -0.14722 0
M  V30 5087 H 491.321 1.59847 -1.02707 0
M  V30 5088 H 489.471 3.8845 -0.0625779 0
M  V30 5089 H 491.143 3.76216 -2.66945 0
M  V30 5090 H 489.386 3.49726 -2.56659 0
M  V30 5091 H 490.057 5.07971 -2.1603 0
M  V30 5092 H 492.533 4.13298 -0.482042 0
M  V30 5093 H 491.409 5.48562 -0.19267 0
M  V30 5094 H 491.67 4.29016 1.06759 0
M  V30 5095 N 490.729 0.570148 1.46925 0
M  V30 5096 C 491.692 -0.159933 2.28641 0
M  V30 5097 C 492.692 -0.830638 1.37685 0
M  V30 5098 O 493.882 -0.684516 1.60187 0
M  V30 5099 C 491.014 -1.2354 3.17727 0
M  V30 5100 H 492.207 0.558035 2.94662 0
M  V30 5101 H 489.76 0.327603 1.52828 0
M  V30 5102 H 490.495 -1.98535 2.56426 0
M  V30 5103 H 490.28 -0.759125 3.84681 0
M  V30 5104 H 491.77 -1.74782 3.79264 0
M  V30 5105 N 492.207 -1.54576 0.307264 0
M  V30 5106 C 493.157 -2.20467 -0.581249 0
M  V30 5107 C 494.141 -1.17972 -1.09414 0
M  V30 5108 O 495.333 -1.43667 -1.03387 0
M  V30 5109 C 492.462 -2.95369 -1.74963 0
M  V30 5110 C 491.548 -4.05186 -1.25241 0
M  V30 5111 N 491.939 -5.03577 -0.47364 0
M  V30 5112 C 490.237 -4.18841 -1.53259 0
M  V30 5113 C 490.938 -5.81328 -0.208083 0
M  V30 5114 N 489.914 -5.37834 -0.789651 0
M  V30 5115 H 493.716 -2.93892 0.0212221 0
M  V30 5116 H 491.23 -1.62011 0.112325 0
M  V30 5117 H 493.227 -3.41046 -2.39777 0
M  V30 5118 H 491.887 -2.23461 -2.35574 0
M  V30 5119 H 492.898 -5.17766 -0.117963 0
M  V30 5120 H 489.575 -3.58141 -2.14573 0
M  V30 5121 H 490.965 -6.706 0.417793 0
M  V30 5122 N 493.685 -0.035106 -1.57561 0
M  V30 5123 C 494.932 0.642229 -1.92046 0
M  V30 5124 C 495.26 1.7179 -0.91206 0
M  V30 5125 O 494.515 1.95544 0.0781153 0
M  V30 5126 C 494.814 1.29149 -3.3325 0
M  V30 5127 C 494.48 0.345604 -4.49574 0
M  V30 5128 C 493.142 0.0852775 -4.81124 0
M  V30 5129 C 495.494 -0.303569 -5.20315 0
M  V30 5130 C 492.822 -0.831927 -5.80772 0
M  V30 5131 C 495.174 -1.20886 -6.20942 0
M  V30 5132 C 493.838 -1.47802 -6.50931 0
M  V30 5133 H 493.108 0.235008 -0.702746 0
M  V30 5134 H 495.755 -0.0981529 -1.91248 0
M  V30 5135 H 494.06 2.10676 -3.30337 0
M  V30 5136 H 495.757 1.82223 -3.57205 0
M  V30 5137 H 492.347 0.558683 -4.24943 0
M  V30 5138 H 496.531 -0.115515 -4.96166 0
M  V30 5139 H 491.787 -1.0481 -6.02349 0
M  V30 5140 H 495.961 -1.71804 -6.74875 0
M  V30 5141 H 493.588 -2.19039 -7.2796 0
M  V30 5142 N 495.163 1.55791 0.238111 0
M  V30 5143 C 496.412 1.77234 0.962868 0
M  V30 5144 C 496.725 0.600661 1.86149 0
M  V30 5145 O 497.931 0.698315 2.62366 0
M  V30 5146 C 496.387 3.13808 1.76218 0
M  V30 5147 C 495.995 4.3865 0.910518 0
M  V30 5148 C 497.739 3.44585 2.47914 0
M  V30 5149 C 495.646 5.66252 1.70623 0
M  V30 5150 H 494.576 0.660731 0.36325 0
M  V30 5151 H 497.227 1.8221 0.217242 0
M  V30 5152 H 495.609 3.02963 2.55009 0
M  V30 5153 H 496.783 4.60507 0.164316 0
M  V30 5154 H 495.098 4.15271 0.30647 0
M  V30 5155 H 497.695 4.3714 3.07917 0
M  V30 5156 H 498.038 2.66314 3.19973 0
M  V30 5157 H 498.571 3.56685 1.76127 0
M  V30 5158 H 495.31 6.47369 1.02923 0
M  V30 5159 H 494.83 5.48483 2.42748 0
M  V30 5160 H 496.509 6.05829 2.27114 0
M  V30 5161 N 496.642 -0.504142 1.49319 0
M  V30 5162 C 497.919 -1.26548 1.49147 0
M  V30 5163 C 498.299 -2.09977 0.21744 0
M  V30 5164 O 497.647 -2.14028 -0.800269 0
M  V30 5165 C 497.857 -2.12489 2.76857 0
M  V30 5166 C 499.205 -2.7178 3.26222 0
M  V30 5167 O 500.229 -2.22758 2.77952 0
M  V30 5168 O 499.088 -3.61015 4.10281 0
M  V30 5169 H 496.182 -0.572495 0.596806 0
M  V30 5170 H 498.728 -0.51867 1.61579 0
M  V30 5171 H 497.5 -1.50796 3.61077 0
M  V30 5172 H 497.123 -2.94368 2.6727 0
M  V30 5173 N 498.12 -1.38341 -0.754957 0
M  V30 5174 C 499.052 -1.31347 -1.87831 0
M  V30 5175 C 500.065 -0.225955 -1.61224 0
M  V30 5176 O 501.254 -0.48341 -1.7183 0
M  V30 5177 C 498.354 -1.01201 -3.23437 0
M  V30 5178 C 497.527 -2.20834 -3.77559 0
M  V30 5179 C 496.586 -1.87454 -4.91678 0
M  V30 5180 O 495.612 -2.59934 -5.06382 0
M  V30 5181 N 496.814 -0.828682 -5.74555 0
M  V30 5182 H 499.579 -2.28147 -1.94342 0
M  V30 5183 H 497.14 -1.32184 -0.934828 0
M  V30 5184 H 499.132 -0.769249 -3.97322 0
M  V30 5185 H 497.702 -0.132011 -3.12321 0
M  V30 5186 H 496.922 -2.61184 -2.95256 0
M  V30 5187 H 498.21 -3.00678 -4.10451 0
M  V30 5188 H 497.608 -0.227591 -5.65242 0
M  V30 5189 H 496.165 -0.645802 -6.48593 0
M  V30 5190 N 499.598 0.982988 -1.23187 0
M  V30 5191 C 500.826 1.75921 -1.08901 0
M  V30 5192 C 501.241 1.85341 0.359719 0
M  V30 5193 O 500.598 1.33072 1.24892 0
M  V30 5194 C 500.649 3.18742 -1.70545 0
M  V30 5195 O 500.37 3.09814 -3.09753 0
M  V30 5196 C 501.871 4.1277 -1.61667 0
M  V30 5197 H 499.091 0.552166 -0.381252 0
M  V30 5198 H 501.635 1.23516 -1.62985 0
M  V30 5199 H 499.79 3.68182 -1.20501 0
M  V30 5200 H 500.204 3.99703 -3.39614 0
M  V30 5201 H 501.678 5.10697 -2.09506 0
M  V30 5202 H 502.155 4.3542 -0.575009 0
M  V30 5203 H 502.761 3.69232 -2.11064 0
M  V30 5204 N 501.076 1.04316 1.18135 0
M  V30 5205 C 502.006 0.657299 2.24058 0
M  V30 5206 C 502.987 -0.340678 1.66654 0
M  V30 5207 O 504.172 -0.220223 1.92947 0
M  V30 5208 C 501.302 0.0220715 3.47293 0
M  V30 5209 C 500.256 0.943857 4.17463 0
M  V30 5210 C 499.582 0.172973 5.3442 0
M  V30 5211 C 500.882 2.26409 4.70677 0
M  V30 5212 H 502.576 1.5428 2.56589 0
M  V30 5213 H 500.122 0.743263 1.23335 0
M  V30 5214 H 502.075 -0.259607 4.206 0
M  V30 5215 H 500.799 -0.898323 3.14003 0
M  V30 5216 H 499.458 1.20996 3.46057 0
M  V30 5217 H 499.106 -0.749907 4.97379 0
M  V30 5218 H 498.806 0.787098 5.82304 0
M  V30 5219 H 500.33 -0.101628 6.10515 0
M  V30 5220 H 501.744 2.04294 5.35665 0
M  V30 5221 H 500.141 2.8314 5.29105 0
M  V30 5222 H 501.211 2.90883 3.87962 0
M  V30 5223 N 502.554 -1.34406 0.822964 0
M  V30 5224 C 503.501 -2.29519 0.24284 0
M  V30 5225 C 504.471 -1.5359 -0.632397 0
M  V30 5226 O 505.656 -1.8196 -0.57403 0
M  V30 5227 C 502.796 -3.40032 -0.58925 0
M  V30 5228 C 501.909 -4.30899 0.308236 0
M  V30 5229 C 501.044 -5.28515 -0.533425 0
M  V30 5230 C 500.083 -6.1102 0.363444 0
M  V30 5231 N 499.22 -7.00725 -0.439147 0
M  V30 5232 H 504.06 -2.78537 1.05929 0
M  V30 5233 H 501.597 -1.3707 0.533872 0
M  V30 5234 H 503.555 -4.0279 -1.087 0
M  V30 5235 H 502.185 -2.92248 -1.37081 0
M  V30 5236 H 501.237 -3.69002 0.924203 0
M  V30 5237 H 502.549 -4.88717 0.997862 0
M  V30 5238 H 501.703 -5.96725 -1.09565 0
M  V30 5239 H 500.442 -4.71235 -1.25656 0
M  V30 5240 H 499.447 -5.41743 0.937812 0
M  V30 5241 H 500.672 -6.70381 1.08469 0
M  V30 5242 H 498.618 -6.45913 -1.14595 0
M  V30 5243 H 498.535 -7.55756 0.19209 0
M  V30 5244 H 499.803 -7.73263 -0.984124 0
M  V30 5245 N 504.032 -0.577932 -1.46621 0
M  V30 5246 C 504.995 0.147805 -2.28723 0
M  V30 5247 C 505.995 0.823325 -1.38123 0
M  V30 5248 O 507.185 0.676011 -1.60548 0
M  V30 5249 C 504.317 1.21853 -3.18378 0
M  V30 5250 H 505.51 -0.573654 -2.94362 0
M  V30 5251 H 503.063 -0.335703 -1.52652 0
M  V30 5252 H 503.798 1.97173 -2.57475 0
M  V30 5253 H 503.583 0.738714 -3.85078 0
M  V30 5254 H 505.073 1.72768 -3.80186 0
M  V30 5255 N 505.51 1.54411 -0.315457 0
M  V30 5256 C 506.457 2.24048 0.554166 0
M  V30 5257 C 507.427 1.2283 1.11812 0
M  V30 5258 O 508.612 1.51491 1.15997 0
M  V30 5259 C 505.752 2.99574 1.71316 0
M  V30 5260 C 504.865 4.15594 1.17922 0
M  V30 5261 C 504 4.78669 2.30324 0
M  V30 5262 C 503.039 5.86807 1.74137 0
M  V30 5263 N 502.176 6.43777 2.8017 0
M  V30 5264 H 507.016 2.97964 -0.0462602 0
M  V30 5265 H 504.553 1.47059 -0.0346009 0
M  V30 5266 H 506.511 3.41604 2.39505 0
M  V30 5267 H 505.141 2.28008 2.285 0
M  V30 5268 H 504.193 3.78404 0.389136 0
M  V30 5269 H 505.505 4.93459 0.728012 0
M  V30 5270 H 504.659 5.23626 3.06433 0
M  V30 5271 H 503.398 4.00168 2.78778 0
M  V30 5272 H 502.403 5.41261 0.965236 0
M  V30 5273 H 503.628 6.67201 1.2657 0
M  V30 5274 H 501.574 5.68153 3.2793 0
M  V30 5275 H 501.491 7.17031 2.39588 0
M  V30 5276 H 502.759 6.9339 3.56132 0
M  V30 5277 N 506.988 0.0434614 1.5754 0
M  V30 5278 C 508.234 -0.632971 1.92669 0
M  V30 5279 C 508.567 -1.70947 0.921446 0
M  V30 5280 O 507.842 -1.94426 -0.0537202 0
M  V30 5281 C 508.125 -1.23619 3.38216 0
M  V30 5282 C 507.978 -0.168274 4.49485 0
M  V30 5283 C 509.297 -2.15008 3.84005 0
M  V30 5284 H 506.416 -0.228629 0.700641 0
M  V30 5285 H 509.058 0.103651 1.89717 0
M  V30 5286 H 507.208 -1.864 3.40863 0
M  V30 5287 H 508.88 0.463196 4.58969 0
M  V30 5288 H 507.123 0.504581 4.30855 0
M  V30 5289 H 507.794 -0.630218 5.48391 0
M  V30 5290 H 510.27 -1.62198 3.83185 0
M  V30 5291 H 509.146 -2.54161 4.86511 0
M  V30 5292 H 509.407 -3.04707 3.20322 0
M  V30 5293 N 508.466 -1.55915 -0.229846 0
M  V30 5294 C 509.714 -1.7819 -0.953565 0
M  V30 5295 C 510.035 -0.610504 -1.85197 0
M  V30 5296 O 509.305 0.372988 -1.92316 0
M  V30 5297 H 507.885 -0.657208 -0.355087 0
M  V30 5298 H 510.547 -1.9337 -0.243693 0
M  V30 5299 H 509.643 -2.70011 -1.56527 0
M  V30 5300 N 509.944 0.496216 -1.49584 0
M  V30 5301 C 510.876 1.61404 -1.62731 0
M  V30 5302 C 511.889 1.54613 -0.50978 0
M  V30 5303 O 513.078 1.60458 -0.782017 0
M  V30 5304 C 510.178 3.00212 -1.57245 0
M  V30 5305 C 509.351 3.32138 -2.84611 0
M  V30 5306 C 508.41 4.5038 -2.72112 0
M  V30 5307 O 507.436 4.51926 -3.46051 0
M  V30 5308 N 508.638 5.50575 -1.83977 0
M  V30 5309 H 511.403 1.50552 -2.59141 0
M  V30 5310 H 508.964 0.684182 -1.46733 0
M  V30 5311 H 510.956 3.77241 -1.4653 0
M  V30 5312 H 509.526 3.04964 -0.686729 0
M  V30 5313 H 508.746 2.4396 -3.09641 0
M  V30 5314 H 510.034 3.50268 -3.69039 0
M  V30 5315 H 509.432 5.52128 -1.23171 0
M  V30 5316 H 507.989 6.26687 -1.79182 0
M  V30 5317 N 511.423 1.38739 0.74761 0
M  V30 5318 C 512.353 1.39173 1.87492 0
M  V30 5319 C 513.334 0.256794 1.6815 0
M  V30 5320 O 514.519 0.460762 1.88655 0
M  V30 5321 C 511.649 1.22197 3.25093 0
M  V30 5322 C 510.603 2.32957 3.59047 0
M  V30 5323 C 509.929 2.01082 4.95449 0
M  V30 5324 C 511.229 3.75237 3.6331 0
M  V30 5325 H 512.923 2.3351 1.87386 0
M  V30 5326 H 510.469 1.12399 0.900134 0
M  V30 5327 H 512.422 1.21124 4.03617 0
M  V30 5328 H 511.146 0.243241 3.25693 0
M  V30 5329 H 509.805 2.33226 2.82845 0
M  V30 5330 H 509.453 1.01678 4.92616 0
M  V30 5331 H 509.153 2.75267 5.19136 0
M  V30 5332 H 510.677 2.01638 5.76346 0
M  V30 5333 H 512.091 3.76966 4.31937 0
M  V30 5334 H 510.488 4.48677 3.98509 0
M  V30 5335 H 511.558 4.07122 2.634 0
M  V30 5336 N 512.901 -0.976442 1.23707 0
M  V30 5337 C 513.833 -2.07212 0.979574 0
M  V30 5338 C 514.846 -1.6273 -0.0478528 0
M  V30 5339 O 516.035 -1.77506 0.18815 0
M  V30 5340 C 513.135 -3.35835 0.45479 0
M  V30 5341 C 512.308 -4.09268 1.54331 0
M  V30 5342 C 511.367 -5.16166 1.02271 0
M  V30 5343 O 510.393 -5.42827 1.71254 0
M  V30 5344 N 511.595 -5.80313 -0.147419 0
M  V30 5345 H 514.36 -2.29878 1.92292 0
M  V30 5346 H 511.921 -1.14343 1.14618 0
M  V30 5347 H 513.913 -4.04597 0.0914631 0
M  V30 5348 H 512.483 -3.10106 -0.394068 0
M  V30 5349 H 511.703 -3.34906 2.07923 0
M  V30 5350 H 512.991 -4.55095 2.27522 0
M  V30 5351 H 512.389 -5.61043 -0.724353 0
M  V30 5352 H 510.946 -6.50231 -0.451972 0
M  V30 5353 N 514.379 -1.04941 -1.1758 0
M  V30 5354 C 515.309 -0.669172 -2.23706 0
M  V30 5355 C 516.29 0.331835 -1.66832 0
M  V30 5356 O 517.475 0.209988 -1.93061 0
M  V30 5357 C 514.605 -0.0404889 -3.47276 0
M  V30 5358 C 513.559 -0.965983 -4.16957 0
M  V30 5359 C 512.885 -0.201312 -5.34321 0
M  V30 5360 C 514.185 -2.28902 -4.69469 0
M  V30 5361 H 515.879 -1.55639 -2.55767 0
M  V30 5362 H 513.425 -0.749793 -1.22939 0
M  V30 5363 H 515.378 0.237298 -4.20731 0
M  V30 5364 H 514.102 0.881658 -3.14475 0
M  V30 5365 H 512.761 -1.22829 -3.45411 0
M  V30 5366 H 512.409 0.723519 -4.97769 0
M  V30 5367 H 512.109 -0.817968 -5.81879 0
M  V30 5368 H 513.633 0.0692499 -6.10561 0
M  V30 5369 H 515.047 -2.07132 -5.34574 0
M  V30 5370 H 513.444 -2.85942 -5.27596 0
M  V30 5371 H 514.514 -2.92937 -3.86414 0
M  V30 5372 N 515.857 1.33968 -0.830081 0
M  V30 5373 C 517.082 2.02813 -0.433796 0
M  V30 5374 C 517.507 1.62076 0.954614 0
M  V30 5375 O 516.865 0.808955 1.62252 0
M  V30 5376 C 516.913 3.56348 -0.552115 0
M  V30 5377 O 516.017 4.10202 0.425191 0
M  V30 5378 H 515.358 0.639817 -0.177567 0
M  V30 5379 H 517.888 1.7106 -1.12248 0
M  V30 5380 H 517.898 4.05722 -0.430513 0
M  V30 5381 H 516.573 3.85344 -1.56471 0
M  V30 5382 H 515.15 3.71979 0.261878 0
M  V30 5383 N 517.335 0.585699 1.46312 0
M  V30 5384 C 518.285 -0.166813 2.27389 0
M  V30 5385 C 519.269 -0.859076 1.36047 0
M  V30 5386 O 520.461 -0.752678 1.60199 0
M  V30 5387 C 517.59 -1.17791 3.2246 0
M  V30 5388 C 516.676 -0.487605 4.21288 0
M  V30 5389 N 517.067 0.45849 5.03718 0
M  V30 5390 C 515.365 -0.737971 4.39852 0
M  V30 5391 C 516.066 0.862213 5.75275 0
M  V30 5392 N 515.042 0.210707 5.43191 0
M  V30 5393 H 518.844 0.560167 2.88512 0
M  V30 5394 H 516.358 0.407715 1.57199 0
M  V30 5395 H 518.355 -1.73122 3.79255 0
M  V30 5396 H 517.015 -1.90568 2.62896 0
M  V30 5397 H 518.026 0.834163 5.11138 0
M  V30 5398 H 514.703 -1.45209 3.91434 0
M  V30 5399 H 516.093 1.64128 6.51546 0
M  V30 5400 N 518.813 -1.54241 0.323641 0
M  V30 5401 C 519.761 -2.25813 -0.557804 0
M  V30 5402 C 520.755 -1.27225 -1.11849 0
M  V30 5403 O 521.961 -1.45001 -1.06652 0
M  V30 5404 H 518.336 -0.72532 -0.198532 0
M  V30 5405 H 520.307 -2.98322 0.0681112 0
M  V30 5406 C 519.056 -3.02913 -1.70701 0
M  V30 5407 H 518.379 -3.78593 -1.28482 0
M  V30 5408 H 519.819 -3.56238 -2.29935 0
M  V30 5409 C 518.278 -2.11217 -2.62467 0
M  V30 5410 O 518.808 -1.69508 -3.64184 0
M  V30 5411 N 517.014 -1.76704 -2.30703 0
M  V30 5412 H 516.561 -2.1082 -1.48029 0
M  V30 5413 H 516.519 -1.15631 -2.92364 0
M  V30 5414 N 520.291 -0.0518155 -1.57515 0
M  V30 5415 C 521.221 0.920283 -2.146 0
M  V30 5416 C 522.202 1.32406 -1.06783 0
M  V30 5417 O 523.387 1.39866 -1.34726 0
M  V30 5418 C 520.517 2.1949 -2.6915 0
M  V30 5419 C 519.471 1.93116 -3.81956 0
M  V30 5420 C 518.797 3.27037 -4.23026 0
M  V30 5421 C 520.097 1.25225 -5.07066 0
M  V30 5422 H 521.791 0.444801 -2.96077 0
M  V30 5423 H 519.337 0.212508 -1.42423 0
M  V30 5424 H 521.29 2.87894 -3.07725 0
M  V30 5425 H 520.014 2.69244 -1.84865 0
M  V30 5426 H 518.673 1.27123 -3.43854 0
M  V30 5427 H 518.321 3.74595 -3.3569 0
M  V30 5428 H 518.021 3.10189 -4.99056 0
M  V30 5429 H 519.545 3.96673 -4.64202 0
M  V30 5430 H 520.959 1.83666 -5.43083 0
M  V30 5431 H 519.356 1.18702 -5.88243 0
M  V30 5432 H 520.426 0.228382 -4.84362 0
M  V30 5433 N 521.769 1.56035 0.221574 0
M  V30 5434 C 522.994 1.83476 0.967026 0
M  V30 5435 C 523.419 0.632139 1.7716 0
M  V30 5436 O 522.777 -0.419082 1.7639 0
M  V30 5437 C 522.825 3.08907 1.86034 0
M  V30 5438 O 521.929 2.876 2.95567 0
M  V30 5439 H 521.27 0.604913 0.273817 0
M  V30 5440 H 523.8 2.03247 0.234893 0
M  V30 5441 H 523.81 3.3901 2.27016 0
M  V30 5442 H 522.485 3.96068 1.26898 0
M  V30 5443 H 521.062 2.6873 2.58532 0
M  V30 5444 N 523.247 -0.488276 1.49845 0
M  V30 5445 C 524.177 -1.59675 1.70371 0
M  V30 5446 C 525.158 -1.60878 0.552473 0
M  V30 5447 O 526.343 -1.77417 0.78973 0
M  V30 5448 C 523.473 -2.98098 1.782 0
M  V30 5449 C 522.427 -3.11761 2.93239 0
M  V30 5450 C 521.753 -4.51661 2.86193 0
M  V30 5451 C 523.053 -2.90589 4.33999 0
M  V30 5452 H 524.747 -1.42752 2.63177 0
M  V30 5453 H 522.293 -0.685317 1.26647 0
M  V30 5454 H 524.246 -3.75555 1.91144 0
M  V30 5455 H 522.97 -3.16138 0.820018 0
M  V30 5456 H 521.629 -2.36732 2.79917 0
M  V30 5457 H 521.277 -4.66595 1.87877 0
M  V30 5458 H 520.977 -4.61742 3.63412 0
M  V30 5459 H 522.501 -5.31162 3.01163 0
M  V30 5460 H 523.915 -3.57807 4.47936 0
M  V30 5461 H 522.312 -3.1213 5.12538 0
M  V30 5462 H 523.382 -1.86595 4.4756 0
M  V30 5463 N 524.725 -1.39134 -0.740242 0
M  V30 5464 C 525.971 -1.36273 -1.50192 0
M  V30 5465 C 526.304 0.0430136 -1.94152 0
M  V30 5466 O 525.579 1.00691 -1.66408 0
M  V30 5467 C 525.862 -2.33041 -2.74525 0
M  V30 5468 C 525.715 -3.82535 -2.36617 0
M  V30 5469 C 527.034 -2.27723 -3.76604 0
M  V30 5470 H 524.153 -0.496323 -0.544823 0
M  V30 5471 H 526.795 -1.70085 -0.846815 0
M  V30 5472 H 524.945 -2.04337 -3.30422 0
M  V30 5473 H 526.617 -4.21967 -1.86391 0
M  V30 5474 H 524.86 -3.99565 -1.68909 0
M  V30 5475 H 525.531 -4.45723 -3.2563 0
M  V30 5476 H 528.007 -2.53091 -3.30279 0
M  V30 5477 H 526.883 -2.97519 -4.61274 0
M  V30 5478 H 527.144 -1.28049 -4.2315 0
M  V30 5479 N 526.204 0.969867 -1.24223 0
M  V30 5480 C 527.453 1.70687 -1.07466 0
M  V30 5481 C 527.766 1.91736 0.386861 0
M  V30 5482 O 528.972 2.62986 0.674581 0
M  V30 5483 C 527.428 3.07217 -1.87472 0
M  V30 5484 C 527.036 2.94018 -3.3802 0
M  V30 5485 C 528.78 3.84804 -1.79237 0
M  V30 5486 C 526.687 4.25844 -4.10379 0
M  V30 5487 H 525.617 0.640067 -0.398536 0
M  V30 5488 H 528.268 1.08092 -1.48285 0
M  V30 5489 H 526.65 3.70628 -1.39466 0
M  V30 5490 H 527.824 2.39632 -3.9359 0
M  V30 5491 H 526.139 2.29898 -3.47183 0
M  V30 5492 H 528.736 4.82417 -2.30603 0
M  V30 5493 H 529.079 4.09356 -0.757197 0
M  V30 5494 H 529.612 3.28115 -2.24912 0
M  V30 5495 H 526.351 4.06486 -5.14246 0
M  V30 5496 H 525.871 4.80054 -3.59594 0
M  V30 5497 H 527.55 4.94475 -4.17257 0
M  V30 5498 N 527.682 1.05563 1.17022 0
M  V30 5499 C 528.612 0.681026 2.23348 0
M  V30 5500 C 529.593 -0.322983 1.67005 0
M  V30 5501 O 530.778 -0.199746 1.9317 0
M  V30 5502 C 527.908 0.0589053 3.4725 0
M  V30 5503 C 526.862 0.988082 4.16438 0
M  V30 5504 C 526.188 0.229646 5.34207 0
M  V30 5505 C 527.488 2.31388 4.68249 0
M  V30 5506 H 529.182 1.56993 2.54938 0
M  V30 5507 H 526.728 0.756302 1.2254 0
M  V30 5508 H 528.681 -0.214982 4.20851 0
M  V30 5509 H 527.405 -0.864968 3.14938 0
M  V30 5510 H 526.064 1.24659 3.44754 0
M  V30 5511 H 525.712 -0.697111 4.98146 0
M  V30 5512 H 525.412 0.848815 5.81437 0
M  V30 5513 H 526.936 -0.0368694 6.10589 0
M  V30 5514 H 528.35 2.09964 5.33468 0
M  V30 5515 H 526.747 2.88736 5.26072 0
M  V30 5516 H 527.817 2.94982 3.84855 0
M  V30 5517 N 529.16 -1.33526 0.837174 0
M  V30 5518 C 530.406 -1.9813 0.432704 0
M  V30 5519 C 530.739 -1.66168 -1.00508 0
M  V30 5520 O 530.014 -0.94069 -1.70239 0
M  V30 5521 C 530.297 -3.54151 0.651834 0
M  V30 5522 C 530.15 -3.95806 2.13676 0
M  V30 5523 C 531.469 -4.39993 0.0968937 0
M  V30 5524 H 528.588 -0.719713 0.15869 0
M  V30 5525 H 531.23 -1.58193 1.05237 0
M  V30 5526 H 529.38 -3.88301 0.124369 0
M  V30 5527 H 531.052 -3.71921 2.72896 0
M  V30 5528 H 529.295 -3.45599 2.62191 0
M  V30 5529 H 529.966 -5.0447 2.24084 0
M  V30 5530 H 532.442 -4.12479 0.547733 0
M  V30 5531 H 531.318 -5.48186 0.279917 0
M  V30 5532 H 531.579 -4.3066 -0.9992 0
M  V30 5533 N 530.638 -0.59345 -1.46 0
M  V30 5534 C 532.049 -0.169801 -1.85926 0
M  V30 5535 C 532.4 1.26984 -1.49565 0
M  V30 5536 O 531.525 1.96076 -0.915602 0
M  V30 5537 C 532.12 -0.301385 -3.37457 0
M  V30 5538 C 530.679 0.0674684 -3.7634 0
M  V30 5539 C 529.826 -0.632383 -2.69993 0
M  V30 5540 H 532.777 -0.801014 -1.37002 0
M  V30 5541 H 532.798 0.470331 -3.77582 0
M  V30 5542 H 532.31 -1.34927 -3.63891 0
M  V30 5543 H 530.411 1.11507 -3.55523 0
M  V30 5544 H 530.524 -0.316332 -4.78055 0
M  V30 5545 H 528.888 -0.0714961 -2.546 0
M  V30 5546 H 529.671 -1.68212 -2.99265 0
M  V30 5547 N 532.116 1.54067 -0.331816 0
M  V30 5548 C 533.048 2.22139 0.564538 0
M  V30 5549 C 534.061 1.22408 1.07332 0
M  V30 5550 O 535.25 1.4883 0.985481 0
M  V30 5551 C 532.35 2.87876 1.78831 0
M  V30 5552 C 531.523 4.13817 1.41682 0
M  V30 5553 C 530.582 4.63072 2.49901 0
M  V30 5554 O 529.608 5.27562 2.13699 0
M  V30 5555 N 530.81 4.38001 3.80967 0
M  V30 5556 H 533.575 2.99694 -0.0183736 0
M  V30 5557 H 531.136 1.61153 -0.155396 0
M  V30 5558 H 533.128 3.17747 2.50637 0
M  V30 5559 H 531.698 2.13977 2.27887 0
M  V30 5560 H 530.918 3.9062 0.530044 0
M  V30 5561 H 532.206 4.95762 1.14443 0
M  V30 5562 H 531.604 3.864 4.13173 0
M  V30 5563 H 530.161 4.72507 4.48977 0
M  V30 5564 N 533.594 0.0601682 1.57485 0
M  V30 5565 C 534.542 -0.928899 2.13247 0
M  V30 5566 C 535.536 -1.31616 1.06647 0
M  V30 5567 O 536.742 -1.29476 1.25043 0
M  V30 5568 H 533.117 -0.317455 0.681708 0
M  V30 5569 H 535.088 -0.433566 2.95233 0
M  V30 5570 C 533.837 -2.19121 2.69965 0
M  V30 5571 H 533.16 -1.90204 3.51657 0
M  V30 5572 H 534.6 -2.86465 3.12592 0
M  V30 5573 C 533.059 -2.94195 1.64168 0
M  V30 5574 O 533.589 -3.87468 1.05978 0
M  V30 5575 N 531.795 -2.57089 1.35476 0
M  V30 5576 H 531.342 -1.81314 1.82984 0
M  V30 5577 H 531.3 -3.07624 0.649196 0
M  V30 5578 N 535.072 -1.5615 -0.213296 0
M  V30 5579 C 536.002 -1.96109 -1.26742 0
M  V30 5580 C 536.983 -0.830448 -1.48451 0
M  V30 5581 O 538.168 -1.09339 -1.60495 0
M  V30 5582 C 535.298 -2.28492 -2.61551 0
M  V30 5583 C 534.252 -3.44124 -2.54485 0
M  V30 5584 C 533.578 -3.62134 -3.93399 0
M  V30 5585 C 534.878 -4.78855 -2.08556 0
M  V30 5586 H 536.572 -2.84412 -0.935434 0
M  V30 5587 H 534.118 -1.36836 -0.44854 0
M  V30 5588 H 536.071 -2.55039 -3.3546 0
M  V30 5589 H 534.795 -1.37052 -2.96453 0
M  V30 5590 H 533.454 -3.17639 -1.83033 0
M  V30 5591 H 533.102 -2.68055 -4.25623 0
M  V30 5592 H 532.802 -4.39913 -3.89551 0
M  V30 5593 H 534.326 -3.91038 -4.68958 0
M  V30 5594 H 535.74 -5.04552 -2.72213 0
M  V30 5595 H 534.137 -5.59975 -2.1575 0
M  V30 5596 H 535.207 -4.73657 -1.03811 0
M  V30 5597 N 536.55 0.480323 -1.50102 0
M  V30 5598 C 537.497 1.57946 -1.6829 0
M  V30 5599 C 538.467 1.57611 -0.524223 0
M  V30 5600 O 539.652 1.75282 -0.753709 0
M  V30 5601 C 536.792 2.95978 -1.77457 0
M  V30 5602 C 535.905 3.06173 -3.04766 0
M  V30 5603 C 535.04 4.35063 -3.04784 0
M  V30 5604 C 534.079 4.38966 -4.26586 0
M  V30 5605 N 533.216 5.59314 -4.24396 0
M  V30 5606 H 538.056 1.41743 -2.62131 0
M  V30 5607 H 535.593 0.689304 -1.2995 0
M  V30 5608 H 537.551 3.76011 -1.80752 0
M  V30 5609 H 536.181 3.10837 -0.870637 0
M  V30 5610 H 535.233 2.19071 -3.10986 0
M  V30 5611 H 536.545 3.04916 -3.9475 0
M  V30 5612 H 535.699 5.23436 -3.06757 0
M  V30 5613 H 534.438 4.38915 -2.12614 0
M  V30 5614 H 533.443 3.48992 -4.24835 0
M  V30 5615 H 534.668 4.36813 -5.19972 0
M  V30 5616 H 532.614 5.63969 -3.35074 0
M  V30 5617 H 532.531 5.5976 -5.08138 0
M  V30 5618 H 533.799 6.49837 -4.30502 0
M  V30 5619 N 538.028 1.39524 0.732853 0
M  V30 5620 C 538.978 1.34905 1.83806 0
M  V30 5621 C 539.962 0.229546 1.59254 0
M  V30 5622 O 541.154 0.467255 1.70721 0
M  V30 5623 C 538.283 1.19699 3.21756 0
M  V30 5624 C 537.369 2.36359 3.5213 0
M  V30 5625 N 537.76 3.61834 3.53426 0
M  V30 5626 C 536.058 2.29363 3.82503 0
M  V30 5627 C 536.759 4.38992 3.81655 0
M  V30 5628 N 535.735 3.68606 3.99538 0
M  V30 5629 H 539.537 2.29882 1.83116 0
M  V30 5630 H 537.051 1.33051 0.931194 0
M  V30 5631 H 539.048 1.14472 4.00876 0
M  V30 5632 H 537.708 0.256739 3.23683 0
M  V30 5633 H 538.719 3.95228 3.34686 0
M  V30 5634 H 535.396 1.43612 3.92023 0
M  V30 5635 H 536.786 5.47763 3.89108 0
M  V30 5636 N 539.506 -0.963266 1.24736 0
M  V30 5637 C 540.922 -1.23273 1.01371 0
M  V30 5638 C 541.122 -1.99618 -0.274776 0
M  V30 5639 O 540.178 -2.32293 -0.989769 0
M  V30 5640 C 541.491 -2.01554 2.23152 0
M  V30 5641 C 543.039 -2.14629 2.27823 0
M  V30 5642 C 543.514 -2.96307 3.49237 0
M  V30 5643 N 545.005 -3.03887 3.49581 0
M  V30 5644 C 545.74 -3.67456 4.40186 0
M  V30 5645 N 545.236 -4.32706 5.41052 0
M  V30 5646 N 547.029 -3.64511 4.27888 0
M  V30 5647 H 539.18 -0.452294 2.07528 0
M  V30 5648 H 541.443 -0.262521 0.910926 0
M  V30 5649 H 541.149 -1.52847 3.1675 0
M  V30 5650 H 541.023 -3.02278 2.25628 0
M  V30 5651 H 543.41 -2.62537 1.34753 0
M  V30 5652 H 543.491 -1.13238 2.2937 0
M  V30 5653 H 543.135 -2.49091 4.42624 0
M  V30 5654 H 543.065 -3.97905 3.44933 0
M  V30 5655 H 545.556 -2.57477 2.76611 0
M  V30 5656 H 545.869 -4.79042 6.06415 0
M  V30 5657 H 544.214 -4.31361 5.44934 0
M  V30 5658 H 547.405 -3.12715 3.4832 0
M  V30 5659 H 547.578 -4.13768 4.98698 0
M  V30 5660 N 540.985 -1.06182 -1.16461 0
M  V30 5661 C 541.915 -0.692861 -2.22984 0
M  V30 5662 C 542.896 0.314122 -1.67174 0
M  V30 5663 O 544.081 0.189499 -1.93273 0
M  V30 5664 C 541.211 -0.07732 -3.47214 0
M  V30 5665 C 540.165 -1.01015 -4.15909 0
M  V30 5666 C 539.491 -0.257973 -5.34077 0
M  V30 5667 C 540.791 -2.33868 -4.67015 0
M  V30 5668 H 542.485 -1.58343 -2.54102 0
M  V30 5669 H 540.031 -0.76279 -1.22137 0
M  V30 5670 H 541.984 0.19266 -4.20959 0
M  V30 5671 H 540.708 0.848254 -3.15392 0
M  V30 5672 H 539.367 -1.26486 -3.44088 0
M  V30 5673 H 539.015 0.670684 -4.98509 0
M  V30 5674 H 538.715 -0.879638 -5.80979 0
M  V30 5675 H 540.239 0.00448788 -6.106 0
M  V30 5676 H 541.653 -2.1279 -5.32347 0
M  V30 5677 H 540.05 -2.91522 -5.24533 0
M  V30 5678 H 541.12 -2.97019 -3.83286 0
M  V30 5679 N 542.463 1.3308 -0.844243 0
M  V30 5680 C 543.373 2.32876 -0.283922 0
M  V30 5681 C 544.389 1.63589 0.592846 0
M  V30 5682 O 545.565 1.95205 0.495693 0
M  V30 5683 C 542.63 3.42667 0.527283 0
M  V30 5684 C 541.691 4.27664 -0.374394 0
M  V30 5685 C 540.924 5.32212 0.39819 0
M  V30 5686 O 541.147 5.46635 1.62932 0
M  V30 5687 O 540.081 6.01458 -0.2306 0
M  V30 5688 H 543.907 2.82671 -1.11045 0
M  V30 5689 H 541.492 1.36518 -0.606903 0
M  V30 5690 H 543.374 4.09652 0.988078 0
M  V30 5691 H 542.049 2.95079 1.33078 0
M  V30 5692 H 540.956 3.63526 -0.883144 0
M  V30 5693 H 542.289 4.78749 -1.1428 0
M  V30 5694 N 543.941 0.601185 1.45683 0
M  V30 5695 C 545.218 0.0261659 1.95582 0
M  V30 5696 C 545.598 -1.4399 1.5437 0
M  V30 5697 O 544.946 -2.13919 0.80318 0
M  V30 5698 C 545.156 0.217557 3.48321 0
M  V30 5699 C 546.504 0.0950076 4.24494 0
M  V30 5700 O 547.528 0.147345 3.55895 0
M  V30 5701 O 546.387 -0.025261 5.46494 0
M  V30 5702 H 543.481 -0.0393688 0.826062 0
M  V30 5703 H 546.027 0.670798 1.55879 0
M  V30 5704 H 544.799 1.23601 3.71266 0
M  V30 5705 H 544.422 -0.46264 3.94899 0
M  V30 5706 N 545.419 -1.53889 0.339982 0
M  V30 5707 C 546.352 -2.21187 -0.561405 0
M  V30 5708 C 547.33 -1.19463 -1.10306 0
M  V30 5709 O 548.514 -1.48268 -1.164 0
M  V30 5710 C 545.641 -2.8865 -1.77198 0
M  V30 5711 C 544.687 -4.04232 -1.3601 0
M  V30 5712 S 545.52 -5.34129 -0.382909 0
M  V30 5713 C 546.676 -6.05094 -1.60039 0
M  V30 5714 H 546.909 -2.97298 0.0102092 0
M  V30 5715 H 544.442 -1.53901 0.124056 0
M  V30 5716 H 546.4 -3.28138 -2.4665 0
M  V30 5717 H 545.061 -2.12311 -2.3148 0
M  V30 5718 H 544.254 -4.50358 -2.2626 0
M  V30 5719 H 543.856 -3.66503 -0.745098 0
M  V30 5720 H 546.148 -6.2827 -2.53541 0
M  V30 5721 H 547.091 -6.98182 -1.18099 0
M  V30 5722 H 547.499 -5.35207 -1.79483 0
M  V30 5723 N 546.897 -0.0685191 -1.57451 0
M  V30 5724 C 547.807 0.914677 -2.16034 0
M  V30 5725 C 548.823 1.32938 -1.12265 0
M  V30 5726 O 549.999 1.40275 -1.44516 0
M  V30 5727 C 547.064 2.16519 -2.70777 0
M  V30 5728 C 546.125 1.80721 -3.89408 0
M  V30 5729 C 545.358 2.9981 -4.41531 0
M  V30 5730 O 545.581 4.13727 -3.92666 0
M  V30 5731 O 544.515 2.79817 -5.32903 0
M  V30 5732 H 548.341 0.446364 -3.00402 0
M  V30 5733 H 545.926 0.154367 -1.486 0
M  V30 5734 H 547.808 2.89856 -3.05878 0
M  V30 5735 H 546.483 2.62454 -1.89471 0
M  V30 5736 H 545.39 1.04646 -3.59166 0
M  V30 5737 H 546.723 1.39571 -4.71997 0
M  V30 5738 N 548.375 1.56261 0.205012 0
M  V30 5739 C 549.307 1.90266 1.27795 0
M  V30 5740 C 550.32 0.792397 1.42214 0
M  V30 5741 O 551.509 1.07077 1.42817 0
M  V30 5742 C 548.609 2.11074 2.65143 0
M  V30 5743 C 547.782 3.42176 2.7246 0
M  V30 5744 C 546.841 3.52216 3.90936 0
M  V30 5745 O 545.867 4.25119 3.78501 0
M  V30 5746 N 547.069 2.84573 5.05963 0
M  V30 5747 H 549.834 2.82896 0.989434 0
M  V30 5748 H 547.395 1.57008 0.394981 0
M  V30 5749 H 549.387 2.15089 3.4281 0
M  V30 5750 H 547.957 1.2499 2.86524 0
M  V30 5751 H 547.177 3.50116 1.81142 0
M  V30 5752 H 548.465 4.28509 2.74331 0
M  V30 5753 H 547.863 2.25152 5.18963 0
M  V30 5754 H 546.42 2.94228 5.81613 0
M  V30 5755 N 549.853 -0.472356 1.50355 0
M  V30 5756 C 550.816 -1.5529 1.68576 0
M  V30 5757 C 551.816 -1.50863 0.556511 0
M  V30 5758 O 553.006 -1.53505 0.823516 0
M  V30 5759 C 550.138 -2.94921 1.70981 0
M  V30 5760 H 551.331 -1.40451 2.64978 0
M  V30 5761 H 548.884 -0.698645 1.39816 0
M  V30 5762 H 549.619 -3.15204 0.762675 0
M  V30 5763 H 549.404 -2.99541 2.53017 0
M  V30 5764 H 550.894 -3.73372 1.87037 0
M  V30 5765 N 551.331 -1.39911 -0.725443 0
M  V30 5766 C 552.261 -1.42138 -1.85254 0
M  V30 5767 C 553.242 -0.283513 -1.67721 0
M  V30 5768 O 554.427 -0.490717 -1.87898 0
M  V30 5769 C 551.557 -1.27354 -3.23107 0
M  V30 5770 C 550.511 -2.3864 -3.55296 0
M  V30 5771 C 549.837 -2.08939 -4.92188 0
M  V30 5772 C 551.137 -3.8097 -3.57295 0
M  V30 5773 H 552.831 -2.36461 -1.83648 0
M  V30 5774 H 550.377 -1.13817 -0.882138 0
M  V30 5775 H 552.33 -1.2753 -4.01639 0
M  V30 5776 H 551.054 -0.295025 -3.25265 0
M  V30 5777 H 549.713 -2.37696 -2.79099 0
M  V30 5778 H 549.361 -1.09502 -4.90936 0
M  V30 5779 H 549.061 -2.83491 -5.14691 0
M  V30 5780 H 550.585 -2.10781 -5.73065 0
M  V30 5781 H 551.999 -3.8379 -4.25885 0
M  V30 5782 H 550.396 -4.5496 -3.9132 0
M  V30 5783 H 551.466 -4.11261 -2.5689 0
M  V30 5784 N 552.809 0.956637 -1.25245 0
M  V30 5785 C 554.034 1.74104 -1.12706 0
M  V30 5786 C 554.459 1.85436 0.315429 0
M  V30 5787 O 553.817 1.33334 1.22848 0
M  V30 5788 C 553.865 3.1338 -1.78396 0
M  V30 5789 O 552.969 3.98485 -1.06224 0
M  V30 5790 H 552.31 0.53476 -0.393609 0
M  V30 5791 H 554.84 1.19924 -1.65769 0
M  V30 5792 H 554.85 3.6385 -1.846 0
M  V30 5793 H 553.525 3.04448 -2.83345 0
M  V30 5794 H 552.102 3.56952 -1.07886 0
M  V30 5795 N 554.287 1.06798 1.15896 0
M  V30 5796 C 555.698 0.811355 1.68149 0
M  V30 5797 C 556.049 -0.664339 1.8461 0
M  V30 5798 O 555.174 -1.51485 1.54535 0
M  V30 5799 C 555.769 1.46624 3.05429 0
M  V30 5800 C 554.328 1.25726 3.54781 0
M  V30 5801 C 553.475 1.53949 2.3064 0
M  V30 5802 H 556.426 1.23078 1.00187 0
M  V30 5803 H 556.447 0.88437 3.7008 0
M  V30 5804 H 555.959 2.54025 2.93416 0
M  V30 5805 H 554.06 0.20322 3.72045 0
M  V30 5806 H 554.173 1.97354 4.36564 0
M  V30 5807 H 552.537 0.96025 2.35905 0
M  V30 5808 H 553.32 2.6252 2.2122 0
M  V30 5809 N 555.766 -1.3263 0.851289 0
M  V30 5810 C 556.991 -2.02097 0.466006 0
M  V30 5811 C 557.416 -1.63574 -0.928709 0
M  V30 5812 O 556.774 -0.834665 -1.60944 0
M  V30 5813 C 556.822 -3.55425 0.608737 0
M  V30 5814 O 555.926 -4.10827 -0.359878 0
M  V30 5815 H 555.267 -0.636911 0.187724 0
M  V30 5816 H 557.797 -1.69253 1.14955 0
M  V30 5817 H 557.807 -4.04986 0.495006 0
M  V30 5818 H 556.482 -3.82806 1.62581 0
M  V30 5819 H 555.059 -3.72349 -0.202666 0
M  V30 5820 N 557.244 -0.608902 -1.45362 0
M  V30 5821 C 558.49 -0.104762 -2.02529 0
M  V30 5822 C 558.823 1.26191 -1.47613 0
M  V30 5823 O 558.098 1.8327 -0.65134 0
M  V30 5824 C 558.381 -0.0672661 -3.60037 0
M  V30 5825 C 558.234 -1.4647 -4.25284 0
M  V30 5826 C 559.553 0.619877 -4.35713 0
M  V30 5827 H 556.672 -0.0395438 -0.735938 0
M  V30 5828 H 559.314 -0.781126 -1.73201 0
M  V30 5829 H 557.464 0.50871 -3.85155 0
M  V30 5830 H 559.136 -2.08785 -4.11347 0
M  V30 5831 H 557.379 -2.02502 -3.83634 0
M  V30 5832 H 558.05 -1.39069 -5.34195 0
M  V30 5833 H 560.526 0.130297 -4.15896 0
M  V30 5834 H 559.402 0.615224 -5.45441 0
M  V30 5835 H 559.663 1.68621 -4.0868 0
M  V30 5836 N 558.722 1.53707 -0.348139 0
M  V30 5837 C 559.969 2.00988 0.246966 0
M  V30 5838 C 560.297 1.23586 1.50189 0
M  V30 5839 O 559.552 0.312817 1.93184 0
M  V30 5840 C 559.851 3.52292 0.602061 0
M  V30 5841 C 559.517 4.47453 -0.556509 0
M  V30 5842 C 558.179 4.73188 -0.874446 0
M  V30 5843 C 560.531 5.03851 -1.33354 0
M  V30 5844 C 557.859 5.52577 -1.9717 0
M  V30 5845 C 560.211 5.84437 -2.42108 0
M  V30 5846 C 558.875 6.08465 -2.74456 0
M  V30 5847 H 558.145 0.735469 0.0903712 0
M  V30 5848 H 560.792 1.85464 -0.477001 0
M  V30 5849 H 559.097 3.65672 1.40681 0
M  V30 5850 H 560.794 3.86337 1.07447 0
M  V30 5851 H 557.384 4.27558 -0.298652 0
M  V30 5852 H 561.568 4.8393 -1.10117 0
M  V30 5853 H 556.824 5.69418 -2.22651 0
M  V30 5854 H 560.998 6.27151 -3.02745 0
M  V30 5855 H 558.625 6.69768 -3.59604 0
M  V30 5856 N 560.2 0.0768682 1.57412 0
M  V30 5857 C 561.147 -0.888577 2.13009 0
M  V30 5858 C 562.117 -1.29198 1.0439 0
M  V30 5859 O 563.302 -1.37694 1.3208 0
M  V30 5860 C 560.442 -2.14899 2.70023 0
M  V30 5861 C 559.555 -1.79777 3.92816 0
M  V30 5862 C 558.69 -3.00467 4.38056 0
M  V30 5863 C 557.729 -2.61385 5.53484 0
M  V30 5864 N 556.866 -3.74851 5.93659 0
M  V30 5865 H 561.706 -0.407593 2.95199 0
M  V30 5866 H 559.243 -0.189534 1.45874 0
M  V30 5867 H 561.201 -2.88688 3.0119 0
M  V30 5868 H 559.831 -2.60529 1.9059 0
M  V30 5869 H 558.883 -0.960301 3.68079 0
M  V30 5870 H 560.195 -1.47027 4.76639 0
M  V30 5871 H 559.349 -3.82529 4.7091 0
M  V30 5872 H 558.088 -3.36413 3.53097 0
M  V30 5873 H 557.093 -1.77746 5.20275 0
M  V30 5874 H 558.318 -2.26603 6.40178 0
M  V30 5875 H 556.264 -4.1055 5.11649 0
M  V30 5876 H 556.181 -3.45887 6.72234 0
M  V30 5877 H 557.449 -4.57477 6.31138 0
M  V30 5878 N 561.678 -1.56367 -0.196722 0
M  V30 5879 C 562.641 -1.93561 -1.22746 0
M  V30 5880 C 563.641 -0.816566 -1.38524 0
M  V30 5881 O 564.831 -1.084 -1.36363 0
M  V30 5882 C 561.963 -2.20823 -2.59712 0
M  V30 5883 H 563.156 -2.85774 -0.909586 0
M  V30 5884 H 560.709 -1.50032 -0.438174 0
M  V30 5885 H 561.444 -1.31243 -2.96557 0
M  V30 5886 H 561.229 -3.02368 -2.49632 0
M  V30 5887 H 562.719 -2.50608 -3.34044 0
M  V30 5888 N 563.156 0.464375 -1.50603 0
M  V30 5889 C 564.405 1.21277 -1.61167 0
M  V30 5890 C 564.718 1.92953 -0.320704 0
M  V30 5891 O 565.924 2.69778 -0.30534 0
M  V30 5892 C 564.38 2.20403 -2.84518 0
M  V30 5893 C 563.988 1.54499 -4.20516 0
M  V30 5894 C 565.732 2.95843 -3.0443 0
M  V30 5895 C 563.639 2.51951 -5.35047 0
M  V30 5896 H 562.569 0.456367 -0.600204 0
M  V30 5897 H 565.22 0.48254 -1.77042 0
M  V30 5898 H 563.602 2.96746 -2.62217 0
M  V30 5899 H 564.776 0.83899 -4.53098 0
M  V30 5900 H 563.091 0.913152 -4.06264 0
M  V30 5901 H 565.688 3.6879 -3.87167 0
M  V30 5902 H 566.031 3.55622 -2.16423 0
M  V30 5903 H 566.564 2.26611 -3.26944 0
M  V30 5904 H 563.303 1.96901 -6.25228 0
M  V30 5905 H 562.823 3.20683 -5.06875 0
M  V30 5906 H 564.502 3.13643 -5.65895 0
M  V30 5907 N 564.634 1.40294 0.718013 0
M  V30 5908 C 565.567 1.34767 1.84155 0
M  V30 5909 C 566.545 0.218455 1.61126 0
M  V30 5910 O 567.729 0.401716 1.8417 0
M  V30 5911 C 564.856 1.09676 3.20451 0
M  V30 5912 C 563.902 2.25016 3.62312 0
M  V30 5913 S 564.735 3.87397 3.69707 0
M  V30 5914 C 565.891 3.64565 5.08766 0
M  V30 5915 H 566.124 2.29851 1.88562 0
M  V30 5916 H 563.657 1.2655 0.884555 0
M  V30 5917 H 565.615 0.95885 3.99144 0
M  V30 5918 H 564.276 0.162502 3.13679 0
M  V30 5919 H 563.469 2.03097 4.61268 0
M  V30 5920 H 563.071 2.35098 2.90869 0
M  V30 5921 H 565.363 3.22882 5.95612 0
M  V30 5922 H 566.306 4.63043 5.35721 0
M  V30 5923 H 566.714 2.98303 4.79245 0
M  V30 5924 N 566.112 -0.949982 1.2575 0
M  V30 5925 C 567.022 -2.08109 1.08295 0
M  V30 5926 C 568.038 -1.7399 0.0188181 0
M  V30 5927 O 569.214 -2.00187 0.220724 0
M  V30 5928 C 566.279 -3.39383 0.708534 0
M  V30 5929 C 565.34 -3.8734 1.85111 0
M  V30 5930 C 564.573 -5.12349 1.49447 0
M  V30 5931 O 564.796 -5.6905 0.392212 0
M  V30 5932 O 563.73 -5.5513 2.32624 0
M  V30 5933 H 567.556 -2.25738 2.03165 0
M  V30 5934 H 565.141 -1.06545 1.04731 0
M  V30 5935 H 567.023 -4.18277 0.512061 0
M  V30 5936 H 565.698 -3.23013 -0.210854 0
M  V30 5937 H 564.605 -3.09429 2.10248 0
M  V30 5938 H 565.938 -4.08216 2.74991 0
M  V30 5939 N 567.59 -1.07411 -1.15328 0
M  V30 5940 C 568.537 -0.694995 -2.20087 0
M  V30 5941 C 569.507 0.313904 -1.63107 0
M  V30 5942 O 570.692 0.200216 -1.89747 0
M  V30 5943 C 567.832 -0.0996218 -3.44956 0
M  V30 5944 C 566.945 -1.16007 -4.16133 0
M  V30 5945 C 566.08 -0.529636 -5.28553 0
M  V30 5946 C 565.119 -1.57283 -5.91548 0
M  V30 5947 N 564.256 -0.964932 -6.95438 0
M  V30 5948 H 569.096 -1.5927 -2.51867 0
M  V30 5949 H 566.633 -0.796115 -1.23695 0
M  V30 5950 H 568.591 0.263197 -4.16369 0
M  V30 5951 H 567.221 0.761435 -3.13691 0
M  V30 5952 H 566.273 -1.64045 -3.4321 0
M  V30 5953 H 567.585 -1.95101 -4.59061 0
M  V30 5954 H 566.739 -0.114487 -6.06592 0
M  V30 5955 H 565.478 0.29307 -4.86819 0
M  V30 5956 H 564.483 -1.99775 -5.12221 0
M  V30 5957 H 565.708 -2.39783 -6.35359 0
M  V30 5958 H 563.654 -0.16314 -6.55797 0
M  V30 5959 H 563.571 -1.69311 -7.36797 0
M  V30 5960 H 564.839 -0.575305 -7.77374 0
M  V30 5961 N 569.068 1.32177 -0.85831 0
M  V30 5962 C 569.998 2.31282 -0.321041 0
M  V30 5963 C 570.979 1.59841 0.581786 0
M  V30 5964 O 572.164 1.87619 0.501262 0
M  V30 5965 C 569.294 3.4385 0.48832 0
M  V30 5966 C 568.248 4.26799 -0.320391 0
M  V30 5967 C 567.574 5.31164 0.613934 0
M  V30 5968 C 568.874 4.98829 -1.54813 0
M  V30 5969 H 570.568 2.76469 -1.14915 0
M  V30 5970 H 568.114 1.32916 -0.554028 0
M  V30 5971 H 570.067 4.12224 0.874626 0
M  V30 5972 H 568.791 2.97401 1.34983 0
M  V30 5973 H 567.45 3.60077 -0.688497 0
M  V30 5974 H 567.098 4.80967 1.47239 0
M  V30 5975 H 566.798 5.8755 0.0768097 0
M  V30 5976 H 568.322 6.024 0.997336 0
M  V30 5977 H 569.736 5.59864 -1.23392 0
M  V30 5978 H 568.133 5.64957 -2.02346 0
M  V30 5979 H 569.203 4.26483 -2.30739 0
M  V30 5980 N 570.547 0.616602 1.45037 0
M  V30 5981 C 571.457 -0.0985401 2.34393 0
M  V30 5982 C 572.473 -0.850971 1.51771 0
M  V30 5983 O 573.649 -0.806521 1.84546 0
M  V30 5984 C 570.714 -1.07748 3.29532 0
M  V30 5985 C 569.775 -0.326022 4.2806 0
M  V30 5986 C 569.008 -1.25833 5.18654 0
M  V30 5987 O 569.231 -2.49652 5.12864 0
M  V30 5988 O 568.165 -0.750512 5.97203 0
M  V30 5989 H 571.991 0.636016 2.96966 0
M  V30 5990 H 569.576 0.376832 1.44569 0
M  V30 5991 H 571.458 -1.64107 3.88133 0
M  V30 5992 H 570.133 -1.79291 2.69512 0
M  V30 5993 H 569.04 0.280253 3.73049 0
M  V30 5994 H 570.373 0.349091 4.9096 0
M  V30 5995 N 572.025 -1.5352 0.356285 0
M  V30 5996 C 572.958 -2.2177 -0.537913 0
M  V30 5997 C 573.936 -1.20626 -1.09033 0
M  V30 5998 O 575.12 -1.49494 -1.1482 0
M  V30 5999 C 572.247 -2.90513 -1.74126 0
M  V30 6000 C 571.293 -4.05652 -1.31715 0
M  V30 6001 S 572.126 -5.34505 -0.326236 0
M  V30 6002 C 573.282 -6.06757 -1.53612 0
M  V30 6003 H 573.515 -2.97271 0.0417411 0
M  V30 6004 H 571.048 -1.53761 0.140372 0
M  V30 6005 H 573.006 -3.30735 -2.43155 0
M  V30 6006 H 571.667 -2.14754 -2.29215 0
M  V30 6007 H 570.86 -4.52733 -2.21471 0
M  V30 6008 H 570.462 -3.67272 -0.706183 0
M  V30 6009 H 572.754 -6.30924 -2.46863 0
M  V30 6010 H 573.697 -6.99395 -1.10687 0
M  V30 6011 H 574.105 -5.3708 -1.73796 0
M  V30 6012 N 573.503 -0.0852151 -1.57369 0
M  V30 6013 C 574.728 0.592872 -1.98746 0
M  V30 6014 C 575.153 1.61538 -0.963689 0
M  V30 6015 O 574.511 1.81168 0.069071 0
M  V30 6016 C 574.559 1.22599 -3.39119 0
M  V30 6017 O 573.663 2.34185 -3.39457 0
M  V30 6018 H 573.004 0.151314 -0.646529 0
M  V30 6019 H 575.534 -0.163703 -2.03944 0
M  V30 6020 H 575.544 1.56965 -3.76598 0
M  V30 6021 H 574.219 0.476831 -4.13158 0
M  V30 6022 H 572.796 2.01512 -3.13763 0
M  V30 6023 N 574.981 1.5647 0.188427 0
M  V30 6024 C 575.928 1.95073 1.23349 0
M  V30 6025 C 576.898 0.812238 1.44886 0
M  V30 6026 O 578.083 1.07095 1.57909 0
M  V30 6027 C 575.223 2.30124 2.57171 0
M  V30 6028 C 574.336 3.57069 2.43157 0
M  V30 6029 C 573.471 3.81411 3.69729 0
M  V30 6030 C 572.51 5.0176 3.50575 0
M  V30 6031 N 571.647 5.22321 4.69175 0
M  V30 6032 H 576.487 2.84171 0.89728 0
M  V30 6033 H 574.024 1.40623 0.431683 0
M  V30 6034 H 575.982 2.48463 3.35145 0
M  V30 6035 H 574.612 1.44159 2.88822 0
M  V30 6036 H 573.664 3.4674 1.56447 0
M  V30 6037 H 574.976 4.452 2.24942 0
M  V30 6038 H 574.13 4.00026 4.56141 0
M  V30 6039 H 572.869 2.91624 3.90905 0
M  V30 6040 H 571.874 4.83061 2.62549 0
M  V30 6041 H 573.099 5.93063 3.30837 0
M  V30 6042 H 571.045 4.35483 4.90602 0
M  V30 6043 H 570.962 6.04643 4.53809 0
M  V30 6044 H 572.23 5.45401 5.56919 0
M  V30 6045 N 576.459 -0.456382 1.50847 0
M  V30 6046 C 577.706 -1.20736 1.62571 0
M  V30 6047 C 578.034 -1.9163 0.332904 0
M  V30 6048 O 577.289 -1.8343 -0.682058 0
M  V30 6049 C 577.588 -2.26336 2.76599 0
M  V30 6050 C 577.254 -1.7259 4.16562 0
M  V30 6051 C 575.916 -1.57654 4.54641 0
M  V30 6052 C 578.268 -1.32877 5.03977 0
M  V30 6053 C 575.596 -1.0145 5.77862 0
M  V30 6054 C 577.948 -0.7811 6.27759 0
M  V30 6055 C 576.612 -0.618488 6.64628 0
M  V30 6056 H 575.882 -0.441803 0.594888 0
M  V30 6057 H 578.529 -0.501169 1.84826 0
M  V30 6058 H 576.834 -3.0292 2.48489 0
M  V30 6059 H 578.531 -2.84227 2.82871 0
M  V30 6060 H 575.121 -1.85187 3.86528 0
M  V30 6061 H 579.305 -1.43245 4.75179 0
M  V30 6062 H 574.561 -0.876109 6.0509 0
M  V30 6063 H 578.735 -0.464783 6.94847 0
M  V30 6064 H 576.362 -0.180838 7.59985 0
M  V30 6065 N 577.937 -1.40673 -0.710563 0
M  V30 6066 C 578.869 -1.37256 -1.83558 0
M  V30 6067 C 579.882 -0.277133 -1.60424 0
M  V30 6068 O 581.071 -0.537831 -1.70205 0
M  V30 6069 C 578.171 -1.1144 -3.20054 0
M  V30 6070 C 577.344 -2.32734 -3.70342 0
M  V30 6071 C 576.403 -2.03002 -4.85465 0
M  V30 6072 O 575.429 -2.75912 -4.97857 0
M  V30 6073 N 576.631 -1.01105 -5.71627 0
M  V30 6074 H 579.396 -2.34215 -1.86985 0
M  V30 6075 H 576.957 -1.35091 -0.892301 0
M  V30 6076 H 578.949 -0.895265 -3.94673 0
M  V30 6077 H 577.519 -0.231307 -3.11743 0
M  V30 6078 H 576.739 -2.70446 -2.86798 0
M  V30 6079 H 578.027 -3.13584 -4.00678 0
M  V30 6080 H 577.425 -0.407303 -5.64232 0
M  V30 6081 H 575.982 -0.85182 -6.4621 0
M  V30 6082 N 579.415 0.9433 -1.26252 0
M  V30 6083 C 580.826 1.50404 -1.10614 0
M  V30 6084 C 581.177 1.93666 0.31429 0
M  V30 6085 O 580.302 1.79709 1.20555 0
M  V30 6086 C 580.897 2.73336 -2.00182 0
M  V30 6087 C 579.456 3.25686 -1.88695 0
M  V30 6088 C 578.603 1.98474 -1.93658 0
M  V30 6089 H 581.554 0.759006 -1.39373 0
M  V30 6090 H 581.575 3.47567 -1.54847 0
M  V30 6091 H 581.087 2.41818 -3.03555 0
M  V30 6092 H 579.188 3.61998 -0.882489 0
M  V30 6093 H 579.301 3.92935 -2.74115 0
M  V30 6094 H 577.665 2.14278 -1.37684 0
M  V30 6095 H 578.448 1.6929 -2.98657 0
M  V30 6096 N 580.893 1.08022 1.14757 0
M  V30 6097 C 582.121 0.828847 1.89572 0
M  V30 6098 C 582.536 -0.618621 1.78377 0
M  V30 6099 O 581.893 -1.42482 1.1404 0
M  V30 6100 C 581.944 1.23677 3.39685 0
M  V30 6101 O 581.665 2.62746 3.50566 0
M  V30 6102 C 583.166 1.01569 4.31507 0
M  V30 6103 H 580.386 0.299196 0.600602 0
M  V30 6104 H 582.93 1.43846 1.45357 0
M  V30 6105 H 581.085 0.671347 3.81539 0
M  V30 6106 H 581.499 2.79573 4.43778 0
M  V30 6107 H 582.973 1.35055 5.35223 0
M  V30 6108 H 583.45 -0.0475433 4.39174 0
M  V30 6109 H 584.056 1.56636 3.95405 0
M  V30 6110 N 582.371 -1.3172 0.865308 0
M  V30 6111 C 583.301 -2.31109 0.333302 0
M  V30 6112 C 584.282 -1.60148 -0.573301 0
M  V30 6113 O 585.467 -1.87882 -0.491305 0
M  V30 6114 C 582.597 -3.44104 -0.470078 0
M  V30 6115 C 581.551 -4.26623 0.343021 0
M  V30 6116 C 580.877 -5.31482 -0.585756 0
M  V30 6117 C 582.177 -4.98001 1.57456 0
M  V30 6118 H 583.871 -2.75855 1.1638 0
M  V30 6119 H 581.417 -1.3262 0.561069 0
M  V30 6120 H 583.37 -4.12682 -0.852752 0
M  V30 6121 H 582.094 -2.98112 -1.33404 0
M  V30 6122 H 580.753 -3.59707 0.707583 0
M  V30 6123 H 580.401 -4.81741 -1.44686 0
M  V30 6124 H 580.101 -5.87582 -0.0456494 0
M  V30 6125 H 581.625 -6.0292 -0.965375 0
M  V30 6126 H 583.039 -5.59201 1.26359 0
M  V30 6127 H 581.436 -5.63876 2.05339 0
M  V30 6128 H 582.506 -4.25253 2.32997 0
M  V30 6129 N 583.85 -0.624285 -1.44708 0
M  V30 6130 C 584.779 0.0717025 -2.3339 0
M  V30 6131 C 585.76 0.841814 -1.47809 0
M  V30 6132 O 586.946 0.809056 -1.76544 0
M  V30 6133 C 584.076 1.05852 -3.30776 0
M  V30 6134 C 583.029 0.400503 -4.26122 0
M  V30 6135 C 582.356 1.49674 -5.13324 0
M  V30 6136 C 583.656 -0.688924 -5.17737 0
M  V30 6137 H 585.35 -0.668819 -2.91834 0
M  V30 6138 H 582.896 -0.32308 -1.40329 0
M  V30 6139 H 584.849 1.5541 -3.91696 0
M  V30 6140 H 583.572 1.82984 -2.70526 0
M  V30 6141 H 582.231 -0.0743687 -3.66525 0
M  V30 6142 H 581.88 2.25877 -4.49431 0
M  V30 6143 H 581.58 1.06188 -5.77926 0
M  V30 6144 H 583.104 1.99427 -5.77115 0
M  V30 6145 H 584.518 -0.276724 -5.72632 0
M  V30 6146 H 582.915 -1.04652 -5.90904 0
M  V30 6147 H 583.985 -1.55884 -4.5916 0
M  V30 6148 N 585.328 1.53329 -0.364422 0
M  V30 6149 C 586.556 2.05657 0.226424 0
M  V30 6150 C 586.971 1.23801 1.42544 0
M  V30 6151 O 586.328 0.27839 1.80364 0
M  V30 6152 C 586.379 3.56125 0.621056 0
M  V30 6153 O 586.1 4.34879 -0.530304 0
M  V30 6154 C 587.601 4.24706 1.27041 0
M  V30 6155 H 584.821 0.669806 0.0400056 0
M  V30 6156 H 587.365 1.97714 -0.522456 0
M  V30 6157 H 585.52 3.64223 1.31985 0
M  V30 6158 H 585.934 5.24073 -0.211546 0
M  V30 6159 H 587.408 5.3131 1.49711 0
M  V30 6160 H 587.885 3.78354 2.23036 0
M  V30 6161 H 588.491 4.20858 0.613079 0
M  V30 6162 N 586.806 0.0935595 1.57322 0
M  V30 6163 C 587.736 -0.863062 2.16964 0
M  V30 6164 C 588.717 -1.29528 1.10256 0
M  V30 6165 O 589.902 -1.36245 1.38387 0
M  V30 6166 C 587.032 -2.12276 2.74875 0
M  V30 6167 C 585.986 -1.82921 3.86942 0
M  V30 6168 C 585.312 -3.15707 4.31548 0
M  V30 6169 C 586.612 -1.11737 5.10208 0
M  V30 6170 H 588.306 -0.366145 2.97153 0
M  V30 6171 H 585.852 -0.174673 1.42937 0
M  V30 6172 H 587.805 -2.79634 3.1525 0
M  V30 6173 H 586.529 -2.64248 1.91938 0
M  V30 6174 H 585.188 -1.17961 3.47103 0
M  V30 6175 H 584.836 -3.65563 3.45504 0
M  V30 6176 H 584.536 -2.96849 5.07104 0
M  V30 6177 H 586.06 -3.84226 4.74555 0
M  V30 6178 H 587.474 -1.69203 5.47762 0
M  V30 6179 H 585.871 -1.03064 5.91183 0
M  V30 6180 H 586.941 -0.0998818 4.84797 0
M  V30 6181 N 588.284 -1.56567 -0.180126 0
M  V30 6182 C 589.695 -1.7126 -0.743422 0
M  V30 6183 C 590.046 -0.70263 -1.83187 0
M  V30 6184 O 589.171 0.137856 -2.1596 0
M  V30 6185 C 589.766 -3.10512 -1.35528 0
M  V30 6186 C 588.325 -3.26919 -1.8655 0
M  V30 6187 C 587.472 -2.67213 -0.741099 0
M  V30 6188 H 590.423 -1.58636 0.0451543 0
M  V30 6189 H 590.444 -3.08673 -2.22489 0
M  V30 6190 H 589.956 -3.83997 -0.562862 0
M  V30 6191 H 588.057 -2.58376 -2.68464 0
M  V30 6192 H 588.17 -4.34574 -2.01699 0
M  V30 6193 H 586.534 -2.26788 -1.15927 0
M  V30 6194 H 587.317 -3.43277 0.0393291 0
M  V30 6195 N 589.762 0.448376 -1.51087 0
M  V30 6196 C 591.178 0.783984 -1.39017 0
M  V30 6197 C 591.378 1.96087 -0.463904 0
M  V30 6198 O 590.434 2.52357 0.0850534 0
M  V30 6199 C 591.747 1.07471 -2.80839 0
M  V30 6200 C 593.295 1.17981 -2.89913 0
M  V30 6201 C 593.77 1.50354 -4.32617 0
M  V30 6202 N 595.261 1.57301 -4.35673 0
M  V30 6203 C 595.996 1.839 -5.4311 0
M  V30 6204 N 595.492 2.08365 -6.60724 0
M  V30 6205 N 597.285 1.8559 -5.30578 0
M  V30 6206 H 589.436 -0.326881 -2.0987 0
M  V30 6207 H 591.699 -0.0838006 -0.944289 0
M  V30 6208 H 591.405 0.282768 -3.50561 0
M  V30 6209 H 591.279 2.00519 -3.19487 0
M  V30 6210 H 593.666 1.9624 -2.20395 0
M  V30 6211 H 593.747 0.228603 -2.54776 0
M  V30 6212 H 593.391 0.726273 -5.0268 0
M  V30 6213 H 593.321 2.46663 -4.65258 0
M  V30 6214 H 595.812 1.40342 -3.50874 0
M  V30 6215 H 596.125 2.27999 -7.38401 0
M  V30 6216 H 594.47 2.0571 -6.63859 0
M  V30 6217 H 597.661 1.65989 -4.37682 0
M  V30 6218 H 597.834 2.05983 -6.1439 0
M  V30 6219 N 591.24 1.41047 0.703093 0
M  V30 6220 C 592.489 1.39301 1.4587 0
M  V30 6221 C 592.802 0.00267077 1.956 0
M  V30 6222 O 594.008 -0.137414 2.71152 0
M  V30 6223 C 592.464 2.44891 2.63735 0
M  V30 6224 C 592.072 3.89796 2.20824 0
M  V30 6225 C 593.816 2.5227 3.41409 0
M  V30 6226 C 591.723 4.86955 3.35602 0
M  V30 6227 H 590.653 0.518005 0.547893 0
M  V30 6228 H 593.304 1.66839 0.764009 0
M  V30 6229 H 591.686 2.10472 3.35436 0
M  V30 6230 H 592.86 4.33424 1.56461 0
M  V30 6231 H 591.175 3.86008 1.56163 0
M  V30 6232 H 593.772 3.22044 4.26839 0
M  V30 6233 H 594.115 1.55714 3.86081 0
M  V30 6234 H 594.648 2.85742 2.7676 0
M  V30 6235 H 591.387 5.84888 2.9595 0
M  V30 6236 H 590.907 4.47982 3.98839 0
M  V30 6237 H 592.586 5.07361 4.01489 0
M  V30 6238 N 592.718 -0.936591 1.26751 0
M  V30 6239 C 593.665 -2.03597 1.08706 0
M  V30 6240 C 594.635 -1.66097 -0.00926542 0
M  V30 6241 O 595.82 -1.90199 0.151377 0
M  V30 6242 C 592.96 -3.3727 0.73094 0
M  V30 6243 C 592.073 -3.87778 1.90399 0
M  V30 6244 C 591.208 -5.09859 1.49056 0
M  V30 6245 C 590.247 -5.5264 2.63164 0
M  V30 6246 N 589.384 -6.65921 2.22471 0
M  V30 6247 H 594.224 -2.18364 2.02784 0
M  V30 6248 H 591.761 -1.06985 1.00958 0
M  V30 6249 H 593.719 -4.14128 0.505328 0
M  V30 6250 H 592.349 -3.22337 -0.172868 0
M  V30 6251 H 591.401 -3.07279 2.2424 0
M  V30 6252 H 592.713 -4.15464 2.76028 0
M  V30 6253 H 591.867 -5.9419 1.22567 0
M  V30 6254 H 590.606 -4.8393 0.60524 0
M  V30 6255 H 589.611 -4.66863 2.90377 0
M  V30 6256 H 590.836 -5.80568 3.52303 0
M  V30 6257 H 588.782 -6.41667 1.36379 0
M  V30 6258 H 588.699 -6.93216 3.01641 0
M  V30 6259 H 589.967 -7.53616 1.99205 0
M  V30 6260 N 594.196 -1.08629 -1.14182 0
M  V30 6261 C 595.442 -0.818556 -1.85546 0
M  V30 6262 C 595.775 0.654076 -1.82854 0
M  V30 6263 O 595.05 1.48099 -1.26083 0
M  V30 6264 C 595.333 -1.34397 -3.3408 0
M  V30 6265 C 595.186 -2.8821 -3.45333 0
M  V30 6266 C 596.505 -0.971069 -4.29253 0
M  V30 6267 H 593.624 -0.298821 -0.673702 0
M  V30 6268 H 596.266 -1.34629 -1.34071 0
M  V30 6269 H 594.416 -0.895064 -3.78049 0
M  V30 6270 H 596.088 -3.41488 -3.10134 0
M  V30 6271 H 594.331 -3.25756 -2.86471 0
M  V30 6272 H 595.002 -3.20047 -4.49749 0
M  V30 6273 H 597.478 -1.35809 -3.93313 0
M  V30 6274 H 596.354 -1.36586 -5.31635 0
M  V30 6275 H 596.615 0.121659 -4.41933 0
M  V30 6276 N 595.674 1.31259 -0.872281 0
M  V30 6277 C 596.902 2.00795 -0.498907 0
M  V30 6278 C 597.317 1.65464 0.909238 0
M  V30 6279 O 596.674 0.885073 1.59602 0
M  V30 6280 C 596.725 3.55625 -0.649092 0
M  V30 6281 O 596.446 3.89692 -2.00179 0
M  V30 6282 C 597.947 4.42434 -0.277034 0
M  V30 6283 H 595.167 0.642299 -0.194145 0
M  V30 6284 H 597.711 1.67438 -1.17408 0
M  V30 6285 H 595.866 3.87394 -0.0214402 0
M  V30 6286 H 596.28 4.84407 -2.01122 0
M  V30 6287 H 597.754 5.50299 -0.433064 0
M  V30 6288 H 598.231 4.32146 0.783989 0
M  V30 6289 H 598.837 4.16086 -0.880483 0
M  V30 6290 N 597.152 0.631951 1.44375 0
M  V30 6291 C 598.38 0.143867 2.06399 0
M  V30 6292 C 598.795 -1.18188 1.47231 0
M  V30 6293 O 598.152 -1.72511 0.595498 0
M  V30 6294 C 598.203 0.0238253 3.61492 0
M  V30 6295 O 597.924 1.29715 4.18456 0
M  V30 6296 C 599.425 -0.492856 4.40552 0
M  V30 6297 H 596.645 0.0800542 0.666207 0
M  V30 6298 H 599.189 0.866586 1.85231 0
M  V30 6299 H 597.344 -0.649338 3.81919 0
M  V30 6300 H 597.758 1.14252 5.11905 0
M  V30 6301 H 599.232 -0.525861 5.49489 0
M  V30 6302 H 599.709 -1.52006 4.12057 0
M  V30 6303 H 600.315 0.147085 4.25046 0
M  V30 6304 N 598.631 -1.53133 0.372548 0
M  V30 6305 C 599.856 -2.0625 -0.218098 0
M  V30 6306 C 600.281 -1.24375 -1.41111 0
M  V30 6307 O 599.639 -0.264554 -1.79359 0
M  V30 6308 C 599.687 -3.55858 -0.582876 0
M  V30 6309 O 598.791 -3.76667 -1.67917 0
M  V30 6310 H 598.132 -0.663317 -0.030104 0
M  V30 6311 H 600.662 -1.97477 0.535169 0
M  V30 6312 H 600.672 -3.99007 -0.851925 0
M  V30 6313 H 599.347 -4.14892 0.289428 0
M  V30 6314 H 597.924 -3.45413 -1.40513 0
M  V30 6315 N 600.109 -0.101901 -1.5727 0
M  V30 6316 C 601.041 0.884723 -2.11436 0
M  V30 6317 C 602.054 1.24149 -1.05314 0
M  V30 6318 O 603.243 1.19341 -1.3274 0
M  V30 6319 C 600.343 2.19179 -2.58484 0
M  V30 6320 C 599.516 2.00933 -3.88516 0
M  V30 6321 C 598.575 3.15213 -4.2134 0
M  V30 6322 O 597.601 2.88877 -4.90448 0
M  V30 6323 N 598.803 4.41174 -3.77288 0
M  V30 6324 H 601.568 0.422058 -2.96713 0
M  V30 6325 H 599.129 0.0830128 -1.61687 0
M  V30 6326 H 601.121 2.94593 -2.77484 0
M  V30 6327 H 599.691 2.56847 -1.7818 0
M  V30 6328 H 598.911 1.09809 -3.78597 0
M  V30 6329 H 600.199 1.86026 -4.73573 0
M  V30 6330 H 599.597 4.6545 -3.21516 0
M  V30 6331 H 598.154 5.13515 -4.01429 0
M  V30 6332 N 601.587 1.56661 0.17182 0
M  V30 6333 C 602.864 1.72838 0.915778 0
M  V30 6334 C 603.244 0.66316 2.00413 0
M  V30 6335 O 602.592 -0.322123 2.26218 0
M  V30 6336 C 602.802 3.16019 1.48097 0
M  V30 6337 C 604.15 3.76962 1.95408 0
M  V30 6338 O 605.174 3.19294 1.57892 0
M  V30 6339 O 604.033 4.78219 2.64516 0
M  V30 6340 H 601.127 0.705797 0.431021 0
M  V30 6341 H 603.673 1.68947 0.159689 0
M  V30 6342 H 602.445 3.85031 0.697618 0
M  V30 6343 H 602.068 3.24234 2.30126 0
M  V30 6344 N 603.065 -0.440357 1.51323 0
M  V30 6345 C 603.998 -1.55414 1.67098 0
M  V30 6346 C 604.976 -1.54108 0.518599 0
M  V30 6347 O 606.16 -1.7328 0.742054 0
M  V30 6348 C 603.287 -2.93996 1.68179 0
M  V30 6349 C 602.333 -3.13338 2.89347 0
M  V30 6350 S 603.166 -2.89957 4.50206 0
M  V30 6351 C 604.322 -4.30826 4.54027 0
M  V30 6352 H 604.555 -1.41798 2.61306 0
M  V30 6353 H 602.088 -0.629841 1.40969 0
M  V30 6354 H 604.046 -3.73878 1.69487 0
M  V30 6355 H 602.707 -3.04976 0.751542 0
M  V30 6356 H 601.9 -4.14652 2.86495 0
M  V30 6357 H 601.502 -2.41276 2.85766 0
M  V30 6358 H 603.794 -5.23977 4.29481 0
M  V30 6359 H 604.737 -4.38712 5.55822 0
M  V30 6360 H 605.145 -4.1434 3.83384 0
M  V30 6361 N 604.543 -1.41418 -0.695603 0
M  V30 6362 C 605.473 -1.46035 -1.82197 0
M  V30 6363 C 606.454 -0.319025 -1.67082 0
M  V30 6364 O 607.639 -0.530462 -1.86815 0
M  V30 6365 C 604.769 -1.34179 -3.20333 0
M  V30 6366 C 603.723 -2.46123 -3.50154 0
M  V30 6367 C 603.049 -2.19332 -4.87645 0
M  V30 6368 C 604.349 -3.88463 -3.49133 0
M  V30 6369 H 606.043 -2.40303 -1.78591 0
M  V30 6370 H 603.589 -1.15663 -0.857797 0
M  V30 6371 H 605.542 -1.36021 -3.98844 0
M  V30 6372 H 604.266 -0.363952 -3.24566 0
M  V30 6373 H 602.925 -2.43563 -2.73994 0
M  V30 6374 H 602.573 -1.19891 -4.88503 0
M  V30 6375 H 602.273 -2.94344 -5.08562 0
M  V30 6376 H 603.797 -2.22889 -5.68465 0
M  V30 6377 H 605.211 -3.92738 -4.17648 0
M  V30 6378 H 603.608 -4.63158 -3.81582 0
M  V30 6379 H 604.678 -4.16617 -2.48109 0
M  V30 6380 N 606.021 0.929856 -1.27246 0
M  V30 6381 C 607.246 1.71674 -1.16374 0
M  V30 6382 C 607.671 1.86064 0.276024 0
M  V30 6383 O 607.029 1.3591 1.19992 0
M  V30 6384 C 607.077 3.09526 -1.85003 0
M  V30 6385 O 606.181 3.96142 -1.14653 0
M  V30 6386 H 605.522 0.52629 -0.404863 0
M  V30 6387 H 608.052 1.16381 -1.68276 0
M  V30 6388 H 608.062 3.59852 -1.92276 0
M  V30 6389 H 606.737 2.98369 -2.89739 0
M  V30 6390 H 605.314 3.54584 -1.15433 0
M  V30 6391 N 607.499 1.09233 1.13605 0
M  V30 6392 C 608.748 0.82205 1.84188 0
M  V30 6393 C 609.061 -0.654548 1.84323 0
M  V30 6394 O 610.267 -1.04029 2.50779 0
M  V30 6395 C 608.723 1.42066 3.30674 0
M  V30 6396 C 608.331 2.92965 3.38933 0
M  V30 6397 C 610.075 1.22924 4.06313 0
M  V30 6398 C 607.982 3.45922 4.79679 0
M  V30 6399 H 606.912 0.303854 0.690064 0
M  V30 6400 H 609.563 1.31479 1.28006 0
M  V30 6401 H 607.945 0.855613 3.86646 0
M  V30 6402 H 609.119 3.55679 2.92966 0
M  V30 6403 H 607.434 3.11118 2.76757 0
M  V30 6404 H 610.031 1.59945 5.10217 0
M  V30 6405 H 610.374 0.169726 4.15954 0
M  V30 6406 H 610.907 1.76168 3.56665 0
M  V30 6407 H 607.646 4.51484 4.75229 0
M  V30 6408 H 607.166 2.87971 5.26149 0
M  V30 6409 H 608.845 3.43009 5.48592 0
M  V30 6410 N 608.977 -1.30795 0.87923 0
M  V30 6411 C 609.91 -2.26396 0.286404 0
M  V30 6412 C 610.888 -1.51528 -0.589748 0
M  V30 6413 O 612.072 -1.80566 -0.541119 0
M  V30 6414 C 609.199 -3.33458 -0.593581 0
M  V30 6415 C 608.245 -4.2597 0.21247 0
M  V30 6416 S 609.078 -5.11132 1.59702 0
M  V30 6417 C 610.234 -6.21705 0.723408 0
M  V30 6418 H 610.467 -2.7633 1.09677 0
M  V30 6419 H 608 -1.38703 0.678305 0
M  V30 6420 H 609.958 -3.9561 -1.09557 0
M  V30 6421 H 608.619 -2.82259 -1.37799 0
M  V30 6422 H 607.812 -5.01907 -0.458822 0
M  V30 6423 H 607.414 -3.68363 0.646883 0
M  V30 6424 H 609.706 -6.77472 -0.0620739 0
M  V30 6425 H 610.649 -6.93007 1.4542 0
M  V30 6426 H 611.057 -5.63771 0.286855 0
M  V30 6427 N 610.455 -0.639598 -1.44038 0
M  V30 6428 C 611.365 0.0612377 -2.3452 0
M  V30 6429 C 612.381 0.826717 -1.53106 0
M  V30 6430 O 613.557 0.777059 -1.85806 0
M  V30 6431 C 610.622 1.02492 -3.31204 0
M  V30 6432 C 609.683 0.25788 -4.28525 0
M  V30 6433 C 608.916 1.17566 -5.2059 0
M  V30 6434 O 609.139 2.41461 -5.16771 0
M  V30 6435 O 608.073 0.655407 -5.98321 0
M  V30 6436 H 611.899 -0.68318 -2.95916 0
M  V30 6437 H 609.484 -0.399784 -1.43952 0
M  V30 6438 H 611.366 1.57911 -3.90694 0
M  V30 6439 H 610.041 1.7498 -2.7233 0
M  V30 6440 H 608.948 -0.339566 -3.72556 0
M  V30 6441 H 610.281 -0.427154 -4.90343 0
M  V30 6442 N 611.933 1.52934 -0.380664 0
M  V30 6443 C 612.88 2.26197 0.458641 0
M  V30 6444 C 613.85 1.27462 1.06502 0
M  V30 6445 O 615.035 1.56274 1.09467 0
M  V30 6446 C 612.175 3.06571 1.58456 0
M  V30 6447 C 611.288 4.20222 1.00189 0
M  V30 6448 C 610.423 4.88007 2.09815 0
M  V30 6449 C 609.462 5.93665 1.49092 0
M  V30 6450 N 608.599 6.55081 2.52613 0
M  V30 6451 H 613.439 2.975 -0.172595 0
M  V30 6452 H 610.976 1.4678 -0.0969426 0
M  V30 6453 H 612.934 3.51455 2.24801 0
M  V30 6454 H 611.564 2.37494 2.18624 0
M  V30 6455 H 610.616 3.79714 0.228292 0
M  V30 6456 H 611.928 4.96102 0.518064 0
M  V30 6457 H 611.082 5.36151 2.83948 0
M  V30 6458 H 609.821 4.11632 2.61555 0
M  V30 6459 H 608.826 5.44868 0.7348 0
M  V30 6460 H 610.051 6.71969 0.981582 0
M  V30 6461 H 607.997 5.8155 3.03538 0
M  V30 6462 H 607.914 7.26548 2.08961 0
M  V30 6463 H 609.182 7.07871 3.26402 0
M  V30 6464 N 613.412 0.11024 1.57214 0
M  V30 6465 C 614.342 -0.840002 2.17867 0
M  V30 6466 C 615.323 -1.28352 1.11624 0
M  V30 6467 O 616.508 -1.3477 1.39824 0
M  V30 6468 C 613.638 -2.09349 2.77111 0
M  V30 6469 C 612.592 -1.78807 3.8886 0
M  V30 6470 C 611.918 -3.11112 4.34872 0
M  V30 6471 C 613.218 -1.0632 5.11364 0
M  V30 6472 H 614.912 -0.334608 2.97524 0
M  V30 6473 H 612.458 -0.159502 1.43114 0
M  V30 6474 H 614.411 -2.76275 3.18198 0
M  V30 6475 H 613.135 -2.62198 1.9473 0
M  V30 6476 H 611.794 -1.14273 3.48335 0
M  V30 6477 H 611.442 -3.61877 3.49362 0
M  V30 6478 H 611.142 -2.91453 5.10224 0
M  V30 6479 H 612.666 -3.79171 4.78604 0
M  V30 6480 H 614.08 -1.63383 5.49526 0
M  V30 6481 H 612.477 -0.967876 5.92243 0
M  V30 6482 H 613.547 -0.0484569 4.84876 0
M  V30 6483 N 614.89 -1.56749 -0.16351 0
M  V30 6484 C 615.8 -2.00255 -1.2221 0
M  V30 6485 C 616.816 -0.915194 -1.47987 0
M  V30 6486 O 617.992 -1.22342 -1.59982 0
M  V30 6487 C 615.057 -2.36035 -2.53946 0
M  V30 6488 C 614.118 -3.58637 -2.35962 0
M  V30 6489 C 613.351 -3.92701 -3.61416 0
M  V30 6490 O 613.574 -3.27632 -4.66919 0
M  V30 6491 O 612.508 -4.86019 -3.55062 0
M  V30 6492 H 616.334 -2.90586 -0.882794 0
M  V30 6493 H 613.919 -1.44721 -0.370978 0
M  V30 6494 H 615.801 -2.59982 -3.31643 0
M  V30 6495 H 614.476 -1.48863 -2.8744 0
M  V30 6496 H 613.383 -3.39898 -1.5627 0
M  V30 6497 H 614.716 -4.46374 -2.0739 0
M  V30 6498 N 616.368 0.432326 -1.51554 0
M  V30 6499 C 617.615 1.18134 -1.64471 0
M  V30 6500 C 617.943 1.91076 -0.363349 0
M  V30 6501 O 617.198 1.84492 0.65279 0
M  V30 6502 C 617.497 2.21907 -2.80164 0
M  V30 6503 C 617.163 1.65941 -4.19255 0
M  V30 6504 C 615.825 1.50401 -4.57092 0
M  V30 6505 C 618.177 1.24843 -5.06027 0
M  V30 6506 C 615.505 0.922443 -5.79403 0
M  V30 6507 C 617.857 0.68113 -6.28922 0
M  V30 6508 C 616.521 0.512673 -6.65528 0
M  V30 6509 H 615.791 0.432283 -0.601841 0
M  V30 6510 H 618.438 0.471701 -1.856 0
M  V30 6511 H 616.743 2.98928 -2.53277 0
M  V30 6512 H 618.44 2.79691 -2.87357 0
M  V30 6513 H 615.03 1.79014 -3.89425 0
M  V30 6514 H 619.214 1.35667 -4.77397 0
M  V30 6515 H 614.47 0.779733 -6.06408 0
M  V30 6516 H 618.644 0.35418 -6.95499 0
M  V30 6517 H 616.271 0.0599084 -7.60176 0
M  V30 6518 N 617.846 1.41785 0.688094 0
M  V30 6519 C 619.093 1.41544 1.44816 0
M  V30 6520 C 619.421 0.0271746 1.94481 0
M  V30 6521 O 618.676 -0.962235 1.7041 0
M  V30 6522 C 618.975 2.37532 2.67046 0
M  V30 6523 C 618.641 3.84209 2.35996 0
M  V30 6524 C 617.303 4.24165 2.27239 0
M  V30 6525 C 619.655 4.76785 2.10536 0
M  V30 6526 C 616.983 5.54695 1.91128 0
M  V30 6527 C 619.335 6.07644 1.75931 0
M  V30 6528 C 617.999 6.46613 1.65675 0
M  V30 6529 H 617.269 0.517945 0.529919 0
M  V30 6530 H 619.916 1.74635 0.785797 0
M  V30 6531 H 618.221 1.9772 3.38251 0
M  V30 6532 H 619.918 2.34615 3.25203 0
M  V30 6533 H 616.508 3.52567 2.4371 0
M  V30 6534 H 620.692 4.46714 2.16242 0
M  V30 6535 H 615.948 5.83762 1.81746 0
M  V30 6536 H 620.122 6.78874 1.55252 0
M  V30 6537 H 617.749 7.47668 1.37463 0
M  V30 6538 N 619.324 -0.923095 1.27737 0
M  V30 6539 C 620.601 -1.64989 1.05062 0
M  V30 6540 C 620.981 -2.07018 -0.413124 0
M  V30 6541 O 620.329 -1.80797 -1.39731 0
M  V30 6542 C 620.539 -2.84847 2.01652 0
M  V30 6543 C 621.887 -3.56083 2.31279 0
M  V30 6544 O 622.911 -2.94981 1.99662 0
M  V30 6545 O 621.77 -4.66182 2.85196 0
M  V30 6546 H 618.864 -0.723357 0.400853 0
M  V30 6547 H 621.41 -0.973224 1.3902 0
M  V30 6548 H 620.182 -2.50814 3.00347 0
M  V30 6549 H 619.805 -3.60231 1.68284 0
M  V30 6550 N 620.802 -1.09834 -1.13024 0
M  V30 6551 C 622.049 -0.83695 -1.84395 0
M  V30 6552 C 622.377 0.637463 -1.83757 0
M  V30 6553 O 621.632 1.48554 -1.27398 0
M  V30 6554 C 621.931 -1.32263 -3.32026 0
M  V30 6555 C 621.597 -2.80739 -3.52841 0
M  V30 6556 C 620.259 -3.21286 -3.5823 0
M  V30 6557 C 622.611 -3.76449 -3.60466 0
M  V30 6558 C 619.939 -4.56308 -3.68781 0
M  V30 6559 C 622.291 -5.11266 -3.72546 0
M  V30 6560 C 620.955 -5.51397 -3.76189 0
M  V30 6561 H 620.225 -0.306262 -0.674748 0
M  V30 6562 H 622.872 -1.37385 -1.33408 0
M  V30 6563 H 621.177 -0.705618 -3.85394 0
M  V30 6564 H 622.874 -1.09695 -3.85705 0
M  V30 6565 H 619.464 -2.48363 -3.49305 0
M  V30 6566 H 623.648 -3.46234 -3.55578 0
M  V30 6567 H 618.904 -4.86832 -3.69871 0
M  V30 6568 H 623.078 -5.85279 -3.77388 0
M  V30 6569 H 620.705 -6.56017 -3.84117 0
M  V30 6570 N 622.28 1.30327 -0.886154 0
M  V30 6571 C 623.505 2.0079 -0.519425 0
M  V30 6572 C 623.93 1.65979 0.885013 0
M  V30 6573 O 623.288 0.877043 1.58675 0
M  V30 6574 C 623.336 3.53686 -0.702758 0
M  V30 6575 O 622.44 4.11637 0.250828 0
M  V30 6576 H 621.781 0.63171 -0.204544 0
M  V30 6577 H 624.311 1.66145 -1.19402 0
M  V30 6578 H 624.321 4.03531 -0.602207 0
M  V30 6579 H 622.996 3.78361 -1.72673 0
M  V30 6580 H 621.573 3.72755 0.103873 0
M  V30 6581 N 623.758 0.647228 1.43697 0
M  V30 6582 C 624.988 0.16551 2.05936 0
M  V30 6583 C 625.396 -1.17164 1.48557 0
M  V30 6584 O 624.739 -1.73307 0.60914 0
M  V30 6585 C 624.801 -0.00648082 3.59499 0
M  V30 6586 C 624.465 1.25503 4.39429 0
M  V30 6587 C 625.462 2.18241 4.71876 0
M  V30 6588 C 623.147 1.49494 4.79538 0
M  V30 6589 C 625.141 3.33268 5.43333 0
M  V30 6590 C 622.828 2.64815 5.50742 0
M  V30 6591 C 623.826 3.56528 5.82561 0
M  V30 6592 O 623.514 4.69836 6.52311 0
M  V30 6593 H 623.246 0.0844124 0.670709 0
M  V30 6594 H 625.8 0.88638 1.8529 0
M  V30 6595 H 624.03 -0.782661 3.78697 0
M  V30 6596 H 625.719 -0.444794 4.03456 0
M  V30 6597 H 626.485 2.00946 4.41413 0
M  V30 6598 H 622.364 0.789912 4.54182 0
M  V30 6599 H 625.908 4.04874 5.68087 0
M  V30 6600 H 621.805 2.82047 5.8062 0
M  V30 6601 H 622.573 4.69024 6.70789 0
M  V30 6602 N 625.236 -1.5273 0.388769 0
M  V30 6603 C 626.513 -1.93981 -0.251133 0
M  V30 6604 C 626.893 -1.32418 -1.64404 0
M  V30 6605 O 626.241 -0.492074 -2.23139 0
M  V30 6606 C 626.451 -3.47891 -0.27802 0
M  V30 6607 C 627.799 -4.21559 -0.507229 0
M  V30 6608 O 628.823 -3.54394 -0.358252 0
M  V30 6609 O 627.682 -5.40626 -0.799094 0
M  V30 6610 H 624.776 -0.812157 -0.15598 0
M  V30 6611 H 627.322 -1.63809 0.443237 0
M  V30 6612 H 626.094 -3.8503 0.697669 0
M  V30 6613 H 625.717 -3.84364 -1.01733 0
M  V30 6614 N 626.714 -0.118576 -1.57153 0
M  V30 6615 C 627.644 0.828436 -2.1831 0
M  V30 6616 C 628.625 1.27758 -1.12303 0
M  V30 6617 O 629.81 1.34026 -1.40537 0
M  V30 6618 C 626.94 2.07876 -2.78217 0
M  V30 6619 C 625.894 1.76742 -3.89803 0
M  V30 6620 C 625.22 3.08801 -4.36516 0
M  V30 6621 C 626.52 1.03606 -5.11921 0
M  V30 6622 H 628.214 0.318824 -2.97698 0
M  V30 6623 H 625.76 0.151911 -1.43196 0
M  V30 6624 H 627.713 2.74584 -3.19659 0
M  V30 6625 H 626.437 2.61161 -1.96118 0
M  V30 6626 H 625.096 1.12424 -3.48936 0
M  V30 6627 H 624.744 3.6002 -3.51276 0
M  V30 6628 H 624.444 2.88743 -5.11763 0
M  V30 6629 H 625.968 3.76627 -4.80608 0
M  V30 6630 H 627.382 1.60467 -5.50385 0
M  V30 6631 H 625.779 0.936454 -5.92748 0
M  V30 6632 H 626.849 0.0227421 -4.84895 0
M  V30 6633 N 628.193 1.56834 0.155195 0
M  V30 6634 C 629.141 1.98584 1.21107 0
M  V30 6635 C 630.135 0.876987 1.44932 0
M  V30 6636 O 631.341 1.06215 1.45322 0
M  V30 6637 H 627.716 0.632039 0.407469 0
M  V30 6638 H 629.687 2.86561 0.832195 0
M  V30 6639 C 628.436 2.37555 2.53895 0
M  V30 6640 H 627.759 3.22428 2.3639 0
M  V30 6641 H 629.199 2.70598 3.26424 0
M  V30 6642 C 627.658 1.22507 3.13837 0
M  V30 6643 O 628.188 0.521388 3.98302 0
M  V30 6644 N 626.394 0.991444 2.73164 0
M  V30 6645 H 625.941 1.56544 2.04577 0
M  V30 6646 H 625.899 0.223546 3.13604 0
M  V30 6647 N 629.671 -0.424282 1.51781 0
M  V30 6648 C 630.601 -1.52305 1.7699 0
M  V30 6649 C 631.582 -1.5839 0.620209 0
M  V30 6650 O 632.767 -1.73908 0.864268 0
M  V30 6651 C 629.897 -2.90271 1.90683 0
M  V30 6652 C 628.851 -2.99043 3.06198 0
M  V30 6653 C 628.177 -4.39116 3.05092 0
M  V30 6654 C 629.477 -2.7192 4.45934 0
M  V30 6655 H 631.171 -1.31461 2.68995 0
M  V30 6656 H 628.717 -0.630985 1.29439 0
M  V30 6657 H 630.67 -3.6711 2.06901 0
M  V30 6658 H 629.394 -3.12376 0.953365 0
M  V30 6659 H 628.053 -2.24646 2.89706 0
M  V30 6660 H 627.701 -4.58207 2.07498 0
M  V30 6661 H 627.401 -4.45912 3.82669 0
M  V30 6662 H 628.925 -5.17911 3.2342 0
M  V30 6663 H 630.339 -3.38487 4.62709 0
M  V30 6664 H 628.736 -2.90111 5.25315 0
M  V30 6665 H 629.806 -1.67445 4.55072 0
M  V30 6666 N 631.149 -1.42148 -0.680565 0
M  V30 6667 C 632.389 -1.4379 -1.45271 0
M  V30 6668 C 632.753 -0.0504426 -1.91934 0
M  V30 6669 O 633.954 0.0583916 -2.68737 0
M  V30 6670 C 632.225 -2.42904 -2.62168 0
M  V30 6671 S 633.784 -2.63201 -3.51099 0
M  V30 6672 H 630.602 -0.509185 -0.496237 0
M  V30 6673 H 633.204 -1.78706 -0.792744 0
M  V30 6674 H 631.908 -3.4249 -2.26116 0
M  V30 6675 H 631.439 -2.09394 -3.33043 0
M  V30 6676 H 633.454 -1.91068 -4.57938 0
M  V30 6677 N 632.627 0.916307 -1.28225 0
M  V30 6678 C 633.875 1.6619 -1.15002 0
M  V30 6679 C 634.196 1.92642 0.302329 0
M  V30 6680 O 633.466 1.54076 1.20985 0
M  V30 6681 H 632.046 0.615964 -0.422608 0
M  V30 6682 H 634.708 1.09963 -1.60917 0
M  V30 6683 H 633.804 2.62533 -1.68769 0
M  V30 6684 N 634.105 1.10431 1.1244 0
M  V30 6685 C 635.035 0.775143 2.20258 0
M  V30 6686 C 636.016 -0.25186 1.68225 0
M  V30 6687 O 637.201 -0.117637 1.93843 0
M  V30 6688 C 634.331 0.206133 3.46688 0
M  V30 6689 C 633.285 1.16382 4.11873 0
M  V30 6690 C 632.611 0.456014 5.32752 0
M  V30 6691 C 633.911 2.5104 4.58013 0
M  V30 6692 H 635.605 1.67665 2.4805 0
M  V30 6693 H 633.151 0.807595 1.19222 0
M  V30 6694 H 635.104 -0.036291 4.21384 0
M  V30 6695 H 633.828 -0.730614 3.18323 0
M  V30 6696 H 632.487 1.39169 3.39157 0
M  V30 6697 H 632.135 -0.485203 5.00654 0
M  V30 6698 H 631.835 1.09466 5.77314 0
M  V30 6699 H 633.359 0.222135 6.10196 0
M  V30 6700 H 634.773 2.32401 5.24083 0
M  V30 6701 H 633.17 3.10789 5.13352 0
M  V30 6702 H 634.24 3.11039 3.71998 0
M  V30 6703 N 635.583 -1.29855 0.893053 0
M  V30 6704 C 636.811 -1.99976 0.530788 0
M  V30 6705 C 637.226 -1.66889 -0.882799 0
M  V30 6706 O 636.583 -0.910352 -1.58173 0
M  V30 6707 C 636.634 -3.54547 0.705587 0
M  V30 6708 O 636.355 -3.86458 2.06353 0
M  V30 6709 C 637.856 -4.41937 0.347387 0
M  V30 6710 H 635.076 -0.639129 0.204339 0
M  V30 6711 H 637.62 -1.65549 1.20057 0
M  V30 6712 H 635.775 -3.87311 0.0830685 0
M  V30 6713 H 636.189 -4.81146 2.08803 0
M  V30 6714 H 637.663 -5.4954 0.520557 0
M  V30 6715 H 638.14 -4.33339 -0.715139 0
M  V30 6716 H 638.746 -4.14633 0.946567 0
M  V30 6717 N 637.061 -0.65484 -1.43351 0
M  V30 6718 C 637.971 0.0363603 -2.34572 0
M  V30 6719 C 638.987 0.810432 -1.53974 0
M  V30 6720 O 640.163 0.757308 -1.86619 0
M  V30 6721 C 637.228 0.989733 -3.32273 0
M  V30 6722 C 636.289 0.212414 -4.28774 0
M  V30 6723 C 635.522 1.12038 -5.21808 0
M  V30 6724 O 635.745 2.35967 -5.19303 0
M  V30 6725 O 634.679 0.59191 -5.98982 0
M  V30 6726 H 638.505 -0.714527 -2.95175 0
M  V30 6727 H 636.09 -0.415029 -1.4352 0
M  V30 6728 H 637.972 1.53759 -3.92347 0
M  V30 6729 H 636.647 1.72082 -2.74171 0
M  V30 6730 H 635.554 -0.379062 -3.72175 0
M  V30 6731 H 636.887 -0.479138 -4.89862 0
M  V30 6732 N 638.539 1.52521 -0.396863 0
M  V30 6733 C 639.816 1.94112 0.240842 0
M  V30 6734 C 640.196 1.33288 1.637 0
M  V30 6735 O 639.544 0.503901 2.22875 0
M  V30 6736 C 639.754 3.48033 0.259567 0
M  V30 6737 C 641.102 4.21822 0.484866 0
M  V30 6738 O 642.126 3.54579 0.339453 0
M  V30 6739 O 640.985 5.41042 0.770412 0
M  V30 6740 H 638.079 0.812973 0.151671 0
M  V30 6741 H 640.625 1.63572 -0.451918 0
M  V30 6742 H 639.397 3.84655 -0.718078 0
M  V30 6743 H 639.02 3.84899 0.996937 0
M  V30 6744 N 640.017 0.126909 1.57088 0
M  V30 6745 C 641.428 -0.397201 1.82426 0
M  V30 6746 C 641.779 -1.66084 1.04453 0
M  V30 6747 O 640.904 -2.14534 0.283552 0
M  V30 6748 C 641.499 -0.727411 3.30899 0
M  V30 6749 C 640.058 -1.19612 3.56889 0
M  V30 6750 C 639.205 -0.20885 2.76512 0
M  V30 6751 H 642.156 0.351924 1.54749 0
M  V30 6752 H 642.177 -1.58407 3.45959 0
M  V30 6753 H 641.689 0.19247 3.87622 0
M  V30 6754 H 639.79 -2.13263 3.05532 0
M  V30 6755 H 639.903 -1.13598 4.65438 0
M  V30 6756 H 638.267 -0.697479 2.44964 0
M  V30 6757 H 639.05 0.704267 3.35998 0
M  V30 6758 N 641.495 -1.56914 -0.146875 0
M  V30 6759 C 642.772 -1.74273 -0.888165 0
M  V30 6760 C 643.152 -0.69496 -1.99333 0
M  V30 6761 O 642.5 0.286093 -2.26702 0
M  V30 6762 C 642.71 -3.18336 -1.43051 0
M  V30 6763 C 644.058 -3.80024 -1.89387 0
M  V30 6764 O 645.082 -3.21765 -1.52792 0
M  V30 6765 O 643.941 -4.82367 -2.56874 0
M  V30 6766 H 641.035 -0.712565 -0.419738 0
M  V30 6767 H 643.581 -1.6918 -0.132791 0
M  V30 6768 H 642.353 -3.86092 -0.636274 0
M  V30 6769 H 641.976 -3.27854 -2.24938 0
M  V30 6770 N 642.974 0.416227 -1.52004 0
M  V30 6771 C 643.904 1.51365 -1.77795 0
M  V30 6772 C 644.885 1.58059 -0.628601 0
M  V30 6773 O 646.07 1.73447 -0.873478 0
M  V30 6774 C 643.2 2.89256 -1.92219 0
M  V30 6775 C 642.154 2.97415 -3.0778 0
M  V30 6776 C 641.48 4.37492 -3.07417 0
M  V30 6777 C 642.78 2.69551 -4.47369 0
M  V30 6778 H 644.474 1.30033 -2.69688 0
M  V30 6779 H 642.02 0.624112 -1.29772 0
M  V30 6780 H 643.973 3.66008 -2.08845 0
M  V30 6781 H 642.697 3.11866 -0.969917 0
M  V30 6782 H 641.356 2.23107 -2.90893 0
M  V30 6783 H 641.004 4.571 -2.09925 0
M  V30 6784 H 640.704 4.43877 -3.85029 0
M  V30 6785 H 642.228 5.16188 -3.26162 0
M  V30 6786 H 643.642 3.36028 -4.64497 0
M  V30 6787 H 642.039 2.87321 -5.26846 0
M  V30 6788 H 643.109 1.65029 -4.55953 0
M  V30 6789 N 644.452 1.42507 0.673017 0
M  V30 6790 C 645.384 1.42074 1.79854 0
M  V30 6791 C 646.397 0.319569 1.59633 0
M  V30 6792 O 647.586 0.582769 1.68719 0
M  V30 6793 C 644.686 1.19886 3.16987 0
M  V30 6794 C 643.859 2.42471 3.64042 0
M  V30 6795 C 642.918 2.15802 4.79913 0
M  V30 6796 O 641.944 2.89015 4.90366 0
M  V30 6797 N 643.146 1.16225 5.68746 0
M  V30 6798 H 645.911 2.3909 1.8071 0
M  V30 6799 H 643.472 1.37409 0.856171 0
M  V30 6800 H 645.464 0.999591 3.92161 0
M  V30 6801 H 644.034 0.313879 3.1102 0
M  V30 6802 H 643.254 2.77954 2.79526 0
M  V30 6803 H 644.542 3.24097 3.92223 0
M  V30 6804 H 643.94 0.556756 5.62954 0
M  V30 6805 H 642.497 1.02285 6.43724 0
M  V30 6806 N 645.93 -0.909495 1.28709 0
M  V30 6807 C 647.176 -1.66151 1.16283 0
M  V30 6808 C 647.509 -1.92067 -0.287069 0
M  V30 6809 O 646.784 -1.52409 -1.20837 0
M  V30 6810 C 647.067 -3.01676 1.9663 0
M  V30 6811 C 646.92 -2.82888 3.49707 0
M  V30 6812 C 648.239 -4.02274 1.78504 0
M  V30 6813 H 645.358 -0.602966 0.423793 0
M  V30 6814 H 648 -1.05418 1.58073 0
M  V30 6815 H 646.15 -3.53515 1.61119 0
M  V30 6816 H 647.822 -2.38026 3.95147 0
M  V30 6817 H 646.065 -2.17862 3.75125 0
M  V30 6818 H 646.736 -3.79147 4.01187 0
M  V30 6819 H 649.212 -3.59511 2.09503 0
M  V30 6820 H 648.088 -4.95056 2.37088 0
M  V30 6821 H 648.349 -4.35903 0.737647 0
M  V30 6822 N 647.408 -1.11026 -1.11852 0
M  V30 6823 C 648.633 -0.879064 -1.87849 0
M  V30 6824 C 649.058 0.565406 -1.79401 0
M  V30 6825 O 648.416 1.39886 -1.15333 0
M  V30 6826 C 648.464 -1.33985 -3.34784 0
M  V30 6827 O 647.568 -0.508803 -4.09249 0
M  V30 6828 H 646.909 -0.316992 -0.583448 0
M  V30 6829 H 649.439 -1.47863 -1.41413 0
M  V30 6830 H 649.449 -1.33248 -3.85628 0
M  V30 6831 H 648.124 -2.39172 -3.40249 0
M  V30 6832 H 646.701 -0.581913 -3.68332 0
M  V30 6833 N 648.886 1.2938 -0.899927 0
M  V30 6834 C 649.849 2.25983 -0.382677 0
M  V30 6835 C 650.849 1.53366 0.483259 0
M  V30 6836 O 652.039 1.71798 0.28828 0
M  V30 6837 C 649.171 3.37878 0.452915 0
M  V30 6838 H 650.364 2.73252 -1.23586 0
M  V30 6839 H 647.917 1.40825 -0.678088 0
M  V30 6840 H 648.652 2.95949 1.32608 0
M  V30 6841 H 648.437 3.91742 -0.167562 0
M  V30 6842 H 649.927 4.09746 0.806107 0
M  V30 6843 N 650.364 0.662433 1.43002 0
M  V30 6844 C 651.297 -0.073459 2.28082 0
M  V30 6845 C 652.275 -0.820869 1.40358 0
M  V30 6846 O 653.459 -0.818545 1.698 0
M  V30 6847 C 650.586 -1.11097 3.19961 0
M  V30 6848 C 649.632 -0.460557 4.24006 0
M  V30 6849 S 650.465 0.772717 5.29896 0
M  V30 6850 C 651.621 -0.264028 6.25343 0
M  V30 6851 H 651.854 0.648227 2.90147 0
M  V30 6852 H 649.387 0.451566 1.47649 0
M  V30 6853 H 651.345 -1.70452 3.73439 0
M  V30 6854 H 650.006 -1.80503 2.57056 0
M  V30 6855 H 649.199 -1.24299 4.88432 0
M  V30 6856 H 648.801 0.0591038 3.73953 0
M  V30 6857 H 651.093 -1.12748 6.68052 0
M  V30 6858 H 652.036 0.345443 7.07257 0
M  V30 6859 H 652.444 -0.603964 5.6126 0
M  V30 6860 N 651.842 -1.52309 0.404946 0
M  V30 6861 C 652.774 -2.24579 -0.45791 0
M  V30 6862 C 653.787 -1.2739 -1.01369 0
M  V30 6863 O 654.976 -1.53363 -0.91335 0
M  V30 6864 C 652.076 -2.9608 -1.64893 0
M  V30 6865 C 651.249 -4.20106 -1.21777 0
M  V30 6866 C 650.308 -4.74468 -2.27523 0
M  V30 6867 O 649.334 -5.37157 -1.88285 0
M  V30 6868 N 650.536 -4.55678 -3.59635 0
M  V30 6869 H 653.301 -2.99265 0.161341 0
M  V30 6870 H 650.862 -1.60228 0.232107 0
M  V30 6871 H 652.854 -3.29344 -2.35191 0
M  V30 6872 H 651.424 -2.24606 -2.17419 0
M  V30 6873 H 650.644 -3.92704 -0.343071 0
M  V30 6874 H 651.932 -5.00658 -0.906596 0
M  V30 6875 H 651.33 -4.05673 -3.94266 0
M  V30 6876 H 649.887 -4.9339 -4.25922 0
M  V30 6877 N 653.32 -0.135238 -1.57019 0
M  V30 6878 C 654.27 0.820408 -2.12728 0
M  V30 6879 C 655.254 1.21735 -1.05211 0
M  V30 6880 O 656.446 1.18574 -1.31413 0
M  V30 6881 C 653.575 2.06414 -2.74314 0
M  V30 6882 C 652.661 1.69083 -3.88937 0
M  V30 6883 N 653.052 1.0251 -4.95303 0
M  V30 6884 C 651.35 1.98434 -3.99425 0
M  V30 6885 C 652.051 0.846749 -5.75504 0
M  V30 6886 N 651.027 1.3769 -5.25873 0
M  V30 6887 H 654.829 0.302426 -2.9234 0
M  V30 6888 H 652.343 0.0667009 -1.62263 0
M  V30 6889 H 654.34 2.75863 -3.12579 0
M  V30 6890 H 653 2.58741 -1.96171 0
M  V30 6891 H 654.011 0.687207 -5.1332 0
M  V30 6892 H 650.688 2.52693 -3.32344 0
M  V30 6893 H 652.078 0.322949 -6.71123 0
M  V30 6894 N 654.798 1.5699 0.138552 0
M  V30 6895 C 655.73 1.95515 1.1961 0
M  V30 6896 C 656.743 0.852002 1.38726 0
M  V30 6897 O 657.932 1.13038 1.38147 0
M  V30 6898 C 655.032 2.2213 2.55952 0
M  V30 6899 C 654.205 3.53424 2.57702 0
M  V30 6900 C 653.264 3.6848 3.75645 0
M  V30 6901 O 652.29 4.4079 3.60129 0
M  V30 6902 N 653.492 3.05777 4.93438 0
M  V30 6903 H 656.257 2.86838 0.868557 0
M  V30 6904 H 653.818 1.58542 0.328033 0
M  V30 6905 H 655.81 2.29435 3.33379 0
M  V30 6906 H 654.38 1.3703 2.80965 0
M  V30 6907 H 653.6 3.57484 1.6613 0
M  V30 6908 H 654.888 4.39759 2.55909 0
M  V30 6909 H 654.286 2.46961 5.08947 0
M  V30 6910 H 652.843 3.18631 5.6861 0
M  V30 6911 N 656.276 -0.40816 1.52223 0
M  V30 6912 C 657.504 -1.17672 1.70179 0
M  V30 6913 C 657.919 -1.84257 0.411696 0
M  V30 6914 O 657.276 -1.7192 -0.612354 0
M  V30 6915 C 657.327 -2.23911 2.83806 0
M  V30 6916 O 657.048 -1.60044 4.0782 0
M  V30 6917 C 658.549 -3.1364 3.13281 0
M  V30 6918 H 655.769 -0.353562 0.570293 0
M  V30 6919 H 658.313 -0.480083 1.98785 0
M  V30 6920 H 656.468 -2.89242 2.57717 0
M  V30 6921 H 656.882 -2.30484 4.71145 0
M  V30 6922 H 658.356 -3.84255 3.96298 0
M  V30 6923 H 658.833 -3.76066 2.26872 0
M  V30 6924 H 659.439 -2.53977 3.41139 0
M  V30 6925 N 657.755 -1.42862 -0.66545 0
M  V30 6926 C 659.001 -1.44043 -1.42757 0
M  V30 6927 C 659.334 -0.0599629 -1.94107 0
M  V30 6928 O 658.609 0.917286 -1.71511 0
M  V30 6929 C 658.892 -2.47266 -2.61786 0
M  V30 6930 C 658.745 -3.94539 -2.16007 0
M  V30 6931 C 660.064 -2.47365 -3.64003 0
M  V30 6932 H 657.183 -0.524506 -0.517748 0
M  V30 6933 H 659.825 -1.74335 -0.755466 0
M  V30 6934 H 657.975 -2.21565 -3.19126 0
M  V30 6935 H 659.647 -4.31254 -1.63762 0
M  V30 6936 H 657.89 -4.07957 -1.47491 0
M  V30 6937 H 658.561 -4.62357 -3.01546 0
M  V30 6938 H 661.037 -2.70243 -3.16399 0
M  V30 6939 H 659.913 -3.21552 -4.44854 0
M  V30 6940 H 660.174 -1.50299 -4.15767 0
M  V30 6941 N 659.233 0.902656 -1.29189 0
M  V30 6942 C 660.163 2.02294 -1.16616 0
M  V30 6943 C 661.144 1.6999 -0.0611175 0
M  V30 6944 O 662.329 1.9271 -0.240072 0
M  V30 6945 C 659.459 3.37018 -0.83882 0
M  V30 6946 C 658.413 3.83522 -1.89986 0
M  V30 6947 C 657.739 5.15337 -1.42589 0
M  V30 6948 C 659.039 4.04169 -3.30824 0
M  V30 6949 H 660.733 2.13071 -2.10336 0
M  V30 6950 H 658.279 1.02378 -1.01266 0
M  V30 6951 H 660.232 4.14895 -0.737584 0
M  V30 6952 H 658.956 3.26325 0.134071 0
M  V30 6953 H 657.615 3.07859 -1.99043 0
M  V30 6954 H 657.263 5.01056 -0.441759 0
M  V30 6955 H 656.963 5.47423 -2.13547 0
M  V30 6956 H 658.487 5.95758 -1.3381 0
M  V30 6957 H 659.901 4.72537 -3.24626 0
M  V30 6958 H 658.298 4.47604 -3.99713 0
M  V30 6959 H 659.368 3.08604 -3.74021 0
M  V30 6960 N 660.711 1.11618 1.11262 0
M  V30 6961 C 661.621 0.78898 2.20935 0
M  V30 6962 C 662.637 -0.21867 1.7262 0
M  V30 6963 O 663.813 -0.0543826 2.01327 0
M  V30 6964 C 660.878 0.239014 3.45875 0
M  V30 6965 C 659.939 1.3055 4.08968 0
M  V30 6966 C 659.172 0.781687 5.27944 0
M  V30 6967 O 659.395 -0.387605 5.69082 0
M  V30 6968 O 658.329 1.54734 5.81671 0
M  V30 6969 H 662.155 1.70477 2.51339 0
M  V30 6970 H 659.74 0.892203 1.19834 0
M  V30 6971 H 661.622 -0.0632312 4.21353 0
M  V30 6972 H 660.297 -0.649454 3.17118 0
M  V30 6973 H 659.204 1.66079 3.35214 0
M  V30 6974 H 660.537 2.16743 4.41909 0
M  V30 6975 N 662.189 -1.289 0.906776 0
M  V30 6976 C 663.119 -2.29932 0.406659 0
M  V30 6977 C 664.1 -1.6189 -0.522061 0
M  V30 6978 O 665.285 -1.8935 -0.431283 0
M  V30 6979 C 662.415 -3.45425 -0.360366 0
M  V30 6980 C 661.369 -4.25316 0.478574 0
M  V30 6981 C 660.695 -5.33076 -0.416373 0
M  V30 6982 C 661.995 -4.92739 1.7322 0
M  V30 6983 H 663.689 -2.72013 1.25097 0
M  V30 6984 H 661.235 -1.30768 0.602977 0
M  V30 6985 H 663.188 -4.15186 -0.721029 0
M  V30 6986 H 661.912 -3.02206 -1.23852 0
M  V30 6987 H 660.571 -3.57273 0.821662 0
M  V30 6988 H 660.219 -4.86101 -1.29287 0
M  V30 6989 H 659.919 -5.8743 0.141309 0
M  V30 6990 H 661.443 -6.05686 -0.773072 0
M  V30 6991 H 662.857 -5.54898 1.44086 0
M  V30 6992 H 661.254 -5.57057 2.23175 0
M  V30 6993 H 662.324 -4.17625 2.46408 0
M  V30 6994 N 663.667 -0.670007 -1.42649 0
M  V30 6995 C 664.895 -0.19854 -2.05945 0
M  V30 6996 C 665.31 1.14243 -1.50313 0
M  V30 6997 O 664.667 1.70872 -0.641027 0
M  V30 6998 C 664.718 -0.11966 -3.61302 0
M  V30 6999 O 664.439 -1.40764 -4.1487 0
M  V30 7000 C 665.94 0.375878 -4.41704 0
M  V30 7001 H 663.16 -0.0976894 -0.663851 0
M  V30 7002 H 665.704 -0.915392 -1.82868 0
M  V30 7003 H 663.859 0.547851 -3.83507 0
M  V30 7004 H 664.273 -1.27784 -5.08696 0
M  V30 7005 H 665.747 0.379988 -5.50691 0
M  V30 7006 H 666.224 1.41028 -4.15942 0
M  V30 7007 H 666.83 -0.259727 -4.24506 0
M  V30 7008 N 665.145 1.52092 -0.413018 0
M  V30 7009 C 666.055 2.30858 0.417318 0
M  V30 7010 C 667.071 1.38746 1.05003 0
M  V30 7011 O 668.247 1.71821 1.05069 0
M  V30 7012 C 665.312 3.11756 1.51687 0
M  V30 7013 C 664.373 4.19613 0.906825 0
M  V30 7014 C 663.606 4.96644 1.95399 0
M  V30 7015 O 663.829 4.7402 3.17271 0
M  V30 7016 O 662.763 5.81385 1.55805 0
M  V30 7017 H 666.589 3.02865 -0.225028 0
M  V30 7018 H 664.174 1.48358 -0.176126 0
M  V30 7019 H 666.056 3.62122 2.15512 0
M  V30 7020 H 664.731 2.42539 2.14375 0
M  V30 7021 H 663.638 3.73385 0.231183 0
M  V30 7022 H 664.971 4.91134 0.323814 0
M  V30 7023 N 666.623 0.143563 1.56945 0
M  V30 7024 C 667.851 -0.515447 2.00377 0
M  V30 7025 C 668.266 -1.58643 1.02361 0
M  V30 7026 O 667.623 -1.82489 0.0201039 0
M  V30 7027 C 667.674 -1.11923 3.43737 0
M  V30 7028 O 667.395 -0.0910318 4.38005 0
M  V30 7029 C 668.896 -1.85918 4.02429 0
M  V30 7030 H 666.116 -0.134478 0.657386 0
M  V30 7031 H 668.66 0.237135 2.0312 0
M  V30 7032 H 666.815 -1.82245 3.41856 0
M  V30 7033 H 667.229 -0.532916 5.21786 0
M  V30 7034 H 668.703 -2.2346 5.04747 0
M  V30 7035 H 669.18 -2.7438 3.42947 0
M  V30 7036 H 669.786 -1.20303 4.07931 0
M  V30 7037 N 668.101 -1.57061 -0.130224 0
M  V30 7038 C 669.349 -1.83893 -0.838313 0
M  V30 7039 C 669.67 -0.727046 -1.80939 0
M  V30 7040 O 668.94 0.249927 -1.94299 0
M  V30 7041 H 667.52 -0.67846 -0.312573 0
M  V30 7042 H 670.182 -1.94529 -0.120224 0
M  V30 7043 H 669.278 -2.79419 -1.39038 0
M  V30 7044 N 669.579 0.400081 -1.52437 0
M  V30 7045 C 670.825 1.14788 -1.67187 0
M  V30 7046 C 671.158 1.89928 -0.405074 0
M  V30 7047 O 670.433 1.85118 0.596804 0
M  V30 7048 C 670.716 2.13507 -2.89977 0
M  V30 7049 C 670.569 1.42204 -4.2673 0
M  V30 7050 C 671.888 3.14069 -3.083 0
M  V30 7051 H 669.007 0.415939 -0.608411 0
M  V30 7052 H 671.649 0.432542 -1.85011 0
M  V30 7053 H 669.799 2.7451 -2.74912 0
M  V30 7054 H 671.471 0.842503 -4.53541 0
M  V30 7055 H 669.714 0.723939 -4.27717 0
M  V30 7056 H 670.385 2.14281 -5.08712 0
M  V30 7057 H 672.861 2.63148 -3.22323 0
M  V30 7058 H 671.737 3.80398 -3.95713 0
M  V30 7059 H 671.998 3.82309 -2.22018 0
M  V30 7060 N 671.057 1.43213 0.657864 0
M  V30 7061 C 671.967 1.50448 1.80007 0
M  V30 7062 C 672.983 0.39191 1.69529 0
M  V30 7063 O 674.159 0.645349 1.90781 0
M  V30 7064 C 671.224 1.42062 3.16258 0
M  V30 7065 C 670.285 2.63951 3.38568 0
M  V30 7066 C 669.518 2.55956 4.68318 0
M  V30 7067 O 669.741 1.60473 5.47361 0
M  V30 7068 O 668.675 3.46378 4.92245 0
M  V30 7069 H 672.501 2.4689 1.76858 0
M  V30 7070 H 670.086 1.25163 0.81576 0
M  V30 7071 H 671.968 1.3981 3.97531 0
M  V30 7072 H 670.643 0.487524 3.20008 0
M  V30 7073 H 669.55 2.71776 2.57077 0
M  V30 7074 H 670.883 3.56217 3.39662 0
M  V30 7075 N 672.536 -0.895792 1.29666 0
M  V30 7076 C 673.499 -1.98189 1.15124 0
M  V30 7077 C 674.499 -1.60572 0.0855717 0
M  V30 7078 O 675.689 -1.70991 0.332826 0
M  V30 7079 C 672.821 -3.32289 0.761372 0
M  V30 7080 H 674.014 -2.12518 2.11603 0
M  V30 7081 H 671.567 -1.0808 1.12908 0
M  V30 7082 H 672.302 -3.23662 -0.203393 0
M  V30 7083 H 672.087 -3.60958 1.53139 0
M  V30 7084 H 673.577 -4.1198 0.682792 0
M  V30 7085 N 674.014 -1.12206 -1.10668 0
M  V30 7086 C 674.977 -0.790867 -2.15123 0
M  V30 7087 C 675.977 0.193618 -1.5963 0
M  V30 7088 O 677.167 -0.0318728 -1.74171 0
M  V30 7089 C 674.299 -0.174797 -3.40452 0
M  V30 7090 H 675.492 -1.7163 -2.45933 0
M  V30 7091 H 673.045 -0.924993 -1.2599 0
M  V30 7092 H 673.78 0.760478 -3.15257 0
M  V30 7093 H 673.565 -0.88358 -3.82015 0
M  V30 7094 H 675.055 0.0405162 -4.1758 0
M  V30 7095 N 675.492 1.28418 -0.913599 0
M  V30 7096 C 676.455 2.25564 -0.406624 0
M  V30 7097 C 677.455 1.5387 0.466965 0
M  V30 7098 O 678.645 1.72094 0.270042 0
M  V30 7099 C 675.777 3.38339 0.417053 0
M  V30 7100 H 676.97 2.71926 -1.26477 0
M  V30 7101 H 674.523 1.40098 -0.692986 0
M  V30 7102 H 675.258 2.97339 1.29461 0
M  V30 7103 H 675.043 3.91542 -0.209102 0
M  V30 7104 H 676.533 4.10578 0.762602 0
M  V30 7105 N 676.97 0.677563 1.42291 0
M  V30 7106 C 677.933 0.0101085 2.29198 0
M  V30 7107 C 678.933 -0.726219 1.43467 0
M  V30 7108 O 680.123 -0.563807 1.64824 0
M  V30 7109 C 677.255 -0.996316 3.26016 0
M  V30 7110 H 678.448 0.775071 2.89711 0
M  V30 7111 H 676.001 0.440065 1.49977 0
M  V30 7112 H 676.736 -1.78967 2.70446 0
M  V30 7113 H 676.521 -0.471687 3.89253 0
M  V30 7114 H 678.011 -1.46167 3.91184 0
M  V30 7115 N 678.448 -1.51871 0.421078 0
M  V30 7116 C 679.673 -2.0684 -0.152371 0
M  V30 7117 C 680.098 -1.28802 -1.37083 0
M  V30 7118 O 679.456 -0.321482 -1.78427 0
M  V30 7119 C 679.504 -3.57532 -0.469368 0
M  V30 7120 O 678.608 -3.81818 -1.55848 0
M  V30 7121 H 677.949 -0.663939 -0.00898586 0
M  V30 7122 H 680.479 -1.95674 0.597724 0
M  V30 7123 H 680.489 -4.01515 -0.724553 0
M  V30 7124 H 679.164 -4.13761 0.421276 0
M  V30 7125 H 677.741 -3.49709 -1.29453 0
M  V30 7126 N 679.926 -0.151884 -1.56866 0
M  V30 7127 C 680.889 0.771861 -2.15812 0
M  V30 7128 C 681.889 1.17181 -1.10115 0
M  V30 7129 O 683.079 1.09194 -1.35729 0
M  V30 7130 C 680.211 2.04806 -2.7252 0
M  V30 7131 H 681.404 0.259021 -2.98779 0
M  V30 7132 H 678.957 0.097588 -1.55995 0
M  V30 7133 H 679.692 2.60445 -1.93233 0
M  V30 7134 H 679.477 1.77044 -3.49854 0
M  V30 7135 H 680.967 2.70771 -3.1792 0
M  V30 7136 N 681.404 1.57128 0.121893 0
M  V30 7137 C 682.653 1.83888 0.828748 0
M  V30 7138 C 682.966 0.737087 1.81181 0
M  V30 7139 O 684.172 0.891007 2.56463 0
M  V30 7140 C 682.628 3.26014 1.52455 0
M  V30 7141 C 682.236 4.44195 0.58263 0
M  V30 7142 C 683.98 3.62025 2.21671 0
M  V30 7143 C 681.887 5.77349 1.28149 0
M  V30 7144 H 680.817 0.685856 0.313238 0
M  V30 7145 H 683.468 1.83319 0.0814851 0
M  V30 7146 H 681.85 3.21044 2.31834 0
M  V30 7147 H 683.024 4.60457 -0.177729 0
M  V30 7148 H 681.339 4.164 -0.00241228 0
M  V30 7149 H 683.936 4.58776 2.74643 0
M  V30 7150 H 684.279 2.89315 2.99337 0
M  V30 7151 H 684.812 3.68767 1.49184 0
M  V30 7152 H 681.551 6.53221 0.546189 0
M  V30 7153 H 681.071 5.64978 2.01394 0
M  V30 7154 H 682.75 6.21006 1.81549 0
M  V30 7155 N 682.882 -0.391992 1.52647 0
M  V30 7156 C 684.107 -1.16312 1.71716 0
M  V30 7157 C 684.532 -1.83042 0.433279 0
M  V30 7158 O 683.89 -1.70705 -0.610707 0
M  V30 7159 C 683.938 -2.18908 2.86551 0
M  V30 7160 O 683.042 -3.2543 2.53316 0
M  V30 7161 H 682.383 -0.338743 0.571095 0
M  V30 7162 H 684.913 -0.457202 1.99426 0
M  V30 7163 H 684.923 -2.62954 3.1196 0
M  V30 7164 H 683.598 -1.69726 3.79692 0
M  V30 7165 H 682.175 -2.86543 2.38637 0
M  V30 7166 N 684.36 -1.4356 -0.65026 0
M  V30 7167 C 685.606 -1.45549 -1.41221 0
M  V30 7168 C 685.939 -0.0805472 -1.94033 0
M  V30 7169 O 685.214 0.899043 -1.72475 0
M  V30 7170 C 685.497 -2.50028 -2.59148 0
M  V30 7171 C 685.35 -3.96808 -2.1181 0
M  V30 7172 C 686.669 -2.51212 -3.61359 0
M  V30 7173 H 683.788 -0.529967 -0.512156 0
M  V30 7174 H 686.43 -1.75127 -0.736933 0
M  V30 7175 H 684.58 -2.24937 -3.16758 0
M  V30 7176 H 686.252 -4.32966 -1.59178 0
M  V30 7177 H 684.495 -4.09498 -1.43156 0
M  V30 7178 H 685.166 -4.6553 -2.96625 0
M  V30 7179 H 687.642 -2.73583 -3.13515 0
M  V30 7180 H 686.518 -3.26252 -4.41419 0
M  V30 7181 H 686.779 -1.54701 -4.1415 0
M  V30 7182 N 685.838 0.888903 -1.30139 0
M  V30 7183 C 686.801 1.97576 -1.16174 0
M  V30 7184 C 687.801 1.60525 -0.094086 0
M  V30 7185 O 688.991 1.70812 -0.341889 0
M  V30 7186 C 686.123 3.3188 -0.778983 0
M  V30 7187 H 687.316 2.11393 -2.12728 0
M  V30 7188 H 684.869 1.0748 -1.1348 0
M  V30 7189 H 685.604 3.23765 0.186225 0
M  V30 7190 H 685.389 3.60141 -1.55051 0
M  V30 7191 H 686.879 4.11612 -0.704631 0
M  V30 7192 N 687.317 1.12792 1.10072 0
M  V30 7193 C 688.733 0.864745 1.34143 0
M  V30 7194 C 688.933 -0.503201 1.95116 0
M  V30 7195 O 687.989 -1.25111 2.19325 0
M  V30 7196 C 689.302 1.98413 2.25949 0
M  V30 7197 C 690.85 2.01545 2.39476 0
M  V30 7198 C 691.325 3.12727 3.34613 0
M  V30 7199 N 692.816 3.12194 3.42183 0
M  V30 7200 C 693.551 3.94862 4.15779 0
M  V30 7201 N 693.047 4.87528 4.92228 0
M  V30 7202 N 694.84 3.82985 4.11435 0
M  V30 7203 H 686.991 2.00926 0.68866 0
M  V30 7204 H 689.254 0.874564 0.365844 0
M  V30 7205 H 688.96 2.97005 1.88364 0
M  V30 7206 H 688.834 1.89254 3.26287 0
M  V30 7207 H 691.221 1.0357 2.76328 0
M  V30 7208 H 691.302 2.14777 1.3894 0
M  V30 7209 H 690.946 4.10936 2.98486 0
M  V30 7210 H 690.876 2.96732 4.35037 0
M  V30 7211 H 693.367 2.45065 2.87666 0
M  V30 7212 H 693.68 5.47109 5.45794 0
M  V30 7213 H 692.025 4.91539 4.9134 0
M  V30 7214 H 695.216 3.09923 3.50807 0
M  V30 7215 H 695.389 4.47641 4.68531 0
M  V30 7216 N 688.795 -1.27931 0.920396 0
M  V30 7217 C 690.023 -1.98805 0.573087 0
M  V30 7218 C 690.438 -1.68724 -0.847201 0
M  V30 7219 O 689.795 -0.943699 -1.56207 0
M  V30 7220 C 689.846 -3.52971 0.780633 0
M  V30 7221 O 689.567 -3.81994 2.14504 0
M  V30 7222 C 691.068 -4.411 0.44105 0
M  V30 7223 H 688.288 -0.634651 0.21785 0
M  V30 7224 H 690.832 -1.62965 1.23542 0
M  V30 7225 H 688.987 -3.87048 0.165204 0
M  V30 7226 H 689.401 -4.76609 2.18962 0
M  V30 7227 H 690.875 -5.48312 0.637006 0
M  V30 7228 H 691.352 -4.34758 -0.62306 0
M  V30 7229 H 691.958 -4.12532 1.0343 0
M  V30 7230 N 690.273 -0.685099 -1.4193 0
M  V30 7231 C 691.203 -0.0273506 -2.33484 0
M  V30 7232 C 692.184 0.778366 -1.51246 0
M  V30 7233 O 693.369 0.733449 -1.79817 0
M  V30 7234 C 690.499 0.917272 -3.34968 0
M  V30 7235 C 689.453 0.21941 -4.27437 0
M  V30 7236 C 688.779 1.27768 -5.1921 0
M  V30 7237 C 690.079 -0.907894 -5.14349 0
M  V30 7238 H 691.773 -0.791994 -2.88735 0
M  V30 7239 H 689.319 -0.382308 -1.38832 0
M  V30 7240 H 691.272 1.38657 -3.97935 0
M  V30 7241 H 689.996 1.71346 -2.78043 0
M  V30 7242 H 688.655 -0.229757 -3.65879 0
M  V30 7243 H 688.303 2.06612 -4.58607 0
M  V30 7244 H 688.003 0.815803 -5.81909 0
M  V30 7245 H 689.527 1.7477 -5.85054 0
M  V30 7246 H 690.941 -0.519348 -5.70943 0
M  V30 7247 H 689.338 -1.2962 -5.85934 0
M  V30 7248 H 690.408 -1.75218 -4.52136 0
M  V30 7249 N 691.751 1.51645 -0.429126 0
M  V30 7250 C 692.681 2.30434 0.377148 0
M  V30 7251 C 693.662 1.35493 1.02838 0
M  V30 7252 O 694.847 1.6441 1.03359 0
M  V30 7253 C 691.977 3.14038 1.48315 0
M  V30 7254 C 690.931 4.1719 0.955855 0
M  V30 7255 C 690.257 4.89263 2.15698 0
M  V30 7256 C 691.557 5.223 -0.00402136 0
M  V30 7257 H 693.251 2.98085 -0.280336 0
M  V30 7258 H 690.797 1.43354 -0.136265 0
M  V30 7259 H 692.75 3.67933 2.05435 0
M  V30 7260 H 691.474 2.44193 2.16881 0
M  V30 7261 H 690.133 3.64335 0.406929 0
M  V30 7262 H 689.781 4.15929 2.82864 0
M  V30 7263 H 689.481 5.59009 1.81059 0
M  V30 7264 H 691.005 5.45978 2.73387 0
M  V30 7265 H 692.419 5.71315 0.476607 0
M  V30 7266 H 690.816 5.99525 -0.26258 0
M  V30 7267 H 691.886 4.75638 -0.943236 0
M  V30 7268 N 693.229 0.160201 1.56784 0
M  V30 7269 C 694.475 -0.48831 1.96833 0
M  V30 7270 C 694.808 -1.63641 1.04571 0
M  V30 7271 O 694.083 -1.94289 0.0906481 0
M  V30 7272 C 694.366 -0.981908 3.46454 0
M  V30 7273 C 694.219 0.165607 4.49495 0
M  V30 7274 C 695.538 -1.85931 3.98896 0
M  V30 7275 H 692.657 -0.176027 0.71567 0
M  V30 7276 H 695.299 0.244093 1.88426 0
M  V30 7277 H 693.449 -1.60602 3.5375 0
M  V30 7278 H 695.121 0.802372 4.54268 0
M  V30 7279 H 693.364 0.822789 4.25926 0
M  V30 7280 H 694.035 -0.221699 5.51555 0
M  V30 7281 H 696.511 -1.33327 3.94161 0
M  V30 7282 H 695.387 -2.17373 5.04024 0
M  V30 7283 H 695.648 -2.80106 3.42042 0
M  V30 7284 N 694.707 -1.5719 -0.113559 0
M  V30 7285 C 695.954 -1.85138 -0.820382 0
M  V30 7286 C 696.282 -0.74608 -1.79622 0
M  V30 7287 O 695.537 0.262077 -1.93937 0
M  V30 7288 C 695.836 -3.19593 -1.59984 0
M  V30 7289 C 695.502 -4.44315 -0.767809 0
M  V30 7290 C 694.164 -4.78179 -0.538379 0
M  V30 7291 C 696.516 -5.2086 -0.188203 0
M  V30 7292 C 693.844 -5.86028 0.28082 0
M  V30 7293 C 696.196 -6.29572 0.618217 0
M  V30 7294 C 694.86 -6.61964 0.857912 0
M  V30 7295 H 694.13 -0.677467 -0.300199 0
M  V30 7296 H 696.777 -1.91322 -0.0825443 0
M  V30 7297 H 695.082 -3.0901 -2.40874 0
M  V30 7298 H 696.779 -3.3844 -2.1508 0
M  V30 7299 H 693.369 -4.17786 -0.956724 0
M  V30 7300 H 697.553 -4.95045 -0.352658 0
M  V30 7301 H 692.809 -6.09547 0.475693 0
M  V30 7302 H 696.983 -6.88064 1.0743 0
M  V30 7303 H 694.61 -7.45365 1.49451 0
M  V30 7304 N 696.185 0.383891 -1.52853 0
M  V30 7305 C 697.095 1.49343 -1.80925 0
M  V30 7306 C 698.111 1.59458 -0.696348 0
M  V30 7307 O 699.287 1.75698 -0.984481 0
M  V30 7308 C 696.352 2.84819 -1.97684 0
M  V30 7309 C 695.413 2.84382 -3.21598 0
M  V30 7310 C 694.646 4.13397 -3.37548 0
M  V30 7311 O 694.869 5.08619 -2.58192 0
M  V30 7312 O 693.803 4.20325 -4.30826 0
M  V30 7313 H 697.629 1.2855 -2.75152 0
M  V30 7314 H 695.214 0.572229 -1.38007 0
M  V30 7315 H 697.096 3.65125 -2.10385 0
M  V30 7316 H 695.771 3.05627 -1.06647 0
M  V30 7317 H 694.678 2.0284 -3.14336 0
M  V30 7318 H 696.011 2.68526 -4.12498 0
M  V30 7319 N 697.663 1.43903 0.642637 0
M  V30 7320 C 698.909 1.46296 1.40447 0
M  V30 7321 C 699.242 0.0908361 1.93987 0
M  V30 7322 O 698.517 -0.889884 1.72949 0
M  V30 7323 C 698.8 2.51399 2.57819 0
M  V30 7324 C 698.653 3.97926 2.09702 0
M  V30 7325 C 699.972 2.53125 3.60022 0
M  V30 7326 H 697.091 0.532676 0.509338 0
M  V30 7327 H 699.733 1.75515 0.727635 0
M  V30 7328 H 697.883 2.26614 3.1556 0
M  V30 7329 H 699.555 4.33804 1.5688 0
M  V30 7330 H 697.798 4.10252 1.40982 0
M  V30 7331 H 698.469 4.67096 2.94152 0
M  V30 7332 H 700.945 2.75242 3.12059 0
M  V30 7333 H 699.821 3.28589 4.39682 0
M  V30 7334 H 700.082 1.56895 4.13324 0
M  V30 7335 N 699.141 -0.881989 1.30609 0
M  V30 7336 C 700.073 -1.99375 1.13058 0
M  V30 7337 C 701.086 -1.62636 0.0729879 0
M  V30 7338 O 702.275 -1.75621 0.319301 0
M  V30 7339 C 699.375 -3.31536 0.702651 0
M  V30 7340 C 698.548 -3.96693 1.84265 0
M  V30 7341 C 697.607 -5.07158 1.40277 0
M  V30 7342 O 696.633 -5.28628 2.11048 0
M  V30 7343 N 697.835 -5.79808 0.283449 0
M  V30 7344 H 700.6 -2.14981 2.08814 0
M  V30 7345 H 698.161 -1.05526 1.22784 0
M  V30 7346 H 700.153 -4.02804 0.391331 0
M  V30 7347 H 698.723 -3.12175 -0.162954 0
M  V30 7348 H 697.943 -3.1856 2.32192 0
M  V30 7349 H 699.231 -4.36964 2.60653 0
M  V30 7350 H 698.629 -5.64871 -0.306189 0
M  V30 7351 H 697.186 -6.51792 0.0315985 0
M  V30 7352 N 700.619 -1.13374 -1.09472 0
M  V30 7353 C 701.551 -0.768466 -2.15933 0
M  V30 7354 C 702.564 0.209585 -1.61445 0
M  V30 7355 O 703.753 -0.010539 -1.78497 0
M  V30 7356 C 700.853 -0.118266 -3.38694 0
M  V30 7357 C 700.026 -1.12829 -4.22597 0
M  V30 7358 C 699.085 -0.503875 -5.23782 0
M  V30 7359 O 698.111 -1.16374 -5.57177 0
M  V30 7360 N 699.313 0.724288 -5.75964 0
M  V30 7361 H 702.078 -1.68457 -2.47876 0
M  V30 7362 H 699.639 -1.02668 -1.25183 0
M  V30 7363 H 701.631 0.311698 -4.03498 0
M  V30 7364 H 700.201 0.700769 -3.04644 0
M  V30 7365 H 699.421 -1.73556 -3.53938 0
M  V30 7366 H 700.709 -1.81095 -4.75481 0
M  V30 7367 H 700.107 1.27918 -5.51048 0
M  V30 7368 H 698.664 1.09692 -6.42504 0
M  V30 7369 N 702.098 1.27442 -0.927168 0
M  V30 7370 C 703.509 1.76385 -0.611979 0
M  V30 7371 C 703.86 1.75715 0.872853 0
M  V30 7372 O 702.985 1.3603 1.683 0
M  V30 7373 C 703.58 3.20303 -1.10414 0
M  V30 7374 C 702.139 3.66916 -0.839628 0
M  V30 7375 C 701.286 2.46859 -1.26317 0
M  V30 7376 H 704.237 1.13716 -1.107 0
M  V30 7377 H 704.258 3.77811 -0.451578 0
M  V30 7378 H 703.77 3.20759 -2.18484 0
M  V30 7379 H 701.871 3.71906 0.227292 0
M  V30 7380 H 701.984 4.56415 -1.45679 0
M  V30 7381 H 700.348 2.45407 -0.681723 0
M  V30 7382 H 701.131 2.50025 -2.3525 0
M  V30 7383 N 703.576 0.692616 1.41565 0
M  V30 7384 C 704.823 0.222335 2.01276 0
M  V30 7385 C 705.151 -1.17706 1.5484 0
M  V30 7386 O 704.406 -1.80795 0.749118 0
M  V30 7387 C 704.705 0.225073 3.56691 0
M  V30 7388 C 704.371 1.57158 4.22625 0
M  V30 7389 C 703.033 1.94022 4.40351 0
M  V30 7390 C 705.385 2.45758 4.59622 0
M  V30 7391 C 702.713 3.19076 4.92349 0
M  V30 7392 C 705.065 3.70141 5.13009 0
M  V30 7393 C 703.729 4.07152 5.28946 0
M  V30 7394 H 702.999 0.0813581 0.73652 0
M  V30 7395 H 705.646 0.891123 1.69503 0
M  V30 7396 H 703.951 -0.527259 3.88236 0
M  V30 7397 H 705.648 -0.156283 4.00695 0
M  V30 7398 H 702.238 1.27486 4.09201 0
M  V30 7399 H 706.422 2.18558 4.45585 0
M  V30 7400 H 701.678 3.4775 5.02872 0
M  V30 7401 H 705.852 4.38983 5.40617 0
M  V30 7402 H 703.479 5.04125 5.69001 0
M  V30 7403 N 705.054 -1.51416 0.437162 0
M  V30 7404 C 705.984 -2.30631 -0.364922 0
M  V30 7405 C 706.965 -1.36037 -1.02118 0
M  V30 7406 O 708.15 -1.64956 -1.02485 0
M  V30 7407 C 705.28 -3.1482 -1.46648 0
M  V30 7408 C 704.234 -4.17691 -0.933717 0
M  V30 7409 C 703.56 -4.904 -2.13101 0
M  V30 7410 C 704.86 -5.2229 0.0317201 0
M  V30 7411 H 706.554 -2.97932 0.29614 0
M  V30 7412 H 704.1 -1.4328 0.143865 0
M  V30 7413 H 706.053 -3.69017 -2.03481 0
M  V30 7414 H 704.777 -2.4534 -2.15583 0
M  V30 7415 H 703.436 -3.64545 -0.387602 0
M  V30 7416 H 703.084 -4.17423 -2.80654 0
M  V30 7417 H 702.784 -5.59962 -1.78092 0
M  V30 7418 H 704.308 -5.4742 -2.70487 0
M  V30 7419 H 705.722 -5.7156 -0.446302 0
M  V30 7420 H 704.119 -5.99378 0.29437 0
M  V30 7421 H 705.189 -4.75131 0.968447 0
M  V30 7422 N 706.532 -0.168513 -1.56696 0
M  V30 7423 C 707.779 0.477158 -1.96798 0
M  V30 7424 C 708.107 1.63442 -1.05437 0
M  V30 7425 O 707.362 1.95503 -0.0878903 0
M  V30 7426 C 707.661 1.00441 -3.42996 0
M  V30 7427 C 707.327 -0.0366556 -4.50885 0
M  V30 7428 C 705.989 -0.322785 -4.80116 0
M  V30 7429 C 708.341 -0.743447 -5.1587 0
M  V30 7430 C 705.669 -1.32114 -5.71632 0
M  V30 7431 C 708.021 -1.73077 -6.08463 0
M  V30 7432 C 706.685 -2.02437 -6.36062 0
M  V30 7433 H 705.955 0.174604 -0.720135 0
M  V30 7434 H 708.602 -0.259884 -1.89728 0
M  V30 7435 H 706.907 1.81922 -3.47004 0
M  V30 7436 H 708.604 1.51294 -3.71364 0
M  V30 7437 H 705.194 0.196532 -4.28149 0
M  V30 7438 H 709.378 -0.535602 -4.93401 0
M  V30 7439 H 704.634 -1.55482 -5.913 0
M  V30 7440 H 708.808 -2.28382 -6.57886 0
M  V30 7441 H 706.435 -2.79946 -7.06777 0
M  V30 7442 N 708.01 1.57248 0.105221 0
M  V30 7443 C 709.256 1.85845 0.811753 0
M  V30 7444 C 709.589 0.756219 1.78871 0
M  V30 7445 O 708.864 -0.236736 1.93054 0
M  V30 7446 C 709.147 3.25059 1.54947 0
M  V30 7447 C 709 4.45898 0.591185 0
M  V30 7448 C 710.319 3.6203 2.50245 0
M  V30 7449 H 707.438 0.675973 0.293649 0
M  V30 7450 H 710.08 1.89849 0.0756269 0
M  V30 7451 H 708.23 3.21776 2.17698 0
M  V30 7452 H 709.902 4.61291 -0.0285352 0
M  V30 7453 H 708.145 4.33693 -0.0962343 0
M  V30 7454 H 708.816 5.40009 1.1443 0
M  V30 7455 H 711.292 3.66192 1.97593 0
M  V30 7456 H 710.168 4.60389 2.98886 0
M  V30 7457 H 710.429 2.90176 3.33542 0
M  V30 7458 N 709.488 -0.375779 1.53054 0
M  V30 7459 C 710.418 -1.46598 1.81745 0
M  V30 7460 C 711.399 -1.56337 0.670286 0
M  V30 7461 O 712.584 -1.71071 0.919158 0
M  V30 7462 C 709.714 -2.84058 1.99821 0
M  V30 7463 C 708.668 -2.8915 3.15557 0
M  V30 7464 C 707.994 -4.29187 3.18908 0
M  V30 7465 C 709.294 -2.57595 4.54359 0
M  V30 7466 H 710.988 -1.22837 2.73041 0
M  V30 7467 H 708.534 -0.589485 1.31381 0
M  V30 7468 H 710.487 -3.60342 2.18475 0
M  V30 7469 H 709.211 -3.09184 1.05226 0
M  V30 7470 H 707.87 -2.15316 2.96706 0
M  V30 7471 H 707.518 -4.51374 2.2197 0
M  V30 7472 H 707.218 -4.33512 3.96662 0
M  V30 7473 H 708.742 -5.07359 3.39734 0
M  V30 7474 H 710.156 -3.23595 4.73243 0
M  V30 7475 H 708.553 -2.73252 5.34279 0
M  V30 7476 H 709.623 -1.52882 4.60169 0
M  V30 7477 N 710.966 -1.44241 -0.634997 0
M  V30 7478 C 712.212 -1.48033 -1.39492 0
M  V30 7479 C 712.567 -0.109791 -1.92086 0
M  V30 7480 O 711.86 0.874394 -1.70484 0
M  V30 7481 C 712.054 -2.47279 -2.58046 0
M  V30 7482 C 711.883 -3.93848 -2.17057 0
M  V30 7483 C 710.653 -4.62061 -2.04518 0
M  V30 7484 C 712.851 -4.83172 -1.76208 0
M  V30 7485 N 710.833 -5.93471 -1.57051 0
M  V30 7486 C 712.204 -6.03996 -1.39958 0
M  V30 7487 C 714.259 -4.70271 -1.63554 0
M  V30 7488 C 712.962 -7.13351 -0.923196 0
M  V30 7489 C 714.988 -5.79646 -1.1732 0
M  V30 7490 C 714.35 -6.99609 -0.820181 0
M  V30 7491 H 710.449 -0.596743 -0.505392 0
M  V30 7492 H 713.033 -1.80542 -0.72887 0
M  V30 7493 H 711.204 -2.16766 -3.22284 0
M  V30 7494 H 712.936 -2.41391 -3.24827 0
M  V30 7495 H 709.691 -4.1682 -2.24851 0
M  V30 7496 H 710.115 -6.63275 -1.35628 0
M  V30 7497 H 714.757 -3.77964 -1.8948 0
M  V30 7498 H 712.475 -8.0547 -0.651441 0
M  V30 7499 H 716.061 -5.71689 -1.07993 0
M  V30 7500 H 714.941 -7.82803 -0.467901 0
M  V30 7501 N 712.444 0.87505 -1.31075 0
M  V30 7502 C 713.721 1.60976 -1.11113 0
M  V30 7503 C 714.101 2.08409 0.336006 0
M  V30 7504 O 713.449 1.85858 1.32924 0
M  V30 7505 C 713.659 2.77166 -2.12085 0
M  V30 7506 C 715.007 3.47254 -2.44335 0
M  V30 7507 O 716.031 2.87367 -2.10472 0
M  V30 7508 O 714.89 4.55276 -3.02301 0
M  V30 7509 H 711.984 0.707982 -0.427424 0
M  V30 7510 H 714.53 0.920957 -1.42536 0
M  V30 7511 H 713.302 2.39494 -3.09449 0
M  V30 7512 H 712.925 3.53737 -1.81538 0
M  V30 7513 N 713.922 1.13953 1.08869 0
M  V30 7514 C 714.854 0.779906 2.15523 0
M  V30 7515 C 715.867 -0.20102 1.61554 0
M  V30 7516 O 717.056 0.0200049 1.78489 0
M  V30 7517 C 714.156 0.136226 3.38626 0
M  V30 7518 C 713.329 1.15069 4.21993 0
M  V30 7519 C 712.388 0.531645 5.23507 0
M  V30 7520 O 711.414 1.19327 5.56552 0
M  V30 7521 N 712.616 -0.693734 5.7634 0
M  V30 7522 H 715.381 1.69769 2.46979 0
M  V30 7523 H 712.942 1.03331 1.24637 0
M  V30 7524 H 714.934 -0.290295 4.03658 0
M  V30 7525 H 713.504 -0.684603 3.05011 0
M  V30 7526 H 712.724 1.75431 3.53012 0
M  V30 7527 H 714.012 1.83614 4.74514 0
M  V30 7528 H 713.41 -1.24994 5.51718 0
M  V30 7529 H 711.967 -1.06283 6.43076 0
M  V30 7530 N 715.4 -1.26948 0.933913 0
M  V30 7531 C 716.332 -2.25768 0.395137 0
M  V30 7532 C 717.345 -1.55637 -0.477585 0
M  V30 7533 O 718.534 -1.76142 -0.289204 0
M  V30 7534 C 715.634 -3.35874 -0.451882 0
M  V30 7535 C 714.807 -4.3554 0.40299 0
M  V30 7536 C 713.866 -5.24809 -0.3824 0
M  V30 7537 O 712.892 -5.68805 0.212057 0
M  V30 7538 N 714.094 -5.55636 -1.68072 0
M  V30 7539 H 716.859 -2.72634 1.24463 0
M  V30 7540 H 714.42 -1.40639 0.802008 0
M  V30 7541 H 716.412 -3.92542 -0.984516 0
M  V30 7542 H 714.982 -2.8856 -1.20215 0
M  V30 7543 H 714.202 -3.78047 1.11688 0
M  V30 7544 H 715.49 -4.99131 0.987201 0
M  V30 7545 H 714.888 -5.2176 -2.18592 0
M  V30 7546 H 713.445 -6.14978 -2.15975 0
M  V30 7547 N 716.879 -0.700114 -1.41195 0
M  V30 7548 C 717.829 -0.0144098 -2.27995 0
M  V30 7549 C 718.813 0.748249 -1.42443 0
M  V30 7550 O 720.005 0.622995 -1.65674 0
M  V30 7551 C 717.134 0.917938 -3.308 0
M  V30 7552 C 716.22 0.151286 -4.2383 0
M  V30 7553 N 716.611 -0.85732 -4.98481 0
M  V30 7554 C 714.909 0.386108 -4.44326 0
M  V30 7555 C 715.61 -1.31663 -5.66604 0
M  V30 7556 N 714.586 -0.641689 -5.39799 0
M  V30 7557 H 718.388 -0.787662 -2.83149 0
M  V30 7558 H 715.902 -0.531344 -1.53462 0
M  V30 7559 H 717.899 1.42437 -3.91813 0
M  V30 7560 H 716.559 1.69074 -2.77208 0
M  V30 7561 H 717.57 -1.2377 -5.02893 0
M  V30 7562 H 714.247 1.13644 -4.01735 0
M  V30 7563 H 715.637 -2.15384 -6.36443 0
M  V30 7564 N 718.357 1.51182 -0.445186 0
M  V30 7565 C 719.304 2.27939 0.362291 0
M  V30 7566 C 720.274 1.31864 1.01 0
M  V30 7567 O 721.459 1.60776 1.02741 0
M  V30 7568 C 718.599 3.13016 1.45311 0
M  V30 7569 C 717.712 4.24093 0.822757 0
M  V30 7570 C 716.847 4.96467 1.88928 0
M  V30 7571 C 715.886 5.99454 1.23778 0
M  V30 7572 N 715.023 6.65206 2.24602 0
M  V30 7573 H 719.863 2.965 -0.29862 0
M  V30 7574 H 717.4 1.46237 -0.15911 0
M  V30 7575 H 719.358 3.60673 2.09692 0
M  V30 7576 H 717.988 2.46553 2.08354 0
M  V30 7577 H 717.04 3.80341 0.0670364 0
M  V30 7578 H 718.352 4.97853 0.307184 0
M  V30 7579 H 717.506 5.47712 2.60953 0
M  V30 7580 H 716.245 4.22355 2.4386 0
M  V30 7581 H 715.25 5.47494 0.503042 0
M  V30 7582 H 716.475 6.75527 0.695694 0
M  V30 7583 H 714.421 5.93901 2.78599 0
M  V30 7584 H 714.338 7.34756 1.77958 0
M  V30 7585 H 715.606 7.21078 2.96085 0
M  V30 7586 N 719.835 0.176821 1.56605 0
M  V30 7587 C 721.082 -0.466715 1.97048 0
M  V30 7588 C 721.41 -1.6288 1.06302 0
M  V30 7589 O 720.665 -1.95453 0.0982571 0
M  V30 7590 C 720.964 -0.986208 3.43524 0
M  V30 7591 C 720.63 0.0605667 4.50859 0
M  V30 7592 C 719.292 0.348242 4.79938 0
M  V30 7593 C 721.644 0.770794 5.15469 0
M  V30 7594 C 718.972 1.35144 5.70923 0
M  V30 7595 C 721.324 1.76301 6.07537 0
M  V30 7596 C 719.988 2.05808 6.3498 0
M  V30 7597 H 719.258 -0.170783 0.721051 0
M  V30 7598 H 721.905 0.269942 1.89588 0
M  V30 7599 H 720.21 -1.80079 3.47964 0
M  V30 7600 H 721.907 -1.49323 3.72161 0
M  V30 7601 H 718.497 -0.173823 4.28247 0
M  V30 7602 H 722.681 0.56176 4.9311 0
M  V30 7603 H 717.937 1.58616 5.90467 0
M  V30 7604 H 722.111 2.31868 6.56666 0
M  V30 7605 H 719.738 2.8369 7.05283 0
M  V30 7606 N 721.313 -1.57302 -0.09688 0
M  V30 7607 C 722.724 -1.7496 -0.651595 0
M  V30 7608 C 723.075 -0.798746 -1.79205 0
M  V30 7609 O 722.2 0.0231858 -2.16388 0
M  V30 7610 C 722.795 -3.17259 -1.18878 0
M  V30 7611 C 721.354 -3.36348 -1.68958 0
M  V30 7612 C 720.501 -2.70766 -0.598413 0
M  V30 7613 H 723.452 -1.58173 0.12918 0
M  V30 7614 H 723.473 -3.20033 -2.05814 0
M  V30 7615 H 722.985 -3.8644 -0.358523 0
M  V30 7616 H 721.086 -2.72243 -2.5439 0
M  V30 7617 H 721.199 -4.44654 -1.7838 0
M  V30 7618 H 719.563 -2.32615 -1.03743 0
M  V30 7619 H 720.346 -3.42586 0.221238 0
M  V30 7620 N 722.791 0.367657 -1.53252 0
M  V30 7621 C 724.037 1.11216 -1.69584 0
M  V30 7622 C 724.37 1.89026 -0.445269 0
M  V30 7623 O 723.645 1.86342 0.557404 0
M  V30 7624 C 723.928 2.07308 -2.94441 0
M  V30 7625 C 723.781 1.3312 -4.2965 0
M  V30 7626 C 725.1 3.07459 -3.14892 0
M  V30 7627 H 722.219 0.40294 -0.617096 0
M  V30 7628 H 724.861 0.393201 -1.85887 0
M  V30 7629 H 723.011 2.68617 -2.80673 0
M  V30 7630 H 724.683 0.746111 -4.55226 0
M  V30 7631 H 722.926 0.633051 -4.29156 0
M  V30 7632 H 723.597 2.03443 -5.13142 0
M  V30 7633 H 726.073 2.56252 -3.27832 0
M  V30 7634 H 724.949 3.71919 -4.03693 0
M  V30 7635 H 725.21 3.77514 -2.30077 0
M  V30 7636 N 724.269 1.44576 0.627338 0
M  V30 7637 C 725.516 1.47558 1.38682 0
M  V30 7638 C 725.844 0.109636 1.94191 0
M  V30 7639 O 725.099 -0.889092 1.74338 0
M  V30 7640 C 725.398 2.48644 2.56731 0
M  V30 7641 C 725.064 3.93873 2.19489 0
M  V30 7642 C 723.726 4.33421 2.09045 0
M  V30 7643 C 726.078 4.85286 1.90124 0
M  V30 7644 C 723.406 5.62303 1.6743 0
M  V30 7645 C 725.758 6.14559 1.50001 0
M  V30 7646 C 724.422 6.53058 1.38101 0
M  V30 7647 H 723.692 0.539955 0.507474 0
M  V30 7648 H 726.339 1.77811 0.711021 0
M  V30 7649 H 724.644 2.11889 3.29561 0
M  V30 7650 H 726.341 2.48197 3.14959 0
M  V30 7651 H 722.931 3.62587 2.28537 0
M  V30 7652 H 727.115 4.55483 1.971 0
M  V30 7653 H 722.371 5.90945 1.56823 0
M  V30 7654 H 726.545 6.84848 1.26319 0
M  V30 7655 H 724.172 7.52826 1.05628 0
M  V30 7656 N 725.747 -0.868086 1.31537 0
M  V30 7657 C 726.68 -1.97871 1.13676 0
M  V30 7658 C 727.658 -1.62551 0.0397589 0
M  V30 7659 O 728.842 -1.87473 0.196539 0
M  V30 7660 C 725.969 -3.30577 0.73734 0
M  V30 7661 C 725.015 -3.8488 1.83765 0
M  V30 7662 S 725.848 -4.10106 3.44345 0
M  V30 7663 C 727.004 -5.45806 3.06344 0
M  V30 7664 H 727.237 -2.12719 2.07697 0
M  V30 7665 H 724.77 -1.01849 1.16044 0
M  V30 7666 H 726.728 -4.07274 0.513641 0
M  V30 7667 H 725.389 -3.13562 -0.183787 0
M  V30 7668 H 724.582 -4.80821 1.51085 0
M  V30 7669 H 724.184 -3.14981 2.01651 0
M  V30 7670 H 726.476 -6.27535 2.55354 0
M  V30 7671 H 727.419 -5.83437 4.01257 0
M  V30 7672 H 727.827 -5.0917 2.43734 0
M  V30 7673 N 727.225 -1.14528 -1.08264 0
M  V30 7674 C 728.473 -0.912599 -1.80322 0
M  V30 7675 C 728.794 0.562256 -1.86718 0
M  V30 7676 O 728.064 1.40869 -1.36135 0
M  V30 7677 H 726.644 -0.334645 -0.667849 0
M  V30 7678 H 729.306 -1.44415 -1.30883 0
M  V30 7679 H 728.402 -1.31384 -2.83098 0
M  V30 7680 N 728.703 1.26451 -0.940633 0
M  V30 7681 C 730.119 1.4608 -0.642859 0
M  V30 7682 C 730.319 1.84765 0.803998 0
M  V30 7683 O 729.375 1.96902 1.58069 0
M  V30 7684 C 730.688 2.54359 -1.60381 0
M  V30 7685 C 732.236 2.6821 -1.61345 0
M  V30 7686 C 732.711 3.79659 -2.56169 0
M  V30 7687 N 734.202 3.87051 -2.54452 0
M  V30 7688 C 734.937 4.72739 -3.24507 0
M  V30 7689 N 734.433 5.6282 -4.03987 0
M  V30 7690 N 736.226 4.66581 -3.13462 0
M  V30 7691 H 728.377 0.996289 -1.87584 0
M  V30 7692 H 730.64 0.498921 -0.80609 0
M  V30 7693 H 730.346 2.32758 -2.6366 0
M  V30 7694 H 730.22 3.52005 -1.35545 0
M  V30 7695 H 732.607 2.89184 -0.587913 0
M  V30 7696 H 732.688 1.7101 -1.90235 0
M  V30 7697 H 732.332 3.59438 -3.58841 0
M  V30 7698 H 732.262 4.76315 -2.2457 0
M  V30 7699 H 734.753 3.22649 -1.96739 0
M  V30 7700 H 735.066 6.25095 -4.54396 0
M  V30 7701 H 733.411 5.62574 -4.08088 0
M  V30 7702 H 736.602 3.9521 -2.50852 0
M  V30 7703 H 736.775 5.33141 -3.68327 0
M  V30 7704 N 730.181 0.707592 1.40822 0
M  V30 7705 C 731.427 0.244031 2.01326 0
M  V30 7706 C 731.76 -1.15722 1.55955 0
M  V30 7707 O 731.035 -1.78347 0.776044 0
M  V30 7708 C 731.318 0.315128 3.58718 0
M  V30 7709 C 731.171 1.75419 4.14184 0
M  V30 7710 C 732.49 -0.318251 4.38948 0
M  V30 7711 H 729.609 0.0901471 0.731466 0
M  V30 7712 H 732.251 0.898584 1.67408 0
M  V30 7713 H 730.401 -0.242176 3.87744 0
M  V30 7714 H 732.073 2.36626 3.95987 0
M  V30 7715 H 730.316 2.28449 3.68773 0
M  V30 7716 H 730.987 1.75538 5.23345 0
M  V30 7717 H 733.463 0.156514 4.15806 0
M  V30 7718 H 732.339 -0.238019 5.48384 0
M  V30 7719 H 732.6 -1.40067 4.19325 0
M  V30 7720 N 731.66 -1.50943 0.453197 0
M  V30 7721 C 732.89 -2.06328 -0.105981 0
M  V30 7722 C 733.298 -1.31909 -1.35634 0
M  V30 7723 O 732.641 -0.376607 -1.79798 0
M  V30 7724 C 732.703 -3.5631 -0.477868 0
M  V30 7725 C 732.367 -4.52093 0.667925 0
M  V30 7726 C 733.364 -4.96421 1.54475 0
M  V30 7727 C 731.049 -4.95001 0.853168 0
M  V30 7728 C 733.043 -5.82346 2.59138 0
M  V30 7729 C 730.73 -5.80713 1.90305 0
M  V30 7730 C 731.728 -6.24284 2.77053 0
M  V30 7731 O 731.416 -7.08291 3.80236 0
M  V30 7732 H 731.148 -0.675986 -0.00427247 0
M  V30 7733 H 733.702 -1.95314 0.635738 0
M  V30 7734 H 731.932 -3.65163 -1.27252 0
M  V30 7735 H 733.621 -3.94138 -0.970039 0
M  V30 7736 H 734.387 -4.63953 1.41324 0
M  V30 7737 H 730.266 -4.60619 0.187482 0
M  V30 7738 H 733.81 -6.16276 3.2688 0
M  V30 7739 H 729.707 -6.12593 2.03469 0
M  V30 7740 H 730.475 -7.26504 3.77007 0
M  V30 7741 N 733.138 -0.185124 -1.56509 0
M  V30 7742 C 734.415 0.503348 -1.89013 0
M  V30 7743 C 734.795 1.80349 -1.09715 0
M  V30 7744 O 734.143 2.27665 -0.195203 0
M  V30 7745 C 734.353 0.731839 -3.41241 0
M  V30 7746 C 735.701 1.05568 -4.11267 0
M  V30 7747 O 736.725 0.819906 -3.46635 0
M  V30 7748 O 735.584 1.50116 -5.25478 0
M  V30 7749 H 732.678 0.261139 -0.784688 0
M  V30 7750 H 735.224 -0.224592 -1.68207 0
M  V30 7751 H 733.996 -0.18672 -3.90854 0
M  V30 7752 H 733.619 1.5126 -3.67704 0
M  V30 7753 N 734.616 1.57351 0.0885366 0
M  V30 7754 C 736.027 1.75303 0.642308 0
M  V30 7755 C 736.378 0.808238 1.78779 0
M  V30 7756 O 735.503 -0.01171 2.16397 0
M  V30 7757 C 736.098 3.17885 1.17194 0
M  V30 7758 C 734.657 3.37239 1.67172 0
M  V30 7759 C 733.804 2.7108 0.584045 0
M  V30 7760 H 736.755 1.58103 -0.137567 0
M  V30 7761 H 736.776 3.2112 2.04114 0
M  V30 7762 H 736.288 3.86625 0.338024 0
M  V30 7763 H 734.389 2.73588 2.52943 0
M  V30 7764 H 734.502 4.45594 1.76019 0
M  V30 7765 H 732.866 2.33161 1.02508 0
M  V30 7766 H 733.649 3.42464 -0.239403 0
M  V30 7767 N 736.094 -0.359525 1.53444 0
M  V30 7768 C 737.51 -0.701599 1.43352 0
M  V30 7769 C 737.71 -1.93049 0.577439 0
M  V30 7770 O 736.766 -2.52423 0.0622224 0
M  V30 7771 C 738.079 -0.90915 2.86627 0
M  V30 7772 C 739.627 -1.00878 2.96298 0
M  V30 7773 C 740.102 -1.24876 4.40647 0
M  V30 7774 N 741.593 -1.31632 4.44103 0
M  V30 7775 C 742.328 -1.51922 5.52908 0
M  V30 7776 N 741.824 -1.69489 6.71748 0
M  V30 7777 N 743.617 -1.54341 5.40496 0
M  V30 7778 H 735.768 0.448685 2.07607 0
M  V30 7779 H 738.031 0.138713 0.937797 0
M  V30 7780 H 737.737 -0.0778997 3.51614 0
M  V30 7781 H 737.611 -1.81551 3.30634 0
M  V30 7782 H 739.998 -1.83057 2.31461 0
M  V30 7783 H 740.079 -0.0796721 2.55676 0
M  V30 7784 H 739.723 -0.431961 5.0606 0
M  V30 7785 H 739.653 -2.19118 4.78848 0
M  V30 7786 H 742.144 -1.19646 3.5846 0
M  V30 7787 H 742.457 -1.84561 7.50438 0
M  V30 7788 H 740.802 -1.66655 6.74723 0
M  V30 7789 H 743.993 -1.40188 4.46615 0
M  V30 7790 H 744.166 -1.69812 6.25354 0
M  V30 7791 N 737.572 -1.44907 -0.619662 0
M  V30 7792 C 738.535 -1.52282 -1.71297 0
M  V30 7793 C 739.535 -0.40359 -1.55653 0
M  V30 7794 O 740.725 -0.666638 -1.6094 0
M  V30 7795 C 737.857 -1.40778 -3.10474 0
M  V30 7796 H 739.05 -2.49683 -1.66128 0
M  V30 7797 H 736.603 -1.32168 -0.834339 0
M  V30 7798 H 737.338 -0.445156 -3.2123 0
M  V30 7799 H 737.123 -2.21947 -3.23237 0
M  V30 7800 H 738.613 -1.48946 -3.90135 0
M  V30 7801 O 739.089 0.763334 -1.42322 0
M  V30 7802 H 739.78 1.41133 -1.3267 0
M  V30 END ATOM
M  V30 BEGIN BOND
M  V30 END BOND
M  V30 END CTAB
M  END
$$$$
