drugbank_target|P05129 Protein kinase C gamma type (DB00675)
 OpenBabel12092120593D

  0  0  0     0  0            999 V3000
M  V30 BEGIN CTAB
M  V30 COUNTS 10932 11091 0 0 0
M  V30 BEGIN ATOM
M  V30 1 H -0.908 1.98254 -0.117106 0
M  V30 2 N 0 1.576 0 0
M  V30 3 C 0.933 2.03868 1.02534 0
M  V30 4 C 1.911 0.928543 1.3348 0
M  V30 5 O 3.095 1.19667 1.45644 0
M  V30 6 C 0.222 2.43627 2.35294 0
M  V30 7 C -0.732 3.65373 2.2001 0
M  V30 8 S 0.101 5.13292 1.52614 0
M  V30 9 C 1.257 5.56322 2.86805 0
M  V30 10 H 1.49 2.90518 0.631377 0
M  V30 11 H -0.977 1.52953 0.210867 0
M  V30 12 H 0.981 2.67203 3.11629 0
M  V30 13 H -0.358 1.57376 2.7183 0
M  V30 14 H -1.165 3.90944 3.18086 0
M  V30 15 H -1.563 3.418 1.51819 0
M  V30 16 H 0.729 5.58782 3.83104 0
M  V30 17 H 1.672 6.56266 2.65933 0
M  V30 18 H 2.08 4.83886 2.90714 0
M  V30 19 N 1.4781 -0.272755 1.55222 0
M  V30 20 C 2.4411 -1.32041 1.87344 0
M  V30 21 C 3.4411 -1.42342 0.74803 0
M  V30 22 O 4.6311 -1.41488 1.0162 0
M  V30 23 C 1.7631 -2.70173 2.07893 0
M  V30 24 H 2.9561 -1.04789 2.80997 0
M  V30 25 H 0.5091 -0.51083 1.47717 0
M  V30 26 H 1.2441 -3.02605 1.16622 0
M  V30 27 H 1.0291 -2.64082 2.89833 0
M  V30 28 H 2.5191 -3.45869 2.34017 0
M  V30 29 N 2.9562 -1.48159 -0.537278 0
M  V30 30 C 4.2042 -1.55497 -1.29094 0
M  V30 31 C 4.5252 -0.227454 -1.93669 0
M  V30 32 O 3.7952 0.750386 -1.80959 0
M  V30 33 H 2.3752 -0.572832 -0.47945 0
M  V30 34 H 5.0372 -1.84579 -0.625818 0
M  V30 35 H 4.1332 -2.33216 -2.07405 0
M  V30 36 N 4.4343 0.785586 -1.36625 0
M  V30 37 C 5.3643 1.91259 -1.33949 0
M  V30 38 C 6.3453 1.68795 -0.210325 0
M  V30 39 O 7.5303 1.89854 -0.408561 0
M  V30 40 C 4.6603 3.28339 -1.13186 0
M  V30 41 C 3.6143 3.65335 -2.22967 0
M  V30 42 C 2.9403 5.00806 -1.87342 0
M  V30 43 C 4.2403 3.7352 -3.65075 0
M  V30 44 H 5.9343 1.93755 -2.28253 0
M  V30 45 H 3.4803 0.930788 -1.09874 0
M  V30 46 H 5.4333 4.06804 -1.09948 0
M  V30 47 H 4.1573 3.2624 -0.153332 0
M  V30 48 H 2.8163 2.89169 -2.25337 0
M  V30 49 H 2.4643 4.95233 -0.880545 0
M  V30 50 H 2.1643 5.26529 -2.60846 0
M  V30 51 H 3.6883 5.81687 -1.85667 0
M  V30 52 H 5.1023 4.42168 -3.64911 0
M  V30 53 H 3.4993 4.10731 -4.37516 0
M  V30 54 H 4.5693 2.74527 -3.99703 0
M  V30 55 N 5.9124 1.20967 1.01018 0
M  V30 56 C 7.1604 1.02172 1.74371 0
M  V30 57 C 7.4814 -0.446414 1.89821 0
M  V30 58 O 6.7514 -1.32234 1.44537 0
M  V30 59 H 5.3314 0.375066 0.646014 0
M  V30 60 H 7.9934 1.52187 1.21758 0
M  V30 61 H 7.0894 1.48538 2.74487 0
M  V30 62 N 7.3905 -1.2043 1.01659 0
M  V30 63 C 8.8015 -1.71517 0.737482 0
M  V30 64 C 9.1525 -1.81547 -0.743973 0
M  V30 65 O 8.2775 -1.47803 -1.58061 0
M  V30 66 C 8.8725 -3.11515 1.33206 0
M  V30 67 C 7.4315 -3.59912 1.10183 0
M  V30 68 C 6.5785 -2.37116 1.43776 0
M  V30 69 H 9.5295 -1.05444 1.18606 0
M  V30 70 H 9.5505 -3.73575 0.722636 0
M  V30 71 H 9.0625 -3.04182 2.41028 0
M  V30 72 H 7.1635 -3.72577 0.0412756 0
M  V30 73 H 7.2765 -4.44731 1.78188 0
M  V30 74 H 5.6405 -2.39857 0.856778 0
M  V30 75 H 6.4235 -2.32424 2.52654 0
M  V30 76 N 8.8686 -0.792821 -1.36206 0
M  V30 77 C 10.1166 -0.366062 -1.98757 0
M  V30 78 C 10.4376 1.0668 -1.63231 0
M  V30 79 O 9.7076 1.73587 -0.907978 0
M  V30 80 H 8.2876 -0.132364 -0.735179 0
M  V30 81 H 10.9496 -1.01562 -1.66347 0
M  V30 82 H 10.0456 -0.460638 -3.08682 0
M  V30 83 N 10.3467 1.47872 -0.545128 0
M  V30 84 C 11.5927 2.02793 -0.0166104 0
M  V30 85 C 11.9257 1.41987 1.32489 0
M  V30 86 O 11.2007 0.571045 1.85928 0
M  V30 87 C 11.4837 3.59989 0.0893294 0
M  V30 88 C 11.3367 4.3125 -1.27841 0
M  V30 89 C 12.6557 4.32606 0.808724 0
M  V30 90 H 9.7747 0.736962 -0.00751035 0
M  V30 91 H 12.4167 1.76433 -0.705085 0
M  V30 92 H 10.5667 3.82579 0.675681 0
M  V30 93 H 12.2387 4.20035 -1.90704 0
M  V30 94 H 10.4817 3.92076 -1.85632 0
M  V30 95 H 11.1527 5.39736 -1.15713 0
M  V30 96 H 13.6287 4.14936 0.310992 0
M  V30 97 H 12.5047 5.42251 0.851782 0
M  V30 98 H 12.7657 4.00963 1.86229 0
M  V30 99 N 11.8248 0.280983 1.55075 0
M  V30 100 C 13.0728 -0.333455 1.9933 0
M  V30 101 C 13.3938 -1.55937 1.17085 0
M  V30 102 O 12.6638 -1.94143 0.261805 0
M  V30 103 H 11.2438 -0.126197 0.736263 0
M  V30 104 H 13.9058 0.387678 1.91005 0
M  V30 105 H 13.0018 -0.619292 3.05894 0
M  V30 106 N 13.3029 -1.57598 0.00835791 0
M  V30 107 C 14.5799 -1.82172 -0.712235 0
M  V30 108 C 14.9599 -0.887873 -1.9152 0
M  V30 109 O 14.3079 0.06146 -2.28417 0
M  V30 110 C 14.5179 -3.30875 -1.11008 0
M  V30 111 C 15.8659 -3.96826 -1.51044 0
M  V30 112 O 16.8899 -3.35248 -1.20364 0
M  V30 113 O 15.7489 -5.05318 -2.08125 0
M  V30 114 H 12.8429 -0.750435 -0.347529 0
M  V30 115 H 15.3889 -1.69665 0.0344523 0
M  V30 116 H 14.1609 -3.90481 -0.252982 0
M  V30 117 H 13.7839 -3.48412 -1.9156 0
M  V30 118 N 14.781 0.264519 -1.55364 0
M  V30 119 C 16.006 1.01726 -1.80739 0
M  V30 120 C 16.431 1.78836 -0.583044 0
M  V30 121 O 15.789 1.75167 0.467566 0
M  V30 122 C 15.837 1.94482 -3.03659 0
M  V30 123 O 14.941 3.03386 -2.7934 0
M  V30 124 H 14.282 0.290395 -0.597132 0
M  V30 125 H 16.812 0.290854 -2.02522 0
M  V30 126 H 16.822 2.36278 -3.32621 0
M  V30 127 H 15.497 1.37772 -3.92418 0
M  V30 128 H 14.074 2.65844 -2.61498 0
M  V30 129 N 16.2591 1.48442 0.529413 0
M  V30 130 C 17.1691 1.6569 1.66084 0
M  V30 131 C 18.1851 0.539432 1.65427 0
M  V30 132 O 19.3611 0.810572 1.84368 0
M  V30 133 C 16.4261 1.69315 3.02545 0
M  V30 134 C 15.4871 2.92694 3.14052 0
M  V30 135 C 14.7201 2.96137 4.44003 0
M  V30 136 O 14.9431 2.07973 5.31134 0
M  V30 137 O 13.8771 3.88312 4.59888 0
M  V30 138 H 17.7031 2.61483 1.54469 0
M  V30 139 H 15.2881 1.3185 0.702567 0
M  V30 140 H 17.1701 1.74217 3.83701 0
M  V30 141 H 15.8451 0.766966 3.14483 0
M  V30 142 H 14.7521 2.93324 2.32189 0
M  V30 143 H 16.0851 3.84699 3.0703 0
M  V30 144 N 17.7372 -0.778329 1.37039 0
M  V30 145 C 18.9852 -1.53361 1.31623 0
M  V30 146 C 19.3062 -1.94739 -0.100831 0
M  V30 147 O 18.5762 -1.65797 -1.04347 0
M  V30 148 H 17.1562 -0.568794 0.484234 0
M  V30 149 H 19.8182 -0.926742 1.71457 0
M  V30 150 H 18.9142 -2.43606 1.95096 0
M  V30 151 N 19.2153 -1.21501 -1.00376 0
M  V30 152 C 20.4633 -1.03095 -1.73827 0
M  V30 153 C 20.7843 0.436341 -1.90055 0
M  V30 154 O 20.0543 1.31466 -1.45236 0
M  V30 155 H 18.6343 -0.378487 -0.644016 0
M  V30 156 H 21.2963 -1.52831 -1.20949 0
M  V30 157 H 20.3923 -1.49991 -2.73695 0
M  V30 158 N 20.6934 1.19889 -1.02296 0
M  V30 159 C 22.1044 1.71124 -0.746568 0
M  V30 160 C 22.4554 1.81939 0.734335 0
M  V30 161 O 21.5804 1.48639 1.57275 0
M  V30 162 C 22.1754 3.10804 -1.34857 0
M  V30 163 C 20.7344 3.59323 -1.1209 0
M  V30 164 C 19.8814 2.3635 -1.45031 0
M  V30 165 H 22.8324 1.04813 -1.19163 0
M  V30 166 H 22.8534 3.73186 -0.742437 0
M  V30 167 H 22.3654 3.029 -2.42638 0
M  V30 168 H 20.4664 3.7255 -0.0610337 0
M  V30 169 H 20.5794 4.4378 -1.80544 0
M  V30 170 H 18.9434 2.39399 -0.869487 0
M  V30 171 H 19.7264 2.31081 -2.53883 0
M  V30 172 N 22.1715 0.800033 1.35784 0
M  V30 173 C 23.5875 0.482977 1.52117 0
M  V30 174 C 23.7875 -0.996948 1.75109 0
M  V30 175 O 22.8435 -1.78216 1.78872 0
M  V30 176 C 24.1565 1.32264 2.70049 0
M  V30 177 C 25.7045 1.31742 2.83924 0
M  V30 178 C 26.1795 2.14106 4.04874 0
M  V30 179 N 27.6705 2.11607 4.12039 0
M  V30 180 C 28.4055 2.72099 5.04727 0
M  V30 181 N 27.9015 3.41492 6.02789 0
M  V30 182 N 29.6945 2.61776 4.97423 0
M  V30 183 H 21.8455 1.75856 1.19115 0
M  V30 184 H 24.1085 0.748122 0.582252 0
M  V30 185 H 23.8145 2.37261 2.59616 0
M  V30 186 H 23.6885 0.971303 3.6448 0
M  V30 187 H 26.0755 0.275333 2.93813 0
M  V30 188 H 26.1565 1.70859 1.9037 0
M  V30 189 H 25.8005 3.18351 3.95746 0
M  V30 190 H 25.7305 1.72353 4.97596 0
M  V30 191 H 28.2215 1.61112 3.41835 0
M  V30 192 H 28.5345 3.84953 6.70098 0
M  V30 193 H 26.8795 3.45596 6.02983 0
M  V30 194 H 30.0705 2.07157 4.19766 0
M  V30 195 H 30.2435 3.0921 5.69468 0
M  V30 196 N 23.6496 -1.47581 0.552962 0
M  V30 197 C 25.0606 -1.86324 0.118463 0
M  V30 198 C 25.4116 -1.46006 -1.3106 0
M  V30 199 O 24.5366 -0.861182 -1.98526 0
M  V30 200 C 25.1316 -3.3816 0.20821 0
M  V30 201 C 23.6906 -3.7601 -0.171226 0
M  V30 202 C 22.8376 -2.71634 0.557686 0
M  V30 203 H 25.7886 -1.39159 0.762928 0
M  V30 204 H 25.8096 -3.76141 -0.574278 0
M  V30 205 H 25.3216 -3.67473 1.24841 0
M  V30 206 H 23.4226 -3.52313 -1.21269 0
M  V30 207 H 23.5356 -4.78745 0.184379 0
M  V30 208 H 21.8996 -2.547 0.00125792 0
M  V30 209 H 22.6826 -3.0379 1.59896 0
M  V30 210 N 25.1277 -0.289203 -1.54924 0
M  V30 211 C 26.0577 0.58549 -2.2604 0
M  V30 212 C 27.0387 1.14753 -1.25562 0
M  V30 213 O 28.2237 1.17906 -1.54311 0
M  V30 214 C 25.3537 1.76305 -2.99222 0
M  V30 215 C 24.3077 1.33191 -4.06748 0
M  V30 216 C 23.6337 2.5937 -4.6758 0
M  V30 217 C 24.9337 0.471775 -5.20165 0
M  V30 218 H 26.6277 -0.00763532 -2.99399 0
M  V30 219 H 24.1737 -0.00511229 -1.43999 0
M  V30 220 H 26.1267 2.38097 -3.47689 0
M  V30 221 H 24.8507 2.38223 -2.23422 0
M  V30 222 H 23.5097 0.737121 -3.59113 0
M  V30 223 H 23.1577 3.19576 -3.88433 0
M  V30 224 H 22.8577 2.31228 -5.40192 0
M  V30 225 H 24.3817 3.21985 -5.18804 0
M  V30 226 H 25.7957 0.995056 -5.64599 0
M  V30 227 H 24.1927 0.284639 -5.99425 0
M  V30 228 H 25.2627 -0.506041 -4.82252 0
M  V30 229 N 26.6058 1.57591 -0.0167156 0
M  V30 230 C 27.8528 1.91283 0.664597 0
M  V30 231 C 28.1808 0.891949 1.72842 0
M  V30 232 O 27.4358 -0.100931 1.9544 0
M  V30 233 C 27.7348 3.3172 1.33029 0
M  V30 234 C 27.4008 4.4914 0.398047 0
M  V30 235 C 26.0628 4.80992 0.141421 0
M  V30 236 C 28.4148 5.20634 -0.242825 0
M  V30 237 C 25.7428 5.81703 -0.764092 0
M  V30 238 C 28.0948 6.22311 -1.13632 0
M  V30 239 C 26.7588 6.52611 -1.40196 0
M  V30 240 H 26.0288 0.699956 0.243193 0
M  V30 241 H 28.6758 1.9135 -0.0758267 0
M  V30 242 H 26.9808 3.27856 2.14517 0
M  V30 243 H 28.6778 3.55055 1.86379 0
M  V30 244 H 25.2678 4.24262 0.608238 0
M  V30 245 H 29.4518 4.96267 -0.0576019 0
M  V30 246 H 24.7078 6.03532 -0.977732 0
M  V30 247 H 28.8818 6.76834 -1.63917 0
M  V30 248 H 26.5088 7.30467 -2.10529 0
M  V30 249 N 28.0839 -0.256276 1.55502 0
M  V30 250 C 29.3239 -0.993081 1.78654 0
M  V30 251 C 29.6879 -1.8288 0.584724 0
M  V30 252 O 30.8889 -2.59665 0.694822 0
M  V30 253 C 29.1599 -1.83856 3.06483 0
M  V30 254 S 30.7189 -2.63573 3.5082 0
M  V30 255 H 27.5369 -0.334199 0.62756 0
M  V30 256 H 30.1389 -0.26184 1.93739 0
M  V30 257 H 28.8429 -1.21414 3.92029 0
M  V30 258 H 28.3739 -2.61271 2.94111 0
M  V30 259 H 30.3889 -3.86312 3.11412 0
M  V30 260 N 29.562 -1.4872 -0.521534 0
M  V30 261 C 30.978 -1.35028 -0.850855 0
M  V30 262 C 31.178 -0.367712 -1.98116 0
M  V30 263 O 30.234 0.208037 -2.51642 0
M  V30 264 C 31.547 -2.75263 -1.21041 0
M  V30 265 C 33.095 -2.83813 -1.31981 0
M  V30 266 C 33.57 -4.24769 -1.71276 0
M  V30 267 N 35.061 -4.27482 -1.78363 0
M  V30 268 C 35.796 -5.33494 -2.1017 0
M  V30 269 N 35.292 -6.49775 -2.40343 0
M  V30 270 N 37.085 -5.20894 -2.11248 0
M  V30 271 H 29.236 -2.11214 0.22413 0
M  V30 272 H 31.499 -0.947252 0.0376439 0
M  V30 273 H 31.205 -3.48765 -0.453415 0
M  V30 274 H 31.079 -3.09327 -2.15863 0
M  V30 275 H 33.466 -2.10561 -2.06756 0
M  V30 276 H 33.547 -2.53358 -0.352596 0
M  V30 277 H 33.191 -4.9854 -0.970588 0
M  V30 278 H 33.121 -4.52673 -2.69062 0
M  V30 279 H 35.612 -3.43611 -1.57288 0
M  V30 280 H 35.925 -7.26402 -2.63743 0
M  V30 281 H 34.27 -6.53035 -2.37844 0
M  V30 282 H 37.461 -4.29065 -1.87139 0
M  V30 283 H 37.634 -6.03612 -2.35704 0
M  V30 284 N 31.0401 0.771051 -1.3745 0
M  V30 285 C 31.9871 1.88435 -1.3327 0
M  V30 286 C 32.9571 1.64914 -0.198136 0
M  V30 287 O 34.1421 1.86821 -0.387606 0
M  V30 288 C 31.2821 3.25509 -1.14622 0
M  V30 289 C 30.3951 3.60979 -2.37314 0
M  V30 290 C 29.5301 4.87265 -2.11533 0
M  V30 291 C 28.5691 5.15469 -3.30088 0
M  V30 292 N 27.7061 6.32944 -3.03853 0
M  V30 293 H 32.5461 1.91344 -2.28455 0
M  V30 294 H 30.0831 0.935466 -1.13523 0
M  V30 295 H 32.0411 4.04582 -1.01831 0
M  V30 296 H 30.6711 3.21974 -0.230837 0
M  V30 297 H 29.7231 2.76885 -2.60842 0
M  V30 298 H 31.0351 3.77759 -3.25729 0
M  V30 299 H 30.1891 5.74244 -1.95777 0
M  V30 300 H 28.9281 4.7259 -1.20457 0
M  V30 301 H 27.9331 4.26966 -3.46382 0
M  V30 302 H 29.1581 5.32052 -4.22016 0
M  V30 303 H 27.1041 6.19625 -2.15407 0
M  V30 304 H 27.0211 6.50143 -3.85812 0
M  V30 305 H 28.2891 7.22857 -2.91716 0
M  V30 306 N 32.5182 1.22032 0.997298 0
M  V30 307 C 33.7662 1.04016 1.73278 0
M  V30 308 C 34.0872 -0.426255 1.90284 0
M  V30 309 O 33.3572 -1.30694 1.45931 0
M  V30 310 H 31.9372 0.381897 0.642 0
M  V30 311 H 34.5992 1.5347 1.20137 0
M  V30 312 H 33.6952 1.51441 2.72896 0
M  V30 313 N 33.9963 -1.19345 1.0293 0
M  V30 314 C 34.9593 -2.20793 0.615069 0
M  V30 315 C 35.9593 -1.57553 -0.321533 0
M  V30 316 O 37.1493 -1.73862 -0.108483 0
M  V30 317 C 34.2813 -3.40754 -0.0999222 0
M  V30 318 H 35.4743 -2.58955 1.51269 0
M  V30 319 H 33.0273 -1.3303 0.820534 0
M  V30 320 H 33.7623 -3.0811 -1.01187 0
M  V30 321 H 33.5473 -3.87889 0.57309 0
M  V30 322 H 35.0373 -4.15898 -0.376645 0
M  V30 323 N 35.4744 -0.807222 -1.35358 0
M  V30 324 C 36.4044 -0.232509 -2.3234 0
M  V30 325 C 37.3854 0.642386 -1.57504 0
M  V30 326 O 38.5704 0.572526 -1.85569 0
M  V30 327 C 35.7004 0.619238 -3.41735 0
M  V30 328 C 34.6544 -0.157215 -4.27711 0
M  V30 329 C 33.9804 0.816273 -5.28433 0
M  V30 330 C 35.2804 -1.35656 -5.04376 0
M  V30 331 H 36.9744 -1.04276 -2.80654 0
M  V30 332 H 34.5204 -0.50288 -1.34934 0
M  V30 333 H 36.4734 1.03137 -4.08584 0
M  V30 334 H 35.1974 1.46239 -2.92031 0
M  V30 335 H 33.8564 -0.550525 -3.62443 0
M  V30 336 H 33.5044 1.65494 -4.74996 0
M  V30 337 H 33.2044 0.301067 -5.86828 0
M  V30 338 H 34.7284 1.22659 -5.98153 0
M  V30 339 H 36.1424 -1.01927 -5.64166 0
M  V30 340 H 34.5394 -1.8063 -5.7227 0
M  V30 341 H 35.6094 -2.14288 -4.34981 0
M  V30 342 N 36.9525 1.47285 -0.560781 0
M  V30 343 C 38.3685 1.58065 -0.22081 0
M  V30 344 C 38.5685 1.55892 1.27671 0
M  V30 345 O 37.6245 1.46422 2.0571 0
M  V30 346 C 38.9375 2.88418 -0.850625 0
M  V30 347 C 40.4855 3.02009 -0.822184 0
M  V30 348 C 40.9605 4.35066 -1.43113 0
M  V30 349 N 42.4515 4.41711 -1.39448 0
M  V30 350 C 43.1865 5.43237 -1.83525 0
M  V30 351 N 42.6825 6.51555 -2.35474 0
M  V30 352 N 44.4755 5.34304 -1.74574 0
M  V30 353 H 36.6265 1.46941 -1.53369 0
M  V30 354 H 38.8895 0.699558 -0.639783 0
M  V30 355 H 38.5955 2.95755 -1.9032 0
M  V30 356 H 38.4695 3.75612 -0.345773 0
M  V30 357 H 40.8565 2.94266 0.221714 0
M  V30 358 H 40.9375 2.16347 -1.36483 0
M  V30 359 H 40.5815 4.43565 -2.47412 0
M  V30 360 H 40.5115 5.19465 -0.863899 0
M  V30 361 H 43.0025 3.64027 -1.01452 0
M  V30 362 H 43.3155 7.25203 -2.67021 0
M  V30 363 H 41.6605 6.52435 -2.39487 0
M  V30 364 H 44.8515 4.48581 -1.33763 0
M  V30 365 H 45.0245 6.13288 -2.09242 0
M  V30 366 N 38.4306 0.297415 1.54768 0
M  V30 367 C 39.3626 -0.613881 2.20826 0
M  V30 368 C 40.3756 -1.10032 1.19987 0
M  V30 369 O 41.5646 -1.01839 1.46598 0
M  V30 370 C 38.6646 -1.852 2.83821 0
M  V30 371 C 37.8376 -1.50865 4.10559 0
M  V30 372 C 36.8966 -2.60154 4.57391 0
M  V30 373 O 35.9226 -2.25398 5.2267 0
M  V30 374 N 37.1246 -3.90629 4.29406 0
M  V30 375 H 39.8896 -0.048389 2.99661 0
M  V30 376 H 37.4506 0.11946 1.61459 0
M  V30 377 H 39.4426 -2.57652 3.12086 0
M  V30 378 H 38.0126 -2.32597 2.08847 0
M  V30 379 H 37.2326 -0.616925 3.89343 0
M  V30 380 H 38.5206 -1.25458 4.9309 0
M  V30 381 H 37.9186 -4.21677 3.77101 0
M  V30 382 H 36.4756 -4.59391 4.62388 0
M  V30 383 N 39.9087 -1.5758 0.0250728 0
M  V30 384 C 40.8557 -2.09973 -0.958129 0
M  V30 385 C 41.8257 -1.00085 -1.3256 0
M  V30 386 O 43.0107 -1.27481 -1.41962 0
M  V30 387 C 40.1507 -2.62812 -2.2366 0
M  V30 388 C 39.2637 -3.86693 -1.92594 0
M  V30 389 C 38.3987 -4.27941 -3.14707 0
M  V30 390 C 37.4377 -5.44591 -2.79442 0
M  V30 391 N 36.5747 -5.81014 -3.94167 0
M  V30 392 H 41.4147 -2.937 -0.504428 0
M  V30 393 H 38.9517 -1.45172 -0.237392 0
M  V30 394 H 40.9097 -2.91536 -2.98434 0
M  V30 395 H 39.5397 -1.81922 -2.66654 0
M  V30 396 H 38.5917 -3.64723 -1.0808 0
M  V30 397 H 39.9037 -4.71547 -1.62619 0
M  V30 398 H 39.0577 -4.58079 -3.97804 0
M  V30 399 H 37.7967 -3.41845 -3.4784 0
M  V30 400 H 36.8017 -5.1415 -1.94755 0
M  V30 401 H 38.0267 -6.32382 -2.47528 0
M  V30 402 H 35.9727 -4.97874 -4.2715 0
M  V30 403 H 35.8897 -6.60498 -3.67801 0
M  V30 404 H 37.1577 -6.15756 -4.7798 0
M  V30 405 N 41.3868 0.248026 -1.55636 0
M  V30 406 C 42.6328 0.97767 -1.77678 0
M  V30 407 C 42.9658 1.85016 -0.590135 0
M  V30 408 O 42.2408 1.90095 0.411611 0
M  V30 409 C 42.5238 1.83914 -3.09593 0
M  V30 410 C 42.3768 0.99491 -4.38659 0
M  V30 411 C 43.6958 2.82183 -3.37729 0
M  V30 412 H 40.8148 0.354005 -0.646413 0
M  V30 413 H 43.4568 0.248253 -1.88371 0
M  V30 414 H 41.6068 2.46104 -3.00608 0
M  V30 415 H 43.2788 0.391789 -4.59633 0
M  V30 416 H 41.5218 0.299231 -4.32767 0
M  V30 417 H 42.1928 1.63145 -5.2734 0
M  V30 418 H 44.6688 2.30129 -3.4667 0
M  V30 419 H 43.5448 3.39582 -4.31249 0
M  V30 420 H 43.8058 3.58588 -2.58586 0
M  V30 421 N 42.8649 1.48995 0.513639 0
M  V30 422 C 44.1109 1.58076 1.27042 0
M  V30 423 C 44.4439 0.261026 1.92438 0
M  V30 424 O 43.7189 -0.734393 1.80103 0
M  V30 425 C 44.0019 2.73091 2.34719 0
M  V30 426 C 43.8549 4.14821 1.73907 0
M  V30 427 C 45.1739 2.83796 3.36375 0
M  V30 428 H 42.2929 0.575391 0.460536 0
M  V30 429 H 44.9349 1.81232 0.570516 0
M  V30 430 H 43.0849 2.53479 2.94416 0
M  V30 431 H 44.7569 4.45917 1.18135 0
M  V30 432 H 42.9999 4.21058 1.0437 0
M  V30 433 H 43.6709 4.91147 2.51949 0
M  V30 434 H 46.1469 3.01611 2.86653 0
M  V30 435 H 45.0229 3.65971 4.09093 0
M  V30 436 H 45.2839 1.92624 3.9793 0
M  V30 437 N 44.343 -0.763751 1.37857 0
M  V30 438 C 45.293 -1.86765 1.30777 0
M  V30 439 C 46.277 -1.59726 0.194015 0
M  V30 440 O 47.469 -1.7172 0.42911 0
M  V30 441 C 44.598 -3.24343 1.12502 0
M  V30 442 C 43.684 -3.57307 2.28456 0
M  V30 443 N 44.075 -3.61398 3.53871 0
M  V30 444 C 42.373 -3.87517 2.20786 0
M  V30 445 C 43.074 -3.91339 4.30382 0
M  V30 446 N 42.05 -4.07649 3.59615 0
M  V30 447 H 45.852 -1.88191 2.25746 0
M  V30 448 H 43.366 -0.9606 1.30944 0
M  V30 449 H 45.363 -4.03327 1.05514 0
M  V30 450 H 44.023 -3.24175 0.184574 0
M  V30 451 H 45.034 -3.43407 3.87675 0
M  V30 452 H 41.711 -3.95125 1.34844 0
M  V30 453 H 43.101 -4.01213 5.3896 0
M  V30 454 N 45.8211 -1.22559 -0.990812 0
M  V30 455 C 46.7311 -1.01394 -2.11557 0
M  V30 456 C 47.7471 0.0383962 -1.73958 0
M  V30 457 O 48.9231 -0.154787 -2.00804 0
M  V30 458 C 45.9881 -0.596569 -3.41529 0
M  V30 459 C 45.0491 -1.72276 -3.93217 0
M  V30 460 C 44.2821 -1.32521 -5.16985 0
M  V30 461 O 44.5051 -0.204909 -5.70032 0
M  V30 462 O 43.4391 -2.14247 -5.62478 0
M  V30 463 H 47.2651 -1.95633 -2.32296 0
M  V30 464 H 44.8501 -1.01172 -1.0993 0
M  V30 465 H 46.7321 -0.374263 -4.19735 0
M  V30 466 H 45.4071 0.316939 -3.22145 0
M  V30 467 H 44.3141 -1.99961 -3.16174 0
M  V30 468 H 45.6471 -2.61421 -4.17037 0
M  V30 469 N 47.2992 1.18797 -1.03562 0
M  V30 470 C 48.5452 1.8893 -0.737113 0
M  V30 471 C 48.8782 1.79837 0.732956 0
M  V30 472 O 48.1532 1.19525 1.5344 0
M  V30 473 C 48.4362 3.39607 -1.19745 0
M  V30 474 C 48.2892 3.57537 -2.72924 0
M  V30 475 C 49.6082 4.33069 -0.783526 0
M  V30 476 H 46.7272 0.686057 -0.269249 0
M  V30 477 H 49.3692 1.39797 -1.28673 0
M  V30 478 H 47.5192 3.81583 -0.729855 0
M  V30 479 H 49.1912 3.24688 -3.27682 0
M  V30 480 H 47.4342 3.00363 -3.12993 0
M  V30 481 H 48.1052 4.63238 -3.00191 0
M  V30 482 H 50.5812 3.98846 -1.18581 0
M  V30 483 H 49.4572 5.3707 -1.13343 0
M  V30 484 H 49.7182 4.40986 0.313681 0
M  V30 485 N 48.7773 0.814389 1.34928 0
M  V30 486 C 49.7243 0.22822 2.29669 0
M  V30 487 C 50.6943 -0.642164 1.53184 0
M  V30 488 O 51.8793 -0.585605 1.81591 0
M  V30 489 C 49.0193 -0.61089 3.3965 0
M  V30 490 C 48.1323 0.280792 4.31086 0
M  V30 491 C 47.2673 -0.567067 5.28165 0
M  V30 492 C 46.3063 0.324531 6.11239 0
M  V30 493 N 45.4433 -0.483756 7.00431 0
M  V30 494 H 50.2833 1.04153 2.79206 0
M  V30 495 H 47.8203 0.525133 1.37407 0
M  V30 496 H 49.7783 -1.11263 4.0209 0
M  V30 497 H 48.4083 -1.38939 2.91369 0
M  V30 498 H 47.4603 0.900688 3.69583 0
M  V30 499 H 48.7723 0.966723 4.89342 0
M  V30 500 H 47.9263 -1.13363 5.96015 0
M  V30 501 H 46.6653 -1.28654 4.70425 0
M  V30 502 H 45.6703 0.903298 5.42329 0
M  V30 503 H 46.8953 1.04198 6.71059 0
M  V30 504 H 44.8413 -1.18706 6.45171 0
M  V30 505 H 44.7583 0.143965 7.55863 0
M  V30 506 H 46.0263 -1.03334 7.7262 0
M  V30 507 N 50.2554 -1.46986 0.568584 0
M  V30 508 C 51.4804 -2.07335 0.0520528 0
M  V30 509 C 51.9054 -1.41675 -1.23733 0
M  V30 510 O 51.2634 -0.495623 -1.74394 0
M  V30 511 C 51.3114 -3.60417 -0.11501 0
M  V30 512 O 50.4154 -3.95309 -1.17492 0
M  V30 513 H 49.7564 -0.661597 0.0564385 0
M  V30 514 H 52.2864 -1.88837 0.787507 0
M  V30 515 H 52.2964 -4.06698 -0.325644 0
M  V30 516 H 50.9714 -4.07601 0.826675 0
M  V30 517 H 49.5484 -3.60757 -0.943869 0
M  V30 518 N 51.7335 -0.305618 -1.54608 0
M  V30 519 C 52.6835 0.583595 -2.20405 0
M  V30 520 C 53.6675 1.09539 -1.17856 0
M  V30 521 O 54.8595 1.0354 -1.43557 0
M  V30 522 C 51.9885 1.75277 -2.95183 0
M  V30 523 C 51.0745 1.25672 -4.05052 0
M  V30 524 N 51.4655 0.478998 -5.03527 0
M  V30 525 C 49.7635 1.53704 -4.18678 0
M  V30 526 C 50.4645 0.214269 -5.81305 0
M  V30 527 N 49.4405 0.795374 -5.3775 0
M  V30 528 H 53.2425 -0.0180946 -2.93894 0
M  V30 529 H 50.7565 -0.110601 -1.62023 0
M  V30 530 H 52.7535 2.4014 -3.40791 0
M  V30 531 H 51.4135 2.35812 -2.23211 0
M  V30 532 H 52.4245 0.123473 -5.17753 0
M  V30 533 H 49.1015 2.14954 -3.57912 0
M  V30 534 H 50.4915 -0.410656 -6.70644 0
M  V30 535 N 53.2116 1.57565 -0.0334293 0
M  V30 536 C 54.1586 2.10478 0.946981 0
M  V30 537 C 55.1286 1.00787 1.32027 0
M  V30 538 O 56.3136 1.28232 1.41284 0
M  V30 539 C 53.4536 2.63994 2.22263 0
M  V30 540 C 52.5666 3.87709 1.90541 0
M  V30 541 C 51.7016 4.29604 3.12433 0
M  V30 542 C 50.7406 5.46065 2.76549 0
M  V30 543 N 49.8776 5.83096 3.9108 0
M  V30 544 H 54.7176 2.93963 0.488846 0
M  V30 545 H 52.2546 1.45296 0.22969 0
M  V30 546 H 54.2126 2.93114 2.96884 0
M  V30 547 H 52.8426 1.83333 2.65685 0
M  V30 548 H 51.8946 3.65291 1.06144 0
M  V30 549 H 53.2066 4.72403 1.60116 0
M  V30 550 H 52.3606 4.60182 3.9537 0
M  V30 551 H 51.0996 3.43685 3.46023 0
M  V30 552 H 50.1046 5.15176 1.92026 0
M  V30 553 H 51.3296 6.33685 2.44171 0
M  V30 554 H 49.2756 5.00132 4.24504 0
M  V30 555 H 49.1926 6.6244 3.64293 0
M  V30 556 H 50.4606 6.18282 4.74708 0
M  V30 557 N 54.6897 -0.239769 1.55765 0
M  V30 558 C 55.9367 -0.966801 1.7793 0
M  V30 559 C 56.2647 -1.85046 0.599015 0
M  V30 560 O 55.5197 -1.91197 -0.417395 0
M  V30 561 C 55.8187 -1.852 3.05672 0
M  V30 562 C 55.4847 -1.1231 4.36689 0
M  V30 563 C 54.1467 -0.921689 4.72291 0
M  V30 564 C 56.4987 -0.607019 5.17653 0
M  V30 565 C 53.8267 -0.191996 5.86386 0
M  V30 566 C 56.1787 0.109241 6.32506 0
M  V30 567 C 54.8427 0.322073 6.66723 0
M  V30 568 H 54.1127 -0.353778 0.651093 0
M  V30 569 H 56.7597 -0.23634 1.90036 0
M  V30 570 H 55.0647 -2.64975 2.8861 0
M  V30 571 H 56.7617 -2.41635 3.20021 0
M  V30 572 H 53.3517 -1.29004 4.08725 0
M  V30 573 H 57.5357 -0.750153 4.90598 0
M  V30 574 H 52.7917 -0.0166949 6.11398 0
M  V30 575 H 56.9657 0.516737 6.9448 0
M  V30 576 H 54.5927 0.88944 7.54979 0
M  V30 577 N 56.1678 -1.49265 -0.50573 0
M  V30 578 C 57.3958 -1.62215 -1.28429 0
M  V30 579 C 57.8108 -0.291697 -1.86533 0
M  V30 580 O 57.1678 0.722233 -1.67601 0
M  V30 581 C 57.2188 -2.68735 -2.41793 0
M  V30 582 O 56.9398 -3.96619 -1.86078 0
M  V30 583 C 58.4408 -2.92346 -3.3324 0
M  V30 584 H 55.6608 -0.546239 -0.389697 0
M  V30 585 H 58.2048 -1.95265 -0.607609 0
M  V30 586 H 56.3598 -2.38476 -3.053 0
M  V30 587 H 56.7738 -4.55256 -2.60465 0
M  V30 588 H 58.2478 -3.70623 -4.09075 0
M  V30 589 H 58.7248 -2.02081 -3.89948 0
M  V30 590 H 59.3308 -3.24003 -2.75503 0
M  V30 591 N 57.6459 0.756429 -1.3826 0
M  V30 592 C 58.6089 1.85176 -1.35065 0
M  V30 593 C 59.6089 1.58818 -0.251703 0
M  V30 594 O 60.7989 1.66615 -0.508433 0
M  V30 595 C 57.9309 3.22596 -1.10201 0
M  V30 596 H 59.1239 1.89417 -2.3251 0
M  V30 597 H 56.6769 0.95783 -1.23512 0
M  V30 598 H 57.4119 3.24025 -0.133504 0
M  V30 599 H 57.1969 3.43122 -1.89762 0
M  V30 600 H 58.6869 4.02673 -1.10654 0
M  V30 601 N 59.124 1.23083 0.984299 0
M  V30 602 C 60.54 0.992637 1.24975 0
M  V30 603 C 60.74 -0.308618 1.99123 0
M  V30 604 O 59.796 -1.02905 2.30579 0
M  V30 605 C 61.109 2.19698 2.05312 0
M  V30 606 C 62.657 2.24147 2.18465 0
M  V30 607 C 63.132 3.44157 3.02192 0
M  V30 608 N 64.623 3.44372 3.09777 0
M  V30 609 C 65.358 4.33886 3.74874 0
M  V30 610 N 64.854 5.3363 4.41827 0
M  V30 611 N 66.647 4.21639 3.71721 0
M  V30 612 H 58.798 2.06731 0.487453 0
M  V30 613 H 61.061 0.906339 0.277944 0
M  V30 614 H 60.767 3.1411 1.58201 0
M  V30 615 H 60.641 2.20465 3.06064 0
M  V30 616 H 63.028 1.30277 2.64786 0
M  V30 617 H 63.109 2.27415 1.17115 0
M  V30 618 H 62.753 4.38332 2.56568 0
M  V30 619 H 62.683 3.3813 4.03702 0
M  V30 620 H 65.174 2.72201 2.62135 0
M  V30 621 H 65.487 5.98196 4.89266 0
M  V30 622 H 63.832 5.37534 4.40548 0
M  V30 623 H 67.023 3.42962 3.18582 0
M  V30 624 H 67.196 4.91604 4.22173 0
M  V30 625 N 60.6021 -1.18246 1.0419 0
M  V30 626 C 61.8491 -1.88257 0.746017 0
M  V30 627 C 62.1771 -1.80429 -0.726331 0
M  V30 628 O 61.4321 -1.2 -1.54591 0
M  V30 629 C 61.7311 -3.38082 1.15911 0
M  V30 630 C 61.3971 -3.66114 2.63195 0
M  V30 631 C 60.0591 -3.73474 3.03432 0
M  V30 632 C 62.4111 -3.78398 3.5842 0
M  V30 633 C 59.7391 -3.90599 4.37778 0
M  V30 634 C 62.0911 -3.97039 4.92487 0
M  V30 635 C 60.7551 -4.02635 5.32392 0
M  V30 636 H 60.0251 -0.688883 0.272987 0
M  V30 637 H 62.6721 -1.3995 1.30715 0
M  V30 638 H 60.9771 -3.88377 0.516806 0
M  V30 639 H 62.6741 -3.90596 0.907516 0
M  V30 640 H 59.2641 -3.61003 2.3103 0
M  V30 641 H 63.4481 -3.72042 3.28479 0
M  V30 642 H 58.7041 -3.93175 4.68213 0
M  V30 643 H 62.8781 -4.05486 5.66175 0
M  V30 644 H 60.5051 -4.15657 6.36501 0
M  V30 645 N 62.0802 -0.821533 -1.34494 0
M  V30 646 C 63.3272 -0.408946 -1.98328 0
M  V30 647 C 63.6552 1.02764 -1.65136 0
M  V30 648 O 62.9102 1.73026 -0.914349 0
M  V30 649 C 63.2092 -0.556512 -3.53041 0
M  V30 650 C 62.8752 -1.95861 -4.0614 0
M  V30 651 C 61.5372 -2.34217 -4.20352 0
M  V30 652 C 63.8892 -2.87523 -4.34718 0
M  V30 653 C 61.2172 -3.63572 -4.6047 0
M  V30 654 C 63.5692 -4.1634 -4.76281 0
M  V30 655 C 62.2332 -4.54675 -4.88699 0
M  V30 656 H 61.5032 -0.149644 -0.725732 0
M  V30 657 H 64.1502 -1.04521 -1.6046 0
M  V30 658 H 62.4552 0.163148 -3.9146 0
M  V30 659 H 64.1522 -0.217826 -4.00408 0
M  V30 660 H 60.7422 -1.65066 -3.95539 0
M  V30 661 H 64.9262 -2.59133 -4.23277 0
M  V30 662 H 60.1822 -3.93101 -4.68275 0
M  V30 663 H 64.3562 -4.87455 -4.97354 0
M  V30 664 H 61.9832 -5.54959 -5.19542 0
M  V30 665 N 63.5583 1.46682 -0.576371 0
M  V30 666 C 64.5053 2.30241 0.160499 0
M  V30 667 C 65.4753 1.40233 0.890162 0
M  V30 668 O 66.6603 1.69186 0.882084 0
M  V30 669 C 63.8003 3.24578 1.1723 0
M  V30 670 C 62.9133 4.29684 0.446736 0
M  V30 671 C 62.0483 5.11154 1.44551 0
M  V30 672 C 61.0873 6.08015 0.70599 0
M  V30 673 N 60.2243 6.82376 1.65251 0
M  V30 674 H 65.0643 2.92727 -0.558127 0
M  V30 675 H 62.6013 1.44272 -0.287056 0
M  V30 676 H 64.5593 3.77711 1.77172 0
M  V30 677 H 63.1893 2.63916 1.85872 0
M  V30 678 H 62.2413 3.79458 -0.267594 0
M  V30 679 H 63.5533 4.98626 -0.131686 0
M  V30 680 H 62.7073 5.68533 2.11791 0
M  V30 681 H 61.4463 4.42158 2.05786 0
M  V30 682 H 60.4513 5.49796 0.0197725 0
M  V30 683 H 61.6763 6.79028 0.09912 0
M  V30 684 H 59.6223 6.16094 2.25308 0
M  V30 685 H 59.5393 7.47556 1.12673 0
M  V30 686 H 60.8073 7.44316 2.31546 0
M  V30 687 N 65.0364 0.313813 1.54444 0
M  V30 688 C 65.9684 -0.590425 2.21465 0
M  V30 689 C 66.9814 -1.08753 1.21147 0
M  V30 690 O 68.1704 -1.00278 1.4767 0
M  V30 691 C 65.2704 -1.82179 2.85769 0
M  V30 692 C 64.4434 -1.46502 4.12136 0
M  V30 693 C 63.5024 -2.55288 4.60124 0
M  V30 694 O 62.5284 -2.19842 5.25032 0
M  V30 695 N 63.7304 -3.86053 4.33525 0
M  V30 696 H 66.4954 -0.0166033 2.99695 0
M  V30 697 H 64.0564 0.136578 1.61323 0
M  V30 698 H 66.0484 -2.54328 3.14801 0
M  V30 699 H 64.6184 -2.30369 2.11303 0
M  V30 700 H 63.8384 -0.575595 3.89975 0
M  V30 701 H 65.1264 -1.20221 4.94393 0
M  V30 702 H 64.5244 -4.17654 3.81552 0
M  V30 703 H 63.0814 -4.54461 4.67235 0
M  V30 704 N 66.5145 -1.57545 0.0417849 0
M  V30 705 C 67.9255 -1.80011 -0.495259 0
M  V30 706 C 68.2765 -0.953199 -1.71489 0
M  V30 707 O 67.4015 -0.167138 -2.15754 0
M  V30 708 C 67.9965 -3.26482 -0.905265 0
M  V30 709 C 66.5555 -3.499 -1.38734 0
M  V30 710 C 65.7025 -2.74979 -0.358056 0
M  V30 711 H 68.6535 -1.56425 0.267736 0
M  V30 712 H 68.6745 -3.36887 -1.76882 0
M  V30 713 H 68.1865 -3.88096 -0.017401 0
M  V30 714 H 66.2875 -2.93553 -2.29471 0
M  V30 715 H 66.4005 -4.58615 -1.38598 0
M  V30 716 H 64.7645 -2.40834 -0.828912 0
M  V30 717 H 65.5475 -3.39315 0.521561 0
M  V30 718 N 67.9926 0.231505 -1.5589 0
M  V30 719 C 69.2206 0.974505 -1.82513 0
M  V30 720 C 69.6356 1.78344 -0.619591 0
M  V30 721 O 68.9926 1.77792 0.411848 0
M  V30 722 C 69.0436 1.90007 -3.07538 0
M  V30 723 O 68.7646 1.12385 -4.2344 0
M  V30 724 C 70.2656 2.75779 -3.47075 0
M  V30 725 H 67.4856 0.286065 -0.606966 0
M  V30 726 H 70.0296 0.249739 -2.02969 0
M  V30 727 H 68.1846 2.57891 -2.89086 0
M  V30 728 H 68.5986 1.75125 -4.944 0
M  V30 729 H 70.0726 3.36443 -4.37619 0
M  V30 730 H 70.5496 3.47672 -2.68367 0
M  V30 731 H 71.1556 2.13323 -3.67931 0
M  V30 732 N 69.4707 1.49531 0.497807 0
M  V30 733 C 70.7177 1.59179 1.25173 0
M  V30 734 C 71.0457 0.279932 1.92475 0
M  V30 735 O 70.3007 -0.732383 1.81479 0
M  V30 736 C 70.5997 2.70252 2.33878 0
M  V30 737 C 70.2657 4.11644 1.84012 0
M  V30 738 C 68.9277 4.50121 1.70132 0
M  V30 739 C 71.2797 5.00121 1.46725 0
M  V30 740 C 68.6077 5.74845 1.17348 0
M  V30 741 C 70.9597 6.25366 0.95392 0
M  V30 742 C 69.6237 6.6267 0.801538 0
M  V30 743 H 68.8937 0.582478 0.45804 0
M  V30 744 H 71.5407 1.83373 0.551948 0
M  V30 745 H 69.8457 2.40041 3.09657 0
M  V30 746 H 71.5427 2.74925 2.9192 0
M  V30 747 H 68.1327 3.81274 1.95775 0
M  V30 748 H 72.3167 4.71048 1.56294 0
M  V30 749 H 67.5727 6.02444 1.04264 0
M  V30 750 H 71.7467 6.93301 0.656225 0
M  V30 751 H 69.3737 7.59197 0.390351 0
M  V30 752 N 70.9488 -0.749086 1.3866 0
M  V30 753 C 72.1888 -1.52112 1.36534 0
M  V30 754 C 72.5528 -1.91951 -0.0432316 0
M  V30 755 O 73.7538 -2.68132 -0.189396 0
M  V30 756 C 72.0248 -2.73704 2.29828 0
M  V30 757 S 73.5838 -3.63519 2.45763 0
M  V30 758 H 70.4018 -0.520482 0.484375 0
M  V30 759 H 73.0038 -0.878963 1.74627 0
M  V30 760 H 71.7078 -2.42552 3.31054 0
M  V30 761 H 71.2388 -3.4286 1.929 0
M  V30 762 H 73.2538 -4.66712 1.68505 0
M  V30 763 N 72.4269 -1.23603 -0.977757 0
M  V30 764 C 73.6519 -1.09735 -1.75991 0
M  V30 765 C 74.0769 0.346858 -1.84874 0
M  V30 766 O 73.4349 1.25093 -1.3123 0
M  V30 767 C 73.4829 -1.73051 -3.16363 0
M  V30 768 O 72.5869 -0.994452 -4.0023 0
M  V30 769 H 71.9279 -0.384476 -0.541364 0
M  V30 770 H 74.4579 -1.6371 -1.2272 0
M  V30 771 H 74.4679 -1.78398 -3.66931 0
M  V30 772 H 73.1429 -2.78137 -3.09213 0
M  V30 773 H 71.7199 -1.01812 -3.58732 0
M  V30 774 N 73.905 1.17692 -1.04816 0
M  V30 775 C 74.855 2.1952 -0.616042 0
M  V30 776 C 75.839 1.57147 0.345485 0
M  V30 777 O 77.031 1.76245 0.163325 0
M  V30 778 C 74.16 3.43298 0.0116917 0
M  V30 779 C 73.246 4.12777 -0.973435 0
M  V30 780 N 73.637 4.5814 -2.14339 0
M  V30 781 C 71.935 4.38747 -0.80108 0
M  V30 782 C 72.636 5.11713 -2.7663 0
M  V30 783 N 71.612 5.03686 -2.04453 0
M  V30 784 H 75.414 2.52293 -1.5075 0
M  V30 785 H 72.928 1.3398 -0.917776 0
M  V30 786 H 74.925 4.15519 0.339006 0
M  V30 787 H 73.585 3.12018 0.898593 0
M  V30 788 H 74.596 4.52349 -2.52191 0
M  V30 789 H 71.273 4.17485 0.0350934 0
M  V30 790 H 72.663 5.56962 -3.75823 0
M  V30 791 N 75.3831 0.828654 1.34056 0
M  V30 792 C 76.6231 0.425394 1.99924 0
M  V30 793 C 76.9871 -0.994294 1.64249 0
M  V30 794 O 78.1881 -1.50074 2.23005 0
M  V30 795 C 76.4591 0.628071 3.51838 0
M  V30 796 S 78.0181 0.318511 4.37642 0
M  V30 797 H 74.8361 0.160465 0.692656 0
M  V30 798 H 77.4381 1.07572 1.63244 0
M  V30 799 H 76.1421 1.66089 3.7529 0
M  V30 800 H 75.6731 -0.0367799 3.93383 0
M  V30 801 H 77.6881 -0.865632 4.88591 0
M  V30 802 N 76.8612 -1.46375 0.584142 0
M  V30 803 C 78.0892 -2.06761 0.0759296 0
M  V30 804 C 78.5042 -1.43266 -1.22965 0
M  V30 805 O 77.8612 -0.538458 -1.74376 0
M  V30 806 C 77.9122 -3.61375 -0.0950384 0
M  V30 807 O 77.6332 -4.22495 1.15887 0
M  V30 808 C 79.1342 -4.38693 -0.637434 0
M  V30 809 H 76.3542 -0.668479 0.0581075 0
M  V30 810 H 78.8982 -1.8798 0.805218 0
M  V30 811 H 77.0532 -3.79578 -0.774554 0
M  V30 812 H 77.4672 -5.15385 0.973598 0
M  V30 813 H 78.9412 -5.47464 -0.706237 0
M  V30 814 H 79.4182 -4.06836 -1.65472 0
M  V30 815 H 80.0242 -4.25299 0.00725967 0
M  V30 816 N 78.3393 -0.321999 -1.54275 0
M  V30 817 C 79.6163 0.335232 -1.92706 0
M  V30 818 C 79.9963 1.70006 -1.25145 0
M  V30 819 O 79.3443 2.25067 -0.394596 0
M  V30 820 C 79.5543 0.429008 -3.46353 0
M  V30 821 C 80.9023 0.690029 -4.18956 0
M  V30 822 O 81.9263 0.511992 -3.52501 0
M  V30 823 O 80.7853 1.03338 -5.36641 0
M  V30 824 H 77.8793 0.191143 -0.804608 0
M  V30 825 H 80.4253 -0.3716 -1.65581 0
M  V30 826 H 79.1973 -0.529611 -3.87699 0
M  V30 827 H 78.8203 1.18348 -3.79578 0
M  V30 828 N 79.8174 1.5752 -0.0501392 0
M  V30 829 C 81.0644 1.9265 0.623874 0
M  V30 830 C 81.3924 0.928411 1.70912 0
M  V30 831 O 80.6474 -0.0594525 1.9561 0
M  V30 832 C 80.9464 3.34467 1.25963 0
M  V30 833 C 80.6124 4.49883 0.302689 0
M  V30 834 C 79.2744 4.81184 0.0393636 0
M  V30 835 C 81.6264 5.20002 -0.353205 0
M  V30 836 C 78.9544 5.79951 -0.887308 0
M  V30 837 C 81.3064 6.1976 -1.26806 0
M  V30 838 C 79.9704 6.49491 -1.54007 0
M  V30 839 H 79.2404 0.704957 0.228292 0
M  V30 840 H 81.8874 1.91146 -0.116398 0
M  V30 841 H 80.1924 3.32333 2.07514 0
M  V30 842 H 81.8894 3.58928 1.78806 0
M  V30 843 H 78.4794 4.25457 0.518109 0
M  V30 844 H 82.6634 4.96033 -0.162854 0
M  V30 845 H 77.9194 6.01322 -1.10553 0
M  V30 846 H 82.0934 6.73205 -1.78236 0
M  V30 847 H 79.7204 7.25837 -2.25976 0
M  V30 848 N 81.2955 -0.223234 1.56011 0
M  V30 849 C 82.5445 -0.945912 1.78144 0
M  V30 850 C 82.8575 -1.85567 0.618396 0
M  V30 851 O 84.0635 -2.61688 0.723318 0
M  V30 852 C 82.5195 -1.73216 3.15475 0
M  V30 853 C 82.1275 -0.868619 4.39499 0
M  V30 854 C 83.8715 -2.44615 3.46935 0
M  V30 855 C 81.7785 -1.65212 5.67855 0
M  V30 856 H 80.7085 -0.356929 0.664167 0
M  V30 857 H 83.3595 -0.199845 1.82409 0
M  V30 858 H 81.7415 -2.52107 3.05382 0
M  V30 859 H 82.9155 -0.120366 4.60643 0
M  V30 860 H 81.2305 -0.26683 4.15544 0
M  V30 861 H 83.8275 -3.03732 4.40058 0
M  V30 862 H 84.1705 -3.17417 2.69355 0
M  V30 863 H 84.7035 -1.72715 3.58349 0
M  V30 864 H 81.4425 -0.967407 6.48322 0
M  V30 865 H 80.9625 -2.37503 5.50774 0
M  V30 866 H 82.6415 -2.21322 6.07968 0
M  V30 867 N 82.7736 -1.49793 -0.48987 0
M  V30 868 C 84.0196 -1.61049 -1.24236 0
M  V30 869 C 84.3746 -0.298412 -1.90072 0
M  V30 870 O 83.6676 0.702262 -1.78266 0
M  V30 871 C 83.8616 -2.71488 -2.32441 0
M  V30 872 C 83.6906 -4.13308 -1.77218 0
M  V30 873 C 82.4606 -4.79955 -1.58023 0
M  V30 874 C 84.6586 -4.98176 -1.27772 0
M  V30 875 N 82.6406 -6.06052 -0.978465 0
M  V30 876 C 84.0116 -6.14843 -0.798 0
M  V30 877 C 86.0666 -4.84091 -1.16449 0
M  V30 878 C 84.7696 -7.18975 -0.216245 0
M  V30 879 C 86.7956 -5.88382 -0.596698 0
M  V30 880 C 86.1576 -7.04285 -0.127262 0
M  V30 881 H 82.2566 -0.643611 -0.444172 0
M  V30 882 H 84.8406 -1.86842 -0.54754 0
M  V30 883 H 83.0116 -2.47449 -2.99372 0
M  V30 884 H 84.7436 -2.72205 -2.99477 0
M  V30 885 H 81.4986 -4.36936 -1.82712 0
M  V30 886 H 81.9226 -6.73407 -0.696534 0
M  V30 887 H 86.5646 -3.94786 -1.5134 0
M  V30 888 H 84.2826 -8.0797 0.144903 0
M  V30 889 H 87.8686 -5.79545 -0.511716 0
M  V30 890 H 86.7486 -7.83606 0.30523 0
M  V30 891 N 84.2517 0.741722 -1.39055 0
M  V30 892 C 85.4997 1.49818 -1.35643 0
M  V30 893 C 85.8207 1.94938 0.0491642 0
M  V30 894 O 85.0907 1.68505 0.999141 0
M  V30 895 H 83.6707 0.555755 -0.499144 0
M  V30 896 H 86.3327 0.880957 -1.73854 0
M  V30 897 H 85.4287 2.38348 -2.01486 0
M  V30 898 N 85.7298 1.2412 0.971189 0
M  V30 899 C 86.9788 1.07284 1.70801 0
M  V30 900 C 87.2918 -0.388902 1.91695 0
M  V30 901 O 88.4978 -0.677379 2.62914 0
M  V30 902 C 86.9538 1.87145 3.07416 0
M  V30 903 C 86.5618 3.37707 2.94377 0
M  V30 904 C 88.3058 1.78828 3.84995 0
M  V30 905 C 86.2128 4.09925 4.26281 0
M  V30 906 H 85.1428 0.397854 0.64049 0
M  V30 907 H 87.7938 1.4817 1.0825 0
M  V30 908 H 86.1758 1.39071 3.70777 0
M  V30 909 H 87.3498 3.93335 2.4005 0
M  V30 910 H 85.6648 3.46938 2.30267 0
M  V30 911 H 88.2618 2.30089 4.82662 0
M  V30 912 H 88.6048 0.75284 4.09436 0
M  V30 913 H 89.1378 2.24563 3.28354 0
M  V30 914 H 85.8768 5.13813 4.07033 0
M  V30 915 H 85.3968 3.59083 4.80437 0
M  V30 916 H 87.0758 4.1673 4.94919 0
M  V30 917 N 87.2079 -1.17134 1.05439 0
M  V30 918 C 88.4559 -1.87085 0.764429 0
M  V30 919 C 88.7769 -1.81584 -0.710787 0
M  V30 920 O 88.0469 -1.24349 -1.51374 0
M  V30 921 H 86.6269 -0.692627 0.279779 0
M  V30 922 H 89.2889 -1.42087 1.33406 0
M  V30 923 H 88.3849 -2.92759 1.0816 0
M  V30 924 N 88.686 -0.835752 -1.33615 0
M  V30 925 C 89.633 -0.26473 -2.29277 0
M  V30 926 C 90.603 0.617712 -1.54187 0
M  V30 927 O 91.788 0.556641 -1.825 0
M  V30 928 C 88.928 0.556777 -3.40579 0
M  V30 929 C 88.041 -0.349339 -4.30585 0
M  V30 930 C 87.176 0.482969 -5.29 0
M  V30 931 C 86.215 -0.421732 -6.10645 0
M  V30 932 N 85.352 0.372262 -7.01112 0
M  V30 933 H 90.192 -1.08582 -2.77514 0
M  V30 934 H 87.729 -0.546927 -1.36554 0
M  V30 935 H 89.687 1.04852 -4.03809 0
M  V30 936 H 88.317 1.34286 -2.93542 0
M  V30 937 H 87.369 -0.959372 -3.68104 0
M  V30 938 H 88.681 -1.04445 -4.87742 0
M  V30 939 H 87.835 1.03866 -5.97743 0
M  V30 940 H 86.574 1.21153 -4.72412 0
M  V30 941 H 85.579 -0.989464 -5.40823 0
M  V30 942 H 86.804 -1.14861 -6.69316 0
M  V30 943 H 84.75 1.08426 -6.46977 0
M  V30 944 H 84.667 -0.264198 -7.55538 0
M  V30 945 H 85.935 0.910293 -7.74167 0
M  V30 946 N 90.1641 1.46063 -0.591896 0
M  V30 947 C 91.0961 2.28539 0.174001 0
M  V30 948 C 92.1091 1.39047 0.846753 0
M  V30 949 O 93.2981 1.63564 0.714774 0
M  V30 950 C 90.3981 3.14347 1.26645 0
M  V30 951 C 89.5711 4.32021 0.683856 0
M  V30 952 C 88.6301 4.99157 1.66518 0
M  V30 953 O 87.6561 5.56458 1.19763 0
M  V30 954 N 88.8581 4.97005 2.99943 0
M  V30 955 H 91.6231 2.94911 -0.533633 0
M  V30 956 H 89.1841 1.56077 -0.430294 0
M  V30 957 H 91.1761 3.56125 1.92242 0
M  V30 958 H 89.7461 2.49988 1.87682 0
M  V30 959 H 88.9661 3.93915 -0.1498 0
M  V30 960 H 90.2541 5.08059 0.274567 0
M  V30 961 H 89.6521 4.51714 3.40545 0
M  V30 962 H 88.2091 5.42696 3.61004 0
M  V30 963 N 91.6422 0.330177 1.54103 0
M  V30 964 C 92.8902 -0.269871 2.0029 0
M  V30 965 C 93.2112 -1.52133 1.21986 0
M  V30 966 O 92.4812 -1.93212 0.323438 0
M  V30 967 H 91.0612 -0.10271 0.739905 0
M  V30 968 H 93.7232 0.448249 1.89675 0
M  V30 969 H 92.8192 -0.52166 3.07709 0
M  V30 970 N 93.1203 -1.57491 0.0584922 0
M  V30 971 C 94.0503 -2.14988 -0.911178 0
M  V30 972 C 95.0313 -1.07343 -1.31952 0
M  V30 973 O 96.2163 -1.35318 -1.39294 0
M  V30 974 C 93.3463 -2.70078 -2.18347 0
M  V30 975 C 92.3003 -3.82771 -1.91495 0
M  V30 976 C 91.6263 -4.24408 -3.25241 0
M  V30 977 C 92.9263 -5.07592 -1.23075 0
M  V30 978 H 94.6203 -2.96263 -0.432246 0
M  V30 979 H 92.1663 -1.42512 -0.206469 0
M  V30 980 H 94.1193 -3.08943 -2.86587 0
M  V30 981 H 92.8433 -1.86005 -2.68458 0
M  V30 982 H 91.5023 -3.44389 -1.25664 0
M  V30 983 H 91.1503 -3.37275 -3.73168 0
M  V30 984 H 90.8503 -5.00366 -3.08071 0
M  V30 985 H 92.3743 -4.65879 -3.94701 0
M  V30 986 H 93.7883 -5.43857 -1.81362 0
M  V30 987 H 92.1853 -5.88741 -1.16207 0
M  V30 988 H 93.2553 -4.84454 -0.207847 0
M  V30 989 N 94.5984 0.214957 -1.56127 0
M  V30 990 C 95.5304 1.29004 -1.89448 0
M  V30 991 C 96.5434 1.42716 -0.783326 0
M  V30 992 O 97.7324 1.43496 -1.06166 0
M  V30 993 C 94.8324 2.66482 -2.09381 0
M  V30 994 C 94.0054 2.74633 -3.40434 0
M  V30 995 C 93.0644 3.9317 -3.49719 0
M  V30 996 O 92.0904 3.812 -4.227 0
M  V30 997 N 93.2924 5.07765 -2.81346 0
M  V30 998 H 96.0574 1.00743 -2.82261 0
M  V30 999 H 93.6184 0.40497 -1.56753 0
M  V30 1000 H 95.6104 3.44173 -2.12901 0
M  V30 1001 H 94.1804 2.87314 -1.23163 0
M  V30 1002 H 93.4004 1.83368 -3.48955 0
M  V30 1003 H 94.6884 2.77054 -4.26754 0
M  V30 1004 H 94.0864 5.20386 -2.21843 0
M  V30 1005 H 92.6434 5.83474 -2.90519 0
M  V30 1006 N 96.0765 1.50051 0.48192 0
M  V30 1007 C 97.3165 1.62128 1.24474 0
M  V30 1008 C 97.6805 0.309742 1.89485 0
M  V30 1009 O 98.8815 0.305854 2.67054 0
M  V30 1010 C 97.1525 2.76151 2.26882 0
M  V30 1011 S 98.7115 3.08297 3.12247 0
M  V30 1012 H 95.5295 0.571661 0.422759 0
M  V30 1013 H 98.1315 1.87791 0.54359 0
M  V30 1014 H 96.8355 3.69942 1.77683 0
M  V30 1015 H 96.3665 2.52541 3.0164 0
M  V30 1016 H 98.3815 2.51287 4.27866 0
M  V30 1017 N 97.5546 -0.734337 1.39446 0
M  V30 1018 C 98.4866 -1.85861 1.34121 0
M  V30 1019 C 99.4996 -1.60871 0.249864 0
M  V30 1020 O 100.689 -1.71093 0.508865 0
M  V30 1021 C 97.7886 -3.21899 1.05991 0
M  V30 1022 C 96.9616 -3.74239 2.26415 0
M  V30 1023 C 96.0206 -4.88841 1.94733 0
M  V30 1024 O 95.0466 -5.02468 2.67422 0
M  V30 1025 N 96.2486 -5.73261 0.913884 0
M  V30 1026 H 99.0136 -1.90934 2.31007 0
M  V30 1027 H 96.5746 -0.915102 1.33557 0
M  V30 1028 H 98.5666 -3.96136 0.828147 0
M  V30 1029 H 97.1366 -3.12091 0.178361 0
M  V30 1030 H 96.3566 -2.91347 2.65539 0
M  V30 1031 H 97.6446 -4.05942 3.06738 0
M  V30 1032 H 97.0426 -5.64842 0.311476 0
M  V30 1033 H 95.5996 -6.47563 0.742015 0
M  V30 1034 N 99.0327 -1.24633 -0.964593 0
M  V30 1035 C 100.279 -1.08949 -1.71049 0
M  V30 1036 C 100.612 0.370302 -1.90637 0
M  V30 1037 O 99.8867 1.27349 -1.47011 0
M  V30 1038 C 100.17 -1.83329 -3.0994 0
M  V30 1039 C 100.023 -3.37077 -2.97824 0
M  V30 1040 C 101.342 -1.60846 -4.09654 0
M  V30 1041 H 98.4607 -0.397178 -0.620821 0
M  V30 1042 H 101.103 -1.5334 -1.12191 0
M  V30 1043 H 99.2527 -1.45597 -3.60186 0
M  V30 1044 H 100.925 -3.84425 -2.5498 0
M  V30 1045 H 99.1677 -3.65298 -2.33965 0
M  V30 1046 H 99.8387 -3.84324 -3.96231 0
M  V30 1047 H 102.315 -1.93674 -3.68279 0
M  V30 1048 H 101.191 -2.1534 -5.04896 0
M  V30 1049 H 101.452 -0.547434 -4.38698 0
M  V30 1050 N 100.511 1.16574 -1.06058 0
M  V30 1051 C 101.751 1.88723 -0.78504 0
M  V30 1052 C 102.115 1.79706 0.676006 0
M  V30 1053 O 103.316 2.46757 1.06603 0
M  V30 1054 C 101.587 3.34338 -1.26304 0
M  V30 1055 S 103.146 4.24366 -1.1162 0
M  V30 1056 H 99.9638 0.651448 -0.284846 0
M  V30 1057 H 102.566 1.40732 -1.35701 0
M  V30 1058 H 101.27 3.38439 -2.32136 0
M  V30 1059 H 100.801 3.87378 -0.685719 0
M  V30 1060 H 102.816 4.96179 -0.0456539 0
M  V30 1061 N 101.989 0.842826 1.3317 0
M  V30 1062 C 103.214 0.453129 2.02389 0
M  V30 1063 C 103.639 -0.939105 1.6298 0
M  V30 1064 O 102.997 -1.61472 0.8244 0
M  V30 1065 C 103.045 0.586094 3.55805 0
M  V30 1066 O 102.149 -0.386029 4.10589 0
M  V30 1067 H 101.49 0.183664 0.638094 0
M  V30 1068 H 104.02 1.13875 1.69981 0
M  V30 1069 H 104.03 0.469209 4.05293 0
M  V30 1070 H 102.705 1.6014 3.83833 0
M  V30 1071 H 101.282 -0.226371 3.72212 0
M  V30 1072 N 103.467 -1.45747 0.599634 0
M  V30 1073 C 104.714 -2.02292 0.0917284 0
M  V30 1074 C 105.042 -1.46906 -1.27472 0
M  V30 1075 O 104.297 -0.630652 -1.8526 0
M  V30 1076 C 104.596 -3.57399 -0.00602758 0
M  V30 1077 C 104.262 -4.31902 1.29503 0
M  V30 1078 C 102.924 -4.51974 1.65144 0
M  V30 1079 C 105.276 -4.74551 2.15525 0
M  V30 1080 C 102.604 -5.11949 2.86574 0
M  V30 1081 C 104.956 -5.35868 3.36196 0
M  V30 1082 C 103.62 -5.54165 3.72099 0
M  V30 1083 H 102.89 -0.740239 0.0335658 0
M  V30 1084 H 105.537 -1.7491 0.779661 0
M  V30 1085 H 103.842 -3.84014 -0.777183 0
M  V30 1086 H 105.539 -3.98846 -0.415038 0
M  V30 1087 H 102.129 -4.16588 1.00761 0
M  V30 1088 H 106.313 -4.58784 1.8929 0
M  V30 1089 H 101.569 -5.24305 3.14507 0
M  V30 1090 H 105.743 -5.6787 4.03109 0
M  V30 1091 H 103.37 -6.00406 4.6628 0
M  V30 1092 N 104.945 -0.338344 -1.53925 0
M  V30 1093 C 106.191 0.260143 -2.01125 0
M  V30 1094 C 106.524 1.50617 -1.22589 0
M  V30 1095 O 105.799 1.91979 -0.312113 0
M  V30 1096 C 106.082 0.579499 -3.55407 0
M  V30 1097 C 105.935 -0.678264 -4.44657 0
M  V30 1098 C 107.254 1.39122 -4.17532 0
M  V30 1099 H 104.373 0.0930772 -0.731099 0
M  V30 1100 H 107.015 -0.457852 -1.84401 0
M  V30 1101 H 105.165 1.19118 -3.69788 0
M  V30 1102 H 106.837 -1.31631 -4.42121 0
M  V30 1103 H 105.08 -1.3042 -4.13731 0
M  V30 1104 H 105.751 -0.410143 -5.50474 0
M  V30 1105 H 108.227 0.874035 -4.06817 0
M  V30 1106 H 107.103 1.58342 -5.25565 0
M  V30 1107 H 107.364 2.39178 -3.71815 0
M  V30 1108 N 106.423 1.57458 -0.0668435 0
M  V30 1109 C 107.669 1.93587 0.6043 0
M  V30 1110 C 108.002 0.946722 1.69561 0
M  V30 1111 O 107.277 -0.0248516 1.94484 0
M  V30 1112 C 107.56 3.40014 1.18585 0
M  V30 1113 C 107.413 4.49685 0.101529 0
M  V30 1114 C 108.732 3.87154 2.09284 0
M  V30 1115 H 105.851 0.703958 0.218202 0
M  V30 1116 H 108.493 1.89542 -0.131804 0
M  V30 1117 H 106.643 3.43592 1.81319 0
M  V30 1118 H 108.315 4.5823 -0.531279 0
M  V30 1119 H 106.558 4.30059 -0.568487 0
M  V30 1120 H 107.229 5.49266 0.54874 0
M  V30 1121 H 109.705 3.85551 1.56491 0
M  V30 1122 H 108.581 4.90231 2.46911 0
M  V30 1123 H 108.842 3.2481 2.99918 0
M  V30 1124 N 107.901 -0.206675 1.56239 0
M  V30 1125 C 108.851 -1.26 1.90021 0
M  V30 1126 C 109.835 -1.41566 0.764721 0
M  V30 1127 O 111.027 -1.44131 1.02739 0
M  V30 1128 C 108.156 -2.6073 2.23326 0
M  V30 1129 C 107.242 -2.49005 3.43304 0
M  V30 1130 N 107.633 -2.06946 4.61527 0
M  V30 1131 C 105.931 -2.79927 3.47213 0
M  V30 1132 C 106.632 -2.06832 5.43687 0
M  V30 1133 N 105.608 -2.47892 4.83788 0
M  V30 1134 H 109.41 -0.925955 2.78932 0
M  V30 1135 H 106.924 -0.415172 1.57003 0
M  V30 1136 H 108.921 -3.36798 2.45708 0
M  V30 1137 H 107.581 -2.94968 1.35735 0
M  V30 1138 H 108.592 -1.77839 4.86409 0
M  V30 1139 H 105.269 -3.18438 2.70006 0
M  V30 1140 H 106.659 -1.76312 6.48354 0
M  V30 1141 N 109.379 -1.50304 -0.473955 0
M  V30 1142 C 110.795 -1.37667 -0.807466 0
M  V30 1143 C 110.995 -0.430555 -1.96846 0
M  V30 1144 O 110.051 0.127874 -2.52176 0
M  V30 1145 C 111.364 -2.78974 -1.12223 0
M  V30 1146 C 112.912 -2.87868 -1.22885 0
M  V30 1147 C 113.387 -4.30003 -1.57676 0
M  V30 1148 N 114.878 -4.3294 -1.64673 0
M  V30 1149 C 115.613 -5.3991 -1.93091 0
M  V30 1150 N 115.109 -6.57092 -2.1955 0
M  V30 1151 N 116.902 -5.27351 -1.94569 0
M  V30 1152 H 109.053 -2.10394 0.291212 0
M  V30 1153 H 111.316 -0.945575 0.0677609 0
M  V30 1154 H 111.022 -3.50031 -0.342229 0
M  V30 1155 H 110.896 -3.16038 -2.05913 0
M  V30 1156 H 113.283 -2.17032 -1.99953 0
M  V30 1157 H 113.364 -2.54352 -0.271814 0
M  V30 1158 H 113.008 -5.01375 -0.81149 0
M  V30 1159 H 112.938 -4.61004 -2.54525 0
M  V30 1160 H 115.429 -3.48441 -1.46277 0
M  V30 1161 H 115.742 -7.34425 -2.405 0
M  V30 1162 H 114.087 -6.60272 -2.16948 0
M  V30 1163 H 117.278 -4.34801 -1.73394 0
M  V30 1164 H 117.451 -6.10805 -2.16381 0
M  V30 1165 N 110.857 0.726932 -1.39834 0
M  V30 1166 C 112.273 1.03354 -1.21615 0
M  V30 1167 C 112.473 2.01327 -0.08338 0
M  V30 1168 O 111.529 2.46158 0.56238 0
M  V30 1169 C 112.842 1.58811 -2.55342 0
M  V30 1170 C 114.39 1.70851 -2.62257 0
M  V30 1171 C 114.865 2.29716 -3.96225 0
M  V30 1172 N 116.356 2.37116 -3.97907 0
M  V30 1173 C 117.091 2.83619 -4.98345 0
M  V30 1174 N 116.587 3.29958 -6.09179 0
M  V30 1175 N 118.38 2.82901 -4.8572 0
M  V30 1176 H 110.531 0.0773069 -2.12259 0
M  V30 1177 H 112.794 0.0969102 -0.943034 0
M  V30 1178 H 112.5 0.942855 -3.38826 0
M  V30 1179 H 112.374 2.57502 -2.75632 0
M  V30 1180 H 114.761 2.34497 -1.79152 0
M  V30 1181 H 114.842 0.707913 -2.45809 0
M  V30 1182 H 114.486 1.66696 -4.79765 0
M  V30 1183 H 114.416 3.30469 -4.09997 0
M  V30 1184 H 116.907 2.04374 -3.17868 0
M  V30 1185 H 117.22 3.63976 -6.8172 0
M  V30 1186 H 115.565 3.27946 -6.12761 0
M  V30 1187 H 118.756 2.46027 -3.98231 0
M  V30 1188 H 118.929 3.18827 -5.6414 0
M  V30 1189 N 112.336 1.25143 0.95797 0
M  V30 1190 C 113.576 1.10893 1.71703 0
M  V30 1191 C 113.94 -0.34478 1.88879 0
M  V30 1192 O 115.141 -0.609014 2.6181 0
M  V30 1193 C 113.412 1.83889 3.06463 0
M  V30 1194 S 114.971 1.85491 3.97666 0
M  V30 1195 H 111.789 0.396428 0.590226 0
M  V30 1196 H 114.391 1.58618 1.14283 0
M  V30 1197 H 113.095 2.88756 2.9163 0
M  V30 1198 H 112.626 1.36538 3.68946 0
M  V30 1199 H 114.641 0.929553 4.87415 0
M  V30 1200 N 113.814 -1.1601 1.06675 0
M  V30 1201 C 114.764 -2.18512 0.650888 0
M  V30 1202 C 115.748 -1.57677 -0.320441 0
M  V30 1203 O 116.94 -1.76482 -0.135266 0
M  V30 1204 C 114.069 -3.43273 0.0429255 0
M  V30 1205 C 113.155 -4.11176 1.03898 0
M  V30 1206 N 113.546 -4.54672 2.216 0
M  V30 1207 C 111.844 -4.37417 0.870779 0
M  V30 1208 C 112.545 -5.07248 2.84736 0
M  V30 1209 N 111.521 -5.0037 2.12441 0
M  V30 1210 H 115.323 -2.49863 1.54745 0
M  V30 1211 H 112.837 -1.32503 0.938975 0
M  V30 1212 H 114.834 -4.16006 -0.272857 0
M  V30 1213 H 113.494 -3.13408 -0.84884 0
M  V30 1214 H 114.505 -4.4828 2.59356 0
M  V30 1215 H 111.182 -4.17488 0.0313293 0
M  V30 1216 H 112.572 -5.50912 3.84636 0
M  V30 1217 N 115.292 -0.849877 -1.32721 0
M  V30 1218 C 116.202 -0.293791 -2.32753 0
M  V30 1219 C 117.218 0.585906 -1.63839 0
M  V30 1220 O 118.394 0.487413 -1.95413 0
M  V30 1221 C 115.459 0.512752 -3.42887 0
M  V30 1222 C 114.52 -0.39252 -4.27502 0
M  V30 1223 C 113.753 0.375625 -5.32377 0
M  V30 1224 O 113.976 1.60613 -5.4732 0
M  V30 1225 O 112.91 -0.256094 -6.01355 0
M  V30 1226 H 116.736 -1.12242 -2.82197 0
M  V30 1227 H 114.321 -0.612685 -1.36259 0
M  V30 1228 H 116.203 0.970704 -4.10067 0
M  V30 1229 H 114.878 1.31826 -2.95641 0
M  V30 1230 H 113.785 -0.898547 -3.63149 0
M  V30 1231 H 115.118 -1.16309 -4.7826 0
M  V30 1232 N 116.77 1.45427 -0.607355 0
M  V30 1233 C 118.017 2.02241 -0.102455 0
M  V30 1234 C 118.345 1.4758 1.26691 0
M  V30 1235 O 117.6 0.640468 1.84923 0
M  V30 1236 C 117.899 3.57398 -0.0129263 0
M  V30 1237 C 117.565 4.3121 -1.31792 0
M  V30 1238 C 116.227 4.51092 -1.67539 0
M  V30 1239 C 118.579 4.73401 -2.18039 0
M  V30 1240 C 115.907 5.10422 -2.89285 0
M  V30 1241 C 118.259 5.34078 -3.39034 0
M  V30 1242 C 116.923 5.52184 -3.75033 0
M  V30 1243 H 116.193 0.740051 -0.037491 0
M  V30 1244 H 118.84 1.74494 -0.788926 0
M  V30 1245 H 117.145 3.84421 0.756806 0
M  V30 1246 H 118.842 3.99061 0.393881 0
M  V30 1247 H 115.432 4.16047 -1.02968 0
M  V30 1248 H 119.616 4.57774 -1.91721 0
M  V30 1249 H 114.872 5.22629 -3.17283 0
M  V30 1250 H 119.046 5.65724 -4.06115 0
M  V30 1251 H 116.673 5.97925 -4.69457 0
M  V30 1252 N 118.248 0.346503 1.53744 0
M  V30 1253 C 119.494 -0.249473 2.0126 0
M  V30 1254 C 119.827 -1.49965 1.23386 0
M  V30 1255 O 119.102 -1.91811 0.32229 0
M  V30 1256 C 119.385 -0.560643 3.55709 0
M  V30 1257 C 119.238 0.701836 4.44291 0
M  V30 1258 C 120.557 -1.36905 4.18264 0
M  V30 1259 H 117.676 -0.0891987 0.731582 0
M  V30 1260 H 120.318 0.467624 1.84156 0
M  V30 1261 H 118.468 -1.17156 3.70414 0
M  V30 1262 H 120.14 1.33974 4.41417 0
M  V30 1263 H 118.383 1.32612 4.13033 0
M  V30 1264 H 119.054 0.43933 5.50249 0
M  V30 1265 H 121.53 -0.852448 4.07275 0
M  V30 1266 H 120.406 -1.55553 5.26398 0
M  V30 1267 H 120.667 -2.37203 3.73078 0
M  V30 1268 N 119.726 -1.57421 0.075193 0
M  V30 1269 C 120.954 -1.97946 -0.602076 0
M  V30 1270 C 121.369 -0.953674 -1.62943 0
M  V30 1271 O 120.726 0.0592551 -1.82404 0
M  V30 1272 C 120.777 -3.38546 -1.26762 0
M  V30 1273 O 120.498 -4.37195 -0.281376 0
M  V30 1274 C 121.999 -3.93966 -2.03239 0
M  V30 1275 H 119.219 -0.650918 -0.162931 0
M  V30 1276 H 121.763 -2.03959 0.148601 0
M  V30 1277 H 119.918 -3.33609 -1.96936 0
M  V30 1278 H 120.332 -5.18975 -0.759267 0
M  V30 1279 H 121.806 -4.94555 -2.45193 0
M  V30 1280 H 122.283 -3.30693 -2.8903 0
M  V30 1281 H 122.889 -4.02315 -1.37924 0
M  V30 1282 N 121.204 0.198386 -1.56346 0
M  V30 1283 C 122.451 0.919286 -1.80431 0
M  V30 1284 C 122.779 1.83393 -0.647866 0
M  V30 1285 O 122.034 1.92236 0.366556 0
M  V30 1286 C 122.333 1.77031 -3.10475 0
M  V30 1287 C 121.999 1.00693 -4.39513 0
M  V30 1288 C 120.661 0.796145 -4.74568 0
M  V30 1289 C 123.013 0.469559 -5.19081 0
M  V30 1290 C 120.341 0.0364588 -5.86689 0
M  V30 1291 C 122.693 -0.2769 -6.31994 0
M  V30 1292 C 121.357 -0.49873 -6.65634 0
M  V30 1293 H 120.627 0.336391 -0.660244 0
M  V30 1294 H 123.274 0.185872 -1.90596 0
M  V30 1295 H 121.579 2.5723 -2.95533 0
M  V30 1296 H 123.276 2.33065 -3.26315 0
M  V30 1297 H 119.866 1.18122 -4.12001 0
M  V30 1298 H 124.05 0.619816 -4.92414 0
M  V30 1299 H 119.306 -0.145412 -6.11227 0
M  V30 1300 H 123.48 -0.700684 -6.92866 0
M  V30 1301 H 121.107 -1.0893 -7.52355 0
M  V30 1302 N 122.682 1.50554 0.465978 0
M  V30 1303 C 123.592 1.72585 1.58907 0
M  V30 1304 C 124.608 0.60911 1.6299 0
M  V30 1305 O 125.784 0.88804 1.80765 0
M  V30 1306 C 122.849 1.81995 2.95091 0
M  V30 1307 C 121.91 3.05751 3.01355 0
M  V30 1308 C 121.143 3.14702 4.31043 0
M  V30 1309 O 121.366 2.30313 5.21835 0
M  V30 1310 O 120.3 4.07468 4.43005 0
M  V30 1311 H 124.126 2.67799 1.43239 0
M  V30 1312 H 121.711 1.34711 0.646013 0
M  V30 1313 H 123.593 1.90335 3.75966 0
M  V30 1314 H 122.268 0.899659 3.10947 0
M  V30 1315 H 121.175 3.02908 2.19539 0
M  V30 1316 H 122.508 3.97375 2.90437 0
M  V30 1317 N 124.16 -0.719506 1.40217 0
M  V30 1318 C 125.4 -1.49181 1.39729 0
M  V30 1319 C 125.764 -1.92 -0.00250614 0
M  V30 1320 O 126.965 -2.68473 -0.132479 0
M  V30 1321 C 125.236 -2.68767 2.35582 0
M  V30 1322 S 126.795 -3.58224 2.53418 0
M  V30 1323 H 123.613 -0.510091 0.495307 0
M  V30 1324 H 126.215 -0.841724 1.76452 0
M  V30 1325 H 124.919 -2.35475 3.36124 0
M  V30 1326 H 124.45 -3.38691 2.0013 0
M  V30 1327 H 126.465 -4.63033 1.78367 0
M  V30 1328 N 125.638 -1.25649 -0.95132 0
M  V30 1329 C 127.049 -1.09654 -1.51106 0
M  V30 1330 C 127.4 0.326615 -1.93462 0
M  V30 1331 O 126.525 1.21697 -1.78938 0
M  V30 1332 C 127.12 -1.98437 -2.74605 0
M  V30 1333 C 125.679 -1.86618 -3.2688 0
M  V30 1334 C 124.826 -1.9239 -1.99703 0
M  V30 1335 H 127.777 -1.38887 -0.767865 0
M  V30 1336 H 127.798 -1.5263 -3.48546 0
M  V30 1337 H 127.31 -3.02009 -2.43746 0
M  V30 1338 H 125.411 -0.859421 -3.62553 0
M  V30 1339 H 125.524 -2.71607 -3.94673 0
M  V30 1340 H 123.888 -1.36317 -2.15151 0
M  V30 1341 H 124.671 -2.97573 -1.71188 0
M  V30 1342 N 127.117 1.15442 -1.07289 0
M  V30 1343 C 128.365 1.85845 -0.794096 0
M  V30 1344 C 128.686 1.82692 0.681809 0
M  V30 1345 O 127.956 1.26741 1.49377 0
M  V30 1346 H 126.536 0.688089 -0.290763 0
M  V30 1347 H 129.198 1.39947 -1.3565 0
M  V30 1348 H 128.294 2.91001 -1.12804 0
M  V30 1349 N 128.595 0.856903 1.32268 0
M  V30 1350 C 129.558 0.308171 2.27119 0
M  V30 1351 C 130.558 -0.533421 1.51695 0
M  V30 1352 O 131.748 -0.344607 1.70757 0
M  V30 1353 C 128.88 -0.563757 3.36206 0
M  V30 1354 H 130.073 1.14535 2.77167 0
M  V30 1355 H 127.626 0.631421 1.42978 0
M  V30 1356 H 128.361 -1.42266 2.91429 0
M  V30 1357 H 128.146 0.0386749 3.92081 0
M  V30 1358 H 129.636 -0.940386 4.06874 0
M  V30 1359 N 130.073 -1.45103 0.615059 0
M  V30 1360 C 131.321 -2.01784 0.112955 0
M  V30 1361 C 131.642 -1.48504 -1.26378 0
M  V30 1362 O 130.912 -0.682245 -1.83636 0
M  V30 1363 H 129.492 -0.745993 0.0387668 0
M  V30 1364 H 132.154 -1.77808 0.798141 0
M  V30 1365 H 131.25 -3.12025 0.0684069 0
M  V30 1366 N 131.551 -0.354651 -1.53558 0
M  V30 1367 C 132.498 0.496968 -2.25386 0
M  V30 1368 C 133.468 1.0865 -1.25636 0
M  V30 1369 O 134.653 1.12104 -1.54394 0
M  V30 1370 C 131.793 1.63637 -3.03837 0
M  V30 1371 C 130.906 1.07307 -4.18461 0
M  V30 1372 C 130.041 2.18068 -4.84376 0
M  V30 1373 C 129.08 1.59147 -5.91049 0
M  V30 1374 N 128.217 2.63695 -6.50699 0
M  V30 1375 H 133.057 -0.122075 -2.9775 0
M  V30 1376 H 130.594 -0.0720154 -1.46924 0
M  V30 1377 H 132.552 2.30734 -3.47589 0
M  V30 1378 H 131.182 2.22623 -2.33749 0
M  V30 1379 H 130.234 0.292708 -3.79272 0
M  V30 1380 H 131.546 0.602193 -4.95152 0
M  V30 1381 H 130.7 2.93007 -5.31255 0
M  V30 1382 H 129.439 2.68504 -4.07133 0
M  V30 1383 H 128.444 0.827175 -5.43542 0
M  V30 1384 H 129.669 1.09549 -6.70206 0
M  V30 1385 H 127.615 3.13365 -5.76315 0
M  V30 1386 H 127.532 2.21263 -7.22896 0
M  V30 1387 H 128.8 3.3837 -7.02229 0
M  V30 1388 N 133.029 1.57378 -0.0835403 0
M  V30 1389 C 134.277 1.93547 0.581718 0
M  V30 1390 C 134.598 0.96524 1.69435 0
M  V30 1391 O 133.868 0.0153369 1.95894 0
M  V30 1392 H 132.448 0.714521 0.217874 0
M  V30 1393 H 135.11 1.94366 -0.144158 0
M  V30 1394 H 134.206 2.95665 0.999423 0
M  V30 1395 N 134.507 -0.190092 1.56449 0
M  V30 1396 C 135.918 -0.754312 1.70784 0
M  V30 1397 C 136.269 -1.83631 0.690951 0
M  V30 1398 O 135.394 -2.15868 -0.151604 0
M  V30 1399 C 135.989 -1.37503 3.09642 0
M  V30 1400 C 134.548 -1.88628 3.25725 0
M  V30 1401 C 133.695 -0.758098 2.66736 0
M  V30 1402 H 136.646 0.0350524 1.58661 0
M  V30 1403 H 136.667 -2.2445 3.0725 0
M  V30 1404 H 136.179 -0.587302 3.83631 0
M  V30 1405 H 134.28 -2.70103 2.56661 0
M  V30 1406 H 134.393 -2.04462 4.3328 0
M  V30 1407 H 132.757 -1.17369 2.26046 0
M  V30 1408 H 133.54 0.0174705 3.43296 0
M  V30 1409 N 135.985 -1.50799 -0.457987 0
M  V30 1410 C 136.917 -1.66786 -1.57211 0
M  V30 1411 C 137.93 -0.548962 -1.53265 0
M  V30 1412 O 139.119 -0.8226 -1.58416 0
M  V30 1413 C 136.219 -1.64834 -2.96113 0
M  V30 1414 C 135.392 -2.92971 -3.24787 0
M  V30 1415 C 134.451 -2.83485 -4.43309 0
M  V30 1416 O 133.477 -3.5744 -4.42973 0
M  V30 1417 N 134.679 -1.97929 -5.45714 0
M  V30 1418 H 137.444 -2.62889 -1.43909 0
M  V30 1419 H 135.005 -1.48427 -0.646617 0
M  V30 1420 H 136.997 -1.56084 -3.7339 0
M  V30 1421 H 135.567 -0.764118 -3.03117 0
M  V30 1422 H 134.787 -3.15749 -2.36 0
M  V30 1423 H 136.075 -3.77834 -3.40762 0
M  V30 1424 H 135.473 -1.37182 -5.48815 0
M  V30 1425 H 134.03 -1.95073 -6.21924 0
M  V30 1426 N 137.463 0.71206 -1.40597 0
M  V30 1427 C 138.691 1.50111 -1.42388 0
M  V30 1428 C 139.106 1.88784 -0.0245395 0
M  V30 1429 O 138.463 1.55681 0.952351 0
M  V30 1430 C 138.514 2.7742 -2.31776 0
M  V30 1431 O 138.235 2.40382 -3.66262 0
M  V30 1432 C 139.736 3.7129 -2.42196 0
M  V30 1433 H 136.956 0.46314 -0.485533 0
M  V30 1434 H 139.5 0.878068 -1.8469 0
M  V30 1435 H 137.655 3.36001 -1.92827 0
M  V30 1436 H 138.069 3.22324 -4.13772 0
M  V30 1437 H 139.543 4.57448 -3.08943 0
M  V30 1438 H 140.02 4.14641 -1.44809 0
M  V30 1439 H 140.626 3.18619 -2.81712 0
M  V30 1440 N 138.941 1.26152 0.944643 0
M  V30 1441 C 140.218 1.02247 1.66748 0
M  V30 1442 C 140.598 -0.448202 2.06287 0
M  V30 1443 O 139.946 -1.42779 1.78399 0
M  V30 1444 C 140.156 1.96788 2.88228 0
M  V30 1445 C 141.504 2.25201 3.59958 0
M  V30 1446 O 142.528 1.94626 2.98327 0
M  V30 1447 O 141.387 2.77242 4.70956 0
M  V30 1448 H 138.481 0.388517 0.730057 0
M  V30 1449 H 141.027 1.37348 0.99668 0
M  V30 1450 H 139.799 2.96047 2.55875 0
M  V30 1451 H 139.422 1.62145 3.63035 0
M  V30 1452 N 140.419 -1.14872 1.07899 0
M  V30 1453 C 141.696 -1.81928 0.71845 0
M  V30 1454 C 142.076 -1.95417 -0.798455 0
M  V30 1455 O 141.424 -1.50997 -1.715 0
M  V30 1456 C 141.634 -3.17937 1.43935 0
M  V30 1457 C 142.982 -3.93501 1.59506 0
M  V30 1458 O 144.006 -3.27509 1.40058 0
M  V30 1459 O 142.865 -5.1183 1.91551 0
M  V30 1460 H 139.959 -0.78628 0.256305 0
M  V30 1461 H 142.505 -1.21934 1.18026 0
M  V30 1462 H 141.277 -3.0325 2.47295 0
M  V30 1463 H 140.9 -3.85619 0.968687 0
M  V30 1464 N 141.898 -0.863906 -1.31812 0
M  V30 1465 C 143.309 -0.52522 -1.7916 0
M  V30 1466 C 143.66 0.957518 -1.71248 0
M  V30 1467 O 142.785 1.74734 -1.27659 0
M  V30 1468 C 143.38 -0.9466 -3.25307 0
M  V30 1469 C 141.939 -0.659668 -3.70574 0
M  V30 1470 C 141.086 -1.14126 -2.52726 0
M  V30 1471 H 144.037 -1.05022 -1.1898 0
M  V30 1472 H 144.058 -0.266766 -3.79564 0
M  V30 1473 H 143.57 -2.02579 -3.31034 0
M  V30 1474 H 141.671 0.408416 -3.70355 0
M  V30 1475 H 141.784 -1.23245 -4.62977 0
M  V30 1476 H 140.148 -0.561216 -2.4844 0
M  V30 1477 H 140.931 -2.22775 -2.61201 0
M  V30 1478 N 143.376 1.44774 -0.622745 0
M  V30 1479 C 144.792 1.56986 -0.287652 0
M  V30 1480 C 144.992 1.61167 1.20944 0
M  V30 1481 O 144.048 1.55015 1.99315 0
M  V30 1482 C 145.361 2.84551 -0.972188 0
M  V30 1483 C 146.909 2.9825 -0.949536 0
M  V30 1484 C 147.384 4.28605 -1.61437 0
M  V30 1485 N 148.875 4.35399 -1.58057 0
M  V30 1486 C 149.61 5.34964 -2.064 0
M  V30 1487 N 149.106 6.40981 -2.62897 0
M  V30 1488 N 150.899 5.26419 -1.97078 0
M  V30 1489 H 143.05 1.40304 -1.59463 0
M  V30 1490 H 145.313 0.671794 -0.668878 0
M  V30 1491 H 145.019 2.87417 -2.02693 0
M  V30 1492 H 144.893 3.73807 -0.504771 0
M  V30 1493 H 147.28 2.94941 0.0967067 0
M  V30 1494 H 147.361 2.10364 -1.45536 0
M  V30 1495 H 147.005 4.32672 -2.66002 0
M  V30 1496 H 146.935 5.15334 -1.08344 0
M  V30 1497 H 149.426 3.59397 -1.16801 0
M  V30 1498 H 149.739 7.13225 -2.97539 0
M  V30 1499 H 148.084 6.4169 -2.66943 0
M  V30 1500 H 151.275 4.42504 -1.52669 0
M  V30 1501 H 151.448 6.03861 -2.35066 0
M  V30 1502 N 144.854 0.36279 1.53368 0
M  V30 1503 C 145.802 -0.500155 2.27159 0
M  V30 1504 C 146.796 -1.08575 1.3003 0
M  V30 1505 O 148.002 -1.02927 1.47668 0
M  V30 1506 H 144.377 -0.180009 0.730138 0
M  V30 1507 H 146.348 0.14401 2.98052 0
M  V30 1508 C 145.097 -1.62937 3.07159 0
M  V30 1509 H 144.42 -1.18806 3.8174 0
M  V30 1510 H 145.86 -2.20795 3.61975 0
M  V30 1511 C 144.319 -2.57007 2.17829 0
M  V30 1512 O 144.849 -3.59752 1.78721 0
M  V30 1513 N 143.055 -2.26131 1.82518 0
M  V30 1514 H 142.602 -1.42616 2.14519 0
M  V30 1515 H 142.56 -2.89327 1.23034 0
M  V30 1516 N 146.332 -1.57332 0.0918853 0
M  V30 1517 C 147.279 -2.13847 -0.868211 0
M  V30 1518 C 148.249 -1.05618 -1.28196 0
M  V30 1519 O 149.434 -1.33387 -1.36427 0
M  V30 1520 C 146.574 -2.72062 -2.12312 0
M  V30 1521 C 145.687 -3.94514 -1.7602 0
M  V30 1522 C 144.822 -4.40903 -2.96273 0
M  V30 1523 C 143.861 -5.55953 -2.56092 0
M  V30 1524 N 142.998 -5.97209 -3.69169 0
M  V30 1525 H 147.838 -2.95575 -0.379406 0
M  V30 1526 H 145.375 -1.46048 -0.175606 0
M  V30 1527 H 147.333 -3.03931 -2.858 0
M  V30 1528 H 145.963 -1.93068 -2.58698 0
M  V30 1529 H 145.015 -3.68979 -0.925135 0
M  V30 1530 H 146.327 -4.7802 -1.42472 0
M  V30 1531 H 145.481 -4.74539 -3.78018 0
M  V30 1532 H 144.22 -3.56291 -3.33029 0
M  V30 1533 H 143.225 -5.21948 -1.72773 0
M  V30 1534 H 144.45 -6.42311 -2.20484 0
M  V30 1535 H 142.396 -5.15543 -4.05649 0
M  V30 1536 H 142.313 -6.75504 -3.39456 0
M  V30 1537 H 143.581 -6.35475 -4.51434 0
M  V30 1538 N 147.81 0.181792 -1.56548 0
M  V30 1539 C 148.76 1.22961 -1.92002 0
M  V30 1540 C 149.744 1.40331 -0.787146 0
M  V30 1541 O 150.936 1.42478 -1.05019 0
M  V30 1542 C 148.065 2.57144 -2.27446 0
M  V30 1543 C 147.151 2.43512 -3.47222 0
M  V30 1544 N 147.542 1.99577 -4.64761 0
M  V30 1545 C 145.84 2.74368 -3.51622 0
M  V30 1546 C 146.541 1.98156 -5.46909 0
M  V30 1547 N 145.517 2.40164 -4.8767 0
M  V30 1548 H 149.319 0.881462 -2.8037 0
M  V30 1549 H 146.833 0.390141 -1.57644 0
M  V30 1550 H 148.83 3.32847 -2.51035 0
M  V30 1551 H 147.49 2.92771 -1.40411 0
M  V30 1552 H 148.501 1.70078 -4.89177 0
M  V30 1553 H 145.178 3.14102 -2.75038 0
M  V30 1554 H 146.568 1.65975 -6.51077 0
M  V30 1555 N 149.288 1.51039 0.449983 0
M  V30 1556 C 150.235 1.71439 1.54523 0
M  V30 1557 C 151.205 0.555871 1.56522 0
M  V30 1558 O 152.39 0.788871 1.73728 0
M  V30 1559 C 149.53 1.83384 2.92343 0
M  V30 1560 C 148.643 3.10873 2.9997 0
M  V30 1561 C 147.778 3.13488 4.28834 0
M  V30 1562 C 146.817 4.35343 4.30282 0
M  V30 1563 N 145.954 4.35579 5.5065 0
M  V30 1564 H 150.794 2.64934 1.36433 0
M  V30 1565 H 148.331 1.31312 0.662982 0
M  V30 1566 H 150.289 1.88291 3.72293 0
M  V30 1567 H 148.919 0.933086 3.0902 0
M  V30 1568 H 147.971 3.15336 2.12761 0
M  V30 1569 H 149.283 4.00814 2.96901 0
M  V30 1570 H 148.437 3.17241 5.17149 0
M  V30 1571 H 147.176 2.21414 4.34543 0
M  V30 1572 H 146.181 4.3178 3.40362 0
M  V30 1573 H 147.406 5.28668 4.26248 0
M  V30 1574 H 145.352 3.46369 5.57104 0
M  V30 1575 H 145.269 5.19313 5.49409 0
M  V30 1576 H 146.537 4.43507 6.41032 0
M  V30 1577 N 150.766 -0.704594 1.40972 0
M  V30 1578 C 152.013 -1.46458 1.39844 0
M  V30 1579 C 152.341 -1.94499 0.00447594 0
M  V30 1580 O 151.596 -1.69275 -0.982057 0
M  V30 1581 C 151.895 -2.698 2.34399 0
M  V30 1582 C 151.561 -2.40464 3.81429 0
M  V30 1583 C 150.223 -2.32174 4.21484 0
M  V30 1584 C 152.575 -2.16086 4.74296 0
M  V30 1585 C 149.903 -1.97589 5.52427 0
M  V30 1586 C 152.255 -1.83011 6.05549 0
M  V30 1587 C 150.919 -1.7321 6.44635 0
M  V30 1588 H 150.189 -0.535927 0.511725 0
M  V30 1589 H 152.836 -0.806124 1.73706 0
M  V30 1590 H 151.141 -3.40536 1.93759 0
M  V30 1591 H 152.838 -3.27919 2.30804 0
M  V30 1592 H 149.428 -2.47808 3.49699 0
M  V30 1593 H 153.612 -2.2144 4.4416 0
M  V30 1594 H 148.868 -1.88547 5.81601 0
M  V30 1595 H 153.042 -1.63164 6.77016 0
M  V30 1596 H 150.669 -1.46179 7.46013 0
M  V30 1597 N 152.244 -1.26651 -0.937939 0
M  V30 1598 C 153.66 -1.03834 -1.21205 0
M  V30 1599 C 153.86 0.234502 -2.00131 0
M  V30 1600 O 152.916 0.942767 -2.3424 0
M  V30 1601 C 154.229 -2.27167 -1.97017 0
M  V30 1602 C 155.777 -2.32101 -2.09996 0
M  V30 1603 C 156.252 -3.55136 -2.8921 0
M  V30 1604 N 157.743 -3.55632 -2.96783 0
M  V30 1605 C 158.478 -4.475 -3.58512 0
M  V30 1606 N 157.974 -5.4966 -4.21717 0
M  V30 1607 N 159.767 -4.35145 -3.55816 0
M  V30 1608 H 151.918 -2.08398 -0.410391 0
M  V30 1609 H 154.181 -0.916031 -0.244114 0
M  V30 1610 H 153.887 -3.19765 -1.46434 0
M  V30 1611 H 153.761 -2.31672 -2.97671 0
M  V30 1612 H 156.148 -1.40015 -2.59769 0
M  V30 1613 H 156.229 -2.31605 -1.08594 0
M  V30 1614 H 155.873 -4.47553 -2.40123 0
M  V30 1615 H 155.803 -3.5288 -3.90875 0
M  V30 1616 H 158.294 -2.81743 -2.51852 0
M  V30 1617 H 158.607 -6.15943 -4.66727 0
M  V30 1618 H 156.952 -5.53514 -4.20294 0
M  V30 1619 H 160.143 -3.5455 -3.05634 0
M  V30 1620 H 160.316 -5.06934 -4.03636 0
M  V30 1621 N 153.722 1.14298 -1.08507 0
M  V30 1622 C 154.652 2.21542 -0.737646 0
M  V30 1623 C 155.633 1.67773 0.280377 0
M  V30 1624 O 156.818 1.93616 0.150521 0
M  V30 1625 C 153.948 3.46988 -0.147259 0
M  V30 1626 C 152.902 4.13789 -1.09374 0
M  V30 1627 C 152.228 5.33449 -0.365524 0
M  V30 1628 C 153.528 4.62208 -2.4323 0
M  V30 1629 H 155.222 2.5086 -1.6343 0
M  V30 1630 H 152.768 1.20576 -0.787243 0
M  V30 1631 H 154.721 4.21262 0.107808 0
M  V30 1632 H 153.445 3.17037 0.784538 0
M  V30 1633 H 152.104 3.4147 -1.33393 0
M  V30 1634 H 151.752 4.99759 0.57011 0
M  V30 1635 H 151.452 5.79088 -0.996512 0
M  V30 1636 H 152.976 6.10485 -0.118534 0
M  V30 1637 H 154.39 5.27952 -2.23472 0
M  V30 1638 H 152.787 5.18553 -3.02031 0
M  V30 1639 H 153.857 3.77224 -3.04681 0
M  V30 1640 N 155.201 0.870884 1.31352 0
M  V30 1641 C 156.151 0.298889 2.26032 0
M  V30 1642 C 157.135 -0.564595 1.50669 0
M  V30 1643 O 158.327 -0.411323 1.72154 0
M  V30 1644 C 155.456 -0.497842 3.39671 0
M  V30 1645 C 154.542 0.378937 4.22404 0
M  V30 1646 N 154.933 1.47284 4.83881 0
M  V30 1647 C 153.231 0.171535 4.4567 0
M  V30 1648 C 153.932 2.01359 5.45738 0
M  V30 1649 N 152.908 1.31047 5.27568 0
M  V30 1650 H 156.71 1.13494 2.71102 0
M  V30 1651 H 154.224 0.718745 1.45629 0
M  V30 1652 H 156.221 -0.924155 4.06528 0
M  V30 1653 H 154.881 -1.33149 2.96144 0
M  V30 1654 H 155.892 1.85575 4.8351 0
M  V30 1655 H 152.569 -0.626091 4.12779 0
M  V30 1656 H 153.959 2.93143 6.0458 0
M  V30 1657 N 156.679 -1.44442 0.630414 0
M  V30 1658 C 157.904 -2.06927 0.139944 0
M  V30 1659 C 158.329 -1.46795 -1.17613 0
M  V30 1660 O 157.687 -0.569144 -1.72135 0
M  V30 1661 C 157.735 -3.6058 0.0379581 0
M  V30 1662 O 156.839 -3.99937 -1.0062 0
M  V30 1663 H 156.18 -0.658608 0.0844483 0
M  V30 1664 H 158.71 -1.85327 0.866891 0
M  V30 1665 H 158.72 -4.07714 -0.152856 0
M  V30 1666 H 157.395 -4.03728 0.998809 0
M  V30 1667 H 155.972 -3.64436 -0.79001 0
M  V30 1668 N 158.157 -0.370918 -1.53173 0
M  V30 1669 C 159.387 0.217389 -2.05453 0
M  V30 1670 C 159.795 1.42568 -1.24382 0
M  V30 1671 O 159.138 1.81571 -0.278839 0
M  V30 1672 C 159.2 0.669827 -3.53205 0
M  V30 1673 C 158.864 -0.4225 -4.55043 0
M  V30 1674 C 159.861 -1.27407 -5.04047 0
M  V30 1675 C 157.546 -0.58427 -4.9889 0
M  V30 1676 C 159.54 -2.27271 -5.95505 0
M  V30 1677 C 157.227 -1.58627 -5.90153 0
M  V30 1678 C 158.225 -2.42892 -6.38351 0
M  V30 1679 O 157.913 -3.41382 -7.27814 0
M  V30 1680 H 157.645 0.0408171 -0.674767 0
M  V30 1681 H 160.199 -0.5292 -1.98466 0
M  V30 1682 H 158.429 1.4681 -3.57748 0
M  V30 1683 H 160.118 1.18173 -3.88317 0
M  V30 1684 H 160.884 -1.16031 -4.70916 0
M  V30 1685 H 156.763 0.061851 -4.60959 0
M  V30 1686 H 160.307 -2.93079 -6.33049 0
M  V30 1687 H 156.204 -1.70048 -6.22699 0
M  V30 1688 H 156.972 -3.37173 -7.45826 0
M  V30 1689 N 159.635 1.57281 -0.100228 0
M  V30 1690 C 160.86 1.99302 0.573881 0
M  V30 1691 C 161.285 0.979059 1.60611 0
M  V30 1692 O 160.643 -0.0517803 1.81226 0
M  V30 1693 C 160.691 3.40274 1.19358 0
M  V30 1694 O 159.795 3.41676 2.30935 0
M  V30 1695 H 159.136 0.647944 0.145138 0
M  V30 1696 H 161.666 2.03779 -0.183156 0
M  V30 1697 H 161.676 3.78078 1.53365 0
M  V30 1698 H 160.351 4.13594 0.437385 0
M  V30 1699 H 158.928 3.15672 1.98509 0
M  V30 1700 N 161.113 -0.173488 1.56642 0
M  V30 1701 C 162.338 -0.910149 1.86363 0
M  V30 1702 C 162.763 -1.75132 0.686318 0
M  V30 1703 O 162.121 -1.77595 -0.364643 0
M  V30 1704 C 162.169 -1.76447 3.14482 0
M  V30 1705 O 161.273 -2.86584 2.96553 0
M  V30 1706 H 160.614 -0.255086 0.613047 0
M  V30 1707 H 163.144 -0.172283 2.03873 0
M  V30 1708 H 163.154 -2.16483 3.45831 0
M  V30 1709 H 161.829 -1.14658 3.99783 0
M  V30 1710 H 160.406 -2.50146 2.76553 0
M  V30 1711 N 162.591 -1.51276 -0.441967 0
M  V30 1712 C 164.002 -1.56244 -1.02199 0
M  V30 1713 C 164.353 -0.383149 -1.92422 0
M  V30 1714 O 163.478 0.500613 -2.1053 0
M  V30 1715 C 164.073 -2.83162 -1.86024 0
M  V30 1716 C 162.632 -2.90716 -2.39084 0
M  V30 1717 C 161.779 -2.50858 -1.18175 0
M  V30 1718 H 164.73 -1.5712 -0.223416 0
M  V30 1719 H 164.751 -2.66663 -2.71425 0
M  V30 1720 H 164.263 -3.68974 -1.20331 0
M  V30 1721 H 162.364 -2.09323 -3.08244 0
M  V30 1722 H 162.477 -3.94266 -2.72198 0
M  V30 1723 H 160.841 -2.03951 -1.52565 0
M  V30 1724 H 161.624 -3.3901 -0.541001 0
M  V30 1725 N 164.069 0.697108 -1.41344 0
M  V30 1726 C 165.297 1.48593 -1.43972 0
M  V30 1727 C 165.712 1.88747 -0.0445612 0
M  V30 1728 O 165.069 1.56682 0.935785 0
M  V30 1729 C 165.12 2.74946 -2.34706 0
M  V30 1730 O 164.841 2.36484 -3.68791 0
M  V30 1731 C 166.342 3.687 -2.46121 0
M  V30 1732 H 163.562 0.457964 -0.490418 0
M  V30 1733 H 166.106 0.858429 -1.8561 0
M  V30 1734 H 164.261 3.33937 -1.9638 0
M  V30 1735 H 164.675 3.17918 -4.17167 0
M  V30 1736 H 166.149 4.54145 -3.13777 0
M  V30 1737 H 166.626 4.13081 -1.49199 0
M  V30 1738 H 167.232 3.15613 -2.85076 0
M  V30 1739 N 165.547 1.27147 0.931209 0
M  V30 1740 C 166.794 1.13278 1.67852 0
M  V30 1741 C 167.122 -0.32204 1.91815 0
M  V30 1742 O 166.377 -1.25224 1.50391 0
M  V30 1743 C 166.676 1.8579 3.05314 0
M  V30 1744 C 166.342 3.35657 3.01073 0
M  V30 1745 C 165.004 3.76536 2.99623 0
M  V30 1746 C 167.356 4.31299 2.92627 0
M  V30 1747 C 164.684 5.11426 2.87506 0
M  V30 1748 C 167.036 5.66242 2.82051 0
M  V30 1749 C 165.7 6.06418 2.7895 0
M  V30 1750 H 164.97 0.414515 0.614214 0
M  V30 1751 H 167.617 1.57712 1.08624 0
M  V30 1752 H 165.922 1.33854 3.68226 0
M  V30 1753 H 167.619 1.72491 3.62005 0
M  V30 1754 H 164.209 3.03146 3.02986 0
M  V30 1755 H 168.393 4.00692 2.92848 0
M  V30 1756 H 163.649 5.41705 2.83489 0
M  V30 1757 H 167.823 6.40026 2.74481 0
M  V30 1758 H 165.45 7.10895 2.69318 0
M  V30 1759 N 167.025 -1.13721 1.09112 0
M  V30 1760 C 168.265 -1.86576 0.834801 0
M  V30 1761 C 168.629 -1.81435 -0.628122 0
M  V30 1762 O 169.83 -2.49497 -1.00024 0
M  V30 1763 C 168.101 -3.30872 1.35124 0
M  V30 1764 S 169.66 -4.21257 1.22832 0
M  V30 1765 H 166.478 -0.643666 0.302017 0
M  V30 1766 H 169.08 -1.37085 1.39385 0
M  V30 1767 H 167.784 -3.32166 2.41027 0
M  V30 1768 H 167.315 -3.85423 0.788185 0
M  V30 1769 H 169.33 -4.95884 0.177191 0
M  V30 1770 N 168.503 -0.877838 -1.30888 0
M  V30 1771 C 169.78 -0.413052 -1.91189 0
M  V30 1772 C 170.16 1.1056 -1.79832 0
M  V30 1773 O 169.508 1.93771 -1.21099 0
M  V30 1774 C 169.718 -0.903191 -3.3711 0
M  V30 1775 C 171.066 -0.93395 -4.14201 0
M  V30 1776 O 172.09 -0.849373 -3.45925 0
M  V30 1777 O 170.949 -1.05772 -5.36167 0
M  V30 1778 H 168.043 -0.125035 -0.817493 0
M  V30 1779 H 170.589 -0.966269 -1.39504 0
M  V30 1780 H 169.361 -1.94692 -3.39427 0
M  V30 1781 H 168.984 -0.328732 -3.96239 0
M  V30 1782 N 169.982 1.44106 -0.638065 0
M  V30 1783 C 170.932 2.27843 0.0847285 0
M  V30 1784 C 171.916 1.39055 0.809471 0
M  V30 1785 O 173.108 1.62808 0.694435 0
M  V30 1786 C 170.237 3.26497 1.06089 0
M  V30 1787 C 169.323 4.22772 0.33541 0
M  V30 1788 N 169.714 5.01737 -0.639787 0
M  V30 1789 C 168.012 4.42227 0.578921 0
M  V30 1790 C 168.713 5.71792 -1.06904 0
M  V30 1791 N 167.689 5.42079 -0.406395 0
M  V30 1792 H 171.491 2.86305 -0.663814 0
M  V30 1793 H 169.005 1.55627 -0.464122 0
M  V30 1794 H 171.002 3.8525 1.59337 0
M  V30 1795 H 169.662 2.69595 1.80966 0
M  V30 1796 H 170.673 5.07799 -1.01789 0
M  V30 1797 H 167.35 3.96415 1.31003 0
M  V30 1798 H 168.74 6.45205 -1.8751 0
M  V30 1799 N 171.46 0.379036 1.52974 0
M  V30 1800 C 172.7 -0.206325 2.03356 0
M  V30 1801 C 173.064 -1.44892 1.25977 0
M  V30 1802 O 174.265 -2.11078 1.66432 0
M  V30 1803 C 172.536 -0.477887 3.54191 0
M  V30 1804 S 174.095 -1.035 4.26419 0
M  V30 1805 H 170.913 -0.0590259 0.708546 0
M  V30 1806 H 173.515 0.525013 1.88319 0
M  V30 1807 H 172.219 0.433745 4.08101 0
M  V30 1808 H 171.75 -1.23793 3.73415 0
M  V30 1809 H 173.765 -2.31821 4.38718 0
M  V30 1810 N 172.938 -1.57226 0.108567 0
M  V30 1811 C 174.186 -1.94448 -0.550853 0
M  V30 1812 C 174.507 -0.992074 -1.67878 0
M  V30 1813 O 173.777 -0.0465 -1.95845 0
M  V30 1814 H 172.357 -0.717897 -0.206479 0
M  V30 1815 H 175.019 -1.94112 0.175062 0
M  V30 1816 H 174.115 -2.97218 -0.952259 0
M  V30 1817 N 174.416 0.165178 -1.56732 0
M  V30 1818 C 175.641 0.900253 -1.86843 0
M  V30 1819 C 176.066 1.74766 -0.695596 0
M  V30 1820 O 175.424 1.77786 0.35522 0
M  V30 1821 C 175.472 1.74777 -3.15413 0
M  V30 1822 O 174.576 2.85007 -2.98068 0
M  V30 1823 H 173.917 0.251832 -0.614391 0
M  V30 1824 H 176.447 0.161468 -2.03962 0
M  V30 1825 H 176.457 2.14646 -3.46974 0
M  V30 1826 H 175.132 1.12537 -4.00385 0
M  V30 1827 H 173.709 2.48676 -2.77875 0
M  V30 1828 N 175.894 1.51508 0.433938 0
M  V30 1829 C 176.824 1.76016 1.53429 0
M  V30 1830 C 177.805 0.610112 1.58782 0
M  V30 1831 O 178.99 0.853177 1.74455 0
M  V30 1832 C 176.12 1.88831 2.9148 0
M  V30 1833 C 175.074 3.04288 3.00987 0
M  V30 1834 C 174.4 3.0229 4.4105 0
M  V30 1835 C 175.7 4.44193 2.74754 0
M  V30 1836 H 177.394 2.68152 1.33171 0
M  V30 1837 H 174.94 1.29035 0.639214 0
M  V30 1838 H 176.893 2.04559 3.6842 0
M  V30 1839 H 175.617 0.933455 3.12976 0
M  V30 1840 H 174.276 2.8827 2.26486 0
M  V30 1841 H 173.924 2.04576 4.59519 0
M  V30 1842 H 173.624 3.79822 4.4834 0
M  V30 1843 H 175.148 3.20116 5.1996 0
M  V30 1844 H 176.562 4.60544 3.41426 0
M  V30 1845 H 174.959 5.23457 2.9345 0
M  V30 1846 H 176.029 4.53996 1.70339 0
M  V30 1847 N 177.372 -0.689602 1.41712 0
M  V30 1848 C 178.302 -1.81577 1.46806 0
M  V30 1849 C 179.283 -1.66945 0.326105 0
M  V30 1850 O 180.468 -1.86588 0.538377 0
M  V30 1851 C 177.598 -3.19762 1.35535 0
M  V30 1852 C 176.552 -3.49107 2.47605 0
M  V30 1853 C 175.878 -4.86711 2.21397 0
M  V30 1854 C 177.178 -3.47483 3.89939 0
M  V30 1855 H 178.872 -1.7757 2.41058 0
M  V30 1856 H 176.418 -0.852887 1.16025 0
M  V30 1857 H 178.371 -3.98263 1.3771 0
M  V30 1858 H 177.095 -3.24409 0.377708 0
M  V30 1859 H 175.754 -2.72959 2.44722 0
M  V30 1860 H 175.402 -4.8799 1.21961 0
M  V30 1861 H 175.102 -5.0731 2.96497 0
M  V30 1862 H 176.626 -5.67515 2.25297 0
M  V30 1863 H 178.04 -4.1598 3.94505 0
M  V30 1864 H 176.437 -3.79615 4.64771 0
M  V30 1865 H 177.507 -2.46341 4.17665 0
M  V30 1866 N 178.85 -1.27639 -0.924453 0
M  V30 1867 C 180.08 -1.16819 -1.70402 0
M  V30 1868 C 180.488 0.277191 -1.87158 0
M  V30 1869 O 179.831 1.20025 -1.39067 0
M  V30 1870 C 179.893 -1.78305 -3.12166 0
M  V30 1871 C 179.557 -3.27502 -3.18734 0
M  V30 1872 C 180.554 -4.2409 -3.00738 0
M  V30 1873 C 178.239 -3.68269 -3.4159 0
M  V30 1874 C 180.233 -5.59422 -3.05492 0
M  V30 1875 C 177.92 -5.0373 -3.45977 0
M  V30 1876 C 178.918 -5.99116 -3.27946 0
M  V30 1877 O 178.606 -7.32108 -3.32074 0
M  V30 1878 H 178.338 -0.406931 -0.539799 0
M  V30 1879 H 180.892 -1.69078 -1.16626 0
M  V30 1880 H 179.122 -1.20528 -3.67437 0
M  V30 1881 H 180.811 -1.62154 -3.72103 0
M  V30 1882 H 181.577 -3.93931 -2.82919 0
M  V30 1883 H 177.456 -2.94496 -3.54673 0
M  V30 1884 H 181 -6.33852 -2.91337 0
M  V30 1885 H 176.897 -5.33543 -3.63321 0
M  V30 1886 H 177.665 -7.40598 -3.48507 0
M  V30 1887 N 180.328 1.1314 -1.09713 0
M  V30 1888 C 181.576 1.84119 -0.833338 0
M  V30 1889 C 181.897 1.84097 0.642904 0
M  V30 1890 O 181.167 1.29881 1.46655 0
M  V30 1891 H 179.747 0.681766 -0.305293 0
M  V30 1892 H 182.409 1.37038 -1.38588 0
M  V30 1893 H 181.505 2.88543 -1.18951 0
M  V30 1894 N 181.806 0.884767 1.30421 0
M  V30 1895 C 182.736 0.367574 2.30589 0
M  V30 1896 C 183.717 -0.549464 1.60981 0
M  V30 1897 O 184.902 -0.46336 1.88591 0
M  V30 1898 C 182.032 -0.418944 3.44764 0
M  V30 1899 C 180.986 0.406316 4.26067 0
M  V30 1900 C 180.312 -0.506793 5.32293 0
M  V30 1901 C 181.612 1.64832 4.95608 0
M  V30 1902 H 183.306 1.20462 2.74097 0
M  V30 1903 H 180.852 0.580695 1.31772 0
M  V30 1904 H 182.805 -0.791395 4.13902 0
M  V30 1905 H 181.529 -1.28964 3.0006 0
M  V30 1906 H 180.188 0.760903 3.58617 0
M  V30 1907 H 179.836 -1.37519 4.83836 0
M  V30 1908 H 179.536 0.0415828 5.87585 0
M  V30 1909 H 181.06 -0.875764 6.04287 0
M  V30 1910 H 182.474 1.34646 5.57264 0
M  V30 1911 H 180.871 2.13688 5.60765 0
M  V30 1912 H 181.941 2.39284 4.21748 0
M  V30 1913 N 183.284 -1.43765 0.645699 0
M  V30 1914 C 184.53 -2.02197 0.156271 0
M  V30 1915 C 184.863 -1.50776 -1.22393 0
M  V30 1916 O 184.138 -0.697771 -1.81553 0
M  V30 1917 C 184.421 -3.59749 0.158872 0
M  V30 1918 C 184.274 -4.21419 1.57245 0
M  V30 1919 C 185.593 -4.37149 -0.50879 0
M  V30 1920 H 182.712 -0.734694 0.0582602 0
M  V30 1921 H 185.354 -1.71157 0.824951 0
M  V30 1922 H 183.504 -3.86325 -0.410525 0
M  V30 1923 H 185.176 -4.059 2.19186 0
M  V30 1924 H 183.419 -3.78356 2.122 0
M  V30 1925 H 184.09 -5.30482 1.52619 0
M  V30 1926 H 186.566 -4.16093 -0.024412 0
M  V30 1927 H 185.442 -5.4683 -0.476213 0
M  V30 1928 H 185.703 -4.12839 -1.58165 0
M  V30 1929 N 184.763 -0.387143 -1.52771 0
M  V30 1930 C 185.713 0.465942 -2.23188 0
M  V30 1931 C 186.697 1.03138 -1.23496 0
M  V30 1932 O 187.889 0.957845 -1.48843 0
M  V30 1933 C 185.018 1.59384 -3.04059 0
M  V30 1934 C 184.104 1.04024 -4.11144 0
M  V30 1935 N 184.495 0.211416 -5.05358 0
M  V30 1936 C 182.793 1.31295 -4.26237 0
M  V30 1937 C 183.494 -0.0941698 -5.81624 0
M  V30 1938 N 182.47 0.509207 -5.4121 0
M  V30 1939 H 186.272 -0.173856 -2.93385 0
M  V30 1940 H 183.786 -0.19633 -1.61209 0
M  V30 1941 H 185.783 2.21738 -3.53041 0
M  V30 1942 H 184.443 2.23648 -2.35397 0
M  V30 1943 H 185.454 -0.151151 -5.17679 0
M  V30 1944 H 182.131 1.95679 -3.68803 0
M  V30 1945 H 183.521 -0.765572 -6.67524 0
M  V30 1946 N 186.241 1.57166 -0.116904 0
M  V30 1947 C 187.173 2.12271 0.864507 0
M  V30 1948 C 188.186 1.06494 1.23138 0
M  V30 1949 O 189.375 1.33873 1.18069 0
M  V30 1950 C 186.475 2.60564 2.16702 0
M  V30 1951 C 185.648 3.90416 1.97216 0
M  V30 1952 C 184.707 4.24329 3.11178 0
M  V30 1953 O 183.733 4.93182 2.84184 0
M  V30 1954 N 184.935 3.8148 4.37554 0
M  V30 1955 H 187.7 2.97102 0.393726 0
M  V30 1956 H 185.261 1.61759 0.0675805 0
M  V30 1957 H 187.253 2.80282 2.91932 0
M  V30 1958 H 185.823 1.80623 2.55135 0
M  V30 1959 H 185.043 3.79627 1.06192 0
M  V30 1960 H 186.331 4.75327 1.81499 0
M  V30 1961 H 185.729 3.25943 4.62361 0
M  V30 1962 H 184.286 4.06311 5.09661 0
M  V30 1963 N 187.719 -0.156864 1.56817 0
M  V30 1964 C 188.967 -0.869404 1.82444 0
M  V30 1965 C 189.288 -1.82147 0.69623 0
M  V30 1966 O 188.558 -1.93847 -0.28287 0
M  V30 1967 H 187.138 -0.324043 0.673056 0
M  V30 1968 H 189.8 -0.153224 1.94297 0
M  V30 1969 H 188.896 -1.43761 2.77019 0
M  V30 1970 N 189.197 -1.51736 -0.425897 0
M  V30 1971 C 190.13 -1.68574 -1.53812 0
M  V30 1972 C 191.108 -0.53328 -1.53606 0
M  V30 1973 O 192.292 -0.758555 -1.72564 0
M  V30 1974 C 189.419 -1.70977 -2.92377 0
M  V30 1975 C 188.465 -2.92324 -3.10563 0
M  V30 1976 S 189.298 -4.52952 -2.85648 0
M  V30 1977 C 190.454 -4.58117 -4.26474 0
M  V30 1978 H 190.687 -2.62647 -1.39298 0
M  V30 1979 H 188.22 -1.41564 -0.616361 0
M  V30 1980 H 190.178 -1.73047 -3.72243 0
M  V30 1981 H 188.839 -0.78061 -3.04245 0
M  V30 1982 H 188.032 -2.90439 -4.11899 0
M  V30 1983 H 187.634 -2.88055 -2.38538 0
M  V30 1984 H 189.926 -4.34462 -5.19855 0
M  V30 1985 H 190.869 -5.59983 -4.33388 0
M  V30 1986 H 191.277 -3.8732 -4.10662 0
M  V30 1987 N 190.675 0.682077 -1.42076 0
M  V30 1988 C 191.622 1.79578 -1.44984 0
M  V30 1989 C 192.592 1.6332 -0.302614 0
M  V30 1990 O 193.777 1.83978 -0.505633 0
M  V30 1991 C 190.917 3.1756 -1.35091 0
M  V30 1992 C 190.03 3.45156 -2.59791 0
M  V30 1993 C 189.165 4.72826 -2.42093 0
M  V30 1994 C 188.204 4.93433 -3.62202 0
M  V30 1995 N 187.341 6.12338 -3.43491 0
M  V30 1996 H 192.181 1.76427 -2.40161 0
M  V30 1997 H 189.718 0.861376 -1.19242 0
M  V30 1998 H 191.676 3.97287 -1.27354 0
M  V30 1999 H 190.306 3.19854 -0.435133 0
M  V30 2000 H 189.358 2.59736 -2.77923 0
M  V30 2001 H 190.67 3.5628 -3.49094 0
M  V30 2002 H 189.824 5.60631 -2.319 0
M  V30 2003 H 188.563 4.63973 -1.50268 0
M  V30 2004 H 187.568 4.04073 -3.72834 0
M  V30 2005 H 188.793 5.04136 -4.54998 0
M  V30 2006 H 186.739 6.04672 -2.54377 0
M  V30 2007 H 186.656 6.2429 -4.26377 0
M  V30 2008 H 187.924 7.02841 -3.37097 0
M  V30 2009 N 192.153 1.28127 0.917671 0
M  V30 2010 C 193.393 1.163 1.68088 0
M  V30 2011 C 193.757 -0.284515 1.8988 0
M  V30 2012 O 194.958 -0.525413 2.63615 0
M  V30 2013 C 193.229 1.93546 3.00457 0
M  V30 2014 S 194.788 1.98048 3.91564 0
M  V30 2015 H 191.606 0.415005 0.577315 0
M  V30 2016 H 194.208 1.62173 1.09179 0
M  V30 2017 H 192.912 2.97888 2.82295 0
M  V30 2018 H 192.443 1.48207 3.64415 0
M  V30 2019 H 194.458 1.08415 4.84211 0
M  V30 2020 N 193.631 -1.12557 1.10312 0
M  V30 2021 C 194.856 -1.88405 0.867085 0
M  V30 2022 C 195.281 -1.79038 -0.576817 0
M  V30 2023 O 194.639 -1.14439 -1.40618 0
M  V30 2024 C 194.687 -3.3563 1.31851 0
M  V30 2025 O 193.791 -4.09565 0.482734 0
M  V30 2026 H 193.132 -0.585455 0.313271 0
M  V30 2027 H 195.662 -1.42352 1.4696 0
M  V30 2028 H 195.672 -3.86469 1.3079 0
M  V30 2029 H 194.347 -3.41765 2.37001 0
M  V30 2030 H 192.924 -3.68695 0.558448 0
M  V30 2031 N 195.109 -0.891671 -1.2995 0
M  V30 2032 C 196.349 -0.520296 -1.97667 0
M  V30 2033 C 196.713 0.914797 -1.68806 0
M  V30 2034 O 197.914 1.39263 -2.29911 0
M  V30 2035 C 196.185 -0.795222 -3.48441 0
M  V30 2036 S 197.744 -0.526953 -4.35624 0
M  V30 2037 H 194.562 -0.19333 -0.684211 0
M  V30 2038 H 197.164 -1.15238 -1.57926 0
M  V30 2039 H 195.868 -1.83805 -3.66938 0
M  V30 2040 H 195.399 -0.15095 -3.9311 0
M  V30 2041 H 197.414 0.631533 -4.92165 0
M  V30 2042 N 196.587 1.43421 -0.653314 0
M  V30 2043 C 197.827 2.03689 -0.170346 0
M  V30 2044 C 198.191 1.50427 1.19314 0
M  V30 2045 O 199.392 2.0234 1.76952 0
M  V30 2046 C 197.663 3.56946 -0.180183 0
M  V30 2047 S 199.222 4.38171 0.234925 0
M  V30 2048 H 196.04 0.707345 -0.0719976 0
M  V30 2049 H 198.642 1.75486 -0.86167 0
M  V30 2050 H 197.346 3.93212 -1.17526 0
M  V30 2051 H 196.877 3.89791 0.531675 0
M  V30 2052 H 198.892 4.73808 1.47378 0
M  V30 2053 N 198.065 0.39524 1.52563 0
M  V30 2054 C 198.975 -0.444232 2.30356 0
M  V30 2055 C 199.991 -1.06615 1.37511 0
M  V30 2056 O 201.167 -1.07067 1.70583 0
M  V30 2057 C 198.232 -1.55315 3.09964 0
M  V30 2058 C 197.293 -0.955734 4.18526 0
M  V30 2059 C 196.526 -2.01181 4.9433 0
M  V30 2060 O 196.749 -3.22781 4.70285 0
M  V30 2061 O 195.683 -1.62579 5.79527 0
M  V30 2062 H 199.509 0.189667 3.03107 0
M  V30 2063 H 197.094 0.1588 1.48554 0
M  V30 2064 H 198.976 -2.19724 3.59582 0
M  V30 2065 H 197.651 -2.17191 2.4002 0
M  V30 2066 H 196.558 -0.274743 3.7309 0
M  V30 2067 H 197.891 -0.381109 4.90722 0
M  V30 2068 N 199.544 -1.57102 0.125237 0
M  V30 2069 C 200.477 -2.11371 -0.860094 0
M  V30 2070 C 201.455 -1.03168 -1.25679 0
M  V30 2071 O 202.639 -1.30862 -1.35674 0
M  V30 2072 C 199.766 -2.61555 -2.1519 0
M  V30 2073 C 198.812 -3.81701 -1.9028 0
M  V30 2074 S 199.645 -5.23797 -1.11343 0
M  V30 2075 C 200.801 -5.77353 -2.41689 0
M  V30 2076 H 201.034 -2.94617 -0.39852 0
M  V30 2077 H 198.567 -1.54145 -0.0886555 0
M  V30 2078 H 200.525 -2.91122 -2.89411 0
M  V30 2079 H 199.186 -1.78479 -2.58465 0
M  V30 2080 H 198.379 -4.14985 -2.86014 0
M  V30 2081 H 197.981 -3.52783 -1.24178 0
M  V30 2082 H 200.273 -5.87458 -3.37489 0
M  V30 2083 H 201.216 -6.75323 -2.12942 0
M  V30 2084 H 201.624 -5.05457 -2.51342 0
M  V30 2085 N 201.022 0.148545 -1.56898 0
M  V30 2086 C 201.97 1.20265 -1.99096 0
M  V30 2087 C 202.964 1.44559 -0.883123 0
M  V30 2088 O 204.17 1.4487 -1.0683 0
M  V30 2089 H 200.545 0.404786 -0.63376 0
M  V30 2090 H 202.516 0.82004 -2.86911 0
M  V30 2091 C 201.265 2.52886 -2.3863 0
M  V30 2092 H 200.588 2.35021 -3.23427 0
M  V30 2093 H 202.028 3.25274 -2.7198 0
M  V30 2094 C 200.487 3.13315 -1.23837 0
M  V30 2095 O 201.017 3.98077 -0.538268 0
M  V30 2096 N 199.223 2.72742 -1.00301 0
M  V30 2097 H 198.77 2.03912 -1.5741 0
M  V30 2098 H 198.728 3.13507 -0.236838 0
M  V30 2099 N 202.5 1.5196 0.417844 0
M  V30 2100 C 203.746 1.65836 1.16732 0
M  V30 2101 C 204.079 0.382881 1.90388 0
M  V30 2102 O 203.354 -0.618368 1.84408 0
M  V30 2103 C 203.637 2.87466 2.16876 0
M  V30 2104 C 203.49 4.25041 1.47174 0
M  V30 2105 C 204.809 3.04613 3.17646 0
M  V30 2106 H 201.928 0.603515 0.423011 0
M  V30 2107 H 204.57 1.84494 0.454105 0
M  V30 2108 H 202.72 2.71689 2.777 0
M  V30 2109 H 204.392 4.52527 0.895376 0
M  V30 2110 H 202.635 4.26843 0.773806 0
M  V30 2111 H 203.306 5.06176 2.20204 0
M  V30 2112 H 205.782 3.1923 2.66892 0
M  V30 2113 H 204.658 3.91247 3.8499 0
M  V30 2114 H 204.919 2.17541 3.84874 0
M  V30 2115 N 203.978 -0.674533 1.42435 0
M  V30 2116 C 204.928 -1.7807 1.4239 0
M  V30 2117 C 205.912 -1.58169 0.295202 0
M  V30 2118 O 207.104 -1.68643 0.537449 0
M  V30 2119 C 204.233 -3.16532 1.32901 0
M  V30 2120 C 203.319 -3.42055 2.50717 0
M  V30 2121 N 203.71 -3.38162 3.76139 0
M  V30 2122 C 202.008 -3.72692 2.44983 0
M  V30 2123 C 202.709 -3.63177 4.54398 0
M  V30 2124 N 201.685 -3.83954 3.84812 0
M  V30 2125 H 205.487 -1.73454 2.37257 0
M  V30 2126 H 203.001 -0.875381 1.36788 0
M  V30 2127 H 204.998 -3.958 1.30951 0
M  V30 2128 H 203.658 -3.22345 0.390363 0
M  V30 2129 H 204.669 -3.18057 4.0873 0
M  V30 2130 H 201.346 -3.85749 1.59699 0
M  V30 2131 H 202.736 -3.66125 5.63384 0
M  V30 2132 N 205.456 -1.28612 -0.910864 0
M  V30 2133 C 206.872 -1.06381 -1.18976 0
M  V30 2134 C 207.072 0.191998 -2.00583 0
M  V30 2135 O 206.128 0.892869 -2.36187 0
M  V30 2136 C 207.441 -2.31295 -1.92154 0
M  V30 2137 C 208.989 -2.36503 -2.05025 0
M  V30 2138 C 209.464 -3.61191 -2.81612 0
M  V30 2139 N 210.955 -3.61847 -2.89172 0
M  V30 2140 C 211.69 -4.55004 -3.4894 0
M  V30 2141 N 211.186 -5.58482 -4.09963 0
M  V30 2142 N 212.979 -4.42594 -3.46506 0
M  V30 2143 H 205.13 -2.09221 -0.366094 0
M  V30 2144 H 207.393 -0.921003 -0.224629 0
M  V30 2145 H 207.099 -3.228 -1.39618 0
M  V30 2146 H 206.973 -2.37934 -2.9269 0
M  V30 2147 H 209.36 -1.45494 -2.5674 0
M  V30 2148 H 209.441 -2.33857 -1.03657 0
M  V30 2149 H 209.085 -4.52545 -2.30576 0
M  V30 2150 H 209.015 -3.61092 -3.83302 0
M  V30 2151 H 211.506 -2.87022 -2.45819 0
M  V30 2152 H 211.819 -6.25704 -4.53557 0
M  V30 2153 H 210.164 -5.62305 -4.08459 0
M  V30 2154 H 213.355 -3.60953 -2.98045 0
M  V30 2155 H 213.528 -5.15381 -3.92793 0
M  V30 2156 N 206.934 1.1197 -1.10907 0
M  V30 2157 C 208.35 1.35591 -0.841852 0
M  V30 2158 C 208.55 1.94233 0.536246 0
M  V30 2159 O 207.606 2.1717 1.28816 0
M  V30 2160 C 208.919 2.29284 -1.94549 0
M  V30 2161 C 210.467 2.42862 -1.97451 0
M  V30 2162 C 210.942 3.39873 -3.07002 0
M  V30 2163 N 212.433 3.47433 -3.06341 0
M  V30 2164 C 213.168 4.22421 -3.87748 0
M  V30 2165 N 212.664 5.00432 -4.79103 0
M  V30 2166 N 214.457 4.17876 -3.75946 0
M  V30 2167 H 206.608 0.722664 -1.99728 0
M  V30 2168 H 208.871 0.380635 -0.868229 0
M  V30 2169 H 208.577 1.93378 -2.93765 0
M  V30 2170 H 208.451 3.29452 -1.83688 0
M  V30 2171 H 210.838 2.78046 -0.988645 0
M  V30 2172 H 210.919 1.42566 -2.12388 0
M  V30 2173 H 210.563 3.05417 -4.05811 0
M  V30 2174 H 210.493 4.40011 -2.89306 0
M  V30 2175 H 212.984 2.91784 -2.40147 0
M  V30 2176 H 213.297 5.55002 -5.37766 0
M  V30 2177 H 211.642 4.99612 -4.83128 0
M  V30 2178 H 214.833 3.56016 -3.03924 0
M  V30 2179 H 215.006 4.76061 -4.39624 0
M  V30 2180 N 208.412 0.89855 1.29475 0
M  V30 2181 C 209.652 0.530771 1.97388 0
M  V30 2182 C 210.016 -0.905832 1.69289 0
M  V30 2183 O 211.217 -1.38042 2.30646 0
M  V30 2184 C 209.488 0.81369 3.48014 0
M  V30 2185 S 211.047 0.550048 4.35339 0
M  V30 2186 H 207.865 0.196956 0.683176 0
M  V30 2187 H 210.467 1.16074 1.57312 0
M  V30 2188 H 209.171 1.85749 3.65958 0
M  V30 2189 H 208.702 0.171795 3.93025 0
M  V30 2190 H 210.717 -0.605423 4.92493 0
M  V30 2191 N 209.89 -1.43072 0.660911 0
M  V30 2192 C 211.136 -2.0202 0.177708 0
M  V30 2193 C 211.469 -1.52066 -1.20787 0
M  V30 2194 O 210.744 -0.716987 -1.80802 0
M  V30 2195 C 211.027 -3.59561 0.197019 0
M  V30 2196 C 210.88 -4.19727 1.61706 0
M  V30 2197 C 212.199 -4.37664 -0.462396 0
M  V30 2198 H 209.318 -0.734034 0.0660494 0
M  V30 2199 H 211.96 -1.70272 0.843058 0
M  V30 2200 H 210.11 -3.86739 -0.369527 0
M  V30 2201 H 211.782 -4.03553 2.23479 0
M  V30 2202 H 210.025 -3.76084 2.16201 0
M  V30 2203 H 210.696 -5.28834 1.58237 0
M  V30 2204 H 213.172 -4.16095 0.0197215 0
M  V30 2205 H 212.048 -5.47305 -0.418188 0
M  V30 2206 H 212.309 -4.14493 -1.53778 0
M  V30 2207 N 211.368 -0.403325 -1.52352 0
M  V30 2208 C 212.784 -0.0539281 -1.59509 0
M  V30 2209 C 212.984 1.43307 -1.41652 0
M  V30 2210 O 212.04 2.19924 -1.24056 0
M  V30 2211 C 213.353 -0.543654 -2.95745 0
M  V30 2212 C 214.901 -0.501125 -3.08962 0
M  V30 2213 C 215.376 -0.967267 -4.47669 0
M  V30 2214 N 216.867 -0.923849 -4.53893 0
M  V30 2215 C 217.602 -1.25578 -5.5948 0
M  V30 2216 N 217.098 -1.65889 -6.72646 0
M  V30 2217 N 218.891 -1.17613 -5.49658 0
M  V30 2218 H 211.042 -1.37123 -1.62206 0
M  V30 2219 H 213.305 -0.56294 -0.76276 0
M  V30 2220 H 213.011 -1.58275 -3.14073 0
M  V30 2221 H 212.885 0.0498042 -3.77167 0
M  V30 2222 H 215.272 0.528909 -2.90321 0
M  V30 2223 H 215.353 -1.13056 -2.2946 0
M  V30 2224 H 214.997 -1.9956 -4.67053 0
M  V30 2225 H 214.927 -0.314698 -5.25659 0
M  V30 2226 H 217.418 -0.627403 -3.72655 0
M  V30 2227 H 217.731 -1.89543 -7.49195 0
M  V30 2228 H 216.076 -1.69787 -6.73942 0
M  V30 2229 H 219.267 -0.860115 -4.6013 0
M  V30 2230 H 219.44 -1.43812 -6.3184 0
M  V30 2231 N 212.846 1.57033 -0.133567 0
M  V30 2232 C 214.071 2.00475 0.531477 0
M  V30 2233 C 214.496 1.01291 1.58499 0
M  V30 2234 O 213.854 -0.0133279 1.81295 0
M  V30 2235 C 213.902 3.42729 1.12113 0
M  V30 2236 O 213.006 3.46498 2.23636 0
M  V30 2237 H 212.347 0.650876 0.131362 0
M  V30 2238 H 214.877 2.03344 -0.22634 0
M  V30 2239 H 214.887 3.81246 1.4531 0
M  V30 2240 H 213.562 4.14428 0.349557 0
M  V30 2241 H 212.139 3.19811 1.91769 0
M  V30 2242 N 214.325 -0.140222 1.56975 0
M  V30 2243 C 215.571 -0.852949 1.83991 0
M  V30 2244 C 215.904 -1.80512 0.716187 0
M  V30 2245 O 215.179 -1.92479 -0.279681 0
M  V30 2246 C 215.462 -1.6215 3.21527 0
M  V30 2247 C 215.315 -0.690363 4.4447 0
M  V30 2248 C 216.634 -2.58247 3.56366 0
M  V30 2249 H 213.753 -0.308634 0.669264 0
M  V30 2250 H 216.395 -0.117898 1.89634 0
M  V30 2251 H 214.545 -2.24812 3.16847 0
M  V30 2252 H 216.217 -0.0742264 4.6124 0
M  V30 2253 H 214.46 -0.000396433 4.338 0
M  V30 2254 H 215.131 -1.2643 5.37326 0
M  V30 2255 H 217.607 -2.05701 3.61699 0
M  V30 2256 H 216.483 -3.09067 4.53617 0
M  V30 2257 H 216.744 -3.39923 2.82674 0
M  V30 2258 N 215.803 -1.52179 -0.40978 0
M  V30 2259 C 217.214 -1.58377 -0.988615 0
M  V30 2260 C 217.565 -0.423879 -1.91566 0
M  V30 2261 O 216.69 0.455844 -2.11544 0
M  V30 2262 C 217.285 -2.87044 -1.79976 0
M  V30 2263 C 215.844 -2.95722 -2.32863 0
M  V30 2264 C 214.991 -2.53309 -1.12828 0
M  V30 2265 H 217.942 -1.57558 -0.190039 0
M  V30 2266 H 217.963 -2.7236 -2.65707 0
M  V30 2267 H 217.475 -3.71444 -1.12478 0
M  V30 2268 H 215.576 -2.15814 -3.03735 0
M  V30 2269 H 215.689 -3.99951 -2.63773 0
M  V30 2270 H 214.053 -2.07142 -1.48204 0
M  V30 2271 H 214.836 -3.40082 -0.46897 0
M  V30 2272 N 217.281 0.66697 -1.42791 0
M  V30 2273 C 218.506 1.46004 -1.47301 0
M  V30 2274 C 218.931 1.87894 -0.0880317 0
M  V30 2275 O 218.289 1.56502 0.915253 0
M  V30 2276 C 218.337 2.68031 -2.41229 0
M  V30 2277 O 217.441 3.6659 -1.88906 0
M  V30 2278 H 216.782 0.43832 -0.49877 0
M  V30 2279 H 219.312 0.817391 -1.87563 0
M  V30 2280 H 219.322 3.1601 -2.58073 0
M  V30 2281 H 217.997 2.36883 -3.41847 0
M  V30 2282 H 216.574 3.25661 -1.81656 0
M  V30 2283 N 218.759 1.29093 0.90403 0
M  V30 2284 C 219.689 1.16401 2.02418 0
M  V30 2285 C 220.67 0.0593085 1.69997 0
M  V30 2286 O 221.855 0.238021 1.92736 0
M  V30 2287 C 218.985 0.835233 3.37107 0
M  V30 2288 C 217.939 1.89578 3.83724 0
M  V30 2289 C 217.265 1.42041 5.15489 0
M  V30 2290 C 218.565 3.30394 4.04521 0
M  V30 2291 H 220.259 2.10109 2.13295 0
M  V30 2292 H 217.805 1.01157 1.02486 0
M  V30 2293 H 219.758 0.733169 4.14973 0
M  V30 2294 H 218.482 -0.137543 3.2631 0
M  V30 2295 H 217.141 1.98715 3.08071 0
M  V30 2296 H 216.789 0.436426 5.01103 0
M  V30 2297 H 216.489 2.12964 5.4765 0
M  V30 2298 H 218.013 1.33176 5.959 0
M  V30 2299 H 219.427 3.24123 4.72882 0
M  V30 2300 H 217.824 3.99237 4.48029 0
M  V30 2301 H 218.894 3.73692 3.09002 0
M  V30 2302 N 220.237 -1.11381 1.11499 0
M  V30 2303 C 221.477 -1.84763 0.874188 0
M  V30 2304 C 221.841 -1.82726 -0.589496 0
M  V30 2305 O 223.042 -2.51562 -0.947089 0
M  V30 2306 C 221.313 -3.27931 1.42112 0
M  V30 2307 S 222.872 -4.18557 1.31739 0
M  V30 2308 H 219.69 -0.637115 0.315603 0
M  V30 2309 H 222.292 -1.34097 1.42261 0
M  V30 2310 H 220.996 -3.26978 2.48019 0
M  V30 2311 H 220.527 -3.83665 0.869761 0
M  V30 2312 H 222.542 -4.95396 0.282335 0
M  V30 2313 N 221.715 -0.905404 -1.28997 0
M  V30 2314 C 222.963 -0.533192 -1.9494 0
M  V30 2315 C 223.284 0.924618 -1.71685 0
M  V30 2316 O 222.554 1.65268 -1.05183 0
M  V30 2317 H 221.134 -0.194194 -0.721317 0
M  V30 2318 H 223.796 -1.15294 -1.57141 0
M  V30 2319 H 222.892 -0.72059 -3.03667 0
M  V30 2320 N 223.193 1.4272 -0.668489 0
M  V30 2321 C 224.439 2.01923 -0.188419 0
M  V30 2322 C 224.772 1.52704 1.19979 0
M  V30 2323 O 224.047 0.726566 1.8042 0
M  V30 2324 C 224.33 3.59451 -0.216085 0
M  V30 2325 C 224.183 4.18864 -1.6393 0
M  V30 2326 C 225.502 4.37903 0.439179 0
M  V30 2327 H 222.621 0.733674 -0.0699412 0
M  V30 2328 H 225.263 1.69822 -0.852076 0
M  V30 2329 H 223.413 3.86929 0.349012 0
M  V30 2330 H 225.085 4.02362 -2.25616 0
M  V30 2331 H 223.328 3.74933 -2.18193 0
M  V30 2332 H 223.999 5.27987 -1.61039 0
M  V30 2333 H 226.475 4.16079 -0.0417878 0
M  V30 2334 H 225.351 5.47519 0.389157 0
M  V30 2335 H 225.612 4.15303 1.51577 0
M  V30 2336 N 224.671 0.411399 1.52136 0
M  V30 2337 C 225.948 -0.222308 1.94333 0
M  V30 2338 C 226.328 -1.6242 1.34844 0
M  V30 2339 O 225.676 -2.22384 0.525145 0
M  V30 2340 C 225.886 -0.226345 3.48265 0
M  V30 2341 C 227.234 -0.444592 4.22266 0
M  V30 2342 O 228.258 -0.305602 3.54887 0
M  V30 2343 O 227.117 -0.718749 5.41753 0
M  V30 2344 H 224.211 -0.143907 0.814383 0
M  V30 2345 H 226.757 0.467506 1.63133 0
M  V30 2346 H 225.529 0.75475 3.83952 0
M  V30 2347 H 225.152 -0.960163 3.85832 0
M  V30 2348 N 226.149 -1.5696 0.141893 0
M  V30 2349 C 227.099 -2.13074 -0.811383 0
M  V30 2350 C 228.083 -1.05726 -1.21288 0
M  V30 2351 O 229.275 -1.31914 -1.18015 0
M  V30 2352 C 226.404 -2.75186 -2.0525 0
M  V30 2353 C 225.49 -3.8965 -1.67432 0
M  V30 2354 N 225.881 -4.95733 -1.0041 0
M  V30 2355 C 224.179 -4.00262 -1.96739 0
M  V30 2356 C 224.88 -5.75858 -0.822345 0
M  V30 2357 N 223.856 -5.26452 -1.3546 0
M  V30 2358 H 227.658 -2.92465 -0.290031 0
M  V30 2359 H 225.172 -1.6229 -0.0598218 0
M  V30 2360 H 227.169 -3.13745 -2.74535 0
M  V30 2361 H 225.829 -1.97266 -2.57907 0
M  V30 2362 H 226.84 -5.13607 -0.665441 0
M  V30 2363 H 223.517 -3.33412 -2.51282 0
M  V30 2364 H 224.907 -6.71254 -0.294496 0
M  V30 2365 N 227.627 0.131896 -1.57047 0
M  V30 2366 C 228.855 0.856461 -1.88341 0
M  V30 2367 C 229.27 1.74042 -0.731757 0
M  V30 2368 O 228.627 1.80051 0.297945 0
M  V30 2369 C 228.678 1.70064 -3.18999 0
M  V30 2370 O 228.399 0.852278 -4.2973 0
M  V30 2371 C 229.9 2.53148 -3.63911 0
M  V30 2372 H 227.12 0.246885 -0.62393 0
M  V30 2373 H 229.664 0.120152 -2.04147 0
M  V30 2374 H 227.819 2.38984 -3.04902 0
M  V30 2375 H 228.233 1.43329 -5.04537 0
M  V30 2376 H 229.707 3.07931 -4.58129 0
M  V30 2377 H 230.184 3.29901 -2.89935 0
M  V30 2378 H 230.79 1.89492 -3.80753 0
M  V30 2379 N 229.106 1.52395 0.401703 0
M  V30 2380 C 230.016 1.7917 1.51444 0
M  V30 2381 C 231.032 0.677691 1.6026 0
M  V30 2382 O 232.208 0.963909 1.76835 0
M  V30 2383 C 229.273 1.94347 2.87107 0
M  V30 2384 C 228.334 3.18257 2.88116 0
M  V30 2385 C 227.567 3.32701 4.17308 0
M  V30 2386 O 227.79 2.52238 5.11598 0
M  V30 2387 O 226.724 4.25891 4.25324 0
M  V30 2388 H 230.55 2.73633 1.31752 0
M  V30 2389 H 228.135 1.3733 0.588296 0
M  V30 2390 H 230.017 2.06109 3.67555 0
M  V30 2391 H 228.692 1.03073 3.06851 0
M  V30 2392 H 227.599 3.11947 2.06494 0
M  V30 2393 H 228.932 4.09336 2.73322 0
M  V30 2394 N 230.584 -0.659388 1.43143 0
M  V30 2395 C 232 -0.974337 1.26407 0
M  V30 2396 C 232.2 -2.007 0.179341 0
M  V30 2397 O 231.256 -2.4856 -0.444295 0
M  V30 2398 C 232.569 -1.46447 2.62628 0
M  V30 2399 C 234.117 -1.58144 2.7011 0
M  V30 2400 C 234.592 -2.1055 4.06734 0
M  V30 2401 N 236.083 -2.17861 4.08767 0
M  V30 2402 C 236.818 -2.59519 5.1131 0
M  V30 2403 N 236.314 -3.00518 6.24228 0
M  V30 2404 N 238.107 -2.59404 4.98664 0
M  V30 2405 H 230.258 0.0240528 2.12386 0
M  V30 2406 H 232.521 -0.0518065 0.946583 0
M  V30 2407 H 232.227 -0.780123 3.42939 0
M  V30 2408 H 232.101 -2.44058 2.87603 0
M  V30 2409 H 234.488 -2.25682 1.90136 0
M  V30 2410 H 234.569 -0.589828 2.48907 0
M  V30 2411 H 234.213 -1.43616 4.87172 0
M  V30 2412 H 234.143 -3.10531 4.25298 0
M  V30 2413 H 236.634 -1.88975 3.27257 0
M  V30 2414 H 236.947 -3.31036 6.98309 0
M  V30 2415 H 235.292 -2.98337 6.2771 0
M  V30 2416 H 238.483 -2.26747 4.09516 0
M  V30 2417 H 238.656 -2.91548 5.78709 0
M  V30 2418 N 232.062 -1.29571 -0.897171 0
M  V30 2419 C 233.478 -1.07637 -1.17841 0
M  V30 2420 C 233.678 0.170713 -2.00776 0
M  V30 2421 O 232.734 0.867768 -2.3712 0
M  V30 2422 C 234.047 -2.3332 -1.8969 0
M  V30 2423 C 235.595 -2.38664 -2.02505 0
M  V30 2424 C 236.07 -3.64157 -2.77765 0
M  V30 2425 N 237.561 -3.64894 -2.85318 0
M  V30 2426 C 238.296 -4.58679 -3.44094 0
M  V30 2427 N 237.792 -5.62799 -4.04017 0
M  V30 2428 N 239.585 -4.46245 -3.41793 0
M  V30 2429 H 231.736 -2.09598 -0.343883 0
M  V30 2430 H 233.999 -0.923333 -0.214848 0
M  V30 2431 H 233.705 -3.24262 -1.36187 0
M  V30 2432 H 233.579 -2.41025 -2.9015 0
M  V30 2433 H 235.966 -1.48208 -2.55183 0
M  V30 2434 H 236.047 -2.34943 -1.01171 0
M  V30 2435 H 235.691 -4.54965 -2.25763 0
M  V30 2436 H 235.621 -3.65137 -3.7945 0
M  V30 2437 H 238.112 -2.89613 -2.42761 0
M  V30 2438 H 238.425 -6.3048 -4.46895 0
M  V30 2439 H 236.77 -5.66605 -4.02472 0
M  V30 2440 H 239.961 -3.64094 -2.94199 0
M  V30 2441 H 240.134 -5.19518 -3.87304 0
M  V30 2442 N 233.54 1.10788 -1.12088 0
M  V30 2443 C 234.788 1.8231 -0.872205 0
M  V30 2444 C 235.109 1.85419 0.603709 0
M  V30 2445 O 234.379 1.32963 1.43867 0
M  V30 2446 H 232.959 0.675137 -0.319686 0
M  V30 2447 H 235.621 1.34068 -1.41463 0
M  V30 2448 H 234.717 2.85955 -1.25045 0
M  V30 2449 N 235.018 0.912232 1.28515 0
M  V30 2450 C 236.434 0.610159 1.47476 0
M  V30 2451 C 236.634 -0.844955 1.82928 0
M  V30 2452 O 235.69 -1.62416 1.93332 0
M  V30 2453 C 237.003 1.54675 2.57868 0
M  V30 2454 C 238.551 1.55331 2.71738 0
M  V30 2455 C 239.026 2.47649 3.85272 0
M  V30 2456 N 240.517 2.45767 3.92623 0
M  V30 2457 C 241.252 3.13896 4.79851 0
M  V30 2458 N 240.748 3.9135 5.71679 0
M  V30 2459 N 242.541 3.02991 4.73448 0
M  V30 2460 H 234.692 1.85318 1.03783 0
M  V30 2461 H 236.955 0.794777 0.516753 0
M  V30 2462 H 236.661 2.5841 2.38574 0
M  V30 2463 H 236.535 1.27671 3.54937 0
M  V30 2464 H 238.922 0.52335 2.90422 0
M  V30 2465 H 239.003 1.86378 1.75205 0
M  V30 2466 H 238.647 3.50745 3.67342 0
M  V30 2467 H 238.577 2.13904 4.81199 0
M  V30 2468 H 241.068 1.89503 3.26951 0
M  V30 2469 H 241.381 4.40359 6.35062 0
M  V30 2470 H 239.726 3.95455 5.71524 0
M  V30 2471 H 242.917 2.41987 4.007 0
M  V30 2472 H 243.09 3.5636 5.41213 0
M  V30 2473 N 236.496 -1.42363 0.676048 0
M  V30 2474 C 237.426 -2.33497 0.0124832 0
M  V30 2475 C 238.407 -1.50748 -0.787981 0
M  V30 2476 O 239.592 -1.79346 -0.744884 0
M  V30 2477 C 236.722 -3.34377 -0.938582 0
M  V30 2478 C 235.676 -4.27289 -0.246622 0
M  V30 2479 C 235.002 -5.18386 -1.31071 0
M  V30 2480 C 236.302 -5.14916 0.875125 0
M  V30 2481 H 237.996 -2.89233 0.773593 0
M  V30 2482 H 235.542 -1.39073 0.37346 0
M  V30 2483 H 237.495 -3.97044 -1.41188 0
M  V30 2484 H 236.219 -2.76947 -1.73113 0
M  V30 2485 H 234.878 -3.66018 0.206456 0
M  V30 2486 H 234.526 -4.57282 -2.09528 0
M  V30 2487 H 234.226 -5.81378 -0.852839 0
M  V30 2488 H 235.75 -5.83929 -1.78492 0
M  V30 2489 H 237.164 -5.71262 0.482983 0
M  V30 2490 H 235.561 -5.86747 1.25887 0
M  V30 2491 H 236.631 -4.53242 1.72335 0
M  V30 2492 N 237.974 -0.419461 -1.51915 0
M  V30 2493 C 238.906 0.43646 -2.25006 0
M  V30 2494 C 239.919 1.00149 -1.28351 0
M  V30 2495 O 241.108 0.898674 -1.54227 0
M  V30 2496 C 238.208 1.6206 -2.9764 0
M  V30 2497 C 237.381 1.17763 -4.21249 0
M  V30 2498 C 236.44 2.22985 -4.76617 0
M  V30 2499 O 235.466 1.83151 -5.38929 0
M  V30 2500 N 236.668 3.55271 -4.59089 0
M  V30 2501 H 239.433 -0.18989 -2.99098 0
M  V30 2502 H 236.994 -0.247386 -1.59999 0
M  V30 2503 H 238.986 2.32038 -3.31573 0
M  V30 2504 H 237.556 2.15266 -2.2667 0
M  V30 2505 H 236.776 0.305582 -3.93014 0
M  V30 2506 H 238.064 0.858781 -5.015 0
M  V30 2507 H 237.462 3.90377 -4.09417 0
M  V30 2508 H 236.019 4.21195 -4.97432 0
M  V30 2509 N 239.452 1.56882 -0.150215 0
M  V30 2510 C 240.382 2.19935 0.784284 0
M  V30 2511 C 241.363 1.14854 1.25469 0
M  V30 2512 O 242.548 1.43209 1.31168 0
M  V30 2513 C 239.678 2.82349 2.02229 0
M  V30 2514 C 238.632 3.93285 1.68853 0
M  V30 2515 C 237.958 4.42649 2.99944 0
M  V30 2516 C 239.258 5.13904 0.932714 0
M  V30 2517 H 240.952 2.9828 0.258781 0
M  V30 2518 H 238.498 1.43473 0.123029 0
M  V30 2519 H 240.451 3.25126 2.68088 0
M  V30 2520 H 239.175 2.0134 2.57157 0
M  V30 2521 H 237.834 3.5113 1.05371 0
M  V30 2522 H 237.482 3.58458 3.52869 0
M  V30 2523 H 237.182 5.17476 2.78374 0
M  V30 2524 H 238.706 4.88099 3.66868 0
M  V30 2525 H 240.12 5.53506 1.49345 0
M  V30 2526 H 238.517 5.94515 0.81684 0
M  V30 2527 H 239.587 4.84842 -0.0749568 0
M  V30 2528 N 240.93 -0.123565 1.57115 0
M  V30 2529 C 241.84 -1.17074 2.033 0
M  V30 2530 C 242.856 -1.4561 0.952559 0
M  V30 2531 O 244.032 -1.56817 1.26374 0
M  V30 2532 C 241.097 -2.47857 2.42421 0
M  V30 2533 C 240.158 -2.26758 3.64526 0
M  V30 2534 C 239.391 -3.51305 4.01771 0
M  V30 2535 O 239.614 -4.5843 3.39409 0
M  V30 2536 O 238.548 -3.42578 4.94898 0
M  V30 2537 H 242.374 -0.808555 2.92739 0
M  V30 2538 H 239.959 -0.334027 1.45618 0
M  V30 2539 H 241.841 -3.2492 2.68338 0
M  V30 2540 H 240.516 -2.83558 1.5613 0
M  V30 2541 H 239.423 -1.47569 3.43765 0
M  V30 2542 H 240.756 -1.95963 4.51508 0
M  V30 2543 N 242.408 -1.52605 -0.393616 0
M  V30 2544 C 243.657 -1.66649 -1.13627 0
M  V30 2545 C 243.97 -0.410364 -1.91247 0
M  V30 2546 O 245.176 -0.430854 -2.68059 0
M  V30 2547 C 243.632 -2.9449 -2.06891 0
M  V30 2548 C 243.24 -4.27266 -1.34714 0
M  V30 2549 C 244.984 -3.17899 -2.81319 0
M  V30 2550 C 242.891 -5.46217 -2.26717 0
M  V30 2551 H 241.821 -0.62084 -0.427871 0
M  V30 2552 H 244.472 -1.791 -0.399428 0
M  V30 2553 H 242.854 -2.75774 -2.84191 0
M  V30 2554 H 244.028 -4.56518 -0.626714 0
M  V30 2555 H 242.343 -4.10081 -0.722643 0
M  V30 2556 H 244.94 -4.03949 -3.50328 0
M  V30 2557 H 245.283 -2.32777 -3.45139 0
M  V30 2558 H 245.816 -3.37159 -2.11113 0
M  V30 2559 H 242.555 -6.33733 -1.67521 0
M  V30 2560 H 242.075 -5.21283 -2.96689 0
M  V30 2561 H 243.754 -5.7991 -2.86903 0
M  V30 2562 N 243.887 0.651787 -1.4349 0
M  V30 2563 C 245.303 0.96762 -1.26922 0
M  V30 2564 C 245.503 2.00602 -0.189982 0
M  V30 2565 O 244.559 2.48793 0.431107 0
M  V30 2566 C 245.872 1.45052 -2.63401 0
M  V30 2567 C 247.42 1.5671 -2.70945 0
M  V30 2568 C 247.895 2.0839 -4.07845 0
M  V30 2569 N 249.386 2.1569 -4.09917 0
M  V30 2570 C 250.121 2.56804 -5.12679 0
M  V30 2571 N 249.617 2.97203 -6.25813 0
M  V30 2572 N 251.41 2.56756 -5.00033 0
M  V30 2573 H 243.561 -0.0353158 -2.12371 0
M  V30 2574 H 245.824 0.0467858 -0.946845 0
M  V30 2575 H 245.53 0.761926 -3.43348 0
M  V30 2576 H 245.404 2.42529 -2.88894 0
M  V30 2577 H 247.791 2.2467 -1.9133 0
M  V30 2578 H 247.872 0.57662 -2.49216 0
M  V30 2579 H 247.516 1.41031 -4.87927 0
M  V30 2580 H 247.446 3.08271 -4.26938 0
M  V30 2581 H 249.937 1.87237 -3.28254 0
M  V30 2582 H 250.25 3.27328 -7.00055 0
M  V30 2583 H 248.595 2.95004 -6.29283 0
M  V30 2584 H 251.786 2.24572 -4.10713 0
M  V30 2585 H 251.959 2.88475 -5.80247 0
M  V30 2586 N 245.365 1.30045 0.890287 0
M  V30 2587 C 246.328 1.15963 1.977 0
M  V30 2588 C 247.328 0.0923777 1.60534 0
M  V30 2589 O 248.518 0.340071 1.70848 0
M  V30 2590 C 245.65 0.775451 3.31963 0
M  V30 2591 H 246.843 2.12502 2.11619 0
M  V30 2592 H 244.396 1.13366 1.07601 0
M  V30 2593 H 245.131 -0.189671 3.23745 0
M  V30 2594 H 244.916 1.54668 3.60306 0
M  V30 2595 H 246.406 0.700251 4.11687 0
M  V30 2596 N 246.843 -1.10192 1.12674 0
M  V30 2597 C 248.254 -1.63707 0.897604 0
M  V30 2598 C 248.605 -1.87812 -0.567546 0
M  V30 2599 O 247.73 -1.62196 -1.43253 0
M  V30 2600 C 248.325 -2.974 1.62292 0
M  V30 2601 C 246.884 -3.47772 1.43986 0
M  V30 2602 C 246.031 -2.22332 1.65722 0
M  V30 2603 H 248.982 -0.936587 1.28116 0
M  V30 2604 H 249.003 -3.64986 1.07541 0
M  V30 2605 H 248.515 -2.79824 2.68924 0
M  V30 2606 H 246.616 -3.70487 0.396206 0
M  V30 2607 H 246.729 -4.25723 2.19765 0
M  V30 2608 H 245.093 -2.30599 1.08149 0
M  V30 2609 H 245.876 -2.07285 2.73657 0
M  V30 2610 N 248.321 -0.919034 -1.28029 0
M  V30 2611 C 249.549 -0.570971 -1.98866 0
M  V30 2612 C 249.964 0.848996 -1.68634 0
M  V30 2613 O 249.321 1.56307 -0.942036 0
M  V30 2614 C 249.372 -0.776876 -3.53054 0
M  V30 2615 O 249.093 -2.14097 -3.82222 0
M  V30 2616 C 250.594 -0.436356 -4.41147 0
M  V30 2617 H 247.814 -0.217175 -0.634883 0
M  V30 2618 H 250.358 -1.23368 -1.63097 0
M  V30 2619 H 248.513 -0.161085 -3.87065 0
M  V30 2620 H 248.927 -2.18455 -4.76841 0
M  V30 2621 H 250.401 -0.63117 -5.4838 0
M  V30 2622 H 250.878 0.627686 -4.34692 0
M  V30 2623 H 251.484 -1.02991 -4.12641 0
M  V30 2624 N 249.799 1.42003 -0.683588 0
M  V30 2625 C 250.762 2.29191 -0.0198243 0
M  V30 2626 C 251.762 1.43773 0.72013 0
M  V30 2627 O 252.952 1.65061 0.556815 0
M  V30 2628 C 250.084 3.26435 0.982487 0
M  V30 2629 H 251.277 2.8938 -0.787345 0
M  V30 2630 H 248.83 1.49789 -0.446418 0
M  V30 2631 H 249.565 2.71203 1.77819 0
M  V30 2632 H 249.35 3.89449 0.455182 0
M  V30 2633 H 250.84 3.918 1.44508 0
M  V30 2634 N 251.277 0.427512 1.51691 0
M  V30 2635 C 252.554 -0.201684 1.94557 0
M  V30 2636 C 252.934 -1.60981 1.36559 0
M  V30 2637 O 252.282 -2.21814 0.548702 0
M  V30 2638 C 252.492 -0.189394 3.48486 0
M  V30 2639 C 253.84 -0.39978 4.22714 0
M  V30 2640 O 254.864 -0.267945 3.55191 0
M  V30 2641 O 253.723 -0.661249 5.42485 0
M  V30 2642 H 250.817 -0.135261 0.815864 0
M  V30 2643 H 253.363 0.484782 1.62628 0
M  V30 2644 H 252.135 0.795431 3.8313 0
M  V30 2645 H 251.758 -0.919187 3.86829 0
M  V30 2646 N 252.755 -1.56801 0.158532 0
M  V30 2647 C 253.665 -2.20916 -0.789518 0
M  V30 2648 C 254.681 -1.1969 -1.26294 0
M  V30 2649 O 255.857 -1.52308 -1.31773 0
M  V30 2650 C 252.922 -2.82727 -2.00665 0
M  V30 2651 C 251.983 -3.99114 -1.58134 0
M  V30 2652 C 251.216 -4.57968 -2.74045 0
M  V30 2653 O 251.439 -4.15704 -3.90572 0
M  V30 2654 O 250.373 -5.48047 -2.48855 0
M  V30 2655 H 254.199 -3.02464 -0.273681 0
M  V30 2656 H 251.784 -1.4924 -0.0690548 0
M  V30 2657 H 253.666 -3.21968 -2.71872 0
M  V30 2658 H 252.341 -2.04184 -2.51179 0
M  V30 2659 H 251.248 -3.64567 -0.839155 0
M  V30 2660 H 252.581 -4.79212 -1.12325 0
M  V30 2661 N 254.233 0.115231 -1.57178 0
M  V30 2662 C 255.482 0.820945 -1.84237 0
M  V30 2663 C 255.795 1.80866 -0.744761 0
M  V30 2664 O 257.001 2.56083 -0.901871 0
M  V30 2665 C 255.457 1.51072 -3.26658 0
M  V30 2666 C 255.065 0.563795 -4.44438 0
M  V30 2667 C 256.809 2.20134 -3.62962 0
M  V30 2668 C 254.716 1.25701 -5.77887 0
M  V30 2669 H 253.646 0.310328 -0.687177 0
M  V30 2670 H 256.297 0.0737134 -1.83352 0
M  V30 2671 H 254.679 2.30471 -3.22024 0
M  V30 2672 H 255.853 -0.197247 -4.60378 0
M  V30 2673 H 254.168 -0.0200638 -4.16395 0
M  V30 2674 H 256.765 2.72696 -4.59936 0
M  V30 2675 H 257.108 2.98107 -2.90582 0
M  V30 2676 H 257.641 1.47619 -3.69396 0
M  V30 2677 H 254.38 0.518493 -6.53446 0
M  V30 2678 H 253.9 1.98997 -5.65827 0
M  V30 2679 H 255.579 1.78915 -6.2177 0
M  V30 2680 N 255.711 1.52812 0.385517 0
M  V30 2681 C 256.661 1.74219 1.47078 0
M  V30 2682 C 257.645 0.59632 1.49442 0
M  V30 2683 O 258.837 0.85428 1.5502 0
M  V30 2684 C 255.966 1.9176 2.84751 0
M  V30 2685 C 255.052 3.12289 2.86943 0
M  V30 2686 N 255.443 4.34575 2.58802 0
M  V30 2687 C 253.741 3.12605 3.1811 0
M  V30 2688 C 254.442 5.162 2.68166 0
M  V30 2689 N 253.418 4.51964 3.02043 0
M  V30 2690 H 257.22 2.6639 1.24152 0
M  V30 2691 H 254.734 1.51166 0.593504 0
M  V30 2692 H 256.731 2.05218 3.62893 0
M  V30 2693 H 255.391 1.00805 3.08656 0
M  V30 2694 H 256.402 4.62649 2.32759 0
M  V30 2695 H 253.079 2.31472 3.47458 0
M  V30 2696 H 254.469 6.23689 2.49923 0
M  V30 2697 N 257.189 -0.644168 1.43834 0
M  V30 2698 C 258.435 -1.40603 1.46146 0
M  V30 2699 C 258.768 -1.93997 0.0887717 0
M  V30 2700 O 258.043 -1.72854 -0.891724 0
M  V30 2701 C 258.326 -2.58086 2.51124 0
M  V30 2702 C 258.179 -2.10126 3.97702 0
M  V30 2703 C 259.498 -3.60291 2.52742 0
M  V30 2704 H 256.617 -0.509905 0.532134 0
M  V30 2705 H 259.259 -0.729502 1.75437 0
M  V30 2706 H 257.409 -3.15801 2.26278 0
M  V30 2707 H 259.081 -1.57342 4.33637 0
M  V30 2708 H 257.324 -1.41419 4.10101 0
M  V30 2709 H 257.995 -2.94649 4.66783 0
M  V30 2710 H 260.471 -3.12352 2.7491 0
M  V30 2711 H 259.347 -4.40032 3.28121 0
M  V30 2712 H 259.608 -4.1349 1.56455 0
M  V30 2713 N 258.668 -1.30515 -0.883378 0
M  V30 2714 C 259.896 -1.22359 -1.66841 0
M  V30 2715 C 260.311 0.213296 -1.87591 0
M  V30 2716 O 259.668 1.14075 -1.42454 0
M  V30 2717 C 259.719 -1.95011 -3.04389 0
M  V30 2718 O 259.44 -3.3309 -2.84575 0
M  V30 2719 C 260.941 -1.93532 -3.98824 0
M  V30 2720 H 258.161 -0.423371 -0.520575 0
M  V30 2721 H 260.705 -1.72167 -1.10357 0
M  V30 2722 H 258.86 -1.48997 -3.57601 0
M  V30 2723 H 259.274 -3.69907 -3.71846 0
M  V30 2724 H 260.748 -2.48902 -4.92699 0
M  V30 2725 H 261.225 -0.914627 -4.29571 0
M  V30 2726 H 261.831 -2.39364 -3.51547 0
M  V30 2727 N 260.146 1.09593 -1.13257 0
M  V30 2728 C 261.392 1.82003 -0.89458 0
M  V30 2729 C 261.725 1.85402 0.577906 0
M  V30 2730 O 261 1.32099 1.42759 0
M  V30 2731 C 261.283 3.28237 -1.48096 0
M  V30 2732 C 261.136 3.3312 -3.02244 0
M  V30 2733 C 262.455 4.24871 -1.14774 0
M  V30 2734 H 259.574 0.66077 -0.326424 0
M  V30 2735 H 262.216 1.28389 -1.40058 0
M  V30 2736 H 260.366 3.74024 -1.05062 0
M  V30 2737 H 262.038 2.95748 -3.54021 0
M  V30 2738 H 260.281 2.72756 -3.37323 0
M  V30 2739 H 260.952 4.3613 -3.38371 0
M  V30 2740 H 263.428 3.87361 -1.51957 0
M  V30 2741 H 262.304 5.25532 -1.58452 0
M  V30 2742 H 262.565 4.42058 -0.0611849 0
M  V30 2743 N 261.624 0.925811 1.2754 0
M  V30 2744 C 262.872 0.564138 1.94067 0
M  V30 2745 C 263.193 -0.897188 1.73134 0
M  V30 2746 O 262.463 -1.63573 1.07799 0
M  V30 2747 H 261.043 0.205645 0.718136 0
M  V30 2748 H 263.705 1.1778 1.55287 0
M  V30 2749 H 262.801 0.76881 3.02483 0
M  V30 2750 N 263.102 -1.41638 0.69111 0
M  V30 2751 C 264.012 -2.34588 0.0233487 0
M  V30 2752 C 265.028 -1.55987 -0.770984 0
M  V30 2753 O 266.204 -1.88486 -0.709569 0
M  V30 2754 C 263.269 -3.34684 -0.904851 0
M  V30 2755 C 262.33 -4.29176 -0.103225 0
M  V30 2756 C 261.563 -5.2449 -0.987216 0
M  V30 2757 O 261.786 -5.2514 -2.22674 0
M  V30 2758 O 260.72 -6.00295 -0.439281 0
M  V30 2759 H 264.546 -2.93261 0.789416 0
M  V30 2760 H 262.131 -1.42417 0.45142 0
M  V30 2761 H 264.013 -3.96133 -1.43724 0
M  V30 2762 H 262.688 -2.78461 -1.65049 0
M  V30 2763 H 261.595 -3.71089 0.473655 0
M  V30 2764 H 262.928 -4.88484 0.60365 0
M  V30 2765 N 264.58 -0.43555 -1.51462 0
M  V30 2766 C 265.543 0.365137 -2.26273 0
M  V30 2767 C 266.543 0.951227 -1.29647 0
M  V30 2768 O 267.733 0.825958 -1.53374 0
M  V30 2769 C 264.865 1.51645 -3.05314 0
M  V30 2770 H 266.058 -0.290474 -2.9849 0
M  V30 2771 H 263.611 -0.188676 -1.55157 0
M  V30 2772 H 264.346 2.20816 -2.3751 0
M  V30 2773 H 264.131 1.10238 -3.76284 0
M  V30 2774 H 265.621 2.08218 -3.61987 0
M  V30 2775 N 266.058 1.56714 -0.166846 0
M  V30 2776 C 267.474 1.58473 0.189372 0
M  V30 2777 C 267.674 1.18201 1.63189 0
M  V30 2778 O 266.73 0.891528 2.36237 0
M  V30 2779 C 268.043 3.00573 -0.0873872 0
M  V30 2780 C 269.591 3.1299 -0.0252443 0
M  V30 2781 C 270.066 4.57174 -0.274934 0
M  V30 2782 N 271.557 4.62665 -0.222553 0
M  V30 2783 C 272.292 5.72072 -0.389985 0
M  V30 2784 N 271.788 6.90054 -0.616229 0
M  V30 2785 N 273.581 5.61153 -0.326202 0
M  V30 2786 H 265.732 1.8118 -1.10849 0
M  V30 2787 H 267.995 0.839525 -0.440342 0
M  V30 2788 H 267.701 3.34497 -1.0865 0
M  V30 2789 H 267.575 3.72019 0.623037 0
M  V30 2790 H 269.962 2.78895 0.96444 0
M  V30 2791 H 270.043 2.43989 -0.768309 0
M  V30 2792 H 269.687 4.91976 -1.26181 0
M  V30 2793 H 269.617 5.24328 0.48869 0
M  V30 2794 H 272.108 3.77863 -0.0531512 0
M  V30 2795 H 272.421 7.69311 -0.733559 0
M  V30 2796 H 270.766 6.91927 -0.652791 0
M  V30 2797 H 273.957 4.67859 -0.150072 0
M  V30 2798 H 274.13 6.46364 -0.460116 0
M  V30 2799 N 267.536 -0.106894 1.57237 0
M  V30 2800 C 268.484 -1.14944 2.02215 0
M  V30 2801 C 269.478 -1.42167 0.92114 0
M  V30 2802 O 270.684 -1.41987 1.10634 0
M  V30 2803 H 267.059 -0.387841 0.64427 0
M  V30 2804 H 269.03 -0.743683 2.88984 0
M  V30 2805 C 267.779 -2.4647 2.4525 0
M  V30 2806 H 267.102 -2.26363 3.29545 0
M  V30 2807 H 268.542 -3.17948 2.80508 0
M  V30 2808 C 267.001 -3.09921 1.321 0
M  V30 2809 O 267.531 -3.9651 0.643622 0
M  V30 2810 N 265.737 -2.69986 1.07497 0
M  V30 2811 H 265.284 -1.99667 1.62761 0
M  V30 2812 H 265.242 -3.12769 0.319876 0
M  V30 2813 N 269.014 -1.53014 -0.377408 0
M  V30 2814 C 269.944 -1.81589 -1.46791 0
M  V30 2815 C 270.925 -0.668622 -1.56408 0
M  V30 2816 O 272.11 -0.917337 -1.71168 0
M  V30 2817 C 269.24 -1.99519 -2.8427 0
M  V30 2818 C 268.194 -3.15249 -2.89486 0
M  V30 2819 C 267.52 -3.18451 -4.29527 0
M  V30 2820 C 268.82 -4.54084 -2.58079 0
M  V30 2821 H 270.514 -2.7291 -1.23127 0
M  V30 2822 H 268.06 -1.31319 -0.590883 0
M  V30 2823 H 270.013 -2.18092 -3.60575 0
M  V30 2824 H 268.737 -1.04897 -3.09296 0
M  V30 2825 H 267.396 -2.96477 -2.15631 0
M  V30 2826 H 267.044 -2.2149 -4.5161 0
M  V30 2827 H 266.744 -3.962 -4.33934 0
M  V30 2828 H 268.268 -3.39193 -5.07721 0
M  V30 2829 H 269.682 -4.72899 -3.24098 0
M  V30 2830 H 268.079 -5.33987 -2.7382 0
M  V30 2831 H 269.149 -4.60006 -1.53372 0
M  V30 2832 N 270.492 0.636531 -1.44174 0
M  V30 2833 C 271.741 1.39213 -1.45954 0
M  V30 2834 C 272.054 1.95374 -0.0939119 0
M  V30 2835 O 273.26 2.71498 0.0107767 0
M  V30 2836 C 271.716 2.52025 -2.56927 0
M  V30 2837 C 271.324 2.024 -3.99673 0
M  V30 2838 C 273.068 3.29269 -2.67922 0
M  V30 2839 C 270.975 3.12521 -5.0208 0
M  V30 2840 H 269.905 0.523132 -0.542999 0
M  V30 2841 H 272.556 0.685349 -1.70221 0
M  V30 2842 H 270.938 3.25253 -2.25891 0
M  V30 2843 H 272.112 1.36073 -4.40251 0
M  V30 2844 H 270.427 1.37987 -3.92872 0
M  V30 2845 H 273.024 4.11352 -3.41605 0
M  V30 2846 H 273.367 3.78397 -1.73555 0
M  V30 2847 H 273.9 2.63129 -2.98342 0
M  V30 2848 H 270.639 2.68343 -5.98057 0
M  V30 2849 H 270.159 3.77507 -4.66099 0
M  V30 2850 H 271.838 3.77385 -5.25538 0
M  V30 2851 N 271.97 1.30982 0.876444 0
M  V30 2852 C 273.381 1.18277 1.44456 0
M  V30 2853 C 273.732 -0.213265 1.95037 0
M  V30 2854 O 272.857 -1.11057 1.85729 0
M  V30 2855 C 273.452 2.1411 2.62569 0
M  V30 2856 C 272.011 2.05358 3.15444 0
M  V30 2857 C 271.158 2.03706 1.88146 0
M  V30 2858 H 274.109 1.43127 0.685584 0
M  V30 2859 H 274.13 1.72692 3.39054 0
M  V30 2860 H 273.642 3.15706 2.25724 0
M  V30 2861 H 271.743 1.06934 3.56926 0
M  V30 2862 H 271.856 2.94156 3.78166 0
M  V30 2863 H 270.22 1.48629 2.06837 0
M  V30 2864 H 271.003 3.07047 1.53547 0
M  V30 2865 N 273.449 -1.08991 1.13837 0
M  V30 2866 C 274.382 -2.15049 0.763477 0
M  V30 2867 C 275.36 -1.60629 -0.252398 0
M  V30 2868 O 276.544 -1.87958 -0.142853 0
M  V30 2869 C 273.671 -3.38441 0.132545 0
M  V30 2870 C 272.717 -4.11596 1.11763 0
M  V30 2871 S 273.55 -4.6521 2.65216 0
M  V30 2872 C 274.706 -5.91896 2.03495 0
M  V30 2873 H 274.939 -2.46518 1.66182 0
M  V30 2874 H 272.472 -1.21008 0.958976 0
M  V30 2875 H 274.43 -4.09883 -0.225074 0
M  V30 2876 H 273.091 -3.05182 -0.743135 0
M  V30 2877 H 272.284 -5.00121 0.624076 0
M  V30 2878 H 271.886 -3.46038 1.41894 0
M  V30 2879 H 274.178 -6.63156 1.38675 0
M  V30 2880 H 275.121 -6.45938 2.9012 0
M  V30 2881 H 275.529 -5.44625 1.48471 0
M  V30 2882 N 274.927 -0.932562 -1.27047 0
M  V30 2883 C 276.204 -0.49377 -1.89265 0
M  V30 2884 C 276.584 1.02833 -1.8436 0
M  V30 2885 O 275.932 1.88461 -1.29209 0
M  V30 2886 C 276.142 -1.04536 -3.32976 0
M  V30 2887 C 277.49 -1.10879 -4.09867 0
M  V30 2888 O 278.514 -0.995327 -3.42011 0
M  V30 2889 O 277.373 -1.28417 -5.31198 0
M  V30 2890 H 274.467 -0.159596 -0.811454 0
M  V30 2891 H 277.013 -1.02457 -1.3528 0
M  V30 2892 H 275.785 -2.08913 -3.30864 0
M  V30 2893 H 275.408 -0.496494 -3.94488 0
M  V30 2894 N 276.405 1.4127 -0.698611 0
M  V30 2895 C 277.816 1.84187 -0.305289 0
M  V30 2896 C 278.167 1.58449 1.15708 0
M  V30 2897 O 277.292 1.05651 1.88856 0
M  V30 2898 C 277.887 3.3435 -0.547314 0
M  V30 2899 C 276.446 3.75826 -0.207878 0
M  V30 2900 C 275.593 2.64647 -0.828099 0
M  V30 2901 H 278.544 1.30778 -0.89904 0
M  V30 2902 H 278.565 3.8001 0.192998 0
M  V30 2903 H 278.077 3.53051 -1.61172 0
M  V30 2904 H 276.178 3.62725 0.852143 0
M  V30 2905 H 276.291 4.74462 -0.665021 0
M  V30 2906 H 274.655 2.53395 -0.257458 0
M  V30 2907 H 275.438 2.86165 -1.89643 0
M  V30 2908 N 277.883 0.443576 1.51229 0
M  V30 2909 C 278.831 -0.37904 2.29491 0
M  V30 2910 C 279.825 -1.0153 1.35603 0
M  V30 2911 O 281.031 -0.94955 1.52917 0
M  V30 2912 H 277.406 -0.141053 0.738653 0
M  V30 2913 H 279.377 0.301799 2.9687 0
M  V30 2914 C 278.126 -1.46426 3.15364 0
M  V30 2915 H 277.449 -0.984037 3.87501 0
M  V30 2916 H 278.889 -2.01297 3.7317 0
M  V30 2917 C 277.348 -2.45099 2.31146 0
M  V30 2918 O 277.878 -3.49773 1.9754 0
M  V30 2919 N 276.084 -2.16139 1.94249 0
M  V30 2920 H 275.631 -1.31044 2.21777 0
M  V30 2921 H 275.589 -2.82398 1.38198 0
M  V30 2922 N 279.361 -1.56624 0.175154 0
M  V30 2923 C 280.609 -1.96609 -0.467885 0
M  V30 2924 C 280.93 -1.06238 -1.63519 0
M  V30 2925 O 280.2 -0.129523 -1.95471 0
M  V30 2926 H 278.78 -0.726008 -0.175845 0
M  V30 2927 H 281.442 -1.93195 0.257234 0
M  V30 2928 H 280.538 -3.00989 -0.825342 0
M  V30 2929 N 280.839 0.0985539 -1.57292 0
M  V30 2930 C 281.769 1.12064 -2.04851 0
M  V30 2931 C 282.75 1.41981 -0.936767 0
M  V30 2932 O 283.935 1.52071 -1.20781 0
M  V30 2933 C 281.065 2.44144 -2.47004 0
M  V30 2934 C 280.019 2.28643 -3.6181 0
M  V30 2935 C 279.345 3.65869 -3.89929 0
M  V30 2936 C 280.645 1.72986 -4.92822 0
M  V30 2937 H 282.339 0.724979 -2.9049 0
M  V30 2938 H 279.885 0.34729 -1.39749 0
M  V30 2939 H 281.838 3.15914 -2.78884 0
M  V30 2940 H 280.562 2.85639 -1.5836 0
M  V30 2941 H 279.221 1.59318 -3.30172 0
M  V30 2942 H 278.869 4.04885 -2.98458 0
M  V30 2943 H 278.569 3.56344 -4.67218 0
M  V30 2944 H 280.093 4.39112 -4.2428 0
M  V30 2945 H 281.507 2.34593 -5.23105 0
M  V30 2946 H 279.904 1.74229 -5.74251 0
M  V30 2947 H 280.974 0.689007 -4.7998 0
M  V30 2948 N 282.317 1.53212 0.369288 0
M  V30 2949 C 283.542 1.73423 1.1375 0
M  V30 2950 C 283.967 0.460404 1.82378 0
M  V30 2951 O 283.325 -0.585298 1.71592 0
M  V30 2952 C 283.373 2.89769 2.1463 0
M  V30 2953 O 282.477 2.58119 3.21634 0
M  V30 2954 H 281.818 0.576061 0.330227 0
M  V30 2955 H 284.348 2.00083 0.427547 0
M  V30 2956 H 284.358 3.15829 2.58294 0
M  V30 2957 H 283.033 3.8217 1.64071 0
M  V30 2958 H 281.61 2.42864 2.82969 0
M  V30 2959 N 283.795 -0.628877 1.44509 0
M  V30 2960 C 285.072 -1.38733 1.37886 0
M  V30 2961 C 285.452 -2.11065 0.0387008 0
M  V30 2962 O 284.8 -2.06476 -0.97878 0
M  V30 2963 C 285.01 -2.35188 2.57852 0
M  V30 2964 C 286.358 -2.9845 3.02014 0
M  V30 2965 O 287.382 -2.45513 2.58073 0
M  V30 2966 O 286.241 -3.94487 3.78209 0
M  V30 2967 H 283.335 -0.621015 0.54614 0
M  V30 2968 H 285.881 -0.653744 1.56602 0
M  V30 2969 H 284.653 -1.80855 3.46998 0
M  V30 2970 H 284.276 -3.1596 2.4136 0
M  V30 2971 N 285.273 -1.31445 -0.869486 0
M  V30 2972 C 286.684 -1.19042 -1.43826 0
M  V30 2973 C 287.035 0.202919 -1.95148 0
M  V30 2974 O 286.16 1.10071 -1.86315 0
M  V30 2975 C 286.755 -2.15499 -2.6143 0
M  V30 2976 C 285.314 -2.07028 -3.14351 0
M  V30 2977 C 284.461 -2.04701 -1.87063 0
M  V30 2978 H 287.412 -1.43489 -0.677984 0
M  V30 2979 H 287.433 -1.74488 -3.38134 0
M  V30 2980 H 286.945 -3.16899 -2.24046 0
M  V30 2981 H 285.046 -1.08825 -3.56354 0
M  V30 2982 H 285.159 -2.96157 -3.766 0
M  V30 2983 H 283.523 -1.49724 -2.06046 0
M  V30 2984 H 284.306 -3.07857 -1.51917 0
M  V30 2985 N 286.751 1.08385 -1.14413 0
M  V30 2986 C 287.981 1.8425 -0.934644 0
M  V30 2987 C 288.389 1.81907 0.520234 0
M  V30 2988 O 287.732 1.22126 1.37226 0
M  V30 2989 C 287.794 3.32853 -1.35828 0
M  V30 2990 C 287.458 3.5893 -2.82875 0
M  V30 2991 C 288.455 3.53756 -3.80989 0
M  V30 2992 C 286.14 3.86934 -3.20293 0
M  V30 2993 C 288.134 3.76216 -5.14529 0
M  V30 2994 C 285.821 4.09047 -4.54008 0
M  V30 2995 C 286.819 4.03682 -5.50936 0
M  V30 2996 O 286.507 4.25214 -6.82238 0
M  V30 2997 H 286.239 0.588502 -0.332628 0
M  V30 2998 H 288.793 1.37792 -1.52324 0
M  V30 2999 H 287.023 3.8007 -0.713019 0
M  V30 3000 H 288.712 3.90154 -1.11957 0
M  V30 3001 H 289.478 3.32135 -3.53428 0
M  V30 3002 H 285.357 3.9023 -2.45442 0
M  V30 3003 H 288.901 3.71943 -5.90173 0
M  V30 3004 H 284.798 4.30151 -4.8129 0
M  V30 3005 H 285.566 4.42619 -6.88499 0
M  V30 3006 N 288.23 0.939286 1.26551 0
M  V30 3007 C 289.476 0.586715 1.94128 0
M  V30 3008 C 289.809 -0.8717 1.73537 0
M  V30 3009 O 289.084 -1.62339 1.07127 0
M  V30 3010 C 289.367 0.927497 3.4795 0
M  V30 3011 C 289.22 2.44052 3.77834 0
M  V30 3012 C 290.539 0.441569 4.37879 0
M  V30 3013 H 287.658 0.21463 0.705055 0
M  V30 3014 H 290.3 1.17316 1.49455 0
M  V30 3015 H 288.45 0.428431 3.8613 0
M  V30 3016 H 290.122 3.01216 3.4938 0
M  V30 3017 H 288.365 2.8848 3.23978 0
M  V30 3018 H 289.036 2.62947 4.85348 0
M  V30 3019 H 291.512 0.869448 4.06915 0
M  V30 3020 H 290.388 0.708856 5.44304 0
M  V30 3021 H 290.649 -0.658467 4.37169 0
M  V30 3022 N 289.708 -1.40897 0.706093 0
M  V30 3023 C 290.655 -2.30751 0.0474474 0
M  V30 3024 C 291.625 -1.47678 -0.76029 0
M  V30 3025 O 292.81 -1.76441 -0.726177 0
M  V30 3026 C 289.95 -3.33815 -0.875309 0
M  V30 3027 C 289.063 -4.31961 -0.0580623 0
M  V30 3028 C 288.198 -5.22093 -0.979425 0
M  V30 3029 C 287.237 -6.11902 -0.155706 0
M  V30 3030 N 286.374 -6.94482 -1.03144 0
M  V30 3031 H 291.214 -2.86513 0.819413 0
M  V30 3032 H 288.751 -1.41102 0.415783 0
M  V30 3033 H 290.709 -3.92129 -1.42446 0
M  V30 3034 H 289.339 -2.79579 -1.61356 0
M  V30 3035 H 288.391 -3.75507 0.608147 0
M  V30 3036 H 289.703 -4.95415 0.580082 0
M  V30 3037 H 288.857 -5.85292 -1.59744 0
M  V30 3038 H 287.596 -4.5889 -1.65141 0
M  V30 3039 H 286.601 -5.47742 0.475309 0
M  V30 3040 H 287.826 -6.77162 0.512635 0
M  V30 3041 H 285.772 -6.33877 -1.68924 0
M  V30 3042 H 285.689 -7.54665 -0.449108 0
M  V30 3043 H 286.957 -7.6214 -1.63593 0
M  V30 3044 N 291.186 -0.45159 -1.50991 0
M  V30 3045 C 292.116 0.342898 -2.30969 0
M  V30 3046 C 293.097 1.00815 -1.37005 0
M  V30 3047 O 294.282 1.00907 -1.65926 0
M  V30 3048 C 291.412 1.43637 -3.16205 0
M  V30 3049 C 290.366 0.893818 -4.18563 0
M  V30 3050 C 289.692 2.08411 -4.92411 0
M  V30 3051 C 290.992 -0.0815568 -5.22236 0
M  V30 3052 H 292.686 -0.324556 -2.97636 0
M  V30 3053 H 290.232 -0.157531 -1.43136 0
M  V30 3054 H 292.185 1.9995 -3.70942 0
M  V30 3055 H 290.909 2.13232 -2.47386 0
M  V30 3056 H 289.568 0.352798 -3.64898 0
M  V30 3057 H 289.216 2.76658 -4.20082 0
M  V30 3058 H 288.916 1.72741 -5.61636 0
M  V30 3059 H 290.44 2.65251 -5.49976 0
M  V30 3060 H 291.854 0.391742 -5.7196 0
M  V30 3061 H 290.251 -0.351551 -5.99069 0
M  V30 3062 H 291.321 -1.01374 -4.74185 0
M  V30 3063 N 292.664 1.56529 -0.183458 0
M  V30 3064 C 293.611 2.18546 0.742055 0
M  V30 3065 C 294.581 1.12912 1.2182 0
M  V30 3066 O 295.766 1.41115 1.28418 0
M  V30 3067 C 292.906 2.83977 1.96089 0
M  V30 3068 C 292.019 4.04105 1.52719 0
M  V30 3069 C 291.154 4.57427 2.70063 0
M  V30 3070 C 290.193 5.69938 2.23243 0
M  V30 3071 N 289.33 6.17717 3.33722 0
M  V30 3072 H 294.17 2.97284 0.206432 0
M  V30 3073 H 291.707 1.46823 0.0901571 0
M  V30 3074 H 293.665 3.20077 2.67594 0
M  V30 3075 H 292.295 2.07822 2.47002 0
M  V30 3076 H 291.347 3.73745 0.708436 0
M  V30 3077 H 292.659 4.85513 1.1436 0
M  V30 3078 H 291.813 4.95772 3.49708 0
M  V30 3079 H 290.552 3.75101 3.11689 0
M  V30 3080 H 289.557 5.31133 1.42048 0
M  V30 3081 H 290.782 6.54073 1.82661 0
M  V30 3082 H 288.728 5.38317 3.74902 0
M  V30 3083 H 288.645 6.94146 2.99495 0
M  V30 3084 H 289.913 6.60713 4.13616 0
M  V30 3085 N 294.142 -0.090211 1.57342 0
M  V30 3086 C 295.072 -1.10976 2.05443 0
M  V30 3087 C 296.053 -1.41482 0.944284 0
M  V30 3088 O 297.238 -1.51428 1.21586 0
M  V30 3089 C 294.368 -2.42831 2.48295 0
M  V30 3090 C 293.322 -2.26721 3.63018 0
M  V30 3091 C 292.648 -3.63796 3.91863 0
M  V30 3092 C 293.948 -1.7037 4.93732 0
M  V30 3093 H 295.642 -0.709564 2.9087 0
M  V30 3094 H 293.188 -0.339874 1.39932 0
M  V30 3095 H 295.141 -3.14431 2.80555 0
M  V30 3096 H 293.865 -2.84795 1.59873 0
M  V30 3097 H 292.524 -1.57565 3.31012 0
M  V30 3098 H 292.172 -4.03297 3.00601 0
M  V30 3099 H 291.872 -3.53861 4.69101 0
M  V30 3100 H 293.396 -4.36855 4.26603 0
M  V30 3101 H 294.81 -2.31816 5.24342 0
M  V30 3102 H 293.207 -1.71181 5.75167 0
M  V30 3103 H 294.277 -0.663542 4.80339 0
M  V30 3104 N 295.62 -1.53406 -0.361157 0
M  V30 3105 C 296.869 -1.69022 -1.10066 0
M  V30 3106 C 297.182 -0.450838 -1.90333 0
M  V30 3107 O 298.388 -0.487617 -2.67085 0
M  V30 3108 C 296.844 -2.98812 -2.00598 0
M  V30 3109 C 296.452 -4.30027 -1.25621 0
M  V30 3110 C 298.196 -3.23795 -2.74513 0
M  V30 3111 C 296.103 -5.50903 -2.1508 0
M  V30 3112 H 295.033 -0.629776 -0.414606 0
M  V30 3113 H 297.684 -1.79907 -0.361348 0
M  V30 3114 H 296.066 -2.8174 -2.78278 0
M  V30 3115 H 297.24 -4.57745 -0.529739 0
M  V30 3116 H 295.555 -4.11522 -0.635496 0
M  V30 3117 H 298.152 -4.11289 -3.41681 0
M  V30 3118 H 298.495 -2.40045 -3.40123 0
M  V30 3119 H 299.028 -3.41561 -2.03914 0
M  V30 3120 H 295.767 -6.37143 -1.54041 0
M  V30 3121 H 295.287 -5.27459 -2.85565 0
M  V30 3122 H 296.966 -5.85865 -2.74538 0
M  V30 3123 N 297.098 0.621204 -1.44841 0
M  V30 3124 C 298.509 1.20298 -1.42777 0
M  V30 3125 C 298.86 1.95639 -0.148259 0
M  V30 3126 O 297.985 2.02955 0.750892 0
M  V30 3127 C 298.58 2.1882 -2.58657 0
M  V30 3128 C 297.139 2.72403 -2.59756 0
M  V30 3129 C 296.286 1.4757 -2.34773 0
M  V30 3130 H 299.237 0.411297 -1.53278 0
M  V30 3131 H 299.258 3.01607 -2.31977 0
M  V30 3132 H 298.77 1.63957 -3.51766 0
M  V30 3133 H 296.871 3.31242 -1.70615 0
M  V30 3134 H 296.984 3.17765 -3.58556 0
M  V30 3135 H 295.348 1.76051 -1.8406 0
M  V30 3136 H 296.131 0.945954 -3.3001 0
M  V30 3137 N 298.576 1.31904 0.862503 0
M  V30 3138 C 299.853 1.12644 1.59908 0
M  V30 3139 C 300.233 -0.316104 2.0872 0
M  V30 3140 O 299.581 -1.31145 1.87118 0
M  V30 3141 C 299.791 2.1472 2.7513 0
M  V30 3142 C 301.139 2.47637 3.44907 0
M  V30 3143 O 302.163 2.13205 2.85346 0
M  V30 3144 O 301.022 3.06632 4.52371 0
M  V30 3145 H 298.116 0.43416 0.703871 0
M  V30 3146 H 300.662 1.43408 0.907314 0
M  V30 3147 H 299.434 3.1172 2.3653 0
M  V30 3148 H 299.057 1.84905 3.51989 0
M  V30 3149 N 300.054 -1.07777 1.14986 0
M  V30 3150 C 301.465 -1.61766 0.932127 0
M  V30 3151 C 301.816 -1.88974 -0.527581 0
M  V30 3152 O 300.941 -1.65198 -1.39781 0
M  V30 3153 C 301.536 -2.93891 1.68563 0
M  V30 3154 C 300.095 -3.44639 1.5133 0
M  V30 3155 C 299.242 -2.18767 1.704 0
M  V30 3156 H 302.193 -0.909201 1.30074 0
M  V30 3157 H 302.214 -3.62623 1.15259 0
M  V30 3158 H 301.726 -2.74057 2.74799 0
M  V30 3159 H 299.827 -3.69564 0.474702 0
M  V30 3160 H 299.94 -4.20966 2.28746 0
M  V30 3161 H 298.304 -2.28253 1.13016 0
M  V30 3162 H 299.087 -2.01433 2.77992 0
M  V30 3163 N 301.532 -0.945985 -1.26051 0
M  V30 3164 C 302.948 -0.649045 -1.45807 0
M  V30 3165 C 303.148 0.796158 -1.85104 0
M  V30 3166 O 302.204 1.57233 -1.97571 0
M  V30 3167 C 303.517 -1.61458 -2.53677 0
M  V30 3168 C 305.065 -1.62481 -2.67524 0
M  V30 3169 C 305.54 -2.57776 -3.7857 0
M  V30 3170 N 307.031 -2.5609 -3.85969 0
M  V30 3171 C 307.766 -3.26508 -4.7136 0
M  V30 3172 N 307.262 -4.0637 -5.61102 0
M  V30 3173 N 309.055 -3.15437 -4.65248 0
M  V30 3174 H 301.206 -1.88005 -0.988328 0
M  V30 3175 H 303.469 -0.808198 -0.4955 0
M  V30 3176 H 303.175 -2.64644 -2.31638 0
M  V30 3177 H 303.049 -1.37036 -3.51427 0
M  V30 3178 H 305.436 -0.600167 -2.88933 0
M  V30 3179 H 305.517 -1.90958 -1.70202 0
M  V30 3180 H 305.161 -3.60361 -3.57913 0
M  V30 3181 H 305.091 -2.26587 -4.75359 0
M  V30 3182 H 307.582 -1.98105 -3.21812 0
M  V30 3183 H 307.895 -4.57042 -6.23164 0
M  V30 3184 H 306.24 -4.10469 -5.60839 0
M  V30 3185 H 309.431 -2.52525 -3.94143 0
M  V30 3186 H 309.604 -3.70584 -5.31575 0
M  V30 3187 N 303.011 1.40521 -0.713556 0
M  V30 3188 C 303.959 2.32549 -0.0485227 0
M  V30 3189 C 304.953 1.51931 0.74922 0
M  V30 3190 O 306.159 1.67745 0.652816 0
M  V30 3191 H 302.534 0.751994 0.00311138 0
M  V30 3192 H 304.505 2.86291 -0.841443 0
M  V30 3193 C 303.254 3.36879 0.860687 0
M  V30 3194 H 302.577 3.98978 0.256246 0
M  V30 3195 H 304.017 4.03772 1.294 0
M  V30 3196 C 302.476 2.72197 1.9852 0
M  V30 3197 O 303.006 2.5837 3.07584 0
M  V30 3198 N 301.212 2.30612 1.76823 0
M  V30 3199 H 300.759 2.42059 0.881217 0
M  V30 3200 H 300.717 1.87672 2.52243 0
M  V30 3201 N 304.489 0.459591 1.5075 0
M  V30 3202 C 305.419 -0.330644 2.31147 0
M  V30 3203 C 306.4 -1.00087 1.37538 0
M  V30 3204 O 307.585 -1.00025 1.66459 0
M  V30 3205 C 304.715 -1.41958 3.16962 0
M  V30 3206 C 303.669 -0.871608 4.19031 0
M  V30 3207 C 302.995 -2.05797 4.9351 0
M  V30 3208 C 304.295 0.109251 5.22186 0
M  V30 3209 H 305.989 0.340336 2.97459 0
M  V30 3210 H 303.535 0.165119 1.4305 0
M  V30 3211 H 305.488 -1.9798 3.71997 0
M  V30 3212 H 304.212 -2.11917 2.48513 0
M  V30 3213 H 302.871 -0.333442 3.6508 0
M  V30 3214 H 302.519 -2.74427 4.21544 0
M  V30 3215 H 302.219 -1.6976 5.62544 0
M  V30 3216 H 303.743 -2.62331 5.51375 0
M  V30 3217 H 305.157 -0.361405 5.7216 0
M  V30 3218 H 303.554 0.383316 5.98875 0
M  V30 3219 H 304.624 1.03887 4.73641 0
M  V30 3220 N 305.967 -1.56429 0.191757 0
M  V30 3221 C 307.195 -2.01867 -0.453586 0
M  V30 3222 C 307.61 -1.07191 -1.5542 0
M  V30 3223 O 306.967 -0.0762108 -1.82341 0
M  V30 3224 C 307.018 -3.47017 -1.013 0
M  V30 3225 O 306.739 -4.38078 0.0437005 0
M  V30 3226 C 308.24 -4.07956 -1.73456 0
M  V30 3227 H 305.46 -0.661211 -0.114199 0
M  V30 3228 H 308.004 -2.02295 0.299483 0
M  V30 3229 H 306.159 -3.47298 -1.71647 0
M  V30 3230 H 306.573 -5.23178 -0.372212 0
M  V30 3231 H 308.047 -5.1138 -2.07833 0
M  V30 3232 H 308.524 -3.51222 -2.63704 0
M  V30 3233 H 309.13 -4.11437 -1.07702 0
M  V30 3234 N 307.445 0.0818655 -1.57387 0
M  V30 3235 C 308.392 1.09834 -2.0299 0
M  V30 3236 C 309.362 1.39043 -0.908639 0
M  V30 3237 O 310.547 1.50282 -1.17559 0
M  V30 3238 C 307.687 2.40971 -2.47037 0
M  V30 3239 C 306.8 2.18379 -3.7274 0
M  V30 3240 C 305.935 3.43008 -4.0561 0
M  V30 3241 C 304.974 3.15736 -5.24383 0
M  V30 3242 N 304.111 4.32667 -5.52941 0
M  V30 3243 H 308.951 0.702472 -2.89602 0
M  V30 3244 H 306.488 0.33531 -1.43227 0
M  V30 3245 H 308.446 3.1752 -2.70623 0
M  V30 3246 H 307.076 2.78379 -1.63417 0
M  V30 3247 H 306.128 1.32569 -3.56552 0
M  V30 3248 H 307.44 1.94227 -4.59431 0
M  V30 3249 H 306.594 4.27958 -4.30043 0
M  V30 3250 H 305.333 3.70225 -3.17466 0
M  V30 3251 H 304.338 2.2918 -4.99757 0
M  V30 3252 H 305.563 2.8985 -6.14136 0
M  V30 3253 H 303.509 4.59935 -4.67756 0
M  V30 3254 H 303.426 4.11753 -6.34031 0
M  V30 3255 H 304.694 5.18644 -5.81918 0
M  V30 3256 N 308.923 1.53595 0.353017 0
M  V30 3257 C 309.855 1.77219 1.45348 0
M  V30 3258 C 310.868 0.65324 1.49119 0
M  V30 3259 O 312.057 0.929775 1.52373 0
M  V30 3260 C 309.157 1.84841 2.84055 0
M  V30 3261 C 308.33 3.14649 3.03833 0
M  V30 3262 C 307.389 3.13351 4.22727 0
M  V30 3263 O 306.415 3.87107 4.17297 0
M  V30 3264 N 307.617 2.35052 5.30783 0
M  V30 3265 H 310.382 2.72178 1.25457 0
M  V30 3266 H 307.943 1.52528 0.542833 0
M  V30 3267 H 309.935 1.81435 3.61751 0
M  V30 3268 H 308.505 0.971114 2.97133 0
M  V30 3269 H 307.725 3.31256 2.13689 0
M  V30 3270 H 309.013 4.00411 3.13925 0
M  V30 3271 H 308.411 1.74663 5.38061 0
M  V30 3272 H 306.968 2.37453 6.07009 0
M  V30 3273 N 310.401 -0.613514 1.45168 0
M  V30 3274 C 311.348 -1.72456 1.53387 0
M  V30 3275 C 312.318 -1.6169 0.380191 0
M  V30 3276 O 313.503 -1.81356 0.592836 0
M  V30 3277 C 310.643 -3.10753 1.50088 0
M  V30 3278 C 309.756 -3.32368 2.75963 0
M  V30 3279 C 308.891 -4.60737 2.64376 0
M  V30 3280 C 307.93 -4.7559 3.85332 0
M  V30 3281 N 307.067 -5.95253 3.72315 0
M  V30 3282 H 311.907 -1.64768 2.48305 0
M  V30 3283 H 309.444 -0.803503 1.23216 0
M  V30 3284 H 311.402 -3.90758 1.46164 0
M  V30 3285 H 310.032 -3.17413 0.587243 0
M  V30 3286 H 309.084 -2.4618 2.89999 0
M  V30 3287 H 310.396 -3.39218 3.65695 0
M  V30 3288 H 309.55 -5.48928 2.58385 0
M  V30 3289 H 308.289 -4.56275 1.72233 0
M  V30 3290 H 307.294 -3.85824 3.91688 0
M  V30 3291 H 308.519 -4.81854 4.78533 0
M  V30 3292 H 306.465 -5.91847 2.82937 0
M  V30 3293 H 306.382 -6.03236 4.55677 0
M  V30 3294 H 307.65 -6.85958 3.70246 0
M  V30 3295 N 311.879 -1.3236 -0.855495 0
M  V30 3296 C 313.107 -1.2587 -1.64208 0
M  V30 3297 C 313.522 0.173457 -1.88002 0
M  V30 3298 O 312.879 1.11027 -1.44842 0
M  V30 3299 C 312.93 -2.01424 -3.00184 0
M  V30 3300 O 312.651 -3.39051 -2.77445 0
M  V30 3301 C 314.152 -2.01948 -3.94629 0
M  V30 3302 H 311.372 -0.434318 -0.511477 0
M  V30 3303 H 313.916 -1.74469 -1.0668 0
M  V30 3304 H 312.071 -1.56549 -3.5436 0
M  V30 3305 H 312.485 -3.77711 -3.63916 0
M  V30 3306 H 313.959 -2.59297 -4.87308 0
M  V30 3307 H 314.436 -1.00554 -4.27534 0
M  V30 3308 H 315.042 -2.46767 -3.4639 0
M  V30 3309 N 313.357 1.07166 -1.15556 0
M  V30 3310 C 314.773 1.31899 -0.898603 0
M  V30 3311 C 314.973 1.96333 0.453383 0
M  V30 3312 O 314.029 2.22438 1.19489 0
M  V30 3313 C 315.342 2.20826 -2.04099 0
M  V30 3314 C 316.89 2.34269 -2.07574 0
M  V30 3315 C 317.365 3.26546 -3.21141 0
M  V30 3316 N 318.856 3.34127 -3.20801 0
M  V30 3317 C 319.591 4.05595 -4.05315 0
M  V30 3318 N 319.087 4.79661 -4.99897 0
M  V30 3319 N 320.88 4.01555 -3.93332 0
M  V30 3320 H 313.031 0.637302 -2.02613 0
M  V30 3321 H 315.294 0.343468 -0.883591 0
M  V30 3322 H 315 1.80744 -3.01703 0
M  V30 3323 H 314.874 3.21364 -1.97496 0
M  V30 3324 H 317.261 2.73603 -1.10568 0
M  V30 3325 H 317.342 1.33429 -2.18244 0
M  V30 3326 H 316.986 2.87931 -4.184 0
M  V30 3327 H 316.916 4.27345 -3.07708 0
M  V30 3328 H 319.407 2.81336 -2.52306 0
M  V30 3329 H 319.72 5.31694 -5.60822 0
M  V30 3330 H 318.065 4.78671 -5.03884 0
M  V30 3331 H 321.256 3.42806 -3.18751 0
M  V30 3332 H 321.429 4.56987 -4.5942 0
M  V30 3333 N 314.835 0.952656 1.25548 0
M  V30 3334 C 316.063 0.623496 1.97282 0
M  V30 3335 C 316.478 -0.803987 1.70826 0
M  V30 3336 O 315.835 -1.53755 0.983147 0
M  V30 3337 C 315.886 0.870209 3.5087 0
M  V30 3338 O 315.607 2.24156 3.76412 0
M  V30 3339 C 317.108 0.553164 4.39835 0
M  V30 3340 H 314.328 0.233931 0.628902 0
M  V30 3341 H 316.872 1.27649 1.59768 0
M  V30 3342 H 315.027 0.263652 3.86502 0
M  V30 3343 H 315.441 2.31021 4.70882 0
M  V30 3344 H 316.915 0.776342 5.46513 0
M  V30 3345 H 317.392 -0.512215 4.36203 0
M  V30 3346 H 317.998 1.13896 4.09766 0
M  V30 3347 N 316.313 -1.40141 0.720998 0
M  V30 3348 C 317.559 -2.01084 0.263231 0
M  V30 3349 C 317.892 -1.57052 -1.14229 0
M  V30 3350 O 317.167 -0.793027 -1.77599 0
M  V30 3351 C 317.45 -3.58401 0.349344 0
M  V30 3352 C 317.303 -4.12491 1.79363 0
M  V30 3353 C 318.622 -4.39231 -0.276351 0
M  V30 3354 H 315.741 -0.730572 0.0971228 0
M  V30 3355 H 318.383 -1.66543 0.914518 0
M  V30 3356 H 316.533 -3.87958 -0.205165 0
M  V30 3357 H 318.205 -3.93711 2.40394 0
M  V30 3358 H 316.448 -3.66576 2.31958 0
M  V30 3359 H 317.119 -5.21646 1.80524 0
M  V30 3360 H 319.595 -4.15637 0.196184 0
M  V30 3361 H 318.471 -5.48586 -0.185681 0
M  V30 3362 H 318.732 -4.20643 -1.36059 0
M  V30 3363 N 317.792 -0.46758 -1.50504 0
M  V30 3364 C 318.739 0.328413 -2.28452 0
M  V30 3365 C 319.709 0.990313 -1.33349 0
M  V30 3366 O 320.894 1.00343 -1.62284 0
M  V30 3367 C 318.034 1.40648 -3.15138 0
M  V30 3368 C 317.147 0.759709 -4.25267 0
M  V30 3369 C 316.282 1.81537 -4.99217 0
M  V30 3370 C 315.321 1.14866 -6.01226 0
M  V30 3371 N 314.458 2.14702 -6.68467 0
M  V30 3372 H 319.298 -0.342603 -2.96024 0
M  V30 3373 H 316.835 -0.180801 -1.45985 0
M  V30 3374 H 318.793 2.04315 -3.63746 0
M  V30 3375 H 317.423 2.04671 -2.49619 0
M  V30 3376 H 316.475 0.0105671 -3.80399 0
M  V30 3377 H 317.787 0.233243 -4.98254 0
M  V30 3378 H 316.941 2.52793 -5.51526 0
M  V30 3379 H 315.68 2.37564 -4.25928 0
M  V30 3380 H 314.685 0.42171 -5.4818 0
M  V30 3381 H 315.91 0.595334 -6.76485 0
M  V30 3382 H 313.856 2.69752 -5.97972 0
M  V30 3383 H 313.773 1.6703 -7.37317 0
M  V30 3384 H 315.041 2.85348 -7.25394 0
M  V30 3385 N 319.27 1.56325 -0.20005 0
M  V30 3386 C 320.233 2.18084 0.705132 0
M  V30 3387 C 321.233 1.13666 1.1374 0
M  V30 3388 O 322.423 1.39023 1.04968 0
M  V30 3389 C 319.555 2.78689 1.96329 0
M  V30 3390 H 320.748 2.99435 0.167023 0
M  V30 3391 H 318.301 1.56221 0.0495725 0
M  V30 3392 H 319.036 2.0115 2.5438 0
M  V30 3393 H 318.821 3.55133 1.66202 0
M  V30 3394 H 320.311 3.26096 2.60866 0
M  V30 3395 N 320.748 -0.0735177 1.57428 0
M  V30 3396 C 321.976 -0.785969 1.9139 0
M  V30 3397 C 322.391 -1.71207 0.795847 0
M  V30 3398 O 321.748 -1.81033 -0.230915 0
M  V30 3399 C 321.799 -1.58107 3.25091 0
M  V30 3400 O 321.52 -0.6922 4.32597 0
M  V30 3401 C 323.021 -2.39467 3.73055 0
M  V30 3402 H 320.241 -0.223558 0.632663 0
M  V30 3403 H 322.785 -0.044302 2.04452 0
M  V30 3404 H 320.94 -2.27503 3.13562 0
M  V30 3405 H 321.354 -1.24504 5.09508 0
M  V30 3406 H 322.828 -2.90716 4.69242 0
M  V30 3407 H 323.305 -3.18913 3.01979 0
M  V30 3408 H 323.911 -1.7523 3.87523 0
M  V30 3409 N 322.226 -1.5378 -0.344866 0
M  V30 3410 C 323.156 -1.84662 -1.42906 0
M  V30 3411 C 324.137 -0.701648 -1.54955 0
M  V30 3412 O 325.322 -0.953438 -1.69184 0
M  V30 3413 C 322.452 -2.05503 -2.79974 0
M  V30 3414 C 321.406 -3.21318 -2.82734 0
M  V30 3415 C 320.732 -3.2749 -4.22675 0
M  V30 3416 C 322.032 -4.59456 -2.48389 0
M  V30 3417 H 323.726 -2.75461 -1.17311 0
M  V30 3418 H 321.272 -1.32542 -0.562896 0
M  V30 3419 H 323.225 -2.25691 -3.55867 0
M  V30 3420 H 321.949 -1.11434 -3.07002 0
M  V30 3421 H 320.608 -3.00984 -2.09294 0
M  V30 3422 H 320.256 -2.31019 -4.4681 0
M  V30 3423 H 319.956 -4.05316 -4.25433 0
M  V30 3424 H 321.48 -3.49887 -5.00412 0
M  V30 3425 H 322.894 -4.79667 -3.13995 0
M  V30 3426 H 321.291 -5.39675 -2.62432 0
M  V30 3427 H 322.361 -4.63155 -1.4358 0
M  V30 3428 N 323.704 0.605807 -1.45491 0
M  V30 3429 C 324.652 1.73754 -1.54636 0
M  V30 3430 C 325.646 1.64207 -0.416219 0
M  V30 3431 O 326.852 1.69979 -0.592199 0
M  V30 3432 H 323.227 0.574073 -0.485741 0
M  V30 3433 H 325.198 1.63169 -2.49837 0
M  V30 3434 C 323.947 3.12135 -1.53189 0
M  V30 3435 H 323.27 3.20141 -2.39478 0
M  V30 3436 H 324.71 3.91147 -1.63645 0
M  V30 3437 C 323.169 3.35921 -0.256616 0
M  V30 3438 O 323.699 3.96194 0.662798 0
M  V30 3439 N 321.905 2.90204 -0.151751 0
M  V30 3440 H 321.452 2.41336 -0.90081 0
M  V30 3441 H 321.41 3.06492 0.700699 0
M  V30 3442 N 325.182 1.32811 0.848464 0
M  V30 3443 C 326.593 1.21315 1.41914 0
M  V30 3444 C 326.944 -0.171847 1.95446 0
M  V30 3445 O 326.069 -1.07093 1.88043 0
M  V30 3446 C 326.664 2.19631 2.57968 0
M  V30 3447 C 325.223 2.12003 3.11017 0
M  V30 3448 C 324.37 2.07651 1.83783 0
M  V30 3449 H 327.321 1.44549 0.655071 0
M  V30 3450 H 327.342 1.79845 3.35315 0
M  V30 3451 H 326.854 3.20423 2.18976 0
M  V30 3452 H 324.955 1.14481 3.54577 0
M  V30 3453 H 325.068 3.02111 3.71841 0
M  V30 3454 H 323.432 1.52983 2.03638 0
M  V30 3455 H 324.215 3.10235 1.47 0
M  V30 3456 N 326.66 -1.06551 1.16123 0
M  V30 3457 C 327.906 -1.79567 0.94252 0
M  V30 3458 C 328.239 -1.86869 -0.528547 0
M  V30 3459 O 327.514 -1.35838 -1.39206 0
M  V30 3460 C 327.797 -3.24195 1.56747 0
M  V30 3461 C 327.65 -3.24989 3.10969 0
M  V30 3462 C 328.969 -4.21678 1.25998 0
M  V30 3463 H 326.088 -0.651883 0.343828 0
M  V30 3464 H 328.73 -1.2463 1.43413 0
M  V30 3465 H 326.88 -3.71107 1.14942 0
M  V30 3466 H 328.552 -2.86258 3.61737 0
M  V30 3467 H 326.795 -2.63716 3.44436 0
M  V30 3468 H 327.466 -4.27005 3.49815 0
M  V30 3469 H 329.942 -3.83196 1.62174 0
M  V30 3470 H 328.818 -5.21146 1.7233 0
M  V30 3471 H 329.079 -4.4174 0.178367 0
M  V30 3472 N 328.138 -0.959301 -1.25041 0
M  V30 3473 C 329.384 -0.627096 -1.93492 0
M  V30 3474 C 329.739 0.827484 -1.73696 0
M  V30 3475 O 329.032 1.58651 -1.07427 0
M  V30 3476 C 329.226 -0.927136 -3.45165 0
M  V30 3477 C 329.055 -2.40933 -3.79712 0
M  V30 3478 C 327.825 -3.0677 -4.01522 0
M  V30 3479 C 330.023 -3.38894 -3.86853 0
M  V30 3480 N 328.005 -4.44815 -4.231 0
M  V30 3481 C 329.376 -4.62263 -4.13174 0
M  V30 3482 C 331.431 -3.33668 -3.69554 0
M  V30 3483 C 330.134 -5.81052 -4.23995 0
M  V30 3484 C 332.16 -4.518 -3.81616 0
M  V30 3485 C 331.522 -5.73957 -4.08354 0
M  V30 3486 H 327.621 -0.280166 -0.73009 0
M  V30 3487 H 330.205 -1.23244 -1.50729 0
M  V30 3488 H 328.376 -0.350685 -3.86814 0
M  V30 3489 H 330.108 -0.554361 -4.00885 0
M  V30 3490 H 326.863 -2.57327 -3.97593 0
M  V30 3491 H 327.287 -5.16319 -4.37885 0
M  V30 3492 H 331.929 -2.40268 -3.47895 0
M  V30 3493 H 329.647 -6.74888 -4.44468 0
M  V30 3494 H 333.233 -4.49309 -3.69612 0
M  V30 3495 H 332.113 -6.6384 -4.17475 0
M  V30 3496 N 329.616 1.39756 -0.72842 0
M  V30 3497 C 330.564 2.32485 -0.0731849 0
M  V30 3498 C 331.558 1.52717 0.733063 0
M  V30 3499 O 332.764 1.68428 0.634988 0
M  V30 3500 H 329.139 0.751984 -0.00486469 0
M  V30 3501 H 331.11 2.85382 -0.871761 0
M  V30 3502 C 329.859 3.37773 0.824908 0
M  V30 3503 H 329.182 3.99227 0.213915 0
M  V30 3504 H 330.622 4.05121 1.25111 0
M  V30 3505 C 329.081 2.74287 1.95622 0
M  V30 3506 O 329.611 2.61618 3.04826 0
M  V30 3507 N 327.817 2.32475 1.74367 0
M  V30 3508 H 327.364 2.4298 0.855494 0
M  V30 3509 H 327.322 1.90337 2.50238 0
M  V30 3510 N 331.094 0.475555 1.50254 0
M  V30 3511 C 332.004 -0.321501 2.32387 0
M  V30 3512 C 333.02 -0.991755 1.42969 0
M  V30 3513 O 334.196 -0.978747 1.76018 0
M  V30 3514 C 331.261 -1.38667 3.17762 0
M  V30 3515 C 330.322 -0.732538 4.23004 0
M  V30 3516 C 329.555 -1.74695 5.04299 0
M  V30 3517 O 329.778 -2.97399 4.86734 0
M  V30 3518 O 328.712 -1.31631 5.8733 0
M  V30 3519 H 332.538 0.350071 3.01676 0
M  V30 3520 H 330.123 0.237321 1.47503 0
M  V30 3521 H 332.005 -2.00354 3.70724 0
M  V30 3522 H 330.68 -2.04163 2.51196 0
M  V30 3523 H 329.587 -0.0765902 3.74022 0
M  V30 3524 H 330.92 -0.120452 4.92053 0
M  V30 3525 N 332.573 -1.56217 0.208337 0
M  V30 3526 C 333.801 -2.02337 -0.43215 0
M  V30 3527 C 334.216 -1.08834 -1.54275 0
M  V30 3528 O 333.573 -0.0955462 -1.8225 0
M  V30 3529 C 333.624 -3.48072 -0.976138 0
M  V30 3530 O 333.345 -4.38007 0.0901621 0
M  V30 3531 C 334.846 -4.09773 -1.69119 0
M  V30 3532 H 332.066 -0.662385 -0.10718 0
M  V30 3533 H 334.61 -2.01966 0.320923 0
M  V30 3534 H 332.765 -3.49099 -1.67954 0
M  V30 3535 H 333.179 -5.23543 -0.316701 0
M  V30 3536 H 334.653 -5.13556 -2.02397 0
M  V30 3537 H 335.13 -3.53999 -2.59964 0
M  V30 3538 H 335.736 -4.12556 -1.03332 0
M  V30 3539 N 334.051 0.0651679 -1.57465 0
M  V30 3540 C 335.298 0.763063 -1.87573 0
M  V30 3541 C 335.626 1.77242 -0.800961 0
M  V30 3542 O 334.881 1.94651 0.202316 0
M  V30 3543 C 335.18 1.50081 -3.24362 0
M  V30 3544 C 334.846 0.630816 -4.46466 0
M  V30 3545 C 333.508 0.391082 -4.79608 0
M  V30 3546 C 335.86 0.0279465 -5.21193 0
M  V30 3547 C 333.188 -0.460894 -5.84887 0
M  V30 3548 C 335.54 -0.811522 -6.27373 0
M  V30 3549 C 334.204 -1.06106 -6.59013 0
M  V30 3550 H 333.474 0.279224 -0.686378 0
M  V30 3551 H 336.121 0.0236726 -1.91485 0
M  V30 3552 H 334.426 2.31258 -3.16271 0
M  V30 3553 H 336.123 2.04571 -3.44894 0
M  V30 3554 H 332.713 0.8278 -4.2053 0
M  V30 3555 H 336.897 0.200262 -4.95896 0
M  V30 3556 H 332.153 -0.662907 -6.07796 0
M  V30 3557 H 336.327 -1.28537 -6.84435 0
M  V30 3558 H 333.954 -1.723 -7.40417 0
M  V30 3559 N 335.529 1.53961 0.336706 0
M  V30 3560 C 336.775 1.7179 1.07777 0
M  V30 3561 C 337.108 0.483263 1.88091 0
M  V30 3562 O 336.383 -0.519747 1.87427 0
M  V30 3563 C 336.666 2.98558 2.01334 0
M  V30 3564 C 336.519 4.32245 1.24437 0
M  V30 3565 C 337.838 3.21023 3.01052 0
M  V30 3566 H 334.957 0.625089 0.390426 0
M  V30 3567 H 337.599 1.86641 0.35567 0
M  V30 3568 H 335.749 2.86028 2.62908 0
M  V30 3569 H 337.421 4.56637 0.654243 0
M  V30 3570 H 335.664 4.30344 0.546458 0
M  V30 3571 H 336.335 5.17137 1.93063 0
M  V30 3572 H 338.811 3.32929 2.49595 0
M  V30 3573 H 337.687 4.11104 3.6371 0
M  V30 3574 H 337.948 2.37637 3.72802 0
M  V30 3575 N 337.007 -0.598083 1.45811 0
M  V30 3576 C 338.254 -1.35681 1.50323 0
M  V30 3577 C 338.582 -1.9393 0.148739 0
M  V30 3578 O 337.837 -1.76094 -0.853787 0
M  V30 3579 C 338.136 -2.51669 2.53766 0
M  V30 3580 C 337.802 -2.11508 3.98215 0
M  V30 3581 C 336.464 -2.0027 4.37545 0
M  V30 3582 C 338.816 -1.80308 4.89018 0
M  V30 3583 C 336.144 -1.56067 5.65562 0
M  V30 3584 C 338.496 -1.37589 6.17456 0
M  V30 3585 C 337.16 -1.24916 6.55708 0
M  V30 3586 H 336.43 -0.496492 0.550069 0
M  V30 3587 H 339.077 -0.675052 1.79207 0
M  V30 3588 H 337.382 -3.25225 2.18486 0
M  V30 3589 H 339.079 -3.09895 2.54492 0
M  V30 3590 H 335.669 -2.21185 3.67117 0
M  V30 3591 H 339.853 -1.87884 4.59362 0
M  V30 3592 H 335.109 -1.44886 5.93985 0
M  V30 3593 H 339.283 -1.12495 6.87254 0
M  V30 3594 H 336.91 -0.904386 7.54801 0
M  V30 3595 N 338.485 -1.33259 -0.841409 0
M  V30 3596 C 339.433 -1.23279 -1.97244 0
M  V30 3597 C 340.427 -0.134706 -1.68864 0
M  V30 3598 O 341.633 -0.298501 -1.77508 0
M  V30 3599 H 338.008 -0.382497 -0.647457 0
M  V30 3600 H 339.979 -2.18906 -2.02787 0
M  V30 3601 C 338.728 -0.986268 -3.33419 0
M  V30 3602 H 338.051 -1.82347 -3.55794 0
M  V30 3603 H 339.491 -0.956728 -4.13065 0
M  V30 3604 C 337.95 0.310842 -3.35463 0
M  V30 3605 O 338.48 1.31838 -3.79449 0
M  V30 3606 N 336.686 0.337485 -2.88634 0
M  V30 3607 H 336.233 -0.482967 -2.53032 0
M  V30 3608 H 336.191 1.20518 -2.90384 0
M  V30 3609 N 339.963 1.05934 -1.16686 0
M  V30 3610 C 340.893 2.1546 -0.899949 0
M  V30 3611 C 341.874 1.69391 0.155154 0
M  V30 3612 O 343.059 1.94199 0.00648693 0
M  V30 3613 C 340.189 3.44939 -0.404241 0
M  V30 3614 C 339.143 4.04536 -1.39767 0
M  V30 3615 C 338.469 5.29268 -0.760216 0
M  V30 3616 C 339.769 4.42893 -2.76845 0
M  V30 3617 H 341.463 2.38046 -1.81588 0
M  V30 3618 H 339.009 1.14404 -0.874514 0
M  V30 3619 H 340.962 4.20901 -0.204971 0
M  V30 3620 H 339.686 3.21983 0.547206 0
M  V30 3621 H 338.345 3.30635 -1.58355 0
M  V30 3622 H 337.993 5.02611 0.197831 0
M  V30 3623 H 337.693 5.70101 -1.42332 0
M  V30 3624 H 339.217 6.07924 -0.57105 0
M  V30 3625 H 340.631 5.09921 -2.62019 0
M  V30 3626 H 339.028 4.94721 -3.39663 0
M  V30 3627 H 340.098 3.53584 -3.31823 0
M  V30 3628 N 341.441 0.965919 1.2453 0
M  V30 3629 C 342.388 0.49402 2.25451 0
M  V30 3630 C 343.358 -0.45948 1.59618 0
M  V30 3631 O 344.543 -0.370238 1.87173 0
M  V30 3632 C 341.683 -0.211359 3.44452 0
M  V30 3633 C 340.796 0.7807 4.24887 0
M  V30 3634 C 339.931 0.0516105 5.31175 0
M  V30 3635 C 338.97 1.03385 6.03306 0
M  V30 3636 N 338.107 0.334887 7.01301 0
M  V30 3637 H 342.947 1.35946 2.65184 0
M  V30 3638 H 340.484 0.681515 1.3036 0
M  V30 3639 H 342.442 -0.637 4.12308 0
M  V30 3640 H 341.072 -1.04077 3.05562 0
M  V30 3641 H 340.124 1.32479 3.56586 0
M  V30 3642 H 341.436 1.52978 4.74762 0
M  V30 3643 H 340.59 -0.432114 6.05159 0
M  V30 3644 H 339.329 -0.730179 4.82203 0
M  V30 3645 H 338.334 1.52847 5.28127 0
M  V30 3646 H 339.559 1.81606 6.54367 0
M  V30 3647 H 337.505 -0.427959 6.54603 0
M  V30 3648 H 337.422 1.02287 7.49048 0
M  V30 3649 H 338.69 -0.126928 7.79397 0
M  V30 3650 N 342.919 -1.39368 0.735821 0
M  V30 3651 C 344.33 -1.83313 0.354015 0
M  V30 3652 C 344.681 -1.61461 -1.11466 0
M  V30 3653 O 343.806 -1.10621 -1.85989 0
M  V30 3654 C 344.401 -3.32781 0.635769 0
M  V30 3655 C 342.96 -3.75142 0.307448 0
M  V30 3656 C 342.107 -2.62358 0.897974 0
M  V30 3657 H 345.058 -1.28349 0.933398 0
M  V30 3658 H 345.079 -3.80388 -0.0921773 0
M  V30 3659 H 344.591 -3.48654 1.70476 0
M  V30 3660 H 342.692 -3.64857 -0.755674 0
M  V30 3661 H 342.805 -4.72532 0.790583 0
M  V30 3662 H 341.169 -2.52624 0.324551 0
M  V30 3663 H 341.952 -2.81036 1.97164 0
M  V30 3664 N 344.397 -0.483516 -1.5 0
M  V30 3665 C 345.645 0.067027 -2.01989 0
M  V30 3666 C 345.966 1.3909 -1.36671 0
M  V30 3667 O 345.236 1.88978 -0.516152 0
M  V30 3668 H 343.816 0.0277606 -0.746484 0
M  V30 3669 H 346.478 -0.636773 -1.84204 0
M  V30 3670 H 345.574 0.209484 -3.11396 0
M  V30 3671 N 345.875 1.56104 -0.216619 0
M  V30 3672 C 347.152 1.89988 0.465165 0
M  V30 3673 C 347.532 1.13326 1.78102 0
M  V30 3674 O 346.88 0.241033 2.27225 0
M  V30 3675 C 347.09 3.42646 0.662939 0
M  V30 3676 C 348.438 4.13311 0.972602 0
M  V30 3677 O 349.462 3.48217 0.749901 0
M  V30 3678 O 348.321 5.28396 1.39499 0
M  V30 3679 H 345.415 0.78979 0.245276 0
M  V30 3680 H 347.961 1.67721 -0.258436 0
M  V30 3681 H 346.733 3.90399 -0.26543 0
M  V30 3682 H 346.356 3.70677 1.43821 0
M  V30 3683 N 347.353 -0.0568162 1.57498 0
M  V30 3684 C 348.599 -0.75422 1.88253 0
M  V30 3685 C 348.932 -1.76461 0.810865 0
M  V30 3686 O 348.207 -1.93691 -0.177259 0
M  V30 3687 C 348.49 -1.44878 3.2967 0
M  V30 3688 C 348.343 -0.453789 4.47505 0
M  V30 3689 C 349.662 -2.38994 3.69554 0
M  V30 3690 H 346.781 -0.272724 0.684683 0
M  V30 3691 H 349.423 -0.0172113 1.89992 0
M  V30 3692 H 347.573 -2.077 3.28318 0
M  V30 3693 H 349.245 0.170371 4.60985 0
M  V30 3694 H 347.488 0.229552 4.33192 0
M  V30 3695 H 348.159 -0.977699 5.43273 0
M  V30 3696 H 350.635 -1.86239 3.72095 0
M  V30 3697 H 349.511 -2.84587 4.69363 0
M  V30 3698 H 349.772 -3.24461 3.00296 0
M  V30 3699 N 348.832 -1.54138 -0.328536 0
M  V30 3700 C 349.742 -1.86192 -1.42723 0
M  V30 3701 C 350.758 -0.753382 -1.56844 0
M  V30 3702 O 351.934 -1.04718 -1.72035 0
M  V30 3703 C 348.999 -2.07824 -2.77507 0
M  V30 3704 C 348.06 -3.31641 -2.72603 0
M  V30 3705 C 347.293 -3.52232 -4.00959 0
M  V30 3706 O 347.516 -2.7636 -4.9898 0
M  V30 3707 O 346.45 -4.45699 -4.0452 0
M  V30 3708 H 350.276 -2.79608 -1.18547 0
M  V30 3709 H 347.861 -1.3998 -0.522104 0
M  V30 3710 H 349.743 -2.23411 -3.57303 0
M  V30 3711 H 348.418 -1.17596 -3.01584 0
M  V30 3712 H 347.325 -3.21444 -1.91376 0
M  V30 3713 H 348.658 -4.2191 -2.53481 0
M  V30 3714 N 350.31 0.590341 -1.46126 0
M  V30 3715 C 351.726 0.912917 -1.30912 0
M  V30 3716 C 351.926 1.99616 -0.274893 0
M  V30 3717 O 350.982 2.50397 0.325197 0
M  V30 3718 C 352.295 1.3375 -2.69317 0
M  V30 3719 C 353.843 1.45077 -2.77348 0
M  V30 3720 C 354.318 1.90904 -4.16317 0
M  V30 3721 N 355.809 1.9811 -4.18696 0
M  V30 3722 C 356.544 2.34828 -5.23109 0
M  V30 3723 N 356.04 2.70393 -6.37856 0
M  V30 3724 N 357.833 2.35317 -5.10473 0
M  V30 3725 H 349.984 -0.125358 -2.1203 0
M  V30 3726 H 352.247 0.00658481 -0.947977 0
M  V30 3727 H 351.953 0.615614 -3.4627 0
M  V30 3728 H 351.827 2.30058 -2.9892 0
M  V30 3729 H 354.214 2.16353 -2.00687 0
M  V30 3730 H 354.295 0.4704 -2.51438 0
M  V30 3731 H 353.939 1.20209 -4.9347 0
M  V30 3732 H 353.869 2.89886 -4.39629 0
M  V30 3733 H 356.36 1.73146 -3.359 0
M  V30 3734 H 356.673 2.97341 -7.13308 0
M  V30 3735 H 355.018 2.68048 -6.41229 0
M  V30 3736 H 358.209 2.0695 -4.19868 0
M  V30 3737 H 358.382 2.63605 -5.9196 0
M  V30 3738 N 351.788 1.33704 0.83433 0
M  V30 3739 C 353.204 1.13137 1.12571 0
M  V30 3740 C 353.404 -0.0747261 2.01361 0
M  V30 3741 O 352.46 -0.753647 2.4099 0
M  V30 3742 C 353.773 2.42105 1.78342 0
M  V30 3743 C 355.321 2.48054 1.90888 0
M  V30 3744 C 355.796 3.76995 2.60075 0
M  V30 3745 N 357.287 3.78092 2.67584 0
M  V30 3746 C 358.022 4.74574 3.21818 0
M  V30 3747 N 357.518 5.81434 3.76705 0
M  V30 3748 N 359.311 4.62044 3.20112 0
M  V30 3749 H 351.462 2.11 0.243489 0
M  V30 3750 H 353.725 0.932532 0.17055 0
M  V30 3751 H 353.431 3.30391 1.20561 0
M  V30 3752 H 353.305 2.54594 2.7832 0
M  V30 3753 H 355.692 1.60215 2.47821 0
M  V30 3754 H 355.773 2.39502 0.898459 0
M  V30 3755 H 355.417 4.65219 2.03799 0
M  V30 3756 H 355.347 3.82825 3.61597 0
M  V30 3757 H 357.838 3.00865 2.28667 0
M  V30 3758 H 358.151 6.51084 4.16305 0
M  V30 3759 H 356.496 5.85163 3.7498 0
M  V30 3760 H 359.687 3.77716 2.76493 0
M  V30 3761 H 359.86 5.37406 3.62076 0
M  V30 3762 N 353.266 -1.05314 1.17247 0
M  V30 3763 C 354.196 -2.1498 0.911362 0
M  V30 3764 C 355.177 -1.69471 -0.146169 0
M  V30 3765 O 356.362 -1.942 0.003812 0
M  V30 3766 C 353.492 -3.4472 0.422528 0
M  V30 3767 C 352.446 -4.03789 1.4191 0
M  V30 3768 C 351.772 -5.28858 0.788274 0
M  V30 3769 C 353.072 -4.41418 2.7919 0
M  V30 3770 H 354.766 -2.3708 1.82848 0
M  V30 3771 H 352.312 -1.13938 0.880569 0
M  V30 3772 H 354.265 -4.20787 0.227289 0
M  V30 3773 H 352.989 -3.22269 -0.530123 0
M  V30 3774 H 351.648 -3.2979 1.60106 0
M  V30 3775 H 351.296 -5.02709 -0.171173 0
M  V30 3776 H 350.996 -5.69338 1.45353 0
M  V30 3777 H 352.52 -6.07612 0.603282 0
M  V30 3778 H 353.934 -5.08524 2.64719 0
M  V30 3779 H 352.331 -4.92913 3.42282 0
M  V30 3780 H 353.401 -3.51819 3.33693 0
M  V30 3781 N 354.744 -0.972509 -1.24016 0
M  V30 3782 C 355.969 -0.654417 -1.96805 0
M  V30 3783 C 356.394 0.770398 -1.716 0
M  V30 3784 O 355.752 1.52361 -0.982647 0
M  V30 3785 C 355.8 -0.941031 -3.48105 0
M  V30 3786 O 354.904 -0.0289472 -4.1239 0
M  V30 3787 H 354.245 -0.24692 -0.616382 0
M  V30 3788 H 356.775 -1.30396 -1.57664 0
M  V30 3789 H 356.785 -0.87452 -3.98517 0
M  V30 3790 H 355.46 -1.97939 -3.65777 0
M  V30 3791 H 354.037 -0.149192 -3.72601 0
M  V30 3792 N 356.222 1.38976 -0.743202 0
M  V30 3793 C 357.468 2.0064 -0.295189 0
M  V30 3794 C 357.801 1.5885 1.11716 0
M  V30 3795 O 357.076 0.821181 1.76315 0
M  V30 3796 C 357.359 3.578 -0.406318 0
M  V30 3797 C 357.212 4.09586 -1.85903 0
M  V30 3798 C 358.531 4.39616 0.206439 0
M  V30 3799 H 355.65 0.728935 -0.108733 0
M  V30 3800 H 358.292 1.65067 -0.940897 0
M  V30 3801 H 356.442 3.88235 0.143419 0
M  V30 3802 H 358.114 3.89837 -2.46627 0
M  V30 3803 H 356.357 3.6284 -2.3776 0
M  V30 3804 H 357.028 5.18708 -1.888 0
M  V30 3805 H 359.504 4.15273 -0.262283 0
M  V30 3806 H 358.38 5.48812 0.0983819 0
M  V30 3807 H 358.641 4.22754 1.2935 0
M  V30 3808 N 357.7 0.491464 1.49741 0
M  V30 3809 C 358.61 -0.296835 2.32715 0
M  V30 3810 C 359.626 -0.976536 1.44013 0
M  V30 3811 O 360.802 -0.960023 1.77047 0
M  V30 3812 C 357.867 -1.35288 3.19215 0
M  V30 3813 C 356.928 -0.687632 4.23757 0
M  V30 3814 C 356.161 -1.69336 5.06123 0
M  V30 3815 O 356.384 -2.92219 4.89861 0
M  V30 3816 O 355.318 -1.25394 5.88693 0
M  V30 3817 H 359.144 0.382048 3.01287 0
M  V30 3818 H 356.729 0.252953 1.47243 0
M  V30 3819 H 358.611 -1.96411 3.72828 0
M  V30 3820 H 357.286 -2.01487 2.53347 0
M  V30 3821 H 356.193 -0.0369159 3.74082 0
M  V30 3822 H 357.526 -0.0682566 4.92153 0
M  V30 3823 N 359.178 -1.55987 0.224894 0
M  V30 3824 C 360.424 -1.98684 -0.406502 0
M  V30 3825 C 360.757 -1.11248 -1.59177 0
M  V30 3826 O 360.032 -0.170909 -1.93748 0
M  V30 3827 C 360.315 -3.50218 -0.837808 0
M  V30 3828 C 360.168 -4.48426 0.351332 0
M  V30 3829 C 361.487 -4.06243 -1.69278 0
M  V30 3830 H 358.606 -0.722337 -0.146283 0
M  V30 3831 H 361.248 -1.87255 0.321799 0
M  V30 3832 H 359.398 -3.60089 -1.45837 0
M  V30 3833 H 361.07 -4.50562 0.989526 0
M  V30 3834 H 359.313 -4.22159 0.998207 0
M  V30 3835 H 359.984 -5.52 0.00655905 0
M  V30 3836 H 362.46 -3.99337 -1.16914 0
M  V30 3837 H 361.336 -5.12581 -1.96346 0
M  V30 3838 H 361.597 -3.53332 -2.65723 0
M  V30 3839 N 360.656 0.0484629 -1.57525 0
M  V30 3840 C 361.902 0.738854 -1.89506 0
M  V30 3841 C 362.257 1.73989 -0.821319 0
M  V30 3842 O 361.55 1.90825 0.172129 0
M  V30 3843 C 361.744 1.46632 -3.25935 0
M  V30 3844 C 361.573 0.537254 -4.46479 0
M  V30 3845 C 360.343 0.165484 -5.05029 0
M  V30 3846 C 362.541 -0.176085 -5.13998 0
M  V30 3847 N 360.523 -0.766868 -6.09091 0
M  V30 3848 C 361.894 -0.96478 -6.12448 0
M  V30 3849 C 363.949 -0.24509 -4.97296 0
M  V30 3850 C 362.652 -1.8161 -6.95996 0
M  V30 3851 C 364.678 -1.08347 -5.81391 0
M  V30 3852 C 364.04 -1.86014 -6.79395 0
M  V30 3853 H 360.139 0.245067 -0.742608 0
M  V30 3854 H 362.723 -0.000476161 -1.947 0
M  V30 3855 H 360.894 2.17623 -3.21706 0
M  V30 3856 H 362.626 2.10757 -3.45491 0
M  V30 3857 H 359.381 0.523466 -4.70698 0
M  V30 3858 H 359.805 -1.22698 -6.65788 0
M  V30 3859 H 364.447 0.341063 -4.21422 0
M  V30 3860 H 362.165 -2.41313 -7.71229 0
M  V30 3861 H 365.751 -1.14014 -5.70519 0
M  V30 3862 H 364.631 -2.4984 -7.43337 0
M  V30 3863 N 362.134 1.5431 0.320358 0
M  V30 3864 C 363.411 1.63322 1.07635 0
M  V30 3865 C 363.791 0.46912 2.05821 0
M  V30 3866 O 363.139 -0.536274 2.22118 0
M  V30 3867 C 363.349 3.00465 1.77544 0
M  V30 3868 C 364.697 3.56621 2.30449 0
M  V30 3869 O 365.721 3.02791 1.87606 0
M  V30 3870 O 364.58 4.5083 3.08892 0
M  V30 3871 H 361.674 0.661502 0.496331 0
M  V30 3872 H 364.22 1.66656 0.319992 0
M  V30 3873 H 362.992 3.76629 1.06143 0
M  V30 3874 H 362.615 3.00824 2.59982 0
M  V30 3875 N 363.613 -0.582584 1.46437 0
M  V30 3876 C 364.859 -1.34064 1.52965 0
M  V30 3877 C 365.214 -1.91566 0.178968 0
M  V30 3878 O 364.507 -1.73526 -0.812365 0
M  V30 3879 C 364.701 -2.48964 2.56421 0
M  V30 3880 C 364.53 -2.02717 4.01417 0
M  V30 3881 C 363.3 -1.87728 4.69134 0
M  V30 3882 C 365.498 -1.58675 4.8921 0
M  V30 3883 N 363.48 -1.35554 5.98747 0
M  V30 3884 C 364.851 -1.18093 6.08649 0
M  V30 3885 C 366.906 -1.46494 4.75861 0
M  V30 3886 C 365.609 -0.665427 7.16215 0
M  V30 3887 C 367.635 -0.96347 5.83499 0
M  V30 3888 C 366.997 -0.567432 7.02111 0
M  V30 3889 H 363.096 -0.483551 0.614575 0
M  V30 3890 H 365.68 -0.663309 1.83053 0
M  V30 3891 H 363.851 -3.1426 2.28244 0
M  V30 3892 H 365.583 -3.15913 2.52944 0
M  V30 3893 H 362.338 -2.09678 4.24655 0
M  V30 3894 H 362.762 -1.11628 6.67734 0
M  V30 3895 H 367.404 -1.75731 3.8455 0
M  V30 3896 H 365.122 -0.360639 8.07295 0
M  V30 3897 H 368.708 -0.873129 5.75211 0
M  V30 3898 H 367.588 -0.185389 7.83981 0
M  V30 3899 N 365.091 -1.34144 -0.827227 0
M  V30 3900 C 366.368 -1.16844 -1.56865 0
M  V30 3901 C 366.748 0.260654 -2.09485 0
M  V30 3902 O 366.096 1.26138 -1.9053 0
M  V30 3903 C 366.306 -2.21939 -2.6934 0
M  V30 3904 C 367.654 -2.56695 -3.3822 0
M  V30 3905 O 368.678 -2.20695 -2.79593 0
M  V30 3906 O 367.537 -3.18518 -4.44082 0
M  V30 3907 H 364.631 -0.452669 -0.692112 0
M  V30 3908 H 367.177 -1.45763 -0.868973 0
M  V30 3909 H 365.949 -3.17882 -2.28182 0
M  V30 3910 H 365.572 -1.94172 -3.46962 0
M  V30 3911 N 366.569 1.04691 -1.17803 0
M  V30 3912 C 367.985 1.29963 -0.926379 0
M  V30 3913 C 368.185 1.97251 0.411635 0
M  V30 3914 O 367.241 2.24922 1.14744 0
M  V30 3915 C 368.554 2.16447 -2.08737 0
M  V30 3916 C 370.102 2.29814 -2.12496 0
M  V30 3917 C 370.577 3.19661 -3.27995 0
M  V30 3918 N 372.068 3.27247 -3.27816 0
M  V30 3919 C 372.803 3.96906 -4.13827 0
M  V30 3920 N 372.299 4.6895 -5.09959 0
M  V30 3921 N 374.092 3.93122 -4.01761 0
M  V30 3922 H 366.243 0.594182 -2.0392 0
M  V30 3923 H 368.506 0.324649 -0.890678 0
M  V30 3924 H 368.212 1.74304 -3.05469 0
M  V30 3925 H 368.086 3.17103 -2.04268 0
M  V30 3926 H 370.473 2.71196 -1.16347 0
M  V30 3927 H 370.554 1.2877 -2.21025 0
M  V30 3928 H 370.198 2.78991 -4.24413 0
M  V30 3929 H 370.128 4.20722 -3.16703 0
M  V30 3930 H 372.619 2.75921 -2.58217 0
M  V30 3931 H 372.932 5.19679 -5.71974 0
M  V30 3932 H 371.277 4.67875 -5.13924 0
M  V30 3933 H 374.468 3.35967 -3.2595 0
M  V30 3934 H 374.641 4.47139 -4.6901 0
M  V30 3935 N 368.047 0.979072 1.23499 0
M  V30 3936 C 369.275 0.665202 1.95915 0
M  V30 3937 C 369.69 -0.767571 1.72493 0
M  V30 3938 O 369.047 -1.51635 1.01554 0
M  V30 3939 C 369.098 0.944438 3.48945 0
M  V30 3940 O 368.819 2.3209 3.71572 0
M  V30 3941 C 370.32 0.646336 4.38563 0
M  V30 3942 H 367.54 0.247218 0.623798 0
M  V30 3943 H 370.084 1.31009 1.57025 0
M  V30 3944 H 368.239 0.345575 3.85856 0
M  V30 3945 H 368.653 2.40957 4.65876 0
M  V30 3946 H 370.127 0.892091 5.44744 0
M  V30 3947 H 370.604 -0.419575 4.37191 0
M  V30 3948 H 371.21 1.22562 4.07258 0
M  V30 3949 N 369.525 -1.3858 0.750561 0
M  V30 3950 C 370.75 -2.04997 0.314812 0
M  V30 3951 C 371.175 -1.56235 -1.04749 0
M  V30 3952 O 370.533 -0.712981 -1.66692 0
M  V30 3953 C 370.581 -3.58961 0.343415 0
M  V30 3954 O 369.685 -4.07025 -0.663628 0
M  V30 3955 H 369.026 -0.649081 0.139962 0
M  V30 3956 H 371.556 -1.77313 1.02084 0
M  V30 3957 H 371.566 -4.07542 0.193233 0
M  V30 3958 H 370.241 -3.93811 1.33738 0
M  V30 3959 H 368.818 -3.6982 -0.478307 0
M  V30 3960 N 371.003 -0.499398 -1.49478 0
M  V30 3961 C 372.419 -0.155261 -1.58843 0
M  V30 3962 C 372.619 1.34008 -1.50479 0
M  V30 3963 O 371.675 2.11589 -1.37791 0
M  V30 3964 C 372.988 -0.730636 -2.91689 0
M  V30 3965 C 374.536 -0.696599 -3.0515 0
M  V30 3966 C 375.011 -1.25001 -4.40612 0
M  V30 3967 N 376.502 -1.21064 -4.47099 0
M  V30 3968 C 377.237 -1.60905 -5.50361 0
M  V30 3969 N 376.733 -2.08331 -6.60735 0
M  V30 3970 N 378.526 -1.52331 -5.41065 0
M  V30 3971 H 370.677 -1.47162 -1.53158 0
M  V30 3972 H 372.94 -0.610309 -0.725415 0
M  V30 3973 H 372.646 -1.77928 -3.03372 0
M  V30 3974 H 372.52 -0.190161 -3.7672 0
M  V30 3975 H 374.907 0.343204 -2.93097 0
M  V30 3976 H 374.988 -1.2742 -2.21806 0
M  V30 3977 H 374.632 -2.28859 -4.53416 0
M  V30 3978 H 374.562 -0.64836 -5.22593 0
M  V30 3979 H 377.053 -0.863128 -3.67911 0
M  V30 3980 H 377.366 -2.36805 -7.35624 0
M  V30 3981 H 375.711 -2.12304 -6.6178 0
M  V30 3982 H 378.902 -1.151 -4.53729 0
M  V30 3983 H 379.075 -1.83704 -6.21415 0
M  V30 3984 N 372.481 1.55866 -0.233164 0
M  V30 3985 C 373.429 2.22176 0.68851 0
M  V30 3986 C 374.423 1.20487 1.19076 0
M  V30 3987 O 375.629 1.38536 1.14925 0
M  V30 3988 H 372.004 0.712511 0.240483 0
M  V30 3989 H 373.975 2.98212 0.105935 0
M  V30 3990 C 372.724 2.92446 1.88071 0
M  V30 3991 H 372.047 3.70458 1.50337 0
M  V30 3992 H 373.487 3.42226 2.50314 0
M  V30 3993 C 371.946 1.95555 2.74335 0
M  V30 3994 O 372.476 1.47986 3.73447 0
M  V30 3995 N 370.682 1.62953 2.40613 0
M  V30 3996 H 370.229 2.01831 1.60069 0
M  V30 3997 H 370.187 0.983886 2.98609 0
M  V30 3998 N 373.959 -0.0401083 1.57549 0
M  V30 3999 C 375.236 -0.767917 1.79896 0
M  V30 4000 C 375.616 -1.9416 0.82856 0
M  V30 4001 O 374.964 -2.2812 -0.131671 0
M  V30 4002 C 375.174 -1.2113 3.27305 0
M  V30 4003 C 376.522 -1.63175 3.91994 0
M  V30 4004 O 377.546 -1.30616 3.31388 0
M  V30 4005 O 376.405 -2.23565 4.98679 0
M  V30 4006 H 373.499 -0.370441 0.739393 0
M  V30 4007 H 376.045 -0.017737 1.69691 0
M  V30 4008 H 374.817 -0.372937 3.89519 0
M  V30 4009 H 374.44 -2.02183 3.42356 0
M  V30 4010 N 375.437 -1.54477 -0.31217 0
M  V30 4011 C 376.684 -1.73227 -1.04875 0
M  V30 4012 C 377.012 -0.512042 -1.87639 0
M  V30 4013 O 376.267 0.506131 -1.89042 0
M  V30 4014 C 376.566 -2.967 -1.99258 0
M  V30 4015 C 376.232 -4.30974 -1.32559 0
M  V30 4016 C 374.894 -4.67477 -1.141 0
M  V30 4017 C 377.246 -5.14258 -0.847835 0
M  V30 4018 C 374.574 -5.84852 -0.465326 0
M  V30 4019 C 376.926 -6.32327 -0.185931 0
M  V30 4020 C 375.59 -6.67499 0.0107077 0
M  V30 4021 H 374.86 -0.633881 -0.383765 0
M  V30 4022 H 377.507 -1.88727 -0.324731 0
M  V30 4023 H 375.812 -2.75935 -2.7815 0
M  V30 4024 H 377.509 -3.08401 -2.563 0
M  V30 4025 H 374.099 -4.02262 -1.4793 0
M  V30 4026 H 378.283 -4.86565 -0.978192 0
M  V30 4027 H 373.539 -6.10654 -0.301883 0
M  V30 4028 H 377.713 -6.96135 0.192211 0
M  V30 4029 H 375.34 -7.58306 0.536287 0
M  V30 4030 N 376.915 0.57481 -1.46744 0
M  V30 4031 C 377.848 1.69827 -1.52427 0
M  V30 4032 C 378.826 1.58151 -0.377744 0
M  V30 4033 O 380.01 1.79257 -0.58303 0
M  V30 4034 C 377.137 3.07943 -1.41027 0
M  V30 4035 C 376.183 3.38116 -2.59961 0
M  V30 4036 S 377.016 3.29313 -4.22272 0
M  V30 4037 C 378.172 4.69953 -4.13394 0
M  V30 4038 H 378.405 1.64748 -2.47478 0
M  V30 4039 H 375.938 0.754203 -1.34726 0
M  V30 4040 H 377.896 3.87619 -1.35137 0
M  V30 4041 H 376.557 3.10504 -0.473909 0
M  V30 4042 H 375.75 4.38762 -2.47999 0
M  V30 4043 H 375.352 2.66024 -2.62882 0
M  V30 4044 H 377.644 5.60517 -3.80562 0
M  V30 4045 H 378.587 4.86972 -5.14066 0
M  V30 4046 H 378.995 4.47174 -3.44522 0
M  V30 4047 N 378.394 1.34581 0.820102 0
M  V30 4048 C 379.642 1.26845 1.57336 0
M  V30 4049 C 379.963 -0.160667 1.94337 0
M  V30 4050 O 379.233 -1.09396 1.6251 0
M  V30 4051 H 377.813 0.466514 0.583415 0
M  V30 4052 H 380.475 1.68526 0.979027 0
M  V30 4053 H 379.571 1.87513 2.4949 0
M  V30 4054 N 379.872 -1.04064 1.18357 0
M  V30 4055 C 380.835 -2.10243 0.912707 0
M  V30 4056 C 381.835 -1.60477 -0.101928 0
M  V30 4057 O 383.025 -1.73703 0.131517 0
M  V30 4058 C 380.157 -3.38893 0.369387 0
M  V30 4059 H 381.35 -2.35706 1.85426 0
M  V30 4060 H 378.903 -1.20489 0.995594 0
M  V30 4061 H 379.638 -3.19094 -0.578776 0
M  V30 4062 H 379.423 -3.76331 1.1008 0
M  V30 4063 H 380.913 -4.17128 0.198575 0
M  V30 4064 N 381.35 -0.985608 -1.22978 0
M  V30 4065 C 382.283 -0.47487 -2.23204 0
M  V30 4066 C 383.261 0.460865 -1.55932 0
M  V30 4067 O 384.445 0.388105 -1.84461 0
M  V30 4068 C 381.572 0.312427 -3.37256 0
M  V30 4069 C 380.618 -0.568219 -4.22698 0
M  V30 4070 S 381.451 -2.01919 -4.95973 0
M  V30 4071 C 382.607 -1.24118 -6.1347 0
M  V30 4072 H 382.84 -1.32419 -2.66181 0
M  V30 4073 H 380.373 -0.792005 -1.32539 0
M  V30 4074 H 382.331 0.760645 -4.03391 0
M  V30 4075 H 380.992 1.13693 -2.92801 0
M  V30 4076 H 380.185 0.0371657 -5.03986 0
M  V30 4077 H 379.787 -0.952897 -3.61657 0
M  V30 4078 H 382.079 -0.505121 -6.75614 0
M  V30 4079 H 383.022 -2.02907 -6.78406 0
M  V30 4080 H 383.43 -0.757669 -5.59392 0
M  V30 4081 N 382.828 1.3818 -0.7579 0
M  V30 4082 C 384.053 2.04827 -0.325679 0
M  V30 4083 C 384.478 1.56788 1.03919 0
M  V30 4084 O 383.836 0.721811 1.66312 0
M  V30 4085 C 383.884 3.58774 -0.362447 0
M  V30 4086 O 382.988 4.07372 0.642033 0
M  V30 4087 H 382.329 0.64833 -0.143402 0
M  V30 4088 H 384.859 1.7677 -1.03023 0
M  V30 4089 H 384.869 4.07434 -0.214844 0
M  V30 4090 H 383.544 3.93096 -1.35824 0
M  V30 4091 H 382.121 3.70068 0.458688 0
M  V30 4092 N 384.306 0.507319 1.49211 0
M  V30 4093 C 385.553 -0.0349529 2.0247 0
M  V30 4094 C 385.881 -1.36409 1.38647 0
M  V30 4095 O 385.136 -1.88841 0.513566 0
M  V30 4096 C 385.435 -0.229513 3.56662 0
M  V30 4097 C 385.101 1.02241 4.39156 0
M  V30 4098 C 383.763 1.36557 4.61417 0
M  V30 4099 C 386.115 1.85428 4.871 0
M  V30 4100 C 383.443 2.53999 5.28868 0
M  V30 4101 C 385.795 3.02028 5.55843 0
M  V30 4102 C 384.459 3.36717 5.76349 0
M  V30 4103 H 383.729 -0.0127902 0.74089 0
M  V30 4104 H 386.376 0.668756 1.79443 0
M  V30 4105 H 384.681 -1.0158 3.78403 0
M  V30 4106 H 386.378 -0.663641 3.9547 0
M  V30 4107 H 382.968 0.745124 4.22073 0
M  V30 4108 H 387.152 1.6023 4.69723 0
M  V30 4109 H 382.408 2.81105 5.42946 0
M  V30 4110 H 386.582 3.66808 5.91967 0
M  V30 4111 H 384.209 4.27821 6.28389 0
M  V30 4112 N 385.784 -1.5574 0.241426 0
M  V30 4113 C 387.032 -1.98417 -0.384075 0
M  V30 4114 C 387.353 -1.13078 -1.58866 0
M  V30 4115 O 386.623 -0.212312 -1.94746 0
M  V30 4116 H 385.203 -0.732813 -0.144894 0
M  V30 4117 H 387.865 -1.9193 0.338943 0
M  V30 4118 H 386.961 -3.04219 -0.696939 0
M  V30 4119 N 387.262 0.0317525 -1.57568 0
M  V30 4120 C 388.508 0.724175 -1.8943 0
M  V30 4121 C 388.841 1.75149 -0.838836 0
M  V30 4122 O 388.116 1.93948 0.146422 0
M  V30 4123 C 388.399 1.39615 -3.31933 0
M  V30 4124 C 388.252 0.382537 -4.4817 0
M  V30 4125 C 389.571 2.33084 -3.73309 0
M  V30 4126 H 386.69 0.261797 -0.688935 0
M  V30 4127 H 389.332 -0.013017 -1.89996 0
M  V30 4128 H 387.482 2.02451 -3.31581 0
M  V30 4129 H 389.154 -0.243689 -4.60656 0
M  V30 4130 H 387.397 -0.29844 -4.32772 0
M  V30 4131 H 388.068 0.891145 -5.44759 0
M  V30 4132 H 390.544 1.80295 -3.7501 0
M  V30 4133 H 389.42 2.77084 -4.73831 0
M  V30 4134 H 389.681 3.19643 -3.05419 0
M  V30 4135 N 388.74 1.54641 0.303973 0
M  V30 4136 C 389.965 1.78092 1.06292 0
M  V30 4137 C 390.39 0.537342 1.80262 0
M  V30 4138 O 389.748 -0.511993 1.7392 0
M  V30 4139 C 389.796 2.98612 2.02147 0
M  V30 4140 O 388.9 2.71528 3.10397 0
M  V30 4141 H 388.241 0.589548 0.305497 0
M  V30 4142 H 390.771 2.01716 0.3423 0
M  V30 4143 H 390.781 3.265 2.44667 0
M  V30 4144 H 389.456 3.88785 1.47714 0
M  V30 4145 H 388.033 2.54648 2.72413 0
M  V30 4146 N 390.218 -0.567019 1.47046 0
M  V30 4147 C 391.128 -1.70247 1.6141 0
M  V30 4148 C 392.144 -1.66746 0.497157 0
M  V30 4149 O 393.32 -1.86371 0.763389 0
M  V30 4150 C 390.385 -3.06756 1.61561 0
M  V30 4151 C 389.446 -3.21399 2.84607 0
M  V30 4152 C 388.679 -4.51396 2.84741 0
M  V30 4153 O 388.902 -5.36255 1.94388 0
M  V30 4154 O 387.836 -4.69621 3.76483 0
M  V30 4155 H 391.662 -1.61073 2.57467 0
M  V30 4156 H 389.247 -0.735894 1.30019 0
M  V30 4157 H 391.129 -3.8801 1.64396 0
M  V30 4158 H 389.804 -3.16333 0.686684 0
M  V30 4159 H 388.711 -2.39579 2.8732 0
M  V30 4160 H 390.044 -3.16721 3.76761 0
M  V30 4161 N 391.696 -1.35014 -0.812953 0
M  V30 4162 C 392.626 -1.30069 -1.93919 0
M  V30 4163 C 393.607 -0.176275 -1.69184 0
M  V30 4164 O 394.792 -0.370227 -1.90638 0
M  V30 4165 C 391.922 -1.06547 -3.30552 0
M  V30 4166 C 390.876 -2.15561 -3.69753 0
M  V30 4167 C 390.202 -1.77214 -5.04479 0
M  V30 4168 C 391.502 -3.57476 -3.808 0
M  V30 4169 H 393.196 -2.24303 -1.98314 0
M  V30 4170 H 390.742 -1.07977 -0.952736 0
M  V30 4171 H 392.695 -1.01729 -4.08937 0
M  V30 4172 H 391.419 -0.0875719 -3.26483 0
M  V30 4173 H 390.078 -2.19466 -2.9365 0
M  V30 4174 H 389.726 -0.780589 -4.96906 0
M  V30 4175 H 389.426 -2.50184 -5.31678 0
M  V30 4176 H 390.95 -1.7391 -5.8531 0
M  V30 4177 H 392.364 -3.55929 -4.4943 0
M  V30 4178 H 390.761 -4.29152 -4.19462 0
M  V30 4179 H 391.831 -3.94091 -2.82525 0
M  V30 4180 N 393.175 1.03435 -1.18907 0
M  V30 4181 C 394.105 2.13503 -0.945448 0
M  V30 4182 C 395.086 1.69682 0.119189 0
M  V30 4183 O 396.271 1.94169 -0.034707 0
M  V30 4184 C 393.401 3.44004 -0.477316 0
M  V30 4185 C 392.355 4.0148 -1.48316 0
M  V30 4186 C 391.681 5.27537 -0.872311 0
M  V30 4187 C 392.981 4.36921 -2.86177 0
M  V30 4188 H 394.675 2.34141 -1.86597 0
M  V30 4189 H 392.221 1.12523 -0.898584 0
M  V30 4190 H 394.174 4.20372 -0.294204 0
M  V30 4191 H 392.898 3.23072 0.478786 0
M  V30 4192 H 391.557 3.27201 -1.65332 0
M  V30 4193 H 391.205 5.02917 0.0911752 0
M  V30 4194 H 390.905 5.66954 -1.54393 0
M  V30 4195 H 392.429 6.06576 -0.699871 0
M  V30 4196 H 393.843 5.04248 -2.72776 0
M  V30 4197 H 392.24 4.87405 -3.50081 0
M  V30 4198 H 393.31 3.46466 -3.39248 0
M  V30 4199 N 394.653 0.992116 1.22453 0
M  V30 4200 C 395.6 0.541731 2.24352 0
M  V30 4201 C 396.57 -0.425519 1.60557 0
M  V30 4202 O 397.755 -0.330453 1.87917 0
M  V30 4203 C 394.895 -0.138248 3.44823 0
M  V30 4204 C 394.008 0.870649 4.23136 0
M  V30 4205 C 393.143 0.164269 5.30946 0
M  V30 4206 C 392.182 1.16159 6.00977 0
M  V30 4207 N 391.319 0.483568 7.00433 0
M  V30 4208 H 396.159 1.41541 2.62241 0
M  V30 4209 H 393.696 0.709013 1.28885 0
M  V30 4210 H 395.654 -0.5494 4.13567 0
M  V30 4211 H 394.284 -0.975721 3.077 0
M  V30 4212 H 393.336 1.40013 3.53696 0
M  V30 4213 H 394.648 1.63014 4.7141 0
M  V30 4214 H 393.802 -0.303653 6.0594 0
M  V30 4215 H 392.541 -0.627733 4.83643 0
M  V30 4216 H 391.546 1.64015 5.24766 0
M  V30 4217 H 392.771 1.95445 6.50368 0
M  V30 4218 H 390.717 -0.289012 6.55363 0
M  V30 4219 H 390.634 1.18152 7.4671 0
M  V30 4220 H 391.902 0.0384219 7.79491 0
M  V30 4221 N 396.131 -1.37776 0.765217 0
M  V30 4222 C 397.094 -2.28686 0.153416 0
M  V30 4223 C 398.094 -1.47727 -0.635081 0
M  V30 4224 O 399.284 -1.68027 -0.459632 0
M  V30 4225 C 396.416 -3.31608 -0.790495 0
M  V30 4226 H 397.609 -2.84297 0.954723 0
M  V30 4227 H 395.162 -1.46932 0.53299 0
M  V30 4228 H 395.897 -2.81109 -1.61705 0
M  V30 4229 H 395.682 -3.9144 -0.227348 0
M  V30 4230 H 397.172 -3.99559 -1.21419 0
M  V30 4231 N 397.609 -0.515225 -1.4894 0
M  V30 4232 C 399.02 -0.0710067 -1.86565 0
M  V30 4233 C 399.371 1.34733 -1.42623 0
M  V30 4234 O 398.496 2.00653 -0.810379 0
M  V30 4235 C 399.091 -0.122083 -3.3858 0
M  V30 4236 C 397.65 0.266863 -3.75453 0
M  V30 4237 C 396.797 -0.488376 -2.72966 0
M  V30 4238 H 399.748 -0.727266 -1.41055 0
M  V30 4239 H 399.769 0.669818 -3.74558 0
M  V30 4240 H 399.281 -1.15448 -3.70531 0
M  V30 4241 H 397.382 1.30196 -3.49113 0
M  V30 4242 H 397.495 -0.0624811 -4.79059 0
M  V30 4243 H 395.859 0.0635622 -2.54621 0
M  V30 4244 H 396.642 -1.52113 -3.07761 0
M  V30 4245 N 399.087 1.5561 -0.249682 0
M  V30 4246 C 400.333 1.99306 0.374841 0
M  V30 4247 C 400.666 1.13767 1.57387 0
M  V30 4248 O 399.941 0.201711 1.93451 0
M  V30 4249 C 400.224 3.51507 0.781986 0
M  V30 4250 C 400.077 4.4781 -0.422629 0
M  V30 4251 C 401.396 4.08884 1.62793 0
M  V30 4252 H 398.515 0.724572 0.134773 0
M  V30 4253 H 401.157 1.86719 -0.351549 0
M  V30 4254 H 399.307 3.62363 1.4009 0
M  V30 4255 H 400.979 4.48931 -1.06108 0
M  V30 4256 H 399.222 4.20518 -1.06524 0
M  V30 4257 H 399.893 5.51919 -0.0943766 0
M  V30 4258 H 402.369 4.01147 1.10547 0
M  V30 4259 H 401.245 5.1564 1.88166 0
M  V30 4260 H 401.506 3.57515 2.60068 0
M  V30 4261 N 400.565 -0.0233959 1.57583 0
M  V30 4262 C 401.842 -0.748794 1.807 0
M  V30 4263 C 402.222 -1.9327 0.849106 0
M  V30 4264 O 401.57 -2.28247 -0.107468 0
M  V30 4265 C 401.78 -1.17651 3.28571 0
M  V30 4266 C 403.128 -1.59008 3.93702 0
M  V30 4267 O 404.152 -1.27094 3.32755 0
M  V30 4268 O 403.011 -2.18264 5.01022 0
M  V30 4269 H 400.105 -0.362578 0.743281 0
M  V30 4270 H 402.651 0.000261958 1.697 0
M  V30 4271 H 401.423 -0.331603 3.89892 0
M  V30 4272 H 401.046 -1.98541 3.44481 0
M  V30 4273 N 402.043 -1.548 -0.295768 0
M  V30 4274 C 403.291 -1.73985 -1.02828 0
M  V30 4275 C 403.612 -0.531406 -1.87619 0
M  V30 4276 O 402.882 0.454221 -1.90561 0
M  V30 4277 H 401.462 -0.641556 -0.382642 0
M  V30 4278 H 404.124 -1.92163 -0.325489 0
M  V30 4279 H 403.22 -2.63129 -1.67838 0
M  V30 4280 N 403.521 0.559213 -1.47345 0
M  V30 4281 C 404.767 1.31614 -1.55079 0
M  V30 4282 C 405.122 1.91257 -0.209422 0
M  V30 4283 O 404.415 1.74796 0.784656 0
M  V30 4284 C 404.609 2.44853 -2.6035 0
M  V30 4285 C 404.438 1.96305 -4.04591 0
M  V30 4286 C 403.208 1.8024 -4.72061 0
M  V30 4287 C 405.406 1.50872 -4.91673 0
M  V30 4288 N 403.388 1.26011 -6.00828 0
M  V30 4289 C 404.759 1.08395 -6.10451 0
M  V30 4290 C 406.814 1.38905 -4.78132 0
M  V30 4291 C 405.517 0.551399 -7.17183 0
M  V30 4292 C 407.543 0.870518 -5.84958 0
M  V30 4293 C 406.905 0.455661 -7.02925 0
M  V30 4294 H 403.004 0.473712 -0.62219 0
M  V30 4295 H 405.588 0.634103 -1.84085 0
M  V30 4296 H 403.759 3.10589 -2.33215 0
M  V30 4297 H 405.491 3.11849 -2.57938 0
M  V30 4298 H 402.246 2.02895 -4.27937 0
M  V30 4299 H 402.67 1.00991 -6.69425 0
M  V30 4300 H 407.312 1.69591 -3.87297 0
M  V30 4301 H 405.03 0.232159 -8.07766 0
M  V30 4302 H 408.616 0.781507 -5.76527 0
M  V30 4303 H 407.496 0.0606414 -7.84177 0
M  V30 4304 N 404.999 1.35443 0.805782 0
M  V30 4305 C 406.229 1.31687 1.59192 0
M  V30 4306 C 406.637 -0.10756 1.88894 0
M  V30 4307 O 405.98 -1.07017 1.49309 0
M  V30 4308 C 406.042 2.05686 2.94845 0
M  V30 4309 C 405.706 3.54868 2.87954 0
M  V30 4310 C 406.703 4.49444 2.61335 0
M  V30 4311 C 404.388 3.97528 3.07046 0
M  V30 4312 C 406.382 5.84655 2.53885 0
M  V30 4313 C 404.069 5.32833 2.99219 0
M  V30 4314 C 405.067 6.26209 2.72674 0
M  V30 4315 O 404.755 7.59032 2.64811 0
M  V30 4316 H 404.487 0.453878 0.50097 0
M  V30 4317 H 407.041 1.78892 1.0093 0
M  V30 4318 H 405.271 1.5312 3.55093 0
M  V30 4319 H 406.96 1.94998 3.55993 0
M  V30 4320 H 407.726 4.17804 2.46303 0
M  V30 4321 H 403.605 3.25233 3.26718 0
M  V30 4322 H 407.149 6.57508 2.33086 0
M  V30 4323 H 403.046 5.64087 3.13809 0
M  V30 4324 H 403.814 7.68967 2.80413 0
M  V30 4325 N 406.477 -1.02803 1.19454 0
M  V30 4326 C 407.424 -2.11099 0.933046 0
M  V30 4327 C 408.394 -1.65571 -0.132447 0
M  V30 4328 O 409.579 -1.90797 0.00987576 0
M  V30 4329 C 406.719 -3.41763 0.478747 0
M  V30 4330 C 405.832 -4.00833 1.6111 0
M  V30 4331 C 404.967 -5.19511 1.10825 0
M  V30 4332 C 404.006 -5.70639 2.21445 0
M  V30 4333 N 403.143 -6.80589 1.72461 0
M  V30 4334 H 407.983 -2.32804 1.86028 0
M  V30 4335 H 405.52 -1.14179 0.927441 0
M  V30 4336 H 407.478 -4.16736 0.196745 0
M  V30 4337 H 406.108 -3.20166 -0.411493 0
M  V30 4338 H 405.16 -3.23066 2.00829 0
M  V30 4339 H 406.472 -4.34794 2.4445 0
M  V30 4340 H 405.626 -6.01645 0.781533 0
M  V30 4341 H 404.365 -4.87086 0.244606 0
M  V30 4342 H 403.37 -4.87116 2.54947 0
M  V30 4343 H 404.595 -6.05102 3.08267 0
M  V30 4344 H 402.541 -6.50016 0.884056 0
M  V30 4345 H 402.458 -7.13681 2.49389 0
M  V30 4346 H 403.726 -7.66317 1.42755 0
M  V30 4347 N 407.956 -0.998596 -1.21925 0
M  V30 4348 C 408.886 -0.573688 -2.26343 0
M  V30 4349 C 409.867 0.402296 -1.65274 0
M  V30 4350 O 411.052 0.291683 -1.91997 0
M  V30 4351 C 408.182 0.106839 -3.47136 0
M  V30 4352 C 407.136 -0.788269 -4.20678 0
M  V30 4353 C 406.462 0.0254927 -5.34694 0
M  V30 4354 C 407.762 -2.08784 -4.78755 0
M  V30 4355 H 409.456 -1.44651 -2.62138 0
M  V30 4356 H 407.002 -0.696975 -1.26009 0
M  V30 4357 H 408.955 0.415531 -4.19346 0
M  V30 4358 H 407.679 1.01424 -3.10452 0
M  V30 4359 H 406.338 -1.08069 -3.50309 0
M  V30 4360 H 405.986 0.933989 -4.94253 0
M  V30 4361 H 405.686 -0.570437 -5.84825 0
M  V30 4362 H 407.21 0.328147 -6.09718 0
M  V30 4363 H 408.624 -1.84272 -5.42878 0
M  V30 4364 H 407.021 -2.63307 -5.39249 0
M  V30 4365 H 408.091 -2.76284 -3.98491 0
M  V30 4366 N 409.434 1.37368 -0.772513 0
M  V30 4367 C 410.364 2.32856 -0.173304 0
M  V30 4368 C 411.345 1.55818 0.682262 0
M  V30 4369 O 412.53 1.84052 0.619566 0
M  V30 4370 C 409.66 3.40048 0.706007 0
M  V30 4371 C 408.614 4.27973 -0.0483144 0
M  V30 4372 C 407.94 5.26184 0.950491 0
M  V30 4373 C 409.24 5.07665 -1.22776 0
M  V30 4374 H 410.934 2.83217 -0.971002 0
M  V30 4375 H 408.48 1.3617 -0.468377 0
M  V30 4376 H 410.433 4.05827 1.13501 0
M  V30 4377 H 409.157 2.88214 1.53623 0
M  V30 4378 H 407.816 3.63726 -0.458107 0
M  V30 4379 H 407.464 4.7063 1.77529 0
M  V30 4380 H 407.164 5.85872 0.450314 0
M  V30 4381 H 408.688 5.94838 1.37842 0
M  V30 4382 H 410.102 5.66578 -0.875366 0
M  V30 4383 H 408.499 5.76681 -1.66007 0
M  V30 4384 H 409.569 4.40294 -2.03149 0
M  V30 4385 N 410.912 0.523116 1.48665 0
M  V30 4386 C 411.86 -0.256859 2.31177 0
M  V30 4387 C 412.854 -0.94199 1.40794 0
M  V30 4388 O 414.06 -0.867157 1.57735 0
M  V30 4389 H 410.435 -0.1017 0.745091 0
M  V30 4390 H 412.406 0.458739 2.94853 0
M  V30 4391 C 411.155 -1.29503 3.22683 0
M  V30 4392 H 410.478 -0.777248 3.92172 0
M  V30 4393 H 411.918 -1.81233 3.83315 0
M  V30 4394 C 410.377 -2.32501 2.43813 0
M  V30 4395 O 410.907 -3.3881 2.15803 0
M  V30 4396 N 409.113 -2.05538 2.05432 0
M  V30 4397 H 408.66 -1.19104 2.28412 0
M  V30 4398 H 408.618 -2.74676 1.52973 0
M  V30 4399 N 412.39 -1.55475 0.257931 0
M  V30 4400 C 413.322 -2.19192 -0.669881 0
M  V30 4401 C 414.335 -1.17148 -1.1305 0
M  V30 4402 O 415.524 -1.43959 -1.05537 0
M  V30 4403 C 412.624 -2.79016 -1.92363 0
M  V30 4404 C 411.797 -4.06586 -1.61265 0
M  V30 4405 C 410.856 -4.50622 -2.7171 0
M  V30 4406 O 409.882 -5.16765 -2.38627 0
M  V30 4407 N 411.084 -4.19325 -4.01431 0
M  V30 4408 H 413.849 -2.99441 -0.124635 0
M  V30 4409 H 411.41 -1.6171 0.0783311 0
M  V30 4410 H 413.402 -3.05427 -2.65511 0
M  V30 4411 H 411.972 -2.0286 -2.37837 0
M  V30 4412 H 411.192 -3.87646 -0.715811 0
M  V30 4413 H 412.48 -4.89737 -1.37967 0
M  V30 4414 H 411.878 -3.66247 -4.31138 0
M  V30 4415 H 410.435 -4.50547 -4.7101 0
M  V30 4416 N 413.868 0.0150385 -1.57593 0
M  V30 4417 C 414.778 1.02791 -2.10882 0
M  V30 4418 C 415.794 1.38702 -1.0506 0
M  V30 4419 O 416.97 1.47739 -1.36877 0
M  V30 4420 C 414.035 2.30568 -2.58919 0
M  V30 4421 C 413.096 2.01108 -3.79281 0
M  V30 4422 C 412.329 3.22794 -4.25018 0
M  V30 4423 O 412.552 4.33959 -3.70183 0
M  V30 4424 O 411.486 3.07672 -5.17322 0
M  V30 4425 H 415.312 0.604973 -2.97613 0
M  V30 4426 H 412.897 0.23292 -1.47573 0
M  V30 4427 H 414.779 3.05662 -2.90084 0
M  V30 4428 H 413.454 2.72129 -1.75293 0
M  V30 4429 H 412.361 1.23537 -3.53114 0
M  V30 4430 H 413.694 1.64394 -4.63935 0
M  V30 4431 N 415.346 1.54954 0.287554 0
M  V30 4432 C 416.256 1.8991 1.37736 0
M  V30 4433 C 417.272 0.794701 1.54792 0
M  V30 4434 O 418.448 1.09243 1.69198 0
M  V30 4435 C 415.513 2.15108 2.71899 0
M  V30 4436 C 414.574 3.38752 2.63715 0
M  V30 4437 C 413.807 3.62739 3.91479 0
M  V30 4438 O 414.03 2.89492 4.91478 0
M  V30 4439 O 412.964 4.56267 3.92561 0
M  V30 4440 H 416.79 2.82652 1.11092 0
M  V30 4441 H 414.375 1.41315 0.484807 0
M  V30 4442 H 416.257 2.32806 3.51254 0
M  V30 4443 H 414.932 1.25551 2.9836 0
M  V30 4444 H 413.839 3.26405 1.82786 0
M  V30 4445 H 415.172 4.28483 2.42205 0
M  V30 4446 N 416.824 -0.551391 1.4764 0
M  V30 4447 C 418.072 -1.30572 1.54258 0
M  V30 4448 C 418.393 -1.93877 0.208963 0
M  V30 4449 O 417.663 -1.80234 -0.767619 0
M  V30 4450 H 416.243 -0.484894 0.568231 0
M  V30 4451 H 418.905 -0.643402 1.83974 0
M  V30 4452 H 418.001 -2.09621 2.31226 0
M  V30 4453 N 418.302 -1.35869 -0.798587 0
M  V30 4454 C 419.212 -1.31578 -1.94228 0
M  V30 4455 C 420.228 -0.21939 -1.72611 0
M  V30 4456 O 421.404 -0.450167 -1.96305 0
M  V30 4457 C 418.469 -1.09528 -3.28944 0
M  V30 4458 C 417.53 -2.28556 -3.63402 0
M  V30 4459 C 416.763 -2.07549 -4.9169 0
M  V30 4460 O 416.986 -1.046 -5.60727 0
M  V30 4461 O 415.92 -2.95106 -5.24591 0
M  V30 4462 H 419.746 -2.27847 -2.00796 0
M  V30 4463 H 417.331 -1.16322 -0.937526 0
M  V30 4464 H 419.213 -0.991127 -4.09579 0
M  V30 4465 H 417.888 -0.16315 -3.23289 0
M  V30 4466 H 416.795 -2.44538 -2.83112 0
M  V30 4467 H 418.128 -3.20244 -3.73771 0
M  V30 4468 N 419.78 1.02168 -1.19998 0
M  V30 4469 C 421.01 1.79036 -1.031 0
M  V30 4470 C 421.418 1.84409 0.423078 0
M  V30 4471 O 420.761 1.29228 1.30559 0
M  V30 4472 C 420.823 3.25185 -1.53281 0
M  V30 4473 C 420.487 3.43431 -3.01503 0
M  V30 4474 C 421.484 3.33063 -3.99206 0
M  V30 4475 C 419.169 3.69412 -3.40353 0
M  V30 4476 C 421.163 3.48413 -5.33748 0
M  V30 4477 C 418.85 3.84406 -4.75053 0
M  V30 4478 C 419.848 3.7391 -5.71559 0
M  V30 4479 O 419.536 3.88452 -7.03818 0
M  V30 4480 H 419.268 0.570043 -0.363355 0
M  V30 4481 H 421.822 1.29524 -1.59414 0
M  V30 4482 H 420.052 3.75756 -0.913483 0
M  V30 4483 H 421.741 3.83671 -1.32481 0
M  V30 4484 H 422.507 3.12934 -3.70537 0
M  V30 4485 H 418.386 3.76671 -2.65782 0
M  V30 4486 H 421.93 3.40137 -6.09059 0
M  V30 4487 H 417.827 4.04035 -5.03415 0
M  V30 4488 H 418.595 4.055 -7.10993 0
M  V30 4489 N 421.258 1.00505 1.21394 0
M  V30 4490 C 422.488 0.705584 1.94178 0
M  V30 4491 C 422.896 -0.735846 1.74304 0
M  V30 4492 O 422.239 -1.50954 1.04683 0
M  V30 4493 C 422.301 0.94689 3.46806 0
M  V30 4494 C 421.965 2.37517 3.90429 0
M  V30 4495 C 422.962 3.35539 3.97127 0
M  V30 4496 C 420.647 2.71284 4.22742 0
M  V30 4497 C 422.641 4.65395 4.3553 0
M  V30 4498 C 420.328 4.01356 4.60822 0
M  V30 4499 C 421.326 4.98223 4.67186 0
M  V30 4500 O 421.014 6.25969 5.04399 0
M  V30 4501 H 420.746 0.259216 0.624326 0
M  V30 4502 H 423.3 1.34592 1.55159 0
M  V30 4503 H 421.53 0.249386 3.85895 0
M  V30 4504 H 423.219 0.640804 4.0081 0
M  V30 4505 H 423.985 3.10786 3.7234 0
M  V30 4506 H 419.864 1.96581 4.16985 0
M  V30 4507 H 423.408 5.41002 4.40412 0
M  V30 4508 H 419.305 4.25893 4.85063 0
M  V30 4509 H 420.073 6.30085 5.22431 0
M  V30 4510 N 422.737 -1.36956 0.779787 0
M  V30 4511 C 423.685 -2.32053 0.15942 0
M  V30 4512 C 424.679 -1.55333 -0.675878 0
M  V30 4513 O 425.885 -1.70668 -0.57204 0
M  V30 4514 H 422.26 -0.751286 0.0327707 0
M  V30 4515 H 424.231 -2.8195 0.977078 0
M  V30 4516 C 422.98 -3.40602 -0.698977 0
M  V30 4517 H 422.303 -3.99746 -0.0655966 0
M  V30 4518 H 423.743 -4.09486 -1.09989 0
M  V30 4519 C 422.202 -2.81359 -1.85307 0
M  V30 4520 O 422.732 -2.72751 -2.94906 0
M  V30 4521 N 420.938 -2.38786 -1.65619 0
M  V30 4522 H 420.485 -2.45987 -0.764725 0
M  V30 4523 H 420.443 -1.99493 -2.43002 0
M  V30 4524 N 424.215 -0.530993 -1.48385 0
M  V30 4525 C 425.461 0.00274135 -2.028 0
M  V30 4526 C 425.794 1.33838 -1.40716 0
M  V30 4527 O 425.069 1.86465 -0.553277 0
M  V30 4528 C 425.352 0.123676 -3.59888 0
M  V30 4529 C 425.205 -1.2372 -4.3245 0
M  V30 4530 C 426.524 0.849967 -4.31814 0
M  V30 4531 H 423.643 -0.000477758 -0.737 0
M  V30 4532 H 426.285 -0.688217 -1.77098 0
M  V30 4533 H 424.435 0.712157 -3.81917 0
M  V30 4534 H 426.107 -1.86687 -4.21836 0
M  V30 4535 H 424.35 -1.81882 -3.93829 0
M  V30 4536 H 425.021 -1.10557 -5.40815 0
M  V30 4537 H 427.497 0.350572 -4.14621 0
M  V30 4538 H 426.373 0.903486 -5.41413 0
M  V30 4539 H 426.634 1.90047 -3.99167 0
M  V30 4540 N 425.693 1.55336 -0.266172 0
M  V30 4541 C 427.104 1.85236 0.233315 0
M  V30 4542 C 427.455 1.18816 1.56132 0
M  V30 4543 O 426.58 0.473307 2.11161 0
M  V30 4544 C 427.175 3.36059 0.430113 0
M  V30 4545 C 425.734 3.66116 0.873842 0
M  V30 4546 C 424.881 2.77274 -0.0380016 0
M  V30 4547 H 427.832 1.51004 -0.488214 0
M  V30 4548 H 427.853 3.58681 1.26998 0
M  V30 4549 H 427.365 3.84373 -0.536588 0
M  V30 4550 H 425.466 3.23295 1.85233 0
M  V30 4551 H 425.579 4.73699 0.717358 0
M  V30 4552 H 423.943 2.50198 0.476759 0
M  V30 4553 H 424.726 3.284 -1.00042 0
M  V30 4554 N 427.171 -0.0066808 1.57599 0
M  V30 4555 C 428.417 -0.693947 1.90558 0
M  V30 4556 C 428.75 -1.73792 0.866594 0
M  V30 4557 O 428.025 -1.94156 -0.115548 0
M  V30 4558 C 428.308 -1.34317 3.34112 0
M  V30 4559 C 428.161 -0.311189 4.48722 0
M  V30 4560 C 429.48 -2.27116 3.7697 0
M  V30 4561 H 426.599 -0.250803 0.693013 0
M  V30 4562 H 429.241 0.043242 1.89951 0
M  V30 4563 H 427.391 -1.9715 3.3476 0
M  V30 4564 H 429.063 0.316944 4.6021 0
M  V30 4565 H 427.306 0.367253 4.32243 0
M  V30 4566 H 427.977 -0.804366 5.46108 0
M  V30 4567 H 430.453 -1.74306 3.77831 0
M  V30 4568 H 429.329 -2.69511 4.78179 0
M  V30 4569 H 429.59 -3.14743 3.10466 0
M  V30 4570 N 428.649 -1.55105 -0.279332 0
M  V30 4571 C 429.612 -1.86783 -1.32834 0
M  V30 4572 C 430.612 -0.74199 -1.42657 0
M  V30 4573 O 431.802 -1.0102 -1.41918 0
M  V30 4574 C 428.934 -2.06746 -2.71052 0
M  V30 4575 H 430.127 -2.8055 -1.05979 0
M  V30 4576 H 427.68 -1.47499 -0.517087 0
M  V30 4577 H 428.415 -1.15339 -3.03097 0
M  V30 4578 H 428.2 -2.88711 -2.65309 0
M  V30 4579 H 429.69 -2.32549 -3.46858 0
M  V30 4580 N 430.127 0.543554 -1.4793 0
M  V30 4581 C 431.404 1.30458 -1.4574 0
M  V30 4582 C 431.784 2.1048 -0.161692 0
M  V30 4583 O 431.132 2.11831 0.856734 0
M  V30 4584 C 431.342 2.19754 -2.71126 0
M  V30 4585 C 432.69 2.80334 -3.18901 0
M  V30 4586 O 433.714 2.30049 -2.71948 0
M  V30 4587 O 432.573 3.71766 -4.00565 0
M  V30 4588 H 429.667 0.588117 -0.581418 0
M  V30 4589 H 432.213 0.561328 -1.60147 0
M  V30 4590 H 430.985 1.60316 -3.56952 0
M  V30 4591 H 430.608 3.01351 -2.59371 0
M  V30 4592 N 431.605 1.3629 0.791371 0
M  V30 4593 C 432.568 1.30309 1.88553 0
M  V30 4594 C 433.568 0.211204 1.59407 0
M  V30 4595 O 434.758 0.465865 1.67855 0
M  V30 4596 C 431.89 1.01956 3.25297 0
M  V30 4597 H 433.083 2.27614 1.95273 0
M  V30 4598 H 430.636 1.21035 0.988953 0
M  V30 4599 H 431.371 0.050998 3.2426 0
M  V30 4600 H 431.156 1.80968 3.4784 0
M  V30 4601 H 432.646 1.0037 4.05359 0
M  V30 4602 N 433.083 -1.0153 1.20538 0
M  V30 4603 C 434.36 -1.72327 0.925343 0
M  V30 4604 C 434.74 -2.03383 -0.565547 0
M  V30 4605 O 434.088 -1.69934 -1.52757 0
M  V30 4606 C 434.298 -2.9902 1.79967 0
M  V30 4607 C 435.646 -3.72258 2.04228 0
M  V30 4608 O 436.67 -3.08979 1.77231 0
M  V30 4609 O 435.529 -4.86053 2.4983 0
M  V30 4610 H 432.623 -0.751099 0.346092 0
M  V30 4611 H 435.169 -1.07366 1.31417 0
M  V30 4612 H 433.941 -2.72402 2.80915 0
M  V30 4613 H 433.564 -3.71721 1.41099 0
M  V30 4614 N 434.561 -1.01147 -1.20859 0
M  V30 4615 C 435.509 -0.57059 -2.25493 0
M  V30 4616 C 436.503 0.388109 -1.64894 0
M  V30 4617 O 437.709 0.258592 -1.78133 0
M  V30 4618 H 434.084 -0.166191 -0.733406 0
M  V30 4619 H 436.055 -1.46411 -2.60012 0
M  V30 4620 C 434.804 0.0805241 -3.47607 0
M  V30 4621 H 434.127 -0.648156 -3.94511 0
M  V30 4622 H 435.567 0.352197 -4.22535 0
M  V30 4623 C 434.026 1.32175 -3.09889 0
M  V30 4624 O 434.556 2.41553 -3.20959 0
M  V30 4625 N 432.762 1.20392 -2.64488 0
M  V30 4626 H 432.309 0.313905 -2.5568 0
M  V30 4627 H 432.267 2.03541 -2.39621 0
M  V30 4628 N 436.039 1.36541 -0.78704 0
M  V30 4629 C 437.279 2.01138 -0.363714 0
M  V30 4630 C 437.643 1.61114 1.04433 0
M  V30 4631 O 438.844 2.18285 1.56861 0
M  V30 4632 C 437.115 3.53603 -0.519582 0
M  V30 4633 S 438.674 4.38415 -0.183782 0
M  V30 4634 H 435.492 0.697263 -0.13909 0
M  V30 4635 H 438.094 1.66475 -1.02501 0
M  V30 4636 H 436.798 3.8022 -1.5447 0
M  V30 4637 H 436.329 3.93084 0.15773 0
M  V30 4638 H 438.344 4.85698 1.01547 0
M  V30 4639 N 437.518 0.538854 1.48102 0
M  V30 4640 C 438.743 0.0102694 2.07397 0
M  V30 4641 C 439.168 -1.26562 1.39153 0
M  V30 4642 O 438.526 -1.75357 0.460387 0
M  V30 4643 C 438.574 -0.187602 3.60112 0
M  V30 4644 O 437.678 -1.25432 3.92862 0
M  V30 4645 H 437.019 0.0430975 0.6626 0
M  V30 4646 H 439.549 0.749301 1.90385 0
M  V30 4647 H 439.559 -0.407517 4.0596 0
M  V30 4648 H 438.234 0.744386 4.09184 0
M  V30 4649 H 436.811 -1.01636 3.58782 0
M  V30 4650 N 438.996 -1.55193 0.274407 0
M  V30 4651 C 439.926 -2.25471 -0.607032 0
M  V30 4652 C 440.907 -1.24461 -1.15946 0
M  V30 4653 O 442.092 -1.53179 -1.19373 0
M  V30 4654 C 439.222 -2.97526 -1.79153 0
M  V30 4655 C 438.176 -4.05459 -1.37067 0
M  V30 4656 C 437.502 -4.65084 -2.6382 0
M  V30 4657 C 438.802 -5.19691 -0.521389 0
M  V30 4658 H 440.496 -2.99393 -0.0209343 0
M  V30 4659 H 438.042 -1.43997 -0.00862866 0
M  V30 4660 H 439.995 -3.45402 -2.41404 0
M  V30 4661 H 438.719 -2.21138 -2.40344 0
M  V30 4662 H 437.378 -3.58393 -0.771355 0
M  V30 4663 H 437.026 -3.85365 -3.23268 0
M  V30 4664 H 436.726 -5.37961 -2.36372 0
M  V30 4665 H 438.25 -5.15708 -3.26921 0
M  V30 4666 H 439.664 -5.63623 -1.04889 0
M  V30 4667 H 438.061 -5.99126 -0.341825 0
M  V30 4668 H 439.131 -4.82713 0.46 0
M  V30 4669 N 440.474 -0.00167713 -1.576 0
M  V30 4670 C 441.404 0.988091 -2.11563 0
M  V30 4671 C 442.385 1.35736 -1.02517 0
M  V30 4672 O 443.57 1.44082 -1.30208 0
M  V30 4673 C 440.7 2.27941 -2.62031 0
M  V30 4674 C 439.654 2.0517 -3.75619 0
M  V30 4675 C 438.98 3.4033 -4.12407 0
M  V30 4676 C 440.28 1.41294 -5.02825 0
M  V30 4677 H 441.974 0.538771 -2.94513 0
M  V30 4678 H 439.52 0.257712 -1.41675 0
M  V30 4679 H 441.473 2.97539 -2.9841 0
M  V30 4680 H 440.197 2.74989 -1.76205 0
M  V30 4681 H 438.856 1.37998 -3.39635 0
M  V30 4682 H 438.504 3.85085 -3.23603 0
M  V30 4683 H 438.204 3.25909 -4.88935 0
M  V30 4684 H 439.728 4.1124 -4.51347 0
M  V30 4685 H 441.142 2.00851 -5.36965 0
M  V30 4686 H 439.539 1.37356 -5.84169 0
M  V30 4687 H 440.609 0.382362 -4.8339 0
M  V30 4688 N 441.952 1.55251 0.271103 0
M  V30 4689 C 442.884 1.84675 1.35749 0
M  V30 4690 C 443.897 0.731366 1.45447 0
M  V30 4691 O 445.086 1.00924 1.4723 0
M  V30 4692 C 442.186 1.99638 2.73857 0
M  V30 4693 C 441.359 3.30312 2.86727 0
M  V30 4694 C 440.418 3.35318 4.05522 0
M  V30 4695 O 439.444 4.08682 3.96191 0
M  V30 4696 N 440.646 2.62857 5.17577 0
M  V30 4697 H 443.411 2.78445 1.10853 0
M  V30 4698 H 440.972 1.55191 0.461218 0
M  V30 4699 H 442.964 2.00355 3.51625 0
M  V30 4700 H 441.534 1.12725 2.91568 0
M  V30 4701 H 440.754 3.42118 1.95829 0
M  V30 4702 H 442.042 4.16488 2.92258 0
M  V30 4703 H 441.44 2.02939 5.28046 0
M  V30 4704 H 439.997 2.69295 5.93568 0
M  V30 4705 N 443.43 -0.535701 1.48216 0
M  V30 4706 C 444.377 -1.64083 1.62312 0
M  V30 4707 C 445.347 -1.59448 0.465365 0
M  V30 4708 O 446.532 -1.77959 0.688135 0
M  V30 4709 C 443.672 -3.0236 1.66349 0
M  V30 4710 C 442.785 -3.17273 2.93193 0
M  V30 4711 C 441.92 -4.46075 2.88427 0
M  V30 4712 C 440.959 -4.54496 4.1 0
M  V30 4713 N 440.096 -5.7468 4.03345 0
M  V30 4714 H 444.936 -1.51374 2.5669 0
M  V30 4715 H 442.473 -0.737059 1.27302 0
M  V30 4716 H 444.431 -3.82461 1.66672 0
M  V30 4717 H 443.061 -3.13854 0.754672 0
M  V30 4718 H 442.113 -2.30462 3.02641 0
M  V30 4719 H 443.425 -3.19357 3.83162 0
M  V30 4720 H 442.579 -5.3446 2.87119 0
M  V30 4721 H 441.318 -4.46504 1.96177 0
M  V30 4722 H 440.323 -3.64519 4.11589 0
M  V30 4723 H 441.548 -4.5581 5.03402 0
M  V30 4724 H 439.494 -5.76017 3.13912 0
M  V30 4725 H 439.411 -5.78234 4.87013 0
M  V30 4726 H 440.679 -6.65367 4.06087 0
M  V30 4727 N 444.908 -1.36708 -0.784132 0
M  V30 4728 C 446.155 -1.31231 -1.54222 0
M  V30 4729 C 446.483 0.106864 -1.94206 0
M  V30 4730 O 445.738 1.07734 -1.63376 0
M  V30 4731 C 446.037 -2.18571 -2.82774 0
M  V30 4732 C 445.703 -3.67039 -2.61903 0
M  V30 4733 C 444.365 -4.07503 -2.55919 0
M  V30 4734 C 446.717 -4.61149 -2.4288 0
M  V30 4735 C 444.045 -5.40211 -2.28886 0
M  V30 4736 C 446.397 -5.94081 -2.17373 0
M  V30 4737 C 445.061 -6.33664 -2.09825 0
M  V30 4738 H 444.331 -0.48021 -0.56434 0
M  V30 4739 H 446.978 -1.68807 -0.904233 0
M  V30 4740 H 445.283 -1.73949 -3.51068 0
M  V30 4741 H 446.98 -2.11655 -3.40592 0
M  V30 4742 H 443.57 -3.34941 -2.67418 0
M  V30 4743 H 447.754 -4.30756 -2.46501 0
M  V30 4744 H 443.01 -5.69855 -2.21529 0
M  V30 4745 H 447.184 -6.66566 -2.01649 0
M  V30 4746 H 444.811 -7.36423 -1.88641 0
M  V30 4747 N 446.386 1.0089 -1.21074 0
M  V30 4748 C 447.296 2.13039 -0.982425 0
M  V30 4749 C 448.312 1.73881 0.0642161 0
M  V30 4750 O 449.488 2.01012 -0.12496 0
M  V30 4751 C 446.553 3.42377 -0.545803 0
M  V30 4752 C 445.614 3.95731 -1.6642 0
M  V30 4753 C 444.847 5.18896 -1.24832 0
M  V30 4754 O 445.07 5.70273 -0.120265 0
M  V30 4755 O 444.004 5.65597 -2.05873 0
M  V30 4756 H 447.83 2.35175 -1.92163 0
M  V30 4757 H 445.415 1.1142 -0.995285 0
M  V30 4758 H 447.297 4.20244 -0.311912 0
M  V30 4759 H 445.972 3.21639 0.364727 0
M  V30 4760 H 444.879 3.19108 -1.95246 0
M  V30 4761 H 446.212 4.20872 -2.55201 0
M  V30 4762 N 447.864 1.01787 1.20321 0
M  V30 4763 C 448.827 0.593972 2.2137 0
M  V30 4764 C 449.827 -0.336553 1.57239 0
M  V30 4765 O 451.017 -0.125069 1.7375 0
M  V30 4766 C 448.149 -0.132433 3.40643 0
M  V30 4767 H 449.342 1.48791 2.60387 0
M  V30 4768 H 446.895 0.807803 1.33807 0
M  V30 4769 H 447.63 -1.04123 3.0713 0
M  V30 4770 H 447.415 0.53605 3.88418 0
M  V30 4771 H 448.905 -0.416314 4.1552 0
M  V30 4772 N 449.342 -1.36122 0.79427 0
M  V30 4773 C 450.582 -2.00942 0.374376 0
M  V30 4774 C 450.946 -1.61666 -1.03577 0
M  V30 4775 O 452.147 -2.19113 -1.55701 0
M  V30 4776 C 450.418 -3.53323 0.538327 0
M  V30 4777 S 451.977 -4.38311 0.20703 0
M  V30 4778 H 448.795 -0.696515 0.142785 0
M  V30 4779 H 451.397 -1.65929 1.03382 0
M  V30 4780 H 450.101 -3.79395 1.56484 0
M  V30 4781 H 449.632 -3.93162 -0.136882 0
M  V30 4782 H 451.647 -4.8623 -0.989695 0
M  V30 4783 N 450.82 -0.546701 -1.47814 0
M  V30 4784 C 451.768 0.220048 -2.31557 0
M  V30 4785 C 452.762 0.919472 -1.42275 0
M  V30 4786 O 453.968 0.841953 -1.59095 0
M  V30 4787 H 450.343 0.0898334 -0.746615 0
M  V30 4788 H 452.314 -0.505589 -2.94086 0
M  V30 4789 C 451.063 1.24353 -3.24702 0
M  V30 4790 H 450.386 0.714758 -3.93359 0
M  V30 4791 H 451.826 1.75112 -3.8615 0
M  V30 4792 C 450.285 2.28593 -2.47481 0
M  V30 4793 O 450.815 3.35334 -2.21165 0
M  V30 4794 N 449.021 2.02244 -2.08676 0
M  V30 4795 H 448.568 1.15455 -2.30278 0
M  V30 4796 H 448.526 2.72207 -1.57323 0
M  V30 4797 N 452.299 1.55045 -0.282633 0
M  V30 4798 C 453.529 2.03872 0.334635 0
M  V30 4799 C 453.937 1.16018 1.49454 0
M  V30 4800 O 453.28 0.174449 1.8287 0
M  V30 4801 C 453.342 3.48791 0.870905 0
M  V30 4802 C 453.006 4.56715 -0.161338 0
M  V30 4803 C 454.003 5.10513 -0.983466 0
M  V30 4804 C 451.688 5.01417 -0.297745 0
M  V30 4805 C 453.682 6.07538 -1.92811 0
M  V30 4806 C 451.369 5.98265 -1.24586 0
M  V30 4807 C 452.367 6.51208 -2.05954 0
M  V30 4808 O 452.055 7.46162 -2.99162 0
M  V30 4809 H 451.787 0.671324 0.0793742 0
M  V30 4810 H 454.341 2.01169 -0.41473 0
M  V30 4811 H 452.571 3.48758 1.67047 0
M  V30 4812 H 454.26 3.80916 1.40207 0
M  V30 4813 H 455.026 4.76785 -0.888856 0
M  V30 4814 H 450.905 4.59849 0.325604 0
M  V30 4815 H 454.449 6.48787 -2.56363 0
M  V30 4816 H 450.346 6.31412 -1.34126 0
M  V30 4817 H 451.114 7.63903 -2.93929 0
M  V30 4818 N 453.777 0.010035 1.57597 0
M  V30 4819 C 455.188 -0.531426 1.78977 0
M  V30 4820 C 455.539 -1.73375 0.918454 0
M  V30 4821 O 454.664 -2.16047 0.123635 0
M  V30 4822 C 455.259 -0.97086 3.24592 0
M  V30 4823 C 453.818 -1.45756 3.47033 0
M  V30 4824 C 452.965 -0.413384 2.74201 0
M  V30 4825 H 455.916 0.236166 1.56933 0
M  V30 4826 H 455.937 -1.83633 3.33255 0
M  V30 4827 H 455.449 -0.0955893 3.87982 0
M  V30 4828 H 453.55 -2.35339 2.88871 0
M  V30 4829 H 453.663 -1.4781 4.55729 0
M  V30 4830 H 452.027 -0.877266 2.39115 0
M  V30 4831 H 452.81 0.453092 3.40297 0
M  V30 4832 N 455.255 -1.55392 -0.262866 0
M  V30 4833 C 456.185 -1.91978 -1.32917 0
M  V30 4834 C 457.166 -0.7828 -1.51017 0
M  V30 4835 O 458.351 -1.04178 -1.63892 0
M  V30 4836 C 455.481 -2.20055 -2.68687 0
M  V30 4837 C 454.435 -3.35854 -2.65304 0
M  V30 4838 C 453.761 -3.49435 -4.04721 0
M  V30 4839 C 455.061 -4.71977 -2.23685 0
M  V30 4840 H 456.755 -2.81292 -1.02544 0
M  V30 4841 H 454.301 -1.3534 -0.491846 0
M  V30 4842 H 456.254 -2.44237 -3.43404 0
M  V30 4843 H 454.978 -1.27551 -3.00663 0
M  V30 4844 H 453.637 -3.11655 -1.93045 0
M  V30 4845 H 453.285 -2.54379 -4.33936 0
M  V30 4846 H 452.985 -4.27297 -4.0335 0
M  V30 4847 H 454.509 -3.7592 -4.81161 0
M  V30 4848 H 455.923 -4.95637 -2.88127 0
M  V30 4849 H 454.32 -5.52828 -2.33456 0
M  V30 4850 H 455.39 -4.70115 -1.18827 0
M  V30 4851 N 456.733 0.527833 -1.48498 0
M  V30 4852 C 457.643 1.65907 -1.65867 0
M  V30 4853 C 458.659 1.6537 -0.541192 0
M  V30 4854 O 459.835 1.84282 -0.812534 0
M  V30 4855 C 456.9 3.02364 -1.69637 0
M  V30 4856 C 455.961 3.1374 -2.93028 0
M  V30 4857 C 455.194 4.43688 -2.96609 0
M  V30 4858 O 455.417 5.30913 -2.08538 0
M  V30 4859 O 454.351 4.59475 -3.88802 0
M  V30 4860 H 458.177 1.5419 -2.61647 0
M  V30 4861 H 455.762 0.701163 -1.31924 0
M  V30 4862 H 457.644 3.83515 -1.74625 0
M  V30 4863 H 456.319 3.14401 -0.770312 0
M  V30 4864 H 455.226 2.31877 -2.93571 0
M  V30 4865 H 456.559 3.06621 -3.85026 0
M  V30 4866 N 458.211 1.37122 0.776871 0
M  V30 4867 C 459.141 1.35164 1.90402 0
M  V30 4868 C 460.122 0.221069 1.68657 0
M  V30 4869 O 461.307 0.420642 1.8959 0
M  V30 4870 C 458.437 1.15274 3.27611 0
M  V30 4871 C 457.391 2.25289 3.63908 0
M  V30 4872 C 456.717 1.90527 4.99603 0
M  V30 4873 C 458.017 3.67446 3.71188 0
M  V30 4874 H 459.711 2.29482 1.92297 0
M  V30 4875 H 457.257 1.10465 0.923773 0
M  V30 4876 H 459.21 1.12536 4.06096 0
M  V30 4877 H 457.934 0.174102 3.26136 0
M  V30 4878 H 456.593 2.27174 2.87728 0
M  V30 4879 H 456.241 0.91206 4.94662 0
M  V30 4880 H 455.941 2.64193 5.24858 0
M  V30 4881 H 457.465 1.89367 5.80493 0
M  V30 4882 H 458.879 3.67719 4.39836 0
M  V30 4883 H 457.276 4.40123 4.07936 0
M  V30 4884 H 458.346 4.01443 2.71977 0
M  V30 4885 N 459.689 -1.00246 1.21608 0
M  V30 4886 C 460.919 -1.77373 1.05935 0
M  V30 4887 C 461.327 -1.85059 -0.393686 0
M  V30 4888 O 460.67 -1.31289 -1.28487 0
M  V30 4889 C 460.732 -3.22705 1.58435 0
M  V30 4890 C 460.396 -3.38591 3.06929 0
M  V30 4891 C 461.393 -3.2667 4.04454 0
M  V30 4892 C 459.078 -3.6395 3.46187 0
M  V30 4893 C 461.072 -3.39877 5.39224 0
M  V30 4894 C 458.759 -3.768 4.81108 0
M  V30 4895 C 459.757 -3.6477 5.77436 0
M  V30 4896 O 459.445 -3.77206 7.09909 0
M  V30 4897 H 459.177 -0.56419 0.372378 0
M  V30 4898 H 461.731 -1.26971 1.61454 0
M  V30 4899 H 459.961 -3.74255 0.973147 0
M  V30 4900 H 461.65 -3.81515 1.38568 0
M  V30 4901 H 462.416 -3.06999 3.75468 0
M  V30 4902 H 458.295 -3.72395 2.71741 0
M  V30 4903 H 461.839 -3.30404 6.14393 0
M  V30 4904 H 457.736 -3.95975 5.09779 0
M  V30 4905 H 458.504 -3.94138 7.17355 0
M  V30 4906 N 461.167 -1.02423 -1.1978 0
M  V30 4907 C 462.077 -0.610919 -2.26506 0
M  V30 4908 C 463.093 0.355152 -1.70337 0
M  V30 4909 O 464.269 0.214195 -2.00258 0
M  V30 4910 C 461.334 0.0365921 -3.46681 0
M  V30 4911 C 460.395 -0.976389 -4.18049 0
M  V30 4912 C 459.628 -0.359683 -5.32487 0
M  V30 4913 O 459.851 0.838601 -5.64202 0
M  V30 4914 O 458.785 -1.08022 -5.92127 0
M  V30 4915 H 462.611 -1.49965 -2.64091 0
M  V30 4916 H 460.196 -0.794156 -1.26545 0
M  V30 4917 H 462.078 0.39786 -4.19518 0
M  V30 4918 H 460.753 0.899398 -3.10954 0
M  V30 4919 H 459.66 -1.38916 -3.47352 0
M  V30 4920 H 460.993 -1.80941 -4.57735 0
M  V30 4921 N 462.645 1.35699 -0.801477 0
M  V30 4922 C 464.061 1.52065 -0.484596 0
M  V30 4923 C 464.261 1.75215 0.995084 0
M  V30 4924 O 463.317 1.79061 1.78026 0
M  V30 4925 C 464.63 2.69908 -1.32552 0
M  V30 4926 C 466.178 2.83784 -1.32044 0
M  V30 4927 C 466.653 4.04646 -2.14536 0
M  V30 4928 N 468.144 4.11814 -2.12046 0
M  V30 4929 C 468.879 5.04437 -2.72636 0
M  V30 4930 N 468.375 6.02426 -3.42133 0
M  V30 4931 N 470.168 4.97144 -2.62305 0
M  V30 4932 H 462.319 1.18928 -1.75983 0
M  V30 4933 H 464.582 0.581455 -0.748741 0
M  V30 4934 H 464.288 2.59363 -2.37537 0
M  V30 4935 H 464.162 3.64376 -0.975181 0
M  V30 4936 H 466.549 2.93783 -0.27846 0
M  V30 4937 H 466.63 1.90188 -1.71062 0
M  V30 4938 H 466.274 3.95407 -3.18772 0
M  V30 4939 H 466.204 4.97413 -1.72882 0
M  V30 4940 H 468.695 3.41664 -1.61476 0
M  V30 4941 H 469.008 6.69688 -3.85666 0
M  V30 4942 H 467.353 6.02615 -3.46237 0
M  V30 4943 H 470.544 4.19546 -2.07603 0
M  V30 4944 H 470.717 5.69138 -3.09815 0
M  V30 4945 N 464.123 0.554532 1.47522 0
M  V30 4946 C 465.369 0.0295227 2.02779 0
M  V30 4947 C 465.702 -1.31582 1.42828 0
M  V30 4948 O 464.977 -1.85561 0.582872 0
M  V30 4949 C 465.26 -0.0664057 3.60039 0
M  V30 4950 C 465.113 1.30585 4.30427 0
M  V30 4951 C 466.432 -0.781162 4.33112 0
M  V30 4952 H 463.551 0.0122027 0.736899 0
M  V30 4953 H 466.193 0.716305 1.7598 0
M  V30 4954 H 464.343 -0.651307 3.83002 0
M  V30 4955 H 466.015 1.93374 4.18813 0
M  V30 4956 H 464.258 1.88125 3.90886 0
M  V30 4957 H 464.929 1.19147 5.38988 0
M  V30 4958 H 467.405 -0.284565 4.15126 0
M  V30 4959 H 466.281 -0.817237 5.42782 0
M  V30 4960 H 466.542 -1.83672 4.0214 0
M  V30 4961 N 465.601 -1.54893 0.290851 0
M  V30 4962 C 467.017 -1.59476 -0.0628432 0
M  V30 4963 C 467.217 -1.30795 -1.5328 0
M  V30 4964 O 466.273 -1.07644 -2.28406 0
M  V30 4965 C 467.586 -2.98928 0.325962 0
M  V30 4966 C 469.134 -3.11799 0.273882 0
M  V30 4967 C 469.609 -4.53544 0.637359 0
M  V30 4968 N 471.1 -4.59433 0.589507 0
M  V30 4969 C 471.835 -5.67164 0.84335 0
M  V30 4970 N 471.331 -6.82975 1.16263 0
M  V30 4971 N 473.124 -5.56786 0.771091 0
M  V30 4972 H 465.275 -1.71798 1.24896 0
M  V30 4973 H 467.538 -0.801879 0.505663 0
M  V30 4974 H 467.244 -3.24805 1.34887 0
M  V30 4975 H 467.118 -3.75793 -0.325441 0
M  V30 4976 H 469.505 -2.85677 -0.739765 0
M  V30 4977 H 469.586 -2.37112 0.959766 0
M  V30 4978 H 469.23 -4.80394 1.64877 0
M  V30 4979 H 469.16 -5.26553 -0.0704866 0
M  V30 4980 H 471.651 -3.76245 0.353252 0
M  V30 4981 H 471.964 -7.61048 1.34257 0
M  V30 4982 H 470.309 -6.84552 1.20057 0
M  V30 4983 H 473.5 -4.65187 0.521383 0
M  V30 4984 H 473.673 -6.40664 0.972295 0
M  V30 4985 N 467.08 -0.0183926 -1.57589 0
M  V30 4986 C 468.013 1.00148 -2.0505 0
M  V30 4987 C 468.991 1.32387 -0.944058 0
M  V30 4988 O 470.175 1.44237 -1.21358 0
M  V30 4989 C 467.302 2.32435 -2.46357 0
M  V30 4990 C 466.348 2.15731 -3.67916 0
M  V30 4991 S 467.181 1.46613 -5.15039 0
M  V30 4992 C 468.337 2.80293 -5.59631 0
M  V30 4993 H 468.57 0.597429 -2.91235 0
M  V30 4994 H 466.103 0.193002 -1.53189 0
M  V30 4995 H 468.061 3.0849 -2.70822 0
M  V30 4996 H 466.722 2.69975 -1.60537 0
M  V30 4997 H 465.915 3.13502 -3.9463 0
M  V30 4998 H 465.517 1.4782 -3.43548 0
M  V30 4999 H 467.809 3.76557 -5.63215 0
M  V30 5000 H 468.752 2.58256 -6.59325 0
M  V30 5001 H 469.16 2.85047 -4.87246 0
M  V30 5002 N 468.558 1.5553 0.254621 0
M  V30 5003 C 469.806 1.7665 0.981793 0
M  V30 5004 C 470.127 0.580963 1.86145 0
M  V30 5005 O 469.397 -0.403537 1.91699 0
M  V30 5006 H 467.977 0.651475 0.365498 0
M  V30 5007 H 470.639 1.92958 0.274426 0
M  V30 5008 H 469.735 2.67486 1.60802 0
M  V30 5009 N 470.036 -0.519951 1.48776 0
M  V30 5010 C 471.447 -1.10177 1.50725 0
M  V30 5011 C 471.798 -1.94153 0.282678 0
M  V30 5012 O 470.923 -2.07645 -0.609298 0
M  V30 5013 C 471.518 -2.00482 2.73116 0
M  V30 5014 C 470.077 -2.53862 2.77905 0
M  V30 5015 C 469.224 -1.31047 2.44381 0
M  V30 5016 H 472.175 -0.30473 1.55747 0
M  V30 5017 H 472.196 -2.8491 2.52203 0
M  V30 5018 H 471.708 -1.39335 3.62225 0
M  V30 5019 H 469.809 -3.18702 1.93029 0
M  V30 5020 H 469.922 -2.9231 3.79594 0
M  V30 5021 H 468.286 -1.62953 1.95751 0
M  V30 5022 H 469.069 -0.71637 3.35743 0
M  V30 5023 N 471.514 -1.37532 -0.769588 0
M  V30 5024 C 472.739 -1.36231 -1.56384 0
M  V30 5025 C 473.164 0.0495849 -1.88035 0
M  V30 5026 O 472.522 1.02723 -1.49391 0
M  V30 5027 C 472.57 -2.20986 -2.84952 0
M  V30 5028 O 471.674 -1.61597 -3.79421 0
M  V30 5029 H 471.015 -0.465387 -0.473615 0
M  V30 5030 H 473.545 -1.81085 -0.952342 0
M  V30 5031 H 473.555 -2.34277 -3.34034 0
M  V30 5032 H 472.23 -3.23612 -2.61243 0
M  V30 5033 H 470.807 -1.57359 -3.38072 0
M  V30 5034 N 472.992 0.995999 -1.22138 0
M  V30 5035 C 474.217 1.77601 -1.0711 0
M  V30 5036 C 474.642 1.84339 0.374264 0
M  V30 5037 O 474 1.29359 1.27028 0
M  V30 5038 C 474.048 3.18897 -1.68336 0
M  V30 5039 O 473.152 4.01663 -0.934928 0
M  V30 5040 H 472.493 0.547011 -0.376397 0
M  V30 5041 H 475.023 1.25137 -1.6187 0
M  V30 5042 H 475.033 3.69539 -1.72931 0
M  V30 5043 H 473.708 3.13308 -2.73516 0
M  V30 5044 H 472.285 3.60204 -0.964751 0
M  V30 5045 N 474.47 1.03057 1.19235 0
M  V30 5046 C 475.695 0.74757 1.93458 0
M  V30 5047 C 476.12 -0.687648 1.7508 0
M  V30 5048 O 475.478 -1.47499 1.05422 0
M  V30 5049 C 475.526 1.10604 3.43219 0
M  V30 5050 O 474.63 0.225671 4.11782 0
M  V30 5051 H 473.971 0.276047 0.603899 0
M  V30 5052 H 476.501 1.3777 1.51263 0
M  V30 5053 H 476.511 1.06366 3.93891 0
M  V30 5054 H 475.186 2.15165 3.55917 0
M  V30 5055 H 473.763 0.326795 3.71465 0
M  V30 5056 N 475.948 -1.35272 0.808662 0
M  V30 5057 C 477.359 -1.81179 0.450688 0
M  V30 5058 C 477.71 -1.67143 -1.02751 0
M  V30 5059 O 476.835 -1.20325 -1.79864 0
M  V30 5060 C 477.43 -3.28943 0.811275 0
M  V30 5061 C 475.989 -3.72985 0.505871 0
M  V30 5062 C 475.136 -2.57229 1.03578 0
M  V30 5063 H 478.087 -1.2322 1.00012 0
M  V30 5064 H 478.108 -3.80342 0.109588 0
M  V30 5065 H 477.62 -3.39127 1.88718 0
M  V30 5066 H 475.721 -3.68349 -0.561209 0
M  V30 5067 H 475.834 -4.67677 1.03995 0
M  V30 5068 H 474.198 -2.50548 0.458005 0
M  V30 5069 H 474.981 -2.7019 2.11784 0
M  V30 5070 N 477.426 -0.562348 -1.47226 0
M  V30 5071 C 478.675 -0.038041 -2.01664 0
M  V30 5072 C 478.988 1.32199 -1.44162 0
M  V30 5073 O 480.194 1.9365 -1.90294 0
M  V30 5074 C 478.65 -0.0174958 -3.59896 0
M  V30 5075 C 478.258 -1.3746 -4.2639 0
M  V30 5076 C 480.002 0.453934 -4.22066 0
M  V30 5077 C 477.909 -1.31289 -5.76643 0
M  V30 5078 H 476.839 -0.0104511 -0.753928 0
M  V30 5079 H 479.49 -0.710966 -1.69167 0
M  V30 5080 H 477.872 0.721182 -3.89378 0
M  V30 5081 H 479.046 -2.1314 -4.08544 0
M  V30 5082 H 477.361 -1.78438 -3.7623 0
M  V30 5083 H 479.958 0.518584 -5.32179 0
M  V30 5084 H 480.301 1.46706 -3.89594 0
M  V30 5085 H 480.834 -0.230044 -3.97134 0
M  V30 5086 H 477.573 -2.30217 -6.13743 0
M  V30 5087 H 477.093 -0.597973 -5.96812 0
M  V30 5088 H 478.772 -1.01713 -6.38955 0
M  V30 5089 N 478.904 1.54736 -0.299062 0
M  V30 5090 C 480.315 1.8569 0.193971 0
M  V30 5091 C 480.666 1.22101 1.53577 0
M  V30 5092 O 479.791 0.51799 2.10109 0
M  V30 5093 C 480.386 3.36895 0.358733 0
M  V30 5094 C 478.945 3.67887 0.795986 0
M  V30 5095 C 478.092 2.77131 -0.096807 0
M  V30 5096 H 481.043 1.49934 -0.520134 0
M  V30 5097 H 481.064 3.61294 1.19361 0
M  V30 5098 H 480.576 3.83148 -0.617998 0
M  V30 5099 H 478.677 3.27151 1.78334 0
M  V30 5100 H 478.79 4.75114 0.616718 0
M  V30 5101 H 477.154 2.51153 0.423581 0
M  V30 5102 H 477.937 3.26204 -1.06986 0
M  V30 5103 N 480.382 0.0267497 1.57577 0
M  V30 5104 C 481.607 -0.666227 1.96408 0
M  V30 5105 C 482.032 -1.65004 0.903071 0
M  V30 5106 O 481.39 -1.80787 -0.136263 0
M  V30 5107 C 481.438 -1.35101 3.34335 0
M  V30 5108 O 480.542 -2.46623 3.30531 0
M  V30 5109 H 479.883 -0.175206 0.640468 0
M  V30 5110 H 482.413 0.0878977 2.04411 0
M  V30 5111 H 482.423 -1.70834 3.70513 0
M  V30 5112 H 481.098 -0.629844 4.11103 0
M  V30 5113 H 479.675 -2.13019 3.06068 0
M  V30 5114 N 481.861 -1.55662 -0.24637 0
M  V30 5115 C 483.272 -1.67953 -0.81539 0
M  V30 5116 C 483.623 -0.624302 -1.86002 0
M  V30 5117 O 482.748 0.229328 -2.15181 0
M  V30 5118 C 483.343 -3.04484 -1.48576 0
M  V30 5119 C 481.902 -3.18713 -2.00248 0
M  V30 5120 C 481.049 -2.6383 -0.853766 0
M  V30 5121 H 484 -1.58685 -0.0221692 0
M  V30 5122 H 484.021 -2.98959 -2.3538 0
M  V30 5123 H 483.533 -3.81264 -0.725222 0
M  V30 5124 H 481.634 -2.46757 -2.79181 0
M  V30 5125 H 481.747 -4.25628 -2.1995 0
M  V30 5126 H 480.111 -2.21667 -1.25442 0
M  V30 5127 H 480.894 -3.43135 -0.106302 0
M  V30 5128 N 483.339 0.512053 -1.4905 0
M  V30 5129 C 484.564 1.2959 -1.6193 0
M  V30 5130 C 484.989 1.85906 -0.286454 0
M  V30 5131 O 484.347 1.65312 0.744426 0
M  V30 5132 C 484.395 2.40987 -2.68249 0
M  V30 5133 O 483.499 3.44531 -2.26654 0
M  V30 5134 H 482.84 0.383053 -0.542371 0
M  V30 5135 H 485.37 0.614231 -1.95162 0
M  V30 5136 H 485.38 2.86913 -2.90078 0
M  V30 5137 H 484.055 1.99361 -3.65004 0
M  V30 5138 H 482.632 3.046 -2.15112 0
M  V30 5139 N 484.817 1.37938 0.762283 0
M  V30 5140 C 486.228 1.30094 1.33912 0
M  V30 5141 C 486.579 -0.0472026 1.96143 0
M  V30 5142 O 485.704 -0.94917 1.94473 0
M  V30 5143 C 486.299 2.35592 2.43478 0
M  V30 5144 C 484.858 2.31353 2.96905 0
M  V30 5145 C 484.005 2.18919 1.70205 0
M  V30 5146 H 486.956 1.48423 0.561816 0
M  V30 5147 H 486.977 2.00806 3.23199 0
M  V30 5148 H 486.489 3.33701 1.98155 0
M  V30 5149 H 484.59 1.36799 3.46579 0
M  V30 5150 H 484.703 3.25147 3.51875 0
M  V30 5151 H 483.067 1.65624 1.93496 0
M  V30 5152 H 483.85 3.18956 1.26973 0
M  V30 5153 N 486.295 -0.989507 1.22664 0
M  V30 5154 C 487.52 -1.77031 1.08051 0
M  V30 5155 C 487.945 -1.84535 -0.364483 0
M  V30 5156 O 487.303 -1.3003 -1.2634 0
M  V30 5157 C 487.351 -3.18 1.70024 0
M  V30 5158 O 486.455 -4.01161 0.956216 0
M  V30 5159 H 485.796 -0.545008 0.379292 0
M  V30 5160 H 488.326 -1.24277 1.62531 0
M  V30 5161 H 488.336 -3.68616 1.74888 0
M  V30 5162 H 487.011 -3.11853 2.75174 0
M  V30 5163 H 485.588 -3.59687 0.98384 0
M  V30 5164 N 487.773 -1.03688 -1.18687 0
M  V30 5165 C 489.184 -0.766488 -1.70241 0
M  V30 5166 C 489.535 0.713052 -1.82784 0
M  V30 5167 O 488.66 1.55529 -1.50465 0
M  V30 5168 C 489.255 -1.38475 -3.09209 0
M  V30 5169 C 487.814 -1.16276 -3.5799 0
M  V30 5170 C 486.961 -1.4778 -2.34641 0
M  V30 5171 H 489.912 -1.20378 -1.03415 0
M  V30 5172 H 489.933 -0.785939 -3.72295 0
M  V30 5173 H 489.445 -2.46157 -3.00048 0
M  V30 5174 H 487.546 -0.104508 -3.72453 0
M  V30 5175 H 487.659 -1.8571 -4.41643 0
M  V30 5176 H 486.023 -0.897366 -2.38368 0
M  V30 5177 H 486.806 -2.56562 -2.28102 0
M  V30 5178 N 489.251 1.34841 -0.815825 0
M  V30 5179 C 490.479 2.0273 -0.413294 0
M  V30 5180 C 490.894 1.61459 0.978599 0
M  V30 5181 O 490.251 0.816584 1.63212 0
M  V30 5182 C 490.302 3.58058 -0.497676 0
M  V30 5183 O 490.023 3.97832 -1.8347 0
M  V30 5184 C 491.524 4.4321 -0.0891339 0
M  V30 5185 H 488.744 0.649956 -0.166728 0
M  V30 5186 H 491.288 1.72267 -1.10201 0
M  V30 5187 H 489.443 3.87136 0.142886 0
M  V30 5188 H 489.857 4.92501 -1.80396 0
M  V30 5189 H 491.331 5.5164 -0.199274 0
M  V30 5190 H 491.808 4.28432 0.966571 0
M  V30 5191 H 492.414 4.19446 -0.703214 0
M  V30 5192 N 490.729 0.570148 1.46925 0
M  V30 5193 C 492.006 -0.0153259 1.95594 0
M  V30 5194 C 492.386 -1.47232 1.51281 0
M  V30 5195 O 491.734 -2.15574 0.757624 0
M  V30 5196 C 491.944 0.143624 3.48704 0
M  V30 5197 C 493.292 0.00494484 4.246 0
M  V30 5198 O 494.316 0.0718214 3.56128 0
M  V30 5199 O 493.175 -0.141175 5.46318 0
M  V30 5200 H 490.269 -0.0568819 0.825041 0
M  V30 5201 H 492.815 0.637583 1.57267 0
M  V30 5202 H 491.587 1.15699 3.73804 0
M  V30 5203 H 491.21 -0.5463 3.93829 0
M  V30 5204 N 492.207 -1.54576 0.307264 0
M  V30 5205 C 493.618 -1.8579 -0.184121 0
M  V30 5206 C 493.969 -1.22914 -1.52927 0
M  V30 5207 O 493.094 -0.529126 -2.09831 0
M  V30 5208 C 493.689 -3.37081 -0.340862 0
M  V30 5209 C 492.248 -3.68304 -0.776465 0
M  V30 5210 C 491.395 -2.77076 0.111503 0
M  V30 5211 H 494.346 -1.49656 0.528078 0
M  V30 5212 H 494.367 -3.61922 -1.17443 0
M  V30 5213 H 493.879 -3.82815 0.638309 0
M  V30 5214 H 491.98 -3.28092 -1.76596 0
M  V30 5215 H 492.093 -4.75434 -0.591512 0
M  V30 5216 H 490.457 -2.51374 -0.410256 0
M  V30 5217 H 491.24 -3.25632 1.08714 0
M  V30 5218 N 493.685 -0.035106 -1.57561 0
M  V30 5219 C 494.632 0.94474 -2.10578 0
M  V30 5220 C 495.602 1.3192 -1.00927 0
M  V30 5221 O 496.787 1.41147 -1.28382 0
M  V30 5222 C 493.927 2.21982 -2.64231 0
M  V30 5223 C 493.04 1.90128 -3.87911 0
M  V30 5224 C 492.175 3.11975 -4.29936 0
M  V30 5225 C 491.214 2.75968 -5.46359 0
M  V30 5226 N 490.351 3.90459 -5.83512 0
M  V30 5227 H 495.191 0.485717 -2.94015 0
M  V30 5228 H 492.728 0.228143 -1.4532 0
M  V30 5229 H 494.686 2.96572 -2.9343 0
M  V30 5230 H 493.316 2.6549 -1.83616 0
M  V30 5231 H 492.368 1.05755 -3.65404 0
M  V30 5232 H 493.68 1.59613 -4.72573 0
M  V30 5233 H 492.834 3.9488 -4.60603 0
M  V30 5234 H 491.573 3.45657 -3.44053 0
M  V30 5235 H 490.578 1.91478 -5.1538 0
M  V30 5236 H 491.803 2.43497 -6.33945 0
M  V30 5237 H 489.749 4.23971 -5.00584 0
M  V30 5238 H 489.666 3.63588 -6.62827 0
M  V30 5239 H 490.934 4.7405 -6.18787 0
M  V30 5240 N 495.163 1.55791 0.238111 0
M  V30 5241 C 496.579 1.48411 0.587045 0
M  V30 5242 C 496.779 0.72702 1.87927 0
M  V30 5243 O 495.835 0.259942 2.51158 0
M  V30 5244 C 497.148 2.92873 0.681623 0
M  V30 5245 C 498.696 3.03295 0.773363 0
M  V30 5246 C 499.171 4.49082 0.899428 0
M  V30 5247 N 500.662 4.53056 0.964075 0
M  V30 5248 C 501.397 5.63117 1.08104 0
M  V30 5249 N 500.893 6.82969 1.16299 0
M  V30 5250 N 502.686 5.50933 1.11488 0
M  V30 5251 H 494.837 2.0345 -0.610076 0
M  V30 5252 H 497.1 0.924034 -0.211813 0
M  V30 5253 H 496.806 3.51142 -0.19802 0
M  V30 5254 H 496.68 3.43851 1.55069 0
M  V30 5255 H 499.067 2.45101 1.64346 0
M  V30 5256 H 499.148 2.55513 -0.121034 0
M  V30 5257 H 498.792 5.07889 0.0338586 0
M  V30 5258 H 498.722 4.94553 1.809 0
M  V30 5259 H 501.213 3.66737 0.91173 0
M  V30 5260 H 501.526 7.62598 1.25155 0
M  V30 5261 H 499.871 6.85712 1.13241 0
M  V30 5262 H 503.062 4.56231 1.0474 0
M  V30 5263 H 503.235 6.36743 1.20259 0
M  V30 5264 N 496.642 -0.504142 1.49319 0
M  V30 5265 C 497.882 -1.26867 1.60263 0
M  V30 5266 C 498.246 -1.89924 0.281578 0
M  V30 5267 O 499.447 -2.67479 0.266176 0
M  V30 5268 C 497.718 -2.30956 2.72753 0
M  V30 5269 S 499.277 -3.1679 3.03628 0
M  V30 5270 H 496.095 -0.431198 0.565322 0
M  V30 5271 H 498.697 -0.571407 1.86963 0
M  V30 5272 H 497.401 -1.83156 3.67263 0
M  V30 5273 H 496.932 -3.05356 2.48035 0
M  V30 5274 H 498.947 -4.31549 2.44908 0
M  V30 5275 N 498.12 -1.38341 -0.754957 0
M  V30 5276 C 499.367 -1.34473 -1.51404 0
M  V30 5277 C 499.695 0.0656458 -1.94389 0
M  V30 5278 O 498.95 1.04244 -1.65625 0
M  V30 5279 C 499.249 -2.2452 -2.78075 0
M  V30 5280 C 498.915 -3.72512 -2.54059 0
M  V30 5281 C 497.577 -4.1284 -2.47218 0
M  V30 5282 C 499.929 -4.66197 -2.33044 0
M  V30 5283 C 497.257 -5.44945 -2.17376 0
M  V30 5284 C 499.609 -5.98558 -2.04723 0
M  V30 5285 C 498.273 -6.37972 -1.96337 0
M  V30 5286 H 497.543 -0.492072 -0.554027 0
M  V30 5287 H 500.19 -1.70687 -0.868223 0
M  V30 5288 H 498.495 -1.81357 -3.473 0
M  V30 5289 H 500.192 -2.18832 -3.36026 0
M  V30 5290 H 496.782 -3.40538 -2.60253 0
M  V30 5291 H 500.966 -4.35888 -2.37309 0
M  V30 5292 H 496.222 -5.74426 -2.09391 0
M  V30 5293 H 500.396 -6.70693 -1.87465 0
M  V30 5294 H 498.023 -7.40258 -1.72978 0
M  V30 5295 N 499.598 0.982988 -1.23187 0
M  V30 5296 C 500.845 1.72392 -1.06241 0
M  V30 5297 C 501.173 1.9032 0.40108 0
M  V30 5298 O 500.428 1.45084 1.31336 0
M  V30 5299 C 500.727 3.12736 -1.73006 0
M  V30 5300 C 500.393 3.14695 -3.22921 0
M  V30 5301 C 499.055 3.14937 -3.63824 0
M  V30 5302 C 501.407 3.10211 -4.1883 0
M  V30 5303 C 498.735 3.08408 -4.99101 0
M  V30 5304 C 501.087 3.05224 -5.54095 0
M  V30 5305 C 499.751 3.03787 -5.94365 0
M  V30 5306 H 499.021 0.630829 -0.388762 0
M  V30 5307 H 501.668 1.15053 -1.53085 0
M  V30 5308 H 499.973 3.73446 -1.18514 0
M  V30 5309 H 501.67 3.68828 -1.57374 0
M  V30 5310 H 498.26 3.15262 -2.90358 0
M  V30 5311 H 502.444 3.09166 -3.8824 0
M  V30 5312 H 497.7 3.05646 -5.29519 0
M  V30 5313 H 501.874 3.00712 -6.28128 0
M  V30 5314 H 499.501 2.98483 -6.99151 0
M  V30 5315 N 501.076 1.04316 1.18135 0
M  V30 5316 C 502.324 0.746542 1.87806 0
M  V30 5317 C 502.645 -0.728082 1.80898 0
M  V30 5318 O 501.915 -1.52554 1.22899 0
M  V30 5319 H 500.495 0.273157 0.695265 0
M  V30 5320 H 503.157 1.32044 1.43354 0
M  V30 5321 H 502.253 1.05362 2.93778 0
M  V30 5322 N 502.554 -1.34406 0.822964 0
M  V30 5323 C 503.517 -2.2783 0.250271 0
M  V30 5324 C 504.517 -1.50288 -0.571854 0
M  V30 5325 O 505.707 -1.69825 -0.387952 0
M  V30 5326 C 502.839 -3.34663 -0.649137 0
M  V30 5327 H 504.032 -2.79992 1.07444 0
M  V30 5328 H 501.585 -1.44539 0.594829 0
M  V30 5329 H 502.32 -2.87714 -1.49637 0
M  V30 5330 H 502.105 -3.92052 -0.0611199 0
M  V30 5331 H 503.595 -4.04349 -1.04363 0
M  V30 5332 N 504.032 -0.577932 -1.46621 0
M  V30 5333 C 505.257 -0.0652536 -2.07297 0
M  V30 5334 C 505.682 1.22828 -1.4246 0
M  V30 5335 O 505.04 1.74075 -0.506718 0
M  V30 5336 C 505.088 0.0920589 -3.60482 0
M  V30 5337 O 504.192 1.14972 -3.96049 0
M  V30 5338 H 503.533 -0.06065 -0.661224 0
M  V30 5339 H 506.063 -0.799515 -1.88332 0
M  V30 5340 H 506.073 0.299741 -4.06897 0
M  V30 5341 H 504.748 -0.852612 -4.07067 0
M  V30 5342 H 503.325 0.920879 -3.61351 0
M  V30 5343 N 505.51 1.54411 -0.315457 0
M  V30 5344 C 506.921 1.85885 0.174265 0
M  V30 5345 C 507.272 1.23723 1.52273 0
M  V30 5346 O 506.397 0.540246 2.09548 0
M  V30 5347 C 506.992 3.37257 0.322981 0
M  V30 5348 C 505.551 3.68711 0.756922 0
M  V30 5349 C 504.698 2.77013 -0.126195 0
M  V30 5350 H 507.649 1.49374 -0.536007 0
M  V30 5351 H 507.67 3.62539 1.15522 0
M  V30 5352 H 507.182 3.82471 -0.658602 0
M  V30 5353 H 505.283 3.29024 1.74854 0
M  V30 5354 H 505.396 4.75741 0.566291 0
M  V30 5355 H 503.76 2.51588 0.39692 0
M  V30 5356 H 504.543 3.25051 -1.1044 0
M  V30 5357 N 506.988 0.0434614 1.5754 0
M  V30 5358 C 508.236 -0.630786 1.92004 0
M  V30 5359 C 508.557 -1.71836 0.921807 0
M  V30 5360 O 507.827 -1.9587 -0.034522 0
M  V30 5361 H 506.407 -0.235988 0.708745 0
M  V30 5362 H 509.069 0.0946462 1.9467 0
M  V30 5363 H 508.165 -1.07434 2.93026 0
M  V30 5364 N 508.466 -1.55915 -0.229846 0
M  V30 5365 C 509.882 -1.48721 -0.579166 0
M  V30 5366 C 510.082 -0.736976 -1.87539 0
M  V30 5367 O 509.138 -0.273258 -2.51017 0
M  V30 5368 C 510.451 -2.9323 -0.666082 0
M  V30 5369 C 511.999 -3.03701 -0.757267 0
M  V30 5370 C 512.474 -4.49552 -0.8756 0
M  V30 5371 N 513.965 -4.53561 -0.940035 0
M  V30 5372 C 514.7 -5.63683 -1.05116 0
M  V30 5373 N 514.196 -6.83576 -1.12675 0
M  V30 5374 N 515.989 -5.51516 -1.08565 0
M  V30 5375 H 508.14 -2.03123 0.620857 0
M  V30 5376 H 510.403 -0.922898 0.21671 0
M  V30 5377 H 510.109 -3.51032 0.21664 0
M  V30 5378 H 509.983 -3.44668 -1.53243 0
M  V30 5379 H 512.37 -2.45969 -1.63043 0
M  V30 5380 H 512.451 -2.55446 0.134583 0
M  V30 5381 H 512.095 -5.079 -0.00692351 0
M  V30 5382 H 512.025 -4.95506 -1.78274 0
M  V30 5383 H 514.516 -3.67215 -0.892269 0
M  V30 5384 H 514.829 -7.63251 -1.21109 0
M  V30 5385 H 513.174 -6.86303 -1.09603 0
M  V30 5386 H 516.365 -4.5678 -1.02319 0
M  V30 5387 H 516.538 -6.37372 -1.1688 0
M  V30 5388 N 509.944 0.496216 -1.49584 0
M  V30 5389 C 510.874 1.60576 -1.69521 0
M  V30 5390 C 511.855 1.61169 -0.543933 0
M  V30 5391 O 513.04 1.77834 -0.78031 0
M  V30 5392 C 510.17 2.99038 -1.76616 0
M  V30 5393 C 509.124 3.13312 -2.91581 0
M  V30 5394 C 508.45 4.53172 -2.83794 0
M  V30 5395 C 509.75 2.92886 -4.32452 0
M  V30 5396 H 511.444 1.44146 -2.62416 0
M  V30 5397 H 508.99 0.692024 -1.26282 0
M  V30 5398 H 510.943 3.76564 -1.8915 0
M  V30 5399 H 509.667 3.16568 -0.80324 0
M  V30 5400 H 508.326 2.38213 -2.78658 0
M  V30 5401 H 507.974 4.67585 -1.854 0
M  V30 5402 H 507.674 4.63662 -3.60958 0
M  V30 5403 H 509.198 5.32752 -2.98342 0
M  V30 5404 H 510.612 3.60178 -4.46032 0
M  V30 5405 H 509.009 3.14844 -5.10875 0
M  V30 5406 H 510.079 1.88966 -4.46565 0
M  V30 5407 N 511.423 1.38739 0.74761 0
M  V30 5408 C 512.373 1.32948 1.85226 0
M  V30 5409 C 513.357 0.212642 1.59489 0
M  V30 5410 O 514.549 0.449121 1.71207 0
M  V30 5411 C 511.678 1.16279 3.23008 0
M  V30 5412 C 510.764 2.32611 3.54617 0
M  V30 5413 N 511.155 3.58065 3.57244 0
M  V30 5414 C 509.453 2.25293 3.84914 0
M  V30 5415 C 510.154 4.34919 3.8629 0
M  V30 5416 N 509.13 3.64348 4.03425 0
M  V30 5417 H 512.932 2.27927 1.85544 0
M  V30 5418 H 510.446 1.32056 0.945253 0
M  V30 5419 H 512.443 1.10214 4.02068 0
M  V30 5420 H 511.103 0.222394 3.23937 0
M  V30 5421 H 512.114 3.91656 3.3886 0
M  V30 5422 H 508.791 1.39446 3.93524 0
M  V30 5423 H 510.181 5.43605 3.94896 0
M  V30 5424 N 512.901 -0.976442 1.23707 0
M  V30 5425 C 514.15 -1.71254 1.06559 0
M  V30 5426 C 514.463 -1.91528 -0.397024 0
M  V30 5427 O 515.669 -2.62625 -0.688518 0
M  V30 5428 C 514.125 -3.08207 1.8584 0
M  V30 5429 C 513.733 -2.95806 3.36456 0
M  V30 5430 C 515.477 -3.85749 1.77194 0
M  V30 5431 C 513.384 -4.28015 4.08114 0
M  V30 5432 H 512.314 -0.642171 0.395136 0
M  V30 5433 H 514.965 -1.08877 1.4771 0
M  V30 5434 H 513.347 -3.71363 1.37498 0
M  V30 5435 H 514.521 -2.41716 3.92314 0
M  V30 5436 H 512.836 -2.31736 3.45959 0
M  V30 5437 H 515.433 -4.83633 2.28041 0
M  V30 5438 H 515.776 -4.09752 0.735477 0
M  V30 5439 H 516.309 -3.29303 2.23169 0
M  V30 5440 H 513.048 -4.09208 5.12083 0
M  V30 5441 H 512.568 -4.81955 3.57043 0
M  V30 5442 H 514.247 -4.96681 4.14629 0
M  V30 5443 N 514.379 -1.04941 -1.1758 0
M  V30 5444 C 515.604 -0.778253 -1.92245 0
M  V30 5445 C 516.029 0.659707 -1.76152 0
M  V30 5446 O 515.387 1.45803 -1.07755 0
M  V30 5447 C 515.435 -1.16051 -3.41416 0
M  V30 5448 O 514.539 -0.291153 -4.11371 0
M  V30 5449 H 513.88 -0.285619 -0.599431 0
M  V30 5450 H 516.41 -1.40159 -1.49052 0
M  V30 5451 H 516.42 -1.12619 -3.92149 0
M  V30 5452 H 515.095 -2.208 -3.52449 0
M  V30 5453 H 513.672 -0.385851 -3.70898 0
M  V30 5454 N 515.857 1.33968 -0.830081 0
M  V30 5455 C 517.134 1.92554 -0.343858 0
M  V30 5456 C 517.514 1.7573 1.16971 0
M  V30 5457 O 516.862 1.14035 1.98011 0
M  V30 5458 C 517.072 3.40147 -0.781073 0
M  V30 5459 C 518.42 4.17299 -0.78402 0
M  V30 5460 O 519.444 3.48762 -0.724112 0
M  V30 5461 O 518.303 5.39631 -0.863739 0
M  V30 5462 H 515.397 0.821469 -0.0954827 0
M  V30 5463 H 517.943 1.42897 -0.915348 0
M  V30 5464 H 516.715 3.46225 -1.82329 0
M  V30 5465 H 516.338 3.97166 -0.18567 0
M  V30 5466 N 517.335 0.585699 1.46312 0
M  V30 5467 C 518.582 0.0724211 2.0237 0
M  V30 5468 C 518.91 -1.28868 1.45683 0
M  V30 5469 O 518.165 -1.85853 0.612945 0
M  V30 5470 C 518.464 -0.0401312 3.57377 0
M  V30 5471 C 518.13 1.25376 4.33119 0
M  V30 5472 C 516.792 1.60824 4.5353 0
M  V30 5473 C 519.144 2.10987 4.76586 0
M  V30 5474 C 516.472 2.81676 5.14661 0
M  V30 5475 C 518.824 3.31068 5.39052 0
M  V30 5476 C 517.488 3.66794 5.5769 0
M  V30 5477 H 516.758 0.0265007 0.740526 0
M  V30 5478 H 519.405 0.762935 1.75646 0
M  V30 5479 H 517.71 -0.813791 3.83255 0
M  V30 5480 H 519.407 -0.453078 3.98432 0
M  V30 5481 H 515.997 0.967808 4.1753 0
M  V30 5482 H 520.181 1.84904 4.60569 0
M  V30 5483 H 515.437 3.0949 5.27282 0
M  V30 5484 H 519.611 3.97672 5.71691 0
M  V30 5485 H 517.238 4.60529 6.04828 0
M  V30 5486 N 518.813 -1.54241 0.323641 0
M  V30 5487 C 520.038 -2.05452 -0.283605 0
M  V30 5488 C 520.463 -1.19823 -1.44997 0
M  V30 5489 O 519.821 -0.207358 -1.8011 0
M  V30 5490 C 519.869 -3.53823 -0.695795 0
M  V30 5491 O 518.973 -3.71134 -1.79815 0
M  V30 5492 H 518.314 -0.662024 -0.0511917 0
M  V30 5493 H 520.844 -1.99079 0.472073 0
M  V30 5494 H 520.854 -3.96094 -0.978434 0
M  V30 5495 H 519.529 -4.15602 0.157287 0
M  V30 5496 H 518.106 -3.40768 -1.51431 0
M  V30 5497 N 520.291 -0.0518155 -1.57515 0
M  V30 5498 C 521.538 0.621823 -1.92716 0
M  V30 5499 C 521.866 1.70813 -0.930229 0
M  V30 5500 O 521.121 1.95616 0.0573708 0
M  V30 5501 C 521.42 1.25607 -3.34601 0
M  V30 5502 C 521.086 0.297901 -4.49915 0
M  V30 5503 C 519.748 0.034243 -4.81188 0
M  V30 5504 C 522.1 -0.358738 -5.19964 0
M  V30 5505 C 519.428 -0.893479 -5.79857 0
M  V30 5506 C 521.78 -1.27466 -6.19625 0
M  V30 5507 C 520.444 -1.54698 -6.49326 0
M  V30 5508 H 519.714 0.227541 -0.705199 0
M  V30 5509 H 522.361 -0.118432 -1.91133 0
M  V30 5510 H 520.666 2.07161 -3.32553 0
M  V30 5511 H 522.363 1.78424 -3.59118 0
M  V30 5512 H 518.953 0.513581 -4.25512 0
M  V30 5513 H 523.137 -0.168133 -4.96015 0
M  V30 5514 H 518.393 -1.11193 -6.01204 0
M  V30 5515 H 522.567 -1.78953 -6.73015 0
M  V30 5516 H 520.194 -2.26748 -7.25596 0
M  V30 5517 N 521.769 1.56035 0.221574 0
M  V30 5518 C 522.699 1.95434 1.2778 0
M  V30 5519 C 523.68 0.822564 1.48889 0
M  V30 5520 O 524.865 1.08486 1.61072 0
M  V30 5521 C 521.995 2.27102 2.62759 0
M  V30 5522 C 520.949 3.4277 2.56306 0
M  V30 5523 C 520.275 3.60043 3.95314 0
M  V30 5524 C 521.575 4.77742 2.11093 0
M  V30 5525 H 523.269 2.83912 0.950504 0
M  V30 5526 H 520.815 1.36596 0.455791 0
M  V30 5527 H 522.768 2.53256 3.36807 0
M  V30 5528 H 521.492 1.35478 2.97176 0
M  V30 5529 H 520.151 3.16664 1.84715 0
M  V30 5530 H 519.799 2.65794 4.27039 0
M  V30 5531 H 519.499 4.37841 3.91879 0
M  V30 5532 H 521.023 3.88545 4.71025 0
M  V30 5533 H 522.437 5.03102 2.74885 0
M  V30 5534 H 520.834 5.58823 2.18716 0
M  V30 5535 H 521.904 4.731 1.06321 0
M  V30 5536 N 523.247 -0.488276 1.49845 0
M  V30 5537 C 524.18 -1.60651 1.62069 0
M  V30 5538 C 525.158 -1.5568 0.469308 0
M  V30 5539 O 526.342 -1.75553 0.686551 0
M  V30 5540 C 523.469 -2.99197 1.58741 0
M  V30 5541 C 522.515 -3.22385 2.79232 0
M  V30 5542 S 523.348 -3.04133 4.40753 0
M  V30 5543 C 524.504 -4.45052 4.4009 0
M  V30 5544 H 524.737 -1.50039 2.56662 0
M  V30 5545 H 522.27 -0.674371 1.38894 0
M  V30 5546 H 524.228 -3.79081 1.57506 0
M  V30 5547 H 522.889 -3.07213 0.654136 0
M  V30 5548 H 522.082 -4.23557 2.73159 0
M  V30 5549 H 521.684 -2.50245 2.77945 0
M  V30 5550 H 523.976 -5.37375 4.12594 0
M  V30 5551 H 524.919 -4.56172 5.41583 0
M  V30 5552 H 525.327 -4.26327 3.70008 0
M  V30 5553 N 524.725 -1.39134 -0.740242 0
M  V30 5554 C 525.971 -1.36273 -1.50192 0
M  V30 5555 C 526.304 0.0430136 -1.94152 0
M  V30 5556 O 525.579 1.00691 -1.66408 0
M  V30 5557 C 525.862 -2.33041 -2.74525 0
M  V30 5558 C 525.715 -3.82535 -2.36617 0
M  V30 5559 C 527.034 -2.27723 -3.76604 0
M  V30 5560 H 524.153 -0.496323 -0.544823 0
M  V30 5561 H 526.795 -1.70085 -0.846815 0
M  V30 5562 H 524.945 -2.04337 -3.30422 0
M  V30 5563 H 526.617 -4.21967 -1.86391 0
M  V30 5564 H 524.86 -3.99565 -1.68909 0
M  V30 5565 H 525.531 -4.45723 -3.2563 0
M  V30 5566 H 528.007 -2.53091 -3.30279 0
M  V30 5567 H 526.883 -2.97519 -4.61274 0
M  V30 5568 H 527.144 -1.28049 -4.2315 0
M  V30 5569 N 526.204 0.969867 -1.24223 0
M  V30 5570 C 527.134 2.08191 -1.05729 0
M  V30 5571 C 528.115 1.70075 0.0290765 0
M  V30 5572 O 529.3 1.93712 -0.137583 0
M  V30 5573 C 526.43 3.40991 -0.658995 0
M  V30 5574 C 525.384 3.93054 -1.69389 0
M  V30 5575 C 524.71 5.22171 -1.15072 0
M  V30 5576 C 526.01 4.21137 -3.08935 0
M  V30 5577 H 527.704 2.23921 -1.98746 0
M  V30 5578 H 525.25 1.07602 -0.956967 0
M  V30 5579 H 527.203 4.18221 -0.51662 0
M  V30 5580 H 525.927 3.25155 0.30686 0
M  V30 5581 H 524.586 3.17977 -1.82444 0
M  V30 5582 H 524.234 5.02694 -0.175539 0
M  V30 5583 H 523.934 5.57973 -1.84229 0
M  V30 5584 H 525.458 6.02013 -1.02042 0
M  V30 5585 H 526.872 4.8908 -2.99121 0
M  V30 5586 H 525.269 4.68163 -3.75425 0
M  V30 5587 H 526.339 3.27996 -3.57137 0
M  V30 5588 N 527.682 1.05563 1.17022 0
M  V30 5589 C 528.93 0.76642 1.87004 0
M  V30 5590 C 529.251 -0.708854 1.8166 0
M  V30 5591 O 528.521 -1.51242 1.2451 0
M  V30 5592 H 527.101 0.280516 0.692329 0
M  V30 5593 H 529.763 1.33557 1.41945 0
M  V30 5594 H 528.859 1.08472 2.92644 0
M  V30 5595 N 529.16 -1.33526 0.837174 0
M  V30 5596 C 530.107 -2.29248 0.267169 0
M  V30 5597 C 531.077 -1.54252 -0.616071 0
M  V30 5598 O 532.262 -1.82559 -0.554699 0
M  V30 5599 C 529.402 -3.40638 -0.553152 0
M  V30 5600 C 528.515 -4.30548 0.353921 0
M  V30 5601 C 527.65 -5.29051 -0.477339 0
M  V30 5602 C 526.689 -6.106 0.42823 0
M  V30 5603 N 525.826 -7.01152 -0.364801 0
M  V30 5604 H 530.666 -2.77398 1.08877 0
M  V30 5605 H 528.203 -1.36496 0.54838 0
M  V30 5606 H 530.161 -4.03921 -1.04422 0
M  V30 5607 H 528.791 -2.93685 -1.33973 0
M  V30 5608 H 527.843 -3.68001 0.963289 0
M  V30 5609 H 529.155 -4.87631 1.04964 0
M  V30 5610 H 528.309 -5.97853 -1.0323 0
M  V30 5611 H 527.048 -4.72541 -1.2065 0
M  V30 5612 H 526.053 -5.40718 0.995219 0
M  V30 5613 H 527.278 -6.69193 1.15573 0
M  V30 5614 H 525.224 -6.47092 -1.07738 0
M  V30 5615 H 525.141 -7.5551 0.272238 0
M  V30 5616 H 526.409 -7.74263 -0.902054 0
M  V30 5617 N 530.638 -0.59345 -1.46 0
M  V30 5618 C 531.886 -0.082988 -2.0193 0
M  V30 5619 C 532.207 1.28569 -1.46612 0
M  V30 5620 O 531.477 1.84629 -0.654909 0
M  V30 5621 H 530.057 -0.0276882 -0.746487 0
M  V30 5622 H 532.719 -0.771657 -1.78973 0
M  V30 5623 H 531.815 -0.022079 -3.12092 0
M  V30 5624 N 532.116 1.54067 -0.331816 0
M  V30 5625 C 533.341 2.05599 0.272705 0
M  V30 5626 C 533.766 1.2059 1.44359 0
M  V30 5627 O 533.124 0.216907 1.79998 0
M  V30 5628 C 533.172 3.54188 0.677021 0
M  V30 5629 O 532.276 3.72082 1.77844 0
M  V30 5630 H 531.617 0.662286 0.0476801 0
M  V30 5631 H 534.147 1.98826 -0.482624 0
M  V30 5632 H 534.157 3.96608 0.957415 0
M  V30 5633 H 532.832 4.15513 -0.179325 0
M  V30 5634 H 531.409 3.41566 1.49622 0
M  V30 5635 N 533.594 0.0601682 1.57485 0
M  V30 5636 C 534.841 -0.611594 1.93043 0
M  V30 5637 C 535.169 -1.70317 0.939274 0
M  V30 5638 O 534.424 -1.95644 -0.046996 0
M  V30 5639 C 534.723 -1.23831 3.35262 0
M  V30 5640 C 534.389 -0.274037 4.50066 0
M  V30 5641 C 533.051 -0.00872394 4.81199 0
M  V30 5642 C 535.403 0.386308 5.19766 0
M  V30 5643 C 532.731 0.924218 5.79375 0
M  V30 5644 C 535.083 1.3075 6.1894 0
M  V30 5645 C 533.747 1.58139 6.48497 0
M  V30 5646 H 533.017 -0.223798 0.706396 0
M  V30 5647 H 535.664 0.128566 1.91068 0
M  V30 5648 H 533.969 -2.05394 3.33647 0
M  V30 5649 H 535.666 -1.76517 3.60059 0
M  V30 5650 H 532.256 -0.491008 4.25778 0
M  V30 5651 H 536.44 0.194436 4.95919 0
M  V30 5652 H 531.696 1.1438 6.00606 0
M  V30 5653 H 535.87 1.82519 6.72056 0
M  V30 5654 H 533.497 2.30593 7.24383 0
M  V30 5655 N 535.072 -1.5615 -0.213296 0
M  V30 5656 C 536.32 -1.79191 -0.934612 0
M  V30 5657 C 536.641 -0.630112 -1.84539 0
M  V30 5658 O 535.911 0.35257 -1.92701 0
M  V30 5659 H 534.491 -0.660937 -0.348097 0
M  V30 5660 H 537.153 -1.93618 -0.22317 0
M  V30 5661 H 536.249 -2.71656 -1.53654 0
M  V30 5662 N 536.55 0.480323 -1.50102 0
M  V30 5663 C 537.497 1.57946 -1.6829 0
M  V30 5664 C 538.467 1.57611 -0.524223 0
M  V30 5665 O 539.652 1.75282 -0.753709 0
M  V30 5666 C 536.792 2.95978 -1.77457 0
M  V30 5667 C 535.905 3.06173 -3.04766 0
M  V30 5668 C 535.04 4.35063 -3.04784 0
M  V30 5669 C 534.079 4.38966 -4.26586 0
M  V30 5670 N 533.216 5.59314 -4.24396 0
M  V30 5671 H 538.056 1.41743 -2.62131 0
M  V30 5672 H 535.593 0.689304 -1.2995 0
M  V30 5673 H 537.551 3.76011 -1.80752 0
M  V30 5674 H 536.181 3.10837 -0.870637 0
M  V30 5675 H 535.233 2.19071 -3.10986 0
M  V30 5676 H 536.545 3.04916 -3.9475 0
M  V30 5677 H 535.699 5.23436 -3.06757 0
M  V30 5678 H 534.438 4.38915 -2.12614 0
M  V30 5679 H 533.443 3.48992 -4.24835 0
M  V30 5680 H 534.668 4.36813 -5.19972 0
M  V30 5681 H 532.614 5.63969 -3.35074 0
M  V30 5682 H 532.531 5.5976 -5.08138 0
M  V30 5683 H 533.799 6.49837 -4.30502 0
M  V30 5684 N 538.028 1.39524 0.732853 0
M  V30 5685 C 539.274 1.37068 1.49467 0
M  V30 5686 C 539.607 -0.0327166 1.94172 0
M  V30 5687 O 538.882 -0.998071 1.66939 0
M  V30 5688 C 539.165 2.34494 2.73285 0
M  V30 5689 C 539.018 3.83784 2.34585 0
M  V30 5690 C 540.337 2.29717 3.75391 0
M  V30 5691 H 537.456 0.499206 0.542183 0
M  V30 5692 H 540.098 1.70532 0.837783 0
M  V30 5693 H 538.248 2.06087 3.29333 0
M  V30 5694 H 539.92 4.22949 1.84151 0
M  V30 5695 H 538.163 4.00455 1.66787 0
M  V30 5696 H 538.834 4.47444 3.23262 0
M  V30 5697 H 541.31 2.54839 3.28932 0
M  V30 5698 H 540.186 2.99962 4.59689 0
M  V30 5699 H 540.447 1.30291 4.22465 0
M  V30 5700 N 539.506 -0.963266 1.24736 0
M  V30 5701 C 540.439 -2.05758 0.986852 0
M  V30 5702 C 541.417 -1.62398 -0.0809272 0
M  V30 5703 O 542.601 -1.88414 0.0569347 0
M  V30 5704 C 539.728 -3.35135 0.490095 0
M  V30 5705 C 538.774 -3.97451 1.54709 0
M  V30 5706 S 539.607 -4.34519 3.12976 0
M  V30 5707 C 540.763 -5.67026 2.65014 0
M  V30 5708 H 540.996 -2.27539 1.91346 0
M  V30 5709 H 538.529 -1.10176 1.08169 0
M  V30 5710 H 540.487 -4.09962 0.21012 0
M  V30 5711 H 539.148 -3.11335 -0.415873 0
M  V30 5712 H 538.341 -4.90704 1.15003 0
M  V30 5713 H 537.943 -3.29071 1.77731 0
M  V30 5714 H 540.235 -6.44748 2.08102 0
M  V30 5715 H 541.178 -6.11594 3.56873 0
M  V30 5716 H 541.586 -5.25847 2.05294 0
M  V30 5717 N 540.985 -1.06182 -1.16461 0
M  V30 5718 C 541.915 -0.692861 -2.22984 0
M  V30 5719 C 542.896 0.314122 -1.67174 0
M  V30 5720 O 544.081 0.189499 -1.93273 0
M  V30 5721 C 541.211 -0.07732 -3.47214 0
M  V30 5722 C 540.165 -1.01015 -4.15909 0
M  V30 5723 C 539.491 -0.257973 -5.34077 0
M  V30 5724 C 540.791 -2.33868 -4.67015 0
M  V30 5725 H 542.485 -1.58343 -2.54102 0
M  V30 5726 H 540.031 -0.76279 -1.22137 0
M  V30 5727 H 541.984 0.19266 -4.20959 0
M  V30 5728 H 540.708 0.848254 -3.15392 0
M  V30 5729 H 539.367 -1.26486 -3.44088 0
M  V30 5730 H 539.015 0.670684 -4.98509 0
M  V30 5731 H 538.715 -0.879638 -5.80979 0
M  V30 5732 H 540.239 0.00448788 -6.106 0
M  V30 5733 H 541.653 -2.1279 -5.32347 0
M  V30 5734 H 540.05 -2.91522 -5.24533 0
M  V30 5735 H 541.12 -2.97019 -3.83286 0
M  V30 5736 N 542.463 1.3308 -0.844243 0
M  V30 5737 C 543.426 2.27403 -0.286485 0
M  V30 5738 C 544.426 1.51179 0.547872 0
M  V30 5739 O 545.616 1.70421 0.360886 0
M  V30 5740 C 542.748 3.35653 0.595813 0
M  V30 5741 H 543.941 2.78248 -1.11885 0
M  V30 5742 H 541.494 1.43574 -0.617749 0
M  V30 5743 H 542.229 2.90058 1.4504 0
M  V30 5744 H 542.014 3.921 -0.00125994 0
M  V30 5745 H 543.504 4.05958 0.979168 0
M  V30 5746 N 543.941 0.601185 1.45683 0
M  V30 5747 C 544.851 -0.123395 2.34275 0
M  V30 5748 C 545.867 -0.86702 1.5086 0
M  V30 5749 O 547.043 -0.826049 1.8368 0
M  V30 5750 C 544.108 -1.11237 3.2837 0
M  V30 5751 C 543.169 -0.371405 4.2769 0
M  V30 5752 C 542.402 -1.31327 5.1729 0
M  V30 5753 O 542.625 -2.55078 5.10188 0
M  V30 5754 O 541.559 -0.813811 5.96373 0
M  V30 5755 H 545.385 0.604483 2.97623 0
M  V30 5756 H 542.97 0.361477 1.44961 0
M  V30 5757 H 544.852 -1.68214 3.8637 0
M  V30 5758 H 543.527 -1.82139 2.67595 0
M  V30 5759 H 542.434 0.24067 3.73325 0
M  V30 5760 H 543.767 0.296998 4.91303 0
M  V30 5761 N 545.419 -1.53889 0.339982 0
M  V30 5762 C 546.835 -1.59595 -0.0120752 0
M  V30 5763 C 547.035 -1.35605 -1.49042 0
M  V30 5764 O 546.091 -1.14856 -2.24865 0
M  V30 5765 C 547.404 -2.9774 0.420898 0
M  V30 5766 C 548.952 -3.1077 0.37294 0
M  V30 5767 C 549.427 -4.51286 0.781327 0
M  V30 5768 N 550.918 -4.57325 0.735374 0
M  V30 5769 C 551.653 -5.64194 1.02336 0
M  V30 5770 N 551.149 -6.7893 1.37933 0
M  V30 5771 N 552.942 -5.54051 0.947838 0
M  V30 5772 H 545.093 -1.67738 1.30299 0
M  V30 5773 H 547.356 -0.785385 0.530918 0
M  V30 5774 H 547.062 -3.20349 1.45152 0
M  V30 5775 H 546.936 -3.76639 -0.205721 0
M  V30 5776 H 549.323 -2.87886 -0.648505 0
M  V30 5777 H 549.404 -2.33939 1.03472 0
M  V30 5778 H 549.048 -4.74905 1.80077 0
M  V30 5779 H 548.978 -5.26511 0.0970679 0
M  V30 5780 H 551.469 -3.74931 0.472773 0
M  V30 5781 H 551.782 -7.56392 1.58402 0
M  V30 5782 H 550.127 -6.80386 1.41774 0
M  V30 5783 H 553.318 -4.63293 0.669115 0
M  V30 5784 H 553.491 -6.37246 1.17563 0
M  V30 5785 N 546.897 -0.0685191 -1.57451 0
M  V30 5786 C 548.313 0.288101 -1.56978 0
M  V30 5787 C 548.513 1.70262 -1.07765 0
M  V30 5788 O 547.569 2.4135 -0.742054 0
M  V30 5789 C 548.882 0.100745 -3.00531 0
M  V30 5790 C 550.43 0.170531 -3.12535 0
M  V30 5791 C 550.905 0.0114944 -4.57999 0
M  V30 5792 N 552.396 0.0672065 -4.63151 0
M  V30 5793 C 553.131 -0.0314813 -5.73391 0
M  V30 5794 N 552.627 -0.183503 -6.92557 0
M  V30 5795 N 554.42 0.0253489 -5.62094 0
M  V30 5796 H 546.571 -0.993026 -1.87757 0
M  V30 5797 H 548.834 -0.386981 -0.865419 0
M  V30 5798 H 548.54 -0.875197 -3.40636 0
M  V30 5799 H 548.414 0.854457 -3.67395 0
M  V30 5800 H 550.801 1.13696 -2.72318 0
M  V30 5801 H 550.882 -0.614229 -2.48316 0
M  V30 5802 H 550.526 -0.951684 -4.98904 0
M  V30 5803 H 550.456 0.815617 -5.20245 0
M  V30 5804 H 552.947 0.183246 -3.77455 0
M  V30 5805 H 553.26 -0.251041 -7.72392 0
M  V30 5806 H 551.605 -0.218822 -6.94655 0
M  V30 5807 H 554.796 0.142794 -4.67882 0
M  V30 5808 H 554.969 -0.0550166 -6.47977 0
M  V30 5809 N 548.375 1.56261 0.205012 0
M  V30 5810 C 549.623 1.79684 0.925096 0
M  V30 5811 C 549.944 0.63989 1.84202 0
M  V30 5812 O 549.214 -0.342345 1.92885 0
M  V30 5813 H 547.794 0.662774 0.344587 0
M  V30 5814 H 550.456 1.93734 0.212899 0
M  V30 5815 H 549.552 2.72467 1.52211 0
M  V30 5816 N 549.853 -0.472356 1.50355 0
M  V30 5817 C 551.078 -1.25251 1.65309 0
M  V30 5818 C 551.503 -1.85081 0.335643 0
M  V30 5819 O 550.861 -1.67227 -0.700335 0
M  V30 5820 C 550.909 -2.3379 2.74544 0
M  V30 5821 O 550.013 -3.38401 2.35709 0
M  V30 5822 H 549.354 -0.368539 0.552336 0
M  V30 5823 H 551.884 -0.562271 1.96722 0
M  V30 5824 H 551.894 -2.79121 2.97583 0
M  V30 5825 H 550.569 -1.89614 3.70161 0
M  V30 5826 H 549.146 -2.9879 2.23112 0
M  V30 5827 N 551.331 -1.39911 -0.725443 0
M  V30 5828 C 552.608 -1.28158 -1.47766 0
M  V30 5829 C 552.988 0.104545 -2.10841 0
M  V30 5830 O 552.336 1.11657 -1.99361 0
M  V30 5831 C 552.546 -2.41306 -2.52135 0
M  V30 5832 C 553.894 -2.81076 -3.18247 0
M  V30 5833 O 554.918 -2.40827 -2.62452 0
M  V30 5834 O 553.777 -3.50581 -4.19231 0
M  V30 5835 H 550.871 -0.502761 -0.656628 0
M  V30 5836 H 553.417 -1.51808 -0.758456 0
M  V30 5837 H 552.189 -3.33932 -2.03974 0
M  V30 5838 H 551.812 -2.19374 -3.31603 0
M  V30 5839 N 552.809 0.956637 -1.25245 0
M  V30 5840 C 553.719 2.0868 -1.0719 0
M  V30 5841 C 554.735 1.73997 -0.00959074 0
M  V30 5842 O 555.911 2.00301 -0.210104 0
M  V30 5843 C 552.976 3.39754 -0.690526 0
M  V30 5844 C 552.037 3.88316 -1.83055 0
M  V30 5845 C 551.27 5.13134 -1.46728 0
M  V30 5846 O 551.493 5.6925 -0.362029 0
M  V30 5847 O 550.427 5.56356 -2.29677 0
M  V30 5848 H 554.253 2.26813 -2.01965 0
M  V30 5849 H 551.838 1.07098 -1.04165 0
M  V30 5850 H 553.72 4.18543 -0.489871 0
M  V30 5851 H 552.395 3.22896 0.227981 0
M  V30 5852 H 551.302 3.1054 -2.08604 0
M  V30 5853 H 552.635 4.09669 -2.72822 0
M  V30 5854 N 554.287 1.06798 1.15896 0
M  V30 5855 C 555.217 0.704677 2.22613 0
M  V30 5856 C 556.198 -0.305252 1.67339 0
M  V30 5857 O 557.383 -0.179247 1.93371 0
M  V30 5858 C 554.513 0.0957325 3.47168 0
M  V30 5859 C 553.467 1.0322 4.15367 0
M  V30 5860 C 552.793 0.286293 5.33933 0
M  V30 5861 C 554.093 2.36341 4.65768 0
M  V30 5862 H 555.787 1.59688 2.53259 0
M  V30 5863 H 553.333 0.769257 1.21731 0
M  V30 5864 H 555.286 -0.170333 4.21056 0
M  V30 5865 H 554.01 -0.831516 3.15838 0
M  V30 5866 H 552.669 1.28309 3.43413 0
M  V30 5867 H 552.317 -0.644237 4.98857 0
M  V30 5868 H 552.017 0.910436 5.80504 0
M  V30 5869 H 553.541 0.0278938 6.10594 0
M  V30 5870 H 554.955 2.1561 5.31211 0
M  V30 5871 H 553.352 2.94299 5.2298 0
M  V30 5872 H 554.422 2.99047 3.81705 0
M  V30 5873 N 555.766 -1.3263 0.851289 0
M  V30 5874 C 556.996 -2.01271 0.466222 0
M  V30 5875 C 557.404 -1.64156 -0.940714 0
M  V30 5876 O 556.747 -0.857109 -1.62479 0
M  V30 5877 C 556.809 -3.55695 0.521672 0
M  V30 5878 C 556.473 -4.16227 1.88691 0
M  V30 5879 C 557.47 -4.34699 2.85189 0
M  V30 5880 C 555.155 -4.52377 2.18313 0
M  V30 5881 C 557.149 -4.88484 4.09465 0
M  V30 5882 C 554.836 -5.05868 3.42843 0
M  V30 5883 C 555.834 -5.23869 4.38235 0
M  V30 5884 O 555.522 -5.76218 5.6056 0
M  V30 5885 H 555.254 -0.651034 0.18202 0
M  V30 5886 H 557.808 -1.7026 1.14894 0
M  V30 5887 H 556.038 -3.86086 -0.217888 0
M  V30 5888 H 557.727 -4.05613 0.152682 0
M  V30 5889 H 558.493 -4.07107 2.63607 0
M  V30 5890 H 554.372 -4.37652 1.44851 0
M  V30 5891 H 557.916 -5.02451 4.83931 0
M  V30 5892 H 553.813 -5.32891 3.64277 0
M  V30 5893 H 554.581 -5.94616 5.62471 0
M  V30 5894 N 557.244 -0.608902 -1.45362 0
M  V30 5895 C 558.207 0.0992563 -2.28985 0
M  V30 5896 C 559.207 0.793841 -1.39838 0
M  V30 5897 O 560.397 0.641804 -1.61946 0
M  V30 5898 C 557.529 1.15073 -3.20891 0
M  V30 5899 H 558.722 -0.635964 -2.93079 0
M  V30 5900 H 556.275 -0.368007 -1.51906 0
M  V30 5901 H 557.01 1.91667 -2.616 0
M  V30 5902 H 556.795 0.656867 -3.86559 0
M  V30 5903 H 558.285 1.64665 -3.83765 0
M  V30 5904 N 558.722 1.53707 -0.348139 0
M  V30 5905 C 559.971 2.0017 0.247992 0
M  V30 5906 C 560.284 1.23983 1.51286 0
M  V30 5907 O 561.49 1.60946 2.18652 0
M  V30 5908 C 559.946 3.56515 0.492459 0
M  V30 5909 C 559.554 4.41562 -0.756777 0
M  V30 5910 C 561.298 4.11381 1.0472 0
M  V30 5911 C 559.205 5.89426 -0.482856 0
M  V30 5912 H 558.135 0.747806 0.0964452 0
M  V30 5913 H 560.786 1.77532 -0.464179 0
M  V30 5914 H 559.168 3.75236 1.26545 0
M  V30 5915 H 560.342 4.34615 -1.53122 0
M  V30 5916 H 558.657 3.97711 -1.23348 0
M  V30 5917 H 561.254 5.19468 1.26717 0
M  V30 5918 H 561.597 3.64885 2.00411 0
M  V30 5919 H 562.13 3.96389 0.334801 0
M  V30 5920 H 558.869 6.40164 -1.40962 0
M  V30 5921 H 558.389 5.99264 0.253416 0
M  V30 5922 H 560.068 6.4692 -0.101816 0
M  V30 5923 N 560.2 0.0768682 1.57412 0
M  V30 5924 C 561.147 -0.888577 2.13009 0
M  V30 5925 C 562.117 -1.29198 1.0439 0
M  V30 5926 O 563.302 -1.37694 1.3208 0
M  V30 5927 C 560.442 -2.14899 2.70023 0
M  V30 5928 C 559.555 -1.79777 3.92816 0
M  V30 5929 C 558.69 -3.00467 4.38056 0
M  V30 5930 C 557.729 -2.61385 5.53484 0
M  V30 5931 N 556.866 -3.74851 5.93659 0
M  V30 5932 H 561.706 -0.407593 2.95199 0
M  V30 5933 H 559.243 -0.189534 1.45874 0
M  V30 5934 H 561.201 -2.88688 3.0119 0
M  V30 5935 H 559.831 -2.60529 1.9059 0
M  V30 5936 H 558.883 -0.960301 3.68079 0
M  V30 5937 H 560.195 -1.47027 4.76639 0
M  V30 5938 H 559.349 -3.82529 4.7091 0
M  V30 5939 H 558.088 -3.36413 3.53097 0
M  V30 5940 H 557.093 -1.77746 5.20275 0
M  V30 5941 H 558.318 -2.26603 6.40178 0
M  V30 5942 H 556.264 -4.1055 5.11649 0
M  V30 5943 H 556.181 -3.45887 6.72234 0
M  V30 5944 H 557.449 -4.57477 6.31138 0
M  V30 5945 N 561.678 -1.56367 -0.196722 0
M  V30 5946 C 562.927 -1.79724 -0.915539 0
M  V30 5947 C 563.24 -0.649804 -1.84491 0
M  V30 5948 O 564.446 -0.767631 -2.60422 0
M  V30 5949 C 562.902 -3.18369 -1.67836 0
M  V30 5950 C 562.51 -4.4091 -0.793897 0
M  V30 5951 C 564.254 -3.51037 -2.38691 0
M  V30 5952 C 562.161 -5.70577 -1.55549 0
M  V30 5953 H 561.091 -0.67013 -0.345604 0
M  V30 5954 H 563.742 -1.82721 -0.168856 0
M  V30 5955 H 562.124 -3.09617 -2.46887 0
M  V30 5956 H 563.298 -4.60781 -0.042163 0
M  V30 5957 H 561.613 -4.15937 -0.19626 0
M  V30 5958 H 564.21 -4.4515 -2.96219 0
M  V30 5959 H 564.553 -2.74704 -3.12799 0
M  V30 5960 H 565.086 -3.61229 -1.66608 0
M  V30 5961 H 561.825 -6.49871 -0.857226 0
M  V30 5962 H 561.345 -5.54726 -2.2812 0
M  V30 5963 H 563.024 -6.11637 -2.10971 0
M  V30 5964 N 563.156 0.464375 -1.50603 0
M  V30 5965 C 564.086 1.56944 -1.72889 0
M  V30 5966 C 565.067 1.59979 -0.577997 0
M  V30 5967 O 566.252 1.76138 -0.817855 0
M  V30 5968 C 563.382 2.95225 -1.8292 0
M  V30 5969 C 562.336 3.07056 -2.98162 0
M  V30 5970 C 561.662 4.47051 -2.93343 0
M  V30 5971 C 562.962 2.83648 -4.38567 0
M  V30 5972 H 564.656 1.38547 -2.65415 0
M  V30 5973 H 562.202 0.665082 -1.27721 0
M  V30 5974 H 564.155 3.72467 -1.97095 0
M  V30 5975 H 562.879 3.14793 -0.870209 0
M  V30 5976 H 561.538 2.32248 -2.83648 0
M  V30 5977 H 561.186 4.63547 -1.95276 0
M  V30 5978 H 560.886 4.55902 -3.70712 0
M  V30 5979 H 562.41 5.26304 -3.09575 0
M  V30 5980 H 563.824 3.50636 -4.53572 0
M  V30 5981 H 562.221 3.03937 -5.17438 0
M  V30 5982 H 563.291 1.79451 -4.50472 0
M  V30 5983 N 564.634 1.40294 0.718013 0
M  V30 5984 C 565.581 1.40367 1.8321 0
M  V30 5985 C 566.551 0.260952 1.64037 0
M  V30 5986 O 567.736 0.458648 1.85205 0
M  V30 5987 C 564.876 1.26965 3.20895 0
M  V30 5988 C 563.989 2.50922 3.51656 0
M  V30 5989 C 563.124 2.29981 4.78834 0
M  V30 5990 C 562.163 3.49527 5.02491 0
M  V30 5991 N 561.3 3.27796 6.20882 0
M  V30 5992 H 566.14 2.35593 1.82482 0
M  V30 5993 H 563.677 1.17012 0.891444 0
M  V30 5994 H 565.635 1.17202 4.00399 0
M  V30 5995 H 564.265 0.353591 3.20858 0
M  V30 5996 H 563.317 2.71223 2.66725 0
M  V30 5997 H 564.629 3.39913 3.65048 0
M  V30 5998 H 563.783 2.17558 5.66351 0
M  V30 5999 H 562.522 1.38411 4.67647 0
M  V30 6000 H 561.527 3.6243 4.1343 0
M  V30 6001 H 562.752 4.42021 5.15553 0
M  V30 6002 H 560.698 2.38906 6.1095 0
M  V30 6003 H 560.615 4.10351 6.34939 0
M  V30 6004 H 561.883 3.19101 7.11193 0
M  V30 6005 N 566.112 -0.949982 1.2575 0
M  V30 6006 C 567.059 -2.04738 1.06541 0
M  V30 6007 C 568.029 -1.66078 -0.0268818 0
M  V30 6008 O 569.214 -1.90348 0.131196 0
M  V30 6009 C 566.354 -3.38027 0.695127 0
M  V30 6010 C 565.467 -3.89776 1.86276 0
M  V30 6011 C 564.602 -5.11411 1.4364 0
M  V30 6012 C 563.641 -5.554 2.57287 0
M  V30 6013 N 562.778 -6.68244 2.15395 0
M  V30 6014 H 567.618 -2.20502 2.00457 0
M  V30 6015 H 565.155 -1.0805 0.998178 0
M  V30 6016 H 567.113 -4.14641 0.461375 0
M  V30 6017 H 565.743 -3.22135 -0.207046 0
M  V30 6018 H 564.795 -3.0964 2.20969 0
M  V30 6019 H 566.107 -4.18368 2.71606 0
M  V30 6020 H 565.261 -5.95457 1.16257 0
M  V30 6021 H 564 -4.84545 0.553879 0
M  V30 6022 H 563.005 -4.69916 2.85409 0
M  V30 6023 H 564.23 -5.84272 3.46125 0
M  V30 6024 H 562.176 -6.43078 1.29565 0
M  V30 6025 H 562.093 -6.96377 2.94272 0
M  V30 6026 H 563.361 -7.55687 1.91201 0
M  V30 6027 N 567.59 -1.07411 -1.15328 0
M  V30 6028 C 568.867 -0.710732 -1.82231 0
M  V30 6029 C 569.247 0.806732 -1.95077 0
M  V30 6030 O 568.595 1.72139 -1.50268 0
M  V30 6031 C 568.805 -1.42586 -3.18544 0
M  V30 6032 C 570.153 -1.57836 -3.94174 0
M  V30 6033 O 571.177 -1.38669 -3.281 0
M  V30 6034 O 570.036 -1.8938 -5.12638 0
M  V30 6035 H 567.13 -0.25297 -0.78736 0
M  V30 6036 H 569.676 -1.17508 -1.22434 0
M  V30 6037 H 568.448 -2.46008 -3.04296 0
M  V30 6038 H 568.071 -0.952332 -3.86026 0
M  V30 6039 N 569.068 1.32177 -0.85831 0
M  V30 6040 C 570.314 1.97417 -0.46417 0
M  V30 6041 C 570.647 1.67746 0.978514 0
M  V30 6042 O 569.922 0.967654 1.68721 0
M  V30 6043 C 570.205 3.53069 -0.708094 0
M  V30 6044 C 570.058 3.92357 -2.19946 0
M  V30 6045 C 571.377 4.39783 -0.166881 0
M  V30 6046 H 568.496 0.717097 -0.17012 0
M  V30 6047 H 571.138 1.56499 -1.07741 0
M  V30 6048 H 569.288 3.88054 -0.186128 0
M  V30 6049 H 570.96 3.67533 -2.78779 0
M  V30 6050 H 569.203 3.41384 -2.67656 0
M  V30 6051 H 569.874 5.00841 -2.32082 0
M  V30 6052 H 572.35 4.11556 -0.613285 0
M  V30 6053 H 571.226 5.47671 -0.367093 0
M  V30 6054 H 571.487 4.32196 0.930559 0
M  V30 6055 N 570.547 0.616602 1.45037 0
M  V30 6056 C 571.796 0.112861 2.01384 0
M  V30 6057 C 572.109 -1.26758 1.48969 0
M  V30 6058 O 573.315 -1.86454 1.9735 0
M  V30 6059 C 571.771 0.151057 3.59583 0
M  V30 6060 C 571.379 1.53191 4.20995 0
M  V30 6061 C 573.123 -0.296974 4.2346 0
M  V30 6062 C 571.03 1.526 5.71373 0
M  V30 6063 H 569.96 0.0384254 0.75302 0
M  V30 6064 H 572.611 0.773262 1.66412 0
M  V30 6065 H 570.993 -0.57617 3.91786 0
M  V30 6066 H 572.167 2.28156 4.00352 0
M  V30 6067 H 570.482 1.92279 3.69348 0
M  V30 6068 H 573.079 -0.320712 5.33737 0
M  V30 6069 H 573.422 -1.32145 3.9477 0
M  V30 6070 H 573.955 0.377279 3.96007 0
M  V30 6071 H 570.694 2.52837 6.04776 0
M  V30 6072 H 570.214 0.819064 5.94181 0
M  V30 6073 H 571.893 1.25357 6.3474 0
M  V30 6074 N 572.025 -1.5352 0.356285 0
M  V30 6075 C 573.271 -2.01414 -0.236653 0
M  V30 6076 C 573.604 -1.24339 -1.49176 0
M  V30 6077 O 572.879 -0.334496 -1.91602 0
M  V30 6078 C 573.162 -3.56059 -0.537982 0
M  V30 6079 C 573.015 -4.43835 0.730112 0
M  V30 6080 C 574.334 -4.19127 -1.34239 0
M  V30 6081 H 571.453 -0.732135 -0.0845386 0
M  V30 6082 H 574.095 -1.83854 0.479341 0
M  V30 6083 H 572.245 -3.71153 -1.14795 0
M  V30 6084 H 573.917 -4.40555 1.36782 0
M  V30 6085 H 572.16 -4.1218 1.3524 0
M  V30 6086 H 572.831 -5.49958 0.474358 0
M  V30 6087 H 575.307 -4.07809 -0.826498 0
M  V30 6088 H 574.183 -5.27378 -1.52198 0
M  V30 6089 H 574.444 -3.74581 -2.34822 0
M  V30 6090 N 573.503 -0.0852151 -1.57369 0
M  V30 6091 C 574.435 0.907099 -2.10486 0
M  V30 6092 C 575.448 1.25259 -1.03991 0
M  V30 6093 O 576.637 1.20743 -1.31467 0
M  V30 6094 C 573.737 2.21908 -2.56145 0
M  V30 6095 C 572.91 2.05042 -3.86363 0
M  V30 6096 C 571.969 3.19664 -4.17973 0
M  V30 6097 O 570.995 2.94062 -4.87356 0
M  V30 6098 N 572.197 4.45151 -3.72587 0
M  V30 6099 H 574.962 0.453505 -2.96249 0
M  V30 6100 H 572.523 0.100157 -1.6159 0
M  V30 6101 H 574.515 2.97519 -2.74343 0
M  V30 6102 H 573.085 2.58723 -1.75446 0
M  V30 6103 H 572.305 1.13819 -3.77411 0
M  V30 6104 H 573.593 1.91039 -4.71574 0
M  V30 6105 H 572.991 4.68834 -3.16561 0
M  V30 6106 H 571.548 5.17744 -3.9596 0
M  V30 6107 N 574.981 1.5647 0.188427 0
M  V30 6108 C 576.258 1.71857 0.934058 0
M  V30 6109 C 576.638 0.641867 2.01105 0
M  V30 6110 O 575.986 -0.346098 2.25864 0
M  V30 6111 C 576.196 3.14431 1.5144 0
M  V30 6112 C 577.544 3.74869 1.99396 0
M  V30 6113 O 578.568 3.17601 1.61269 0
M  V30 6114 O 577.427 4.75387 2.69573 0
M  V30 6115 H 574.521 0.701186 0.438483 0
M  V30 6116 H 577.067 1.68768 0.177599 0
M  V30 6117 H 575.839 3.8427 0.738416 0
M  V30 6118 H 575.462 3.21775 2.33552 0
M  V30 6119 N 576.459 -0.456382 1.50847 0
M  V30 6120 C 577.736 -1.21739 1.53098 0
M  V30 6121 C 578.116 -2.09179 0.284132 0
M  V30 6122 O 577.464 -2.16466 -0.731773 0
M  V30 6123 C 577.674 -2.03573 2.83477 0
M  V30 6124 C 579.022 -2.61264 3.34703 0
M  V30 6125 O 580.046 -2.13802 2.84898 0
M  V30 6126 O 578.905 -3.47779 4.21559 0
M  V30 6127 H 575.999 -0.553219 0.614718 0
M  V30 6128 H 578.545 -0.467003 1.63148 0
M  V30 6129 H 577.317 -1.39232 3.65691 0
M  V30 6130 H 576.94 -2.85716 2.76499 0
M  V30 6131 N 577.937 -1.40673 -0.710563 0
M  V30 6132 C 579.214 -1.29718 -1.46398 0
M  V30 6133 C 579.594 0.082177 -2.1094 0
M  V30 6134 O 578.942 1.09536 -2.00534 0
M  V30 6135 C 579.152 -2.43967 -2.49562 0
M  V30 6136 C 580.5 -2.84436 -3.15248 0
M  V30 6137 O 581.524 -2.43597 -2.59883 0
M  V30 6138 O 580.383 -3.55008 -4.1549 0
M  V30 6139 H 577.477 -0.509697 -0.651258 0
M  V30 6140 H 580.023 -1.52603 -0.742312 0
M  V30 6141 H 578.795 -3.36076 -2.0042 0
M  V30 6142 H 578.418 -2.22879 -3.29258 0
M  V30 6143 N 579.415 0.9433 -1.26252 0
M  V30 6144 C 580.661 1.69175 -1.11837 0
M  V30 6145 C 580.994 1.91238 0.337891 0
M  V30 6146 O 580.269 1.49152 1.24836 0
M  V30 6147 C 580.552 3.06783 -1.88563 0
M  V30 6148 C 580.405 2.9206 -3.42083 0
M  V30 6149 C 581.724 4.06865 -1.67776 0
M  V30 6150 H 578.843 0.61399 -0.407658 0
M  V30 6151 H 581.485 1.09572 -1.55222 0
M  V30 6152 H 579.635 3.57663 -1.51689 0
M  V30 6153 H 581.307 2.48419 -3.88698 0
M  V30 6154 H 579.55 2.27731 -3.69217 0
M  V30 6155 H 580.221 3.89651 -3.90994 0
M  V30 6156 H 582.697 3.64939 -1.99897 0
M  V30 6157 H 581.573 5.01168 -2.23879 0
M  V30 6158 H 581.834 4.37705 -0.621816 0
M  V30 6159 N 580.893 1.08022 1.14757 0
M  V30 6160 C 582.17 0.720386 1.81851 0
M  V30 6161 C 582.55 -0.796375 1.95502 0
M  V30 6162 O 581.898 -1.71339 1.51179 0
M  V30 6163 C 582.108 1.44273 3.17783 0
M  V30 6164 C 583.456 1.59925 3.93331 0
M  V30 6165 O 584.48 1.40407 3.2736 0
M  V30 6166 O 583.339 1.92096 5.11626 0
M  V30 6167 H 580.433 0.257142 0.786007 0
M  V30 6168 H 582.979 1.18155 1.21809 0
M  V30 6169 H 581.751 2.47618 3.02987 0
M  V30 6170 H 581.374 0.97279 3.85516 0
M  V30 6171 N 582.371 -1.3172 0.865308 0
M  V30 6172 C 583.611 -1.98675 0.480365 0
M  V30 6173 C 583.975 -1.66929 -0.948621 0
M  V30 6174 O 585.176 -2.27059 -1.43867 0
M  V30 6175 C 583.447 -3.49972 0.724858 0
M  V30 6176 S 585.006 -4.36598 0.439078 0
M  V30 6177 H 581.824 -0.687967 0.179506 0
M  V30 6178 H 584.426 -1.60215 1.12033 0
M  V30 6179 H 583.13 -3.70567 1.76375 0
M  V30 6180 H 582.661 -3.93335 0.0717173 0
M  V30 6181 H 584.676 -4.90792 -0.730564 0
M  V30 6182 N 583.85 -0.624285 -1.44708 0
M  V30 6183 C 585.077 -0.132919 -2.06473 0
M  V30 6184 C 585.493 1.18967 -1.46602 0
M  V30 6185 O 584.85 1.72824 -0.586341 0
M  V30 6186 C 584.901 -0.00465418 -3.615 0
M  V30 6187 O 584.622 -1.27494 -4.19138 0
M  V30 6188 C 586.123 0.516213 -4.40284 0
M  V30 6189 H 583.343 -0.0765201 -0.666623 0
M  V30 6190 H 585.887 -0.856751 -1.85688 0
M  V30 6191 H 584.042 0.669583 -3.8157 0
M  V30 6192 H 584.456 -1.11536 -5.12504 0
M  V30 6193 H 585.93 0.554994 -5.49203 0
M  V30 6194 H 586.407 1.5419 -4.11245 0
M  V30 6195 H 587.013 -0.124542 -4.25118 0
M  V30 6196 N 585.328 1.53329 -0.364422 0
M  V30 6197 C 586.258 2.28627 0.474543 0
M  V30 6198 C 587.239 1.31009 1.08492 0
M  V30 6199 O 588.424 1.59878 1.10239 0
M  V30 6200 C 585.554 3.07465 1.61501 0
M  V30 6201 C 584.508 4.1276 1.13194 0
M  V30 6202 C 583.834 4.79674 2.36255 0
M  V30 6203 C 585.134 5.21847 0.217507 0
M  V30 6204 H 586.828 2.99005 -0.153656 0
M  V30 6205 H 584.374 1.43803 -0.0753406 0
M  V30 6206 H 586.327 3.58889 2.20855 0
M  V30 6207 H 585.051 2.34775 2.27042 0
M  V30 6208 H 583.71 3.62281 0.56109 0
M  V30 6209 H 583.358 4.03557 3.00251 0
M  V30 6210 H 583.058 5.50827 2.04606 0
M  V30 6211 H 584.582 5.33892 2.96297 0
M  V30 6212 H 585.996 5.6878 0.718493 0
M  V30 6213 H 584.393 6.00099 -0.00806408 0
M  V30 6214 H 585.463 4.7921 -0.740653 0
M  V30 6215 N 586.806 0.0935595 1.57322 0
M  V30 6216 C 588.052 -0.571355 1.94585 0
M  V30 6217 C 588.385 -1.67929 0.975366 0
M  V30 6218 O 587.66 -1.94498 0.00816206 0
M  V30 6219 C 587.943 -1.12797 3.41978 0
M  V30 6220 C 587.796 -0.0251881 4.49793 0
M  V30 6221 C 589.115 -2.02682 3.90651 0
M  V30 6222 H 586.234 -0.206223 0.70756 0
M  V30 6223 H 588.876 0.163956 1.89291 0
M  V30 6224 H 587.026 -1.75461 3.4662 0
M  V30 6225 H 588.698 0.608979 4.57263 0
M  V30 6226 H 586.941 0.641399 4.29032 0
M  V30 6227 H 587.612 -0.455433 5.50118 0
M  V30 6228 H 590.088 -1.49925 3.88152 0
M  V30 6229 H 588.964 -2.38555 4.94351 0
M  V30 6230 H 589.225 -2.94362 3.29854 0
M  V30 6231 N 588.284 -1.56567 -0.180126 0
M  V30 6232 C 589.194 -1.98947 -1.24327 0
M  V30 6233 C 590.21 -0.899446 -1.4895 0
M  V30 6234 O 591.386 -1.20639 -1.61271 0
M  V30 6235 C 588.451 -2.33328 -2.56435 0
M  V30 6236 C 587.512 -3.56114 -2.39752 0
M  V30 6237 C 586.745 -3.88845 -3.65561 0
M  V30 6238 O 586.968 -3.22662 -4.70368 0
M  V30 6239 O 585.902 -4.82226 -3.60197 0
M  V30 6240 H 589.728 -2.89634 -0.913565 0
M  V30 6241 H 587.313 -1.44319 -0.386306 0
M  V30 6242 H 589.195 -2.5645 -3.34382 0
M  V30 6243 H 587.87 -1.45806 -2.89002 0
M  V30 6244 H 586.777 -3.38221 -1.59866 0
M  V30 6245 H 588.11 -4.4415 -2.12113 0
M  V30 6246 N 589.762 0.448376 -1.51087 0
M  V30 6247 C 590.709 1.54341 -1.71603 0
M  V30 6248 C 591.679 1.56463 -0.557536 0
M  V30 6249 O 592.864 1.73644 -0.79072 0
M  V30 6250 C 590.004 2.92148 -1.83695 0
M  V30 6251 C 589.117 2.99639 -3.11192 0
M  V30 6252 C 588.252 4.285 -3.13944 0
M  V30 6253 C 587.291 4.29819 -4.35801 0
M  V30 6254 N 586.428 5.50186 -4.36164 0
M  V30 6255 H 591.268 1.36151 -2.65079 0
M  V30 6256 H 588.805 0.661585 -1.31383 0
M  V30 6257 H 590.763 3.72093 -1.88687 0
M  V30 6258 H 589.393 3.0892 -0.936374 0
M  V30 6259 H 588.445 2.12425 -3.15562 0
M  V30 6260 H 589.757 2.96474 -4.01129 0
M  V30 6261 H 588.911 5.16811 -3.17791 0
M  V30 6262 H 587.65 4.34307 -2.21876 0
M  V30 6263 H 586.655 3.39902 -4.32142 0
M  V30 6264 H 587.88 4.25685 -5.29121 0
M  V30 6265 H 585.826 5.56735 -3.46961 0
M  V30 6266 H 585.743 5.48856 -5.19897 0
M  V30 6267 H 587.011 6.40559 -4.44189 0
M  V30 6268 N 591.24 1.41047 0.703093 0
M  V30 6269 C 592.656 1.23351 1.01275 0
M  V30 6270 C 592.856 0.11754 2.01157 0
M  V30 6271 O 591.912 -0.520518 2.47077 0
M  V30 6272 C 593.225 2.58001 1.54454 0
M  V30 6273 C 594.773 2.65119 1.66376 0
M  V30 6274 C 595.248 4.00067 2.22958 0
M  V30 6275 N 596.739 4.01875 2.30328 0
M  V30 6276 C 597.474 5.03087 2.75119 0
M  V30 6277 N 596.97 6.14692 3.19571 0
M  V30 6278 N 598.763 4.90451 2.74616 0
M  V30 6279 H 590.914 2.1236 0.0412686 0
M  V30 6280 H 593.177 0.944543 0.08089 0
M  V30 6281 H 592.883 3.40378 0.88521 0
M  V30 6282 H 592.757 2.79962 2.52786 0
M  V30 6283 H 595.144 1.83106 2.31422 0
M  V30 6284 H 595.225 2.46975 0.666089 0
M  V30 6285 H 594.869 4.82526 1.58529 0
M  V30 6286 H 594.799 4.15547 3.23462 0
M  V30 6287 H 597.29 3.21291 1.98949 0
M  V30 6288 H 597.603 6.87799 3.52352 0
M  V30 6289 H 595.948 6.18239 3.17498 0
M  V30 6290 H 599.139 4.0235 2.39233 0
M  V30 6291 H 599.312 5.6947 3.09206 0
M  V30 6292 N 592.718 -0.936591 1.26751 0
M  V30 6293 C 593.964 -1.6858 1.12733 0
M  V30 6294 C 594.297 -1.91414 -0.327745 0
M  V30 6295 O 593.572 -1.49812 -1.24043 0
M  V30 6296 C 593.855 -3.05779 1.90187 0
M  V30 6297 C 593.708 -2.90242 3.43627 0
M  V30 6298 C 595.027 -4.0597 1.69931 0
M  V30 6299 H 592.146 -0.61182 0.410908 0
M  V30 6300 H 594.788 -1.08747 1.55801 0
M  V30 6301 H 592.938 -3.56853 1.53584 0
M  V30 6302 H 594.61 -2.46354 3.9001 0
M  V30 6303 H 592.853 -2.2577 3.70419 0
M  V30 6304 H 593.524 -3.87572 3.93055 0
M  V30 6305 H 596 -3.63874 2.0183 0
M  V30 6306 H 594.876 -4.99974 2.26534 0
M  V30 6307 H 595.137 -4.37369 0.64502 0
M  V30 6308 N 594.196 -1.08629 -1.14182 0
M  V30 6309 C 595.126 -0.740003 -2.21464 0
M  V30 6310 C 596.107 0.278591 -1.67803 0
M  V30 6311 O 597.292 0.148461 -1.93632 0
M  V30 6312 C 594.422 -0.150952 -3.46972 0
M  V30 6313 C 593.376 -1.09815 -4.13672 0
M  V30 6314 C 592.702 -0.3712 -5.3341 0
M  V30 6315 C 594.002 -2.43722 -4.61949 0
M  V30 6316 H 595.696 -1.63697 -2.50686 0
M  V30 6317 H 593.242 -0.788526 -1.20492 0
M  V30 6318 H 595.195 0.103325 -4.21273 0
M  V30 6319 H 593.919 0.781164 -3.1712 0
M  V30 6320 H 592.578 -1.33756 -3.41328 0
M  V30 6321 H 592.226 0.564792 -4.99819 0
M  V30 6322 H 591.926 -1.00267 -5.78982 0
M  V30 6323 H 593.45 -0.12503 -6.10472 0
M  V30 6324 H 594.864 -2.24034 -5.27714 0
M  V30 6325 H 593.261 -3.02582 -5.18232 0
M  V30 6326 H 594.331 -3.05082 -3.76899 0
M  V30 6327 N 595.674 1.31259 -0.872281 0
M  V30 6328 C 596.637 2.26744 -0.334656 0
M  V30 6329 C 597.637 1.52307 0.515681 0
M  V30 6330 O 598.827 1.71148 0.324656 0
M  V30 6331 C 595.959 3.36841 0.524482 0
M  V30 6332 H 597.152 2.75812 -1.17762 0
M  V30 6333 H 594.705 1.42232 -0.648064 0
M  V30 6334 H 595.44 2.93069 1.38855 0
M  V30 6335 H 595.225 3.92009 -0.0844299 0
M  V30 6336 H 596.715 4.07944 0.892838 0
M  V30 6337 N 597.152 0.631951 1.44375 0
M  V30 6338 C 598.082 -0.0593243 2.33425 0
M  V30 6339 C 599.063 -0.833964 1.48253 0
M  V30 6340 O 600.248 -0.799682 1.76971 0
M  V30 6341 C 597.378 -1.04096 3.31333 0
M  V30 6342 C 596.332 -0.377899 4.26328 0
M  V30 6343 C 595.658 -1.4695 5.14111 0
M  V30 6344 C 596.958 0.716371 5.17364 0
M  V30 6345 H 598.652 0.684287 2.91475 0
M  V30 6346 H 596.198 0.330518 1.40156 0
M  V30 6347 H 598.151 -1.53331 3.92514 0
M  V30 6348 H 596.875 -1.81547 2.71493 0
M  V30 6349 H 595.534 0.0938054 3.6648 0
M  V30 6350 H 595.182 -2.2349 4.50623 0
M  V30 6351 H 594.882 -1.03121 5.78481 0
M  V30 6352 H 596.406 -1.96363 5.78164 0
M  V30 6353 H 597.82 0.307089 5.72477 0
M  V30 6354 H 596.217 1.07784 5.90341 0
M  V30 6355 H 597.287 1.58316 4.58327 0
M  V30 6356 N 598.631 -1.53133 0.372548 0
M  V30 6357 C 599.879 -2.00958 -0.214534 0
M  V30 6358 C 600.2 -1.26135 -1.48711 0
M  V30 6359 O 599.47 -0.376597 -1.92246 0
M  V30 6360 H 598.05 -0.742456 -0.0822664 0
M  V30 6361 H 600.712 -1.88367 0.500385 0
M  V30 6362 H 599.808 -3.09031 -0.436605 0
M  V30 6363 N 600.109 -0.101901 -1.5727 0
M  V30 6364 C 601.357 0.559091 -1.94213 0
M  V30 6365 C 601.678 1.68297 -0.984948 0
M  V30 6366 O 600.948 1.95863 -0.0381975 0
M  V30 6367 H 599.528 0.20952 -0.717015 0
M  V30 6368 H 602.19 -0.166831 -1.94185 0
M  V30 6369 H 601.286 0.96485 -2.96811 0
M  V30 6370 N 601.587 1.56661 0.17182 0
M  V30 6371 C 603.003 1.50768 0.52357 0
M  V30 6372 C 603.203 0.806072 1.84675 0
M  V30 6373 O 602.259 0.366233 2.4983 0
M  V30 6374 C 603.572 2.955 0.556793 0
M  V30 6375 C 605.12 3.06303 0.644029 0
M  V30 6376 C 605.595 4.52492 0.708148 0
M  V30 6377 N 607.086 4.56737 0.771051 0
M  V30 6378 C 607.821 5.67196 0.841229 0
M  V30 6379 N 607.317 6.87287 0.872272 0
M  V30 6380 N 609.11 5.55165 0.88021 0
M  V30 6381 H 601.261 2.00679 -0.695817 0
M  V30 6382 H 603.524 0.914219 -0.250814 0
M  V30 6383 H 603.23 3.49986 -0.346774 0
M  V30 6384 H 603.104 3.50119 1.40346 0
M  V30 6385 H 605.491 2.51851 1.53802 0
M  V30 6386 H 605.572 2.5477 -0.229297 0
M  V30 6387 H 605.216 5.07575 -0.181585 0
M  V30 6388 H 605.146 5.01781 1.59761 0
M  V30 6389 H 607.637 3.70274 0.755364 0
M  V30 6390 H 607.95 7.6722 0.92698 0
M  V30 6391 H 606.295 6.89898 0.840557 0
M  V30 6392 H 609.486 4.60263 0.852956 0
M  V30 6393 H 609.659 6.41271 0.931439 0
M  V30 6394 N 603.065 -0.440357 1.51323 0
M  V30 6395 C 604.313 -1.18769 1.63518 0
M  V30 6396 C 604.634 -1.91793 0.352201 0
M  V30 6397 O 603.904 -1.85432 -0.631811 0
M  V30 6398 H 602.484 -0.441408 0.602634 0
M  V30 6399 H 605.146 -0.505162 1.8824 0
M  V30 6400 H 604.242 -1.91892 2.46138 0
M  V30 6401 N 604.543 -1.41418 -0.695603 0
M  V30 6402 C 605.954 -1.36335 -1.27552 0
M  V30 6403 C 606.305 -0.0464336 -1.96145 0
M  V30 6404 O 605.43 0.855304 -1.9878 0
M  V30 6405 C 606.025 -2.46941 -2.3196 0
M  V30 6406 C 604.584 -2.45256 -2.85529 0
M  V30 6407 C 603.731 -2.2679 -1.59566 0
M  V30 6408 H 606.682 -1.50934 -0.490362 0
M  V30 6409 H 606.703 -2.15997 -3.1325 0
M  V30 6410 H 606.215 -3.42775 -1.82008 0
M  V30 6411 H 604.316 -1.53179 -3.39657 0
M  V30 6412 H 604.429 -3.41565 -3.35961 0
M  V30 6413 H 602.793 -1.74667 -1.85374 0
M  V30 6414 H 603.576 -3.24651 -1.1161 0
M  V30 6415 N 606.021 0.929856 -1.27246 0
M  V30 6416 C 607.269 1.674 -1.13233 0
M  V30 6417 C 607.59 1.92311 0.322744 0
M  V30 6418 O 606.86 1.52784 1.22612 0
M  V30 6419 H 605.44 0.620411 -0.416052 0
M  V30 6420 H 608.102 1.11663 -1.59741 0
M  V30 6421 H 607.198 2.64308 -1.65975 0
M  V30 6422 N 607.499 1.09233 1.13605 0
M  V30 6423 C 608.747 0.825525 1.84471 0
M  V30 6424 C 609.068 -0.650702 1.83823 0
M  V30 6425 O 608.338 -1.47204 1.29259 0
M  V30 6426 H 606.918 0.3024 0.683054 0
M  V30 6427 H 609.58 1.38006 1.37624 0
M  V30 6428 H 608.676 1.17727 2.89045 0
M  V30 6429 N 608.977 -1.30795 0.87923 0
M  V30 6430 C 610.393 -1.48981 0.57243 0
M  V30 6431 C 610.593 -1.80719 -0.891236 0
M  V30 6432 O 609.649 -1.89136 -1.67283 0
M  V30 6433 C 610.962 -2.61721 1.48063 0
M  V30 6434 C 612.51 -2.75603 1.48365 0
M  V30 6435 C 612.985 -3.91449 2.37763 0
M  V30 6436 N 614.476 -3.98751 2.35695 0
M  V30 6437 C 615.211 -4.87684 3.01583 0
M  V30 6438 N 614.707 -5.81454 3.76674 0
M  V30 6439 N 616.5 -4.81005 2.90844 0
M  V30 6440 H 608.651 -1.08465 1.82617 0
M  V30 6441 H 610.914 -0.536813 0.781368 0
M  V30 6442 H 610.62 -2.45073 2.52254 0
M  V30 6443 H 610.494 -3.58071 1.18596 0
M  V30 6444 H 612.881 -2.9166 0.44927 0
M  V30 6445 H 612.962 -1.79891 1.81859 0
M  V30 6446 H 612.606 -3.76149 3.41283 0
M  V30 6447 H 612.536 -4.86487 2.01589 0
M  V30 6448 H 615.027 -3.31668 1.81121 0
M  V30 6449 H 615.34 -6.46063 4.24054 0
M  V30 6450 H 613.685 -5.81403 3.80782 0
M  V30 6451 H 616.876 -4.06728 2.31711 0
M  V30 6452 H 617.049 -5.50107 3.42471 0
M  V30 6453 N 610.455 -0.639598 -1.44038 0
M  V30 6454 C 611.866 -0.228866 -1.85292 0
M  V30 6455 C 612.217 1.22161 -1.53529 0
M  V30 6456 O 611.342 1.93064 -0.977518 0
M  V30 6457 C 611.937 -0.408592 -3.36327 0
M  V30 6458 C 610.496 -0.0522953 -3.76364 0
M  V30 6459 C 609.643 -0.717959 -2.67844 0
M  V30 6460 H 612.594 -0.844194 -1.34384 0
M  V30 6461 H 612.615 0.349968 -3.78887 0
M  V30 6462 H 612.127 -1.46435 -3.59414 0
M  V30 6463 H 610.228 1.0014 -3.58891 0
M  V30 6464 H 610.341 -0.468261 -4.76806 0
M  V30 6465 H 608.705 -0.152459 -2.54243 0
M  V30 6466 H 609.488 -1.77648 -2.93762 0
M  V30 6467 N 611.933 1.52934 -0.380664 0
M  V30 6468 C 612.883 2.22989 0.475399 0
M  V30 6469 C 613.867 1.23058 1.03661 0
M  V30 6470 O 615.059 1.48436 0.964146 0
M  V30 6471 C 612.188 3.0338 1.60671 0
M  V30 6472 C 611.274 4.107 1.05766 0
M  V30 6473 N 611.665 5.05264 0.232837 0
M  V30 6474 C 609.963 4.25676 1.33101 0
M  V30 6475 C 610.664 5.81658 -0.0695134 0
M  V30 6476 N 609.64 5.40989 0.532144 0
M  V30 6477 H 613.442 2.93456 -0.161418 0
M  V30 6478 H 610.956 1.61291 -0.189495 0
M  V30 6479 H 612.953 3.52098 2.23232 0
M  V30 6480 H 611.613 2.34446 2.24644 0
M  V30 6481 H 612.624 5.17739 -0.129204 0
M  V30 6482 H 609.301 3.6797 1.97241 0
M  V30 6483 H 610.691 6.67843 -0.737269 0
M  V30 6484 N 613.412 0.11024 1.57214 0
M  V30 6485 C 614.659 -0.54987 1.94891 0
M  V30 6486 C 614.987 -1.67243 0.992984 0
M  V30 6487 O 614.242 -1.95694 0.0152703 0
M  V30 6488 C 614.541 -1.13102 3.39032 0
M  V30 6489 C 614.207 -0.130713 4.5071 0
M  V30 6490 C 612.869 0.14437 4.80983 0
M  V30 6491 C 615.221 0.551472 5.18274 0
M  V30 6492 C 612.549 1.10807 5.76141 0
M  V30 6493 C 614.901 1.50375 6.14467 0
M  V30 6494 C 613.565 1.78691 6.43138 0
M  V30 6495 H 612.835 -0.201212 0.713158 0
M  V30 6496 H 615.482 0.189288 1.90562 0
M  V30 6497 H 613.787 -1.94675 3.40013 0
M  V30 6498 H 615.484 -1.64973 3.65493 0
M  V30 6499 H 612.074 -0.355301 4.27125 0
M  V30 6500 H 616.258 0.35211 4.95049 0
M  V30 6501 H 611.514 1.3343 5.96663 0
M  V30 6502 H 615.688 2.03808 6.65909 0
M  V30 6503 H 613.315 2.53522 7.1668 0
M  V30 6504 N 614.89 -1.56749 -0.16351 0
M  V30 6505 C 615.82 -2.00042 -1.20438 0
M  V30 6506 C 616.801 -0.877256 -1.45733 0
M  V30 6507 O 617.986 -1.1439 -1.56935 0
M  V30 6508 C 615.116 -2.36697 -2.54149 0
M  V30 6509 C 614.07 -3.52046 -2.43408 0
M  V30 6510 C 613.396 -3.74466 -3.81679 0
M  V30 6511 C 614.696 -4.85247 -1.93216 0
M  V30 6512 H 616.39 -2.87244 -0.844477 0
M  V30 6513 H 613.936 -1.38194 -0.40478 0
M  V30 6514 H 615.889 -2.65582 -3.27176 0
M  V30 6515 H 614.613 -1.46414 -2.91943 0
M  V30 6516 H 613.272 -3.23301 -1.72834 0
M  V30 6517 H 612.92 -2.81461 -4.1688 0
M  V30 6518 H 612.62 -4.52084 -3.75359 0
M  V30 6519 H 614.144 -4.0576 -4.5628 0
M  V30 6520 H 615.558 -5.12957 -2.56023 0
M  V30 6521 H 613.955 -5.66556 -1.97825 0
M  V30 6522 H 615.025 -4.7672 -0.88689 0
M  V30 6523 N 616.368 0.432326 -1.51554 0
M  V30 6524 C 617.596 1.20364 -1.68286 0
M  V30 6525 C 618.011 1.84888 -0.38233 0
M  V30 6526 O 617.368 1.70924 0.639627 0
M  V30 6527 C 617.419 2.28398 -2.80208 0
M  V30 6528 O 617.14 1.66512 -4.05223 0
M  V30 6529 C 618.641 3.18584 -3.08251 0
M  V30 6530 H 615.861 0.36259 -0.564596 0
M  V30 6531 H 618.405 0.511647 -1.97996 0
M  V30 6532 H 616.56 2.93305 -2.53083 0
M  V30 6533 H 616.974 2.37951 -4.67418 0
M  V30 6534 H 618.448 3.90511 -3.90135 0
M  V30 6535 H 618.925 3.79628 -2.2086 0
M  V30 6536 H 619.531 2.59372 -3.37055 0
M  V30 6537 N 617.846 1.41785 0.688094 0
M  V30 6538 C 618.778 1.40159 1.81351 0
M  V30 6539 C 619.791 0.30262 1.59963 0
M  V30 6540 O 620.98 0.564841 1.69327 0
M  V30 6541 C 618.08 1.16517 3.1824 0
M  V30 6542 C 617.253 2.38597 3.66593 0
M  V30 6543 C 616.312 2.10699 4.82174 0
M  V30 6544 O 615.338 2.83798 4.93404 0
M  V30 6545 N 616.54 1.10187 5.69947 0
M  V30 6546 H 619.305 2.3716 1.83236 0
M  V30 6547 H 616.866 1.36494 0.870697 0
M  V30 6548 H 618.858 0.957941 3.93199 0
M  V30 6549 H 617.428 0.280873 3.11336 0
M  V30 6550 H 616.648 2.74974 2.82459 0
M  V30 6551 H 617.936 3.19919 3.95638 0
M  V30 6552 H 617.334 0.497016 5.63512 0
M  V30 6553 H 615.891 0.954518 6.44773 0
M  V30 6554 N 619.324 -0.923095 1.27737 0
M  V30 6555 C 620.254 -2.04124 1.13383 0
M  V30 6556 C 621.235 -1.70066 0.0340658 0
M  V30 6557 O 622.42 -1.93068 0.209383 0
M  V30 6558 C 619.55 -3.3831 0.785097 0
M  V30 6559 C 618.504 -3.86496 1.8386 0
M  V30 6560 C 617.83 -5.1754 1.34373 0
M  V30 6561 C 619.13 -4.09381 3.24353 0
M  V30 6562 H 620.824 -2.1639 2.06919 0
M  V30 6563 H 618.37 -1.03976 0.996243 0
M  V30 6564 H 620.323 -4.16016 0.671485 0
M  V30 6565 H 619.047 -3.2607 -0.185969 0
M  V30 6566 H 617.706 -3.10987 1.9412 0
M  V30 6567 H 617.354 -5.01696 0.361989 0
M  V30 6568 H 617.054 -5.50751 2.04811 0
M  V30 6569 H 618.578 -5.97811 1.24315 0
M  V30 6570 H 619.992 -4.77641 3.17067 0
M  V30 6571 H 618.389 -4.53906 3.92542 0
M  V30 6572 H 619.459 -3.14515 3.69064 0
M  V30 6573 N 620.802 -1.09834 -1.13024 0
M  V30 6574 C 621.752 -0.710899 -2.16634 0
M  V30 6575 C 622.736 0.276836 -1.58501 0
M  V30 6576 O 623.928 0.0865457 -1.76788 0
M  V30 6577 C 621.057 -0.137574 -3.43024 0
M  V30 6578 C 620.143 -1.15198 -4.08155 0
M  V30 6579 N 620.534 -2.34054 -4.48388 0
M  V30 6580 C 618.832 -0.991074 -4.34849 0
M  V30 6581 C 619.533 -2.98616 -4.99203 0
M  V30 6582 N 618.509 -2.26159 -4.94321 0
M  V30 6583 H 622.311 -1.61576 -2.455 0
M  V30 6584 H 619.825 -0.975158 -1.29863 0
M  V30 6585 H 621.822 0.158031 -4.166 0
M  V30 6586 H 620.482 0.762088 -3.1563 0
M  V30 6587 H 621.493 -2.7162 -4.40957 0
M  V30 6588 H 618.17 -0.146448 -4.17243 0
M  V30 6589 H 619.56 -3.99683 -5.40096 0
M  V30 6590 N 622.28 1.30327 -0.886154 0
M  V30 6591 C 623.505 2.0079 -0.519425 0
M  V30 6592 C 623.93 1.65979 0.885013 0
M  V30 6593 O 623.288 0.877043 1.58675 0
M  V30 6594 C 623.336 3.53686 -0.702758 0
M  V30 6595 O 622.44 4.11637 0.250828 0
M  V30 6596 H 621.781 0.63171 -0.204544 0
M  V30 6597 H 624.311 1.66145 -1.19402 0
M  V30 6598 H 624.321 4.03531 -0.602207 0
M  V30 6599 H 622.996 3.78361 -1.72673 0
M  V30 6600 H 621.573 3.72755 0.103873 0
M  V30 6601 N 623.758 0.647228 1.43697 0
M  V30 6602 C 624.986 0.16575 2.06235 0
M  V30 6603 C 625.401 -1.1662 1.48476 0
M  V30 6604 O 624.758 -1.7187 0.613762 0
M  V30 6605 C 624.809 0.0621651 3.61447 0
M  V30 6606 O 624.53 1.34146 4.17057 0
M  V30 6607 C 626.031 -0.446102 4.4105 0
M  V30 6608 H 623.251 0.0871158 0.665321 0
M  V30 6609 H 625.795 0.886183 1.84301 0
M  V30 6610 H 623.95 -0.608794 3.82587 0
M  V30 6611 H 624.364 1.19675 5.10664 0
M  V30 6612 H 625.838 -0.46755 5.50016 0
M  V30 6613 H 626.315 -1.47627 4.13646 0
M  V30 6614 H 626.921 0.192159 4.24866 0
M  V30 6615 N 625.236 -1.5273 0.388769 0
M  V30 6616 C 626.483 -2.01573 -0.19359 0
M  V30 6617 C 626.811 -1.27525 -1.46859 0
M  V30 6618 O 626.066 -0.363926 -1.92286 0
M  V30 6619 C 626.365 -3.53765 -0.508445 0
M  V30 6620 C 626.031 -4.4582 0.674947 0
M  V30 6621 C 624.693 -4.70703 0.999596 0
M  V30 6622 C 627.045 -5.00138 1.46666 0
M  V30 6623 C 624.373 -5.47155 2.11751 0
M  V30 6624 C 626.725 -5.77812 2.57518 0
M  V30 6625 C 625.389 -6.00975 2.90492 0
M  V30 6626 H 624.659 -0.737606 -0.0708397 0
M  V30 6627 H 627.306 -1.84134 0.526006 0
M  V30 6628 H 625.611 -3.69274 -1.30936 0
M  V30 6629 H 627.308 -3.8905 -0.971664 0
M  V30 6630 H 623.898 -4.26616 0.411906 0
M  V30 6631 H 628.082 -4.8084 1.22909 0
M  V30 6632 H 623.338 -5.63314 2.3767 0
M  V30 6633 H 627.512 -6.18904 3.19267 0
M  V30 6634 H 625.139 -6.59998 3.77236 0
M  V30 6635 N 626.714 -0.118576 -1.57153 0
M  V30 6636 C 627.646 0.862247 -2.12363 0
M  V30 6637 C 628.659 1.23025 -1.06625 0
M  V30 6638 O 629.848 1.17927 -1.33998 0
M  V30 6639 C 626.948 2.16425 -2.60794 0
M  V30 6640 C 626.121 1.96801 -3.90626 0
M  V30 6641 C 625.18 3.10726 -4.2466 0
M  V30 6642 O 624.206 2.83659 -4.93484 0
M  V30 6643 N 625.408 4.37147 -3.81946 0
M  V30 6644 H 628.173 0.390564 -2.97144 0
M  V30 6645 H 625.734 0.0658591 -1.61766 0
M  V30 6646 H 627.726 2.91633 -2.80593 0
M  V30 6647 H 626.296 2.54943 -1.80895 0
M  V30 6648 H 625.516 1.05787 -3.7974 0
M  V30 6649 H 626.804 1.80993 -4.7552 0
M  V30 6650 H 626.202 4.62014 -3.26435 0
M  V30 6651 H 624.759 5.09229 -4.06853 0
M  V30 6652 N 628.193 1.56834 0.155195 0
M  V30 6653 C 629.421 1.87049 0.884326 0
M  V30 6654 C 629.836 0.705839 1.7511 0
M  V30 6655 O 629.193 -0.324641 1.79589 0
M  V30 6656 C 629.244 3.1644 1.74781 0
M  V30 6657 O 628.965 4.28417 0.915978 0
M  V30 6658 C 630.466 3.60113 2.58522 0
M  V30 6659 H 627.686 0.620196 0.25612 0
M  V30 6660 H 630.23 2.03946 0.150445 0
M  V30 6661 H 628.385 3.01321 2.43484 0
M  V30 6662 H 628.799 5.02353 1.50803 0
M  V30 6663 H 630.273 4.53508 3.14698 0
M  V30 6664 H 630.75 2.85005 3.34169 0
M  V30 6665 H 631.356 3.77898 1.95124 0
M  V30 6666 N 629.671 -0.424282 1.51781 0
M  V30 6667 C 631.082 -1.00368 1.57427 0
M  V30 6668 C 631.433 -1.91962 0.40558 0
M  V30 6669 O 630.558 -2.111 -0.47601 0
M  V30 6670 C 631.153 -1.82707 2.85313 0
M  V30 6671 C 629.712 -2.35675 2.93487 0
M  V30 6672 C 628.859 -1.1524 2.5222 0
M  V30 6673 H 631.81 -0.205064 1.5737 0
M  V30 6674 H 631.831 -2.68294 2.69812 0
M  V30 6675 H 631.343 -1.16017 3.70353 0
M  V30 6676 H 629.444 -3.05781 2.12906 0
M  V30 6677 H 629.557 -2.67578 3.97415 0
M  V30 6678 H 627.921 -1.50174 2.05718 0
M  V30 6679 H 628.704 -0.5014 3.39619 0
M  V30 6680 N 631.149 -1.42148 -0.680565 0
M  V30 6681 C 632.426 -1.32795 -1.43614 0
M  V30 6682 C 632.806 0.037415 -2.11067 0
M  V30 6683 O 632.154 1.05258 -2.02813 0
M  V30 6684 C 632.364 -2.49206 -2.44331 0
M  V30 6685 C 633.712 -2.91059 -3.09144 0
M  V30 6686 O 634.736 -2.49054 -2.54657 0
M  V30 6687 O 633.595 -3.63741 -4.07866 0
M  V30 6688 H 630.689 -0.523397 -0.640301 0
M  V30 6689 H 633.235 -1.54144 -0.709775 0
M  V30 6690 H 632.007 -3.40252 -1.93247 0
M  V30 6691 H 631.63 -2.29813 -3.24456 0
M  V30 6692 N 632.627 0.916307 -1.28225 0
M  V30 6693 C 634.043 1.19425 -1.05876 0
M  V30 6694 C 634.243 2.005 0.2005 0
M  V30 6695 O 633.299 2.35806 0.902873 0
M  V30 6696 C 634.612 1.93133 -2.30478 0
M  V30 6697 C 636.16 2.06026 -2.35632 0
M  V30 6698 C 636.635 2.83141 -3.59994 0
M  V30 6699 N 638.126 2.90704 -3.60618 0
M  V30 6700 C 638.861 3.50865 -4.53521 0
M  V30 6701 N 638.357 4.12327 -5.56739 0
M  V30 6702 N 640.15 3.48379 -4.41122 0
M  V30 6703 H 632.301 0.37496 -2.09064 0
M  V30 6704 H 634.564 0.228531 -0.920042 0
M  V30 6705 H 634.27 1.40985 -3.22205 0
M  V30 6706 H 634.144 2.93696 -2.36691 0
M  V30 6707 H 636.531 2.57355 -1.44404 0
M  V30 6708 H 636.612 1.04647 -2.33415 0
M  V30 6709 H 636.256 2.32492 -4.51564 0
M  V30 6710 H 636.186 3.84829 -3.59464 0
M  V30 6711 H 638.677 2.47034 -2.85977 0
M  V30 6712 H 638.99 4.56205 -6.23776 0
M  V30 6713 H 637.335 4.10839 -5.60568 0
M  V30 6714 H 640.526 2.99572 -3.59686 0
M  V30 6715 H 640.699 3.94974 -5.13712 0
M  V30 6716 N 634.105 1.10431 1.1244 0
M  V30 6717 C 635.035 0.775143 2.20258 0
M  V30 6718 C 636.016 -0.25186 1.68225 0
M  V30 6719 O 637.201 -0.117637 1.93843 0
M  V30 6720 C 634.331 0.206133 3.46688 0
M  V30 6721 C 633.285 1.16382 4.11873 0
M  V30 6722 C 632.611 0.456014 5.32752 0
M  V30 6723 C 633.911 2.5104 4.58013 0
M  V30 6724 H 635.605 1.67665 2.4805 0
M  V30 6725 H 633.151 0.807595 1.19222 0
M  V30 6726 H 635.104 -0.036291 4.21384 0
M  V30 6727 H 633.828 -0.730614 3.18323 0
M  V30 6728 H 632.487 1.39169 3.39157 0
M  V30 6729 H 632.135 -0.485203 5.00654 0
M  V30 6730 H 631.835 1.09466 5.77314 0
M  V30 6731 H 633.359 0.222135 6.10196 0
M  V30 6732 H 634.773 2.32401 5.24083 0
M  V30 6733 H 633.17 3.10789 5.13352 0
M  V30 6734 H 634.24 3.11039 3.71998 0
M  V30 6735 N 635.583 -1.29855 0.893053 0
M  V30 6736 C 636.813 -1.99686 0.530019 0
M  V30 6737 C 637.221 -1.67066 -0.888012 0
M  V30 6738 O 636.564 -0.908366 -1.5967 0
M  V30 6739 C 636.626 -3.53855 0.63457 0
M  V30 6740 C 636.29 -4.10013 2.01837 0
M  V30 6741 C 637.287 -4.25406 2.98874 0
M  V30 6742 C 634.972 -4.45202 2.32595 0
M  V30 6743 C 636.966 -4.7521 4.24799 0
M  V30 6744 C 634.653 -4.94704 3.58763 0
M  V30 6745 C 635.651 -5.09662 4.5468 0
M  V30 6746 O 635.339 -5.58093 5.78608 0
M  V30 6747 H 635.071 -0.644913 0.20264 0
M  V30 6748 H 637.625 -1.66518 1.20253 0
M  V30 6749 H 635.855 -3.86583 -0.0949477 0
M  V30 6750 H 637.544 -4.04922 0.281648 0
M  V30 6751 H 638.31 -3.98515 2.76425 0
M  V30 6752 H 634.189 -4.32822 1.58701 0
M  V30 6753 H 637.733 -4.86801 4.99671 0
M  V30 6754 H 633.63 -5.21032 3.81046 0
M  V30 6755 H 634.398 -5.7642 5.81104 0
M  V30 6756 N 637.061 -0.65484 -1.43351 0
M  V30 6757 C 638.308 -0.168892 -2.01794 0
M  V30 6758 C 638.636 1.2177 -1.51665 0
M  V30 6759 O 637.891 1.82717 -0.70092 0
M  V30 6760 C 638.19 -0.130424 -3.57162 0
M  V30 6761 C 637.856 -1.45898 -4.26643 0
M  V30 6762 C 636.518 -1.82279 -4.4534 0
M  V30 6763 C 638.87 -2.33485 -4.65976 0
M  V30 6764 C 636.198 -3.0591 -5.00635 0
M  V30 6765 C 638.55 -3.5641 -5.22642 0
M  V30 6766 C 637.214 -3.92985 -5.39555 0
M  V30 6767 H 636.484 -0.061802 -0.738418 0
M  V30 6768 H 639.131 -0.845869 -1.71806 0
M  V30 6769 H 637.436 0.630008 -3.86702 0
M  V30 6770 H 639.133 0.262465 -4.0014 0
M  V30 6771 H 635.723 -1.16591 -4.12437 0
M  V30 6772 H 639.907 -2.06668 -4.51223 0
M  V30 6773 H 635.163 -3.34295 -5.11915 0
M  V30 6774 H 639.337 -4.24495 -5.52066 0
M  V30 6775 H 636.964 -4.88862 -5.82167 0
M  V30 6776 N 638.539 1.52521 -0.396863 0
M  V30 6777 C 639.785 2.01971 0.183169 0
M  V30 6778 C 640.118 1.2825 1.45827 0
M  V30 6779 O 639.393 0.385179 1.90648 0
M  V30 6780 C 639.676 3.5736 0.443391 0
M  V30 6781 C 639.529 4.41743 -0.84753 0
M  V30 6782 C 640.848 4.22539 1.2308 0
M  V30 6783 H 637.967 0.734119 0.0650976 0
M  V30 6784 H 640.609 1.82519 -0.527918 0
M  V30 6785 H 638.759 3.74066 1.04914 0
M  V30 6786 H 640.431 4.36773 -1.48414 0
M  V30 6787 H 638.674 4.0845 -1.4612 0
M  V30 6788 H 639.345 5.48507 -0.620003 0
M  V30 6789 H 641.821 4.09857 0.718084 0
M  V30 6790 H 640.697 5.31227 1.38162 0
M  V30 6791 H 640.958 3.80675 2.24808 0
M  V30 6792 N 640.017 0.126909 1.57088 0
M  V30 6793 C 640.95 -0.857844 2.11462 0
M  V30 6794 C 641.928 -1.25569 1.03301 0
M  V30 6795 O 643.112 -1.35535 1.31006 0
M  V30 6796 C 640.239 -2.14912 2.61784 0
M  V30 6797 C 639.285 -1.89874 3.81903 0
M  V30 6798 S 640.118 -1.10785 5.23915 0
M  V30 6799 C 641.274 -2.41075 5.7761 0
M  V30 6800 H 641.507 -0.395384 2.94659 0
M  V30 6801 H 639.04 -0.0870151 1.54155 0
M  V30 6802 H 640.998 -2.89101 2.91429 0
M  V30 6803 H 639.659 -2.58275 1.78754 0
M  V30 6804 H 638.852 -2.85572 4.15289 0
M  V30 6805 H 638.454 -1.23802 3.52915 0
M  V30 6806 H 640.746 -3.36864 5.87817 0
M  V30 6807 H 641.689 -2.12223 6.75549 0
M  V30 6808 H 642.097 -2.50804 5.05725 0
M  V30 6809 N 641.495 -1.56914 -0.146875 0
M  V30 6810 C 642.405 -2.0154 -1.20079 0
M  V30 6811 C 643.421 -0.930838 -1.47008 0
M  V30 6812 O 644.597 -1.24032 -1.58676 0
M  V30 6813 C 641.662 -2.38715 -2.51428 0
M  V30 6814 C 640.723 -3.6112 -2.32145 0
M  V30 6815 C 639.956 -3.96512 -3.57231 0
M  V30 6816 O 640.179 -3.32566 -4.63418 0
M  V30 6817 O 639.113 -4.89758 -3.49887 0
M  V30 6818 H 642.939 -2.91506 -0.851924 0
M  V30 6819 H 640.524 -1.45106 -0.355607 0
M  V30 6820 H 642.406 -2.63485 -3.28867 0
M  V30 6821 H 641.081 -1.51903 -2.85845 0
M  V30 6822 H 639.988 -3.41536 -1.52656 0
M  V30 6823 H 641.321 -4.48549 -2.02644 0
M  V30 6824 N 642.974 0.416227 -1.52004 0
M  V30 6825 C 644.204 1.18401 -1.69307 0
M  V30 6826 C 644.612 1.84943 -0.399072 0
M  V30 6827 O 643.955 1.72406 0.634177 0
M  V30 6828 C 644.017 2.29465 -2.76742 0
M  V30 6829 C 643.681 1.83117 -4.18709 0
M  V30 6830 C 644.678 1.32286 -5.02789 0
M  V30 6831 C 642.363 1.90167 -4.64911 0
M  V30 6832 C 644.357 0.891178 -6.31139 0
M  V30 6833 C 642.044 1.4661 -5.93253 0
M  V30 6834 C 643.042 0.961696 -6.76196 0
M  V30 6835 O 642.73 0.532388 -8.02135 0
M  V30 6836 H 642.462 0.362098 -0.570843 0
M  V30 6837 H 645.016 0.496764 -1.99302 0
M  V30 6838 H 643.246 3.01531 -2.42107 0
M  V30 6839 H 644.935 2.91252 -2.82713 0
M  V30 6840 H 645.701 1.26218 -4.68288 0
M  V30 6841 H 641.58 2.28371 -4.00459 0
M  V30 6842 H 645.124 0.496788 -6.95829 0
M  V30 6843 H 641.021 1.52355 -6.27263 0
M  V30 6844 H 641.789 0.656339 -8.15864 0
M  V30 6845 N 644.452 1.42507 0.673017 0
M  V30 6846 C 645.698 1.43284 1.43519 0
M  V30 6847 C 646.031 0.049668 1.94136 0
M  V30 6848 O 645.306 -0.926369 1.71022 0
M  V30 6849 C 645.589 2.45874 2.63093 0
M  V30 6850 C 645.442 3.93388 2.18096 0
M  V30 6851 C 646.761 2.45431 3.6531 0
M  V30 6852 H 643.88 0.521752 0.520522 0
M  V30 6853 H 646.522 1.73932 0.764701 0
M  V30 6854 H 644.672 2.19869 3.20296 0
M  V30 6855 H 646.344 4.30379 1.66046 0
M  V30 6856 H 644.587 4.07169 1.49652 0
M  V30 6857 H 645.258 4.60752 3.03993 0
M  V30 6858 H 647.734 2.68561 3.17827 0
M  V30 6859 H 646.61 3.19189 4.46553 0
M  V30 6860 H 646.871 1.48092 4.16559 0
M  V30 6861 N 645.93 -0.909495 1.28709 0
M  V30 6862 C 647.158 -1.69272 1.18973 0
M  V30 6863 C 647.573 -1.87123 -0.251048 0
M  V30 6864 O 646.93 -1.40127 -1.16922 0
M  V30 6865 C 646.981 -3.08257 1.88839 0
M  V30 6866 O 646.702 -2.91228 3.27289 0
M  V30 6867 C 648.203 -4.02642 1.85457 0
M  V30 6868 H 645.423 -0.528999 0.412797 0
M  V30 6869 H 647.967 -1.13803 1.69909 0
M  V30 6870 H 646.122 -3.6053 1.41762 0
M  V30 6871 H 646.536 -3.79223 3.6234 0
M  V30 6872 H 648.01 -4.97613 2.38925 0
M  V30 6873 H 648.487 -4.31327 0.827893 0
M  V30 6874 H 649.093 -3.56298 2.32233 0
M  V30 6875 N 647.408 -1.11026 -1.11852 0
M  V30 6876 C 648.656 -0.854769 -1.83134 0
M  V30 6877 C 648.977 0.621375 -1.84835 0
M  V30 6878 O 648.247 1.45129 -1.31584 0
M  V30 6879 H 646.827 -0.313229 -0.678157 0
M  V30 6880 H 649.489 -1.40178 -1.35411 0
M  V30 6881 H 648.585 -1.22311 -2.87135 0
M  V30 6882 N 648.886 1.2938 -0.899927 0
M  V30 6883 C 650.134 1.95164 -0.524924 0
M  V30 6884 C 650.455 1.71292 0.931888 0
M  V30 6885 O 649.725 1.04481 1.65712 0
M  V30 6886 H 648.305 0.722133 -0.191135 0
M  V30 6887 H 650.967 1.57628 -1.14627 0
M  V30 6888 H 650.063 3.0397 -0.707711 0
M  V30 6889 N 650.364 0.662433 1.43002 0
M  V30 6890 C 651.641 0.109096 1.95296 0
M  V30 6891 C 652.021 -1.37313 1.60338 0
M  V30 6892 O 651.369 -2.1032 0.893187 0
M  V30 6893 C 651.579 0.365096 3.47085 0
M  V30 6894 C 652.927 0.274964 4.23709 0
M  V30 6895 O 653.951 0.29816 3.5495 0
M  V30 6896 O 652.81 0.206549 5.4611 0
M  V30 6897 H 649.904 -0.00429724 0.826989 0
M  V30 6898 H 652.45 0.736308 1.52894 0
M  V30 6899 H 651.222 1.39237 3.65689 0
M  V30 6900 H 650.845 -0.294733 3.96506 0
M  V30 6901 N 651.842 -1.52309 0.404946 0
M  V30 6902 C 652.772 -2.29805 -0.41376 0
M  V30 6903 C 653.753 -1.3384 -1.0498 0
M  V30 6904 O 654.938 -1.62745 -1.05961 0
M  V30 6905 C 652.068 -3.11639 -1.53292 0
M  V30 6906 C 651.022 -4.15616 -1.02211 0
M  V30 6907 C 650.348 -4.8577 -2.23455 0
M  V30 6908 C 651.648 -5.2224 -0.0790725 0
M  V30 6909 H 653.342 -2.98493 0.232878 0
M  V30 6910 H 650.888 -1.43552 0.113441 0
M  V30 6911 H 652.841 -3.64618 -2.11262 0
M  V30 6912 H 651.565 -2.40712 -2.20738 0
M  V30 6913 H 650.224 -3.63641 -0.46484 0
M  V30 6914 H 649.872 -4.11376 -2.89445 0
M  V30 6915 H 649.572 -5.56058 -1.89929 0
M  V30 6916 H 651.096 -5.4156 -2.82038 0
M  V30 6917 H 652.51 -5.70485 -0.567438 0
M  V30 6918 H 650.907 -5.99867 0.167167 0
M  V30 6919 H 651.977 -4.77078 0.867447 0
M  V30 6920 N 653.32 -0.135238 -1.57019 0
M  V30 6921 C 654.253 0.846618 -2.11914 0
M  V30 6922 C 655.231 1.25019 -1.03966 0
M  V30 6923 O 656.415 1.34838 -1.31723 0
M  V30 6924 C 653.542 2.1352 -2.6292 0
M  V30 6925 C 652.588 1.87846 -3.82905 0
M  V30 6926 S 653.421 1.08005 -5.24495 0
M  V30 6927 C 654.577 2.38008 -5.78881 0
M  V30 6928 H 654.81 0.379752 -2.94865 0
M  V30 6929 H 652.343 0.0788387 -1.54199 0
M  V30 6930 H 654.301 2.87551 -2.92958 0
M  V30 6931 H 652.962 2.57323 -1.80121 0
M  V30 6932 H 652.155 2.83365 -4.16797 0
M  V30 6933 H 651.757 1.21929 -3.53567 0
M  V30 6934 H 654.049 3.33742 -5.89595 0
M  V30 6935 H 654.992 2.08638 -6.76665 0
M  V30 6936 H 655.4 2.48119 -5.07048 0
M  V30 6937 N 654.798 1.5699 0.138552 0
M  V30 6938 C 656.028 1.87704 0.863184 0
M  V30 6939 C 656.436 0.722411 1.74865 0
M  V30 6940 O 655.779 -0.316636 1.80951 0
M  V30 6941 C 655.841 3.13219 1.76449 0
M  V30 6942 C 655.505 4.44648 1.05532 0
M  V30 6943 C 656.502 5.18318 0.405252 0
M  V30 6944 C 654.187 4.91367 1.04231 0
M  V30 6945 C 656.181 6.36916 -0.24835 0
M  V30 6946 C 653.868 6.09887 0.384904 0
M  V30 6947 C 654.866 6.82508 -0.259292 0
M  V30 6948 O 654.554 7.98775 -0.906258 0
M  V30 6949 H 654.286 0.626255 0.254521 0
M  V30 6950 H 656.84 2.04966 0.133472 0
M  V30 6951 H 655.07 2.91988 2.53535 0
M  V30 6952 H 656.759 3.30111 2.36181 0
M  V30 6953 H 657.525 4.83289 0.407053 0
M  V30 6954 H 653.404 4.34759 1.53315 0
M  V30 6955 H 656.948 6.93538 -0.751755 0
M  V30 6956 H 652.845 6.44376 0.380799 0
M  V30 6957 H 653.613 8.14494 -0.80877 0
M  V30 6958 N 656.276 -0.40816 1.52223 0
M  V30 6959 C 657.226 -1.49648 1.72016 0
M  V30 6960 C 658.21 -1.50311 0.574069 0
M  V30 6961 O 659.402 -1.56271 0.831173 0
M  V30 6962 C 656.531 -2.87566 1.87512 0
M  V30 6963 C 655.617 -2.91547 3.07995 0
M  V30 6964 N 656.008 -2.65225 4.30685 0
M  V30 6965 C 654.306 -3.22715 3.07849 0
M  V30 6966 C 655.007 -2.75799 5.12162 0
M  V30 6967 N 653.983 -3.08719 4.4743 0
M  V30 6968 H 657.785 -1.28093 2.64517 0
M  V30 6969 H 655.299 -0.61588 1.50269 0
M  V30 6970 H 657.296 -3.65899 1.99809 0
M  V30 6971 H 655.956 -3.10118 0.962114 0
M  V30 6972 H 656.967 -2.39601 4.59142 0
M  V30 6973 H 653.644 -3.50856 2.26289 0
M  V30 6974 H 655.034 -2.59155 6.1991 0
M  V30 6975 N 657.755 -1.42862 -0.66545 0
M  V30 6976 C 659.004 -1.43119 -1.42126 0
M  V30 6977 C 659.317 -0.0545297 -1.95524 0
M  V30 6978 O 660.523 0.0654747 -2.71421 0
M  V30 6979 C 658.979 -2.51797 -2.5715 0
M  V30 6980 C 658.587 -3.95514 -2.10411 0
M  V30 6981 C 660.331 -2.61233 -3.346 0
M  V30 6982 C 658.238 -4.95682 -3.22573 0
M  V30 6983 H 657.168 -0.532349 -0.533966 0
M  V30 6984 H 659.819 -1.68806 -0.719506 0
M  V30 6985 H 658.201 -2.19292 -3.29738 0
M  V30 6986 H 659.375 -4.3742 -1.44915 0
M  V30 6987 H 657.69 -3.90012 -1.45874 0
M  V30 6988 H 660.287 -3.33248 -4.18151 0
M  V30 6989 H 660.63 -1.65896 -3.81817 0
M  V30 6990 H 661.163 -2.9298 -2.69087 0
M  V30 6991 H 657.902 -5.92529 -2.80338 0
M  V30 6992 H 657.422 -4.58399 -3.86821 0
M  V30 6993 H 659.101 -5.17828 -3.87896 0
M  V30 6994 N 659.233 0.902656 -1.29189 0
M  V30 6995 C 660.165 2.01149 -1.09872 0
M  V30 6996 C 661.178 1.62732 -0.0471046 0
M  V30 6997 O 662.367 1.76107 -0.29132 0
M  V30 6998 C 659.467 3.32612 -0.649818 0
M  V30 6999 C 658.64 3.99574 -1.7793 0
M  V30 7000 C 657.699 5.09325 -1.32191 0
M  V30 7001 O 656.725 5.31919 -2.02611 0
M  V30 7002 N 657.927 5.80185 -0.191171 0
M  V30 7003 H 660.692 2.18276 -2.05368 0
M  V30 7004 H 658.253 1.07466 -1.2109 0
M  V30 7005 H 660.245 4.03375 -0.327199 0
M  V30 7006 H 658.815 3.11876 0.212597 0
M  V30 7007 H 658.035 3.22213 -2.27095 0
M  V30 7008 H 659.323 4.41056 -2.53668 0
M  V30 7009 H 658.721 5.64312 0.396016 0
M  V30 7010 H 657.278 6.5176 0.0721001 0
M  V30 7011 N 660.711 1.11618 1.11262 0
M  V30 7012 C 661.643 0.734015 2.17129 0
M  V30 7013 C 662.656 -0.235243 1.61091 0
M  V30 7014 O 663.845 -0.0178597 1.78491 0
M  V30 7015 C 660.945 0.0643682 3.38839 0
M  V30 7016 C 660.118 1.06092 4.24339 0
M  V30 7017 C 659.177 0.420482 5.24517 0
M  V30 7018 O 658.203 1.07495 5.58957 0
M  V30 7019 N 659.405 -0.815828 5.74739 0
M  V30 7020 H 662.17 1.64492 2.50524 0
M  V30 7021 H 659.731 1.00664 1.26801 0
M  V30 7022 H 661.723 -0.375851 4.02951 0
M  V30 7023 H 660.293 -0.749147 3.03491 0
M  V30 7024 H 659.513 1.67903 3.56654 0
M  V30 7025 H 660.801 1.73507 4.78302 0
M  V30 7026 H 660.199 -1.36668 5.48943 0
M  V30 7027 H 658.756 -1.199 6.40677 0
M  V30 7028 N 662.189 -1.289 0.906776 0
M  V30 7029 C 663.119 -2.29932 0.406659 0
M  V30 7030 C 664.1 -1.6189 -0.522061 0
M  V30 7031 O 665.285 -1.8935 -0.431283 0
M  V30 7032 C 662.415 -3.45425 -0.360366 0
M  V30 7033 C 661.369 -4.25316 0.478574 0
M  V30 7034 C 660.695 -5.33076 -0.416373 0
M  V30 7035 C 661.995 -4.92739 1.7322 0
M  V30 7036 H 663.689 -2.72013 1.25097 0
M  V30 7037 H 661.235 -1.30768 0.602977 0
M  V30 7038 H 663.188 -4.15186 -0.721029 0
M  V30 7039 H 661.912 -3.02206 -1.23852 0
M  V30 7040 H 660.571 -3.57273 0.821662 0
M  V30 7041 H 660.219 -4.86101 -1.29287 0
M  V30 7042 H 659.919 -5.8743 0.141309 0
M  V30 7043 H 661.443 -6.05686 -0.773072 0
M  V30 7044 H 662.857 -5.54898 1.44086 0
M  V30 7045 H 661.254 -5.57057 2.23175 0
M  V30 7046 H 662.324 -4.17625 2.46408 0
M  V30 7047 N 663.667 -0.670007 -1.42649 0
M  V30 7048 C 664.915 -0.18991 -2.01206 0
M  V30 7049 C 665.236 1.20617 -1.53221 0
M  V30 7050 O 664.506 1.80898 -0.751856 0
M  V30 7051 H 663.086 -0.0672189 -0.743969 0
M  V30 7052 H 665.748 -0.865442 -1.74631 0
M  V30 7053 H 664.844 -0.187481 -3.11536 0
M  V30 7054 N 665.145 1.52092 -0.413018 0
M  V30 7055 C 666.092 2.27119 0.410558 0
M  V30 7056 C 667.062 1.29692 1.03774 0
M  V30 7057 O 668.247 1.58561 1.06128 0
M  V30 7058 C 665.387 3.09863 1.51918 0
M  V30 7059 C 664.5 4.22252 0.912528 0
M  V30 7060 C 663.635 4.92348 1.99417 0
M  V30 7061 C 662.674 5.96694 1.36466 0
M  V30 7062 N 661.811 6.60292 2.38661 0
M  V30 7063 H 666.651 2.97067 -0.235661 0
M  V30 7064 H 664.188 1.46542 -0.128055 0
M  V30 7065 H 666.146 3.56144 2.17295 0
M  V30 7066 H 664.776 2.42078 2.13537 0
M  V30 7067 H 663.828 3.80113 0.147697 0
M  V30 7068 H 665.14 4.9709 0.412717 0
M  V30 7069 H 664.294 5.42054 2.72512 0
M  V30 7070 H 663.033 4.17087 2.52764 0
M  V30 7071 H 662.038 5.46304 0.61906 0
M  V30 7072 H 663.263 6.73899 0.838827 0
M  V30 7073 H 661.209 5.87858 2.91134 0
M  V30 7074 H 661.126 7.30816 1.93503 0
M  V30 7075 H 662.394 7.14635 3.11314 0
M  V30 7076 N 666.623 0.143563 1.56945 0
M  V30 7077 C 667.87 -0.508407 1.96014 0
M  V30 7078 C 668.198 -1.65099 1.02824 0
M  V30 7079 O 667.453 -1.95618 0.0567764 0
M  V30 7080 C 667.752 -1.05885 3.41355 0
M  V30 7081 C 667.418 -0.0350809 4.50886 0
M  V30 7082 C 666.08 0.246362 4.80569 0
M  V30 7083 C 668.432 0.661282 5.16988 0
M  V30 7084 C 665.76 1.23003 5.73661 0
M  V30 7085 C 668.112 1.63375 6.11139 0
M  V30 7086 C 666.776 1.92292 6.39203 0
M  V30 7087 H 666.046 -0.186039 0.717266 0
M  V30 7088 H 668.693 0.229667 1.90118 0
M  V30 7089 H 666.998 -1.87419 3.44066 0
M  V30 7090 H 668.695 -1.57183 3.6891 0
M  V30 7091 H 665.285 -0.264622 4.27782 0
M  V30 7092 H 669.469 0.457038 4.94191 0
M  V30 7093 H 664.725 1.46056 5.93698 0
M  V30 7094 H 668.899 2.17887 6.61436 0
M  V30 7095 H 666.526 2.68666 7.11142 0
M  V30 7096 N 668.101 -1.57061 -0.130224 0
M  V30 7097 C 669.048 -1.99517 -1.16024 0
M  V30 7098 C 670.018 -0.865452 -1.41771 0
M  V30 7099 O 671.203 -1.12882 -1.53826 0
M  V30 7100 C 668.343 -2.3951 -2.48453 0
M  V30 7101 C 667.456 -3.65848 -2.29737 0
M  V30 7102 C 666.591 -3.9487 -3.55318 0
M  V30 7103 C 665.63 -5.14426 -3.31711 0
M  V30 7104 N 664.767 -5.39375 -4.49466 0
M  V30 7105 H 669.607 -2.87305 -0.791194 0
M  V30 7106 H 667.144 -1.42129 -0.379195 0
M  V30 7107 H 669.102 -2.60731 -3.25692 0
M  V30 7108 H 667.732 -1.54779 -2.83272 0
M  V30 7109 H 666.784 -3.52307 -1.4347 0
M  V30 7110 H 668.096 -4.53241 -2.08263 0
M  V30 7111 H 667.25 -4.16679 -4.4098 0
M  V30 7112 H 665.989 -3.05931 -3.79813 0
M  V30 7113 H 664.994 -4.92473 -2.44439 0
M  V30 7114 H 666.219 -6.04933 -3.08598 0
M  V30 7115 H 664.165 -4.53391 -4.74102 0
M  V30 7116 H 664.082 -6.21069 -4.31055 0
M  V30 7117 H 665.35 -5.65694 -5.36293 0
M  V30 7118 N 669.579 0.400081 -1.52437 0
M  V30 7119 C 670.489 1.51253 -1.79331 0
M  V30 7120 C 671.505 1.60188 -0.679396 0
M  V30 7121 O 672.681 1.76733 -0.965791 0
M  V30 7122 C 669.746 2.869 -1.94652 0
M  V30 7123 C 668.807 2.87777 -3.18564 0
M  V30 7124 C 668.04 4.16954 -3.33145 0
M  V30 7125 O 668.263 5.11329 -2.52783 0
M  V30 7126 O 667.197 4.2487 -4.26343 0
M  V30 7127 H 671.023 1.31461 -2.73773 0
M  V30 7128 H 668.608 0.586834 -1.37392 0
M  V30 7129 H 670.49 3.67336 -2.065 0
M  V30 7130 H 669.165 3.06741 -1.034 0
M  V30 7131 H 668.072 2.06162 -3.12167 0
M  V30 7132 H 669.405 2.72886 -4.09627 0
M  V30 7133 N 671.057 1.43213 0.657864 0
M  V30 7134 C 672.468 1.39669 1.23893 0
M  V30 7135 C 672.819 0.0984217 1.95953 0
M  V30 7136 O 671.944 -0.8023 2.00978 0
M  V30 7137 C 672.539 2.53004 2.25332 0
M  V30 7138 C 671.098 2.5274 2.78926 0
M  V30 7139 C 670.245 2.30941 1.53497 0
M  V30 7140 H 673.196 1.52181 0.450172 0
M  V30 7141 H 673.217 2.24226 3.07413 0
M  V30 7142 H 672.729 3.4748 1.72856 0
M  V30 7143 H 670.83 1.6213 3.35477 0
M  V30 7144 H 670.943 3.50352 3.26787 0
M  V30 7145 H 669.307 1.7952 1.80678 0
M  V30 7146 H 670.09 3.27496 1.02963 0
M  V30 7147 N 672.536 -0.895792 1.29666 0
M  V30 7148 C 673.486 -1.98736 1.1175 0
M  V30 7149 C 674.47 -1.6086 0.0357834 0
M  V30 7150 O 675.662 -1.75111 0.257926 0
M  V30 7151 C 672.791 -3.33845 0.800156 0
M  V30 7152 C 671.877 -3.78068 1.9216 0
M  V30 7153 N 672.268 -3.94489 3.16563 0
M  V30 7154 C 670.566 -4.07376 1.81552 0
M  V30 7155 C 671.267 -4.31819 3.89753 0
M  V30 7156 N 670.243 -4.41081 3.17724 0
M  V30 7157 H 674.045 -2.09507 2.06117 0
M  V30 7158 H 671.559 -1.08488 1.20848 0
M  V30 7159 H 673.556 -4.11757 0.652841 0
M  V30 7160 H 672.216 -3.24417 -0.135551 0
M  V30 7161 H 673.227 -3.79914 3.51974 0
M  V30 7162 H 669.904 -4.06483 0.952787 0
M  V30 7163 H 671.294 -4.52337 4.96831 0
M  V30 7164 N 674.014 -1.12206 -1.10668 0
M  V30 7165 C 674.977 -0.790867 -2.15123 0
M  V30 7166 C 675.977 0.193618 -1.5963 0
M  V30 7167 O 677.167 -0.0318728 -1.74171 0
M  V30 7168 C 674.299 -0.174797 -3.40452 0
M  V30 7169 H 675.492 -1.7163 -2.45933 0
M  V30 7170 H 673.045 -0.924993 -1.2599 0
M  V30 7171 H 673.78 0.760478 -3.15257 0
M  V30 7172 H 673.565 -0.88358 -3.82015 0
M  V30 7173 H 675.055 0.0405162 -4.1758 0
M  V30 7174 N 675.492 1.28418 -0.913599 0
M  V30 7175 C 676.455 2.25564 -0.406624 0
M  V30 7176 C 677.455 1.5387 0.466965 0
M  V30 7177 O 678.645 1.72094 0.270042 0
M  V30 7178 C 675.777 3.38339 0.417053 0
M  V30 7179 H 676.97 2.71926 -1.26477 0
M  V30 7180 H 674.523 1.40098 -0.692986 0
M  V30 7181 H 675.258 2.97339 1.29461 0
M  V30 7182 H 675.043 3.91542 -0.209102 0
M  V30 7183 H 676.533 4.10578 0.762602 0
M  V30 7184 N 676.97 0.677563 1.42291 0
M  V30 7185 C 678.217 0.200975 2.015 0
M  V30 7186 C 678.545 -1.19342 1.53583 0
M  V30 7187 O 677.8 -1.81579 0.7299 0
M  V30 7188 C 678.099 0.187229 3.56909 0
M  V30 7189 C 677.765 1.52667 4.24268 0
M  V30 7190 C 676.427 1.89341 4.42384 0
M  V30 7191 C 678.779 2.40869 4.62203 0
M  V30 7192 C 676.107 3.13836 4.95705 0
M  V30 7193 C 678.459 3.64679 5.16906 0
M  V30 7194 C 677.123 4.01519 5.33234 0
M  V30 7195 H 676.393 0.0735418 0.737342 0
M  V30 7196 H 679.04 0.873095 1.70439 0
M  V30 7197 H 677.345 -0.568407 3.87655 0
M  V30 7198 H 679.042 -0.198773 4.00507 0
M  V30 7199 H 675.632 1.23138 4.1053 0
M  V30 7200 H 679.816 2.1382 4.47878 0
M  V30 7201 H 675.072 3.42396 5.06532 0
M  V30 7202 H 679.246 4.33224 5.45243 0
M  V30 7203 H 676.873 4.98062 5.74316 0
M  V30 7204 N 678.448 -1.51871 0.421078 0
M  V30 7205 C 679.678 -2.06057 -0.149723 0
M  V30 7206 C 680.086 -1.29002 -1.38402 0
M  V30 7207 O 679.429 -0.338385 -1.80556 0
M  V30 7208 C 679.491 -3.55216 -0.553339 0
M  V30 7209 C 679.155 -4.53408 0.571879 0
M  V30 7210 C 680.152 -4.99586 1.4391 0
M  V30 7211 C 677.837 -4.967 0.747979 0
M  V30 7212 C 679.831 -5.87711 2.46727 0
M  V30 7213 C 677.518 -5.84619 1.77944 0
M  V30 7214 C 678.516 -6.30021 2.63748 0
M  V30 7215 O 678.204 -7.16197 3.65126 0
M  V30 7216 H 677.936 -0.675744 -0.0186102 0
M  V30 7217 H 680.49 -1.96618 0.594166 0
M  V30 7218 H 678.72 -3.62381 -1.34969 0
M  V30 7219 H 680.409 -3.91992 -1.05342 0
M  V30 7220 H 681.175 -4.66846 1.31451 0
M  V30 7221 H 677.054 -4.60913 0.0897357 0
M  V30 7222 H 680.598 -6.2307 3.13734 0
M  V30 7223 H 676.495 -6.16771 1.90429 0
M  V30 7224 H 677.263 -7.34337 3.61512 0
M  V30 7225 N 679.926 -0.151884 -1.56866 0
M  V30 7226 C 680.889 0.771861 -2.15812 0
M  V30 7227 C 681.889 1.17181 -1.10115 0
M  V30 7228 O 683.079 1.09194 -1.35729 0
M  V30 7229 C 680.211 2.04806 -2.7252 0
M  V30 7230 H 681.404 0.259021 -2.98779 0
M  V30 7231 H 678.957 0.097588 -1.55995 0
M  V30 7232 H 679.692 2.60445 -1.93233 0
M  V30 7233 H 679.477 1.77044 -3.49854 0
M  V30 7234 H 680.967 2.70771 -3.1792 0
M  V30 7235 N 681.404 1.57128 0.121893 0
M  V30 7236 C 682.367 1.99197 1.13372 0
M  V30 7237 C 683.367 0.881728 1.3447 0
M  V30 7238 O 684.557 1.14783 1.31036 0
M  V30 7239 C 681.689 2.32963 2.4888 0
M  V30 7240 H 682.882 2.89788 0.772204 0
M  V30 7241 H 680.435 1.51952 0.366093 0
M  V30 7242 H 681.17 1.45243 2.89957 0
M  V30 7243 H 680.955 3.13934 2.34921 0
M  V30 7244 H 682.445 2.66261 3.21706 0
M  V30 7245 N 682.882 -0.391992 1.52647 0
M  V30 7246 C 683.792 -1.503 1.80131 0
M  V30 7247 C 684.808 -1.59825 0.687882 0
M  V30 7248 O 685.984 -1.76218 0.975149 0
M  V30 7249 C 683.049 -2.85863 1.96171 0
M  V30 7250 C 682.11 -2.86084 3.20085 0
M  V30 7251 C 681.343 -4.15181 3.35351 0
M  V30 7252 O 681.566 -5.09981 2.55491 0
M  V30 7253 O 680.5 -4.22603 4.28591 0
M  V30 7254 H 684.326 -1.30007 2.74466 0
M  V30 7255 H 681.911 -0.579539 1.37701 0
M  V30 7256 H 683.793 -3.66236 2.08445 0
M  V30 7257 H 682.468 -3.06189 1.05025 0
M  V30 7258 H 681.375 -2.04504 3.13256 0
M  V30 7259 H 682.708 -2.7071 4.11068 0
M  V30 7260 N 684.36 -1.4356 -0.65026 0
M  V30 7261 C 685.609 -1.44619 -1.406 0
M  V30 7262 C 685.922 -0.0752645 -1.95455 0
M  V30 7263 O 687.128 0.0366832 -2.71475 0
M  V30 7264 C 685.584 -2.54511 -2.54465 0
M  V30 7265 C 685.192 -3.97723 -2.06204 0
M  V30 7266 C 686.936 -2.64768 -3.31811 0
M  V30 7267 C 684.843 -4.99075 -3.17298 0
M  V30 7268 H 683.773 -0.537983 -0.52829 0
M  V30 7269 H 686.424 -1.69559 -0.701561 0
M  V30 7270 H 684.806 -2.22777 -3.27393 0
M  V30 7271 H 685.98 -4.38932 -1.40267 0
M  V30 7272 H 684.295 -3.91538 -1.41729 0
M  V30 7273 H 686.892 -3.37664 -4.14593 0
M  V30 7274 H 687.235 -1.69936 -3.80036 0
M  V30 7275 H 687.768 -2.95817 -2.65964 0
M  V30 7276 H 684.507 -5.95469 -2.74038 0
M  V30 7277 H 684.027 -4.62476 -3.81937 0
M  V30 7278 H 685.706 -5.21913 -3.82382 0
M  V30 7279 N 685.838 0.888903 -1.30139 0
M  V30 7280 C 686.801 1.97576 -1.16174 0
M  V30 7281 C 687.801 1.60525 -0.094086 0
M  V30 7282 O 688.991 1.70812 -0.341889 0
M  V30 7283 C 686.123 3.3188 -0.778983 0
M  V30 7284 H 687.316 2.11393 -2.12728 0
M  V30 7285 H 684.869 1.0748 -1.1348 0
M  V30 7286 H 685.604 3.23765 0.186225 0
M  V30 7287 H 685.389 3.60141 -1.55051 0
M  V30 7288 H 686.879 4.11612 -0.704631 0
M  V30 7289 N 687.317 1.12792 1.10072 0
M  V30 7290 C 688.566 0.880232 1.81479 0
M  V30 7291 C 688.879 -0.595575 1.86312 0
M  V30 7292 O 690.085 -0.959979 2.53962 0
M  V30 7293 C 688.541 1.52514 3.25987 0
M  V30 7294 C 688.149 3.036 3.29441 0
M  V30 7295 C 689.893 1.35788 4.02196 0
M  V30 7296 C 687.8 3.61007 4.68431 0
M  V30 7297 H 686.73 0.325654 0.680048 0
M  V30 7298 H 689.381 1.35485 1.23758 0
M  V30 7299 H 687.763 0.978188 3.83728 0
M  V30 7300 H 688.937 3.64819 2.81502 0
M  V30 7301 H 687.252 3.19765 2.66719 0
M  V30 7302 H 689.849 1.76096 5.0487 0
M  V30 7303 H 690.192 0.301972 4.15203 0
M  V30 7304 H 690.725 1.87426 3.50879 0
M  V30 7305 H 687.464 4.66375 4.60625 0
M  V30 7306 H 686.984 3.04564 5.16721 0
M  V30 7307 H 688.663 3.60289 5.37402 0
M  V30 7308 N 688.795 -1.27931 0.920396 0
M  V30 7309 C 690.043 -1.94304 0.555906 0
M  V30 7310 C 690.364 -1.72753 -0.904519 0
M  V30 7311 O 689.634 -1.07104 -1.64029 0
M  V30 7312 H 688.214 -0.719001 0.202599 0
M  V30 7313 H 690.876 -1.55785 1.1712 0
M  V30 7314 H 689.972 -3.02806 0.755981 0
M  V30 7315 N 690.273 -0.685099 -1.4193 0
M  V30 7316 C 691.203 -0.0273506 -2.33484 0
M  V30 7317 C 692.184 0.778366 -1.51246 0
M  V30 7318 O 693.369 0.733449 -1.79817 0
M  V30 7319 C 690.499 0.917272 -3.34968 0
M  V30 7320 C 689.453 0.21941 -4.27437 0
M  V30 7321 C 688.779 1.27768 -5.1921 0
M  V30 7322 C 690.079 -0.907894 -5.14349 0
M  V30 7323 H 691.773 -0.791994 -2.88735 0
M  V30 7324 H 689.319 -0.382308 -1.38832 0
M  V30 7325 H 691.272 1.38657 -3.97935 0
M  V30 7326 H 689.996 1.71346 -2.78043 0
M  V30 7327 H 688.655 -0.229757 -3.65879 0
M  V30 7328 H 688.303 2.06612 -4.58607 0
M  V30 7329 H 688.003 0.815803 -5.81909 0
M  V30 7330 H 689.527 1.7477 -5.85054 0
M  V30 7331 H 690.941 -0.519348 -5.70943 0
M  V30 7332 H 689.338 -1.2962 -5.85934 0
M  V30 7333 H 690.408 -1.75218 -4.52136 0
M  V30 7334 N 691.751 1.51645 -0.429126 0
M  V30 7335 C 692.998 2.02015 0.140079 0
M  V30 7336 C 693.326 1.31374 1.43427 0
M  V30 7337 O 692.581 0.414779 1.91254 0
M  V30 7338 C 692.88 3.54989 0.414472 0
M  V30 7339 C 692.546 4.43874 -0.792911 0
M  V30 7340 C 691.208 4.67887 -1.12404 0
M  V30 7341 C 693.56 4.96074 -1.59875 0
M  V30 7342 C 690.888 5.41348 -2.26184 0
M  V30 7343 C 693.24 5.70782 -2.72747 0
M  V30 7344 C 691.904 5.93062 -3.06324 0
M  V30 7345 H 691.174 0.739225 0.0512585 0
M  V30 7346 H 693.821 1.82675 -0.574641 0
M  V30 7347 H 692.126 3.72615 1.21099 0
M  V30 7348 H 693.823 3.91489 0.868173 0
M  V30 7349 H 690.413 4.25374 -0.524871 0
M  V30 7350 H 694.597 4.77412 -1.35614 0
M  V30 7351 H 689.853 5.56815 -2.52522 0
M  V30 7352 H 694.027 6.10221 -3.35564 0
M  V30 7353 H 691.654 6.49764 -3.94602 0
M  V30 7354 N 693.229 0.160201 1.56784 0
M  V30 7355 C 694.476 -0.487588 1.96542 0
M  V30 7356 C 694.804 -1.63999 1.04569 0
M  V30 7357 O 694.059 -1.95546 0.0775211 0
M  V30 7358 C 694.358 -1.02259 3.42459 0
M  V30 7359 C 694.024 0.0127436 4.50898 0
M  V30 7360 C 692.686 0.297318 4.80281 0
M  V30 7361 C 695.038 0.716078 5.16257 0
M  V30 7362 C 692.366 1.29081 5.72324 0
M  V30 7363 C 694.718 1.69847 6.09372 0
M  V30 7364 C 693.382 1.99061 6.37127 0
M  V30 7365 H 692.652 -0.178421 0.719199 0
M  V30 7366 H 695.299 0.249818 1.89864 0
M  V30 7367 H 693.604 -1.8376 3.46034 0
M  V30 7368 H 695.301 -1.53261 3.70556 0
M  V30 7369 H 691.891 -0.219235 4.28039 0
M  V30 7370 H 696.075 0.509428 4.93679 0
M  V30 7371 H 691.331 1.52344 5.92116 0
M  V30 7372 H 695.505 2.2489 6.59088 0
M  V30 7373 H 693.132 2.76194 7.08252 0
M  V30 7374 N 694.707 -1.5719 -0.113559 0
M  V30 7375 C 695.637 -2.03772 -1.14013 0
M  V30 7376 C 696.618 -0.923176 -1.42869 0
M  V30 7377 O 697.803 -1.19325 -1.53216 0
M  V30 7378 C 694.933 -2.44663 -2.4649 0
M  V30 7379 C 693.887 -3.59612 -2.32085 0
M  V30 7380 C 693.213 -3.8642 -3.69573 0
M  V30 7381 C 694.513 -4.91149 -1.7768 0
M  V30 7382 H 696.207 -2.89785 -0.752665 0
M  V30 7383 H 693.753 -1.39412 -0.360609 0
M  V30 7384 H 695.706 -2.75857 -3.18561 0
M  V30 7385 H 694.43 -1.55628 -2.87137 0
M  V30 7386 H 693.089 -3.28636 -1.62461 0
M  V30 7387 H 692.737 -2.94581 -4.07715 0
M  V30 7388 H 692.437 -4.63797 -3.60786 0
M  V30 7389 H 693.961 -4.2007 -4.4314 0
M  V30 7390 H 695.375 -5.20843 -2.39574 0
M  V30 7391 H 693.772 -5.72562 -1.79701 0
M  V30 7392 H 694.842 -4.79301 -0.734776 0
M  V30 7393 N 696.185 0.383891 -1.52853 0
M  V30 7394 C 697.135 1.46892 -1.74375 0
M  V30 7395 C 698.119 1.49378 -0.597909 0
M  V30 7396 O 699.311 1.54929 -0.855929 0
M  V30 7397 C 696.44 2.84547 -1.92063 0
M  V30 7398 C 695.526 2.8661 -3.12594 0
M  V30 7399 N 695.917 2.58339 -4.3485 0
M  V30 7400 C 694.215 3.17777 -3.12944 0
M  V30 7401 C 694.916 2.67616 -5.16485 0
M  V30 7402 N 693.892 3.01561 -4.52285 0
M  V30 7403 H 697.694 1.23869 -2.66522 0
M  V30 7404 H 695.208 0.591895 -1.51229 0
M  V30 7405 H 697.205 3.62674 -2.05604 0
M  V30 7406 H 695.865 3.08549 -1.01133 0
M  V30 7407 H 696.876 2.32266 -4.62896 0
M  V30 7408 H 693.553 3.47211 -2.31842 0
M  V30 7409 H 694.943 2.4926 -6.23955 0
M  V30 7410 N 697.663 1.43903 0.642637 0
M  V30 7411 C 698.611 1.50164 1.77634 0
M  V30 7412 C 699.605 0.374294 1.65213 0
M  V30 7413 O 700.811 0.548748 1.71431 0
M  V30 7414 H 697.186 0.470974 0.586249 0
M  V30 7415 H 699.157 2.45603 1.69474 0
M  V30 7416 C 697.906 1.45196 3.15933 0
M  V30 7417 H 697.229 2.31253 3.26132 0
M  V30 7418 H 698.669 1.53638 3.95185 0
M  V30 7419 C 697.128 0.171043 3.36466 0
M  V30 7420 O 697.658 -0.763413 3.94379 0
M  V30 7421 N 695.864 0.077847 2.90496 0
M  V30 7422 H 695.411 0.8391 2.43551 0
M  V30 7423 H 695.369 -0.778473 3.0461 0
M  V30 7424 N 699.141 -0.881989 1.30609 0
M  V30 7425 C 700.073 -1.99375 1.13058 0
M  V30 7426 C 701.086 -1.62636 0.0729879 0
M  V30 7427 O 702.275 -1.75621 0.319301 0
M  V30 7428 C 699.375 -3.31536 0.702651 0
M  V30 7429 C 698.548 -3.96693 1.84265 0
M  V30 7430 C 697.607 -5.07158 1.40277 0
M  V30 7431 O 696.633 -5.28628 2.11048 0
M  V30 7432 N 697.835 -5.79808 0.283449 0
M  V30 7433 H 700.6 -2.14981 2.08814 0
M  V30 7434 H 698.161 -1.05526 1.22784 0
M  V30 7435 H 700.153 -4.02804 0.391331 0
M  V30 7436 H 698.723 -3.12175 -0.162954 0
M  V30 7437 H 697.943 -3.1856 2.32192 0
M  V30 7438 H 699.231 -4.36964 2.60653 0
M  V30 7439 H 698.629 -5.64871 -0.306189 0
M  V30 7440 H 697.186 -6.51792 0.0315985 0
M  V30 7441 N 700.619 -1.13374 -1.09472 0
M  V30 7442 C 701.867 -0.893422 -1.8128 0
M  V30 7443 C 702.188 0.582029 -1.86111 0
M  V30 7444 O 701.458 1.42305 -1.34633 0
M  V30 7445 H 700.038 -0.327543 -0.67136 0
M  V30 7446 H 702.7 -1.43018 -1.32408 0
M  V30 7447 H 701.796 -1.28374 -2.84476 0
M  V30 7448 N 702.098 1.27442 -0.927168 0
M  V30 7449 C 703.347 1.93679 -0.563146 0
M  V30 7450 C 703.66 1.73673 0.899837 0
M  V30 7451 O 704.866 2.34247 1.37262 0
M  V30 7452 C 703.322 3.46961 -0.95636 0
M  V30 7453 C 702.93 3.75724 -2.43999 0
M  V30 7454 C 704.674 4.19282 -0.663565 0
M  V30 7455 C 702.581 5.22378 -2.77263 0
M  V30 7456 H 701.511 0.725059 -0.206894 0
M  V30 7457 H 704.162 1.44743 -1.12791 0
M  V30 7458 H 702.544 3.94703 -0.320254 0
M  V30 7459 H 703.718 3.38741 -3.12396 0
M  V30 7460 H 702.033 3.16605 -2.70463 0
M  V30 7461 H 704.63 5.27265 -0.888596 0
M  V30 7462 H 704.973 4.14382 0.399198 0
M  V30 7463 H 705.506 3.7736 -1.25875 0
M  V30 7464 H 702.245 5.32367 -3.82446 0
M  V30 7465 H 701.765 5.6051 -2.13516 0
M  V30 7466 H 703.444 5.9025 -2.64979 0
M  V30 7467 N 703.576 0.692616 1.41565 0
M  V30 7468 C 704.825 0.219452 2.00503 0
M  V30 7469 C 705.138 -1.18683 1.55479 0
M  V30 7470 O 706.344 -1.75731 2.06956 0
M  V30 7471 C 704.8 0.341451 3.58277 0
M  V30 7472 C 704.408 1.75291 4.12283 0
M  V30 7473 C 706.152 -0.0720899 4.24439 0
M  V30 7474 C 704.059 1.82673 5.62481 0
M  V30 7475 H 702.989 0.0782874 0.749925 0
M  V30 7476 H 705.64 0.860386 1.62079 0
M  V30 7477 H 704.022 -0.367683 3.94289 0
M  V30 7478 H 705.196 2.49057 3.87695 0
M  V30 7479 H 703.511 2.11587 3.58636 0
M  V30 7480 H 706.108 -0.0373385 5.34687 0
M  V30 7481 H 706.451 -1.11034 4.0122 0
M  V30 7482 H 706.984 0.586663 3.9345 0
M  V30 7483 H 703.723 2.84539 5.90523 0
M  V30 7484 H 703.243 1.13288 5.89004 0
M  V30 7485 H 704.922 1.58827 6.27203 0
M  V30 7486 N 705.054 -1.51416 0.437162 0
M  V30 7487 C 706.284 -2.06204 -0.127859 0
M  V30 7488 C 706.692 -1.30463 -1.37026 0
M  V30 7489 O 706.035 -0.357516 -1.80187 0
M  V30 7490 C 706.097 -3.55783 -0.515632 0
M  V30 7491 C 705.761 -4.52776 0.619937 0
M  V30 7492 C 706.758 -4.98031 1.49201 0
M  V30 7493 C 704.443 -4.95878 0.800618 0
M  V30 7494 C 706.437 -5.85061 2.52947 0
M  V30 7495 C 704.124 -5.82699 1.84135 0
M  V30 7496 C 705.122 -6.27188 2.70416 0
M  V30 7497 O 704.81 -7.12284 3.72702 0
M  V30 7498 H 704.542 -0.675903 -0.011442 0
M  V30 7499 H 707.096 -1.95977 0.614986 0
M  V30 7500 H 705.326 -3.63793 -1.31118 0
M  V30 7501 H 707.015 -3.93087 -1.01179 0
M  V30 7502 H 707.781 -4.65426 1.36395 0
M  V30 7503 H 703.66 -4.60792 0.138617 0
M  V30 7504 H 707.204 -6.19708 3.20325 0
M  V30 7505 H 703.101 -6.14717 1.9696 0
M  V30 7506 H 703.869 -7.30462 3.69281 0
M  V30 7507 N 706.532 -0.168513 -1.56696 0
M  V30 7508 C 707.948 0.187686 -1.58493 0
M  V30 7509 C 708.148 1.63063 -1.18375 0
M  V30 7510 O 707.204 2.36142 -0.894042 0
M  V30 7511 C 708.517 -0.0905858 -3.00564 0
M  V30 7512 C 710.065 -0.028575 -3.12987 0
M  V30 7513 C 710.54 -0.279799 -4.57145 0
M  V30 7514 N 712.031 -0.227476 -4.62641 0
M  V30 7515 C 712.766 -0.396073 -5.7203 0
M  V30 7516 N 712.262 -0.623572 -6.89988 0
M  V30 7517 N 714.055 -0.332173 -5.61118 0
M  V30 7518 H 706.206 -1.11042 -1.81062 0
M  V30 7519 H 708.469 -0.441235 -0.839056 0
M  V30 7520 H 708.175 -1.09006 -3.34381 0
M  V30 7521 H 708.049 0.619078 -3.72085 0
M  V30 7522 H 710.436 0.961471 -2.78998 0
M  V30 7523 H 710.517 -0.770905 -2.43907 0
M  V30 7524 H 710.161 -1.26704 -4.91842 0
M  V30 7525 H 710.091 0.48311 -5.24379 0
M  V30 7526 H 712.582 -0.0571723 -3.77857 0
M  V30 7527 H 712.895 -0.741745 -7.69232 0
M  V30 7528 H 711.24 -0.660153 -6.91858 0
M  V30 7529 H 714.431 -0.155051 -4.67843 0
M  V30 7530 H 714.604 -0.466994 -6.46315 0
M  V30 7531 N 708.01 1.57248 0.105221 0
M  V30 7532 C 709.287 1.76566 0.841647 0
M  V30 7533 C 709.667 0.747566 1.9742 0
M  V30 7534 O 709.015 -0.225886 2.27381 0
M  V30 7535 C 709.225 3.22016 1.3456 0
M  V30 7536 C 710.573 3.84911 1.79244 0
M  V30 7537 O 711.597 3.25703 1.44207 0
M  V30 7538 O 710.456 4.89008 2.43995 0
M  V30 7539 H 707.55 0.723443 0.400698 0
M  V30 7540 H 710.096 1.69472 0.0878893 0
M  V30 7541 H 708.868 3.87644 0.533685 0
M  V30 7542 H 708.491 3.33703 2.16167 0
M  V30 7543 N 709.488 -0.375779 1.53054 0
M  V30 7544 C 710.418 -1.46598 1.81745 0
M  V30 7545 C 711.399 -1.56337 0.670286 0
M  V30 7546 O 712.584 -1.71071 0.919158 0
M  V30 7547 C 709.714 -2.84058 1.99821 0
M  V30 7548 C 708.668 -2.8915 3.15557 0
M  V30 7549 C 707.994 -4.29187 3.18908 0
M  V30 7550 C 709.294 -2.57595 4.54359 0
M  V30 7551 H 710.988 -1.22837 2.73041 0
M  V30 7552 H 708.534 -0.589485 1.31381 0
M  V30 7553 H 710.487 -3.60342 2.18475 0
M  V30 7554 H 709.211 -3.09184 1.05226 0
M  V30 7555 H 707.87 -2.15316 2.96706 0
M  V30 7556 H 707.518 -4.51374 2.2197 0
M  V30 7557 H 707.218 -4.33512 3.96662 0
M  V30 7558 H 708.742 -5.07359 3.39734 0
M  V30 7559 H 710.156 -3.23595 4.73243 0
M  V30 7560 H 708.553 -2.73252 5.34279 0
M  V30 7561 H 709.623 -1.52882 4.60169 0
M  V30 7562 N 710.966 -1.44241 -0.634997 0
M  V30 7563 C 711.913 -1.5081 -1.74714 0
M  V30 7564 C 712.883 -0.356147 -1.62237 0
M  V30 7565 O 714.068 -0.565848 -1.82216 0
M  V30 7566 C 711.208 -1.45458 -3.12947 0
M  V30 7567 C 710.321 -2.70998 -3.36428 0
M  V30 7568 C 709.456 -2.57507 -4.64611 0
M  V30 7569 C 708.495 -3.78229 -4.81258 0
M  V30 7570 N 707.632 -3.63438 -6.00714 0
M  V30 7571 H 712.472 -2.45832 -1.68436 0
M  V30 7572 H 710.009 -1.2201 -0.821706 0
M  V30 7573 H 711.967 -1.40347 -3.92885 0
M  V30 7574 H 710.597 -0.540058 -3.1825 0
M  V30 7575 H 709.649 -2.86312 -2.50458 0
M  V30 7576 H 710.961 -3.60619 -3.44609 0
M  V30 7577 H 710.115 -2.50207 -5.52703 0
M  V30 7578 H 708.854 -1.65441 -4.58782 0
M  V30 7579 H 707.859 -3.85918 -3.91596 0
M  V30 7580 H 709.084 -4.71327 -4.88904 0
M  V30 7581 H 707.03 -2.7412 -5.95982 0
M  V30 7582 H 706.947 -4.46672 -6.09934 0
M  V30 7583 H 708.215 -3.60022 -6.91378 0
M  V30 7584 N 712.444 0.87505 -1.31075 0
M  V30 7585 C 713.374 1.99775 -1.20881 0
M  V30 7586 C 714.355 1.69822 -0.0971612 0
M  V30 7587 O 715.54 1.92158 -0.280895 0
M  V30 7588 C 712.67 3.35163 -0.910118 0
M  V30 7589 C 711.624 3.79406 -1.98078 0
M  V30 7590 C 710.95 5.12197 -1.53488 0
M  V30 7591 C 712.25 3.97061 -3.39323 0
M  V30 7592 H 713.944 2.08562 -2.14808 0
M  V30 7593 H 711.49 1.00207 -1.03415 0
M  V30 7594 H 713.443 4.13237 -0.825423 0
M  V30 7595 H 712.167 3.26536 0.064822 0
M  V30 7596 H 710.826 3.03568 -2.05528 0
M  V30 7597 H 710.474 5.00007 -0.547941 0
M  V30 7598 H 710.174 5.4277 -2.2511 0
M  V30 7599 H 711.698 5.92785 -1.46417 0
M  V30 7600 H 713.112 4.65545 -3.34576 0
M  V30 7601 H 711.509 4.39025 -4.09118 0
M  V30 7602 H 712.579 3.00601 -3.80483 0
M  V30 7603 N 713.922 1.13953 1.08869 0
M  V30 7604 C 715.199 0.815768 1.77777 0
M  V30 7605 C 715.579 -0.691624 1.99449 0
M  V30 7606 O 714.927 -1.63085 1.60049 0
M  V30 7607 C 715.137 1.60916 3.09689 0
M  V30 7608 C 716.485 1.80549 3.84301 0
M  V30 7609 O 717.509 1.57562 3.19457 0
M  V30 7610 O 716.368 2.18946 5.00724 0
M  V30 7611 H 713.462 0.298445 0.771271 0
M  V30 7612 H 716.008 1.24446 1.15374 0
M  V30 7613 H 714.78 2.6333 2.89435 0
M  V30 7614 H 714.403 1.17578 3.79817 0
M  V30 7615 N 715.4 -1.26948 0.933913 0
M  V30 7616 C 716.348 -2.2862 0.428463 0
M  V30 7617 C 717.342 -1.62144 -0.490464 0
M  V30 7618 O 718.548 -1.76167 -0.36948 0
M  V30 7619 H 714.923 -0.742363 0.120003 0
M  V30 7620 H 716.894 -2.68659 1.29865 0
M  V30 7621 C 715.643 -3.46423 -0.29774 0
M  V30 7622 H 714.966 -3.97792 0.400183 0
M  V30 7623 H 716.406 -4.19505 -0.615736 0
M  V30 7624 C 714.865 -3.01017 -1.51295 0
M  V30 7625 O 715.395 -3.05226 -2.61151 0
M  V30 7626 N 713.601 -2.56442 -1.36696 0
M  V30 7627 H 713.148 -2.53217 -0.473178 0
M  V30 7628 H 713.106 -2.26424 -2.18127 0
M  V30 7629 N 716.879 -0.700114 -1.41195 0
M  V30 7630 C 718.125 -0.233351 -2.01453 0
M  V30 7631 C 718.458 1.16548 -1.55339 0
M  V30 7632 O 717.733 1.78756 -0.766575 0
M  V30 7633 C 718.016 -0.2961 -3.58881 0
M  V30 7634 C 717.869 -1.7322 -4.15108 0
M  V30 7635 C 719.188 0.341525 -4.38773 0
M  V30 7636 H 716.307 -0.0862667 -0.731934 0
M  V30 7637 H 718.949 -0.889693 -1.67882 0
M  V30 7638 H 717.099 0.262736 -3.87611 0
M  V30 7639 H 718.771 -2.34523 -3.97236 0
M  V30 7640 H 717.014 -2.2649 -3.69979 0
M  V30 7641 H 717.685 -1.7276 -5.24269 0
M  V30 7642 H 720.161 -0.134461 -4.15883 0
M  V30 7643 H 719.037 0.267098 -5.4825 0
M  V30 7644 H 719.298 1.42289 -4.18577 0
M  V30 7645 N 718.357 1.51182 -0.445186 0
M  V30 7646 C 719.29 2.24528 0.4077 0
M  V30 7647 C 720.268 1.26778 1.01814 0
M  V30 7648 O 721.452 1.55934 1.05909 0
M  V30 7649 C 718.579 3.00171 1.56892 0
M  V30 7650 C 717.625 4.12641 1.0784 0
M  V30 7651 S 718.458 5.35498 0.014049 0
M  V30 7652 C 719.614 6.14681 1.17975 0
M  V30 7653 H 719.847 2.96522 -0.214987 0
M  V30 7654 H 717.38 1.52681 -0.229781 0
M  V30 7655 H 719.338 3.44349 2.23459 0
M  V30 7656 H 717.999 2.27752 2.16304 0
M  V30 7657 H 717.192 4.64875 1.94698 0
M  V30 7658 H 716.794 3.70765 0.490852 0
M  V30 7659 H 719.086 6.44244 2.09658 0
M  V30 7660 H 720.029 7.04659 0.697222 0
M  V30 7661 H 720.437 5.46299 1.42187 0
M  V30 7662 N 719.835 0.176821 1.56605 0
M  V30 7663 C 720.765 -0.746841 2.21234 0
M  V30 7664 C 721.746 -1.23502 1.16967 0
M  V30 7665 O 722.931 -1.28718 1.45414 0
M  V30 7666 C 720.061 -1.97407 2.8574 0
M  V30 7667 C 719.015 -1.62153 3.96094 0
M  V30 7668 C 718.341 -2.92387 4.47676 0
M  V30 7669 C 719.641 -0.845353 5.15413 0
M  V30 7670 H 721.335 -0.208116 2.98676 0
M  V30 7671 H 718.881 -0.0986594 1.43662 0
M  V30 7672 H 720.834 -2.62531 3.2963 0
M  V30 7673 H 719.558 -2.53703 2.05676 0
M  V30 7674 H 718.217 -0.993964 3.52868 0
M  V30 7675 H 717.865 -3.46734 3.64396 0
M  V30 7676 H 717.565 -2.69551 5.22127 0
M  V30 7677 H 719.089 -3.5853 4.94255 0
M  V30 7678 H 720.503 -1.39929 5.55961 0
M  V30 7679 H 718.9 -0.715814 5.95815 0
M  V30 7680 H 719.97 0.157239 4.84645 0
M  V30 7681 N 721.313 -1.57302 -0.09688 0
M  V30 7682 C 722.59 -1.7701 -0.832272 0
M  V30 7683 C 722.97 -0.758025 -1.97021 0
M  V30 7684 O 722.318 0.213824 -2.27497 0
M  V30 7685 C 722.528 -3.22725 -1.32851 0
M  V30 7686 C 723.876 -3.85856 -1.772 0
M  V30 7687 O 724.9 -3.26464 -1.42478 0
M  V30 7688 O 723.759 -4.90295 -2.41398 0
M  V30 7689 H 720.853 -0.725558 -0.396856 0
M  V30 7690 H 723.399 -1.69516 -0.0789005 0
M  V30 7691 H 722.171 -3.87921 -0.51312 0
M  V30 7692 H 721.794 -3.34845 -2.14394 0
M  V30 7693 N 722.791 0.367657 -1.53252 0
M  V30 7694 C 723.754 1.43308 -1.78873 0
M  V30 7695 C 724.754 1.46671 -0.659115 0
M  V30 7696 O 725.944 1.47468 -0.927306 0
M  V30 7697 C 723.076 2.82442 -1.90892 0
M  V30 7698 H 724.269 1.21864 -2.74024 0
M  V30 7699 H 721.822 0.600668 -1.44297 0
M  V30 7700 H 722.557 3.09202 -0.978 0
M  V30 7701 H 722.342 2.81399 -2.73051 0
M  V30 7702 H 723.832 3.59601 -2.12314 0
M  V30 7703 N 724.269 1.44576 0.627338 0
M  V30 7704 C 725.179 1.54232 1.76776 0
M  V30 7705 C 726.195 0.427782 1.6866 0
M  V30 7706 O 727.371 0.685671 1.89369 0
M  V30 7707 C 724.436 1.48738 3.13174 0
M  V30 7708 C 723.497 2.71074 3.32893 0
M  V30 7709 C 722.73 2.65832 4.62784 0
M  V30 7710 O 722.953 1.72048 5.43834 0
M  V30 7711 O 721.887 3.56742 4.84787 0
M  V30 7712 H 725.713 2.50586 1.71582 0
M  V30 7713 H 723.298 1.26865 0.789028 0
M  V30 7714 H 725.18 1.48211 3.94476 0
M  V30 7715 H 723.855 0.555292 3.18902 0
M  V30 7716 H 722.762 2.77168 2.51254 0
M  V30 7717 H 724.095 3.63342 3.32029 0
M  V30 7718 N 725.747 -0.868086 1.31537 0
M  V30 7719 C 726.995 -1.61807 1.21091 0
M  V30 7720 C 727.316 -1.93631 -0.230623 0
M  V30 7721 O 726.586 -1.5846 -1.15183 0
M  V30 7722 H 725.166 -0.599854 0.445178 0
M  V30 7723 H 727.828 -1.03915 1.64887 0
M  V30 7724 H 726.924 -2.56088 1.78396 0
M  V30 7725 N 727.225 -1.14528 -1.08264 0
M  V30 7726 C 728.175 -0.802141 -2.13424 0
M  V30 7727 C 729.159 0.209362 -1.59532 0
M  V30 7728 O 730.351 0.0114859 -1.76996 0
M  V30 7729 C 727.48 -0.282938 -3.42132 0
M  V30 7730 C 726.566 -1.32405 -4.02902 0
M  V30 7731 N 726.957 -2.52861 -4.38058 0
M  V30 7732 C 725.255 -1.17462 -4.30254 0
M  V30 7733 C 725.956 -3.1952 -4.86088 0
M  V30 7734 N 724.932 -2.46921 -4.84284 0
M  V30 7735 H 728.734 -1.71843 -2.38426 0
M  V30 7736 H 726.248 -1.02936 -1.2561 0
M  V30 7737 H 728.245 -0.0188053 -4.16896 0
M  V30 7738 H 726.905 0.627533 -3.18578 0
M  V30 7739 H 727.916 -2.90078 -4.2904 0
M  V30 7740 H 724.593 -0.323283 -4.16246 0
M  V30 7741 H 725.983 -4.2223 -5.22658 0
M  V30 7742 N 728.703 1.26451 -0.940633 0
M  V30 7743 C 729.952 1.93071 -0.583656 0
M  V30 7744 C 730.265 1.74618 0.881366 0
M  V30 7745 O 731.471 2.35689 1.34769 0
M  V30 7746 C 729.927 3.45927 -0.993106 0
M  V30 7747 C 729.535 3.73115 -2.4797 0
M  V30 7748 C 731.279 4.18554 -0.707998 0
M  V30 7749 C 729.186 5.19408 -2.82788 0
M  V30 7750 H 728.116 0.722824 -0.214572 0
M  V30 7751 H 730.767 1.43538 -1.1432 0
M  V30 7752 H 729.149 3.94341 -0.362099 0
M  V30 7753 H 730.323 3.35408 -3.15971 0
M  V30 7754 H 728.638 3.13719 -2.73805 0
M  V30 7755 H 731.235 5.26293 -0.94447 0
M  V30 7756 H 731.578 4.14782 0.355225 0
M  V30 7757 H 732.111 3.76003 -1.2987 0
M  V30 7758 H 728.85 5.28281 -3.88071 0
M  V30 7759 H 728.37 5.58214 -2.19449 0
M  V30 7760 H 730.049 5.87407 -2.71224 0
M  V30 7761 N 730.181 0.707592 1.40822 0
M  V30 7762 C 731.128 0.0499029 2.30746 0
M  V30 7763 C 732.098 -0.758718 1.47759 0
M  V30 7764 O 733.283 -0.724299 1.76518 0
M  V30 7765 C 730.423 -0.871756 3.33908 0
M  V30 7766 C 729.536 -0.0534655 4.31967 0
M  V30 7767 C 728.671 -0.973869 5.22197 0
M  V30 7768 C 727.71 -0.149194 6.11918 0
M  V30 7769 N 726.847 -1.02404 6.94592 0
M  V30 7770 H 731.687 0.822461 2.86426 0
M  V30 7771 H 729.224 0.417285 1.41057 0
M  V30 7772 H 731.182 -1.42028 3.9228 0
M  V30 7773 H 729.812 -1.61058 2.7975 0
M  V30 7774 H 728.864 0.612142 3.75442 0
M  V30 7775 H 730.176 0.585354 4.95353 0
M  V30 7776 H 729.33 -1.59121 5.85462 0
M  V30 7777 H 728.069 -1.64652 4.59065 0
M  V30 7778 H 727.074 0.481137 5.47691 0
M  V30 7779 H 728.299 0.519841 6.77107 0
M  V30 7780 H 726.245 -1.6825 6.34057 0
M  V30 7781 H 726.162 -0.441076 7.54712 0
M  V30 7782 H 727.43 -1.62782 7.62314 0
M  V30 7783 N 731.66 -1.50943 0.453197 0
M  V30 7784 C 732.909 -2.01402 -0.10951 0
M  V30 7785 C 733.222 -1.3411 -1.42386 0
M  V30 7786 O 734.428 -1.75626 -2.07045 0
M  V30 7787 C 732.884 -3.5906 -0.245693 0
M  V30 7788 C 732.492 -4.353 1.05916 0
M  V30 7789 C 734.236 -4.17617 -0.761318 0
M  V30 7790 C 732.143 -5.84699 0.887752 0
M  V30 7791 H 731.073 -0.752674 -0.0447013 0
M  V30 7792 H 733.724 -1.73913 0.585375 0
M  V30 7793 H 732.106 -3.83062 -1.00395 0
M  V30 7794 H 733.28 -4.23034 1.82698 0
M  V30 7795 H 731.595 -3.88269 1.50452 0
M  V30 7796 H 734.192 -5.26963 -0.906306 0
M  V30 7797 H 734.535 -3.77824 -1.74799 0
M  V30 7798 H 735.068 -3.97753 -0.0609416 0
M  V30 7799 H 731.807 -6.28933 1.84726 0
M  V30 7800 H 731.327 -5.99587 0.160006 0
M  V30 7801 H 733.006 -6.44682 0.547223 0
M  V30 7802 N 733.138 -0.185124 -1.56509 0
M  V30 7803 C 734.366 0.462139 -2.01673 0
M  V30 7804 C 734.781 1.55873 -1.06532 0
M  V30 7805 O 734.138 1.82371 -0.0684805 0
M  V30 7806 C 734.189 1.0277 -3.46584 0
M  V30 7807 O 733.91 -0.0251296 -4.38093 0
M  V30 7808 C 735.411 1.75183 -4.07217 0
M  V30 7809 H 732.631 0.117001 -0.660721 0
M  V30 7810 H 735.175 -0.290905 -2.0242 0
M  V30 7811 H 733.33 1.73118 -3.46568 0
M  V30 7812 H 733.744 0.394387 -5.23015 0
M  V30 7813 H 735.218 2.09999 -5.10494 0
M  V30 7814 H 735.695 2.6519 -3.50101 0
M  V30 7815 H 736.301 1.09445 -4.10977 0
M  V30 7816 N 734.616 1.57351 0.0885366 0
M  V30 7817 C 735.893 1.77449 0.822873 0
M  V30 7818 C 736.273 0.768463 1.96616 0
M  V30 7819 O 735.621 -0.201757 2.27608 0
M  V30 7820 C 735.831 3.23425 1.31137 0
M  V30 7821 C 737.179 3.86791 1.75152 0
M  V30 7822 O 738.203 3.27215 1.40745 0
M  V30 7823 O 737.062 4.91568 2.38794 0
M  V30 7824 H 734.156 0.727653 0.393002 0
M  V30 7825 H 736.702 1.69556 0.0699095 0
M  V30 7826 H 735.474 3.88188 0.49254 0
M  V30 7827 H 735.097 3.35977 2.12615 0
M  V30 7828 N 736.094 -0.359525 1.53444 0
M  V30 7829 C 737.341 -1.10152 1.6992 0
M  V30 7830 C 737.669 -1.89125 0.4541 0
M  V30 7831 O 736.924 -1.87396 -0.564023 0
M  V30 7832 C 737.223 -2.08287 2.90433 0
M  V30 7833 C 736.889 -1.45749 4.26694 0
M  V30 7834 C 735.551 -1.28421 4.63747 0
M  V30 7835 C 737.903 -1.00557 5.11408 0
M  V30 7836 C 735.231 -0.644951 5.83144 0
M  V30 7837 C 737.583 -0.380288 6.31456 0
M  V30 7838 C 736.247 -0.194557 6.67216 0
M  V30 7839 H 735.517 -0.403076 0.621781 0
M  V30 7840 H 738.164 -0.382612 1.87639 0
M  V30 7841 H 736.469 -2.86503 2.67251 0
M  V30 7842 H 738.166 -2.65662 3.00374 0
M  V30 7843 H 734.756 -1.6023 3.97523 0
M  V30 7844 H 738.94 -1.12735 4.83326 0
M  V30 7845 H 734.196 -0.48952 6.09437 0
M  V30 7846 H 738.37 -0.0219455 6.96397 0
M  V30 7847 H 735.997 0.30285 7.59597 0
M  V30 7848 N 737.572 -1.44907 -0.619662 0
M  V30 7849 C 738.82 -1.47999 -1.37625 0
M  V30 7850 C 739.141 -0.118295 -1.94641 0
M  V30 7851 O 738.411 0.85086 -1.76457 0
M  V30 7852 H 736.991 -0.544993 -0.510873 0
M  V30 7853 H 739.653 -1.80772 -0.728522 0
M  V30 7854 H 738.749 -2.21196 -2.20179 0
M  V30 7855 N 739.05 0.861098 -1.31996 0
M  V30 7856 C 739.983 1.97266 -1.14724 0
M  V30 7857 C 740.961 1.62528 -0.0483789 0
M  V30 7858 O 742.145 1.87366 -0.206478 0
M  V30 7859 C 739.272 3.30181 -0.754861 0
M  V30 7860 C 738.318 3.839 -1.85804 0
M  V30 7861 S 739.151 4.08274 -3.46515 0
M  V30 7862 C 740.307 5.44174 -3.09235 0
M  V30 7863 H 740.54 2.11614 -2.08822 0
M  V30 7864 H 738.073 1.01232 -1.16582 0
M  V30 7865 H 740.031 4.06996 -0.535232 0
M  V30 7866 H 738.692 3.13655 0.167155 0
M  V30 7867 H 737.885 4.80013 -1.53633 0
M  V30 7868 H 737.487 3.13907 -2.03318 0
M  V30 7869 H 739.779 6.26172 -2.58679 0
M  V30 7870 H 740.722 5.81301 -4.04345 0
M  V30 7871 H 741.13 5.0787 -2.46431 0
M  V30 7872 N 740.528 1.15101 1.07655 0
M  V30 7873 C 741.768 0.934462 1.81789 0
M  V30 7874 C 742.132 -0.529101 1.84566 0
M  V30 7875 O 743.333 -0.863868 2.5454 0
M  V30 7876 C 741.604 1.52817 3.23082 0
M  V30 7877 S 743.163 1.45429 4.14 0
M  V30 7878 H 739.981 0.336379 0.626395 0
M  V30 7879 H 742.583 1.46593 1.29347 0
M  V30 7880 H 741.287 2.58635 3.18647 0
M  V30 7881 H 740.818 0.995432 3.80598 0
M  V30 7882 H 742.833 0.445058 4.942 0
M  V30 7883 N 742.006 -1.2595 0.947325 0
M  V30 7884 C 742.953 -2.26159 0.460497 0
M  V30 7885 C 743.923 -1.58919 -0.483125 0
M  V30 7886 O 745.108 -1.86603 -0.397983 0
M  V30 7887 C 742.248 -3.441 -0.26247 0
M  V30 7888 C 741.361 -4.25999 0.717539 0
M  V30 7889 C 740.496 -5.31193 -0.0272486 0
M  V30 7890 C 739.535 -6.04774 0.944177 0
M  V30 7891 N 738.672 -7.01721 0.230741 0
M  V30 7892 H 743.512 -2.67173 1.31995 0
M  V30 7893 H 741.049 -1.31358 0.662088 0
M  V30 7894 H 743.007 -4.11317 -0.698137 0
M  V30 7895 H 741.637 -3.03983 -1.08602 0
M  V30 7896 H 740.689 -3.58513 1.27171 0
M  V30 7897 H 742.001 -4.76981 1.45913 0
M  V30 7898 H 741.155 -6.04451 -0.521903 0
M  V30 7899 H 739.894 -4.81066 -0.801682 0
M  V30 7900 H 738.899 -5.30338 1.4499 0
M  V30 7901 H 740.124 -6.56991 1.71872 0
M  V30 7902 H 738.07 -6.53895 -0.525088 0
M  V30 7903 H 737.987 -7.50484 0.911556 0
M  V30 7904 H 739.255 -7.79122 -0.242616 0
M  V30 7905 N 743.484 -0.715051 -1.40445 0
M  V30 7906 C 744.394 -0.0631624 -2.34515 0
M  V30 7907 C 745.41 0.744397 -1.57273 0
M  V30 7908 O 746.586 0.677475 -1.89663 0
M  V30 7909 C 743.651 0.847915 -3.36172 0
M  V30 7910 C 742.712 0.0303655 -4.29289 0
M  V30 7911 C 741.945 0.898051 -5.2609 0
M  V30 7912 O 742.168 2.13729 -5.28844 0
M  V30 7913 O 741.102 0.337328 -6.00954 0
M  V30 7914 H 744.928 -0.839078 -2.91879 0
M  V30 7915 H 742.513 -0.475527 -1.4163 0
M  V30 7916 H 744.395 1.3698 -3.98515 0
M  V30 7917 H 743.07 1.60299 -2.81222 0
M  V30 7918 H 741.977 -0.536573 -3.70232 0
M  V30 7919 H 743.31 -0.686474 -4.87389 0
M  V30 7920 N 744.962 1.50701 -0.461195 0
M  V30 7921 C 745.91 2.29918 0.352231 0
M  V30 7922 C 746.904 1.36778 0.999403 0
M  V30 7923 O 748.11 1.54015 0.931639 0
M  V30 7924 H 744.485 0.740249 0.132423 0
M  V30 7925 H 746.456 2.96497 -0.336424 0
M  V30 7926 C 745.205 3.17052 1.42736 0
M  V30 7927 H 744.528 3.88623 0.938747 0
M  V30 7928 H 745.968 3.75493 1.96928 0
M  V30 7929 C 744.427 2.3399 2.42384 0
M  V30 7930 O 744.957 2.01608 3.47444 0
M  V30 7931 N 743.163 1.96758 2.13857 0
M  V30 7932 H 742.71 2.23292 1.28447 0
M  V30 7933 H 742.668 1.41484 2.80766 0
M  V30 7934 N 746.441 0.193421 1.56409 0
M  V30 7935 C 747.687 -0.446449 1.97825 0
M  V30 7936 C 748.02 -1.61386 1.08019 0
M  V30 7937 O 747.295 -1.94053 0.131839 0
M  V30 7938 C 747.578 -0.908199 3.48459 0
M  V30 7939 C 747.431 0.260914 4.49043 0
M  V30 7940 C 748.75 -1.77428 4.0275 0
M  V30 7941 H 745.869 -0.160807 0.719243 0
M  V30 7942 H 748.511 0.284006 1.87865 0
M  V30 7943 H 746.661 -1.53062 3.57077 0
M  V30 7944 H 748.333 0.898548 4.52464 0
M  V30 7945 H 746.576 0.912949 4.24085 0
M  V30 7946 H 747.247 -0.104657 5.51901 0
M  V30 7947 H 749.723 -1.24936 3.96901 0
M  V30 7948 H 748.599 -2.06633 5.08521 0
M  V30 7949 H 748.86 -2.72788 3.47907 0
M  V30 7950 N 747.919 -1.57396 -0.0801906 0
M  V30 7951 C 749.166 -1.86836 -0.780927 0
M  V30 7952 C 749.494 -0.784012 -1.77999 0
M  V30 7953 O 748.749 0.220881 -1.94449 0
M  V30 7954 C 749.048 -3.22915 -1.53169 0
M  V30 7955 C 748.714 -4.45843 -0.67339 0
M  V30 7956 C 747.376 -4.79213 -0.436829 0
M  V30 7957 C 749.728 -5.21142 -0.0776786 0
M  V30 7958 C 747.056 -5.853 0.405062 0
M  V30 7959 C 749.408 -6.28119 0.751619 0
M  V30 7960 C 748.072 -6.59995 0.998131 0
M  V30 7961 H 747.342 -0.683682 -0.285761 0
M  V30 7962 H 749.989 -1.91454 -0.0419435 0
M  V30 7963 H 748.294 -3.14049 -2.34265 0
M  V30 7964 H 749.991 -3.42926 -2.07853 0
M  V30 7965 H 746.581 -4.19721 -0.867891 0
M  V30 7966 H 750.765 -4.95682 -0.247572 0
M  V30 7967 H 746.021 -6.084 0.60488 0
M  V30 7968 H 750.195 -6.8563 1.22 0
M  V30 7969 H 747.822 -7.42027 1.65227 0
M  V30 7970 N 749.397 0.351382 -1.53633 0
M  V30 7971 C 750.808 0.927429 -1.62036 0
M  V30 7972 C 751.159 1.89809 -0.496706 0
M  V30 7973 O 750.284 2.1313 0.374749 0
M  V30 7974 C 750.879 1.68886 -2.93706 0
M  V30 7975 C 749.438 2.21404 -3.04397 0
M  V30 7976 C 748.585 1.03075 -2.57431 0
M  V30 7977 H 751.536 0.129748 -1.58169 0
M  V30 7978 H 751.557 2.55116 -2.82305 0
M  V30 7979 H 751.069 0.982149 -3.75467 0
M  V30 7980 H 749.17 2.95274 -2.27253 0
M  V30 7981 H 749.283 2.48312 -4.09729 0
M  V30 7982 H 747.647 1.40188 -2.12649 0
M  V30 7983 H 748.43 0.338793 -3.41624 0
M  V30 7984 N 750.875 1.45233 0.611969 0
M  V30 7985 C 752.123 1.48727 1.36838 0
M  V30 7986 C 752.444 0.128616 1.94575 0
M  V30 7987 O 751.714 -0.84149 1.76906 0
M  V30 7988 H 750.294 0.547695 0.507976 0
M  V30 7989 H 752.956 1.81156 0.718925 0
M  V30 7990 H 752.052 2.2236 2.19003 0
M  V30 7991 N 752.353 -0.854086 1.3245 0
M  V30 7992 C 753.581 -1.64074 1.26045 0
M  V30 7993 C 753.996 -1.8802 -0.171456 0
M  V30 7994 O 753.353 -1.4496 -1.10873 0
M  V30 7995 C 753.404 -2.9997 2.01743 0
M  V30 7996 O 753.125 -2.77084 3.39346 0
M  V30 7997 C 754.626 -3.94414 2.02368 0
M  V30 7998 H 751.846 -0.511015 0.434862 0
M  V30 7999 H 754.39 -1.06494 1.74583 0
M  V30 8000 H 752.545 -3.54193 1.56926 0
M  V30 8001 H 752.959 -3.63514 3.78098 0
M  V30 8002 H 754.433 -4.87032 2.59815 0
M  V30 8003 H 754.91 -4.27427 1.01009 0
M  V30 8004 H 755.516 -3.46127 2.47135 0
M  V30 8005 N 753.831 -1.1567 -1.07043 0
M  V30 8006 C 755.059 -0.957471 -1.83412 0
M  V30 8007 C 755.474 0.494271 -1.82215 0
M  V30 8008 O 754.831 1.34288 -1.23584 0
M  V30 8009 C 754.882 -1.46784 -3.30359 0
M  V30 8010 O 754.603 -2.86271 -3.31633 0
M  V30 8011 C 756.104 -1.31054 -4.23485 0
M  V30 8012 H 753.324 -0.33986 -0.578564 0
M  V30 8013 H 755.868 -1.53518 -1.35102 0
M  V30 8014 H 754.023 -0.932586 -3.76007 0
M  V30 8015 H 754.437 -3.0948 -4.23465 0
M  V30 8016 H 755.911 -1.71605 -5.24648 0
M  V30 8017 H 756.388 -0.255107 -4.38458 0
M  V30 8018 H 756.994 -1.83503 -3.83676 0
M  V30 8019 N 755.309 1.25446 -0.953992 0
M  V30 8020 C 756.537 1.97215 -0.625595 0
M  V30 8021 C 756.952 1.70911 0.802168 0
M  V30 8022 O 756.309 0.984782 1.5365 0
M  V30 8023 C 756.36 3.50777 -0.873943 0
M  V30 8024 O 756.081 3.76173 -2.24556 0
M  V30 8025 C 757.582 4.39776 -0.557845 0
M  V30 8026 H 754.802 0.628652 -0.2346 0
M  V30 8027 H 757.346 1.59632 -1.27819 0
M  V30 8028 H 755.501 3.86474 -0.267765 0
M  V30 8029 H 755.915 4.70636 -2.31522 0
M  V30 8030 H 757.389 5.46431 -0.782157 0
M  V30 8031 H 757.866 4.36257 0.507573 0
M  V30 8032 H 758.472 4.09644 -1.14332 0
M  V30 8033 N 756.787 0.722489 1.40064 0
M  V30 8034 C 758.203 0.396758 1.5459 0
M  V30 8035 C 758.403 -1.09375 1.69232 0
M  V30 8036 O 757.459 -1.87984 1.68578 0
M  V30 8037 C 758.772 1.16885 2.77053 0
M  V30 8038 C 760.32 1.15583 2.90877 0
M  V30 8039 C 760.795 1.91023 4.16262 0
M  V30 8040 N 762.286 1.88126 4.23276 0
M  V30 8041 C 763.021 2.43315 5.19216 0
M  V30 8042 N 762.517 3.07089 6.21022 0
M  V30 8043 N 764.31 2.33418 5.11344 0
M  V30 8044 H 756.461 1.68887 1.28806 0
M  V30 8045 H 758.724 0.714231 0.62336 0
M  V30 8046 H 758.43 2.22301 2.72534 0
M  V30 8047 H 758.304 0.765011 3.69361 0
M  V30 8048 H 760.691 0.10984 2.94896 0
M  V30 8049 H 760.772 1.59895 1.99668 0
M  V30 8050 H 760.416 2.95616 4.13006 0
M  V30 8051 H 760.346 1.44126 5.06493 0
M  V30 8052 H 762.837 1.41654 3.50346 0
M  V30 8053 H 763.15 3.467 6.90666 0
M  V30 8054 H 761.495 3.11175 6.21446 0
M  V30 8055 H 764.686 1.83248 4.30741 0
M  V30 8056 H 764.859 2.7673 5.85939 0
M  V30 8057 N 758.265 -1.50454 0.469181 0
M  V30 8058 C 759.493 -2.06729 -0.0842134 0
M  V30 8059 C 759.908 -1.33326 -1.33677 0
M  V30 8060 O 759.265 -0.401977 -1.78018 0
M  V30 8061 C 759.316 -3.59557 -0.374253 0
M  V30 8062 O 759.037 -4.30192 0.828622 0
M  V30 8063 C 760.538 -4.32449 -0.974824 0
M  V30 8064 H 757.758 -0.670971 0.006231 0
M  V30 8065 H 760.302 -1.93645 0.657415 0
M  V30 8066 H 758.457 -3.7245 -1.06581 0
M  V30 8067 H 758.871 -5.21371 0.572066 0
M  V30 8068 H 760.345 -5.40361 -1.12755 0
M  V30 8069 H 760.822 -3.92819 -1.96442 0
M  V30 8070 H 761.428 -4.24082 -0.321703 0
M  V30 8071 N 759.743 -0.201713 -1.56304 0
M  V30 8072 C 760.99 0.435307 -1.97766 0
M  V30 8073 C 761.318 1.61169 -1.0888 0
M  V30 8074 O 760.573 1.95272 -0.12934 0
M  V30 8075 C 760.872 0.931432 -3.45049 0
M  V30 8076 C 760.538 -0.132287 -4.50706 0
M  V30 8077 C 759.2 -0.424552 -4.79323 0
M  V30 8078 C 761.552 -0.852703 -5.14177 0
M  V30 8079 C 758.88 -1.4421 -5.68701 0
M  V30 8080 C 761.232 -1.85944 -6.04655 0
M  V30 8081 C 759.896 -2.15884 -6.31625 0
M  V30 8082 H 759.166 0.15929 -0.723676 0
M  V30 8083 H 761.813 -0.300069 -1.89134 0
M  V30 8084 H 760.118 1.7452 -3.50785 0
M  V30 8085 H 761.815 1.43383 -3.74489 0
M  V30 8086 H 758.405 0.105671 -4.2847 0
M  V30 8087 H 762.589 -0.640139 -4.92154 0
M  V30 8088 H 757.845 -1.6799 -5.87869 0
M  V30 8089 H 762.019 -2.42286 -6.52894 0
M  V30 8090 H 759.646 -2.94875 -7.0068 0
M  V30 8091 N 761.222 1.57436 0.0718424 0
M  V30 8092 C 762.462 1.89082 0.776351 0
M  V30 8093 C 762.826 0.795494 1.74745 0
M  V30 8094 O 764.027 0.995025 2.49705 0
M  V30 8095 C 762.298 3.25958 1.46582 0
M  V30 8096 S 763.857 3.79352 2.2054 0
M  V30 8097 H 760.675 0.662472 0.25817 0
M  V30 8098 H 763.277 1.95473 0.0324536 0
M  V30 8099 H 761.981 4.03577 0.745237 0
M  V30 8100 H 761.512 3.22764 2.24915 0
M  V30 8101 H 763.527 3.54634 3.47058 0
M  V30 8102 N 762.7 -0.34323 1.53817 0
M  V30 8103 C 763.948 -1.0813 1.70741 0
M  V30 8104 C 764.269 -1.89165 0.473461 0
M  V30 8105 O 763.539 -1.89075 -0.512605 0
M  V30 8106 H 762.119 -0.40219 0.629486 0
M  V30 8107 H 764.781 -0.384426 1.91071 0
M  V30 8108 H 763.877 -1.7585 2.57843 0
M  V30 8109 N 764.178 -1.45556 -0.604258 0
M  V30 8110 C 765.406 -1.53278 -1.38973 0
M  V30 8111 C 765.821 -0.166509 -1.88064 0
M  V30 8112 O 765.178 0.832519 -1.62405 0
M  V30 8113 C 765.229 -2.51992 -2.59195 0
M  V30 8114 O 764.95 -3.8331 -2.12143 0
M  V30 8115 C 766.451 -2.69445 -3.52015 0
M  V30 8116 H 763.671 -0.519003 -0.425297 0
M  V30 8117 H 766.215 -1.90773 -0.736621 0
M  V30 8118 H 764.37 -2.17561 -3.2054 0
M  V30 8119 H 764.784 -4.3685 -2.90279 0
M  V30 8120 H 766.258 -3.42485 -4.32907 0
M  V30 8121 H 766.735 -1.75596 -4.0257 0
M  V30 8122 H 767.341 -3.04886 -2.9652 0
M  V30 8123 N 765.656 0.84705 -1.32902 0
M  V30 8124 C 767.067 1.41785 -1.21466 0
M  V30 8125 C 767.418 1.95464 0.169767 0
M  V30 8126 O 766.543 1.88157 1.06892 0
M  V30 8127 C 767.138 2.57734 -2.19906 0
M  V30 8128 C 765.697 3.10791 -2.12334 0
M  V30 8129 C 764.844 1.83562 -2.07847 0
M  V30 8130 H 767.795 0.653532 -1.44619 0
M  V30 8131 H 767.816 3.35123 -1.80202 0
M  V30 8132 H 767.328 2.18635 -3.20656 0
M  V30 8133 H 765.429 3.54455 -1.14858 0
M  V30 8134 H 765.542 3.71519 -3.02506 0
M  V30 8135 H 763.906 2.03475 -1.53199 0
M  V30 8136 H 764.689 1.4667 -3.10392 0
M  V30 8137 N 767.134 1.16236 1.06428 0
M  V30 8138 C 768.411 0.853294 1.76006 0
M  V30 8139 C 768.791 -0.649162 2.00871 0
M  V30 8140 O 768.139 -1.59653 1.63472 0
M  V30 8141 C 768.349 1.67448 3.06206 0
M  V30 8142 C 769.697 1.8866 3.80385 0
M  V30 8143 O 770.721 1.64303 3.16043 0
M  V30 8144 O 769.58 2.29518 4.95968 0
M  V30 8145 H 766.674 0.314737 0.764767 0
M  V30 8146 H 769.22 1.26865 1.12709 0
M  V30 8147 H 767.992 2.69411 2.83784 0
M  V30 8148 H 767.615 1.25608 3.77238 0
M  V30 8149 N 768.612 -1.24939 0.960631 0
M  V30 8150 C 769.842 -1.96595 0.635123 0
M  V30 8151 C 770.25 -1.71538 -0.798206 0
M  V30 8152 O 769.593 -0.991727 -1.5463 0
M  V30 8153 C 769.655 -3.49994 0.821248 0
M  V30 8154 C 769.319 -3.98738 2.23287 0
M  V30 8155 C 770.316 -4.08965 3.21004 0
M  V30 8156 C 768.001 -4.32247 2.55867 0
M  V30 8157 C 769.995 -4.52025 4.49391 0
M  V30 8158 C 767.682 -4.74991 3.84482 0
M  V30 8159 C 768.68 -4.84844 4.81056 0
M  V30 8160 O 768.368 -5.26638 6.07378 0
M  V30 8161 H 768.1 -0.633265 0.23654 0
M  V30 8162 H 770.654 -1.5991 1.28911 0
M  V30 8163 H 768.884 -3.86543 0.110105 0
M  V30 8164 H 770.573 -4.02859 0.495892 0
M  V30 8165 H 771.339 -3.83302 2.97161 0
M  V30 8166 H 767.218 -4.23801 1.81421 0
M  V30 8167 H 770.762 -4.5963 5.24773 0
M  V30 8168 H 766.659 -5.00101 4.08129 0
M  V30 8169 H 767.427 -5.44807 6.10842 0
M  V30 8170 N 770.09 -0.729906 -1.39679 0
M  V30 8171 C 771.339 -0.272534 -1.9985 0
M  V30 8172 C 771.652 1.14519 -1.58571 0
M  V30 8173 O 772.858 1.70182 -2.11543 0
M  V30 8174 C 771.314 -0.436322 -3.57245 0
M  V30 8175 C 770.922 -1.86161 -4.0749 0
M  V30 8176 C 772.666 -0.0404679 -4.24481 0
M  V30 8177 C 770.573 -1.97522 -5.5744 0
M  V30 8178 H 769.503 -0.0981428 -0.747585 0
M  V30 8179 H 772.154 -0.903056 -1.59741 0
M  V30 8180 H 770.536 0.263015 -3.95126 0
M  V30 8181 H 771.71 -2.59248 -3.80955 0
M  V30 8182 H 770.025 -2.21021 -3.529 0
M  V30 8183 H 772.622 -0.104437 -5.34598 0
M  V30 8184 H 772.965 1.00357 -4.04023 0
M  V30 8185 H 773.498 -0.690774 -3.91757 0
M  V30 8186 H 770.237 -3.00096 -5.82771 0
M  V30 8187 H 769.757 -1.28864 -5.85794 0
M  V30 8188 H 771.436 -1.754 -6.22771 0
M  V30 8189 N 771.568 1.50203 -0.477153 0
M  V30 8190 C 772.531 2.27194 0.302599 0
M  V30 8191 C 773.531 1.32221 0.915112 0
M  V30 8192 O 774.721 1.55593 0.783348 0
M  V30 8193 C 771.853 3.0938 1.43167 0
M  V30 8194 H 773.046 2.97575 -0.372678 0
M  V30 8195 H 770.599 1.54578 -0.231392 0
M  V30 8196 H 771.334 2.43509 2.14182 0
M  V30 8197 H 771.119 3.79181 0.998197 0
M  V30 8198 H 772.609 3.67592 1.98157 0
M  V30 8199 N 773.046 0.209999 1.56195 0
M  V30 8200 C 774.457 -0.299943 1.84275 0
M  V30 8201 C 774.808 -1.60314 1.1311 0
M  V30 8202 O 773.933 -2.1273 0.396874 0
M  V30 8203 C 774.528 -0.550986 3.3429 0
M  V30 8204 C 773.087 -1.00526 3.62728 0
M  V30 8205 C 772.234 -0.0619828 2.77231 0
M  V30 8206 H 775.185 0.433458 1.52666 0
M  V30 8207 H 775.206 -1.39846 3.53869 0
M  V30 8208 H 774.718 0.397669 3.86057 0
M  V30 8209 H 772.819 -1.96768 3.16407 0
M  V30 8210 H 772.932 -0.887664 4.70805 0
M  V30 8211 H 771.296 -0.566648 2.48317 0
M  V30 8212 H 772.079 0.881383 3.31793 0
M  V30 8213 N 774.524 -1.57472 -0.0634922 0
M  V30 8214 C 775.434 -2.07621 -1.09227 0
M  V30 8215 C 776.45 -1.00746 -1.41867 0
M  V30 8216 O 777.626 -1.32269 -1.51878 0
M  V30 8217 C 774.691 -2.51707 -2.38421 0
M  V30 8218 C 773.752 -3.72917 -2.12676 0
M  V30 8219 C 772.985 -4.14891 -3.3571 0
M  V30 8220 O 773.208 -3.56663 -4.45137 0
M  V30 8221 O 772.142 -5.07616 -3.23434 0
M  V30 8222 H 775.968 -2.95612 -0.696205 0
M  V30 8223 H 773.553 -1.46787 -0.27819 0
M  V30 8224 H 775.435 -2.80547 -3.14438 0
M  V30 8225 H 774.11 -1.66842 -2.77391 0
M  V30 8226 H 773.017 -3.49148 -1.34337 0
M  V30 8227 H 774.35 -4.5866 -1.78583 0
M  V30 8228 N 776.003 0.335068 -1.53997 0
M  V30 8229 C 777.252 1.07182 -1.70865 0
M  V30 8230 C 777.565 1.89541 -0.483078 0
M  V30 8231 O 778.771 2.66219 -0.532879 0
M  V30 8232 C 777.227 1.95497 -3.02174 0
M  V30 8233 C 776.835 1.18304 -4.32097 0
M  V30 8234 C 778.579 2.68978 -3.28407 0
M  V30 8235 C 776.486 2.05699 -5.54474 0
M  V30 8236 H 775.416 0.403857 -0.636722 0
M  V30 8237 H 778.067 0.33076 -1.80494 0
M  V30 8238 H 776.449 2.73456 -2.86423 0
M  V30 8239 H 777.623 0.451969 -4.58578 0
M  V30 8240 H 775.938 0.565556 -4.12541 0
M  V30 8241 H 778.535 3.34651 -4.17029 0
M  V30 8242 H 778.878 3.36 -2.45784 0
M  V30 8243 H 779.411 1.98087 -3.44973 0
M  V30 8244 H 776.15 1.43204 -6.39666 0
M  V30 8245 H 775.67 2.76572 -5.32229 0
M  V30 8246 H 777.349 2.64554 -5.90441 0
M  V30 8247 N 777.481 1.45874 0.596531 0
M  V30 8248 C 778.73 1.49737 1.35135 0
M  V30 8249 C 779.043 0.147755 1.95041 0
M  V30 8250 O 780.249 0.0640984 2.71424 0
M  V30 8251 C 778.705 2.6378 2.44843 0
M  V30 8252 C 778.313 4.05102 1.91301 0
M  V30 8253 C 780.057 2.769 3.21755 0
M  V30 8254 C 777.964 5.10508 2.98557 0
M  V30 8255 H 776.894 0.557219 0.507959 0
M  V30 8256 H 779.545 1.72046 0.638147 0
M  V30 8257 H 777.927 2.34774 3.189 0
M  V30 8258 H 779.101 4.43836 1.2388 0
M  V30 8259 H 777.416 3.96528 1.271 0
M  V30 8260 H 780.013 3.52819 4.01775 0
M  V30 8261 H 780.356 1.83924 3.73467 0
M  V30 8262 H 780.889 3.05485 2.54802 0
M  V30 8263 H 777.628 6.0523 2.51749 0
M  V30 8264 H 777.148 4.76332 3.6451 0
M  V30 8265 H 778.827 5.35745 3.62748 0
M  V30 8266 N 778.959 -0.83999 1.33349 0
M  V30 8267 C 779.922 -1.93128 1.23426 0
M  V30 8268 C 780.922 -1.60065 0.153599 0
M  V30 8269 O 782.112 -1.69425 0.405049 0
M  V30 8270 C 779.244 -3.28761 0.901622 0
M  V30 8271 H 780.437 -2.03352 2.20427 0
M  V30 8272 H 777.99 -1.03194 1.17391 0
M  V30 8273 H 778.725 -3.24233 -0.0659337 0
M  V30 8274 H 778.51 -3.54138 1.68311 0
M  V30 8275 H 780 -4.08714 0.856913 0
M  V30 8276 N 780.437 -1.16799 -1.0581 0
M  V30 8277 C 781.667 -0.975454 -1.82122 0
M  V30 8278 C 782.075 0.479584 -1.83021 0
M  V30 8279 O 781.418 1.34471 -1.25153 0
M  V30 8280 C 781.48 -1.43209 -3.29744 0
M  V30 8281 C 781.144 -2.908 -3.5254 0
M  V30 8282 C 782.141 -3.88775 -3.45181 0
M  V30 8283 C 779.826 -3.28832 -3.79703 0
M  V30 8284 C 781.82 -5.22782 -3.64661 0
M  V30 8285 C 779.507 -4.63007 -3.98832 0
M  V30 8286 C 780.505 -5.59791 -3.91309 0
M  V30 8287 O 780.193 -6.9154 -4.09911 0
M  V30 8288 H 779.925 -0.345655 -0.580947 0
M  V30 8289 H 782.479 -1.55355 -1.34365 0
M  V30 8290 H 780.709 -0.797504 -3.78387 0
M  V30 8291 H 782.398 -1.2062 -3.87564 0
M  V30 8292 H 783.164 -3.60738 -3.2418 0
M  V30 8293 H 779.043 -2.54073 -3.84666 0
M  V30 8294 H 782.587 -5.98312 -3.58705 0
M  V30 8295 H 778.484 -4.90752 -4.19324 0
M  V30 8296 H 779.252 -6.98188 -4.27172 0
M  V30 8297 N 781.915 1.24427 -0.967243 0
M  V30 8298 C 782.847 2.24641 -0.454856 0
M  V30 8299 C 783.86 1.56849 0.436152 0
M  V30 8300 O 785.049 1.76846 0.242401 0
M  V30 8301 C 782.149 3.36954 0.362672 0
M  V30 8302 C 781.322 4.34318 -0.518324 0
M  V30 8303 C 780.381 5.25638 0.243122 0
M  V30 8304 O 779.407 5.68043 -0.362791 0
M  V30 8305 N 780.609 5.59897 1.53282 0
M  V30 8306 H 783.374 2.69238 -1.31648 0
M  V30 8307 H 780.935 1.38464 -0.839015 0
M  V30 8308 H 782.927 3.95014 0.880094 0
M  V30 8309 H 781.497 2.91646 1.12522 0
M  V30 8310 H 780.717 3.74953 -1.21672 0
M  V30 8311 H 782.005 4.96338 -1.11919 0
M  V30 8312 H 781.403 5.27373 2.04682 0
M  V30 8313 H 779.96 6.20488 1.99594 0
M  V30 8314 N 783.393 0.737304 1.3929 0
M  V30 8315 C 784.804 0.355966 1.83275 0
M  V30 8316 C 785.155 -1.11295 1.6158 0
M  V30 8317 O 784.28 -1.85871 1.10819 0
M  V30 8318 C 784.875 0.63931 3.32713 0
M  V30 8319 C 783.434 0.31144 3.75109 0
M  V30 8320 C 782.581 0.900765 2.62262 0
M  V30 8321 H 785.532 0.934763 1.28249 0
M  V30 8322 H 785.553 -0.0881293 3.80398 0
M  V30 8323 H 785.065 1.70847 3.48472 0
M  V30 8324 H 783.166 -0.751791 3.64937 0
M  V30 8325 H 783.279 0.795611 4.72448 0
M  V30 8326 H 781.643 0.327239 2.52589 0
M  V30 8327 H 782.426 1.97463 2.80826 0
M  V30 8328 N 784.871 -1.49948 0.485112 0
M  V30 8329 C 786.101 -2.06506 -0.0621921 0
M  V30 8330 C 786.509 -1.34756 -1.32806 0
M  V30 8331 O 785.852 -0.41466 -1.78959 0
M  V30 8332 C 785.914 -3.57243 -0.402182 0
M  V30 8333 C 785.578 -4.50574 0.763671 0
M  V30 8334 C 786.575 -4.93032 1.6497 0
M  V30 8335 C 784.26 -4.9308 0.957973 0
M  V30 8336 C 786.254 -5.76718 2.71432 0
M  V30 8337 C 783.941 -5.76546 2.0258 0
M  V30 8338 C 784.939 -6.18267 2.90232 0
M  V30 8339 O 784.627 -7.00066 3.95174 0
M  V30 8340 H 784.359 -0.675925 0.0100672 0
M  V30 8341 H 786.913 -1.93922 0.677023 0
M  V30 8342 H 785.143 -3.6778 -1.19478 0
M  V30 8343 H 786.832 -3.96107 -0.886219 0
M  V30 8344 H 787.598 -4.60851 1.51134 0
M  V30 8345 H 783.477 -4.60117 0.285144 0
M  V30 8346 H 787.021 -6.09203 3.39878 0
M  V30 8347 H 782.918 -6.0814 2.16417 0
M  V30 8348 H 783.686 -7.18343 3.92333 0
M  V30 8349 N 786.349 -0.21828 -1.56081 0
M  V30 8350 C 787.597 0.413488 -1.97825 0
M  V30 8351 C 787.918 1.60527 -1.10707 0
M  V30 8352 O 787.188 1.9504 -0.183378 0
M  V30 8353 H 785.768 0.155757 -0.730581 0
M  V30 8354 H 788.43 -0.310413 -1.92412 0
M  V30 8355 H 787.526 0.742024 -3.03151 0
M  V30 8356 N 787.827 1.57504 0.0551401 0
M  V30 8357 C 788.774 2.04825 1.06373 0
M  V30 8358 C 789.744 0.932108 1.37481 0
M  V30 8359 O 790.929 1.20093 1.48265 0
M  V30 8360 C 788.069 2.51091 2.36743 0
M  V30 8361 C 787.182 3.76392 2.12021 0
M  V30 8362 C 786.317 4.11373 3.36074 0
M  V30 8363 C 785.356 5.29666 3.0679 0
M  V30 8364 N 784.493 5.60205 4.2322 0
M  V30 8365 H 789.333 2.90753 0.653216 0
M  V30 8366 H 786.87 1.43776 0.310951 0
M  V30 8367 H 788.828 2.75973 3.12881 0
M  V30 8368 H 787.458 1.68118 2.75565 0
M  V30 8369 H 786.51 3.58751 1.26498 0
M  V30 8370 H 787.822 4.62662 1.86401 0
M  V30 8371 H 786.976 4.37245 4.20597 0
M  V30 8372 H 785.715 3.23704 3.64784 0
M  V30 8373 H 784.72 5.03574 2.20664 0
M  V30 8374 H 785.945 6.18968 2.79385 0
M  V30 8375 H 783.891 4.75495 4.5193 0
M  V30 8376 H 783.808 6.40928 4.00933 0
M  V30 8377 H 785.076 5.90637 5.08692 0
M  V30 8378 N 789.305 -0.326896 1.54172 0
M  V30 8379 C 790.53 -1.08924 1.76494 0
M  V30 8380 C 790.955 -1.81039 0.510523 0
M  V30 8381 O 790.313 -1.73141 -0.537756 0
M  V30 8382 C 790.361 -2.06558 2.95578 0
M  V30 8383 O 789.465 -3.14394 2.6689 0
M  V30 8384 H 788.806 -0.314216 0.584948 0
M  V30 8385 H 791.336 -0.372207 2.01186 0
M  V30 8386 H 791.346 -2.49487 3.22832 0
M  V30 8387 H 790.021 -1.53469 3.86549 0
M  V30 8388 H 788.598 -2.76164 2.50576 0
M  V30 8389 N 790.784 -1.46188 -0.588786 0
M  V30 8390 C 792.03 -1.51407 -1.34921 0
M  V30 8391 C 792.363 -0.162771 -1.93517 0
M  V30 8392 O 791.638 0.825082 -1.76132 0
M  V30 8393 C 791.921 -2.60795 -2.48311 0
M  V30 8394 C 791.774 -4.05435 -1.94789 0
M  V30 8395 C 793.093 -2.66313 -3.50379 0
M  V30 8396 H 790.212 -0.551213 -0.489217 0
M  V30 8397 H 792.854 -1.78095 -0.661993 0
M  V30 8398 H 791.004 -2.3817 -3.06932 0
M  V30 8399 H 792.676 -4.39328 -1.40672 0
M  V30 8400 H 790.919 -4.15202 -1.25659 0
M  V30 8401 H 791.59 -4.77691 -2.76613 0
M  V30 8402 H 794.066 -2.86634 -3.01629 0
M  V30 8403 H 792.942 -3.44681 -4.27184 0
M  V30 8404 H 793.203 -1.72127 -4.07216 0
M  V30 8405 N 792.262 0.832906 -1.33792 0
M  V30 8406 C 793.539 1.57359 -1.16178 0
M  V30 8407 C 793.919 2.09372 0.269532 0
M  V30 8408 O 793.267 1.89993 1.26944 0
M  V30 8409 C 793.477 2.70279 -2.20795 0
M  V30 8410 C 794.825 3.39305 -2.55259 0
M  V30 8411 O 795.849 2.80526 -2.19508 0
M  V30 8412 O 794.708 4.45428 -3.16632 0
M  V30 8413 H 791.802 0.694025 -0.449731 0
M  V30 8414 H 794.348 0.875144 -1.45394 0
M  V30 8415 H 793.12 2.29527 -3.16911 0
M  V30 8416 H 792.743 3.47782 -1.927 0
M  V30 8417 N 793.74 1.17359 1.05189 0
M  V30 8418 C 794.986 0.973414 1.78595 0
M  V30 8419 C 795.341 -0.492713 1.85984 0
M  V30 8420 O 794.634 -1.361 1.3486 0
M  V30 8421 C 794.828 1.54821 3.22126 0
M  V30 8422 C 794.657 3.06871 3.28725 0
M  V30 8423 C 793.427 3.75602 3.38011 0
M  V30 8424 C 795.625 4.04467 3.17665 0
M  V30 8425 N 793.607 5.15257 3.33741 0
M  V30 8426 C 794.978 5.30574 3.20766 0
M  V30 8427 C 797.033 3.96138 3.01627 0
M  V30 8428 C 795.736 6.49319 3.09479 0
M  V30 8429 C 797.762 5.14467 2.91681 0
M  V30 8430 C 797.124 6.3946 2.95416 0
M  V30 8431 H 793.223 0.410092 0.665844 0
M  V30 8432 H 795.807 1.48944 1.25395 0
M  V30 8433 H 793.978 1.05853 3.73697 0
M  V30 8434 H 795.71 1.28467 3.83768 0
M  V30 8435 H 792.465 3.26282 3.43273 0
M  V30 8436 H 792.889 5.88263 3.35076 0
M  V30 8437 H 797.531 3.00345 2.97578 0
M  V30 8438 H 795.249 7.45322 3.12283 0
M  V30 8439 H 798.835 5.09803 2.80343 0
M  V30 8440 H 797.715 7.29483 2.87792 0
M  V30 8441 N 795.218 -1.23913 0.973828 0
M  V30 8442 C 796.464 -1.92747 0.649635 0
M  V30 8443 C 796.819 -1.7465 -0.807157 0
M  V30 8444 O 796.112 -1.09271 -1.57386 0
M  V30 8445 C 796.306 -3.4406 0.967356 0
M  V30 8446 C 796.135 -3.76874 2.45348 0
M  V30 8447 C 794.905 -3.97915 3.11435 0
M  V30 8448 C 797.103 -3.82871 3.43386 0
M  V30 8449 N 795.085 -4.1788 4.49722 0
M  V30 8450 C 796.456 -4.07751 4.67053 0
M  V30 8451 C 798.511 -3.65634 3.37958 0
M  V30 8452 C 797.214 -4.17185 5.8596 0
M  V30 8453 C 799.24 -3.76317 4.56223 0
M  V30 8454 C 798.602 -4.01628 5.78683 0
M  V30 8455 H 794.701 -0.72677 0.288667 0
M  V30 8456 H 797.285 -1.4928 1.24994 0
M  V30 8457 H 795.456 -3.86378 0.395804 0
M  V30 8458 H 797.188 -4.00211 0.601108 0
M  V30 8459 H 793.943 -3.94562 2.61949 0
M  V30 8460 H 794.367 -4.31829 5.21395 0
M  V30 8461 H 799.009 -3.45067 2.44312 0
M  V30 8462 H 796.727 -4.36562 6.80029 0
M  V30 8463 H 800.313 -3.64343 4.53592 0
M  V30 8464 H 799.193 -4.09699 6.68667 0
M  V30 8465 N 796.696 -0.74468 -1.38897 0
M  V30 8466 C 797.921 -0.306119 -2.05128 0
M  V30 8467 C 798.346 1.0541 -1.55789 0
M  V30 8468 O 797.704 1.66993 -0.705909 0
M  V30 8469 C 797.752 -0.328195 -3.59103 0
M  V30 8470 O 796.856 0.680876 -4.06741 0
M  V30 8471 H 796.197 -0.137209 -0.649669 0
M  V30 8472 H 798.727 -1.01331 -1.77745 0
M  V30 8473 H 798.737 -0.175956 -4.0762 0
M  V30 8474 H 797.412 -1.32067 -3.94374 0
M  V30 8475 H 795.989 0.49398 -3.69614 0
M  V30 8476 N 798.174 1.49689 -0.493057 0
M  V30 8477 C 799.421 2.02427 0.0542714 0
M  V30 8478 C 799.749 1.37339 1.37725 0
M  V30 8479 O 799.004 0.495523 1.89323 0
M  V30 8480 C 799.303 3.56427 0.263536 0
M  V30 8481 C 798.969 4.40111 -0.98046 0
M  V30 8482 C 797.631 4.62699 -1.32148 0
M  V30 8483 C 799.983 4.88847 -1.80771 0
M  V30 8484 C 797.311 5.31268 -2.48941 0
M  V30 8485 C 799.663 5.587 -2.96711 0
M  V30 8486 C 798.327 5.79536 -3.31202 0
M  V30 8487 H 797.597 0.740734 0.0198593 0
M  V30 8488 H 800.244 1.80073 -0.651603 0
M  V30 8489 H 798.549 3.77416 1.05186 0
M  V30 8490 H 800.246 3.94819 0.701348 0
M  V30 8491 H 796.836 4.22765 -0.704814 0
M  V30 8492 H 801.02 4.71231 -1.55741 0
M  V30 8493 H 796.276 5.45603 -2.75911 0
M  V30 8494 H 800.45 5.9544 -3.61143 0
M  V30 8495 H 798.077 6.32443 -4.21805 0
M  V30 8496 N 799.652 0.226554 1.55963 0
M  V30 8497 C 800.9 -0.402991 1.98041 0
M  V30 8498 C 801.221 -1.59938 1.11557 0
M  V30 8499 O 800.491 -1.9494 0.193719 0
M  V30 8500 H 799.071 -0.15188 0.731397 0
M  V30 8501 H 801.733 0.320613 1.92245 0
M  V30 8502 H 800.829 -0.725937 3.0354 0
M  V30 8503 N 801.13 -1.57531 -0.0467866 0
M  V30 8504 C 802.376 -1.8873 -0.742218 0
M  V30 8505 C 802.709 -0.822084 -1.75941 0
M  V30 8506 O 801.984 0.164922 -1.938 0
M  V30 8507 C 802.267 -3.30586 -1.42776 0
M  V30 8508 C 802.12 -4.47785 -0.425285 0
M  V30 8509 C 803.439 -3.71068 -2.36636 0
M  V30 8510 H 800.558 -0.686406 -0.268359 0
M  V30 8511 H 803.2 -1.89999 -0.00511341 0
M  V30 8512 H 801.35 -3.29634 -2.05605 0
M  V30 8513 H 803.022 -4.60867 0.199721 0
M  V30 8514 H 801.265 -4.33037 0.25713 0
M  V30 8515 H 801.936 -5.43884 -0.943086 0
M  V30 8516 H 804.412 -3.73273 -1.83866 0
M  V30 8517 H 803.288 -4.71165 -2.81593 0
M  V30 8518 H 803.549 -3.02355 -3.22542 0
M  V30 8519 N 802.608 0.318715 -1.54344 0
M  V30 8520 C 803.538 1.39751 -1.87061 0
M  V30 8521 C 804.519 1.53741 -0.727848 0
M  V30 8522 O 805.704 1.67541 -0.982016 0
M  V30 8523 C 802.834 2.76446 -2.10226 0
M  V30 8524 C 801.788 2.77239 -3.26071 0
M  V30 8525 C 801.114 4.17056 -3.34617 0
M  V30 8526 C 802.414 2.40555 -4.63606 0
M  V30 8527 H 804.108 1.12619 -2.77412 0
M  V30 8528 H 801.654 0.540318 -1.33479 0
M  V30 8529 H 803.607 3.51985 -2.31699 0
M  V30 8530 H 802.331 3.05066 -1.16629 0
M  V30 8531 H 800.99 2.04155 -3.04493 0
M  V30 8532 H 800.638 4.42824 -2.3857 0
M  V30 8533 H 800.338 4.18492 -4.12478 0
M  V30 8534 H 801.862 4.94401 -3.5833 0
M  V30 8535 H 803.276 3.05808 -4.84927 0
M  V30 8536 H 801.673 2.53234 -5.44052 0
M  V30 8537 H 802.743 1.35698 -4.65526 0
M  V30 8538 N 804.086 1.46499 0.581025 0
M  V30 8539 C 805.016 1.60052 1.70017 0
M  V30 8540 C 805.997 0.450788 1.64018 0
M  V30 8541 O 807.182 0.677237 1.82009 0
M  V30 8542 C 804.312 1.5921 3.08658 0
M  V30 8543 C 803.266 2.73169 3.29488 0
M  V30 8544 C 802.592 2.57389 4.68674 0
M  V30 8545 C 803.892 4.14978 3.1716 0
M  V30 8546 H 805.586 2.53735 1.5893 0
M  V30 8547 H 803.132 1.22113 0.763173 0
M  V30 8548 H 805.085 1.67285 3.86773 0
M  V30 8549 H 803.809 0.620718 3.20647 0
M  V30 8550 H 802.468 2.64566 2.53773 0
M  V30 8551 H 802.116 1.58331 4.77431 0
M  V30 8552 H 801.816 3.33826 4.83564 0
M  V30 8553 H 803.34 2.67358 5.48956 0
M  V30 8554 H 804.754 4.24684 3.85119 0
M  V30 8555 H 803.151 4.92016 3.4357 0
M  V30 8556 H 804.221 4.35016 2.14218 0
M  V30 8557 N 805.565 -0.825799 1.34232 0
M  V30 8558 C 806.795 -1.61129 1.29309 0
M  V30 8559 C 807.203 -1.88714 -0.135589 0
M  V30 8560 O 806.546 -1.47703 -1.09222 0
M  V30 8561 C 806.608 -2.97866 2.01287 0
M  V30 8562 C 806.272 -2.9319 3.50555 0
M  V30 8563 C 807.269 -2.67978 4.45515 0
M  V30 8564 C 804.954 -3.12913 3.92926 0
M  V30 8565 C 806.948 -2.62536 5.80822 0
M  V30 8566 C 804.635 -3.07096 5.28333 0
M  V30 8567 C 805.633 -2.8194 6.22092 0
M  V30 8568 O 805.321 -2.7605 7.55018 0
M  V30 8569 H 805.053 -0.507652 0.446391 0
M  V30 8570 H 807.607 -1.03575 1.77374 0
M  V30 8571 H 805.837 -3.57327 1.47832 0
M  V30 8572 H 807.526 -3.58848 1.89691 0
M  V30 8573 H 808.292 -2.52478 4.14101 0
M  V30 8574 H 804.171 -3.3151 3.20347 0
M  V30 8575 H 807.715 -2.42821 6.53975 0
M  V30 8576 H 803.612 -3.22148 5.59367 0
M  V30 8577 H 804.38 -2.91798 7.6472 0
M  V30 8578 N 807.043 -1.17915 -1.04565 0
M  V30 8579 C 807.953 -0.916449 -2.15959 0
M  V30 8580 C 808.969 0.117655 -1.73602 0
M  V30 8581 O 810.145 -0.063089 -2.01301 0
M  V30 8582 C 807.21 -0.440262 -3.43893 0
M  V30 8583 C 806.271 -1.54172 -4.00661 0
M  V30 8584 C 805.504 -1.08816 -5.22489 0
M  V30 8585 O 805.727 0.0551547 -5.70373 0
M  V30 8586 O 804.661 -1.88383 -5.7166 0
M  V30 8587 H 808.487 -1.8484 -2.40972 0
M  V30 8588 H 806.072 -0.960552 -1.14428 0
M  V30 8589 H 807.954 -0.182537 -4.21004 0
M  V30 8590 H 806.629 0.46346 -3.20365 0
M  V30 8591 H 805.536 -1.85341 -3.24961 0
M  V30 8592 H 806.869 -2.42139 -4.2852 0
M  V30 8593 N 808.521 1.23394 -0.980386 0
M  V30 8594 C 809.454 2.23404 -0.465404 0
M  V30 8595 C 810.432 1.55735 0.467471 0
M  V30 8596 O 811.616 1.84295 0.395921 0
M  V30 8597 C 808.743 3.3712 0.32672 0
M  V30 8598 C 807.789 4.22935 -0.550296 0
M  V30 8599 S 808.622 4.96824 -1.99814 0
M  V30 8600 C 809.778 6.13991 -1.21516 0
M  V30 8601 H 810.011 2.6674 -1.31289 0
M  V30 8602 H 807.544 1.32874 -0.78638 0
M  V30 8603 H 809.502 4.03065 0.777738 0
M  V30 8604 H 808.163 2.92317 1.14933 0
M  V30 8605 H 807.356 5.03966 0.0585298 0
M  V30 8606 H 806.958 3.62058 -0.937558 0
M  V30 8607 H 809.25 6.75822 -0.476476 0
M  V30 8608 H 810.193 6.7926 -2.0003 0
M  V30 8609 H 810.601 5.59708 -0.733949 0
M  V30 8610 N 809.999 0.752036 1.385 0
M  V30 8611 C 810.929 0.138718 2.33088 0
M  V30 8612 C 811.91 -0.705318 1.54788 0
M  V30 8613 O 813.095 -0.646821 1.83112 0
M  V30 8614 C 810.225 -0.75641 3.38963 0
M  V30 8615 C 809.179 -0.0152239 4.27997 0
M  V30 8616 C 808.505 -1.0285 5.24715 0
M  V30 8617 C 809.805 1.15226 5.09431 0
M  V30 8618 H 811.499 0.928852 2.84627 0
M  V30 8619 H 809.045 0.448111 1.3685 0
M  V30 8620 H 810.998 -1.19513 4.04097 0
M  V30 8621 H 809.722 -1.57885 2.85902 0
M  V30 8622 H 808.381 0.404061 3.64366 0
M  V30 8623 H 808.029 -1.84496 4.67943 0
M  V30 8624 H 807.729 -0.537238 5.85139 0
M  V30 8625 H 809.253 -1.46657 5.92726 0
M  V30 8626 H 810.667 0.791161 5.67815 0
M  V30 8627 H 809.064 1.57428 5.79082 0
M  V30 8628 H 810.134 1.9659 4.43261 0
M  V30 8629 N 811.477 -1.49425 0.500989 0
M  V30 8630 C 812.44 -2.27646 -0.266416 0
M  V30 8631 C 813.44 -1.3366 -0.893961 0
M  V30 8632 O 814.63 -1.5682 -0.758495 0
M  V30 8633 C 811.762 -3.11618 -1.38227 0
M  V30 8634 H 812.955 -2.96945 0.419973 0
M  V30 8635 H 810.508 -1.5419 0.255954 0
M  V30 8636 H 811.243 -2.46885 -2.10281 0
M  V30 8637 H 811.028 -3.80721 -0.937746 0
M  V30 8638 H 812.518 -3.70698 -1.92283 0
M  V30 8639 N 812.955 -0.234822 -1.55841 0
M  V30 8640 C 814.203 0.392483 -1.98252 0
M  V30 8641 C 814.524 1.59344 -1.12404 0
M  V30 8642 O 813.794 1.94834 -0.204055 0
M  V30 8643 H 812.374 0.147999 -0.732192 0
M  V30 8644 H 815.036 -0.330804 -1.92072 0
M  V30 8645 H 814.132 0.709829 -3.03921 0
M  V30 8646 N 814.433 1.57553 0.0384317 0
M  V30 8647 C 815.365 2.02726 1.06934 0
M  V30 8648 C 816.378 0.938502 1.33026 0
M  V30 8649 O 817.567 1.21595 1.30678 0
M  V30 8650 C 814.667 2.37958 2.41308 0
M  V30 8651 C 813.84 3.69098 2.34703 0
M  V30 8652 C 812.899 3.91623 3.51451 0
M  V30 8653 O 811.925 4.628 3.31368 0
M  V30 8654 N 813.127 3.36538 4.72993 0
M  V30 8655 H 815.892 2.91781 0.684381 0
M  V30 8656 H 813.453 1.60307 0.226542 0
M  V30 8657 H 815.445 2.50172 3.18113 0
M  V30 8658 H 814.015 1.54621 2.71682 0
M  V30 8659 H 813.235 3.67325 1.43059 0
M  V30 8660 H 814.523 4.55144 2.27424 0
M  V30 8661 H 813.921 2.78828 4.92211 0
M  V30 8662 H 812.478 3.54148 5.47195 0
M  V30 8663 N 815.911 -0.310526 1.54511 0
M  V30 8664 C 817.322 -0.884142 1.64438 0
M  V30 8665 C 817.673 -1.88425 0.546855 0
M  V30 8666 O 816.798 -2.14049 -0.31811 0
M  V30 8667 C 817.393 -1.6104 2.9808 0
M  V30 8668 C 815.952 -2.13255 3.1016 0
M  V30 8669 C 815.099 -0.96213 2.60074 0
M  V30 8670 H 818.05 -0.0877666 1.58457 0
M  V30 8671 H 818.071 -2.47541 2.8897 0
M  V30 8672 H 817.583 -0.882255 3.77939 0
M  V30 8673 H 815.684 -2.89145 2.35002 0
M  V30 8674 H 815.797 -2.37361 4.16169 0
M  V30 8675 H 814.161 -1.34501 2.16291 0
M  V30 8676 H 814.944 -0.248098 3.42402 0
M  V30 8677 N 817.389 -1.46805 -0.573248 0
M  V30 8678 C 818.8 -1.46655 -1.15539 0
M  V30 8679 C 819.151 -0.2125 -1.95046 0
M  V30 8680 O 818.276 0.683759 -2.05314 0
M  V30 8681 C 818.871 -2.65711 -2.10198 0
M  V30 8682 C 817.43 -2.68572 -2.63716 0
M  V30 8683 C 816.577 -2.39498 -1.39772 0
M  V30 8684 H 819.528 -1.54547 -0.36068 0
M  V30 8685 H 819.549 -2.41768 -2.93817 0
M  V30 8686 H 819.061 -3.56967 -1.52303 0
M  V30 8687 H 817.162 -1.81414 -3.25453 0
M  V30 8688 H 817.275 -3.68809 -3.05805 0
M  V30 8689 H 815.639 -1.89749 -1.69904 0
M  V30 8690 H 816.422 -3.32942 -0.836943 0
M  V30 8691 N 818.867 0.818669 -1.34668 0
M  V30 8692 C 820.114 1.57512 -1.27264 0
M  V30 8693 C 820.442 1.93871 0.156254 0
M  V30 8694 O 819.697 1.60582 1.11857 0
M  V30 8695 C 819.996 2.88245 -2.11304 0
M  V30 8696 C 819.662 2.71159 -3.60255 0
M  V30 8697 C 818.324 2.66207 -4.00858 0
M  V30 8698 C 820.676 2.54538 -4.54819 0
M  V30 8699 C 818.004 2.4256 -5.34211 0
M  V30 8700 C 820.356 2.32421 -5.88356 0
M  V30 8701 C 819.02 2.25884 -6.28118 0
M  V30 8702 H 818.29 0.576378 -0.465692 0
M  V30 8703 H 820.937 0.9469 -1.66451 0
M  V30 8704 H 819.242 3.55381 -1.64958 0
M  V30 8705 H 820.939 3.45869 -2.02919 0
M  V30 8706 H 817.529 2.75856 -3.28027 0
M  V30 8707 H 821.713 2.57384 -4.24343 0
M  V30 8708 H 816.969 2.35959 -5.64033 0
M  V30 8709 H 821.143 2.18548 -6.61218 0
M  V30 8710 H 818.77 2.07322 -7.31383 0
M  V30 8711 N 820.346 1.18468 1.03938 0
M  V30 8712 C 821.623 0.890435 1.74157 0
M  V30 8713 C 822.003 -0.606409 2.02203 0
M  V30 8714 O 821.351 -1.5615 1.66822 0
M  V30 8715 C 821.561 1.73906 3.02585 0
M  V30 8716 C 822.909 1.96686 3.76297 0
M  V30 8717 O 823.933 1.70969 3.12487 0
M  V30 8718 O 822.792 2.39986 4.90988 0
M  V30 8719 H 819.886 0.330889 0.757919 0
M  V30 8720 H 822.432 1.29228 1.09992 0
M  V30 8721 H 821.204 2.75369 2.78006 0
M  V30 8722 H 820.827 1.33581 3.74489 0
M  V30 8723 N 821.824 -1.22873 0.986916 0
M  V30 8724 C 823.072 -1.91084 0.658121 0
M  V30 8725 C 823.393 -1.77304 -0.811675 0
M  V30 8726 O 822.663 -1.15649 -1.58121 0
M  V30 8727 H 821.243 -0.707251 0.240427 0
M  V30 8728 H 823.905 -1.49357 1.25213 0
M  V30 8729 H 823.001 -2.98373 0.915428 0
M  V30 8730 N 823.302 -0.75937 -1.38099 0
M  V30 8731 C 824.212 -0.13774 -2.34195 0
M  V30 8732 C 825.228 0.693985 -1.59561 0
M  V30 8733 O 826.404 0.616792 -1.91723 0
M  V30 8734 C 823.469 0.740535 -3.38699 0
M  V30 8735 C 822.53 -0.106225 -4.29169 0
M  V30 8736 C 821.763 0.730225 -5.28681 0
M  V30 8737 O 821.986 1.96796 -5.35376 0
M  V30 8738 O 820.92 0.145969 -6.01723 0
M  V30 8739 H 824.746 -0.931512 -2.89061 0
M  V30 8740 H 822.331 -0.520345 -1.40046 0
M  V30 8741 H 824.213 1.24232 -4.02672 0
M  V30 8742 H 822.888 1.51271 -2.8618 0
M  V30 8743 H 821.795 -0.654088 -3.68337 0
M  V30 8744 H 823.128 -0.841186 -4.84959 0
M  V30 8745 N 824.78 1.49157 -0.508906 0
M  V30 8746 C 826.057 1.95363 0.0961913 0
M  V30 8747 C 826.437 1.45064 1.53362 0
M  V30 8748 O 825.785 0.667835 2.18523 0
M  V30 8749 C 825.995 3.49 0.000688881 0
M  V30 8750 C 827.343 4.24257 0.170632 0
M  V30 8751 O 828.367 3.5612 0.0754994 0
M  V30 8752 O 827.226 5.45267 0.366957 0
M  V30 8753 H 824.32 0.821984 0.0909489 0
M  V30 8754 H 826.866 1.59769 -0.572007 0
M  V30 8755 H 825.638 3.78269 -1.00143 0
M  V30 8756 H 825.261 3.91233 0.708682 0
M  V30 8757 N 826.258 0.243083 1.55714 0
M  V30 8758 C 827.168 -0.668913 2.24862 0
M  V30 8759 C 828.184 -1.19638 1.26344 0
M  V30 8760 O 829.36 -1.23345 1.5921 0
M  V30 8761 C 826.425 -1.85084 2.93163 0
M  V30 8762 C 825.486 -1.36323 4.07081 0
M  V30 8763 C 824.719 -2.48882 4.72116 0
M  V30 8764 O 824.942 -3.67523 4.36214 0
M  V30 8765 O 823.876 -2.18857 5.60701 0
M  V30 8766 H 827.702 -0.109737 3.03502 0
M  V30 8767 H 825.287 0.0117411 1.49395 0
M  V30 8768 H 827.169 -2.54065 3.36197 0
M  V30 8769 H 825.844 -2.39771 2.17466 0
M  V30 8770 H 824.751 -0.640804 3.68571 0
M  V30 8771 H 826.084 -0.86249 4.84584 0
M  V30 8772 N 827.736 -1.57571 -0.0300757 0
M  V30 8773 C 828.646 -2.09892 -1.04798 0
M  V30 8774 C 829.662 -1.03732 -1.39698 0
M  V30 8775 O 830.838 -1.35461 -1.49038 0
M  V30 8776 C 827.903 -2.56707 -2.33028 0
M  V30 8777 C 826.964 -3.77345 -2.04718 0
M  V30 8778 C 826.197 -4.21918 -3.26834 0
M  V30 8779 O 826.42 -3.66025 -4.37472 0
M  V30 8780 O 825.354 -5.14362 -3.12594 0
M  V30 8781 H 829.18 -2.97023 -0.633344 0
M  V30 8782 H 826.765 -1.47344 -0.246991 0
M  V30 8783 H 828.647 -2.87154 -3.08417 0
M  V30 8784 H 827.322 -1.72688 -2.73789 0
M  V30 8785 H 826.229 -3.51919 -1.26901 0
M  V30 8786 H 827.562 -4.62345 -1.68813 0
M  V30 8787 N 829.214 0.302327 -1.54673 0
M  V30 8788 C 830.124 1.39542 -1.88587 0
M  V30 8789 C 831.14 1.55543 -0.779895 0
M  V30 8790 O 832.316 1.70233 -1.07623 0
M  V30 8791 C 829.381 2.7394 -2.12504 0
M  V30 8792 C 828.442 2.66935 -3.3622 0
M  V30 8793 C 827.675 3.94923 -3.58987 0
M  V30 8794 O 827.898 4.94218 -2.84789 0
M  V30 8795 O 826.832 3.96896 -4.52501 0
M  V30 8796 H 830.658 1.13784 -2.81579 0
M  V30 8797 H 828.243 0.49827 -1.40846 0
M  V30 8798 H 830.125 3.5346 -2.29443 0
M  V30 8799 H 828.8 2.99544 -1.22698 0
M  V30 8800 H 827.707 1.85892 -3.24646 0
M  V30 8801 H 829.04 2.46283 -4.26152 0
M  V30 8802 N 830.692 1.47107 0.565454 0
M  V30 8803 C 831.622 1.61846 1.68309 0
M  V30 8804 C 832.603 0.468159 1.63531 0
M  V30 8805 O 833.788 0.696504 1.8128 0
M  V30 8806 C 830.918 1.62474 3.06952 0
M  V30 8807 C 829.872 2.76649 3.26572 0
M  V30 8808 C 829.198 2.62345 4.65917 0
M  V30 8809 C 830.498 4.18319 3.12741 0
M  V30 8810 H 832.192 2.55407 1.5623 0
M  V30 8811 H 829.738 1.22916 0.750179 0
M  V30 8812 H 831.691 1.71378 3.84977 0
M  V30 8813 H 830.415 0.654692 3.19971 0
M  V30 8814 H 829.074 2.67242 2.50952 0
M  V30 8815 H 828.722 1.63386 4.75725 0
M  V30 8816 H 828.422 3.38936 4.79996 0
M  V30 8817 H 829.946 2.73165 5.46089 0
M  V30 8818 H 831.36 4.28745 3.80593 0
M  V30 8819 H 829.757 4.95632 3.38333 0
M  V30 8820 H 830.827 4.37263 2.09592 0
M  V30 8821 N 832.17 -0.811516 1.35101 0
M  V30 8822 C 833.417 -1.56835 1.28098 0
M  V30 8823 C 833.745 -1.93951 -0.14597 0
M  V30 8824 O 833 -1.61173 -1.11004 0
M  V30 8825 C 833.299 -2.87121 2.1283 0
M  V30 8826 C 832.965 -2.69245 3.61688 0
M  V30 8827 C 831.627 -2.64078 4.02264 0
M  V30 8828 C 833.979 -2.52122 4.56162 0
M  V30 8829 C 831.307 -2.39724 5.3549 0
M  V30 8830 C 833.659 -2.29298 5.89581 0
M  V30 8831 C 832.323 -2.2255 6.29307 0
M  V30 8832 H 831.593 -0.5739 0.468742 0
M  V30 8833 H 834.24 -0.93806 1.66951 0
M  V30 8834 H 832.545 -3.54502 1.66841 0
M  V30 8835 H 834.242 -3.44788 2.0475 0
M  V30 8836 H 830.832 -2.74112 3.29485 0
M  V30 8837 H 835.016 -2.5513 4.25702 0
M  V30 8838 H 830.272 -2.32965 5.65276 0
M  V30 8839 H 834.446 -2.15038 6.62368 0
M  V30 8840 H 832.073 -2.0344 7.32473 0
M  V30 8841 N 833.648 -1.19017 -1.03309 0
M  V30 8842 C 834.58 -0.881847 -2.11556 0
M  V30 8843 C 835.593 0.123711 -1.62329 0
M  V30 8844 O 836.782 -0.105141 -1.7819 0
M  V30 8845 C 833.882 -0.297634 -3.37591 0
M  V30 8846 C 833.055 -1.35072 -4.16022 0
M  V30 8847 C 832.114 -0.780812 -5.20375 0
M  V30 8848 O 831.14 -1.45745 -5.50224 0
M  V30 8849 N 832.342 0.417964 -5.78993 0
M  V30 8850 H 835.107 -1.81359 -2.38598 0
M  V30 8851 H 832.668 -1.0916 -1.19565 0
M  V30 8852 H 834.66 0.097374 -4.04583 0
M  V30 8853 H 833.23 0.538299 -3.0793 0
M  V30 8854 H 832.45 -1.92074 -3.4424 0
M  V30 8855 H 833.738 -2.06044 -4.65213 0
M  V30 8856 H 833.136 0.985281 -5.57054 0
M  V30 8857 H 831.693 0.754802 -6.47415 0
M  V30 8858 N 835.127 1.22348 -0.993418 0
M  V30 8859 C 836.09 2.22522 -0.549251 0
M  V30 8860 C 837.09 1.56529 0.368164 0
M  V30 8861 O 838.28 1.73463 0.16005 0
M  V30 8862 C 835.412 3.40307 0.201037 0
M  V30 8863 H 836.605 2.63332 -1.43515 0
M  V30 8864 H 834.158 1.35407 -0.78068 0
M  V30 8865 H 834.893 3.0497 1.10289 0
M  V30 8866 H 834.678 3.8942 -0.457685 0
M  V30 8867 H 836.168 4.14597 0.499946 0
M  V30 8868 N 836.605 0.766683 1.37694 0
M  V30 8869 C 837.854 0.325425 1.99057 0
M  V30 8870 C 838.167 -1.10275 1.61551 0
M  V30 8871 O 839.373 -1.64513 2.1598 0
M  V30 8872 C 837.829 0.530886 3.55963 0
M  V30 8873 C 837.437 1.96899 4.02411 0
M  V30 8874 C 839.181 0.152997 4.24224 0
M  V30 8875 C 837.088 2.12232 5.52007 0
M  V30 8876 H 836.018 0.117929 0.744721 0
M  V30 8877 H 838.669 0.945091 1.5729 0
M  V30 8878 H 837.051 -0.158162 3.95684 0
M  V30 8879 H 838.225 2.69258 3.73948 0
M  V30 8880 H 836.54 2.303 3.46916 0
M  V30 8881 H 839.137 0.24614 5.34133 0
M  V30 8882 H 839.48 -0.896096 4.06541 0
M  V30 8883 H 840.013 0.794398 3.89787 0
M  V30 8884 H 836.752 3.15442 5.7461 0
M  V30 8885 H 836.272 1.4435 5.82171 0
M  V30 8886 H 837.951 1.9185 6.17902 0
M  V30 8887 N 838.083 -1.48885 0.516809 0
M  V30 8888 C 839.016 -2.26218 -0.30011 0
M  V30 8889 C 839.994 -1.31491 -0.956496 0
M  V30 8890 O 841.178 -1.6081 -0.983488 0
M  V30 8891 C 838.305 -3.07315 -1.42392 0
M  V30 8892 C 837.351 -4.17316 -0.880295 0
M  V30 8893 S 838.184 -5.34955 0.24146 0
M  V30 8894 C 839.34 -6.1961 -0.885138 0
M  V30 8895 H 839.573 -2.95158 0.356217 0
M  V30 8896 H 837.106 -1.5141 0.302365 0
M  V30 8897 H 839.064 -3.54619 -2.06775 0
M  V30 8898 H 837.725 -2.37813 -2.05192 0
M  V30 8899 H 836.918 -4.73635 -1.72297 0
M  V30 8900 H 836.52 -3.72685 -0.313396 0
M  V30 8901 H 838.812 -6.53513 -1.78682 0
M  V30 8902 H 839.755 -7.07183 -0.360226 0
M  V30 8903 H 840.163 -5.52461 -1.1596 0
M  V30 8904 N 839.561 -0.251338 -1.55583 0
M  V30 8905 C 840.471 0.656978 -2.25213 0
M  V30 8906 C 841.487 1.18966 -1.26977 0
M  V30 8907 O 842.663 1.22499 -1.59862 0
M  V30 8908 C 839.728 1.83527 -2.94141 0
M  V30 8909 C 838.789 1.34162 -4.07798 0
M  V30 8910 C 838.022 2.46375 -4.73429 0
M  V30 8911 O 838.245 3.65205 -4.38157 0
M  V30 8912 O 837.179 2.15881 -5.61853 0
M  V30 8913 H 841.005 0.0936395 -3.03556 0
M  V30 8914 H 838.59 -0.0196638 -1.49387 0
M  V30 8915 H 840.472 2.52279 -3.3754 0
M  V30 8916 H 839.147 2.38614 -2.18735 0
M  V30 8917 H 838.054 0.621249 -3.68906 0
M  V30 8918 H 839.387 0.836779 -4.85035 0
M  V30 8919 N 841.039 1.57585 0.0217189 0
M  V30 8920 C 841.971 2.03849 1.04777 0
M  V30 8921 C 842.984 0.952558 1.32023 0
M  V30 8922 O 844.173 1.22974 1.29381 0
M  V30 8923 C 841.273 2.40504 2.3877 0
M  V30 8924 C 840.446 3.71566 2.30775 0
M  V30 8925 C 839.505 3.95329 3.47277 0
M  V30 8926 O 838.531 4.66289 3.26441 0
M  V30 8927 N 839.733 3.41536 4.69397 0
M  V30 8928 H 842.498 2.92491 0.653395 0
M  V30 8929 H 840.059 1.60538 0.209527 0
M  V30 8930 H 842.051 2.53532 3.15442 0
M  V30 8931 H 840.621 1.57494 2.70027 0
M  V30 8932 H 839.841 3.68822 1.39155 0
M  V30 8933 H 841.129 4.5753 2.22584 0
M  V30 8934 H 840.527 2.84033 4.89226 0
M  V30 8935 H 839.084 3.59932 5.43408 0
M  V30 8936 N 842.517 -0.29412 1.54831 0
M  V30 8937 C 843.745 -1.04724 1.78439 0
M  V30 8938 C 844.16 -1.80695 0.547239 0
M  V30 8939 O 843.517 -1.75989 -0.483141 0
M  V30 8940 C 843.568 -2.02242 2.99634 0
M  V30 8941 O 843.289 -1.29352 4.18568 0
M  V30 8942 C 844.79 -2.89537 3.35683 0
M  V30 8943 H 842.01 -0.310285 0.594949 0
M  V30 8944 H 844.554 -0.331306 2.01798 0
M  V30 8945 H 842.709 -2.69328 2.78462 0
M  V30 8946 H 843.123 -1.94901 4.86943 0
M  V30 8947 H 844.597 -3.538 4.23709 0
M  V30 8948 H 845.074 -3.58201 2.54143 0
M  V30 8949 H 845.68 -2.27973 3.59038 0
M  V30 8950 N 843.995 -1.47404 -0.557645 0
M  V30 8951 C 845.241 -1.54235 -1.31679 0
M  V30 8952 C 845.574 -0.203782 -1.93128 0
M  V30 8953 O 844.849 0.787536 -1.77843 0
M  V30 8954 C 845.132 -2.66003 -2.42723 0
M  V30 8955 C 844.985 -4.09475 -1.86145 0
M  V30 8956 C 846.304 -2.73685 -3.44652 0
M  V30 8957 H 843.423 -0.561466 -0.477415 0
M  V30 8958 H 846.065 -1.79459 -0.624067 0
M  V30 8959 H 844.215 -2.44627 -3.01811 0
M  V30 8960 H 845.887 -4.42213 -1.31321 0
M  V30 8961 H 844.13 -4.17774 -1.16823 0
M  V30 8962 H 844.801 -4.83451 -2.66418 0
M  V30 8963 H 847.277 -2.92968 -2.95481 0
M  V30 8964 H 846.153 -3.53665 -4.19777 0
M  V30 8965 H 846.414 -1.80726 -4.03473 0
M  V30 8966 N 845.473 0.80434 -1.35529 0
M  V30 8967 C 846.701 1.59283 -1.32048 0
M  V30 8968 C 847.116 1.88527 0.101556 0
M  V30 8969 O 846.473 1.48975 1.05417 0
M  V30 8970 C 846.524 2.92276 -2.12737 0
M  V30 8971 O 846.245 2.64299 -3.49396 0
M  V30 8972 C 847.746 3.86631 -2.16867 0
M  V30 8973 H 844.966 0.494523 -0.453528 0
M  V30 8974 H 847.51 0.999415 -1.78415 0
M  V30 8975 H 845.665 3.48125 -1.69964 0
M  V30 8976 H 846.079 3.4923 -3.91329 0
M  V30 8977 H 847.553 4.77053 -2.77712 0
M  V30 8978 H 848.03 4.23384 -1.16803 0
M  V30 8979 H 848.636 3.36717 -2.59811 0
M  V30 8980 N 846.951 1.19563 1.02676 0
M  V30 8981 C 848.181 1.0234 1.79472 0
M  V30 8982 C 848.589 -0.430891 1.84228 0
M  V30 8983 O 847.932 -1.31106 1.28674 0
M  V30 8984 C 847.994 1.51901 3.25832 0
M  V30 8985 C 847.658 3.00045 3.44706 0
M  V30 8986 C 848.655 3.9779 3.34752 0
M  V30 8987 C 846.34 3.38784 3.70851 0
M  V30 8988 C 848.334 5.32267 3.50672 0
M  V30 8989 C 846.021 4.73419 3.86416 0
M  V30 8990 C 847.019 5.69969 3.7633 0
M  V30 8991 O 846.707 7.02165 3.91432 0
M  V30 8992 H 846.439 0.360936 0.571578 0
M  V30 8993 H 848.993 1.58863 1.30198 0
M  V30 8994 H 847.223 0.897546 3.7614 0
M  V30 8995 H 848.912 1.30853 3.84229 0
M  V30 8996 H 849.678 3.69207 3.14502 0
M  V30 8997 H 845.557 2.64183 3.77794 0
M  V30 8998 H 849.101 6.07612 3.42715 0
M  V30 8999 H 844.998 5.01697 4.06165 0
M  V30 9000 H 845.766 7.09268 4.08511 0
M  V30 9001 N 848.429 -1.21819 0.999893 0
M  V30 9002 C 849.84 -1.72517 0.713775 0
M  V30 9003 C 850.191 -1.80505 -0.768922 0
M  V30 9004 O 849.316 -1.45611 -1.60083 0
M  V30 9005 C 849.911 -3.13321 1.28901 0
M  V30 9006 C 848.47 -3.61396 1.05212 0
M  V30 9007 C 847.617 -2.39074 1.40494 0
M  V30 9008 H 850.568 -1.07068 1.17141 0
M  V30 9009 H 850.589 -3.74535 0.671084 0
M  V30 9010 H 850.101 -3.07475 2.36814 0
M  V30 9011 H 848.202 -3.72599 -0.0100732 0
M  V30 9012 H 848.315 -4.47145 1.72042 0
M  V30 9013 H 846.679 -2.41015 0.823642 0
M  V30 9014 H 847.462 -2.35884 2.49427 0
M  V30 9015 N 849.908 -0.773975 -1.37286 0
M  V30 9016 C 850.855 -0.159938 -2.30245 0
M  V30 9017 C 851.825 0.687356 -1.51211 0
M  V30 9018 O 853.01 0.639255 -1.79773 0
M  V30 9019 C 850.15 0.711452 -3.37687 0
M  V30 9020 C 849.263 -0.152692 -4.3173 0
M  V30 9021 C 848.398 0.723613 -5.26248 0
M  V30 9022 C 847.437 -0.14293 -6.11933 0
M  V30 9023 N 846.574 0.691479 -6.98687 0
M  V30 9024 H 851.414 -0.958182 -2.82175 0
M  V30 9025 H 848.951 -0.48411 -1.38906 0
M  V30 9026 H 850.909 1.2315 -3.9861 0
M  V30 9027 H 849.539 1.47528 -2.87116 0
M  V30 9028 H 848.591 -0.790574 -3.72094 0
M  V30 9029 H 849.903 -0.821027 -4.91997 0
M  V30 9030 H 849.057 1.31006 -5.92387 0
M  V30 9031 H 847.796 1.42562 -4.66398 0
M  V30 9032 H 846.801 -0.7419 -5.44771 0
M  V30 9033 H 848.026 -0.842305 -6.73856 0
M  V30 9034 H 845.972 1.37806 -6.41362 0
M  V30 9035 H 845.889 0.0804911 -7.55957 0
M  V30 9036 H 847.157 1.26225 -7.69212 0
M  V30 9037 N 851.386 1.48609 -0.524698 0
M  V30 9038 C 852.611 2.07398 0.00952139 0
M  V30 9039 C 853.036 1.37939 1.27884 0
M  V30 9040 O 852.394 0.443633 1.75788 0
M  V30 9041 C 852.442 3.59916 0.221956 0
M  V30 9042 O 851.546 3.91647 1.29175 0
M  V30 9043 H 850.887 0.662981 -0.0367729 0
M  V30 9044 H 853.417 1.91092 -0.7311 0
M  V30 9045 H 853.427 4.05552 0.446236 0
M  V30 9046 H 852.102 4.09876 -0.705306 0
M  V30 9047 H 850.679 3.57796 1.05055 0
M  V30 9048 N 852.864 0.259585 1.55447 0
M  V30 9049 C 853.794 -0.62852 2.24882 0
M  V30 9050 C 854.775 -1.17128 1.23349 0
M  V30 9051 O 855.96 -1.20829 1.52033 0
M  V30 9052 C 853.09 -1.81983 2.95803 0
M  V30 9053 C 852.044 -1.40929 4.04132 0
M  V30 9054 C 851.37 -2.68246 4.62545 0
M  V30 9055 C 852.67 -0.570956 5.1917 0
M  V30 9056 H 854.364 -0.0495021 2.99359 0
M  V30 9057 H 851.91 -0.0223688 1.43983 0
M  V30 9058 H 853.863 -2.44689 3.43082 0
M  V30 9059 H 852.587 -2.42444 2.18835 0
M  V30 9060 H 851.246 -0.805519 3.57641 0
M  V30 9061 H 850.894 -3.26931 3.82263 0
M  V30 9062 H 850.594 -2.41495 5.35681 0
M  V30 9063 H 852.118 -3.31827 5.12565 0
M  V30 9064 H 853.532 -1.10262 5.62597 0
M  V30 9065 H 851.929 -0.398979 5.98772 0
M  V30 9066 H 852.999 0.413918 4.8313 0
M  V30 9067 N 854.342 -1.57594 -0.0133615 0
M  V30 9068 C 855.567 -1.94649 -0.715996 0
M  V30 9069 C 855.992 -0.860786 -1.67249 0
M  V30 9070 O 855.35 0.182228 -1.80382 0
M  V30 9071 C 855.398 -3.30789 -1.43566 0
M  V30 9072 O 854.502 -3.24148 -2.54955 0
M  V30 9073 H 853.843 -0.635801 -0.191449 0
M  V30 9074 H 856.373 -2.04569 0.0358478 0
M  V30 9075 H 856.383 -3.66045 -1.80208 0
M  V30 9076 H 855.058 -4.09367 -0.734263 0
M  V30 9077 H 853.635 -3.00548 -2.20739 0
M  V30 9078 N 855.82 0.285905 -1.54985 0
M  V30 9079 C 857.236 0.632405 -1.46536 0
M  V30 9080 C 857.436 1.90074 -0.668888 0
M  V30 9081 O 856.492 2.51839 -0.182586 0
M  V30 9082 C 857.805 0.771361 -2.90638 0
M  V30 9083 C 859.353 0.866262 -3.00774 0
M  V30 9084 C 859.828 1.0371 -4.46103 0
M  V30 9085 N 861.319 1.10294 -4.49877 0
M  V30 9086 C 862.054 1.25369 -5.59527 0
M  V30 9087 N 861.55 1.37246 -6.7907 0
M  V30 9088 N 863.343 1.28377 -5.47244 0
M  V30 9089 H 855.494 -0.547226 -2.0523 0
M  V30 9090 H 857.757 -0.183298 -0.930111 0
M  V30 9091 H 857.463 -0.0899485 -3.51585 0
M  V30 9092 H 857.337 1.65569 -3.3892 0
M  V30 9093 H 859.724 1.71805 -2.39931 0
M  V30 9094 H 859.805 -0.0424049 -2.55765 0
M  V30 9095 H 859.449 0.190021 -5.07544 0
M  V30 9096 H 859.379 1.96022 -4.88757 0
M  V30 9097 H 861.87 1.02407 -3.6376 0
M  V30 9098 H 862.183 1.48546 -7.58389 0
M  V30 9099 H 860.528 1.34274 -6.81906 0
M  V30 9100 H 863.719 1.1872 -4.52795 0
M  V30 9101 H 863.892 1.39782 -6.32744 0
M  V30 9102 N 857.298 1.47698 0.54982 0
M  V30 9103 C 858.208 1.63386 1.68351 0
M  V30 9104 C 859.224 0.516583 1.66155 0
M  V30 9105 O 860.4 0.785088 1.85468 0
M  V30 9106 C 857.465 1.6513 3.04849 0
M  V30 9107 C 856.526 2.88338 3.18056 0
M  V30 9108 C 855.759 2.8999 4.48042 0
M  V30 9109 O 855.982 2.00633 5.3395 0
M  V30 9110 O 854.916 3.81938 4.65196 0
M  V30 9111 H 858.742 2.59329 1.58057 0
M  V30 9112 H 856.327 1.30869 0.72067 0
M  V30 9113 H 858.209 1.68913 3.86065 0
M  V30 9114 H 856.884 0.723555 3.1551 0
M  V30 9115 H 855.791 2.90097 2.36209 0
M  V30 9116 H 857.124 3.80431 3.12302 0
M  V30 9117 N 858.776 -0.797141 1.35954 0
M  V30 9118 C 859.739 -1.89104 1.29508 0
M  V30 9119 C 860.739 -1.59495 0.204444 0
M  V30 9120 O 861.929 -1.68051 0.458746 0
M  V30 9121 C 859.061 -3.25726 1.00576 0
M  V30 9122 H 860.254 -1.96237 2.26785 0
M  V30 9123 H 857.807 -0.994075 1.20614 0
M  V30 9124 H 858.542 -3.24279 0.0372519 0
M  V30 9125 H 858.327 -3.48604 1.79492 0
M  V30 9126 H 859.817 -4.0578 0.986508 0
M  V30 9127 N 860.254 -1.20106 -1.0204 0
M  V30 9128 C 861.5 -1.01039 -1.75838 0
M  V30 9129 C 861.833 0.456819 -1.88751 0
M  V30 9130 O 861.108 1.33919 -1.41053 0
M  V30 9131 C 861.391 -1.69009 -3.17975 0
M  V30 9132 C 861.244 -3.2315 -3.1288 0
M  V30 9133 C 862.563 -1.42005 -4.16561 0
M  V30 9134 H 859.682 -0.368465 -0.638281 0
M  V30 9135 H 862.324 -1.48066 -1.19064 0
M  V30 9136 H 860.474 -1.29026 -3.66449 0
M  V30 9137 H 862.146 -3.72402 -2.72239 0
M  V30 9138 H 860.389 -3.54253 -2.50374 0
M  V30 9139 H 861.06 -3.65862 -4.13339 0
M  V30 9140 H 863.536 -1.76685 -3.76725 0
M  V30 9141 H 862.412 -1.92101 -5.14187 0
M  V30 9142 H 862.673 -0.346884 -4.40737 0
M  V30 9143 N 861.732 1.21287 -1.00634 0
M  V30 9144 C 862.695 2.21927 -0.572821 0
M  V30 9145 C 863.695 1.5691 0.351541 0
M  V30 9146 O 864.885 1.73623 0.141643 0
M  V30 9147 C 862.017 3.40501 0.164932 0
M  V30 9148 H 863.21 2.61795 -1.463 0
M  V30 9149 H 860.763 1.34571 -0.794998 0
M  V30 9150 H 861.498 3.06123 1.07049 0
M  V30 9151 H 861.283 3.88912 -0.498962 0
M  V30 9152 H 862.773 4.15103 0.455945 0
M  V30 9153 N 863.21 0.781244 1.36873 0
M  V30 9154 C 864.459 0.34652 1.98701 0
M  V30 9155 C 864.772 -1.08555 1.62712 0
M  V30 9156 O 865.978 -1.62213 2.17713 0
M  V30 9157 C 864.434 0.568611 3.5538 0
M  V30 9158 C 864.042 2.01156 4.003 0
M  V30 9159 C 865.786 0.197983 4.24038 0
M  V30 9160 C 863.693 2.18074 5.49725 0
M  V30 9161 H 862.623 0.125821 0.743428 0
M  V30 9162 H 865.274 0.961721 1.56279 0
M  V30 9163 H 863.656 -0.116185 3.9583 0
M  V30 9164 H 864.83 2.73209 3.71071 0
M  V30 9165 H 863.145 2.33967 3.44454 0
M  V30 9166 H 865.742 0.302778 5.33842 0
M  V30 9167 H 866.085 -0.852927 4.07469 0
M  V30 9168 H 866.618 0.835696 3.88923 0
M  V30 9169 H 863.357 3.21519 5.71232 0
M  V30 9170 H 862.877 1.50517 5.80607 0
M  V30 9171 H 864.556 1.98393 6.15832 0
M  V30 9172 N 864.689 -1.48329 0.532571 0
M  V30 9173 C 865.929 -2.044 0.00145618 0
M  V30 9174 C 866.293 -1.40053 -1.31336 0
M  V30 9175 O 867.494 -1.87026 -1.93066 0
M  V30 9176 C 865.765 -3.57214 -0.115376 0
M  V30 9177 S 867.324 -4.34731 -0.59618 0
M  V30 9178 H 864.142 -0.710876 0.0133038 0
M  V30 9179 H 866.744 -1.82006 0.71372 0
M  V30 9180 H 865.448 -4.01579 0.846335 0
M  V30 9181 H 864.979 -3.84065 -0.85194 0
M  V30 9182 H 866.994 -4.6001 -1.86025 0
M  V30 9183 N 866.167 -0.267825 -1.55308 0
M  V30 9184 C 867.114 0.6228 -2.22238 0
M  V30 9185 C 868.084 1.15536 -1.19334 0
M  V30 9186 O 869.269 1.206 -1.47852 0
M  V30 9187 C 866.409 1.80447 -2.94164 0
M  V30 9188 C 865.522 1.30646 -4.11771 0
M  V30 9189 C 864.657 2.44935 -4.7136 0
M  V30 9190 C 863.696 1.92099 -5.81175 0
M  V30 9191 N 862.833 2.99834 -6.34857 0
M  V30 9192 H 867.673 0.0453874 -2.97965 0
M  V30 9193 H 865.21 0.0106371 -1.47096 0
M  V30 9194 H 867.168 2.49896 -3.34078 0
M  V30 9195 H 865.798 2.35403 -2.20874 0
M  V30 9196 H 864.85 0.505314 -3.77029 0
M  V30 9197 H 866.162 0.879409 -4.90987 0
M  V30 9198 H 865.316 3.2239 -5.13955 0
M  V30 9199 H 864.055 2.90951 -3.91406 0
M  V30 9200 H 863.06 1.13122 -5.38037 0
M  V30 9201 H 864.285 1.47027 -6.62993 0
M  V30 9202 H 862.231 3.45246 -5.578 0
M  V30 9203 H 862.148 2.61524 -7.09324 0
M  V30 9204 H 863.416 3.77286 -6.82111 0
M  V30 9205 N 867.645 1.57599 0.00500368 0
M  V30 9206 C 868.893 1.89973 0.68953 0
M  V30 9207 C 869.214 0.868531 1.7459 0
M  V30 9208 O 868.484 -0.0947367 1.95671 0
M  V30 9209 H 867.064 0.701153 0.25767 0
M  V30 9210 H 869.726 1.94869 -0.0347392 0
M  V30 9211 H 868.822 2.89584 1.16394 0
M  V30 9212 N 869.123 -0.277682 1.55134 0
M  V30 9213 C 870.37 -1.0099 1.7552 0
M  V30 9214 C 870.698 -1.86452 0.553712 0
M  V30 9215 O 869.953 -1.90122 -0.463896 0
M  V30 9216 C 870.252 -1.92599 3.01065 0
M  V30 9217 C 869.918 -1.22926 4.3382 0
M  V30 9218 C 868.58 -1.03659 4.69902 0
M  V30 9219 C 870.932 -0.733071 5.16019 0
M  V30 9220 C 868.26 -0.334933 5.85743 0
M  V30 9221 C 870.612 -0.0450319 6.32584 0
M  V30 9222 C 869.276 0.159393 6.6731 0
M  V30 9223 H 868.546 -0.36955 0.642273 0
M  V30 9224 H 871.193 -0.282611 1.89403 0
M  V30 9225 H 869.498 -2.71934 2.82062 0
M  V30 9226 H 871.195 -2.49367 3.14034 0
M  V30 9227 H 867.785 -1.38933 4.05457 0
M  V30 9228 H 871.969 -0.869565 4.88623 0
M  V30 9229 H 867.225 -0.165783 6.11175 0
M  V30 9230 H 871.399 0.34723 6.95534 0
M  V30 9231 H 869.026 0.70507 7.56923 0
M  V30 9232 N 870.601 -1.47988 -0.541979 0
M  V30 9233 C 871.531 -1.64503 -1.65713 0
M  V30 9234 C 872.512 -0.494116 -1.62765 0
M  V30 9235 O 873.697 -0.725256 -1.80149 0
M  V30 9236 C 870.827 -1.67337 -3.04328 0
M  V30 9237 C 869.781 -2.81809 -3.2213 0
M  V30 9238 C 869.107 -2.69724 -4.61685 0
M  V30 9239 C 870.407 -4.23241 -3.06046 0
M  V30 9240 H 872.101 -2.5786 -1.52147 0
M  V30 9241 H 869.647 -1.24094 -0.730529 0
M  V30 9242 H 871.6 -1.77481 -3.82202 0
M  V30 9243 H 870.324 -0.705514 -3.18889 0
M  V30 9244 H 868.983 -2.71201 -2.46669 0
M  V30 9245 H 868.631 -1.70934 -4.73065 0
M  V30 9246 H 868.331 -3.4653 -4.74543 0
M  V30 9247 H 869.855 -2.81818 -5.41674 0
M  V30 9248 H 871.269 -4.34746 -3.73723 0
M  V30 9249 H 869.666 -5.00952 -3.30405 0
M  V30 9250 H 870.736 -4.40543 -2.02609 0
M  V30 9251 N 872.079 0.78992 -1.36375 0
M  V30 9252 C 873.307 1.57873 -1.3373 0
M  V30 9253 C 873.722 1.88624 0.0815544 0
M  V30 9254 O 873.079 1.50085 1.03831 0
M  V30 9255 C 873.13 2.90003 -2.15825 0
M  V30 9256 O 872.851 2.60578 -3.5218 0
M  V30 9257 C 874.352 3.84309 -2.20955 0
M  V30 9258 H 871.572 0.489685 -0.458748 0
M  V30 9259 H 874.116 0.980436 -1.79465 0
M  V30 9260 H 872.271 3.46303 -1.73646 0
M  V30 9261 H 872.685 3.4506 -3.95011 0
M  V30 9262 H 874.159 4.74081 -2.82756 0
M  V30 9263 H 874.636 4.22121 -1.21287 0
M  V30 9264 H 875.242 3.33942 -2.63368 0
M  V30 9265 N 873.557 1.20646 1.01402 0
M  V30 9266 C 874.504 0.957618 2.09996 0
M  V30 9267 C 875.474 -0.113115 1.65714 0
M  V30 9268 O 876.659 0.032142 1.90773 0
M  V30 9269 C 873.799 0.5186 3.41181 0
M  V30 9270 C 872.912 1.65777 3.98926 0
M  V30 9271 C 872.047 1.16881 5.18182 0
M  V30 9272 C 871.086 2.2809 5.68015 0
M  V30 9273 N 870.223 1.80392 6.7853 0
M  V30 9274 H 875.063 1.88732 2.30617 0
M  V30 9275 H 872.6 0.940703 1.13089 0
M  V30 9276 H 874.558 0.245367 4.16478 0
M  V30 9277 H 873.188 -0.3741 3.20625 0
M  V30 9278 H 872.24 2.04586 3.207 0
M  V30 9279 H 873.552 2.49507 4.31912 0
M  V30 9280 H 872.706 0.851694 6.00692 0
M  V30 9281 H 871.445 0.301434 4.86768 0
M  V30 9282 H 870.45 2.60614 4.84108 0
M  V30 9283 H 871.675 3.15308 6.01463 0
M  V30 9284 H 869.621 0.959856 6.4894 0
M  V30 9285 H 869.538 2.57701 7.10722 0
M  V30 9286 H 870.806 1.51688 7.64598 0
M  V30 9287 N 875.035 -1.20752 1.01276 0
M  V30 9288 C 875.985 -2.21252 0.550602 0
M  V30 9289 C 876.969 -1.56052 -0.391985 0
M  V30 9290 O 878.161 -1.75682 -0.215575 0
M  V30 9291 C 875.29 -3.43112 -0.113601 0
M  V30 9292 C 874.376 -4.15485 0.850465 0
M  V30 9293 N 874.767 -4.64301 2.00643 0
M  V30 9294 C 873.065 -4.40932 0.670476 0
M  V30 9295 C 873.766 -5.197 2.61317 0
M  V30 9296 N 872.742 -5.09534 1.8941 0
M  V30 9297 H 876.544 -2.56657 1.43194 0
M  V30 9298 H 874.058 -1.36646 0.877597 0
M  V30 9299 H 876.055 -4.1433 -0.462211 0
M  V30 9300 H 874.715 -3.09213 -0.990825 0
M  V30 9301 H 875.726 -4.59637 2.38651 0
M  V30 9302 H 872.403 -4.17197 -0.159016 0
M  V30 9303 H 873.793 -5.67873 3.59123 0
M  V30 9304 N 876.513 -0.788492 -1.36457 0
M  V30 9305 C 877.924 -0.423742 -1.81828 0
M  V30 9306 C 878.275 1.05221 -1.65599 0
M  V30 9307 O 877.4 1.8163 -1.17641 0
M  V30 9308 C 877.995 -0.762354 -3.30112 0
M  V30 9309 C 876.554 -0.450445 -3.73695 0
M  V30 9310 C 875.701 -0.997482 -2.58738 0
M  V30 9311 H 878.652 -0.981718 -1.24692 0
M  V30 9312 H 878.673 -0.0531136 -3.80463 0
M  V30 9313 H 878.185 -1.83662 -3.41891 0
M  V30 9314 H 876.286 0.615829 -3.67476 0
M  V30 9315 H 876.399 -0.970408 -4.69169 0
M  V30 9316 H 874.763 -0.420761 -2.51201 0
M  V30 9317 H 875.546 -2.07749 -2.73304 0
M  V30 9318 N 877.991 1.48044 -0.54043 0
M  V30 9319 C 879.239 2.02097 -0.0101367 0
M  V30 9320 C 879.56 1.41881 1.33771 0
M  V30 9321 O 878.83 0.587923 1.8687 0
M  V30 9322 H 877.41 0.747 -0.000758716 0
M  V30 9323 H 880.072 1.81639 -0.706634 0
M  V30 9324 H 879.168 3.11969 0.0904474 0
M  V30 9325 N 879.47 0.276058 1.55163 0
M  V30 9326 C 880.417 -0.611006 2.22565 0
M  V30 9327 C 881.387 -1.14902 1.19945 0
M  V30 9328 O 882.572 -1.19815 1.48489 0
M  V30 9329 C 879.712 -1.78885 2.95117 0
M  V30 9330 C 878.825 -1.2846 4.12458 0
M  V30 9331 C 877.96 -2.42432 4.72652 0
M  V30 9332 C 876.999 -1.89015 5.82185 0
M  V30 9333 N 876.136 -2.96463 6.36439 0
M  V30 9334 H 880.976 -0.0295849 2.97985 0
M  V30 9335 H 878.513 -0.00283607 1.471 0
M  V30 9336 H 880.471 -2.48121 3.35398 0
M  V30 9337 H 879.101 -2.34229 2.22119 0
M  V30 9338 H 878.153 -0.485312 3.77292 0
M  V30 9339 H 879.465 -0.853358 4.91446 0
M  V30 9340 H 878.619 -3.19659 5.15658 0
M  V30 9341 H 877.358 -2.88872 3.92943 0
M  V30 9342 H 876.363 -1.10267 5.38629 0
M  V30 9343 H 877.588 -1.43509 6.63763 0
M  V30 9344 H 875.534 -3.42283 5.59623 0
M  V30 9345 H 875.451 -2.57759 7.10701 0
M  V30 9346 H 876.719 -3.73663 6.84103 0
M  V30 9347 N 880.948 -1.576 0.00335426 0
M  V30 9348 C 882.364 -1.55653 -0.352766 0
M  V30 9349 C 882.564 -1.00632 -1.74572 0
M  V30 9350 O 881.62 -0.641621 -2.44212 0
M  V30 9351 C 882.933 -2.99858 -0.224929 0
M  V30 9352 C 884.481 -3.11563 -0.299619 0
M  V30 9353 C 884.956 -4.57559 -0.200868 0
M  V30 9354 N 886.447 -4.62477 -0.258663 0
M  V30 9355 C 887.182 -5.73031 -0.205644 0
M  V30 9356 N 886.678 -6.92723 -0.103027 0
M  V30 9357 N 888.471 -5.61509 -0.257754 0
M  V30 9358 H 880.622 -1.91703 0.914539 0
M  V30 9359 H 882.885 -0.88068 0.350865 0
M  V30 9360 H 882.591 -3.43964 0.733595 0
M  V30 9361 H 882.465 -3.63547 -1.00564 0
M  V30 9362 H 884.852 -2.67384 -1.24859 0
M  V30 9363 H 884.933 -2.50644 0.511025 0
M  V30 9364 H 884.577 -5.02413 0.744572 0
M  V30 9365 H 884.507 -5.16428 -1.03004 0
M  V30 9366 H 886.998 -3.76375 -0.339168 0
M  V30 9367 H 887.311 -7.7277 -0.0685593 0
M  V30 9368 H 885.656 -6.94966 -0.0686069 0
M  V30 9369 H 888.847 -4.66892 -0.336142 0
M  V30 9370 H 889.02 -6.4765 -0.21297 0
M  V30 9371 N 882.426 0.269451 -1.5528 0
M  V30 9372 C 883.356 1.33729 -1.91413 0
M  V30 9373 C 884.337 1.51348 -0.776391 0
M  V30 9374 O 885.522 1.64332 -1.03482 0
M  V30 9375 C 882.652 2.69618 -2.18914 0
M  V30 9376 C 881.606 2.66725 -3.34726 0
M  V30 9377 C 880.932 4.06199 -3.47716 0
M  V30 9378 C 882.232 2.25684 -4.71025 0
M  V30 9379 H 883.926 1.03736 -2.80854 0
M  V30 9380 H 881.472 0.497579 -1.3513 0
M  V30 9381 H 883.425 3.44436 -2.42779 0
M  V30 9382 H 882.149 3.01201 -1.26275 0
M  V30 9383 H 880.808 1.94365 -3.10834 0
M  V30 9384 H 880.456 4.3501 -2.52537 0
M  V30 9385 H 880.156 4.05157 -4.25583 0
M  V30 9386 H 881.68 4.8275 -3.73877 0
M  V30 9387 H 883.094 2.90225 -4.94411 0
M  V30 9388 H 881.491 2.35797 -5.51833 0
M  V30 9389 H 882.561 1.20819 -4.69607 0
M  V30 9390 N 883.904 1.48273 0.534124 0
M  V30 9391 C 885.152 1.55771 1.28762 0
M  V30 9392 C 885.473 0.231575 1.9362 0
M  V30 9393 O 884.743 -0.746533 1.81118 0
M  V30 9394 H 883.323 0.573851 0.47823 0
M  V30 9395 H 885.985 1.84712 0.621888 0
M  V30 9396 H 885.081 2.33657 2.06908 0
M  V30 9397 N 885.382 -0.782676 1.36792 0
M  V30 9398 C 886.607 -1.57676 1.34733 0
M  V30 9399 C 887.032 -1.87979 -0.0675253 0
M  V30 9400 O 886.39 -1.48404 -1.04144 0
M  V30 9401 C 886.438 -2.87047 2.18257 0
M  V30 9402 O 885.542 -3.80946 1.57969 0
M  V30 9403 H 884.883 -0.478034 0.460846 0
M  V30 9404 H 887.413 -0.969578 1.80168 0
M  V30 9405 H 887.423 -3.36254 2.31079 0
M  V30 9406 H 886.098 -2.64319 3.21104 0
M  V30 9407 H 884.675 -3.39558 1.54126 0
M  V30 9408 N 886.86 -1.21182 -1.00761 0
M  V30 9409 C 888.108 -1.02543 -1.74153 0
M  V30 9410 C 888.429 0.442372 -1.89916 0
M  V30 9411 O 887.699 1.31927 -1.44818 0
M  V30 9412 H 886.279 -0.37644 -0.645214 0
M  V30 9413 H 888.941 -1.52446 -1.21434 0
M  V30 9414 H 888.037 -1.49122 -2.7417 0
M  V30 9415 N 888.338 1.20213 -1.01915 0
M  V30 9416 C 889.749 1.7136 -0.741131 0
M  V30 9417 C 890.1 1.81705 0.740107 0
M  V30 9418 O 889.225 1.48139 1.57746 0
M  V30 9419 C 889.82 3.11231 -1.33869 0
M  V30 9420 C 888.379 3.59677 -1.10948 0
M  V30 9421 C 887.526 2.36809 -1.4428 0
M  V30 9422 H 890.477 1.05191 -1.1883 0
M  V30 9423 H 890.498 3.7342 -0.730585 0
M  V30 9424 H 890.01 3.03669 -2.41675 0
M  V30 9425 H 888.111 3.72568 -0.0492052 0
M  V30 9426 H 888.224 4.44351 -1.79134 0
M  V30 9427 H 886.588 2.39674 -0.861881 0
M  V30 9428 H 887.371 2.31886 -2.53148 0
M  V30 9429 N 889.816 0.795718 1.36037 0
M  V30 9430 C 891.093 0.294743 1.93367 0
M  V30 9431 C 891.473 -1.21406 1.72696 0
M  V30 9432 O 890.821 -2.00849 1.08959 0
M  V30 9433 C 891.031 0.694254 3.42025 0
M  V30 9434 C 892.379 0.677566 4.19159 0
M  V30 9435 O 893.403 0.635119 3.50492 0
M  V30 9436 O 892.262 0.726127 5.41655 0
M  V30 9437 H 889.356 0.0745459 0.823633 0
M  V30 9438 H 891.902 0.878685 1.4518 0
M  V30 9439 H 890.674 1.73458 3.50753 0
M  V30 9440 H 890.297 0.0845338 3.9751 0
M  V30 9441 N 891.294 -1.47756 0.548274 0
M  V30 9442 C 892.542 -2.02089 0.0208542 0
M  V30 9443 C 892.863 -1.42589 -1.33017 0
M  V30 9444 O 892.133 -0.597825 -1.86555 0
M  V30 9445 H 890.713 -0.746985 0.00472023 0
M  V30 9446 H 893.375 -1.81262 0.716257 0
M  V30 9447 H 892.471 -3.12012 -0.0739016 0
M  V30 9448 N 892.772 -0.284283 -1.55015 0
M  V30 9449 C 893.682 0.60906 -2.26556 0
M  V30 9450 C 894.698 1.16246 -1.29472 0
M  V30 9451 O 895.874 1.1908 -1.62425 0
M  V30 9452 C 892.939 1.77246 -2.97968 0
M  V30 9453 C 892 1.25482 -4.10552 0
M  V30 9454 C 891.233 2.36277 -4.78549 0
M  V30 9455 O 891.456 3.55829 -4.45805 0
M  V30 9456 O 890.39 2.03914 -5.66306 0
M  V30 9457 H 894.216 0.0292298 -3.03686 0
M  V30 9458 H 891.801 -0.0513466 -1.49312 0
M  V30 9459 H 893.683 2.45062 -3.42815 0
M  V30 9460 H 892.358 2.33921 -2.23747 0
M  V30 9461 H 891.265 0.542859 -3.7014 0
M  V30 9462 H 892.598 0.733708 -4.86701 0
M  V30 9463 N 894.251 1.57596 -0.0117121 0
M  V30 9464 C 895.662 1.79033 0.529521 0
M  V30 9465 C 896.013 0.920299 1.73277 0
M  V30 9466 O 895.138 0.125934 2.16033 0
M  V30 9467 C 895.733 3.24695 0.967405 0
M  V30 9468 C 894.292 3.47188 1.45387 0
M  V30 9469 C 893.439 2.74245 0.410466 0
M  V30 9470 H 896.39 1.56908 -0.237836 0
M  V30 9471 H 896.411 3.33451 1.83278 0
M  V30 9472 H 895.923 3.87992 0.0914605 0
M  V30 9473 H 894.024 2.89121 2.35032 0
M  V30 9474 H 894.137 4.55886 1.47325 0
M  V30 9475 H 892.501 2.39209 0.874721 0
M  V30 9476 H 893.284 3.40248 -0.456713 0
M  V30 9477 N 895.729 -0.261212 1.5542 0
M  V30 9478 C 896.957 -1.00916 1.8062 0
M  V30 9479 C 897.372 -1.79494 0.585444 0
M  V30 9480 O 896.729 -1.76974 -0.445702 0
M  V30 9481 C 896.78 -1.95841 3.03856 0
M  V30 9482 O 896.501 -1.20445 4.21218 0
M  V30 9483 C 898.002 -2.82352 3.41749 0
M  V30 9484 H 895.222 -0.297596 0.601397 0
M  V30 9485 H 897.766 -0.288427 2.02456 0
M  V30 9486 H 895.921 -2.63361 2.84112 0
M  V30 9487 H 896.335 -1.84528 4.90968 0
M  V30 9488 H 897.809 -3.44733 4.31118 0
M  V30 9489 H 898.286 -3.5273 2.61683 0
M  V30 9490 H 898.892 -2.20306 3.63793 0
M  V30 9491 N 897.207 -1.48554 -0.526253 0
M  V30 9492 C 898.456 -1.56014 -1.27837 0
M  V30 9493 C 898.769 -0.240643 -1.94114 0
M  V30 9494 O 899.975 -0.193525 -2.70809 0
M  V30 9495 C 898.431 -2.75161 -2.31979 0
M  V30 9496 C 898.039 -4.13768 -1.71755 0
M  V30 9497 C 899.783 -2.91936 -3.08178 0
M  V30 9498 C 897.69 -5.24171 -2.7386 0
M  V30 9499 H 896.62 -0.58082 -0.480795 0
M  V30 9500 H 899.271 -1.74895 -0.555335 0
M  V30 9501 H 897.653 -2.49722 -3.07335 0
M  V30 9502 H 898.827 -4.49241 -1.02563 0
M  V30 9503 H 897.142 -4.02141 -1.08036 0
M  V30 9504 H 899.739 -3.71586 -3.84484 0
M  V30 9505 H 900.082 -2.01533 -3.64267 0
M  V30 9506 H 900.615 -3.17294 -2.39937 0
M  V30 9507 H 897.354 -6.16552 -2.22586 0
M  V30 9508 H 896.874 -4.93181 -3.41368 0
M  V30 9509 H 898.553 -5.52442 -3.36774 0
M  V30 9510 N 898.685 0.775411 -1.37205 0
M  V30 9511 C 900.101 1.07546 -1.17924 0
M  V30 9512 C 900.301 2.01496 -0.0128897 0
M  V30 9513 O 899.357 2.44039 0.64816 0
M  V30 9514 C 900.67 1.67647 -2.49629 0
M  V30 9515 C 902.218 1.79923 -2.56119 0
M  V30 9516 C 902.693 2.43438 -3.87946 0
M  V30 9517 N 904.184 2.50893 -3.89368 0
M  V30 9518 C 904.919 3.00881 -4.88117 0
M  V30 9519 N 904.415 3.5107 -5.97262 0
M  V30 9520 N 906.208 2.99722 -4.75524 0
M  V30 9521 H 898.359 0.151524 -2.11859 0
M  V30 9522 H 900.622 0.129845 -0.939066 0
M  V30 9523 H 900.328 1.06082 -3.3532 0
M  V30 9524 H 900.202 2.66988 -2.66453 0
M  V30 9525 H 902.589 2.40621 -1.70838 0
M  V30 9526 H 902.67 0.793482 -2.43182 0
M  V30 9527 H 902.314 1.8338 -4.73639 0
M  V30 9528 H 902.244 3.44611 -3.98184 0
M  V30 9529 H 904.735 2.1537 -3.10522 0
M  V30 9530 H 905.048 3.87604 -6.68568 0
M  V30 9531 H 903.393 3.49184 -6.00912 0
M  V30 9532 H 906.584 2.5981 -3.8938 0
M  V30 9533 H 906.757 3.38369 -5.52639 0
M  V30 9534 N 900.163 1.21714 1.00117 0
M  V30 9535 C 901.126 0.981338 2.07129 0
M  V30 9536 C 902.126 -0.0491116 1.60725 0
M  V30 9537 O 903.316 0.188555 1.73177 0
M  V30 9538 C 900.448 0.480608 3.37495 0
M  V30 9539 H 901.641 1.93075 2.29482 0
M  V30 9540 H 899.194 1.03467 1.17151 0
M  V30 9541 H 899.929 -0.473552 3.20824 0
M  V30 9542 H 899.714 1.22393 3.72508 0
M  V30 9543 H 901.204 0.33561 4.16249 0
M  V30 9544 N 901.641 -1.19671 1.02551 0
M  V30 9545 C 902.591 -2.20655 0.574037 0
M  V30 9546 C 903.575 -1.56459 -0.375412 0
M  V30 9547 O 904.767 -1.75901 -0.196929 0
M  V30 9548 C 901.896 -3.43213 -0.0772031 0
M  V30 9549 C 900.982 -4.1456 0.894485 0
M  V30 9550 N 901.373 -4.62147 2.05557 0
M  V30 9551 C 899.671 -4.40196 0.717205 0
M  V30 9552 C 900.372 -5.16899 2.66814 0
M  V30 9553 N 899.348 -5.07496 1.94804 0
M  V30 9554 H 903.15 -2.55124 1.45908 0
M  V30 9555 H 900.664 -1.35707 0.89204 0
M  V30 9556 H 902.661 -4.14797 -0.41824 0
M  V30 9557 H 901.321 -3.10247 -0.957973 0
M  V30 9558 H 902.332 -4.5708 2.43513 0
M  V30 9559 H 899.009 -4.17342 -0.114758 0
M  V30 9560 H 900.399 -5.64032 3.65126 0
M  V30 9561 N 903.119 -0.802921 -1.35613 0
M  V30 9562 C 904.367 -0.380822 -1.9848 0
M  V30 9563 C 904.688 1.05464 -1.6402 0
M  V30 9564 O 903.958 1.72908 -0.920854 0
M  V30 9565 H 902.538 -0.137824 -0.734176 0
M  V30 9566 H 905.2 -1.02795 -1.65587 0
M  V30 9567 H 904.296 -0.483565 -3.08331 0
M  V30 9568 N 904.597 1.47463 -0.556102 0
M  V30 9569 C 905.844 2.02475 -0.0316337 0
M  V30 9570 C 906.172 1.43057 1.31777 0
M  V30 9571 O 905.427 0.575376 1.87051 0
M  V30 9572 C 905.726 3.57224 0.112126 0
M  V30 9573 C 905.392 4.35557 -1.16624 0
M  V30 9574 C 904.054 4.56678 -1.51654 0
M  V30 9575 C 906.406 4.8074 -2.01342 0
M  V30 9576 C 903.734 5.20231 -2.7125 0
M  V30 9577 C 906.086 5.45613 -3.2014 0
M  V30 9578 C 904.75 5.64967 -3.55484 0
M  V30 9579 H 904.02 0.74091 -0.0115756 0
M  V30 9580 H 906.667 1.77148 -0.727392 0
M  V30 9581 H 904.972 3.81538 0.890842 0
M  V30 9582 H 906.669 3.97438 0.533261 0
M  V30 9583 H 903.259 4.19395 -0.883489 0
M  V30 9584 H 907.443 4.64201 -1.75587 0
M  V30 9585 H 902.699 5.3341 -2.98804 0
M  V30 9586 H 906.873 5.79587 -3.86073 0
M  V30 9587 H 904.5 6.13984 -4.4825 0
M  V30 9588 N 906.075 0.2925 1.54862 0
M  V30 9589 C 907.322 -0.319263 1.99967 0
M  V30 9590 C 907.65 -1.54547 1.18092 0
M  V30 9591 O 906.905 -1.94186 0.242969 0
M  V30 9592 C 907.204 -0.728674 3.49893 0
M  V30 9593 C 906.87 0.394836 4.49168 0
M  V30 9594 C 905.532 0.703289 4.76033 0
M  V30 9595 C 907.884 1.15103 5.08331 0
M  V30 9596 C 905.212 1.77121 5.59325 0
M  V30 9597 C 907.564 2.20881 5.92785 0
M  V30 9598 C 906.228 2.52342 6.17964 0
M  V30 9599 H 905.498 -0.116827 0.731733 0
M  V30 9600 H 908.145 0.40983 1.87063 0
M  V30 9601 H 906.45 -1.53772 3.60363 0
M  V30 9602 H 908.147 -1.21305 3.82212 0
M  V30 9603 H 904.737 0.144319 4.28357 0
M  V30 9604 H 908.921 0.92599 4.87585 0
M  V30 9605 H 904.177 2.01978 5.77074 0
M  V30 9606 H 908.351 2.79939 6.37657 0
M  V30 9607 H 905.978 3.35225 6.82296 0
M  V30 9608 N 907.553 -1.57587 0.0200696 0
M  V30 9609 C 908.969 -1.56018 -0.336237 0
M  V30 9610 C 909.169 -1.02478 -1.73495 0
M  V30 9611 O 908.225 -0.667487 -2.43518 0
M  V30 9612 C 909.538 -3.00079 -0.193112 0
M  V30 9613 C 911.086 -3.11863 -0.266557 0
M  V30 9614 C 911.561 -4.57747 -0.152326 0
M  V30 9615 N 913.052 -4.62726 -0.209596 0
M  V30 9616 C 913.787 -5.73217 -0.144855 0
M  V30 9617 N 913.283 -6.92794 -0.0295487 0
M  V30 9618 N 915.076 -5.61751 -0.198184 0
M  V30 9619 H 907.227 -1.90722 0.93482 0
M  V30 9620 H 909.49 -0.876909 0.360186 0
M  V30 9621 H 909.196 -3.43167 0.770036 0
M  V30 9622 H 909.07 -3.64593 -0.967029 0
M  V30 9623 H 911.457 -2.68693 -1.22016 0
M  V30 9624 H 911.538 -2.50087 0.53758 0
M  V30 9625 H 911.182 -5.01595 0.797817 0
M  V30 9626 H 911.112 -5.17491 -0.97521 0
M  V30 9627 H 913.603 -3.76713 -0.299229 0
M  V30 9628 H 913.916 -7.72799 0.0134071 0
M  V30 9629 H 912.261 -6.95 0.00510737 0
M  V30 9630 H 915.452 -4.67222 -0.286603 0
M  V30 9631 H 915.625 -6.47839 -0.144266 0
M  V30 9632 N 909.032 0.252966 -1.55557 0
M  V30 9633 C 910.278 0.979092 -1.78284 0
M  V30 9634 C 910.633 1.83194 -0.588009 0
M  V30 9635 O 909.926 1.86965 0.418899 0
M  V30 9636 C 910.12 1.87785 -3.04091 0
M  V30 9637 C 909.949 1.11349 -4.35697 0
M  V30 9638 C 908.719 0.821038 -4.98585 0
M  V30 9639 C 910.917 0.494039 -5.11922 0
M  V30 9640 N 908.899 0.0319767 -6.13892 0
M  V30 9641 C 910.27 -0.159888 -6.19794 0
M  V30 9642 C 912.325 0.403894 -4.96259 0
M  V30 9643 C 911.028 -0.895295 -7.13706 0
M  V30 9644 C 913.054 -0.317968 -5.90545 0
M  V30 9645 C 912.416 -0.960555 -6.9782 0
M  V30 9646 H 908.515 0.339586 -0.704419 0
M  V30 9647 H 911.099 0.252801 -1.93052 0
M  V30 9648 H 909.27 2.57623 -2.90663 0
M  V30 9649 H 911.002 2.53908 -3.15139 0
M  V30 9650 H 907.757 1.13132 -4.59889 0
M  V30 9651 H 908.181 -0.35047 -6.76092 0
M  V30 9652 H 912.823 0.886366 -4.13405 0
M  V30 9653 H 910.541 -1.38939 -7.96066 0
M  V30 9654 H 914.127 -0.388302 -5.80503 0
M  V30 9655 H 913.007 -1.51022 -7.69521 0
M  V30 9656 N 910.51 1.48831 0.518367 0
M  V30 9657 C 911.759 1.5669 1.27008 0
M  V30 9658 C 912.072 0.250934 1.93984 0
M  V30 9659 O 913.278 0.207884 2.70703 0
M  V30 9660 C 911.734 2.76387 2.30517 0
M  V30 9661 C 911.342 4.14673 1.69559 0
M  V30 9662 C 913.086 2.93566 3.06625 0
M  V30 9663 C 910.993 5.25616 2.71076 0
M  V30 9664 H 909.923 0.583362 0.477708 0
M  V30 9665 H 912.574 1.75187 0.546052 0
M  V30 9666 H 910.956 2.51348 3.06006 0
M  V30 9667 H 912.13 4.49779 1.00179 0
M  V30 9668 H 910.445 4.02708 1.05902 0
M  V30 9669 H 913.042 3.7362 3.82508 0
M  V30 9670 H 913.385 2.03462 3.63193 0
M  V30 9671 H 913.918 3.18562 2.38251 0
M  V30 9672 H 910.657 6.17723 2.19313 0
M  V30 9673 H 910.177 4.94985 3.38748 0
M  V30 9674 H 911.856 5.5422 3.3384 0
M  V30 9675 N 911.988 -0.768124 1.37614 0
M  V30 9676 C 913.265 -1.51637 1.23554 0
M  V30 9677 C 913.645 -2.1042 -0.169331 0
M  V30 9678 O 912.993 -1.95834 -1.17735 0
M  V30 9679 C 913.203 -2.59436 2.33439 0
M  V30 9680 C 914.551 -3.2674 2.71157 0
M  V30 9681 O 915.575 -2.69733 2.32642 0
M  V30 9682 O 914.434 -4.29814 3.37524 0
M  V30 9683 H 911.528 -0.671778 0.482332 0
M  V30 9684 H 914.074 -0.804779 1.49403 0
M  V30 9685 H 912.846 -2.14146 3.27502 0
M  V30 9686 H 912.469 -3.38192 2.09073 0
M  V30 9687 N 913.466 -1.22244 -0.994698 0
M  V30 9688 C 914.712 -1.05752 -1.73747 0
M  V30 9689 C 915.067 0.403416 -1.88123 0
M  V30 9690 O 914.36 1.29511 -1.412 0
M  V30 9691 C 914.554 -1.70014 -3.14372 0
M  V30 9692 C 914.383 -3.22205 -3.1371 0
M  V30 9693 C 913.153 -3.91301 -3.19705 0
M  V30 9694 C 915.351 -4.19163 -2.98005 0
M  V30 9695 N 913.333 -5.30594 -3.08778 0
M  V30 9696 C 914.704 -5.45274 -2.95087 0
M  V30 9697 C 916.759 -4.10078 -2.82383 0
M  V30 9698 C 915.462 -6.63345 -2.78146 0
M  V30 9699 C 917.488 -5.27797 -2.66803 0
M  V30 9700 C 916.85 -6.52826 -2.6457 0
M  V30 9701 H 912.949 -0.441393 -0.64552 0
M  V30 9702 H 915.533 -1.54757 -1.18146 0
M  V30 9703 H 913.704 -1.23562 -3.68221 0
M  V30 9704 H 915.436 -1.46631 -3.77202 0
M  V30 9705 H 912.191 -3.42289 -3.27315 0
M  V30 9706 H 912.615 -6.0358 -3.06628 0
M  V30 9707 H 917.257 -3.14201 -2.82909 0
M  V30 9708 H 914.975 -7.59373 -2.76367 0
M  V30 9709 H 918.561 -5.22598 -2.557 0
M  V30 9710 H 917.441 -7.42383 -2.5266 0
M  V30 9711 N 914.944 1.19125 -1.03184 0
M  V30 9712 C 915.854 2.26112 -0.625329 0
M  V30 9713 C 916.87 1.7056 0.344298 0
M  V30 9714 O 918.046 2.0039 0.20144 0
M  V30 9715 C 915.111 3.46697 0.0145169 0
M  V30 9716 C 914.172 4.17419 -1.00299 0
M  V30 9717 C 913.405 5.32247 -0.393581 0
M  V30 9718 O 913.628 5.64724 0.802659 0
M  V30 9719 O 912.562 5.91428 -1.1179 0
M  V30 9720 H 916.388 2.63131 -1.51643 0
M  V30 9721 H 913.973 1.26036 -0.802197 0
M  V30 9722 H 915.855 4.19762 0.371139 0
M  V30 9723 H 914.53 3.11521 0.879581 0
M  V30 9724 H 913.437 3.4646 -1.41125 0
M  V30 9725 H 914.77 4.56573 -1.83852 0
M  V30 9726 N 916.422 0.810101 1.35185 0
M  V30 9727 C 917.838 0.494269 1.51754 0
M  V30 9728 C 918.038 -0.983907 1.75845 0
M  V30 9729 O 917.094 -1.76882 1.80191 0
M  V30 9730 C 918.407 1.34268 2.69059 0
M  V30 9731 C 919.955 1.33848 2.82938 0
M  V30 9732 C 920.43 2.17109 4.03271 0
M  V30 9733 N 921.921 2.14664 4.10456 0
M  V30 9734 C 922.656 2.75843 5.02691 0
M  V30 9735 N 922.152 3.45962 6.00235 0
M  V30 9736 N 923.945 2.65465 4.95464 0
M  V30 9737 H 916.096 1.76736 1.17805 0
M  V30 9738 H 918.359 0.752429 0.576676 0
M  V30 9739 H 918.065 2.39183 2.57845 0
M  V30 9740 H 917.939 0.998362 3.63748 0
M  V30 9741 H 920.326 0.29716 2.936 0
M  V30 9742 H 920.407 1.72269 1.89095 0
M  V30 9743 H 920.051 3.21283 3.93369 0
M  V30 9744 H 919.981 1.76046 4.96302 0
M  V30 9745 H 922.472 1.63648 3.40628 0
M  V30 9746 H 922.785 3.89922 6.67219 0
M  V30 9747 H 921.13 3.50067 6.00398 0
M  V30 9748 H 924.321 2.1027 4.18215 0
M  V30 9749 H 924.494 3.13433 5.67154 0
M  V30 9750 N 917.9 -1.47166 0.563914 0
M  V30 9751 C 918.83 -2.32894 -0.168148 0
M  V30 9752 C 919.811 -1.44202 -0.902214 0
M  V30 9753 O 920.996 -1.73048 -0.881365 0
M  V30 9754 C 918.126 -3.26116 -1.19439 0
M  V30 9755 C 917.08 -4.24101 -0.576363 0
M  V30 9756 C 916.406 -5.06696 -1.70772 0
M  V30 9757 C 917.706 -5.20142 0.47425 0
M  V30 9758 H 919.4 -2.9435 0.547573 0
M  V30 9759 H 916.946 -1.41545 0.264778 0
M  V30 9760 H 918.899 -3.84935 -1.71474 0
M  V30 9761 H 917.623 -2.62728 -1.94014 0
M  V30 9762 H 916.282 -3.66519 -0.0772534 0
M  V30 9763 H 915.93 -4.39707 -2.44268 0
M  V30 9764 H 915.63 -5.7304 -1.29994 0
M  V30 9765 H 917.154 -5.68375 -2.2312 0
M  V30 9766 H 918.568 -5.73286 0.0397035 0
M  V30 9767 H 916.965 -5.94726 0.801287 0
M  V30 9768 H 918.035 -4.65214 1.36764 0
M  V30 9769 N 919.378 -0.300708 -1.54705 0
M  V30 9770 C 920.288 0.584996 -2.27189 0
M  V30 9771 C 921.304 1.14866 -1.30697 0
M  V30 9772 O 922.48 1.17351 -1.63679 0
M  V30 9773 C 919.545 1.74076 -2.99831 0
M  V30 9774 C 918.606 1.2112 -4.1186 0
M  V30 9775 C 917.839 2.31188 -4.81028 0
M  V30 9776 O 918.062 3.5108 -4.49554 0
M  V30 9777 O 916.996 1.97897 -5.68437 0
M  V30 9778 H 920.822 -0.00298177 -3.037 0
M  V30 9779 H 918.407 -0.0671802 -1.49249 0
M  V30 9780 H 920.289 2.41413 -3.45395 0
M  V30 9781 H 918.964 2.31535 -2.26215 0
M  V30 9782 H 917.871 0.50357 -3.70695 0
M  V30 9783 H 919.204 0.682046 -4.87452 0
M  V30 9784 N 920.856 1.57574 -0.0284266 0
M  V30 9785 C 922.272 1.56194 0.327958 0
M  V30 9786 C 922.472 1.03397 1.72949 0
M  V30 9787 O 921.528 0.680392 2.4316 0
M  V30 9788 C 922.841 3.00177 0.177196 0
M  V30 9789 C 924.389 3.12 0.250014 0
M  V30 9790 C 924.864 4.57821 0.128049 0
M  V30 9791 N 926.355 4.6283 0.185054 0
M  V30 9792 C 927.09 5.73286 0.114454 0
M  V30 9793 N 926.586 6.928 -0.00719225 0
M  V30 9794 N 928.379 5.61848 0.16839 0
M  V30 9795 H 920.53 1.90224 -0.944921 0
M  V30 9796 H 922.793 0.874987 -0.364832 0
M  V30 9797 H 922.499 3.42753 -0.788224 0
M  V30 9798 H 922.373 3.65101 0.94768 0
M  V30 9799 H 924.76 2.69337 1.20589 0
M  V30 9800 H 924.841 2.49799 -0.550835 0
M  V30 9801 H 924.485 5.01165 -0.824407 0
M  V30 9802 H 924.415 5.18001 0.947753 0
M  V30 9803 H 926.906 3.76867 0.279247 0
M  V30 9804 H 927.219 7.72781 -0.0543903 0
M  V30 9805 H 925.564 6.94987 -0.0419648 0
M  V30 9806 H 928.755 4.67367 0.261821 0
M  V30 9807 H 928.928 6.47907 0.109908 0
M  V30 9808 N 922.334 -0.244713 1.55689 0
M  V30 9809 C 923.264 -1.30667 1.93516 0
M  V30 9810 C 924.245 -1.50094 0.800371 0
M  V30 9811 O 925.43 -1.62665 1.06083 0
M  V30 9812 C 922.56 -2.66101 2.23176 0
M  V30 9813 C 921.514 -2.61366 3.38927 0
M  V30 9814 C 920.84 -4.00616 3.54134 0
M  V30 9815 C 922.14 -2.18161 4.74555 0
M  V30 9816 H 923.834 -0.992546 2.82469 0
M  V30 9817 H 921.38 -0.476018 1.35905 0
M  V30 9818 H 923.333 -3.4053 2.48228 0
M  V30 9819 H 922.057 -2.99154 1.31051 0
M  V30 9820 H 920.716 -1.89395 3.13887 0
M  V30 9821 H 920.364 -4.30938 2.59426 0
M  V30 9822 H 920.064 -3.98335 4.31975 0
M  V30 9823 H 921.588 -4.76741 3.8151 0
M  V30 9824 H 923.002 -2.82323 4.98965 0
M  V30 9825 H 921.399 -2.26988 5.55515 0
M  V30 9826 H 922.469 -1.13333 4.7147 0
M  V30 9827 N 923.813 -1.49104 -0.510467 0
M  V30 9828 C 924.723 -1.67792 -1.6396 0
M  V30 9829 C 925.739 -0.560454 -1.64727 0
M  V30 9830 O 926.915 -0.833985 -1.83321 0
M  V30 9831 C 923.98 -1.73154 -3.00364 0
M  V30 9832 C 923.041 -2.9667 -3.10299 0
M  V30 9833 C 922.274 -3.01767 -4.40196 0
M  V30 9834 O 922.497 -2.1472 -5.28443 0
M  V30 9835 O 921.431 -3.94137 -4.54906 0
M  V30 9836 H 925.257 -2.63428 -1.51126 0
M  V30 9837 H 922.842 -1.32734 -0.685719 0
M  V30 9838 H 924.724 -1.79089 -3.81451 0
M  V30 9839 H 923.399 -0.806952 -3.1348 0
M  V30 9840 H 922.306 -2.96257 -2.28435 0
M  V30 9841 H 923.639 -3.88578 -3.02106 0
M  V30 9842 N 925.291 0.760815 -1.38019 0
M  V30 9843 C 926.54 1.51506 -1.3315 0
M  V30 9844 C 926.853 1.95444 0.0782124 0
M  V30 9845 O 928.059 2.70352 0.249418 0
M  V30 9846 C 926.515 2.73636 -2.33776 0
M  V30 9847 C 926.123 2.36753 -3.80332 0
M  V30 9848 C 927.867 3.51548 -2.37937 0
M  V30 9849 C 925.774 3.55451 -4.72661 0
M  V30 9850 H 924.704 0.568844 -0.494907 0
M  V30 9851 H 927.355 0.832343 -1.63537 0
M  V30 9852 H 925.737 3.43852 -1.96422 0
M  V30 9853 H 926.911 1.7425 -4.26584 0
M  V30 9854 H 925.226 1.71991 -3.7922 0
M  V30 9855 H 927.823 4.39791 -3.04119 0
M  V30 9856 H 928.166 3.9219 -1.39617 0
M  V30 9857 H 928.699 2.88339 -2.74054 0
M  V30 9858 H 925.438 3.19882 -5.7215 0
M  V30 9859 H 924.958 4.17022 -4.31107 0
M  V30 9860 H 926.637 4.22125 -4.90326 0
M  V30 9861 N 926.769 1.22769 0.988202 0
M  V30 9862 C 928.18 1.0512 1.54294 0
M  V30 9863 C 928.531 -0.383904 1.92407 0
M  V30 9864 O 927.656 -1.26955 1.75246 0
M  V30 9865 C 928.251 1.90198 2.80375 0
M  V30 9866 C 926.81 1.76831 3.32276 0
M  V30 9867 C 925.957 1.86377 2.05326 0
M  V30 9868 H 928.908 1.36546 0.808758 0
M  V30 9869 H 928.929 1.42216 3.52923 0
M  V30 9870 H 928.441 2.9464 2.52605 0
M  V30 9871 H 926.542 0.751412 3.64945 0
M  V30 9872 H 926.655 2.59771 4.02562 0
M  V30 9873 H 925.019 1.2987 2.19103 0
M  V30 9874 H 925.802 2.9236 1.79946 0
M  V30 9875 N 928.247 -1.18576 1.03814 0
M  V30 9876 C 929.658 -1.70159 0.768299 0
M  V30 9877 C 930.009 -1.8286 -0.711106 0
M  V30 9878 O 929.134 -1.5063 -1.55369 0
M  V30 9879 C 929.729 -3.09062 1.38804 0
M  V30 9880 C 928.288 -3.57866 1.16656 0
M  V30 9881 C 927.435 -2.34484 1.48029 0
M  V30 9882 H 930.386 -1.03287 1.20488 0
M  V30 9883 H 930.407 -3.72211 0.7899 0
M  V30 9884 H 929.919 -2.99785 2.46476 0
M  V30 9885 H 928.02 -3.72442 0.108471 0
M  V30 9886 H 928.133 -4.41445 1.8618 0
M  V30 9887 H 926.497 -2.38273 0.899902 0
M  V30 9888 H 927.28 -2.27829 2.56805 0
M  V30 9889 N 929.725 -0.817259 -1.34754 0
M  V30 9890 C 931.136 -0.462215 -1.80888 0
M  V30 9891 C 931.487 1.01685 -1.67794 0
M  V30 9892 O 930.612 1.79094 -1.21468 0
M  V30 9893 C 931.207 -0.832204 -3.2842 0
M  V30 9894 C 929.766 -0.52961 -3.72655 0
M  V30 9895 C 928.913 -1.05214 -2.56564 0
M  V30 9896 H 931.864 -1.00795 -1.22581 0
M  V30 9897 H 931.885 -0.133804 -3.80265 0
M  V30 9898 H 931.397 -1.90873 -3.37919 0
M  V30 9899 H 929.498 0.537743 -3.68699 0
M  V30 9900 H 929.611 -1.06971 -4.67005 0
M  V30 9901 H 927.975 -0.473949 -2.50251 0
M  V30 9902 H 928.758 -2.135 -2.68836 0
M  V30 9903 N 931.203 1.46865 -0.571711 0
M  V30 9904 C 932.45 2.0243 -0.0531071 0
M  V30 9905 C 932.778 1.44446 1.30252 0
M  V30 9906 O 932.033 0.595182 1.8643 0
M  V30 9907 C 932.332 3.57323 0.0742311 0
M  V30 9908 C 931.998 4.34295 -1.21237 0
M  V30 9909 C 930.66 4.55044 -1.56489 0
M  V30 9910 C 933.012 4.78577 -2.0643 0
M  V30 9911 C 930.34 5.17325 -2.76752 0
M  V30 9912 C 932.692 5.42186 -3.25909 0
M  V30 9913 C 931.356 5.61165 -3.61456 0
M  V30 9914 H 930.626 0.740745 -0.0194333 0
M  V30 9915 H 933.273 1.76366 -0.74614 0
M  V30 9916 H 931.578 3.82461 0.850325 0
M  V30 9917 H 933.275 3.97982 0.491077 0
M  V30 9918 H 929.865 4.18435 -0.927922 0
M  V30 9919 H 934.049 4.62313 -1.80501 0
M  V30 9920 H 929.305 5.30211 -3.04444 0
M  V30 9921 H 933.479 5.75459 -3.92198 0
M  V30 9922 H 931.106 6.09195 -4.54737 0
M  V30 9923 N 932.681 0.308908 1.54543 0
M  V30 9924 C 934.097 -0.0442273 1.59539 0
M  V30 9925 C 934.297 -1.51743 1.32575 0
M  V30 9926 O 933.353 -2.27134 1.10302 0
M  V30 9927 C 934.666 0.360826 2.98527 0
M  V30 9928 C 936.214 0.310252 3.11459 0
M  V30 9929 C 936.689 0.690246 4.52769 0
M  V30 9930 N 938.18 0.643084 4.58714 0
M  V30 9931 C 938.915 0.909483 5.66141 0
M  V30 9932 N 938.411 1.24226 6.81572 0
M  V30 9933 N 940.204 0.836018 5.55848 0
M  V30 9934 H 932.355 1.26893 1.70329 0
M  V30 9935 H 934.618 0.514986 0.795923 0
M  V30 9936 H 934.324 1.38669 3.23209 0
M  V30 9937 H 934.198 -0.281563 3.76148 0
M  V30 9938 H 936.585 -0.706375 2.86521 0
M  V30 9939 H 936.666 0.987373 2.35976 0
M  V30 9940 H 936.31 1.70472 4.78437 0
M  V30 9941 H 936.24 -0.00903075 5.26599 0
M  V30 9942 H 938.731 0.397138 3.75807 0
M  V30 9943 H 939.044 1.4313 7.5943 0
M  V30 9944 H 937.389 1.28038 6.83104 0
M  V30 9945 H 940.58 0.575637 4.64547 0
M  V30 9946 H 940.753 1.047 6.39486 0
M  V30 9947 N 934.159 -1.57557 0.0367827 0
M  V30 9948 C 935.57 -1.79853 -0.500971 0
M  V30 9949 C 935.921 -0.947749 -1.71791 0
M  V30 9950 O 935.046 -0.160287 -2.15806 0
M  V30 9951 C 935.641 -3.26193 -0.915626 0
M  V30 9952 C 934.2 -3.49457 -1.39845 0
M  V30 9953 C 933.347 -2.74864 -0.366784 0
M  V30 9954 H 936.298 -1.56509 0.262768 0
M  V30 9955 H 936.319 -3.36324 -1.7795 0
M  V30 9956 H 935.831 -3.88089 -0.0297227 0
M  V30 9957 H 933.932 -2.92823 -2.30402 0
M  V30 9958 H 934.045 -4.58172 -1.40054 0
M  V30 9959 H 932.409 -2.4057 -0.836554 0
M  V30 9960 H 933.192 -3.39479 0.510785 0
M  V30 9961 N 935.637 0.236453 -1.55816 0
M  V30 9962 C 937.053 0.585465 -1.48474 0
M  V30 9963 C 937.253 1.8785 -0.72902 0
M  V30 9964 O 936.309 2.51131 -0.262614 0
M  V30 9965 C 937.622 0.678506 -2.92945 0
M  V30 9966 C 939.17 0.770135 -3.03378 0
M  V30 9967 C 939.645 0.894649 -4.49177 0
M  V30 9968 N 941.136 0.959253 -4.53158 0
M  V30 9969 C 941.871 1.07505 -5.63232 0
M  V30 9970 N 941.367 1.15572 -6.83092 0
M  V30 9971 N 943.16 1.10902 -5.51051 0
M  V30 9972 H 935.311 -0.612241 -2.03385 0
M  V30 9973 H 937.574 -0.212796 -0.923808 0
M  V30 9974 H 937.28 -0.201757 -3.51121 0
M  V30 9975 H 937.154 1.54703 -3.44016 0
M  V30 9976 H 939.541 1.64085 -2.45276 0
M  V30 9977 H 939.622 -0.123753 -2.555 0
M  V30 9978 H 939.266 0.0284537 -5.07892 0
M  V30 9979 H 939.196 1.80373 -4.94745 0
M  V30 9980 H 941.687 0.907827 -3.66834 0
M  V30 9981 H 942 1.24343 -7.62731 0
M  V30 9982 H 940.345 1.12511 -6.85833 0
M  V30 9983 H 943.536 1.04255 -4.56343 0
M  V30 9984 H 943.709 1.19581 -6.36871 0
M  V30 9985 N 937.115 1.49373 0.502552 0
M  V30 9986 C 938.526 1.52 1.0841 0
M  V30 9987 C 938.877 0.305317 1.9381 0
M  V30 9988 O 938.002 -0.585023 2.08342 0
M  V30 9989 C 938.597 2.75437 1.97281 0
M  V30 9990 C 937.156 2.80848 2.50602 0
M  V30 9991 C 936.303 2.45894 1.28186 0
M  V30 9992 H 939.254 1.56092 0.286533 0
M  V30 9993 H 939.275 2.55511 2.81947 0
M  V30 9994 H 938.787 3.63827 1.35098 0
M  V30 9995 H 936.888 1.96735 3.16427 0
M  V30 9996 H 937.001 3.82979 2.8786 0
M  V30 9997 H 935.365 1.97639 1.60657 0
M  V30 9998 H 936.148 3.36556 0.677139 0
M  V30 9999 N 938.594 -0.753485 1.38421 0
M  V30 10000 C 939.834 -1.52544 1.3605 0
M  V30 10001 C 940.198 -1.91937 -0.0493257 0
M  V30 10002 O 941.399 -2.6807 -0.197908 0
M  V30 10003 C 939.67 -2.74432 2.28958 0
M  V30 10004 S 941.229 -3.64297 2.44607 0
M  V30 10005 H 938.047 -0.522017 0.48272 0
M  V30 10006 H 940.649 -0.884503 1.74347 0
M  V30 10007 H 939.353 -2.43602 3.30282 0
M  V30 10008 H 938.884 -3.43471 1.91811 0
M  V30 10009 H 940.899 -4.67245 1.67022 0
M  V30 10010 N 940.072 -1.23292 -0.981677 0
M  V30 10011 C 941.32 -1.06214 -1.71939 0
M  V30 10012 C 941.641 0.401989 -1.90812 0
M  V30 10013 O 940.911 1.28825 -1.47584 0
M  V30 10014 H 939.491 -0.390042 -0.637084 0
M  V30 10015 H 942.153 -1.54988 -1.18173 0
M  V30 10016 H 941.249 -1.54904 -2.70945 0
M  V30 10017 N 941.55 1.18024 -1.04442 0
M  V30 10018 C 942.966 1.40107 -0.76435 0
M  V30 10019 C 943.166 1.90914 0.644516 0
M  V30 10020 O 942.222 2.0959 1.40813 0
M  V30 10021 C 943.535 2.39851 -1.81361 0
M  V30 10022 C 945.083 2.53571 -1.83496 0
M  V30 10023 C 945.558 3.56583 -2.87424 0
M  V30 10024 N 947.049 3.64094 -2.86339 0
M  V30 10025 C 947.784 4.43537 -3.63405 0
M  V30 10026 N 947.28 5.26557 -4.50233 0
M  V30 10027 N 949.073 4.38336 -3.51877 0
M  V30 10028 H 941.224 0.833726 -1.95353 0
M  V30 10029 H 943.487 0.42881 -0.845474 0
M  V30 10030 H 943.193 2.09576 -2.82438 0
M  V30 10031 H 943.067 3.39251 -1.6489 0
M  V30 10032 H 945.454 2.83161 -0.830883 0
M  V30 10033 H 945.535 1.54272 -2.04044 0
M  V30 10034 H 945.179 3.27733 -3.88012 0
M  V30 10035 H 945.109 4.55569 -2.6413 0
M  V30 10036 H 947.6 3.04814 -2.23376 0
M  V30 10037 H 947.913 5.84336 -5.05738 0
M  V30 10038 H 946.258 5.25964 -4.54298 0
M  V30 10039 H 949.449 3.72528 -2.83444 0
M  V30 10040 H 949.622 5.00007 -4.12186 0
M  V30 10041 N 943.028 0.824394 1.34319 0
M  V30 10042 C 944.253 0.425194 2.02995 0
M  V30 10043 C 944.678 -0.961476 1.6167 0
M  V30 10044 O 944.036 -1.62593 0.80207 0
M  V30 10045 C 944.084 0.537004 3.56579 0
M  V30 10046 O 943.188 -0.442576 4.10018 0
M  V30 10047 H 942.529 0.174853 0.640564 0
M  V30 10048 H 945.059 1.11522 1.71534 0
M  V30 10049 H 945.069 0.413311 4.05901 0
M  V30 10050 H 943.744 1.54836 3.86004 0
M  V30 10051 H 942.321 -0.277644 3.71865 0
M  V30 10052 N 944.506 -1.46559 0.579492 0
M  V30 10053 C 945.754 -2.02 0.0637157 0
M  V30 10054 C 946.075 -1.45378 -1.29962 0
M  V30 10055 O 945.345 -0.637262 -1.85245 0
M  V30 10056 H 943.925 -0.746717 0.0205638 0
M  V30 10057 H 946.587 -1.79702 0.754544 0
M  V30 10058 H 945.683 -3.12099 -0.00770254 0
M  V30 10059 N 945.984 -0.3171 -1.54377 0
M  V30 10060 C 946.894 0.560867 -2.27797 0
M  V30 10061 C 947.91 1.13473 -1.31908 0
M  V30 10062 O 949.086 1.15608 -1.64914 0
M  V30 10063 C 946.151 1.70886 -3.0166 0
M  V30 10064 C 945.212 1.16745 -4.13121 0
M  V30 10065 C 944.445 2.26073 -4.83453 0
M  V30 10066 O 944.668 3.46292 -4.53252 0
M  V30 10067 O 943.602 1.91856 -5.70504 0
M  V30 10068 H 947.428 -0.035193 -3.0368 0
M  V30 10069 H 945.013 -0.0830062 -1.49169 0
M  V30 10070 H 946.895 2.37736 -3.47936 0
M  V30 10071 H 945.57 2.29122 -2.28658 0
M  V30 10072 H 944.477 0.464224 -3.71209 0
M  V30 10073 H 945.81 0.630307 -4.88147 0
M  V30 10074 N 947.462 1.57535 -0.0451378 0
M  V30 10075 C 948.41 2.12351 0.949205 0
M  V30 10076 C 949.404 1.05386 1.32628 0
M  V30 10077 O 950.61 1.23802 1.30664 0
M  V30 10078 H 946.985 0.678648 0.323945 0
M  V30 10079 H 948.956 2.94806 0.461718 0
M  V30 10080 C 947.705 2.67862 2.21687 0
M  V30 10081 H 947.028 3.49826 1.93551 0
M  V30 10082 H 948.468 3.09844 2.89435 0
M  V30 10083 C 946.927 1.61353 2.95748 0
M  V30 10084 O 947.457 1.02276 3.88462 0
M  V30 10085 N 945.663 1.33017 2.5837 0
M  V30 10086 H 945.21 1.81246 1.83051 0
M  V30 10087 H 945.168 0.619812 3.0823 0
M  V30 10088 N 948.94 -0.228186 1.55939 0
M  V30 10089 C 950.187 -0.953552 1.78644 0
M  V30 10090 C 950.515 -1.84596 0.61275 0
M  V30 10091 O 949.77 -1.91502 -0.403175 0
M  V30 10092 C 950.069 -1.82924 3.0704 0
M  V30 10093 C 949.735 -1.09062 4.37511 0
M  V30 10094 C 948.397 -0.886565 4.72962 0
M  V30 10095 C 950.749 -0.568533 5.1809 0
M  V30 10096 C 948.077 -0.148413 5.86512 0
M  V30 10097 C 950.429 0.156243 6.32407 0
M  V30 10098 C 949.093 0.371612 6.66465 0
M  V30 10099 H 948.363 -0.348929 0.653704 0
M  V30 10100 H 951.01 -0.222211 1.90206 0
M  V30 10101 H 949.315 -2.62823 2.90571 0
M  V30 10102 H 951.012 -2.3925 3.21808 0
M  V30 10103 H 947.602 -1.25963 4.09672 0
M  V30 10104 H 951.786 -0.713673 4.91142 0
M  V30 10105 H 947.042 0.0287418 6.11393 0
M  V30 10106 H 951.216 0.568333 6.94077 0
M  V30 10107 H 948.843 0.945522 7.54297 0
M  V30 10108 N 950.418 -1.49637 -0.494624 0
M  V30 10109 C 951.695 -1.4995 -1.25596 0
M  V30 10110 C 952.075 -0.230805 -2.09834 0
M  V30 10111 O 951.423 0.786625 -2.14533 0
M  V30 10112 C 951.633 -2.78204 -2.10721 0
M  V30 10113 C 952.981 -3.27946 -2.69698 0
M  V30 10114 O 954.005 -2.79365 -2.20984 0
M  V30 10115 O 952.864 -4.12571 -3.58395 0
M  V30 10116 H 949.958 -0.60044 -0.568684 0
M  V30 10117 H 952.504 -1.61906 -0.508371 0
M  V30 10118 H 951.276 -3.62029 -1.48494 0
M  V30 10119 H 950.899 -2.69139 -2.92661 0
M  V30 10120 N 951.896 0.746133 -1.38819 0
M  V30 10121 C 952.843 1.86001 -1.36647 0
M  V30 10122 C 953.813 1.6453 -0.227849 0
M  V30 10123 O 954.998 1.86092 -0.421241 0
M  V30 10124 C 952.138 3.23388 -1.20474 0
M  V30 10125 C 951.251 3.5664 -2.43786 0
M  V30 10126 C 950.386 4.8337 -2.20287 0
M  V30 10127 C 949.425 5.09431 -3.39332 0
M  V30 10128 N 948.562 6.2736 -3.1522 0
M  V30 10129 H 953.402 1.87192 -2.31869 0
M  V30 10130 H 950.939 0.914838 -1.15192 0
M  V30 10131 H 952.897 4.02679 -1.09112 0
M  V30 10132 H 951.527 3.21505 -0.288874 0
M  V30 10133 H 950.579 2.72135 -2.65794 0
M  V30 10134 H 951.891 3.71823 -3.3249 0
M  V30 10135 H 951.045 5.70619 -2.06103 0
M  V30 10136 H 949.784 4.70341 -1.28961 0
M  V30 10137 H 948.789 4.20648 -3.54027 0
M  V30 10138 H 950.014 5.24354 -4.31544 0
M  V30 10139 H 947.96 6.15639 -2.26549 0
M  V30 10140 H 947.877 6.43078 -3.97476 0
M  V30 10141 H 949.145 7.17477 -3.04707 0
M  V30 10142 N 953.375 1.23811 0.975125 0
M  V30 10143 C 954.622 1.07336 1.71712 0
M  V30 10144 C 954.95 -0.388954 1.90571 0
M  V30 10145 O 954.205 -1.30409 1.45918 0
M  V30 10146 C 954.504 1.74994 3.11628 0
M  V30 10147 C 954.17 3.24918 3.12632 0
M  V30 10148 C 952.832 3.65822 3.12614 0
M  V30 10149 C 955.184 4.20797 3.07538 0
M  V30 10150 C 952.512 5.01054 3.05224 0
M  V30 10151 C 954.864 5.56027 3.0169 0
M  V30 10152 C 953.528 5.96287 2.99996 0
M  V30 10153 H 952.798 0.392771 0.62834 0
M  V30 10154 H 955.445 1.53815 1.14075 0
M  V30 10155 H 953.75 1.20889 3.72684 0
M  V30 10156 H 955.447 1.5972 3.67819 0
M  V30 10157 H 952.037 2.92359 3.13407 0
M  V30 10158 H 956.221 3.902 3.06688 0
M  V30 10159 H 951.477 5.31454 3.02268 0
M  V30 10160 H 955.651 6.3003 2.96706 0
M  V30 10161 H 953.278 7.01037 2.94025 0
M  V30 10162 N 954.853 -1.17469 1.05066 0
M  V30 10163 C 956.1 -1.87698 0.759987 0
M  V30 10164 C 956.428 -1.80964 -0.712902 0
M  V30 10165 O 955.683 -1.21146 -1.53695 0
M  V30 10166 C 955.982 -3.37211 1.18421 0
M  V30 10167 C 955.648 -3.64148 2.65909 0
M  V30 10168 C 954.31 -3.71209 3.06199 0
M  V30 10169 C 956.662 -3.75724 3.61222 0
M  V30 10170 C 953.99 -3.87334 4.40669 0
M  V30 10171 C 956.342 -3.93368 4.95424 0
M  V30 10172 C 955.006 -3.98667 5.3537 0
M  V30 10173 H 954.276 -0.686835 0.278099 0
M  V30 10174 H 956.923 -1.38975 1.31751 0
M  V30 10175 H 955.228 -3.87982 0.545654 0
M  V30 10176 H 956.925 -3.89911 0.936518 0
M  V30 10177 H 953.515 -3.59276 2.33707 0
M  V30 10178 H 957.699 -3.69591 3.31235 0
M  V30 10179 H 952.955 -3.89685 4.71122 0
M  V30 10180 H 957.129 -4.01267 5.69173 0
M  V30 10181 H 954.756 -4.10915 6.39572 0
M  V30 10182 N 956.331 -0.831506 -1.3388 0
M  V30 10183 C 957.559 -0.436925 -2.02234 0
M  V30 10184 C 957.974 0.959689 -1.6259 0
M  V30 10185 O 957.331 1.62248 -0.835576 0
M  V30 10186 C 957.382 -0.539429 -3.57453 0
M  V30 10187 O 957.103 -1.88101 -3.95664 0
M  V30 10188 C 958.604 -0.140852 -4.43076 0
M  V30 10189 H 955.824 -0.174302 -0.647966 0
M  V30 10190 H 958.368 -1.12204 -1.70969 0
M  V30 10191 H 956.523 0.0976959 -3.87277 0
M  V30 10192 H 956.937 -1.86131 -4.90363 0
M  V30 10193 H 958.411 -0.26364 -5.5137 0
M  V30 10194 H 958.888 0.916505 -4.29531 0
M  V30 10195 H 959.494 -0.752117 -4.18597 0
M  V30 10196 N 957.809 1.4625 -0.587256 0
M  V30 10197 C 959.225 1.57641 -0.249284 0
M  V30 10198 C 959.425 1.58169 1.24839 0
M  V30 10199 O 958.481 1.50109 2.03036 0
M  V30 10200 C 959.794 2.86837 -0.902509 0
M  V30 10201 C 961.342 3.00476 -0.876524 0
M  V30 10202 C 961.817 4.32414 -1.50938 0
M  V30 10203 N 963.308 4.39124 -1.47392 0
M  V30 10204 C 964.043 5.39838 -1.93293 0
M  V30 10205 N 963.539 6.47202 -2.47188 0
M  V30 10206 N 965.332 5.31068 -1.84183 0
M  V30 10207 H 957.483 1.44151 -1.55994 0
M  V30 10208 H 959.746 0.687905 -0.652297 0
M  V30 10209 H 959.452 2.92274 -1.95624 0
M  V30 10210 H 959.326 3.74927 -0.413466 0
M  V30 10211 H 961.713 2.94618 0.168601 0
M  V30 10212 H 961.794 2.1385 -1.40363 0
M  V30 10213 H 961.438 4.3903 -2.55372 0
M  V30 10214 H 961.368 5.17823 -0.957455 0
M  V30 10215 H 963.859 3.62138 -1.08002 0
M  V30 10216 H 964.172 7.20269 -2.80058 0
M  V30 10217 H 962.517 6.48009 -2.51216 0
M  V30 10218 H 965.708 4.46095 -1.41833 0
M  V30 10219 H 965.881 6.09414 -2.2027 0
M  V30 10220 N 959.287 0.325282 1.54207 0
M  V30 10221 C 960.25 -0.527228 2.23054 0
M  V30 10222 C 961.25 -1.04217 1.22456 0
M  V30 10223 O 962.44 -0.934325 1.47024 0
M  V30 10224 C 959.572 -1.7325 2.93594 0
M  V30 10225 H 960.765 0.0746423 2.99807 0
M  V30 10226 H 958.318 0.0763872 1.56113 0
M  V30 10227 H 959.053 -2.37356 2.20981 0
M  V30 10228 H 958.838 -1.37065 3.67363 0
M  V30 10229 H 960.328 -2.3376 3.46043 0
M  V30 10230 N 960.765 -1.57509 0.0534917 0
M  V30 10231 C 961.728 -2.10563 -0.905307 0
M  V30 10232 C 962.728 -1.02571 -1.23838 0
M  V30 10233 O 963.918 -1.28635 -1.17468 0
M  V30 10234 C 961.05 -2.5918 -2.21447 0
M  V30 10235 H 962.243 -2.96575 -0.445354 0
M  V30 10236 H 959.796 -1.55079 -0.194947 0
M  V30 10237 H 960.531 -1.76568 -2.72019 0
M  V30 10238 H 960.316 -3.38098 -1.98575 0
M  V30 10239 H 961.806 -3.00365 -2.90122 0
M  V30 10240 N 962.243 0.219913 -1.56058 0
M  V30 10241 C 963.654 0.786766 -1.69313 0
M  V30 10242 C 964.005 1.84916 -0.655782 0
M  V30 10243 O 963.13 2.1554 0.192772 0
M  V30 10244 C 963.725 1.43387 -3.06962 0
M  V30 10245 C 962.284 1.94809 -3.22066 0
M  V30 10246 C 961.431 0.808863 -2.65241 0
M  V30 10247 H 964.382 -0.00476777 -1.58699 0
M  V30 10248 H 964.403 2.30272 -3.02911 0
M  V30 10249 H 963.915 0.660405 -3.8244 0
M  V30 10250 H 962.016 2.74952 -2.5146 0
M  V30 10251 H 962.129 2.12694 -4.293 0
M  V30 10252 H 960.493 1.21661 -2.23765 0
M  V30 10253 H 961.276 0.0480458 -3.43266 0
M  V30 10254 N 963.721 1.49897 0.486681 0
M  V30 10255 C 964.684 1.67086 1.56891 0
M  V30 10256 C 965.684 0.54209 1.51387 0
M  V30 10257 O 966.874 0.80883 1.54284 0
M  V30 10258 C 964.006 1.68159 2.96539 0
M  V30 10259 H 965.199 2.63626 1.42974 0
M  V30 10260 H 962.752 1.39143 0.711954 0
M  V30 10261 H 963.487 0.732562 3.15918 0
M  V30 10262 H 963.272 2.50147 3.01942 0
M  V30 10263 H 964.762 1.83466 3.7514 0
M  V30 10264 N 965.199 -0.738761 1.39212 0
M  V30 10265 C 966.129 -1.86602 1.40364 0
M  V30 10266 C 967.11 -1.67984 0.267495 0
M  V30 10267 O 968.295 -1.88358 0.472765 0
M  V30 10268 C 965.425 -3.24308 1.24265 0
M  V30 10269 C 964.379 -3.57557 2.35239 0
M  V30 10270 C 963.705 -4.94159 2.04233 0
M  V30 10271 C 965.005 -3.60914 3.77543 0
M  V30 10272 H 966.699 -1.85896 2.34698 0
M  V30 10273 H 964.245 -0.892959 1.1297 0
M  V30 10274 H 966.198 -4.02838 1.23692 0
M  V30 10275 H 964.922 -3.25531 0.263974 0
M  V30 10276 H 963.581 -2.81354 2.35022 0
M  V30 10277 H 963.229 -4.91959 1.04813 0
M  V30 10278 H 962.929 -5.17373 2.78567 0
M  V30 10279 H 964.453 -5.7505 2.05303 0
M  V30 10280 H 965.867 -4.29528 3.79709 0
M  V30 10281 H 964.264 -3.95644 4.51205 0
M  V30 10282 H 965.334 -2.60803 4.08791 0
M  V30 10283 N 966.677 -1.24326 -0.968545 0
M  V30 10284 C 967.905 -1.10947 -1.74638 0
M  V30 10285 C 968.32 0.338064 -1.85749 0
M  V30 10286 O 967.677 1.23331 -1.3452 0
M  V30 10287 C 967.728 -1.74254 -3.1673 0
M  V30 10288 O 967.449 -3.13347 -3.06178 0
M  V30 10289 C 968.95 -1.66473 -4.10855 0
M  V30 10290 H 966.17 -0.38767 -0.547679 0
M  V30 10291 H 968.714 -1.64415 -1.21605 0
M  V30 10292 H 966.869 -1.2479 -3.66751 0
M  V30 10293 H 967.283 -3.44255 -3.95713 0
M  V30 10294 H 968.757 -2.15452 -5.08217 0
M  V30 10295 H 969.234 -0.625785 -4.34719 0
M  V30 10296 H 969.84 -2.15359 -3.66743 0
M  V30 10297 N 968.156 1.1691 -1.05688 0
M  V30 10298 C 969.567 1.68915 -0.795273 0
M  V30 10299 C 969.918 1.83968 0.681925 0
M  V30 10300 O 969.043 1.53083 1.52953 0
M  V30 10301 C 969.638 3.06814 -1.43703 0
M  V30 10302 C 968.197 3.55965 -1.22335 0
M  V30 10303 C 967.344 2.32099 -1.51741 0
M  V30 10304 H 970.295 1.01357 -1.22116 0
M  V30 10305 H 970.316 3.70907 -0.849016 0
M  V30 10306 H 969.828 2.95826 -2.51214 0
M  V30 10307 H 967.929 3.72222 -0.16771 0
M  V30 10308 H 968.042 4.38427 -1.9318 0
M  V30 10309 H 966.406 2.36811 -0.937696 0
M  V30 10310 H 967.189 2.23715 -2.60397 0
M  V30 10311 N 969.634 0.838594 1.33437 0
M  V30 10312 C 971.045 0.490934 1.8013 0
M  V30 10313 C 971.396 -0.990024 1.6939 0
M  V30 10314 O 970.521 -1.77139 1.24302 0
M  V30 10315 C 971.116 0.884347 3.27055 0
M  V30 10316 C 969.675 0.588829 3.71766 0
M  V30 10317 C 968.822 1.09282 2.54858 0
M  V30 10318 H 971.773 1.02732 1.20962 0
M  V30 10319 H 971.794 0.194283 3.80004 0
M  V30 10320 H 971.306 1.96225 3.34839 0
M  V30 10321 H 969.407 -0.479018 3.69508 0
M  V30 10322 H 969.52 1.14387 4.65245 0
M  V30 10323 H 967.884 0.513702 2.49466 0
M  V30 10324 H 968.667 2.1775 2.65405 0
M  V30 10325 N 971.112 -1.45937 0.595003 0
M  V30 10326 C 972.389 -1.95592 0.0178748 0
M  V30 10327 C 972.769 -1.53758 -1.44643 0
M  V30 10328 O 972.117 -0.794104 -2.14257 0
M  V30 10329 C 972.327 -3.4841 0.202789 0
M  V30 10330 C 973.675 -4.2453 0.0770121 0
M  V30 10331 O 974.699 -3.55954 0.132257 0
M  V30 10332 O 973.558 -5.46479 -0.0484271 0
M  V30 10333 H 970.652 -0.825888 -0.0428702 0
M  V30 10334 H 973.198 -1.56162 0.664184 0
M  V30 10335 H 971.97 -3.71787 1.22027 0
M  V30 10336 H 971.593 -3.947 -0.479376 0
M  V30 10337 N 972.59 -0.333456 -1.54032 0
M  V30 10338 C 974.006 0.0188405 -1.59589 0
M  V30 10339 C 974.206 1.49615 -1.34972 0
M  V30 10340 O 973.262 2.2535 -1.13901 0
M  V30 10341 C 974.575 -0.408273 -2.97915 0
M  V30 10342 C 976.123 -0.359763 -3.10926 0
M  V30 10343 C 976.598 -0.76219 -4.51613 0
M  V30 10344 N 978.089 -0.715981 -4.57633 0
M  V30 10345 C 978.824 -0.999436 -5.64623 0
M  V30 10346 N 978.32 -1.35053 -6.79509 0
M  V30 10347 N 980.113 -0.924343 -5.54448 0
M  V30 10348 H 972.264 -1.29587 -1.68289 0
M  V30 10349 H 974.527 -0.527584 -0.787629 0
M  V30 10350 H 974.233 -1.43793 -3.20962 0
M  V30 10351 H 974.107 0.221685 -3.76548 0
M  V30 10352 H 976.494 0.660703 -2.87609 0
M  V30 10353 H 976.575 -1.02479 -2.34375 0
M  V30 10354 H 976.219 -1.78062 -4.75664 0
M  V30 10355 H 976.149 -0.0747478 -5.26547 0
M  V30 10356 H 978.64 -0.456875 -3.75128 0
M  V30 10357 H 978.953 -1.55194 -7.57057 0
M  V30 10358 H 977.298 -1.38889 -6.80981 0
M  V30 10359 H 980.489 -0.649469 -4.63573 0
M  V30 10360 H 980.662 -1.1486 -6.37739 0
M  V30 10361 N 974.068 1.57479 -0.061844 0
M  V30 10362 C 974.998 2.15181 0.9066 0
M  V30 10363 C 975.979 1.07624 1.31724 0
M  V30 10364 O 977.164 1.35614 1.39006 0
M  V30 10365 C 974.294 2.70542 2.17771 0
M  V30 10366 C 973.248 3.83178 1.9068 0
M  V30 10367 C 972.574 4.25099 3.24337 0
M  V30 10368 C 973.874 5.07853 1.21994 0
M  V30 10369 H 975.568 2.96355 0.42594 0
M  V30 10370 H 973.114 1.42556 0.203435 0
M  V30 10371 H 975.067 3.09552 2.85929 0
M  V30 10372 H 973.791 1.86575 2.68062 0
M  V30 10373 H 972.45 3.44656 1.24931 0
M  V30 10374 H 972.098 3.38069 3.72449 0
M  V30 10375 H 971.798 5.01021 3.07005 0
M  V30 10376 H 973.322 4.66718 3.93709 0
M  V30 10377 H 974.736 5.44242 1.80204 0
M  V30 10378 H 973.133 5.88987 1.14954 0
M  V30 10379 H 974.203 4.84497 0.197536 0
M  V30 10380 N 975.546 -0.211634 1.56173 0
M  V30 10381 C 976.792 -0.935935 1.79911 0
M  V30 10382 C 977.125 -1.83589 0.633155 0
M  V30 10383 O 976.4 -1.91004 -0.367132 0
M  V30 10384 C 976.683 -1.76638 3.13801 0
M  V30 10385 C 976.536 -0.892259 4.40861 0
M  V30 10386 C 977.855 -2.74224 3.44223 0
M  V30 10387 H 974.974 -0.338822 0.654499 0
M  V30 10388 H 977.616 -0.20422 1.88899 0
M  V30 10389 H 975.766 -2.39021 3.0627 0
M  V30 10390 H 977.438 -0.284407 4.60422 0
M  V30 10391 H 975.681 -0.198145 4.33347 0
M  V30 10392 H 976.352 -1.50793 5.31004 0
M  V30 10393 H 978.828 -2.21975 3.51946 0
M  V30 10394 H 977.704 -3.29424 4.39057 0
M  V30 10395 H 977.965 -3.52455 2.66885 0
M  V30 10396 N 977.024 -1.50153 -0.478725 0
M  V30 10397 C 977.954 -1.71384 -1.58587 0
M  V30 10398 C 978.935 -0.562705 -1.60523 0
M  V30 10399 O 980.12 -0.80101 -1.76911 0
M  V30 10400 C 977.25 -1.80094 -2.96957 0
M  V30 10401 C 976.204 -2.95218 -3.09888 0
M  V30 10402 C 975.53 -2.89063 -4.49829 0
M  V30 10403 C 976.83 -4.35841 -2.8782 0
M  V30 10404 H 978.524 -2.64081 -1.41073 0
M  V30 10405 H 976.07 -1.27081 -0.677239 0
M  V30 10406 H 978.023 -1.93531 -3.74331 0
M  V30 10407 H 976.747 -0.840131 -3.1561 0
M  V30 10408 H 975.406 -2.81419 -2.34944 0
M  V30 10409 H 975.054 -1.90844 -4.6539 0
M  V30 10410 H 974.754 -3.66345 -4.59418 0
M  V30 10411 H 976.278 -3.04539 -5.29234 0
M  V30 10412 H 977.692 -4.50205 -3.54948 0
M  V30 10413 H 976.089 -5.14515 -3.0886 0
M  V30 10414 H 977.159 -4.48739 -1.83742 0
M  V30 10415 N 978.502 0.731368 -1.39602 0
M  V30 10416 C 979.465 1.8271 -1.38383 0
M  V30 10417 C 980.465 1.58338 -0.280309 0
M  V30 10418 O 981.655 1.65671 -0.538402 0
M  V30 10419 C 978.787 3.20556 -1.16002 0
M  V30 10420 H 979.98 1.85193 -2.35889 0
M  V30 10421 H 977.533 0.935396 -1.2522 0
M  V30 10422 H 978.268 3.23732 -0.191927 0
M  V30 10423 H 978.053 3.39643 -1.9592 0
M  V30 10424 H 979.543 4.00612 -1.17899 0
M  V30 10425 N 979.98 1.24838 0.961938 0
M  V30 10426 C 981.205 1.11967 1.7458 0
M  V30 10427 C 981.63 -0.323287 1.85301 0
M  V30 10428 O 980.988 -1.23412 1.32812 0
M  V30 10429 C 981.036 1.77066 3.14134 0
M  V30 10430 O 980.14 1.04534 3.98932 0
M  V30 10431 H 979.481 0.391338 0.536424 0
M  V30 10432 H 982.011 1.65259 1.20626 0
M  V30 10433 H 982.021 1.83056 3.64629 0
M  V30 10434 H 980.696 2.82052 3.05646 0
M  V30 10435 H 979.273 1.06372 3.57407 0
M  V30 10436 N 981.458 -1.16348 1.06306 0
M  V30 10437 C 982.707 -1.8622 0.774909 0
M  V30 10438 C 983.02 -1.82598 -0.701245 0
M  V30 10439 O 984.226 -2.48051 -1.10377 0
M  V30 10440 C 982.682 -3.34182 1.33604 0
M  V30 10441 C 982.29 -3.46279 2.84245 0
M  V30 10442 C 984.034 -4.09309 1.12544 0
M  V30 10443 C 981.941 -4.88327 3.33602 0
M  V30 10444 H 980.871 -0.697574 0.286194 0
M  V30 10445 H 983.522 -1.31311 1.28179 0
M  V30 10446 H 981.904 -3.88698 0.756937 0
M  V30 10447 H 983.078 -3.01923 3.48108 0
M  V30 10448 H 981.393 -2.84585 3.03974 0
M  V30 10449 H 983.99 -5.14123 1.46909 0
M  V30 10450 H 984.333 -4.16251 0.0638129 0
M  V30 10451 H 984.866 -3.61032 1.67034 0
M  V30 10452 H 981.605 -4.86565 4.39244 0
M  V30 10453 H 981.125 -5.33307 2.74487 0
M  V30 10454 H 982.804 -5.57144 3.28937 0
M  V30 10455 N 982.937 -0.845659 -1.3299 0
M  V30 10456 C 984.214 -0.366306 -1.92139 0
M  V30 10457 C 984.594 1.14912 -1.77083 0
M  V30 10458 O 983.942 1.96667 -1.16338 0
M  V30 10459 C 984.152 -0.820716 -3.39213 0
M  V30 10460 C 985.5 -0.832667 -4.16355 0
M  V30 10461 O 986.524 -0.764764 -3.47893 0
M  V30 10462 O 985.383 -0.926658 -5.38586 0
M  V30 10463 H 982.477 -0.105063 -0.820299 0
M  V30 10464 H 985.023 -0.931962 -1.41819 0
M  V30 10465 H 983.795 -1.86357 -3.44074 0
M  V30 10466 H 983.418 -0.232009 -3.96923 0
M  V30 10467 N 984.415 1.45619 -0.602734 0
M  V30 10468 C 985.347 2.28662 0.157012 0
M  V30 10469 C 986.36 1.39672 0.836396 0
M  V30 10470 O 987.549 1.64091 0.702599 0
M  V30 10471 C 984.649 3.1528 1.24306 0
M  V30 10472 C 983.822 4.32517 0.651731 0
M  V30 10473 C 982.881 5.00381 1.62804 0
M  V30 10474 O 981.907 5.57333 1.15624 0
M  V30 10475 N 983.109 4.99221 2.96241 0
M  V30 10476 H 985.874 2.94506 -0.555535 0
M  V30 10477 H 983.435 1.55753 -0.441881 0
M  V30 10478 H 985.427 3.57544 1.8959 0
M  V30 10479 H 983.997 2.51376 1.85819 0
M  V30 10480 H 983.217 3.93793 -0.17907 0
M  V30 10481 H 984.505 5.08249 0.236802 0
M  V30 10482 H 983.903 4.54232 3.37179 0
M  V30 10483 H 982.46 5.45364 3.56961 0
M  V30 10484 N 985.893 0.34162 1.53853 0
M  V30 10485 C 986.856 -0.503541 2.236 0
M  V30 10486 C 987.856 -1.02912 1.23554 0
M  V30 10487 O 989.046 -0.918678 1.48007 0
M  V30 10488 C 986.178 -1.70126 2.95415 0
M  V30 10489 H 987.371 0.106437 2.99711 0
M  V30 10490 H 984.924 0.0929408 1.56023 0
M  V30 10491 H 985.659 -2.34999 2.23486 0
M  V30 10492 H 985.444 -1.33161 3.68796 0
M  V30 10493 H 986.934 -2.30077 3.48503 0
M  V30 10494 N 987.371 -1.57444 0.0701946 0
M  V30 10495 C 988.648 -1.84826 -0.6402 0
M  V30 10496 C 989.028 -0.962344 -1.87889 0
M  V30 10497 O 988.376 -0.0282209 -2.28483 0
M  V30 10498 C 988.586 -3.34976 -0.979382 0
M  V30 10499 C 989.934 -4.02448 -1.35355 0
M  V30 10500 O 990.958 -3.39713 -1.07116 0
M  V30 10501 O 989.817 -5.13096 -1.88136 0
M  V30 10502 H 986.911 -0.763494 -0.317813 0
M  V30 10503 H 989.457 -1.69399 0.101004 0
M  V30 10504 H 988.229 -3.91173 -0.0995576 0
M  V30 10505 H 987.852 -3.5566 -1.7774 0
M  V30 10506 N 988.849 0.203349 -1.56283 0
M  V30 10507 C 990.096 0.92501 -1.80138 0
M  V30 10508 C 990.424 1.83598 -0.64204 0
M  V30 10509 O 989.679 1.92119 0.372658 0
M  V30 10510 C 989.978 1.78016 -3.09912 0
M  V30 10511 C 989.644 1.02088 -4.39191 0
M  V30 10512 C 988.306 0.811208 -4.74313 0
M  V30 10513 C 990.658 0.486037 -5.18929 0
M  V30 10514 C 987.986 0.0550856 -5.86674 0
M  V30 10515 C 990.338 -0.256833 -6.32078 0
M  V30 10516 C 989.002 -0.477594 -6.65789 0
M  V30 10517 H 988.272 0.338485 -0.659173 0
M  V30 10518 H 990.919 0.191923 -1.90536 0
M  V30 10519 H 989.224 2.58167 -2.94715 0
M  V30 10520 H 990.921 2.341 -3.25574 0
M  V30 10521 H 987.511 1.1943 -4.11624 0
M  V30 10522 H 991.695 0.635446 -4.92215 0
M  V30 10523 H 986.951 -0.126006 -6.1127 0
M  V30 10524 H 991.125 -0.678683 -6.93085 0
M  V30 10525 H 988.752 -1.0654 -7.52697 0
M  V30 10526 N 990.327 1.50405 0.470755 0
M  V30 10527 C 991.259 1.65447 1.58619 0
M  V30 10528 C 992.272 0.535949 1.53725 0
M  V30 10529 O 993.461 0.80914 1.59107 0
M  V30 10530 C 990.561 1.62318 2.975 0
M  V30 10531 C 989.734 2.90207 3.27259 0
M  V30 10532 C 988.793 2.79717 4.45696 0
M  V30 10533 O 987.819 3.53672 4.45987 0
M  V30 10534 N 989.021 1.93296 5.47373 0
M  V30 10535 H 991.786 2.61659 1.46132 0
M  V30 10536 H 989.347 1.47873 0.659178 0
M  V30 10537 H 991.339 1.52912 3.747 0
M  V30 10538 H 989.909 0.738392 3.03754 0
M  V30 10539 H 989.129 3.13737 2.38669 0
M  V30 10540 H 990.417 3.74931 3.43953 0
M  V30 10541 H 989.815 1.32524 5.49958 0
M  V30 10542 H 988.372 1.89793 6.23556 0
M  V30 10543 N 991.805 -0.723954 1.39988 0
M  V30 10544 C 993.053 -1.48078 1.3754 0
M  V30 10545 C 993.374 -1.94985 -0.0243358 0
M  V30 10546 O 992.644 -1.69764 -0.977602 0
M  V30 10547 H 991.224 -0.549354 0.506181 0
M  V30 10548 H 993.886 -0.858746 1.74962 0
M  V30 10549 H 992.982 -2.35763 2.04505 0
M  V30 10550 N 993.283 -1.25346 -0.955304 0
M  V30 10551 C 994.53 -1.10055 -1.69983 0
M  V30 10552 C 994.858 0.358586 -1.91166 0
M  V30 10553 O 994.113 1.28071 -1.47974 0
M  V30 10554 C 994.412 -1.7993 -3.08804 0
M  V30 10555 C 994.078 -3.29851 -3.07424 0
M  V30 10556 C 992.74 -3.7075 -3.06754 0
M  V30 10557 C 995.092 -4.25636 -3.00805 0
M  V30 10558 C 992.42 -5.05847 -2.97214 0
M  V30 10559 C 994.772 -5.60756 -2.92806 0
M  V30 10560 C 993.436 -6.00984 -2.90472 0
M  V30 10561 H 992.706 -0.402718 -0.622012 0
M  V30 10562 H 995.353 -1.5561 -1.11614 0
M  V30 10563 H 993.658 -1.26803 -3.70713 0
M  V30 10564 H 995.355 -1.65551 -3.65231 0
M  V30 10565 H 991.945 -2.97308 -3.08716 0
M  V30 10566 H 996.129 -3.9503 -3.00441 0
M  V30 10567 H 991.385 -5.36196 -2.93775 0
M  V30 10568 H 995.559 -6.34671 -2.86645 0
M  V30 10569 H 993.186 -7.05626 -2.82835 0
M  V30 10570 N 994.761 1.15782 -1.06922 0
M  V30 10571 C 995.989 1.90355 -0.81072 0
M  V30 10572 C 996.404 1.77779 0.635614 0
M  V30 10573 O 995.761 1.12675 1.43564 0
M  V30 10574 C 995.812 3.4085 -1.2043 0
M  V30 10575 O 995.533 3.53057 -2.59388 0
M  V30 10576 C 997.034 4.32457 -0.974473 0
M  V30 10577 H 994.254 0.60343 -0.293451 0
M  V30 10578 H 996.798 1.46723 -1.42452 0
M  V30 10579 H 994.953 3.82162 -0.634909 0
M  V30 10580 H 995.367 4.46426 -2.75326 0
M  V30 10581 H 996.841 5.36488 -1.29942 0
M  V30 10582 H 997.318 4.39109 0.0894481 0
M  V30 10583 H 997.924 3.96882 -1.52856 0
M  V30 10584 N 996.239 0.8527 1.3254 0
M  V30 10585 C 997.469 0.468363 2.01221 0
M  V30 10586 C 997.877 -0.938966 1.64256 0
M  V30 10587 O 997.22 -1.62387 0.858837 0
M  V30 10588 C 997.282 0.525457 3.55639 0
M  V30 10589 C 996.946 1.89133 4.16026 0
M  V30 10590 C 997.943 2.85652 4.34395 0
M  V30 10591 C 995.628 2.18795 4.52144 0
M  V30 10592 C 997.622 4.09985 4.88048 0
M  V30 10593 C 995.309 3.43381 5.05502 0
M  V30 10594 C 996.307 4.38792 5.23403 0
M  V30 10595 O 995.995 5.61173 5.75622 0
M  V30 10596 H 995.727 0.182712 0.65084 0
M  V30 10597 H 998.281 1.15076 1.70138 0
M  V30 10598 H 996.511 -0.213779 3.86109 0
M  V30 10599 H 998.2 0.156999 4.05596 0
M  V30 10600 H 998.966 2.6404 4.06827 0
M  V30 10601 H 994.845 1.45317 4.37498 0
M  V30 10602 H 998.389 4.84465 5.01936 0
M  V30 10603 H 994.286 3.64844 5.32503 0
M  V30 10604 H 995.054 5.63104 5.94017 0
M  V30 10605 N 997.718 -1.45297 0.610449 0
M  V30 10606 C 998.964 -2.02518 0.106917 0
M  V30 10607 C 999.297 -1.47747 -1.26034 0
M  V30 10608 O 998.572 -0.65329 -1.832 0
M  V30 10609 C 998.855 -3.6003 0.0710975 0
M  V30 10610 C 998.708 -4.25128 1.46922 0
M  V30 10611 C 1000.03 -4.35778 -0.61524 0
M  V30 10612 H 997.146 -0.735896 0.040327 0
M  V30 10613 H 999.788 -1.73117 0.782968 0
M  V30 10614 H 997.938 -3.85209 -0.504611 0
M  V30 10615 H 999.61 -4.11125 2.09223 0
M  V30 10616 H 997.853 -3.83418 2.02911 0
M  V30 10617 H 998.524 -5.34046 1.39637 0
M  V30 10618 H 1001 -4.1591 -0.125871 0
M  V30 10619 H 999.876 -5.45506 -0.609419 0
M  V30 10620 H 1000.14 -4.08859 -1.68186 0
M  V30 10621 N 999.196 -0.349774 -1.5367 0
M  V30 10622 C 1000.14 0.519396 -2.26727 0
M  V30 10623 C 1001.14 1.09673 -1.29105 0
M  V30 10624 O 1002.34 1.04176 -1.46791 0
M  V30 10625 H 998.719 0.186192 -0.728585 0
M  V30 10626 H 1000.69 -0.118736 -2.98164 0
M  V30 10627 C 999.439 1.65535 -3.05767 0
M  V30 10628 H 998.762 1.22038 -3.80719 0
M  V30 10629 H 1000.2 2.23856 -3.6009 0
M  V30 10630 C 998.661 2.58844 -2.15642 0
M  V30 10631 O 999.191 3.61254 -1.75665 0
M  V30 10632 N 997.397 2.27671 -1.80595 0
M  V30 10633 H 996.944 1.44429 -2.13302 0
M  V30 10634 H 996.902 2.90359 -1.20577 0
M  V30 10635 N 1000.67 1.57404 -0.0785433 0
M  V30 10636 C 1002.08 1.81118 0.45311 0
M  V30 10637 C 1002.44 0.992963 1.69218 0
M  V30 10638 O 1001.56 0.217448 2.15305 0
M  V30 10639 C 1002.16 3.28506 0.82882 0
M  V30 10640 C 1000.71 3.53042 1.3053 0
M  V30 10641 C 999.862 2.75739 0.29378 0
M  V30 10642 H 1002.81 1.55758 -0.304171 0
M  V30 10643 H 1002.83 3.40924 1.68971 0
M  V30 10644 H 1002.35 3.88031 -0.0731826 0
M  V30 10645 H 1000.45 2.98829 2.22558 0
M  V30 10646 H 1000.56 4.61724 1.27857 0
M  V30 10647 H 998.924 2.42703 0.772477 0
M  V30 10648 H 999.707 3.38005 -0.600613 0
M  V30 10649 N 1002.15 -0.195058 1.56388 0
M  V30 10650 C 1003.43 -0.941335 1.71459 0
M  V30 10651 C 1003.81 -2.01375 0.633336 0
M  V30 10652 O 1003.16 -2.25715 -0.35567 0
M  V30 10653 C 1003.37 -1.52772 3.13786 0
M  V30 10654 C 1004.71 -2.00983 3.7402 0
M  V30 10655 O 1005.74 -1.62614 3.16915 0
M  V30 10656 O 1004.6 -2.71586 4.7424 0
M  V30 10657 H 1001.69 -0.441451 0.699321 0
M  V30 10658 H 1004.24 -0.184752 1.68691 0
M  V30 10659 H 1003.01 -0.754699 3.83953 0
M  V30 10660 H 1002.63 -2.34914 3.20782 0
M  V30 10661 N 1003.63 -1.50653 -0.462772 0
M  V30 10662 C 1004.88 -1.62057 -1.21424 0
M  V30 10663 C 1005.2 -0.324778 -1.91769 0
M  V30 10664 O 1004.46 0.689828 -1.83139 0
M  V30 10665 C 1004.76 -2.75637 -2.27507 0
M  V30 10666 C 1004.42 -4.15826 -1.74354 0
M  V30 10667 C 1003.09 -4.53969 -1.5958 0
M  V30 10668 C 1005.44 -5.03409 -1.35012 0
M  V30 10669 C 1002.77 -5.77427 -1.03899 0
M  V30 10670 C 1005.12 -6.27422 -0.807704 0
M  V30 10671 C 1003.78 -6.6436 -0.646657 0
M  V30 10672 H 1003.05 -0.59301 -0.44432 0
M  V30 10673 H 1005.7 -1.84612 -0.508999 0
M  V30 10674 H 1004 -2.47203 -3.0397 0
M  V30 10675 H 1005.7 -2.81663 -2.85424 0
M  V30 10676 H 1002.29 -3.85739 -1.86823 0
M  V30 10677 H 1006.48 -4.74567 -1.45258 0
M  V30 10678 H 1001.73 -6.04713 -0.901751 0
M  V30 10679 H 1005.91 -6.94644 -0.494234 0
M  V30 10680 H 1003.53 -7.59901 -0.213053 0
M  V30 10681 N 1005.11 0.71652 -1.4037 0
M  V30 10682 C 1006.35 1.47857 -1.38803 0
M  V30 10683 C 1006.69 1.94197 0.0100536 0
M  V30 10684 O 1005.96 1.68093 0.978521 0
M  V30 10685 C 1006.25 2.7053 -2.37667 0
M  V30 10686 C 1006.1 2.3009 -3.86496 0
M  V30 10687 C 1007.42 3.72684 -2.34082 0
M  V30 10688 H 1004.54 0.53632 -0.505499 0
M  V30 10689 H 1007.18 0.817824 -1.71498 0
M  V30 10690 H 1005.33 3.26906 -2.09916 0
M  V30 10691 H 1007 1.79202 -4.2507 0
M  V30 10692 H 1005.24 1.62102 -4.02375 0
M  V30 10693 H 1005.91 3.18018 -4.51186 0
M  V30 10694 H 1008.39 3.25935 -2.58661 0
M  V30 10695 H 1007.27 4.56157 -3.05306 0
M  V30 10696 H 1007.53 4.20916 -1.35213 0
M  V30 10697 N 1006.59 1.25851 0.948643 0
M  V30 10698 C 1007.54 1.03437 2.03187 0
M  V30 10699 C 1008.52 -0.0307632 1.60871 0
M  V30 10700 O 1009.71 0.185296 1.76027 0
M  V30 10701 C 1006.84 0.661426 3.36868 0
M  V30 10702 C 1005.93 1.76363 3.8569 0
M  V30 10703 N 1006.32 2.9998 4.07241 0
M  V30 10704 C 1004.62 1.64552 4.14534 0
M  V30 10705 C 1005.32 3.71564 4.47566 0
M  V30 10706 N 1004.29 2.99214 4.53841 0
M  V30 10707 H 1008.1 1.97277 2.17851 0
M  V30 10708 H 1005.61 1.16258 1.13392 0
M  V30 10709 H 1007.61 0.482021 4.14104 0
M  V30 10710 H 1006.27 -0.269582 3.23579 0
M  V30 10711 H 1007.28 3.35963 3.94143 0
M  V30 10712 H 1003.95 0.783891 4.10075 0
M  V30 10713 H 1005.34 4.77702 4.72494 0
M  V30 10714 N 1008.06 -1.15214 1.07534 0
M  V30 10715 C 1009.48 -1.67628 0.822045 0
M  V30 10716 C 1009.83 -1.8503 -0.652571 0
M  V30 10717 O 1008.95 -1.55497 -1.50498 0
M  V30 10718 C 1009.55 -3.04489 1.48566 0
M  V30 10719 C 1008.11 -3.53974 1.27983 0
M  V30 10720 C 1007.25 -2.29656 1.55414 0
M  V30 10721 H 1010.2 -0.994016 1.23713 0
M  V30 10722 H 1010.22 -3.69509 0.907916 0
M  V30 10723 H 1009.74 -2.91792 2.55888 0
M  V30 10724 H 1007.84 -3.71908 0.226906 0
M  V30 10725 H 1007.95 -4.35298 2.0013 0
M  V30 10726 H 1006.31 -2.35289 0.975251 0
M  V30 10727 H 1007.1 -2.19544 2.63923 0
M  V30 10728 N 1009.54 -0.859717 -1.32086 0
M  V30 10729 C 1010.82 -0.386665 -1.9174 0
M  V30 10730 C 1011.2 1.13028 -1.78292 0
M  V30 10731 O 1010.55 1.95422 -1.18417 0
M  V30 10732 C 1010.76 -0.856648 -3.38323 0
M  V30 10733 C 1012.11 -0.87678 -4.15449 0
M  V30 10734 O 1013.13 -0.80162 -3.47063 0
M  V30 10735 O 1011.99 -0.98373 -5.37573 0
M  V30 10736 H 1009.08 -0.113758 -0.819139 0
M  V30 10737 H 1011.63 -0.946952 -1.40822 0
M  V30 10738 H 1010.4 -1.89996 -3.42078 0
M  V30 10739 H 1010.02 -0.274095 -3.96654 0
M  V30 10740 N 1011.02 1.44971 -0.618145 0
M  V30 10741 C 1011.98 2.29044 0.0846739 0
M  V30 10742 C 1012.98 1.40341 0.784921 0
M  V30 10743 O 1014.17 1.62351 0.631479 0
M  V30 10744 C 1011.31 3.21617 1.13027 0
M  V30 10745 H 1012.5 2.92668 -0.654612 0
M  V30 10746 H 1010.05 1.51668 -0.377672 0
M  V30 10747 H 1010.79 2.62815 1.89997 0
M  V30 10748 H 1010.57 3.86969 0.63224 0
M  V30 10749 H 1012.06 3.84805 1.62218 0
M  V30 10750 N 1012.5 0.357919 1.53482 0
M  V30 10751 C 1013.91 0.00655107 1.59599 0
M  V30 10752 C 1014.11 -1.47449 1.37336 0
M  V30 10753 O 1013.17 -2.2351 1.17472 0
M  V30 10754 C 1014.48 0.455617 2.97228 0
M  V30 10755 C 1016.03 0.409183 3.10314 0
M  V30 10756 C 1016.51 0.833941 4.50344 0
M  V30 10757 N 1018 0.788695 4.56436 0
M  V30 10758 C 1018.73 1.08914 5.62961 0
M  V30 10759 N 1018.23 1.45847 6.77274 0
M  V30 10760 N 1020.02 1.01243 5.52907 0
M  V30 10761 H 1012.17 1.32248 1.66206 0
M  V30 10762 H 1014.44 0.540047 0.779136 0
M  V30 10763 H 1014.14 1.48881 3.18634 0
M  V30 10764 H 1014.02 -0.161751 3.76853 0
M  V30 10765 H 1016.4 -0.614863 2.88623 0
M  V30 10766 H 1016.48 1.06195 2.32715 0
M  V30 10767 H 1016.13 1.85607 4.72771 0
M  V30 10768 H 1016.06 0.158507 5.26361 0
M  V30 10769 H 1018.55 0.516497 3.74354 0
M  V30 10770 H 1018.86 1.67218 7.54492 0
M  V30 10771 H 1017.21 1.49705 6.78685 0
M  V30 10772 H 1020.4 0.723137 4.62481 0
M  V30 10773 H 1020.57 1.24991 6.35831 0
M  V30 10774 N 1013.98 -1.5736 0.0868897 0
M  V30 10775 C 1015.2 -1.98809 -0.590757 0
M  V30 10776 C 1015.63 -0.965407 -1.61436 0
M  V30 10777 O 1014.98 0.067143 -1.81176 0
M  V30 10778 C 1015.03 -3.39249 -1.22238 0
M  V30 10779 O 1014.14 -3.39706 -2.33824 0
M  V30 10780 H 1013.48 -0.64669 -0.150626 0
M  V30 10781 H 1016.01 -2.03927 0.165873 0
M  V30 10782 H 1016.02 -3.76765 -1.56564 0
M  V30 10783 H 1014.69 -4.13208 -0.472434 0
M  V30 10784 H 1013.27 -3.13977 -2.01178 0
M  V30 10785 N 1015.45 0.186762 -1.56489 0
M  V30 10786 C 1016.87 0.750675 -1.70944 0
M  V30 10787 C 1017.22 1.83483 -0.694858 0
M  V30 10788 O 1016.34 2.159 0.147009 0
M  V30 10789 C 1016.94 1.36843 -3.09934 0
M  V30 10790 C 1015.5 1.87934 -3.26125 0
M  V30 10791 C 1014.64 0.75242 -2.66897 0
M  V30 10792 H 1017.59 -0.0384292 -1.58653 0
M  V30 10793 H 1017.61 2.23795 -3.07727 0
M  V30 10794 H 1017.13 0.579135 -3.83755 0
M  V30 10795 H 1015.23 2.69556 -2.57235 0
M  V30 10796 H 1015.34 2.0354 -4.33715 0
M  V30 10797 H 1013.7 1.16888 -2.26295 0
M  V30 10798 H 1014.49 -0.0247769 -3.43291 0
M  V30 10799 N 1016.93 1.50896 0.454776 0
M  V30 10800 C 1018.16 1.6648 1.22849 0
M  V30 10801 C 1018.58 0.354841 1.85435 0
M  V30 10802 O 1017.93 -0.664931 1.69956 0
M  V30 10803 C 1017.98 2.76787 2.32532 0
M  V30 10804 O 1017.7 4.02706 1.72509 0
M  V30 10805 C 1019.21 3.03488 3.23125 0
M  V30 10806 H 1016.43 0.559152 0.370932 0
M  V30 10807 H 1018.97 1.97215 0.540983 0
M  V30 10808 H 1017.12 2.48701 2.9703 0
M  V30 10809 H 1017.54 4.63834 2.44863 0
M  V30 10810 H 1019.01 3.84294 3.9626 0
M  V30 10811 H 1019.49 2.152 3.82865 0
M  V30 10812 H 1020.1 3.33167 2.64347 0
M  V30 10813 N 1018.41 -0.709066 1.40748 0
M  V30 10814 C 1019.64 -1.50313 1.42901 0
M  V30 10815 C 1020.06 -1.88072 0.032213 0
M  V30 10816 O 1019.42 -1.53716 -0.96131 0
M  V30 10817 C 1019.47 -2.75074 2.33166 0
M  V30 10818 O 1018.57 -3.72036 1.7794 0
M  V30 10819 H 1017.91 -0.452934 0.485538 0
M  V30 10820 H 1020.44 -0.872712 1.85054 0
M  V30 10821 H 1020.45 -3.23532 2.48578 0
M  V30 10822 H 1019.13 -2.46927 3.34664 0
M  V30 10823 H 1017.7 -3.30911 1.71908 0
M  V30 10824 N 1019.89 -1.26353 -0.941956 0
M  V30 10825 C 1021.3 -1.10774 -1.50287 0
M  V30 10826 C 1021.65 0.312229 -1.937 0
M  V30 10827 O 1020.78 1.20364 -1.79838 0
M  V30 10828 C 1021.37 -2.00473 -2.73123 0
M  V30 10829 C 1019.93 -1.89042 -3.25485 0
M  V30 10830 C 1019.08 -1.93869 -1.98267 0
M  V30 10831 H 1022.03 -1.39454 -0.757523 0
M  V30 10832 H 1022.05 -1.55216 -3.47402 0
M  V30 10833 H 1021.56 -3.03812 -2.41495 0
M  V30 10834 H 1019.66 -0.886341 -3.61904 0
M  V30 10835 H 1019.78 -2.74533 -3.92643 0
M  V30 10836 H 1018.14 -1.37912 -2.14132 0
M  V30 10837 H 1018.92 -2.98837 -1.68972 0
M  V30 10838 N 1021.37 1.14642 -1.08144 0
M  V30 10839 C 1022.61 1.85892 -0.810683 0
M  V30 10840 C 1022.95 1.82575 0.661821 0
M  V30 10841 O 1022.22 1.25454 1.48632 0
M  V30 10842 C 1022.5 3.34647 -1.32979 0
M  V30 10843 C 1022.36 3.46551 -2.86744 0
M  V30 10844 C 1023.68 4.29661 -0.952864 0
M  V30 10845 H 1020.8 0.674963 -0.295963 0
M  V30 10846 H 1023.44 1.3464 -1.3406 0
M  V30 10847 H 1021.59 3.78425 -0.87903 0
M  V30 10848 H 1023.26 3.11579 -3.40171 0
M  V30 10849 H 1021.5 2.87849 -3.24539 0
M  V30 10850 H 1022.17 4.51101 -3.18138 0
M  V30 10851 H 1024.65 3.93885 -1.34141 0
M  V30 10852 H 1023.53 5.32209 -1.34331 0
M  V30 10853 H 1023.79 4.41877 0.140392 0
M  V30 10854 N 1022.85 0.866709 1.31628 0
M  V30 10855 C 1024.26 0.529032 1.79048 0
M  V30 10856 C 1024.61 -0.953871 1.71452 0
M  V30 10857 O 1023.73 -1.74462 1.28031 0
M  V30 10858 C 1024.33 0.953522 3.25105 0
M  V30 10859 C 1022.89 0.667554 3.70433 0
M  V30 10860 C 1022.03 1.14664 2.52483 0
M  V30 10861 H 1024.98 1.05275 1.18756 0
M  V30 10862 H 1025.01 0.274844 3.79506 0
M  V30 10863 H 1024.52 2.03283 3.30602 0
M  V30 10864 H 1022.62 -0.400532 3.70441 0
M  V30 10865 H 1022.73 1.2423 4.62714 0
M  V30 10866 H 1021.1 0.566502 2.4832 0
M  V30 10867 H 1021.88 2.2333 2.60727 0
M  V30 10868 N 1024.32 -1.44642 0.625825 0
M  V30 10869 C 1025.57 -2.02393 0.128391 0
M  V30 10870 C 1025.9 -1.49075 -1.2446 0
M  V30 10871 O 1025.18 -0.672684 -1.82497 0
M  V30 10872 C 1025.46 -3.59934 0.109279 0
M  V30 10873 C 1025.31 -4.23546 1.51423 0
M  V30 10874 C 1026.63 -4.36406 -0.568985 0
M  V30 10875 H 1023.75 -0.735427 0.0481299 0
M  V30 10876 H 1026.39 -1.72277 0.801286 0
M  V30 10877 H 1024.54 -3.85722 -0.463726 0
M  V30 10878 H 1026.22 -4.08882 2.13572 0
M  V30 10879 H 1024.46 -3.81245 2.06966 0
M  V30 10880 H 1025.13 -5.32535 1.45294 0
M  V30 10881 H 1027.61 -4.1602 -0.0817516 0
M  V30 10882 H 1026.48 -5.46122 -0.551527 0
M  V30 10883 H 1026.74 -4.1062 -1.6384 0
M  V30 10884 N 1025.8 -0.366053 -1.5329 0
M  V30 10885 C 1027.21 0.113056 -1.86357 0
M  V30 10886 C 1027.56 1.48123 -1.28662 0
M  V30 10887 O 1026.69 2.07658 -0.608849 0
M  V30 10888 C 1027.28 0.211923 -3.38137 0
M  V30 10889 C 1025.84 0.635289 -3.71 0
M  V30 10890 C 1024.99 -0.217203 -2.76448 0
M  V30 10891 H 1027.94 -0.584829 -1.47531 0
M  V30 10892 H 1027.96 1.0354 -3.66142 0
M  V30 10893 H 1027.47 -0.783994 -3.80099 0
M  V30 10894 H 1025.57 1.63942 -3.34595 0
M  V30 10895 H 1025.69 0.409571 -4.77346 0
M  V30 10896 H 1024.05 0.313988 -2.52757 0
M  V30 10897 H 1024.83 -1.21067 -3.21244 0
M  V30 10898 N 1027.28 1.57312 -0.0952337 0
M  V30 10899 C 1028.53 1.94646 0.569284 0
M  V30 10900 C 1028.86 0.977152 1.67825 0
M  V30 10901 O 1028.13 0.0102318 1.94497 0
M  V30 10902 C 1028.42 3.42098 1.12433 0
M  V30 10903 C 1028.27 4.49795 0.0204016 0
M  V30 10904 C 1029.59 3.90866 2.02266 0
M  V30 10905 H 1026.71 0.707779 0.205469 0
M  V30 10906 H 1029.35 1.89274 -0.16597 0
M  V30 10907 H 1027.5 3.46807 1.75092 0
M  V30 10908 H 1029.17 4.57198 -0.613845 0
M  V30 10909 H 1027.41 4.28964 -0.645965 0
M  V30 10910 H 1028.09 5.50166 0.449579 0
M  V30 10911 H 1030.56 3.88311 1.49512 0
M  V30 10912 H 1029.44 4.94604 2.38029 0
M  V30 10913 H 1029.7 3.30167 2.9401 0
M  V30 10914 N 1028.76 -0.17846 1.56586 0
M  V30 10915 C 1029.69 -1.2496 1.90946 0
M  V30 10916 C 1030.67 -1.43136 0.771424 0
M  V30 10917 O 1031.85 -1.58258 1.02405 0
M  V30 10918 C 1028.98 -2.61368 2.15417 0
M  V30 10919 C 1028.03 -2.59969 3.3811 0
M  V30 10920 S 1028.86 -2.09756 4.9271 0
M  V30 10921 C 1030.01 -3.47956 5.20267 0
M  V30 10922 H 1030.25 -0.956287 2.815 0
M  V30 10923 H 1027.78 -0.382709 1.49582 0
M  V30 10924 H 1029.74 -3.39882 2.30197 0
M  V30 10925 H 1028.4 -2.87903 1.25582 0
M  V30 10926 H 1027.59 -3.60309 3.52411 0
M  V30 10927 H 1027.19 -1.89547 3.2241 0
M  V30 10928 H 1029.49 -4.43914 5.11807 0
M  V30 10929 H 1030.43 -3.38536 6.21932 0
M  V30 10930 H 1030.84 -3.43637 4.47855 0
M  V30 10931 O 1030.27 -1.58227 -0.323514 0
M  V30 10932 H 1030.97 -1.67547 -0.971994 0
M  V30 END ATOM
M  V30 BEGIN BOND
M  V30 END BOND
M  V30 END CTAB
M  END
$$$$
