drugbank_target|P05177 Cytochrome P450 1A2 (DB00951; DB07453; DB09061; DB11994; DB14011)
 OpenBabel12092120153D

  0  0  0     0  0            999 V3000
M  V30 BEGIN CTAB
M  V30 COUNTS 8258 8366 0 0 0
M  V30 BEGIN ATOM
M  V30 1 H -0.908 1.98254 -0.117106 0
M  V30 2 N 0 1.576 0 0
M  V30 3 C 0.933 2.03868 1.02534 0
M  V30 4 C 1.911 0.928543 1.3348 0
M  V30 5 O 3.095 1.19667 1.45644 0
M  V30 6 C 0.222 2.43627 2.35294 0
M  V30 7 C -0.732 3.65373 2.2001 0
M  V30 8 S 0.101 5.13292 1.52614 0
M  V30 9 C 1.257 5.56322 2.86805 0
M  V30 10 H 1.49 2.90518 0.631377 0
M  V30 11 H -0.977 1.52953 0.210867 0
M  V30 12 H 0.981 2.67203 3.11629 0
M  V30 13 H -0.358 1.57376 2.7183 0
M  V30 14 H -1.165 3.90944 3.18086 0
M  V30 15 H -1.563 3.418 1.51819 0
M  V30 16 H 0.729 5.58782 3.83104 0
M  V30 17 H 1.672 6.56266 2.65933 0
M  V30 18 H 2.08 4.83886 2.90714 0
M  V30 19 N 1.4781 -0.272755 1.55222 0
M  V30 20 C 2.4411 -1.32041 1.87344 0
M  V30 21 C 3.4411 -1.42342 0.74803 0
M  V30 22 O 4.6311 -1.41488 1.0162 0
M  V30 23 C 1.7631 -2.70173 2.07893 0
M  V30 24 H 2.9561 -1.04789 2.80997 0
M  V30 25 H 0.5091 -0.51083 1.47717 0
M  V30 26 H 1.2441 -3.02605 1.16622 0
M  V30 27 H 1.0291 -2.64082 2.89833 0
M  V30 28 H 2.5191 -3.45869 2.34017 0
M  V30 29 N 2.9562 -1.48159 -0.537278 0
M  V30 30 C 3.8862 -1.65029 -1.6519 0
M  V30 31 C 4.8672 -0.499281 -1.62607 0
M  V30 32 O 6.0522 -0.730972 -1.79918 0
M  V30 33 C 3.1822 -1.68303 -3.03795 0
M  V30 34 C 2.1362 -2.8283 -3.21234 0
M  V30 35 C 1.4622 -2.71189 -4.60826 0
M  V30 36 C 2.7622 -4.24211 -3.04701 0
M  V30 37 H 4.4562 -2.58341 -1.51328 0
M  V30 38 H 2.0022 -1.24325 -0.726585 0
M  V30 39 H 3.9552 -1.78693 -3.81637 0
M  V30 40 H 2.6792 -0.715635 -3.18663 0
M  V30 41 H 1.3382 -2.71983 -2.45807 0
M  V30 42 H 0.9862 -1.72435 -4.7252 0
M  V30 43 H 0.6862 -3.48035 -4.7344 0
M  V30 44 H 2.2102 -2.83537 -5.40777 0
M  V30 45 H 3.6242 -4.3593 -3.72341 0
M  V30 46 H 2.0212 -5.01998 -3.28813 0
M  V30 47 H 3.0912 -4.41184 -2.01209 0
M  V30 48 N 4.4343 0.785586 -1.36625 0
M  V30 49 C 5.6593 1.57963 -1.34397 0
M  V30 50 C 6.0843 1.87964 0.071526 0
M  V30 51 O 5.4423 1.48182 1.0446 0
M  V30 52 C 5.4903 2.87511 -2.17646 0
M  V30 53 O 4.5943 3.81281 -1.57158 0
M  V30 54 H 3.9353 0.479014 -0.459828 0
M  V30 55 H 6.4653 0.973411 -1.79961 0
M  V30 56 H 6.4753 3.36745 -2.30362 0
M  V30 57 H 5.1503 2.65002 -3.20541 0
M  V30 58 H 3.7273 3.39885 -1.53403 0
M  V30 59 N 5.9124 1.20967 1.01018 0
M  V30 60 C 6.8444 0.922059 2.09835 0
M  V30 61 C 7.8574 -0.0927106 1.62536 0
M  V30 62 O 9.0464 0.139127 1.77957 0
M  V30 63 C 6.1464 0.362004 3.36961 0
M  V30 64 C 5.3194 1.42986 4.13369 0
M  V30 65 C 4.3784 0.879976 5.1879 0
M  V30 66 O 3.4044 1.56219 5.47343 0
M  V30 67 N 4.6064 -0.307396 5.79686 0
M  V30 68 H 7.3714 1.8588 2.35093 0
M  V30 69 H 4.9324 1.11422 1.1746 0
M  V30 70 H 6.9244 -0.0201474 4.04695 0
M  V30 71 H 5.4944 -0.479437 3.08902 0
M  V30 72 H 4.7144 1.98608 3.40512 0
M  V30 73 H 6.0024 2.14885 4.61196 0
M  V30 74 H 5.4004 -0.878796 5.58832 0
M  V30 75 H 3.9574 -0.631115 6.48737 0
M  V30 76 N 7.3905 -1.2043 1.01659 0
M  V30 77 C 8.6155 -1.94318 0.724942 0
M  V30 78 C 9.0405 -1.74266 -0.708034 0
M  V30 79 O 8.3985 -1.03694 -1.48719 0
M  V30 80 C 8.4465 -3.44486 1.06591 0
M  V30 81 O 7.5505 -4.12017 0.177599 0
M  V30 82 H 6.8915 -0.60708 0.26898 0
M  V30 83 H 9.4215 -1.52861 1.35995 0
M  V30 84 H 9.4315 -3.95106 1.01762 0
M  V30 85 H 8.1065 -3.58404 2.10997 0
M  V30 86 H 6.6835 -3.71821 0.283421 0
M  V30 87 N 8.8686 -0.792821 -1.36206 0
M  V30 88 C 10.1146 -0.36733 -1.99446 0
M  V30 89 C 10.4476 1.05917 -1.62774 0
M  V30 90 O 9.7226 1.7324 -0.88421 0
M  V30 91 C 10.0056 -0.535044 -3.56103 0
M  V30 92 C 9.8586 -2.00548 -4.02617 0
M  V30 93 C 11.1776 0.0478191 -4.40074 0
M  V30 94 H 8.2966 -0.134941 -0.724541 0
M  V30 95 H 10.9386 -0.999794 -1.61568 0
M  V30 96 H 9.0886 0.00336329 -3.885 0
M  V30 97 H 10.7606 -2.60521 -3.80692 0
M  V30 98 H 9.0036 -2.50686 -3.54032 0
M  V30 99 H 9.6746 -2.07377 -5.11565 0
M  V30 100 H 12.1506 -0.411822 -4.14057 0
M  V30 101 H 11.0266 -0.0995336 -5.4881 0
M  V30 102 H 11.2876 1.14025 -4.27142 0
M  V30 103 N 10.3467 1.47872 -0.545128 0
M  V30 104 C 11.7577 1.86384 -0.108581 0
M  V30 105 C 12.1087 1.45309 1.31832 0
M  V30 106 O 11.2337 0.850641 1.9898 0
M  V30 107 C 11.8287 3.38265 -0.190274 0
M  V30 108 C 10.3877 3.75914 0.191164 0
M  V30 109 C 9.5347 2.71926 -0.543273 0
M  V30 110 H 12.4857 1.39561 -0.755537 0
M  V30 111 H 12.5067 3.75831 0.594217 0
M  V30 112 H 12.0187 3.6813 -1.2289 0
M  V30 113 H 10.1197 3.51665 1.23136 0
M  V30 114 H 10.2327 4.78836 -0.158987 0
M  V30 115 H 8.5967 2.54697 0.0122495 0
M  V30 116 H 9.3797 3.04634 -1.58282 0
M  V30 117 N 11.8248 0.280983 1.55075 0
M  V30 118 C 13.0718 -0.334115 1.99725 0
M  V30 119 C 13.3998 -1.5542 1.1694 0
M  V30 120 O 12.6548 -1.94361 0.228531 0
M  V30 121 C 12.9538 -0.754656 3.49342 0
M  V30 122 C 12.6198 0.361445 4.49449 0
M  V30 123 C 11.2818 0.667893 4.76542 0
M  V30 124 C 13.6338 1.11322 5.09173 0
M  V30 125 C 10.9618 1.7296 5.60626 0
M  V30 126 C 13.3138 2.1647 5.9441 0
M  V30 127 C 11.9778 2.47742 6.19822 0
M  V30 128 H 11.2478 -0.122261 0.730844 0
M  V30 129 H 13.8948 0.395917 1.87363 0
M  V30 130 H 12.1998 -1.56446 3.5921 0
M  V30 131 H 13.8968 -1.24142 3.813 0
M  V30 132 H 10.4868 0.112481 4.28452 0
M  V30 133 H 14.6708 0.88973 4.8826 0
M  V30 134 H 9.9268 1.97684 5.78559 0
M  V30 135 H 14.1008 2.75193 6.3972 0
M  V30 136 H 11.7278 3.30145 6.84769 0
M  V30 137 N 13.3029 -1.57598 0.00835791 0
M  V30 138 C 14.5279 -1.95617 -0.689103 0
M  V30 139 C 14.9529 -0.883753 -1.66046 0
M  V30 140 O 14.3109 0.157352 -1.80616 0
M  V30 141 C 14.3589 -3.32736 -1.38994 0
M  V30 142 O 13.4629 -3.27631 -2.50463 0
M  V30 143 H 12.8039 -0.638379 -0.182668 0
M  V30 144 H 15.3339 -2.045 0.064036 0
M  V30 145 H 15.3439 -3.68494 -1.75147 0
M  V30 146 H 14.0189 -4.1034 -0.677778 0
M  V30 147 H 12.5959 -3.03561 -2.16576 0
M  V30 148 N 14.781 0.264519 -1.55364 0
M  V30 149 C 15.744 1.31046 -1.88042 0
M  V30 150 C 16.744 1.41943 -0.755569 0
M  V30 151 O 17.934 1.40947 -1.02369 0
M  V30 152 C 15.066 2.69067 -2.09323 0
M  V30 153 H 16.259 1.03297 -2.81549 0
M  V30 154 H 13.812 0.502989 -1.47986 0
M  V30 155 H 14.547 3.01982 -1.18226 0
M  V30 156 H 14.332 2.62542 -2.91229 0
M  V30 157 H 15.822 3.44623 -2.35848 0
M  V30 158 N 16.2591 1.48442 0.529413 0
M  V30 159 C 17.4871 1.60151 1.30994 0
M  V30 160 C 17.9021 0.261985 1.86973 0
M  V30 161 O 17.2591 -0.748805 1.66431 0
M  V30 162 C 17.3101 2.64854 2.46038 0
M  V30 163 O 17.0311 3.93608 1.92365 0
M  V30 164 C 18.5321 2.87007 3.37849 0
M  V30 165 H 15.7521 0.539971 0.398338 0
M  V30 166 H 18.2961 1.94273 0.638597 0
M  V30 167 H 16.4511 2.33589 3.09055 0
M  V30 168 H 16.8651 4.51055 2.67675 0
M  V30 169 H 18.3391 3.64068 4.14919 0
M  V30 170 H 18.8161 1.95852 3.93114 0
M  V30 171 H 19.4221 3.19579 2.80623 0
M  V30 172 N 17.7372 -0.778329 1.37039 0
M  V30 173 C 18.6472 -1.92253 1.34446 0
M  V30 174 C 19.6632 -1.72267 0.244991 0
M  V30 175 O 20.8392 -1.95615 0.479258 0
M  V30 176 C 17.9042 -3.27282 1.144 0
M  V30 177 C 16.9652 -3.59969 2.33925 0
M  V30 178 C 16.1982 -4.88555 2.14825 0
M  V30 179 O 16.4212 -5.59113 1.12912 0
M  V30 180 O 15.3552 -5.20153 3.02861 0
M  V30 181 H 19.1812 -1.97392 2.30803 0
M  V30 182 H 16.7662 -0.920154 1.17701 0
M  V30 183 H 18.6482 -4.08062 1.05182 0
M  V30 184 H 17.3232 -3.23011 0.211124 0
M  V30 185 H 16.2302 -2.7945 2.48714 0
M  V30 186 H 17.5632 -3.68976 3.25757 0
M  V30 187 N 19.2153 -1.21501 -1.00376 0
M  V30 188 C 20.1453 -0.999478 -2.11028 0
M  V30 189 C 21.1263 0.0759671 -1.6993 0
M  V30 190 O 22.3113 -0.0841106 -1.94018 0
M  V30 191 C 19.4413 -0.564709 -3.42678 0
M  V30 192 C 18.3953 -1.58486 -3.97576 0
M  V30 193 C 17.7213 -1.00628 -5.25146 0
M  V30 194 C 19.0213 -2.97204 -4.29496 0
M  V30 195 H 20.7153 -1.92495 -2.29317 0
M  V30 196 H 18.2613 -0.92693 -1.102 0
M  V30 197 H 20.2143 -0.401091 -4.19487 0
M  V30 198 H 18.9383 0.396411 -3.24185 0
M  V30 199 H 17.5973 -1.73606 -3.22888 0
M  V30 200 H 17.2453 -0.0368439 -5.02987 0
M  V30 201 H 16.9453 -1.68771 -5.62841 0
M  V30 202 H 18.4693 -0.854015 -6.04598 0
M  V30 203 H 19.8833 -2.8552 -4.97143 0
M  V30 204 H 18.2803 -3.62372 -4.78338 0
M  V30 205 H 19.3503 -3.47956 -3.3772 0
M  V30 206 N 20.6934 1.19889 -1.02296 0
M  V30 207 C 21.6234 2.25141 -0.619174 0
M  V30 208 C 22.6044 1.66051 0.368915 0
M  V30 209 O 23.7894 1.92546 0.252941 0
M  V30 210 C 20.9194 3.4728 0.0368783 0
M  V30 211 C 19.8734 4.19005 -0.872865 0
M  V30 212 C 19.1994 5.34637 -0.0822402 0
M  V30 213 C 20.4994 4.74452 -2.18387 0
M  V30 214 H 22.1934 2.59171 -1.49903 0
M  V30 215 H 19.7394 1.24579 -0.722222 0
M  V30 216 H 21.6924 4.20098 0.330958 0
M  V30 217 H 20.4164 3.12433 0.95149 0
M  V30 218 H 19.0754 3.48061 -1.15105 0
M  V30 219 H 18.7234 4.96034 0.83422 0
M  V30 220 H 18.4234 5.83557 -0.688149 0
M  V30 221 H 19.9474 6.10255 0.205238 0
M  V30 222 H 21.3614 5.39055 -1.95172 0
M  V30 223 H 19.7584 5.33834 -2.74119 0
M  V30 224 H 20.8284 3.92844 -2.84257 0
M  V30 225 N 22.1715 0.800033 1.35784 0
M  V30 226 C 23.1015 0.220184 2.3246 0
M  V30 227 C 24.0825 -0.65073 1.57161 0
M  V30 228 O 25.2675 -0.582359 1.85263 0
M  V30 229 C 22.3975 -0.637353 3.41402 0
M  V30 230 C 21.3515 0.134531 4.27789 0
M  V30 231 C 20.6775 -0.844285 5.27992 0
M  V30 232 C 21.9775 1.32979 5.05088 0
M  V30 233 H 23.6715 1.02787 2.81203 0
M  V30 234 H 21.2175 0.495717 1.35199 0
M  V30 235 H 23.1705 -1.05302 4.08031 0
M  V30 236 H 21.8945 -1.47785 2.91251 0
M  V30 237 H 20.5535 0.531296 3.6273 0
M  V30 238 H 20.2015 -1.68011 4.74111 0
M  V30 239 H 19.9015 -0.332184 5.8666 0
M  V30 240 H 21.4255 -1.2583 5.97494 0
M  V30 241 H 22.8395 0.98934 5.64699 0
M  V30 242 H 21.2365 1.77593 5.7322 0
M  V30 243 H 22.3065 2.11978 4.36111 0
M  V30 244 N 23.6496 -1.47581 0.552962 0
M  V30 245 C 24.6126 -2.28439 -0.186605 0
M  V30 246 C 25.6126 -1.36706 -0.84665 0
M  V30 247 O 26.8026 -1.59378 -0.703164 0
M  V30 248 C 23.9346 -3.16264 -1.2724 0
M  V30 249 H 25.1276 -2.95294 0.523609 0
M  V30 250 H 22.6806 -1.532 0.309745 0
M  V30 251 H 23.4156 -2.54091 -2.01514 0
M  V30 252 H 23.2006 -3.83769 -0.803968 0
M  V30 253 H 24.6906 -3.77198 -1.79196 0
M  V30 254 N 25.1277 -0.289203 -1.54924 0
M  V30 255 C 26.3527 0.329299 -2.04769 0
M  V30 256 C 26.7777 1.4763 -1.16564 0
M  V30 257 O 26.1357 1.80527 -0.167186 0
M  V30 258 C 26.1837 0.774438 -3.52186 0
M  V30 259 O 25.2877 1.88038 -3.67036 0
M  V30 260 H 24.6287 0.0659259 -0.660719 0
M  V30 261 H 27.1587 -0.42761 -2.00082 0
M  V30 262 H 27.1687 1.06642 -3.93816 0
M  V30 263 H 25.8437 -0.0646707 -4.1585 0
M  V30 264 H 24.4207 1.58985 -3.3731 0
M  V30 265 N 26.6058 1.57591 -0.0167156 0
M  V30 266 C 27.5688 2.08393 0.954204 0
M  V30 267 C 28.5688 0.996531 1.26198 0
M  V30 268 O 29.7588 1.25858 1.20438 0
M  V30 269 C 26.8908 2.5394 2.27436 0
M  V30 270 H 28.0838 2.95455 0.514451 0
M  V30 271 H 25.6368 1.54582 0.231089 0
M  V30 272 H 26.3718 1.70171 2.76066 0
M  V30 273 H 26.1568 3.33371 2.06412 0
M  V30 274 H 27.6468 2.93512 2.97053 0
M  V30 275 N 28.0839 -0.256276 1.55502 0
M  V30 276 C 29.3329 -0.983486 1.76098 0
M  V30 277 C 29.6459 -1.86837 0.578896 0
M  V30 278 O 30.8519 -2.63163 0.667648 0
M  V30 279 C 29.3079 -1.79868 3.1173 0
M  V30 280 C 28.9159 -0.961648 4.37557 0
M  V30 281 C 30.6599 -2.51919 3.41668 0
M  V30 282 C 28.5669 -1.77219 5.64223 0
M  V30 283 H 27.4969 -0.370936 0.656447 0
M  V30 284 H 30.1479 -0.238492 1.81944 0
M  V30 285 H 28.5299 -2.58527 2.99966 0
M  V30 286 H 29.7039 -0.218048 4.60284 0
M  V30 287 H 28.0189 -0.354913 4.14885 0
M  V30 288 H 30.6159 -3.12998 4.33516 0
M  V30 289 H 30.9589 -3.23059 2.62562 0
M  V30 290 H 31.4919 -1.80278 3.54605 0
M  V30 291 H 28.2309 -1.10471 6.46124 0
M  V30 292 H 27.7509 -2.49132 5.45613 0
M  V30 293 H 29.4299 -2.34169 6.03137 0
M  V30 294 N 29.562 -1.4872 -0.521534 0
M  V30 295 C 30.809 -1.57168 -1.27689 0
M  V30 296 C 31.137 -0.249275 -1.92896 0
M  V30 297 O 30.392 0.761162 -1.80291 0
M  V30 298 C 30.691 -2.66497 -2.38148 0
M  V30 299 C 30.357 -4.08664 -1.90538 0
M  V30 300 C 29.019 -4.47357 -1.77271 0
M  V30 301 C 31.371 -4.97724 -1.54663 0
M  V30 302 C 28.699 -5.72905 -1.26478 0
M  V30 303 C 31.051 -6.2377 -1.05329 0
M  V30 304 C 29.715 -6.61311 -0.906861 0
M  V30 305 H 28.985 -0.575117 -0.467249 0
M  V30 306 H 31.632 -1.82472 -0.581051 0
M  V30 307 H 29.937 -2.35085 -3.13437 0
M  V30 308 H 31.634 -2.70246 -2.96257 0
M  V30 309 H 28.224 -3.78111 -2.01816 0
M  V30 310 H 32.408 -4.68501 -1.63768 0
M  V30 311 H 27.664 -6.00709 -1.13835 0
M  V30 312 H 31.838 -6.9217 -0.76644 0
M  V30 313 H 29.465 -7.5848 -0.511083 0
M  V30 314 N 31.0401 0.771051 -1.3745 0
M  V30 315 C 32.2801 1.54264 -1.34096 0
M  V30 316 C 32.6441 1.91858 0.0737639 0
M  V30 317 O 33.8451 2.67797 0.23203 0
M  V30 318 C 32.1161 2.77326 -2.25445 0
M  V30 319 S 33.6751 3.67383 -2.39948 0
M  V30 320 H 30.4931 0.528122 -0.476034 0
M  V30 321 H 33.0951 0.906633 -1.73206 0
M  V30 322 H 31.7991 2.47788 -3.27153 0
M  V30 323 H 31.3301 3.45886 -1.87421 0
M  V30 324 H 33.3451 4.69334 -1.61059 0
M  V30 325 N 32.5182 1.22032 0.997298 0
M  V30 326 C 33.4482 1.01065 2.10495 0
M  V30 327 C 34.4292 -0.0669542 1.69968 0
M  V30 328 O 35.6142 0.0943987 1.9397 0
M  V30 329 C 32.7442 0.582874 3.42374 0
M  V30 330 C 31.6982 1.60592 3.96729 0
M  V30 331 C 31.0242 1.03412 5.24605 0
M  V30 332 C 32.3242 2.99478 4.27914 0
M  V30 333 H 34.0182 1.93708 2.28292 0
M  V30 334 H 31.5642 0.932761 1.09707 0
M  V30 335 H 33.5172 0.423332 4.19268 0
M  V30 336 H 32.2412 -0.379213 3.24391 0
M  V30 337 H 30.9002 1.75316 3.21963 0
M  V30 338 H 30.5482 0.063518 5.0296 0
M  V30 339 H 30.2482 1.71754 5.61938 0
M  V30 340 H 31.7722 0.886066 6.04137 0
M  V30 341 H 33.1862 2.88153 4.95622 0
M  V30 342 H 31.5832 3.64903 4.76409 0
M  V30 343 H 32.6532 3.49742 3.3587 0
M  V30 344 N 33.9963 -1.19345 1.0293 0
M  V30 345 C 35.2423 -1.89318 0.727083 0
M  V30 346 C 35.5753 -1.79446 -0.742483 0
M  V30 347 O 34.8503 -1.1871 -1.54072 0
M  V30 348 C 35.1333 -3.40238 1.17942 0
M  V30 349 C 34.9863 -3.58979 2.71024 0
M  V30 350 C 36.3053 -4.33479 0.760548 0
M  V30 351 H 33.4243 -0.687475 0.265606 0
M  V30 352 H 36.0663 -1.40477 1.2793 0
M  V30 353 H 34.2163 -3.81964 0.709608 0
M  V30 354 H 35.8883 -3.26421 3.25955 0
M  V30 355 H 34.1313 -3.02018 3.11396 0
M  V30 356 H 34.8023 -4.64823 2.9773 0
M  V30 357 H 37.2783 -3.99469 1.16464 0
M  V30 358 H 36.1543 -5.37664 1.10493 0
M  V30 359 H 36.4153 -4.40813 -0.337063 0
M  V30 360 N 35.4744 -0.807222 -1.35358 0
M  V30 361 C 36.7214 -0.387888 -1.9875 0
M  V30 362 C 37.0494 1.04509 -1.64037 0
M  V30 363 O 36.3044 1.73986 -0.895946 0
M  V30 364 C 36.6034 -0.519036 -3.53611 0
M  V30 365 C 36.2694 -1.91542 -4.08194 0
M  V30 366 C 34.9314 -2.29745 -4.22813 0
M  V30 367 C 37.2834 -2.82896 -4.37744 0
M  V30 368 C 34.6114 -3.58668 -4.643 0
M  V30 369 C 36.9634 -4.11265 -4.8067 0
M  V30 370 C 35.6274 -4.49466 -4.93494 0
M  V30 371 H 34.8974 -0.141938 -0.727279 0
M  V30 372 H 37.5444 -1.02814 -1.6156 0
M  V30 373 H 35.8494 0.204658 -3.91265 0
M  V30 374 H 37.5464 -0.175345 -4.00616 0
M  V30 375 H 34.1364 -1.60862 -3.97268 0
M  V30 376 H 38.3204 -2.54629 -4.26002 0
M  V30 377 H 33.5764 -3.88113 -4.72418 0
M  V30 378 H 37.7504 -4.82153 -5.02496 0
M  V30 379 H 35.3774 -5.49418 -5.25399 0
M  V30 380 N 36.9525 1.47285 -0.560781 0
M  V30 381 C 38.1985 2.03347 -0.0463654 0
M  V30 382 C 38.5535 1.42702 1.2905 0
M  V30 383 O 37.8465 0.574619 1.8278 0
M  V30 384 C 38.0405 3.57258 0.100784 0
M  V30 385 C 37.8695 4.32827 -1.22027 0
M  V30 386 C 36.6395 4.72588 -1.78854 0
M  V30 387 C 38.8375 4.67739 -2.13834 0
M  V30 388 N 36.8195 5.32816 -3.04927 0
M  V30 389 C 38.1905 5.28307 -3.24487 0
M  V30 390 C 40.2455 4.49667 -2.13784 0
M  V30 391 C 38.9485 5.72711 -4.35194 0
M  V30 392 C 40.9745 4.95073 -3.23506 0
M  V30 393 C 40.3365 5.55693 -4.32879 0
M  V30 394 H 36.4355 0.779755 -0.0592166 0
M  V30 395 H 39.0195 1.79723 -0.748857 0
M  V30 396 H 37.1905 3.80642 0.772404 0
M  V30 397 H 38.9225 3.9996 0.617589 0
M  V30 398 H 35.6775 4.54656 -1.32609 0
M  V30 399 H 36.1015 5.67471 -3.69197 0
M  V30 400 H 40.7435 4.02154 -1.30507 0
M  V30 401 H 38.4615 6.19214 -5.1923 0
M  V30 402 H 42.0475 4.82859 -3.24559 0
M  V30 403 H 40.9275 5.90188 -5.1638 0
M  V30 404 N 38.4306 0.297415 1.54768 0
M  V30 405 C 39.6766 -0.313376 2.00364 0
M  V30 406 C 40.0096 -1.53815 1.18553 0
M  V30 407 O 39.2846 -1.92739 0.261103 0
M  V30 408 C 39.5676 -0.673525 3.53745 0
M  V30 409 C 39.4206 0.560133 4.46299 0
M  V30 410 C 40.7396 -1.50143 4.13697 0
M  V30 411 H 37.8586 -0.112428 0.728374 0
M  V30 412 H 40.5006 0.4088 1.8555 0
M  V30 413 H 38.6506 -1.28881 3.665 0
M  V30 414 H 40.3226 1.19863 4.45455 0
M  V30 415 H 38.5656 1.19405 4.17043 0
M  V30 416 H 39.2366 0.26405 5.51368 0
M  V30 417 H 41.7126 -0.981588 4.04356 0
M  V30 418 H 40.5886 -1.72221 5.21182 0
M  V30 419 H 40.8496 -2.48952 3.65343 0
M  V30 420 N 39.9087 -1.5758 0.0250728 0
M  V30 421 C 40.8387 -2.13007 -0.956575 0
M  V30 422 C 41.8197 -1.0452 -1.342 0
M  V30 423 O 43.0047 -1.32332 -1.42133 0
M  V30 424 C 40.1347 -2.65386 -2.24026 0
M  V30 425 C 39.0887 -3.78623 -1.99571 0
M  V30 426 C 38.4147 -4.17414 -3.3417 0
M  V30 427 C 39.7147 -5.04867 -1.33814 0
M  V30 428 H 41.4087 -2.9528 -0.494991 0
M  V30 429 H 38.9547 -1.42042 -0.236651 0
M  V30 430 H 40.9077 -3.02794 -2.93076 0
M  V30 431 H 39.6317 -1.80268 -2.72343 0
M  V30 432 H 38.2907 -3.41646 -1.32941 0
M  V30 433 H 37.9387 -3.29284 -3.80238 0
M  V30 434 H 37.6387 -4.93719 -3.18615 0
M  V30 435 H 39.1627 -4.57402 -4.04495 0
M  V30 436 H 40.5767 -5.39888 -1.92857 0
M  V30 437 H 38.9737 -5.86144 -1.28669 0
M  V30 438 H 40.0437 -4.83904 -0.310561 0
M  V30 439 N 41.3868 0.248026 -1.55636 0
M  V30 440 C 42.3338 1.30707 -1.90222 0
M  V30 441 C 43.3038 1.47881 -0.756332 0
M  V30 442 O 44.4888 1.61883 -1.00988 0
M  V30 443 C 41.6288 2.65769 -2.20138 0
M  V30 444 C 40.7418 2.56612 -3.47526 0
M  V30 445 C 39.8768 3.8402 -3.67017 0
M  V30 446 C 38.9158 3.69476 -4.8801 0
M  V30 447 N 38.0528 4.88774 -5.04029 0
M  V30 448 H 42.8928 1.00512 -2.80538 0
M  V30 449 H 40.4298 0.485055 -1.38873 0
M  V30 450 H 42.3878 3.44386 -2.35487 0
M  V30 451 H 41.0178 2.94115 -1.33027 0
M  V30 452 H 40.0698 1.69571 -3.40514 0
M  V30 453 H 41.3818 2.41774 -4.36287 0
M  V30 454 H 40.5358 4.7108 -3.8232 0
M  V30 455 H 39.2748 4.01754 -2.76487 0
M  V30 456 H 38.2798 2.80799 -4.72686 0
M  V30 457 H 39.5048 3.53238 -5.8 0
M  V30 458 H 37.4508 5.0687 -4.16435 0
M  V30 459 H 37.3678 4.76562 -5.86877 0
M  V30 460 H 38.6358 5.77335 -5.23741 0
M  V30 461 N 42.8649 1.48995 0.513639 0
M  V30 462 C 44.1129 1.57531 1.26604 0
M  V30 463 C 44.4339 0.258236 1.93283 0
M  V30 464 O 43.7039 -0.721502 1.8213 0
M  V30 465 H 42.2839 0.580387 0.470276 0
M  V30 466 H 44.9459 1.85552 0.596373 0
M  V30 467 H 44.0419 2.36486 2.03669 0
M  V30 468 N 44.343 -0.763751 1.37857 0
M  V30 469 C 45.273 -1.89103 1.36975 0
M  V30 470 C 46.254 -1.68439 0.237152 0
M  V30 471 O 47.439 -1.8918 0.438713 0
M  V30 472 C 44.569 -3.26496 1.18395 0
M  V30 473 C 43.523 -3.61741 2.28751 0
M  V30 474 C 42.849 -4.97762 1.95286 0
M  V30 475 C 44.149 -3.67665 3.70972 0
M  V30 476 H 45.843 -1.90099 2.31307 0
M  V30 477 H 43.389 -0.91319 1.11341 0
M  V30 478 H 45.342 -4.05003 1.16406 0
M  V30 479 H 44.066 -3.25955 0.205215 0
M  V30 480 H 42.725 -2.85547 2.29909 0
M  V30 481 H 42.373 -4.93769 0.959221 0
M  V30 482 H 42.073 -5.22313 2.69189 0
M  V30 483 H 43.597 -5.7866 1.94898 0
M  V30 484 H 45.011 -4.36307 3.719 0
M  V30 485 H 43.408 -4.03718 4.43995 0
M  V30 486 H 44.478 -2.68134 4.0402 0
M  V30 487 N 45.8211 -1.22559 -0.990812 0
M  V30 488 C 47.2371 -0.985996 -1.255 0
M  V30 489 C 47.4371 0.319173 -1.98956 0
M  V30 490 O 46.4931 1.04127 -2.3003 0
M  V30 491 C 47.8061 -2.18607 -2.06474 0
M  V30 492 C 49.3541 -2.22985 -2.19651 0
M  V30 493 C 49.8291 -3.4255 -3.04012 0
M  V30 494 N 51.3201 -3.42725 -3.11599 0
M  V30 495 C 52.0551 -4.31892 -3.7717 0
M  V30 496 N 51.5511 -5.31279 -4.44651 0
M  V30 497 N 53.3441 -4.19662 -3.73952 0
M  V30 498 H 45.4951 -2.06469 -0.49841 0
M  V30 499 H 47.7581 -0.904853 -0.282747 0
M  V30 500 H 47.4641 -3.13267 -1.59865 0
M  V30 501 H 47.3381 -2.18838 -3.07229 0
M  V30 502 H 49.7251 -1.28871 -2.65474 0
M  V30 503 H 49.8061 -2.26791 -1.18319 0
M  V30 504 H 49.4501 -4.36965 -2.58889 0
M  V30 505 H 49.3801 -3.35984 -4.0549 0
M  V30 506 H 51.8711 -2.70807 -2.63575 0
M  V30 507 H 52.1841 -5.95593 -4.92431 0
M  V30 508 H 50.5291 -5.3519 -4.43392 0
M  V30 509 H 53.7201 -3.41268 -3.20396 0
M  V30 510 H 53.8931 -4.89358 -4.24774 0
M  V30 511 N 47.2992 1.18797 -1.03562 0
M  V30 512 C 48.7102 1.70322 -0.764676 0
M  V30 513 C 49.0612 1.82708 0.714996 0
M  V30 514 O 48.1862 1.50299 1.55689 0
M  V30 515 C 48.7812 3.09356 -1.38145 0
M  V30 516 C 47.3402 3.58114 -1.15895 0
M  V30 517 C 46.4872 2.34798 -1.4753 0
M  V30 518 H 49.4382 1.03543 -1.20268 0
M  V30 519 H 49.4592 3.72378 -0.781977 0
M  V30 520 H 48.9712 3.00309 -2.45837 0
M  V30 521 H 47.0722 3.72464 -0.100544 0
M  V30 522 H 47.1852 4.4184 -1.8524 0
M  V30 523 H 45.5492 2.38464 -0.894829 0
M  V30 524 H 46.3322 2.28375 -2.56319 0
M  V30 525 N 48.7773 0.814389 1.34928 0
M  V30 526 C 50.1933 0.499084 1.51596 0
M  V30 527 C 50.3933 -0.978319 1.76157 0
M  V30 528 O 49.4493 -1.76309 1.80752 0
M  V30 529 C 50.7623 1.35121 2.68631 0
M  V30 530 C 52.3103 1.34746 2.82511 0
M  V30 531 C 52.7853 2.18388 4.0258 0
M  V30 532 N 54.2763 2.15966 4.09772 0
M  V30 533 C 55.0113 2.77437 5.01813 0
M  V30 534 N 54.5073 3.47866 5.99134 0
M  V30 535 N 56.3003 2.67037 4.94619 0
M  V30 536 H 48.4513 1.7711 1.17243 0
M  V30 537 H 50.7143 0.754256 0.574284 0
M  V30 538 H 50.4203 2.40001 2.57085 0
M  V30 539 H 50.2943 1.00991 3.63429 0
M  V30 540 H 52.6813 0.30648 2.93504 0
M  V30 541 H 52.7623 1.72869 1.88547 0
M  V30 542 H 52.4063 3.2253 3.92347 0
M  V30 543 H 52.3363 1.77621 4.9574 0
M  V30 544 H 54.8273 1.64729 3.40107 0
M  V30 545 H 55.1403 3.92038 6.65977 0
M  V30 546 H 53.4853 3.51972 5.99284 0
M  V30 547 H 56.6763 2.11597 4.17546 0
M  V30 548 H 56.8493 3.15232 5.66156 0
M  V30 549 N 50.2554 -1.46986 0.568584 0
M  V30 550 C 51.5014 -2.02741 0.0488709 0
M  V30 551 C 51.8344 -1.44077 -1.30214 0
M  V30 552 O 51.1094 -0.600552 -1.84996 0
M  V30 553 C 51.3924 -3.60086 -0.032047 0
M  V30 554 C 51.2454 -4.29162 1.34686 0
M  V30 555 C 52.5644 -4.33838 -0.739798 0
M  V30 556 H 49.6834 -0.736749 0.0192338 0
M  V30 557 H 52.3254 -1.75289 0.733065 0
M  V30 558 H 50.4754 -3.83606 -0.61473 0
M  V30 559 H 52.1474 -4.16948 1.97362 0
M  V30 560 H 50.3904 -3.89073 1.91846 0
M  V30 561 H 51.0614 -5.37826 1.24285 0
M  V30 562 H 53.5374 -4.15378 -0.244939 0
M  V30 563 H 52.4134 -5.43537 -0.765406 0
M  V30 564 H 52.6744 -4.03875 -1.79827 0
M  V30 565 N 51.7335 -0.305618 -1.54608 0
M  V30 566 C 53.1445 0.186098 -1.8577 0
M  V30 567 C 53.4955 1.53058 -1.22751 0
M  V30 568 O 52.6205 2.09888 -0.526893 0
M  V30 569 C 53.2155 0.344449 -3.37044 0
M  V30 570 C 51.7745 0.780384 -3.68221 0
M  V30 571 C 50.9215 -0.108554 -2.77087 0
M  V30 572 H 53.8725 -0.526485 -1.49712 0
M  V30 573 H 53.8935 1.17828 -3.61796 0
M  V30 574 H 53.4055 -0.634235 -3.82883 0
M  V30 575 H 51.5065 1.76945 -3.27904 0
M  V30 576 H 51.6195 0.596572 -4.75371 0
M  V30 577 H 49.9835 0.412931 -2.5133 0
M  V30 578 H 50.7665 -1.08368 -3.25747 0
M  V30 579 N 53.2116 1.57565 -0.0334293 0
M  V30 580 C 54.1586 2.10478 0.946981 0
M  V30 581 C 55.1286 1.00787 1.32027 0
M  V30 582 O 56.3136 1.28232 1.41284 0
M  V30 583 C 53.4536 2.63994 2.22263 0
M  V30 584 C 52.5666 3.87709 1.90541 0
M  V30 585 C 51.7016 4.29604 3.12433 0
M  V30 586 C 50.7406 5.46065 2.76549 0
M  V30 587 N 49.8776 5.83096 3.9108 0
M  V30 588 H 54.7176 2.93963 0.488846 0
M  V30 589 H 52.2546 1.45296 0.22969 0
M  V30 590 H 54.2126 2.93114 2.96884 0
M  V30 591 H 52.8426 1.83333 2.65685 0
M  V30 592 H 51.8946 3.65291 1.06144 0
M  V30 593 H 53.2066 4.72403 1.60116 0
M  V30 594 H 52.3606 4.60182 3.9537 0
M  V30 595 H 51.0996 3.43685 3.46023 0
M  V30 596 H 50.1046 5.15176 1.92026 0
M  V30 597 H 51.3296 6.33685 2.44171 0
M  V30 598 H 49.2756 5.00132 4.24504 0
M  V30 599 H 49.1926 6.6244 3.64293 0
M  V30 600 H 50.4606 6.18282 4.74708 0
M  V30 601 N 54.6897 -0.239769 1.55765 0
M  V30 602 C 55.9377 -0.964892 1.77579 0
M  V30 603 C 56.2587 -1.85582 0.598699 0
M  V30 604 O 55.5287 -1.92075 -0.385226 0
M  V30 605 H 54.1087 -0.359265 0.654933 0
M  V30 606 H 56.7707 -0.256001 1.93211 0
M  V30 607 H 55.8667 -1.58243 2.69009 0
M  V30 608 N 56.1678 -1.49265 -0.50573 0
M  V30 609 C 57.0978 -1.68495 -1.61653 0
M  V30 610 C 58.0788 -0.53366 -1.61512 0
M  V30 611 O 59.2638 -0.76897 -1.78327 0
M  V30 612 C 56.3938 -1.74709 -3.00157 0
M  V30 613 C 55.3478 -2.89581 -3.15162 0
M  V30 614 C 54.6738 -2.80903 -4.5497 0
M  V30 615 C 55.9738 -4.30578 -2.95634 0
M  V30 616 H 57.6678 -2.61493 -1.45814 0
M  V30 617 H 55.2138 -1.25838 -0.70005 0
M  V30 618 H 57.1668 -1.86748 -3.77761 0
M  V30 619 H 55.8908 -0.783067 -3.17074 0
M  V30 620 H 54.5498 -2.77136 -2.39982 0
M  V30 621 H 54.1978 -1.82419 -4.68756 0
M  V30 622 H 53.8978 -3.57999 -4.65951 0
M  V30 623 H 55.4218 -2.94944 -5.34641 0
M  V30 624 H 56.8358 -4.4373 -3.63011 0
M  V30 625 H 55.2328 -5.0886 -3.18091 0
M  V30 626 H 56.3028 -4.45352 -1.91806 0
M  V30 627 N 57.6459 0.756429 -1.3826 0
M  V30 628 C 58.5929 1.87011 -1.35261 0
M  V30 629 C 59.5629 1.64695 -0.215616 0
M  V30 630 O 60.7479 1.864 -0.407399 0
M  V30 631 C 57.8879 3.24275 -1.18068 0
M  V30 632 C 57.0009 3.58442 -2.41129 0
M  V30 633 C 56.1359 4.84994 -2.16689 0
M  V30 634 C 55.1749 5.11939 -3.35537 0
M  V30 635 N 54.3119 6.29685 -3.10549 0
M  V30 636 H 59.1519 1.8891 -2.30472 0
M  V30 637 H 56.6889 0.923373 -1.14509 0
M  V30 638 H 58.6469 4.03479 -1.06116 0
M  V30 639 H 57.2769 3.21711 -0.264973 0
M  V30 640 H 56.3289 2.74103 -2.63764 0
M  V30 641 H 57.6409 3.74283 -3.29717 0
M  V30 642 H 56.7949 5.72135 -2.01857 0
M  V30 643 H 55.5339 4.71286 -1.25462 0
M  V30 644 H 54.5389 4.23268 -3.50891 0
M  V30 645 H 55.7639 5.27546 -4.27635 0
M  V30 646 H 53.7099 6.17306 -2.21967 0
M  V30 647 H 53.6269 6.46014 -3.92686 0
M  V30 648 H 54.8949 7.19722 -2.99367 0
M  V30 649 N 59.124 1.23083 0.984299 0
M  V30 650 C 60.349 1.088 1.76571 0
M  V30 651 C 60.774 -0.356657 1.84688 0
M  V30 652 O 60.132 -1.25788 1.30565 0
M  V30 653 C 60.18 1.71371 3.17277 0
M  V30 654 O 59.284 0.973213 4.00752 0
M  V30 655 H 58.625 0.381599 0.543395 0
M  V30 656 H 61.155 1.63057 1.23587 0
M  V30 657 H 61.165 1.76449 3.67872 0
M  V30 658 H 59.84 2.76493 3.10684 0
M  V30 659 H 58.417 0.999078 3.59267 0
M  V30 660 N 60.6021 -1.18246 1.0419 0
M  V30 661 C 62.0131 -1.69914 0.773698 0
M  V30 662 C 62.3641 -1.83085 -0.705297 0
M  V30 663 O 61.4891 -1.51123 -1.5489 0
M  V30 664 C 62.0841 -3.08619 1.39784 0
M  V30 665 C 60.6431 -3.57494 1.17792 0
M  V30 666 C 59.7901 -2.34013 1.48773 0
M  V30 667 H 62.7411 -1.02904 1.20816 0
M  V30 668 H 62.7621 -3.71958 0.801714 0
M  V30 669 H 62.2741 -2.99001 2.47426 0
M  V30 670 H 60.3751 -3.72406 0.120295 0
M  V30 671 H 60.4881 -4.40852 1.87581 0
M  V30 672 H 58.8521 -2.37986 0.907463 0
M  V30 673 H 59.6351 -2.27013 2.57527 0
M  V30 674 N 62.0802 -0.821533 -1.34494 0
M  V30 675 C 63.4912 -0.467956 -1.8074 0
M  V30 676 C 63.8422 1.01151 -1.68116 0
M  V30 677 O 62.9672 1.78707 -1.22036 0
M  V30 678 C 63.5622 -0.842627 -3.28154 0
M  V30 679 C 62.1212 -0.541439 -3.72485 0
M  V30 680 C 61.2682 -1.06028 -2.56229 0
M  V30 681 H 64.2192 -1.01183 -1.22261 0
M  V30 682 H 64.2402 -0.145876 -3.8022 0
M  V30 683 H 63.7522 -1.91945 -3.37311 0
M  V30 684 H 61.8532 0.526034 -3.68868 0
M  V30 685 H 61.9662 -1.08453 -4.66663 0
M  V30 686 H 60.3302 -0.481892 -2.501 0
M  V30 687 H 61.1132 -2.14352 -2.68157 0
M  V30 688 N 63.5583 1.46682 -0.576371 0
M  V30 689 C 64.4683 2.34032 0.163141 0
M  V30 690 C 65.4843 1.49367 0.892501 0
M  V30 691 O 66.6603 1.82252 0.857106 0
M  V30 692 C 63.7253 3.26435 1.16795 0
M  V30 693 C 62.7863 4.26998 0.443944 0
M  V30 694 C 62.0193 5.14986 1.40088 0
M  V30 695 O 62.2423 5.05785 2.637 0
M  V30 696 O 61.1763 5.94906 0.914917 0
M  V30 697 H 65.0023 2.98607 -0.55388 0
M  V30 698 H 62.5873 1.45554 -0.336821 0
M  V30 699 H 64.4693 3.83459 1.74748 0
M  V30 700 H 63.1443 2.64465 1.86655 0
M  V30 701 H 62.0513 3.7368 -0.177271 0
M  V30 702 H 63.3843 4.91736 -0.213566 0
M  V30 703 N 65.0364 0.313813 1.54444 0
M  V30 704 C 66.4474 -0.176243 1.85866 0
M  V30 705 C 66.7984 -1.52405 1.23561 0
M  V30 706 O 65.9234 -2.09605 0.538016 0
M  V30 707 C 66.5184 -0.32657 3.37222 0
M  V30 708 C 65.0774 -0.760846 3.6863 0
M  V30 709 C 64.2244 0.123247 2.77026 0
M  V30 710 H 67.1754 0.534418 1.49431 0
M  V30 711 H 67.1964 -1.15908 3.62416 0
M  V30 712 H 66.7084 0.654531 3.82541 0
M  V30 713 H 64.8094 -1.75204 3.28838 0
M  V30 714 H 64.9224 -0.571353 4.75681 0
M  V30 715 H 63.2864 -0.399597 2.51546 0
M  V30 716 H 64.0694 1.10094 3.25168 0
M  V30 717 N 66.5145 -1.57545 0.0417849 0
M  V30 718 C 67.7605 -1.93424 -0.629168 0
M  V30 719 C 68.1155 -0.919564 -1.69002 0
M  V30 720 O 67.4085 0.0626178 -1.91498 0
M  V30 721 C 67.6025 -3.33794 -1.27735 0
M  V30 722 C 67.4315 -4.48822 -0.280806 0
M  V30 723 C 66.2015 -5.05148 0.123869 0
M  V30 724 C 68.3995 -5.12148 0.470012 0
M  V30 725 N 66.3815 -6.03703 1.11426 0
M  V30 726 C 67.7525 -6.05921 1.31377 0
M  V30 727 C 69.8075 -4.95078 0.529343 0
M  V30 728 C 68.5105 -6.84459 2.21152 0
M  V30 729 C 70.5365 -5.74235 1.41448 0
M  V30 730 C 69.8985 -6.67634 2.24598 0
M  V30 731 H 65.9975 -0.755418 -0.202158 0
M  V30 732 H 68.5815 -1.94378 0.111923 0
M  V30 733 H 66.7525 -3.33635 -1.98852 0
M  V30 734 H 68.4845 -3.56988 -1.90635 0
M  V30 735 H 65.2395 -4.72923 -0.253178 0
M  V30 736 H 65.6635 -6.57674 1.60607 0
M  V30 737 H 70.3055 -4.22683 -0.0992798 0
M  V30 738 H 68.0235 -7.56151 2.85063 0
M  V30 739 H 71.6095 -5.63057 1.46484 0
M  V30 740 H 70.4895 -7.27817 2.9198 0
M  V30 741 N 67.9926 0.231505 -1.5589 0
M  V30 742 C 69.2406 0.955461 -1.78088 0
M  V30 743 C 69.5616 1.85262 -0.608533 0
M  V30 744 O 68.8316 1.92277 0.375035 0
M  V30 745 H 67.4116 0.355787 -0.656829 0
M  V30 746 H 70.0736 0.245751 -1.93344 0
M  V30 747 H 69.1696 1.56814 -2.69844 0
M  V30 748 N 69.4707 1.49531 0.497807 0
M  V30 749 C 70.7167 1.60388 1.25089 0
M  V30 750 C 71.0717 0.288328 1.90227 0
M  V30 751 O 70.3647 -0.711706 1.77891 0
M  V30 752 C 70.5587 2.70252 2.33878 0
M  V30 753 C 70.3877 4.12363 1.79408 0
M  V30 754 C 69.1577 4.7911 1.60566 0
M  V30 755 C 71.3557 4.97491 1.30412 0
M  V30 756 N 69.3377 6.05525 1.01059 0
M  V30 757 C 70.7087 6.14411 0.830595 0
M  V30 758 C 72.7637 4.83466 1.19015 0
M  V30 759 C 71.4667 7.1885 0.254371 0
M  V30 760 C 73.4927 5.88057 0.627892 0
M  V30 761 C 72.8547 7.04208 0.16461 0
M  V30 762 H 68.9537 0.641246 0.447579 0
M  V30 763 H 71.5377 1.86549 0.557441 0
M  V30 764 H 69.7087 2.45858 3.0068 0
M  V30 765 H 71.4407 2.70613 3.00917 0
M  V30 766 H 68.1957 4.35961 1.85026 0
M  V30 767 H 68.6197 6.73028 0.732236 0
M  V30 768 H 73.2617 3.93978 1.53431 0
M  V30 769 H 70.9797 8.08036 -0.102052 0
M  V30 770 H 74.5657 5.79266 0.542444 0
M  V30 771 H 73.4457 7.83757 -0.263669 0
M  V30 772 N 70.9488 -0.749086 1.3866 0
M  V30 773 C 72.3598 -1.32664 1.31366 0
M  V30 774 C 72.7108 -1.96179 -0.028484 0
M  V30 775 O 71.8358 -1.9537 -0.93057 0
M  V30 776 C 72.4308 -2.41219 2.37905 0
M  V30 777 C 70.9898 -2.94684 2.34176 0
M  V30 778 C 70.1368 -1.68108 2.20533 0
M  V30 779 H 73.0878 -0.547628 1.48952 0
M  V30 780 H 73.1088 -3.21268 2.0388 0
M  V30 781 H 72.6208 -1.94962 3.35576 0
M  V30 782 H 70.7218 -3.45258 1.401 0
M  V30 783 H 70.8348 -3.48757 3.2849 0
M  V30 784 H 69.1988 -1.91907 1.67463 0
M  V30 785 H 69.9818 -1.23923 3.20153 0
M  V30 786 N 72.4269 -1.23603 -0.977757 0
M  V30 787 C 73.3569 -1.04401 -2.0886 0
M  V30 788 C 74.3379 0.0399052 -1.70053 0
M  V30 789 O 75.5229 -0.125246 -1.93796 0
M  V30 790 C 72.6529 -0.637269 -3.41403 0
M  V30 791 C 71.6069 -1.66883 -3.94124 0
M  V30 792 C 70.9329 -1.11745 -5.22893 0
M  V30 793 C 72.2329 -3.06247 -4.23096 0
M  V30 794 H 73.9269 -1.97316 -2.25182 0
M  V30 795 H 71.4729 -0.950096 -1.08209 0
M  V30 796 H 73.4259 -0.48998 -4.18542 0
M  V30 797 H 72.1499 0.327557 -3.24953 0
M  V30 798 H 70.8089 -1.80416 -3.19133 0
M  V30 799 H 70.4569 -0.143527 -5.02795 0
M  V30 800 H 70.1569 -1.80672 -5.59134 0
M  V30 801 H 71.6809 -0.982067 -6.02651 0
M  V30 802 H 73.0949 -2.96001 -4.90975 0
M  V30 803 H 71.4919 -3.72436 -4.70544 0
M  V30 804 H 72.5619 -3.55041 -3.30263 0
M  V30 805 N 73.905 1.17692 -1.04816 0
M  V30 806 C 74.835 2.23777 -0.666791 0
M  V30 807 C 75.816 1.66796 0.33361 0
M  V30 808 O 77.001 1.93039 0.212042 0
M  V30 809 C 74.131 3.47281 -0.0367933 0
M  V30 810 C 73.085 4.17059 -0.961546 0
M  V30 811 C 72.411 5.34342 -0.195626 0
M  V30 812 C 73.711 4.69713 -2.28402 0
M  V30 813 H 75.405 2.55933 -1.55367 0
M  V30 814 H 72.951 1.23019 -0.748484 0
M  V30 815 H 74.904 4.20706 0.241775 0
M  V30 816 H 73.628 3.14381 0.885004 0
M  V30 817 H 72.287 3.45541 -1.22462 0
M  V30 818 H 71.935 4.97692 0.728816 0
M  V30 819 H 71.635 5.81966 -0.811775 0
M  V30 820 H 73.159 6.10553 0.0757473 0
M  V30 821 H 74.573 5.34794 -2.06563 0
M  V30 822 H 72.97 5.279 -2.8538 0
M  V30 823 H 74.04 3.86726 -2.92525 0
M  V30 824 N 75.3831 0.828654 1.34056 0
M  V30 825 C 76.6311 0.41863 1.97717 0
M  V30 826 C 76.9521 -1.02314 1.66002 0
M  V30 827 O 76.2221 -1.71119 0.953683 0
M  V30 828 H 74.8021 0.151809 0.731412 0
M  V30 829 H 77.4641 1.05936 1.63596 0
M  V30 830 H 76.5601 0.542318 3.07352 0
M  V30 831 N 76.8612 -1.46375 0.584142 0
M  V30 832 C 77.8112 -2.27371 -0.169232 0
M  V30 833 C 78.7952 -1.35955 -0.860523 0
M  V30 834 O 79.9872 -1.60119 -0.754382 0
M  V30 835 C 77.1162 -3.22334 -1.18134 0
M  V30 836 C 76.2022 -4.21235 -0.492088 0
M  V30 837 N 76.5932 -5.03766 0.453129 0
M  V30 838 C 74.8912 -4.39773 -0.742652 0
M  V30 839 C 75.5922 -5.75366 0.85609 0
M  V30 840 N 74.5682 -5.43214 0.204926 0
M  V30 841 H 78.3702 -2.88572 0.557097 0
M  V30 842 H 75.8842 -1.57242 0.406042 0
M  V30 843 H 77.8812 -3.79071 -1.73525 0
M  V30 844 H 76.5412 -2.62693 -1.90847 0
M  V30 845 H 77.5522 -5.11227 0.828723 0
M  V30 846 H 74.2292 -3.91279 -1.45625 0
M  V30 847 H 75.6192 -6.5172 1.63434 0
M  V30 848 N 78.3393 -0.321999 -1.54275 0
M  V30 849 C 79.5853 0.281461 -2.00837 0
M  V30 850 C 79.9183 1.51909 -1.20985 0
M  V30 851 O 79.1933 1.923 -0.291733 0
M  V30 852 C 79.4763 0.617162 -3.54772 0
M  V30 853 C 79.3293 -0.631064 -4.45351 0
M  V30 854 C 80.6483 1.43542 -4.16033 0
M  V30 855 H 77.7673 0.100826 -0.730071 0
M  V30 856 H 80.4093 -0.438268 -1.84876 0
M  V30 857 H 78.5593 1.23034 -3.68504 0
M  V30 858 H 80.2313 -1.26934 -4.43492 0
M  V30 859 H 78.4743 -1.26025 -4.15091 0
M  V30 860 H 79.1453 -0.351735 -5.50878 0
M  V30 861 H 81.6213 0.917134 -4.05867 0
M  V30 862 H 80.4973 1.63907 -5.23856 0
M  V30 863 H 80.7583 2.43108 -3.69257 0
M  V30 864 N 79.8174 1.5752 -0.0501392 0
M  V30 865 C 80.7474 2.14502 0.922566 0
M  V30 866 C 81.7284 1.06642 1.3252 0
M  V30 867 O 82.9134 1.34577 1.4001 0
M  V30 868 C 80.0434 2.68916 2.19776 0
M  V30 869 C 78.9974 3.8175 1.93523 0
M  V30 870 C 78.3234 4.22677 3.27487 0
M  V30 871 C 79.6234 5.06932 1.25765 0
M  V30 872 H 81.3174 2.9603 0.447952 0
M  V30 873 H 78.8634 1.42401 0.214024 0
M  V30 874 H 80.8164 3.07419 2.88222 0
M  V30 875 H 79.5404 1.84578 2.69441 0
M  V30 876 H 78.1994 3.43718 1.27489 0
M  V30 877 H 77.8474 3.35291 3.74952 0
M  V30 878 H 77.5474 4.98725 3.1072 0
M  V30 879 H 79.0714 4.63779 3.97166 0
M  V30 880 H 80.4854 5.42888 1.84244 0
M  V30 881 H 78.8824 5.88116 1.19328 0
M  V30 882 H 79.9524 4.84337 0.233536 0
M  V30 883 N 81.2955 -0.223234 1.56011 0
M  V30 884 C 82.5235 -0.964812 1.83027 0
M  V30 885 C 82.9385 -1.78013 0.62904 0
M  V30 886 O 82.2955 -1.78008 -0.402414 0
M  V30 887 C 82.3465 -1.88373 3.08542 0
M  V30 888 O 82.0675 -1.10137 4.2403 0
M  V30 889 C 83.5685 -2.73934 3.48533 0
M  V30 890 H 80.7885 -0.282842 0.608475 0
M  V30 891 H 83.3325 -0.238971 2.03099 0
M  V30 892 H 81.4875 -2.56354 2.9045 0
M  V30 893 H 81.9015 -1.72501 4.95322 0
M  V30 894 H 83.3755 -3.34117 4.39397 0
M  V30 895 H 83.8525 -3.46244 2.70207 0
M  V30 896 H 84.4585 -2.11369 3.69057 0
M  V30 897 N 82.7736 -1.49793 -0.48987 0
M  V30 898 C 83.7036 -1.70201 -1.59856 0
M  V30 899 C 84.6846 -0.55076 -1.60937 0
M  V30 900 O 85.8696 -0.787841 -1.77501 0
M  V30 901 C 82.9996 -1.77882 -2.98287 0
M  V30 902 C 81.9536 -2.92907 -3.12073 0
M  V30 903 C 81.2796 -2.85712 -4.51965 0
M  V30 904 C 82.5796 -4.3369 -2.91051 0
M  V30 905 H 84.2736 -2.63025 -1.43032 0
M  V30 906 H 81.8196 -1.26574 -0.686664 0
M  V30 907 H 83.7726 -1.90744 -3.75759 0
M  V30 908 H 82.4966 -0.816653 -3.16225 0
M  V30 909 H 81.1556 -2.79665 -2.37029 0
M  V30 910 H 80.8036 -1.8738 -4.66795 0
M  V30 911 H 80.5036 -3.62921 -4.62128 0
M  V30 912 H 82.0276 -3.00598 -5.31482 0
M  V30 913 H 83.4416 -4.47555 -3.58284 0
M  V30 914 H 81.8386 -5.12205 -3.12675 0
M  V30 915 H 82.9086 -4.47362 -1.87071 0
M  V30 916 N 84.2517 0.741722 -1.39055 0
M  V30 917 C 85.4997 1.49818 -1.35643 0
M  V30 918 C 85.8207 1.94938 0.0491642 0
M  V30 919 O 85.0907 1.68505 0.999141 0
M  V30 920 H 83.6707 0.555755 -0.499144 0
M  V30 921 H 86.3327 0.880957 -1.73854 0
M  V30 922 H 85.4287 2.38348 -2.01486 0
M  V30 923 N 85.7298 1.2412 0.971189 0
M  V30 924 C 86.6768 1.0305 2.06517 0
M  V30 925 C 87.6468 -0.0550666 1.66009 0
M  V30 926 O 88.8318 0.0988688 1.90544 0
M  V30 927 C 85.9718 0.637653 3.39158 0
M  V30 928 C 85.0848 1.79633 3.92882 0
M  V30 929 C 84.2198 1.34939 5.13775 0
M  V30 930 C 83.2588 2.47823 5.59687 0
M  V30 931 N 82.3958 2.04022 6.71803 0
M  V30 932 H 87.2358 1.96685 2.23873 0
M  V30 933 H 84.7728 0.979694 1.09729 0
M  V30 934 H 86.7308 0.390931 4.15364 0
M  V30 935 H 85.3608 -0.261693 3.21737 0
M  V30 936 H 84.4128 2.15681 3.13346 0
M  V30 937 H 85.7248 2.64466 4.22918 0
M  V30 938 H 84.8788 1.06134 5.97345 0
M  V30 939 H 83.6178 0.471557 4.85415 0
M  V30 940 H 82.6228 2.77392 4.74693 0
M  V30 941 H 83.8478 3.36158 5.90063 0
M  V30 942 H 81.7938 1.18632 6.45184 0
M  V30 943 H 81.7108 2.82409 7.01271 0
M  V30 944 H 82.9788 1.78347 7.58823 0
M  V30 945 N 87.2079 -1.17134 1.05439 0
M  V30 946 C 88.1559 -2.23289 0.651511 0
M  V30 947 C 89.1499 -1.66186 -0.328411 0
M  V30 948 O 90.3559 -1.78949 -0.194206 0
M  V30 949 H 86.7309 -0.726938 0.192523 0
M  V30 950 H 88.7019 -2.54565 1.55689 0
M  V30 951 C 87.4509 -3.47671 0.0448436 0
M  V30 952 H 86.7739 -3.91918 0.78996 0
M  V30 953 H 88.2139 -4.2353 -0.19964 0
M  V30 954 C 86.6729 -3.14453 -1.20918 0
M  V30 955 O 87.2029 -3.29459 -2.29825 0
M  V30 956 N 85.4089 -2.68657 -1.10779 0
M  V30 957 H 84.9559 -2.56646 -0.221526 0
M  V30 958 H 84.9139 -2.46804 -1.9477 0
M  V30 959 N 88.686 -0.835752 -1.33615 0
M  V30 960 C 90.097 -0.487099 -1.80234 0
M  V30 961 C 90.448 0.993627 -1.69179 0
M  V30 962 O 89.573 1.77403 -1.23924 0
M  V30 963 C 90.168 -0.877385 -3.27242 0
M  V30 964 C 88.727 -0.580915 -3.7189 0
M  V30 965 C 87.874 -1.0874 -2.5509 0
M  V30 966 H 90.825 -1.02474 -1.2118 0
M  V30 967 H 90.846 -0.186195 -3.80044 0
M  V30 968 H 90.358 -1.95512 -3.35256 0
M  V30 969 H 88.459 0.486881 -3.69405 0
M  V30 970 H 88.572 -1.13396 -4.65487 0
M  V30 971 H 86.936 -0.508392 -2.49575 0
M  V30 972 H 87.719 -2.17184 -2.65868 0
M  V30 973 N 90.1641 1.46063 -0.591896 0
M  V30 974 C 91.1141 2.27458 0.157172 0
M  V30 975 C 92.0981 1.3641 0.853301 0
M  V30 976 O 93.2901 1.60517 0.74588 0
M  V30 977 C 90.4191 3.22956 1.16423 0
M  V30 978 C 89.5051 4.2149 0.469742 0
M  V30 979 N 89.8961 5.03519 -0.479839 0
M  V30 980 C 88.1941 4.40161 0.719319 0
M  V30 981 C 88.8951 5.74904 -0.886591 0
M  V30 982 N 87.8711 5.43097 -0.233731 0
M  V30 983 H 91.6731 2.88272 -0.572392 0
M  V30 984 H 89.1871 1.57024 -0.414375 0
M  V30 985 H 91.1841 3.79986 1.71513 0
M  V30 986 H 89.8441 2.63701 1.89451 0
M  V30 987 H 90.8551 5.1078 -0.855823 0
M  V30 988 H 87.5321 3.92046 1.43548 0
M  V30 989 H 88.9221 6.50844 -1.66888 0
M  V30 990 N 91.6422 0.330177 1.54103 0
M  V30 991 C 92.5722 -0.525353 2.27513 0
M  V30 992 C 93.5532 -1.11383 1.2856 0
M  V30 993 O 94.7382 -1.13773 1.57383 0
M  V30 994 C 91.8682 -1.6831 3.03791 0
M  V30 995 C 90.8222 -1.2236 4.10137 0
M  V30 996 C 90.1482 -2.46882 4.74293 0
M  V30 997 C 91.4482 -0.333697 5.21233 0
M  V30 998 H 93.1422 0.087013 2.99274 0
M  V30 999 H 90.6882 0.0432893 1.43935 0
M  V30 1000 H 92.6412 -2.28795 3.5388 0
M  V30 1001 H 91.3652 -2.32216 2.29659 0
M  V30 1002 H 90.0242 -0.64165 3.60941 0
M  V30 1003 H 89.6722 -3.09165 3.96769 0
M  V30 1004 H 89.3722 -2.16825 5.46133 0
M  V30 1005 H 90.8962 -3.08117 5.27159 0
M  V30 1006 H 92.3102 -0.845013 5.67038 0
M  V30 1007 H 90.7072 -0.125612 5.99969 0
M  V30 1008 H 91.7772 0.633724 4.80741 0
M  V30 1009 N 93.1203 -1.57491 0.0584922 0
M  V30 1010 C 94.0833 -2.1085 -0.898617 0
M  V30 1011 C 95.0833 -1.02964 -1.23511 0
M  V30 1012 O 96.2733 -1.29007 -1.17059 0
M  V30 1013 C 93.4053 -2.59881 -2.20623 0
M  V30 1014 H 94.5983 -2.96715 -0.435936 0
M  V30 1015 H 92.1513 -1.55141 -0.190023 0
M  V30 1016 H 92.8863 -1.77431 -2.71457 0
M  V30 1017 H 92.6713 -3.38727 -1.97501 0
M  V30 1018 H 94.1613 -3.01285 -2.89166 0
M  V30 1019 N 94.5984 0.214957 -1.56127 0
M  V30 1020 C 95.5284 1.2695 -1.95974 0
M  V30 1021 C 96.5094 1.48539 -0.828868 0
M  V30 1022 O 97.6944 1.60611 -1.09168 0
M  V30 1023 C 94.8244 2.61794 -2.28214 0
M  V30 1024 C 93.7784 2.54851 -3.43853 0
M  V30 1025 C 93.1044 3.93785 -3.61715 0
M  V30 1026 C 94.4044 2.09065 -4.78632 0
M  V30 1027 H 96.0984 0.93846 -2.84312 0
M  V30 1028 H 93.6444 0.449996 -1.36788 0
M  V30 1029 H 95.5974 3.35731 -2.54682 0
M  V30 1030 H 94.3214 2.96599 -1.36736 0
M  V30 1031 H 92.9804 1.8337 -3.17444 0
M  V30 1032 H 92.6284 4.25908 -2.67602 0
M  V30 1033 H 92.3284 3.90019 -4.39498 0
M  V30 1034 H 93.8524 4.69374 -3.90539 0
M  V30 1035 H 95.2664 2.7275 -5.04262 0
M  V30 1036 H 93.6634 2.16346 -5.59745 0
M  V30 1037 H 94.7334 1.04315 -4.73547 0
M  V30 1038 N 96.0765 1.50051 0.48192 0
M  V30 1039 C 97.3015 1.64508 1.26301 0
M  V30 1040 C 97.7265 0.323851 1.85291 0
M  V30 1041 O 97.0845 -0.710969 1.66778 0
M  V30 1042 C 97.1325 2.7305 2.35533 0
M  V30 1043 O 96.2365 2.3355 3.39895 0
M  V30 1044 H 95.5775 0.549978 0.372048 0
M  V30 1045 H 98.1075 1.9636 0.574786 0
M  V30 1046 H 98.1175 2.95799 2.8101 0
M  V30 1047 H 96.7925 3.68946 1.91967 0
M  V30 1048 H 95.3695 2.21205 3.00204 0
M  V30 1049 N 97.5546 -0.734337 1.39446 0
M  V30 1050 C 98.9706 -1.03997 1.21065 0
M  V30 1051 C 99.1706 -2.01369 0.0727019 0
M  V30 1052 O 98.2266 -2.45856 -0.575426 0
M  V30 1053 C 99.5396 -1.60163 2.54496 0
M  V30 1054 C 101.088 -1.7224 2.61347 0
M  V30 1055 C 101.563 -2.31814 3.95002 0
M  V30 1056 N 103.054 -2.39223 3.96644 0
M  V30 1057 C 103.789 -2.86258 4.96834 0
M  V30 1058 N 103.285 -3.33184 6.07421 0
M  V30 1059 N 105.078 -2.85473 4.84213 0
M  V30 1060 H 97.2286 -0.0885624 2.12215 0
M  V30 1061 H 99.4916 -0.10191 0.942506 0
M  V30 1062 H 99.1976 -0.960811 3.38321 0
M  V30 1063 H 99.0716 -2.5896 2.74262 0
M  V30 1064 H 101.459 -2.35443 1.77906 0
M  V30 1065 H 101.54 -0.720939 2.4543 0
M  V30 1066 H 101.184 -1.69238 4.78875 0
M  V30 1067 H 101.114 -3.32638 4.08239 0
M  V30 1068 H 103.605 -2.06057 3.16779 0
M  V30 1069 H 103.918 -3.67586 6.7978 0
M  V30 1070 H 102.263 -3.31191 6.11013 0
M  V30 1071 H 105.454 -2.48136 3.96921 0
M  V30 1072 H 105.627 -3.21814 5.62441 0
M  V30 1073 N 99.0327 -1.24633 -0.964593 0
M  V30 1074 C 99.9657 -0.984662 -2.05863 0
M  V30 1075 C 100.944 0.0826554 -1.6239 0
M  V30 1076 O 102.128 -0.0549296 -1.8842 0
M  V30 1077 C 99.2547 -0.486529 -3.35187 0
M  V30 1078 C 98.3007 -1.54286 -3.97615 0
M  V30 1079 S 99.1337 -3.12513 -4.34851 0
M  V30 1080 C 100.29 -2.6441 -5.67308 0
M  V30 1081 H 100.523 -1.91104 -2.27743 0
M  V30 1082 H 98.0557 -1.08052 -1.10291 0
M  V30 1083 H 100.014 -0.205757 -4.09984 0
M  V30 1084 H 98.6747 0.419186 -3.1129 0
M  V30 1085 H 97.8677 -1.14481 -4.90826 0
M  V30 1086 H 97.4697 -1.7738 -3.2926 0
M  V30 1087 H 99.7617 -2.07416 -6.44969 0
M  V30 1088 H 100.705 -3.56222 -6.11973 0
M  V30 1089 H 101.113 -2.04734 -5.26065 0
M  V30 1090 N 100.511 1.16574 -1.06058 0
M  V30 1091 C 101.736 1.91493 -0.796562 0
M  V30 1092 C 102.161 1.76773 0.642868 0
M  V30 1093 O 101.519 1.09142 1.44768 0
M  V30 1094 C 101.567 3.40293 -1.19303 0
M  V30 1095 O 100.671 4.11074 -0.330394 0
M  V30 1096 H 100.012 0.596678 -0.291326 0
M  V30 1097 H 102.542 1.47708 -1.41575 0
M  V30 1098 H 102.552 3.91057 -1.16356 0
M  V30 1099 H 101.227 3.50326 -2.24153 0
M  V30 1100 H 99.8038 3.70513 -0.421225 0
M  V30 1101 N 101.989 0.842826 1.3317 0
M  V30 1102 C 102.921 0.236245 2.27979 0
M  V30 1103 C 103.934 -0.585282 1.51915 0
M  V30 1104 O 105.123 -0.411705 1.73687 0
M  V30 1105 C 102.223 -0.685717 3.3189 0
M  V30 1106 C 101.396 0.0973448 4.37292 0
M  V30 1107 C 100.455 -0.748565 5.20848 0
M  V30 1108 O 99.4809 -0.186339 5.68895 0
M  V30 1109 N 100.683 -2.06527 5.42519 0
M  V30 1110 H 103.448 1.05088 2.80672 0
M  V30 1111 H 101.009 0.701667 1.45905 0
M  V30 1112 H 103.001 -1.25669 3.84694 0
M  V30 1113 H 101.571 -1.40105 2.79445 0
M  V30 1114 H 100.791 0.849706 3.84933 0
M  V30 1115 H 102.079 0.635643 5.04814 0
M  V30 1116 H 101.477 -2.54554 5.05192 0
M  V30 1117 H 100.034 -2.58464 5.98364 0
M  V30 1118 N 103.467 -1.45747 0.599634 0
M  V30 1119 C 104.883 -1.57424 0.26264 0
M  V30 1120 C 105.083 -1.59222 -1.23493 0
M  V30 1121 O 104.139 -1.51825 -2.01756 0
M  V30 1122 C 105.452 -2.86061 0.926795 0
M  V30 1123 C 107 -2.99722 0.901967 0
M  V30 1124 C 107.475 -4.31119 1.54598 0
M  V30 1125 N 108.966 -4.37858 1.5111 0
M  V30 1126 C 109.701 -5.3818 1.97863 0
M  V30 1127 N 109.197 -6.45083 2.52666 0
M  V30 1128 N 110.99 -5.29487 1.88679 0
M  V30 1129 H 103.141 -1.42823 1.57211 0
M  V30 1130 H 105.404 -0.68235 0.658105 0
M  V30 1131 H 105.11 -2.90605 1.98095 0
M  V30 1132 H 104.984 -3.74563 0.445238 0
M  V30 1133 H 107.371 -2.9475 -0.143617 0
M  V30 1134 H 107.452 -2.12652 1.42171 0
M  V30 1135 H 107.096 -4.36849 2.59085 0
M  V30 1136 H 107.026 -5.16992 1.00132 0
M  V30 1137 H 109.517 -3.61209 1.11068 0
M  V30 1138 H 109.83 -7.17869 2.86155 0
M  V30 1139 H 108.175 -6.45856 2.56701 0
M  V30 1140 H 111.366 -4.44877 1.4561 0
M  V30 1141 H 111.539 -6.07524 2.25429 0
M  V30 1142 N 104.945 -0.338344 -1.53925 0
M  V30 1143 C 106.175 0.260919 -2.04946 0
M  V30 1144 C 106.583 1.45174 -1.2133 0
M  V30 1145 O 105.926 1.82122 -0.240262 0
M  V30 1146 C 105.988 0.744596 -3.51704 0
M  V30 1147 C 105.652 -0.325883 -4.55837 0
M  V30 1148 C 106.649 -1.16687 -5.06636 0
M  V30 1149 C 104.334 -0.478317 -5.00017 0
M  V30 1150 C 106.328 -2.14588 -6.00192 0
M  V30 1151 C 104.015 -1.46073 -5.93385 0
M  V30 1152 C 105.013 -2.29297 -6.4336 0
M  V30 1153 O 104.701 -3.25867 -7.34892 0
M  V30 1154 H 104.433 0.0551207 -0.673749 0
M  V30 1155 H 106.987 -0.486984 -1.99544 0
M  V30 1156 H 105.217 1.54366 -3.54553 0
M  V30 1157 H 106.906 1.26383 -3.85723 0
M  V30 1158 H 107.672 -1.06016 -4.73271 0
M  V30 1159 H 103.551 0.159613 -4.60724 0
M  V30 1160 H 107.095 -2.79585 -6.39123 0
M  V30 1161 H 102.992 -1.56802 -6.26166 0
M  V30 1162 H 103.76 -3.21278 -7.5281 0
M  V30 1163 N 106.423 1.57458 -0.0668435 0
M  V30 1164 C 107.671 1.92919 0.602214 0
M  V30 1165 C 107.992 0.947215 1.70449 0
M  V30 1166 O 107.262 -0.00544117 1.95899 0
M  V30 1167 H 105.842 0.71217 0.22544 0
M  V30 1168 H 108.504 1.94508 -0.123535 0
M  V30 1169 H 107.6 2.94589 1.03073 0
M  V30 1170 N 107.901 -0.206675 1.56239 0
M  V30 1171 C 109.178 -0.954051 1.70755 0
M  V30 1172 C 109.558 -2.01841 0.618353 0
M  V30 1173 O 108.906 -2.25444 -0.372434 0
M  V30 1174 C 109.116 -1.551 3.12642 0
M  V30 1175 C 110.464 -2.03757 3.72516 0
M  V30 1176 O 111.488 -1.64965 3.15698 0
M  V30 1177 O 110.347 -2.75103 4.72208 0
M  V30 1178 H 107.441 -0.446636 0.696021 0
M  V30 1179 H 109.987 -0.197283 1.68549 0
M  V30 1180 H 108.759 -0.783212 3.83382 0
M  V30 1181 H 108.382 -2.37291 3.19028 0
M  V30 1182 N 109.379 -1.50304 -0.473955 0
M  V30 1183 C 110.625 -1.61389 -1.22806 0
M  V30 1184 C 110.958 -0.311955 -1.91678 0
M  V30 1185 O 110.233 0.686384 -1.81986 0
M  V30 1186 C 110.516 -2.79219 -2.27396 0
M  V30 1187 C 110.369 -4.19286 -1.62848 0
M  V30 1188 C 111.688 -2.92614 -3.28732 0
M  V30 1189 H 108.807 -0.587399 -0.445119 0
M  V30 1190 H 111.449 -1.82681 -0.522265 0
M  V30 1191 H 109.599 -2.61195 -2.87592 0
M  V30 1192 H 111.271 -4.48892 -1.06271 0
M  V30 1193 H 109.514 -4.23677 -0.931693 0
M  V30 1194 H 110.185 -4.97655 -2.38838 0
M  V30 1195 H 112.661 -3.09105 -2.78556 0
M  V30 1196 H 111.537 -3.76688 -3.99246 0
M  V30 1197 H 111.798 -2.03107 -3.92683 0
M  V30 1198 N 110.857 0.726932 -1.39834 0
M  V30 1199 C 111.787 1.85405 -1.41941 0
M  V30 1200 C 112.768 1.67751 -0.281728 0
M  V30 1201 O 113.953 1.8795 -0.488717 0
M  V30 1202 C 111.083 3.23243 -1.2701 0
M  V30 1203 C 110.037 3.55549 -2.38262 0
M  V30 1204 C 109.363 4.9241 -2.08415 0
M  V30 1205 C 110.663 3.577 -3.80589 0
M  V30 1206 H 112.357 1.83899 -2.36266 0
M  V30 1207 H 109.903 0.883349 -1.13723 0
M  V30 1208 H 111.856 4.01775 -1.27103 0
M  V30 1209 H 110.58 3.25296 -0.291564 0
M  V30 1210 H 109.239 2.79351 -2.37399 0
M  V30 1211 H 108.887 4.91052 -1.0898 0
M  V30 1212 H 108.587 5.14992 -2.82943 0
M  V30 1213 H 110.111 5.73289 -2.10171 0
M  V30 1214 H 111.525 4.26293 -3.83337 0
M  V30 1215 H 109.922 3.91804 -4.54543 0
M  V30 1216 H 110.992 2.57328 -4.10987 0
M  V30 1217 N 112.336 1.25143 0.95797 0
M  V30 1218 C 113.268 1.01023 2.05735 0
M  V30 1219 C 114.281 -0.0236902 1.62783 0
M  V30 1220 O 115.47 0.21448 1.77207 0
M  V30 1221 C 112.57 0.504595 3.35122 0
M  V30 1222 C 111.743 1.6039 4.06932 0
M  V30 1223 C 110.802 1.09922 5.14591 0
M  V30 1224 O 109.828 1.79293 5.40225 0
M  V30 1225 N 111.03 -0.0612545 5.80468 0
M  V30 1226 H 113.795 1.95683 2.26998 0
M  V30 1227 H 111.356 1.16303 1.12629 0
M  V30 1228 H 113.348 0.151516 4.04416 0
M  V30 1229 H 111.918 -0.347989 3.10657 0
M  V30 1230 H 111.138 2.12872 3.31782 0
M  V30 1231 H 112.426 2.34252 4.51667 0
M  V30 1232 H 111.824 -0.640985 5.62057 0
M  V30 1233 H 110.381 -0.355395 6.5083 0
M  V30 1234 N 113.814 -1.1601 1.06675 0
M  V30 1235 C 115.063 -1.85973 0.780818 0
M  V30 1236 C 115.376 -1.82819 -0.695444 0
M  V30 1237 O 116.582 -2.484 -1.09589 0
M  V30 1238 C 115.038 -3.33757 1.34665 0
M  V30 1239 C 114.646 -3.45374 2.85343 0
M  V30 1240 C 116.39 -4.0895 1.13843 0
M  V30 1241 C 114.297 -4.87266 3.35151 0
M  V30 1242 H 113.227 -0.696661 0.288407 0
M  V30 1243 H 115.878 -1.30903 1.28595 0
M  V30 1244 H 114.26 -3.88456 0.769274 0
M  V30 1245 H 115.434 -3.00816 3.49065 0
M  V30 1246 H 113.749 -2.83619 3.04876 0
M  V30 1247 H 116.346 -5.13654 1.4854 0
M  V30 1248 H 116.689 -4.16229 0.0770282 0
M  V30 1249 H 117.222 -3.605 1.68179 0
M  V30 1250 H 113.961 -4.85168 4.40786 0
M  V30 1251 H 113.481 -5.32433 2.76179 0
M  V30 1252 H 115.16 -5.56097 3.30704 0
M  V30 1253 N 115.292 -0.849877 -1.32721 0
M  V30 1254 C 116.708 -0.539102 -1.50219 0
M  V30 1255 C 116.908 0.931271 -1.78689 0
M  V30 1256 O 115.964 1.71455 -1.85363 0
M  V30 1257 C 117.277 -1.42196 -2.64954 0
M  V30 1258 C 118.825 -1.42189 -2.78839 0
M  V30 1259 C 119.3 -2.28985 -3.96648 0
M  V30 1260 N 120.791 -2.26754 -4.03902 0
M  V30 1261 C 121.526 -2.90644 -4.94281 0
M  V30 1262 N 121.022 -3.63629 -5.897 0
M  V30 1263 N 122.815 -2.80057 -4.87365 0
M  V30 1264 H 114.966 -1.80156 -1.12506 0
M  V30 1265 H 117.229 -0.769217 -0.554085 0
M  V30 1266 H 116.935 -2.46733 -2.50631 0
M  V30 1267 H 116.809 -1.10591 -3.60624 0
M  V30 1268 H 119.196 -0.38419 -2.92588 0
M  V30 1269 H 119.277 -1.77807 -1.83898 0
M  V30 1270 H 118.921 -3.32819 -3.83658 0
M  V30 1271 H 118.851 -1.90702 -4.90857 0
M  V30 1272 H 121.342 -1.73688 -3.3562 0
M  V30 1273 H 121.655 -4.09558 -6.55349 0
M  V30 1274 H 120 -3.67737 -5.89741 0
M  V30 1275 H 123.191 -2.22593 -4.11789 0
M  V30 1276 H 123.364 -3.30132 -5.57599 0
M  V30 1277 N 116.77 1.45427 -0.607355 0
M  V30 1278 C 118.019 2.01452 -0.100036 0
M  V30 1279 C 118.332 1.48159 1.27704 0
M  V30 1280 O 119.538 1.96159 1.87707 0
M  V30 1281 C 117.994 3.59672 -0.128158 0
M  V30 1282 C 117.602 4.21962 -1.50507 0
M  V30 1283 C 119.346 4.23262 0.323932 0
M  V30 1284 C 117.253 5.72333 -1.48959 0
M  V30 1285 H 116.183 0.75325 -0.0336299 0
M  V30 1286 H 118.834 1.66901 -0.76265 0
M  V30 1287 H 117.216 3.91411 0.601105 0
M  V30 1288 H 118.39 4.01796 -2.25602 0
M  V30 1289 H 116.705 3.70565 -1.89923 0
M  V30 1290 H 119.302 5.33522 0.354691 0
M  V30 1291 H 119.645 3.93921 1.34656 0
M  V30 1292 H 120.178 3.96239 -0.352056 0
M  V30 1293 H 116.917 6.06373 -2.48981 0
M  V30 1294 H 116.437 5.94691 -0.781214 0
M  V30 1295 H 118.116 6.35525 -1.21313 0
M  V30 1296 N 118.248 0.346503 1.53744 0
M  V30 1297 C 119.496 -0.248612 2.00565 0
M  V30 1298 C 119.817 -1.5083 1.23593 0
M  V30 1299 O 119.087 -1.92858 0.343912 0
M  V30 1300 H 117.667 -0.0948564 0.740953 0
M  V30 1301 H 120.329 0.468341 1.89189 0
M  V30 1302 H 119.425 -0.488994 3.08245 0
M  V30 1303 N 119.726 -1.57421 0.075193 0
M  V30 1304 C 120.951 -1.98364 -0.605515 0
M  V30 1305 C 121.376 -0.953383 -1.62149 0
M  V30 1306 O 120.734 0.0806053 -1.81121 0
M  V30 1307 C 120.782 -3.38332 -1.24756 0
M  V30 1308 O 119.886 -3.37959 -2.36342 0
M  V30 1309 H 119.227 -0.645553 -0.155428 0
M  V30 1310 H 121.757 -2.04044 0.150714 0
M  V30 1311 H 121.767 -3.75591 -1.5936 0
M  V30 1312 H 120.442 -4.12846 -0.503129 0
M  V30 1313 H 119.019 -3.12474 -2.03506 0
M  V30 1314 N 121.204 0.198386 -1.56346 0
M  V30 1315 C 122.432 0.935572 -1.84539 0
M  V30 1316 C 122.847 1.76989 -0.657281 0
M  V30 1317 O 122.204 1.78626 0.374043 0
M  V30 1318 C 122.255 1.8344 -3.11499 0
M  V30 1319 O 121.976 1.03377 -4.25728 0
M  V30 1320 C 123.477 2.68355 -3.52846 0
M  V30 1321 H 120.697 0.273126 -0.612897 0
M  V30 1322 H 123.241 0.20663 -2.03453 0
M  V30 1323 H 121.396 2.51701 -2.94492 0
M  V30 1324 H 121.81 1.64599 -4.98003 0
M  V30 1325 H 123.284 3.27085 -4.44657 0
M  V30 1326 H 123.761 3.41901 -2.75681 0
M  V30 1327 H 124.367 2.05471 -3.72373 0
M  V30 1328 N 122.682 1.50554 0.465978 0
M  V30 1329 C 124.093 1.54599 1.04671 0
M  V30 1330 C 124.444 0.352488 1.93008 0
M  V30 1331 O 123.569 -0.534044 2.09707 0
M  V30 1332 C 124.164 2.80166 1.90505 0
M  V30 1333 C 122.723 2.86876 2.43678 0
M  V30 1334 C 121.87 2.48947 1.22151 0
M  V30 1335 H 124.821 1.56744 0.248384 0
M  V30 1336 H 124.842 2.62311 2.75633 0
M  V30 1337 H 124.354 3.67013 1.26186 0
M  V30 1338 H 122.455 2.04393 3.11536 0
M  V30 1339 H 122.568 3.89885 2.78436 0
M  V30 1340 H 120.932 2.01498 1.5579 0
M  V30 1341 H 121.715 3.38107 0.594866 0
M  V30 1342 N 124.16 -0.719506 1.40217 0
M  V30 1343 C 125.406 -1.48152 1.38488 0
M  V30 1344 C 125.739 -1.94195 -0.0141867 0
M  V30 1345 O 125.014 -1.67884 -0.982096 0
M  V30 1346 C 125.297 -2.71035 2.37091 0
M  V30 1347 C 125.15 -2.30912 3.86005 0
M  V30 1348 C 126.469 -3.73182 2.33288 0
M  V30 1349 H 123.588 -0.537395 0.504357 0
M  V30 1350 H 126.23 -0.821472 1.71324 0
M  V30 1351 H 124.38 -3.27352 2.0922 0
M  V30 1352 H 126.052 -1.80107 4.24687 0
M  V30 1353 H 124.295 -1.62958 4.02029 0
M  V30 1354 H 124.966 -3.18978 4.50508 0
M  V30 1355 H 127.442 -3.26485 2.57966 0
M  V30 1356 H 126.318 -4.56806 3.04334 0
M  V30 1357 H 126.579 -4.21202 1.34317 0
M  V30 1358 N 125.638 -1.25649 -0.95132 0
M  V30 1359 C 126.568 -1.08808 -2.06599 0
M  V30 1360 C 127.549 0.00382547 -1.701 0
M  V30 1361 O 128.734 -0.166325 -1.93486 0
M  V30 1362 C 125.864 -0.709542 -3.39975 0
M  V30 1363 C 124.818 -1.75206 -3.90496 0
M  V30 1364 C 124.144 -1.22811 -5.20405 0
M  V30 1365 C 125.444 -3.15153 -4.16504 0
M  V30 1366 H 127.138 -2.02048 -2.20946 0
M  V30 1367 H 124.684 -0.972835 -1.06169 0
M  V30 1368 H 126.637 -0.578649 -4.17408 0
M  V30 1369 H 125.361 0.258556 -3.25575 0
M  V30 1370 H 124.02 -1.87145 -3.15234 0
M  V30 1371 H 123.668 -0.250145 -5.02378 0
M  V30 1372 H 123.368 -1.92492 -5.55176 0
M  V30 1373 H 124.892 -1.10968 -6.00432 0
M  V30 1374 H 126.306 -3.06349 -4.84586 0
M  V30 1375 H 124.703 -3.82333 -4.62538 0
M  V30 1376 H 125.773 -3.61966 -3.22658 0
M  V30 1377 N 127.117 1.15442 -1.07289 0
M  V30 1378 C 128.363 1.86489 -0.796846 0
M  V30 1379 C 128.696 1.82078 0.675371 0
M  V30 1380 O 127.971 1.24346 1.4956 0
M  V30 1381 C 128.254 3.35626 -1.30489 0
M  V30 1382 C 128.107 3.48673 -2.84161 0
M  V30 1383 C 129.426 4.30357 -0.920907 0
M  V30 1384 H 126.545 0.677144 -0.290939 0
M  V30 1385 H 129.187 1.35633 -1.33056 0
M  V30 1386 H 127.337 3.79068 -0.850883 0
M  V30 1387 H 129.009 3.14099 -3.37846 0
M  V30 1388 H 127.252 2.90253 -3.22391 0
M  V30 1389 H 127.923 4.53453 -3.14777 0
M  V30 1390 H 130.399 3.94871 -1.3121 0
M  V30 1391 H 129.275 5.33193 -1.30372 0
M  V30 1392 H 129.536 4.4176 0.173226 0
M  V30 1393 N 128.595 0.856903 1.32268 0
M  V30 1394 C 129.525 0.31858 2.31316 0
M  V30 1395 C 130.506 -0.583487 1.59779 0
M  V30 1396 O 131.691 -0.503259 1.87566 0
M  V30 1397 C 128.821 -0.491979 3.43798 0
M  V30 1398 C 127.775 0.315849 4.26833 0
M  V30 1399 C 127.101 -0.619586 5.31098 0
M  V30 1400 C 128.401 1.54282 4.98993 0
M  V30 1401 H 130.095 1.14621 2.76591 0
M  V30 1402 H 127.641 0.552613 1.32974 0
M  V30 1403 H 129.594 -0.879012 4.1213 0
M  V30 1404 H 128.318 -1.35299 2.97257 0
M  V30 1405 H 126.977 0.684664 3.6015 0
M  V30 1406 H 126.625 -1.47751 4.8081 0
M  V30 1407 H 126.325 -0.0830621 5.87541 0
M  V30 1408 H 127.849 -1.00375 6.02293 0
M  V30 1409 H 129.263 1.22796 5.59995 0
M  V30 1410 H 127.66 2.01745 5.65172 0
M  V30 1411 H 128.73 2.30285 4.26728 0
M  V30 1412 N 130.073 -1.45103 0.615059 0
M  V30 1413 C 131.298 -2.07064 0.117988 0
M  V30 1414 C 131.723 -1.4554 -1.19163 0
M  V30 1415 O 131.081 -0.550855 -1.72729 0
M  V30 1416 C 131.129 -3.606 -0.000288387 0
M  V30 1417 O 130.233 -3.98847 -1.04856 0
M  V30 1418 H 129.574 -0.659467 0.0774581 0
M  V30 1419 H 132.104 -1.86236 0.847186 0
M  V30 1420 H 132.114 -4.07529 -0.196091 0
M  V30 1421 H 130.789 -4.04765 0.955932 0
M  V30 1422 H 129.366 -3.63577 -0.828619 0
M  V30 1423 N 131.551 -0.354651 -1.53558 0
M  V30 1424 C 132.967 -0.00315426 -1.596 0
M  V30 1425 C 133.167 1.47741 -1.37021 0
M  V30 1426 O 132.223 2.23759 -1.16996 0
M  V30 1427 C 133.536 -0.44929 -2.97325 0
M  V30 1428 C 135.084 -0.402578 -3.104 0
M  V30 1429 C 135.559 -0.824355 -4.5052 0
M  V30 1430 N 137.05 -0.778979 -4.56603 0
M  V30 1431 C 137.785 -1.07715 -5.63192 0
M  V30 1432 N 137.281 -1.44405 -6.77583 0
M  V30 1433 N 139.074 -1.00066 -5.53121 0
M  V30 1434 H 131.225 -1.31893 -1.66487 0
M  V30 1435 H 133.488 -0.538388 -0.780284 0
M  V30 1436 H 133.194 -1.48202 -3.1895 0
M  V30 1437 H 133.068 0.169772 -3.76818 0
M  V30 1438 H 135.455 0.621004 -2.88492 0
M  V30 1439 H 135.536 -1.05699 -2.32941 0
M  V30 1440 H 135.18 -1.846 -4.73165 0
M  V30 1441 H 135.11 -0.147304 -5.26394 0
M  V30 1442 H 137.601 -0.508528 -3.74463 0
M  V30 1443 H 137.914 -1.65612 -7.54846 0
M  V30 1444 H 136.259 -1.4826 -6.79002 0
M  V30 1445 H 139.45 -0.713293 -4.62633 0
M  V30 1446 H 139.623 -1.23638 -6.36096 0
M  V30 1447 N 133.029 1.57378 -0.0835403 0
M  V30 1448 C 133.959 2.1641 0.87686 0
M  V30 1449 C 134.94 1.09429 1.30228 0
M  V30 1450 O 136.125 1.37516 1.37124 0
M  V30 1451 C 133.255 2.73517 2.14022 0
M  V30 1452 C 132.209 3.85769 1.85381 0
M  V30 1453 C 131.535 4.29529 3.18448 0
M  V30 1454 C 132.835 5.09486 1.14984 0
M  V30 1455 H 134.529 2.96914 0.385059 0
M  V30 1456 H 132.075 1.42823 0.18377 0
M  V30 1457 H 134.028 3.13463 2.81636 0
M  V30 1458 H 132.752 1.90252 2.65465 0
M  V30 1459 H 131.411 3.46345 1.20169 0
M  V30 1460 H 131.059 3.43169 3.67755 0
M  V30 1461 H 130.759 5.05204 3.00071 0
M  V30 1462 H 132.283 4.72099 3.8724 0
M  V30 1463 H 133.697 5.46674 1.72687 0
M  V30 1464 H 132.094 5.90515 1.06826 0
M  V30 1465 H 133.164 4.84724 0.130749 0
M  V30 1466 N 134.507 -0.190092 1.56449 0
M  V30 1467 C 135.784 -0.935886 1.71757 0
M  V30 1468 C 136.164 -2.01173 0.639726 0
M  V30 1469 O 135.512 -2.25827 -0.348502 0
M  V30 1470 C 135.722 -1.51775 3.1427 0
M  V30 1471 C 137.07 -1.99794 3.74656 0
M  V30 1472 O 138.094 -1.61607 3.1743 0
M  V30 1473 O 136.953 -2.70079 4.751 0
M  V30 1474 H 134.047 -0.439229 0.700719 0
M  V30 1475 H 136.593 -0.179395 1.68749 0
M  V30 1476 H 135.365 -0.742505 3.84191 0
M  V30 1477 H 134.988 -2.33894 3.21527 0
M  V30 1478 N 135.985 -1.50799 -0.457987 0
M  V30 1479 C 137.213 -1.66218 -1.23203 0
M  V30 1480 C 137.628 -0.350894 -1.85511 0
M  V30 1481 O 136.985 0.668546 -1.69814 0
M  V30 1482 C 137.036 -2.76291 -2.33121 0
M  V30 1483 O 136.757 -4.02338 -1.73366 0
M  V30 1484 C 138.258 -3.028 -3.2377 0
M  V30 1485 H 135.478 -0.558361 -0.372121 0
M  V30 1486 H 138.022 -1.97099 -0.545179 0
M  V30 1487 H 136.177 -2.48068 -2.97558 0
M  V30 1488 H 136.591 -4.63312 -2.4585 0
M  V30 1489 H 138.065 -3.8345 -3.97077 0
M  V30 1490 H 138.542 -2.14385 -3.83322 0
M  V30 1491 H 139.148 -3.32604 -2.65056 0
M  V30 1492 N 137.463 0.71206 -1.40597 0
M  V30 1493 C 138.712 1.46754 -1.38369 0
M  V30 1494 C 139.025 1.95598 0.0097839 0
M  V30 1495 O 140.231 2.71059 0.154677 0
M  V30 1496 C 138.687 2.65289 -2.43207 0
M  V30 1497 C 138.295 2.23301 -3.88382 0
M  V30 1498 C 140.039 3.43008 -2.50091 0
M  V30 1499 C 137.946 3.38696 -4.84808 0
M  V30 1500 H 136.876 0.55118 -0.514506 0
M  V30 1501 H 139.527 0.774616 -1.66349 0
M  V30 1502 H 137.909 3.36769 -2.08332 0
M  V30 1503 H 139.083 1.59218 -4.32419 0
M  V30 1504 H 137.398 1.58618 -3.85006 0
M  V30 1505 H 139.995 4.28881 -3.1932 0
M  V30 1506 H 140.338 3.87065 -1.53253 0
M  V30 1507 H 140.871 2.78574 -2.83974 0
M  V30 1508 H 137.61 2.99668 -5.82992 0
M  V30 1509 H 137.13 4.01683 -4.45433 0
M  V30 1510 H 138.809 4.04712 -5.04794 0
M  V30 1511 N 138.941 1.26152 0.944643 0
M  V30 1512 C 140.357 1.03189 1.21754 0
M  V30 1513 C 140.557 -0.245112 2.00004 0
M  V30 1514 O 139.613 -0.955176 2.33736 0
M  V30 1515 C 140.926 2.26119 1.98219 0
M  V30 1516 C 142.474 2.30984 2.11224 0
M  V30 1517 C 142.949 3.53597 2.91089 0
M  V30 1518 N 144.44 3.54053 2.98664 0
M  V30 1519 C 145.175 4.45593 3.60881 0
M  V30 1520 N 144.671 5.47416 4.24626 0
M  V30 1521 N 146.464 4.33252 3.58119 0
M  V30 1522 H 138.615 2.08177 0.421437 0
M  V30 1523 H 140.878 0.914723 0.248969 0
M  V30 1524 H 140.584 3.18984 1.48128 0
M  V30 1525 H 140.458 2.3009 2.98895 0
M  V30 1526 H 142.845 1.38635 2.60508 0
M  V30 1527 H 142.926 2.31026 1.09821 0
M  V30 1528 H 142.57 4.46273 2.42493 0
M  V30 1529 H 142.5 3.50802 3.92741 0
M  V30 1530 H 144.991 2.80403 2.53343 0
M  V30 1531 H 145.304 6.13459 4.69987 0
M  V30 1532 H 143.649 5.51278 4.23223 0
M  V30 1533 H 146.84 3.52924 3.0751 0
M  V30 1534 H 147.013 5.04786 4.06319 0
M  V30 1535 N 140.419 -1.14872 1.07899 0
M  V30 1536 C 141.351 -2.19425 0.662231 0
M  V30 1537 C 142.364 -1.60231 -0.288079 0
M  V30 1538 O 143.553 -1.78336 -0.076534 0
M  V30 1539 C 140.653 -3.38867 -0.0470695 0
M  V30 1540 C 139.826 -4.27597 0.920831 0
M  V30 1541 C 138.885 -5.25616 0.247805 0
M  V30 1542 O 137.911 -5.62189 0.890599 0
M  V30 1543 N 139.113 -5.71746 -1.00435 0
M  V30 1544 H 141.878 -2.55797 1.56166 0
M  V30 1545 H 139.439 -1.30042 0.964404 0
M  V30 1546 H 141.431 -4.01497 -0.50813 0
M  V30 1547 H 140.001 -3.00864 -0.848523 0
M  V30 1548 H 139.221 -3.61982 1.56087 0
M  V30 1549 H 140.509 -4.83748 1.57688 0
M  V30 1550 H 139.907 -5.44153 -1.54642 0
M  V30 1551 H 138.464 -6.36389 -1.40899 0
M  V30 1552 N 141.898 -0.863906 -1.31812 0
M  V30 1553 C 142.861 -0.320212 -2.26952 0
M  V30 1554 C 143.861 0.525369 -1.51975 0
M  V30 1555 O 145.051 0.335547 -1.70938 0
M  V30 1556 C 142.183 0.545919 -3.365 0
M  V30 1557 H 143.376 -1.16004 -2.76556 0
M  V30 1558 H 140.929 -0.638995 -1.42641 0
M  V30 1559 H 141.664 1.40718 -2.92179 0
M  V30 1560 H 141.449 -0.0594674 -3.92055 0
M  V30 1561 H 142.939 0.918796 -4.07367 0
M  V30 1562 N 143.376 1.44774 -0.622745 0
M  V30 1563 C 144.306 2.33382 0.0741861 0
M  V30 1564 C 145.287 1.47719 0.843387 0
M  V30 1565 O 146.472 1.76458 0.810934 0
M  V30 1566 C 143.602 3.30663 1.06204 0
M  V30 1567 C 142.556 4.26079 0.405037 0
M  V30 1568 C 141.882 5.13165 1.5022 0
M  V30 1569 C 143.182 5.1781 -0.683414 0
M  V30 1570 H 144.876 2.91905 -0.665713 0
M  V30 1571 H 142.422 1.40363 -0.321587 0
M  V30 1572 H 144.375 3.9153 1.55827 0
M  V30 1573 H 143.099 2.70331 1.83272 0
M  V30 1574 H 141.758 3.66532 -0.0704683 0
M  V30 1575 H 141.406 4.49191 2.26355 0
M  V30 1576 H 141.106 5.77812 1.06803 0
M  V30 1577 H 142.63 5.76902 2.00041 0
M  V30 1578 H 144.044 5.72661 -0.270631 0
M  V30 1579 H 142.441 5.91015 -1.04023 0
M  V30 1580 H 143.511 4.59326 -1.55395 0
M  V30 1581 N 144.854 0.36279 1.53368 0
M  V30 1582 C 146.1 -0.228113 2.01513 0
M  V30 1583 C 146.433 -1.48648 1.2497 0
M  V30 1584 O 145.708 -1.91459 0.342616 0
M  V30 1585 C 145.991 -0.522884 3.56284 0
M  V30 1586 C 145.844 0.74892 4.43521 0
M  V30 1587 C 147.163 -1.32461 4.19693 0
M  V30 1588 H 144.282 -0.0814343 0.732487 0
M  V30 1589 H 146.924 0.48713 1.83649 0
M  V30 1590 H 145.074 -1.1322 3.71636 0
M  V30 1591 H 146.746 1.38648 4.39971 0
M  V30 1592 H 144.989 1.36986 4.11603 0
M  V30 1593 H 145.66 0.497667 5.49752 0
M  V30 1594 H 148.136 -0.809203 4.08156 0
M  V30 1595 H 147.012 -1.49961 5.28018 0
M  V30 1596 H 147.273 -2.33232 3.75573 0
M  V30 1597 N 146.332 -1.57332 0.0918853 0
M  V30 1598 C 147.748 -1.57389 -0.264766 0
M  V30 1599 C 147.948 -1.10281 -1.68643 0
M  V30 1600 O 147.004 -0.777801 -2.40222 0
M  V30 1601 C 148.317 -3.00648 -0.0561195 0
M  V30 1602 C 149.865 -3.12754 -0.124116 0
M  V30 1603 C 150.34 -4.57965 0.0564972 0
M  V30 1604 N 151.831 -4.632 0.00155611 0
M  V30 1605 C 152.566 -5.73281 0.116598 0
M  V30 1606 N 152.062 -6.92208 0.286294 0
M  V30 1607 N 153.855 -5.6207 0.0580973 0
M  V30 1608 H 146.006 -1.86262 1.02079 0
M  V30 1609 H 148.269 -0.859579 0.399786 0
M  V30 1610 H 147.975 -3.393 0.925669 0
M  V30 1611 H 147.849 -3.68623 -0.799823 0
M  V30 1612 H 150.236 -2.73976 -1.09641 0
M  V30 1613 H 150.317 -2.47377 0.651024 0
M  V30 1614 H 149.961 -4.97436 1.02564 0
M  V30 1615 H 149.891 -5.21399 -0.738297 0
M  V30 1616 H 152.382 -3.77686 -0.127192 0
M  V30 1617 H 152.695 -7.71934 0.365676 0
M  V30 1618 H 151.04 -6.94254 0.32192 0
M  V30 1619 H 154.231 -4.68043 -0.0733204 0
M  V30 1620 H 154.404 -6.47824 0.151203 0
M  V30 1621 N 147.81 0.181792 -1.56548 0
M  V30 1622 C 148.742 1.24956 -1.92142 0
M  V30 1623 C 149.755 1.41022 -0.813422 0
M  V30 1624 O 150.944 1.41212 -1.09186 0
M  V30 1625 C 148.044 2.61981 -2.14987 0
M  V30 1626 C 147.217 2.6735 -3.46183 0
M  V30 1627 C 146.276 3.85664 -3.5798 0
M  V30 1628 O 145.302 3.72148 -4.30691 0
M  V30 1629 N 146.504 5.01683 -2.92053 0
M  V30 1630 H 149.269 0.947329 -2.84334 0
M  V30 1631 H 146.83 0.371629 -1.57577 0
M  V30 1632 H 148.822 3.3958 -2.20154 0
M  V30 1633 H 147.392 2.84637 -1.2923 0
M  V30 1634 H 146.612 1.75925 -3.52766 0
M  V30 1635 H 147.9 2.67939 -4.32534 0
M  V30 1636 H 147.298 5.15564 -2.32832 0
M  V30 1637 H 145.855 5.77181 -3.0283 0
M  V30 1638 N 149.288 1.51039 0.449983 0
M  V30 1639 C 150.536 1.62759 1.19808 0
M  V30 1640 C 150.857 0.339981 1.92013 0
M  V30 1641 O 150.127 -0.643606 1.85026 0
M  V30 1642 H 148.707 0.599811 0.445237 0
M  V30 1643 H 151.369 1.87914 0.517138 0
M  V30 1644 H 150.465 2.44911 1.93455 0
M  V30 1645 N 150.766 -0.704594 1.40972 0
M  V30 1646 C 152.043 -1.45847 1.30338 0
M  V30 1647 C 152.423 -2.10973 -0.0732344 0
M  V30 1648 O 151.771 -2.00997 -1.08685 0
M  V30 1649 C 151.981 -2.48525 2.45023 0
M  V30 1650 C 153.329 -3.1404 2.8577 0
M  V30 1651 O 154.353 -2.58848 2.44696 0
M  V30 1652 O 153.212 -4.13981 3.56766 0
M  V30 1653 H 150.306 -0.649092 0.512454 0
M  V30 1654 H 152.852 -0.735836 1.52917 0
M  V30 1655 H 151.624 -1.98994 3.36923 0
M  V30 1656 H 151.247 -3.2831 2.24272 0
M  V30 1657 N 152.244 -1.26651 -0.937939 0
M  V30 1658 C 153.521 -1.0313 -1.66204 0
M  V30 1659 C 153.901 0.437256 -2.06522 0
M  V30 1660 O 153.249 1.41831 -1.79154 0
M  V30 1661 C 153.459 -1.98314 -2.87181 0
M  V30 1662 C 154.807 -2.27107 -3.58758 0
M  V30 1663 O 155.831 -1.96205 -2.97291 0
M  V30 1664 O 154.69 -2.79736 -4.69479 0
M  V30 1665 H 151.784 -0.392384 -0.727986 0
M  V30 1666 H 154.33 -1.37874 -0.989382 0
M  V30 1667 H 153.102 -2.97399 -2.54302 0
M  V30 1668 H 152.725 -1.64068 -3.6217 0
M  V30 1669 N 153.722 1.14298 -1.08507 0
M  V30 1670 C 154.969 1.85359 -0.815373 0
M  V30 1671 C 155.297 1.83001 0.658865 0
M  V30 1672 O 154.552 1.25655 1.50031 0
M  V30 1673 C 154.851 3.33547 -1.28379 0
M  V30 1674 C 154.517 3.56093 -2.76602 0
M  V30 1675 C 153.179 3.61955 -3.17084 0
M  V30 1676 C 155.531 3.64834 -3.72217 0
M  V30 1677 C 152.859 3.74082 -4.51973 0
M  V30 1678 C 155.211 3.78487 -5.06883 0
M  V30 1679 C 153.875 3.82598 -5.46969 0
M  V30 1680 H 153.145 0.678276 -0.298366 0
M  V30 1681 H 155.792 1.35002 -1.35819 0
M  V30 1682 H 154.097 3.86191 -0.660593 0
M  V30 1683 H 155.794 3.86959 -1.05186 0
M  V30 1684 H 152.384 3.52179 -2.4427 0
M  V30 1685 H 156.568 3.59595 -3.42061 0
M  V30 1686 H 151.824 3.75527 -4.82483 0
M  V30 1687 H 155.998 3.84193 -5.80834 0
M  V30 1688 H 153.625 3.91747 -6.51489 0
M  V30 1689 N 155.201 0.870884 1.31352 0
M  V30 1690 C 156.148 0.325425 2.28494 0
M  V30 1691 C 157.118 -0.576615 1.5577 0
M  V30 1692 O 158.303 -0.508059 1.83911 0
M  V30 1693 C 155.443 -0.466283 3.41935 0
M  V30 1694 C 154.556 0.463378 4.29508 0
M  V30 1695 C 153.691 -0.342544 5.30094 0
M  V30 1696 C 152.73 0.583486 6.09313 0
M  V30 1697 N 151.867 -0.186244 7.01853 0
M  V30 1698 H 156.707 1.15901 2.74538 0
M  V30 1699 H 154.244 0.58294 1.35056 0
M  V30 1700 H 156.202 -0.941085 4.06447 0
M  V30 1701 H 154.832 -1.26456 2.97 0
M  V30 1702 H 153.884 1.05663 3.65431 0
M  V30 1703 H 155.196 1.1734 4.84802 0
M  V30 1704 H 154.35 -0.879816 6.00287 0
M  V30 1705 H 153.089 -1.08585 4.75458 0
M  V30 1706 H 152.094 1.13251 5.3801 0
M  V30 1707 H 153.319 1.32566 6.66035 0
M  V30 1708 H 151.265 -0.912348 6.49625 0
M  V30 1709 H 151.182 0.464422 7.54572 0
M  V30 1710 H 152.45 -0.704716 7.76308 0
M  V30 1711 N 156.679 -1.44442 0.630414 0
M  V30 1712 C 157.927 -2.01653 0.134351 0
M  V30 1713 C 158.248 -1.49836 -1.24796 0
M  V30 1714 O 157.518 -0.701684 -1.82902 0
M  V30 1715 H 156.098 -0.74554 0.0466769 0
M  V30 1716 H 158.76 -1.76952 0.816955 0
M  V30 1717 H 157.856 -3.11935 0.101498 0
M  V30 1718 N 158.157 -0.370918 -1.53173 0
M  V30 1719 C 159.573 -0.0200818 -1.59587 0
M  V30 1720 C 159.773 1.46279 -1.38581 0
M  V30 1721 O 158.829 2.22506 -1.19363 0
M  V30 1722 C 160.142 -0.4808 -2.96831 0
M  V30 1723 C 161.69 -0.435477 -3.09956 0
M  V30 1724 C 162.165 -0.872092 -4.4962 0
M  V30 1725 N 163.656 -0.827364 -4.55751 0
M  V30 1726 C 164.391 -1.13683 -5.62018 0
M  V30 1727 N 163.887 -1.51584 -6.76014 0
M  V30 1728 N 165.68 -1.05927 -5.52029 0
M  V30 1729 H 157.831 -1.33652 -1.65079 0
M  V30 1730 H 160.094 -0.546634 -0.774529 0
M  V30 1731 H 159.8 -1.51577 -3.1736 0
M  V30 1732 H 159.674 0.129796 -3.76977 0
M  V30 1733 H 162.061 0.590371 -2.89134 0
M  V30 1734 H 162.142 -1.08164 -2.31806 0
M  V30 1735 H 161.786 -1.89608 -4.71181 0
M  V30 1736 H 161.716 -0.203127 -5.26208 0
M  V30 1737 H 164.207 -0.548216 -3.73902 0
M  V30 1738 H 164.52 -1.73609 -7.53047 0
M  V30 1739 H 162.865 -1.55454 -6.77391 0
M  V30 1740 H 166.056 -0.762321 -4.61851 0
M  V30 1741 H 166.229 -1.30378 -6.34749 0
M  V30 1742 N 159.635 1.57281 -0.100228 0
M  V30 1743 C 161.046 1.81725 0.428107 0
M  V30 1744 C 161.397 1.01619 1.67833 0
M  V30 1745 O 160.522 0.247098 2.14985 0
M  V30 1746 C 161.117 3.29617 0.78347 0
M  V30 1747 C 159.676 3.54808 1.25653 0
M  V30 1748 C 158.823 2.76118 0.255752 0
M  V30 1749 H 161.774 1.55324 -0.325608 0
M  V30 1750 H 161.795 3.4322 1.64256 0
M  V30 1751 H 161.307 3.87893 -0.12665 0
M  V30 1752 H 159.408 3.01868 2.18418 0
M  V30 1753 H 159.521 4.63443 1.21482 0
M  V30 1754 H 157.885 2.43745 0.738956 0
M  V30 1755 H 158.668 3.37145 -0.647136 0
M  V30 1756 N 161.113 -0.173488 1.56642 0
M  V30 1757 C 162.39 -0.917617 1.7274 0
M  V30 1758 C 162.77 -2.00484 0.661027 0
M  V30 1759 O 162.118 -2.26184 -0.32453 0
M  V30 1760 C 162.328 -1.48433 3.15862 0
M  V30 1761 C 163.676 -1.95809 3.76754 0
M  V30 1762 O 164.7 -1.58231 3.19126 0
M  V30 1763 O 163.559 -2.65024 4.77938 0
M  V30 1764 H 160.653 -0.431772 0.705338 0
M  V30 1765 H 163.199 -0.161487 1.6893 0
M  V30 1766 H 161.971 -0.701715 3.84957 0
M  V30 1767 H 161.594 -2.30471 3.23989 0
M  V30 1768 N 162.591 -1.51276 -0.441967 0
M  V30 1769 C 163.521 -1.752 -1.54361 0
M  V30 1770 C 164.502 -0.601682 -1.59103 0
M  V30 1771 O 165.687 -0.843913 -1.74905 0
M  V30 1772 C 162.817 -1.87282 -2.92477 0
M  V30 1773 C 161.771 -3.02687 -3.02596 0
M  V30 1774 C 161.097 -2.99947 -4.42647 0
M  V30 1775 C 162.397 -4.4273 -2.77106 0
M  V30 1776 H 164.091 -2.67442 -1.34592 0
M  V30 1777 H 161.637 -1.28694 -0.646048 0
M  V30 1778 H 163.59 -2.02602 -3.695 0
M  V30 1779 H 162.314 -0.916844 -3.13467 0
M  V30 1780 H 160.973 -2.87065 -2.28012 0
M  V30 1781 H 160.621 -2.02136 -4.60597 0
M  V30 1782 H 160.321 -3.77439 -4.50348 0
M  V30 1783 H 161.845 -3.17354 -5.2165 0
M  V30 1784 H 163.259 -4.58727 -3.43864 0
M  V30 1785 H 161.656 -5.21893 -2.96222 0
M  V30 1786 H 162.726 -4.53087 -1.72744 0
M  V30 1787 N 164.069 0.697108 -1.41344 0
M  V30 1788 C 165.299 1.48377 -1.43763 0
M  V30 1789 C 165.707 1.89156 -0.0408726 0
M  V30 1790 O 165.05 1.57239 0.949812 0
M  V30 1791 C 165.112 2.7781 -2.2817 0
M  V30 1792 C 164.776 2.59244 -3.76353 0
M  V30 1793 C 165.773 2.25292 -4.68551 0
M  V30 1794 C 163.458 2.74933 -4.20378 0
M  V30 1795 C 165.452 2.07264 -6.02761 0
M  V30 1796 C 163.139 2.56521 -5.54653 0
M  V30 1797 C 164.137 2.22737 -6.4566 0
M  V30 1798 O 163.825 2.04485 -7.77458 0
M  V30 1799 H 163.557 0.463842 -0.491759 0
M  V30 1800 H 166.111 0.865934 -1.86255 0
M  V30 1801 H 164.341 3.41995 -1.8049 0
M  V30 1802 H 166.03 3.39608 -2.22309 0
M  V30 1803 H 166.796 2.12787 -4.35829 0
M  V30 1804 H 162.675 3.00213 -3.49848 0
M  V30 1805 H 166.219 1.80817 -6.73759 0
M  V30 1806 H 162.116 2.68616 -5.86955 0
M  V30 1807 H 162.884 2.1926 -7.88586 0
M  V30 1808 N 165.547 1.27147 0.931209 0
M  V30 1809 C 166.775 1.16082 1.71267 0
M  V30 1810 C 167.19 -0.282772 1.8667 0
M  V30 1811 O 166.547 -1.19283 1.38122 0
M  V30 1812 C 166.598 1.8358 3.11417 0
M  V30 1813 O 166.319 3.22299 2.96741 0
M  V30 1814 C 167.82 1.78597 4.05732 0
M  V30 1815 H 165.04 0.403758 0.535929 0
M  V30 1816 H 167.584 1.67953 1.16671 0
M  V30 1817 H 165.739 1.35623 3.62885 0
M  V30 1818 H 166.153 3.55851 3.85319 0
M  V30 1819 H 167.627 2.30444 5.01597 0
M  V30 1820 H 168.104 0.754564 4.3267 0
M  V30 1821 H 168.71 2.26152 3.60188 0
M  V30 1822 N 167.025 -1.13721 1.09112 0
M  V30 1823 C 168.25 -1.89314 0.847053 0
M  V30 1824 C 168.675 -1.78416 -0.595774 0
M  V30 1825 O 168.033 -1.12942 -1.41823 0
M  V30 1826 C 168.081 -3.3701 1.28284 0
M  V30 1827 O 167.185 -4.10054 0.439267 0
M  V30 1828 H 166.526 -0.588745 0.307044 0
M  V30 1829 H 169.056 -1.43902 1.45442 0
M  V30 1830 H 169.066 -3.87834 1.26683 0
M  V30 1831 H 167.741 -3.4426 2.33363 0
M  V30 1832 H 166.318 -3.69266 0.519312 0
M  V30 1833 N 168.503 -0.877838 -1.30888 0
M  V30 1834 C 169.731 -0.507414 -2.00581 0
M  V30 1835 C 170.146 0.902216 -1.65848 0
M  V30 1836 O 169.503 1.59225 -0.891831 0
M  V30 1837 C 169.554 -0.664162 -3.55347 0
M  V30 1838 O 169.275 -2.01829 -3.8884 0
M  V30 1839 C 170.776 -0.295787 -4.42312 0
M  V30 1840 H 167.996 -0.196866 -0.641471 0
M  V30 1841 H 170.54 -1.18117 -1.66939 0
M  V30 1842 H 168.695 -0.0378619 -3.87381 0
M  V30 1843 H 169.109 -2.03174 -4.8355 0
M  V30 1844 H 170.583 -0.456388 -5.5011 0
M  V30 1845 H 171.06 0.765663 -4.32475 0
M  V30 1846 H 171.666 -0.898113 -4.15709 0
M  V30 1847 N 169.982 1.44106 -0.638065 0
M  V30 1848 C 170.912 2.33448 0.0494287 0
M  V30 1849 C 171.893 1.48606 0.827672 0
M  V30 1850 O 173.078 1.77308 0.792173 0
M  V30 1851 C 170.208 3.31771 1.02691 0
M  V30 1852 C 169.162 4.26485 0.359823 0
M  V30 1853 C 168.488 5.14729 1.44769 0
M  V30 1854 C 169.788 5.17056 -0.738296 0
M  V30 1855 H 171.482 2.91183 -0.696636 0
M  V30 1856 H 169.028 1.40014 -0.336456 0
M  V30 1857 H 170.981 3.93161 1.51666 0
M  V30 1858 H 169.705 2.7226 1.80395 0
M  V30 1859 H 168.364 3.66437 -0.10934 0
M  V30 1860 H 168.012 4.51566 2.21578 0
M  V30 1861 H 167.712 5.78913 1.00668 0
M  V30 1862 H 169.236 5.78991 1.93911 0
M  V30 1863 H 170.65 5.72342 -0.331354 0
M  V30 1864 H 169.047 5.89879 -1.10286 0
M  V30 1865 H 170.117 4.57652 -1.60258 0
M  V30 1866 N 171.46 0.379036 1.52974 0
M  V30 1867 C 172.709 -0.207612 2.00629 0
M  V30 1868 C 173.022 -1.48758 1.27006 0
M  V30 1869 O 174.228 -2.15365 1.65318 0
M  V30 1870 C 172.684 -0.42053 3.57435 0
M  V30 1871 C 172.292 0.845587 4.39948 0
M  V30 1872 C 174.036 -0.964102 4.13407 0
M  V30 1873 C 171.943 0.601513 5.88333 0
M  V30 1874 H 170.873 -0.0813591 0.749598 0
M  V30 1875 H 173.524 0.499853 1.76561 0
M  V30 1876 H 171.906 -1.18959 3.7771 0
M  V30 1877 H 173.08 1.61848 4.31442 0
M  V30 1878 H 171.395 1.31336 3.95145 0
M  V30 1879 H 173.992 -1.16225 5.21916 0
M  V30 1880 H 174.335 -1.93019 3.68849 0
M  V30 1881 H 174.868 -0.25487 3.96983 0
M  V30 1882 H 171.607 1.53831 6.37194 0
M  V30 1883 H 171.127 -0.132628 5.99653 0
M  V30 1884 H 172.806 0.232134 6.46583 0
M  V30 1885 N 172.938 -1.57226 0.108567 0
M  V30 1886 C 174.166 -1.99179 -0.559954 0
M  V30 1887 C 174.581 -0.988022 -1.60884 0
M  V30 1888 O 173.938 0.0205512 -1.82488 0
M  V30 1889 C 173.989 -3.41159 -1.19552 0
M  V30 1890 O 173.71 -4.37694 -0.188577 0
M  V30 1891 C 175.211 -3.98188 -1.94837 0
M  V30 1892 H 172.431 -0.654228 -0.149088 0
M  V30 1893 H 174.975 -2.03598 0.19183 0
M  V30 1894 H 173.13 -3.37711 -1.89815 0
M  V30 1895 H 173.544 -5.20469 -0.649014 0
M  V30 1896 H 175.018 -4.99644 -2.34648 0
M  V30 1897 H 175.495 -3.3675 -2.81951 0
M  V30 1898 H 176.101 -4.0515 -1.2936 0
M  V30 1899 N 174.416 0.165178 -1.56732 0
M  V30 1900 C 175.693 0.908443 -1.73224 0
M  V30 1901 C 176.073 2.0013 -0.67165 0
M  V30 1902 O 175.421 2.26353 0.31253 0
M  V30 1903 C 175.631 1.46756 -3.16644 0
M  V30 1904 C 176.979 1.93809 -3.77787 0
M  V30 1905 O 178.003 1.56537 -3.1996 0
M  V30 1906 O 176.862 2.62486 -4.79336 0
M  V30 1907 H 173.956 0.428025 -0.707618 0
M  V30 1908 H 176.502 0.152526 -1.69013 0
M  V30 1909 H 175.274 0.68129 -3.85323 0
M  V30 1910 H 174.897 2.28749 -3.25207 0
M  V30 1911 N 175.894 1.51508 0.433938 0
M  V30 1912 C 177.142 1.6402 1.18075 0
M  V30 1913 C 177.463 0.360328 1.91642 0
M  V30 1914 O 176.733 -0.623945 1.85698 0
M  V30 1915 H 175.313 0.6045 0.43885 0
M  V30 1916 H 177.975 1.88452 0.497178 0
M  V30 1917 H 177.071 2.46949 1.90847 0
M  V30 1918 N 177.372 -0.689602 1.41712 0
M  V30 1919 C 178.304 -1.815 1.39966 0
M  V30 1920 C 179.317 -1.59995 0.300917 0
M  V30 1921 O 180.506 -1.69387 0.563039 0
M  V30 1922 C 177.606 -3.18364 1.16179 0
M  V30 1923 C 176.779 -3.66847 2.38206 0
M  V30 1924 C 175.838 -4.82398 2.10186 0
M  V30 1925 O 174.864 -4.93706 2.83272 0
M  V30 1926 N 176.066 -5.70064 1.0958 0
M  V30 1927 H 178.831 -1.83488 2.36965 0
M  V30 1928 H 176.392 -0.872149 1.36401 0
M  V30 1929 H 178.384 -3.93301 0.953756 0
M  V30 1930 H 176.954 -3.11365 0.27756 0
M  V30 1931 H 176.174 -2.82751 2.74673 0
M  V30 1932 H 177.462 -3.95978 3.19498 0
M  V30 1933 H 176.86 -5.63565 0.491019 0
M  V30 1934 H 175.417 -6.44874 0.947656 0
M  V30 1935 N 178.85 -1.27639 -0.924453 0
M  V30 1936 C 180.075 -1.17101 -1.71179 0
M  V30 1937 C 180.5 0.268134 -1.86179 0
M  V30 1938 O 179.858 1.19415 -1.36418 0
M  V30 1939 C 179.906 -1.86313 -3.08739 0
M  V30 1940 O 179.01 -1.16331 -3.95652 0
M  V30 1941 H 178.351 -0.407091 -0.524569 0
M  V30 1942 H 180.881 -1.68767 -1.15666 0
M  V30 1943 H 180.891 -1.938 -3.59034 0
M  V30 1944 H 179.566 -2.91001 -2.97138 0
M  V30 1945 H 178.143 -1.16935 -3.54091 0
M  V30 1946 N 180.328 1.1314 -1.09713 0
M  V30 1947 C 181.258 2.20748 -0.761102 0
M  V30 1948 C 182.239 1.68061 0.262566 0
M  V30 1949 O 183.424 1.93765 0.129977 0
M  V30 1950 C 180.554 3.46812 -0.184054 0
M  V30 1951 C 179.508 4.12606 -1.13757 0
M  V30 1952 C 178.834 5.33031 -0.422083 0
M  V30 1953 C 180.134 4.59603 -2.48118 0
M  V30 1954 H 181.828 2.49113 -1.66082 0
M  V30 1955 H 179.374 1.19734 -0.799987 0
M  V30 1956 H 181.327 4.21353 0.0631215 0
M  V30 1957 H 180.051 3.17851 0.750868 0
M  V30 1958 H 178.71 3.40036 -1.37007 0
M  V30 1959 H 178.358 5.00335 0.517072 0
M  V30 1960 H 178.058 5.77999 -1.05788 0
M  V30 1961 H 179.582 6.10325 -0.183277 0
M  V30 1962 H 180.996 5.25552 -2.29059 0
M  V30 1963 H 179.393 5.15321 -3.07514 0
M  V30 1964 H 180.463 3.73971 -3.08665 0
M  V30 1965 N 181.806 0.884767 1.30421 0
M  V30 1966 C 183.034 0.518044 2.0031 0
M  V30 1967 C 183.449 -0.893408 1.66324 0
M  V30 1968 O 182.806 -1.5875 0.900262 0
M  V30 1969 C 182.857 0.682997 3.54989 0
M  V30 1970 O 182.578 2.03888 3.87764 0
M  V30 1971 C 184.079 0.31924 4.42149 0
M  V30 1972 H 181.299 0.200265 0.640418 0
M  V30 1973 H 183.843 1.19001 1.6631 0
M  V30 1974 H 181.998 0.0584052 3.87356 0
M  V30 1975 H 182.412 2.05735 4.82466 0
M  V30 1976 H 183.886 0.485555 5.4986 0
M  V30 1977 H 184.363 -0.742717 4.32875 0
M  V30 1978 H 184.969 0.920147 4.15227 0
M  V30 1979 N 183.284 -1.43765 0.645699 0
M  V30 1980 C 184.531 -2.01898 0.15604 0
M  V30 1981 C 184.859 -1.50887 -1.22733 0
M  V30 1982 O 184.114 -0.689271 -1.8316 0
M  V30 1983 C 184.413 -3.57238 0.107679 0
M  V30 1984 C 184.079 -4.27564 1.43178 0
M  V30 1985 C 182.741 -4.46492 1.7944 0
M  V30 1986 C 185.093 -4.67454 2.30513 0
M  V30 1987 C 182.421 -5.02573 3.02716 0
M  V30 1988 C 184.773 -5.24901 3.53074 0
M  V30 1989 C 183.437 -5.42046 3.89541 0
M  V30 1990 H 182.707 -0.738797 0.057099 0
M  V30 1991 H 185.354 -1.72341 0.834912 0
M  V30 1992 H 183.659 -3.86293 -0.654618 0
M  V30 1993 H 185.356 -3.99965 -0.287938 0
M  V30 1994 H 181.946 -4.13171 1.13963 0
M  V30 1995 H 186.13 -4.5253 2.0379 0
M  V30 1996 H 181.386 -5.14033 3.31028 0
M  V30 1997 H 185.56 -5.54758 4.20971 0
M  V30 1998 H 183.187 -5.85268 4.85145 0
M  V30 1999 N 184.763 -0.387143 -1.52771 0
M  V30 2000 C 185.988 0.198407 -2.06449 0
M  V30 2001 C 186.413 1.39918 -1.25716 0
M  V30 2002 O 185.771 1.79099 -0.281657 0
M  V30 2003 C 185.819 0.548893 -3.56398 0
M  V30 2004 O 184.923 1.64315 -3.78252 0
M  V30 2005 H 184.264 0.0237731 -0.663574 0
M  V30 2006 H 186.794 -0.553989 -1.96957 0
M  V30 2007 H 186.804 0.813812 -3.99801 0
M  V30 2008 H 185.479 -0.329005 -4.14597 0
M  V30 2009 H 184.056 1.37211 -3.46738 0
M  V30 2010 N 186.241 1.57166 -0.116904 0
M  V30 2011 C 187.469 1.99473 0.549383 0
M  V30 2012 C 187.884 0.996541 1.60357 0
M  V30 2013 O 187.241 -0.0108731 1.82497 0
M  V30 2014 C 187.292 3.41788 1.17741 0
M  V30 2015 O 187.013 4.37788 0.165362 0
M  V30 2016 C 188.514 3.99216 1.92722 0
M  V30 2017 H 185.734 0.655009 0.145616 0
M  V30 2018 H 188.278 2.03494 -0.202625 0
M  V30 2019 H 186.433 3.38713 1.88021 0
M  V30 2020 H 186.847 5.20806 0.621403 0
M  V30 2021 H 188.321 5.00882 2.31995 0
M  V30 2022 H 188.798 3.3824 2.80161 0
M  V30 2023 H 189.404 4.0583 1.27209 0
M  V30 2024 N 187.719 -0.156864 1.56817 0
M  V30 2025 C 188.996 -0.899244 1.73704 0
M  V30 2026 C 189.376 -1.99771 0.682254 0
M  V30 2027 O 188.724 -2.26515 -0.300522 0
M  V30 2028 C 188.934 -1.45075 3.17418 0
M  V30 2029 C 190.282 -1.91802 3.7881 0
M  V30 2030 O 191.306 -1.54838 3.20786 0
M  V30 2031 O 190.165 -2.5994 4.80722 0
M  V30 2032 H 187.259 -0.424267 0.709878 0
M  V30 2033 H 189.805 -0.143561 1.69092 0
M  V30 2034 H 188.577 -0.660846 3.85679 0
M  V30 2035 H 188.2 -2.27021 3.26416 0
M  V30 2036 N 189.197 -1.51736 -0.425897 0
M  V30 2037 C 190.422 -1.69082 -1.20108 0
M  V30 2038 C 190.847 -0.392398 -1.83962 0
M  V30 2039 O 190.205 0.64858 -1.69302 0
M  V30 2040 C 190.253 -2.81604 -2.25237 0
M  V30 2041 O 189.357 -2.46004 -3.30992 0
M  V30 2042 H 188.698 -0.563408 -0.35138 0
M  V30 2043 H 191.228 -1.98358 -0.501512 0
M  V30 2044 H 191.238 -3.06025 -2.69838 0
M  V30 2045 H 189.913 -3.75817 -1.78142 0
M  V30 2046 H 188.49 -2.32195 -2.91787 0
M  V30 2047 N 190.675 0.682077 -1.42076 0
M  V30 2048 C 191.923 1.4393 -1.41876 0
M  V30 2049 C 192.244 1.94971 -0.0335599 0
M  V30 2050 O 191.514 1.72591 0.926773 0
M  V30 2051 H 190.094 0.534085 -0.522267 0
M  V30 2052 H 192.756 0.806427 -1.77434 0
M  V30 2053 H 191.852 2.29588 -2.11414 0
M  V30 2054 N 192.153 1.28127 0.917671 0
M  V30 2055 C 193.564 1.13622 1.48145 0
M  V30 2056 C 193.915 -0.275207 1.9426 0
M  V30 2057 O 193.04 -1.1691 1.82102 0
M  V30 2058 C 193.635 2.05648 2.69248 0
M  V30 2059 C 192.194 1.95219 3.21818 0
M  V30 2060 C 191.341 1.97618 1.94532 0
M  V30 2061 H 194.292 1.40874 0.730772 0
M  V30 2062 H 194.313 1.61818 3.44377 0
M  V30 2063 H 193.825 3.08365 2.35653 0
M  V30 2064 H 191.926 0.955244 3.60147 0
M  V30 2065 H 192.039 2.81976 3.87333 0
M  V30 2066 H 190.403 1.41973 2.11461 0
M  V30 2067 H 191.186 3.02007 1.63238 0
M  V30 2068 N 193.631 -1.12557 1.10312 0
M  V30 2069 C 194.877 -1.84311 0.846011 0
M  V30 2070 C 195.21 -1.83805 -0.626859 0
M  V30 2071 O 194.485 -1.28268 -1.46211 0
M  V30 2072 C 194.768 -3.32048 1.39341 0
M  V30 2073 C 194.621 -3.41016 2.93305 0
M  V30 2074 C 195.94 -4.27764 1.03468 0
M  V30 2075 H 193.059 -0.669192 0.30879 0
M  V30 2076 H 195.701 -1.32057 1.36605 0
M  V30 2077 H 193.851 -3.76678 0.951087 0
M  V30 2078 H 195.523 -3.05031 3.46055 0
M  V30 2079 H 193.766 -2.81603 3.29973 0
M  V30 2080 H 194.437 -4.44948 3.26689 0
M  V30 2081 H 196.913 -3.91253 1.41633 0
M  V30 2082 H 195.789 -5.29549 1.44463 0
M  V30 2083 H 196.05 -4.42064 -0.0560404 0
M  V30 2084 N 195.109 -0.891671 -1.2995 0
M  V30 2085 C 196.355 -0.523649 -1.96544 0
M  V30 2086 C 196.71 0.918394 -1.69066 0
M  V30 2087 O 196.003 1.64122 -0.988659 0
M  V30 2088 C 196.197 -0.742868 -3.49594 0
M  V30 2089 C 196.026 -2.20467 -3.9195 0
M  V30 2090 C 194.796 -2.85055 -4.17219 0
M  V30 2091 C 196.994 -3.17912 -4.04273 0
M  V30 2092 N 194.976 -4.21762 -4.46083 0
M  V30 2093 C 196.347 -4.39712 -4.37097 0
M  V30 2094 C 198.402 -3.1361 -3.86721 0
M  V30 2095 C 197.105 -5.5776 -4.54199 0
M  V30 2096 C 199.131 -4.30936 -4.05028 0
M  V30 2097 C 198.493 -5.51504 -4.38204 0
M  V30 2098 H 194.592 -0.241072 -0.743914 0
M  V30 2099 H 197.176 -1.15081 -1.5705 0
M  V30 2100 H 195.347 -0.14515 -3.88129 0
M  V30 2101 H 197.079 -0.341081 -4.0326 0
M  V30 2102 H 193.834 -2.35889 -4.10674 0
M  V30 2103 H 194.258 -4.92382 -4.64638 0
M  V30 2104 H 198.9 -2.21489 -3.60142 0
M  V30 2105 H 196.618 -6.50379 -4.79618 0
M  V30 2106 H 200.204 -4.29085 -3.92909 0
M  V30 2107 H 199.084 -6.40778 -4.52077 0
M  V30 2108 N 196.587 1.43421 -0.653314 0
M  V30 2109 C 197.55 2.29182 0.0287951 0
M  V30 2110 C 198.55 1.42213 0.750465 0
M  V30 2111 O 199.74 1.63843 0.591701 0
M  V30 2112 C 196.872 3.24278 1.05151 0
M  V30 2113 H 198.065 2.90985 -0.725786 0
M  V30 2114 H 195.618 1.50702 -0.414545 0
M  V30 2115 H 196.353 2.6737 1.83532 0
M  V30 2116 H 196.138 3.88396 0.537687 0
M  V30 2117 H 197.628 3.88647 1.52786 0
M  V30 2118 N 198.065 0.39524 1.52563 0
M  V30 2119 C 199.028 -0.425001 2.25225 0
M  V30 2120 C 200.028 -0.985266 1.27079 0
M  V30 2121 O 201.218 -0.866332 1.5113 0
M  V30 2122 C 198.35 -1.59686 3.01186 0
M  V30 2123 H 199.543 0.211233 2.99155 0
M  V30 2124 H 197.096 0.147472 1.55603 0
M  V30 2125 H 197.831 -2.27035 2.31572 0
M  V30 2126 H 197.616 -1.20176 3.73229 0
M  V30 2127 H 199.106 -2.17743 3.5634 0
M  V30 2128 N 199.544 -1.57102 0.125237 0
M  V30 2129 C 200.96 -1.57915 -0.231322 0
M  V30 2130 C 201.16 -1.13833 -1.66266 0
M  V30 2131 O 200.216 -0.828581 -2.38518 0
M  V30 2132 C 201.529 -3.00699 0.00766489 0
M  V30 2133 C 203.077 -3.12947 -0.0577483 0
M  V30 2134 C 203.552 -4.57742 0.153626 0
M  V30 2135 N 205.043 -4.63092 0.0998073 0
M  V30 2136 C 205.778 -5.72905 0.238174 0
M  V30 2137 N 205.274 -6.91445 0.433057 0
M  V30 2138 N 207.067 -5.6182 0.177308 0
M  V30 2139 H 199.218 -1.84055 1.06007 0
M  V30 2140 H 201.481 -0.850905 0.417929 0
M  V30 2141 H 201.187 -3.3726 0.997431 0
M  V30 2142 H 201.061 -3.70236 -0.721452 0
M  V30 2143 H 203.448 -2.7624 -1.03804 0
M  V30 2144 H 203.529 -2.4594 0.70335 0
M  V30 2145 H 203.173 -4.95149 1.13092 0
M  V30 2146 H 203.103 -5.22848 -0.627534 0
M  V30 2147 H 205.594 -3.77871 -0.047051 0
M  V30 2148 H 205.907 -7.70985 0.529332 0
M  V30 2149 H 204.252 -6.93415 0.469109 0
M  V30 2150 H 207.443 -4.68093 0.0259748 0
M  V30 2151 H 207.616 -6.47357 0.288582 0
M  V30 2152 N 201.022 0.148545 -1.56898 0
M  V30 2153 C 202.438 0.501131 -1.51528 0
M  V30 2154 C 202.638 1.83458 -0.833399 0
M  V30 2155 O 201.694 2.49259 -0.40328 0
M  V30 2156 C 203.007 0.512864 -2.96294 0
M  V30 2157 C 204.555 0.598487 -3.07225 0
M  V30 2158 C 205.03 0.640897 -4.53494 0
M  V30 2159 N 206.521 0.703163 -4.57832 0
M  V30 2160 C 207.256 0.756935 -5.68382 0
M  V30 2161 N 206.752 0.770147 -6.88506 0
M  V30 2162 N 208.545 0.797698 -5.56411 0
M  V30 2163 H 200.696 -0.725532 -1.99624 0
M  V30 2164 H 202.959 -0.264358 -0.910395 0
M  V30 2165 H 202.665 -0.398691 -3.49433 0
M  V30 2166 H 202.539 1.35133 -3.52163 0
M  V30 2167 H 204.926 1.50046 -2.54106 0
M  V30 2168 H 205.007 -0.267093 -2.54402 0
M  V30 2169 H 204.651 -0.256915 -5.0725 0
M  V30 2170 H 204.581 1.52295 -5.04097 0
M  V30 2171 H 207.072 0.700314 -3.71354 0
M  V30 2172 H 207.385 0.812983 -7.68512 0
M  V30 2173 H 205.73 0.738049 -6.9107 0
M  V30 2174 H 208.921 0.784535 -4.61479 0
M  V30 2175 H 209.094 0.83614 -6.42583 0
M  V30 2176 N 202.5 1.5196 0.417844 0
M  V30 2177 C 203.916 1.40569 0.755816 0
M  V30 2178 C 204.116 0.503316 1.95113 0
M  V30 2179 O 203.172 -0.0341925 2.52477 0
M  V30 2180 C 204.485 2.82947 1.01791 0
M  V30 2181 C 206.033 2.92231 1.12116 0
M  V30 2182 C 206.508 4.35559 1.41608 0
M  V30 2183 N 207.999 4.38753 1.48491 0
M  V30 2184 C 208.734 5.46705 1.7292 0
M  V30 2185 N 208.23 6.64788 1.95011 0
M  V30 2186 N 210.023 5.34209 1.74863 0
M  V30 2187 H 202.174 2.09168 -0.369098 0
M  V30 2188 H 204.437 0.942409 -0.102809 0
M  V30 2189 H 204.143 3.5106 0.212081 0
M  V30 2190 H 204.017 3.23462 1.94042 0
M  V30 2191 H 206.404 2.24304 1.9176 0
M  V30 2192 H 206.485 2.55185 0.177225 0
M  V30 2193 H 206.129 5.04042 0.624848 0
M  V30 2194 H 206.059 4.70133 2.37239 0
M  V30 2195 H 208.55 3.5363 1.33244 0
M  V30 2196 H 208.863 7.42845 2.13076 0
M  V30 2197 H 207.208 6.67869 1.92293 0
M  V30 2198 H 210.399 4.40937 1.57137 0
M  V30 2199 H 210.572 6.18415 1.93563 0
M  V30 2200 N 203.978 -0.674533 1.42435 0
M  V30 2201 C 204.908 -1.80009 1.48724 0
M  V30 2202 C 205.889 -1.6659 0.343793 0
M  V30 2203 O 207.074 -1.86007 0.558137 0
M  V30 2204 C 204.204 -3.18306 1.38919 0
M  V30 2205 C 203.158 -3.46461 2.51294 0
M  V30 2206 C 202.484 -4.84335 2.26547 0
M  V30 2207 C 203.784 -3.43328 3.93603 0
M  V30 2208 H 205.478 -1.75004 2.42928 0
M  V30 2209 H 203.024 -0.840533 1.16923 0
M  V30 2210 H 204.977 -3.9678 1.41927 0
M  V30 2211 H 203.701 -3.2399 0.412094 0
M  V30 2212 H 202.36 -2.70348 2.47604 0
M  V30 2213 H 202.008 -4.86669 1.2713 0
M  V30 2214 H 201.708 -5.04136 3.01861 0
M  V30 2215 H 203.232 -5.65094 2.31304 0
M  V30 2216 H 204.646 -4.11772 3.98894 0
M  V30 2217 H 203.043 -3.74664 4.68771 0
M  V30 2218 H 204.113 -2.41897 4.20255 0
M  V30 2219 N 205.456 -1.28612 -0.910864 0
M  V30 2220 C 206.419 -1.12803 -1.9952 0
M  V30 2221 C 207.419 -0.0668264 -1.60661 0
M  V30 2222 O 208.609 -0.312847 -1.71368 0
M  V30 2223 C 205.741 -0.72254 -3.33155 0
M  V30 2224 H 206.934 -2.09109 -2.14973 0
M  V30 2225 H 204.487 -1.11639 -1.09391 0
M  V30 2226 H 205.222 0.241152 -3.23402 0
M  V30 2227 H 205.007 -1.48916 -3.62721 0
M  V30 2228 H 206.497 -0.634666 -4.12749 0
M  V30 2229 N 206.934 1.1197 -1.10907 0
M  V30 2230 C 207.866 2.17592 -0.720175 0
M  V30 2231 C 208.879 1.60938 0.245495 0
M  V30 2232 O 210.068 1.78476 0.0292245 0
M  V30 2233 C 207.168 3.38873 -0.0427917 0
M  V30 2234 C 206.341 4.25006 -1.03388 0
M  V30 2235 C 205.4 5.24774 -0.387075 0
M  V30 2236 O 204.426 5.59631 -1.03934 0
M  V30 2237 N 205.628 5.74208 0.852407 0
M  V30 2238 H 208.393 2.51567 -1.62893 0
M  V30 2239 H 205.954 1.27439 -0.998543 0
M  V30 2240 H 207.946 4.02703 0.401501 0
M  V30 2241 H 206.516 3.03007 0.768456 0
M  V30 2242 H 205.736 3.57716 -1.65629 0
M  V30 2243 H 207.024 4.79397 -1.70458 0
M  V30 2244 H 206.422 5.48062 1.40161 0
M  V30 2245 H 204.979 6.39901 1.23977 0
M  V30 2246 N 208.412 0.89855 1.29475 0
M  V30 2247 C 209.36 0.365253 2.29714 0
M  V30 2248 C 210.354 -0.534993 1.6073 0
M  V30 2249 O 211.56 -0.417921 1.75081 0
M  V30 2250 H 207.935 0.0994853 0.74539 0
M  V30 2251 H 209.906 1.22406 2.72138 0
M  V30 2252 C 208.655 -0.393159 3.4547 0
M  V30 2253 H 207.978 0.290332 3.98744 0
M  V30 2254 H 209.418 -0.731189 4.17648 0
M  V30 2255 C 207.877 -1.59539 2.9673 0
M  V30 2256 O 208.407 -2.69469 2.97908 0
M  V30 2257 N 206.613 -1.43716 2.52575 0
M  V30 2258 H 206.16 -0.542828 2.51816 0
M  V30 2259 H 206.118 -2.24288 2.20323 0
M  V30 2260 N 209.89 -1.43072 0.660911 0
M  V30 2261 C 210.853 -2.29194 -0.0166406 0
M  V30 2262 C 211.853 -1.42609 -0.742912 0
M  V30 2263 O 213.043 -1.64155 -0.583004 0
M  V30 2264 C 210.175 -3.24831 -1.0343 0
M  V30 2265 H 211.368 -2.90596 0.741208 0
M  V30 2266 H 208.921 -1.5048 0.422532 0
M  V30 2267 H 209.656 -2.68339 -1.82111 0
M  V30 2268 H 209.441 -3.88676 -0.517082 0
M  V30 2269 H 210.931 -3.89451 -1.50723 0
M  V30 2270 N 211.368 -0.403325 -1.52352 0
M  V30 2271 C 212.298 0.416205 -2.29761 0
M  V30 2272 C 213.279 1.05123 -1.33728 0
M  V30 2273 O 214.464 1.06134 -1.62632 0
M  V30 2274 C 211.594 1.53624 -3.11475 0
M  V30 2275 C 210.548 1.02653 -4.15507 0
M  V30 2276 C 209.874 2.23971 -4.85532 0
M  V30 2277 C 211.174 0.08463 -5.22231 0
M  V30 2278 H 212.868 -0.229701 -2.98518 0
M  V30 2279 H 210.414 -0.111913 -1.43564 0
M  V30 2280 H 212.367 2.1165 -3.64393 0
M  V30 2281 H 211.091 2.20994 -2.40477 0
M  V30 2282 H 209.75 0.46871 -3.63591 0
M  V30 2283 H 209.398 2.89883 -4.11068 0
M  V30 2284 H 209.098 1.90521 -5.55856 0
M  V30 2285 H 210.622 2.82614 -5.41259 0
M  V30 2286 H 212.036 0.573509 -5.70424 0
M  V30 2287 H 210.433 -0.160783 -5.99885 0
M  V30 2288 H 211.503 -0.86237 -4.7717 0
M  V30 2289 N 212.846 1.57033 -0.133567 0
M  V30 2290 C 213.794 2.17348 0.828412 0
M  V30 2291 C 214.788 1.12671 1.26498 0
M  V30 2292 O 215.994 1.30947 1.23502 0
M  V30 2293 H 212.369 0.695775 0.285309 0
M  V30 2294 H 214.34 2.96935 0.295372 0
M  V30 2295 C 213.089 2.79893 2.06289 0
M  V30 2296 H 212.412 3.60147 1.73592 0
M  V30 2297 H 213.852 3.25615 2.71572 0
M  V30 2298 C 212.311 1.77713 2.86216 0
M  V30 2299 O 212.841 1.23937 3.82103 0
M  V30 2300 N 211.047 1.47321 2.50489 0
M  V30 2301 H 210.594 1.91243 1.7258 0
M  V30 2302 H 210.552 0.79199 3.04261 0
M  V30 2303 N 214.325 -0.140222 1.56975 0
M  V30 2304 C 215.553 -0.866437 1.87884 0
M  V30 2305 C 215.968 -1.74428 0.722517 0
M  V30 2306 O 215.325 -1.79891 -0.30749 0
M  V30 2307 C 215.376 -1.71753 3.18093 0
M  V30 2308 O 215.097 -0.875056 4.29272 0
M  V30 2309 C 216.598 -2.55074 3.62563 0
M  V30 2310 H 213.818 -0.25019 0.622612 0
M  V30 2311 H 216.362 -0.130977 2.0408 0
M  V30 2312 H 214.517 -2.40598 3.03631 0
M  V30 2313 H 214.931 -1.46002 5.03769 0
M  V30 2314 H 216.405 -3.10356 4.5649 0
M  V30 2315 H 216.882 -3.31434 2.88181 0
M  V30 2316 H 217.488 -1.91509 3.79743 0
M  V30 2317 N 215.803 -1.52179 -0.40978 0
M  V30 2318 C 217.05 -1.66206 -1.15679 0
M  V30 2319 C 217.378 -0.391674 -1.90516 0
M  V30 2320 O 216.633 0.62533 -1.8544 0
M  V30 2321 C 216.932 -2.83428 -2.17723 0
M  V30 2322 C 216.598 -4.21672 -1.59699 0
M  V30 2323 C 215.26 -4.59274 -1.43599 0
M  V30 2324 C 217.612 -5.07825 -1.17317 0
M  V30 2325 C 214.94 -5.80709 -0.836328 0
M  V30 2326 C 217.292 -6.29864 -0.587691 0
M  V30 2327 C 215.956 -6.66216 -0.413818 0
M  V30 2328 H 215.226 -0.608192 -0.423301 0
M  V30 2329 H 217.873 -1.86279 -0.444097 0
M  V30 2330 H 216.178 -2.57687 -2.95135 0
M  V30 2331 H 217.875 -2.91477 -2.75394 0
M  V30 2332 H 214.465 -3.9204 -1.73213 0
M  V30 2333 H 218.649 -4.79359 -1.28565 0
M  V30 2334 H 213.905 -6.07498 -0.689626 0
M  V30 2335 H 218.079 -6.95948 -0.250894 0
M  V30 2336 H 215.706 -7.60182 0.0529471 0
M  V30 2337 N 217.281 0.66697 -1.42791 0
M  V30 2338 C 218.506 1.46004 -1.47301 0
M  V30 2339 C 218.931 1.87894 -0.0880317 0
M  V30 2340 O 218.289 1.56502 0.915253 0
M  V30 2341 C 218.337 2.68031 -2.41229 0
M  V30 2342 O 217.441 3.6659 -1.88906 0
M  V30 2343 H 216.782 0.43832 -0.49877 0
M  V30 2344 H 219.312 0.817391 -1.87563 0
M  V30 2345 H 219.322 3.1601 -2.58073 0
M  V30 2346 H 217.997 2.36883 -3.41847 0
M  V30 2347 H 216.574 3.25661 -1.81656 0
M  V30 2348 N 218.759 1.29093 0.90403 0
M  V30 2349 C 220.008 1.16187 1.64874 0
M  V30 2350 C 220.321 -0.286742 1.93487 0
M  V30 2351 O 221.527 -0.537062 2.66135 0
M  V30 2352 C 219.983 2.03177 2.97064 0
M  V30 2353 C 219.591 3.52836 2.76062 0
M  V30 2354 C 221.335 1.98984 3.74974 0
M  V30 2355 C 219.242 4.31945 4.03952 0
M  V30 2356 H 218.172 0.431246 0.618501 0
M  V30 2357 H 220.823 1.53699 1.00243 0
M  V30 2358 H 219.205 1.5853 3.62883 0
M  V30 2359 H 220.379 4.05507 2.18863 0
M  V30 2360 H 218.694 3.58656 2.11553 0
M  V30 2361 H 221.291 2.55351 4.69787 0
M  V30 2362 H 221.634 0.968815 4.0487 0
M  V30 2363 H 222.167 2.41652 3.15989 0
M  V30 2364 H 218.906 5.34667 3.79225 0
M  V30 2365 H 218.426 3.84045 4.60727 0
M  V30 2366 H 220.105 4.42379 4.72133 0
M  V30 2367 N 220.237 -1.11381 1.11499 0
M  V30 2368 C 221.2 -2.15622 0.777153 0
M  V30 2369 C 222.2 -1.59504 -0.203779 0
M  V30 2370 O 223.39 -1.74188 0.020782 0
M  V30 2371 C 220.522 -3.40556 0.153116 0
M  V30 2372 H 221.715 -2.47021 1.70061 0
M  V30 2373 H 219.268 -1.26577 0.916952 0
M  V30 2374 H 220.003 -3.14767 -0.780536 0
M  V30 2375 H 219.788 -3.8257 0.859238 0
M  V30 2376 H 221.278 -4.17546 -0.0671044 0
M  V30 2377 N 221.715 -0.905404 -1.28997 0
M  V30 2378 C 222.94 -0.549175 -1.99997 0
M  V30 2379 C 223.365 0.860276 -1.67275 0
M  V30 2380 O 222.723 1.57355 -0.900502 0
M  V30 2381 C 222.771 -0.755185 -3.52604 0
M  V30 2382 O 221.875 0.189692 -4.11964 0
M  V30 2383 H 221.216 -0.213899 -0.628604 0
M  V30 2384 H 223.746 -1.21856 -1.64354 0
M  V30 2385 H 223.756 -0.662045 -4.02593 0
M  V30 2386 H 222.431 -1.78271 -3.75755 0
M  V30 2387 H 221.008 0.0485257 -3.72868 0
M  V30 2388 N 223.193 1.4272 -0.668489 0
M  V30 2389 C 224.47 1.95248 -0.117373 0
M  V30 2390 C 224.85 1.60919 1.36632 0
M  V30 2391 O 224.198 0.902095 2.09939 0
M  V30 2392 C 224.408 3.46927 -0.379806 0
M  V30 2393 C 225.756 4.23588 -0.292923 0
M  V30 2394 O 226.78 3.5482 -0.313204 0
M  V30 2395 O 225.639 5.46017 -0.229697 0
M  V30 2396 H 222.733 0.827 0.00079152 0
M  V30 2397 H 225.279 1.52581 -0.742783 0
M  V30 2398 H 224.051 3.65096 -1.40786 0
M  V30 2399 H 223.674 3.96627 0.277923 0
M  V30 2400 N 224.671 0.411399 1.52136 0
M  V30 2401 C 226.082 -0.0576826 1.86611 0
M  V30 2402 C 226.433 -1.44238 1.33003 0
M  V30 2403 O 225.558 -2.05759 0.670228 0
M  V30 2404 C 226.153 -0.111448 3.38617 0
M  V30 2405 C 224.712 -0.52487 3.72723 0
M  V30 2406 C 223.859 0.299176 2.75681 0
M  V30 2407 H 226.81 0.628368 1.4573 0
M  V30 2408 H 226.831 -0.926252 3.69054 0
M  V30 2409 H 226.343 0.896488 3.77604 0
M  V30 2410 H 224.444 -1.53936 3.39315 0
M  V30 2411 H 224.557 -0.267681 4.78352 0
M  V30 2412 H 222.921 -0.238814 2.53578 0
M  V30 2413 H 223.704 1.3055 3.17508 0
M  V30 2414 N 226.149 -1.5696 0.141893 0
M  V30 2415 C 227.112 -2.15316 -0.785587 0
M  V30 2416 C 228.112 -1.09366 -1.1788 0
M  V30 2417 O 229.302 -1.35031 -1.10056 0
M  V30 2418 C 226.434 -2.71211 -2.06537 0
M  V30 2419 H 227.627 -2.98608 -0.278041 0
M  V30 2420 H 225.18 -1.5593 -0.107519 0
M  V30 2421 H 225.915 -1.91571 -2.6167 0
M  V30 2422 H 225.7 -3.4872 -1.79268 0
M  V30 2423 H 227.19 -3.16189 -2.72789 0
M  V30 2424 N 227.627 0.131896 -1.57047 0
M  V30 2425 C 228.852 0.860418 -1.8871 0
M  V30 2426 C 229.277 1.73251 -0.73251 0
M  V30 2427 O 228.635 1.785 0.317429 0
M  V30 2428 C 228.683 1.68047 -3.19049 0
M  V30 2429 O 227.787 2.7862 -3.04047 0
M  V30 2430 H 227.128 0.238743 -0.619595 0
M  V30 2431 H 229.658 0.118169 -2.04258 0
M  V30 2432 H 229.668 2.07238 -3.51449 0
M  V30 2433 H 228.343 1.04018 -4.02682 0
M  V30 2434 H 226.92 2.42726 -2.83088 0
M  V30 2435 N 229.106 1.52395 0.401703 0
M  V30 2436 C 230.331 1.70972 1.17403 0
M  V30 2437 C 230.756 0.421615 1.83314 0
M  V30 2438 O 230.114 -0.621564 1.70312 0
M  V30 2439 C 230.162 2.85151 2.20728 0
M  V30 2440 O 229.266 2.51238 3.27037 0
M  V30 2441 H 228.607 0.568927 0.342372 0
M  V30 2442 H 231.137 1.99131 0.469891 0
M  V30 2443 H 231.147 3.10279 2.64936 0
M  V30 2444 H 229.822 3.78603 1.7214 0
M  V30 2445 H 228.399 2.36808 2.88057 0
M  V30 2446 N 230.584 -0.659388 1.43143 0
M  V30 2447 C 231.809 -1.45221 1.48073 0
M  V30 2448 C 232.234 -1.87845 0.097995 0
M  V30 2449 O 231.592 -1.56985 -0.90694 0
M  V30 2450 C 231.64 -2.66748 2.42647 0
M  V30 2451 O 230.744 -3.65583 1.90848 0
M  V30 2452 H 230.085 -0.435669 0.501088 0
M  V30 2453 H 232.615 -0.807432 1.87994 0
M  V30 2454 H 232.625 -3.14637 2.59745 0
M  V30 2455 H 231.3 -2.35067 3.43098 0
M  V30 2456 H 229.877 -3.24693 1.83381 0
M  V30 2457 N 232.062 -1.29571 -0.897171 0
M  V30 2458 C 233.287 -1.20705 -1.68656 0
M  V30 2459 C 233.712 0.228582 -1.86706 0
M  V30 2460 O 233.07 1.16494 -1.3892 0
M  V30 2461 C 233.118 -1.9282 -3.04717 0
M  V30 2462 O 232.222 -1.24697 -3.93096 0
M  V30 2463 H 231.563 -0.418126 -0.515816 0
M  V30 2464 H 234.093 -1.71183 -1.12061 0
M  V30 2465 H 234.103 -2.01372 -3.54843 0
M  V30 2466 H 232.778 -2.97239 -2.90899 0
M  V30 2467 H 231.355 -1.2442 -3.51531 0
M  V30 2468 N 233.54 1.10788 -1.12088 0
M  V30 2469 C 234.78 1.84297 -0.883974 0
M  V30 2470 C 235.144 1.83036 0.579797 0
M  V30 2471 O 236.345 2.52061 0.933734 0
M  V30 2472 C 234.616 3.27173 -1.43849 0
M  V30 2473 S 236.175 4.17853 -1.33957 0
M  V30 2474 H 232.993 0.635433 -0.318977 0
M  V30 2475 H 235.595 1.33341 -1.4297 0
M  V30 2476 H 234.299 3.25658 -2.49749 0
M  V30 2477 H 233.83 3.83198 -0.890096 0
M  V30 2478 H 235.845 4.95239 -0.308603 0
M  V30 2479 N 235.018 0.912232 1.28515 0
M  V30 2480 C 236.248 0.559604 1.98877 0
M  V30 2481 C 236.656 -0.863113 1.68366 0
M  V30 2482 O 235.999 -1.58304 0.931969 0
M  V30 2483 C 236.061 0.68703 3.52874 0
M  V30 2484 C 235.725 2.07901 4.06972 0
M  V30 2485 C 236.722 3.05157 4.20922 0
M  V30 2486 C 234.407 2.39178 4.417 0
M  V30 2487 C 236.401 4.31806 4.68852 0
M  V30 2488 C 234.088 3.66068 4.89324 0
M  V30 2489 C 235.086 4.62195 5.02856 0
M  V30 2490 O 234.774 5.86829 5.49442 0
M  V30 2491 H 234.506 0.212191 0.641834 0
M  V30 2492 H 237.06 1.22712 1.64715 0
M  V30 2493 H 235.29 -0.0375486 3.86682 0
M  V30 2494 H 236.979 0.341727 4.04459 0
M  V30 2495 H 237.745 2.82311 3.94367 0
M  V30 2496 H 233.624 1.65109 4.30418 0
M  V30 2497 H 237.168 5.06842 4.79329 0
M  V30 2498 H 233.065 3.88739 5.15318 0
M  V30 2499 H 233.833 5.89597 5.6773 0
M  V30 2500 N 236.496 -1.42363 0.676048 0
M  V30 2501 C 237.426 -2.33497 0.0124832 0
M  V30 2502 C 238.407 -1.50748 -0.787981 0
M  V30 2503 O 239.592 -1.79346 -0.744884 0
M  V30 2504 C 236.722 -3.34377 -0.938582 0
M  V30 2505 C 235.676 -4.27289 -0.246622 0
M  V30 2506 C 235.002 -5.18386 -1.31071 0
M  V30 2507 C 236.302 -5.14916 0.875125 0
M  V30 2508 H 237.996 -2.89233 0.773593 0
M  V30 2509 H 235.542 -1.39073 0.37346 0
M  V30 2510 H 237.495 -3.97044 -1.41188 0
M  V30 2511 H 236.219 -2.76947 -1.73113 0
M  V30 2512 H 234.878 -3.66018 0.206456 0
M  V30 2513 H 234.526 -4.57282 -2.09528 0
M  V30 2514 H 234.226 -5.81378 -0.852839 0
M  V30 2515 H 235.75 -5.83929 -1.78492 0
M  V30 2516 H 237.164 -5.71262 0.482983 0
M  V30 2517 H 235.561 -5.86747 1.25887 0
M  V30 2518 H 236.631 -4.53242 1.72335 0
M  V30 2519 N 237.974 -0.419461 -1.51915 0
M  V30 2520 C 238.884 0.407528 -2.31033 0
M  V30 2521 C 239.9 1.04413 -1.3919 0
M  V30 2522 O 241.076 1.0434 -1.72265 0
M  V30 2523 C 238.141 1.50365 -3.12396 0
M  V30 2524 C 237.202 0.889029 -4.19994 0
M  V30 2525 C 236.435 1.93291 -4.97468 0
M  V30 2526 O 236.658 3.15259 -4.75361 0
M  V30 2527 O 235.592 1.53339 -5.8204 0
M  V30 2528 H 239.418 -0.237865 -3.02767 0
M  V30 2529 H 237.003 -0.182413 -1.48282 0
M  V30 2530 H 238.885 2.13975 -3.63032 0
M  V30 2531 H 237.56 2.13345 -2.43445 0
M  V30 2532 H 236.467 0.215353 -3.7348 0
M  V30 2533 H 237.8 0.302991 -4.91267 0
M  V30 2534 N 239.452 1.56882 -0.150215 0
M  V30 2535 C 240.362 2.20494 0.801222 0
M  V30 2536 C 241.378 1.19019 1.26927 0
M  V30 2537 O 242.554 1.51607 1.32579 0
M  V30 2538 C 239.619 2.81659 2.02161 0
M  V30 2539 C 238.68 3.9827 1.60249 0
M  V30 2540 C 237.913 4.56508 2.7647 0
M  V30 2541 O 238.136 4.13627 3.92771 0
M  V30 2542 O 237.07 5.46719 2.51757 0
M  V30 2543 H 240.896 3.02315 0.289717 0
M  V30 2544 H 238.481 1.49202 0.0769684 0
M  V30 2545 H 240.363 3.20522 2.73576 0
M  V30 2546 H 239.038 2.02849 2.52258 0
M  V30 2547 H 237.945 3.64117 0.858477 0
M  V30 2548 H 239.278 4.78609 1.14864 0
M  V30 2549 N 240.93 -0.123565 1.57115 0
M  V30 2550 C 241.88 -1.1575 1.96433 0
M  V30 2551 C 242.864 -1.37313 0.838686 0
M  V30 2552 O 244.056 -1.38482 1.10235 0
M  V30 2553 C 241.185 -2.48526 2.36833 0
M  V30 2554 C 240.271 -2.30457 3.5602 0
M  V30 2555 N 240.662 -1.8219 4.71848 0
M  V30 2556 C 238.96 -2.61129 3.61563 0
M  V30 2557 C 239.661 -1.77721 5.53886 0
M  V30 2558 N 238.637 -2.21899 4.96248 0
M  V30 2559 H 242.439 -0.776797 2.83449 0
M  V30 2560 H 239.953 -0.331364 1.58983 0
M  V30 2561 H 241.95 -3.233 2.63216 0
M  V30 2562 H 240.61 -2.87358 1.5118 0
M  V30 2563 H 241.621 -1.51805 4.95152 0
M  V30 2564 H 238.298 -3.03678 2.86507 0
M  V30 2565 H 239.688 -1.41697 6.56789 0
M  V30 2566 N 242.408 -1.52605 -0.393616 0
M  V30 2567 C 243.654 -1.67672 -1.14079 0
M  V30 2568 C 243.987 -0.413121 -1.89755 0
M  V30 2569 O 243.262 0.588952 -1.85369 0
M  V30 2570 C 243.545 -2.9088 -2.12276 0
M  V30 2571 C 243.398 -4.27329 -1.40394 0
M  V30 2572 C 244.717 -3.09628 -3.12759 0
M  V30 2573 H 241.836 -0.610168 -0.413356 0
M  V30 2574 H 244.478 -1.85193 -0.424696 0
M  V30 2575 H 242.628 -2.76073 -2.73342 0
M  V30 2576 H 244.3 -4.53894 -0.82327 0
M  V30 2577 H 242.543 -4.2802 -0.705801 0
M  V30 2578 H 243.214 -5.09615 -2.12123 0
M  V30 2579 H 245.69 -3.23436 -2.61779 0
M  V30 2580 H 244.566 -3.97322 -3.78717 0
M  V30 2581 H 244.827 -2.23637 -3.81365 0
M  V30 2582 N 243.887 0.651787 -1.4349 0
M  V30 2583 C 245.112 1.44434 -1.48841 0
M  V30 2584 C 245.537 1.8779 -0.107955 0
M  V30 2585 O 244.895 1.57464 0.898602 0
M  V30 2586 C 244.943 2.65458 -2.44059 0
M  V30 2587 O 244.047 3.64566 -1.92784 0
M  V30 2588 H 243.388 0.433005 -0.503391 0
M  V30 2589 H 245.918 0.797451 -1.88419 0
M  V30 2590 H 245.928 3.13255 -2.6141 0
M  V30 2591 H 244.603 2.33244 -3.4434 0
M  V30 2592 H 243.18 3.23716 -1.851 0
M  V30 2593 N 245.365 1.30045 0.890287 0
M  V30 2594 C 246.312 1.15976 1.99545 0
M  V30 2595 C 247.282 0.0506202 1.66023 0
M  V30 2596 O 248.467 0.219847 1.89529 0
M  V30 2597 C 245.607 0.852054 3.34416 0
M  V30 2598 C 244.72 2.04255 3.80662 0
M  V30 2599 C 243.855 1.6734 5.04154 0
M  V30 2600 C 242.894 2.82916 5.42794 0
M  V30 2601 N 242.031 2.46333 6.57468 0
M  V30 2602 H 246.871 2.10524 2.10911 0
M  V30 2603 H 244.408 1.04749 1.03276 0
M  V30 2604 H 246.366 0.654296 4.12037 0
M  V30 2605 H 244.996 -0.0565502 3.2275 0
M  V30 2606 H 244.048 2.35172 2.98995 0
M  V30 2607 H 245.36 2.90826 4.05242 0
M  V30 2608 H 244.514 1.43908 5.89386 0
M  V30 2609 H 243.253 0.779308 4.81433 0
M  V30 2610 H 242.258 3.0702 4.56091 0
M  V30 2611 H 243.483 3.73004 5.6749 0
M  V30 2612 H 241.429 1.59423 6.36334 0
M  V30 2613 H 241.346 3.26436 6.81891 0
M  V30 2614 H 242.614 2.26244 7.45945 0
M  V30 2615 N 246.843 -1.10192 1.12674 0
M  V30 2616 C 247.753 -2.20172 0.810026 0
M  V30 2617 C 248.769 -1.72821 -0.202188 0
M  V30 2618 O 249.945 -2.01369 -0.0351691 0
M  V30 2619 C 247.01 -3.45631 0.272007 0
M  V30 2620 C 246.071 -4.07704 1.34447 0
M  V30 2621 C 245.304 -5.27175 0.832029 0
M  V30 2622 O 245.527 -5.69425 -0.333284 0
M  V30 2623 O 244.461 -5.80168 1.60277 0
M  V30 2624 H 248.287 -2.49701 1.72867 0
M  V30 2625 H 245.872 -1.18977 0.903597 0
M  V30 2626 H 247.754 -4.21394 -0.0230219 0
M  V30 2627 H 246.429 -3.17723 -0.619164 0
M  V30 2628 H 245.336 -3.33614 1.6927 0
M  V30 2629 H 246.669 -4.3982 2.2095 0
M  V30 2630 N 248.321 -0.919034 -1.28029 0
M  V30 2631 C 249.284 -0.416182 -2.2539 0
M  V30 2632 C 250.284 0.460438 -1.54067 0
M  V30 2633 O 251.474 0.262744 -1.72207 0
M  V30 2634 C 248.606 0.402707 -3.38513 0
M  V30 2635 H 249.799 -1.27629 -2.71387 0
M  V30 2636 H 247.352 -0.698919 -1.39803 0
M  V30 2637 H 248.087 1.282 -2.97885 0
M  V30 2638 H 247.872 -0.225698 -3.9145 0
M  V30 2639 H 249.362 0.745191 -4.10897 0
M  V30 2640 N 249.799 1.42003 -0.683588 0
M  V30 2641 C 250.746 2.30798 -0.0107309 0
M  V30 2642 C 251.716 1.4645 0.783688 0
M  V30 2643 O 252.901 1.75263 0.754156 0
M  V30 2644 C 250.041 3.3238 0.928306 0
M  V30 2645 C 249.154 4.31814 0.126776 0
M  V30 2646 C 248.289 5.20468 1.06236 0
M  V30 2647 C 247.328 6.11577 0.253035 0
M  V30 2648 N 246.465 6.92754 1.14179 0
M  V30 2649 H 251.305 2.8778 -0.773727 0
M  V30 2650 H 248.842 1.41745 -0.393283 0
M  V30 2651 H 250.8 3.89813 1.48666 0
M  V30 2652 H 249.43 2.76976 1.65783 0
M  V30 2653 H 248.482 3.76427 -0.54833 0
M  V30 2654 H 249.794 4.96276 -0.501192 0
M  V30 2655 H 248.948 5.82677 1.69035 0
M  V30 2656 H 247.687 4.56204 1.7242 0
M  V30 2657 H 246.692 5.48428 -0.388108 0
M  V30 2658 H 247.917 6.77892 -0.404839 0
M  V30 2659 H 245.863 6.3111 1.78987 0
M  V30 2660 H 245.78 7.53855 0.569111 0
M  V30 2661 H 247.048 7.59441 1.75697 0
M  V30 2662 N 251.277 0.427512 1.51691 0
M  V30 2663 C 252.24 -0.377132 2.26076 0
M  V30 2664 C 253.24 -0.958089 1.29141 0
M  V30 2665 O 254.43 -0.83408 1.52934 0
M  V30 2666 C 251.562 -1.53262 3.04506 0
M  V30 2667 H 252.755 0.27464 2.9864 0
M  V30 2668 H 250.308 0.180445 1.55255 0
M  V30 2669 H 251.043 -2.22072 2.36335 0
M  V30 2670 H 250.828 -1.12232 3.75694 0
M  V30 2671 H 252.318 -2.10135 3.60878 0
M  V30 2672 N 252.755 -1.56801 0.158532 0
M  V30 2673 C 253.685 -2.20347 -0.772609 0
M  V30 2674 C 254.666 -1.15518 -1.24859 0
M  V30 2675 O 255.851 -1.43902 -1.30406 0
M  V30 2676 C 252.981 -2.83417 -2.00729 0
M  V30 2677 C 251.935 -3.94174 -1.66765 0
M  V30 2678 C 251.261 -4.44233 -2.97592 0
M  V30 2679 C 252.561 -5.14392 -0.905447 0
M  V30 2680 H 254.255 -2.98413 -0.242959 0
M  V30 2681 H 251.801 -1.43537 -0.115419 0
M  V30 2682 H 253.754 -3.26543 -2.6636 0
M  V30 2683 H 252.478 -2.02701 -2.56086 0
M  V30 2684 H 251.137 -3.51684 -1.03508 0
M  V30 2685 H 250.785 -3.60325 -3.50963 0
M  V30 2686 H 250.485 -5.18945 -2.75626 0
M  V30 2687 H 252.009 -4.90037 -3.64274 0
M  V30 2688 H 253.423 -5.5429 -1.46408 0
M  V30 2689 H 251.82 -5.9494 -0.7853 0
M  V30 2690 H 252.89 -4.84795 0.100668 0
M  V30 2691 N 254.233 0.115231 -1.57178 0
M  V30 2692 C 255.482 0.820945 -1.84237 0
M  V30 2693 C 255.795 1.80866 -0.744761 0
M  V30 2694 O 257.001 2.56083 -0.901871 0
M  V30 2695 C 255.457 1.51072 -3.26658 0
M  V30 2696 C 255.065 0.563795 -4.44438 0
M  V30 2697 C 256.809 2.20134 -3.62962 0
M  V30 2698 C 254.716 1.25701 -5.77887 0
M  V30 2699 H 253.646 0.310328 -0.687177 0
M  V30 2700 H 256.297 0.0737134 -1.83352 0
M  V30 2701 H 254.679 2.30471 -3.22024 0
M  V30 2702 H 255.853 -0.197247 -4.60378 0
M  V30 2703 H 254.168 -0.0200638 -4.16395 0
M  V30 2704 H 256.765 2.72696 -4.59936 0
M  V30 2705 H 257.108 2.98107 -2.90582 0
M  V30 2706 H 257.641 1.47619 -3.69396 0
M  V30 2707 H 254.38 0.518493 -6.53446 0
M  V30 2708 H 253.9 1.98997 -5.65827 0
M  V30 2709 H 255.579 1.78915 -6.2177 0
M  V30 2710 N 255.711 1.52812 0.385517 0
M  V30 2711 C 256.936 1.72207 1.15583 0
M  V30 2712 C 257.361 0.441034 1.82857 0
M  V30 2713 O 256.719 -0.603465 1.70962 0
M  V30 2714 C 256.767 2.87476 2.17692 0
M  V30 2715 O 255.871 2.54693 3.24354 0
M  V30 2716 H 255.212 0.572526 0.336319 0
M  V30 2717 H 257.742 1.99618 0.448744 0
M  V30 2718 H 257.752 3.13072 2.6163 0
M  V30 2719 H 256.427 3.80408 1.68115 0
M  V30 2720 H 255.004 2.3985 2.85529 0
M  V30 2721 N 257.189 -0.644168 1.43834 0
M  V30 2722 C 258.605 -0.960875 1.27434 0
M  V30 2723 C 258.805 -2.00499 0.200618 0
M  V30 2724 O 257.861 -2.49018 -0.417906 0
M  V30 2725 C 259.174 -1.43653 2.64167 0
M  V30 2726 C 260.722 -1.55271 2.71772 0
M  V30 2727 C 261.197 -2.06224 4.08944 0
M  V30 2728 N 262.688 -2.13513 4.11055 0
M  V30 2729 C 263.423 -2.54081 5.14033 0
M  V30 2730 N 262.919 -2.9388 6.27381 0
M  V30 2731 N 264.712 -2.54101 5.01387 0
M  V30 2732 H 256.863 0.0465779 2.12349 0
M  V30 2733 H 259.126 -0.0417638 0.94708 0
M  V30 2734 H 258.832 -0.743706 3.43747 0
M  V30 2735 H 258.706 -2.40993 2.90176 0
M  V30 2736 H 261.093 -2.23653 1.92519 0
M  V30 2737 H 261.174 -0.563395 2.49519 0
M  V30 2738 H 260.818 -1.38441 4.88668 0
M  V30 2739 H 260.748 -3.06003 4.28567 0
M  V30 2740 H 263.239 -1.85493 3.29242 0
M  V30 2741 H 263.552 -3.2361 7.01781 0
M  V30 2742 H 261.897 -2.91663 6.30839 0
M  V30 2743 H 265.088 -2.22391 4.11898 0
M  V30 2744 H 265.261 -2.85394 5.81768 0
M  V30 2745 N 258.668 -1.30515 -0.883378 0
M  V30 2746 C 259.598 -1.19607 -2.00541 0
M  V30 2747 C 260.579 -0.086346 -1.69881 0
M  V30 2748 O 261.764 -0.268654 -1.92333 0
M  V30 2749 C 258.894 -0.888758 -3.35736 0
M  V30 2750 C 257.848 -1.95659 -3.8066 0
M  V30 2751 C 257.174 -1.50224 -5.13164 0
M  V30 2752 C 258.474 -3.36788 -3.99213 0
M  V30 2753 H 260.168 -2.13476 -2.09925 0
M  V30 2754 H 257.714 -1.02775 -1.00863 0
M  V30 2755 H 259.667 -0.799094 -4.13754 0
M  V30 2756 H 258.391 0.0856125 -3.26488 0
M  V30 2757 H 257.05 -2.03591 -3.04871 0
M  V30 2758 H 256.698 -0.516092 -5.00345 0
M  V30 2759 H 256.398 -2.2165 -5.44192 0
M  V30 2760 H 257.922 -1.42639 -5.93706 0
M  V30 2761 H 259.336 -3.31605 -4.67665 0
M  V30 2762 H 257.733 -4.06314 -4.41621 0
M  V30 2763 H 258.803 -3.78561 -3.03017 0
M  V30 2764 N 260.146 1.09593 -1.13257 0
M  V30 2765 C 261.078 2.16015 -0.766167 0
M  V30 2766 C 262.091 1.61423 0.211303 0
M  V30 2767 O 263.28 1.78498 -0.00863946 0
M  V30 2768 C 260.38 3.38706 -0.114662 0
M  V30 2769 C 259.553 4.22717 -1.12379 0
M  V30 2770 C 258.612 5.23835 -0.498301 0
M  V30 2771 O 257.638 5.573 -1.15781 0
M  V30 2772 N 258.84 5.75886 0.730417 0
M  V30 2773 H 261.605 2.48055 -1.68193 0
M  V30 2774 H 259.166 1.25292 -1.02535 0
M  V30 2775 H 261.158 4.03464 0.315991 0
M  V30 2776 H 259.728 3.04569 0.704011 0
M  V30 2777 H 258.948 3.54122 -1.73179 0
M  V30 2778 H 260.236 4.75673 -1.80589 0
M  V30 2779 H 259.634 5.50911 1.28504 0
M  V30 2780 H 258.191 6.42387 1.10376 0
M  V30 2781 N 261.624 0.925811 1.2754 0
M  V30 2782 C 262.534 0.428993 2.30644 0
M  V30 2783 C 263.55 -0.489387 1.66976 0
M  V30 2784 O 264.726 -0.372653 1.97922 0
M  V30 2785 C 261.791 -0.311967 3.45294 0
M  V30 2786 C 260.852 0.641098 4.24486 0
M  V30 2787 C 260.085 -0.0645955 5.33661 0
M  V30 2788 O 260.308 -1.28429 5.55754 0
M  V30 2789 O 259.242 0.606265 5.98839 0
M  V30 2790 H 263.068 1.28504 2.75173 0
M  V30 2791 H 260.653 0.691086 1.32455 0
M  V30 2792 H 262.535 -0.729972 4.15029 0
M  V30 2793 H 261.21 -1.14365 3.02824 0
M  V30 2794 H 260.117 1.10874 3.57292 0
M  V30 2795 H 261.45 1.43995 4.70666 0
M  V30 2796 N 263.102 -1.41638 0.69111 0
M  V30 2797 C 264.032 -2.3347 0.037248 0
M  V30 2798 C 265.013 -1.51575 -0.771947 0
M  V30 2799 O 266.198 -1.80126 -0.72582 0
M  V30 2800 C 263.328 -3.35354 -0.903064 0
M  V30 2801 C 262.282 -4.27526 -0.201288 0
M  V30 2802 C 261.608 -5.19747 -1.25565 0
M  V30 2803 C 262.908 -5.13959 0.929689 0
M  V30 2804 H 264.602 -2.88397 0.804227 0
M  V30 2805 H 262.148 -1.38669 0.388189 0
M  V30 2806 H 264.101 -3.98519 -1.36969 0
M  V30 2807 H 262.825 -2.78767 -1.70166 0
M  V30 2808 H 261.484 -3.65779 0.245265 0
M  V30 2809 H 261.132 -4.59479 -2.04666 0
M  V30 2810 H 260.832 -5.8225 -0.791128 0
M  V30 2811 H 262.356 -5.85789 -1.72288 0
M  V30 2812 H 263.77 -5.70718 0.543546 0
M  V30 2813 H 262.167 -5.85379 1.32103 0
M  V30 2814 H 263.237 -4.51389 1.77133 0
M  V30 2815 N 264.58 -0.43555 -1.51462 0
M  V30 2816 C 265.513 0.421989 -2.24264 0
M  V30 2817 C 266.491 1.02619 -1.26127 0
M  V30 2818 O 267.675 1.069 -1.55257 0
M  V30 2819 C 264.802 1.588 -2.99166 0
M  V30 2820 C 263.848 1.10465 -4.11946 0
M  V30 2821 S 264.681 0.048146 -5.35478 0
M  V30 2822 C 265.837 1.21887 -6.13917 0
M  V30 2823 H 266.07 -0.196102 -2.96653 0
M  V30 2824 H 263.603 -0.220054 -1.52824 0
M  V30 2825 H 265.561 2.25647 -3.42919 0
M  V30 2826 H 264.222 2.1775 -2.26371 0
M  V30 2827 H 263.415 1.97654 -4.63626 0
M  V30 2828 H 263.017 0.51445 -3.70445 0
M  V30 2829 H 265.309 2.13756 -6.42895 0
M  V30 2830 H 266.252 0.742076 -7.04201 0
M  V30 2831 H 266.66 1.45663 -5.45383 0
M  V30 2832 N 266.058 1.56714 -0.166846 0
M  V30 2833 C 267.021 2.16539 0.751232 0
M  V30 2834 C 268.021 1.11228 1.16125 0
M  V30 2835 O 269.211 1.36765 1.07894 0
M  V30 2836 C 266.343 2.74462 2.02196 0
M  V30 2837 H 267.536 2.99013 0.230499 0
M  V30 2838 H 265.089 1.56081 0.0826982 0
M  V30 2839 H 265.824 1.95709 2.58589 0
M  V30 2840 H 265.609 3.51527 1.73698 0
M  V30 2841 H 267.099 3.20489 2.67725 0
M  V30 2842 N 267.536 -0.106894 1.57237 0
M  V30 2843 C 268.784 -0.810921 1.85117 0
M  V30 2844 C 269.105 -1.7984 0.753827 0
M  V30 2845 O 268.375 -1.94649 -0.221056 0
M  V30 2846 H 266.955 -0.302466 0.683025 0
M  V30 2847 H 269.617 -0.0913324 1.94686 0
M  V30 2848 H 268.713 -1.34875 2.81452 0
M  V30 2849 N 269.014 -1.53014 -0.377408 0
M  V30 2850 C 270.425 -1.60438 -0.954798 0
M  V30 2851 C 270.776 -0.464418 -1.90624 0
M  V30 2852 O 269.901 0.41087 -2.12464 0
M  V30 2853 C 270.496 -2.90797 -1.73847 0
M  V30 2854 C 269.055 -3.00595 -2.26538 0
M  V30 2855 C 268.202 -2.55645 -1.07429 0
M  V30 2856 H 271.153 -1.57926 -0.156575 0
M  V30 2857 H 271.174 -2.77935 -2.5987 0
M  V30 2858 H 270.686 -3.73746 -1.04574 0
M  V30 2859 H 268.787 -2.22208 -2.99089 0
M  V30 2860 H 268.9 -4.05456 -2.5523 0
M  V30 2861 H 267.264 -2.10239 -1.43777 0
M  V30 2862 H 268.047 -3.41 -0.396728 0
M  V30 2863 N 270.492 0.636531 -1.44174 0
M  V30 2864 C 271.74 1.39343 -1.46383 0
M  V30 2865 C 272.061 1.94766 -0.0955715 0
M  V30 2866 O 271.331 1.75452 0.871395 0
M  V30 2867 H 269.911 0.517199 -0.538994 0
M  V30 2868 H 272.573 0.74957 -1.7991 0
M  V30 2869 H 271.669 2.22746 -2.18611 0
M  V30 2870 N 271.97 1.30982 0.876444 0
M  V30 2871 C 272.92 1.14688 1.97055 0
M  V30 2872 C 273.904 0.0596593 1.60789 0
M  V30 2873 O 275.096 0.283892 1.74708 0
M  V30 2874 C 272.225 0.849627 3.3262 0
M  V30 2875 C 271.311 1.97752 3.75173 0
M  V30 2876 N 271.702 3.22384 3.89746 0
M  V30 2877 C 270 1.8758 4.04635 0
M  V30 2878 C 270.701 3.96121 4.25985 0
M  V30 2879 N 269.677 3.24237 4.36315 0
M  V30 2880 H 273.479 2.09204 2.06424 0
M  V30 2881 H 270.993 1.22445 1.06682 0
M  V30 2882 H 272.99 0.713895 4.10742 0
M  V30 2883 H 271.65 -0.087376 3.24582 0
M  V30 2884 H 272.661 3.57575 3.74647 0
M  V30 2885 H 269.338 1.01303 4.05024 0
M  V30 2886 H 270.728 5.03491 4.44911 0
M  V30 2887 N 273.449 -1.08991 1.13837 0
M  V30 2888 C 274.696 -1.81258 0.902882 0
M  V30 2889 C 275.024 -1.85936 -0.570803 0
M  V30 2890 O 274.279 -1.3267 -1.43865 0
M  V30 2891 C 274.578 -3.27042 1.44147 0
M  V30 2892 C 274.244 -3.4249 2.93276 0
M  V30 2893 C 272.906 -3.46414 3.33992 0
M  V30 2894 C 275.258 -3.4666 3.892 0
M  V30 2895 C 272.586 -3.52091 4.69307 0
M  V30 2896 C 274.938 -3.53872 5.24364 0
M  V30 2897 C 273.602 -3.56066 5.646 0
M  V30 2898 H 272.872 -0.663268 0.330388 0
M  V30 2899 H 275.519 -1.28368 1.42105 0
M  V30 2900 H 273.824 -3.82599 0.844097 0
M  V30 2901 H 275.521 -3.81499 1.23528 0
M  V30 2902 H 272.111 -3.40124 2.60794 0
M  V30 2903 H 276.295 -3.42865 3.58828 0
M  V30 2904 H 271.551 -3.52079 4.9985 0
M  V30 2905 H 275.725 -3.56043 5.98503 0
M  V30 2906 H 273.352 -3.60218 6.69438 0
M  V30 2907 N 274.927 -0.932562 -1.27047 0
M  V30 2908 C 276.204 -0.49377 -1.89265 0
M  V30 2909 C 276.584 1.02833 -1.8436 0
M  V30 2910 O 275.932 1.88461 -1.29209 0
M  V30 2911 C 276.142 -1.04536 -3.32976 0
M  V30 2912 C 277.49 -1.10879 -4.09867 0
M  V30 2913 O 278.514 -0.995327 -3.42011 0
M  V30 2914 O 277.373 -1.28417 -5.31198 0
M  V30 2915 H 274.467 -0.159596 -0.811454 0
M  V30 2916 H 277.013 -1.02457 -1.3528 0
M  V30 2917 H 275.785 -2.08913 -3.30864 0
M  V30 2918 H 275.408 -0.496494 -3.94488 0
M  V30 2919 N 276.405 1.4127 -0.698611 0
M  V30 2920 C 277.816 1.84187 -0.305289 0
M  V30 2921 C 278.167 1.58449 1.15708 0
M  V30 2922 O 277.292 1.05651 1.88856 0
M  V30 2923 C 277.887 3.3435 -0.547314 0
M  V30 2924 C 276.446 3.75826 -0.207878 0
M  V30 2925 C 275.593 2.64647 -0.828099 0
M  V30 2926 H 278.544 1.30778 -0.89904 0
M  V30 2927 H 278.565 3.8001 0.192998 0
M  V30 2928 H 278.077 3.53051 -1.61172 0
M  V30 2929 H 276.178 3.62725 0.852143 0
M  V30 2930 H 276.291 4.74462 -0.665021 0
M  V30 2931 H 274.655 2.53395 -0.257458 0
M  V30 2932 H 275.438 2.86165 -1.89643 0
M  V30 2933 N 277.883 0.443576 1.51229 0
M  V30 2934 C 279.113 -0.119117 2.06256 0
M  V30 2935 C 279.521 -1.36471 1.31043 0
M  V30 2936 O 278.864 -1.80034 0.365151 0
M  V30 2937 C 278.926 -0.500546 3.55998 0
M  V30 2938 C 278.59 0.639125 4.52509 0
M  V30 2939 C 279.587 1.51311 4.97394 0
M  V30 2940 C 277.272 0.821632 4.95535 0
M  V30 2941 C 279.266 2.55425 5.83984 0
M  V30 2942 C 276.953 1.86603 5.81913 0
M  V30 2943 C 277.951 2.73072 6.26036 0
M  V30 2944 O 277.639 3.75718 7.10698 0
M  V30 2945 H 277.371 -0.00857665 0.675946 0
M  V30 2946 H 279.925 0.623288 1.95715 0
M  V30 2947 H 278.155 -1.29575 3.64345 0
M  V30 2948 H 279.844 -0.995116 3.93513 0
M  V30 2949 H 280.61 1.38367 4.64844 0
M  V30 2950 H 276.489 0.158149 4.60729 0
M  V30 2951 H 280.033 3.22949 6.18344 0
M  V30 2952 H 275.93 1.99564 6.13876 0
M  V30 2953 H 276.698 3.72374 7.2889 0
M  V30 2954 N 279.361 -1.56624 0.175154 0
M  V30 2955 C 280.309 -2.19468 -0.770495 0
M  V30 2956 C 281.303 -1.15985 -1.23466 0
M  V30 2957 O 282.509 -1.34176 -1.19987 0
M  V30 2958 H 278.884 -0.703095 -0.266761 0
M  V30 2959 H 280.855 -2.97613 -0.216542 0
M  V30 2960 C 279.604 -2.85264 -1.98796 0
M  V30 2961 H 278.927 -3.64623 -1.63983 0
M  V30 2962 H 280.367 -3.327 -2.62843 0
M  V30 2963 C 278.826 -1.85239 -2.81404 0
M  V30 2964 O 279.356 -1.34024 -3.78682 0
M  V30 2965 N 277.562 -1.53911 -2.46495 0
M  V30 2966 H 277.109 -1.95751 -1.67449 0
M  V30 2967 H 277.067 -0.872382 -3.02054 0
M  V30 2968 N 280.839 0.0985539 -1.57292 0
M  V30 2969 C 281.771 1.14595 -1.98496 0
M  V30 2970 C 282.784 1.36512 -0.887031 0
M  V30 2971 O 283.973 1.35225 -1.16518 0
M  V30 2972 C 281.073 2.50216 -2.28572 0
M  V30 2973 C 280.246 2.48624 -3.59868 0
M  V30 2974 C 279.305 3.66146 -3.7792 0
M  V30 2975 O 278.331 3.48795 -4.49812 0
M  V30 2976 N 279.533 4.85496 -3.18235 0
M  V30 2977 H 282.298 0.795277 -2.88956 0
M  V30 2978 H 279.859 0.287579 -1.59325 0
M  V30 2979 H 281.851 3.27432 -2.37845 0
M  V30 2980 H 280.421 2.77387 -1.44136 0
M  V30 2981 H 279.641 1.56978 -3.61596 0
M  V30 2982 H 280.929 2.44635 -4.46129 0
M  V30 2983 H 280.327 5.02497 -2.59833 0
M  V30 2984 H 278.884 5.60317 -3.32999 0
M  V30 2985 N 282.317 1.53212 0.369288 0
M  V30 2986 C 283.563 1.69466 1.11397 0
M  V30 2987 C 283.896 0.443257 1.89074 0
M  V30 2988 O 283.171 -0.559386 1.86282 0
M  V30 2989 C 283.454 2.9422 2.07621 0
M  V30 2990 C 283.307 4.29508 1.33577 0
M  V30 2991 C 284.626 3.14565 3.07794 0
M  V30 2992 H 281.745 0.616667 0.403597 0
M  V30 2993 H 284.387 1.85845 0.395179 0
M  V30 2994 H 282.537 2.80387 2.68916 0
M  V30 2995 H 284.209 4.55147 0.750955 0
M  V30 2996 H 282.452 4.29088 0.637618 0
M  V30 2997 H 283.123 5.12926 2.03989 0
M  V30 2998 H 285.599 3.2756 2.56601 0
M  V30 2999 H 284.475 4.03297 3.72348 0
M  V30 3000 H 284.736 2.29675 3.77759 0
M  V30 3001 N 283.795 -0.628877 1.44509 0
M  V30 3002 C 285.041 -1.39045 1.47629 0
M  V30 3003 C 285.374 -1.93892 0.109343 0
M  V30 3004 O 284.649 -1.7379 -0.87334 0
M  V30 3005 C 284.932 -2.55408 2.53848 0
M  V30 3006 C 284.785 -2.05896 3.99909 0
M  V30 3007 C 286.104 -3.5759 2.56549 0
M  V30 3008 H 283.223 -0.504232 0.537512 0
M  V30 3009 H 285.865 -0.710854 1.76201 0
M  V30 3010 H 284.015 -3.13384 2.29615 0
M  V30 3011 H 285.687 -1.52734 4.35282 0
M  V30 3012 H 283.93 -1.37061 4.11578 0
M  V30 3013 H 284.601 -2.89681 4.69882 0
M  V30 3014 H 287.077 -3.09419 2.78207 0
M  V30 3015 H 285.953 -4.36527 3.32769 0
M  V30 3016 H 286.214 -4.11808 1.60832 0
M  V30 3017 N 285.273 -1.31445 -0.869486 0
M  V30 3018 C 286.519 -1.21337 -1.62496 0
M  V30 3019 C 286.852 0.227872 -1.92858 0
M  V30 3020 O 286.127 1.16094 -1.56053 0
M  V30 3021 C 286.41 -2.05814 -2.95487 0
M  V30 3022 C 286.263 -3.5824 -2.72 0
M  V30 3023 C 287.582 -1.9079 -3.96594 0
M  V30 3024 H 284.701 -0.442135 -0.589649 0
M  V30 3025 H 287.343 -1.6124 -1.00507 0
M  V30 3026 H 285.493 -1.71913 -3.48394 0
M  V30 3027 H 287.165 -4.0228 -2.25762 0
M  V30 3028 H 285.408 -3.81647 -2.06224 0
M  V30 3029 H 286.079 -4.12657 -3.66631 0
M  V30 3030 H 288.555 -2.20459 -3.52898 0
M  V30 3031 H 287.431 -2.52199 -4.87531 0
M  V30 3032 H 287.692 -0.871341 -4.33428 0
M  V30 3033 N 286.751 1.08385 -1.14413 0
M  V30 3034 C 287.976 1.85057 -0.936413 0
M  V30 3035 C 288.401 1.81055 0.509971 0
M  V30 3036 O 287.759 1.1958 1.36273 0
M  V30 3037 C 287.807 3.30505 -1.44217 0
M  V30 3038 O 286.911 4.07491 -0.634409 0
M  V30 3039 H 286.252 0.573425 -0.334784 0
M  V30 3040 H 288.782 1.36799 -1.52142 0
M  V30 3041 H 288.792 3.81348 -1.45043 0
M  V30 3042 H 287.467 3.32734 -2.49522 0
M  V30 3043 H 286.044 3.66368 -0.694902 0
M  V30 3044 N 288.23 0.939286 1.26551 0
M  V30 3045 C 289.476 0.586715 1.94128 0
M  V30 3046 C 289.809 -0.8717 1.73537 0
M  V30 3047 O 289.084 -1.62339 1.07127 0
M  V30 3048 C 289.367 0.927497 3.4795 0
M  V30 3049 C 289.22 2.44052 3.77834 0
M  V30 3050 C 290.539 0.441569 4.37879 0
M  V30 3051 H 287.658 0.21463 0.705055 0
M  V30 3052 H 290.3 1.17316 1.49455 0
M  V30 3053 H 288.45 0.428431 3.8613 0
M  V30 3054 H 290.122 3.01216 3.4938 0
M  V30 3055 H 288.365 2.8848 3.23978 0
M  V30 3056 H 289.036 2.62947 4.85348 0
M  V30 3057 H 291.512 0.869448 4.06915 0
M  V30 3058 H 290.388 0.708856 5.44304 0
M  V30 3059 H 290.649 -0.658467 4.37169 0
M  V30 3060 N 289.708 -1.40897 0.706093 0
M  V30 3061 C 290.671 -2.29131 0.0562841 0
M  V30 3062 C 291.671 -1.44901 -0.697166 0
M  V30 3063 O 292.861 -1.65926 -0.530484 0
M  V30 3064 C 289.993 -3.27957 -0.93043 0
M  V30 3065 H 291.186 -2.88091 0.833284 0
M  V30 3066 H 288.739 -1.4906 0.470192 0
M  V30 3067 H 289.474 -2.73997 -1.73482 0
M  V30 3068 H 289.259 -3.90124 -0.393166 0
M  V30 3069 H 290.749 -3.94049 -1.38256 0
M  V30 3070 N 291.186 -0.45159 -1.50991 0
M  V30 3071 C 292.134 0.366864 -2.29689 0
M  V30 3072 C 293.128 1.00809 -1.36139 0
M  V30 3073 O 294.334 0.941427 -1.53418 0
M  V30 3074 H 290.709 0.137133 -0.739391 0
M  V30 3075 H 292.68 -0.317538 -2.96706 0
M  V30 3076 C 291.429 1.44751 -3.16137 0
M  V30 3077 H 290.752 0.963473 -3.88017 0
M  V30 3078 H 292.192 1.99315 -3.74232 0
M  V30 3079 C 290.651 2.43869 -2.32442 0
M  V30 3080 O 291.181 3.4872 -1.99392 0
M  V30 3081 N 289.387 2.15105 -1.95392 0
M  V30 3082 H 288.934 1.29866 -2.22469 0
M  V30 3083 H 288.892 2.81661 -1.39693 0
M  V30 3084 N 292.664 1.56529 -0.183458 0
M  V30 3085 C 293.91 1.97537 0.459036 0
M  V30 3086 C 294.243 1.06989 1.62071 0
M  V30 3087 O 293.518 0.11948 1.94133 0
M  V30 3088 C 293.801 3.47874 0.930368 0
M  V30 3089 C 293.654 4.492 -0.232317 0
M  V30 3090 C 294.973 4.01612 1.79989 0
M  V30 3091 H 292.092 0.718204 0.165383 0
M  V30 3092 H 294.734 1.88042 -0.272038 0
M  V30 3093 H 292.884 3.56095 1.55333 0
M  V30 3094 H 294.556 4.53027 -0.86972 0
M  V30 3095 H 292.799 4.24657 -0.885928 0
M  V30 3096 H 293.47 5.51823 0.139796 0
M  V30 3097 H 295.946 3.96097 1.27461 0
M  V30 3098 H 294.822 5.07195 2.09867 0
M  V30 3099 H 295.083 3.46163 2.74998 0
M  V30 3100 N 294.142 -0.090211 1.57342 0
M  V30 3101 C 295.391 -0.791531 1.8552 0
M  V30 3102 C 295.704 -1.79659 0.773441 0
M  V30 3103 O 296.91 -2.54616 0.942497 0
M  V30 3104 C 295.366 -1.45856 3.2902 0
M  V30 3105 C 294.974 -0.493017 4.45279 0
M  V30 3106 C 296.718 -2.14332 3.66418 0
M  V30 3107 C 294.625 -1.16491 5.79814 0
M  V30 3108 H 293.555 -0.299356 0.692027 0
M  V30 3109 H 296.206 -0.0445343 1.83446 0
M  V30 3110 H 294.588 -2.25318 3.2565 0
M  V30 3111 H 295.762 0.270464 4.60006 0
M  V30 3112 H 294.077 0.0863061 4.16311 0
M  V30 3113 H 296.674 -2.65344 4.64216 0
M  V30 3114 H 297.017 -2.93447 2.95287 0
M  V30 3115 H 297.55 -1.41724 3.71698 0
M  V30 3116 H 294.289 -0.41447 6.54188 0
M  V30 3117 H 293.809 -1.8997 5.68921 0
M  V30 3118 H 295.488 -1.69001 6.24538 0
M  V30 3119 N 295.62 -1.53406 -0.361157 0
M  V30 3120 C 296.868 -1.69467 -1.10115 0
M  V30 3121 C 297.189 -0.451352 -1.89705 0
M  V30 3122 O 296.459 0.534636 -1.88463 0
M  V30 3123 H 295.039 -0.624749 -0.409508 0
M  V30 3124 H 297.701 -1.90609 -0.406699 0
M  V30 3125 H 296.797 -2.55774 -1.78847 0
M  V30 3126 N 297.098 0.621204 -1.44841 0
M  V30 3127 C 298.061 1.71459 -1.521 0
M  V30 3128 C 299.061 1.55696 -0.401933 0
M  V30 3129 O 300.251 1.61011 -0.664925 0
M  V30 3130 C 297.383 3.10624 -1.40447 0
M  V30 3131 H 298.576 1.66394 -2.49506 0
M  V30 3132 H 296.129 0.835745 -1.3208 0
M  V30 3133 H 296.864 3.21277 -0.441737 0
M  V30 3134 H 296.649 3.23473 -2.21602 0
M  V30 3135 H 298.139 3.90293 -1.4853 0
M  V30 3136 N 298.576 1.31904 0.862503 0
M  V30 3137 C 299.509 1.14514 1.97388 0
M  V30 3138 C 300.487 0.0466493 1.62533 0
M  V30 3139 O 301.671 0.204484 1.87388 0
M  V30 3140 C 298.798 0.751347 3.30261 0
M  V30 3141 C 297.844 1.85395 3.84098 0
M  V30 3142 S 298.677 3.46081 4.08642 0
M  V30 3143 C 299.833 3.08655 5.44502 0
M  V30 3144 H 300.066 2.08597 2.11836 0
M  V30 3145 H 297.599 1.16475 1.01356 0
M  V30 3146 H 299.557 0.530901 4.07052 0
M  V30 3147 H 298.218 -0.170493 3.13637 0
M  V30 3148 H 297.411 1.53122 4.80177 0
M  V30 3149 H 297.013 2.02984 3.14123 0
M  V30 3150 H 299.305 2.58012 6.26447 0
M  V30 3151 H 300.248 4.03726 5.81731 0
M  V30 3152 H 300.656 2.45891 5.08132 0
M  V30 3153 N 300.054 -1.07777 1.14986 0
M  V30 3154 C 301.294 -1.81888 0.932527 0
M  V30 3155 C 301.658 -1.84509 -0.531064 0
M  V30 3156 O 302.859 -2.54448 -0.866577 0
M  V30 3157 C 301.13 -3.23244 1.52473 0
M  V30 3158 S 302.689 -4.14154 1.44989 0
M  V30 3159 H 299.507 -0.626752 0.335712 0
M  V30 3160 H 302.109 -1.29503 1.46455 0
M  V30 3161 H 300.813 -3.18922 2.58296 0
M  V30 3162 H 300.344 -3.80704 0.991381 0
M  V30 3163 H 302.359 -4.94247 0.439799 0
M  V30 3164 N 301.532 -0.945985 -1.26051 0
M  V30 3165 C 302.779 -0.596118 -1.93527 0
M  V30 3166 C 303.107 0.865559 -1.74179 0
M  V30 3167 O 302.362 1.63524 -1.0751 0
M  V30 3168 C 302.661 -0.890475 -3.46129 0
M  V30 3169 C 302.327 -2.3368 -3.85622 0
M  V30 3170 C 300.989 -2.73216 -3.96114 0
M  V30 3171 C 303.341 -3.27648 -4.05334 0
M  V30 3172 C 300.669 -4.05806 -4.2372 0
M  V30 3173 C 303.021 -4.59841 -4.3443 0
M  V30 3174 C 301.685 -4.99185 -4.43137 0
M  V30 3175 H 300.955 -0.218135 -0.708165 0
M  V30 3176 H 303.602 -1.1934 -1.49768 0
M  V30 3177 H 301.907 -0.210711 -3.91233 0
M  V30 3178 H 303.604 -0.598478 -3.96509 0
M  V30 3179 H 300.194 -2.02015 -3.78005 0
M  V30 3180 H 304.378 -2.98298 -3.96651 0
M  V30 3181 H 299.634 -4.35945 -4.28675 0
M  V30 3182 H 303.808 -5.32641 -4.48628 0
M  V30 3183 H 301.435 -6.01952 -4.64282 0
M  V30 3184 N 303.011 1.40521 -0.713556 0
M  V30 3185 C 304.259 2.00527 -0.251692 0
M  V30 3186 C 304.58 1.56857 1.15848 0
M  V30 3187 O 303.85 0.807127 1.785 0
M  V30 3188 H 302.43 0.741551 -0.0900646 0
M  V30 3189 H 305.092 1.71887 -0.918733 0
M  V30 3190 H 304.188 3.10813 -0.283192 0
M  V30 3191 N 304.489 0.459591 1.5075 0
M  V30 3192 C 305.421 -0.37665 2.26084 0
M  V30 3193 C 306.434 -0.967109 1.30961 0
M  V30 3194 O 307.623 -0.857468 1.56556 0
M  V30 3195 C 304.723 -1.54112 3.01832 0
M  V30 3196 C 303.896 -1.06553 4.24223 0
M  V30 3197 C 302.955 -2.1027 4.82362 0
M  V30 3198 O 301.981 -1.68798 5.43595 0
M  V30 3199 N 303.183 -3.42974 4.68347 0
M  V30 3200 H 305.948 0.269124 2.98489 0
M  V30 3201 H 303.509 0.28972 1.59287 0
M  V30 3202 H 305.501 -2.23165 3.37608 0
M  V30 3203 H 304.071 -2.0918 2.32298 0
M  V30 3204 H 303.291 -0.201274 3.93686 0
M  V30 3205 H 304.579 -0.725516 5.03601 0
M  V30 3206 H 303.977 -3.79385 4.19623 0
M  V30 3207 H 302.534 -4.07858 5.08424 0
M  V30 3208 N 305.967 -1.56429 0.191757 0
M  V30 3209 C 306.917 -2.15548 -0.743184 0
M  V30 3210 C 307.901 -1.09531 -1.17863 0
M  V30 3211 O 309.093 -1.35602 -1.13759 0
M  V30 3212 C 306.222 -2.81577 -1.96391 0
M  V30 3213 C 305.308 -3.9478 -1.54951 0
M  V30 3214 N 305.699 -4.98677 -0.845876 0
M  V30 3215 C 303.997 -4.06319 -1.83905 0
M  V30 3216 C 304.698 -5.78183 -0.638724 0
M  V30 3217 N 303.674 -5.30495 -1.18643 0
M  V30 3218 H 307.476 -2.9324 -0.196839 0
M  V30 3219 H 304.99 -1.62398 -0.0081603 0
M  V30 3220 H 306.987 -3.22321 -2.64415 0
M  V30 3221 H 305.647 -2.05371 -2.51501 0
M  V30 3222 H 306.658 -5.15464 -0.501704 0
M  V30 3223 H 303.335 -3.41238 -2.40548 0
M  V30 3224 H 304.725 -6.71851 -0.0807929 0
M  V30 3225 N 307.445 0.0818655 -1.57387 0
M  V30 3226 C 308.692 0.782914 -1.86753 0
M  V30 3227 C 309.02 1.78082 -0.782118 0
M  V30 3228 O 308.275 1.94426 0.22295 0
M  V30 3229 C 308.574 1.53513 -3.22752 0
M  V30 3230 C 308.24 0.678134 -4.45771 0
M  V30 3231 C 306.902 0.441929 -4.79166 0
M  V30 3232 C 309.254 0.0832243 -5.21134 0
M  V30 3233 C 306.582 -0.398833 -5.85343 0
M  V30 3234 C 308.934 -0.744935 -6.28199 0
M  V30 3235 C 307.598 -0.991107 -6.60101 0
M  V30 3236 H 306.868 0.286489 -0.683378 0
M  V30 3237 H 309.515 0.0439808 -1.91449 0
M  V30 3238 H 307.82 2.34599 -3.138 0
M  V30 3239 H 309.517 2.08218 -3.42705 0
M  V30 3240 H 306.107 0.872357 -4.19628 0
M  V30 3241 H 310.291 0.252847 -4.95655 0
M  V30 3242 H 305.547 -0.598405 -6.08465 0
M  V30 3243 H 309.721 -1.21271 -6.8576 0
M  V30 3244 H 307.348 -1.64437 -7.42202 0
M  V30 3245 N 308.923 1.53595 0.353017 0
M  V30 3246 C 310.334 1.61937 0.929153 0
M  V30 3247 C 310.685 0.494686 1.89861 0
M  V30 3248 O 309.81 -0.377017 2.1309 0
M  V30 3249 C 310.405 2.93526 1.69199 0
M  V30 3250 C 308.964 3.04161 2.21727 0
M  V30 3251 C 308.111 2.57322 1.03348 0
M  V30 3252 H 311.062 1.58155 0.131431 0
M  V30 3253 H 311.083 2.82034 2.55416 0
M  V30 3254 H 310.595 3.75362 0.986144 0
M  V30 3255 H 308.696 2.26938 2.95516 0
M  V30 3256 H 308.809 4.09465 2.48748 0
M  V30 3257 H 307.173 2.12499 1.40414 0
M  V30 3258 H 307.956 3.41588 0.342428 0
M  V30 3259 N 310.401 -0.613514 1.45168 0
M  V30 3260 C 311.311 -1.75296 1.55912 0
M  V30 3261 C 312.327 -1.68244 0.443856 0
M  V30 3262 O 313.503 -1.88706 0.70371 0
M  V30 3263 C 310.568 -3.1174 1.5172 0
M  V30 3264 C 309.629 -3.30291 2.74238 0
M  V30 3265 C 308.862 -4.60226 2.70236 0
M  V30 3266 O 309.085 -5.42168 1.77229 0
M  V30 3267 O 308.019 -4.81361 3.61352 0
M  V30 3268 H 311.845 -1.69183 2.52212 0
M  V30 3269 H 309.43 -0.776886 1.27612 0
M  V30 3270 H 311.312 -3.93044 1.51968 0
M  V30 3271 H 309.987 -3.18357 0.585697 0
M  V30 3272 H 308.894 -2.48598 2.79553 0
M  V30 3273 H 310.227 -3.28547 3.66494 0
M  V30 3274 N 311.879 -1.3236 -0.855495 0
M  V30 3275 C 313.104 -1.2601 -1.64731 0
M  V30 3276 C 313.529 0.169068 -1.87339 0
M  V30 3277 O 312.887 1.12016 -1.42556 0
M  V30 3278 C 312.935 -2.02417 -2.98429 0
M  V30 3279 O 312.039 -1.3714 -3.8893 0
M  V30 3280 H 311.38 -0.434325 -0.502253 0
M  V30 3281 H 313.91 -1.74661 -1.06558 0
M  V30 3282 H 313.92 -2.12559 -3.48257 0
M  V30 3283 H 312.595 -3.06343 -2.81295 0
M  V30 3284 H 311.172 -1.3554 -3.47395 0
M  V30 3285 N 313.357 1.07166 -1.15556 0
M  V30 3286 C 314.582 1.84053 -0.955988 0
M  V30 3287 C 315.007 1.81586 0.490739 0
M  V30 3288 O 314.365 1.21018 1.34997 0
M  V30 3289 C 314.413 3.28957 -1.47714 0
M  V30 3290 O 313.517 4.06795 -0.677593 0
M  V30 3291 H 312.858 0.569842 -0.340847 0
M  V30 3292 H 315.388 1.35178 -1.53584 0
M  V30 3293 H 315.398 3.79788 -1.4908 0
M  V30 3294 H 314.073 3.30068 -2.53037 0
M  V30 3295 H 312.65 3.6561 -0.733721 0
M  V30 3296 N 314.835 0.952656 1.25548 0
M  V30 3297 C 316.112 0.523818 1.88456 0
M  V30 3298 C 316.492 -0.998871 1.85973 0
M  V30 3299 O 315.84 -1.86381 1.3219 0
M  V30 3300 C 316.05 1.0982 3.31271 0
M  V30 3301 C 317.398 1.17385 4.08051 0
M  V30 3302 O 318.422 1.04961 3.40384 0
M  V30 3303 O 317.281 1.36852 5.29088 0
M  V30 3304 H 314.375 0.172485 0.808813 0
M  V30 3305 H 316.921 1.04596 1.33633 0
M  V30 3306 H 315.693 2.1415 3.27499 0
M  V30 3307 H 315.316 0.559191 3.93648 0
M  V30 3308 N 316.313 -1.40141 0.720998 0
M  V30 3309 C 317.223 -2.34486 0.0731031 0
M  V30 3310 C 318.239 -1.57587 -0.737723 0
M  V30 3311 O 319.415 -1.89949 -0.669429 0
M  V30 3312 C 316.48 -3.36528 -0.833656 0
M  V30 3313 C 315.541 -4.29298 -0.0121673 0
M  V30 3314 C 314.774 -5.26466 -0.875742 0
M  V30 3315 O 314.997 -5.29745 -2.11485 0
M  V30 3316 O 313.931 -6.01092 -0.31185 0
M  V30 3317 H 317.757 -2.9152 0.851444 0
M  V30 3318 H 315.342 -1.41427 0.481527 0
M  V30 3319 H 317.224 -3.99093 -1.35289 0
M  V30 3320 H 315.899 -2.81899 -1.59105 0
M  V30 3321 H 314.806 -3.70001 0.552262 0
M  V30 3322 H 316.139 -4.87094 0.707129 0
M  V30 3323 N 317.792 -0.46758 -1.50504 0
M  V30 3324 C 318.725 0.374324 -2.25109 0
M  V30 3325 C 319.703 0.99921 -1.28275 0
M  V30 3326 O 320.887 1.03583 -1.57489 0
M  V30 3327 C 318.014 1.52419 -3.02467 0
M  V30 3328 C 317.06 1.01702 -4.14197 0
M  V30 3329 S 317.893 -0.0654477 -5.3546 0
M  V30 3330 C 319.049 1.08837 -6.16365 0
M  V30 3331 H 319.282 -0.258983 -2.9617 0
M  V30 3332 H 316.815 -0.252421 -1.52323 0
M  V30 3333 H 318.773 2.18322 -3.47628 0
M  V30 3334 H 317.434 2.129 -2.30938 0
M  V30 3335 H 316.627 1.87776 -4.67714 0
M  V30 3336 H 316.229 0.435757 -3.71453 0
M  V30 3337 H 318.521 2.00071 -6.47285 0
M  V30 3338 H 319.464 0.592538 -7.05616 0
M  V30 3339 H 319.872 1.34061 -5.4835 0
M  V30 3340 N 319.27 1.56325 -0.20005 0
M  V30 3341 C 320.2 2.22318 0.713916 0
M  V30 3342 C 321.181 1.18788 1.21752 0
M  V30 3343 O 322.366 1.47309 1.26545 0
M  V30 3344 C 319.496 2.88639 1.93144 0
M  V30 3345 C 318.45 3.98457 1.56255 0
M  V30 3346 C 317.776 4.51967 2.85709 0
M  V30 3347 C 319.076 5.16612 0.768747 0
M  V30 3348 H 320.77 2.98952 0.163755 0
M  V30 3349 H 318.316 1.43792 0.0773219 0
M  V30 3350 H 320.269 3.33491 2.57608 0
M  V30 3351 H 318.993 2.09419 2.50621 0
M  V30 3352 H 317.652 3.54305 0.941471 0
M  V30 3353 H 317.3 3.69503 3.41287 0
M  V30 3354 H 317 5.26071 2.6177 0
M  V30 3355 H 318.524 4.99523 3.51154 0
M  V30 3356 H 319.938 5.57977 1.3166 0
M  V30 3357 H 318.335 5.96812 0.627286 0
M  V30 3358 H 319.405 4.84358 -0.229168 0
M  V30 3359 N 320.748 -0.0735177 1.57428 0
M  V30 3360 C 321.973 -0.789787 1.91774 0
M  V30 3361 C 322.398 -1.70413 0.796306 0
M  V30 3362 O 321.756 -1.79555 -0.250961 0
M  V30 3363 C 321.804 -1.5609 3.25067 0
M  V30 3364 O 320.908 -2.67144 3.14178 0
M  V30 3365 H 320.249 -0.215582 0.628029 0
M  V30 3366 H 322.779 -0.0422781 2.04556 0
M  V30 3367 H 322.789 -1.94052 3.58898 0
M  V30 3368 H 321.464 -0.890015 4.06265 0
M  V30 3369 H 320.041 -2.32052 2.91901 0
M  V30 3370 N 322.226 -1.5378 -0.344866 0
M  V30 3371 C 323.156 -1.84662 -1.42906 0
M  V30 3372 C 324.137 -0.701648 -1.54955 0
M  V30 3373 O 325.322 -0.953438 -1.69184 0
M  V30 3374 C 322.452 -2.05503 -2.79974 0
M  V30 3375 C 321.406 -3.21318 -2.82734 0
M  V30 3376 C 320.732 -3.2749 -4.22675 0
M  V30 3377 C 322.032 -4.59456 -2.48389 0
M  V30 3378 H 323.726 -2.75461 -1.17311 0
M  V30 3379 H 321.272 -1.32542 -0.562896 0
M  V30 3380 H 323.225 -2.25691 -3.55867 0
M  V30 3381 H 321.949 -1.11434 -3.07002 0
M  V30 3382 H 320.608 -3.00984 -2.09294 0
M  V30 3383 H 320.256 -2.31019 -4.4681 0
M  V30 3384 H 319.956 -4.05316 -4.25433 0
M  V30 3385 H 321.48 -3.49887 -5.00412 0
M  V30 3386 H 322.894 -4.79667 -3.13995 0
M  V30 3387 H 321.291 -5.39675 -2.62432 0
M  V30 3388 H 322.361 -4.63155 -1.4358 0
M  V30 3389 N 323.704 0.605807 -1.45491 0
M  V30 3390 C 324.95 1.36679 -1.49823 0
M  V30 3391 C 325.283 1.93693 -0.140175 0
M  V30 3392 O 324.558 1.75158 0.845581 0
M  V30 3393 C 324.841 2.51337 -2.57879 0
M  V30 3394 C 324.694 1.99508 -4.03134 0
M  V30 3395 C 326.013 3.53463 -2.62205 0
M  V30 3396 H 323.132 0.495617 -0.545466 0
M  V30 3397 H 325.774 0.682732 -1.7731 0
M  V30 3398 H 323.924 3.09691 -2.34571 0
M  V30 3399 H 325.596 1.45789 -4.37656 0
M  V30 3400 H 323.839 1.30496 -4.13707 0
M  V30 3401 H 324.51 2.82169 -4.74431 0
M  V30 3402 H 326.986 3.04953 -2.83095 0
M  V30 3403 H 325.862 4.31178 -3.39672 0
M  V30 3404 H 326.123 4.09197 -1.67363 0
M  V30 3405 N 325.182 1.32811 0.848464 0
M  V30 3406 C 326.129 1.22265 1.95755 0
M  V30 3407 C 327.099 0.103413 1.65778 0
M  V30 3408 O 328.284 0.280033 1.88734 0
M  V30 3409 C 325.424 0.958014 3.31536 0
M  V30 3410 C 324.537 2.16262 3.73971 0
M  V30 3411 C 323.672 1.83295 4.98575 0
M  V30 3412 C 322.711 3.00041 5.33518 0
M  V30 3413 N 321.848 2.67125 6.49299 0
M  V30 3414 H 326.688 2.17128 2.04107 0
M  V30 3415 H 324.225 1.07982 0.998913 0
M  V30 3416 H 326.183 0.785052 4.09747 0
M  V30 3417 H 324.813 0.046159 3.22767 0
M  V30 3418 H 323.865 2.44565 2.91362 0
M  V30 3419 H 325.177 3.03572 3.95785 0
M  V30 3420 H 324.331 1.62586 5.84509 0
M  V30 3421 H 323.07 0.932078 4.7871 0
M  V30 3422 H 322.075 3.21374 4.46093 0
M  V30 3423 H 323.3 3.90869 5.55336 0
M  V30 3424 H 321.246 1.79586 6.3094 0
M  V30 3425 H 321.163 3.47965 6.71161 0
M  V30 3426 H 322.431 2.49861 7.3837 0
M  V30 3427 N 326.66 -1.06551 1.16123 0
M  V30 3428 C 327.608 -2.16063 0.861371 0
M  V30 3429 C 328.602 -1.6856 -0.168517 0
M  V30 3430 O 329.808 -1.79986 -0.0227579 0
M  V30 3431 H 326.183 -0.705278 0.260934 0
M  V30 3432 H 328.154 -2.38567 1.79244 0
M  V30 3433 C 326.903 -3.45661 0.376018 0
M  V30 3434 H 326.226 -3.82604 1.15992 0
M  V30 3435 H 327.666 -4.23504 0.204951 0
M  V30 3436 C 326.125 -3.24546 -0.903954 0
M  V30 3437 O 326.655 -3.49865 -1.97377 0
M  V30 3438 N 324.861 -2.77992 -0.846679 0
M  V30 3439 H 324.408 -2.57589 0.0241017 0
M  V30 3440 H 324.366 -2.64244 -1.70359 0
M  V30 3441 N 328.138 -0.959301 -1.25041 0
M  V30 3442 C 329.366 -0.633949 -1.96948 0
M  V30 3443 C 329.781 0.794916 -1.7125 0
M  V30 3444 O 329.138 1.53231 -0.991287 0
M  V30 3445 C 329.189 -0.888805 -3.50403 0
M  V30 3446 O 328.91 -2.26149 -3.75218 0
M  V30 3447 C 330.411 -0.576482 -4.39536 0
M  V30 3448 H 327.631 -0.237263 -0.627652 0
M  V30 3449 H 330.175 -1.28495 -1.59089 0
M  V30 3450 H 328.33 -0.284145 -3.86357 0
M  V30 3451 H 328.744 -2.33514 -4.6965 0
M  V30 3452 H 330.218 -0.805314 -5.46094 0
M  V30 3453 H 330.695 0.489075 -4.36468 0
M  V30 3454 H 331.301 -1.16067 -4.09156 0
M  V30 3455 N 329.616 1.39756 -0.72842 0
M  V30 3456 C 330.566 2.2792 -0.0603424 0
M  V30 3457 C 331.55 1.43922 0.719399 0
M  V30 3458 O 332.742 1.66895 0.589489 0
M  V30 3459 C 329.871 3.32582 0.851104 0
M  V30 3460 C 328.957 4.24049 0.0658641 0
M  V30 3461 N 329.348 4.96653 -0.957578 0
M  V30 3462 C 327.646 4.45013 0.296509 0
M  V30 3463 C 328.347 5.63836 -1.43052 0
M  V30 3464 N 327.323 5.38397 -0.750315 0
M  V30 3465 H 331.125 2.81504 -0.84455 0
M  V30 3466 H 328.639 1.5236 -0.562155 0
M  V30 3467 H 330.636 3.94603 1.34514 0
M  V30 3468 H 329.296 2.80558 1.63454 0
M  V30 3469 H 330.307 5.00297 -1.33877 0
M  V30 3470 H 326.984 4.03943 1.05527 0
M  V30 3471 H 328.374 6.31974 -2.28163 0
M  V30 3472 N 331.094 0.475555 1.50254 0
M  V30 3473 C 332.004 -0.321501 2.32387 0
M  V30 3474 C 333.02 -0.991755 1.42969 0
M  V30 3475 O 334.196 -0.978747 1.76018 0
M  V30 3476 C 331.261 -1.38667 3.17762 0
M  V30 3477 C 330.322 -0.732538 4.23004 0
M  V30 3478 C 329.555 -1.74695 5.04299 0
M  V30 3479 O 329.778 -2.97399 4.86734 0
M  V30 3480 O 328.712 -1.31631 5.8733 0
M  V30 3481 H 332.538 0.350071 3.01676 0
M  V30 3482 H 330.123 0.237321 1.47503 0
M  V30 3483 H 332.005 -2.00354 3.70724 0
M  V30 3484 H 330.68 -2.04163 2.51196 0
M  V30 3485 H 329.587 -0.0765902 3.74022 0
M  V30 3486 H 330.92 -0.120452 4.92053 0
M  V30 3487 N 332.573 -1.56217 0.208337 0
M  V30 3488 C 333.82 -1.97949 -0.42692 0
M  V30 3489 C 334.148 -1.09562 -1.60706 0
M  V30 3490 O 333.403 -0.137616 -1.95216 0
M  V30 3491 C 333.702 -3.45441 -0.916797 0
M  V30 3492 C 333.368 -4.50646 0.151391 0
M  V30 3493 C 332.03 -4.79139 0.444867 0
M  V30 3494 C 334.382 -5.13811 0.874492 0
M  V30 3495 C 331.71 -5.68084 1.46619 0
M  V30 3496 C 334.062 -6.03861 1.88506 0
M  V30 3497 C 332.726 -6.30704 2.18559 0
M  V30 3498 H 331.996 -0.724345 -0.156221 0
M  V30 3499 H 334.643 -1.89006 0.308084 0
M  V30 3500 H 332.948 -3.51521 -1.73032 0
M  V30 3501 H 334.645 -3.75094 -1.41794 0
M  V30 3502 H 331.235 -4.28511 -0.0875068 0
M  V30 3503 H 335.419 -4.91879 0.660996 0
M  V30 3504 H 330.675 -5.87151 1.7048 0
M  V30 3505 H 334.849 -6.51861 2.45051 0
M  V30 3506 H 332.476 -6.99424 2.97843 0
M  V30 3507 N 334.051 0.0651679 -1.57465 0
M  V30 3508 C 335.297 0.764193 -1.87851 0
M  V30 3509 C 335.63 1.76889 -0.801495 0
M  V30 3510 O 334.905 1.93594 0.187528 0
M  V30 3511 C 335.188 1.46625 -3.28897 0
M  V30 3512 C 335.041 0.477515 -4.47258 0
M  V30 3513 C 336.36 2.4095 -3.68281 0
M  V30 3514 H 333.479 0.276351 -0.683227 0
M  V30 3515 H 336.121 0.0272868 -1.8998 0
M  V30 3516 H 334.271 2.09438 -3.27212 0
M  V30 3517 H 335.943 -0.145922 -4.61069 0
M  V30 3518 H 334.186 -0.206576 -4.33308 0
M  V30 3519 H 334.857 1.0065 -5.42746 0
M  V30 3520 H 337.333 1.88209 -3.71102 0
M  V30 3521 H 336.209 2.87072 -4.67847 0
M  V30 3522 H 336.47 3.26049 -2.98571 0
M  V30 3523 N 335.529 1.53961 0.336706 0
M  V30 3524 C 336.439 1.85432 1.43708 0
M  V30 3525 C 337.455 0.745053 1.57242 0
M  V30 3526 O 338.631 1.03804 1.72588 0
M  V30 3527 C 335.696 2.06349 2.78605 0
M  V30 3528 C 334.757 3.30191 2.74358 0
M  V30 3529 C 333.99 3.50101 4.02822 0
M  V30 3530 O 334.213 2.7371 5.00439 0
M  V30 3531 O 333.147 4.43547 4.06878 0
M  V30 3532 H 336.973 2.78975 1.20028 0
M  V30 3533 H 334.558 1.39701 0.52952 0
M  V30 3534 H 336.44 2.21513 3.58483 0
M  V30 3535 H 335.115 1.15995 3.02203 0
M  V30 3536 H 334.022 3.20425 1.93078 0
M  V30 3537 H 335.355 4.2056 2.55715 0
M  V30 3538 N 337.007 -0.598083 1.45811 0
M  V30 3539 C 338.235 -1.38322 1.53866 0
M  V30 3540 C 338.65 -1.87992 0.174479 0
M  V30 3541 O 338.007 -1.62756 -0.825627 0
M  V30 3542 C 338.058 -2.58125 2.53089 0
M  V30 3543 O 337.779 -2.10516 3.84206 0
M  V30 3544 C 339.28 -3.50869 2.70935 0
M  V30 3545 H 336.5 -0.423093 0.520801 0
M  V30 3546 H 339.044 -0.728527 1.91083 0
M  V30 3547 H 337.199 -3.19615 2.18917 0
M  V30 3548 H 337.613 -2.88425 4.38077 0
M  V30 3549 H 339.087 -4.31451 3.44317 0
M  V30 3550 H 339.564 -4.01822 1.77301 0
M  V30 3551 H 340.17 -2.95225 3.06141 0
M  V30 3552 N 338.485 -1.33259 -0.841409 0
M  V30 3553 C 339.448 -1.23221 -1.9326 0
M  V30 3554 C 340.448 -0.151895 -1.60081 0
M  V30 3555 O 341.638 -0.403246 -1.69468 0
M  V30 3556 C 338.77 -0.898123 -3.28856 0
M  V30 3557 H 339.963 -2.2021 -2.03587 0
M  V30 3558 H 337.516 -1.17281 -1.03319 0
M  V30 3559 H 338.251 0.0693841 -3.24226 0
M  V30 3560 H 338.036 -1.67934 -3.54317 0
M  V30 3561 H 339.526 -0.852563 -4.08805 0
M  V30 3562 N 339.963 1.05934 -1.16686 0
M  V30 3563 C 341.188 1.83029 -0.975455 0
M  V30 3564 C 341.613 1.82096 0.471452 0
M  V30 3565 O 340.971 1.22443 1.33706 0
M  V30 3566 C 341.019 3.27372 -1.51195 0
M  V30 3567 O 340.123 4.06054 -0.720701 0
M  V30 3568 H 339.464 0.566194 -0.346872 0
M  V30 3569 H 341.994 1.33541 -1.55009 0
M  V30 3570 H 342.004 3.78186 -1.53099 0
M  V30 3571 H 340.679 3.27366 -2.56523 0
M  V30 3572 H 339.256 3.64812 -0.772458 0
M  V30 3573 N 341.441 0.965919 1.2453 0
M  V30 3574 C 342.666 0.643971 1.97149 0
M  V30 3575 C 343.091 -0.779487 1.71189 0
M  V30 3576 O 342.449 -1.5288 0.974553 0
M  V30 3577 C 342.497 0.922557 3.48599 0
M  V30 3578 O 341.601 0.00707672 4.12399 0
M  V30 3579 H 340.942 0.243647 0.617683 0
M  V30 3580 H 343.472 1.29558 1.58353 0
M  V30 3581 H 343.482 0.853373 3.98976 0
M  V30 3582 H 342.157 1.95996 3.66822 0
M  V30 3583 H 340.734 0.12943 3.72675 0
M  V30 3584 N 342.919 -1.39368 0.735821 0
M  V30 3585 C 344.167 -2.00101 0.283562 0
M  V30 3586 C 344.488 -1.5868 -1.13338 0
M  V30 3587 O 343.758 -0.835423 -1.77193 0
M  V30 3588 H 342.338 -0.740024 0.101851 0
M  V30 3589 H 345 -1.70404 0.945962 0
M  V30 3590 H 344.096 -3.10323 0.332604 0
M  V30 3591 N 344.397 -0.483516 -1.5 0
M  V30 3592 C 345.345 0.318061 -2.30415 0
M  V30 3593 C 346.339 0.978988 -1.38247 0
M  V30 3594 O 347.545 0.908673 -1.55381 0
M  V30 3595 H 343.92 0.121419 -0.742133 0
M  V30 3596 H 345.891 -0.380403 -2.95965 0
M  V30 3597 C 344.64 1.38013 -3.19136 0
M  V30 3598 H 343.963 0.880952 -3.89973 0
M  V30 3599 H 345.403 1.91332 -3.78375 0
M  V30 3600 C 343.862 2.38884 -2.37563 0
M  V30 3601 O 344.392 3.44412 -2.06744 0
M  V30 3602 N 342.598 2.10912 -1.99911 0
M  V30 3603 H 342.145 1.25118 -2.25174 0
M  V30 3604 H 342.103 2.78635 -1.45636 0
M  V30 3605 N 345.875 1.56104 -0.216619 0
M  V30 3606 C 347.286 1.844 0.292128 0
M  V30 3607 C 347.637 1.13788 1.59833 0
M  V30 3608 O 346.762 0.405888 2.12559 0
M  V30 3609 C 347.357 3.3452 0.53681 0
M  V30 3610 C 345.916 3.63151 0.989876 0
M  V30 3611 C 345.063 2.77255 0.0502302 0
M  V30 3612 H 348.014 1.52481 -0.439926 0
M  V30 3613 H 348.035 3.54459 1.38345 0
M  V30 3614 H 347.547 3.85885 -0.414031 0
M  V30 3615 H 345.648 3.17238 1.95425 0
M  V30 3616 H 345.761 4.71177 0.867698 0
M  V30 3617 H 344.125 2.48555 0.556117 0
M  V30 3618 H 344.908 3.31416 -0.89544 0
M  V30 3619 N 347.353 -0.0568162 1.57498 0
M  V30 3620 C 348.283 -1.06593 2.0775 0
M  V30 3621 C 349.264 -1.39448 0.974082 0
M  V30 3622 O 350.449 -1.48815 1.24771 0
M  V30 3623 C 347.579 -2.37509 2.5339 0
M  V30 3624 C 346.533 -2.1897 3.67745 0
M  V30 3625 C 345.859 -3.55402 3.99492 0
M  V30 3626 C 347.159 -1.59859 4.97235 0
M  V30 3627 H 348.853 -0.647706 2.9231 0
M  V30 3628 H 346.399 -0.310116 1.40621 0
M  V30 3629 H 348.352 -3.08409 2.87162 0
M  V30 3630 H 347.076 -2.8134 1.65878 0
M  V30 3631 H 345.735 -1.50508 3.3428 0
M  V30 3632 H 345.383 -3.9683 3.09088 0
M  V30 3633 H 345.083 -3.43831 4.76502 0
M  V30 3634 H 346.607 -4.27708 4.35773 0
M  V30 3635 H 348.021 -2.20642 5.29141 0
M  V30 3636 H 346.418 -1.58942 5.78669 0
M  V30 3637 H 347.488 -0.561506 4.81638 0
M  V30 3638 N 348.832 -1.54138 -0.328536 0
M  V30 3639 C 350.109 -1.62749 -1.08499 0
M  V30 3640 C 350.489 -0.458198 -2.06067 0
M  V30 3641 O 349.837 0.548046 -2.2183 0
M  V30 3642 C 350.047 -2.99519 -1.79135 0
M  V30 3643 C 351.395 -3.55394 -2.32337 0
M  V30 3644 O 352.419 -3.01792 -1.89209 0
M  V30 3645 O 351.278 -4.49186 -3.11279 0
M  V30 3646 H 348.372 -0.65886 -0.499832 0
M  V30 3647 H 350.918 -1.66484 -0.328826 0
M  V30 3648 H 349.69 -3.76061 -1.08139 0
M  V30 3649 H 349.313 -2.99441 -2.61574 0
M  V30 3650 N 350.31 0.590341 -1.46126 0
M  V30 3651 C 351.557 1.34882 -1.5104 0
M  V30 3652 C 351.885 1.93849 -0.159021 0
M  V30 3653 O 351.14 1.76544 0.844436 0
M  V30 3654 C 351.439 2.5032 -2.55097 0
M  V30 3655 C 351.105 2.09394 -3.99331 0
M  V30 3656 C 349.767 1.97947 -4.38601 0
M  V30 3657 C 352.119 1.77712 -4.89967 0
M  V30 3658 C 349.447 1.53065 -5.66381 0
M  V30 3659 C 351.799 1.34312 -6.18177 0
M  V30 3660 C 350.463 1.21436 -6.56361 0
M  V30 3661 H 349.733 0.493568 -0.552695 0
M  V30 3662 H 352.38 0.665539 -1.79563 0
M  V30 3663 H 350.685 3.24062 -2.20207 0
M  V30 3664 H 352.382 3.08541 -2.56132 0
M  V30 3665 H 348.972 2.19235 -3.68285 0
M  V30 3666 H 353.156 1.85445 -4.60352 0
M  V30 3667 H 348.412 1.41733 -5.94745 0
M  V30 3668 H 352.586 1.08849 -6.87841 0
M  V30 3669 H 350.213 0.864345 -7.5527 0
M  V30 3670 N 351.788 1.33704 0.83433 0
M  V30 3671 C 353.035 1.25417 1.58987 0
M  V30 3672 C 353.363 -0.178869 1.93676 0
M  V30 3673 O 352.618 -1.13723 1.59265 0
M  V30 3674 C 352.917 2.07926 2.90692 0
M  V30 3675 C 352.583 3.57066 2.75345 0
M  V30 3676 C 351.245 3.97724 2.70867 0
M  V30 3677 C 353.597 4.51817 2.59828 0
M  V30 3678 C 350.925 5.31344 2.48778 0
M  V30 3679 C 353.277 5.85604 2.39272 0
M  V30 3680 C 351.941 6.25439 2.33199 0
M  V30 3681 H 351.211 0.458934 0.581774 0
M  V30 3682 H 353.858 1.65335 0.966261 0
M  V30 3683 H 352.163 1.608 3.57282 0
M  V30 3684 H 353.86 1.98868 3.48213 0
M  V30 3685 H 350.45 3.24785 2.79665 0
M  V30 3686 H 354.634 4.21311 2.62319 0
M  V30 3687 H 349.89 5.61241 2.42526 0
M  V30 3688 H 354.064 6.58623 2.2625 0
M  V30 3689 H 351.691 7.28914 2.15843 0
M  V30 3690 N 353.266 -1.05314 1.17247 0
M  V30 3691 C 354.677 -1.59753 0.96623 0
M  V30 3692 C 355.028 -1.9005 -0.487378 0
M  V30 3693 O 354.153 -1.68126 -1.36245 0
M  V30 3694 C 354.748 -2.90249 1.74759 0
M  V30 3695 C 353.307 -3.41352 1.58606 0
M  V30 3696 C 352.454 -2.15103 1.75002 0
M  V30 3697 H 355.405 -0.881406 1.31973 0
M  V30 3698 H 355.426 -3.60097 1.22925 0
M  V30 3699 H 354.938 -2.68166 2.8055 0
M  V30 3700 H 353.039 -3.68474 0.552985 0
M  V30 3701 H 353.152 -4.16019 2.37624 0
M  V30 3702 H 351.516 -2.25804 1.17833 0
M  V30 3703 H 352.299 -1.95491 2.82202 0
M  V30 3704 N 354.744 -0.972509 -1.24016 0
M  V30 3705 C 355.993 -0.632603 -1.91523 0
M  V30 3706 C 356.306 0.836641 -1.76804 0
M  V30 3707 O 357.512 1.28728 -2.39043 0
M  V30 3708 C 355.968 -1.08082 -3.43287 0
M  V30 3709 C 355.576 -2.57386 -3.66683 0
M  V30 3710 C 357.32 -0.814288 -4.16617 0
M  V30 3711 C 355.227 -2.95915 -5.12043 0
M  V30 3712 H 354.157 -0.232898 -0.717129 0
M  V30 3713 H 356.808 -1.17936 -1.40582 0
M  V30 3714 H 355.19 -0.462339 -3.93292 0
M  V30 3715 H 356.364 -3.24405 -3.27258 0
M  V30 3716 H 354.679 -2.81701 -3.06649 0
M  V30 3717 H 357.276 -1.0781 -5.23718 0
M  V30 3718 H 357.619 0.24955 -4.15551 0
M  V30 3719 H 358.152 -1.39397 -3.72577 0
M  V30 3720 H 354.891 -4.0139 -5.18234 0
M  V30 3721 H 354.411 -2.33584 -5.52448 0
M  V30 3722 H 356.09 -2.86086 -5.80314 0
M  V30 3723 N 356.222 1.38976 -0.743202 0
M  V30 3724 C 357.152 2.33171 -0.123873 0
M  V30 3725 C 358.133 1.54336 0.71516 0
M  V30 3726 O 359.318 1.82696 0.658467 0
M  V30 3727 C 356.448 3.38474 0.777978 0
M  V30 3728 C 355.402 4.27979 0.0424758 0
M  V30 3729 C 354.728 5.2405 1.06189 0
M  V30 3730 C 356.028 5.10155 -1.1198 0
M  V30 3731 H 357.722 2.85213 -0.910709 0
M  V30 3732 H 355.268 1.37133 -0.439388 0
M  V30 3733 H 357.221 4.03328 1.22084 0
M  V30 3734 H 355.945 2.84891 1.59702 0
M  V30 3735 H 354.604 3.64616 -0.380853 0
M  V30 3736 H 354.252 4.66758 1.87472 0
M  V30 3737 H 353.952 5.84785 0.574485 0
M  V30 3738 H 355.476 5.9178 1.50428 0
M  V30 3739 H 356.89 5.68307 -0.75499 0
M  V30 3740 H 355.287 5.80073 -1.53738 0
M  V30 3741 H 356.357 4.44504 -1.93764 0
M  V30 3742 N 357.7 0.491464 1.49741 0
M  V30 3743 C 359.116 0.146835 1.58923 0
M  V30 3744 C 359.316 -1.34804 1.49767 0
M  V30 3745 O 358.372 -2.12317 1.36667 0
M  V30 3746 C 359.685 0.715157 2.92072 0
M  V30 3747 C 361.233 0.680407 3.05515 0
M  V30 3748 C 361.708 1.22663 4.41269 0
M  V30 3749 N 363.199 1.18691 4.47735 0
M  V30 3750 C 363.934 1.57984 5.51207 0
M  V30 3751 N 363.43 2.04824 6.6183 0
M  V30 3752 N 365.223 1.49459 5.41866 0
M  V30 3753 H 357.374 1.46347 1.53936 0
M  V30 3754 H 359.637 0.606453 0.728642 0
M  V30 3755 H 359.343 1.76317 3.04311 0
M  V30 3756 H 359.217 0.17018 3.76816 0
M  V30 3757 H 361.604 -0.358743 2.92911 0
M  V30 3758 H 361.685 1.26242 2.22478 0
M  V30 3759 H 361.329 2.26451 4.54623 0
M  V30 3760 H 361.259 0.620637 5.2293 0
M  V30 3761 H 363.75 0.843605 3.68364 0
M  V30 3762 H 364.063 2.32901 7.3687 0
M  V30 3763 H 362.408 2.08791 6.62896 0
M  V30 3764 H 365.599 1.12692 4.54333 0
M  V30 3765 H 365.772 1.80406 6.22381 0
M  V30 3766 N 359.178 -1.55987 0.224894 0
M  V30 3767 C 360.408 -2.02489 -0.41007 0
M  V30 3768 C 360.816 -1.10391 -1.53657 0
M  V30 3769 O 360.159 -0.106458 -1.83391 0
M  V30 3770 C 360.221 -3.45319 -0.999757 0
M  V30 3771 C 359.885 -4.56999 -0.00827976 0
M  V30 3772 C 360.882 -5.13812 0.793314 0
M  V30 3773 C 358.567 -5.02176 0.111442 0
M  V30 3774 C 360.561 -6.14276 1.7013 0
M  V30 3775 C 358.248 -6.02477 1.02296 0
M  V30 3776 C 359.246 -6.58403 1.81643 0
M  V30 3777 O 358.934 -7.56751 2.71262 0
M  V30 3778 H 358.666 -0.667915 -0.104235 0
M  V30 3779 H 361.22 -2.0257 0.339782 0
M  V30 3780 H 359.45 -3.42318 -1.79876 0
M  V30 3781 H 361.139 -3.7545 -1.54248 0
M  V30 3782 H 361.905 -4.79756 0.711288 0
M  V30 3783 H 357.784 -4.58323 -0.49605 0
M  V30 3784 H 361.328 -6.57854 2.32107 0
M  V30 3785 H 357.225 -6.35954 1.10599 0
M  V30 3786 H 357.993 -7.74286 2.65375 0
M  V30 3787 N 360.656 0.0484629 -1.57525 0
M  V30 3788 C 361.586 1.0549 -2.08313 0
M  V30 3789 C 362.567 1.38929 -0.981463 0
M  V30 3790 O 363.752 1.48151 -1.25558 0
M  V30 3791 C 360.882 2.36162 -2.54646 0
M  V30 3792 C 359.836 2.17016 -3.68901 0
M  V30 3793 C 359.162 3.53278 -4.01371 0
M  V30 3794 C 360.462 1.57219 -4.98076 0
M  V30 3795 H 362.156 0.632195 -2.92649 0
M  V30 3796 H 359.702 0.302654 -1.40784 0
M  V30 3797 H 361.655 3.06882 -2.88793 0
M  V30 3798 H 360.379 2.80456 -1.67368 0
M  V30 3799 H 359.038 1.48733 -3.35073 0
M  V30 3800 H 358.686 3.95185 -3.11188 0
M  V30 3801 H 358.386 3.41299 -4.78318 0
M  V30 3802 H 359.91 4.25391 -4.38035 0
M  V30 3803 H 361.324 2.17832 -5.30304 0
M  V30 3804 H 359.721 1.55871 -5.79503 0
M  V30 3805 H 360.791 0.535956 -4.81929 0
M  V30 3806 N 362.134 1.5431 0.320358 0
M  V30 3807 C 363.545 1.63872 0.894594 0
M  V30 3808 C 363.896 0.534847 1.88769 0
M  V30 3809 O 363.021 -0.331732 2.13842 0
M  V30 3810 C 363.616 2.97049 1.62934 0
M  V30 3811 C 362.175 3.08796 2.15226 0
M  V30 3812 C 361.322 2.59456 0.978671 0
M  V30 3813 H 364.273 1.58398 0.0978544 0
M  V30 3814 H 364.294 2.87388 2.49376 0
M  V30 3815 H 363.806 3.7737 0.906302 0
M  V30 3816 H 361.907 2.33156 2.90636 0
M  V30 3817 H 362.02 4.14649 2.40006 0
M  V30 3818 H 360.384 2.1543 1.35875 0
M  V30 3819 H 361.167 3.42237 0.269895 0
M  V30 3820 N 363.613 -0.582584 1.46437 0
M  V30 3821 C 364.561 -1.71272 1.5738 0
M  V30 3822 C 365.555 -1.63524 0.44229 0
M  V30 3823 O 366.761 -1.69016 0.619166 0
M  V30 3824 H 363.136 -0.566273 0.494813 0
M  V30 3825 H 365.107 -1.59174 2.52401 0
M  V30 3826 C 363.856 -3.09658 1.58136 0
M  V30 3827 H 363.179 -3.16291 2.44541 0
M  V30 3828 H 364.619 -3.88494 1.69847 0
M  V30 3829 C 363.078 -3.3547 0.310026 0
M  V30 3830 O 363.608 -3.97199 -0.599683 0
M  V30 3831 N 361.814 -2.89925 0.197901 0
M  V30 3832 H 361.361 -2.39873 0.93909 0
M  V30 3833 H 361.319 -3.07568 -0.65185 0
M  V30 3834 N 365.091 -1.34144 -0.827227 0
M  V30 3835 C 366.502 -1.23557 -1.39966 0
M  V30 3836 C 366.853 0.140731 -1.95695 0
M  V30 3837 O 365.978 1.04087 -1.89723 0
M  V30 3838 C 366.573 -2.23708 -2.54441 0
M  V30 3839 C 365.132 -2.16924 -3.07605 0
M  V30 3840 C 364.279 -2.10549 -1.80456 0
M  V30 3841 H 367.23 -1.45573 -0.631991 0
M  V30 3842 H 367.251 -1.85157 -3.32411 0
M  V30 3843 H 366.763 -3.23866 -2.13851 0
M  V30 3844 H 364.864 -1.20107 -3.52711 0
M  V30 3845 H 364.977 -3.07988 -3.66988 0
M  V30 3846 H 363.341 -1.56203 -2.01178 0
M  V30 3847 H 364.124 -3.12535 -1.42046 0
M  V30 3848 N 366.569 1.04691 -1.17803 0
M  V30 3849 C 367.532 2.10724 -0.901545 0
M  V30 3850 C 368.532 1.6042 0.110437 0
M  V30 3851 O 369.722 1.7377 -0.122303 0
M  V30 3852 C 366.854 3.39084 -0.351409 0
M  V30 3853 H 368.047 2.36686 -1.84174 0
M  V30 3854 H 365.6 1.21015 -0.98919 0
M  V30 3855 H 366.335 3.18782 0.59569 0
M  V30 3856 H 366.12 3.76909 -1.08083 0
M  V30 3857 H 367.61 4.17227 -0.176451 0
M  V30 3858 N 368.047 0.979072 1.23499 0
M  V30 3859 C 368.977 0.537606 2.27227 0
M  V30 3860 C 369.958 -0.428539 1.64613 0
M  V30 3861 O 371.143 -0.322191 1.91509 0
M  V30 3862 C 368.273 -0.162052 3.46922 0
M  V30 3863 C 367.227 0.721242 4.21879 0
M  V30 3864 C 366.553 -0.110555 5.34586 0
M  V30 3865 C 367.853 2.01141 4.82016 0
M  V30 3866 H 369.547 1.40462 2.64406 0
M  V30 3867 H 367.093 0.67684 1.27102 0
M  V30 3868 H 369.046 -0.482192 4.18632 0
M  V30 3869 H 367.77 -1.06351 3.08799 0
M  V30 3870 H 366.429 1.02482 3.51984 0
M  V30 3871 H 366.077 -1.0125 4.92704 0
M  V30 3872 H 365.777 0.477325 5.85658 0
M  V30 3873 H 367.301 -0.425107 6.09118 0
M  V30 3874 H 368.715 1.75612 5.45741 0
M  V30 3875 H 367.112 2.54695 5.43369 0
M  V30 3876 H 368.182 2.69909 4.02836 0
M  V30 3877 N 369.525 -1.3858 0.750561 0
M  V30 3878 C 370.457 -2.29057 0.0810714 0
M  V30 3879 C 371.47 -1.47596 -0.686973 0
M  V30 3880 O 372.659 -1.70495 -0.528563 0
M  V30 3881 C 369.759 -3.26475 -0.909247 0
M  V30 3882 C 368.932 -4.36945 -0.199478 0
M  V30 3883 C 367.991 -5.14572 -1.10011 0
M  V30 3884 O 367.017 -5.66321 -0.57177 0
M  V30 3885 N 368.219 -5.27262 -2.42849 0
M  V30 3886 H 370.984 -2.87153 0.858087 0
M  V30 3887 H 368.545 -1.50328 0.60109 0
M  V30 3888 H 370.537 -3.75285 -1.51471 0
M  V30 3889 H 369.107 -2.69298 -1.58736 0
M  V30 3890 H 368.327 -3.8981 0.586664 0
M  V30 3891 H 369.615 -5.07963 0.291783 0
M  V30 3892 H 369.013 -4.86763 -2.88233 0
M  V30 3893 H 367.57 -5.79456 -2.98453 0
M  V30 3894 N 371.003 -0.499398 -1.49478 0
M  V30 3895 C 372.419 -0.155261 -1.58843 0
M  V30 3896 C 372.619 1.34008 -1.50479 0
M  V30 3897 O 371.675 2.11589 -1.37791 0
M  V30 3898 C 372.988 -0.730636 -2.91689 0
M  V30 3899 C 374.536 -0.696599 -3.0515 0
M  V30 3900 C 375.011 -1.25001 -4.40612 0
M  V30 3901 N 376.502 -1.21064 -4.47099 0
M  V30 3902 C 377.237 -1.60905 -5.50361 0
M  V30 3903 N 376.733 -2.08331 -6.60735 0
M  V30 3904 N 378.526 -1.52331 -5.41065 0
M  V30 3905 H 370.677 -1.47162 -1.53158 0
M  V30 3906 H 372.94 -0.610309 -0.725415 0
M  V30 3907 H 372.646 -1.77928 -3.03372 0
M  V30 3908 H 372.52 -0.190161 -3.7672 0
M  V30 3909 H 374.907 0.343204 -2.93097 0
M  V30 3910 H 374.988 -1.2742 -2.21806 0
M  V30 3911 H 374.632 -2.28859 -4.53416 0
M  V30 3912 H 374.562 -0.64836 -5.22593 0
M  V30 3913 H 377.053 -0.863128 -3.67911 0
M  V30 3914 H 377.366 -2.36805 -7.35624 0
M  V30 3915 H 375.711 -2.12304 -6.6178 0
M  V30 3916 H 378.902 -1.151 -4.53729 0
M  V30 3917 H 379.075 -1.83704 -6.21415 0
M  V30 3918 N 372.481 1.55866 -0.233164 0
M  V30 3919 C 373.728 1.98603 0.395374 0
M  V30 3920 C 374.056 1.12105 1.58942 0
M  V30 3921 O 373.311 0.168656 1.94972 0
M  V30 3922 C 373.61 3.46856 0.861724 0
M  V30 3923 C 373.276 4.50348 -0.223066 0
M  V30 3924 C 371.938 4.78371 -0.521038 0
M  V30 3925 C 374.29 5.12355 -0.956124 0
M  V30 3926 C 371.618 5.6568 -1.55638 0
M  V30 3927 C 373.97 6.00786 -1.98089 0
M  V30 3928 C 372.634 6.27148 -2.28565 0
M  V30 3929 H 371.904 0.726739 0.144677 0
M  V30 3930 H 374.551 1.88491 -0.338114 0
M  V30 3931 H 372.856 3.5423 1.67418 0
M  V30 3932 H 374.553 3.77302 1.35809 0
M  V30 3933 H 371.143 4.28596 0.0193234 0
M  V30 3934 H 375.327 4.90765 -0.739166 0
M  V30 3935 H 370.583 5.84365 -1.798 0
M  V30 3936 H 374.757 6.4788 -2.55391 0
M  V30 3937 H 372.384 6.94597 -3.08932 0
M  V30 3938 N 373.959 -0.0401083 1.57549 0
M  V30 3939 C 374.906 -1.04413 2.05831 0
M  V30 3940 C 375.876 -1.36585 0.945184 0
M  V30 3941 O 377.061 -1.47112 1.21502 0
M  V30 3942 C 374.201 -2.34336 2.53339 0
M  V30 3943 C 373.314 -2.08419 3.78398 0
M  V30 3944 C 372.449 -3.32133 4.14561 0
M  V30 3945 C 371.488 -3.01721 5.3257 0
M  V30 3946 N 370.625 -4.17855 5.64218 0
M  V30 3947 H 375.465 -0.625442 2.91363 0
M  V30 3948 H 373.002 -0.297218 1.44066 0
M  V30 3949 H 374.96 -3.10234 2.78946 0
M  V30 3950 H 373.59 -2.73948 1.7074 0
M  V30 3951 H 372.642 -1.23069 3.59942 0
M  V30 3952 H 373.954 -1.81978 4.64419 0
M  V30 3953 H 373.108 -4.16406 4.41238 0
M  V30 3954 H 371.847 -3.61678 3.2717 0
M  V30 3955 H 370.852 -2.15849 5.05657 0
M  V30 3956 H 372.077 -2.73466 6.21605 0
M  V30 3957 H 370.023 -4.47372 4.79786 0
M  V30 3958 H 369.94 -3.94798 6.44725 0
M  V30 3959 H 371.208 -5.03033 5.95465 0
M  V30 3960 N 375.437 -1.54477 -0.31217 0
M  V30 3961 C 376.4 -1.83923 -1.36766 0
M  V30 3962 C 377.4 -0.711563 -1.44199 0
M  V30 3963 O 378.59 -0.979866 -1.44029 0
M  V30 3964 C 375.722 -2.0095 -2.75376 0
M  V30 3965 H 376.915 -2.78239 -1.11906 0
M  V30 3966 H 374.468 -1.46369 -0.548257 0
M  V30 3967 H 375.203 -1.08883 -3.05475 0
M  V30 3968 H 374.988 -2.83018 -2.71373 0
M  V30 3969 H 376.478 -2.2514 -3.51713 0
M  V30 3970 N 376.915 0.57481 -1.46744 0
M  V30 3971 C 378.162 1.33272 -1.52462 0
M  V30 3972 C 378.49 1.93669 -0.179572 0
M  V30 3973 O 377.745 1.7743 0.825664 0
M  V30 3974 C 378.044 2.476 -2.57738 0
M  V30 3975 C 377.71 2.05146 -4.01529 0
M  V30 3976 C 376.372 1.93284 -4.40676 0
M  V30 3977 C 378.724 1.72506 -4.91824 0
M  V30 3978 C 376.052 1.47049 -5.67973 0
M  V30 3979 C 378.404 1.27748 -6.19567 0
M  V30 3980 C 377.068 1.14468 -6.57612 0
M  V30 3981 H 376.338 0.487678 -0.557899 0
M  V30 3982 H 378.985 0.646456 -1.80259 0
M  V30 3983 H 377.29 3.21708 -2.23632 0
M  V30 3984 H 378.987 3.05807 -2.5939 0
M  V30 3985 H 375.577 2.15316 -3.7059 0
M  V30 3986 H 379.761 1.80552 -4.62293 0
M  V30 3987 H 375.017 1.35417 -5.96215 0
M  V30 3988 H 379.191 1.01547 -6.88957 0
M  V30 3989 H 376.818 0.78419 -7.56145 0
M  V30 3990 N 378.394 1.34581 0.820102 0
M  V30 3991 C 379.342 1.26401 1.95258 0
M  V30 3992 C 380.336 0.161553 1.68628 0
M  V30 3993 O 381.542 0.326703 1.7701 0
M  V30 3994 H 377.917 0.392749 0.64129 0
M  V30 3995 H 379.888 2.22105 1.99279 0
M  V30 3996 C 378.637 1.03919 3.31807 0
M  V30 3997 H 377.96 1.87984 3.52848 0
M  V30 3998 H 379.4 1.02232 4.11491 0
M  V30 3999 C 377.859 -0.257433 3.35915 0
M  V30 4000 O 378.389 -1.25784 3.81499 0
M  V30 4001 N 376.595 -0.291524 2.89134 0
M  V30 4002 H 376.142 0.523161 2.52232 0
M  V30 4003 H 376.1 -1.15883 2.92264 0
M  V30 4004 N 379.872 -1.04064 1.18357 0
M  V30 4005 C 380.804 -2.12114 0.868358 0
M  V30 4006 C 381.817 -1.62247 -0.134045 0
M  V30 4007 O 383.006 -1.78253 0.0937933 0
M  V30 4008 C 380.106 -3.37773 0.276132 0
M  V30 4009 C 379.279 -4.16874 1.3242 0
M  V30 4010 C 378.338 -5.20861 0.747662 0
M  V30 4011 O 377.364 -5.51141 1.42239 0
M  V30 4012 N 378.566 -5.78715 -0.454823 0
M  V30 4013 H 381.331 -2.39748 1.79836 0
M  V30 4014 H 378.892 -1.20258 1.08396 0
M  V30 4015 H 380.884 -4.04513 -0.123133 0
M  V30 4016 H 379.454 -3.07581 -0.557895 0
M  V30 4017 H 378.674 -3.45456 1.89878 0
M  V30 4018 H 379.962 -4.66516 2.03078 0
M  V30 4019 H 379.36 -5.56415 -1.02073 0
M  V30 4020 H 377.917 -6.46921 -0.79601 0
M  V30 4021 N 381.35 -0.985608 -1.22978 0
M  V30 4022 C 382.766 -0.695104 -1.43668 0
M  V30 4023 C 382.966 0.736866 -1.87543 0
M  V30 4024 O 382.022 1.50868 -2.02473 0
M  V30 4025 C 383.335 -1.69447 -2.48412 0
M  V30 4026 C 384.883 -1.70909 -2.62219 0
M  V30 4027 C 385.358 -2.6969 -3.70178 0
M  V30 4028 N 386.849 -2.6824 -3.77626 0
M  V30 4029 C 387.584 -3.41339 -4.60733 0
M  V30 4030 N 387.08 -4.24015 -5.4789 0
M  V30 4031 N 388.873 -3.30079 -4.54977 0
M  V30 4032 H 381.024 -1.91054 -0.928016 0
M  V30 4033 H 383.287 -0.823553 -0.469536 0
M  V30 4034 H 382.993 -2.7188 -2.23102 0
M  V30 4035 H 382.867 -1.48147 -3.46889 0
M  V30 4036 H 385.254 -0.691785 -2.86877 0
M  V30 4037 H 385.335 -1.96276 -1.6404 0
M  V30 4038 H 384.979 -3.71566 -3.46268 0
M  V30 4039 H 384.909 -2.41595 -4.67909 0
M  V30 4040 H 387.4 -2.08243 -3.15346 0
M  V30 4041 H 387.713 -4.76636 -6.08308 0
M  V30 4042 H 386.058 -4.28104 -5.47496 0
M  V30 4043 H 389.249 -2.64937 -3.85909 0
M  V30 4044 H 389.422 -3.87308 -5.19516 0
M  V30 4045 N 382.828 1.3818 -0.7579 0
M  V30 4046 C 384.075 2.00019 -0.315985 0
M  V30 4047 C 384.403 1.60163 1.10355 0
M  V30 4048 O 383.658 0.83264 1.77103 0
M  V30 4049 C 383.957 3.55252 -0.391218 0
M  V30 4050 C 383.623 4.14834 -1.76702 0
M  V30 4051 C 382.285 4.30821 -2.14353 0
M  V30 4052 C 384.637 4.47658 -2.66931 0
M  V30 4053 C 381.965 4.76928 -3.41696 0
M  V30 4054 C 384.317 4.95184 -3.93669 0
M  V30 4055 C 382.981 5.09377 -4.31383 0
M  V30 4056 H 382.251 0.731923 -0.115627 0
M  V30 4057 H 384.898 1.65161 -0.969223 0
M  V30 4058 H 383.203 3.90273 0.34558 0
M  V30 4059 H 384.9 4.00988 -0.030805 0
M  V30 4060 H 381.49 4.02808 -1.46435 0
M  V30 4061 H 385.674 4.34904 -2.39106 0
M  V30 4062 H 380.93 4.86103 -3.70829 0
M  V30 4063 H 385.104 5.19551 -4.63724 0
M  V30 4064 H 382.731 5.44865 -5.30119 0
M  V30 4065 N 384.306 0.507319 1.49211 0
M  V30 4066 C 385.236 -0.256939 2.32082 0
M  V30 4067 C 386.217 -0.956609 1.40652 0
M  V30 4068 O 387.402 -0.946788 1.69557 0
M  V30 4069 C 384.532 -1.31802 3.21318 0
M  V30 4070 C 383.486 -0.737855 4.21592 0
M  V30 4071 C 382.812 -1.89992 4.99807 0
M  V30 4072 C 384.112 0.275325 5.21574 0
M  V30 4073 H 385.806 0.434798 2.96226 0
M  V30 4074 H 383.352 0.210546 1.42452 0
M  V30 4075 H 385.305 -1.86045 3.78107 0
M  V30 4076 H 384.029 -2.03903 2.5513 0
M  V30 4077 H 382.688 -0.217126 3.65956 0
M  V30 4078 H 382.336 -2.60877 4.30061 0
M  V30 4079 H 382.036 -1.51777 5.6766 0
M  V30 4080 H 383.56 -2.44657 5.59442 0
M  V30 4081 H 384.974 -0.179193 5.7302 0
M  V30 4082 H 383.371 0.573649 5.97352 0
M  V30 4083 H 384.441 1.18903 4.70096 0
M  V30 4084 N 385.784 -1.5574 0.241426 0
M  V30 4085 C 387.03 -1.99846 -0.378555 0
M  V30 4086 C 387.385 -1.12665 -1.55963 0
M  V30 4087 O 386.678 -0.180966 -1.90743 0
M  V30 4088 C 386.872 -3.47308 -0.843317 0
M  V30 4089 C 386.701 -4.48756 0.291178 0
M  V30 4090 C 385.471 -4.9949 0.764077 0
M  V30 4091 C 387.669 -5.02039 1.11631 0
M  V30 4092 N 385.651 -5.84676 1.87156 0
M  V30 4093 C 387.022 -5.84343 2.07226 0
M  V30 4094 C 389.077 -4.84354 1.15349 0
M  V30 4095 C 387.78 -6.50851 3.06245 0
M  V30 4096 C 389.806 -5.51636 2.13195 0
M  V30 4097 C 389.168 -6.33724 3.07528 0
M  V30 4098 H 385.267 -0.774968 -0.104634 0
M  V30 4099 H 387.851 -1.91385 0.357751 0
M  V30 4100 H 386.022 -3.56178 -1.54893 0
M  V30 4101 H 387.754 -3.78299 -1.43779 0
M  V30 4102 H 384.509 -4.72311 0.349175 0
M  V30 4103 H 384.933 -6.31967 2.42789 0
M  V30 4104 H 389.575 -4.20525 0.438057 0
M  V30 4105 H 387.293 -7.1385 3.78739 0
M  V30 4106 H 390.879 -5.39909 2.16771 0
M  V30 4107 H 389.759 -6.84867 3.82003 0
M  V30 4108 N 387.262 0.0317525 -1.57568 0
M  V30 4109 C 388.509 0.723104 -1.89149 0
M  V30 4110 C 388.837 1.75504 -0.838377 0
M  V30 4111 O 388.092 1.95037 0.160982 0
M  V30 4112 C 388.391 1.43167 -3.27472 0
M  V30 4113 C 388.057 0.535972 -4.47703 0
M  V30 4114 C 386.719 0.289262 -4.8033 0
M  V30 4115 C 389.071 -0.0826125 -5.21135 0
M  V30 4116 C 386.399 -0.584853 -5.83778 0
M  V30 4117 C 388.751 -0.944414 -6.25511 0
M  V30 4118 C 387.415 -1.20061 -6.56614 0
M  V30 4119 H 386.685 0.264602 -0.692146 0
M  V30 4120 H 389.332 -0.0169496 -1.91492 0
M  V30 4121 H 387.637 2.24497 -3.21105 0
M  V30 4122 H 389.334 1.97209 -3.49155 0
M  V30 4123 H 385.924 0.738414 -4.22191 0
M  V30 4124 H 390.108 0.0950302 -4.96209 0
M  V30 4125 H 385.364 -0.79168 -6.06253 0
M  V30 4126 H 389.538 -1.43026 -6.81554 0
M  V30 4127 H 387.165 -1.87967 -7.36595 0
M  V30 4128 N 388.74 1.54641 0.303973 0
M  V30 4129 C 389.67 1.88386 1.3796 0
M  V30 4130 C 390.651 0.742485 1.5304 0
M  V30 4131 O 391.836 0.997959 1.66597 0
M  V30 4132 C 388.966 2.12854 2.74427 0
M  V30 4133 C 387.92 3.28702 2.74115 0
M  V30 4134 C 387.246 3.38582 4.13844 0
M  V30 4135 C 388.546 4.65881 2.3612 0
M  V30 4136 H 390.24 2.78474 1.09966 0
M  V30 4137 H 387.786 1.33988 0.527556 0
M  V30 4138 H 389.739 2.35047 3.49758 0
M  V30 4139 H 388.463 1.19535 3.03939 0
M  V30 4140 H 387.122 3.06428 2.0124 0
M  V30 4141 H 386.77 2.42784 4.40528 0
M  V30 4142 H 386.47 4.16453 4.14537 0
M  V30 4143 H 387.994 3.63031 4.90959 0
M  V30 4144 H 389.408 4.87823 3.01167 0
M  V30 4145 H 387.805 5.46444 2.48031 0
M  V30 4146 H 388.875 4.66799 1.3125 0
M  V30 4147 N 390.218 -0.567019 1.47046 0
M  V30 4148 C 391.15 -1.68985 1.54844 0
M  V30 4149 C 392.163 -1.56869 0.435431 0
M  V30 4150 O 393.352 -1.64006 0.70457 0
M  V30 4151 C 390.452 -3.07373 1.42742 0
M  V30 4152 C 389.625 -3.45339 2.6844 0
M  V30 4153 C 388.684 -4.62849 2.50314 0
M  V30 4154 O 387.71 -4.67922 3.24095 0
M  V30 4155 N 388.912 -5.58726 1.57499 0
M  V30 4156 H 391.677 -1.62745 2.51663 0
M  V30 4157 H 389.238 -0.753411 1.43302 0
M  V30 4158 H 391.23 -3.83803 1.28365 0
M  V30 4159 H 389.8 -3.07893 0.540445 0
M  V30 4160 H 389.02 -2.58455 2.97648 0
M  V30 4161 H 390.308 -3.67476 3.51907 0
M  V30 4162 H 389.706 -5.57376 0.966876 0
M  V30 4163 H 388.263 -6.34523 1.49078 0
M  V30 4164 N 391.696 -1.35014 -0.812953 0
M  V30 4165 C 392.643 -1.27412 -1.92444 0
M  V30 4166 C 393.613 -0.14733 -1.65445 0
M  V30 4167 O 394.798 -0.329974 -1.87925 0
M  V30 4168 C 391.938 -1.04558 -3.28879 0
M  V30 4169 C 391.051 -2.26101 -3.68106 0
M  V30 4170 C 390.186 -1.96449 -4.9354 0
M  V30 4171 C 389.225 -3.14081 -5.25376 0
M  V30 4172 N 388.362 -2.84246 -6.41988 0
M  V30 4173 H 393.202 -2.22463 -1.98278 0
M  V30 4174 H 390.739 -1.10593 -0.969933 0
M  V30 4175 H 392.697 -0.893413 -4.07522 0
M  V30 4176 H 391.327 -0.131719 -3.22531 0
M  V30 4177 H 390.379 -2.52204 -2.84775 0
M  V30 4178 H 391.691 -3.13959 -3.87597 0
M  V30 4179 H 390.845 -1.78026 -5.79993 0
M  V30 4180 H 389.584 -1.05867 -4.76071 0
M  V30 4181 H 388.589 -3.33089 -4.37415 0
M  V30 4182 H 389.814 -4.05455 -5.44778 0
M  V30 4183 H 387.76 -1.96252 -6.25956 0
M  V30 4184 H 387.677 -3.65637 -6.61699 0
M  V30 4185 H 388.945 -2.6935 -7.31485 0
M  V30 4186 N 393.175 1.03435 -1.18907 0
M  V30 4187 C 394.403 1.80381 -1.01342 0
M  V30 4188 C 394.818 1.83649 0.438005 0
M  V30 4189 O 394.175 1.27655 1.30424 0
M  V30 4190 C 394.226 3.25689 -1.56873 0
M  V30 4191 O 393.947 3.22673 -2.96334 0
M  V30 4192 C 395.448 4.19255 -1.44014 0
M  V30 4193 H 392.668 0.56784 -0.35749 0
M  V30 4194 H 395.212 1.30317 -1.576 0
M  V30 4195 H 393.367 3.72962 -1.04777 0
M  V30 4196 H 393.781 4.13748 -3.22355 0
M  V30 4197 H 395.255 5.19123 -1.87657 0
M  V30 4198 H 395.732 4.37467 -0.389815 0
M  V30 4199 H 396.338 3.77851 -1.95214 0
M  V30 4200 N 394.653 0.992116 1.22453 0
M  V30 4201 C 395.899 0.668523 1.91464 0
M  V30 4202 C 396.232 -0.797313 1.77078 0
M  V30 4203 O 395.507 -1.5765 1.13916 0
M  V30 4204 C 395.79 1.07424 3.43703 0
M  V30 4205 C 395.643 2.59857 3.67143 0
M  V30 4206 C 396.962 0.626891 4.35612 0
M  V30 4207 H 394.081 0.244341 0.695318 0
M  V30 4208 H 396.723 1.2355 1.44345 0
M  V30 4209 H 394.873 0.591816 3.83966 0
M  V30 4210 H 396.545 3.15764 3.3629 0
M  V30 4211 H 394.788 3.01961 3.11451 0
M  V30 4212 H 395.459 2.83296 4.73759 0
M  V30 4213 H 397.935 1.04125 4.02861 0
M  V30 4214 H 396.811 0.939076 5.40807 0
M  V30 4215 H 397.072 -0.472457 4.39568 0
M  V30 4216 N 396.131 -1.37776 0.765217 0
M  V30 4217 C 397.063 -2.28958 0.105361 0
M  V30 4218 C 398.076 -1.48316 -0.67128 0
M  V30 4219 O 399.265 -1.71046 -0.51045 0
M  V30 4220 C 396.365 -3.27421 -0.874569 0
M  V30 4221 C 395.538 -4.37132 -0.153123 0
M  V30 4222 C 394.597 -5.1571 -1.04547 0
M  V30 4223 O 393.623 -5.66896 -0.511672 0
M  V30 4224 N 394.825 -5.29808 -2.37243 0
M  V30 4225 H 397.59 -2.86227 0.888495 0
M  V30 4226 H 395.151 -1.49682 0.617 0
M  V30 4227 H 397.143 -3.7687 -1.47483 0
M  V30 4228 H 395.713 -2.70967 -1.55871 0
M  V30 4229 H 394.933 -3.89166 0.627975 0
M  V30 4230 H 396.221 -5.07625 0.345643 0
M  V30 4231 H 395.619 -4.89793 -2.83054 0
M  V30 4232 H 394.176 -5.82589 -2.9229 0
M  V30 4233 N 397.609 -0.515225 -1.4894 0
M  V30 4234 C 398.519 0.259774 -2.33157 0
M  V30 4235 C 399.535 0.953501 -1.45548 0
M  V30 4236 O 400.711 0.931735 -1.78552 0
M  V30 4237 C 397.776 1.30193 -3.21326 0
M  V30 4238 C 396.837 0.620129 -4.24797 0
M  V30 4239 C 396.07 1.61263 -5.08753 0
M  V30 4240 O 396.293 2.84389 -4.94448 0
M  V30 4241 O 395.227 1.16013 -5.90614 0
M  V30 4242 H 399.053 -0.429932 -3.00641 0
M  V30 4243 H 396.638 -0.276346 -1.46822 0
M  V30 4244 H 398.52 1.90455 -3.75905 0
M  V30 4245 H 397.195 1.97431 -2.56521 0
M  V30 4246 H 396.102 -0.0226019 -3.74093 0
M  V30 4247 H 397.435 -0.0100493 -4.92199 0
M  V30 4248 N 399.087 1.5561 -0.249682 0
M  V30 4249 C 400.037 2.18157 0.662673 0
M  V30 4250 C 401.021 1.1383 1.13717 0
M  V30 4251 O 402.213 1.39731 1.08648 0
M  V30 4252 C 399.342 2.88672 1.85805 0
M  V30 4253 C 398.428 4.00258 1.40193 0
M  V30 4254 N 398.819 5.01473 0.660213 0
M  V30 4255 C 397.117 4.12864 1.68698 0
M  V30 4256 C 397.818 5.80155 0.423695 0
M  V30 4257 N 396.794 5.34533 0.988721 0
M  V30 4258 H 400.596 2.93769 0.0878688 0
M  V30 4259 H 398.11 1.62316 -0.0521183 0
M  V30 4260 H 400.107 3.31912 2.5227 0
M  V30 4261 H 398.767 2.14564 2.43705 0
M  V30 4262 H 399.778 5.16971 0.310047 0
M  V30 4263 H 396.455 3.4993 2.27717 0
M  V30 4264 H 397.845 6.71688 -0.168616 0
M  V30 4265 N 400.565 -0.0233959 1.57583 0
M  V30 4266 C 401.795 -0.723631 1.93513 0
M  V30 4267 C 402.203 -1.69115 0.848333 0
M  V30 4268 O 401.546 -1.82781 -0.183484 0
M  V30 4269 C 401.608 -1.53075 3.25282 0
M  V30 4270 C 401.272 -0.727388 4.51174 0
M  V30 4271 C 402.269 -0.0251924 5.19894 0
M  V30 4272 C 399.954 -0.680256 4.97672 0
M  V30 4273 C 401.948 0.713374 6.33395 0
M  V30 4274 C 399.635 0.0620523 6.11068 0
M  V30 4275 C 400.633 0.757622 6.78785 0
M  V30 4276 O 400.321 1.48787 7.90011 0
M  V30 4277 H 400.053 -0.208051 0.643188 0
M  V30 4278 H 402.607 0.0167489 2.05393 0
M  V30 4279 H 400.837 -2.31508 3.09744 0
M  V30 4280 H 402.526 -2.11413 3.46496 0
M  V30 4281 H 403.292 -0.0526003 4.84971 0
M  V30 4282 H 399.171 -1.21116 4.44805 0
M  V30 4283 H 402.715 1.25683 6.86185 0
M  V30 4284 H 398.612 0.0913634 6.45435 0
M  V30 4285 H 399.38 1.40213 8.06401 0
M  V30 4286 N 402.043 -1.548 -0.295768 0
M  V30 4287 C 402.975 -1.82492 -1.3867 0
M  V30 4288 C 403.988 -0.708134 -1.46592 0
M  V30 4289 O 405.177 -0.985686 -1.48817 0
M  V30 4290 C 402.277 -1.95256 -2.76999 0
M  V30 4291 C 401.45 -3.25709 -2.91946 0
M  V30 4292 C 400.509 -3.28824 -4.10806 0
M  V30 4293 O 399.535 -4.02328 -4.02643 0
M  V30 4294 N 400.737 -2.5459 -5.21694 0
M  V30 4295 H 403.502 -2.76646 -1.15269 0
M  V30 4296 H 401.063 -1.54438 -0.485849 0
M  V30 4297 H 403.055 -1.94736 -3.54768 0
M  V30 4298 H 401.625 -1.08072 -2.93324 0
M  V30 4299 H 400.845 -3.38959 -2.01247 0
M  V30 4300 H 402.133 -4.11786 -2.98847 0
M  V30 4301 H 401.531 -1.94512 -5.31208 0
M  V30 4302 H 400.088 -2.59818 -5.97778 0
M  V30 4303 N 403.521 0.559213 -1.47345 0
M  V30 4304 C 404.798 1.31997 -1.44348 0
M  V30 4305 C 405.178 2.1064 -0.139358 0
M  V30 4306 O 404.526 2.1091 0.879153 0
M  V30 4307 C 404.736 2.22618 -2.68779 0
M  V30 4308 C 406.084 2.83701 -3.1591 0
M  V30 4309 O 407.108 2.32921 -2.69493 0
M  V30 4310 O 405.967 3.75993 -3.966 0
M  V30 4311 H 403.061 0.594251 -0.575147 0
M  V30 4312 H 405.607 0.578282 -1.59543 0
M  V30 4313 H 404.379 1.64093 -3.55231 0
M  V30 4314 H 404.002 3.04085 -2.5616 0
M  V30 4315 N 404.999 1.35443 0.805782 0
M  V30 4316 C 406.246 1.28761 1.56291 0
M  V30 4317 C 406.574 -0.137747 1.94012 0
M  V30 4318 O 405.829 -1.1032 1.61642 0
M  V30 4319 C 406.128 2.14045 2.86216 0
M  V30 4320 C 405.794 3.62826 2.67709 0
M  V30 4321 C 404.456 4.0338 2.6237 0
M  V30 4322 C 406.808 4.57227 2.50186 0
M  V30 4323 C 404.136 5.36501 2.37451 0
M  V30 4324 C 406.488 5.90547 2.26797 0
M  V30 4325 C 405.152 6.30245 2.1988 0
M  V30 4326 H 404.422 0.471171 0.571908 0
M  V30 4327 H 407.069 1.67347 0.930974 0
M  V30 4328 H 405.374 1.68342 3.53791 0
M  V30 4329 H 407.071 2.0621 3.43917 0
M  V30 4330 H 403.661 3.30644 2.72713 0
M  V30 4331 H 407.845 4.2678 2.53323 0
M  V30 4332 H 403.101 5.66259 2.30567 0
M  V30 4333 H 407.275 6.63274 2.12228 0
M  V30 4334 H 404.902 7.33328 2.00333 0
M  V30 4335 N 406.477 -1.02803 1.19454 0
M  V30 4336 C 407.754 -1.73299 0.907013 0
M  V30 4337 C 408.134 -2.02772 -0.587086 0
M  V30 4338 O 407.482 -1.68304 -1.54551 0
M  V30 4339 C 407.692 -3.00912 1.76785 0
M  V30 4340 C 409.04 -3.74403 2.00268 0
M  V30 4341 O 410.064 -3.10841 1.73943 0
M  V30 4342 O 408.923 -4.88675 2.4466 0
M  V30 4343 H 406.017 -0.754727 0.338106 0
M  V30 4344 H 408.563 -1.08754 1.30271 0
M  V30 4345 H 407.335 -2.75366 2.7801 0
M  V30 4346 H 406.958 -3.73197 1.37149 0
M  V30 4347 N 407.956 -0.998596 -1.21925 0
M  V30 4348 C 408.903 -0.553621 -2.24062 0
M  V30 4349 C 409.873 0.416999 -1.6078 0
M  V30 4350 O 411.058 0.320482 -1.88089 0
M  V30 4351 C 408.198 0.119959 -3.44891 0
M  V30 4352 C 407.311 -0.893077 -4.22668 0
M  V30 4353 C 406.446 -0.192424 -5.30851 0
M  V30 4354 C 405.485 -1.19344 -6.00353 0
M  V30 4355 N 404.622 -0.520707 -7.00166 0
M  V30 4356 H 409.462 -1.4293 -2.61486 0
M  V30 4357 H 406.999 -0.715838 -1.28507 0
M  V30 4358 H 408.957 0.527459 -4.13852 0
M  V30 4359 H 407.587 0.959389 -3.08214 0
M  V30 4360 H 406.639 -1.41886 -3.52948 0
M  V30 4361 H 407.951 -1.65512 -4.70539 0
M  V30 4362 H 407.105 0.271515 -6.06092 0
M  V30 4363 H 405.844 0.602075 -4.83969 0
M  V30 4364 H 404.849 -1.66795 -5.23889 0
M  V30 4365 H 406.074 -1.98891 -6.49322 0
M  V30 4366 H 404.02 0.254252 -6.55507 0
M  V30 4367 H 403.937 -1.2211 -7.46073 0
M  V30 4368 H 405.205 -0.0797596 -7.79459 0
M  V30 4369 N 409.434 1.37368 -0.772513 0
M  V30 4370 C 410.382 2.32134 -0.147111 0
M  V30 4371 C 411.376 1.54972 0.684106 0
M  V30 4372 O 412.582 1.70363 0.581083 0
M  V30 4373 H 408.957 0.751449 -0.028786 0
M  V30 4374 H 410.928 2.82464 -0.962112 0
M  V30 4375 C 409.677 3.40226 0.71703 0
M  V30 4376 H 409 3.99706 0.0867951 0
M  V30 4377 H 410.44 4.08897 1.12159 0
M  V30 4378 C 408.899 2.80372 1.86797 0
M  V30 4379 O 409.429 2.71183 2.96349 0
M  V30 4380 N 407.635 2.37904 1.66883 0
M  V30 4381 H 407.182 2.45578 0.777759 0
M  V30 4382 H 407.14 1.98202 2.44056 0
M  V30 4383 N 410.912 0.523116 1.48665 0
M  V30 4384 C 412.137 -0.0117284 2.07397 0
M  V30 4385 C 412.562 -1.28031 1.37803 0
M  V30 4386 O 411.92 -1.75836 0.441762 0
M  V30 4387 C 411.968 -0.225786 3.59892 0
M  V30 4388 O 411.072 -1.29592 3.91509 0
M  V30 4389 H 410.413 0.0360673 0.66302 0
M  V30 4390 H 412.943 0.729066 1.9117 0
M  V30 4391 H 412.953 -0.450552 4.05505 0
M  V30 4392 H 411.628 0.700944 4.09951 0
M  V30 4393 H 410.205 -1.05436 3.57684 0
M  V30 4394 N 412.39 -1.55475 0.257931 0
M  V30 4395 C 413.636 -1.99502 -0.364266 0
M  V30 4396 C 413.969 -1.146 -1.56782 0
M  V30 4397 O 413.244 -0.211968 -1.93342 0
M  V30 4398 C 413.527 -3.51917 -0.763333 0
M  V30 4399 C 413.38 -4.4758 0.446371 0
M  V30 4400 C 414.699 -4.09742 -1.60623 0
M  V30 4401 H 411.818 -0.725277 -0.130929 0
M  V30 4402 H 414.46 -1.8653 0.361446 0
M  V30 4403 H 412.61 -3.63101 -1.38166 0
M  V30 4404 H 414.282 -4.48362 1.08487 0
M  V30 4405 H 412.525 -4.19947 1.08753 0
M  V30 4406 H 413.196 -5.51862 0.123645 0
M  V30 4407 H 415.672 -4.01727 -1.08418 0
M  V30 4408 H 414.548 -5.16631 -1.85429 0
M  V30 4409 H 414.809 -3.58889 -2.58169 0
M  V30 4410 N 413.868 0.0150385 -1.57593 0
M  V30 4411 C 415.284 0.370907 -1.5523 0
M  V30 4412 C 415.484 1.75735 -0.985882 0
M  V30 4413 O 414.54 2.44944 -0.613077 0
M  V30 4414 C 415.853 0.259908 -2.99575 0
M  V30 4415 C 417.401 0.335959 -3.11192 0
M  V30 4416 C 417.876 0.254253 -4.57294 0
M  V30 4417 N 419.367 0.312618 -4.62144 0
M  V30 4418 C 420.102 0.272505 -5.72752 0
M  V30 4419 N 419.598 0.183864 -6.92556 0
M  V30 4420 N 421.391 0.323267 -5.6117 0
M  V30 4421 H 413.542 -0.892104 -1.92757 0
M  V30 4422 H 415.805 -0.340563 -0.884715 0
M  V30 4423 H 415.511 -0.693403 -3.44797 0
M  V30 4424 H 415.385 1.048 -3.62349 0
M  V30 4425 H 417.772 1.27971 -2.65909 0
M  V30 4426 H 417.853 -0.481739 -2.51223 0
M  V30 4427 H 417.497 -0.685887 -5.03247 0
M  V30 4428 H 417.427 1.09024 -5.15191 0
M  V30 4429 H 419.918 0.38307 -3.75953 0
M  V30 4430 H 420.231 0.15874 -7.72637 0
M  V30 4431 H 418.576 0.149708 -6.94839 0
M  V30 4432 H 421.767 0.390607 -4.66467 0
M  V30 4433 H 421.94 0.288539 -6.47357 0
M  V30 4434 N 415.346 1.54954 0.287554 0
M  V30 4435 C 416.623 1.65569 1.04146 0
M  V30 4436 C 417.003 0.512672 2.0478 0
M  V30 4437 O 416.351 -0.489038 2.23205 0
M  V30 4438 C 416.561 3.04163 1.71131 0
M  V30 4439 C 417.909 3.61429 2.22832 0
M  V30 4440 O 418.933 3.06702 1.81141 0
M  V30 4441 O 417.792 4.57281 2.9926 0
M  V30 4442 H 414.886 0.671881 0.482188 0
M  V30 4443 H 417.432 1.67297 0.28457 0
M  V30 4444 H 416.204 3.78796 0.981303 0
M  V30 4445 H 415.827 3.06271 2.53543 0
M  V30 4446 N 416.824 -0.551391 1.4764 0
M  V30 4447 C 418.073 -1.30467 1.53822 0
M  V30 4448 C 418.386 -1.94495 0.207661 0
M  V30 4449 O 419.592 -2.71099 0.147533 0
M  V30 4450 C 418.048 -2.36616 2.71184 0
M  V30 4451 C 417.656 -1.78754 4.10793 0
M  V30 4452 C 419.4 -3.13088 2.86663 0
M  V30 4453 C 417.307 -2.82717 5.19447 0
M  V30 4454 H 416.237 -0.490584 0.572576 0
M  V30 4455 H 418.888 -0.58494 1.73927 0
M  V30 4456 H 417.27 -3.11529 2.4447 0
M  V30 4457 H 418.444 -1.10173 4.47435 0
M  V30 4458 H 416.759 -1.14846 4.00249 0
M  V30 4459 H 419.356 -3.90736 3.65007 0
M  V30 4460 H 419.699 -3.67635 1.95321 0
M  V30 4461 H 420.232 -2.45288 3.13175 0
M  V30 4462 H 416.971 -2.33018 6.12685 0
M  V30 4463 H 416.491 -3.4969 4.87316 0
M  V30 4464 H 418.17 -3.46102 5.46646 0
M  V30 4465 N 418.302 -1.35869 -0.798587 0
M  V30 4466 C 419.53 -1.32722 -1.58722 0
M  V30 4467 C 419.945 0.0935631 -1.88568 0
M  V30 4468 O 419.302 1.04784 -1.49421 0
M  V30 4469 C 419.353 -2.13974 -2.91371 0
M  V30 4470 O 419.074 -3.50514 -2.62815 0
M  V30 4471 C 420.575 -2.18504 -3.85708 0
M  V30 4472 H 417.795 -0.45562 -0.492596 0
M  V30 4473 H 420.339 -1.78837 -0.991843 0
M  V30 4474 H 418.494 -1.71438 -3.47402 0
M  V30 4475 H 418.908 -3.92806 -3.47568 0
M  V30 4476 H 420.382 -2.79732 -4.75872 0
M  V30 4477 H 420.859 -1.18597 -4.22885 0
M  V30 4478 H 421.465 -2.61236 -3.35612 0
M  V30 4479 N 419.78 1.02168 -1.19998 0
M  V30 4480 C 421.028 1.75338 -1.00504 0
M  V30 4481 C 421.349 1.89387 0.464506 0
M  V30 4482 O 420.619 1.43268 1.33608 0
M  V30 4483 H 419.199 0.649564 -0.368885 0
M  V30 4484 H 421.861 1.23205 -1.51018 0
M  V30 4485 H 420.957 2.75892 -1.45912 0
M  V30 4486 N 421.258 1.00505 1.21394 0
M  V30 4487 C 422.221 0.570459 2.21987 0
M  V30 4488 C 423.221 -0.353211 1.56873 0
M  V30 4489 O 424.411 -0.14349 1.73608 0
M  V30 4490 C 421.543 -0.168555 3.40483 0
M  V30 4491 H 422.736 1.46021 2.6195 0
M  V30 4492 H 420.289 0.793565 1.34656 0
M  V30 4493 H 421.024 -1.07374 3.06009 0
M  V30 4494 H 420.809 0.494823 3.88965 0
M  V30 4495 H 422.299 -0.460362 4.15055 0
M  V30 4496 N 422.737 -1.36956 0.779787 0
M  V30 4497 C 423.667 -2.32761 0.185651 0
M  V30 4498 C 424.648 -1.56177 -0.673989 0
M  V30 4499 O 425.833 -1.84378 -0.609797 0
M  V30 4500 C 422.963 -3.40418 -0.687964 0
M  V30 4501 C 421.917 -4.27941 0.0710102 0
M  V30 4502 C 421.243 -5.26681 -0.922573 0
M  V30 4503 C 422.543 -5.07006 1.25467 0
M  V30 4504 H 424.237 -2.82698 0.986008 0
M  V30 4505 H 421.783 -1.3592 0.475592 0
M  V30 4506 H 423.736 -4.06423 -1.11348 0
M  V30 4507 H 422.46 -2.89025 -1.52093 0
M  V30 4508 H 421.119 -3.63478 0.47739 0
M  V30 4509 H 420.767 -4.71565 -1.7503 0
M  V30 4510 H 420.467 -5.86103 -0.419237 0
M  V30 4511 H 421.991 -5.9556 -1.34686 0
M  V30 4512 H 423.405 -5.66105 0.905401 0
M  V30 4513 H 421.802 -5.75793 1.69063 0
M  V30 4514 H 422.872 -4.3921 2.05481 0
M  V30 4515 N 424.215 -0.530993 -1.48385 0
M  V30 4516 C 425.462 0.0027373 -2.025 0
M  V30 4517 C 425.79 1.34186 -1.40799 0
M  V30 4518 O 425.045 1.88 -0.543544 0
M  V30 4519 C 425.344 0.172742 -3.56982 0
M  V30 4520 C 425.01 -1.09215 -4.37473 0
M  V30 4521 C 423.672 -1.43881 -4.59186 0
M  V30 4522 C 426.024 -1.93153 -4.84088 0
M  V30 4523 C 423.352 -2.62381 -5.2476 0
M  V30 4524 C 425.704 -3.10833 -5.50968 0
M  V30 4525 C 424.368 -3.45843 -5.70919 0
M  V30 4526 H 423.638 0.00100165 -0.740999 0
M  V30 4527 H 426.285 -0.697219 -1.78357 0
M  V30 4528 H 424.59 0.955473 -3.79971 0
M  V30 4529 H 426.287 0.600642 -3.96476 0
M  V30 4530 H 422.877 -0.812177 -4.20834 0
M  V30 4531 H 427.061 -1.67683 -4.67115 0
M  V30 4532 H 422.317 -2.89707 -5.38405 0
M  V30 4533 H 426.491 -3.7618 -5.86056 0
M  V30 4534 H 424.118 -4.37764 -6.21503 0
M  V30 4535 N 425.693 1.55336 -0.266172 0
M  V30 4536 C 426.64 2.22172 0.625165 0
M  V30 4537 C 427.61 1.19211 1.15663 0
M  V30 4538 O 428.795 1.47723 1.20758 0
M  V30 4539 C 425.935 2.93972 1.8076 0
M  V30 4540 C 425.048 4.11632 1.31084 0
M  V30 4541 C 424.183 4.71099 2.45436 0
M  V30 4542 C 423.222 5.8097 1.92718 0
M  V30 4543 N 422.359 6.34538 3.00509 0
M  V30 4544 H 427.199 2.9796 0.0485582 0
M  V30 4545 H 424.736 1.47095 0.0122024 0
M  V30 4546 H 426.694 3.33811 2.50251 0
M  V30 4547 H 425.324 2.20623 2.35638 0
M  V30 4548 H 424.376 3.76975 0.509326 0
M  V30 4549 H 425.688 4.90893 0.884633 0
M  V30 4550 H 424.842 5.13612 3.22936 0
M  V30 4551 H 423.581 3.91096 2.91368 0
M  V30 4552 H 422.586 5.37916 1.13695 0
M  V30 4553 H 423.811 6.62836 1.47733 0
M  V30 4554 H 421.757 5.57433 3.45839 0
M  V30 4555 H 421.674 7.09046 2.62279 0
M  V30 4556 H 422.942 6.81709 3.78011 0
M  V30 4557 N 427.171 -0.0066808 1.57599 0
M  V30 4558 C 428.121 -1.0086 2.04478 0
M  V30 4559 C 429.105 -1.30714 0.938231 0
M  V30 4560 O 430.297 -1.29924 1.20203 0
M  V30 4561 C 427.426 -2.30273 2.54615 0
M  V30 4562 C 426.512 -2.03413 3.72134 0
M  V30 4563 N 426.903 -1.46688 4.84062 0
M  V30 4564 C 425.201 -2.33589 3.79937 0
M  V30 4565 C 425.902 -1.36146 5.65543 0
M  V30 4566 N 424.878 -1.84477 5.1134 0
M  V30 4567 H 428.68 -0.564402 2.8843 0
M  V30 4568 H 426.194 -0.212521 1.61003 0
M  V30 4569 H 428.191 -3.02885 2.86472 0
M  V30 4570 H 426.851 -2.75352 1.72079 0
M  V30 4571 H 427.862 -1.14658 5.05049 0
M  V30 4572 H 424.539 -2.81589 3.08243 0
M  V30 4573 H 425.929 -0.925873 6.6549 0
M  V30 4574 N 428.649 -1.55105 -0.279332 0
M  V30 4575 C 429.874 -1.7976 -1.03446 0
M  V30 4576 C 430.299 -0.565952 -1.79384 0
M  V30 4577 O 429.657 0.484259 -1.74713 0
M  V30 4578 C 429.705 -3.0179 -1.97371 0
M  V30 4579 O 428.809 -2.76432 -3.06038 0
M  V30 4580 H 428.15 -0.594334 -0.29608 0
M  V30 4581 H 430.68 -2.02235 -0.310165 0
M  V30 4582 H 430.69 -3.30351 -2.39441 0
M  V30 4583 H 429.365 -3.91085 -1.4151 0
M  V30 4584 H 427.942 -2.58949 -2.68328 0
M  V30 4585 N 430.127 0.543554 -1.4793 0
M  V30 4586 C 431.074 1.64942 -1.6144 0
M  V30 4587 C 432.044 1.59692 -0.456903 0
M  V30 4588 O 433.229 1.78321 -0.678688 0
M  V30 4589 C 430.369 3.03238 -1.64744 0
M  V30 4590 C 429.482 3.18823 -2.91506 0
M  V30 4591 C 428.617 4.47599 -2.86057 0
M  V30 4592 C 427.656 4.56664 -4.07584 0
M  V30 4593 N 426.793 5.76811 -4.00292 0
M  V30 4594 H 431.633 1.52733 -2.55884 0
M  V30 4595 H 429.17 0.7438 -1.2691 0
M  V30 4596 H 431.128 3.83339 -1.64641 0
M  V30 4597 H 429.758 3.1425 -0.738017 0
M  V30 4598 H 428.81 2.32064 -3.01414 0
M  V30 4599 H 430.122 3.21384 -3.81463 0
M  V30 4600 H 429.276 5.35975 -2.84281 0
M  V30 4601 H 428.015 4.47538 -1.93807 0
M  V30 4602 H 427.02 3.66697 -4.09651 0
M  V30 4603 H 428.245 4.58474 -5.00978 0
M  V30 4604 H 426.191 5.77673 -3.10853 0
M  V30 4605 H 426.108 5.80808 -4.8394 0
M  V30 4606 H 427.376 6.67512 -4.02553 0
M  V30 4607 N 431.605 1.3629 0.791371 0
M  V30 4608 C 432.552 1.30458 1.90393 0
M  V30 4609 C 433.522 0.173632 1.6519 0
M  V30 4610 O 434.707 0.35983 1.87376 0
M  V30 4611 C 431.847 1.09777 3.27174 0
M  V30 4612 C 430.96 2.31929 3.64462 0
M  V30 4613 C 430.095 2.04276 4.90352 0
M  V30 4614 C 429.134 3.224 5.20312 0
M  V30 4615 N 428.271 2.94424 6.37385 0
M  V30 4616 H 433.111 2.25589 1.94714 0
M  V30 4617 H 430.648 1.12122 0.952216 0
M  V30 4618 H 432.606 0.958133 4.06049 0
M  V30 4619 H 431.236 0.183014 3.22281 0
M  V30 4620 H 430.288 2.56703 2.80727 0
M  V30 4621 H 431.6 3.20085 3.82553 0
M  V30 4622 H 430.754 1.87231 5.77087 0
M  V30 4623 H 429.493 1.13428 4.74326 0
M  V30 4624 H 428.498 3.40005 4.32061 0
M  V30 4625 H 429.723 4.14071 5.38258 0
M  V30 4626 H 427.669 2.06185 6.22755 0
M  V30 4627 H 427.586 3.76118 6.55798 0
M  V30 4628 H 428.854 2.80953 7.27108 0
M  V30 4629 N 433.083 -1.0153 1.20538 0
M  V30 4630 C 434.331 -1.74803 1.01432 0
M  V30 4631 C 434.652 -1.8963 -0.454456 0
M  V30 4632 O 433.922 -1.43975 -1.32846 0
M  V30 4633 H 432.502 -0.647598 0.372324 0
M  V30 4634 H 435.164 -1.22402 1.5167 0
M  V30 4635 H 434.26 -2.75114 1.47373 0
M  V30 4636 N 434.561 -1.01147 -1.20859 0
M  V30 4637 C 435.972 -0.730205 -1.71828 0
M  V30 4638 C 436.323 0.751662 -1.8123 0
M  V30 4639 O 435.448 1.58686 -1.47132 0
M  V30 4640 C 436.043 -1.31885 -3.12077 0
M  V30 4641 C 434.602 -1.08656 -3.60376 0
M  V30 4642 C 433.749 -1.42769 -2.37723 0
M  V30 4643 H 436.7 -1.18158 -1.05945 0
M  V30 4644 H 436.721 -0.706793 -3.73878 0
M  V30 4645 H 436.233 -2.39737 -3.05201 0
M  V30 4646 H 434.334 -0.0254814 -3.72591 0
M  V30 4647 H 434.447 -1.76301 -4.45483 0
M  V30 4648 H 432.811 -0.846603 -2.40218 0
M  V30 4649 H 433.594 -2.51666 -2.33493 0
M  V30 4650 N 436.039 1.36541 -0.78704 0
M  V30 4651 C 437.455 1.52571 -0.46844 0
M  V30 4652 C 437.655 1.7415 1.01361 0
M  V30 4653 O 436.711 1.77163 1.79915 0
M  V30 4654 C 438.024 2.71299 -1.29682 0
M  V30 4655 C 439.572 2.85169 -1.29027 0
M  V30 4656 C 440.047 4.06898 -2.10233 0
M  V30 4657 N 441.538 4.1404 -2.07666 0
M  V30 4658 C 442.273 5.07301 -2.67271 0
M  V30 4659 N 441.769 6.06021 -3.35724 0
M  V30 4660 N 443.562 4.99898 -2.57018 0
M  V30 4661 H 435.713 1.20788 -1.74711 0
M  V30 4662 H 437.976 0.589364 -0.742532 0
M  V30 4663 H 437.682 2.61868 -2.34773 0
M  V30 4664 H 437.556 3.6539 -0.936479 0
M  V30 4665 H 439.943 2.94062 -0.247284 0
M  V30 4666 H 440.024 1.91992 -1.69035 0
M  V30 4667 H 439.668 3.98766 -3.1456 0
M  V30 4668 H 439.598 4.99218 -1.67597 0
M  V30 4669 H 442.089 3.43357 -1.57843 0
M  V30 4670 H 442.402 6.73741 -3.78541 0
M  V30 4671 H 440.747 6.06253 -3.39826 0
M  V30 4672 H 443.938 4.21724 -2.03142 0
M  V30 4673 H 444.111 5.72392 -3.03761 0
M  V30 4674 N 437.518 0.538854 1.48102 0
M  V30 4675 C 438.481 -0.208395 2.28251 0
M  V30 4676 C 439.481 -0.859656 1.35892 0
M  V30 4677 O 440.671 -0.71834 1.58699 0
M  V30 4678 C 437.803 -1.30252 3.15035 0
M  V30 4679 H 438.996 0.495407 2.9578 0
M  V30 4680 H 436.549 0.295112 1.53489 0
M  V30 4681 H 437.284 -2.0393 2.52157 0
M  V30 4682 H 437.069 -0.840551 3.82985 0
M  V30 4683 H 438.559 -1.82787 3.75471 0
M  V30 4684 N 438.996 -1.55193 0.274407 0
M  V30 4685 C 440.221 -2.04446 -0.348824 0
M  V30 4686 C 440.646 -1.15149 -1.48735 0
M  V30 4687 O 440.004 -0.149952 -1.80679 0
M  V30 4688 C 440.052 -3.51431 -0.808009 0
M  V30 4689 O 439.156 -3.65225 -1.91531 0
M  V30 4690 H 438.497 -0.66006 -0.0722276 0
M  V30 4691 H 441.027 -2.00481 0.408498 0
M  V30 4692 H 441.037 -3.92781 -1.10395 0
M  V30 4693 H 439.712 -4.15892 0.0249865 0
M  V30 4694 H 438.289 -3.35778 -1.62196 0
M  V30 4695 N 440.474 -0.00167713 -1.576 0
M  V30 4696 C 441.722 0.681471 -1.90264 0
M  V30 4697 C 442.043 1.7422 -0.875924 0
M  V30 4698 O 441.313 1.95709 0.0864412 0
M  V30 4699 H 439.893 0.254696 -0.702239 0
M  V30 4700 H 442.555 -0.0429996 -1.94853 0
M  V30 4701 H 441.651 1.15166 -2.90075 0
M  V30 4702 N 441.952 1.55251 0.271103 0
M  V30 4703 C 442.9 1.89054 1.35504 0
M  V30 4704 C 443.894 0.767064 1.51038 0
M  V30 4705 O 445.1 0.951429 1.528 0
M  V30 4706 H 441.475 0.600072 0.45323 0
M  V30 4707 H 443.446 2.79598 1.04247 0
M  V30 4708 C 442.195 2.18068 2.70817 0
M  V30 4709 H 441.518 3.04005 2.59656 0
M  V30 4710 H 442.958 2.4564 3.45597 0
M  V30 4711 C 441.417 0.988901 3.2206 0
M  V30 4712 O 441.947 0.224501 4.01072 0
M  V30 4713 N 440.153 0.786085 2.79766 0
M  V30 4714 H 439.7 1.40937 2.15626 0
M  V30 4715 H 439.658 -0.00969349 3.14399 0
M  V30 4716 N 443.43 -0.535701 1.48216 0
M  V30 4717 C 444.36 -1.65014 1.65204 0
M  V30 4718 C 445.341 -1.62554 0.501011 0
M  V30 4719 O 446.526 -1.7984 0.732886 0
M  V30 4720 C 443.656 -3.03616 1.68626 0
M  V30 4721 C 442.61 -3.20932 2.83172 0
M  V30 4722 C 441.936 -4.60537 2.71679 0
M  V30 4723 C 443.236 -3.04249 4.24535 0
M  V30 4724 H 444.93 -1.51053 2.58502 0
M  V30 4725 H 442.476 -0.725262 1.24402 0
M  V30 4726 H 444.429 -3.81446 1.79099 0
M  V30 4727 H 443.153 -3.18587 0.719026 0
M  V30 4728 H 441.812 -2.45517 2.72244 0
M  V30 4729 H 441.46 -4.72336 1.72937 0
M  V30 4730 H 441.16 -4.73069 3.48538 0
M  V30 4731 H 442.684 -5.40475 2.84112 0
M  V30 4732 H 444.098 -3.71877 4.36326 0
M  V30 4733 H 442.495 -3.28278 5.02348 0
M  V30 4734 H 443.565 -2.00739 4.41397 0
M  V30 4735 N 444.908 -1.36708 -0.784132 0
M  V30 4736 C 446.157 -1.30559 -1.53744 0
M  V30 4737 C 446.47 0.111374 -1.95283 0
M  V30 4738 O 447.676 0.29527 -2.6989 0
M  V30 4739 C 446.132 -2.29098 -2.77565 0
M  V30 4740 C 445.74 -3.76258 -2.43174 0
M  V30 4741 C 447.484 -2.31936 -3.55536 0
M  V30 4742 C 445.391 -4.6656 -3.63422 0
M  V30 4743 H 444.321 -0.48518 -0.577162 0
M  V30 4744 H 446.972 -1.62101 -0.859981 0
M  V30 4745 H 445.354 -1.90557 -3.47137 0
M  V30 4746 H 446.528 -4.23565 -1.81465 0
M  V30 4747 H 444.843 -3.76246 -1.78403 0
M  V30 4748 H 447.44 -2.9661 -4.44889 0
M  V30 4749 H 447.783 -1.3294 -3.94503 0
M  V30 4750 H 448.316 -2.6912 -2.92949 0
M  V30 4751 H 445.055 -5.66638 -3.29547 0
M  V30 4752 H 444.575 -4.23966 -4.24279 0
M  V30 4753 H 446.254 -4.8309 -4.30387 0
M  V30 4754 N 446.386 1.0089 -1.21074 0
M  V30 4755 C 447.797 1.56056 -1.02486 0
M  V30 4756 C 448.148 1.91728 0.416506 0
M  V30 4757 O 447.273 1.73066 1.29912 0
M  V30 4758 C 447.868 2.83563 -1.85411 0
M  V30 4759 C 446.427 3.3523 -1.71166 0
M  V30 4760 C 445.574 2.0846 -1.82865 0
M  V30 4761 H 448.525 0.831818 -1.35154 0
M  V30 4762 H 448.546 3.55286 -1.36205 0
M  V30 4763 H 448.058 2.57569 -2.9031 0
M  V30 4764 H 446.159 3.66167 -0.689361 0
M  V30 4765 H 446.272 4.06913 -2.52901 0
M  V30 4766 H 444.636 2.21275 -1.26132 0
M  V30 4767 H 445.419 1.84883 -2.89263 0
M  V30 4768 N 447.864 1.01787 1.20321 0
M  V30 4769 C 448.796 0.547357 2.22568 0
M  V30 4770 C 449.809 -0.370922 1.58518 0
M  V30 4771 O 450.998 -0.169067 1.77698 0
M  V30 4772 C 448.098 -0.223031 3.38165 0
M  V30 4773 C 447.271 0.697472 4.31803 0
M  V30 4774 C 446.33 -0.025562 5.26194 0
M  V30 4775 O 445.356 0.597367 5.66057 0
M  V30 4776 N 446.558 -1.29999 5.65757 0
M  V30 4777 H 449.323 1.42668 2.63564 0
M  V30 4778 H 446.884 0.895552 1.34876 0
M  V30 4779 H 448.876 -0.716002 3.98316 0
M  V30 4780 H 447.446 -1.00366 2.9605 0
M  V30 4781 H 446.666 1.37073 3.69601 0
M  V30 4782 H 447.954 1.32347 4.91286 0
M  V30 4783 H 447.352 -1.827 5.35385 0
M  V30 4784 H 445.909 -1.73766 6.28211 0
M  V30 4785 N 449.342 -1.36122 0.79427 0
M  V30 4786 C 450.252 -2.33769 0.197296 0
M  V30 4787 C 451.268 -1.61276 -0.653153 0
M  V30 4788 O 452.444 -1.9323 -0.5678 0
M  V30 4789 C 449.509 -3.40474 -0.654098 0
M  V30 4790 C 448.57 -4.28759 0.215411 0
M  V30 4791 C 447.803 -5.30368 -0.595443 0
M  V30 4792 O 448.026 -5.40211 -1.83107 0
M  V30 4793 O 446.96 -6.019 0.00721351 0
M  V30 4794 H 450.786 -2.86597 1.00478 0
M  V30 4795 H 448.371 -1.38676 0.555818 0
M  V30 4796 H 450.253 -4.05703 -1.13944 0
M  V30 4797 H 448.928 -2.89937 -1.43938 0
M  V30 4798 H 447.835 -3.66554 0.747615 0
M  V30 4799 H 449.168 -4.82661 0.964332 0
M  V30 4800 N 450.82 -0.546701 -1.47814 0
M  V30 4801 C 451.767 0.206854 -2.29871 0
M  V30 4802 C 452.737 0.918235 -1.38411 0
M  V30 4803 O 453.922 0.915991 -1.67375 0
M  V30 4804 C 451.062 1.23746 -3.22151 0
M  V30 4805 C 450.175 0.533216 -4.28697 0
M  V30 4806 C 449.31 1.5482 -5.08138 0
M  V30 4807 C 448.349 0.828347 -6.06469 0
M  V30 4808 N 447.486 1.78966 -6.78908 0
M  V30 4809 H 452.326 -0.499037 -2.93792 0
M  V30 4810 H 449.863 -0.25793 -1.44821 0
M  V30 4811 H 451.821 1.84746 -3.74065 0
M  V30 4812 H 450.451 1.91151 -2.60117 0
M  V30 4813 H 449.503 -0.191089 -3.7992 0
M  V30 4814 H 450.815 -0.0311987 -4.9879 0
M  V30 4815 H 449.969 2.23202 -5.6415 0
M  V30 4816 H 448.708 2.14652 -4.37922 0
M  V30 4817 H 447.713 0.130539 -5.49645 0
M  V30 4818 H 448.938 0.235907 -6.7869 0
M  V30 4819 H 446.884 2.37675 -6.1143 0
M  V30 4820 H 446.801 1.27712 -7.45135 0
M  V30 4821 H 448.069 2.46496 -7.395 0
M  V30 4822 N 452.299 1.55045 -0.282633 0
M  V30 4823 C 453.548 1.98938 0.332667 0
M  V30 4824 C 453.861 1.17455 1.56409 0
M  V30 4825 O 455.067 1.51527 2.25282 0
M  V30 4826 C 453.523 3.54105 0.643226 0
M  V30 4827 C 453.131 4.44374 -0.568814 0
M  V30 4828 C 454.875 4.06569 1.22074 0
M  V30 4829 C 452.782 5.90943 -0.232426 0
M  V30 4830 H 451.712 0.743043 0.128075 0
M  V30 4831 H 454.363 1.79341 -0.388464 0
M  V30 4832 H 452.745 3.69532 1.42346 0
M  V30 4833 H 453.919 4.40718 -1.34551 0
M  V30 4834 H 452.234 4.02585 -1.06369 0
M  V30 4835 H 454.831 5.13626 1.48635 0
M  V30 4836 H 455.174 3.56057 2.15707 0
M  V30 4837 H 455.707 3.94612 0.502621 0
M  V30 4838 H 452.446 6.45567 -1.13683 0
M  V30 4839 H 451.966 5.9765 0.507357 0
M  V30 4840 H 453.645 6.4677 0.172657 0
M  V30 4841 N 453.777 0.010035 1.57597 0
M  V30 4842 C 455.023 -0.673697 1.91283 0
M  V30 4843 C 455.356 -1.72863 0.884979 0
M  V30 4844 O 454.631 -1.94268 -0.0949487 0
M  V30 4845 C 454.914 -1.30766 3.35518 0
M  V30 4846 C 454.767 -0.263578 4.49027 0
M  V30 4847 C 456.086 -2.23105 3.79358 0
M  V30 4848 H 453.205 -0.243439 0.695634 0
M  V30 4849 H 455.847 0.0633864 1.89894 0
M  V30 4850 H 453.997 -1.93588 3.36832 0
M  V30 4851 H 455.669 0.365738 4.59848 0
M  V30 4852 H 453.912 0.413077 4.31829 0
M  V30 4853 H 454.583 -0.746398 5.4693 0
M  V30 4854 H 457.059 -1.70289 3.79659 0
M  V30 4855 H 455.935 -2.64424 4.81011 0
M  V30 4856 H 456.196 -3.11433 3.13787 0
M  V30 4857 N 455.255 -1.55392 -0.262866 0
M  V30 4858 C 456.203 -1.8977 -1.345 0
M  V30 4859 C 457.197 -0.775063 -1.50629 0
M  V30 4860 O 458.403 -0.959519 -1.52293 0
M  V30 4861 H 454.778 -0.602467 -0.450041 0
M  V30 4862 H 456.749 -2.80147 -1.02762 0
M  V30 4863 C 455.498 -2.19501 -2.69657 0
M  V30 4864 H 454.821 -3.05378 -2.5804 0
M  V30 4865 H 456.261 -2.47469 -3.44289 0
M  V30 4866 C 454.72 -1.00597 -3.21531 0
M  V30 4867 O 455.25 -0.245768 -4.00947 0
M  V30 4868 N 453.456 -0.800911 -2.79345 0
M  V30 4869 H 453.003 -1.42079 -2.14875 0
M  V30 4870 H 452.961 -0.00697996 -3.14399 0
M  V30 4871 N 456.733 0.527833 -1.48498 0
M  V30 4872 C 457.663 1.64136 -1.66077 0
M  V30 4873 C 458.644 1.62286 -0.509625 0
M  V30 4874 O 459.829 1.79449 -0.742413 0
M  V30 4875 C 456.959 3.02717 -1.70234 0
M  V30 4876 C 455.913 3.19426 -2.8487 0
M  V30 4877 C 455.239 4.5909 -2.74118 0
M  V30 4878 C 456.539 3.01993 -4.26142 0
M  V30 4879 H 458.233 1.4968 -2.593 0
M  V30 4880 H 455.779 0.718654 -1.24785 0
M  V30 4881 H 457.732 3.80491 -1.8112 0
M  V30 4882 H 456.456 3.18201 -0.735911 0
M  V30 4883 H 455.115 2.4407 -2.73542 0
M  V30 4884 H 454.763 4.71413 -1.7544 0
M  V30 4885 H 454.463 4.71214 -3.51042 0
M  V30 4886 H 455.987 5.3896 -2.86974 0
M  V30 4887 H 457.401 3.69558 -4.38292 0
M  V30 4888 H 455.798 3.2561 -5.04082 0
M  V30 4889 H 456.868 1.98396 -4.42456 0
M  V30 4890 N 458.211 1.37122 0.776871 0
M  V30 4891 C 459.457 1.32243 1.53752 0
M  V30 4892 C 459.79 -0.0944745 1.9397 0
M  V30 4893 O 459.065 -1.05068 1.6368 0
M  V30 4894 C 459.348 2.25681 2.80607 0
M  V30 4895 C 459.201 3.76127 2.46676 0
M  V30 4896 C 460.52 2.17657 3.82509 0
M  V30 4897 H 457.639 0.481704 0.557791 0
M  V30 4898 H 460.281 1.6778 0.891612 0
M  V30 4899 H 458.431 1.95505 3.35723 0
M  V30 4900 H 460.103 4.16877 1.97513 0
M  V30 4901 H 458.346 3.94946 1.79443 0
M  V30 4902 H 459.017 4.36933 3.37333 0
M  V30 4903 H 461.493 2.44245 3.36873 0
M  V30 4904 H 460.369 2.85185 4.69 0
M  V30 4905 H 460.63 1.16785 4.26396 0
M  V30 4906 N 459.689 -1.00246 1.21608 0
M  V30 4907 C 460.637 -2.11193 0.97469 0
M  V30 4908 C 461.631 -1.69216 -0.0789303 0
M  V30 4909 O 462.837 -1.79853 0.0726806 0
M  V30 4910 H 459.212 -0.690455 0.297953 0
M  V30 4911 H 461.183 -2.2873 1.91638 0
M  V30 4912 C 459.932 -3.43182 0.558717 0
M  V30 4913 H 459.255 -3.75918 1.3611 0
M  V30 4914 H 460.695 -4.21823 0.429154 0
M  V30 4915 C 459.154 -3.28882 -0.730648 0
M  V30 4916 O 459.684 -3.59835 -1.78554 0
M  V30 4917 N 457.89 -2.8209 -0.698131 0
M  V30 4918 H 457.437 -2.57099 0.16061 0
M  V30 4919 H 457.395 -2.72903 -1.56113 0
M  V30 4920 N 461.167 -1.02423 -1.1978 0
M  V30 4921 C 462.444 -0.632802 -1.85081 0
M  V30 4922 C 462.824 0.888745 -1.9148 0
M  V30 4923 O 462.172 1.78357 -1.42832 0
M  V30 4924 C 462.382 -1.28947 -3.24305 0
M  V30 4925 C 463.73 -1.40976 -4.00513 0
M  V30 4926 O 464.754 -1.24628 -3.33686 0
M  V30 4927 O 463.613 -1.67467 -5.20209 0
M  V30 4928 H 460.707 -0.219348 -0.79738 0
M  V30 4929 H 463.253 -1.12209 -1.27307 0
M  V30 4930 H 462.025 -2.3288 -3.14456 0
M  V30 4931 H 461.648 -0.787748 -3.89718 0
M  V30 4932 N 462.645 1.35699 -0.801477 0
M  V30 4933 C 463.894 1.98165 -0.375979 0
M  V30 4934 C 464.207 1.64306 1.06127 0
M  V30 4935 O 465.413 2.20097 1.58964 0
M  V30 4936 C 463.869 3.54497 -0.621305 0
M  V30 4937 C 463.477 3.9727 -2.07076 0
M  V30 4938 C 465.221 4.23697 -0.26091 0
M  V30 4939 C 463.128 5.46427 -2.26211 0
M  V30 4940 H 462.058 0.741478 -0.136844 0
M  V30 4941 H 464.709 1.54834 -0.984814 0
M  V30 4942 H 463.091 3.95958 0.0574112 0
M  V30 4943 H 464.265 3.66974 -2.78687 0
M  V30 4944 H 462.58 3.40943 -2.39054 0
M  V30 4945 H 465.177 5.33334 -0.381994 0
M  V30 4946 H 465.52 4.0869 0.792344 0
M  V30 4947 H 466.053 3.87639 -0.893339 0
M  V30 4948 H 462.792 5.66396 -3.29963 0
M  V30 4949 H 462.312 5.78309 -1.59119 0
M  V30 4950 H 463.991 6.12819 -2.07513 0
M  V30 4951 N 464.123 0.554532 1.47522 0
M  V30 4952 C 465.37 0.029479 2.02479 0
M  V30 4953 C 465.698 -1.31929 1.42916 0
M  V30 4954 O 464.953 -1.87112 0.573385 0
M  V30 4955 C 465.252 -0.115927 3.57212 0
M  V30 4956 C 464.918 1.16161 4.3568 0
M  V30 4957 C 463.58 1.51168 4.56839 0
M  V30 4958 C 465.932 2.0083 4.80954 0
M  V30 4959 C 463.26 2.70696 5.2052 0
M  V30 4960 C 465.612 3.19559 5.45953 0
M  V30 4961 C 464.276 3.54882 5.65345 0
M  V30 4962 H 463.546 0.0107871 0.740921 0
M  V30 4963 H 466.193 0.725506 1.77225 0
M  V30 4964 H 464.498 -0.894902 3.81443 0
M  V30 4965 H 466.195 -0.53749 3.97381 0
M  V30 4966 H 462.785 0.879026 4.19489 0
M  V30 4967 H 466.969 1.75093 4.64388 0
M  V30 4968 H 462.225 2.98236 5.33728 0
M  V30 4969 H 466.399 3.85456 5.79997 0
M  V30 4970 H 464.026 4.47596 6.1446 0
M  V30 4971 N 465.601 -1.54893 0.290851 0
M  V30 4972 C 466.849 -1.99538 -0.320756 0
M  V30 4973 C 467.17 -1.18075 -1.55188 0
M  V30 4974 O 466.44 -0.274162 -1.93972 0
M  V30 4975 H 465.02 -0.737052 -0.121507 0
M  V30 4976 H 467.682 -1.90755 0.399832 0
M  V30 4977 H 466.778 -3.06282 -0.599802 0
M  V30 4978 N 467.08 -0.0183926 -1.57589 0
M  V30 4979 C 468.043 0.951986 -2.08494 0
M  V30 4980 C 469.043 1.26092 -0.997874 0
M  V30 4981 O 470.233 1.20304 -1.25987 0
M  V30 4982 C 467.365 2.27165 -2.54182 0
M  V30 4983 H 468.558 0.511307 -2.95509 0
M  V30 4984 H 466.111 0.229444 -1.54607 0
M  V30 4985 H 466.846 2.75884 -1.70465 0
M  V30 4986 H 466.631 2.06057 -3.33591 0
M  V30 4987 H 468.121 2.9674 -2.93828 0
M  V30 4988 N 468.558 1.5553 0.254621 0
M  V30 4989 C 469.806 1.7665 0.981793 0
M  V30 4990 C 470.127 0.580963 1.86145 0
M  V30 4991 O 469.397 -0.403537 1.91699 0
M  V30 4992 H 467.977 0.651475 0.365498 0
M  V30 4993 H 470.639 1.92958 0.274426 0
M  V30 4994 H 469.735 2.67486 1.60802 0
M  V30 4995 N 470.036 -0.519951 1.48776 0
M  V30 4996 C 471.283 -1.27522 1.57303 0
M  V30 4997 C 471.611 -1.92869 0.251328 0
M  V30 4998 O 470.866 -1.80372 -0.759243 0
M  V30 4999 C 471.165 -2.37864 2.6675 0
M  V30 5000 C 470.831 -1.90103 4.08867 0
M  V30 5001 C 469.493 -1.76795 4.47546 0
M  V30 5002 C 471.845 -1.54133 4.97888 0
M  V30 5003 C 469.173 -1.25868 5.73039 0
M  V30 5004 C 471.525 -1.04665 6.23881 0
M  V30 5005 C 470.189 -0.899823 6.61407 0
M  V30 5006 H 469.459 -0.466636 0.575614 0
M  V30 5007 H 472.106 -0.579109 1.82534 0
M  V30 5008 H 470.411 -3.13186 2.35418 0
M  V30 5009 H 472.108 -2.95969 2.70561 0
M  V30 5010 H 468.698 -2.01414 3.78326 0
M  V30 5011 H 472.882 -1.6327 4.68675 0
M  V30 5012 H 468.138 -1.13196 6.0083 0
M  V30 5013 H 472.312 -0.759074 6.92251 0
M  V30 5014 H 469.939 -0.503011 7.58534 0
M  V30 5015 N 471.514 -1.37532 -0.769588 0
M  V30 5016 C 472.791 -1.23392 -1.51768 0
M  V30 5017 C 473.171 0.17157 -2.10402 0
M  V30 5018 O 472.519 1.17943 -1.95708 0
M  V30 5019 C 472.729 -2.33163 -2.59685 0
M  V30 5020 C 474.077 -2.70809 -3.27028 0
M  V30 5021 O 475.101 -2.32355 -2.69981 0
M  V30 5022 O 473.96 -3.37066 -4.30173 0
M  V30 5023 H 471.054 -0.481617 -0.67229 0
M  V30 5024 H 473.6 -1.49318 -0.806368 0
M  V30 5025 H 472.372 -3.27273 -2.14494 0
M  V30 5026 H 471.995 -2.08713 -3.38415 0
M  V30 5027 N 472.992 0.995999 -1.22138 0
M  V30 5028 C 474.22 1.77066 -1.07029 0
M  V30 5029 C 474.635 1.8495 0.379357 0
M  V30 5030 O 473.992 1.3174 1.26297 0
M  V30 5031 C 474.043 3.20533 -1.67155 0
M  V30 5032 O 473.764 3.13082 -3.06449 0
M  V30 5033 C 475.265 4.14461 -1.5728 0
M  V30 5034 H 472.485 0.556179 -0.375374 0
M  V30 5035 H 475.029 1.25238 -1.61666 0
M  V30 5036 H 473.184 3.6944 -1.16589 0
M  V30 5037 H 473.598 4.03283 -3.35355 0
M  V30 5038 H 475.072 5.1289 -2.04078 0
M  V30 5039 H 475.549 4.36005 -0.528795 0
M  V30 5040 H 476.155 3.71449 -2.07136 0
M  V30 5041 N 474.47 1.03057 1.19235 0
M  V30 5042 C 475.716 0.729098 1.89241 0
M  V30 5043 C 476.049 -0.740573 1.79525 0
M  V30 5044 O 475.324 -1.53946 1.18874 0
M  V30 5045 C 475.607 1.18304 3.40112 0
M  V30 5046 C 475.46 2.71406 3.5869 0
M  V30 5047 C 476.779 0.765161 4.33397 0
M  V30 5048 H 473.898 0.266338 0.687192 0
M  V30 5049 H 476.54 1.28079 1.40341 0
M  V30 5050 H 474.69 0.713672 3.81889 0
M  V30 5051 H 476.362 3.26303 3.26074 0
M  V30 5052 H 474.605 3.11717 3.01687 0
M  V30 5053 H 475.276 2.98225 4.64506 0
M  V30 5054 H 477.752 1.16889 3.99345 0
M  V30 5055 H 476.628 1.11065 5.37546 0
M  V30 5056 H 476.889 -0.332372 4.40849 0
M  V30 5057 N 475.948 -1.35272 0.808662 0
M  V30 5058 C 477.176 -2.02946 0.402537 0
M  V30 5059 C 477.591 -1.60937 -0.987147 0
M  V30 5060 O 476.948 -0.807917 -1.63643 0
M  V30 5061 C 476.999 -3.58317 0.47868 0
M  V30 5062 O 476.72 -3.98799 1.81358 0
M  V30 5063 C 478.221 -4.43251 0.0656281 0
M  V30 5064 H 475.441 -0.650831 0.163279 0
M  V30 5065 H 477.985 -1.72849 1.09286 0
M  V30 5066 H 476.14 -3.87055 -0.163415 0
M  V30 5067 H 476.554 -4.93451 1.77781 0
M  V30 5068 H 478.028 -5.51738 0.170017 0
M  V30 5069 H 478.505 -4.27913 -0.989278 0
M  V30 5070 H 479.111 -4.19813 0.68096 0
M  V30 5071 N 477.426 -0.562348 -1.47226 0
M  V30 5072 C 478.654 -0.0452275 -2.06851 0
M  V30 5073 C 479.069 1.25078 -1.41424 0
M  V30 5074 O 478.426 1.75156 -0.512513 0
M  V30 5075 C 478.477 0.148674 -3.61194 0
M  V30 5076 O 478.198 -1.09602 -4.24169 0
M  V30 5077 C 479.699 0.702488 -4.37699 0
M  V30 5078 H 476.919 -0.0481775 -0.669268 0
M  V30 5079 H 479.463 -0.777223 -1.89155 0
M  V30 5080 H 477.618 0.830817 -3.78386 0
M  V30 5081 H 478.032 -0.896982 -5.16773 0
M  V30 5082 H 479.506 0.78743 -5.46355 0
M  V30 5083 H 479.983 1.71493 -4.04335 0
M  V30 5084 H 480.589 0.0558772 -4.25263 0
M  V30 5085 N 478.904 1.54736 -0.299062 0
M  V30 5086 C 479.867 2.22127 0.565012 0
M  V30 5087 C 480.867 1.20669 1.06281 0
M  V30 5088 O 482.057 1.45417 0.959145 0
M  V30 5089 C 479.189 2.90611 1.78208 0
M  V30 5090 H 480.382 2.99891 -0.0237448 0
M  V30 5091 H 477.935 1.5622 -0.0498788 0
M  V30 5092 H 478.67 2.16921 2.41072 0
M  V30 5093 H 478.455 3.64984 1.43281 0
M  V30 5094 H 479.945 3.42026 2.396 0
M  V30 5095 N 480.382 0.0267497 1.57577 0
M  V30 5096 C 481.631 -0.651736 1.9088 0
M  V30 5097 C 481.944 -1.73427 0.904576 0
M  V30 5098 O 483.15 -2.46923 1.12877 0
M  V30 5099 C 481.606 -1.21048 3.38933 0
M  V30 5100 C 481.214 -0.161362 4.47709 0
M  V30 5101 C 482.958 -1.86562 3.81307 0
M  V30 5102 C 480.865 -0.731611 5.86857 0
M  V30 5103 H 479.795 -0.247198 0.712326 0
M  V30 5104 H 482.446 0.0916641 1.83271 0
M  V30 5105 H 480.828 -2.00542 3.41466 0
M  V30 5106 H 482.002 0.61094 4.56732 0
M  V30 5107 H 480.317 0.394877 4.14523 0
M  V30 5108 H 482.914 -2.30178 4.8262 0
M  V30 5109 H 483.257 -2.70735 3.16241 0
M  V30 5110 H 483.79 -1.13762 3.81186 0
M  V30 5111 H 480.529 0.0719329 6.55461 0
M  V30 5112 H 480.049 -1.47245 5.81445 0
M  V30 5113 H 481.728 -1.22208 6.35354 0
M  V30 5114 N 481.861 -1.55662 -0.24637 0
M  V30 5115 C 483.086 -1.81914 -0.996093 0
M  V30 5116 C 483.511 -0.603875 -1.78143 0
M  V30 5117 O 482.869 0.447091 -1.75701 0
M  V30 5118 C 482.917 -3.05908 -1.90925 0
M  V30 5119 O 482.021 -2.82861 -3.00105 0
M  V30 5120 H 481.362 -0.600481 -0.283406 0
M  V30 5121 H 483.892 -2.02848 -0.267199 0
M  V30 5122 H 483.902 -3.35356 -2.3238 0
M  V30 5123 H 482.577 -3.93999 -1.33183 0
M  V30 5124 H 481.154 -2.64583 -2.62775 0
M  V30 5125 N 483.339 0.512053 -1.4905 0
M  V30 5126 C 484.585 1.26613 -1.59187 0
M  V30 5127 C 484.94 1.90494 -0.270163 0
M  V30 5128 O 484.233 1.77204 0.728648 0
M  V30 5129 C 484.427 2.36446 -2.68008 0
M  V30 5130 C 484.256 1.83334 -4.10632 0
M  V30 5131 C 483.026 1.65131 -4.77556 0
M  V30 5132 C 485.224 1.35153 -4.96224 0
M  V30 5133 N 483.206 1.06833 -6.04533 0
M  V30 5134 C 484.577 0.889186 -6.13591 0
M  V30 5135 C 486.632 1.23623 -4.82309 0
M  V30 5136 C 485.335 0.322953 -7.18575 0
M  V30 5137 C 487.361 0.683978 -5.87431 0
M  V30 5138 C 486.723 0.2318 -7.04018 0
M  V30 5139 H 482.822 0.453678 -0.636946 0
M  V30 5140 H 485.406 0.575217 -1.86009 0
M  V30 5141 H 483.577 3.03012 -2.42978 0
M  V30 5142 H 485.309 3.03485 -2.67729 0
M  V30 5143 H 482.064 1.89178 -4.34176 0
M  V30 5144 H 482.488 0.796425 -6.72299 0
M  V30 5145 H 487.13 1.57184 -3.92496 0
M  V30 5146 H 484.848 -0.024943 -8.08096 0
M  V30 5147 H 488.434 0.597694 -5.78722 0
M  V30 5148 H 487.314 -0.188869 -7.83973 0
M  V30 5149 N 484.817 1.37938 0.762283 0
M  V30 5150 C 486.042 1.37059 1.55659 0
M  V30 5151 C 486.467 -0.0396123 1.88058 0
M  V30 5152 O 485.825 -1.01929 1.49934 0
M  V30 5153 C 485.873 2.22494 2.83776 0
M  V30 5154 O 484.977 1.63607 3.78559 0
M  V30 5155 H 484.318 0.467892 0.47114 0
M  V30 5156 H 486.848 1.81587 0.942725 0
M  V30 5157 H 486.858 2.36045 3.32786 0
M  V30 5158 H 485.533 3.24993 2.59524 0
M  V30 5159 H 484.11 1.5915 3.37233 0
M  V30 5160 N 486.295 -0.989507 1.22664 0
M  V30 5161 C 487.225 -2.09847 1.02404 0
M  V30 5162 C 488.206 -1.70007 -0.0561303 0
M  V30 5163 O 489.391 -1.93906 0.106748 0
M  V30 5164 C 486.521 -3.41996 0.604663 0
M  V30 5165 C 485.475 -3.95699 1.63115 0
M  V30 5166 C 484.801 -5.23936 1.0675 0
M  V30 5167 C 486.101 -4.25999 3.02196 0
M  V30 5168 H 487.795 -2.27054 1.95158 0
M  V30 5169 H 485.341 -1.09111 0.939727 0
M  V30 5170 H 487.294 -4.1899 0.45002 0
M  V30 5171 H 486.018 -3.24626 -0.35855 0
M  V30 5172 H 484.677 -3.2084 1.77362 0
M  V30 5173 H 484.325 -5.02909 0.0955422 0
M  V30 5174 H 484.025 -5.60833 1.75328 0
M  V30 5175 H 485.549 -6.0356 0.924516 0
M  V30 5176 H 486.963 -4.93777 2.91303 0
M  V30 5177 H 485.36 -4.74076 3.67929 0
M  V30 5178 H 486.43 -3.33636 3.51873 0
M  V30 5179 N 487.773 -1.03688 -1.18687 0
M  V30 5180 C 488.706 -0.569112 -2.2099 0
M  V30 5181 C 489.684 0.394315 -1.57746 0
M  V30 5182 O 490.868 0.309519 -1.85941 0
M  V30 5183 C 487.995 0.169104 -3.38278 0
M  V30 5184 C 487.041 -0.746989 -4.19908 0
M  V30 5185 S 487.874 -2.22773 -4.86963 0
M  V30 5186 C 489.03 -1.50025 -6.07654 0
M  V30 5187 H 489.263 -1.43589 -2.60326 0
M  V30 5188 H 486.796 -0.847507 -1.29061 0
M  V30 5189 H 488.754 0.588868 -4.06254 0
M  V30 5190 H 487.415 1.01172 -2.9736 0
M  V30 5191 H 486.608 -0.176626 -5.0369 0
M  V30 5192 H 486.21 -1.10543 -3.5729 0
M  V30 5193 H 488.502 -0.791217 -6.72864 0
M  V30 5194 H 489.445 -2.31498 -6.69189 0
M  V30 5195 H 489.853 -0.994245 -5.55675 0
M  V30 5196 N 489.251 1.34841 -0.815825 0
M  V30 5197 C 490.481 2.02436 -0.412695 0
M  V30 5198 C 490.889 1.61604 0.983906 0
M  V30 5199 O 490.232 0.813729 1.64694 0
M  V30 5200 C 490.294 3.56953 -0.427182 0
M  V30 5201 C 489.958 4.21083 -1.77589 0
M  V30 5202 C 490.955 4.42107 -2.73564 0
M  V30 5203 C 488.64 4.58006 -2.06243 0
M  V30 5204 C 490.634 4.99169 -3.9637 0
M  V30 5205 C 488.321 5.1478 -3.2931 0
M  V30 5206 C 489.319 5.35304 -4.24191 0
M  V30 5207 O 489.007 5.90878 -5.45086 0
M  V30 5208 H 488.739 0.655631 -0.164695 0
M  V30 5209 H 491.293 1.73246 -1.1034 0
M  V30 5210 H 489.523 3.85372 0.320175 0
M  V30 5211 H 491.212 4.05875 -0.0450875 0
M  V30 5212 H 491.978 4.13953 -2.52721 0
M  V30 5213 H 487.857 4.41339 -1.33196 0
M  V30 5214 H 491.401 5.15105 -4.70439 0
M  V30 5215 H 487.298 5.42362 -3.5002 0
M  V30 5216 H 488.066 6.0932 -5.46508 0
M  V30 5217 N 490.729 0.570148 1.46925 0
M  V30 5218 C 491.659 -0.158274 2.32963 0
M  V30 5219 C 492.64 -0.896093 1.44583 0
M  V30 5220 O 493.825 -0.874022 1.7342 0
M  V30 5221 C 490.955 -1.18055 3.26619 0
M  V30 5222 C 489.909 -0.558379 4.24342 0
M  V30 5223 C 489.235 -1.68623 5.07415 0
M  V30 5224 C 490.535 0.496295 5.19937 0
M  V30 5225 H 492.229 0.560046 2.94115 0
M  V30 5226 H 489.775 0.270775 1.41431 0
M  V30 5227 H 491.728 -1.69841 3.85658 0
M  V30 5228 H 490.452 -1.92899 2.63548 0
M  V30 5229 H 489.111 -0.0617157 3.66548 0
M  V30 5230 H 488.759 -2.42402 4.40738 0
M  V30 5231 H 488.459 -1.27564 5.73586 0
M  V30 5232 H 489.983 -2.20709 5.69315 0
M  V30 5233 H 491.397 0.0640052 5.73264 0
M  V30 5234 H 489.794 0.82649 5.94381 0
M  V30 5235 H 490.864 1.38735 4.6463 0
M  V30 5236 N 492.207 -1.54576 0.307264 0
M  V30 5237 C 493.453 -2.0056 -0.300612 0
M  V30 5238 C 493.786 -1.1953 -1.53057 0
M  V30 5239 O 493.061 -0.27337 -1.92569 0
M  V30 5240 C 493.344 -3.54167 -0.650987 0
M  V30 5241 C 493.197 -4.45933 0.588539 0
M  V30 5242 C 494.516 -4.14645 -1.47506 0
M  V30 5243 H 491.635 -0.729075 -0.107788 0
M  V30 5244 H 494.277 -1.85286 0.420606 0
M  V30 5245 H 492.427 -3.67313 -1.26544 0
M  V30 5246 H 494.099 -4.44683 1.22697 0
M  V30 5247 H 492.342 -4.16274 1.22058 0
M  V30 5248 H 493.013 -5.51189 0.299153 0
M  V30 5249 H 495.489 -4.04973 -0.955821 0
M  V30 5250 H 494.365 -5.22269 -1.68899 0
M  V30 5251 H 494.626 -3.66921 -2.4662 0
M  V30 5252 N 493.685 -0.035106 -1.57561 0
M  V30 5253 C 494.913 0.652258 -1.9635 0
M  V30 5254 C 495.328 1.65317 -0.911897 0
M  V30 5255 O 494.685 1.82194 0.105657 0
M  V30 5256 C 494.736 1.35337 -3.35211 0
M  V30 5257 O 494.457 0.392548 -4.36338 0
M  V30 5258 C 495.958 2.13199 -3.88666 0
M  V30 5259 H 493.178 0.179444 -0.646561 0
M  V30 5260 H 495.722 -0.0966459 -2.04271 0
M  V30 5261 H 493.877 2.05362 -3.28489 0
M  V30 5262 H 494.291 0.891097 -5.16875 0
M  V30 5263 H 495.765 2.577 -4.88154 0
M  V30 5264 H 496.242 2.97353 -3.23231 0
M  V30 5265 H 496.848 1.48118 -3.98674 0
M  V30 5266 N 495.163 1.55791 0.238111 0
M  V30 5267 C 496.11 1.9105 1.29493 0
M  V30 5268 C 497.08 0.765733 1.47397 0
M  V30 5269 O 498.265 1.02017 1.61236 0
M  V30 5270 C 495.405 2.21826 2.64362 0
M  V30 5271 C 494.518 3.49153 2.54394 0
M  V30 5272 C 493.653 3.69455 3.81676 0
M  V30 5273 C 492.692 4.90353 3.66361 0
M  V30 5274 N 491.829 5.07131 4.85554 0
M  V30 5275 H 496.669 2.81172 0.987233 0
M  V30 5276 H 494.206 1.39179 0.476203 0
M  V30 5277 H 496.164 2.37675 3.4288 0
M  V30 5278 H 494.794 1.34897 2.93262 0
M  V30 5279 H 493.846 3.41587 1.67399 0
M  V30 5280 H 495.158 4.37818 2.38991 0
M  V30 5281 H 494.312 3.85311 4.68636 0
M  V30 5282 H 493.051 2.7904 3.99985 0
M  V30 5283 H 492.056 4.74464 2.77784 0
M  V30 5284 H 493.281 5.82237 3.49538 0
M  V30 5285 H 491.227 4.19654 5.04209 0
M  V30 5286 H 491.144 5.89899 4.72816 0
M  V30 5287 H 492.412 5.27407 5.73988 0
M  V30 5288 N 496.642 -0.504142 1.49319 0
M  V30 5289 C 498.053 -1.08572 1.51885 0
M  V30 5290 C 498.404 -1.93842 0.303255 0
M  V30 5291 O 497.529 -2.0828 -0.58724 0
M  V30 5292 C 498.124 -1.97574 2.75227 0
M  V30 5293 C 496.683 -2.509 2.80581 0
M  V30 5294 C 495.83 -1.28447 2.45757 0
M  V30 5295 H 498.781 -0.288194 1.56061 0
M  V30 5296 H 498.802 -2.82219 2.55211 0
M  V30 5297 H 498.314 -1.35486 3.63683 0
M  V30 5298 H 496.415 -3.16636 1.96398 0
M  V30 5299 H 496.528 -2.88268 3.82673 0
M  V30 5300 H 494.892 -1.60868 1.97468 0
M  V30 5301 H 495.675 -0.68072 3.36483 0
M  V30 5302 N 498.12 -1.38341 -0.754957 0
M  V30 5303 C 499.03 -1.3769 -1.89944 0
M  V30 5304 C 500.046 -0.274194 -1.71826 0
M  V30 5305 O 501.222 -0.512391 -1.94773 0
M  V30 5306 C 498.287 -1.19938 -3.25293 0
M  V30 5307 C 497.348 -2.40001 -3.55946 0
M  V30 5308 C 496.581 -2.23087 -4.84838 0
M  V30 5309 O 496.804 -1.22386 -5.57116 0
M  V30 5310 O 495.738 -3.11646 -5.14937 0
M  V30 5311 H 499.564 -2.3412 -1.93446 0
M  V30 5312 H 497.149 -1.19246 -0.900044 0
M  V30 5313 H 499.031 -1.12093 -4.06218 0
M  V30 5314 H 497.706 -0.265919 -3.22606 0
M  V30 5315 H 496.613 -2.53421 -2.75188 0
M  V30 5316 H 497.946 -3.31973 -3.63394 0
M  V30 5317 N 499.598 0.982988 -1.23187 0
M  V30 5318 C 500.847 1.71817 -1.05649 0
M  V30 5319 C 501.16 1.91315 0.407176 0
M  V30 5320 O 502.366 2.62256 0.702436 0
M  V30 5321 C 500.822 3.09188 -1.84203 0
M  V30 5322 C 500.43 2.97586 -3.34882 0
M  V30 5323 C 502.174 3.86684 -1.75146 0
M  V30 5324 C 500.081 4.30173 -4.05839 0
M  V30 5325 H 499.011 0.644258 -0.391724 0
M  V30 5326 H 501.662 1.09659 -1.4713 0
M  V30 5327 H 500.044 3.72087 -1.35527 0
M  V30 5328 H 501.218 2.43793 -3.91026 0
M  V30 5329 H 499.533 2.33567 -3.44725 0
M  V30 5330 H 502.13 4.84836 -2.25473 0
M  V30 5331 H 502.473 4.10136 -0.713737 0
M  V30 5332 H 503.006 3.30482 -2.21419 0
M  V30 5333 H 499.745 4.11918 -5.09906 0
M  V30 5334 H 499.265 4.83841 -3.54482 0
M  V30 5335 H 500.944 4.98873 -4.11989 0
M  V30 5336 N 501.076 1.04316 1.18135 0
M  V30 5337 C 502.008 0.594444 2.21357 0
M  V30 5338 C 503.021 -0.337215 1.59269 0
M  V30 5339 O 504.21 -0.131337 1.78016 0
M  V30 5340 C 501.31 -0.151251 3.38562 0
M  V30 5341 C 500.483 0.788907 4.30227 0
M  V30 5342 C 499.542 0.0860572 5.2613 0
M  V30 5343 O 498.568 0.717302 5.64662 0
M  V30 5344 N 499.77 -1.17969 5.68387 0
M  V30 5345 H 502.535 1.48227 2.60478 0
M  V30 5346 H 500.096 0.92396 1.32946 0
M  V30 5347 H 502.088 -0.631352 3.99745 0
M  V30 5348 H 500.658 -0.940639 2.98112 0
M  V30 5349 H 499.878 1.44882 3.6661 0
M  V30 5350 H 501.166 1.42738 4.88368 0
M  V30 5351 H 500.564 -1.71302 5.3914 0
M  V30 5352 H 499.121 -1.60402 6.31755 0
M  V30 5353 N 502.554 -1.34406 0.822964 0
M  V30 5354 C 503.97 -1.51275 0.508727 0
M  V30 5355 C 504.17 -1.76776 -0.967083 0
M  V30 5356 O 503.226 -1.81871 -1.75155 0
M  V30 5357 C 504.539 -2.67765 1.36829 0
M  V30 5358 C 506.087 -2.81647 1.36542 0
M  V30 5359 C 506.562 -4.01181 2.20947 0
M  V30 5360 N 508.053 -4.08388 2.18571 0
M  V30 5361 C 508.788 -5.00036 2.80627 0
M  V30 5362 N 508.284 -5.96906 3.51674 0
M  V30 5363 N 510.077 -4.92908 2.70181 0
M  V30 5364 H 502.228 -1.16113 1.77852 0
M  V30 5365 H 504.491 -0.56947 0.757897 0
M  V30 5366 H 504.197 -2.55551 2.41633 0
M  V30 5367 H 504.071 -3.62779 1.03303 0
M  V30 5368 H 506.458 -2.93303 0.325163 0
M  V30 5369 H 506.539 -1.87443 1.74066 0
M  V30 5370 H 506.183 -3.90286 3.25022 0
M  V30 5371 H 506.113 -4.94599 1.80774 0
M  V30 5372 H 508.604 -3.39051 1.66891 0
M  V30 5373 H 508.917 -6.63468 3.96271 0
M  V30 5374 H 507.262 -5.9703 3.5578 0
M  V30 5375 H 510.453 -4.1619 2.14251 0
M  V30 5376 H 510.626 -5.64137 3.18831 0
M  V30 5377 N 504.032 -0.577932 -1.46621 0
M  V30 5378 C 504.979 0.158048 -2.30258 0
M  V30 5379 C 505.949 0.888669 -1.40328 0
M  V30 5380 O 507.134 0.880283 -1.6928 0
M  V30 5381 C 504.274 1.16884 -3.24703 0
M  V30 5382 C 503.387 0.442163 -4.29731 0
M  V30 5383 C 502.522 1.44007 -5.11308 0
M  V30 5384 C 501.561 0.69952 -6.0809 0
M  V30 5385 N 500.698 1.64525 -6.82551 0
M  V30 5386 H 505.538 -0.561242 -2.92667 0
M  V30 5387 H 503.075 -0.288591 -1.44241 0
M  V30 5388 H 505.033 1.7677 -3.779 0
M  V30 5389 H 503.663 1.85591 -2.64113 0
M  V30 5390 H 502.715 -0.271632 -3.79429 0
M  V30 5391 H 504.027 -0.136992 -4.98612 0
M  V30 5392 H 503.181 2.11186 -5.68758 0
M  V30 5393 H 501.92 2.05315 -4.42377 0
M  V30 5394 H 500.925 0.0139217 -5.49798 0
M  V30 5395 H 502.15 0.091894 -6.79038 0
M  V30 5396 H 500.096 2.24653 -6.16334 0
M  V30 5397 H 500.013 1.11878 -7.47676 0
M  V30 5398 H 501.281 2.30754 -7.44562 0
M  V30 5399 N 505.51 1.54411 -0.315457 0
M  V30 5400 C 506.759 1.99599 0.290395 0
M  V30 5401 C 507.072 1.20746 1.53882 0
M  V30 5402 O 508.278 1.56272 2.22017 0
M  V30 5403 C 506.734 3.5539 0.56797 0
M  V30 5404 C 506.342 4.43068 -0.662945 0
M  V30 5405 C 508.086 4.09067 1.13422 0
M  V30 5406 C 505.993 5.90317 -0.357722 0
M  V30 5407 H 504.923 0.745592 0.112286 0
M  V30 5408 H 507.574 1.78477 -0.426418 0
M  V30 5409 H 505.956 3.72468 1.34476 0
M  V30 5410 H 507.13 4.37765 -1.43869 0
M  V30 5411 H 505.445 4.00238 -1.14884 0
M  V30 5412 H 508.042 5.16663 1.37707 0
M  V30 5413 H 508.385 3.60552 2.08106 0
M  V30 5414 H 508.918 3.95589 0.418805 0
M  V30 5415 H 505.657 6.4301 -1.27351 0
M  V30 5416 H 505.177 5.98592 0.380472 0
M  V30 5417 H 506.856 6.4699 0.0354284 0
M  V30 5418 N 506.988 0.0434614 1.5754 0
M  V30 5419 C 507.92 -0.962586 2.08007 0
M  V30 5420 C 508.933 -1.27972 1.00634 0
M  V30 5421 O 510.122 -1.24186 1.28219 0
M  V30 5422 C 507.222 -2.28621 2.50171 0
M  V30 5423 C 506.395 -2.15214 3.80791 0
M  V30 5424 C 505.454 -3.30633 4.09351 0
M  V30 5425 O 504.48 -3.0688 4.79388 0
M  V30 5426 N 505.682 -4.54873 3.60654 0
M  V30 5427 H 508.447 -0.531891 2.94942 0
M  V30 5428 H 506.008 -0.142965 1.61268 0
M  V30 5429 H 508 -3.04689 2.66359 0
M  V30 5430 H 506.57 -2.63283 1.68525 0
M  V30 5431 H 505.79 -1.23785 3.74261 0
M  V30 5432 H 507.078 -2.03475 4.66343 0
M  V30 5433 H 506.476 -4.77063 3.04019 0
M  V30 5434 H 505.033 -5.2806 3.82094 0
M  V30 5435 N 508.466 -1.55915 -0.229846 0
M  V30 5436 C 509.413 -1.91734 -1.28478 0
M  V30 5437 C 510.383 -0.773539 -1.46988 0
M  V30 5438 O 511.568 -1.02871 -1.60693 0
M  V30 5439 C 508.708 -2.23224 -2.63182 0
M  V30 5440 C 507.821 -3.50497 -2.52539 0
M  V30 5441 C 506.956 -3.71474 -3.79711 0
M  V30 5442 C 505.995 -4.92289 -3.63755 0
M  V30 5443 N 505.132 -5.09698 -4.82858 0
M  V30 5444 H 509.972 -2.81692 -0.972308 0
M  V30 5445 H 507.509 -1.39429 -0.468815 0
M  V30 5446 H 509.467 -2.3949 -3.41614 0
M  V30 5447 H 508.097 -1.36451 -2.92542 0
M  V30 5448 H 507.149 -3.4247 -1.65585 0
M  V30 5449 H 508.461 -4.39079 -2.36666 0
M  V30 5450 H 507.615 -3.87791 -4.66586 0
M  V30 5451 H 506.354 -2.81157 -3.985 0
M  V30 5452 H 505.359 -4.7593 -2.75264 0
M  V30 5453 H 506.584 -5.84083 -3.46445 0
M  V30 5454 H 504.53 -4.22322 -5.01976 0
M  V30 5455 H 504.447 -5.92399 -4.69681 0
M  V30 5456 H 505.715 -5.30443 -5.71183 0
M  V30 5457 N 509.944 0.496216 -1.49584 0
M  V30 5458 C 510.854 1.62352 -1.69349 0
M  V30 5459 C 511.87 1.64184 -0.576147 0
M  V30 5460 O 513.046 1.82517 -0.85144 0
M  V30 5461 C 510.111 2.98698 -1.76013 0
M  V30 5462 C 509.172 3.07454 -2.99617 0
M  V30 5463 C 508.405 4.37296 -3.05953 0
M  V30 5464 O 508.628 5.2637 -2.19752 0
M  V30 5465 O 507.562 4.51124 -3.9846 0
M  V30 5466 H 511.388 1.48606 -2.64859 0
M  V30 5467 H 508.973 0.673022 -1.33382 0
M  V30 5468 H 510.855 3.79725 -1.82721 0
M  V30 5469 H 509.53 3.12696 -0.836828 0
M  V30 5470 H 508.437 2.25597 -2.98424 0
M  V30 5471 H 509.77 2.98385 -3.91443 0
M  V30 5472 N 511.423 1.38739 0.74761 0
M  V30 5473 C 512.353 1.39173 1.87492 0
M  V30 5474 C 513.334 0.256794 1.6815 0
M  V30 5475 O 514.519 0.460762 1.88655 0
M  V30 5476 C 511.649 1.22197 3.25093 0
M  V30 5477 C 510.603 2.32957 3.59047 0
M  V30 5478 C 509.929 2.01082 4.95449 0
M  V30 5479 C 511.229 3.75237 3.6331 0
M  V30 5480 H 512.923 2.3351 1.87386 0
M  V30 5481 H 510.469 1.12399 0.900134 0
M  V30 5482 H 512.422 1.21124 4.03617 0
M  V30 5483 H 511.146 0.243241 3.25693 0
M  V30 5484 H 509.805 2.33226 2.82845 0
M  V30 5485 H 509.453 1.01678 4.92616 0
M  V30 5486 H 509.153 2.75267 5.19136 0
M  V30 5487 H 510.677 2.01638 5.76346 0
M  V30 5488 H 512.091 3.76966 4.31937 0
M  V30 5489 H 510.488 4.48677 3.98509 0
M  V30 5490 H 511.558 4.07122 2.634 0
M  V30 5491 N 512.901 -0.976442 1.23707 0
M  V30 5492 C 514.178 -1.69296 0.979699 0
M  V30 5493 C 514.558 -2.0508 -0.500555 0
M  V30 5494 O 513.906 -1.74708 -1.47273 0
M  V30 5495 C 514.116 -2.93143 1.89389 0
M  V30 5496 C 515.464 -3.65572 2.15968 0
M  V30 5497 O 516.488 -3.03184 1.86971 0
M  V30 5498 O 515.347 -4.77859 2.65167 0
M  V30 5499 H 512.441 -0.739708 0.369812 0
M  V30 5500 H 514.987 -1.03131 1.34767 0
M  V30 5501 H 513.759 -2.63327 2.89439 0
M  V30 5502 H 513.382 -3.67044 1.52854 0
M  V30 5503 N 514.379 -1.04941 -1.1758 0
M  V30 5504 C 515.607 -0.778294 -1.91703 0
M  V30 5505 C 516.022 0.665697 -1.76675 0
M  V30 5506 O 515.379 1.45456 -1.10222 0
M  V30 5507 C 515.43 -1.14628 -3.42845 0
M  V30 5508 O 515.151 -2.53359 -3.57409 0
M  V30 5509 C 516.652 -0.900931 -4.34049 0
M  V30 5510 H 513.872 -0.283167 -0.608323 0
M  V30 5511 H 516.416 -1.39942 -1.49119 0
M  V30 5512 H 514.571 -0.569953 -3.83184 0
M  V30 5513 H 514.985 -2.67709 -4.51035 0
M  V30 5514 H 516.459 -1.20817 -5.38616 0
M  V30 5515 H 516.936 0.163966 -4.38894 0
M  V30 5516 H 517.542 -1.46097 -3.99419 0
M  V30 5517 N 515.857 1.33968 -0.830081 0
M  V30 5518 C 517.103 1.98357 -0.422191 0
M  V30 5519 C 517.436 1.65633 1.01387 0
M  V30 5520 O 516.711 0.931648 1.70735 0
M  V30 5521 C 516.994 3.54492 -0.633043 0
M  V30 5522 C 516.847 3.96934 -2.11574 0
M  V30 5523 C 518.166 4.40039 -0.0735584 0
M  V30 5524 H 515.285 0.720544 -0.154871 0
M  V30 5525 H 517.927 1.58749 -1.04397 0
M  V30 5526 H 516.077 3.88361 -0.103775 0
M  V30 5527 H 517.749 3.73363 -2.7092 0
M  V30 5528 H 515.992 3.46984 -2.60354 0
M  V30 5529 H 516.663 5.05651 -2.21406 0
M  V30 5530 H 519.139 4.12764 -0.52585 0
M  V30 5531 H 518.015 5.48327 -0.250841 0
M  V30 5532 H 518.276 4.30124 1.02202 0
M  V30 5533 N 517.335 0.585699 1.46312 0
M  V30 5534 C 518.584 0.0701192 2.01578 0
M  V30 5535 C 518.897 -1.29889 1.46247 0
M  V30 5536 O 520.103 -1.90598 1.93351 0
M  V30 5537 C 518.559 0.0747499 3.59822 0
M  V30 5538 C 518.167 1.44226 4.24149 0
M  V30 5539 C 519.911 -0.38673 4.22735 0
M  V30 5540 C 517.818 1.40446 5.74481 0
M  V30 5541 H 516.748 0.0224441 0.753666 0
M  V30 5542 H 519.399 0.737789 1.68015 0
M  V30 5543 H 517.781 -0.659144 3.90476 0
M  V30 5544 H 518.955 2.19612 4.05101 0
M  V30 5545 H 517.27 1.84401 3.73343 0
M  V30 5546 H 519.867 -0.433853 5.32937 0
M  V30 5547 H 520.21 -1.40489 3.91878 0
M  V30 5548 H 520.743 0.293195 3.96718 0
M  V30 5549 H 517.482 2.39952 6.10003 0
M  V30 5550 H 517.002 0.692845 5.95785 0
M  V30 5551 H 518.681 1.11865 6.37256 0
M  V30 5552 N 518.813 -1.54241 0.323641 0
M  V30 5553 C 520.061 -2.00174 -0.278359 0
M  V30 5554 C 520.382 -1.2134 -1.52648 0
M  V30 5555 O 519.652 -0.315244 -1.93347 0
M  V30 5556 H 518.232 -0.739463 -0.105845 0
M  V30 5557 H 520.894 -1.89864 0.440204 0
M  V30 5558 H 519.99 -3.07486 -0.5347 0
M  V30 5559 N 520.291 -0.0518155 -1.57515 0
M  V30 5560 C 521.707 0.304735 -1.56664 0
M  V30 5561 C 521.907 1.71395 -1.05953 0
M  V30 5562 O 520.963 2.42123 -0.716414 0
M  V30 5563 C 522.276 0.132614 -3.00407 0
M  V30 5564 C 523.824 0.20367 -3.12337 0
M  V30 5565 C 524.299 0.0600706 -4.57961 0
M  V30 5566 N 525.79 0.116326 -4.63054 0
M  V30 5567 C 526.525 0.0293363 -5.73392 0
M  V30 5568 N 526.021 -0.110038 -6.92713 0
M  V30 5569 N 527.814 0.0849651 -5.62036 0
M  V30 5570 H 519.965 -0.973056 -1.888 0
M  V30 5571 H 522.228 -0.377781 -0.869474 0
M  V30 5572 H 521.934 -0.839019 -3.41546 0
M  V30 5573 H 521.808 0.893376 -3.66468 0
M  V30 5574 H 524.195 1.16578 -2.71097 0
M  V30 5575 H 524.276 -0.587857 -2.48954 0
M  V30 5576 H 523.92 -0.898715 -4.99886 0
M  V30 5577 H 523.85 0.87075 -5.19351 0
M  V30 5578 H 526.341 0.22327 -3.7724 0
M  V30 5579 H 526.654 -0.169104 -7.72615 0
M  V30 5580 H 524.999 -0.145132 -6.94848 0
M  V30 5581 H 528.19 0.192411 -4.67704 0
M  V30 5582 H 528.363 0.0137131 -6.47999 0
M  V30 5583 N 521.769 1.56035 0.221574 0
M  V30 5584 C 522.679 1.95581 1.29558 0
M  V30 5585 C 523.695 0.859639 1.51282 0
M  V30 5586 O 524.871 1.16321 1.64413 0
M  V30 5587 C 521.936 2.26447 2.62531 0
M  V30 5588 C 520.997 3.49632 2.4911 0
M  V30 5589 C 520.23 3.79017 3.75742 0
M  V30 5590 O 520.453 3.10077 4.78757 0
M  V30 5591 O 519.387 4.72507 3.72855 0
M  V30 5592 H 523.213 2.8711 0.990035 0
M  V30 5593 H 520.798 1.43244 0.424434 0
M  V30 5594 H 522.68 2.47494 3.41064 0
M  V30 5595 H 521.355 1.38092 2.92766 0
M  V30 5596 H 520.262 3.33864 1.68777 0
M  V30 5597 H 521.595 4.3837 2.23814 0
M  V30 5598 N 523.247 -0.488276 1.49845 0
M  V30 5599 C 524.663 -0.820566 1.3689 0
M  V30 5600 C 524.863 -1.97248 0.411752 0
M  V30 5601 O 523.919 -2.52042 -0.151931 0
M  V30 5602 C 525.232 -1.1488 2.77891 0
M  V30 5603 C 526.78 -1.25626 2.86683 0
M  V30 5604 C 527.255 -1.61772 4.28479 0
M  V30 5605 N 528.746 -1.68797 4.31349 0
M  V30 5606 C 529.481 -1.98235 5.38043 0
M  V30 5607 N 528.977 -2.2581 6.54967 0
M  V30 5608 N 530.77 -1.99593 5.2547 0
M  V30 5609 H 522.921 0.271123 2.10662 0
M  V30 5610 H 525.184 0.058735 0.946179 0
M  V30 5611 H 524.89 -0.375614 3.49688 0
M  V30 5612 H 524.764 -2.08919 3.14058 0
M  V30 5613 H 527.151 -2.02014 2.15114 0
M  V30 5614 H 527.232 -0.296072 2.54081 0
M  V30 5615 H 526.876 -0.859295 5.00578 0
M  V30 5616 H 526.806 -2.58912 4.58554 0
M  V30 5617 H 529.297 -1.49595 3.4703 0
M  V30 5618 H 529.61 -2.47497 7.32096 0
M  V30 5619 H 527.955 -2.23239 6.58171 0
M  V30 5620 H 531.146 -1.77535 4.33127 0
M  V30 5621 H 531.319 -2.222 6.08713 0
M  V30 5622 N 524.725 -1.39134 -0.740242 0
M  V30 5623 C 526.141 -1.20623 -1.0451 0
M  V30 5624 C 526.341 -0.0641651 -2.01398 0
M  V30 5625 O 525.397 0.585843 -2.4561 0
M  V30 5626 C 526.71 -2.53815 -1.6124 0
M  V30 5627 C 528.258 -2.60615 -1.73346 0
M  V30 5628 C 528.733 -3.94015 -2.33486 0
M  V30 5629 N 530.224 -3.95627 -2.40902 0
M  V30 5630 C 530.959 -4.95616 -2.88361 0
M  V30 5631 N 530.455 -6.06003 -3.35756 0
M  V30 5632 N 532.248 -4.82998 -2.87523 0
M  V30 5633 H 524.399 -2.12176 -0.0975576 0
M  V30 5634 H 526.662 -0.942066 -0.105904 0
M  V30 5635 H 526.368 -3.37911 -0.975144 0
M  V30 5636 H 526.242 -2.73162 -2.6012 0
M  V30 5637 H 528.629 -1.76906 -2.36195 0
M  V30 5638 H 528.71 -2.45123 -0.731336 0
M  V30 5639 H 528.354 -4.78153 -1.71267 0
M  V30 5640 H 528.284 -4.06825 -3.34366 0
M  V30 5641 H 530.775 -3.15903 -2.07398 0
M  V30 5642 H 531.088 -6.78215 -3.70464 0
M  V30 5643 H 529.433 -6.09604 -3.33778 0
M  V30 5644 H 532.624 -3.95866 -2.49816 0
M  V30 5645 H 532.797 -5.61072 -3.24196 0
M  V30 5646 N 526.204 0.969867 -1.24223 0
M  V30 5647 C 527.615 1.52717 -1.07399 0
M  V30 5648 C 527.966 1.92956 0.355298 0
M  V30 5649 O 527.091 1.77112 1.2434 0
M  V30 5650 C 527.686 2.77521 -1.94339 0
M  V30 5651 C 526.245 3.29615 -1.81744 0
M  V30 5652 C 525.392 2.02537 -1.89405 0
M  V30 5653 H 528.343 0.788399 -1.37732 0
M  V30 5654 H 528.364 3.50773 -1.47439 0
M  V30 5655 H 527.876 2.48203 -2.98357 0
M  V30 5656 H 525.977 3.63789 -0.805505 0
M  V30 5657 H 526.09 3.98661 -2.65718 0
M  V30 5658 H 524.454 2.17151 -1.33108 0
M  V30 5659 H 525.237 1.75587 -2.94999 0
M  V30 5660 N 527.682 1.05563 1.17022 0
M  V30 5661 C 529.098 0.777684 1.39371 0
M  V30 5662 C 529.298 -0.626269 1.91521 0
M  V30 5663 O 528.354 -1.38806 2.10924 0
M  V30 5664 C 529.667 1.83642 2.3811 0
M  V30 5665 C 531.215 1.85907 2.51809 0
M  V30 5666 C 531.69 2.90813 3.53824 0
M  V30 5667 N 533.181 2.898 3.61345 0
M  V30 5668 C 533.916 3.6762 4.40049 0
M  V30 5669 N 533.412 4.55237 5.22237 0
M  V30 5670 N 535.205 3.56044 4.34959 0
M  V30 5671 H 527.356 1.9614 0.815047 0
M  V30 5672 H 529.619 0.849527 0.420722 0
M  V30 5673 H 529.325 2.84425 2.06871 0
M  V30 5674 H 529.199 1.6812 3.37662 0
M  V30 5675 H 531.586 0.857865 2.82356 0
M  V30 5676 H 531.667 2.05506 1.52318 0
M  V30 5677 H 531.311 3.91122 3.24015 0
M  V30 5678 H 531.241 2.68465 4.53028 0
M  V30 5679 H 533.732 2.26274 3.02669 0
M  V30 5680 H 534.045 5.11291 5.79484 0
M  V30 5681 H 532.39 4.59296 5.21605 0
M  V30 5682 H 535.581 2.86986 3.69806 0
M  V30 5683 H 535.754 4.16938 4.96051 0
M  V30 5684 N 529.16 -1.33526 0.837174 0
M  V30 5685 C 530.09 -2.31764 0.284206 0
M  V30 5686 C 531.071 -1.58896 -0.607142 0
M  V30 5687 O 532.256 -1.86798 -0.531047 0
M  V30 5688 C 529.386 -3.43029 -0.542962 0
M  V30 5689 C 528.34 -4.27255 0.252451 0
M  V30 5690 C 527.666 -5.3012 -0.69836 0
M  V30 5691 C 528.966 -5.01229 1.46858 0
M  V30 5692 H 530.66 -2.78262 1.10502 0
M  V30 5693 H 528.206 -1.3378 0.532812 0
M  V30 5694 H 530.159 -4.1078 -0.940096 0
M  V30 5695 H 528.883 -2.95216 -1.39697 0
M  V30 5696 H 527.542 -3.61127 0.631124 0
M  V30 5697 H 527.19 -4.78564 -1.54872 0
M  V30 5698 H 526.89 -5.87353 -0.170274 0
M  V30 5699 H 528.414 -6.00737 -1.09305 0
M  V30 5700 H 529.828 -5.61756 1.14469 0
M  V30 5701 H 528.225 -5.68104 1.93333 0
M  V30 5702 H 529.295 -4.301 2.23924 0
M  V30 5703 N 530.638 -0.59345 -1.46 0
M  V30 5704 C 531.863 -0.0872365 -2.07216 0
M  V30 5705 C 532.288 1.2131 -1.43755 0
M  V30 5706 O 531.646 1.73528 -0.525152 0
M  V30 5707 C 531.694 0.0538197 -3.6056 0
M  V30 5708 O 530.798 1.10765 -3.97247 0
M  V30 5709 H 530.139 -0.0676598 -0.660544 0
M  V30 5710 H 532.669 -0.819445 -1.87473 0
M  V30 5711 H 532.679 0.256567 -4.07193 0
M  V30 5712 H 531.354 -0.895739 -4.0614 0
M  V30 5713 H 529.931 0.882501 -3.62307 0
M  V30 5714 N 532.116 1.54067 -0.331816 0
M  V30 5715 C 533.393 1.92915 0.322955 0
M  V30 5716 C 533.773 1.26225 1.69205 0
M  V30 5717 O 533.121 0.408919 2.24811 0
M  V30 5718 C 533.331 3.46619 0.406946 0
M  V30 5719 C 534.679 4.19386 0.663339 0
M  V30 5720 O 535.703 3.5282 0.489536 0
M  V30 5721 O 534.562 5.37288 0.999193 0
M  V30 5722 H 531.656 0.805808 0.186016 0
M  V30 5723 H 534.202 1.65342 -0.382135 0
M  V30 5724 H 532.974 3.87354 -0.554287 0
M  V30 5725 H 532.597 3.80324 1.15929 0
M  V30 5726 N 533.594 0.0601682 1.57485 0
M  V30 5727 C 535.01 -0.296422 1.56823 0
M  V30 5728 C 535.21 -1.70831 1.0686 0
M  V30 5729 O 534.266 -2.4174 0.729245 0
M  V30 5730 C 535.579 -0.116681 3.00474 0
M  V30 5731 C 537.127 -0.187103 3.1244 0
M  V30 5732 C 537.602 -0.035783 4.57986 0
M  V30 5733 N 539.093 -0.0917676 4.63109 0
M  V30 5734 C 539.828 0.00107251 5.734 0
M  V30 5735 N 539.324 0.146773 6.92645 0
M  V30 5736 N 541.117 -0.0551577 5.62073 0
M  V30 5737 H 533.268 0.983055 1.88281 0
M  V30 5738 H 535.531 0.382386 0.867459 0
M  V30 5739 H 535.237 0.85712 3.41096 0
M  V30 5740 H 535.111 -0.873929 3.66936 0
M  V30 5741 H 537.498 -1.15138 2.71712 0
M  V30 5742 H 537.579 0.601052 2.48638 0
M  V30 5743 H 537.223 0.925212 4.99402 0
M  V30 5744 H 537.153 -0.843196 5.19806 0
M  V30 5745 H 539.644 -0.203261 3.77353 0
M  V30 5746 H 539.957 0.210076 7.72514 0
M  V30 5747 H 538.302 0.181979 6.94762 0
M  V30 5748 H 541.493 -0.167605 4.678 0
M  V30 5749 H 541.666 0.020652 6.47997 0
M  V30 5750 N 535.072 -1.5615 -0.213296 0
M  V30 5751 C 536.483 -1.69645 -0.779582 0
M  V30 5752 C 536.834 -0.663615 -1.84636 0
M  V30 5753 O 535.959 0.183633 -2.15619 0
M  V30 5754 C 536.554 -3.07567 -1.42084 0
M  V30 5755 C 535.113 -3.22889 -1.93442 0
M  V30 5756 C 534.26 -2.65581 -0.797612 0
M  V30 5757 H 537.211 -1.58696 0.0114951 0
M  V30 5758 H 537.232 -3.03884 -2.28986 0
M  V30 5759 H 536.744 -3.82716 -0.644187 0
M  V30 5760 H 534.845 -2.52623 -2.73884 0
M  V30 5761 H 534.958 -4.30197 -2.10872 0
M  V30 5762 H 533.322 -2.24278 -1.20712 0
M  V30 5763 H 534.105 -3.43284 -0.033494 0
M  V30 5764 N 536.55 0.480323 -1.50102 0
M  V30 5765 C 537.482 1.59669 -1.64433 0
M  V30 5766 C 538.495 1.54063 -0.52615 0
M  V30 5767 O 539.684 1.59619 -0.798992 0
M  V30 5768 C 536.784 2.98527 -1.6042 0
M  V30 5769 C 535.957 3.291 -2.88117 0
M  V30 5770 C 535.016 4.47468 -2.76873 0
M  V30 5771 O 534.042 4.4823 -3.50825 0
M  V30 5772 N 535.244 5.48593 -1.89806 0
M  V30 5773 H 538.009 1.47795 -2.60723 0
M  V30 5774 H 535.57 0.66858 -1.4745 0
M  V30 5775 H 537.562 3.75666 -1.50523 0
M  V30 5776 H 536.132 3.04218 -0.719036 0
M  V30 5777 H 535.352 2.40662 -3.12211 0
M  V30 5778 H 536.64 3.46334 -3.72734 0
M  V30 5779 H 536.038 5.50791 -1.2902 0
M  V30 5780 H 534.595 6.24752 -1.85819 0
M  V30 5781 N 538.028 1.39524 0.732853 0
M  V30 5782 C 538.958 1.41153 1.86005 0
M  V30 5783 C 539.939 0.274614 1.67869 0
M  V30 5784 O 541.124 0.480745 1.88155 0
M  V30 5785 C 538.254 1.25638 3.23778 0
M  V30 5786 C 537.208 2.36752 3.56556 0
M  V30 5787 C 536.534 2.06326 4.93289 0
M  V30 5788 C 537.834 3.79069 3.5931 0
M  V30 5789 H 539.528 2.35484 1.84899 0
M  V30 5790 H 537.074 1.13348 0.888162 0
M  V30 5791 H 539.027 1.25398 4.0231 0
M  V30 5792 H 537.751 0.277772 3.25417 0
M  V30 5793 H 536.41 2.36213 2.80355 0
M  V30 5794 H 536.058 1.06897 4.9151 0
M  V30 5795 H 535.758 2.80757 5.16187 0
M  V30 5796 H 537.282 2.07739 5.74175 0
M  V30 5797 H 538.696 3.81526 4.27914 0
M  V30 5798 H 537.093 4.52878 3.93728 0
M  V30 5799 H 538.163 4.09893 2.59068 0
M  V30 5800 N 539.506 -0.963266 1.24736 0
M  V30 5801 C 540.917 -1.52145 1.08207 0
M  V30 5802 C 541.268 -1.93142 -0.345061 0
M  V30 5803 O 540.393 -1.77769 -1.23399 0
M  V30 5804 C 540.988 -2.76486 1.95808 0
M  V30 5805 C 539.547 -3.28646 1.8349 0
M  V30 5806 C 538.694 -2.01529 1.90476 0
M  V30 5807 H 541.645 -0.781083 1.38148 0
M  V30 5808 H 541.666 -3.49986 1.49297 0
M  V30 5809 H 541.178 -2.46617 2.99669 0
M  V30 5810 H 539.279 -3.63357 0.824787 0
M  V30 5811 H 539.392 -3.97246 2.67829 0
M  V30 5812 H 537.756 -2.16442 1.34258 0
M  V30 5813 H 538.539 -1.7402 2.95926 0
M  V30 5814 N 540.985 -1.06182 -1.16461 0
M  V30 5815 C 542.215 -0.797425 -1.9059 0
M  V30 5816 C 542.623 0.651845 -1.77616 0
M  V30 5817 O 541.966 1.45788 -1.11766 0
M  V30 5818 C 542.028 -1.11128 -3.41893 0
M  V30 5819 C 541.692 -2.55874 -3.78652 0
M  V30 5820 C 542.689 -3.54104 -3.80665 0
M  V30 5821 C 540.374 -2.91144 -4.09317 0
M  V30 5822 C 542.368 -4.85645 -4.12829 0
M  V30 5823 C 540.055 -4.22885 -4.41148 0
M  V30 5824 C 541.053 -5.19945 -4.42883 0
M  V30 5825 O 540.741 -6.49322 -4.73959 0
M  V30 5826 H 540.473 -0.288709 -0.611247 0
M  V30 5827 H 543.027 -1.41841 -1.4856 0
M  V30 5828 H 541.257 -0.433217 -3.84266 0
M  V30 5829 H 542.946 -0.831306 -3.97296 0
M  V30 5830 H 543.712 -3.28197 -3.57088 0
M  V30 5831 H 539.591 -2.16252 -4.07131 0
M  V30 5832 H 543.135 -5.61398 -4.14099 0
M  V30 5833 H 539.032 -4.48551 -4.6419 0
M  V30 5834 H 539.8 -6.54294 -4.91774 0
M  V30 5835 N 542.463 1.3308 -0.844243 0
M  V30 5836 C 543.393 2.3161 -0.296493 0
M  V30 5837 C 544.374 1.59215 0.598707 0
M  V30 5838 O 545.559 1.87077 0.521134 0
M  V30 5839 C 542.689 3.43313 0.524762 0
M  V30 5840 C 541.643 4.27115 -0.275106 0
M  V30 5841 C 540.969 5.30483 0.670236 0
M  V30 5842 C 542.269 5.00443 -1.49514 0
M  V30 5843 H 543.963 2.77672 -1.11976 0
M  V30 5844 H 541.509 1.33496 -0.539899 0
M  V30 5845 H 543.462 4.11273 0.918298 0
M  V30 5846 H 542.186 2.95952 1.3813 0
M  V30 5847 H 540.845 3.60787 -0.650267 0
M  V30 5848 H 540.493 4.79379 1.52332 0
M  V30 5849 H 540.193 5.87435 0.139123 0
M  V30 5850 H 541.717 6.01308 1.06117 0
M  V30 5851 H 543.131 5.61141 -1.17447 0
M  V30 5852 H 541.528 5.67071 -1.96343 0
M  V30 5853 H 542.598 4.28906 -2.26202 0
M  V30 5854 N 543.941 0.601185 1.45683 0
M  V30 5855 C 544.851 -0.123395 2.34275 0
M  V30 5856 C 545.867 -0.86702 1.5086 0
M  V30 5857 O 547.043 -0.826049 1.8368 0
M  V30 5858 C 544.108 -1.11237 3.2837 0
M  V30 5859 C 543.169 -0.371405 4.2769 0
M  V30 5860 C 542.402 -1.31327 5.1729 0
M  V30 5861 O 542.625 -2.55078 5.10188 0
M  V30 5862 O 541.559 -0.813811 5.96373 0
M  V30 5863 H 545.385 0.604483 2.97623 0
M  V30 5864 H 542.97 0.361477 1.44961 0
M  V30 5865 H 544.852 -1.68214 3.8637 0
M  V30 5866 H 543.527 -1.82139 2.67595 0
M  V30 5867 H 542.434 0.24067 3.73325 0
M  V30 5868 H 543.767 0.296998 4.91303 0
M  V30 5869 N 545.419 -1.53889 0.339982 0
M  V30 5870 C 546.382 -2.23547 -0.50592 0
M  V30 5871 C 547.382 -1.23445 -1.03044 0
M  V30 5872 O 548.572 -1.47909 -0.920253 0
M  V30 5873 C 545.704 -2.95234 -1.7044 0
M  V30 5874 H 546.897 -2.99722 0.103247 0
M  V30 5875 H 544.45 -1.56033 0.0912804 0
M  V30 5876 H 545.185 -2.23236 -2.35236 0
M  V30 5877 H 544.97 -3.68654 -1.33553 0
M  V30 5878 H 546.46 -3.48258 -2.30447 0
M  V30 5879 N 546.897 -0.0685191 -1.57451 0
M  V30 5880 C 548.144 0.601348 -1.93365 0
M  V30 5881 C 548.472 1.69816 -0.948294 0
M  V30 5882 O 547.727 1.95666 0.0366199 0
M  V30 5883 C 548.026 1.22051 -3.35914 0
M  V30 5884 C 547.692 0.250165 -4.50205 0
M  V30 5885 C 546.354 -0.0167954 -4.81197 0
M  V30 5886 C 548.706 -0.413867 -5.19554 0
M  V30 5887 C 546.034 -0.95493 -5.78876 0
M  V30 5888 C 548.386 -1.3403 -6.18238 0
M  V30 5889 C 547.05 -1.61576 -6.47649 0
M  V30 5890 H 546.32 0.220049 -0.707573 0
M  V30 5891 H 548.967 -0.138697 -1.90997 0
M  V30 5892 H 547.272 2.03622 -3.34732 0
M  V30 5893 H 548.969 1.74605 -3.6099 0
M  V30 5894 H 545.559 0.468421 -4.26033 0
M  V30 5895 H 549.743 -0.220733 -4.95809 0
M  V30 5896 H 544.999 -1.17563 -5.99991 0
M  V30 5897 H 549.173 -1.86081 -6.71079 0
M  V30 5898 H 546.8 -2.34431 -7.2315 0
M  V30 5899 N 548.375 1.56261 0.205012 0
M  V30 5900 C 549.624 1.79236 0.925058 0
M  V30 5901 C 549.937 0.640011 1.84833 0
M  V30 5902 O 551.143 0.753809 2.60826 0
M  V30 5903 C 549.599 3.17475 1.69522 0
M  V30 5904 C 549.207 4.40482 0.817269 0
M  V30 5905 C 550.951 3.49766 2.4055 0
M  V30 5906 C 548.858 5.69744 1.58573 0
M  V30 5907 H 547.788 0.668287 0.349153 0
M  V30 5908 H 550.439 1.82629 0.178544 0
M  V30 5909 H 548.821 3.08304 2.48526 0
M  V30 5910 H 549.995 4.60752 0.0665988 0
M  V30 5911 H 548.31 4.15827 0.218316 0
M  V30 5912 H 550.907 4.43573 2.98575 0
M  V30 5913 H 551.25 2.73041 3.14252 0
M  V30 5914 H 551.783 3.60341 1.68522 0
M  V30 5915 H 548.522 6.49407 0.891679 0
M  V30 5916 H 548.042 5.53509 2.31059 0
M  V30 5917 H 549.721 6.1051 2.14212 0
M  V30 5918 N 549.853 -0.472356 1.50355 0
M  V30 5919 C 550.783 -1.57859 1.72055 0
M  V30 5920 C 551.764 -1.60283 0.569505 0
M  V30 5921 O 552.949 -1.7657 0.808503 0
M  V30 5922 C 550.079 -2.96191 1.81351 0
M  V30 5923 C 549.033 -3.08633 2.96529 0
M  V30 5924 C 548.359 -4.486 2.90968 0
M  V30 5925 C 549.659 -2.85969 4.37057 0
M  V30 5926 H 551.353 -1.39953 2.64676 0
M  V30 5927 H 548.899 -0.671846 1.27367 0
M  V30 5928 H 550.852 -3.73507 1.95117 0
M  V30 5929 H 549.576 -3.15251 0.853502 0
M  V30 5930 H 548.235 -2.33749 2.82413 0
M  V30 5931 H 547.883 -4.64577 1.92815 0
M  V30 5932 H 547.583 -4.57861 3.68289 0
M  V30 5933 H 549.107 -5.27938 3.0678 0
M  V30 5934 H 550.521 -3.53036 4.51706 0
M  V30 5935 H 548.918 -3.06677 5.15819 0
M  V30 5936 H 549.988 -1.81838 4.49514 0
M  V30 5937 N 551.331 -1.39911 -0.725443 0
M  V30 5938 C 552.241 -1.41688 -1.8698 0
M  V30 5939 C 553.257 -0.310579 -1.71206 0
M  V30 5940 O 554.433 -0.55359 -1.93642 0
M  V30 5941 C 551.498 -1.26811 -3.22676 0
M  V30 5942 C 550.559 -2.47497 -3.50776 0
M  V30 5943 C 549.792 -2.3332 -4.79997 0
M  V30 5944 O 550.015 -1.34175 -5.54394 0
M  V30 5945 O 548.949 -3.22498 -5.08211 0
M  V30 5946 H 552.775 -2.38171 -1.88436 0
M  V30 5947 H 550.36 -1.21128 -0.874548 0
M  V30 5948 H 552.242 -1.20684 -4.03749 0
M  V30 5949 H 550.917 -0.334289 -3.21969 0
M  V30 5950 H 549.824 -2.59201 -2.69751 0
M  V30 5951 H 551.157 -3.39606 -3.5627 0
M  V30 5952 N 552.809 0.956637 -1.25245 0
M  V30 5953 C 554.037 1.73571 -1.12608 0
M  V30 5954 C 554.452 1.86063 0.320324 0
M  V30 5955 O 553.809 1.35691 1.22042 0
M  V30 5956 C 553.86 3.15053 -1.77268 0
M  V30 5957 O 553.581 3.03174 -3.16255 0
M  V30 5958 C 555.082 4.09248 -1.70386 0
M  V30 5959 H 552.302 0.543955 -0.392879 0
M  V30 5960 H 554.846 1.20031 -1.65568 0
M  V30 5961 H 553.001 3.65543 -1.28284 0
M  V30 5962 H 553.415 3.9241 -3.48015 0
M  V30 5963 H 554.889 5.06138 -2.20291 0
M  V30 5964 H 555.366 4.34102 -0.667239 0
M  V30 5965 H 555.972 3.64672 -2.18849 0
M  V30 5966 N 554.287 1.06798 1.15896 0
M  V30 5967 C 555.534 0.787767 1.86549 0
M  V30 5968 C 555.862 -0.685959 1.82002 0
M  V30 5969 O 555.117 -1.5188 1.23414 0
M  V30 5970 C 555.416 1.23414 3.35416 0
M  V30 5971 C 555.082 2.71285 3.6016 0
M  V30 5972 C 553.744 3.11676 3.66622 0
M  V30 5973 C 556.096 3.6676 3.7032 0
M  V30 5974 C 553.424 4.4637 3.8075 0
M  V30 5975 C 555.776 5.01209 3.8597 0
M  V30 5976 C 554.44 5.41229 3.90676 0
M  V30 5977 H 553.71 0.288264 0.682631 0
M  V30 5978 H 556.357 1.338 1.37003 0
M  V30 5979 H 554.662 0.60319 3.87129 0
M  V30 5980 H 556.359 0.994298 3.88477 0
M  V30 5981 H 552.949 2.39015 3.55767 0
M  V30 5982 H 557.133 3.36685 3.64633 0
M  V30 5983 H 552.389 4.76855 3.82648 0
M  V30 5984 H 556.563 5.75067 3.92773 0
M  V30 5985 H 554.19 6.45602 4.01375 0
M  V30 5986 N 555.766 -1.3263 0.851289 0
M  V30 5987 C 557.182 -1.50162 0.5407 0
M  V30 5988 C 557.382 -1.78788 -0.929369 0
M  V30 5989 O 556.438 -1.85545 -1.71258 0
M  V30 5990 C 557.751 -2.64803 1.42478 0
M  V30 5991 C 559.299 -2.78688 1.42485 0
M  V30 5992 C 559.774 -3.96405 2.29407 0
M  V30 5993 N 561.265 -4.0366 2.27184 0
M  V30 5994 C 562 -4.93971 2.9117 0
M  V30 5995 N 561.496 -5.89313 3.64256 0
M  V30 5996 N 563.289 -4.87066 2.80576 0
M  V30 5997 H 555.44 -1.12315 1.80275 0
M  V30 5998 H 557.703 -0.553266 0.769806 0
M  V30 5999 H 557.409 -2.50368 2.46999 0
M  V30 6000 H 557.283 -3.60506 1.10974 0
M  V30 6001 H 559.67 -2.92547 0.387304 0
M  V30 6002 H 559.751 -1.83708 1.78002 0
M  V30 6003 H 559.395 -3.83304 3.33228 0
M  V30 6004 H 559.325 -4.90654 1.91224 0
M  V30 6005 H 561.816 -3.35435 1.74045 0
M  V30 6006 H 562.129 -6.54913 4.10255 0
M  V30 6007 H 560.474 -5.8935 3.68364 0
M  V30 6008 H 563.665 -4.11552 2.23031 0
M  V30 6009 H 563.838 -5.57248 3.30725 0
M  V30 6010 N 557.244 -0.608902 -1.45362 0
M  V30 6011 C 558.194 0.130616 -2.27626 0
M  V30 6012 C 559.178 0.837323 -1.37396 0
M  V30 6013 O 560.37 0.727096 -1.61376 0
M  V30 6014 C 557.499 1.12646 -3.24293 0
M  V30 6015 C 556.585 0.42052 -4.2201 0
M  V30 6016 N 556.976 -0.538569 -5.02925 0
M  V30 6017 C 555.274 0.667901 -4.40971 0
M  V30 6018 C 555.975 -0.953625 -5.7383 0
M  V30 6019 N 554.951 -0.297097 -5.42788 0
M  V30 6020 H 558.753 -0.605996 -2.87585 0
M  V30 6021 H 556.267 -0.432672 -1.5653 0
M  V30 6022 H 558.264 1.67066 -3.81961 0
M  V30 6023 H 556.924 1.86361 -2.65894 0
M  V30 6024 H 557.935 -0.915375 -5.09746 0
M  V30 6025 H 554.612 1.38963 -3.93695 0
M  V30 6026 H 556.002 -1.74473 -6.48852 0
M  V30 6027 N 558.722 1.53707 -0.348139 0
M  V30 6028 C 559.947 2.05877 0.250883 0
M  V30 6029 C 560.372 1.22115 1.43072 0
M  V30 6030 O 559.73 0.235986 1.79758 0
M  V30 6031 C 559.778 3.54886 0.639416 0
M  V30 6032 O 558.882 3.73948 1.73888 0
M  V30 6033 H 558.223 0.662754 0.040653 0
M  V30 6034 H 560.753 1.98303 -0.503685 0
M  V30 6035 H 560.763 3.97601 0.915295 0
M  V30 6036 H 559.438 4.153 -0.223386 0
M  V30 6037 H 558.015 3.43134 1.45991 0
M  V30 6038 N 560.2 0.0768682 1.57412 0
M  V30 6039 C 561.425 -0.603404 1.98428 0
M  V30 6040 C 561.85 -1.62047 0.955108 0
M  V30 6041 O 561.208 -1.81129 -0.0786778 0
M  V30 6042 C 561.256 -1.24396 3.38464 0
M  V30 6043 O 560.36 -2.35982 3.3821 0
M  V30 6044 H 559.701 -0.154741 0.645718 0
M  V30 6045 H 562.231 0.152885 2.04028 0
M  V30 6046 H 562.241 -1.5896 3.7576 0
M  V30 6047 H 560.916 -0.498735 4.12899 0
M  V30 6048 H 559.493 -2.03173 3.1269 0
M  V30 6049 N 561.678 -1.56367 -0.196722 0
M  V30 6050 C 562.925 -1.80529 -0.917366 0
M  V30 6051 C 563.253 -0.649817 -1.83324 0
M  V30 6052 O 562.508 0.36451 -1.92275 0
M  V30 6053 C 562.807 -3.10663 -1.767 0
M  V30 6054 C 562.473 -4.3962 -1.00225 0
M  V30 6055 C 561.135 -4.74653 -0.791095 0
M  V30 6056 C 563.487 -5.1913 -0.464035 0
M  V30 6057 C 560.815 -5.86692 -0.0302155 0
M  V30 6058 C 563.167 -6.31964 0.283625 0
M  V30 6059 C 561.831 -6.65581 0.505813 0
M  V30 6060 H 561.101 -0.660602 -0.335688 0
M  V30 6061 H 563.748 -1.90615 -0.183844 0
M  V30 6062 H 562.053 -2.95807 -2.56915 0
M  V30 6063 H 563.75 -3.26563 -2.32718 0
M  V30 6064 H 560.34 -4.12127 -1.17684 0
M  V30 6065 H 564.524 -4.9248 -0.614575 0
M  V30 6066 H 559.78 -6.11211 0.151917 0
M  V30 6067 H 563.954 -6.92791 0.708057 0
M  V30 6068 H 561.581 -7.52239 1.0973 0
M  V30 6069 N 563.156 0.464375 -1.50603 0
M  V30 6070 C 564.086 1.56944 -1.72889 0
M  V30 6071 C 565.067 1.59979 -0.577997 0
M  V30 6072 O 566.252 1.76138 -0.817855 0
M  V30 6073 C 563.382 2.95225 -1.8292 0
M  V30 6074 C 562.336 3.07056 -2.98162 0
M  V30 6075 C 561.662 4.47051 -2.93343 0
M  V30 6076 C 562.962 2.83648 -4.38567 0
M  V30 6077 H 564.656 1.38547 -2.65415 0
M  V30 6078 H 562.202 0.665082 -1.27721 0
M  V30 6079 H 564.155 3.72467 -1.97095 0
M  V30 6080 H 562.879 3.14793 -0.870209 0
M  V30 6081 H 561.538 2.32248 -2.83648 0
M  V30 6082 H 561.186 4.63547 -1.95276 0
M  V30 6083 H 560.886 4.55902 -3.70712 0
M  V30 6084 H 562.41 5.26304 -3.09575 0
M  V30 6085 H 563.824 3.50636 -4.53572 0
M  V30 6086 H 562.221 3.03937 -5.17438 0
M  V30 6087 H 563.291 1.79451 -4.50472 0
M  V30 6088 N 564.634 1.40294 0.718013 0
M  V30 6089 C 566.045 1.34289 1.29705 0
M  V30 6090 C 566.396 0.0152228 1.96194 0
M  V30 6091 O 565.521 -0.88682 1.97394 0
M  V30 6092 C 566.116 2.43219 2.3586 0
M  V30 6093 C 564.675 2.40682 2.89394 0
M  V30 6094 C 563.822 2.24223 1.63154 0
M  V30 6095 H 566.773 1.50135 0.514312 0
M  V30 6096 H 566.794 2.10986 3.16647 0
M  V30 6097 H 566.306 3.39836 1.87439 0
M  V30 6098 H 564.407 1.47756 3.42051 0
M  V30 6099 H 564.52 3.36177 3.41353 0
M  V30 6100 H 562.884 1.71696 1.88129 0
M  V30 6101 H 563.667 3.22834 1.16761 0
M  V30 6102 N 566.112 -0.949982 1.2575 0
M  V30 6103 C 567.359 -1.69515 1.10774 0
M  V30 6104 C 567.687 -1.91316 -0.350479 0
M  V30 6105 O 566.942 -1.48515 -1.27443 0
M  V30 6106 C 567.241 -3.08039 1.81237 0
M  V30 6107 C 566.907 -3.06023 3.31151 0
M  V30 6108 C 565.569 -3.0518 3.72047 0
M  V30 6109 C 567.921 -2.98998 4.26907 0
M  V30 6110 C 565.249 -2.95067 5.07102 0
M  V30 6111 C 567.601 -2.90426 5.61992 0
M  V30 6112 C 566.265 -2.87922 6.0221 0
M  V30 6113 H 565.535 -0.6203 0.405351 0
M  V30 6114 H 568.182 -1.10953 1.56082 0
M  V30 6115 H 566.487 -3.70172 1.28373 0
M  V30 6116 H 568.184 -3.64526 1.67098 0
M  V30 6117 H 564.774 -3.07453 2.98614 0
M  V30 6118 H 568.958 -2.98764 3.963 0
M  V30 6119 H 564.214 -2.915 5.37436 0
M  V30 6120 H 568.388 -2.83952 6.35881 0
M  V30 6121 H 566.015 -2.79841 7.06819 0
M  V30 6122 N 567.59 -1.07411 -1.15328 0
M  V30 6123 C 568.818 -0.818782 -1.90009 0
M  V30 6124 C 569.233 0.628072 -1.78047 0
M  V30 6125 O 568.59 1.43085 -1.13282 0
M  V30 6126 C 568.641 -1.21874 -3.40337 0
M  V30 6127 O 568.362 -2.60883 -3.51954 0
M  V30 6128 C 569.863 -0.992796 -4.3204 0
M  V30 6129 H 567.083 -0.296007 -0.60218 0
M  V30 6130 H 569.627 -1.43073 -1.46117 0
M  V30 6131 H 567.782 -0.651103 -3.81889 0
M  V30 6132 H 568.196 -2.77216 -4.45255 0
M  V30 6133 H 569.67 -1.32215 -5.35932 0
M  V30 6134 H 570.147 0.0708331 -4.39143 0
M  V30 6135 H 570.753 -1.54537 -3.9623 0
M  V30 6136 N 569.068 1.32177 -0.85831 0
M  V30 6137 C 570.317 1.96392 -0.459689 0
M  V30 6138 C 570.63 1.68659 0.990632 0
M  V30 6139 O 571.836 2.26641 1.49485 0
M  V30 6140 C 570.292 3.51542 -0.7711 0
M  V30 6141 C 569.9 3.8813 -2.2374 0
M  V30 6142 C 571.644 4.2221 -0.44038 0
M  V30 6143 C 569.551 5.36341 -2.49183 0
M  V30 6144 H 568.481 0.735007 -0.168169 0
M  V30 6145 H 571.132 1.50518 -1.0496 0
M  V30 6146 H 569.514 3.95846 -0.11058 0
M  V30 6147 H 570.688 3.54824 -2.94001 0
M  V30 6148 H 569.003 3.30497 -2.533 0
M  V30 6149 H 571.6 5.31234 -0.607855 0
M  V30 6150 H 571.943 4.11683 0.618291 0
M  V30 6151 H 572.476 3.83502 -1.05695 0
M  V30 6152 H 569.215 5.51892 -3.53689 0
M  V30 6153 H 568.735 5.7104 -1.83504 0
M  V30 6154 H 570.414 6.03466 -2.33318 0
M  V30 6155 N 570.547 0.616602 1.45037 0
M  V30 6156 C 571.958 0.199359 1.85633 0
M  V30 6157 C 572.309 -1.24588 1.51566 0
M  V30 6158 O 571.434 -1.94594 0.94668 0
M  V30 6159 C 572.029 0.355033 3.36935 0
M  V30 6160 C 570.588 -0.00758748 3.76399 0
M  V30 6161 C 569.735 0.675256 2.68953 0
M  V30 6162 H 572.686 0.822708 1.3571 0
M  V30 6163 H 572.707 -0.410201 3.78282 0
M  V30 6164 H 572.219 1.40699 3.61698 0
M  V30 6165 H 570.32 -1.05837 3.57252 0
M  V30 6166 H 570.433 0.392346 4.77491 0
M  V30 6167 H 568.797 0.111992 2.54454 0
M  V30 6168 H 569.58 1.72952 2.96551 0
M  V30 6169 N 572.025 -1.5352 0.356285 0
M  V30 6170 C 572.975 -2.22204 -0.510815 0
M  V30 6171 C 573.959 -1.21393 -1.05605 0
M  V30 6172 O 575.151 -1.46883 -0.987639 0
M  V30 6173 C 572.28 -3.00786 -1.65478 0
M  V30 6174 C 571.366 -4.08965 -1.12287 0
M  V30 6175 N 571.757 -5.04829 -0.313191 0
M  V30 6176 C 570.055 -4.23505 -1.39856 0
M  V30 6177 C 570.756 -5.81695 -0.0230322 0
M  V30 6178 N 569.732 -5.40074 -0.618144 0
M  V30 6179 H 573.534 -2.93676 0.114711 0
M  V30 6180 H 571.048 -1.61572 0.163811 0
M  V30 6181 H 573.045 -3.48502 -2.28806 0
M  V30 6182 H 571.705 -2.30843 -2.28345 0
M  V30 6183 H 572.716 -5.17879 0.0468202 0
M  V30 6184 H 569.393 -3.64786 -2.0307 0
M  V30 6185 H 570.783 -6.68931 0.630927 0
M  V30 6186 N 573.503 -0.0852151 -1.57369 0
M  V30 6187 C 574.728 0.592872 -1.98746 0
M  V30 6188 C 575.153 1.61538 -0.963689 0
M  V30 6189 O 574.511 1.81168 0.069071 0
M  V30 6190 C 574.559 1.22599 -3.39119 0
M  V30 6191 O 573.663 2.34185 -3.39457 0
M  V30 6192 H 573.004 0.151314 -0.646529 0
M  V30 6193 H 575.534 -0.163703 -2.03944 0
M  V30 6194 H 575.544 1.56965 -3.76598 0
M  V30 6195 H 574.219 0.476831 -4.13158 0
M  V30 6196 H 572.796 2.01512 -3.13763 0
M  V30 6197 N 574.981 1.5647 0.188427 0
M  V30 6198 C 576.209 1.85131 0.923803 0
M  V30 6199 C 576.624 0.668537 1.76567 0
M  V30 6200 O 575.981 -0.362662 1.7886 0
M  V30 6201 C 576.032 3.12661 1.81453 0
M  V30 6202 O 575.753 4.26378 1.00665 0
M  V30 6203 C 577.254 3.54548 2.66103 0
M  V30 6204 H 574.474 0.614624 0.269218 0
M  V30 6205 H 577.018 2.03581 0.193671 0
M  V30 6206 H 575.173 2.96088 2.49821 0
M  V30 6207 H 575.587 4.99041 1.61425 0
M  V30 6208 H 577.061 4.4673 3.24247 0
M  V30 6209 H 577.538 2.77853 3.40139 0
M  V30 6210 H 578.144 3.73674 2.03096 0
M  V30 6211 N 576.459 -0.456382 1.50847 0
M  V30 6212 C 577.687 -1.23026 1.66349 0
M  V30 6213 C 578.102 -1.85473 0.352868 0
M  V30 6214 O 577.459 -1.69885 -0.666739 0
M  V30 6215 C 577.51 -2.32827 2.76539 0
M  V30 6216 O 577.231 -1.72938 4.02522 0
M  V30 6217 C 578.732 -3.23448 3.03144 0
M  V30 6218 H 575.952 -0.371527 0.558756 0
M  V30 6219 H 578.496 -0.543082 1.97157 0
M  V30 6220 H 576.651 -2.97294 2.48384 0
M  V30 6221 H 577.065 -2.45357 4.63573 0
M  V30 6222 H 578.539 -3.96669 3.83872 0
M  V30 6223 H 579.016 -3.83094 2.14793 0
M  V30 6224 H 579.622 -2.64702 3.32886 0
M  V30 6225 N 577.937 -1.40673 -0.710563 0
M  V30 6226 C 579.353 -1.22813 -1.01928 0
M  V30 6227 C 579.553 -0.10687 -2.01216 0
M  V30 6228 O 578.609 0.533614 -2.46797 0
M  V30 6229 C 579.922 -2.57178 -1.5582 0
M  V30 6230 C 581.47 -2.64233 -1.67779 0
M  V30 6231 C 581.945 -3.98879 -2.25076 0
M  V30 6232 N 583.436 -4.00647 -2.32456 0
M  V30 6233 C 584.171 -5.01621 -2.77784 0
M  V30 6234 N 583.667 -6.12989 -3.22826 0
M  V30 6235 N 585.46 -4.88988 -2.77213 0
M  V30 6236 H 577.611 -2.12335 -0.05253 0
M  V30 6237 H 579.874 -0.9441 -0.085898 0
M  V30 6238 H 579.58 -3.39903 -0.903249 0
M  V30 6239 H 579.454 -2.78618 -2.54267 0
M  V30 6240 H 581.841 -1.81876 -2.3239 0
M  V30 6241 H 581.922 -2.46619 -0.679178 0
M  V30 6242 H 581.566 -4.81678 -1.61086 0
M  V30 6243 H 581.496 -4.13826 -3.25661 0
M  V30 6244 H 583.987 -3.20231 -2.0065 0
M  V30 6245 H 584.3 -6.85921 -3.55995 0
M  V30 6246 H 582.645 -6.16547 -3.20773 0
M  V30 6247 H 585.836 -4.01075 -2.41363 0
M  V30 6248 H 586.009 -5.67822 -3.12221 0
M  V30 6249 N 579.415 0.9433 -1.26252 0
M  V30 6250 C 580.692 1.66639 -1.02424 0
M  V30 6251 C 581.072 2.06335 0.446006 0
M  V30 6252 O 580.42 1.78551 1.42589 0
M  V30 6253 C 580.63 2.88019 -1.97094 0
M  V30 6254 C 581.978 3.59718 -2.25584 0
M  V30 6255 O 583.002 2.9812 -1.94943 0
M  V30 6256 O 581.861 4.7066 -2.77743 0
M  V30 6257 H 578.955 0.729643 -0.389294 0
M  V30 6258 H 581.501 0.995218 -1.37454 0
M  V30 6259 H 580.273 2.5556 -2.96319 0
M  V30 6260 H 579.896 3.62863 -1.62532 0
M  V30 6261 N 580.893 1.08022 1.14757 0
M  V30 6262 C 582.121 0.828847 1.89572 0
M  V30 6263 C 582.536 -0.618621 1.78377 0
M  V30 6264 O 581.893 -1.42482 1.1404 0
M  V30 6265 C 581.944 1.23677 3.39685 0
M  V30 6266 O 581.665 2.62746 3.50566 0
M  V30 6267 C 583.166 1.01569 4.31507 0
M  V30 6268 H 580.386 0.299196 0.600602 0
M  V30 6269 H 582.93 1.43846 1.45357 0
M  V30 6270 H 581.085 0.671347 3.81539 0
M  V30 6271 H 581.499 2.79573 4.43778 0
M  V30 6272 H 582.973 1.35055 5.35223 0
M  V30 6273 H 583.45 -0.0475433 4.39174 0
M  V30 6274 H 584.056 1.56636 3.95405 0
M  V30 6275 N 582.371 -1.3172 0.865308 0
M  V30 6276 C 583.599 -2.01057 0.488251 0
M  V30 6277 C 584.014 -1.64979 -0.918 0
M  V30 6278 O 583.371 -0.876597 -1.60069 0
M  V30 6279 C 583.422 -3.55964 0.630224 0
M  V30 6280 O 583.143 -3.90749 1.98109 0
M  V30 6281 C 584.644 -4.42574 0.253567 0
M  V30 6282 H 581.864 -0.64332 0.190736 0
M  V30 6283 H 584.408 -1.68058 1.16519 0
M  V30 6284 H 582.563 -3.874 0.000895422 0
M  V30 6285 H 582.977 -4.85467 1.9855 0
M  V30 6286 H 584.451 -5.50521 0.403875 0
M  V30 6287 H 584.928 -4.31724 -0.806895 0
M  V30 6288 H 585.534 -4.16547 0.858404 0
M  V30 6289 N 583.85 -0.624285 -1.44708 0
M  V30 6290 C 584.779 0.0717025 -2.3339 0
M  V30 6291 C 585.76 0.841814 -1.47809 0
M  V30 6292 O 586.946 0.809056 -1.76544 0
M  V30 6293 C 584.076 1.05852 -3.30776 0
M  V30 6294 C 583.029 0.400503 -4.26122 0
M  V30 6295 C 582.356 1.49674 -5.13324 0
M  V30 6296 C 583.656 -0.688924 -5.17737 0
M  V30 6297 H 585.35 -0.668819 -2.91834 0
M  V30 6298 H 582.896 -0.32308 -1.40329 0
M  V30 6299 H 584.849 1.5541 -3.91696 0
M  V30 6300 H 583.572 1.82984 -2.70526 0
M  V30 6301 H 582.231 -0.0743687 -3.66525 0
M  V30 6302 H 581.88 2.25877 -4.49431 0
M  V30 6303 H 581.58 1.06188 -5.77926 0
M  V30 6304 H 583.104 1.99427 -5.77115 0
M  V30 6305 H 584.518 -0.276724 -5.72632 0
M  V30 6306 H 582.915 -1.04652 -5.90904 0
M  V30 6307 H 583.985 -1.55884 -4.5916 0
M  V30 6308 N 585.328 1.53329 -0.364422 0
M  V30 6309 C 586.276 2.27212 0.497737 0
M  V30 6310 C 587.27 1.30146 1.08437 0
M  V30 6311 O 588.476 1.47778 1.0277 0
M  V30 6312 H 584.851 0.730329 0.179232 0
M  V30 6313 H 586.822 2.98037 -0.147182 0
M  V30 6314 C 585.571 3.07333 1.6261 0
M  V30 6315 H 584.894 3.81866 1.184 0
M  V30 6316 H 586.334 3.62209 2.20409 0
M  V30 6317 C 584.793 2.18102 2.56775 0
M  V30 6318 O 585.323 1.79104 3.59562 0
M  V30 6319 N 583.529 1.82759 2.25937 0
M  V30 6320 H 583.076 2.14671 1.42387 0
M  V30 6321 H 583.034 1.23342 2.89196 0
M  V30 6322 N 586.806 0.0935595 1.57322 0
M  V30 6323 C 588.054 -0.569383 1.93913 0
M  V30 6324 C 588.375 -1.68817 0.976009 0
M  V30 6325 O 587.645 -1.9588 0.0278099 0
M  V30 6326 H 586.225 -0.21332 0.715894 0
M  V30 6327 H 588.887 0.156531 1.9427 0
M  V30 6328 H 587.983 -0.980577 2.96296 0
M  V30 6329 N 588.284 -1.56567 -0.180126 0
M  V30 6330 C 589.531 -1.81492 -0.898167 0
M  V30 6331 C 589.859 -0.669225 -1.82624 0
M  V30 6332 O 589.114 0.344096 -1.92651 0
M  V30 6333 C 589.413 -3.1252 -1.73395 0
M  V30 6334 C 589.079 -4.40658 -0.955567 0
M  V30 6335 C 587.741 -4.75465 -0.740707 0
M  V30 6336 C 590.093 -5.19593 -0.408948 0
M  V30 6337 C 587.421 -5.86691 0.0320128 0
M  V30 6338 C 589.773 -6.31627 0.350638 0
M  V30 6339 C 588.437 -6.65007 0.576378 0
M  V30 6340 H 587.707 -0.664125 -0.328662 0
M  V30 6341 H 590.354 -1.908 -0.163616 0
M  V30 6342 H 588.659 -2.98515 -2.53763 0
M  V30 6343 H 590.356 -3.29013 -2.29241 0
M  V30 6344 H 586.946 -4.13352 -1.13306 0
M  V30 6345 H 591.13 -4.93104 -0.562307 0
M  V30 6346 H 586.386 -6.11016 0.216735 0
M  V30 6347 H 590.56 -6.92001 0.781497 0
M  V30 6348 H 588.187 -7.51033 1.17703 0
M  V30 6349 N 589.762 0.448376 -1.51087 0
M  V30 6350 C 590.992 1.21965 -1.66757 0
M  V30 6351 C 591.4 1.85748 -0.359753 0
M  V30 6352 O 590.743 1.71022 0.670604 0
M  V30 6353 C 590.805 2.35284 -2.71812 0
M  V30 6354 C 590.469 1.91957 -4.1473 0
M  V30 6355 C 591.466 1.42921 -4.9987 0
M  V30 6356 C 589.151 1.99985 -4.60772 0
M  V30 6357 C 591.145 1.02485 -6.29107 0
M  V30 6358 C 588.832 1.5916 -5.90009 0
M  V30 6359 C 589.83 1.10491 -6.74004 0
M  V30 6360 O 589.518 0.702413 -8.00825 0
M  V30 6361 H 589.25 0.374125 -0.563034 0
M  V30 6362 H 591.804 0.538927 -1.98204 0
M  V30 6363 H 590.034 3.06599 -2.35657 0
M  V30 6364 H 591.723 2.97184 -2.76472 0
M  V30 6365 H 592.489 1.36123 -4.65506 0
M  V30 6366 H 588.368 2.36814 -3.95525 0
M  V30 6367 H 591.912 0.644271 -6.94619 0
M  V30 6368 H 587.809 1.65626 -6.2389 0
M  V30 6369 H 588.577 0.829248 -8.14288 0
M  V30 6370 N 591.24 1.41047 0.703093 0
M  V30 6371 C 592.489 1.39301 1.4587 0
M  V30 6372 C 592.802 0.00267077 1.956 0
M  V30 6373 O 594.008 -0.137414 2.71152 0
M  V30 6374 C 592.464 2.44891 2.63735 0
M  V30 6375 C 592.072 3.89796 2.20824 0
M  V30 6376 C 593.816 2.5227 3.41409 0
M  V30 6377 C 591.723 4.86955 3.35602 0
M  V30 6378 H 590.653 0.518005 0.547893 0
M  V30 6379 H 593.304 1.66839 0.764009 0
M  V30 6380 H 591.686 2.10472 3.35436 0
M  V30 6381 H 592.86 4.33424 1.56461 0
M  V30 6382 H 591.175 3.86008 1.56163 0
M  V30 6383 H 593.772 3.22044 4.26839 0
M  V30 6384 H 594.115 1.55714 3.86081 0
M  V30 6385 H 594.648 2.85742 2.7676 0
M  V30 6386 H 591.387 5.84888 2.9595 0
M  V30 6387 H 590.907 4.47982 3.98839 0
M  V30 6388 H 592.586 5.07361 4.01489 0
M  V30 6389 N 592.718 -0.936591 1.26751 0
M  V30 6390 C 594.129 -1.49816 1.1141 0
M  V30 6391 C 594.48 -1.9383 -0.304015 0
M  V30 6392 O 593.605 -1.80346 -1.196 0
M  V30 6393 C 594.2 -2.72271 2.01629 0
M  V30 6394 C 592.759 -3.2468 1.9042 0
M  V30 6395 C 591.906 -1.97444 1.94708 0
M  V30 6396 H 594.857 -0.751604 1.39773 0
M  V30 6397 H 594.878 -3.46741 1.56688 0
M  V30 6398 H 594.39 -2.40205 3.04833 0
M  V30 6399 H 592.491 -3.61525 0.901674 0
M  V30 6400 H 592.604 -3.91476 2.76195 0
M  V30 6401 H 590.968 -2.13545 1.38818 0
M  V30 6402 H 591.751 -1.67703 2.9955 0
M  V30 6403 N 594.196 -1.08629 -1.14182 0
M  V30 6404 C 595.143 -0.718299 -2.19338 0
M  V30 6405 C 596.113 0.296587 -1.63431 0
M  V30 6406 O 597.298 0.180079 -1.89948 0
M  V30 6407 C 594.438 -0.136203 -3.44831 0
M  V30 6408 C 593.551 -1.20414 -4.14879 0
M  V30 6409 C 592.686 -0.585666 -5.27962 0
M  V30 6410 C 591.725 -1.63548 -5.89846 0
M  V30 6411 N 590.862 -1.03864 -6.94375 0
M  V30 6412 H 595.702 -1.61932 -2.50164 0
M  V30 6413 H 593.239 -0.80919 -1.22844 0
M  V30 6414 H 595.197 0.219021 -4.16625 0
M  V30 6415 H 593.827 0.728121 -3.14481 0
M  V30 6416 H 592.879 -1.67676 -3.41451 0
M  V30 6417 H 594.191 -1.99959 -4.56966 0
M  V30 6418 H 593.345 -0.178818 -6.06436 0
M  V30 6419 H 592.084 0.24142 -4.87102 0
M  V30 6420 H 591.089 -2.05197 -5.10073 0
M  V30 6421 H 592.314 -2.46509 -6.3278 0
M  V30 6422 H 590.26 -0.232687 -6.55587 0
M  V30 6423 H 590.177 -1.77116 -7.3496 0
M  V30 6424 H 591.445 -0.657724 -7.7672 0
M  V30 6425 N 595.674 1.31259 -0.872281 0
M  V30 6426 C 596.621 2.28459 -0.327857 0
M  V30 6427 C 597.591 1.55831 0.574957 0
M  V30 6428 O 598.776 1.83965 0.506101 0
M  V30 6429 C 595.916 3.41985 0.462644 0
M  V30 6430 C 595.029 4.29458 -0.467949 0
M  V30 6431 C 594.164 5.30131 0.336903 0
M  V30 6432 C 593.203 6.0925 -0.58997 0
M  V30 6433 N 592.34 7.01872 0.178775 0
M  V30 6434 H 597.18 2.74414 -1.16193 0
M  V30 6435 H 594.717 1.34994 -0.584376 0
M  V30 6436 H 596.675 4.06547 0.936759 0
M  V30 6437 H 595.305 2.97134 1.2614 0
M  V30 6438 H 594.357 3.65318 -1.06052 0
M  V30 6439 H 595.669 4.84677 -1.17856 0
M  V30 6440 H 594.823 6.0038 0.873427 0
M  V30 6441 H 593.562 4.75573 1.08079 0
M  V30 6442 H 592.567 5.37889 -1.13823 0
M  V30 6443 H 593.792 6.65894 -1.33275 0
M  V30 6444 H 591.738 6.49721 0.905435 0
M  V30 6445 H 591.655 7.54522 -0.472452 0
M  V30 6446 H 592.923 7.76382 0.696454 0
M  V30 6447 N 597.152 0.631951 1.44375 0
M  V30 6448 C 598.392 0.14009 2.03919 0
M  V30 6449 C 598.756 -1.21534 1.48639 0
M  V30 6450 O 599.957 -1.79936 1.99691 0
M  V30 6451 C 598.228 0.127174 3.57174 0
M  V30 6452 S 599.787 -0.299946 4.37774 0
M  V30 6453 H 596.605 0.0614891 0.708336 0
M  V30 6454 H 599.207 0.835524 1.76746 0
M  V30 6455 H 597.911 1.11676 3.94913 0
M  V30 6456 H 597.442 -0.589482 3.88958 0
M  V30 6457 H 599.457 -1.54396 4.71568 0
M  V30 6458 N 598.631 -1.53133 0.372548 0
M  V30 6459 C 599.871 -2.03267 -0.214943 0
M  V30 6460 C 600.235 -1.25362 -1.45425 0
M  V30 6461 O 601.436 -1.65536 -2.11781 0
M  V30 6462 C 599.707 -3.53985 -0.492897 0
M  V30 6463 S 601.266 -4.25977 -1.05307 0
M  V30 6464 H 598.084 -0.708289 -0.062029 0
M  V30 6465 H 600.686 -1.88539 0.517025 0
M  V30 6466 H 599.39 -4.08282 0.416442 0
M  V30 6467 H 598.921 -3.72887 -1.25375 0
M  V30 6468 H 600.936 -4.37731 -2.33679 0
M  V30 6469 N 600.109 -0.101901 -1.5727 0
M  V30 6470 C 601.355 0.561027 -1.94885 0
M  V30 6471 C 601.688 1.6741 -0.984258 0
M  V30 6472 O 600.963 1.94491 -0.0184767 0
M  V30 6473 C 601.246 1.10982 -3.42571 0
M  V30 6474 C 601.099 0.00133418 -4.498 0
M  V30 6475 C 602.418 2.00608 -3.9172 0
M  V30 6476 H 599.537 0.202467 -0.708644 0
M  V30 6477 H 602.179 -0.173992 -1.89202 0
M  V30 6478 H 600.329 1.73621 -3.47546 0
M  V30 6479 H 602.001 -0.63322 -4.56933 0
M  V30 6480 H 600.244 -0.664143 -4.28686 0
M  V30 6481 H 600.915 0.426253 -5.50352 0
M  V30 6482 H 603.391 1.47864 -3.88941 0
M  V30 6483 H 602.267 2.3593 -4.95609 0
M  V30 6484 H 602.528 2.92608 -3.3141 0
M  V30 6485 N 601.587 1.56661 0.17182 0
M  V30 6486 C 602.834 1.81965 0.888529 0
M  V30 6487 C 603.162 0.6789 1.82267 0
M  V30 6488 O 602.417 -0.333875 1.92831 0
M  V30 6489 C 602.716 3.13435 1.71736 0
M  V30 6490 C 602.382 4.41159 0.932184 0
M  V30 6491 C 601.044 4.75851 0.715481 0
M  V30 6492 C 603.396 5.19803 0.381387 0
M  V30 6493 C 600.724 5.86666 -0.063126 0
M  V30 6494 C 603.076 6.31433 -0.384129 0
M  V30 6495 C 601.74 6.64692 -0.611637 0
M  V30 6496 H 601.01 0.665859 0.325136 0
M  V30 6497 H 603.657 1.90884 0.153495 0
M  V30 6498 H 601.962 2.99857 2.52177 0
M  V30 6499 H 603.659 3.30224 2.27493 0
M  V30 6500 H 600.249 4.13947 1.11112 0
M  V30 6501 H 604.433 4.93396 0.536148 0
M  V30 6502 H 599.689 6.10892 -0.249136 0
M  V30 6503 H 603.863 6.91577 -0.818185 0
M  V30 6504 H 601.49 7.50398 -1.21684 0
M  V30 6505 N 603.065 -0.440357 1.51323 0
M  V30 6506 C 604.311 -1.19181 1.64085 0
M  V30 6507 C 604.644 -1.90936 0.354575 0
M  V30 6508 O 603.919 -1.8347 -0.645675 0
M  V30 6509 C 604.202 -2.2112 2.84215 0
M  V30 6510 C 604.055 -1.53468 4.22809 0
M  V30 6511 C 605.374 -3.22133 2.99864 0
M  V30 6512 H 602.493 -0.431924 0.597169 0
M  V30 6513 H 605.135 -0.481443 1.83799 0
M  V30 6514 H 603.285 -2.81703 2.67537 0
M  V30 6515 H 604.957 -0.962455 4.51148 0
M  V30 6516 H 603.2 -0.837086 4.25647 0
M  V30 6517 H 603.871 -2.27694 5.02852 0
M  V30 6518 H 606.347 -2.71601 3.15233 0
M  V30 6519 H 605.223 -3.90756 3.85488 0
M  V30 6520 H 605.484 -3.88061 2.11804 0
M  V30 6521 N 604.543 -1.41418 -0.695603 0
M  V30 6522 C 605.491 -1.43467 -1.83084 0
M  V30 6523 C 606.485 -0.312719 -1.66489 0
M  V30 6524 O 607.691 -0.484744 -1.7335 0
M  V30 6525 H 604.066 -0.448891 -0.603325 0
M  V30 6526 H 606.037 -2.39144 -1.78473 0
M  V30 6527 C 604.786 -1.3337 -3.21104 0
M  V30 6528 H 604.109 -2.18989 -3.3449 0
M  V30 6529 H 605.549 -1.38865 -4.00615 0
M  V30 6530 C 604.008 -0.0460484 -3.36869 0
M  V30 6531 O 604.538 0.909258 -3.91274 0
M  V30 6532 N 602.744 0.0300222 -2.90584 0
M  V30 6533 H 602.291 -0.748129 -2.46497 0
M  V30 6534 H 602.249 0.890991 -3.01511 0
M  V30 6535 N 606.021 0.929856 -1.27246 0
M  V30 6536 C 606.953 2.03434 -1.0558 0
M  V30 6537 C 607.966 1.62795 -0.0125762 0
M  V30 6538 O 609.155 1.76685 -0.2539 0
M  V30 6539 C 606.255 3.33915 -0.57912 0
M  V30 6540 C 605.428 4.03259 -1.69415 0
M  V30 6541 C 604.487 5.12014 -1.21357 0
M  V30 6542 O 603.513 5.36097 -1.91282 0
M  V30 6543 N 604.715 5.8046 -0.0680622 0
M  V30 6544 H 607.48 2.22583 -2.00691 0
M  V30 6545 H 605.041 1.1001 -1.18783 0
M  V30 6546 H 607.033 4.03978 -0.241563 0
M  V30 6547 H 605.603 3.11355 0.278703 0
M  V30 6548 H 604.823 3.26958 -2.20209 0
M  V30 6549 H 606.111 4.46337 -2.44255 0
M  V30 6550 H 605.509 5.63345 0.515626 0
M  V30 6551 H 604.066 6.51461 0.210332 0
M  V30 6552 N 607.499 1.09233 1.13605 0
M  V30 6553 C 608.745 0.838255 1.85324 0
M  V30 6554 C 609.1 -0.629314 1.81817 0
M  V30 6555 O 608.393 -1.45729 1.24393 0
M  V30 6556 C 608.587 1.305 3.32723 0
M  V30 6557 C 608.416 2.81641 3.50583 0
M  V30 6558 C 607.186 3.49494 3.64941 0
M  V30 6559 C 609.384 3.79789 3.46792 0
M  V30 6560 N 607.366 4.89082 3.71042 0
M  V30 6561 C 608.737 5.05319 3.59239 0
M  V30 6562 C 610.792 3.72673 3.30181 0
M  V30 6563 C 609.495 6.24574 3.56791 0
M  V30 6564 C 611.521 4.91413 3.29039 0
M  V30 6565 C 610.883 6.15785 3.42035 0
M  V30 6566 H 606.982 0.359572 0.69443 0
M  V30 6567 H 609.566 1.39232 1.36098 0
M  V30 6568 H 607.737 0.778411 3.8052 0
M  V30 6569 H 609.469 0.996465 3.92241 0
M  V30 6570 H 606.224 2.9992 3.66531 0
M  V30 6571 H 606.648 5.61787 3.77789 0
M  V30 6572 H 611.29 2.77444 3.19037 0
M  V30 6573 H 609.008 7.20105 3.66708 0
M  V30 6574 H 612.594 4.87604 3.17386 0
M  V30 6575 H 611.474 7.06126 3.41111 0
M  V30 6576 N 608.977 -1.30795 0.87923 0
M  V30 6577 C 609.909 -2.27241 0.299025 0
M  V30 6578 C 610.922 -1.53472 -0.543166 0
M  V30 6579 O 612.111 -1.74756 -0.363651 0
M  V30 6580 C 609.211 -3.33655 -0.593931 0
M  V30 6581 C 608.384 -4.36857 0.2179 0
M  V30 6582 C 607.443 -5.22715 -0.604646 0
M  V30 6583 O 606.469 -5.69192 -0.0293838 0
M  V30 6584 N 607.671 -5.48008 -1.91488 0
M  V30 6585 H 610.436 -2.77667 1.12788 0
M  V30 6586 H 607.997 -1.43914 0.741637 0
M  V30 6587 H 609.989 -3.88013 -1.15012 0
M  V30 6588 H 608.559 -2.83202 -1.32346 0
M  V30 6589 H 607.779 -3.82444 0.955536 0
M  V30 6590 H 609.067 -5.02869 0.774614 0
M  V30 6591 H 608.465 -5.1202 -2.40525 0
M  V30 6592 H 607.022 -6.05264 -2.41864 0
M  V30 6593 N 610.455 -0.639598 -1.44038 0
M  V30 6594 C 611.701 -0.147698 -2.02261 0
M  V30 6595 C 612.034 1.23031 -1.50256 0
M  V30 6596 O 611.309 1.81847 -0.690068 0
M  V30 6597 C 611.592 -0.14362 -3.59813 0
M  V30 6598 C 611.445 -1.55458 -4.22082 0
M  V30 6599 C 612.764 0.527317 -4.36929 0
M  V30 6600 H 609.883 -0.0551453 -0.734934 0
M  V30 6601 H 612.525 -0.817688 -1.71505 0
M  V30 6602 H 610.675 0.426898 -3.86147 0
M  V30 6603 H 612.347 -2.17464 -4.06826 0
M  V30 6604 H 610.59 -2.10594 -3.79253 0
M  V30 6605 H 611.261 -1.50369 -5.31124 0
M  V30 6606 H 613.737 0.0420504 -4.16079 0
M  V30 6607 H 612.613 0.499389 -5.46624 0
M  V30 6608 H 612.874 1.59914 -4.12165 0
M  V30 6609 N 611.933 1.52934 -0.380664 0
M  V30 6610 C 612.881 2.27727 0.47361 0
M  V30 6611 C 613.875 1.31288 1.0705 0
M  V30 6612 O 615.081 1.4886 1.01197 0
M  V30 6613 H 611.456 0.732189 0.171475 0
M  V30 6614 H 613.427 2.97864 -0.178785 0
M  V30 6615 C 612.176 3.0904 1.59341 0
M  V30 6616 H 611.499 3.831 1.14343 0
M  V30 6617 H 612.939 3.64527 2.16555 0
M  V30 6618 C 611.398 2.20813 2.54447 0
M  V30 6619 O 611.928 1.82907 3.57642 0
M  V30 6620 N 610.134 1.85145 2.23986 0
M  V30 6621 H 609.681 2.16169 1.40103 0
M  V30 6622 H 609.639 1.26402 2.87871 0
M  V30 6623 N 613.412 0.11024 1.57214 0
M  V30 6624 C 614.362 -0.854147 2.11396 0
M  V30 6625 C 615.346 -1.23394 1.03261 0
M  V30 6626 O 616.538 -1.20649 1.2951 0
M  V30 6627 C 613.667 -2.10752 2.70995 0
M  V30 6628 C 612.753 -1.75249 3.86198 0
M  V30 6629 N 613.144 -1.10377 4.9361 0
M  V30 6630 C 611.442 -2.04763 3.96217 0
M  V30 6631 C 612.143 -0.938199 5.74084 0
M  V30 6632 N 611.119 -1.46039 5.23616 0
M  V30 6633 H 614.921 -0.348897 2.91822 0
M  V30 6634 H 612.435 -0.0925071 1.62136 0
M  V30 6635 H 614.432 -2.80801 3.0815 0
M  V30 6636 H 613.092 -2.61829 1.9203 0
M  V30 6637 H 614.103 -0.768785 5.12162 0
M  V30 6638 H 610.78 -2.57948 3.28282 0
M  V30 6639 H 612.17 -0.429678 6.70525 0
M  V30 6640 N 614.89 -1.56749 -0.16351 0
M  V30 6641 C 616.167 -1.73321 -0.906599 0
M  V30 6642 C 616.547 -0.673779 -2.00059 0
M  V30 6643 O 615.895 0.310121 -2.26386 0
M  V30 6644 C 616.105 -3.168 -1.46419 0
M  V30 6645 C 617.453 -3.77993 -1.93407 0
M  V30 6646 O 618.477 -3.20127 -1.56196 0
M  V30 6647 O 617.336 -4.79615 -2.61976 0
M  V30 6648 H 614.43 -0.708073 -0.427272 0
M  V30 6649 H 616.976 -1.69029 -0.150727 0
M  V30 6650 H 615.748 -3.85396 -0.677189 0
M  V30 6651 H 615.371 -3.2545 -2.28403 0
M  V30 6652 N 616.368 0.432326 -1.51554 0
M  V30 6653 C 617.779 1.01202 -1.56892 0
M  V30 6654 C 618.13 1.92175 -0.395394 0
M  V30 6655 O 617.255 2.10844 0.487198 0
M  V30 6656 C 617.85 1.84217 -2.8434 0
M  V30 6657 C 616.409 2.37228 -2.92233 0
M  V30 6658 C 615.556 1.16576 -2.51606 0
M  V30 6659 H 618.507 0.213407 -1.57259 0
M  V30 6660 H 618.528 2.69721 -2.68385 0
M  V30 6661 H 618.04 1.17979 -3.69733 0
M  V30 6662 H 616.141 3.06905 -2.11282 0
M  V30 6663 H 616.254 2.69682 -3.95991 0
M  V30 6664 H 614.618 1.51263 -2.04919 0
M  V30 6665 H 615.401 0.519404 -3.39348 0
M  V30 6666 N 617.846 1.41785 0.688094 0
M  V30 6667 C 618.756 1.46596 1.83158 0
M  V30 6668 C 619.772 0.355862 1.70322 0
M  V30 6669 O 620.948 0.604737 1.92106 0
M  V30 6670 C 618.013 1.35322 3.192 0
M  V30 6671 C 617.074 2.56711 3.4409 0
M  V30 6672 C 616.307 2.45965 4.73642 0
M  V30 6673 O 616.53 1.48827 5.50642 0
M  V30 6674 O 615.464 3.35859 4.99482 0
M  V30 6675 H 619.29 2.43083 1.82056 0
M  V30 6676 H 616.875 1.23404 0.842126 0
M  V30 6677 H 618.757 1.31347 4.00407 0
M  V30 6678 H 617.432 0.419536 3.2097 0
M  V30 6679 H 616.339 2.66262 2.62784 0
M  V30 6680 H 617.672 3.48933 3.47141 0
M  V30 6681 N 619.324 -0.923095 1.27737 0
M  V30 6682 C 620.254 -2.04124 1.13383 0
M  V30 6683 C 621.235 -1.70066 0.0340658 0
M  V30 6684 O 622.42 -1.93068 0.209383 0
M  V30 6685 C 619.55 -3.3831 0.785097 0
M  V30 6686 C 618.504 -3.86496 1.8386 0
M  V30 6687 C 617.83 -5.1754 1.34373 0
M  V30 6688 C 619.13 -4.09381 3.24353 0
M  V30 6689 H 620.824 -2.1639 2.06919 0
M  V30 6690 H 618.37 -1.03976 0.996243 0
M  V30 6691 H 620.323 -4.16016 0.671485 0
M  V30 6692 H 619.047 -3.2607 -0.185969 0
M  V30 6693 H 617.706 -3.10987 1.9412 0
M  V30 6694 H 617.354 -5.01696 0.361989 0
M  V30 6695 H 617.054 -5.50751 2.04811 0
M  V30 6696 H 618.578 -5.97811 1.24315 0
M  V30 6697 H 619.992 -4.77641 3.17067 0
M  V30 6698 H 618.389 -4.53906 3.92542 0
M  V30 6699 H 619.459 -3.14515 3.69064 0
M  V30 6700 N 620.802 -1.09834 -1.13024 0
M  V30 6701 C 622.048 -0.848072 -1.84876 0
M  V30 6702 C 622.403 0.619663 -1.82148 0
M  V30 6703 O 621.696 1.45067 -1.25164 0
M  V30 6704 C 621.89 -1.32263 -3.32026 0
M  V30 6705 C 621.719 -2.83497 -3.49084 0
M  V30 6706 C 620.489 -3.51425 -3.63082 0
M  V30 6707 C 622.687 -3.81623 -3.44773 0
M  V30 6708 N 620.669 -4.91042 -3.68443 0
M  V30 6709 C 622.04 -5.07217 -3.56555 0
M  V30 6710 C 624.095 -3.74419 -3.282 0
M  V30 6711 C 622.798 -6.26457 -3.53474 0
M  V30 6712 C 624.824 -4.93151 -3.26429 0
M  V30 6713 C 624.186 -6.1759 -3.38765 0
M  V30 6714 H 620.285 -0.363249 -0.692513 0
M  V30 6715 H 622.869 -1.39952 -1.35357 0
M  V30 6716 H 621.04 -0.79858 -3.80102 0
M  V30 6717 H 622.772 -1.01725 -3.91707 0
M  V30 6718 H 619.527 -3.0186 -3.64935 0
M  V30 6719 H 619.951 -5.63782 -3.74805 0
M  V30 6720 H 624.593 -2.79132 -3.17561 0
M  V30 6721 H 622.311 -7.22039 -3.62884 0
M  V30 6722 H 625.897 -4.8928 -3.14796 0
M  V30 6723 H 624.777 -7.07925 -3.37361 0
M  V30 6724 N 622.28 1.30327 -0.886154 0
M  V30 6725 C 623.19 2.31854 -0.357866 0
M  V30 6726 C 624.206 1.65392 0.540502 0
M  V30 6727 O 625.382 1.96683 0.433339 0
M  V30 6728 C 622.447 3.44171 0.417999 0
M  V30 6729 C 621.508 4.26257 -0.510263 0
M  V30 6730 C 620.741 5.3321 0.228669 0
M  V30 6731 O 620.964 5.51542 1.45458 0
M  V30 6732 O 619.898 6.0042 -0.421832 0
M  V30 6733 H 623.724 2.78995 -1.19982 0
M  V30 6734 H 621.309 1.34518 -0.650028 0
M  V30 6735 H 623.191 4.12588 0.857251 0
M  V30 6736 H 621.866 2.99164 1.23623 0
M  V30 6737 H 620.773 3.60533 -0.99835 0
M  V30 6738 H 622.106 4.74871 -1.29454 0
M  V30 6739 N 623.758 0.647228 1.43697 0
M  V30 6740 C 625.035 0.0883758 1.954 0
M  V30 6741 C 625.415 -1.39006 1.58873 0
M  V30 6742 O 624.763 -2.11255 0.87083 0
M  V30 6743 C 624.973 0.328263 3.47453 0
M  V30 6744 C 626.321 0.230009 4.23977 0
M  V30 6745 O 627.345 0.260496 3.55246 0
M  V30 6746 O 626.204 0.148615 5.46298 0
M  V30 6747 H 623.298 -0.0130683 0.826897 0
M  V30 6748 H 625.844 0.72005 1.53666 0
M  V30 6749 H 624.616 1.3535 3.67146 0
M  V30 6750 H 624.239 -0.336772 3.96171 0
M  V30 6751 N 625.236 -1.5273 0.388769 0
M  V30 6752 C 626.647 -1.86505 -0.0853788 0
M  V30 6753 C 626.998 -1.30847 -1.46197 0
M  V30 6754 O 626.123 -0.639609 -2.06732 0
M  V30 6755 C 626.718 -3.38414 -0.161703 0
M  V30 6756 C 625.277 -3.71902 -0.580144 0
M  V30 6757 C 624.424 -2.76095 0.258218 0
M  V30 6758 H 627.375 -1.46647 0.606665 0
M  V30 6759 H 627.396 -3.67638 -0.980936 0
M  V30 6760 H 626.908 -3.78893 0.840333 0
M  V30 6761 H 625.009 -3.36992 -1.58957 0
M  V30 6762 H 625.122 -4.77902 -0.338663 0
M  V30 6763 H 623.486 -2.53195 -0.276432 0
M  V30 6764 H 624.269 -3.19411 1.25822 0
M  V30 6765 N 626.714 -0.118576 -1.57153 0
M  V30 6766 C 627.939 0.550582 -1.99958 0
M  V30 6767 C 628.364 1.59458 -0.997736 0
M  V30 6768 O 627.722 1.81274 0.0306269 0
M  V30 6769 C 627.77 1.15379 -3.41643 0
M  V30 6770 O 626.874 2.26932 -3.44348 0
M  V30 6771 H 626.215 0.137567 -0.649593 0
M  V30 6772 H 628.745 -0.206926 -2.03551 0
M  V30 6773 H 628.755 1.48942 -3.79843 0
M  V30 6774 H 627.43 0.389087 -4.14076 0
M  V30 6775 H 626.007 1.94812 -3.17967 0
M  V30 6776 N 628.193 1.56834 0.155195 0
M  V30 6777 C 629.103 2.009 1.21146 0
M  V30 6778 C 630.119 0.923029 1.475 0
M  V30 6779 O 631.295 1.23189 1.59331 0
M  V30 6780 C 628.36 2.37378 2.52691 0
M  V30 6781 C 627.421 3.59883 2.34057 0
M  V30 6782 C 626.654 3.94612 3.59329 0
M  V30 6783 O 626.877 3.30104 4.65175 0
M  V30 6784 O 625.811 4.87895 3.52479 0
M  V30 6785 H 629.637 2.9105 0.867371 0
M  V30 6786 H 627.222 1.44916 0.363298 0
M  V30 6787 H 629.104 2.61737 3.3026 0
M  V30 6788 H 627.779 1.50385 2.86646 0
M  V30 6789 H 626.686 3.40722 1.54465 0
M  V30 6790 H 628.019 4.47468 2.0502 0
M  V30 6791 N 629.671 -0.424282 1.51781 0
M  V30 6792 C 630.918 -1.1726 1.65095 0
M  V30 6793 C 631.246 -1.90881 0.373477 0
M  V30 6794 O 630.501 -1.84835 -0.642997 0
M  V30 6795 C 630.8 -2.20418 2.81337 0
M  V30 6796 C 630.466 -1.63715 4.20129 0
M  V30 6797 C 629.128 -1.47975 4.57883 0
M  V30 6798 C 631.48 -1.22157 5.06682 0
M  V30 6799 C 628.808 -0.891703 5.79884 0
M  V30 6800 C 631.16 -0.647767 6.29275 0
M  V30 6801 C 629.824 -0.477371 6.65791 0
M  V30 6802 H 629.094 -0.429085 0.604125 0
M  V30 6803 H 631.741 -0.461852 1.85847 0
M  V30 6804 H 630.046 -2.97581 2.54859 0
M  V30 6805 H 631.743 -2.78163 2.88836 0
M  V30 6806 H 628.333 -1.76946 3.90369 0
M  V30 6807 H 632.517 -1.33133 4.7811 0
M  V30 6808 H 627.773 -0.747563 6.06813 0
M  V30 6809 H 631.947 -0.317291 6.95677 0
M  V30 6810 H 629.574 -0.0195936 7.60197 0
M  V30 6811 N 631.149 -1.42148 -0.680565 0
M  V30 6812 C 632.565 -1.24947 -0.992995 0
M  V30 6813 C 632.765 -0.149527 -2.00944 0
M  V30 6814 O 631.821 0.481145 -2.47873 0
M  V30 6815 C 633.134 -2.60426 -1.5033 0
M  V30 6816 C 634.682 -2.67733 -1.62137 0
M  V30 6817 C 635.157 -4.03564 -2.16565 0
M  V30 6818 N 636.648 -4.05488 -2.23905 0
M  V30 6819 C 637.383 -5.07401 -2.67081 0
M  V30 6820 N 636.879 -6.19698 -3.09751 0
M  V30 6821 N 638.672 -4.94758 -2.66778 0
M  V30 6822 H 630.823 -2.12399 -0.0074788 0
M  V30 6823 H 633.086 -0.94571 -0.0658529 0
M  V30 6824 H 632.792 -3.41743 -0.830947 0
M  V30 6825 H 632.666 -2.83949 -2.483 0
M  V30 6826 H 635.053 -1.86765 -2.2848 0
M  V30 6827 H 635.134 -2.48004 -0.626713 0
M  V30 6828 H 634.778 -4.84987 -1.50833 0
M  V30 6829 H 634.708 -4.20641 -3.1681 0
M  V30 6830 H 637.199 -3.24415 -1.93812 0
M  V30 6831 H 637.512 -6.93318 -3.41365 0
M  V30 6832 H 635.857 -6.23212 -3.07623 0
M  V30 6833 H 639.048 -4.06105 -2.32801 0
M  V30 6834 H 639.221 -5.74317 -3.00107 0
M  V30 6835 N 632.627 0.916307 -1.28225 0
M  V30 6836 C 634.038 1.48024 -1.13779 0
M  V30 6837 C 634.389 1.94289 0.273139 0
M  V30 6838 O 633.514 1.82226 1.16716 0
M  V30 6839 C 634.109 2.69029 -2.05935 0
M  V30 6840 C 632.668 3.2161 -1.95561 0
M  V30 6841 C 631.815 1.94321 -1.97825 0
M  V30 6842 H 634.766 0.729272 -1.40951 0
M  V30 6843 H 634.787 3.44204 -1.62184 0
M  V30 6844 H 634.299 2.35325 -3.08616 0
M  V30 6845 H 632.4 3.60045 -0.959076 0
M  V30 6846 H 632.513 3.87032 -2.82388 0
M  V30 6847 H 630.877 2.1131 -1.42198 0
M  V30 6848 H 631.66 1.62917 -3.0218 0
M  V30 6849 N 634.105 1.10431 1.1244 0
M  V30 6850 C 635.015 0.765502 2.21759 0
M  V30 6851 C 636.031 -0.236966 1.72379 0
M  V30 6852 O 637.207 -0.0757329 2.01258 0
M  V30 6853 C 634.272 0.202316 3.46109 0
M  V30 6854 C 633.333 1.26205 4.1033 0
M  V30 6855 C 632.566 0.725648 5.28744 0
M  V30 6856 O 632.789 -0.447942 5.68638 0
M  V30 6857 O 631.723 1.48555 5.83279 0
M  V30 6858 H 635.549 1.67801 2.53133 0
M  V30 6859 H 633.134 0.879443 1.20773 0
M  V30 6860 H 635.016 -0.107918 4.21262 0
M  V30 6861 H 633.691 -0.683052 3.16411 0
M  V30 6862 H 632.598 1.62514 3.36957 0
M  V30 6863 H 633.931 2.12044 4.44183 0
M  V30 6864 N 635.583 -1.29855 0.893053 0
M  V30 6865 C 636.999 -1.48366 0.588199 0
M  V30 6866 C 637.199 -1.81654 -0.872018 0
M  V30 6867 O 636.255 -1.909 -1.65268 0
M  V30 6868 C 637.568 -2.60136 1.5083 0
M  V30 6869 C 639.116 -2.74014 1.51279 0
M  V30 6870 C 639.591 -3.88905 2.41902 0
M  V30 6871 N 641.082 -3.96228 2.39911 0
M  V30 6872 C 641.817 -4.84458 3.06738 0
M  V30 6873 N 641.313 -5.77426 3.8282 0
M  V30 6874 N 643.106 -4.77894 2.95929 0
M  V30 6875 H 635.257 -1.06522 1.83757 0
M  V30 6876 H 637.52 -0.528495 0.787018 0
M  V30 6877 H 637.226 -2.42383 2.54839 0
M  V30 6878 H 637.1 -3.56793 1.22388 0
M  V30 6879 H 639.487 -2.91167 0.480179 0
M  V30 6880 H 639.568 -1.77952 1.83757 0
M  V30 6881 H 639.212 -3.72508 3.45253 0
M  V30 6882 H 639.142 -4.84322 2.06737 0
M  V30 6883 H 641.633 -3.29728 1.84629 0
M  V30 6884 H 641.946 -6.41529 4.30883 0
M  V30 6885 H 640.291 -5.77332 3.86927 0
M  V30 6886 H 643.482 -4.04248 2.36012 0
M  V30 6887 H 643.655 -5.46444 3.48286 0
M  V30 6888 N 637.061 -0.65484 -1.43351 0
M  V30 6889 C 638.308 -0.168892 -2.01794 0
M  V30 6890 C 638.636 1.2177 -1.51665 0
M  V30 6891 O 637.891 1.82717 -0.70092 0
M  V30 6892 C 638.19 -0.130424 -3.57162 0
M  V30 6893 C 637.856 -1.45898 -4.26643 0
M  V30 6894 C 636.518 -1.82279 -4.4534 0
M  V30 6895 C 638.87 -2.33485 -4.65976 0
M  V30 6896 C 636.198 -3.0591 -5.00635 0
M  V30 6897 C 638.55 -3.5641 -5.22642 0
M  V30 6898 C 637.214 -3.92985 -5.39555 0
M  V30 6899 H 636.484 -0.061802 -0.738418 0
M  V30 6900 H 639.131 -0.845869 -1.71806 0
M  V30 6901 H 637.436 0.630008 -3.86702 0
M  V30 6902 H 639.133 0.262465 -4.0014 0
M  V30 6903 H 635.723 -1.16591 -4.12437 0
M  V30 6904 H 639.907 -2.06668 -4.51223 0
M  V30 6905 H 635.163 -3.34295 -5.11915 0
M  V30 6906 H 639.337 -4.24495 -5.52066 0
M  V30 6907 H 636.964 -4.88862 -5.82167 0
M  V30 6908 N 638.539 1.52521 -0.396863 0
M  V30 6909 C 639.469 2.29582 0.425941 0
M  V30 6910 C 640.45 1.33281 1.05689 0
M  V30 6911 O 641.635 1.62181 1.06823 0
M  V30 6912 C 638.765 3.10821 1.54943 0
M  V30 6913 C 637.719 4.15069 1.04413 0
M  V30 6914 C 637.045 4.84578 2.26028 0
M  V30 6915 C 638.345 5.22191 0.106767 0
M  V30 6916 H 640.039 2.98612 -0.217045 0
M  V30 6917 H 637.585 1.43611 -0.105826 0
M  V30 6918 H 639.538 3.63492 2.13193 0
M  V30 6919 H 638.262 2.39538 2.22011 0
M  V30 6920 H 636.921 3.63389 0.484118 0
M  V30 6921 H 636.569 4.09835 2.91623 0
M  V30 6922 H 636.269 5.55043 1.92876 0
M  V30 6923 H 637.793 5.40056 2.84906 0
M  V30 6924 H 639.207 5.70176 0.597685 0
M  V30 6925 H 637.604 5.99947 -0.135352 0
M  V30 6926 H 638.674 4.77531 -0.842134 0
M  V30 6927 N 640.017 0.126909 1.57088 0
M  V30 6928 C 641.245 -0.53667 1.99819 0
M  V30 6929 C 641.66 -1.5972 1.00673 0
M  V30 6930 O 641.017 -1.825 0.000747365 0
M  V30 6931 C 641.068 -1.15563 3.42531 0
M  V30 6932 O 640.789 -0.137483 4.37884 0
M  V30 6933 C 642.29 -1.90176 4.00435 0
M  V30 6934 H 639.51 -0.141443 0.655923 0
M  V30 6935 H 642.054 0.215578 2.03361 0
M  V30 6936 H 640.209 -1.85861 3.39904 0
M  V30 6937 H 640.623 -0.588229 5.21191 0
M  V30 6938 H 642.097 -2.28801 5.02349 0
M  V30 6939 H 642.574 -2.78002 3.40017 0
M  V30 6940 H 643.18 -1.24623 4.06632 0
M  V30 6941 N 641.495 -1.56914 -0.146875 0
M  V30 6942 C 642.458 -1.97368 -1.16526 0
M  V30 6943 C 643.458 -0.860223 -1.35856 0
M  V30 6944 O 644.648 -1.12684 -1.32846 0
M  V30 6945 C 641.78 -2.28974 -2.52555 0
M  V30 6946 H 642.973 -2.88523 -0.818209 0
M  V30 6947 H 640.526 -1.5135 -0.390221 0
M  V30 6948 H 641.261 -1.40611 -2.92231 0
M  V30 6949 H 641.046 -3.10157 -2.39886 0
M  V30 6950 H 642.536 -2.61109 -3.25902 0
M  V30 6951 N 642.974 0.416227 -1.52004 0
M  V30 6952 C 644.251 1.17637 -1.56272 0
M  V30 6953 C 644.631 2.08352 -0.339493 0
M  V30 6954 O 643.979 2.1833 0.674124 0
M  V30 6955 C 644.189 1.95986 -2.88774 0
M  V30 6956 C 645.537 2.52299 -3.41512 0
M  V30 6957 O 646.561 2.06174 -2.90467 0
M  V30 6958 O 645.42 3.3648 -4.30631 0
M  V30 6959 H 642.514 0.536726 -0.629169 0
M  V30 6960 H 645.06 0.423583 -1.64329 0
M  V30 6961 H 643.832 1.29487 -3.69254 0
M  V30 6962 H 643.455 2.78285 -2.83978 0
M  V30 6963 N 644.452 1.42507 0.673017 0
M  V30 6964 C 645.7 1.42789 1.43023 0
M  V30 6965 C 646.021 0.0459738 1.94946 0
M  V30 6966 O 645.291 -0.915765 1.73178 0
M  V30 6967 H 643.871 0.525657 0.530748 0
M  V30 6968 H 646.533 1.77944 0.795113 0
M  V30 6969 H 645.629 2.12872 2.28237 0
M  V30 6970 N 645.93 -0.909495 1.28709 0
M  V30 6971 C 647.158 -1.69272 1.18973 0
M  V30 6972 C 647.573 -1.87123 -0.251048 0
M  V30 6973 O 646.93 -1.40127 -1.16922 0
M  V30 6974 C 646.981 -3.08257 1.88839 0
M  V30 6975 O 646.702 -2.91228 3.27289 0
M  V30 6976 C 648.203 -4.02642 1.85457 0
M  V30 6977 H 645.423 -0.528999 0.412797 0
M  V30 6978 H 647.967 -1.13803 1.69909 0
M  V30 6979 H 646.122 -3.6053 1.41762 0
M  V30 6980 H 646.536 -3.79223 3.6234 0
M  V30 6981 H 648.01 -4.97613 2.38925 0
M  V30 6982 H 648.487 -4.31327 0.827893 0
M  V30 6983 H 649.093 -3.56298 2.32233 0
M  V30 6984 N 647.408 -1.11026 -1.11852 0
M  V30 6985 C 648.371 -0.768006 -2.1595 0
M  V30 6986 C 649.371 0.210538 -1.59416 0
M  V30 6987 O 650.561 -0.0133978 -1.74195 0
M  V30 6988 C 647.693 -0.138678 -3.40618 0
M  V30 6989 H 648.886 -1.69012 -2.4774 0
M  V30 6990 H 646.439 -0.911578 -1.26964 0
M  V30 6991 H 647.174 0.793872 -3.14433 0
M  V30 6992 H 646.959 -0.843012 -3.8293 0
M  V30 6993 H 648.449 0.0848039 -4.17514 0
M  V30 6994 N 648.886 1.2938 -0.899927 0
M  V30 6995 C 650.135 1.9483 -0.521937 0
M  V30 6996 C 650.448 1.71725 0.936473 0
M  V30 6997 O 651.654 2.31282 1.42199 0
M  V30 6998 C 650.11 3.48911 -0.88255 0
M  V30 6999 C 649.718 3.80815 -2.35974 0
M  V30 7000 C 651.462 4.20595 -0.57448 0
M  V30 7001 C 649.369 5.28142 -2.66121 0
M  V30 7002 H 648.299 0.729285 -0.191468 0
M  V30 7003 H 650.95 1.47103 -1.09695 0
M  V30 7004 H 649.332 3.95293 -0.236459 0
M  V30 7005 H 650.506 3.45291 -3.05141 0
M  V30 7006 H 648.821 3.22271 -2.63686 0
M  V30 7007 H 651.418 5.29031 -0.776556 0
M  V30 7008 H 651.761 4.13442 0.487005 0
M  V30 7009 H 652.294 3.79945 -1.17842 0
M  V30 7010 H 649.033 5.4036 -3.71068 0
M  V30 7011 H 648.553 5.64913 -2.01578 0
M  V30 7012 H 650.232 5.95738 -2.52399 0
M  V30 7013 N 650.364 0.662433 1.43002 0
M  V30 7014 C 651.312 -0.035345 2.32573 0
M  V30 7015 C 652.306 -0.803505 1.49131 0
M  V30 7016 O 653.512 -0.712865 1.65282 0
M  V30 7017 H 649.887 -0.0302194 0.751393 0
M  V30 7018 H 651.858 0.737686 2.89138 0
M  V30 7019 C 650.607 -0.981575 3.33557 0
M  V30 7020 H 649.93 -0.399914 3.97795 0
M  V30 7021 H 651.37 -1.43873 3.98844 0
M  V30 7022 C 649.829 -2.08204 2.64863 0
M  V30 7023 O 650.359 -3.16698 2.47113 0
M  V30 7024 N 648.565 -1.85022 2.24088 0
M  V30 7025 H 648.112 -0.967909 2.38724 0
M  V30 7026 H 648.07 -2.58845 1.78457 0
M  V30 7027 N 651.842 -1.52309 0.404946 0
M  V30 7028 C 652.789 -2.26898 -0.422597 0
M  V30 7029 C 653.759 -1.2914 -1.04461 0
M  V30 7030 O 654.944 -1.57996 -1.06967 0
M  V30 7031 C 652.084 -3.09053 -1.53559 0
M  V30 7032 C 651.197 -4.21762 -0.934908 0
M  V30 7033 C 650.332 -4.91283 -2.02025 0
M  V30 7034 C 649.371 -5.95962 -1.39628 0
M  V30 7035 N 648.508 -6.59017 -2.42159 0
M  V30 7036 H 653.348 -2.97188 0.219903 0
M  V30 7037 H 650.885 -1.46607 0.120282 0
M  V30 7038 H 652.843 -3.54987 -2.19181 0
M  V30 7039 H 651.473 -2.40942 -2.14818 0
M  V30 7040 H 650.525 -3.80029 -0.167854 0
M  V30 7041 H 651.837 -4.96864 -0.439073 0
M  V30 7042 H 650.991 -5.40601 -2.75383 0
M  V30 7043 H 649.73 -4.15741 -2.54973 0
M  V30 7044 H 648.735 -5.45968 -0.648023 0
M  V30 7045 H 649.96 -6.73445 -0.874553 0
M  V30 7046 H 647.906 -5.86306 -2.94247 0
M  V30 7047 H 647.823 -7.2978 -1.97376 0
M  V30 7048 H 649.091 -7.12974 -3.15099 0
M  V30 7049 N 653.32 -0.135238 -1.57019 0
M  V30 7050 C 654.731 0.387521 -1.82634 0
M  V30 7051 C 655.082 1.65528 -1.05332 0
M  V30 7052 O 654.207 2.14381 -0.294926 0
M  V30 7053 C 654.802 0.709852 -3.3128 0
M  V30 7054 C 653.361 1.17718 -3.57518 0
M  V30 7055 C 652.508 0.194183 -2.76619 0
M  V30 7056 H 655.459 -0.360126 -1.5456 0
M  V30 7057 H 655.48 1.5657 -3.46794 0
M  V30 7058 H 654.992 -0.213024 -3.87515 0
M  V30 7059 H 653.093 2.1164 -3.06658 0
M  V30 7060 H 653.206 1.11128 -4.66034 0
M  V30 7061 H 651.57 0.684478 -2.4533 0
M  V30 7062 H 652.353 -0.722076 -3.3562 0
M  V30 7063 N 654.798 1.5699 0.138552 0
M  V30 7064 C 655.728 2.01933 1.17241 0
M  V30 7065 C 656.709 0.90033 1.44319 0
M  V30 7066 O 657.894 1.16872 1.55095 0
M  V30 7067 C 655.024 2.40711 2.50351 0
M  V30 7068 C 653.978 3.55874 2.37776 0
M  V30 7069 C 653.304 3.80491 3.75674 0
M  V30 7070 C 654.604 4.8826 1.85472 0
M  V30 7071 H 656.298 2.88551 0.798672 0
M  V30 7072 H 653.844 1.3882 0.382743 0
M  V30 7073 H 655.797 2.70754 3.22909 0
M  V30 7074 H 654.521 1.5104 2.89576 0
M  V30 7075 H 653.18 3.2601 1.67669 0
M  V30 7076 H 652.828 2.88057 4.12349 0
M  V30 7077 H 652.528 4.57998 3.68119 0
M  V30 7078 H 654.052 4.12967 4.49767 0
M  V30 7079 H 655.466 5.16965 2.4783 0
M  V30 7080 H 653.863 5.69631 1.88787 0
M  V30 7081 H 654.933 4.78071 0.810935 0
M  V30 7082 N 656.276 -0.40816 1.52223 0
M  V30 7083 C 657.501 -1.18127 1.70472 0
M  V30 7084 C 657.926 -1.83491 0.41384 0
M  V30 7085 O 657.284 -1.70047 -0.628778 0
M  V30 7086 C 657.332 -2.21935 2.84213 0
M  V30 7087 O 656.436 -3.28099 2.4985 0
M  V30 7088 H 655.777 -0.344781 0.56747 0
M  V30 7089 H 658.307 -0.478328 1.9893 0
M  V30 7090 H 658.317 -2.66248 3.09153 0
M  V30 7091 H 656.992 -1.73744 3.7787 0
M  V30 7092 H 655.569 -2.89058 2.35584 0
M  V30 7093 N 657.755 -1.42862 -0.66545 0
M  V30 7094 C 658.665 -1.49491 -1.80803 0
M  V30 7095 C 659.681 -0.382914 -1.69734 0
M  V30 7096 O 660.857 -0.635223 -1.9112 0
M  V30 7097 C 657.922 -1.40383 -3.17007 0
M  V30 7098 C 656.983 -2.62152 -3.39963 0
M  V30 7099 C 656.216 -2.53469 -4.69669 0
M  V30 7100 O 656.439 -1.57568 -5.48205 0
M  V30 7101 O 655.373 -3.43763 -4.94075 0
M  V30 7102 H 659.199 -2.45949 -1.78165 0
M  V30 7103 H 656.784 -1.24728 -0.822387 0
M  V30 7104 H 658.666 -1.377 -3.98267 0
M  V30 7105 H 657.341 -0.470546 -3.20262 0
M  V30 7106 H 656.248 -2.70409 -2.58515 0
M  V30 7107 H 657.581 -3.54411 -3.41546 0
M  V30 7108 N 659.233 0.902656 -1.29189 0
M  V30 7109 C 660.18 2.00643 -1.14066 0
M  V30 7110 C 661.15 1.66064 -0.0347756 0
M  V30 7111 O 662.335 1.8973 -0.201752 0
M  V30 7112 C 659.475 3.35214 -0.820104 0
M  V30 7113 C 658.588 3.82594 -2.00614 0
M  V30 7114 C 657.723 5.05727 -1.62522 0
M  V30 7115 C 656.762 5.45469 -2.77724 0
M  V30 7116 N 655.899 6.59789 -2.40048 0
M  V30 7117 H 660.739 2.1291 -2.08502 0
M  V30 7118 H 658.276 1.04271 -1.03759 0
M  V30 7119 H 660.234 4.12643 -0.614949 0
M  V30 7120 H 658.864 3.22682 0.0873452 0
M  V30 7121 H 657.916 3.01226 -2.32308 0
M  V30 7122 H 659.228 4.07999 -2.86946 0
M  V30 7123 H 658.382 5.90732 -1.38277 0
M  V30 7124 H 657.121 4.82155 -0.733333 0
M  V30 7125 H 656.126 4.59 -3.02653 0
M  V30 7126 H 657.351 5.71024 -3.67572 0
M  V30 7127 H 655.297 6.37826 -1.53343 0
M  V30 7128 H 655.214 6.84975 -3.19914 0
M  V30 7129 H 656.482 7.4807 -2.19116 0
M  V30 7130 N 660.711 1.11618 1.11262 0
M  V30 7131 C 661.644 0.719995 2.16544 0
M  V30 7132 C 662.622 -0.28471 1.60088 0
M  V30 7133 O 663.806 -0.180693 1.87632 0
M  V30 7134 C 660.933 0.0643302 3.38639 0
M  V30 7135 C 659.979 1.03448 4.13764 0
M  V30 7136 S 660.812 2.55789 4.70459 0
M  V30 7137 C 661.968 1.91529 5.95875 0
M  V30 7138 H 662.201 1.61181 2.49816 0
M  V30 7139 H 659.734 0.934401 1.22916 0
M  V30 7140 H 661.692 -0.307609 4.09346 0
M  V30 7141 H 660.353 -0.804471 3.03623 0
M  V30 7142 H 659.546 0.523188 5.01277 0
M  V30 7143 H 659.148 1.34893 3.48826 0
M  V30 7144 H 661.44 1.25286 6.65815 0
M  V30 7145 H 662.383 2.77047 6.51652 0
M  V30 7146 H 662.791 1.37468 5.47506 0
M  V30 7147 N 662.189 -1.289 0.906776 0
M  V30 7148 C 663.122 -2.25737 0.334362 0
M  V30 7149 C 664.1 -1.52745 -0.557474 0
M  V30 7150 O 665.284 -1.81673 -0.502697 0
M  V30 7151 C 662.411 -3.34642 -0.522716 0
M  V30 7152 C 661.457 -4.25424 0.302777 0
M  V30 7153 S 662.29 -5.07629 1.70508 0
M  V30 7154 C 663.446 -6.20031 0.855118 0
M  V30 7155 H 663.679 -2.73941 1.15514 0
M  V30 7156 H 661.212 -1.37233 0.707573 0
M  V30 7157 H 663.17 -3.97845 -1.01141 0
M  V30 7158 H 661.831 -2.85119 -1.31781 0
M  V30 7159 H 661.024 -5.02767 -0.352257 0
M  V30 7160 H 660.626 -3.66908 0.724873 0
M  V30 7161 H 662.918 -6.77451 0.0816418 0
M  V30 7162 H 663.861 -6.89767 1.60087 0
M  V30 7163 H 664.269 -5.63035 0.406375 0
M  V30 7164 N 663.667 -0.670007 -1.42649 0
M  V30 7165 C 664.597 -0.00258501 -2.335 0
M  V30 7166 C 665.578 0.794364 -1.50412 0
M  V30 7167 O 666.763 0.75248 -1.79029 0
M  V30 7168 C 663.893 0.952748 -3.33976 0
M  V30 7169 C 662.847 0.264733 -4.2718 0
M  V30 7170 C 662.173 1.33267 -5.17826 0
M  V30 7171 C 663.473 -0.853289 -5.15283 0
M  V30 7172 H 665.167 -0.761326 -2.89559 0
M  V30 7173 H 662.713 -0.367561 -1.3923 0
M  V30 7174 H 664.666 1.4287 -3.96442 0
M  V30 7175 H 663.39 1.74285 -2.7621 0
M  V30 7176 H 662.049 -0.190938 -3.66102 0
M  V30 7177 H 661.697 2.11464 -4.5639 0
M  V30 7178 H 661.397 0.877476 -5.81011 0
M  V30 7179 H 662.921 1.80965 -5.83167 0
M  V30 7180 H 664.335 -0.458763 -5.71462 0
M  V30 7181 H 662.732 -1.23398 -5.87276 0
M  V30 7182 H 663.802 -1.70412 -4.53969 0
M  V30 7183 N 665.145 1.52092 -0.413018 0
M  V30 7184 C 666.392 2.01855 0.161497 0
M  V30 7185 C 666.72 1.29845 1.44812 0
M  V30 7186 O 665.975 0.394471 1.91683 0
M  V30 7187 C 666.274 3.54529 0.4521 0
M  V30 7188 C 665.94 4.4469 -0.745788 0
M  V30 7189 C 664.602 4.69053 -1.07435 0
M  V30 7190 C 666.954 4.97742 -1.54604 0
M  V30 7191 C 664.282 5.43717 -2.20429 0
M  V30 7192 C 666.634 5.73642 -2.66678 0
M  V30 7193 C 665.298 5.96277 -3.00016 0
M  V30 7194 H 664.568 0.73864 0.0590961 0
M  V30 7195 H 667.215 1.83274 -0.555234 0
M  V30 7196 H 665.52 3.7131 1.25045 0
M  V30 7197 H 667.217 3.90546 0.909647 0
M  V30 7198 H 663.807 4.25907 -0.479725 0
M  V30 7199 H 667.991 4.78824 -1.30543 0
M  V30 7200 H 663.247 5.59462 -2.46602 0
M  V30 7201 H 667.421 6.13746 -3.29072 0
M  V30 7202 H 665.048 6.53913 -3.87688 0
M  V30 7203 N 666.623 0.143563 1.56945 0
M  V30 7204 C 667.871 -0.507402 1.95627 0
M  V30 7205 C 668.192 -1.65626 1.02922 0
M  V30 7206 O 667.462 -1.95693 0.0901136 0
M  V30 7207 H 666.042 -0.190436 0.722318 0
M  V30 7208 H 668.704 0.218257 1.93674 0
M  V30 7209 H 667.8 -0.885816 2.99265 0
M  V30 7210 N 668.101 -1.57061 -0.130224 0
M  V30 7211 C 669.034 -1.94698 -1.19029 0
M  V30 7212 C 670.012 -0.815074 -1.40696 0
M  V30 7213 O 671.196 -1.07223 -1.55034 0
M  V30 7214 C 668.323 -2.23352 -2.5462 0
M  V30 7215 C 667.369 -3.45945 -2.49448 0
M  V30 7216 S 668.202 -4.98927 -1.94505 0
M  V30 7217 C 669.358 -5.30721 -3.31792 0
M  V30 7218 H 669.591 -2.84308 -0.869272 0
M  V30 7219 H 667.124 -1.50688 -0.336531 0
M  V30 7220 H 669.082 -2.40539 -3.32643 0
M  V30 7221 H 667.743 -1.34376 -2.83905 0
M  V30 7222 H 666.936 -3.63324 -3.49302 0
M  V30 7223 H 666.538 -3.28086 -1.79543 0
M  V30 7224 H 668.83 -5.25215 -4.27966 0
M  V30 7225 H 669.773 -6.32048 -3.19251 0
M  V30 7226 H 670.181 -4.5821 -3.29703 0
M  V30 7227 N 669.579 0.400081 -1.52437 0
M  V30 7228 C 670.827 1.14392 -1.6661 0
M  V30 7229 C 671.148 1.90792 -0.402927 0
M  V30 7230 O 670.418 1.87042 0.582425 0
M  V30 7231 H 668.998 0.425275 -0.614125 0
M  V30 7232 H 671.66 0.455076 -1.89513 0
M  V30 7233 H 670.756 1.85298 -2.51139 0
M  V30 7234 N 671.057 1.43213 0.657864 0
M  V30 7235 C 672.004 1.48011 1.77092 0
M  V30 7236 C 672.974 0.330291 1.62783 0
M  V30 7237 O 674.159 0.536787 1.83094 0
M  V30 7238 C 671.299 1.40461 3.15222 0
M  V30 7239 C 670.412 2.65612 3.40697 0
M  V30 7240 C 669.547 2.50083 4.68649 0
M  V30 7241 C 668.586 3.70525 4.87214 0
M  V30 7242 N 667.723 3.53835 6.0642 0
M  V30 7243 H 672.563 2.43121 1.72326 0
M  V30 7244 H 670.1 1.20687 0.841013 0
M  V30 7245 H 672.058 1.34079 3.95068 0
M  V30 7246 H 670.688 0.489359 3.19069 0
M  V30 7247 H 669.74 2.82292 2.54982 0
M  V30 7248 H 671.052 3.5509 3.50303 0
M  V30 7249 H 670.206 2.41383 5.56614 0
M  V30 7250 H 668.945 1.58121 4.61356 0
M  V30 7251 H 667.95 3.79639 3.97686 0
M  V30 7252 H 669.175 4.63489 4.96341 0
M  V30 7253 H 667.121 2.64604 6.00267 0
M  V30 7254 H 667.038 4.36912 6.16963 0
M  V30 7255 H 668.306 3.48978 6.97019 0
M  V30 7256 N 672.536 -0.895792 1.29666 0
M  V30 7257 C 673.952 -1.17726 1.07763 0
M  V30 7258 C 674.152 -2.00794 -0.168576 0
M  V30 7259 O 673.208 -2.37213 -0.865244 0
M  V30 7260 C 674.521 -1.89441 2.33522 0
M  V30 7261 C 676.069 -2.02251 2.3888 0
M  V30 7262 C 676.544 -2.77378 3.64452 0
M  V30 7263 N 678.035 -2.8493 3.65198 0
M  V30 7264 C 678.77 -3.43606 4.59045 0
M  V30 7265 N 678.266 -4.03417 5.63228 0
M  V30 7266 N 680.059 -3.41317 4.46608 0
M  V30 7267 H 672.21 -0.341652 2.09634 0
M  V30 7268 H 674.473 -0.213865 0.923561 0
M  V30 7269 H 674.179 -1.35842 3.24407 0
M  V30 7270 H 674.053 -2.89893 2.41334 0
M  V30 7271 H 676.44 -2.55025 1.4848 0
M  V30 7272 H 676.521 -1.0092 2.3505 0
M  V30 7273 H 676.165 -2.25279 4.55205 0
M  V30 7274 H 676.095 -3.79062 3.65541 0
M  V30 7275 H 678.586 -2.42453 2.89871 0
M  V30 7276 H 678.899 -4.46224 6.30955 0
M  V30 7277 H 677.244 -4.01868 5.67033 0
M  V30 7278 H 680.435 -2.93812 3.64407 0
M  V30 7279 H 680.608 -3.86751 5.1993 0
M  V30 7280 N 674.014 -1.12206 -1.10668 0
M  V30 7281 C 675.43 -0.857619 -1.346 0
M  V30 7282 C 675.63 0.513542 -1.94846 0
M  V30 7283 O 674.686 1.26273 -2.18658 0
M  V30 7284 C 675.999 -1.97212 -2.26998 0
M  V30 7285 C 677.547 -2.00272 -2.40542 0
M  V30 7286 C 678.022 -3.10948 -3.36267 0
M  V30 7287 N 679.513 -3.10375 -3.43834 0
M  V30 7288 C 680.248 -3.92651 -4.17867 0
M  V30 7289 N 679.744 -4.84911 -4.94807 0
M  V30 7290 N 681.537 -3.80798 -4.1346 0
M  V30 7291 H 673.688 -2.00558 -0.699306 0
M  V30 7292 H 675.951 -0.872612 -0.370477 0
M  V30 7293 H 675.657 -2.96002 -1.89936 0
M  V30 7294 H 675.531 -1.87521 -3.27286 0
M  V30 7295 H 677.918 -1.02103 -2.76874 0
M  V30 7296 H 677.999 -2.14037 -1.40077 0
M  V30 7297 H 677.643 -4.09348 -3.00661 0
M  V30 7298 H 677.573 -2.94421 -4.36605 0
M  V30 7299 H 680.064 -2.43536 -2.88961 0
M  V30 7300 H 680.377 -5.44207 -5.48688 0
M  V30 7301 H 678.722 -4.88926 -4.93939 0
M  V30 7302 H 681.913 -3.08058 -3.52445 0
M  V30 7303 H 682.086 -4.4515 -4.70898 0
M  V30 7304 N 675.492 1.28418 -0.913599 0
M  V30 7305 C 676.732 1.96756 -0.553771 0
M  V30 7306 C 677.096 1.70334 0.886013 0
M  V30 7307 O 678.297 2.32242 1.35341 0
M  V30 7308 C 676.568 3.47041 -0.854249 0
M  V30 7309 S 678.127 4.34667 -0.600816 0
M  V30 7310 H 674.945 0.680831 -0.204915 0
M  V30 7311 H 677.547 1.55947 -1.17902 0
M  V30 7312 H 676.251 3.63766 -1.90007 0
M  V30 7313 H 675.782 3.92797 -0.217651 0
M  V30 7314 H 677.797 4.93166 0.547906 0
M  V30 7315 N 676.97 0.677563 1.42291 0
M  V30 7316 C 678.219 0.198173 2.00724 0
M  V30 7317 C 678.532 -1.20325 1.54211 0
M  V30 7318 O 679.738 -1.77916 2.05081 0
M  V30 7319 C 678.194 0.303432 3.58619 0
M  V30 7320 C 677.802 1.70909 4.14119 0
M  V30 7321 C 679.546 -0.117103 4.24338 0
M  V30 7322 C 677.453 1.76696 5.64387 0
M  V30 7323 H 676.383 0.070329 0.750713 0
M  V30 7324 H 679.034 0.843147 1.62982 0
M  V30 7325 H 677.416 -0.409482 3.93877 0
M  V30 7326 H 678.59 2.44931 3.90315 0
M  V30 7327 H 676.905 2.07771 3.6086 0
M  V30 7328 H 679.502 -0.0940471 5.34617 0
M  V30 7329 H 679.845 -1.15283 4.00019 0
M  V30 7330 H 680.378 0.5449 3.9405 0
M  V30 7331 H 677.117 2.7826 5.93508 0
M  V30 7332 H 676.637 1.07034 5.90173 0
M  V30 7333 H 678.316 1.52166 6.28852 0
M  V30 7334 N 678.448 -1.51871 0.421078 0
M  V30 7335 C 679.696 -2.01539 -0.150492 0
M  V30 7336 C 680.017 -1.30803 -1.44623 0
M  V30 7337 O 679.287 -0.437568 -1.90951 0
M  V30 7338 H 677.867 -0.744698 -0.0586041 0
M  V30 7339 H 680.529 -1.8668 0.560059 0
M  V30 7340 H 679.625 -3.10264 -0.338068 0
M  V30 7341 N 679.926 -0.151884 -1.56866 0
M  V30 7342 C 680.836 0.798876 -2.20579 0
M  V30 7343 C 681.852 1.268 -1.19154 0
M  V30 7344 O 683.028 1.32418 -1.51748 0
M  V30 7345 C 680.093 2.01861 -2.81874 0
M  V30 7346 C 679.154 1.59825 -3.9844 0
M  V30 7347 C 678.387 2.75984 -4.56802 0
M  V30 7348 O 678.61 3.92331 -4.14044 0
M  V30 7349 O 677.544 2.51175 -5.46987 0
M  V30 7350 H 681.37 0.2865 -3.02346 0
M  V30 7351 H 678.955 0.0753806 -1.4921 0
M  V30 7352 H 680.837 2.73235 -3.20813 0
M  V30 7353 H 679.512 2.52042 -2.03117 0
M  V30 7354 H 678.419 0.854601 -3.64208 0
M  V30 7355 H 679.752 1.14355 -4.78731 0
M  V30 7356 N 681.404 1.57128 0.121893 0
M  V30 7357 C 682.65 1.84974 0.831418 0
M  V30 7358 C 682.983 0.737204 1.79663 0
M  V30 7359 O 682.258 -0.257199 1.92792 0
M  V30 7360 C 682.541 3.23397 1.58386 0
M  V30 7361 C 682.394 4.45246 0.638445 0
M  V30 7362 C 683.713 3.59355 2.54071 0
M  V30 7363 H 680.832 0.67282 0.300803 0
M  V30 7364 H 683.474 1.89759 0.0957587 0
M  V30 7365 H 681.624 3.19449 2.21098 0
M  V30 7366 H 683.296 4.61295 0.0203925 0
M  V30 7367 H 681.539 4.33771 -0.05023 0
M  V30 7368 H 682.21 5.38765 1.20151 0
M  V30 7369 H 684.686 3.64075 2.01465 0
M  V30 7370 H 683.562 4.57193 3.03752 0
M  V30 7371 H 683.823 2.86622 3.36601 0
M  V30 7372 N 682.882 -0.391992 1.52647 0
M  V30 7373 C 683.812 -1.48517 1.8018 0
M  V30 7374 C 684.793 -1.57039 0.653667 0
M  V30 7375 O 685.978 -1.72036 0.900962 0
M  V30 7376 C 683.108 -2.86161 1.96797 0
M  V30 7377 C 682.062 -2.92481 3.12472 0
M  V30 7378 C 681.388 -4.32546 3.14338 0
M  V30 7379 C 682.688 -2.624 4.51601 0
M  V30 7380 H 684.382 -1.25726 2.71723 0
M  V30 7381 H 681.928 -0.603387 1.30749 0
M  V30 7382 H 683.881 -3.62639 2.14641 0
M  V30 7383 H 682.605 -3.10283 1.01941 0
M  V30 7384 H 681.264 -2.18451 2.94406 0
M  V30 7385 H 680.912 -4.53703 2.1717 0
M  V30 7386 H 680.612 -4.37695 3.92042 0
M  V30 7387 H 682.136 -5.10934 3.34333 0
M  V30 7388 H 683.55 -3.28596 4.69785 0
M  V30 7389 H 681.947 -2.78903 5.3135 0
M  V30 7390 H 683.017 -1.57754 4.58521 0
M  V30 7391 N 684.36 -1.4356 -0.65026 0
M  V30 7392 C 685.323 -1.48615 -1.74489 0
M  V30 7393 C 686.323 -0.370483 -1.56474 0
M  V30 7394 O 687.513 -0.632351 -1.62317 0
M  V30 7395 C 684.645 -1.34161 -3.13391 0
M  V30 7396 H 685.838 -2.46103 -1.71387 0
M  V30 7397 H 683.391 -1.30369 -0.862186 0
M  V30 7398 H 684.126 -0.376918 -3.22102 0
M  V30 7399 H 683.911 -2.1504 -3.27872 0
M  V30 7400 H 685.401 -1.40637 -3.93206 0
M  V30 7401 N 685.838 0.888903 -1.30139 0
M  V30 7402 C 686.785 1.99422 -1.16188 0
M  V30 7403 C 687.755 1.66017 -0.0523869 0
M  V30 7404 O 688.94 1.89506 -0.221864 0
M  V30 7405 C 686.08 3.34325 -0.855612 0
M  V30 7406 C 685.193 3.80445 -2.0466 0
M  V30 7407 C 684.328 5.03975 -1.67876 0
M  V30 7408 C 683.367 5.42492 -2.83493 0
M  V30 7409 N 682.504 6.57206 -2.47032 0
M  V30 7410 H 687.344 2.10687 -2.10749 0
M  V30 7411 H 684.881 1.03165 -1.04859 0
M  V30 7412 H 686.839 4.11968 -0.658681 0
M  V30 7413 H 685.469 3.22756 0.0531155 0
M  V30 7414 H 684.521 2.98745 -2.3549 0
M  V30 7415 H 685.833 4.04933 -2.91257 0
M  V30 7416 H 684.987 5.89232 -1.44535 0
M  V30 7417 H 683.726 4.8135 -0.784431 0
M  V30 7418 H 682.731 4.55764 -3.07505 0
M  V30 7419 H 683.956 5.67093 -3.73607 0
M  V30 7420 H 681.902 6.36164 -1.601 0
M  V30 7421 H 681.819 6.81543 -3.27161 0
M  V30 7422 H 683.087 7.45704 -2.27038 0
M  V30 7423 N 687.317 1.12792 1.10072 0
M  V30 7424 C 688.563 0.89679 1.82563 0
M  V30 7425 C 688.918 -0.571152 1.83727 0
M  V30 7426 O 688.211 -1.41697 1.28967 0
M  V30 7427 C 688.405 1.4102 3.28403 0
M  V30 7428 C 688.234 2.92652 3.41445 0
M  V30 7429 C 687.004 3.60928 3.53637 0
M  V30 7430 C 689.202 3.9063 3.34534 0
M  V30 7431 N 687.184 5.00638 3.55295 0
M  V30 7432 C 688.555 5.16492 3.42981 0
M  V30 7433 C 690.61 3.82989 3.18157 0
M  V30 7434 C 689.313 6.35609 3.3674 0
M  V30 7435 C 691.339 5.01633 3.13239 0
M  V30 7436 C 690.701 6.26355 3.22272 0
M  V30 7437 H 686.8 0.381482 0.682638 0
M  V30 7438 H 689.384 1.43491 1.31599 0
M  V30 7439 H 687.555 0.899077 3.77851 0
M  V30 7440 H 689.287 1.12075 3.88872 0
M  V30 7441 H 686.042 3.11429 3.56803 0
M  V30 7442 H 686.466 5.73521 3.59725 0
M  V30 7443 H 691.108 2.87454 3.10049 0
M  V30 7444 H 688.826 7.31407 3.43613 0
M  V30 7445 H 692.412 4.97454 3.01713 0
M  V30 7446 H 691.292 7.1662 3.18473 0
M  V30 7447 N 688.795 -1.27931 0.920396 0
M  V30 7448 C 689.705 -2.30824 0.419212 0
M  V30 7449 C 690.721 -1.66767 -0.496461 0
M  V30 7450 O 691.897 -1.97763 -0.38104 0
M  V30 7451 C 688.962 -3.45158 -0.326601 0
M  V30 7452 C 688.023 -4.24754 0.623098 0
M  V30 7453 C 687.256 -5.33629 -0.0872172 0
M  V30 7454 O 687.479 -5.55204 -1.30784 0
M  V30 7455 O 686.413 -5.99091 0.580875 0
M  V30 7456 H 690.239 -2.75716 1.27337 0
M  V30 7457 H 687.824 -1.32747 0.685465 0
M  V30 7458 H 689.706 -4.14716 -0.747559 0
M  V30 7459 H 688.381 -3.02336 -1.15648 0
M  V30 7460 H 687.288 -3.57759 1.09359 0
M  V30 7461 H 688.621 -4.71272 1.41998 0
M  V30 7462 N 690.273 -0.685099 -1.4193 0
M  V30 7463 C 691.522 -0.208816 -2.00616 0
M  V30 7464 C 691.835 1.19506 -1.54847 0
M  V30 7465 O 693.041 1.76826 -2.06021 0
M  V30 7466 C 691.497 -0.322446 -3.58453 0
M  V30 7467 C 691.105 -1.73102 -4.13206 0
M  V30 7468 C 692.849 0.0945979 -4.24395 0
M  V30 7469 C 690.756 -1.79687 -5.63442 0
M  V30 7470 H 689.686 -0.0743092 -0.750329 0
M  V30 7471 H 692.337 -0.851778 -1.62533 0
M  V30 7472 H 690.719 0.388588 -3.94089 0
M  V30 7473 H 691.893 -2.46997 -3.8901 0
M  V30 7474 H 690.208 -2.09682 -3.59753 0
M  V30 7475 H 692.805 0.0656937 -5.3466 0
M  V30 7476 H 693.148 1.1316 -4.00625 0
M  V30 7477 H 693.681 -0.56579 -3.93756 0
M  V30 7478 H 690.42 -2.81404 -5.92024 0
M  V30 7479 H 689.94 -1.10162 -5.89597 0
M  V30 7480 H 691.619 -1.55498 -6.28036 0
M  V30 7481 N 691.751 1.51645 -0.429126 0
M  V30 7482 C 692.998 2.02015 0.140079 0
M  V30 7483 C 693.326 1.31374 1.43427 0
M  V30 7484 O 692.581 0.414779 1.91254 0
M  V30 7485 C 692.88 3.54989 0.414472 0
M  V30 7486 C 692.546 4.43874 -0.792911 0
M  V30 7487 C 691.208 4.67887 -1.12404 0
M  V30 7488 C 693.56 4.96074 -1.59875 0
M  V30 7489 C 690.888 5.41348 -2.26184 0
M  V30 7490 C 693.24 5.70782 -2.72747 0
M  V30 7491 C 691.904 5.93062 -3.06324 0
M  V30 7492 H 691.174 0.739225 0.0512585 0
M  V30 7493 H 693.821 1.82675 -0.574641 0
M  V30 7494 H 692.126 3.72615 1.21099 0
M  V30 7495 H 693.823 3.91489 0.868173 0
M  V30 7496 H 690.413 4.25374 -0.524871 0
M  V30 7497 H 694.597 4.77412 -1.35614 0
M  V30 7498 H 689.853 5.56815 -2.52522 0
M  V30 7499 H 694.027 6.10221 -3.35564 0
M  V30 7500 H 691.654 6.49764 -3.94602 0
M  V30 7501 N 693.229 0.160201 1.56784 0
M  V30 7502 C 694.159 -0.770264 2.2043 0
M  V30 7503 C 695.14 -1.24736 1.15651 0
M  V30 7504 O 696.325 -1.30253 1.44041 0
M  V30 7505 C 693.455 -2.00427 2.83631 0
M  V30 7506 C 692.409 -1.66345 3.94352 0
M  V30 7507 C 691.735 -2.97119 4.4455 0
M  V30 7508 C 693.035 -0.899972 5.14488 0
M  V30 7509 H 694.729 -0.239783 2.98438 0
M  V30 7510 H 692.275 -0.113891 1.43549 0
M  V30 7511 H 694.228 -2.66012 3.26827 0
M  V30 7512 H 692.952 -2.5587 2.02973 0
M  V30 7513 H 691.611 -1.03133 3.51794 0
M  V30 7514 H 691.259 -3.5058 3.60698 0
M  V30 7515 H 690.959 -2.75073 5.19238 0
M  V30 7516 H 692.483 -3.63753 4.90425 0
M  V30 7517 H 693.897 -1.45818 5.54446 0
M  V30 7518 H 692.294 -0.778968 5.95023 0
M  V30 7519 H 693.364 0.105827 4.84785 0
M  V30 7520 N 694.707 -1.5719 -0.113559 0
M  V30 7521 C 695.954 -1.85138 -0.820382 0
M  V30 7522 C 696.282 -0.74608 -1.79622 0
M  V30 7523 O 695.537 0.262077 -1.93937 0
M  V30 7524 C 695.836 -3.19593 -1.59984 0
M  V30 7525 C 695.502 -4.44315 -0.767809 0
M  V30 7526 C 694.164 -4.78179 -0.538379 0
M  V30 7527 C 696.516 -5.2086 -0.188203 0
M  V30 7528 C 693.844 -5.86028 0.28082 0
M  V30 7529 C 696.196 -6.29572 0.618217 0
M  V30 7530 C 694.86 -6.61964 0.857912 0
M  V30 7531 H 694.13 -0.677467 -0.300199 0
M  V30 7532 H 696.777 -1.91322 -0.0825443 0
M  V30 7533 H 695.082 -3.0901 -2.40874 0
M  V30 7534 H 696.779 -3.3844 -2.1508 0
M  V30 7535 H 693.369 -4.17786 -0.956724 0
M  V30 7536 H 697.553 -4.95045 -0.352658 0
M  V30 7537 H 692.809 -6.09547 0.475693 0
M  V30 7538 H 696.983 -6.88064 1.0743 0
M  V30 7539 H 694.61 -7.45365 1.49451 0
M  V30 7540 N 696.185 0.383891 -1.52853 0
M  V30 7541 C 697.115 1.47559 -1.80965 0
M  V30 7542 C 698.096 1.5669 -0.661986 0
M  V30 7543 O 699.281 1.71556 -0.910072 0
M  V30 7544 C 696.411 2.85114 -1.98312 0
M  V30 7545 C 695.365 2.9082 -3.14019 0
M  V30 7546 C 694.691 4.30873 -3.16627 0
M  V30 7547 C 695.991 2.60001 -4.52986 0
M  V30 7548 H 697.685 1.24283 -2.72386 0
M  V30 7549 H 695.231 0.596445 -1.31067 0
M  V30 7550 H 697.184 3.61496 -2.16561 0
M  V30 7551 H 695.908 3.09738 -1.03585 0
M  V30 7552 H 694.567 2.16886 -2.9556 0
M  V30 7553 H 694.215 4.52545 -2.19573 0
M  V30 7554 H 693.915 4.3561 -3.94357 0
M  V30 7555 H 695.439 5.09154 -3.37038 0
M  V30 7556 H 696.853 3.261 -4.71521 0
M  V30 7557 H 695.25 2.76081 -5.32822 0
M  V30 7558 H 696.32 1.5532 -4.59351 0
M  V30 7559 N 697.663 1.43903 0.642637 0
M  V30 7560 C 698.626 1.49538 1.73698 0
M  V30 7561 C 699.626 0.378776 1.56275 0
M  V30 7562 O 700.816 0.64095 1.6198 0
M  V30 7563 C 697.948 1.35821 3.12675 0
M  V30 7564 H 699.141 2.47008 1.70079 0
M  V30 7565 H 696.694 1.30824 0.85526 0
M  V30 7566 H 697.429 0.393994 3.21898 0
M  V30 7567 H 697.214 2.16776 3.26727 0
M  V30 7568 H 698.704 1.4272 3.92455 0
M  V30 7569 N 699.141 -0.881989 1.30609 0
M  V30 7570 C 700.39 -1.62878 1.18969 0
M  V30 7571 C 700.703 -1.93946 -0.253859 0
M  V30 7572 O 701.909 -2.67008 -0.491813 0
M  V30 7573 C 700.365 -2.93573 2.0819 0
M  V30 7574 C 699.973 -2.70034 3.57471 0
M  V30 7575 C 701.717 -3.71543 2.0532 0
M  V30 7576 C 699.624 -3.96563 4.38739 0
M  V30 7577 H 698.554 -0.611092 0.441682 0
M  V30 7578 H 701.205 -0.976201 1.55379 0
M  V30 7579 H 699.587 -3.6014 1.64666 0
M  V30 7580 H 700.761 -2.11949 4.09163 0
M  V30 7581 H 699.076 -2.05435 3.62195 0
M  V30 7582 H 701.673 -4.65386 2.63288 0
M  V30 7583 H 702.016 -4.03167 1.03739 0
M  V30 7584 H 702.549 -3.11842 2.46981 0
M  V30 7585 H 699.288 -3.70095 5.41027 0
M  V30 7586 H 698.808 -4.54142 3.9181 0
M  V30 7587 H 700.487 -4.64557 4.50329 0
M  V30 7588 N 700.619 -1.13374 -1.09472 0
M  V30 7589 C 701.549 -0.833268 -2.18126 0
M  V30 7590 C 702.53 0.207169 -1.68834 0
M  V30 7591 O 703.715 0.0662012 -1.94087 0
M  V30 7592 C 700.845 -0.297979 -3.46019 0
M  V30 7593 C 699.799 -1.27261 -4.08642 0
M  V30 7594 C 699.125 -0.597104 -5.31356 0
M  V30 7595 C 700.425 -2.63095 -4.51197 0
M  V30 7596 H 702.119 -1.74182 -2.43518 0
M  V30 7597 H 699.665 -0.838921 -1.17039 0
M  V30 7598 H 701.618 -0.0754444 -4.21332 0
M  V30 7599 H 700.342 0.645959 -3.20148 0
M  V30 7600 H 699.001 -1.48113 -3.35348 0
M  V30 7601 H 698.649 0.352293 -5.01765 0
M  V30 7602 H 698.349 -1.24734 -5.74208 0
M  V30 7603 H 699.873 -0.38384 -6.09392 0
M  V30 7604 H 701.287 -2.46214 -5.17737 0
M  V30 7605 H 699.684 -3.2429 -5.04932 0
M  V30 7606 H 700.754 -3.20793 -3.6362 0
M  V30 7607 N 702.098 1.27442 -0.927168 0
M  V30 7608 C 703.028 2.29256 -0.443188 0
M  V30 7609 C 704.009 1.62701 0.49624 0
M  V30 7610 O 705.194 1.90013 0.401105 0
M  V30 7611 C 702.324 3.45955 0.305366 0
M  V30 7612 C 701.278 4.24501 -0.546178 0
M  V30 7613 C 700.604 5.33671 0.331512 0
M  V30 7614 C 701.904 4.89921 -1.81037 0
M  V30 7615 H 703.598 2.69988 -1.29409 0
M  V30 7616 H 701.144 1.29792 -0.623705 0
M  V30 7617 H 703.097 4.1628 0.654885 0
M  V30 7618 H 701.821 3.04138 1.19029 0
M  V30 7619 H 700.48 3.55921 -0.878398 0
M  V30 7620 H 700.128 4.88096 1.21537 0
M  V30 7621 H 699.828 5.87131 -0.234746 0
M  V30 7622 H 701.352 6.0684 0.676614 0
M  V30 7623 H 702.766 5.52536 -1.52895 0
M  V30 7624 H 701.163 5.53436 -2.32009 0
M  V30 7625 H 702.233 4.13652 -2.53021 0
M  V30 7626 N 703.576 0.692616 1.41565 0
M  V30 7627 C 704.508 -0.0137132 2.29196 0
M  V30 7628 C 705.521 -0.747417 1.44629 0
M  V30 7629 O 706.71 -0.598611 1.68163 0
M  V30 7630 C 703.81 -1.04347 3.22436 0
M  V30 7631 C 702.983 -0.379985 4.35746 0
M  V30 7632 C 702.042 -1.31195 5.09583 0
M  V30 7633 O 701.068 -0.805455 5.63472 0
M  V30 7634 N 702.27 -2.64443 5.16769 0
M  V30 7635 H 705.035 0.738614 2.90456 0
M  V30 7636 H 702.596 0.538415 1.52685 0
M  V30 7637 H 704.588 -1.6686 3.687 0
M  V30 7638 H 703.158 -1.69736 2.62504 0
M  V30 7639 H 702.378 0.424975 3.91903 0
M  V30 7640 H 703.666 0.0814904 5.08735 0
M  V30 7641 H 703.064 -3.08114 4.74428 0
M  V30 7642 H 701.621 -3.22159 5.66619 0
M  V30 7643 N 705.054 -1.51416 0.437162 0
M  V30 7644 C 705.986 -2.255 -0.410171 0
M  V30 7645 C 706.999 -1.29511 -0.986444 0
M  V30 7646 O 708.188 -1.55266 -0.880614 0
M  V30 7647 C 705.288 -2.99511 -1.58575 0
M  V30 7648 C 704.461 -4.22595 -1.12839 0
M  V30 7649 C 703.52 -4.79187 -2.17407 0
M  V30 7650 O 702.546 -5.4103 -1.76849 0
M  V30 7651 N 703.748 -4.63204 -3.49889 0
M  V30 7652 H 706.513 -2.98856 0.224783 0
M  V30 7653 H 704.074 -1.59699 0.266041 0
M  V30 7654 H 706.066 -3.34258 -2.28152 0
M  V30 7655 H 704.636 -2.29167 -2.12606 0
M  V30 7656 H 703.856 -3.93344 -0.259695 0
M  V30 7657 H 705.144 -5.02468 -0.800196 0
M  V30 7658 H 704.542 -4.13945 -3.85573 0
M  V30 7659 H 703.099 -5.02313 -4.15361 0
M  V30 7660 N 706.532 -0.168513 -1.56696 0
M  V30 7661 C 707.462 0.758563 -2.20835 0
M  V30 7662 C 708.443 1.24121 -1.1631 0
M  V30 7663 O 709.628 1.29487 -1.4473 0
M  V30 7664 C 706.758 1.9892 -2.8469 0
M  V30 7665 C 705.712 1.64252 -3.95228 0
M  V30 7666 C 705.038 2.94757 -4.46119 0
M  V30 7667 C 706.338 0.872675 -5.14958 0
M  V30 7668 H 708.032 0.223953 -2.98561 0
M  V30 7669 H 705.578 0.106277 -1.43607 0
M  V30 7670 H 707.531 2.64275 -3.28233 0
M  V30 7671 H 706.255 2.5479 -2.04327 0
M  V30 7672 H 704.914 1.01266 -3.52336 0
M  V30 7673 H 704.562 3.48662 -3.62552 0
M  V30 7674 H 704.262 2.72316 -5.2069 0
M  V30 7675 H 705.786 3.61147 -4.92347 0
M  V30 7676 H 707.2 1.42875 -5.55211 0
M  V30 7677 H 705.597 0.747402 -5.95428 0
M  V30 7678 H 706.667 -0.131535 -4.84722 0
M  V30 7679 N 708.01 1.57248 0.105221 0
M  V30 7680 C 708.92 2.04653 1.14693 0
M  V30 7681 C 709.936 0.969488 1.44489 0
M  V30 7682 O 711.112 1.28196 1.55331 0
M  V30 7683 C 708.177 2.45297 2.45011 0
M  V30 7684 C 707.238 3.67148 2.22489 0
M  V30 7685 C 706.471 4.05844 3.46592 0
M  V30 7686 O 706.694 3.44736 4.54437 0
M  V30 7687 O 705.628 4.98862 3.36779 0
M  V30 7688 H 709.454 2.93663 0.774336 0
M  V30 7689 H 707.039 1.45998 0.31701 0
M  V30 7690 H 708.921 2.72112 3.21766 0
M  V30 7691 H 707.596 1.59429 2.81717 0
M  V30 7692 H 706.503 3.45463 1.43547 0
M  V30 7693 H 707.836 4.53764 1.9068 0
M  V30 7694 N 709.488 -0.375779 1.53054 0
M  V30 7695 C 710.735 -1.11948 1.68742 0
M  V30 7696 C 711.063 -1.89596 0.434015 0
M  V30 7697 O 710.318 -1.86787 -0.583867 0
M  V30 7698 C 710.617 -2.11356 2.88207 0
M  V30 7699 C 710.283 -1.50266 4.25124 0
M  V30 7700 C 708.945 -1.33333 4.62359 0
M  V30 7701 C 711.297 -1.05976 5.10312 0
M  V30 7702 C 708.625 -0.706765 5.82427 0
M  V30 7703 C 710.977 -0.447241 6.31017 0
M  V30 7704 C 709.641 -0.265314 6.66973 0
M  V30 7705 H 708.911 -0.409648 0.61747 0
M  V30 7706 H 711.558 -0.402492 1.87222 0
M  V30 7707 H 709.863 -2.89322 2.64197 0
M  V30 7708 H 711.56 -2.68833 2.97539 0
M  V30 7709 H 708.15 -1.64437 3.95801 0
M  V30 7710 H 712.334 -1.17855 4.82104 0
M  V30 7711 H 707.59 -0.554132 6.08884 0
M  V30 7712 H 711.764 -0.0958064 6.96334 0
M  V30 7713 H 709.391 0.222267 7.59875 0
M  V30 7714 N 710.966 -1.44241 -0.634997 0
M  V30 7715 C 712.191 -1.50516 -1.42687 0
M  V30 7716 C 712.616 -0.129864 -1.87651 0
M  V30 7717 O 711.974 0.880164 -1.58502 0
M  V30 7718 C 712.022 -2.4714 -2.62591 0
M  V30 7719 O 711.126 -1.97025 -3.62291 0
M  V30 7720 H 710.467 -0.50841 -0.427101 0
M  V30 7721 H 712.997 -1.89337 -0.775408 0
M  V30 7722 H 713.007 -2.65048 -3.10183 0
M  V30 7723 H 711.682 -3.47039 -2.29209 0
M  V30 7724 H 710.259 -1.88866 -3.21534 0
M  V30 7725 N 712.444 0.87505 -1.31075 0
M  V30 7726 C 713.69 1.63009 -1.20647 0
M  V30 7727 C 714.023 1.9276 0.236045 0
M  V30 7728 O 713.298 1.55559 1.16754 0
M  V30 7729 C 713.581 2.96357 -2.0456 0
M  V30 7730 C 713.434 2.73516 -3.57084 0
M  V30 7731 C 714.753 3.974 -1.89107 0
M  V30 7732 H 711.872 0.591518 -0.439631 0
M  V30 7733 H 714.514 1.0119 -1.60812 0
M  V30 7734 H 712.664 3.49119 -1.70435 0
M  V30 7735 H 714.336 2.27465 -4.01319 0
M  V30 7736 H 712.579 2.0784 -3.80769 0
M  V30 7737 H 713.25 3.68377 -4.11099 0
M  V30 7738 H 715.726 3.5383 -2.18961 0
M  V30 7739 H 714.602 4.88596 -2.5013 0
M  V30 7740 H 714.863 4.33794 -0.85296 0
M  V30 7741 N 713.922 1.13953 1.08869 0
M  V30 7742 C 715.333 0.916649 1.62648 0
M  V30 7743 C 715.684 -0.545589 1.88462 0
M  V30 7744 O 714.809 -1.41351 1.63856 0
M  V30 7745 C 715.404 1.65751 2.95486 0
M  V30 7746 C 713.963 1.48034 3.46068 0
M  V30 7747 C 713.11 1.68305 2.20383 0
M  V30 7748 H 716.061 1.292 0.921572 0
M  V30 7749 H 716.082 1.11794 3.63707 0
M  V30 7750 H 715.594 2.72171 2.76667 0
M  V30 7751 H 713.695 0.439416 3.7 0
M  V30 7752 H 713.808 2.24719 4.23129 0
M  V30 7753 H 712.172 1.10833 2.29321 0
M  V30 7754 H 712.955 2.76057 2.04077 0
M  V30 7755 N 715.4 -1.26948 0.933913 0
M  V30 7756 C 716.811 -1.76058 0.621324 0
M  V30 7757 C 717.162 -1.76175 -0.863522 0
M  V30 7758 O 716.287 -1.36921 -1.67576 0
M  V30 7759 C 716.882 -3.19713 1.12111 0
M  V30 7760 C 715.441 -3.66465 0.859074 0
M  V30 7761 C 714.588 -2.46186 1.27624 0
M  V30 7762 H 717.539 -1.13127 1.11301 0
M  V30 7763 H 717.56 -3.77566 0.471608 0
M  V30 7764 H 717.072 -3.19596 2.20182 0
M  V30 7765 H 715.173 -3.72021 -0.207566 0
M  V30 7766 H 715.286 -4.55636 1.48098 0
M  V30 7767 H 713.65 -2.45042 0.694727 0
M  V30 7768 H 714.433 -2.48774 2.36572 0
M  V30 7769 N 716.879 -0.700114 -1.41195 0
M  V30 7770 C 718.127 -0.232546 -2.00758 0
M  V30 7771 C 718.448 1.1734 -1.55745 0
M  V30 7772 O 717.718 1.79262 -0.790058 0
M  V30 7773 H 716.298 -0.0829845 -0.742376 0
M  V30 7774 H 718.96 -0.902289 -1.72756 0
M  V30 7775 H 718.056 -0.253521 -3.11069 0
M  V30 7776 N 718.357 1.51182 -0.445186 0
M  V30 7777 C 719.603 2.02452 0.11882 0
M  V30 7778 C 719.936 1.32824 1.41673 0
M  V30 7779 O 719.211 0.445637 1.89326 0
M  V30 7780 C 719.494 3.5859 0.329475 0
M  V30 7781 C 719.347 4.38823 -0.987638 0
M  V30 7782 C 720.666 4.26241 1.09575 0
M  V30 7783 H 717.785 0.735819 0.0417092 0
M  V30 7784 H 720.427 1.80747 -0.585718 0
M  V30 7785 H 718.577 3.77214 0.9296 0
M  V30 7786 H 720.249 4.3183 -1.62235 0
M  V30 7787 H 718.492 4.03594 -1.59041 0
M  V30 7788 H 719.163 5.46257 -0.794192 0
M  V30 7789 H 721.639 4.11934 0.587328 0
M  V30 7790 H 720.515 5.35354 1.21191 0
M  V30 7791 H 720.776 3.87635 2.12584 0
M  V30 7792 N 719.835 0.176821 1.56605 0
M  V30 7793 C 720.782 -0.751312 2.18229 0
M  V30 7794 C 721.752 -1.22297 1.12395 0
M  V30 7795 O 722.937 -1.29015 1.40569 0
M  V30 7796 C 720.077 -1.97291 2.83143 0
M  V30 7797 C 719.19 -1.54431 4.03454 0
M  V30 7798 C 718.325 -2.72 4.56278 0
M  V30 7799 C 717.364 -2.25657 5.68986 0
M  V30 7800 N 716.501 -3.36338 6.16296 0
M  V30 7801 H 721.341 -0.219033 2.97194 0
M  V30 7802 H 718.878 -0.0963803 1.46784 0
M  V30 7803 H 720.836 -2.68949 3.1894 0
M  V30 7804 H 719.466 -2.4788 2.06773 0
M  V30 7805 H 718.518 -0.724273 3.73441 0
M  V30 7806 H 719.83 -1.16417 4.85024 0
M  V30 7807 H 718.984 -3.51806 4.94285 0
M  V30 7808 H 717.723 -3.13277 3.73777 0
M  V30 7809 H 716.728 -1.44299 5.30526 0
M  V30 7810 H 717.953 -1.85432 6.53293 0
M  V30 7811 H 715.899 -3.7718 5.36723 0
M  V30 7812 H 715.816 -3.02435 6.9287 0
M  V30 7813 H 717.084 -4.16413 6.58954 0
M  V30 7814 N 721.313 -1.57302 -0.09688 0
M  V30 7815 C 722.559 -1.86273 -0.801885 0
M  V30 7816 C 722.892 -0.765694 -1.78468 0
M  V30 7817 O 722.167 0.226495 -1.93177 0
M  V30 7818 C 722.45 -3.25876 -1.53221 0
M  V30 7819 C 722.303 -4.46205 -0.567529 0
M  V30 7820 C 723.622 -3.63352 -2.48321 0
M  V30 7821 H 720.741 -0.67752 -0.29006 0
M  V30 7822 H 723.383 -1.89887 -0.0655577 0
M  V30 7823 H 721.533 -3.22926 -2.15988 0
M  V30 7824 H 723.205 -4.6127 0.0529982 0
M  V30 7825 H 721.448 -4.33636 0.119233 0
M  V30 7826 H 722.119 -5.40608 -1.11564 0
M  V30 7827 H 724.595 -3.67234 -1.95648 0
M  V30 7828 H 723.471 -4.61968 -2.9644 0
M  V30 7829 H 723.732 -2.91941 -3.31998 0
M  V30 7830 N 722.791 0.367657 -1.53252 0
M  V30 7831 C 724.068 1.12606 -1.59935 0
M  V30 7832 C 724.448 2.07167 -0.405606 0
M  V30 7833 O 723.796 2.20364 0.604323 0
M  V30 7834 C 724.006 1.86699 -2.94863 0
M  V30 7835 C 725.354 2.41306 -3.49366 0
M  V30 7836 O 726.378 1.96828 -2.96879 0
M  V30 7837 O 725.237 3.2261 -4.41118 0
M  V30 7838 H 722.331 0.516438 -0.645926 0
M  V30 7839 H 724.877 0.371088 -1.65593 0
M  V30 7840 H 723.649 1.17674 -3.73187 0
M  V30 7841 H 723.272 2.6911 -2.92687 0
M  V30 7842 N 724.269 1.44576 0.627338 0
M  V30 7843 C 725.199 1.54562 1.75022 0
M  V30 7844 C 726.18 0.398378 1.65369 0
M  V30 7845 O 727.365 0.61899 1.84071 0
M  V30 7846 C 724.495 1.49309 3.13567 0
M  V30 7847 C 723.449 2.62549 3.38012 0
M  V30 7848 C 722.775 2.42348 4.76625 0
M  V30 7849 C 724.075 4.04678 3.30202 0
M  V30 7850 H 725.769 2.4855 1.66922 0
M  V30 7851 H 723.315 1.19624 0.801636 0
M  V30 7852 H 725.268 1.54895 3.919 0
M  V30 7853 H 723.992 0.518392 3.2246 0
M  V30 7854 H 722.651 2.56358 2.62061 0
M  V30 7855 H 722.299 1.43062 4.82226 0
M  V30 7856 H 721.999 3.18273 4.93939 0
M  V30 7857 H 723.523 2.49758 5.57183 0
M  V30 7858 H 724.937 4.12217 3.98435 0
M  V30 7859 H 723.334 4.80836 3.5905 0
M  V30 7860 H 724.404 4.2798 2.27949 0
M  V30 7861 N 725.747 -0.868086 1.31537 0
M  V30 7862 C 726.975 -1.65402 1.24298 0
M  V30 7863 C 727.39 -1.87827 -0.191389 0
M  V30 7864 O 726.747 -1.43776 -1.12404 0
M  V30 7865 C 726.798 -3.02093 1.9855 0
M  V30 7866 O 726.519 -2.80668 3.36388 0
M  V30 7867 C 728.02 -3.96538 1.98173 0
M  V30 7868 H 725.24 -0.515598 0.429417 0
M  V30 7869 H 727.784 -1.0834 1.73444 0
M  V30 7870 H 725.939 -3.55838 1.53161 0
M  V30 7871 H 726.353 -3.67504 3.74221 0
M  V30 7872 H 727.827 -4.8976 2.54635 0
M  V30 7873 H 728.304 -4.28474 0.964697 0
M  V30 7874 H 728.91 -3.48729 2.4345 0
M  V30 7875 N 727.225 -1.14528 -1.08264 0
M  V30 7876 C 728.636 -0.925261 -1.6216 0
M  V30 7877 C 728.987 0.535587 -1.88748 0
M  V30 7878 O 728.112 1.4048 -1.64604 0
M  V30 7879 C 728.707 -1.67316 -2.94603 0
M  V30 7880 C 727.266 -1.49868 -3.45278 0
M  V30 7881 C 726.413 -1.69471 -2.19487 0
M  V30 7882 H 729.364 -1.29687 -0.914707 0
M  V30 7883 H 729.385 -1.13721 -3.63109 0
M  V30 7884 H 728.897 -2.73635 -2.75219 0
M  V30 7885 H 726.998 -0.459032 -3.69762 0
M  V30 7886 H 727.111 -2.2696 -4.21931 0
M  V30 7887 H 725.475 -1.12048 -2.2873 0
M  V30 7888 H 726.258 -2.77136 -2.0261 0
M  V30 7889 N 728.703 1.26451 -0.940633 0
M  V30 7890 C 729.952 1.93071 -0.583656 0
M  V30 7891 C 730.265 1.74618 0.881366 0
M  V30 7892 O 731.471 2.35689 1.34769 0
M  V30 7893 C 729.927 3.45927 -0.993106 0
M  V30 7894 C 729.535 3.73115 -2.4797 0
M  V30 7895 C 731.279 4.18554 -0.707998 0
M  V30 7896 C 729.186 5.19408 -2.82788 0
M  V30 7897 H 728.116 0.722824 -0.214572 0
M  V30 7898 H 730.767 1.43538 -1.1432 0
M  V30 7899 H 729.149 3.94341 -0.362099 0
M  V30 7900 H 730.323 3.35408 -3.15971 0
M  V30 7901 H 728.638 3.13719 -2.73805 0
M  V30 7902 H 731.235 5.26293 -0.94447 0
M  V30 7903 H 731.578 4.14782 0.355225 0
M  V30 7904 H 732.111 3.76003 -1.2987 0
M  V30 7905 H 728.85 5.28281 -3.88071 0
M  V30 7906 H 728.37 5.58214 -2.19449 0
M  V30 7907 H 730.049 5.87407 -2.71224 0
M  V30 7908 N 730.181 0.707592 1.40822 0
M  V30 7909 C 731.411 0.252706 2.05049 0
M  V30 7910 C 731.819 -1.10758 1.53393 0
M  V30 7911 O 731.162 -1.70567 0.682097 0
M  V30 7912 C 731.224 0.146001 3.59203 0
M  V30 7913 C 730.888 1.44027 4.33711 0
M  V30 7914 C 731.885 2.38058 4.62195 0
M  V30 7915 C 729.57 1.69698 4.72766 0
M  V30 7916 C 731.564 3.56013 5.28709 0
M  V30 7917 C 729.251 2.87936 5.39014 0
M  V30 7918 C 730.249 3.80915 5.66915 0
M  V30 7919 O 729.937 4.9708 6.31796 0
M  V30 7920 H 729.669 0.112784 0.666525 0
M  V30 7921 H 732.223 0.96417 1.81364 0
M  V30 7922 H 730.453 -0.621338 3.81676 0
M  V30 7923 H 732.142 -0.273275 4.04979 0
M  V30 7924 H 732.908 2.19487 4.32493 0
M  V30 7925 H 728.787 0.981835 4.50423 0
M  V30 7926 H 732.331 4.28604 5.50404 0
M  V30 7927 H 728.228 3.06419 5.68135 0
M  V30 7928 H 728.996 4.97053 6.50293 0
M  V30 7929 N 731.66 -1.50943 0.453197 0
M  V30 7930 C 732.908 -2.01813 -0.107709 0
M  V30 7931 C 733.229 -1.33841 -1.41816 0
M  V30 7932 O 732.499 -0.477973 -1.8998 0
M  V30 7933 H 731.079 -0.745773 -0.0427948 0
M  V30 7934 H 733.741 -1.8545 0.599531 0
M  V30 7935 H 732.837 -3.10911 -0.27218 0
M  V30 7936 N 733.138 -0.185124 -1.56509 0
M  V30 7937 C 734.068 0.735098 -2.21627 0
M  V30 7938 C 735.049 1.2288 -1.1762 0
M  V30 7939 O 736.234 1.27945 -1.46095 0
M  V30 7940 C 733.364 1.95889 -2.86783 0
M  V30 7941 C 732.318 1.6005 -3.96948 0
M  V30 7942 C 731.644 2.90009 -4.4922 0
M  V30 7943 C 732.944 0.818008 -5.15855 0
M  V30 7944 H 734.638 0.192274 -2.98782 0
M  V30 7945 H 732.184 0.0910393 -1.43712 0
M  V30 7946 H 734.137 2.60779 -3.31017 0
M  V30 7947 H 732.861 2.52608 -2.07018 0
M  V30 7948 H 731.52 0.975237 -3.5339 0
M  V30 7949 H 731.168 3.44797 -3.6623 0
M  V30 7950 H 730.868 2.66778 -5.23549 0
M  V30 7951 H 732.392 3.55904 -4.9615 0
M  V30 7952 H 733.806 1.36979 -5.56695 0
M  V30 7953 H 732.203 0.684207 -5.96187 0
M  V30 7954 H 733.273 -0.182939 -4.84555 0
M  V30 7955 N 734.616 1.57351 0.0885366 0
M  V30 7956 C 735.844 1.90631 0.804196 0
M  V30 7957 C 736.259 0.779474 1.71958 0
M  V30 7958 O 735.616 -0.248179 1.80805 0
M  V30 7959 C 735.667 3.23568 1.61202 0
M  V30 7960 O 735.388 4.31917 0.733447 0
M  V30 7961 C 736.889 3.70753 2.43016 0
M  V30 7962 H 734.109 0.630501 0.229585 0
M  V30 7963 H 736.653 2.044 0.0638092 0
M  V30 7964 H 734.808 3.11377 2.30485 0
M  V30 7965 H 735.222 5.08297 1.29361 0
M  V30 7966 H 736.696 4.66447 2.9518 0
M  V30 7967 H 737.173 2.98922 3.2178 0
M  V30 7968 H 737.779 3.85834 1.7892 0
M  V30 7969 N 736.094 -0.359525 1.53444 0
M  V30 7970 C 737.027 -1.46338 1.75101 0
M  V30 7971 C 738.005 -1.51142 0.599559 0
M  V30 7972 O 739.189 -1.69102 0.832862 0
M  V30 7973 C 736.316 -2.84667 1.83527 0
M  V30 7974 C 735.362 -2.9756 3.05549 0
M  V30 7975 S 736.195 -2.65685 4.64943 0
M  V30 7976 C 737.351 -4.06153 4.76225 0
M  V30 7977 H 737.584 -1.27747 2.68455 0
M  V30 7978 H 735.117 -0.554231 1.4411 0
M  V30 7979 H 737.075 -3.64368 1.89067 0
M  V30 7980 H 735.736 -3.00564 0.912147 0
M  V30 7981 H 734.929 -3.98883 3.08072 0
M  V30 7982 H 734.531 -2.25789 2.98153 0
M  V30 7983 H 736.823 -5.00475 4.56652 0
M  V30 7984 H 737.766 -4.08632 5.78295 0
M  V30 7985 H 738.174 -3.93435 4.04808 0
M  V30 7986 N 737.572 -1.44907 -0.619662 0
M  V30 7987 C 738.519 -1.52654 -1.73105 0
M  V30 7988 C 739.489 -0.373334 -1.6185 0
M  V30 7989 O 740.674 -0.585143 -1.81606 0
M  V30 7990 C 737.814 -1.48769 -3.11387 0
M  V30 7991 C 736.927 -2.74551 -3.33535 0
M  V30 7992 C 736.062 -2.62421 -4.61854 0
M  V30 7993 C 735.101 -3.83312 -4.77219 0
M  V30 7994 N 734.238 -3.69789 -5.96826 0
M  V30 7995 H 739.078 -2.47605 -1.65819 0
M  V30 7996 H 736.615 -1.22875 -0.808719 0
M  V30 7997 H 738.573 -1.44507 -3.91374 0
M  V30 7998 H 737.203 -0.573783 -3.1766 0
M  V30 7999 H 736.255 -2.88953 -2.47408 0
M  V30 8000 H 737.567 -3.64253 -3.40765 0
M  V30 8001 H 736.721 -2.56056 -5.50019 0
M  V30 8002 H 735.46 -1.70298 -4.57001 0
M  V30 8003 H 734.465 -3.90049 -3.87481 0
M  V30 8004 H 735.69 -4.76486 -4.83878 0
M  V30 8005 H 733.636 -2.80426 -5.93041 0
M  V30 8006 H 733.553 -4.53116 -6.05163 0
M  V30 8007 H 734.821 -3.67335 -6.87521 0
M  V30 8008 N 739.05 0.861098 -1.31996 0
M  V30 8009 C 740 1.95703 -1.1698 0
M  V30 8010 C 740.984 1.60709 -0.0784201 0
M  V30 8011 O 742.176 1.74365 -0.304262 0
M  V30 8012 C 739.305 3.31606 -0.888388 0
M  V30 8013 C 738.391 3.7284 -2.02117 0
M  V30 8014 N 738.782 3.85957 -3.26911 0
M  V30 8015 C 737.08 4.02419 -1.92289 0
M  V30 8016 C 737.781 4.21333 -4.01065 0
M  V30 8017 N 736.757 4.32502 -3.29307 0
M  V30 8018 H 740.559 2.03968 -2.11599 0
M  V30 8019 H 738.073 1.05245 -1.23682 0
M  V30 8020 H 740.07 4.09881 -0.761782 0
M  V30 8021 H 738.73 3.24662 0.0494898 0
M  V30 8022 H 739.741 3.70449 -3.61923 0
M  V30 8023 H 736.418 4.03814 -1.06022 0
M  V30 8024 H 737.808 4.39005 -5.08649 0
M  V30 8025 N 740.528 1.15101 1.07655 0
M  V30 8026 C 741.491 0.847625 2.12951 0
M  V30 8027 C 742.491 -0.151227 1.60087 0
M  V30 8028 O 743.681 0.0780399 1.74025 0
M  V30 8029 C 740.813 0.265 3.39868 0
M  V30 8030 H 742.006 1.7809 2.41296 0
M  V30 8031 H 739.559 0.958072 1.23494 0
M  V30 8032 H 740.294 -0.676625 3.17163 0
M  V30 8033 H 740.079 0.984554 3.79538 0
M  V30 8034 H 741.569 0.0702121 4.17541 0
M  V30 8035 N 742.006 -1.2595 0.947325 0
M  V30 8036 C 743.422 -1.45737 0.650597 0
M  V30 8037 C 743.622 -1.85189 -0.794188 0
M  V30 8038 O 742.678 -1.97738 -1.57022 0
M  V30 8039 C 743.991 -2.53505 1.61728 0
M  V30 8040 C 745.539 -2.67351 1.62765 0
M  V30 8041 C 746.014 -3.78296 2.58179 0
M  V30 8042 N 747.505 -3.85696 2.56501 0
M  V30 8043 C 748.24 -4.71012 3.2701 0
M  V30 8044 N 747.736 -5.60669 4.06966 0
M  V30 8045 N 749.529 -4.64912 3.15932 0
M  V30 8046 H 741.68 -0.986327 1.8811 0
M  V30 8047 H 743.943 -0.494639 0.808725 0
M  V30 8048 H 743.649 -2.31357 2.6489 0
M  V30 8049 H 743.523 -3.51281 1.3741 0
M  V30 8050 H 745.91 -2.88869 0.603241 0
M  V30 8051 H 745.991 -1.69998 1.91139 0
M  V30 8052 H 745.635 -3.5753 3.60742 0
M  V30 8053 H 745.565 -4.75117 2.27093 0
M  V30 8054 H 748.056 -3.21601 1.98447 0
M  V30 8055 H 748.369 -6.22677 4.57704 0
M  V30 8056 H 746.714 -5.60402 4.11066 0
M  V30 8057 H 749.905 -3.93874 2.52945 0
M  V30 8058 H 750.078 -5.3118 3.71149 0
M  V30 8059 N 743.484 -0.715051 -1.40445 0
M  V30 8060 C 744.724 -0.258742 -2.02756 0
M  V30 8061 C 745.088 1.12661 -1.55472 0
M  V30 8062 O 746.289 1.67988 -2.09842 0
M  V30 8063 C 744.56 -0.335201 -3.55825 0
M  V30 8064 S 746.119 0.044201 -4.38778 0
M  V30 8065 H 742.937 -0.102683 -0.703546 0
M  V30 8066 H 745.539 -0.937151 -1.71574 0
M  V30 8067 H 744.243 -1.34511 -3.87731 0
M  V30 8068 H 743.774 0.361705 -3.91734 0
M  V30 8069 H 745.789 1.26639 -4.79768 0
M  V30 8070 N 744.962 1.50701 -0.461195 0
M  V30 8071 C 745.872 2.32069 0.343661 0
M  V30 8072 C 746.888 1.42016 1.00535 0
M  V30 8073 O 748.064 1.75077 0.995498 0
M  V30 8074 C 745.129 3.16424 1.41692 0
M  V30 8075 C 744.19 4.22286 0.772869 0
M  V30 8076 C 743.423 5.02609 1.79499 0
M  V30 8077 O 743.646 4.83874 3.0203 0
M  V30 8078 O 742.58 5.86047 1.3723 0
M  V30 8079 H 746.406 3.01996 -0.321268 0
M  V30 8080 H 743.991 1.47723 -0.223235 0
M  V30 8081 H 745.873 3.68795 2.03883 0
M  V30 8082 H 744.548 2.49236 2.0655 0
M  V30 8083 H 743.455 3.73931 0.112277 0
M  V30 8084 H 744.788 4.91915 0.167399 0
M  V30 8085 N 746.441 0.193421 1.56409 0
M  V30 8086 C 747.391 -0.74089 2.15627 0
M  V30 8087 C 748.375 -1.17747 1.09656 0
M  V30 8088 O 749.567 -1.13615 1.35723 0
M  V30 8089 C 746.696 -1.96091 2.81786 0
M  V30 8090 C 745.782 -1.54531 3.94944 0
M  V30 8091 N 746.173 -0.840569 4.98767 0
M  V30 8092 C 744.471 -1.83473 4.06514 0
M  V30 8093 C 745.172 -0.632571 5.7825 0
M  V30 8094 N 744.148 -1.18078 5.30621 0
M  V30 8095 H 747.95 -0.193718 2.93261 0
M  V30 8096 H 745.464 -0.00643211 1.62399 0
M  V30 8097 H 747.461 -2.64071 3.22602 0
M  V30 8098 H 746.121 -2.51282 2.05639 0
M  V30 8099 H 747.132 -0.496218 5.15517 0
M  V30 8100 H 743.809 -2.40184 3.41493 0
M  V30 8101 H 745.199 -0.0736433 6.7186 0
M  V30 8102 N 747.919 -1.57396 -0.0801906 0
M  V30 8103 C 749.165 -1.87113 -0.782083 0
M  V30 8104 C 749.498 -0.78458 -1.77646 0
M  V30 8105 O 748.773 0.205993 -1.93406 0
M  V30 8106 C 749.056 -3.27483 -1.49756 0
M  V30 8107 C 748.909 -4.46782 -0.520171 0
M  V30 8108 C 750.228 -3.65965 -2.44454 0
M  V30 8109 H 747.347 -0.680559 -0.282858 0
M  V30 8110 H 749.989 -1.89946 -0.0454139 0
M  V30 8111 H 748.139 -3.25199 -2.12551 0
M  V30 8112 H 749.811 -4.61187 0.101919 0
M  V30 8113 H 748.054 -4.33485 0.165219 0
M  V30 8114 H 748.725 -5.41761 -1.05824 0
M  V30 8115 H 751.201 -3.69289 -1.91742 0
M  V30 8116 H 750.077 -4.65086 -2.91524 0
M  V30 8117 H 750.338 -2.95446 -3.28883 0
M  V30 8118 N 749.397 0.351382 -1.53633 0
M  V30 8119 C 750.329 1.45159 -1.77374 0
M  V30 8120 C 751.342 1.4905 -0.654826 0
M  V30 8121 O 752.531 1.52274 -0.931396 0
M  V30 8122 C 749.631 2.83858 -1.85143 0
M  V30 8123 C 748.804 3.03498 -3.14972 0
M  V30 8124 C 747.863 4.22393 -3.138 0
M  V30 8125 O 746.889 4.16885 -3.87551 0
M  V30 8126 N 748.091 5.30533 -2.35617 0
M  V30 8127 H 750.856 1.25167 -2.72311 0
M  V30 8128 H 748.417 0.54121 -1.52586 0
M  V30 8129 H 750.409 3.61557 -1.8182 0
M  V30 8130 H 748.979 2.9703 -0.974275 0
M  V30 8131 H 748.199 2.13336 -3.31484 0
M  V30 8132 H 749.487 3.13498 -4.00745 0
M  V30 8133 H 748.885 5.37875 -1.75235 0
M  V30 8134 H 747.442 6.06756 -2.38098 0
M  V30 8135 N 750.875 1.45233 0.611969 0
M  V30 8136 C 751.838 1.53189 1.70487 0
M  V30 8137 C 752.838 0.411839 1.55437 0
M  V30 8138 O 754.028 0.675164 1.60584 0
M  V30 8139 C 751.16 1.42422 3.09723 0
M  V30 8140 H 752.353 2.5056 1.64802 0
M  V30 8141 H 749.906 1.32609 0.827318 0
M  V30 8142 H 750.641 0.462185 3.2099 0
M  V30 8143 H 750.426 2.23658 3.22055 0
M  V30 8144 H 751.916 1.51012 3.89339 0
M  V30 8145 N 752.353 -0.854086 1.3245 0
M  V30 8146 C 753.769 -1.14238 1.11453 0
M  V30 8147 C 753.969 -2.01228 -0.10461 0
M  V30 8148 O 753.025 -2.39845 -0.789339 0
M  V30 8149 C 754.338 -1.81916 2.39431 0
M  V30 8150 C 755.886 -1.94549 2.45193 0
M  V30 8151 C 756.361 -2.65642 3.73093 0
M  V30 8152 N 757.852 -2.73167 3.74078 0
M  V30 8153 C 758.587 -3.28828 4.69744 0
M  V30 8154 N 758.083 -3.85295 5.75778 0
M  V30 8155 N 759.876 -3.26936 4.57241 0
M  V30 8156 H 752.027 -0.274786 2.10615 0
M  V30 8157 H 754.29 -0.184375 0.929898 0
M  V30 8158 H 753.996 -1.25452 3.28565 0
M  V30 8159 H 753.87 -2.82068 2.50434 0
M  V30 8160 H 756.257 -2.50172 1.56518 0
M  V30 8161 H 756.338 -0.933914 2.38142 0
M  V30 8162 H 755.982 -2.10683 4.62142 0
M  V30 8163 H 755.912 -3.6724 3.77415 0
M  V30 8164 H 758.403 -2.33108 2.97438 0
M  V30 8165 H 758.716 -4.25925 6.44832 0
M  V30 8166 H 757.061 -3.83625 5.79531 0
M  V30 8167 H 760.252 -2.8207 3.7357 0
M  V30 8168 H 760.425 -3.70014 5.31971 0
M  V30 8169 N 753.831 -1.1567 -1.07043 0
M  V30 8170 C 755.247 -0.900006 -1.31803 0
M  V30 8171 C 755.447 0.451293 -1.96381 0
M  V30 8172 O 754.503 1.19252 -2.22565 0
M  V30 8173 C 755.816 -2.04334 -2.20609 0
M  V30 8174 C 757.364 -2.07823 -2.34048 0
M  V30 8175 C 757.839 -3.21488 -3.26204 0
M  V30 8176 N 759.33 -3.21156 -3.33786 0
M  V30 8177 C 760.065 -4.05746 -4.05163 0
M  V30 8178 N 759.561 -5.00407 -4.79129 0
M  V30 8179 N 761.354 -3.93759 -4.01136 0
M  V30 8180 H 753.505 -2.02681 -0.635146 0
M  V30 8181 H 755.768 -0.883956 -0.342528 0
M  V30 8182 H 755.474 -3.01895 -1.80423 0
M  V30 8183 H 755.348 -1.97838 -3.21154 0
M  V30 8184 H 757.735 -1.1086 -2.73485 0
M  V30 8185 H 757.816 -2.18386 -1.33197 0
M  V30 8186 H 757.46 -4.18706 -2.87485 0
M  V30 8187 H 757.39 -3.08162 -4.27017 0
M  V30 8188 H 759.881 -2.52606 -2.81067 0
M  V30 8189 H 760.194 -5.61387 -5.31097 0
M  V30 8190 H 758.539 -5.04393 -4.78135 0
M  V30 8191 H 761.73 -3.19115 -3.42466 0
M  V30 8192 H 761.903 -4.59906 -4.56498 0
M  V30 8193 N 755.309 1.25446 -0.953992 0
M  V30 8194 C 756.556 1.93143 -0.608429 0
M  V30 8195 C 756.884 1.74727 0.854451 0
M  V30 8196 O 756.139 1.0855 1.62836 0
M  V30 8197 C 756.438 3.45555 -0.912496 0
M  V30 8198 C 756.104 3.84126 -2.36131 0
M  V30 8199 C 754.766 3.94367 -2.75732 0
M  V30 8200 C 757.118 4.0324 -3.30223 0
M  V30 8201 C 754.446 4.21127 -4.08496 0
M  V30 8202 C 756.798 4.31493 -4.62598 0
M  V30 8203 C 755.462 4.3995 -5.01996 0
M  V30 8204 H 754.732 0.706762 -0.22264 0
M  V30 8205 H 757.379 1.49005 -1.20291 0
M  V30 8206 H 755.684 3.91091 -0.235618 0
M  V30 8207 H 757.381 3.9612 -0.623714 0
M  V30 8208 H 753.971 3.76711 -2.04418 0
M  V30 8209 H 758.155 3.94744 -3.00817 0
M  V30 8210 H 753.411 4.2589 -4.38665 0
M  V30 8211 H 757.585 4.45227 -5.35486 0
M  V30 8212 H 755.212 4.60439 -6.04896 0
M  V30 8213 N 756.787 0.722489 1.40064 0
M  V30 8214 C 758.012 0.273446 2.05589 0
M  V30 8215 C 758.437 -1.07875 1.54093 0
M  V30 8216 O 757.795 -1.68095 0.679252 0
M  V30 8217 C 757.843 0.271023 3.5958 0
M  V30 8218 O 756.947 -0.745499 4.05606 0
M  V30 8219 H 756.288 0.126856 0.65177 0
M  V30 8220 H 758.818 0.984906 1.79334 0
M  V30 8221 H 758.828 0.111084 4.07849 0
M  V30 8222 H 757.503 1.25776 3.96425 0
M  V30 8223 H 756.08 -0.552719 3.68781 0
M  V30 8224 N 758.265 -1.50454 0.469181 0
M  V30 8225 C 759.514 -2.01507 -0.0881425 0
M  V30 8226 C 759.827 -1.35613 -1.40956 0
M  V30 8227 O 761.033 -1.77812 -2.05171 0
M  V30 8228 C 759.489 -3.59301 -0.207596 0
M  V30 8229 C 759.097 -4.34152 1.10527 0
M  V30 8230 C 760.841 -4.18401 -0.716981 0
M  V30 8231 C 758.748 -5.83725 0.949717 0
M  V30 8232 H 757.678 -0.753106 -0.0367156 0
M  V30 8233 H 760.329 -1.73282 0.603788 0
M  V30 8234 H 758.711 -3.84106 -0.963265 0
M  V30 8235 H 759.885 -4.21073 1.87175 0
M  V30 8236 H 758.2 -3.86652 1.54562 0
M  V30 8237 H 760.797 -5.27895 -0.850363 0
M  V30 8238 H 761.14 -3.79657 -1.70782 0
M  V30 8239 H 761.673 -3.97796 -0.0187511 0
M  V30 8240 H 758.412 -6.26938 1.91387 0
M  V30 8241 H 757.932 -5.99383 0.223591 0
M  V30 8242 H 759.611 -6.44065 0.61557 0
M  V30 8243 N 759.743 -0.201713 -1.56304 0
M  V30 8244 C 760.691 0.733133 -2.20744 0
M  V30 8245 C 761.685 1.2148 -1.18064 0
M  V30 8246 O 762.891 1.17692 -1.36193 0
M  V30 8247 H 759.266 0.254789 -0.707521 0
M  V30 8248 H 761.237 0.165996 -2.97938 0
M  V30 8249 C 759.986 1.93925 -2.88597 0
M  V30 8250 H 759.309 1.5777 -3.67353 0
M  V30 8251 H 760.749 2.57158 -3.37114 0
M  V30 8252 C 759.208 2.78219 -1.89989 0
M  V30 8253 O 759.738 3.76353 -1.40432 0
M  V30 8254 N 757.944 2.43847 -1.58072 0
M  V30 8255 H 757.491 1.64103 -1.98565 0
M  V30 8256 H 757.449 3.0053 -0.923524 0
M  V30 8257 O 761.26 1.6137 -0.064807 0
M  V30 8258 H 761.951 1.85948 0.542485 0
M  V30 END ATOM
M  V30 BEGIN BOND
M  V30 END BOND
M  V30 END CTAB
M  END
$$$$
