drugbank_target|P05109 Protein S100-A8 (DB01373; DB01593; DB09130; DB14487; DB14533; DB14548)
 OpenBabel12092121053D

  0  0  0     0  0            999 V3000
M  V30 BEGIN CTAB
M  V30 COUNTS 1537 1552 0 0 0
M  V30 BEGIN ATOM
M  V30 1 H -0.908 1.98254 -0.117106 0
M  V30 2 N 0 1.576 0 0
M  V30 3 C 0.933 2.03868 1.02534 0
M  V30 4 C 1.911 0.928543 1.3348 0
M  V30 5 O 3.095 1.19667 1.45644 0
M  V30 6 C 0.222 2.43627 2.35294 0
M  V30 7 C -0.732 3.65373 2.2001 0
M  V30 8 S 0.101 5.13292 1.52614 0
M  V30 9 C 1.257 5.56322 2.86805 0
M  V30 10 H 1.49 2.90518 0.631377 0
M  V30 11 H -0.977 1.52953 0.210867 0
M  V30 12 H 0.981 2.67203 3.11629 0
M  V30 13 H -0.358 1.57376 2.7183 0
M  V30 14 H -1.165 3.90944 3.18086 0
M  V30 15 H -1.563 3.418 1.51819 0
M  V30 16 H 0.729 5.58782 3.83104 0
M  V30 17 H 1.672 6.56266 2.65933 0
M  V30 18 H 2.08 4.83886 2.90714 0
M  V30 19 N 1.4781 -0.272755 1.55222 0
M  V30 20 C 2.4081 -1.34136 1.91127 0
M  V30 21 C 3.3891 -1.51513 0.773168 0
M  V30 22 O 4.5741 -1.64552 1.03132 0
M  V30 23 C 1.7041 -2.70083 2.1834 0
M  V30 24 C 0.6581 -2.67437 3.34158 0
M  V30 25 C -0.0159 -4.06938 3.46851 0
M  V30 26 C 1.2841 -2.26686 4.70543 0
M  V30 27 H 2.9781 -1.04333 2.80633 0
M  V30 28 H 0.5241 -0.500454 1.35024 0
M  V30 29 H 2.4771 -3.44952 2.42046 0
M  V30 30 H 1.2011 -3.01469 1.25634 0
M  V30 31 H -0.1399 -1.95026 3.1042 0
M  V30 32 H -0.4919 -4.35547 2.51611 0
M  V30 33 H -0.7919 -4.06062 4.2472 0
M  V30 34 H 0.7321 -4.83545 3.72849 0
M  V30 35 H 2.1461 -2.91277 4.93792 0
M  V30 36 H 0.5431 -2.36971 5.5133 0
M  V30 37 H 1.6131 -1.21818 4.69349 0
M  V30 38 N 2.9562 -1.48159 -0.537278 0
M  V30 39 C 4.1842 -1.59454 -1.31841 0
M  V30 40 C 4.5992 -0.252065 -1.8711 0
M  V30 41 O 3.9562 0.757621 -1.66031 0
M  V30 42 C 4.0072 -2.63546 -2.47439 0
M  V30 43 O 3.7282 -3.92583 -1.94449 0
M  V30 44 C 5.2292 -2.85212 -3.39366 0
M  V30 45 H 2.4492 -0.53785 -0.401196 0
M  V30 46 H 4.9932 -1.93932 -0.648891 0
M  V30 47 H 3.1482 -2.31946 -3.1029 0
M  V30 48 H 3.5622 -4.49629 -2.70063 0
M  V30 49 H 5.0362 -3.61863 -4.16844 0
M  V30 50 H 5.5132 -1.93765 -3.94147 0
M  V30 51 H 6.1192 -3.18086 -2.82314 0
M  V30 52 N 4.4343 0.785586 -1.36625 0
M  V30 53 C 5.3443 1.92964 -1.33425 0
M  V30 54 C 6.3603 1.72394 -0.235851 0
M  V30 55 O 7.5363 1.95866 -0.468878 0
M  V30 56 C 4.6013 3.27884 -1.12662 0
M  V30 57 C 3.6623 3.61204 -2.32013 0
M  V30 58 C 2.8953 4.89687 -2.12231 0
M  V30 59 O 3.1183 5.59704 -1.09945 0
M  V30 60 O 2.0523 5.21752 -3.00098 0
M  V30 61 H 5.8783 1.98613 -2.29753 0
M  V30 62 H 3.4633 0.926384 -1.17211 0
M  V30 63 H 5.3453 4.08614 -1.03016 0
M  V30 64 H 4.0203 3.23118 -0.193991 0
M  V30 65 H 2.9273 2.80765 -2.47228 0
M  V30 66 H 4.2603 3.70698 -3.23796 0
M  V30 67 N 5.9124 1.20967 1.01018 0
M  V30 68 C 6.8424 0.988272 2.11555 0
M  V30 69 C 7.8234 -0.0849778 1.69888 0
M  V30 70 O 9.0084 0.0738202 1.9406 0
M  V30 71 C 6.1384 0.546528 3.42973 0
M  V30 72 C 5.0924 1.56375 3.9841 0
M  V30 73 C 4.4184 0.97842 5.25672 0
M  V30 74 C 5.7184 2.94922 4.31066 0
M  V30 75 H 7.4124 1.91276 2.30334 0
M  V30 76 H 4.9584 0.921073 1.1069 0
M  V30 77 H 6.9114 0.378839 4.19694 0
M  V30 78 H 5.6354 -0.413598 3.23971 0
M  V30 79 H 4.2944 1.71891 3.23804 0
M  V30 80 H 3.9424 0.0101688 5.02999 0
M  V30 81 H 3.6424 1.65784 5.63728 0
M  V30 82 H 5.1664 0.821939 6.05043 0
M  V30 83 H 6.5804 2.8288 4.9865 0
M  V30 84 H 4.9774 3.5983 4.80253 0
M  V30 85 H 6.0474 3.4616 3.39561 0
M  V30 86 N 7.3905 -1.2043 1.01659 0
M  V30 87 C 8.3005 -2.2689 0.596484 0
M  V30 88 C 9.3165 -1.70107 -0.36599 0
M  V30 89 O 10.4925 -2.00117 -0.226942 0
M  V30 90 C 7.5575 -3.4665 -0.0586659 0
M  V30 91 C 6.6185 -4.18662 0.949751 0
M  V30 92 C 5.8515 -5.32705 0.32577 0
M  V30 93 O 6.0745 -5.63656 -0.874509 0
M  V30 94 O 5.0085 -5.92803 1.04249 0
M  V30 95 H 8.8345 -2.65041 1.4828 0
M  V30 96 H 6.4195 -1.27048 0.786082 0
M  V30 97 H 8.3015 -4.19256 -0.424564 0
M  V30 98 H 6.9765 -3.10375 -0.91918 0
M  V30 99 H 5.8835 -3.48229 1.36702 0
M  V30 100 H 7.2165 -4.58878 1.78023 0
M  V30 101 N 8.8686 -0.792821 -1.36206 0
M  V30 102 C 9.8156 -0.191653 -2.30003 0
M  V30 103 C 10.7856 0.666453 -1.52143 0
M  V30 104 O 11.9706 0.61442 -1.80636 0
M  V30 105 C 9.1106 0.664848 -3.38635 0
M  V30 106 C 8.2236 -0.212175 -4.31479 0
M  V30 107 C 7.3586 0.651022 -5.27196 0
M  V30 108 C 6.3976 -0.227247 -6.11678 0
M  V30 109 N 5.5346 0.595127 -6.99573 0
M  V30 110 H 10.3746 -0.996978 -2.80828 0
M  V30 111 H 7.9116 -0.503206 -1.38225 0
M  V30 112 H 9.8696 1.17645 -4.00269 0
M  V30 113 H 8.4996 1.43557 -2.89122 0
M  V30 114 H 7.5516 -0.841777 -3.70969 0
M  V30 115 H 8.8636 -0.888751 -4.90818 0
M  V30 116 H 8.0176 1.2283 -5.94136 0
M  V30 117 H 6.7566 1.36121 -4.68319 0
M  V30 118 H 5.7616 -0.816904 -5.43697 0
M  V30 119 H 6.9866 -0.93509 -6.72631 0
M  V30 120 H 4.9326 1.28955 -6.432 0
M  V30 121 H 4.8496 -0.0236952 -7.55996 0
M  V30 122 H 6.1176 1.15613 -7.70879 0
M  V30 123 N 10.3467 1.47872 -0.545128 0
M  V30 124 C 11.3097 2.28337 0.198717 0
M  V30 125 C 12.3097 1.36255 0.853888 0
M  V30 126 O 13.4997 1.59003 0.711606 0
M  V30 127 C 10.6317 3.15585 1.28915 0
M  V30 128 H 11.8247 2.95567 -0.507941 0
M  V30 129 H 9.3777 1.53362 -0.301616 0
M  V30 130 H 10.1127 2.53019 2.02859 0
M  V30 131 H 9.8977 3.83337 0.824309 0
M  V30 132 H 11.3877 3.76243 1.81194 0
M  V30 133 N 11.8248 0.280983 1.55075 0
M  V30 134 C 12.7548 -0.597469 2.25727 0
M  V30 135 C 13.7358 -1.15417 1.24952 0
M  V30 136 O 14.9208 -1.18722 1.53684 0
M  V30 137 C 12.0508 -1.7789 2.98283 0
M  V30 138 C 11.0048 -1.35347 4.06036 0
M  V30 139 C 10.3308 -2.61846 4.66198 0
M  V30 140 C 11.6308 -0.499354 5.19907 0
M  V30 141 H 13.3248 -0.00824265 2.99399 0
M  V30 142 H 10.8708 -0.0025244 1.44 0
M  V30 143 H 12.8238 -2.39937 3.46422 0
M  V30 144 H 11.5478 -2.39405 2.22155 0
M  V30 145 H 10.2068 -0.756156 3.58717 0
M  V30 146 H 9.8548 -3.21632 3.86732 0
M  V30 147 H 9.5548 -2.3409 5.38958 0
M  V30 148 H 11.0788 -3.24732 5.1709 0
M  V30 149 H 12.4928 -1.02498 5.64063 0
M  V30 150 H 10.8898 -0.316424 5.99265 0
M  V30 151 H 11.9598 0.480459 4.82514 0
M  V30 152 N 13.3029 -1.57598 0.00835791 0
M  V30 153 C 14.2509 -2.10078 -0.998508 0
M  V30 154 C 15.2449 -1.02262 -1.35051 0
M  V30 155 O 16.4509 -1.20719 -1.33518 0
M  V30 156 H 12.8259 -0.670903 -0.339696 0
M  V30 157 H 14.7969 -2.93648 -0.530398 0
M  V30 158 C 13.5459 -2.62615 -2.27879 0
M  V30 159 H 12.8689 -3.45213 -2.01662 0
M  V30 160 H 14.3089 -3.03004 -2.96588 0
M  V30 161 C 12.7679 -1.54407 -2.99433 0
M  V30 162 O 13.2979 -0.931812 -3.90743 0
M  V30 163 N 11.5039 -1.2695 -2.61404 0
M  V30 164 H 11.0509 -1.76924 -1.87232 0
M  V30 165 H 11.0089 -0.547704 -3.09593 0
M  V30 166 N 14.781 0.264519 -1.55364 0
M  V30 167 C 16.006 1.01726 -1.80739 0
M  V30 168 C 16.431 1.78836 -0.583044 0
M  V30 169 O 15.789 1.75167 0.467566 0
M  V30 170 C 15.837 1.94482 -3.03659 0
M  V30 171 O 14.941 3.03386 -2.7934 0
M  V30 172 H 14.282 0.290395 -0.597132 0
M  V30 173 H 16.812 0.290854 -2.02522 0
M  V30 174 H 16.822 2.36278 -3.32621 0
M  V30 175 H 15.497 1.37772 -3.92418 0
M  V30 176 H 14.074 2.65844 -2.61498 0
M  V30 177 N 16.2591 1.48442 0.529413 0
M  V30 178 C 17.5081 1.55742 1.28169 0
M  V30 179 C 17.8211 0.236511 1.94165 0
M  V30 180 O 19.0271 0.187761 2.7085 0
M  V30 181 C 17.4831 2.74667 2.32564 0
M  V30 182 C 17.0911 4.13402 1.72636 0
M  V30 183 C 18.8351 2.9128 3.08798 0
M  V30 184 C 16.7421 5.23587 2.74975 0
M  V30 185 H 15.6721 0.579796 0.48203 0
M  V30 186 H 18.3231 1.74776 0.559056 0
M  V30 187 H 16.7051 2.49067 3.07866 0
M  V30 188 H 17.8791 4.49022 1.03519 0
M  V30 189 H 16.1941 4.0191 1.08892 0
M  V30 190 H 18.7911 3.70767 3.85274 0
M  V30 191 H 19.1341 2.00757 3.64695 0
M  V30 192 H 19.6671 3.16782 2.40611 0
M  V30 193 H 16.4061 6.16076 2.23897 0
M  V30 194 H 15.9261 4.92454 3.42417 0
M  V30 195 H 17.6051 5.51724 3.37949 0
M  V30 196 N 17.7372 -0.778329 1.37039 0
M  V30 197 C 18.9862 -1.53189 1.3121 0
M  V30 198 C 19.2992 -1.95328 -0.103095 0
M  V30 199 O 20.5052 -2.70012 -0.283826 0
M  V30 200 C 18.9612 -2.76591 2.30272 0
M  V30 201 C 18.5692 -2.41577 3.77286 0
M  V30 202 C 20.3132 -3.5455 2.33441 0
M  V30 203 C 18.2202 -3.61441 4.68096 0
M  V30 204 H 17.1502 -0.5751 0.487622 0
M  V30 205 H 19.8012 -0.853101 1.62464 0
M  V30 206 H 18.1832 -3.46326 1.92027 0
M  V30 207 H 19.3572 -1.79668 4.2433 0
M  V30 208 H 17.6722 -1.76806 3.76999 0
M  V30 209 H 20.2692 -4.43628 2.98493 0
M  V30 210 H 20.6122 -3.93936 1.34611 0
M  V30 211 H 21.1452 -2.91805 2.7036 0
M  V30 212 H 17.8842 -3.27142 5.6803 0
M  V30 213 H 17.4042 -4.22478 4.25761 0
M  V30 214 H 19.0832 -4.28335 4.8491 0
M  V30 215 N 19.2153 -1.21501 -1.00376 0
M  V30 216 C 20.4923 -0.941745 -1.71437 0
M  V30 217 C 20.8723 0.546114 -2.03914 0
M  V30 218 O 20.2203 1.51128 -1.71384 0
M  V30 219 C 20.4303 -1.82812 -2.97289 0
M  V30 220 C 21.7783 -2.07771 -3.70292 0
M  V30 221 O 22.8023 -1.80171 -3.07273 0
M  V30 222 O 21.6613 -2.54456 -4.83647 0
M  V30 223 H 18.7553 -0.353243 -0.747762 0
M  V30 224 H 21.3013 -1.32436 -1.06108 0
M  V30 225 H 20.0733 -2.83501 -2.69709 0
M  V30 226 H 19.6963 -1.4464 -3.70358 0
M  V30 227 N 20.6934 1.19889 -1.02296 0
M  V30 228 C 21.9394 1.89701 -0.717033 0
M  V30 229 C 22.2724 1.7905 0.751989 0
M  V30 230 O 21.5474 1.17891 1.547 0
M  V30 231 C 21.8304 3.40858 -1.16136 0
M  V30 232 C 21.6834 3.60411 -2.69117 0
M  V30 233 C 23.0024 4.33876 -0.737549 0
M  V30 234 H 20.1214 0.688874 -0.261957 0
M  V30 235 H 22.7634 1.41154 -1.27183 0
M  V30 236 H 20.9134 3.82335 -0.689342 0
M  V30 237 H 22.5854 3.28145 -3.2422 0
M  V30 238 H 20.8284 3.03665 -3.0979 0
M  V30 239 H 21.4994 4.66396 -2.95261 0
M  V30 240 H 23.9754 4.00081 -1.14344 0
M  V30 241 H 22.8514 5.38242 -1.0764 0
M  V30 242 H 23.1124 4.40628 0.360436 0
M  V30 243 N 22.1715 0.800033 1.35784 0
M  V30 244 C 23.4015 0.389041 2.02904 0
M  V30 245 C 23.8095 -1.0027 1.60445 0
M  V30 246 O 23.1525 -1.65633 0.794453 0
M  V30 247 C 23.2145 0.385495 3.57427 0
M  V30 248 C 22.8785 1.72662 4.23127 0
M  V30 249 C 23.8755 2.68385 4.4527 0
M  V30 250 C 21.5605 2.00883 4.60381 0
M  V30 251 C 23.5545 3.90517 5.03761 0
M  V30 252 C 21.2415 3.2328 5.18588 0
M  V30 253 C 22.2395 4.17915 5.40218 0
M  V30 254 O 21.9275 5.38153 5.97199 0
M  V30 255 H 21.6595 0.157032 0.657508 0
M  V30 256 H 24.2135 1.08311 1.74522 0
M  V30 257 H 22.4435 -0.365128 3.84972 0
M  V30 258 H 24.1325 -0.00228296 4.059 0
M  V30 259 H 24.8985 2.47872 4.16874 0
M  V30 260 H 20.7775 1.28037 4.42863 0
M  V30 261 H 24.3215 4.64395 5.2056 0
M  V30 262 H 20.2185 3.43667 5.4641 0
M  V30 263 H 20.9865 5.3936 6.15656 0
M  V30 264 N 23.6496 -1.47581 0.552962 0
M  V30 265 C 24.5996 -2.26961 -0.217423 0
M  V30 266 C 25.5836 -1.34099 -0.889168 0
M  V30 267 O 26.7756 -1.58483 -0.788176 0
M  V30 268 C 23.9046 -3.19756 -1.24944 0
M  V30 269 C 22.9906 -4.20097 -0.581327 0
M  V30 270 N 23.3816 -5.04614 0.346171 0
M  V30 271 C 21.6796 -4.38099 -0.835767 0
M  V30 272 C 22.3806 -5.77052 0.733854 0
M  V30 273 N 21.3566 -5.43526 0.0896567 0
M  V30 274 H 25.1586 -2.89688 0.495761 0
M  V30 275 H 22.6726 -1.58068 0.372597 0
M  V30 276 H 24.6696 -3.75305 -1.81527 0
M  V30 277 H 23.3296 -2.58585 -1.96376 0
M  V30 278 H 24.3406 -5.12869 0.720098 0
M  V30 279 H 21.0176 -3.88102 -1.53892 0
M  V30 280 H 22.4076 -6.5504 1.49574 0
M  V30 281 N 25.1277 -0.289203 -1.54924 0
M  V30 282 C 26.0747 0.592115 -2.23075 0
M  V30 283 C 27.0447 1.13881 -1.20915 0
M  V30 284 O 28.2297 1.18551 -1.495 0
M  V30 285 C 25.3697 1.76376 -2.96623 0
M  V30 286 C 24.4827 1.24959 -4.13533 0
M  V30 287 C 23.6177 2.38416 -4.74691 0
M  V30 288 C 22.6567 1.84072 -5.83767 0
M  V30 289 N 21.7937 2.91057 -6.38929 0
M  V30 290 H 26.6337 0.00432038 -2.98 0
M  V30 291 H 24.1707 -0.00963529 -1.47097 0
M  V30 292 H 26.1287 2.45268 -3.3749 0
M  V30 293 H 24.7587 2.32337 -2.24097 0
M  V30 294 H 23.8107 0.453307 -3.77689 0
M  V30 295 H 25.1227 0.811662 -4.92152 0
M  V30 296 H 24.2767 3.15276 -5.18349 0
M  V30 297 H 23.0157 2.8553 -3.95378 0
M  V30 298 H 22.0207 1.05697 -5.39545 0
M  V30 299 H 23.2457 1.37877 -6.64956 0
M  V30 300 H 21.1917 3.37526 -5.62505 0
M  V30 301 H 21.1087 2.51724 -7.12861 0
M  V30 302 H 22.3767 3.6785 -6.87246 0
M  V30 303 N 26.6058 1.57591 -0.0167156 0
M  V30 304 C 27.8358 1.95292 0.674149 0
M  V30 305 C 28.2438 0.891097 1.66901 0
M  V30 306 O 27.5868 -0.136908 1.83189 0
M  V30 307 C 27.6488 3.29072 1.44747 0
M  V30 308 C 27.3128 4.52879 0.612331 0
M  V30 309 C 28.3098 5.1979 -0.107126 0
M  V30 310 C 25.9948 4.99242 0.553381 0
M  V30 311 C 27.9888 6.31375 -0.874339 0
M  V30 312 C 25.6758 6.10713 -0.217546 0
M  V30 313 C 26.6738 6.76637 -0.930123 0
M  V30 314 O 26.3618 7.85969 -1.68844 0
M  V30 315 H 26.0938 0.648275 0.191615 0
M  V30 316 H 28.6478 2.05284 -0.0690148 0
M  V30 317 H 26.8778 3.15535 2.2355 0
M  V30 318 H 28.5668 3.51764 2.02526 0
M  V30 319 H 29.3328 4.84948 -0.0708392 0
M  V30 320 H 25.2118 4.47744 1.09757 0
M  V30 321 H 28.7558 6.82764 -1.43106 0
M  V30 322 H 24.6528 6.44994 -0.255593 0
M  V30 323 H 25.4208 8.02571 -1.6069 0
M  V30 324 N 28.0839 -0.256276 1.55502 0
M  V30 325 C 29.3089 -1.00766 1.81276 0
M  V30 326 C 29.7339 -1.78524 0.59252 0
M  V30 327 O 29.0919 -1.75413 -0.45827 0
M  V30 328 C 29.1399 -1.92869 3.04687 0
M  V30 329 O 28.2439 -3.019 2.80945 0
M  V30 330 H 27.5849 -0.287224 0.598664 0
M  V30 331 H 30.1149 -0.280109 2.02674 0
M  V30 332 H 30.1249 -2.34511 3.33869 0
M  V30 333 H 28.7999 -1.35689 3.93143 0
M  V30 334 H 27.3769 -2.64454 2.62904 0
M  V30 335 N 29.562 -1.4872 -0.521534 0
M  V30 336 C 30.492 -1.66771 -1.63431 0
M  V30 337 C 31.473 -0.516499 -1.62069 0
M  V30 338 O 32.658 -0.750013 -1.79132 0
M  V30 339 C 29.788 -1.71515 -3.01993 0
M  V30 340 C 28.742 -2.86222 -3.18216 0
M  V30 341 C 28.068 -2.76061 -4.57924 0
M  V30 342 C 29.368 -4.27419 -3.00184 0
M  V30 343 H 31.062 -2.59932 -1.48579 0
M  V30 344 H 28.608 -1.25089 -0.713358 0
M  V30 345 H 30.561 -1.82731 -3.7972 0
M  V30 346 H 29.285 -0.749393 -3.17886 0
M  V30 347 H 27.944 -2.74575 -2.42908 0
M  V30 348 H 27.592 -1.77437 -4.70665 0
M  V30 349 H 27.292 -3.53037 -4.69722 0
M  V30 350 H 28.816 -2.89256 -5.37739 0
M  V30 351 H 30.23 -4.39855 -3.67697 0
M  V30 352 H 28.627 -5.05458 -3.2347 0
M  V30 353 H 29.697 -4.43293 -1.96518 0
M  V30 354 N 31.0401 0.771051 -1.3745 0
M  V30 355 C 32.2891 1.52491 -1.3202 0
M  V30 356 C 32.6021 1.9538 0.0927347 0
M  V30 357 O 33.8081 2.70159 0.269503 0
M  V30 358 C 32.2641 2.75366 -2.31736 0
M  V30 359 C 31.8721 2.39573 -3.78562 0
M  V30 360 C 33.6161 3.53307 -2.35318 0
M  V30 361 C 31.5231 3.58954 -4.70007 0
M  V30 362 H 30.4531 0.572506 -0.490666 0
M  V30 363 H 33.1041 0.844474 -1.62914 0
M  V30 364 H 31.4861 3.45303 -1.93861 0
M  V30 365 H 32.6601 1.77415 -4.25277 0
M  V30 366 H 30.9751 1.74805 -3.77932 0
M  V30 367 H 33.5721 4.42039 -3.00842 0
M  V30 368 H 33.9151 3.93217 -1.36698 0
M  V30 369 H 34.4481 2.90367 -2.71904 0
M  V30 370 H 31.1871 3.24125 -5.69757 0
M  V30 371 H 30.7071 4.20214 -4.27996 0
M  V30 372 H 32.3861 4.25758 -4.87175 0
M  V30 373 N 32.5182 1.22032 0.997298 0
M  V30 374 C 33.4652 0.986467 2.08656 0
M  V30 375 C 34.4352 -0.0902671 1.65855 0
M  V30 376 O 35.6202 0.0584294 1.90711 0
M  V30 377 C 32.7602 0.565569 3.40434 0
M  V30 378 C 31.8732 1.71259 3.96604 0
M  V30 379 C 31.0082 1.24011 5.16522 0
M  V30 380 C 30.0472 2.35896 5.64818 0
M  V30 381 N 29.1842 1.89726 6.7598 0
M  V30 382 H 34.0242 1.91892 2.27994 0
M  V30 383 H 31.5612 0.956199 1.11782 0
M  V30 384 H 33.5192 0.302738 4.161 0
M  V30 385 H 32.1492 -0.329879 3.2111 0
M  V30 386 H 31.2012 2.08986 3.17851 0
M  V30 387 H 32.5132 2.55436 4.28432 0
M  V30 388 H 31.6672 0.934395 5.99461 0
M  V30 389 H 30.4062 0.368487 4.86306 0
M  V30 390 H 29.4112 2.67261 4.8047 0
M  V30 391 H 30.6362 3.23567 5.97061 0
M  V30 392 H 28.5822 1.0492 6.47555 0
M  V30 393 H 28.4992 2.67471 7.07103 0
M  V30 394 H 29.7672 1.62211 7.62435 0
M  V30 395 N 33.9963 -1.19345 1.0293 0
M  V30 396 C 35.2443 -1.88665 0.724574 0
M  V30 397 C 35.5653 -1.80036 -0.749144 0
M  V30 398 O 34.8353 -1.2111 -1.53978 0
M  V30 399 H 33.4153 -0.698406 0.265025 0
M  V30 400 H 36.0773 -1.44885 1.30362 0
M  V30 401 H 35.1733 -2.94987 1.01926 0
M  V30 402 N 35.4744 -0.807222 -1.35358 0
M  V30 403 C 36.4224 -0.20614 -2.31685 0
M  V30 404 C 37.4164 0.644445 -1.56663 0
M  V30 405 O 38.6224 0.537538 -1.71786 0
M  V30 406 H 34.9974 -0.0479006 -0.750473 0
M  V30 407 H 36.9684 -1.03369 -2.79924 0
M  V30 408 C 35.7174 0.630212 -3.41941 0
M  V30 409 H 35.0404 -0.0149558 -3.99797 0
M  V30 410 H 36.4804 1.01716 -4.11619 0
M  V30 411 C 34.9394 1.79601 -2.85035 0
M  V30 412 O 35.4694 2.89351 -2.78637 0
M  V30 413 N 33.6754 1.60774 -2.42074 0
M  V30 414 H 33.2224 0.715009 -2.47478 0
M  V30 415 H 33.1804 2.38933 -2.04349 0
M  V30 416 N 36.9525 1.47285 -0.560781 0
M  V30 417 C 38.1995 2.02464 -0.038062 0
M  V30 418 C 38.5275 1.43474 1.31322 0
M  V30 419 O 37.7825 0.581311 1.86867 0
M  V30 420 C 38.0815 3.57258 0.100784 0
M  V30 421 C 37.7475 4.35184 -1.18007 0
M  V30 422 C 36.4095 4.56194 -1.53103 0
M  V30 423 C 38.7615 4.80098 -2.02867 0
M  V30 424 C 36.0895 5.19367 -2.729 0
M  V30 425 C 38.4415 5.44593 -3.21871 0
M  V30 426 C 37.1055 5.63835 -3.57276 0
M  V30 427 H 36.3755 0.740869 -0.0139279 0
M  V30 428 H 39.0225 1.76916 -0.733012 0
M  V30 429 H 37.3275 3.81819 0.878724 0
M  V30 430 H 39.0245 3.97606 0.520639 0
M  V30 431 H 35.6145 4.19113 -0.8968 0
M  V30 432 H 39.7985 4.63642 -1.7706 0
M  V30 433 H 35.0545 5.32459 -3.00496 0
M  V30 434 H 39.2285 5.78358 -3.87911 0
M  V30 435 H 36.8555 6.12557 -4.50197 0
M  V30 436 N 38.4306 0.297415 1.54768 0
M  V30 437 C 39.3806 -0.595275 2.20092 0
M  V30 438 C 40.3646 -1.10163 1.17273 0
M  V30 439 O 41.5566 -1.043 1.43006 0
M  V30 440 C 38.6856 -1.7684 2.94249 0
M  V30 441 C 37.7716 -1.27818 4.0438 0
M  V30 442 N 38.1626 -0.505695 5.03266 0
M  V30 443 C 36.4606 -1.55923 4.17857 0
M  V30 444 C 37.1616 -0.245094 5.81183 0
M  V30 445 N 36.1376 -0.823881 5.3732 0
M  V30 446 H 39.9396 0.00250837 2.939 0
M  V30 447 H 37.4536 0.102007 1.62079 0
M  V30 448 H 39.4506 -2.41944 3.39513 0
M  V30 449 H 38.1106 -2.36992 2.21957 0
M  V30 450 H 39.1216 -0.150928 5.1768 0
M  V30 451 H 35.7986 -2.16849 3.56767 0
M  V30 452 H 37.1886 0.375084 6.70852 0
M  V30 453 N 39.9087 -1.5758 0.0250728 0
M  V30 454 C 40.8717 -2.08896 -0.943139 0
M  V30 455 C 41.8717 -1.00321 -1.25668 0
M  V30 456 O 43.0617 -1.26495 -1.19769 0
M  V30 457 C 40.1937 -2.55143 -2.26086 0
M  V30 458 H 41.3867 -2.95723 -0.498775 0
M  V30 459 H 38.9397 -1.54703 -0.222888 0
M  V30 460 H 39.6747 -1.71633 -2.75159 0
M  V30 461 H 39.4597 -3.34461 -2.04641 0
M  V30 462 H 40.9497 -2.95083 -2.95492 0
M  V30 463 N 41.3868 0.248026 -1.55636 0
M  V30 464 C 42.6328 0.97767 -1.77678 0
M  V30 465 C 42.9658 1.85016 -0.590135 0
M  V30 466 O 42.2408 1.90095 0.411611 0
M  V30 467 C 42.5238 1.83914 -3.09593 0
M  V30 468 C 42.3768 0.99491 -4.38659 0
M  V30 469 C 43.6958 2.82183 -3.37729 0
M  V30 470 H 40.8148 0.354005 -0.646413 0
M  V30 471 H 43.4568 0.248253 -1.88371 0
M  V30 472 H 41.6068 2.46104 -3.00608 0
M  V30 473 H 43.2788 0.391789 -4.59633 0
M  V30 474 H 41.5218 0.299231 -4.32767 0
M  V30 475 H 42.1928 1.63145 -5.2734 0
M  V30 476 H 44.6688 2.30129 -3.4667 0
M  V30 477 H 43.5448 3.39582 -4.31249 0
M  V30 478 H 43.8058 3.58588 -2.58586 0
M  V30 479 N 42.8649 1.48995 0.513639 0
M  V30 480 C 44.0949 1.61297 1.291 0
M  V30 481 C 44.5029 0.278656 1.87137 0
M  V30 482 O 43.8459 -0.744325 1.67945 0
M  V30 483 C 43.9079 2.61326 2.46879 0
M  V30 484 C 43.5719 4.05993 2.09807 0
M  V30 485 C 44.5689 4.93183 1.64519 0
M  V30 486 C 42.2539 4.51642 2.19829 0
M  V30 487 C 44.2479 6.24056 1.2974 0
M  V30 488 C 41.9349 5.82532 1.84662 0
M  V30 489 C 42.9329 6.68562 1.3969 0
M  V30 490 O 42.6209 7.97014 1.04992 0
M  V30 491 H 42.3529 0.546236 0.39825 0
M  V30 492 H 44.9069 1.95673 0.62459 0
M  V30 493 H 43.1369 2.22104 3.16554 0
M  V30 494 H 44.8259 2.6329 3.08923 0
M  V30 495 H 45.5919 4.59147 1.56233 0
M  V30 496 H 41.4709 3.84855 2.53786 0
M  V30 497 H 45.0149 6.91161 0.945659 0
M  V30 498 H 40.9119 6.16099 1.92594 0
M  V30 499 H 41.6799 8.09913 1.18249 0
M  V30 500 N 44.343 -0.763751 1.37857 0
M  V30 501 C 45.759 -1.06542 1.18832 0
M  V30 502 C 45.959 -2.01478 0.0299722 0
M  V30 503 O 45.015 -2.4458 -0.627447 0
M  V30 504 C 46.328 -1.65525 2.51042 0
M  V30 505 C 47.876 -1.77745 2.57635 0
M  V30 506 C 48.351 -2.4014 3.89996 0
M  V30 507 N 49.842 -2.47582 3.91481 0
M  V30 508 C 50.577 -2.96732 4.9065 0
M  V30 509 N 50.073 -3.45993 6.00217 0
M  V30 510 N 51.866 -2.95679 4.78048 0
M  V30 511 H 44.017 -0.133556 2.1198 0
M  V30 512 H 46.28 -0.121879 0.940133 0
M  V30 513 H 45.986 -1.03236 3.36207 0
M  V30 514 H 45.86 -2.64719 2.68707 0
M  V30 515 H 48.247 -2.39164 1.72872 0
M  V30 516 H 48.328 -0.772836 2.43846 0
M  V30 517 H 47.972 -1.79358 4.75177 0
M  V30 518 H 47.902 -3.41223 4.01092 0
M  V30 519 H 50.393 -2.1273 3.12337 0
M  V30 520 H 50.706 -3.81922 6.7183 0
M  V30 521 H 49.051 -3.44077 6.03851 0
M  V30 522 H 52.242 -2.56499 3.91568 0
M  V30 523 H 52.415 -3.33672 5.55488 0
M  V30 524 N 45.8211 -1.22559 -0.990812 0
M  V30 525 C 47.0981 -0.959875 -1.70428 0
M  V30 526 C 47.4781 0.524455 -2.04481 0
M  V30 527 O 46.8261 1.49302 -1.72977 0
M  V30 528 C 47.0361 -1.85955 -2.95333 0
M  V30 529 C 48.3841 -2.11687 -3.68068 0
M  V30 530 O 49.4081 -1.8342 -3.05345 0
M  V30 531 O 48.2671 -2.59572 -4.80921 0
M  V30 532 H 45.3611 -0.361154 -0.743974 0
M  V30 533 H 47.9071 -1.33554 -1.04697 0
M  V30 534 H 46.6791 -2.86346 -2.66687 0
M  V30 535 H 46.3021 -1.4856 -3.68803 0
M  V30 536 N 47.2992 1.18797 -1.03562 0
M  V30 537 C 48.5762 1.84469 -0.650434 0
M  V30 538 C 48.9562 1.92319 0.870433 0
M  V30 539 O 48.3042 1.44528 1.76986 0
M  V30 540 C 48.5142 3.2306 -1.32036 0
M  V30 541 C 49.8622 3.9915 -1.44792 0
M  V30 542 O 50.8862 3.32481 -1.27806 0
M  V30 543 O 49.7452 5.18587 -1.72423 0
M  V30 544 H 46.8392 0.795251 -0.226946 0
M  V30 545 H 49.3852 1.26231 -1.13419 0
M  V30 546 H 48.1572 3.1222 -2.3587 0
M  V30 547 H 47.7802 3.88949 -0.8249 0
M  V30 548 N 48.7773 0.814389 1.34928 0
M  V30 549 C 49.7073 0.244827 2.32213 0
M  V30 550 C 50.6883 -0.634024 1.57842 0
M  V30 551 O 51.8733 -0.562676 1.8587 0
M  V30 552 C 49.0033 -0.601106 3.42058 0
M  V30 553 C 47.9573 0.179896 4.27622 0
M  V30 554 C 47.2833 -0.788237 5.28858 0
M  V30 555 C 48.5833 1.38329 5.03649 0
M  V30 556 H 50.2773 1.05763 2.80097 0
M  V30 557 H 47.8233 0.510029 1.34665 0
M  V30 558 H 49.7763 -1.00968 4.09125 0
M  V30 559 H 48.5003 -1.44688 2.92802 0
M  V30 560 H 47.1593 0.569739 3.62146 0
M  V30 561 H 46.8073 -1.62973 4.75866 0
M  V30 562 H 46.5073 -0.269942 5.8698 0
M  V30 563 H 48.0313 -1.19485 5.98795 0
M  V30 564 H 49.4453 1.04918 5.63618 0
M  V30 565 H 47.8423 1.83662 5.71304 0
M  V30 566 H 48.9123 2.16592 4.33839 0
M  V30 567 N 50.2554 -1.46986 0.568584 0
M  V30 568 C 51.2024 -2.30153 -0.172707 0
M  V30 569 C 52.1724 -1.39759 -0.897586 0
M  V30 570 O 53.3574 -1.68716 -0.891044 0
M  V30 571 C 50.4974 -3.23952 -1.1895 0
M  V30 572 C 49.6104 -4.29441 -0.469517 0
M  V30 573 C 48.7454 -5.1038 -1.47259 0
M  V30 574 C 47.7844 -6.07632 -0.738225 0
M  V30 575 N 46.9214 -6.8149 -1.68868 0
M  V30 576 H 51.7614 -2.93019 0.542596 0
M  V30 577 H 49.2984 -1.44422 0.279401 0
M  V30 578 H 51.2564 -3.76767 -1.79173 0
M  V30 579 H 49.8864 -2.62926 -1.87269 0
M  V30 580 H 48.9384 -3.79594 0.247467 0
M  V30 581 H 50.2504 -4.98689 0.105241 0
M  V30 582 H 49.4044 -5.67402 -2.14803 0
M  V30 583 H 48.1434 -4.4106 -2.08128 0
M  V30 584 H 47.1484 -5.49778 -0.0489293 0
M  V30 585 H 48.3734 -6.78966 -0.135129 0
M  V30 586 H 46.3194 -6.14891 -2.28573 0
M  V30 587 H 46.2364 -7.46948 -1.16636 0
M  V30 588 H 47.5044 -7.43078 -2.3549 0
M  V30 589 N 51.7335 -0.305618 -1.54608 0
M  V30 590 C 52.6805 0.568421 -2.23691 0
M  V30 591 C 53.6505 1.12592 -1.22116 0
M  V30 592 O 54.8355 1.16959 -1.50749 0
M  V30 593 C 51.9755 1.7322 -2.98477 0
M  V30 594 C 51.0885 1.20566 -4.14835 0
M  V30 595 C 50.2235 2.33368 -4.77193 0
M  V30 596 C 49.2625 1.7787 -5.85686 0
M  V30 597 N 48.3995 2.84263 -6.4198 0
M  V30 598 H 53.2395 -0.0272867 -2.97988 0
M  V30 599 H 50.7765 -0.0252363 -1.47078 0
M  V30 600 H 52.7345 2.41675 -3.40072 0
M  V30 601 H 51.3645 2.29947 -2.26548 0
M  V30 602 H 50.4165 0.413223 -3.78149 0
M  V30 603 H 51.7285 0.759417 -4.92985 0
M  V30 604 H 50.8825 3.09761 -5.21664 0
M  V30 605 H 49.6215 2.8132 -3.98385 0
M  V30 606 H 48.6265 0.99968 -5.40635 0
M  V30 607 H 49.8515 1.30816 -6.66381 0
M  V30 608 H 47.7975 3.31541 -5.66053 0
M  V30 609 H 47.7145 2.44149 -7.15491 0
M  V30 610 H 48.9825 3.6054 -6.91109 0
M  V30 611 N 53.2116 1.57565 -0.0334293 0
M  V30 612 C 54.1416 2.13511 0.945265 0
M  V30 613 C 55.1226 1.05231 1.33643 0
M  V30 614 O 56.3076 1.33084 1.41429 0
M  V30 615 C 53.4376 2.6657 2.22616 0
M  V30 616 C 52.3916 3.79676 1.97561 0
M  V30 617 C 51.7176 4.1918 3.31952 0
M  V30 618 C 53.0176 5.0557 1.31135 0
M  V30 619 H 54.7116 2.95538 0.479325 0
M  V30 620 H 52.2576 1.42166 0.229115 0
M  V30 621 H 54.2106 3.04344 2.91466 0
M  V30 622 H 52.9346 1.8171 2.71384 0
M  V30 623 H 51.5936 3.42347 1.31127 0
M  V30 624 H 51.2416 3.31296 3.78487 0
M  V30 625 H 50.9416 4.95402 3.15992 0
M  V30 626 H 52.4656 4.59541 4.02063 0
M  V30 627 H 53.8796 5.40903 1.89992 0
M  V30 628 H 52.2766 5.86818 1.25559 0
M  V30 629 H 53.3466 4.84062 0.284894 0
M  V30 630 N 54.6897 -0.239769 1.55765 0
M  V30 631 C 55.6197 -1.30052 1.9393 0
M  V30 632 C 56.6007 -1.49839 0.805132 0
M  V30 633 O 57.7857 -1.62328 1.06599 0
M  V30 634 C 54.9157 -2.65391 2.2402 0
M  V30 635 C 53.8697 -2.60289 3.39755 0
M  V30 636 C 53.1957 -3.99489 3.55405 0
M  V30 637 C 54.4957 -2.16654 4.75246 0
M  V30 638 H 56.1897 -0.983573 2.82783 0
M  V30 639 H 53.7357 -0.471701 1.36055 0
M  V30 640 H 55.6887 -3.3974 2.49308 0
M  V30 641 H 54.4127 -2.98736 1.32 0
M  V30 642 H 53.0717 -1.88398 3.14487 0
M  V30 643 H 52.7197 -4.30112 2.60793 0
M  V30 644 H 52.4197 -3.96962 4.33238 0
M  V30 645 H 53.9437 -4.75528 3.83022 0
M  V30 646 H 55.3577 -2.80737 4.99859 0
M  V30 647 H 53.7547 -2.25223 5.56232 0
M  V30 648 H 54.8247 -1.11835 4.71827 0
M  V30 649 N 56.1678 -1.49265 -0.50573 0
M  V30 650 C 57.0778 -1.68312 -1.63427 0
M  V30 651 C 58.0938 -0.565682 -1.64548 0
M  V30 652 O 59.2698 -0.839801 -1.83055 0
M  V30 653 C 56.3348 -1.74107 -2.99813 0
M  V30 654 C 55.3958 -2.97653 -3.09356 0
M  V30 655 C 54.6288 -3.03163 -4.39236 0
M  V30 656 O 54.8518 -2.16396 -5.27758 0
M  V30 657 O 53.7858 -3.9558 -4.53652 0
M  V30 658 H 57.6118 -2.63907 -1.50289 0
M  V30 659 H 55.1968 -1.32951 -0.681502 0
M  V30 660 H 57.0788 -1.803 -3.80881 0
M  V30 661 H 55.7538 -0.816901 -3.13223 0
M  V30 662 H 54.6608 -2.96981 -2.27493 0
M  V30 663 H 55.9938 -3.89535 -3.00871 0
M  V30 664 N 57.6459 0.756429 -1.3826 0
M  V30 665 C 58.8739 1.54565 -1.3754 0
M  V30 666 C 59.2889 1.88767 0.0355331 0
M  V30 667 O 58.6459 1.52572 1.0014 0
M  V30 668 C 58.6969 2.84654 -2.22833 0
M  V30 669 O 58.4179 2.51912 -3.5843 0
M  V30 670 C 59.9189 3.78807 -2.30261 0
M  V30 671 H 57.1389 0.478353 -0.470553 0
M  V30 672 H 59.6829 0.936381 -1.81803 0
M  V30 673 H 57.8379 3.41965 -1.8204 0
M  V30 674 H 58.2519 3.35325 -4.03308 0
M  V30 675 H 59.7259 4.67045 -2.94233 0
M  V30 676 H 60.2029 4.19038 -1.31545 0
M  V30 677 H 60.8089 3.2742 -2.71433 0
M  V30 678 N 59.124 1.23083 0.984299 0
M  V30 679 C 60.034 1.02515 2.11016 0
M  V30 680 C 61.05 -0.0291702 1.73976 0
M  V30 681 O 62.226 0.165434 2.00719 0
M  V30 682 C 59.291 0.614673 3.41208 0
M  V30 683 C 58.352 1.74359 3.92297 0
M  V30 684 C 57.585 1.35261 5.16275 0
M  V30 685 O 57.808 0.235136 5.69915 0
M  V30 686 O 56.742 2.17227 5.61334 0
M  V30 687 H 60.568 1.96862 2.31255 0
M  V30 688 H 58.153 1.01753 1.09392 0
M  V30 689 H 60.035 0.396518 4.1953 0
M  V30 690 H 58.71 -0.299851 3.22308 0
M  V30 691 H 57.617 2.01635 3.1511 0
M  V30 692 H 58.95 2.63629 4.15645 0
M  V30 693 N 60.6021 -1.18246 1.0419 0
M  V30 694 C 61.8421 -1.89948 0.754916 0
M  V30 695 C 62.2061 -1.78608 -0.70451 0
M  V30 696 O 63.4071 -2.4503 -1.10516 0
M  V30 697 C 61.6781 -3.36305 1.20969 0
M  V30 698 S 63.2371 -4.26088 1.04854 0
M  V30 699 H 60.0551 -0.655897 0.274446 0
M  V30 700 H 62.6571 -1.42873 1.33445 0
M  V30 701 H 61.3611 -3.42089 2.26722 0
M  V30 702 H 60.8921 -3.8842 0.624004 0
M  V30 703 H 62.9071 -4.96189 -0.0332896 0
M  V30 704 N 62.0802 -0.821533 -1.34494 0
M  V30 705 C 63.4912 -0.467956 -1.8074 0
M  V30 706 C 63.8422 1.01151 -1.68116 0
M  V30 707 O 62.9672 1.78707 -1.22036 0
M  V30 708 C 63.5622 -0.842627 -3.28154 0
M  V30 709 C 62.1212 -0.541439 -3.72485 0
M  V30 710 C 61.2682 -1.06028 -2.56229 0
M  V30 711 H 64.2192 -1.01183 -1.22261 0
M  V30 712 H 64.2402 -0.145876 -3.8022 0
M  V30 713 H 63.7522 -1.91945 -3.37311 0
M  V30 714 H 61.8532 0.526034 -3.68868 0
M  V30 715 H 61.9662 -1.08453 -4.66663 0
M  V30 716 H 60.3302 -0.481892 -2.501 0
M  V30 717 H 61.1132 -2.14352 -2.68157 0
M  V30 718 N 63.5583 1.46682 -0.576371 0
M  V30 719 C 64.4903 2.28341 0.198231 0
M  V30 720 C 65.5033 1.38141 0.861453 0
M  V30 721 O 66.6923 1.62797 0.732082 0
M  V30 722 C 63.7923 3.12986 1.29972 0
M  V30 723 C 62.9653 4.31271 0.729639 0
M  V30 724 C 62.0243 4.97363 1.71803 0
M  V30 725 O 61.0503 5.55156 1.25658 0
M  V30 726 N 62.2523 4.93796 3.05198 0
M  V30 727 H 65.0173 2.9546 -0.502324 0
M  V30 728 H 62.5783 1.56525 -0.413715 0
M  V30 729 H 64.5703 3.54066 1.96008 0
M  V30 730 H 63.1403 2.47984 1.90323 0
M  V30 731 H 62.3603 3.94052 -0.108012 0
M  V30 732 H 63.6483 5.07739 0.328438 0
M  V30 733 H 63.0463 4.48077 3.45317 0
M  V30 734 H 61.6033 5.38837 3.6674 0
M  V30 735 N 65.0364 0.313813 1.54444 0
M  V30 736 C 66.2664 -0.293491 2.04505 0
M  V30 737 C 66.6744 -1.47086 1.19005 0
M  V30 738 O 66.0174 -1.82481 0.211257 0
M  V30 739 C 66.0794 -0.800455 3.50475 0
M  V30 740 C 65.7434 0.253322 4.56297 0
M  V30 741 C 66.7404 1.08612 5.08428 0
M  V30 742 C 64.4254 0.398708 5.00715 0
M  V30 743 C 66.4194 2.05013 6.0353 0
M  V30 744 C 64.1064 1.36614 5.95634 0
M  V30 745 C 65.1044 2.19033 6.46926 0
M  V30 746 O 64.7924 3.14134 7.39983 0
M  V30 747 H 64.5244 -0.0658325 0.672787 0
M  V30 748 H 67.0784 0.455177 2.00293 0
M  V30 749 H 65.3084 -1.59987 3.52053 0
M  V30 750 H 66.9974 -1.32504 3.83663 0
M  V30 751 H 67.7634 0.984736 4.74898 0
M  V30 752 H 63.6424 -0.23289 4.60411 0
M  V30 753 H 67.1864 2.69382 6.4349 0
M  V30 754 H 63.0834 1.4682 6.28581 0
M  V30 755 H 63.8514 3.0926 7.57826 0
M  V30 756 N 66.5145 -1.57545 0.0417849 0
M  V30 757 C 67.7635 -1.91494 -0.633492 0
M  V30 758 C 68.0765 -0.921084 -1.72556 0
M  V30 759 O 69.2825 -1.15228 -2.45835 0
M  V30 760 C 67.7385 -3.40072 -1.17808 0
M  V30 761 C 67.3465 -4.47843 -0.118633 0
M  V30 762 C 69.0905 -3.8307 -1.82915 0
M  V30 763 C 66.9975 -5.87529 -0.675578 0
M  V30 764 H 65.9275 -0.714653 -0.24039 0
M  V30 765 H 68.5785 -1.83175 0.109148 0
M  V30 766 H 66.9605 -3.43364 -1.97274 0
M  V30 767 H 68.1345 -4.56128 0.654494 0
M  V30 768 H 66.4495 -4.14128 0.434414 0
M  V30 769 H 69.0465 -4.84794 -2.25563 0
M  V30 770 H 69.3895 -3.1881 -2.67705 0
M  V30 771 H 69.9225 -3.82255 -1.10119 0
M  V30 772 H 66.6615 -6.55362 0.134475 0
M  V30 773 H 66.1815 -5.82824 -1.4169 0
M  V30 774 H 67.8605 -6.36491 -1.1614 0
M  V30 775 N 67.9926 0.231505 -1.5589 0
M  V30 776 C 69.4086 0.580748 -1.48659 0
M  V30 777 C 69.6086 1.87617 -0.73498 0
M  V30 778 O 68.6646 2.51046 -0.270586 0
M  V30 779 C 69.9776 0.669202 -2.93159 0
M  V30 780 C 71.5256 0.760499 -3.03621 0
M  V30 781 C 72.0006 0.880383 -4.49459 0
M  V30 782 N 73.4916 0.944861 -4.53461 0
M  V30 783 C 74.2266 1.05716 -5.63571 0
M  V30 784 N 73.7226 1.13403 -6.83456 0
M  V30 785 N 75.5156 1.09152 -5.514 0
M  V30 786 H 67.6666 -0.618695 -2.03189 0
M  V30 787 H 69.9296 -0.215728 -0.923128 0
M  V30 788 H 69.6356 -0.212904 -3.51055 0
M  V30 789 H 69.5096 1.5361 -3.44505 0
M  V30 790 H 71.8966 1.63305 -2.45796 0
M  V30 791 H 71.9776 -0.131864 -2.5546 0
M  V30 792 H 71.6216 0.0123284 -5.07899 0
M  V30 793 H 71.5516 1.78802 -4.95316 0
M  V30 794 H 74.0426 0.896176 -3.6712 0
M  V30 795 H 74.3556 1.21921 -7.63122 0
M  V30 796 H 72.7006 1.10333 -6.86186 0
M  V30 797 H 75.8916 1.02805 -4.56671 0
M  V30 798 H 76.0646 1.17558 -6.37247 0
M  V30 799 N 69.4707 1.49531 0.497807 0
M  V30 800 C 70.4177 1.66436 1.59899 0
M  V30 801 C 71.3877 0.505793 1.58212 0
M  V30 802 O 72.5727 0.733202 1.7615 0
M  V30 803 C 69.7127 1.7399 2.98029 0
M  V30 804 C 68.8257 3.01172 3.09708 0
M  V30 805 C 67.9607 2.99686 4.38591 0
M  V30 806 C 66.9997 4.21434 4.43914 0
M  V30 807 N 66.1367 4.1784 5.64229 0
M  V30 808 H 70.9767 2.60459 1.44793 0
M  V30 809 H 68.5137 1.29137 0.704423 0
M  V30 810 H 70.4717 1.76352 3.78095 0
M  V30 811 H 69.1017 0.834301 3.11832 0
M  V30 812 H 68.1537 3.08408 2.22685 0
M  V30 813 H 69.4657 3.91165 3.09502 0
M  V30 814 H 68.6197 3.00628 5.2698 0
M  V30 815 H 67.3587 2.07477 4.41367 0
M  V30 816 H 66.3637 4.20733 3.53926 0
M  V30 817 H 67.5887 5.14839 4.42851 0
M  V30 818 H 65.5347 3.28469 5.67841 0
M  V30 819 H 65.4517 5.01571 5.65652 0
M  V30 820 H 66.7197 4.22889 6.54817 0
M  V30 821 N 70.9488 -0.749086 1.3866 0
M  V30 822 C 71.8958 -1.86291 1.36251 0
M  V30 823 C 72.8658 -1.64578 0.224347 0
M  V30 824 O 74.0508 -1.86181 0.417279 0
M  V30 825 C 71.1908 -3.23644 1.19786 0
M  V30 826 C 70.3038 -3.57158 2.43027 0
M  V30 827 C 69.4388 -4.83838 2.19258 0
M  V30 828 C 68.4778 -5.10152 3.38247 0
M  V30 829 N 67.6148 -6.28029 3.13884 0
M  V30 830 H 72.4548 -1.87685 2.3147 0
M  V30 831 H 69.9918 -0.917287 1.14997 0
M  V30 832 H 71.9498 -4.0291 1.08254 0
M  V30 833 H 70.5798 -3.21566 0.282031 0
M  V30 834 H 69.6318 -2.72701 2.65214 0
M  V30 835 H 70.9438 -3.7253 3.31697 0
M  V30 836 H 70.0978 -5.71057 2.04888 0
M  V30 837 H 68.8368 -4.70614 1.2796 0
M  V30 838 H 67.8418 -4.21401 3.53131 0
M  V30 839 H 69.0668 -5.25271 4.30427 0
M  V30 840 H 67.0128 -6.1612 2.25238 0
M  V30 841 H 66.9298 -6.43922 3.96106 0
M  V30 842 H 68.1978 -7.18124 3.03179 0
M  V30 843 N 72.4269 -1.23603 -0.977757 0
M  V30 844 C 73.6749 -1.06759 -1.71601 0
M  V30 845 C 73.9959 0.395929 -1.90938 0
M  V30 846 O 73.2659 1.28356 -1.47992 0
M  V30 847 H 71.8459 -0.392062 -0.635843 0
M  V30 848 H 74.5079 -1.55362 -1.1768 0
M  V30 849 H 73.6039 -1.55763 -2.70452 0
M  V30 850 N 73.905 1.17692 -1.04816 0
M  V30 851 C 74.868 2.19787 -0.650117 0
M  V30 852 C 75.868 1.58044 0.296427 0
M  V30 853 O 77.058 1.74012 0.0808097 0
M  V30 854 C 74.19 3.40869 0.0456987 0
M  V30 855 H 75.383 2.56516 -1.5537 0
M  V30 856 H 72.936 1.31708 -0.841594 0
M  V30 857 H 73.671 3.09681 0.962726 0
M  V30 858 H 73.456 3.86928 -0.634727 0
M  V30 859 H 74.946 4.16445 0.310432 0
M  V30 860 N 75.3831 0.828654 1.34056 0
M  V30 861 C 76.6601 0.341809 1.9259 0
M  V30 862 C 77.0401 -1.17158 1.75605 0
M  V30 863 O 76.3881 -1.98132 1.13824 0
M  V30 864 C 76.5981 0.777453 3.4023 0
M  V30 865 C 77.9461 0.779579 4.17382 0
M  V30 866 O 78.9701 0.7204 3.48839 0
M  V30 867 O 77.8291 0.857996 5.39723 0
M  V30 868 H 74.9231 0.0946085 0.821571 0
M  V30 869 H 77.4691 0.913827 1.42994 0
M  V30 870 H 76.2411 1.8196 3.46419 0
M  V30 871 H 75.8641 0.181444 3.97186 0
M  V30 872 N 76.8612 -1.46375 0.584142 0
M  V30 873 C 78.1072 -2.02678 0.0703716 0
M  V30 874 C 78.4402 -1.4545 -1.28678 0
M  V30 875 O 77.7152 -0.62014 -1.84349 0
M  V30 876 C 77.9982 -3.60099 0.00614674 0
M  V30 877 C 77.8512 -4.27709 1.3923 0
M  V30 878 C 79.1702 -4.34598 -0.693742 0
M  V30 879 H 76.2892 -0.736504 0.027047 0
M  V30 880 H 78.9312 -1.74501 0.751615 0
M  V30 881 H 77.0812 -3.84236 -0.574009 0
M  V30 882 H 78.7532 -4.14832 2.01773 0
M  V30 883 H 76.9962 -3.87016 1.95962 0
M  V30 884 H 77.6672 -5.36478 1.29982 0
M  V30 885 H 80.1432 -4.15615 -0.200869 0
M  V30 886 H 79.0192 -5.44318 -0.707714 0
M  V30 887 H 79.2802 -4.05759 -1.75533 0
M  V30 888 N 78.3393 -0.321999 -1.54275 0
M  V30 889 C 79.5853 0.274234 -2.01543 0
M  V30 890 C 79.9403 1.499 -1.20614 0
M  V30 891 O 79.2333 1.89546 -0.279804 0
M  V30 892 C 79.4273 0.661769 -3.5122 0
M  V30 893 C 79.2563 -0.523892 -4.46638 0
M  V30 894 C 78.0263 -1.02251 -4.94846 0
M  V30 895 C 80.2243 -1.37558 -4.95563 0
M  V30 896 N 78.2063 -2.17274 -5.74165 0
M  V30 897 C 79.5773 -2.37301 -5.7279 0
M  V30 898 C 81.6323 -1.40353 -4.77709 0
M  V30 899 C 80.3353 -3.3964 -6.34064 0
M  V30 900 C 82.3613 -2.41562 -5.39817 0
M  V30 901 C 81.7233 -3.40031 -6.16894 0
M  V30 902 H 77.8223 0.0642367 -0.779357 0
M  V30 903 H 80.4063 -0.456683 -1.89268 0
M  V30 904 H 78.5773 1.36182 -3.63743 0
M  V30 905 H 80.3093 1.23934 -3.85256 0
M  V30 906 H 77.0643 -0.594046 -4.6986 0
M  V30 907 H 77.4883 -2.75289 -6.18502 0
M  V30 908 H 82.1303 -0.655907 -4.17681 0
M  V30 909 H 79.8483 -4.15309 -6.93213 0
M  V30 910 H 83.4343 -2.44524 -5.2792 0
M  V30 911 H 82.3143 -4.17063 -6.64099 0
M  V30 912 N 79.8174 1.5752 -0.0501392 0
M  V30 913 C 81.0644 1.9265 0.623874 0
M  V30 914 C 81.3924 0.928411 1.70912 0
M  V30 915 O 80.6474 -0.0594525 1.9561 0
M  V30 916 C 80.9464 3.34467 1.25963 0
M  V30 917 C 80.6124 4.49883 0.302689 0
M  V30 918 C 79.2744 4.81184 0.0393636 0
M  V30 919 C 81.6264 5.20002 -0.353205 0
M  V30 920 C 78.9544 5.79951 -0.887308 0
M  V30 921 C 81.3064 6.1976 -1.26806 0
M  V30 922 C 79.9704 6.49491 -1.54007 0
M  V30 923 H 79.2404 0.704957 0.228292 0
M  V30 924 H 81.8874 1.91146 -0.116398 0
M  V30 925 H 80.1924 3.32333 2.07514 0
M  V30 926 H 81.8894 3.58928 1.78806 0
M  V30 927 H 78.4794 4.25457 0.518109 0
M  V30 928 H 82.6634 4.96033 -0.162854 0
M  V30 929 H 77.9194 6.01322 -1.10553 0
M  V30 930 H 82.0934 6.73205 -1.78236 0
M  V30 931 H 79.7204 7.25837 -2.25976 0
M  V30 932 N 81.2955 -0.223234 1.56011 0
M  V30 933 C 82.2425 -1.27664 1.92277 0
M  V30 934 C 83.2125 -1.46659 0.779763 0
M  V30 935 O 84.3975 -1.60256 1.03551 0
M  V30 936 C 81.5375 -2.62234 2.24338 0
M  V30 937 C 80.6505 -2.51051 3.51564 0
M  V30 938 C 79.7855 -3.78133 3.7308 0
M  V30 939 C 78.8245 -3.61665 4.93827 0
M  V30 940 N 77.9615 -4.80693 5.11741 0
M  V30 941 H 82.8015 -0.960358 2.82101 0
M  V30 942 H 80.3385 -0.462901 1.39627 0
M  V30 943 H 82.2965 -3.40596 2.40936 0
M  V30 944 H 80.9265 -2.91961 1.3769 0
M  V30 945 H 79.9785 -1.64132 3.43169 0
M  V30 946 H 81.2905 -2.34803 4.40079 0
M  V30 947 H 80.4445 -4.64938 3.89766 0
M  V30 948 H 79.1835 -3.97304 2.82844 0
M  V30 949 H 78.1885 -2.73244 4.77093 0
M  V30 950 H 79.4135 -3.43966 5.85546 0
M  V30 951 H 77.3595 -5.00181 4.24446 0
M  V30 952 H 77.2765 -4.67165 5.94384 0
M  V30 953 H 78.5445 -5.6893 5.3286 0
M  V30 954 N 82.7736 -1.49793 -0.48987 0
M  V30 955 C 83.6836 -1.70036 -1.61632 0
M  V30 956 C 84.6996 -0.583102 -1.63939 0
M  V30 957 O 85.8756 -0.859169 -1.82154 0
M  V30 958 C 82.9406 -1.77277 -2.97949 0
M  V30 959 C 82.0016 -3.00918 -3.06181 0
M  V30 960 C 81.2346 -3.07804 -4.35996 0
M  V30 961 O 81.4576 -2.21982 -5.25433 0
M  V30 962 O 80.3916 -4.00369 -4.49431 0
M  V30 963 H 84.2176 -2.65486 -1.47482 0
M  V30 964 H 81.8026 -1.33666 -0.667362 0
M  V30 965 H 83.6846 -1.84329 -3.78947 0
M  V30 966 H 82.3596 -0.850076 -3.12339 0
M  V30 967 H 81.2666 -2.99377 -2.2433 0
M  V30 968 H 82.5996 -3.92704 -2.96723 0
M  V30 969 N 84.2517 0.741722 -1.39055 0
M  V30 970 C 85.1817 1.869 -1.39966 0
M  V30 971 C 86.1627 1.6804 -0.26392 0
M  V30 972 O 87.3477 1.88458 -0.468755 0
M  V30 973 C 84.4777 3.24572 -1.23574 0
M  V30 974 C 83.4317 3.58056 -2.34477 0
M  V30 975 C 82.7577 4.94593 -2.0318 0
M  V30 976 C 84.0577 3.61716 -3.76774 0
M  V30 977 H 85.7517 1.86395 -2.34302 0
M  V30 978 H 83.2977 0.895361 -1.1278 0
M  V30 979 H 85.2507 4.031 -1.22834 0
M  V30 980 H 83.9747 3.25587 -0.257045 0
M  V30 981 H 82.6337 2.81854 -2.34423 0
M  V30 982 H 82.2817 4.92181 -1.03765 0
M  V30 983 H 81.9817 5.17964 -2.77465 0
M  V30 984 H 83.5057 5.75486 -2.04079 0
M  V30 985 H 84.9197 4.30335 -3.78794 0
M  V30 986 H 83.3167 3.96603 -4.50362 0
M  V30 987 H 84.3867 2.61672 -4.08235 0
M  V30 988 N 85.7298 1.2412 0.971189 0
M  V30 989 C 87.0068 0.986867 1.6888 0
M  V30 990 C 87.3868 -0.491857 2.0529 0
M  V30 991 O 86.7348 -1.46531 1.75331 0
M  V30 992 C 86.9448 1.9063 2.92338 0
M  V30 993 C 88.2928 2.17515 3.64654 0
M  V30 994 O 89.3168 1.88254 3.02388 0
M  V30 995 O 88.1758 2.6719 4.7673 0
M  V30 996 H 85.2698 0.372944 0.738134 0
M  V30 997 H 87.8158 1.35203 1.02559 0
M  V30 998 H 86.5878 2.90552 2.62097 0
M  V30 999 H 86.2108 1.54408 3.66393 0
M  V30 1000 N 87.2079 -1.17134 1.05439 0
M  V30 1001 C 88.4569 -1.86791 0.761049 0
M  V30 1002 C 88.7699 -1.82072 -0.714795 0
M  V30 1003 O 89.9759 -2.47223 -1.12218 0
M  V30 1004 C 88.4319 -3.35166 1.31117 0
M  V30 1005 C 88.0399 -3.48381 2.81664 0
M  V30 1006 C 89.7839 -4.10134 1.09499 0
M  V30 1007 C 87.6909 -4.90793 3.29964 0
M  V30 1008 H 86.6209 -0.699681 0.281002 0
M  V30 1009 H 89.2719 -1.3226 1.27199 0
M  V30 1010 H 87.6539 -3.8925 0.72803 0
M  V30 1011 H 88.8279 -3.04502 3.45855 0
M  V30 1012 H 87.1429 -2.86836 3.01851 0
M  V30 1013 H 89.7399 -5.152 1.43084 0
M  V30 1014 H 90.0829 -4.16287 0.0328772 0
M  V30 1015 H 90.6159 -3.62264 1.64346 0
M  V30 1016 H 87.3549 -4.89816 4.35616 0
M  V30 1017 H 86.8749 -5.35333 2.70516 0
M  V30 1018 H 88.5539 -5.59573 3.24787 0
M  V30 1019 N 88.686 -0.835752 -1.33615 0
M  V30 1020 C 89.634 -0.255238 -2.31195 0
M  V30 1021 C 90.628 0.61107 -1.57995 0
M  V30 1022 O 91.834 0.500979 -1.72888 0
M  V30 1023 H 88.209 -0.0638085 -0.749288 0
M  V30 1024 H 90.18 -1.09283 -2.77669 0
M  V30 1025 C 88.929 0.55754 -3.43201 0
M  V30 1026 H 88.252 -0.0997553 -3.99676 0
M  V30 1027 H 89.692 0.929622 -4.13683 0
M  V30 1028 C 88.151 1.73515 -2.88781 0
M  V30 1029 O 88.681 2.83376 -2.84712 0
M  V30 1030 N 86.887 1.55603 -2.4543 0
M  V30 1031 H 86.434 0.662354 -2.48939 0
M  V30 1032 H 86.392 2.34545 -2.09371 0
M  V30 1033 N 90.1641 1.46063 -0.591896 0
M  V30 1034 C 91.3921 2.06717 -0.0868936 0
M  V30 1035 C 91.8071 1.43916 1.22203 0
M  V30 1036 O 91.1641 0.547698 1.74088 0
M  V30 1037 C 91.2151 3.6142 0.0758725 0
M  V30 1038 O 90.9361 4.21874 -1.18126 0
M  V30 1039 C 92.4371 4.39025 0.61416 0
M  V30 1040 H 89.6571 0.668162 -0.0616518 0
M  V30 1041 H 92.2011 1.8755 -0.815175 0
M  V30 1042 H 90.3561 3.79983 0.754413 0
M  V30 1043 H 90.7701 5.14861 -1.00092 0
M  V30 1044 H 92.2441 5.4783 0.677193 0
M  V30 1045 H 92.7211 4.07708 1.63312 0
M  V30 1046 H 93.3271 4.2529 -0.0298142 0
M  V30 1047 N 91.6422 0.330177 1.54103 0
M  V30 1048 C 92.9192 -0.325007 1.92881 0
M  V30 1049 C 93.2992 -1.6934 1.26045 0
M  V30 1050 O 92.6472 -2.24855 0.406526 0
M  V30 1051 C 92.8572 -0.410634 3.46576 0
M  V30 1052 C 94.2052 -0.667801 4.19316 0
M  V30 1053 O 95.2292 -0.49329 3.52768 0
M  V30 1054 O 94.0882 -1.00491 5.37181 0
M  V30 1055 H 91.1822 -0.186873 0.80561 0
M  V30 1056 H 93.7282 0.380376 1.65382 0
M  V30 1057 H 92.5002 0.550164 3.87413 0
M  V30 1058 H 92.1232 -1.16333 3.802 0
M  V30 1059 N 93.1203 -1.57491 0.0584922 0
M  V30 1060 C 94.3683 -1.92597 -0.612436 0
M  V30 1061 C 94.6893 -0.938162 -1.70949 0
M  V30 1062 O 93.9593 0.0158301 -1.95894 0
M  V30 1063 H 92.5393 -0.710964 -0.229214 0
M  V30 1064 H 95.2013 -1.94571 0.113218 0
M  V30 1065 H 94.2973 -2.94038 -1.04633 0
M  V30 1066 N 94.5984 0.214957 -1.56127 0
M  V30 1067 C 95.5614 1.24997 -1.92116 0
M  V30 1068 C 96.5614 1.39467 -0.800344 0
M  V30 1069 O 97.7514 1.37619 -1.06802 0
M  V30 1070 C 94.8834 2.62271 -2.17777 0
M  V30 1071 H 96.0764 0.942875 -2.84693 0
M  V30 1072 H 93.6294 0.455654 -1.49511 0
M  V30 1073 H 94.3644 2.98068 -1.27773 0
M  V30 1074 H 94.1494 2.53143 -2.99434 0
M  V30 1075 H 95.6394 3.36946 -2.46693 0
M  V30 1076 N 96.0765 1.50051 0.48192 0
M  V30 1077 C 97.3225 1.60736 1.2366 0
M  V30 1078 C 97.6555 0.301786 1.91841 0
M  V30 1079 O 96.9305 -0.696025 1.8162 0
M  V30 1080 C 97.2135 2.78009 2.28874 0
M  V30 1081 C 97.0665 4.18416 1.65069 0
M  V30 1082 C 98.3855 2.90867 3.30279 0
M  V30 1083 H 95.5045 0.585031 0.448228 0
M  V30 1084 H 98.1465 1.82402 0.531946 0
M  V30 1085 H 96.2965 2.59667 2.88973 0
M  V30 1086 H 97.9685 4.48322 1.0865 0
M  V30 1087 H 96.2115 4.23177 0.954148 0
M  V30 1088 H 96.8825 4.96381 2.41474 0
M  V30 1089 H 99.3585 3.07623 2.80191 0
M  V30 1090 H 98.2345 3.74566 4.01238 0
M  V30 1091 H 98.4955 2.01021 3.93755 0
M  V30 1092 N 97.5546 -0.734337 1.39446 0
M  V30 1093 C 98.5026 -1.86971 1.38364 0
M  V30 1094 C 99.4966 -1.67288 0.266687 0
M  V30 1095 O 100.703 -1.74621 0.436755 0
M  V30 1096 H 97.0776 -0.615474 0.432082 0
M  V30 1097 H 99.0486 -1.85 2.34132 0
M  V30 1098 C 97.7976 -3.2466 1.24465 0
M  V30 1099 H 97.1206 -3.40402 2.09682 0
M  V30 1100 H 98.5606 -4.04292 1.27764 0
M  V30 1101 C 97.0196 -3.36867 -0.0468674 0
M  V30 1102 O 97.5496 -3.88618 -1.01681 0
M  V30 1103 N 95.7556 -2.90391 -0.110145 0
M  V30 1104 H 95.3026 -2.48466 0.679868 0
M  V30 1105 H 95.2606 -2.98939 -0.973799 0
M  V30 1106 N 99.0327 -1.24633 -0.964593 0
M  V30 1107 C 100.28 -1.08788 -1.70796 0
M  V30 1108 C 100.608 0.372783 -1.90894 0
M  V30 1109 O 99.8627 1.29167 -1.47018 0
M  V30 1110 C 100.162 -1.7763 -3.10133 0
M  V30 1111 C 99.8277 -3.27557 -3.09866 0
M  V30 1112 C 98.4897 -3.6846 -3.09501 0
M  V30 1113 C 100.842 -4.23389 -3.03959 0
M  V30 1114 C 98.1697 -5.03624 -3.00965 0
M  V30 1115 C 100.522 -5.58565 -2.96965 0
M  V30 1116 C 99.1857 -5.98809 -2.9493 0
M  V30 1117 H 98.4557 -0.398084 -0.624988 0
M  V30 1118 H 101.103 -1.54777 -1.12767 0
M  V30 1119 H 99.4077 -1.24044 -3.71645 0
M  V30 1120 H 101.105 -1.62832 -3.66451 0
M  V30 1121 H 97.6947 -2.95006 -3.10917 0
M  V30 1122 H 101.879 -3.92787 -3.03368 0
M  V30 1123 H 97.1347 -5.33998 -2.97752 0
M  V30 1124 H 101.309 -6.32523 -2.91354 0
M  V30 1125 H 98.9357 -7.03505 -2.88071 0
M  V30 1126 N 100.511 1.16574 -1.06058 0
M  V30 1127 C 101.443 2.2045 -0.627239 0
M  V30 1128 C 102.456 1.59752 0.313534 0
M  V30 1129 O 103.645 1.78192 0.104896 0
M  V30 1130 C 100.745 3.3875 0.100974 0
M  V30 1131 C 99.9178 4.29008 -0.852687 0
M  V30 1132 C 98.9768 5.25944 -0.164152 0
M  V30 1133 O 98.0028 5.63535 -0.801047 0
M  V30 1134 N 99.2048 5.70075 1.09518 0
M  V30 1135 H 101.97 2.58249 -1.52077 0
M  V30 1136 H 99.5308 1.3156 -0.943594 0
M  V30 1137 H 101.523 4.00638 0.57194 0
M  V30 1138 H 100.093 2.99476 0.89628 0
M  V30 1139 H 99.3128 3.64419 -1.50308 0
M  V30 1140 H 100.601 4.86195 -1.49972 0
M  V30 1141 H 99.9988 5.41624 1.6328 0
M  V30 1142 H 98.5558 6.34067 1.51006 0
M  V30 1143 N 101.989 0.842826 1.3317 0
M  V30 1144 C 102.899 0.281444 2.32906 0
M  V30 1145 C 103.915 -0.594587 1.63526 0
M  V30 1146 O 105.091 -0.49777 1.95152 0
M  V30 1147 C 102.156 -0.530929 3.42611 0
M  V30 1148 C 101.217 0.369843 4.27704 0
M  V30 1149 C 100.45 -0.403853 5.3217 0
M  V30 1150 O 100.673 -1.63513 5.46461 0
M  V30 1151 O 99.6069 0.224199 6.01482 0
M  V30 1152 H 103.433 1.10744 2.82789 0
M  V30 1153 H 101.018 0.60545 1.36582 0
M  V30 1154 H 102.9 -0.992437 4.09547 0
M  V30 1155 H 101.575 -1.33392 2.94938 0
M  V30 1156 H 100.482 0.879275 3.6362 0
M  V30 1157 H 101.815 1.13771 4.78871 0
M  V30 1158 N 103.467 -1.45747 0.599634 0
M  V30 1159 C 104.714 -2.02292 0.0917284 0
M  V30 1160 C 105.042 -1.46906 -1.27472 0
M  V30 1161 O 104.297 -0.630652 -1.8526 0
M  V30 1162 C 104.596 -3.57399 -0.00602758 0
M  V30 1163 C 104.262 -4.31902 1.29503 0
M  V30 1164 C 102.924 -4.51974 1.65144 0
M  V30 1165 C 105.276 -4.74551 2.15525 0
M  V30 1166 C 102.604 -5.11949 2.86574 0
M  V30 1167 C 104.956 -5.35868 3.36196 0
M  V30 1168 C 103.62 -5.54165 3.72099 0
M  V30 1169 H 102.89 -0.740239 0.0335658 0
M  V30 1170 H 105.537 -1.7491 0.779661 0
M  V30 1171 H 103.842 -3.84014 -0.777183 0
M  V30 1172 H 105.539 -3.98846 -0.415038 0
M  V30 1173 H 102.129 -4.16588 1.00761 0
M  V30 1174 H 106.313 -4.58784 1.8929 0
M  V30 1175 H 101.569 -5.24305 3.14507 0
M  V30 1176 H 105.743 -5.6787 4.03109 0
M  V30 1177 H 103.37 -6.00406 4.6628 0
M  V30 1178 N 104.945 -0.338344 -1.53925 0
M  V30 1179 C 105.875 0.51328 -2.27789 0
M  V30 1180 C 106.856 1.107 -1.29149 0
M  V30 1181 O 108.041 1.12937 -1.57984 0
M  V30 1182 C 105.171 1.66697 -3.04679 0
M  V30 1183 C 104.125 1.20183 -4.1078 0
M  V30 1184 C 103.451 2.44363 -4.75595 0
M  V30 1185 C 104.751 0.30605 -5.21403 0
M  V30 1186 H 106.445 -0.102883 -2.99223 0
M  V30 1187 H 103.991 -0.0509219 -1.4391 0
M  V30 1188 H 105.944 2.26915 -3.55088 0
M  V30 1189 H 104.668 2.30995 -2.30887 0
M  V30 1190 H 103.327 0.622499 -3.61276 0
M  V30 1191 H 102.975 3.07057 -3.98403 0
M  V30 1192 H 102.675 2.13925 -5.47275 0
M  V30 1193 H 104.199 3.05317 -5.28786 0
M  V30 1194 H 105.613 0.814929 -5.67478 0
M  V30 1195 H 104.01 0.0937929 -6.00027 0
M  V30 1196 H 105.08 -0.65921 -4.80398 0
M  V30 1197 N 106.423 1.57458 -0.0668435 0
M  V30 1198 C 107.672 1.92477 0.602947 0
M  V30 1199 C 107.985 0.948419 1.71068 0
M  V30 1200 O 109.191 1.19124 2.43971 0
M  V30 1201 C 107.647 3.41903 1.12383 0
M  V30 1202 C 107.255 4.47975 0.04737 0
M  V30 1203 C 108.999 3.85931 1.76797 0
M  V30 1204 C 106.906 5.88529 0.582022 0
M  V30 1205 H 105.836 0.718387 0.22899 0
M  V30 1206 H 108.487 1.82978 -0.138276 0
M  V30 1207 H 106.869 3.46459 1.91787 0
M  V30 1208 H 108.043 4.55029 -0.726978 0
M  V30 1209 H 106.358 4.13384 -0.500243 0
M  V30 1210 H 108.955 4.88322 2.17821 0
M  V30 1211 H 109.298 3.23029 2.62599 0
M  V30 1212 H 109.831 3.83958 1.04024 0
M  V30 1213 H 106.57 6.55065 -0.238721 0
M  V30 1214 H 106.09 5.85004 1.324 0
M  V30 1215 H 107.769 6.38258 1.05999 0
M  V30 1216 N 107.901 -0.206675 1.56239 0
M  V30 1217 C 108.831 -1.25909 1.96645 0
M  V30 1218 C 109.812 -1.48097 0.836734 0
M  V30 1219 O 110.997 -1.6003 1.10019 0
M  V30 1220 C 108.127 -2.6058 2.29599 0
M  V30 1221 C 107.081 -2.53024 3.452 0
M  V30 1222 C 106.407 -3.91861 3.63798 0
M  V30 1223 C 107.707 -2.06524 4.79734 0
M  V30 1224 H 109.401 -0.923369 2.84806 0
M  V30 1225 H 106.947 -0.442735 1.37025 0
M  V30 1226 H 108.9 -3.34375 2.56459 0
M  V30 1227 H 107.624 -2.95869 1.38307 0
M  V30 1228 H 106.283 -1.81684 3.18412 0
M  V30 1229 H 105.931 -4.24483 2.69857 0
M  V30 1230 H 105.631 -3.87683 4.4156 0
M  V30 1231 H 107.155 -4.67296 3.93022 0
M  V30 1232 H 108.569 -2.70072 5.05702 0
M  V30 1233 H 106.966 -2.13374 5.60885 0
M  V30 1234 H 108.036 -1.01802 4.74093 0
M  V30 1235 N 109.379 -1.50304 -0.473955 0
M  V30 1236 C 110.625 -1.61389 -1.22806 0
M  V30 1237 C 110.958 -0.311955 -1.91678 0
M  V30 1238 O 110.233 0.686384 -1.81986 0
M  V30 1239 C 110.516 -2.79219 -2.27396 0
M  V30 1240 C 110.369 -4.19286 -1.62848 0
M  V30 1241 C 111.688 -2.92614 -3.28732 0
M  V30 1242 H 108.807 -0.587399 -0.445119 0
M  V30 1243 H 111.449 -1.82681 -0.522265 0
M  V30 1244 H 109.599 -2.61195 -2.87592 0
M  V30 1245 H 111.271 -4.48892 -1.06271 0
M  V30 1246 H 109.514 -4.23677 -0.931693 0
M  V30 1247 H 110.185 -4.97655 -2.38838 0
M  V30 1248 H 112.661 -3.09105 -2.78556 0
M  V30 1249 H 111.537 -3.76688 -3.99246 0
M  V30 1250 H 111.798 -2.03107 -3.92683 0
M  V30 1251 N 110.857 0.726932 -1.39834 0
M  V30 1252 C 112.106 1.48214 -1.36805 0
M  V30 1253 C 112.419 1.95576 0.0305291 0
M  V30 1254 O 113.625 2.7088 0.183417 0
M  V30 1255 C 112.081 2.67854 -2.40379 0
M  V30 1256 C 111.689 2.27408 -3.85992 0
M  V30 1257 C 113.433 3.45641 -2.46439 0
M  V30 1258 C 111.34 3.43819 -4.81189 0
M  V30 1259 H 110.27 0.556606 -0.508631 0
M  V30 1260 H 112.921 0.792216 -1.65518 0
M  V30 1261 H 111.303 3.3896 -2.04749 0
M  V30 1262 H 112.477 1.63795 -4.30706 0
M  V30 1263 H 110.792 1.62692 -3.83302 0
M  V30 1264 H 113.389 4.32244 -3.14753 0
M  V30 1265 H 113.732 3.88669 -1.49139 0
M  V30 1266 H 114.265 2.8157 -2.81004 0
M  V30 1267 H 111.004 3.05834 -5.79781 0
M  V30 1268 H 110.524 4.06385 -4.41148 0
M  V30 1269 H 112.203 4.10043 -5.00474 0
M  V30 1270 N 112.336 1.25143 0.95797 0
M  V30 1271 C 113.283 1.05235 2.05412 0
M  V30 1272 C 114.253 -0.0374561 1.66058 0
M  V30 1273 O 115.438 0.119073 1.90428 0
M  V30 1274 C 112.578 0.673589 3.38462 0
M  V30 1275 C 111.691 1.8379 3.90954 0
M  V30 1276 C 110.826 1.40381 5.12315 0
M  V30 1277 C 109.865 2.53746 5.57027 0
M  V30 1278 N 109.002 2.11136 6.69601 0
M  V30 1279 H 113.842 1.99048 2.21774 0
M  V30 1280 H 111.379 0.991277 1.08683 0
M  V30 1281 H 113.337 0.434964 4.14926 0
M  V30 1282 H 111.967 -0.227554 3.21997 0
M  V30 1283 H 111.019 2.18992 3.11041 0
M  V30 1284 H 112.331 2.68937 4.20089 0
M  V30 1285 H 111.485 1.12464 5.96185 0
M  V30 1286 H 110.224 0.523015 4.84887 0
M  V30 1287 H 109.229 2.82412 4.71724 0
M  V30 1288 H 110.454 3.42398 5.86464 0
M  V30 1289 H 108.4 1.25468 6.4389 0
M  V30 1290 H 108.317 2.89832 6.98236 0
M  V30 1291 H 109.585 1.86385 7.56889 0
M  V30 1292 N 113.814 -1.1601 1.06675 0
M  V30 1293 C 114.747 -2.1947 0.625168 0
M  V30 1294 C 115.725 -1.58699 -0.354041 0
M  V30 1295 O 116.909 -1.86669 -0.262098 0
M  V30 1296 C 114.036 -3.38598 -0.0829593 0
M  V30 1297 C 113.082 -4.1787 0.853611 0
M  V30 1298 S 113.915 -4.81135 2.35094 0
M  V30 1299 C 115.071 -6.03639 1.65441 0
M  V30 1300 H 115.304 -2.56587 1.50168 0
M  V30 1301 H 112.837 -1.26862 0.880078 0
M  V30 1302 H 114.795 -4.07621 -0.485288 0
M  V30 1303 H 113.456 -2.99839 -0.935716 0
M  V30 1304 H 112.649 -5.03078 0.304755 0
M  V30 1305 H 112.251 -3.54361 1.196 0
M  V30 1306 H 114.543 -6.70632 0.962201 0
M  V30 1307 H 115.486 -6.63081 2.48454 0
M  V30 1308 H 115.894 -5.52965 1.13534 0
M  V30 1309 N 115.292 -0.849877 -1.32721 0
M  V30 1310 C 116.54 -0.450032 -1.97026 0
M  V30 1311 C 116.861 0.996604 -1.67609 0
M  V30 1312 O 116.131 1.6958 -0.980786 0
M  V30 1313 H 114.711 -0.163426 -0.728904 0
M  V30 1314 H 117.373 -1.08526 -1.6189 0
M  V30 1315 H 116.469 -0.591146 -3.0645 0
M  V30 1316 N 116.77 1.45427 -0.607355 0
M  V30 1317 C 118.016 2.0254 -0.102607 0
M  V30 1318 C 118.349 1.47478 1.26348 0
M  V30 1319 O 117.624 0.64939 1.83339 0
M  V30 1320 C 117.907 3.60044 -0.0634347 0
M  V30 1321 C 117.76 4.2544 -1.46017 0
M  V30 1322 C 119.079 4.35646 0.624514 0
M  V30 1323 H 116.198 0.73598 -0.0387607 0
M  V30 1324 H 118.84 1.73284 -0.779282 0
M  V30 1325 H 116.99 3.85101 0.512808 0
M  V30 1326 H 118.662 4.11569 -2.08347 0
M  V30 1327 H 116.905 3.83849 -2.02094 0
M  V30 1328 H 117.576 5.34342 -1.385 0
M  V30 1329 H 120.052 4.15882 0.134723 0
M  V30 1330 H 118.928 5.45376 0.621028 0
M  V30 1331 H 119.189 4.08501 1.69055 0
M  V30 1332 N 118.248 0.346503 1.53744 0
M  V30 1333 C 119.211 -0.496439 2.23759 0
M  V30 1334 C 120.211 -1.0252 1.2388 0
M  V30 1335 O 121.401 -0.913974 1.48297 0
M  V30 1336 C 118.533 -1.69187 2.95954 0
M  V30 1337 H 119.726 0.115952 2.99676 0
M  V30 1338 H 117.279 0.0978939 1.55993 0
M  V30 1339 H 118.014 -2.34288 2.24231 0
M  V30 1340 H 117.799 -1.31989 3.69217 0
M  V30 1341 H 119.289 -2.28969 3.49232 0
M  V30 1342 N 119.726 -1.57421 0.075193 0
M  V30 1343 C 120.689 -2.11791 -0.876203 0
M  V30 1344 C 121.689 -1.04268 -1.22412 0
M  V30 1345 O 122.879 -1.30242 -1.15684 0
M  V30 1346 C 120.011 -2.62207 -2.17854 0
M  V30 1347 H 121.204 -2.9716 -0.40444 0
M  V30 1348 H 118.757 -1.55333 -0.173557 0
M  V30 1349 H 119.492 -1.803 -2.6956 0
M  V30 1350 H 119.277 -3.40802 -1.93897 0
M  V30 1351 H 120.767 -3.04335 -2.85955 0
M  V30 1352 N 121.204 0.198386 -1.56346 0
M  V30 1353 C 122.154 1.2499 -1.90687 0
M  V30 1354 C 123.138 1.41158 -0.772217 0
M  V30 1355 O 124.33 1.43584 -1.03502 0
M  V30 1356 C 121.459 2.59542 -2.24706 0
M  V30 1357 C 120.545 2.47181 -3.44619 0
M  V30 1358 N 120.936 2.04495 -4.62618 0
M  V30 1359 C 119.234 2.78082 -3.48692 0
M  V30 1360 C 119.935 2.03945 -5.44776 0
M  V30 1361 N 118.911 2.45323 -4.85095 0
M  V30 1362 H 122.713 0.911149 -2.7942 0
M  V30 1363 H 120.227 0.40684 -1.57221 0
M  V30 1364 H 122.224 3.3549 -2.47491 0
M  V30 1365 H 120.884 2.94244 -1.37298 0
M  V30 1366 H 121.895 1.75256 -4.87345 0
M  V30 1367 H 118.572 3.17002 -2.71691 0
M  V30 1368 H 119.962 1.72872 -6.4928 0
M  V30 1369 N 122.682 1.50554 0.465978 0
M  V30 1370 C 123.629 1.6979 1.56333 0
M  V30 1371 C 124.599 0.539239 1.57103 0
M  V30 1372 O 125.784 0.770401 1.74555 0
M  V30 1373 C 122.924 1.80273 2.94271 0
M  V30 1374 C 122.037 3.07674 3.0325 0
M  V30 1375 C 121.172 3.08922 4.32135 0
M  V30 1376 C 120.211 4.30755 4.34875 0
M  V30 1377 N 119.348 4.29714 5.55239 0
M  V30 1378 H 124.188 2.63472 1.39235 0
M  V30 1379 H 121.725 1.30602 0.676873 0
M  V30 1380 H 123.683 1.84332 3.74269 0
M  V30 1381 H 122.313 0.900258 3.09992 0
M  V30 1382 H 121.365 3.13062 2.16094 0
M  V30 1383 H 122.677 3.97642 3.01135 0
M  V30 1384 H 121.831 3.11738 5.20485 0
M  V30 1385 H 120.57 2.16792 4.36866 0
M  V30 1386 H 119.575 4.28146 3.44922 0
M  V30 1387 H 120.8 5.24117 4.31831 0
M  V30 1388 H 118.746 3.4044 5.60746 0
M  V30 1389 H 118.663 5.13456 5.54886 0
M  V30 1390 H 119.931 4.36683 6.457 0
M  V30 1391 N 124.16 -0.719506 1.40217 0
M  V30 1392 C 125.107 -1.83359 1.40172 0
M  V30 1393 C 126.077 -1.64065 0.259206 0
M  V30 1394 O 127.262 -1.85254 0.456677 0
M  V30 1395 C 124.402 -3.2103 1.26624 0
M  V30 1396 C 123.515 -3.51923 2.50548 0
M  V30 1397 C 122.65 -4.79079 2.29471 0
M  V30 1398 C 121.689 -5.02863 3.48992 0
M  V30 1399 N 120.826 -6.2123 3.27135 0
M  V30 1400 H 125.666 -1.82733 2.35399 0
M  V30 1401 H 123.203 -0.892688 1.16917 0
M  V30 1402 H 125.161 -4.00524 1.16776 0
M  V30 1403 H 123.791 -3.20895 0.350176 0
M  V30 1404 H 122.843 -2.67014 2.70939 0
M  V30 1405 H 124.155 -3.6541 3.39525 0
M  V30 1406 H 123.309 -5.66582 2.16955 0
M  V30 1407 H 122.048 -4.67794 1.37913 0
M  V30 1408 H 121.053 -4.13816 3.6199 0
M  V30 1409 H 122.278 -5.16023 4.41472 0
M  V30 1410 H 120.224 -6.11204 2.38256 0
M  V30 1411 H 120.141 -6.35375 4.09675 0
M  V30 1412 H 121.409 -7.11532 3.18344 0
M  V30 1413 N 125.638 -1.25649 -0.95132 0
M  V30 1414 C 126.863 -1.13443 -1.73624 0
M  V30 1415 C 127.288 0.307565 -1.85568 0
M  V30 1416 O 126.646 1.22282 -1.33854 0
M  V30 1417 C 126.694 -1.79723 -3.12621 0
M  V30 1418 O 125.798 -1.07912 -3.98031 0
M  V30 1419 H 125.139 -0.395872 -0.533086 0
M  V30 1420 H 127.669 -1.66276 -1.1922 0
M  V30 1421 H 127.679 -1.86141 -3.63064 0
M  V30 1422 H 126.354 -2.84633 -3.03244 0
M  V30 1423 H 124.931 -1.09398 -3.56492 0
M  V30 1424 N 127.117 1.15442 -1.07289 0
M  V30 1425 C 128.067 2.18164 -0.662467 0
M  V30 1426 C 129.051 1.57845 0.312074 0
M  V30 1427 O 130.243 1.76552 0.125905 0
M  V30 1428 C 127.372 3.43246 -0.0611295 0
M  V30 1429 C 126.458 4.1062 -1.06077 0
M  V30 1430 N 126.849 4.53491 -2.24008 0
M  V30 1431 C 125.147 4.36949 -0.893964 0
M  V30 1432 C 125.848 5.05731 -2.87422 0
M  V30 1433 N 124.824 4.99236 -2.15091 0
M  V30 1434 H 128.626 2.49038 -1.56068 0
M  V30 1435 H 126.14 1.32003 -0.945988 0
M  V30 1436 H 128.137 4.16145 0.250792 0
M  V30 1437 H 126.797 3.13854 0.832207 0
M  V30 1438 H 127.808 4.46898 -2.6173 0
M  V30 1439 H 124.485 4.17466 -0.0534693 0
M  V30 1440 H 125.875 5.48865 -3.87553 0
M  V30 1441 N 128.595 0.856903 1.32268 0
M  V30 1442 C 129.505 0.306131 2.32594 0
M  V30 1443 C 130.521 -0.577209 1.64147 0
M  V30 1444 O 131.697 -0.477043 1.95669 0
M  V30 1445 C 128.762 -0.494561 3.43154 0
M  V30 1446 C 127.823 0.415186 4.27288 0
M  V30 1447 C 127.056 -0.347387 5.32568 0
M  V30 1448 O 127.279 -1.57708 5.48165 0
M  V30 1449 O 126.213 0.287982 6.01211 0
M  V30 1450 H 130.039 1.13737 2.81598 0
M  V30 1451 H 127.624 0.619902 1.35932 0
M  V30 1452 H 129.506 -0.948944 4.10576 0
M  V30 1453 H 128.181 -1.30257 2.96336 0
M  V30 1454 H 127.088 0.917793 3.62667 0
M  V30 1455 H 128.421 1.18844 4.77637 0
M  V30 1456 N 130.073 -1.45103 0.615059 0
M  V30 1457 C 130.983 -2.34382 -0.101034 0
M  V30 1458 C 131.999 -1.51681 -0.852585 0
M  V30 1459 O 133.175 -1.8446 -0.808484 0
M  V30 1460 C 130.24 -3.29417 -1.08099 0
M  V30 1461 C 129.301 -4.28025 -0.330577 0
M  V30 1462 C 128.534 -5.1852 -1.26385 0
M  V30 1463 O 128.757 -5.12598 -2.50198 0
M  V30 1464 O 127.691 -5.97122 -0.756866 0
M  V30 1465 H 131.517 -2.97033 0.632855 0
M  V30 1466 H 129.102 -1.4461 0.375293 0
M  V30 1467 H 130.984 -3.87958 -1.6452 0
M  V30 1468 H 129.659 -2.69321 -1.79577 0
M  V30 1469 H 128.566 -3.73078 0.276283 0
M  V30 1470 H 129.899 -4.90997 0.343866 0
M  V30 1471 N 131.551 -0.354651 -1.53558 0
M  V30 1472 C 132.776 0.242153 -2.05981 0
M  V30 1473 C 133.201 1.42553 -1.2272 0
M  V30 1474 O 132.559 1.79656 -0.243604 0
M  V30 1475 C 132.607 0.624367 -3.55154 0
M  V30 1476 O 131.711 1.72301 -3.74681 0
M  V30 1477 H 131.052 0.0378432 -0.662921 0
M  V30 1478 H 133.582 -0.512087 -1.98088 0
M  V30 1479 H 133.592 0.898433 -3.97985 0
M  V30 1480 H 132.267 -0.240989 -4.15201 0
M  V30 1481 H 130.844 1.44535 -3.4375 0
M  V30 1482 N 133.029 1.57378 -0.0835403 0
M  V30 1483 C 133.979 2.09916 0.889905 0
M  V30 1484 C 134.963 1.01151 1.25129 0
M  V30 1485 O 136.155 1.27443 1.2283 0
M  V30 1486 C 133.284 2.67379 2.15322 0
M  V30 1487 C 132.37 3.83167 1.81779 0
M  V30 1488 N 132.761 4.91665 1.18739 0
M  V30 1489 C 131.059 3.92685 2.11459 0
M  V30 1490 C 131.76 5.72409 1.0355 0
M  V30 1491 N 130.736 5.21062 1.54906 0
M  V30 1492 H 134.538 2.91188 0.398378 0
M  V30 1493 H 132.052 1.61956 0.120013 0
M  V30 1494 H 134.049 3.0334 2.8599 0
M  V30 1495 H 132.709 1.87558 2.65051 0
M  V30 1496 H 133.72 5.10784 0.855604 0
M  V30 1497 H 130.397 3.23856 2.63483 0
M  V30 1498 H 131.787 6.69699 0.543425 0
M  V30 1499 N 134.507 -0.190092 1.56449 0
M  V30 1500 C 135.454 -1.23557 1.94942 0
M  V30 1501 C 136.424 -1.44972 0.810696 0
M  V30 1502 O 137.609 -1.58023 1.06927 0
M  V30 1503 C 134.749 -2.57416 2.2985 0
M  V30 1504 C 133.862 -2.43537 3.5681 0
M  V30 1505 C 132.997 -3.70134 3.81017 0
M  V30 1506 C 132.036 -3.51109 5.01387 0
M  V30 1507 N 131.173 -4.6973 5.21822 0
M  V30 1508 H 136.013 -0.900304 2.84075 0
M  V30 1509 H 133.55 -0.43318 1.40577 0
M  V30 1510 H 135.508 -3.35409 2.48106 0
M  V30 1511 H 134.138 -2.88975 1.43852 0
M  V30 1512 H 133.19 -1.56816 3.46573 0
M  V30 1513 H 134.502 -2.25415 4.4496 0
M  V30 1514 H 133.656 -4.56566 3.9954 0
M  V30 1515 H 132.395 -3.91215 2.91207 0
M  V30 1516 H 131.4 -2.63063 4.82782 0
M  V30 1517 H 132.625 -3.31468 5.9271 0
M  V30 1518 H 130.571 -4.91065 4.34961 0
M  V30 1519 H 130.488 -4.54452 6.0416 0
M  V30 1520 H 131.756 -5.57499 5.44808 0
M  V30 1521 N 135.985 -1.50799 -0.457987 0
M  V30 1522 C 136.895 -1.73426 -1.57989 0
M  V30 1523 C 137.911 -0.617745 -1.62665 0
M  V30 1524 O 139.087 -0.897614 -1.80291 0
M  V30 1525 C 136.152 -1.83557 -2.94122 0
M  V30 1526 C 135.213 -3.07345 -2.99729 0
M  V30 1527 C 134.446 -3.16983 -4.29368 0
M  V30 1528 O 134.669 -2.33077 -5.20607 0
M  V30 1529 O 133.603 -4.09812 -4.40837 0
M  V30 1530 H 137.429 -2.68555 -1.41817 0
M  V30 1531 H 135.014 -1.35052 -0.638859 0
M  V30 1532 H 136.896 -1.92326 -3.74952 0
M  V30 1533 H 135.571 -0.916137 -3.10465 0
M  V30 1534 H 134.478 -3.04068 -2.1793 0
M  V30 1535 H 135.811 -3.9891 -2.88326 0
M  V30 1536 O 137.502 0.603621 -1.49795 0
M  V30 1537 H 138.193 1.25828 -1.47265 0
M  V30 END ATOM
M  V30 BEGIN BOND
M  V30 END BOND
M  V30 END CTAB
M  END
$$$$
