drugbank_target|P05186 Alkaline phosphatase, tissue-nonspecific isozyme (DB09338)
 OpenBabel12092120343D

  0  0  0     0  0            999 V3000
M  V30 BEGIN CTAB
M  V30 COUNTS 7978 8070 0 0 0
M  V30 BEGIN ATOM
M  V30 1 H -0.908 1.98254 -0.117106 0
M  V30 2 N 0 1.576 0 0
M  V30 3 C 0.933 2.03868 1.02534 0
M  V30 4 C 1.911 0.928543 1.3348 0
M  V30 5 O 3.095 1.19667 1.45644 0
M  V30 6 C 0.222 2.43627 2.35294 0
M  V30 7 C -0.732 3.65373 2.2001 0
M  V30 8 S 0.101 5.13292 1.52614 0
M  V30 9 C 1.257 5.56322 2.86805 0
M  V30 10 H 1.49 2.90518 0.631377 0
M  V30 11 H -0.977 1.52953 0.210867 0
M  V30 12 H 0.981 2.67203 3.11629 0
M  V30 13 H -0.358 1.57376 2.7183 0
M  V30 14 H -1.165 3.90944 3.18086 0
M  V30 15 H -1.563 3.418 1.51819 0
M  V30 16 H 0.729 5.58782 3.83104 0
M  V30 17 H 1.672 6.56266 2.65933 0
M  V30 18 H 2.08 4.83886 2.90714 0
M  V30 19 N 1.4781 -0.272755 1.55222 0
M  V30 20 C 2.7271 -1.00211 1.75045 0
M  V30 21 C 3.0401 -1.87441 0.559046 0
M  V30 22 O 4.2461 -2.63856 0.639698 0
M  V30 23 C 2.7021 -1.83165 3.09804 0
M  V30 24 C 2.3101 -1.008 4.36513 0
M  V30 25 C 4.0541 -2.55529 3.38977 0
M  V30 26 C 1.9611 -1.83194 5.62311 0
M  V30 27 H 0.8911 -0.377878 0.652476 0
M  V30 28 H 3.5421 -0.257776 1.8168 0
M  V30 29 H 1.9241 -2.61694 2.97207 0
M  V30 30 H 3.0981 -0.266855 4.60027 0
M  V30 31 H 1.4131 -0.398897 4.14485 0
M  V30 32 H 4.0101 -3.17578 4.30172 0
M  V30 33 H 4.3531 -3.25825 2.59121 0
M  V30 34 H 4.8861 -1.84029 3.52673 0
M  V30 35 H 1.6251 -1.17318 6.44916 0
M  V30 36 H 1.1451 -2.54905 5.4294 0
M  V30 37 H 2.8241 -2.40552 6.00619 0
M  V30 38 N 2.9562 -1.48159 -0.537278 0
M  V30 39 C 4.1812 -1.59707 -1.32319 0
M  V30 40 C 4.6062 -0.254859 -1.86365 0
M  V30 41 O 3.9642 0.772378 -1.64024 0
M  V30 42 C 4.0122 -2.6412 -2.45505 0
M  V30 43 O 3.1162 -2.20774 -3.48328 0
M  V30 44 H 2.4572 -0.535791 -0.392204 0
M  V30 45 H 4.9872 -1.94092 -0.647268 0
M  V30 46 H 4.9972 -2.85166 -2.91795 0
M  V30 47 H 3.6722 -3.61567 -2.05528 0
M  V30 48 H 2.2492 -2.09911 -3.08207 0
M  V30 49 N 4.4343 0.785586 -1.36625 0
M  V30 50 C 5.8453 1.36101 -1.27803 0
M  V30 51 C 6.1963 1.96035 0.0804875 0
M  V30 52 O 5.3213 1.92834 0.982042 0
M  V30 53 C 5.9163 2.47442 -2.31426 0
M  V30 54 C 4.4753 3.00789 -2.26281 0
M  V30 55 C 3.6223 1.73896 -2.15999 0
M  V30 56 H 6.5733 0.586928 -1.47448 0
M  V30 57 H 6.5943 3.2656 -1.95291 0
M  V30 58 H 6.1063 2.03791 -3.30289 0
M  V30 59 H 4.2073 3.48851 -1.30896 0
M  V30 60 H 4.3203 3.57343 -3.19128 0
M  V30 61 H 2.6843 1.9628 -1.62316 0
M  V30 62 H 3.4673 1.32368 -3.16755 0
M  V30 63 N 5.9124 1.20967 1.01018 0
M  V30 64 C 7.1594 1.02374 1.74716 0
M  V30 65 C 7.4874 -0.443375 1.89379 0
M  V30 66 O 6.7424 -1.34535 1.42123 0
M  V30 67 C 7.0414 1.65997 3.16512 0
M  V30 68 C 6.7074 3.15831 3.2181 0
M  V30 69 C 5.3694 3.56719 3.22963 0
M  V30 70 C 7.7214 4.11816 3.19464 0
M  V30 71 C 5.0494 4.92107 3.19449 0
M  V30 72 C 7.4014 5.47158 3.17491 0
M  V30 73 C 6.0654 5.87451 3.16951 0
M  V30 74 H 5.3354 0.374614 0.639332 0
M  V30 75 H 7.9824 1.50485 1.18434 0
M  V30 76 H 6.2874 1.10166 3.75993 0
M  V30 77 H 7.9844 1.49119 3.72242 0
M  V30 78 H 4.5744 2.83263 3.21652 0
M  V30 79 H 8.7584 3.81257 3.17737 0
M  V30 80 H 4.0144 5.22579 3.17366 0
M  V30 81 H 8.1884 6.21274 3.14629 0
M  V30 82 H 5.8154 6.92329 3.13983 0
M  V30 83 N 7.3905 -1.2043 1.01659 0
M  V30 84 C 8.3205 -2.25466 0.607226 0
M  V30 85 C 9.3015 -1.65853 -0.377716 0
M  V30 86 O 10.4865 -1.92409 -0.263149 0
M  V30 87 C 7.6165 -3.47256 -0.0552949 0
M  V30 88 C 6.5705 -4.19462 0.850632 0
M  V30 89 C 5.8965 -5.34673 0.0538859 0
M  V30 90 C 7.1965 -4.75603 2.15868 0
M  V30 91 H 8.8905 -2.59962 1.48526 0
M  V30 92 H 6.4365 -1.2496 0.715605 0
M  V30 93 H 8.3895 -4.19917 -0.353233 0
M  V30 94 H 7.1135 -3.11924 -0.968045 0
M  V30 95 H 5.7725 -3.48667 1.13257 0
M  V30 96 H 5.4205 -4.95585 -0.860514 0
M  V30 97 H 5.1205 -5.83913 0.657192 0
M  V30 98 H 6.6445 -6.10138 -0.237598 0
M  V30 99 H 8.0585 -5.40083 1.92311 0
M  V30 100 H 6.4555 -5.3528 2.71284 0
M  V30 101 H 7.5255 -3.94346 2.82169 0
M  V30 102 N 8.8686 -0.792821 -1.36206 0
M  V30 103 C 10.1146 -0.36733 -1.99446 0
M  V30 104 C 10.4476 1.05917 -1.62774 0
M  V30 105 O 9.7226 1.7324 -0.88421 0
M  V30 106 C 10.0056 -0.535044 -3.56103 0
M  V30 107 C 9.8586 -2.00548 -4.02617 0
M  V30 108 C 11.1776 0.0478191 -4.40074 0
M  V30 109 H 8.2966 -0.134941 -0.724541 0
M  V30 110 H 10.9386 -0.999794 -1.61568 0
M  V30 111 H 9.0886 0.00336329 -3.885 0
M  V30 112 H 10.7606 -2.60521 -3.80692 0
M  V30 113 H 9.0036 -2.50686 -3.54032 0
M  V30 114 H 9.6746 -2.07377 -5.11565 0
M  V30 115 H 12.1506 -0.411822 -4.14057 0
M  V30 116 H 11.0266 -0.0995336 -5.4881 0
M  V30 117 H 11.2876 1.14025 -4.27142 0
M  V30 118 N 10.3467 1.47872 -0.545128 0
M  V30 119 C 11.2767 2.32661 0.197793 0
M  V30 120 C 12.2577 1.43041 0.920504 0
M  V30 121 O 13.4427 1.71912 0.90333 0
M  V30 122 C 10.5727 3.24569 1.23582 0
M  V30 123 C 9.5267 4.23333 0.630323 0
M  V30 124 C 8.8527 5.0448 1.77211 0
M  V30 125 C 10.1527 5.20704 -0.407974 0
M  V30 126 H 11.8467 2.95024 -0.510045 0
M  V30 127 H 9.3927 1.4187 -0.246731 0
M  V30 128 H 11.3457 3.8272 1.76362 0
M  V30 129 H 10.0697 2.60236 1.97344 0
M  V30 130 H 8.7287 3.6639 0.123922 0
M  V30 131 H 8.3767 4.36561 2.49847 0
M  V30 132 H 8.0767 5.71339 1.37281 0
M  V30 133 H 9.6007 5.65487 2.3034 0
M  V30 134 H 11.0147 5.7329 0.033305 0
M  V30 135 H 9.4117 5.95699 -0.725486 0
M  V30 136 H 10.4817 4.66917 -1.30828 0
M  V30 137 N 11.8248 0.280983 1.55075 0
M  V30 138 C 12.7878 -0.590896 2.21452 0
M  V30 139 C 13.7878 -1.07682 1.19421 0
M  V30 140 O 14.9778 -0.97605 1.44288 0
M  V30 141 C 12.1098 -1.81587 2.88511 0
M  V30 142 H 13.3028 -0.0112554 2.99898 0
M  V30 143 H 10.8558 0.0316438 1.56268 0
M  V30 144 H 11.5908 -2.43587 2.14093 0
M  V30 145 H 11.3758 -1.4753 3.63287 0
M  V30 146 H 12.8658 -2.43575 3.39206 0
M  V30 147 N 13.3029 -1.57598 0.00835791 0
M  V30 148 C 14.5519 -1.90107 -0.673968 0
M  V30 149 C 14.8649 -0.884275 -1.7447 0
M  V30 150 O 16.0709 -1.09987 -2.48224 0
M  V30 151 C 14.5269 -3.37497 -1.24995 0
M  V30 152 C 14.1349 -4.47491 -0.2136 0
M  V30 153 C 15.8789 -3.79104 -1.90999 0
M  V30 154 C 13.7859 -5.85963 -0.80005 0
M  V30 155 H 12.7159 -0.709393 -0.255495 0
M  V30 156 H 15.3669 -1.83365 0.0702693 0
M  V30 157 H 13.7489 -3.39102 -2.04513 0
M  V30 158 H 14.9229 -4.57414 0.557596 0
M  V30 159 H 13.2379 -4.14956 0.346474 0
M  V30 160 H 15.8349 -4.79901 -2.35795 0
M  V30 161 H 16.1779 -3.1306 -2.74407 0
M  V30 162 H 16.7109 -3.79833 -1.18203 0
M  V30 163 H 13.4499 -6.555 -0.00456708 0
M  V30 164 H 12.9699 -5.79687 -1.54021 0
M  V30 165 H 14.6489 -6.33884 -1.29615 0
M  V30 166 N 14.781 0.264519 -1.55364 0
M  V30 167 C 16.029 0.993021 -1.76021 0
M  V30 168 C 16.35 1.86511 -0.569099 0
M  V30 169 O 15.62 1.91438 0.415735 0
M  V30 170 H 14.2 0.369639 -0.649135 0
M  V30 171 H 16.862 0.286707 -1.9278 0
M  V30 172 H 15.958 1.62502 -2.66457 0
M  V30 173 N 16.2591 1.48442 0.529413 0
M  V30 174 C 17.4871 1.60151 1.30994 0
M  V30 175 C 17.9021 0.261985 1.86973 0
M  V30 176 O 17.2591 -0.748805 1.66431 0
M  V30 177 C 17.3101 2.64854 2.46038 0
M  V30 178 O 17.0311 3.93608 1.92365 0
M  V30 179 C 18.5321 2.87007 3.37849 0
M  V30 180 H 15.7521 0.539971 0.398338 0
M  V30 181 H 18.2961 1.94273 0.638597 0
M  V30 182 H 16.4511 2.33589 3.09055 0
M  V30 183 H 16.8651 4.51055 2.67675 0
M  V30 184 H 18.3391 3.64068 4.14919 0
M  V30 185 H 18.8161 1.95852 3.93114 0
M  V30 186 H 19.4221 3.19579 2.80623 0
M  V30 187 N 17.7372 -0.778329 1.37039 0
M  V30 188 C 18.9772 -1.54973 1.33276 0
M  V30 189 C 19.3412 -1.91816 -0.0839376 0
M  V30 190 O 20.5422 -2.6767 -0.246228 0
M  V30 191 C 18.8132 -2.78517 2.23971 0
M  V30 192 S 20.3722 -3.6865 2.37997 0
M  V30 193 H 17.1902 -0.530639 0.473226 0
M  V30 194 H 19.7922 -0.915806 1.72723 0
M  V30 195 H 18.4962 -2.4952 3.25835 0
M  V30 196 H 18.0272 -3.46875 1.85584 0
M  V30 197 H 20.0422 -4.70182 1.58567 0
M  V30 198 N 19.2153 -1.21501 -1.00376 0
M  V30 199 C 20.1453 -0.999478 -2.11028 0
M  V30 200 C 21.1263 0.0759671 -1.6993 0
M  V30 201 O 22.3113 -0.0841106 -1.94018 0
M  V30 202 C 19.4413 -0.564709 -3.42678 0
M  V30 203 C 18.3953 -1.58486 -3.97576 0
M  V30 204 C 17.7213 -1.00628 -5.25146 0
M  V30 205 C 19.0213 -2.97204 -4.29496 0
M  V30 206 H 20.7153 -1.92495 -2.29317 0
M  V30 207 H 18.2613 -0.92693 -1.102 0
M  V30 208 H 20.2143 -0.401091 -4.19487 0
M  V30 209 H 18.9383 0.396411 -3.24185 0
M  V30 210 H 17.5973 -1.73606 -3.22888 0
M  V30 211 H 17.2453 -0.0368439 -5.02987 0
M  V30 212 H 16.9453 -1.68771 -5.62841 0
M  V30 213 H 18.4693 -0.854015 -6.04598 0
M  V30 214 H 19.8833 -2.8552 -4.97143 0
M  V30 215 H 18.2803 -3.62372 -4.78338 0
M  V30 216 H 19.3503 -3.47956 -3.3772 0
M  V30 217 N 20.6934 1.19889 -1.02296 0
M  V30 218 C 21.9214 1.9339 -0.735399 0
M  V30 219 C 22.3364 1.75148 0.704887 0
M  V30 220 O 21.6934 1.06954 1.47875 0
M  V30 221 C 21.7444 3.45313 -1.06962 0
M  V30 222 O 21.4654 3.62964 -2.45334 0
M  V30 223 C 22.9664 4.35948 -0.804021 0
M  V30 224 H 20.1864 0.61448 -0.269546 0
M  V30 225 H 22.7304 1.522 -1.36585 0
M  V30 226 H 20.8854 3.84359 -0.484455 0
M  V30 227 H 21.2994 4.56886 -2.57595 0
M  V30 228 H 22.7734 5.41174 -1.0879 0
M  V30 229 H 23.2504 4.3842 0.261691 0
M  V30 230 H 23.8564 4.02574 -1.37164 0
M  V30 231 N 22.1715 0.800033 1.35784 0
M  V30 232 C 23.1195 0.193851 2.31791 0
M  V30 233 C 24.1135 -0.652744 1.56319 0
M  V30 234 O 25.3195 -0.546641 1.71499 0
M  V30 235 H 21.6945 0.04392 0.750716 0
M  V30 236 H 23.6655 1.01883 2.80468 0
M  V30 237 C 22.4145 -0.648338 3.41602 0
M  V30 238 H 21.7375 -0.00624665 3.998 0
M  V30 239 H 23.1775 -1.03898 4.11073 0
M  V30 240 C 21.6365 -1.8111 2.84079 0
M  V30 241 O 22.1665 -2.90825 2.77099 0
M  V30 242 N 20.3725 -1.62056 2.41218 0
M  V30 243 H 19.9195 -0.728123 2.47095 0
M  V30 244 H 19.8775 -2.40013 2.03079 0
M  V30 245 N 23.6496 -1.47581 0.552962 0
M  V30 246 C 24.8746 -2.07378 0.0300593 0
M  V30 247 C 25.2996 -1.40355 -1.25229 0
M  V30 248 O 24.6576 -0.477099 -1.7491 0
M  V30 249 C 24.7056 -3.60274 -0.153231 0
M  V30 250 O 23.8096 -3.94041 -1.21678 0
M  V30 251 H 23.1506 -0.662158 0.0494182 0
M  V30 252 H 25.6806 -1.89662 0.767434 0
M  V30 253 H 25.6906 -4.0633 -0.368761 0
M  V30 254 H 24.3656 -4.08455 0.783397 0
M  V30 255 H 22.9426 -3.59735 -0.982079 0
M  V30 256 N 25.1277 -0.289203 -1.54924 0
M  V30 257 C 26.0577 0.58549 -2.2604 0
M  V30 258 C 27.0387 1.14753 -1.25562 0
M  V30 259 O 28.2237 1.17906 -1.54311 0
M  V30 260 C 25.3537 1.76305 -2.99222 0
M  V30 261 C 24.3077 1.33191 -4.06748 0
M  V30 262 C 23.6337 2.5937 -4.6758 0
M  V30 263 C 24.9337 0.471775 -5.20165 0
M  V30 264 H 26.6277 -0.00763532 -2.99399 0
M  V30 265 H 24.1737 -0.00511229 -1.43999 0
M  V30 266 H 26.1267 2.38097 -3.47689 0
M  V30 267 H 24.8507 2.38223 -2.23422 0
M  V30 268 H 23.5097 0.737121 -3.59113 0
M  V30 269 H 23.1577 3.19576 -3.88433 0
M  V30 270 H 22.8577 2.31228 -5.40192 0
M  V30 271 H 24.3817 3.21985 -5.18804 0
M  V30 272 H 25.7957 0.995056 -5.64599 0
M  V30 273 H 24.1927 0.284639 -5.99425 0
M  V30 274 H 25.2627 -0.506041 -4.82252 0
M  V30 275 N 26.6058 1.57591 -0.0167156 0
M  V30 276 C 27.8518 1.91567 0.665582 0
M  V30 277 C 28.1848 0.892298 1.72487 0
M  V30 278 O 27.4598 -0.0867127 1.94307 0
M  V30 279 C 27.7428 3.36069 1.29342 0
M  V30 280 C 27.5958 4.49135 0.244541 0
M  V30 281 C 28.9148 3.803 2.21495 0
M  V30 282 H 26.0338 0.69666 0.240488 0
M  V30 283 H 28.6758 1.89866 -0.0714356 0
M  V30 284 H 26.8258 3.3765 1.92158 0
M  V30 285 H 28.4978 4.59689 -0.385228 0
M  V30 286 H 26.7408 4.3165 -0.431379 0
M  V30 287 H 27.4118 5.47242 0.723207 0
M  V30 288 H 29.8878 3.80377 1.68678 0
M  V30 289 H 28.7638 4.82127 2.62382 0
M  V30 290 H 29.0248 3.15104 3.101 0
M  V30 291 N 28.0839 -0.256276 1.55502 0
M  V30 292 C 29.4949 -0.826068 1.67431 0
M  V30 293 C 29.8459 -1.86396 0.612446 0
M  V30 294 O 28.9709 -2.15031 -0.243025 0
M  V30 295 C 29.5659 -1.50512 3.03532 0
M  V30 296 C 28.1249 -2.02273 3.17431 0
M  V30 297 C 27.2719 -0.870548 2.63281 0
M  V30 298 H 30.2229 -0.0322728 1.58667 0
M  V30 299 H 30.2439 -2.37279 2.97454 0
M  V30 300 H 29.7559 -0.749484 3.80794 0
M  V30 301 H 27.8569 -2.80746 2.44974 0
M  V30 302 H 27.9699 -2.22655 4.24219 0
M  V30 303 H 26.3339 -1.26851 2.20864 0
M  V30 304 H 27.1169 -0.128149 3.43061 0
M  V30 305 N 29.562 -1.4872 -0.521534 0
M  V30 306 C 30.472 -1.66569 -1.65203 0
M  V30 307 C 31.488 -0.548197 -1.65139 0
M  V30 308 O 32.664 -0.820339 -1.83936 0
M  V30 309 C 29.729 -1.70917 -3.01642 0
M  V30 310 C 28.79 -2.94356 -3.12495 0
M  V30 311 C 28.023 -2.98487 -4.42426 0
M  V30 312 O 28.246 -2.10786 -5.30024 0
M  V30 313 O 27.18 -3.90746 -4.57822 0
M  V30 314 H 31.006 -2.62298 -1.5308 0
M  V30 315 H 28.591 -1.3222 -0.695565 0
M  V30 316 H 30.473 -1.7625 -3.82771 0
M  V30 317 H 29.148 -0.783633 -3.14071 0
M  V30 318 H 28.055 -2.94552 -2.3063 0
M  V30 319 H 29.388 -3.86322 -3.04986 0
M  V30 320 N 31.0401 0.771051 -1.3745 0
M  V30 321 C 31.9871 1.88435 -1.3327 0
M  V30 322 C 32.9571 1.64914 -0.198136 0
M  V30 323 O 34.1421 1.86821 -0.387606 0
M  V30 324 C 31.2821 3.25509 -1.14622 0
M  V30 325 C 30.3951 3.60979 -2.37314 0
M  V30 326 C 29.5301 4.87265 -2.11533 0
M  V30 327 C 28.5691 5.15469 -3.30088 0
M  V30 328 N 27.7061 6.32944 -3.03853 0
M  V30 329 H 32.5461 1.91344 -2.28455 0
M  V30 330 H 30.0831 0.935466 -1.13523 0
M  V30 331 H 32.0411 4.04582 -1.01831 0
M  V30 332 H 30.6711 3.21974 -0.230837 0
M  V30 333 H 29.7231 2.76885 -2.60842 0
M  V30 334 H 31.0351 3.77759 -3.25729 0
M  V30 335 H 30.1891 5.74244 -1.95777 0
M  V30 336 H 28.9281 4.7259 -1.20457 0
M  V30 337 H 27.9331 4.26966 -3.46382 0
M  V30 338 H 29.1581 5.32052 -4.22016 0
M  V30 339 H 27.1041 6.19625 -2.15407 0
M  V30 340 H 27.0211 6.50143 -3.85812 0
M  V30 341 H 28.2891 7.22857 -2.91716 0
M  V30 342 N 32.5182 1.22032 0.997298 0
M  V30 343 C 33.4282 1.00271 2.12092 0
M  V30 344 C 34.4442 -0.047621 1.73935 0
M  V30 345 O 35.6202 0.144136 2.00884 0
M  V30 346 C 32.6852 0.578449 3.4184 0
M  V30 347 C 31.7462 1.70189 3.94125 0
M  V30 348 C 30.9792 1.29778 5.17681 0
M  V30 349 O 31.2022 0.174676 5.70132 0
M  V30 350 O 30.1362 2.11261 5.63607 0
M  V30 351 H 33.9622 1.94398 2.3333 0
M  V30 352 H 31.5472 1.00587 1.10465 0
M  V30 353 H 33.4292 0.351998 4.19927 0
M  V30 354 H 32.1042 -0.334019 3.21972 0
M  V30 355 H 31.0112 1.98282 3.1723 0
M  V30 356 H 32.3442 2.59206 4.18417 0
M  V30 357 N 33.9963 -1.19345 1.0293 0
M  V30 358 C 34.9433 -2.2258 0.610464 0
M  V30 359 C 35.9133 -1.6179 -0.375946 0
M  V30 360 O 37.0983 -1.88844 -0.272511 0
M  V30 361 C 34.2383 -3.45085 -0.0321473 0
M  V30 362 C 33.3513 -4.20258 1.00035 0
M  V30 363 C 32.4863 -5.3019 0.32746 0
M  V30 364 C 31.5253 -5.97121 1.34584 0
M  V30 365 N 30.6623 -6.98615 0.698726 0
M  V30 366 H 35.5023 -2.57764 1.49538 0
M  V30 367 H 33.0393 -1.26644 0.748311 0
M  V30 368 H 34.9973 -4.15061 -0.421966 0
M  V30 369 H 33.6273 -3.10555 -0.88064 0
M  V30 370 H 32.6793 -3.49223 1.50823 0
M  V30 371 H 33.9913 -4.66175 1.77433 0
M  V30 372 H 33.1453 -6.06587 -0.11718 0
M  V30 373 H 31.8843 -4.85345 -0.478713 0
M  V30 374 H 30.8893 -5.19474 1.80074 0
M  V30 375 H 32.1143 -6.4405 2.15352 0
M  V30 376 H 30.0603 -6.55942 -0.0873471 0
M  V30 377 H 29.9773 -7.42724 1.41058 0
M  V30 378 H 31.2453 -7.79004 0.278102 0
M  V30 379 N 35.4744 -0.807222 -1.35358 0
M  V30 380 C 36.7514 -0.311126 -1.9311 0
M  V30 381 C 37.1314 1.19937 -1.73719 0
M  V30 382 O 36.4794 1.99918 -1.10657 0
M  V30 383 C 36.6894 -0.723226 -3.41424 0
M  V30 384 C 38.0374 -0.713078 -4.18569 0
M  V30 385 O 39.0614 -0.664811 -3.49941 0
M  V30 386 O 37.9204 -0.772022 -5.41019 0
M  V30 387 H 35.0144 -0.081526 -0.822972 0
M  V30 388 H 37.5604 -0.890962 -1.4443 0
M  V30 389 H 36.3324 -1.76426 -3.4927 0
M  V30 390 H 35.9554 -0.118232 -3.97424 0
M  V30 391 N 36.9525 1.47285 -0.560781 0
M  V30 392 C 38.3635 1.86258 -0.128343 0
M  V30 393 C 38.7145 1.46699 1.30284 0
M  V30 394 O 37.8395 0.871698 1.98067 0
M  V30 395 C 38.4345 3.38044 -0.22614 0
M  V30 396 C 36.9935 3.76096 0.151283 0
M  V30 397 C 36.1405 2.71335 -0.572084 0
M  V30 398 H 39.0915 1.38752 -0.770297 0
M  V30 399 H 39.1125 3.76441 0.554322 0
M  V30 400 H 38.6245 3.66806 -1.26788 0
M  V30 401 H 36.7255 3.52951 1.19399 0
M  V30 402 H 36.8385 4.78641 -0.209765 0
M  V30 403 H 35.2025 2.54696 -0.0147653 0
M  V30 404 H 35.9855 3.02938 -1.61504 0
M  V30 405 N 38.4306 0.297415 1.54768 0
M  V30 406 C 39.3776 -0.580276 2.23386 0
M  V30 407 C 40.3476 -1.13238 1.21517 0
M  V30 408 O 41.5326 -1.17757 1.50126 0
M  V30 409 C 38.6726 -1.74801 2.97555 0
M  V30 410 C 37.7856 -1.22764 4.1419 0
M  V30 411 C 36.9206 -2.35895 4.75949 0
M  V30 412 C 35.9596 -1.80974 5.84735 0
M  V30 413 N 35.0966 -2.87664 6.40464 0
M  V30 414 H 39.9366 0.0114833 2.97998 0
M  V30 415 H 37.4736 0.0174361 1.4709 0
M  V30 416 H 39.4316 -2.43475 3.38786 0
M  V30 417 H 38.0616 -2.31145 2.25326 0
M  V30 418 H 37.1136 -0.433271 3.77924 0
M  V30 419 H 38.4256 -0.785551 4.92575 0
M  V30 420 H 37.5796 -3.12523 5.20014 0
M  V30 421 H 36.3186 -2.83429 3.96887 0
M  V30 422 H 35.3236 -1.02834 5.40097 0
M  V30 423 H 36.5486 -1.34348 6.65678 0
M  V30 424 H 34.4946 -3.34538 5.64287 0
M  V30 425 H 34.4116 -2.4794 7.14186 0
M  V30 426 H 35.6796 -3.642 6.89187 0
M  V30 427 N 39.9087 -1.5758 0.0250728 0
M  V30 428 C 41.1387 -1.95646 -0.663783 0
M  V30 429 C 41.5467 -0.899935 -1.66427 0
M  V30 430 O 40.8897 0.127191 -1.83259 0
M  V30 431 C 40.9517 -3.29835 -1.43 0
M  V30 432 C 40.6157 -4.53197 -0.588305 0
M  V30 433 C 41.6127 -5.19726 0.13469 0
M  V30 434 C 39.2977 -4.99529 -0.526897 0
M  V30 435 C 41.2917 -6.30902 0.90781 0
M  V30 436 C 38.9787 -6.10589 0.24993 0
M  V30 437 C 39.9767 -6.76134 0.965994 0
M  V30 438 O 39.6647 -7.85062 1.7301 0
M  V30 439 H 39.3967 -0.649282 -0.188174 0
M  V30 440 H 41.9507 -2.05245 0.0799006 0
M  V30 441 H 40.1807 -3.16716 -2.21873 0
M  V30 442 H 41.8697 -3.52833 -2.00658 0
M  V30 443 H 42.6357 -4.84904 0.0965562 0
M  V30 444 H 38.5147 -4.48319 -1.07381 0
M  V30 445 H 42.0587 -6.81995 1.46724 0
M  V30 446 H 37.9557 -6.44849 0.289795 0
M  V30 447 H 38.7237 -8.01708 1.64944 0
M  V30 448 N 41.3868 0.248026 -1.55636 0
M  V30 449 C 42.6328 0.973427 -1.78594 0
M  V30 450 C 42.9878 1.83007 -0.593823 0
M  V30 451 O 42.2808 1.87097 0.412961 0
M  V30 452 C 42.4748 1.86819 -3.04686 0
M  V30 453 C 42.3038 1.09965 -4.36048 0
M  V30 454 C 41.0738 0.805204 -4.98843 0
M  V30 455 C 43.2718 0.477783 -5.12076 0
M  V30 456 N 41.2538 0.0124859 -6.13899 0
M  V30 457 C 42.6248 -0.179565 -6.1974 0
M  V30 458 C 44.6798 0.388136 -4.96385 0
M  V30 459 C 43.3828 -0.91795 -7.13419 0
M  V30 460 C 45.4088 -0.336716 -5.90441 0
M  V30 461 C 44.7708 -0.982705 -6.97511 0
M  V30 462 H 40.8698 0.337348 -0.705493 0
M  V30 463 H 43.4538 0.24667 -1.93131 0
M  V30 464 H 41.6248 2.56698 -2.9148 0
M  V30 465 H 43.3568 2.52907 -3.15944 0
M  V30 466 H 40.1118 1.11671 -4.60246 0
M  V30 467 H 40.5358 -0.371933 -6.75978 0
M  V30 468 H 45.1778 0.873237 -4.13684 0
M  V30 469 H 42.8958 -1.41466 -7.95621 0
M  V30 470 H 46.4818 -0.406731 -5.80377 0
M  V30 471 H 45.3618 -1.53464 -7.69037 0
M  V30 472 N 42.8649 1.48995 0.513639 0
M  V30 473 C 44.2809 1.35478 0.843682 0
M  V30 474 C 44.4809 0.378213 1.97919 0
M  V30 475 O 43.5369 -0.194689 2.51748 0
M  V30 476 C 44.8499 2.75901 1.1958 0
M  V30 477 C 46.3979 2.84509 1.30474 0
M  V30 478 C 46.8729 4.25671 1.69021 0
M  V30 479 N 48.3639 4.28422 1.76094 0
M  V30 480 C 49.0989 5.34601 2.07338 0
M  V30 481 N 48.5949 6.5104 2.36894 0
M  V30 482 N 50.3879 5.22007 2.08483 0
M  V30 483 H 42.5389 2.11092 -0.235328 0
M  V30 484 H 44.8019 0.947039 -0.0426669 0
M  V30 485 H 44.5079 3.49001 0.434913 0
M  V30 486 H 44.3819 3.10467 2.1422 0
M  V30 487 H 46.7689 2.11655 2.05637 0
M  V30 488 H 46.8499 2.53542 0.339155 0
M  V30 489 H 46.4939 4.99048 0.944135 0
M  V30 490 H 46.4239 4.54094 2.66658 0
M  V30 491 H 48.9149 3.44441 1.55464 0
M  V30 492 H 49.2279 7.2779 2.59887 0
M  V30 493 H 47.5729 6.54287 2.34378 0
M  V30 494 H 50.7639 4.30051 1.84861 0
M  V30 495 H 50.9369 6.04854 2.325 0
M  V30 496 N 44.343 -0.763751 1.37857 0
M  V30 497 C 45.62 -1.51244 1.24035 0
M  V30 498 C 46 -2.10472 -0.162649 0
M  V30 499 O 45.348 -1.96206 -1.17112 0
M  V30 500 C 45.558 -2.58694 2.34261 0
M  V30 501 C 46.906 -3.25878 2.72193 0
M  V30 502 O 47.93 -2.68993 2.33497 0
M  V30 503 O 46.789 -4.2874 3.38887 0
M  V30 504 H 43.883 -0.670243 0.484462 0
M  V30 505 H 46.429 -0.800031 1.49658 0
M  V30 506 H 45.201 -2.13105 3.2818 0
M  V30 507 H 44.824 -3.37527 2.10146 0
M  V30 508 N 45.8211 -1.22559 -0.990812 0
M  V30 509 C 46.7531 -0.955325 -2.08342 0
M  V30 510 C 47.7661 0.0668408 -1.62663 0
M  V30 511 O 48.9551 -0.167421 -1.77713 0
M  V30 512 C 46.0551 -0.415566 -3.36342 0
M  V30 513 C 45.2281 -1.49544 -4.11042 0
M  V30 514 C 44.2871 -0.962399 -5.17324 0
M  V30 515 O 43.3131 -1.64907 -5.44788 0
M  V30 516 N 44.5151 0.215134 -5.80101 0
M  V30 517 H 47.2801 -1.89596 -2.32106 0
M  V30 518 H 44.8411 -1.13276 -1.15673 0
M  V30 519 H 46.8331 -0.0442386 -4.04676 0
M  V30 520 H 45.4031 0.430232 -3.09625 0
M  V30 521 H 44.6231 -2.04 -3.37309 0
M  V30 522 H 45.9111 -2.22195 -4.57719 0
M  V30 523 H 45.3091 0.789779 -5.6016 0
M  V30 524 H 43.8661 0.527826 -6.49659 0
M  V30 525 N 47.2992 1.18797 -1.03562 0
M  V30 526 C 48.2622 2.20464 -0.626769 0
M  V30 527 C 49.2622 1.57721 0.313173 0
M  V30 528 O 50.4522 1.73917 0.0992615 0
M  V30 529 C 47.5842 3.40802 0.0818498 0
M  V30 530 H 48.7772 2.58149 -1.5264 0
M  V30 531 H 46.3302 1.32593 -0.827578 0
M  V30 532 H 47.0652 3.08642 0.995518 0
M  V30 533 H 46.8502 3.8758 -0.593652 0
M  V30 534 H 48.3402 4.16092 0.354584 0
M  V30 535 N 48.7773 0.814389 1.34928 0
M  V30 536 C 49.7093 0.187834 2.28429 0
M  V30 537 C 50.7223 -0.617374 1.5064 0
M  V30 538 O 51.9113 -0.448454 1.72775 0
M  V30 539 C 49.0113 -0.755962 3.30361 0
M  V30 540 C 48.1843 0.00456686 4.374 0
M  V30 541 C 47.2433 -0.858876 5.19143 0
M  V30 542 O 46.2693 -0.306968 5.68372 0
M  V30 543 N 47.4713 -2.17988 5.38016 0
M  V30 544 H 50.2363 0.991105 2.82838 0
M  V30 545 H 47.7973 0.670561 1.4736 0
M  V30 546 H 49.7893 -1.338 3.81942 0
M  V30 547 H 48.3593 -1.46001 2.7641 0
M  V30 548 H 47.5793 0.767865 3.86649 0
M  V30 549 H 48.8673 0.528422 5.06049 0
M  V30 550 H 48.2653 -2.65212 4.99679 0
M  V30 551 H 46.8223 -2.71098 5.92747 0
M  V30 552 N 50.2554 -1.46986 0.568584 0
M  V30 553 C 51.1654 -2.33942 -0.17555 0
M  V30 554 C 52.1814 -1.48891 -0.90041 0
M  V30 555 O 53.3574 -1.81794 -0.86676 0
M  V30 556 C 50.4224 -3.25811 -1.18524 0
M  V30 557 C 49.4834 -4.26757 -0.466582 0
M  V30 558 C 48.7164 -5.14236 -1.42817 0
M  V30 559 O 48.9394 -5.04379 -2.66379 0
M  V30 560 O 47.8734 -5.94412 -0.946453 0
M  V30 561 H 51.6994 -2.98896 0.538036 0
M  V30 562 H 49.2844 -1.4573 0.329097 0
M  V30 563 H 51.1664 -3.82527 -1.76779 0
M  V30 564 H 49.8414 -2.63471 -1.88055 0
M  V30 565 H 48.7484 -3.73769 0.157451 0
M  V30 566 H 50.0814 -4.91843 0.187485 0
M  V30 567 N 51.7335 -0.305618 -1.54608 0
M  V30 568 C 52.9615 0.304775 -2.04643 0
M  V30 569 C 53.3765 1.47167 -1.18268 0
M  V30 570 O 52.7335 1.81296 -0.209328 0
M  V30 571 C 52.7845 0.756564 -3.53495 0
M  V30 572 O 52.5055 -0.36389 -4.36586 0
M  V30 573 C 54.0065 1.43163 -4.19546 0
M  V30 574 H 51.2265 0.0655481 -0.667791 0
M  V30 575 H 53.7705 -0.446592 -1.99564 0
M  V30 576 H 51.9255 1.45794 -3.58919 0
M  V30 577 H 52.3395 -0.0113121 -5.24499 0
M  V30 578 H 53.8135 1.69886 -5.25207 0
M  V30 579 H 54.2905 2.37318 -3.69563 0
M  V30 580 H 54.8965 0.773307 -4.18211 0
M  V30 581 N 53.2116 1.57565 -0.0334293 0
M  V30 582 C 54.1416 2.13511 0.945265 0
M  V30 583 C 55.1226 1.05231 1.33643 0
M  V30 584 O 56.3076 1.33084 1.41429 0
M  V30 585 C 53.4376 2.6657 2.22616 0
M  V30 586 C 52.3916 3.79676 1.97561 0
M  V30 587 C 51.7176 4.1918 3.31952 0
M  V30 588 C 53.0176 5.0557 1.31135 0
M  V30 589 H 54.7116 2.95538 0.479325 0
M  V30 590 H 52.2576 1.42166 0.229115 0
M  V30 591 H 54.2106 3.04344 2.91466 0
M  V30 592 H 52.9346 1.8171 2.71384 0
M  V30 593 H 51.5936 3.42347 1.31127 0
M  V30 594 H 51.2416 3.31296 3.78487 0
M  V30 595 H 50.9416 4.95402 3.15992 0
M  V30 596 H 52.4656 4.59541 4.02063 0
M  V30 597 H 53.8796 5.40903 1.89992 0
M  V30 598 H 52.2766 5.86818 1.25559 0
M  V30 599 H 53.3466 4.84062 0.284894 0
M  V30 600 N 54.6897 -0.239769 1.55765 0
M  V30 601 C 55.6367 -1.29696 1.90913 0
M  V30 602 C 56.6067 -1.47478 0.764164 0
M  V30 603 O 57.7917 -1.61345 1.01845 0
M  V30 604 C 54.9317 -2.64598 2.21544 0
M  V30 605 C 54.0447 -2.54765 3.48882 0
M  V30 606 C 53.1797 -3.82069 3.69049 0
M  V30 607 C 52.2187 -3.66883 4.89963 0
M  V30 608 N 51.3557 -4.86094 5.06614 0
M  V30 609 H 56.1957 -0.990224 2.81067 0
M  V30 610 H 53.7327 -0.477684 1.39128 0
M  V30 611 H 55.6907 -3.43132 2.3731 0
M  V30 612 H 54.3207 -2.93405 1.34585 0
M  V30 613 H 53.3727 -1.67763 3.41409 0
M  V30 614 H 54.6847 -2.39457 4.37563 0
M  V30 615 H 53.8387 -4.69046 3.84812 0
M  V30 616 H 52.5777 -4.00282 2.78614 0
M  V30 617 H 51.5827 -2.78289 4.74168 0
M  V30 618 H 52.8077 -3.50157 5.81865 0
M  V30 619 H 50.7537 -5.04655 4.19117 0
M  V30 620 H 50.6707 -4.73443 5.89396 0
M  V30 621 H 51.9387 -5.74549 5.26795 0
M  V30 622 N 56.1678 -1.49265 -0.50573 0
M  V30 623 C 57.3978 -1.61979 -1.28243 0
M  V30 624 C 57.8058 -0.288576 -1.86986 0
M  V30 625 O 57.1488 0.735408 -1.68337 0
M  V30 626 C 57.2108 -2.62632 -2.45489 0
M  V30 627 C 56.8748 -4.071 -2.07651 0
M  V30 628 C 57.8718 -4.94049 -1.61901 0
M  V30 629 C 55.5568 -4.52801 -2.17431 0
M  V30 630 C 57.5508 -6.24736 -1.26428 0
M  V30 631 C 55.2378 -5.83503 -1.8157 0
M  V30 632 C 56.2358 -6.69294 -1.36142 0
M  V30 633 O 55.9238 -7.9756 -1.00764 0
M  V30 634 H 55.6558 -0.54834 -0.395347 0
M  V30 635 H 58.2098 -1.96002 -0.614204 0
M  V30 636 H 56.4398 -2.2378 -3.15372 0
M  V30 637 H 58.1288 -2.64925 -3.07522 0
M  V30 638 H 58.8948 -4.5997 -1.53795 0
M  V30 639 H 54.7738 -3.86196 -2.51742 0
M  V30 640 H 58.3178 -6.91652 -0.908992 0
M  V30 641 H 54.2148 -6.17112 -1.89324 0
M  V30 642 H 54.9828 -8.10529 -1.13952 0
M  V30 643 N 57.6459 0.756429 -1.3826 0
M  V30 644 C 58.6089 1.85176 -1.35065 0
M  V30 645 C 59.6089 1.58818 -0.251703 0
M  V30 646 O 60.7989 1.66615 -0.508433 0
M  V30 647 C 57.9309 3.22596 -1.10201 0
M  V30 648 H 59.1239 1.89417 -2.3251 0
M  V30 649 H 56.6769 0.95783 -1.23512 0
M  V30 650 H 57.4119 3.24025 -0.133504 0
M  V30 651 H 57.1969 3.43122 -1.89762 0
M  V30 652 H 58.6869 4.02673 -1.10654 0
M  V30 653 N 59.124 1.23083 0.984299 0
M  V30 654 C 60.054 1.03292 2.09411 0
M  V30 655 C 61.035 -0.048923 1.7003 0
M  V30 656 O 62.22 0.114967 1.93859 0
M  V30 657 C 59.35 0.619155 3.41736 0
M  V30 658 C 58.304 1.64791 3.95004 0
M  V30 659 C 57.63 1.0897 5.23478 0
M  V30 660 C 58.93 3.03999 4.24714 0
M  V30 661 H 60.624 1.96119 2.26225 0
M  V30 662 H 58.17 0.944344 1.08711 0
M  V30 663 H 60.123 0.467777 4.18796 0
M  V30 664 H 58.847 -0.344786 3.24775 0
M  V30 665 H 57.506 1.78721 3.20085 0
M  V30 666 H 57.154 0.11686 5.02864 0
M  V30 667 H 56.854 1.77704 5.60085 0
M  V30 668 H 58.378 0.950093 6.03163 0
M  V30 669 H 59.792 2.93393 4.92538 0
M  V30 670 H 58.189 3.69936 4.72512 0
M  V30 671 H 59.259 3.53285 3.32142 0
M  V30 672 N 60.6021 -1.18246 1.0419 0
M  V30 673 C 61.5121 -2.25574 0.644476 0
M  V30 674 C 62.5281 -1.70845 -0.329826 0
M  V30 675 O 63.7041 -2.00554 -0.184443 0
M  V30 676 C 60.7691 -3.46697 0.014877 0
M  V30 677 C 59.8301 -4.16554 1.03834 0
M  V30 678 C 59.0631 -5.31894 0.438692 0
M  V30 679 O 59.2861 -5.65385 -0.754752 0
M  V30 680 O 58.2201 -5.90459 1.168 0
M  V30 681 H 62.0461 -2.61836 1.53869 0
M  V30 682 H 59.6311 -1.25352 0.812854 0
M  V30 683 H 61.5131 -4.20062 -0.335538 0
M  V30 684 H 60.1881 -3.12255 -0.853138 0
M  V30 685 H 59.0951 -3.45251 1.44057 0
M  V30 686 H 60.4281 -4.54998 1.87716 0
M  V30 687 N 62.0802 -0.821533 -1.34494 0
M  V30 688 C 63.0102 -0.257138 -2.3208 0
M  V30 689 C 63.9912 0.625645 -1.58176 0
M  V30 690 O 65.1762 0.552811 -1.86166 0
M  V30 691 C 62.3062 0.582958 -3.42372 0
M  V30 692 C 61.2602 -0.202571 -4.2752 0
M  V30 693 C 60.5862 0.760179 -5.29269 0
M  V30 694 C 61.8862 -1.40998 -5.02908 0
M  V30 695 H 63.5802 -1.07247 -2.79532 0
M  V30 696 H 61.1262 -0.517163 -1.34393 0
M  V30 697 H 63.0792 0.987972 -4.09655 0
M  V30 698 H 61.8032 1.43133 -2.93565 0
M  V30 699 H 60.4622 -0.588936 -3.61838 0
M  V30 700 H 60.1102 1.60447 -4.76724 0
M  V30 701 H 59.8102 0.238809 -5.87115 0
M  V30 702 H 61.3342 1.16308 -5.9942 0
M  V30 703 H 62.7482 -1.07905 -5.63054 0
M  V30 704 H 61.1452 -1.86689 -5.70322 0
M  V30 705 H 62.2152 -2.1889 -4.32684 0
M  V30 706 N 63.5583 1.46682 -0.576371 0
M  V30 707 C 64.4903 2.28341 0.198231 0
M  V30 708 C 65.5033 1.38141 0.861453 0
M  V30 709 O 66.6923 1.62797 0.732082 0
M  V30 710 C 63.7923 3.12986 1.29972 0
M  V30 711 C 62.9653 4.31271 0.729639 0
M  V30 712 C 62.0243 4.97363 1.71803 0
M  V30 713 O 61.0503 5.55156 1.25658 0
M  V30 714 N 62.2523 4.93796 3.05198 0
M  V30 715 H 65.0173 2.9546 -0.502324 0
M  V30 716 H 62.5783 1.56525 -0.413715 0
M  V30 717 H 64.5703 3.54066 1.96008 0
M  V30 718 H 63.1403 2.47984 1.90323 0
M  V30 719 H 62.3603 3.94052 -0.108012 0
M  V30 720 H 63.6483 5.07739 0.328438 0
M  V30 721 H 63.0463 4.48077 3.45317 0
M  V30 722 H 61.6033 5.38837 3.6674 0
M  V30 723 N 65.0364 0.313813 1.54444 0
M  V30 724 C 65.9834 -0.55655 2.23989 0
M  V30 725 C 66.9534 -1.11943 1.22711 0
M  V30 726 O 68.1384 -1.16158 1.51367 0
M  V30 727 C 65.2784 -1.71635 2.99392 0
M  V30 728 C 64.3914 -1.18364 4.15468 0
M  V30 729 C 63.5264 -2.30834 4.78424 0
M  V30 730 C 62.5654 -1.74762 5.86622 0
M  V30 731 N 61.7024 -2.80855 6.43479 0
M  V30 732 H 66.5424 0.0430893 2.97969 0
M  V30 733 H 64.0794 0.0330359 1.47063 0
M  V30 734 H 66.0374 -2.39868 3.41349 0
M  V30 735 H 64.6674 -2.28742 2.27765 0
M  V30 736 H 63.7194 -0.393163 3.78363 0
M  V30 737 H 65.0314 -0.733262 4.93381 0
M  V30 738 H 64.1854 -3.0699 5.23299 0
M  V30 739 H 62.9244 -2.79204 3.99871 0
M  V30 740 H 61.9294 -0.970995 5.41158 0
M  V30 741 H 63.1544 -1.2728 6.67066 0
M  V30 742 H 61.1004 -3.28535 5.67804 0
M  V30 743 H 61.0174 -2.40351 7.16776 0
M  V30 744 H 62.2854 -3.5687 6.93011 0
M  V30 745 N 66.5145 -1.57545 0.0417849 0
M  V30 746 C 67.4445 -2.14009 -0.933929 0
M  V30 747 C 68.4255 -1.05938 -1.33083 0
M  V30 748 O 69.6105 -1.33833 -1.40721 0
M  V30 749 C 66.7405 -2.67747 -2.21199 0
M  V30 750 C 65.6945 -3.80718 -1.95544 0
M  V30 751 C 65.0205 -4.20935 -3.29724 0
M  V30 752 C 66.3205 -5.06258 -1.28452 0
M  V30 753 H 68.0145 -2.95788 -0.463645 0
M  V30 754 H 65.5605 -1.42285 -0.221573 0
M  V30 755 H 67.5135 -3.05886 -2.89848 0
M  V30 756 H 66.2375 -1.83147 -2.70416 0
M  V30 757 H 64.8965 -3.43037 -1.2931 0
M  V30 758 H 64.5445 -3.33298 -3.76724 0
M  V30 759 H 64.2445 -4.9707 -3.13361 0
M  V30 760 H 65.7685 -4.61666 -3.9962 0
M  V30 761 H 67.1825 -5.41903 -1.8712 0
M  V30 762 H 65.5795 -5.87475 -1.22445 0
M  V30 763 H 66.6495 -4.84207 -0.259219 0
M  V30 764 N 67.9926 0.231505 -1.5589 0
M  V30 765 C 68.9406 1.30649 -1.92441 0
M  V30 766 C 69.9346 1.49037 -0.805254 0
M  V30 767 O 71.1406 1.50329 -0.990007 0
M  V30 768 H 67.5156 0.437812 -0.611412 0
M  V30 769 H 69.4866 0.970973 -2.82161 0
M  V30 770 C 68.2356 2.65179 -2.24889 0
M  V30 771 H 67.5586 2.51835 -3.10514 0
M  V30 772 H 68.9986 3.39234 -2.54355 0
M  V30 773 C 67.4576 3.19439 -1.07054 0
M  V30 774 O 67.9876 4.00371 -0.326499 0
M  V30 775 N 66.1936 2.77675 -0.85703 0
M  V30 776 H 65.7406 2.11969 -1.46379 0
M  V30 777 H 65.6986 3.14321 -0.0703223 0
M  V30 778 N 69.4707 1.49531 0.497807 0
M  V30 779 C 70.6987 1.62893 1.27567 0
M  V30 780 C 71.1137 0.301585 1.86376 0
M  V30 781 O 70.4707 -0.713335 1.67982 0
M  V30 782 C 70.5217 2.70013 2.40364 0
M  V30 783 O 70.2427 3.976 1.83972 0
M  V30 784 C 71.7437 2.94109 3.31685 0
M  V30 785 H 68.9637 0.548298 0.386794 0
M  V30 786 H 71.5077 1.95584 0.597245 0
M  V30 787 H 69.6627 2.40092 3.04031 0
M  V30 788 H 70.0767 4.56631 2.58047 0
M  V30 789 H 71.5507 3.72788 4.07104 0
M  V30 790 H 72.0277 2.04147 3.88871 0
M  V30 791 H 72.6337 3.2546 2.73781 0
M  V30 792 N 70.9488 -0.749086 1.3866 0
M  V30 793 C 71.8968 -1.88428 1.36373 0
M  V30 794 C 72.8908 -1.67561 0.248929 0
M  V30 795 O 74.0968 -1.75074 0.41821 0
M  V30 796 H 70.4718 -0.620023 0.42553 0
M  V30 797 H 72.4428 -1.87473 2.32156 0
M  V30 798 C 71.1918 -3.25961 1.21014 0
M  V30 799 H 70.5148 -3.42607 2.06059 0
M  V30 800 H 71.9548 -4.05625 1.23469 0
M  V30 801 C 70.4138 -3.36799 -0.0825941 0
M  V30 802 O 70.9438 -3.87517 -1.05797 0
M  V30 803 N 69.1498 -2.90258 -0.140939 0
M  V30 804 H 68.6968 -2.49174 0.653477 0
M  V30 805 H 68.6548 -2.97889 -1.00545 0
M  V30 806 N 72.4269 -1.23603 -0.977757 0
M  V30 807 C 73.6729 -1.07129 -1.72195 0
M  V30 808 C 74.0059 0.390501 -1.90233 0
M  V30 809 O 73.2809 1.28902 -1.45653 0
M  V30 810 C 73.5639 -1.80031 -3.11867 0
M  V30 811 C 73.4169 -3.33899 -3.01383 0
M  V30 812 C 74.7359 -1.56492 -4.11337 0
M  V30 813 H 71.8549 -0.390571 -0.624999 0
M  V30 814 H 74.4969 -1.52142 -1.13811 0
M  V30 815 H 72.6469 -1.41768 -3.6171 0
M  V30 816 H 74.3189 -3.81699 -2.59043 0
M  V30 817 H 72.5619 -3.62796 -2.37827 0
M  V30 818 H 73.2329 -3.801 -4.00285 0
M  V30 819 H 75.7089 -1.89757 -3.70313 0
M  V30 820 H 74.5849 -2.09973 -5.07151 0
M  V30 821 H 74.8459 -0.500874 -4.39254 0
M  V30 822 N 73.905 1.17692 -1.04816 0
M  V30 823 C 74.868 2.19787 -0.650117 0
M  V30 824 C 75.868 1.58044 0.296427 0
M  V30 825 O 77.058 1.74012 0.0808097 0
M  V30 826 C 74.19 3.40869 0.0456987 0
M  V30 827 H 75.383 2.56516 -1.5537 0
M  V30 828 H 72.936 1.31708 -0.841594 0
M  V30 829 H 73.671 3.09681 0.962726 0
M  V30 830 H 73.456 3.86928 -0.634727 0
M  V30 831 H 74.946 4.16445 0.310432 0
M  V30 832 N 75.3831 0.828654 1.34056 0
M  V30 833 C 76.3301 0.252567 2.29414 0
M  V30 834 C 77.3001 -0.62588 1.53857 0
M  V30 835 O 78.4851 -0.566312 1.82202 0
M  V30 836 C 75.6251 -0.574831 3.40279 0
M  V30 837 C 74.7381 0.326499 4.30764 0
M  V30 838 C 73.8731 -0.511016 5.28736 0
M  V30 839 C 72.9121 0.389342 6.1086 0
M  V30 840 N 72.0491 -0.409439 7.00905 0
M  V30 841 H 76.8891 1.07108 2.78086 0
M  V30 842 H 74.4261 0.539677 1.36843 0
M  V30 843 H 76.3841 -1.06992 4.03248 0
M  V30 844 H 75.0141 -1.35841 2.92826 0
M  V30 845 H 74.0661 0.939837 3.68607 0
M  V30 846 H 75.3781 1.01857 4.88289 0
M  V30 847 H 74.5321 -1.07035 5.97184 0
M  V30 848 H 73.2711 -1.23657 4.71763 0
M  V30 849 H 72.2761 0.960769 5.4134 0
M  V30 850 H 73.5011 1.1131 6.69916 0
M  V30 851 H 71.4471 -1.11856 6.46393 0
M  V30 852 H 71.3641 0.224126 7.55668 0
M  V30 853 H 72.6321 -0.951336 7.73673 0
M  V30 854 N 76.8612 -1.46375 0.584142 0
M  V30 855 C 77.8092 -2.32042 -0.161047 0
M  V30 856 C 78.8032 -1.44569 -0.882966 0
M  V30 857 O 80.0092 -1.61186 -0.801191 0
M  V30 858 H 76.3842 -0.748659 -0.0708033 0
M  V30 859 H 78.3552 -2.92704 0.580269 0
M  V30 860 C 77.1042 -3.27762 -1.1605 0
M  V30 861 H 76.4272 -3.95051 -0.614419 0
M  V30 862 H 77.8672 -3.90481 -1.65228 0
M  V30 863 C 76.3262 -2.53218 -2.22221 0
M  V30 864 O 76.8562 -2.29628 -3.29597 0
M  V30 865 N 75.0622 -2.13756 -1.96868 0
M  V30 866 H 74.6092 -2.33142 -1.09557 0
M  V30 867 H 74.5672 -1.642 -2.68115 0
M  V30 868 N 78.3393 -0.321999 -1.54275 0
M  V30 869 C 79.5853 0.281461 -2.00837 0
M  V30 870 C 79.9183 1.51909 -1.20985 0
M  V30 871 O 79.1933 1.923 -0.291733 0
M  V30 872 C 79.4763 0.617162 -3.54772 0
M  V30 873 C 79.3293 -0.631064 -4.45351 0
M  V30 874 C 80.6483 1.43542 -4.16033 0
M  V30 875 H 77.7673 0.100826 -0.730071 0
M  V30 876 H 80.4093 -0.438268 -1.84876 0
M  V30 877 H 78.5593 1.23034 -3.68504 0
M  V30 878 H 80.2313 -1.26934 -4.43492 0
M  V30 879 H 78.4743 -1.26025 -4.15091 0
M  V30 880 H 79.1453 -0.351735 -5.50878 0
M  V30 881 H 81.6213 0.917134 -4.05867 0
M  V30 882 H 80.4973 1.63907 -5.23856 0
M  V30 883 H 80.7583 2.43108 -3.69257 0
M  V30 884 N 79.8174 1.5752 -0.0501392 0
M  V30 885 C 81.0664 1.91827 0.623328 0
M  V30 886 C 81.3794 0.930222 1.72065 0
M  V30 887 O 82.5854 1.1653 2.4522 0
M  V30 888 C 81.0414 3.40692 1.16003 0
M  V30 889 C 80.6494 4.479 0.0948811 0
M  V30 890 C 82.3934 3.84034 1.80881 0
M  V30 891 C 80.3004 5.87879 0.644411 0
M  V30 892 H 79.2304 0.715918 0.236596 0
M  V30 893 H 81.8814 1.83115 -0.118861 0
M  V30 894 H 80.2634 3.44405 1.9545 0
M  V30 895 H 81.4374 4.55775 -0.678675 0
M  V30 896 H 79.7524 4.13892 -0.45637 0
M  V30 897 H 82.3494 4.85984 2.22988 0
M  V30 898 H 82.6924 3.20225 2.6601 0
M  V30 899 H 83.2254 3.82833 1.0809 0
M  V30 900 H 79.9644 6.55282 -0.169229 0
M  V30 901 H 79.4844 5.83567 1.38598 0
M  V30 902 H 81.1634 6.37098 1.12763 0
M  V30 903 N 81.2955 -0.223234 1.56011 0
M  V30 904 C 82.2285 -1.30377 1.87289 0
M  V30 905 C 83.2065 -1.45286 0.730112 0
M  V30 906 O 84.3905 -1.61126 0.978302 0
M  V30 907 C 81.5175 -2.67431 2.07843 0
M  V30 908 C 80.5635 -2.69546 3.30526 0
M  V30 909 S 81.3965 -2.23781 4.865 0
M  V30 910 C 82.5525 -3.62714 5.10088 0
M  V30 911 H 82.7855 -1.03652 2.78646 0
M  V30 912 H 80.3185 -0.425393 1.48424 0
M  V30 913 H 82.2765 -3.46336 2.20368 0
M  V30 914 H 80.9375 -2.91381 1.17285 0
M  V30 915 H 80.1305 -3.70255 3.41947 0
M  V30 916 H 79.7325 -1.98703 3.16849 0
M  V30 917 H 82.0245 -4.58391 4.98883 0
M  V30 918 H 82.9675 -3.5621 6.11981 0
M  V30 919 H 83.3755 -3.56323 4.37829 0
M  V30 920 N 82.7736 -1.49793 -0.48987 0
M  V30 921 C 84.0206 -1.59841 -1.24327 0
M  V30 922 C 84.3486 -0.290135 -1.92324 0
M  V30 923 O 83.6036 0.722749 -1.81865 0
M  V30 924 C 83.9026 -2.71488 -2.32441 0
M  V30 925 C 83.5686 -4.12614 -1.81826 0
M  V30 926 C 82.2306 -4.51017 -1.67742 0
M  V30 927 C 84.5826 -5.00892 -1.4407 0
M  V30 928 C 81.9106 -5.75459 -1.14297 0
M  V30 929 C 84.2626 -6.25863 -0.920742 0
M  V30 930 C 82.9266 -6.63086 -0.766383 0
M  V30 931 H 82.1966 -0.584899 -0.454944 0
M  V30 932 H 84.8436 -1.83663 -0.542215 0
M  V30 933 H 83.1486 -2.4168 -3.0838 0
M  V30 934 H 84.8456 -2.76469 -2.90458 0
M  V30 935 H 81.4356 -3.82307 -1.93751 0
M  V30 936 H 85.6196 -4.7187 -1.53794 0
M  V30 937 H 80.8756 -6.02989 -1.01068 0
M  V30 938 H 85.0496 -6.9364 -0.619448 0
M  V30 939 H 82.6766 -7.59393 -0.350083 0
M  V30 940 N 84.2517 0.741722 -1.39055 0
M  V30 941 C 85.1817 1.869 -1.39966 0
M  V30 942 C 86.1627 1.6804 -0.26392 0
M  V30 943 O 87.3477 1.88458 -0.468755 0
M  V30 944 C 84.4777 3.24572 -1.23574 0
M  V30 945 C 83.4317 3.58056 -2.34477 0
M  V30 946 C 82.7577 4.94593 -2.0318 0
M  V30 947 C 84.0577 3.61716 -3.76774 0
M  V30 948 H 85.7517 1.86395 -2.34302 0
M  V30 949 H 83.2977 0.895361 -1.1278 0
M  V30 950 H 85.2507 4.031 -1.22834 0
M  V30 951 H 83.9747 3.25587 -0.257045 0
M  V30 952 H 82.6337 2.81854 -2.34423 0
M  V30 953 H 82.2817 4.92181 -1.03765 0
M  V30 954 H 81.9817 5.17964 -2.77465 0
M  V30 955 H 83.5057 5.75486 -2.04079 0
M  V30 956 H 84.9197 4.30335 -3.78794 0
M  V30 957 H 83.3167 3.96603 -4.50362 0
M  V30 958 H 84.3867 2.61672 -4.08235 0
M  V30 959 N 85.7298 1.2412 0.971189 0
M  V30 960 C 86.9778 1.07668 1.71032 0
M  V30 961 C 87.2988 -0.385797 1.91146 0
M  V30 962 O 86.5688 -1.27569 1.4867 0
M  V30 963 H 85.1488 0.395429 0.633755 0
M  V30 964 H 87.8108 1.55984 1.16855 0
M  V30 965 H 86.9068 1.57195 2.69622 0
M  V30 966 N 87.2079 -1.17134 1.05439 0
M  V30 967 C 88.4849 -1.83411 0.679699 0
M  V30 968 C 88.8649 -1.9368 -0.839726 0
M  V30 969 O 88.2129 -1.47325 -1.74664 0
M  V30 970 C 88.4229 -3.20918 1.37159 0
M  V30 971 C 89.7709 -3.96796 1.51123 0
M  V30 972 O 90.7949 -3.30406 1.3308 0
M  V30 973 O 89.6539 -5.15778 1.80651 0
M  V30 974 H 86.7479 -0.79154 0.239569 0
M  V30 975 H 89.2939 -1.24411 1.15413 0
M  V30 976 H 88.0659 -3.08428 2.40807 0
M  V30 977 H 87.6889 -3.87587 0.886674 0
M  V30 978 N 88.686 -0.835752 -1.33615 0
M  V30 979 C 89.934 -0.429109 -1.97492 0
M  V30 980 C 90.255 1.01433 -1.66543 0
M  V30 981 O 89.525 1.70611 -0.962744 0
M  V30 982 H 88.105 -0.155686 -0.730596 0
M  V30 983 H 90.767 -1.06802 -1.63031 0
M  V30 984 H 89.863 -0.55861 -3.0706 0
M  V30 985 N 90.1641 1.46063 -0.591896 0
M  V30 986 C 91.0971 2.27452 0.184617 0
M  V30 987 C 92.0751 1.36188 0.888351 0
M  V30 988 O 93.2591 1.65606 0.90039 0
M  V30 989 C 90.3861 3.14162 1.26571 0
M  V30 990 C 89.4321 4.21255 0.666814 0
M  V30 991 S 90.2651 5.33034 -0.513345 0
M  V30 992 C 91.4211 6.23311 0.56872 0
M  V30 993 H 91.6541 2.92963 -0.505939 0
M  V30 994 H 89.1871 1.49676 -0.379014 0
M  V30 995 H 91.1451 3.6468 1.88463 0
M  V30 996 H 89.8061 2.47946 1.92826 0
M  V30 997 H 88.9991 4.81788 1.47974 0
M  V30 998 H 88.6011 3.73797 0.123359 0
M  V30 999 H 90.8931 6.61758 1.45198 0
M  V30 1000 H 91.8361 7.081 -7.23824e-05 0
M  V30 1001 H 92.2441 5.57646 0.876996 0
M  V30 1002 N 91.6422 0.330177 1.54103 0
M  V30 1003 C 92.8902 -0.269871 2.0029 0
M  V30 1004 C 93.2112 -1.52133 1.21986 0
M  V30 1005 O 92.4812 -1.93212 0.323438 0
M  V30 1006 H 91.0612 -0.10271 0.739905 0
M  V30 1007 H 93.7232 0.448249 1.89675 0
M  V30 1008 H 92.8192 -0.52166 3.07709 0
M  V30 1009 N 93.1203 -1.57491 0.0584922 0
M  V30 1010 C 94.3663 -1.93264 -0.614558 0
M  V30 1011 C 94.6993 -0.937717 -1.7006 0
M  V30 1012 O 93.9743 0.0351652 -1.94468 0
M  V30 1013 C 94.2573 -3.3938 -1.20386 0
M  V30 1014 C 94.1103 -4.49625 -0.125375 0
M  V30 1015 C 95.4293 -3.86039 -2.11334 0
M  V30 1016 H 92.5483 -0.702791 -0.221933 0
M  V30 1017 H 95.1903 -1.8961 0.12175 0
M  V30 1018 H 93.3403 -3.42626 -1.83139 0
M  V30 1019 H 95.0123 -4.58506 0.506971 0
M  V30 1020 H 93.2553 -4.30354 0.545672 0
M  V30 1021 H 93.9263 -5.48967 -0.577861 0
M  V30 1022 H 96.4023 -3.84716 -1.58534 0
M  V30 1023 H 95.2783 -4.88914 -2.49507 0
M  V30 1024 H 95.5393 -3.23215 -3.01636 0
M  V30 1025 N 94.5984 0.214957 -1.56127 0
M  V30 1026 C 95.8234 0.95924 -1.83884 0
M  V30 1027 C 96.2484 1.7689 -0.639644 0
M  V30 1028 O 95.6064 1.76566 0.411601 0
M  V30 1029 C 95.6544 1.84723 -3.09693 0
M  V30 1030 O 94.7584 2.94346 -2.8885 0
M  V30 1031 H 94.0994 0.27125 -0.606069 0
M  V30 1032 H 96.6294 0.226276 -2.03345 0
M  V30 1033 H 96.6394 2.25576 -3.39969 0
M  V30 1034 H 95.3144 1.25218 -3.96602 0
M  V30 1035 H 93.8914 2.57391 -2.69823 0
M  V30 1036 N 96.0765 1.50051 0.48192 0
M  V30 1037 C 97.3045 1.64237 1.25832 0
M  V30 1038 C 97.7195 0.321336 1.86045 0
M  V30 1039 O 97.0765 -0.695478 1.68729 0
M  V30 1040 C 97.1275 2.72548 2.37487 0
M  V30 1041 O 96.8485 3.99529 1.79745 0
M  V30 1042 C 98.3495 2.9761 3.28547 0
M  V30 1043 H 95.5695 0.55237 0.380957 0
M  V30 1044 H 98.1135 1.96207 0.576467 0
M  V30 1045 H 96.2685 2.43303 3.01467 0
M  V30 1046 H 96.6825 4.59342 2.5319 0
M  V30 1047 H 98.1565 3.77084 4.03127 0
M  V30 1048 H 98.6335 2.0826 3.86684 0
M  V30 1049 H 99.2395 3.28345 2.70314 0
M  V30 1050 N 97.5546 -0.734337 1.39446 0
M  V30 1051 C 98.8006 -1.49613 1.36908 0
M  V30 1052 C 99.1336 -1.94169 -0.0347829 0
M  V30 1053 O 98.4086 -1.66833 -0.999847 0
M  V30 1054 C 98.6916 -2.73534 2.34203 0
M  V30 1055 C 98.5446 -2.34993 3.83534 0
M  V30 1056 C 99.8636 -3.75635 2.29317 0
M  V30 1057 H 96.9826 -0.542714 0.498629 0
M  V30 1058 H 99.6246 -0.839597 1.70443 0
M  V30 1059 H 97.7746 -3.29553 2.05736 0
M  V30 1060 H 99.4466 -1.84601 4.22753 0
M  V30 1061 H 97.6896 -1.67213 4.00278 0
M  V30 1062 H 98.3606 -3.23738 4.47099 0
M  V30 1063 H 100.837 -3.29203 2.54489 0
M  V30 1064 H 99.7126 -4.60008 2.99472 0
M  V30 1065 H 99.9736 -4.22603 1.29842 0
M  V30 1066 N 99.0327 -1.24633 -0.964593 0
M  V30 1067 C 100.261 -1.11501 -1.74285 0
M  V30 1068 C 100.676 0.332165 -1.85855 0
M  V30 1069 O 100.033 1.22903 -1.34911 0
M  V30 1070 C 100.084 -1.75258 -3.16175 0
M  V30 1071 O 99.8047 -3.14318 -3.05182 0
M  V30 1072 C 101.306 -1.67776 -4.10324 0
M  V30 1073 H 98.5257 -0.389407 -0.546446 0
M  V30 1074 H 101.07 -1.64801 -1.21083 0
M  V30 1075 H 99.2247 -1.25954 -3.66353 0
M  V30 1076 H 99.6387 -3.4551 -3.94618 0
M  V30 1077 H 101.113 -2.17064 -5.0753 0
M  V30 1078 H 101.59 -0.639584 -4.34518 0
M  V30 1079 H 102.196 -2.16522 -3.66058 0
M  V30 1080 N 100.511 1.16574 -1.06058 0
M  V30 1081 C 101.474 2.19085 -0.673392 0
M  V30 1082 C 102.474 1.5835 0.279648 0
M  V30 1083 O 103.664 1.74088 0.0623488 0
M  V30 1084 C 100.796 3.40899 0.00954234 0
M  V30 1085 H 101.989 2.54853 -1.58081 0
M  V30 1086 H 99.5418 1.30808 -0.855516 0
M  V30 1087 H 100.277 3.10684 0.929826 0
M  V30 1088 H 100.062 3.86233 -0.67573 0
M  V30 1089 H 101.552 4.1675 0.266245 0
M  V30 1090 N 101.989 0.842826 1.3317 0
M  V30 1091 C 102.952 0.284065 2.27433 0
M  V30 1092 C 103.952 -0.54948 1.5112 0
M  V30 1093 O 105.142 -0.362699 1.70382 0
M  V30 1094 C 102.274 -0.599384 3.35589 0
M  V30 1095 H 103.467 1.11589 2.78366 0
M  V30 1096 H 101.02 0.616221 1.4364 0
M  V30 1097 H 101.755 -1.45349 2.89904 0
M  V30 1098 H 101.54 -0.00291266 3.921 0
M  V30 1099 H 103.03 -0.983488 4.05854 0
M  V30 1100 N 103.467 -1.45747 0.599634 0
M  V30 1101 C 104.883 -1.57424 0.26264 0
M  V30 1102 C 105.083 -1.59222 -1.23493 0
M  V30 1103 O 104.139 -1.51825 -2.01756 0
M  V30 1104 C 105.452 -2.86061 0.926795 0
M  V30 1105 C 107 -2.99722 0.901967 0
M  V30 1106 C 107.475 -4.31119 1.54598 0
M  V30 1107 N 108.966 -4.37858 1.5111 0
M  V30 1108 C 109.701 -5.3818 1.97863 0
M  V30 1109 N 109.197 -6.45083 2.52666 0
M  V30 1110 N 110.99 -5.29487 1.88679 0
M  V30 1111 H 103.141 -1.42823 1.57211 0
M  V30 1112 H 105.404 -0.68235 0.658105 0
M  V30 1113 H 105.11 -2.90605 1.98095 0
M  V30 1114 H 104.984 -3.74563 0.445238 0
M  V30 1115 H 107.371 -2.9475 -0.143617 0
M  V30 1116 H 107.452 -2.12652 1.42171 0
M  V30 1117 H 107.096 -4.36849 2.59085 0
M  V30 1118 H 107.026 -5.16992 1.00132 0
M  V30 1119 H 109.517 -3.61209 1.11068 0
M  V30 1120 H 109.83 -7.17869 2.86155 0
M  V30 1121 H 108.175 -6.45856 2.56701 0
M  V30 1122 H 111.366 -4.44877 1.4561 0
M  V30 1123 H 111.539 -6.07524 2.25429 0
M  V30 1124 N 104.945 -0.338344 -1.53925 0
M  V30 1125 C 106.194 0.260732 -2.00008 0
M  V30 1126 C 106.507 1.52073 -1.23017 0
M  V30 1127 O 107.713 2.19672 -1.5955 0
M  V30 1128 C 106.169 0.51515 -3.56194 0
M  V30 1129 C 105.777 -0.728645 -4.42035 0
M  V30 1130 C 107.521 1.07337 -4.10706 0
M  V30 1131 C 105.428 -0.445315 -5.89721 0
M  V30 1132 H 104.358 0.101205 -0.747177 0
M  V30 1133 H 107.009 -0.452866 -1.77824 0
M  V30 1134 H 105.391 1.28932 -3.74423 0
M  V30 1135 H 106.565 -1.50352 -4.35581 0
M  V30 1136 H 104.88 -1.20813 -3.98489 0
M  V30 1137 H 107.477 1.30022 -5.18651 0
M  V30 1138 H 107.82 2.0273 -3.63602 0
M  V30 1139 H 108.353 0.360034 -3.96167 0
M  V30 1140 H 105.092 -1.36883 -6.41049 0
M  V30 1141 H 104.612 0.291569 -5.99091 0
M  V30 1142 H 106.291 -0.0606218 -6.46972 0
M  V30 1143 N 106.423 1.57458 -0.0668435 0
M  V30 1144 C 107.353 2.15468 0.899764 0
M  V30 1145 C 108.334 1.08042 1.31381 0
M  V30 1146 O 109.519 1.36054 1.38574 0
M  V30 1147 C 106.649 2.71232 2.16911 0
M  V30 1148 C 105.603 3.83781 1.89463 0
M  V30 1149 C 104.929 4.26127 3.22986 0
M  V30 1150 C 106.229 5.08238 1.20381 0
M  V30 1151 H 107.923 2.96488 0.416529 0
M  V30 1152 H 105.469 1.4262 0.198908 0
M  V30 1153 H 107.422 3.10458 2.84945 0
M  V30 1154 H 106.146 1.87426 2.67468 0
M  V30 1155 H 104.805 3.45051 1.23836 0
M  V30 1156 H 104.453 3.39249 3.71374 0
M  V30 1157 H 104.153 5.01993 3.05413 0
M  V30 1158 H 105.677 4.67966 3.92225 0
M  V30 1159 H 107.091 5.44811 1.78475 0
M  V30 1160 H 105.488 5.89349 1.13083 0
M  V30 1161 H 106.558 4.84558 0.182153 0
M  V30 1162 N 107.901 -0.206675 1.56239 0
M  V30 1163 C 108.848 -1.25617 1.93621 0
M  V30 1164 C 109.818 -1.45824 0.795274 0
M  V30 1165 O 111.003 -1.59148 1.05245 0
M  V30 1166 C 108.143 -2.59839 2.27107 0
M  V30 1167 C 107.256 -2.47308 3.54207 0
M  V30 1168 C 106.391 -3.74155 3.7707 0
M  V30 1169 C 105.43 -3.56407 4.97635 0
M  V30 1170 N 104.567 -4.75238 5.1681 0
M  V30 1171 H 109.407 -0.930383 2.83104 0
M  V30 1172 H 106.944 -0.448065 1.4011 0
M  V30 1173 H 108.902 -3.38021 2.44535 0
M  V30 1174 H 107.532 -2.90485 1.40778 0
M  V30 1175 H 106.584 -1.60483 3.4489 0
M  V30 1176 H 107.896 -2.30122 4.42544 0
M  V30 1177 H 107.05 -4.60778 3.94675 0
M  V30 1178 H 105.789 -3.94282 2.87042 0
M  V30 1179 H 104.794 -2.68168 4.79964 0
M  V30 1180 H 106.019 -3.37736 5.89161 0
M  V30 1181 H 103.965 -4.95651 4.29728 0
M  V30 1182 H 103.882 -4.60835 5.99306 0
M  V30 1183 H 105.15 -5.63246 5.38864 0
M  V30 1184 N 109.379 -1.50304 -0.473955 0
M  V30 1185 C 110.627 -1.60832 -1.22382 0
M  V30 1186 C 110.948 -0.30939 -1.9253 0
M  V30 1187 O 110.218 0.67296 -1.83978 0
M  V30 1188 H 108.798 -0.592652 -0.454723 0
M  V30 1189 H 111.46 -1.87068 -0.546968 0
M  V30 1190 H 110.556 -2.41803 -1.97327 0
M  V30 1191 N 110.857 0.726932 -1.39834 0
M  V30 1192 C 111.789 1.85147 -1.35104 0
M  V30 1193 C 112.802 1.60736 -0.258392 0
M  V30 1194 O 113.991 1.70821 -0.517931 0
M  V30 1195 C 111.091 3.21332 -1.07697 0
M  V30 1196 C 110.264 3.73033 -2.28396 0
M  V30 1197 C 109.323 4.87802 -1.97322 0
M  V30 1198 O 108.349 5.01043 -2.70083 0
M  V30 1199 N 109.551 5.72768 -0.944273 0
M  V30 1200 H 112.316 1.89706 -2.32017 0
M  V30 1201 H 109.877 0.908006 -1.3404 0
M  V30 1202 H 111.869 3.95691 -0.849144 0
M  V30 1203 H 110.439 3.11992 -0.194909 0
M  V30 1204 H 109.659 2.89934 -2.6708 0
M  V30 1205 H 110.947 4.0431 -3.08887 0
M  V30 1206 H 110.345 5.64669 -0.341427 0
M  V30 1207 H 108.902 6.4716 -0.776346 0
M  V30 1208 N 112.336 1.25143 0.95797 0
M  V30 1209 C 113.266 1.07711 2.07173 0
M  V30 1210 C 114.247 -0.0128462 1.70095 0
M  V30 1211 O 115.432 0.156061 1.93572 0
M  V30 1212 C 112.562 0.691503 3.40346 0
M  V30 1213 C 111.516 1.73132 3.9142 0
M  V30 1214 C 110.842 1.20049 5.21049 0
M  V30 1215 C 112.142 3.1294 4.1817 0
M  V30 1216 H 113.836 2.00873 2.22014 0
M  V30 1217 H 111.382 0.967191 1.06684 0
M  V30 1218 H 113.335 0.556505 4.17709 0
M  V30 1219 H 112.059 -0.275819 3.25433 0
M  V30 1220 H 110.718 1.8547 3.16222 0
M  V30 1221 H 110.366 0.223499 5.02503 0
M  V30 1222 H 110.066 1.89545 5.56189 0
M  V30 1223 H 111.59 1.07782 6.01012 0
M  V30 1224 H 113.004 3.03775 4.86203 0
M  V30 1225 H 111.401 3.79875 4.64559 0
M  V30 1226 H 112.471 3.6025 3.24573 0
M  V30 1227 N 113.814 -1.1601 1.06675 0
M  V30 1228 C 114.764 -2.18512 0.650888 0
M  V30 1229 C 115.748 -1.57677 -0.320441 0
M  V30 1230 O 116.94 -1.76482 -0.135266 0
M  V30 1231 C 114.069 -3.43273 0.0429255 0
M  V30 1232 C 113.155 -4.11176 1.03898 0
M  V30 1233 N 113.546 -4.54672 2.216 0
M  V30 1234 C 111.844 -4.37417 0.870779 0
M  V30 1235 C 112.545 -5.07248 2.84736 0
M  V30 1236 N 111.521 -5.0037 2.12441 0
M  V30 1237 H 115.323 -2.49863 1.54745 0
M  V30 1238 H 112.837 -1.32503 0.938975 0
M  V30 1239 H 114.834 -4.16006 -0.272857 0
M  V30 1240 H 113.494 -3.13408 -0.84884 0
M  V30 1241 H 114.505 -4.4828 2.59356 0
M  V30 1242 H 111.182 -4.17488 0.0313293 0
M  V30 1243 H 112.572 -5.50912 3.84636 0
M  V30 1244 N 115.292 -0.849877 -1.32721 0
M  V30 1245 C 116.242 -0.262892 -2.26479 0
M  V30 1246 C 117.226 0.588493 -1.49752 0
M  V30 1247 O 118.418 0.438659 -1.71478 0
M  V30 1248 C 115.547 0.551818 -3.38836 0
M  V30 1249 C 114.633 -0.311689 -4.22953 0
M  V30 1250 N 115.024 -1.39567 -4.86163 0
M  V30 1251 C 113.322 -0.100611 -4.45887 0
M  V30 1252 C 114.023 -1.92651 -5.48872 0
M  V30 1253 N 112.999 -1.22637 -5.29586 0
M  V30 1254 H 116.801 -1.09166 -2.72873 0
M  V30 1255 H 114.315 -0.695486 -1.46754 0
M  V30 1256 H 116.312 0.988713 -4.05006 0
M  V30 1257 H 114.972 1.37844 -2.93988 0
M  V30 1258 H 115.983 -1.77859 -4.86402 0
M  V30 1259 H 112.66 0.691681 -4.11731 0
M  V30 1260 H 114.05 -2.83487 -6.09167 0
M  V30 1261 N 116.77 1.45427 -0.607355 0
M  V30 1262 C 117.718 2.32269 0.12411 0
M  V30 1263 C 118.712 1.45955 0.859854 0
M  V30 1264 O 119.918 1.6244 0.775447 0
M  V30 1265 H 116.293 0.749691 0.0588839 0
M  V30 1266 H 118.264 2.91743 -0.626762 0
M  V30 1267 C 117.013 3.29567 1.1082 0
M  V30 1268 H 116.336 3.95978 0.551492 0
M  V30 1269 H 117.776 3.93061 1.58995 0
M  V30 1270 C 116.235 2.56722 2.18164 0
M  V30 1271 O 116.765 2.34842 3.25902 0
M  V30 1272 N 114.971 2.16861 1.93442 0
M  V30 1273 H 114.518 2.34855 1.05834 0
M  V30 1274 H 114.476 1.68444 2.65469 0
M  V30 1275 N 118.248 0.346503 1.53744 0
M  V30 1276 C 119.659 -0.136779 1.86198 0
M  V30 1277 C 120.01 -1.49749 1.26766 0
M  V30 1278 O 119.135 -2.08417 0.582355 0
M  V30 1279 C 119.73 -0.254966 3.37839 0
M  V30 1280 C 118.289 -0.682482 3.70161 0
M  V30 1281 C 117.436 0.181981 2.76702 0
M  V30 1282 H 120.387 0.565994 1.48264 0
M  V30 1283 H 120.408 -1.08195 3.64793 0
M  V30 1284 H 119.92 0.735526 3.81066 0
M  V30 1285 H 118.021 -1.68189 3.3248 0
M  V30 1286 H 118.134 -0.470326 4.76786 0
M  V30 1287 H 116.498 -0.34615 2.52337 0
M  V30 1288 H 117.281 1.16966 3.2276 0
M  V30 1289 N 119.726 -1.57421 0.075193 0
M  V30 1290 C 120.974 -1.93236 -0.591974 0
M  V30 1291 C 121.295 -0.956241 -1.69944 0
M  V30 1292 O 120.565 -0.00494792 -1.95899 0
M  V30 1293 H 119.145 -0.713355 -0.22166 0
M  V30 1294 H 121.807 -1.9444 0.133848 0
M  V30 1295 H 120.903 -2.95131 -1.01509 0
M  V30 1296 N 121.204 0.198386 -1.56346 0
M  V30 1297 C 122.114 1.2664 -1.97483 0
M  V30 1298 C 123.13 1.49989 -0.882002 0
M  V30 1299 O 124.306 1.62668 -1.18748 0
M  V30 1300 C 121.371 2.59141 -2.30319 0
M  V30 1301 C 120.432 2.43892 -3.53292 0
M  V30 1302 C 119.665 3.70074 -3.84553 0
M  V30 1303 O 119.888 4.74101 -3.1715 0
M  V30 1304 O 118.822 3.658 -4.7799 0
M  V30 1305 H 122.648 0.947304 -2.88548 0
M  V30 1306 H 120.233 0.403123 -1.43859 0
M  V30 1307 H 122.115 3.37352 -2.5253 0
M  V30 1308 H 120.79 2.90684 -1.42423 0
M  V30 1309 H 119.697 1.63803 -3.36332 0
M  V30 1310 H 121.03 2.17282 -4.41644 0
M  V30 1311 N 122.682 1.50554 0.465978 0
M  V30 1312 C 123.592 1.72585 1.58907 0
M  V30 1313 C 124.608 0.60911 1.6299 0
M  V30 1314 O 125.784 0.88804 1.80765 0
M  V30 1315 C 122.849 1.81995 2.95091 0
M  V30 1316 C 121.91 3.05751 3.01355 0
M  V30 1317 C 121.143 3.14702 4.31043 0
M  V30 1318 O 121.366 2.30313 5.21835 0
M  V30 1319 O 120.3 4.07468 4.43005 0
M  V30 1320 H 124.126 2.67799 1.43239 0
M  V30 1321 H 121.711 1.34711 0.646013 0
M  V30 1322 H 123.593 1.90335 3.75966 0
M  V30 1323 H 122.268 0.899659 3.10947 0
M  V30 1324 H 121.175 3.02908 2.19539 0
M  V30 1325 H 122.508 3.97375 2.90437 0
M  V30 1326 N 124.16 -0.719506 1.40217 0
M  V30 1327 C 125.388 -1.50864 1.41589 0
M  V30 1328 C 125.803 -1.88794 0.0145275 0
M  V30 1329 O 125.16 -1.55174 -0.960594 0
M  V30 1330 C 125.211 -2.78646 2.30302 0
M  V30 1331 O 124.932 -2.42321 3.64983 0
M  V30 1332 C 126.433 -3.72569 2.40224 0
M  V30 1333 H 123.653 -0.465709 0.48307 0
M  V30 1334 H 126.197 -0.88785 1.84221 0
M  V30 1335 H 124.352 -3.37019 1.91042 0
M  V30 1336 H 124.766 -3.24514 4.12057 0
M  V30 1337 H 126.24 -4.5908 3.06512 0
M  V30 1338 H 126.717 -4.15403 1.42608 0
M  V30 1339 H 127.323 -3.20109 2.80019 0
M  V30 1340 N 125.638 -1.25649 -0.95132 0
M  V30 1341 C 127.054 -1.02542 -1.223 0
M  V30 1342 C 127.254 0.255715 -1.99871 0
M  V30 1343 O 126.31 0.967558 -2.33226 0
M  V30 1344 C 127.623 -2.25065 -1.99415 0
M  V30 1345 C 129.171 -2.29861 -2.12446 0
M  V30 1346 C 129.646 -3.52048 -2.92961 0
M  V30 1347 N 131.137 -3.52465 -3.00538 0
M  V30 1348 C 131.872 -4.43672 -3.63239 0
M  V30 1349 N 131.368 -5.45157 -4.27523 0
M  V30 1350 N 133.161 -4.31346 -3.60412 0
M  V30 1351 H 125.312 -2.07951 -0.432471 0
M  V30 1352 H 127.575 -0.91339 -0.253816 0
M  V30 1353 H 127.281 -3.18194 -1.49817 0
M  V30 1354 H 127.155 -2.28502 -3.00111 0
M  V30 1355 H 129.542 -1.37252 -2.61239 0
M  V30 1356 H 129.623 -2.3044 -1.11044 0
M  V30 1357 H 129.267 -4.44981 -2.44856 0
M  V30 1358 H 129.197 -3.48715 -3.94596 0
M  V30 1359 H 131.688 -2.79056 -2.54826 0
M  V30 1360 H 132.001 -6.10958 -4.73234 0
M  V30 1361 H 130.346 -5.49025 -4.26141 0
M  V30 1362 H 133.537 -3.51288 -3.09377 0
M  V30 1363 H 133.71 -5.02624 -4.0899 0
M  V30 1364 N 127.117 1.15442 -1.07289 0
M  V30 1365 C 128.047 2.22312 -0.714107 0
M  V30 1366 C 129.028 1.67467 0.298155 0
M  V30 1367 O 130.213 1.93445 0.171048 0
M  V30 1368 C 127.343 3.47124 -0.110448 0
M  V30 1369 C 126.297 4.14926 -1.04979 0
M  V30 1370 C 125.623 5.33807 -0.308924 0
M  V30 1371 C 126.923 4.64762 -2.38314 0
M  V30 1372 H 128.617 2.5258 -1.6076 0
M  V30 1373 H 126.163 1.21404 -0.77441 0
M  V30 1374 H 128.116 4.21124 0.152482 0
M  V30 1375 H 126.84 3.16187 0.81812 0
M  V30 1376 H 125.499 3.42866 -1.29764 0
M  V30 1377 H 125.147 4.99126 0.623084 0
M  V30 1378 H 124.847 5.80113 -0.935036 0
M  V30 1379 H 126.371 6.10576 -0.0537771 0
M  V30 1380 H 127.785 5.30292 -2.1786 0
M  V30 1381 H 126.182 5.21728 -2.96514 0
M  V30 1382 H 127.252 3.80434 -3.00663 0
M  V30 1383 N 128.595 0.856903 1.32268 0
M  V30 1384 C 129.505 0.306131 2.32594 0
M  V30 1385 C 130.521 -0.577209 1.64147 0
M  V30 1386 O 131.697 -0.477043 1.95669 0
M  V30 1387 C 128.762 -0.494561 3.43154 0
M  V30 1388 C 127.823 0.415186 4.27288 0
M  V30 1389 C 127.056 -0.347387 5.32568 0
M  V30 1390 O 127.279 -1.57708 5.48165 0
M  V30 1391 O 126.213 0.287982 6.01211 0
M  V30 1392 H 130.039 1.13737 2.81598 0
M  V30 1393 H 127.624 0.619902 1.35932 0
M  V30 1394 H 129.506 -0.948944 4.10576 0
M  V30 1395 H 128.181 -1.30257 2.96336 0
M  V30 1396 H 127.088 0.917793 3.62667 0
M  V30 1397 H 128.421 1.18844 4.77637 0
M  V30 1398 N 130.073 -1.45103 0.615059 0
M  V30 1399 C 131.006 -2.27717 -0.148408 0
M  V30 1400 C 131.984 -1.37584 -0.866572 0
M  V30 1401 O 133.168 -1.67017 -0.87393 0
M  V30 1402 C 130.295 -3.16136 -1.21557 0
M  V30 1403 C 129.341 -4.22263 -0.599712 0
M  V30 1404 S 130.174 -5.3215 0.598081 0
M  V30 1405 C 131.33 -6.24137 -0.469484 0
M  V30 1406 H 131.563 -2.92121 0.552483 0
M  V30 1407 H 129.096 -1.49054 0.402778 0
M  V30 1408 H 131.054 -3.67633 -1.82638 0
M  V30 1409 H 129.715 -2.50982 -1.88857 0
M  V30 1410 H 128.908 -4.84081 -1.4029 0
M  V30 1411 H 128.51 -3.73945 -0.063876 0
M  V30 1412 H 130.802 -6.63984 -1.34652 0
M  V30 1413 H 131.745 -7.0801 0.112725 0
M  V30 1414 H 132.153 -5.58971 -0.788168 0
M  V30 1415 N 131.551 -0.354651 -1.53558 0
M  V30 1416 C 132.828 0.294281 -1.93374 0
M  V30 1417 C 133.208 1.67313 -1.28723 0
M  V30 1418 O 132.556 2.24179 -0.442247 0
M  V30 1419 C 132.766 0.355445 -3.47185 0
M  V30 1420 C 134.114 0.601007 -4.20325 0
M  V30 1421 O 135.138 0.437106 -3.53508 0
M  V30 1422 O 133.997 0.919322 -5.38712 0
M  V30 1423 H 131.091 0.174033 -0.808481 0
M  V30 1424 H 133.637 -0.406638 -1.64756 0
M  V30 1425 H 132.409 -0.611729 -3.86489 0
M  V30 1426 H 132.032 1.1027 -3.82003 0
M  V30 1427 N 133.029 1.57378 -0.0835403 0
M  V30 1428 C 133.976 2.13384 0.879539 0
M  V30 1429 C 134.946 1.04936 1.28754 0
M  V30 1430 O 136.131 1.32662 1.37133 0
M  V30 1431 C 133.271 2.70932 2.13752 0
M  V30 1432 C 132.384 3.93575 1.7811 0
M  V30 1433 C 131.519 4.39326 2.98607 0
M  V30 1434 C 130.558 5.54587 2.59037 0
M  V30 1435 N 129.695 5.95243 3.72331 0
M  V30 1436 H 134.535 2.9537 0.395076 0
M  V30 1437 H 132.072 1.45953 0.183349 0
M  V30 1438 H 134.03 3.02411 2.87408 0
M  V30 1439 H 132.66 1.91693 2.59718 0
M  V30 1440 H 131.712 3.68483 0.94469 0
M  V30 1441 H 133.024 4.77258 1.45005 0
M  V30 1442 H 132.178 4.72528 3.80529 0
M  V30 1443 H 130.917 3.5452 3.34913 0
M  V30 1444 H 129.922 5.21024 1.75539 0
M  V30 1445 H 131.147 6.41133 2.23887 0
M  V30 1446 H 129.093 5.13385 4.08378 0
M  V30 1447 H 129.01 6.73694 3.43034 0
M  V30 1448 H 130.278 6.33072 4.54797 0
M  V30 1449 N 134.507 -0.190092 1.56449 0
M  V30 1450 C 135.754 -0.909705 1.80916 0
M  V30 1451 C 136.082 -1.83047 0.657583 0
M  V30 1452 O 135.337 -1.92428 -0.356356 0
M  V30 1453 C 135.636 -1.75382 3.1141 0
M  V30 1454 C 135.302 -0.983606 4.40041 0
M  V30 1455 C 133.964 -0.770967 4.74984 0
M  V30 1456 C 136.316 -0.442024 5.19322 0
M  V30 1457 C 133.644 -0.0053448 5.867 0
M  V30 1458 C 135.996 0.310412 6.31838 0
M  V30 1459 C 134.66 0.534023 6.6536 0
M  V30 1460 H 133.93 -0.332885 0.662019 0
M  V30 1461 H 136.577 -0.175762 1.90692 0
M  V30 1462 H 134.882 -2.55659 2.96893 0
M  V30 1463 H 136.579 -2.31331 3.27547 0
M  V30 1464 H 133.169 -1.15936 4.12622 0
M  V30 1465 H 137.353 -0.593693 4.92736 0
M  V30 1466 H 132.609 0.177825 6.11141 0
M  V30 1467 H 136.783 0.737419 6.92485 0
M  V30 1468 H 134.41 1.12918 7.51767 0
M  V30 1469 N 135.985 -1.50799 -0.457987 0
M  V30 1470 C 137.396 -1.55152 -1.0385 0
M  V30 1471 C 137.747 -0.362719 -1.92818 0
M  V30 1472 O 136.872 0.522915 -2.09987 0
M  V30 1473 C 137.467 -2.81173 -1.89017 0
M  V30 1474 C 136.026 -2.88164 -2.42154 0
M  V30 1475 C 135.173 -2.49591 -1.20829 0
M  V30 1476 H 138.124 -1.56874 -0.240068 0
M  V30 1477 H 138.145 -2.63769 -2.74238 0
M  V30 1478 H 137.657 -3.67677 -1.24238 0
M  V30 1479 H 135.758 -2.06042 -3.10447 0
M  V30 1480 H 135.871 -3.91356 -2.76364 0
M  V30 1481 H 134.235 -2.02322 -1.54719 0
M  V30 1482 H 135.018 -3.38418 -0.576927 0
M  V30 1483 N 137.463 0.71206 -1.40597 0
M  V30 1484 C 138.71 1.47197 -1.39065 0
M  V30 1485 C 139.038 1.94499 0.00583891 0
M  V30 1486 O 138.293 1.68752 0.99102 0
M  V30 1487 C 138.592 2.71039 -2.32965 0
M  V30 1488 C 138.258 2.42484 -3.80148 0
M  V30 1489 C 136.92 2.34406 -4.20247 0
M  V30 1490 C 139.272 2.18598 -4.73143 0
M  V30 1491 C 136.6 2.00516 -5.51371 0
M  V30 1492 C 138.952 1.8622 -6.0457 0
M  V30 1493 C 137.616 1.76626 -6.43708 0
M  V30 1494 H 136.886 0.538634 -0.508876 0
M  V30 1495 H 139.533 0.815325 -1.73276 0
M  V30 1496 H 137.838 3.41558 -1.91951 0
M  V30 1497 H 139.535 3.29138 -2.29061 0
M  V30 1498 H 136.125 2.49659 -3.4838 0
M  V30 1499 H 140.309 2.23793 -4.42979 0
M  V30 1500 H 135.565 1.91628 -5.80593 0
M  V30 1501 H 139.739 1.66752 -6.76141 0
M  V30 1502 H 137.366 1.50133 -7.45228 0
M  V30 1503 N 138.941 1.26152 0.944643 0
M  V30 1504 C 140.187 1.11657 1.69294 0
M  V30 1505 C 140.52 -0.339926 1.91202 0
M  V30 1506 O 139.795 -1.24994 1.49019 0
M  V30 1507 C 140.078 1.88236 3.06984 0
M  V30 1508 C 139.931 3.41772 2.92424 0
M  V30 1509 C 141.25 1.67343 4.07043 0
M  V30 1510 H 138.369 0.407004 0.614424 0
M  V30 1511 H 141.011 1.55106 1.09737 0
M  V30 1512 H 139.161 1.51308 3.57824 0
M  V30 1513 H 140.833 3.88433 2.48832 0
M  V30 1514 H 139.076 3.68974 2.28124 0
M  V30 1515 H 139.747 3.90579 3.90067 0
M  V30 1516 H 142.223 1.99509 3.65151 0
M  V30 1517 H 141.099 2.23346 5.01406 0
M  V30 1518 H 141.36 0.617158 4.37771 0
M  V30 1519 N 140.419 -1.14872 1.07899 0
M  V30 1520 C 141.382 -2.17986 0.708161 0
M  V30 1521 C 142.382 -1.58775 -0.25442 0
M  V30 1522 O 143.572 -1.74166 -0.034645 0
M  V30 1523 C 140.704 -3.40871 0.0446929 0
M  V30 1524 H 141.897 -2.52306 1.62116 0
M  V30 1525 H 139.45 -1.2943 0.876218 0
M  V30 1526 H 140.185 -3.12124 -0.880281 0
M  V30 1527 H 139.97 -3.8511 0.737091 0
M  V30 1528 H 141.46 -4.17121 -0.19991 0
M  V30 1529 N 141.898 -0.863906 -1.31812 0
M  V30 1530 C 142.828 -0.330843 -2.31144 0
M  V30 1531 C 143.809 0.575005 -1.60087 0
M  V30 1532 O 144.994 0.493304 -1.8783 0
M  V30 1533 C 142.124 0.47374 -3.44054 0
M  V30 1534 C 141.078 -0.338481 -4.26659 0
M  V30 1535 C 140.404 0.591412 -5.31419 0
M  V30 1536 C 141.704 -1.56926 -4.98168 0
M  V30 1537 H 143.398 -1.16086 -2.75979 0
M  V30 1538 H 140.944 -0.559657 -1.32679 0
M  V30 1539 H 142.897 0.857143 -4.12591 0
M  V30 1540 H 141.621 1.33721 -2.9797 0
M  V30 1541 H 140.28 -0.703754 -3.59782 0
M  V30 1542 H 139.928 1.45199 -4.81587 0
M  V30 1543 H 139.628 0.0519022 -5.87577 0
M  V30 1544 H 141.152 0.97179 -6.02817 0
M  V30 1545 H 142.566 -1.25764 -5.59336 0
M  V30 1546 H 140.963 -2.04739 -5.64094 0
M  V30 1547 H 142.033 -2.32544 -4.25501 0
M  V30 1548 N 143.376 1.44774 -0.622745 0
M  V30 1549 C 144.601 2.06999 -0.128968 0
M  V30 1550 C 145.026 1.4617 1.1839 0
M  V30 1551 O 144.384 0.560007 1.72434 0
M  V30 1552 C 144.432 3.60595 -0.0188351 0
M  V30 1553 O 143.536 3.99398 1.02739 0
M  V30 1554 H 142.877 0.659047 -0.0809544 0
M  V30 1555 H 145.407 1.85784 -0.85705 0
M  V30 1556 H 145.417 4.07627 0.174476 0
M  V30 1557 H 144.092 4.04252 -0.977384 0
M  V30 1558 H 142.669 3.64011 0.809326 0
M  V30 1559 N 144.854 0.36279 1.53368 0
M  V30 1560 C 145.801 -0.485008 2.25646 0
M  V30 1561 C 146.771 -1.07982 1.2621 0
M  V30 1562 O 147.956 -1.11284 1.54986 0
M  V30 1563 C 145.096 -1.62023 3.04701 0
M  V30 1564 C 144.209 -1.05086 4.19024 0
M  V30 1565 C 143.344 -2.15496 4.85525 0
M  V30 1566 C 142.383 -1.5601 5.91884 0
M  V30 1567 N 141.52 -2.60241 6.52088 0
M  V30 1568 H 146.36 0.137864 2.97681 0
M  V30 1569 H 143.897 0.0798061 1.46883 0
M  V30 1570 H 145.855 -2.28887 3.48807 0
M  V30 1571 H 144.485 -2.2138 2.34927 0
M  V30 1572 H 143.537 -0.27259 3.79422 0
M  V30 1573 H 144.849 -0.575926 4.95464 0
M  V30 1574 H 144.003 -2.90186 5.32801 0
M  V30 1575 H 142.742 -2.66341 4.08551 0
M  V30 1576 H 141.747 -0.798338 5.43973 0
M  V30 1577 H 142.972 -1.05994 6.70777 0
M  V30 1578 H 140.918 -3.10304 5.77968 0
M  V30 1579 H 140.835 -2.17426 7.24059 0
M  V30 1580 H 142.103 -3.34641 7.04014 0
M  V30 1581 N 146.332 -1.57332 0.0918853 0
M  V30 1582 C 147.56 -1.98574 -0.581048 0
M  V30 1583 C 147.975 -0.970903 -1.61923 0
M  V30 1584 O 147.332 0.0399054 -1.82456 0
M  V30 1585 C 147.383 -3.39872 -1.23164 0
M  V30 1586 O 147.104 -4.37469 -0.234989 0
M  V30 1587 C 148.605 -3.96099 -1.99049 0
M  V30 1588 H 145.825 -0.65261 -0.156018 0
M  V30 1589 H 148.369 -2.0379 0.170225 0
M  V30 1590 H 146.524 -3.35679 -1.93386 0
M  V30 1591 H 146.938 -5.19751 -0.70418 0
M  V30 1592 H 148.412 -4.97127 -2.39934 0
M  V30 1593 H 148.889 -3.3374 -2.85507 0
M  V30 1594 H 149.495 -4.03755 -1.3365 0
M  V30 1595 N 147.81 0.181792 -1.56548 0
M  V30 1596 C 149.04 0.914618 -1.85252 0
M  V30 1597 C 149.448 1.76791 -0.673914 0
M  V30 1598 O 148.791 1.80009 0.366416 0
M  V30 1599 C 148.853 1.85019 -3.08234 0
M  V30 1600 C 148.517 1.17754 -4.41569 0
M  V30 1601 C 149.514 0.548035 -5.17003 0
M  V30 1602 C 147.199 1.17742 -4.88305 0
M  V30 1603 C 149.193 -0.0726128 -6.37359 0
M  V30 1604 C 146.88 0.552946 -6.08593 0
M  V30 1605 C 147.878 -0.070978 -6.82963 0
M  V30 1606 O 147.566 -0.685635 -8.00971 0
M  V30 1607 H 147.298 0.271695 -0.618998 0
M  V30 1608 H 149.852 0.189944 -2.0452 0
M  V30 1609 H 148.082 2.61491 -2.84885 0
M  V30 1610 H 149.771 2.45195 -3.23472 0
M  V30 1611 H 150.537 0.540174 -4.81982 0
M  V30 1612 H 146.416 1.65246 -4.30366 0
M  V30 1613 H 149.96 -0.560213 -6.95347 0
M  V30 1614 H 145.857 0.558354 -6.43081 0
M  V30 1615 H 146.625 -0.58385 -8.16415 0
M  V30 1616 N 149.288 1.51039 0.449983 0
M  V30 1617 C 150.236 1.71995 1.5659 0
M  V30 1618 C 151.23 0.586029 1.5894 0
M  V30 1619 O 152.436 0.76709 1.62837 0
M  V30 1620 H 148.811 0.543233 0.520001 0
M  V30 1621 H 150.782 2.65562 1.36085 0
M  V30 1622 C 149.531 1.8506 2.9436 0
M  V30 1623 H 148.854 2.71712 2.93279 0
M  V30 1624 H 150.294 2.0374 3.71842 0
M  V30 1625 C 148.753 0.607277 3.31382 0
M  V30 1626 O 149.283 -0.243903 4.00959 0
M  V30 1627 N 147.489 0.455073 2.87015 0
M  V30 1628 H 147.036 1.14879 2.30566 0
M  V30 1629 H 146.994 -0.375611 3.12148 0
M  V30 1630 N 150.766 -0.704594 1.40972 0
M  V30 1631 C 151.994 -1.49354 1.43182 0
M  V30 1632 C 152.409 -1.88768 0.0345508 0
M  V30 1633 O 151.766 -1.56184 -0.944081 0
M  V30 1634 C 151.817 -2.76187 2.33244 0
M  V30 1635 O 151.538 -2.38436 3.67532 0
M  V30 1636 C 153.039 -3.7 2.44162 0
M  V30 1637 H 150.259 -0.460559 0.487982 0
M  V30 1638 H 152.803 -0.868261 1.85153 0
M  V30 1639 H 150.958 -3.34974 1.94606 0
M  V30 1640 H 151.372 -3.20126 4.15475 0
M  V30 1641 H 152.846 -4.55803 3.11364 0
M  V30 1642 H 153.323 -4.13867 1.47006 0
M  V30 1643 H 153.929 -3.17121 2.83398 0
M  V30 1644 N 152.244 -1.26651 -0.937939 0
M  V30 1645 C 153.192 -1.08308 -2.05845 0
M  V30 1646 C 154.186 -0.0090757 -1.69398 0
M  V30 1647 O 155.392 -0.166007 -1.79233 0
M  V30 1648 H 151.767 -0.333416 -0.674046 0
M  V30 1649 H 153.738 -2.03261 -2.18467 0
M  V30 1650 C 152.487 -0.736229 -3.39816 0
M  V30 1651 H 151.81 -1.55453 -3.6834 0
M  V30 1652 H 153.25 -0.64769 -4.19024 0
M  V30 1653 C 151.709 0.558824 -3.32233 0
M  V30 1654 O 152.239 1.59621 -3.68624 0
M  V30 1655 N 150.445 0.550657 -2.85335 0
M  V30 1656 H 149.992 -0.293943 -2.55917 0
M  V30 1657 H 149.95 1.41726 -2.80644 0
M  V30 1658 N 153.722 1.14298 -1.08507 0
M  V30 1659 C 154.685 2.17607 -0.719711 0
M  V30 1660 C 155.685 1.58907 0.245997 0
M  V30 1661 O 156.875 1.74181 0.0254081 0
M  V30 1662 C 154.007 3.40842 -0.0627695 0
M  V30 1663 H 155.2 2.51443 -1.63452 0
M  V30 1664 H 152.753 1.28963 -0.88307 0
M  V30 1665 H 153.488 3.12587 0.863716 0
M  V30 1666 H 153.273 3.84713 -0.757504 0
M  V30 1667 H 154.763 4.17221 0.177786 0
M  V30 1668 N 155.201 0.870884 1.31352 0
M  V30 1669 C 156.133 0.28455 2.27427 0
M  V30 1670 C 157.146 -0.552927 1.53123 0
M  V30 1671 O 158.335 -0.374771 1.74521 0
M  V30 1672 C 155.435 -0.615164 3.3327 0
M  V30 1673 C 154.608 0.190079 4.36987 0
M  V30 1674 C 153.667 -0.637917 5.22319 0
M  V30 1675 O 152.693 -0.065626 5.69162 0
M  V30 1676 N 153.895 -1.94973 5.46778 0
M  V30 1677 H 156.66 1.11017 2.7838 0
M  V30 1678 H 154.221 0.732458 1.44384 0
M  V30 1679 H 156.213 -1.1748 3.87273 0
M  V30 1680 H 154.783 -1.34146 2.82354 0
M  V30 1681 H 154.003 0.931165 3.83044 0
M  V30 1682 H 155.291 0.742579 5.03352 0
M  V30 1683 H 154.689 -2.4378 5.10478 0
M  V30 1684 H 153.246 -2.45713 6.03712 0
M  V30 1685 N 156.679 -1.44442 0.630414 0
M  V30 1686 C 157.925 -2.02351 0.134816 0
M  V30 1687 C 158.258 -1.4947 -1.23986 0
M  V30 1688 O 157.533 -0.678475 -1.82283 0
M  V30 1689 C 157.816 -3.59898 0.120707 0
M  V30 1690 C 157.669 -4.23063 1.52767 0
M  V30 1691 C 158.988 -4.36585 -0.555127 0
M  V30 1692 H 156.107 -0.73527 0.0504646 0
M  V30 1693 H 158.749 -1.72022 0.806751 0
M  V30 1694 H 156.899 -3.85868 -0.451477 0
M  V30 1695 H 158.571 -4.08202 2.14869 0
M  V30 1696 H 156.814 -3.80586 2.08175 0
M  V30 1697 H 157.485 -5.32071 1.46984 0
M  V30 1698 H 159.961 -4.16044 -0.0685429 0
M  V30 1699 H 158.837 -5.46294 -0.534185 0
M  V30 1700 H 159.098 -4.11138 -1.62535 0
M  V30 1701 N 158.157 -0.370918 -1.53173 0
M  V30 1702 C 159.568 0.107139 -1.86392 0
M  V30 1703 C 159.919 1.47714 -1.29132 0
M  V30 1704 O 159.044 2.07464 -0.615439 0
M  V30 1705 C 159.639 0.201187 -3.38202 0
M  V30 1706 C 158.198 0.623507 -3.712 0
M  V30 1707 C 157.345 -0.225978 -2.76378 0
M  V30 1708 H 160.296 -0.58951 -1.47345 0
M  V30 1709 H 160.317 1.02377 -3.66468 0
M  V30 1710 H 159.829 -0.796058 -3.79848 0
M  V30 1711 H 157.93 1.62879 -3.35114 0
M  V30 1712 H 158.043 0.394414 -4.77474 0
M  V30 1713 H 156.407 0.305962 -2.52856 0
M  V30 1714 H 157.19 -1.22086 -3.20858 0
M  V30 1715 N 159.635 1.57281 -0.100228 0
M  V30 1716 C 160.912 1.86014 0.604812 0
M  V30 1717 C 161.292 0.998025 1.86018 0
M  V30 1718 O 160.64 0.0718184 2.28387 0
M  V30 1719 C 160.85 3.36784 0.915278 0
M  V30 1720 C 162.198 4.04957 1.27651 0
M  V30 1721 O 163.222 3.41695 1.00613 0
M  V30 1722 O 162.081 5.16593 1.7831 0
M  V30 1723 H 159.175 0.76942 0.303185 0
M  V30 1724 H 161.721 1.69176 -0.133313 0
M  V30 1725 H 160.493 3.91292 0.0248896 0
M  V30 1726 H 160.116 3.58987 1.70921 0
M  V30 1727 N 161.113 -0.173488 1.56642 0
M  V30 1728 C 162.338 -0.910149 1.86363 0
M  V30 1729 C 162.763 -1.75132 0.686318 0
M  V30 1730 O 162.121 -1.77595 -0.364643 0
M  V30 1731 C 162.169 -1.76447 3.14482 0
M  V30 1732 O 161.273 -2.86584 2.96553 0
M  V30 1733 H 160.614 -0.255086 0.613047 0
M  V30 1734 H 163.144 -0.172283 2.03873 0
M  V30 1735 H 163.154 -2.16483 3.45831 0
M  V30 1736 H 161.829 -1.14658 3.99783 0
M  V30 1737 H 160.406 -2.50146 2.76553 0
M  V30 1738 N 162.591 -1.51276 -0.441967 0
M  V30 1739 C 163.554 -1.7167 -1.51862 0
M  V30 1740 C 164.554 -0.586793 -1.49711 0
M  V30 1741 O 165.744 -0.854276 -1.51815 0
M  V30 1742 C 162.876 -1.76889 -2.91416 0
M  V30 1743 H 164.069 -2.67754 -1.35084 0
M  V30 1744 H 161.622 -1.41196 -0.670333 0
M  V30 1745 H 162.357 -0.826026 -3.13604 0
M  V30 1746 H 162.142 -2.59001 -2.94382 0
M  V30 1747 H 163.632 -1.94522 -3.69528 0
M  V30 1748 N 164.069 0.697108 -1.41344 0
M  V30 1749 C 165.317 1.45426 -1.40341 0
M  V30 1750 C 165.638 1.94996 -0.0128787 0
M  V30 1751 O 164.908 1.71599 0.945027 0
M  V30 1752 H 163.488 0.539594 -0.516573 0
M  V30 1753 H 166.15 0.825201 -1.76569 0
M  V30 1754 H 165.246 2.31817 -2.08967 0
M  V30 1755 N 165.547 1.27147 0.931209 0
M  V30 1756 C 166.775 1.16082 1.71267 0
M  V30 1757 C 167.19 -0.282772 1.8667 0
M  V30 1758 O 166.547 -1.19283 1.38122 0
M  V30 1759 C 166.598 1.8358 3.11417 0
M  V30 1760 O 166.319 3.22299 2.96741 0
M  V30 1761 C 167.82 1.78597 4.05732 0
M  V30 1762 H 165.04 0.403758 0.535929 0
M  V30 1763 H 167.584 1.67953 1.16671 0
M  V30 1764 H 165.739 1.35623 3.62885 0
M  V30 1765 H 166.153 3.55851 3.85319 0
M  V30 1766 H 167.627 2.30444 5.01597 0
M  V30 1767 H 168.104 0.754564 4.3267 0
M  V30 1768 H 168.71 2.26152 3.60188 0
M  V30 1769 N 167.025 -1.13721 1.09112 0
M  V30 1770 C 167.988 -2.17222 0.731241 0
M  V30 1771 C 168.988 -1.59035 -0.237566 0
M  V30 1772 O 170.178 -1.74192 -0.0161704 0
M  V30 1773 C 167.31 -3.40804 0.0808443 0
M  V30 1774 H 168.503 -2.50573 1.64783 0
M  V30 1775 H 166.056 -1.28493 0.889897 0
M  V30 1776 H 166.791 -3.1304 -0.847127 0
M  V30 1777 H 166.576 -3.84306 0.777896 0
M  V30 1778 H 168.066 -4.1731 -0.155657 0
M  V30 1779 N 168.503 -0.877838 -1.30888 0
M  V30 1780 C 169.731 -0.507414 -2.00581 0
M  V30 1781 C 170.146 0.902216 -1.65848 0
M  V30 1782 O 169.503 1.59225 -0.891831 0
M  V30 1783 C 169.554 -0.664162 -3.55347 0
M  V30 1784 O 169.275 -2.01829 -3.8884 0
M  V30 1785 C 170.776 -0.295787 -4.42312 0
M  V30 1786 H 167.996 -0.196866 -0.641471 0
M  V30 1787 H 170.54 -1.18117 -1.66939 0
M  V30 1788 H 168.695 -0.0378619 -3.87381 0
M  V30 1789 H 169.109 -2.03174 -4.8355 0
M  V30 1790 H 170.583 -0.456388 -5.5011 0
M  V30 1791 H 171.06 0.765663 -4.32475 0
M  V30 1792 H 171.666 -0.898113 -4.15709 0
M  V30 1793 N 169.982 1.44106 -0.638065 0
M  V30 1794 C 170.945 2.29138 0.0531013 0
M  V30 1795 C 171.945 1.41409 0.765506 0
M  V30 1796 O 173.135 1.63206 0.609046 0
M  V30 1797 C 170.267 3.23144 1.08584 0
M  V30 1798 H 171.46 2.91739 -0.694883 0
M  V30 1799 H 169.013 1.51134 -0.398538 0
M  V30 1800 H 169.748 2.65408 1.86357 0
M  V30 1801 H 169.533 3.87804 0.578852 0
M  V30 1802 H 171.023 3.87004 1.56899 0
M  V30 1803 N 171.46 0.379036 1.52974 0
M  V30 1804 C 172.69 -0.20649 2.05566 0
M  V30 1805 C 173.098 -1.41906 1.25137 0
M  V30 1806 O 172.441 -1.81421 0.288464 0
M  V30 1807 C 172.503 -0.651086 3.53555 0
M  V30 1808 C 172.167 0.446626 4.54812 0
M  V30 1809 C 173.164 1.30079 5.03364 0
M  V30 1810 C 170.849 0.610719 4.98573 0
M  V30 1811 C 172.843 2.30426 5.94292 0
M  V30 1812 C 170.53 1.61754 5.89304 0
M  V30 1813 C 171.528 2.46274 6.37054 0
M  V30 1814 O 171.216 3.45237 7.25994 0
M  V30 1815 H 170.948 -0.0372381 0.674974 0
M  V30 1816 H 173.502 0.539718 1.98182 0
M  V30 1817 H 171.732 -1.44911 3.58522 0
M  V30 1818 H 173.421 -1.16112 3.88938 0
M  V30 1819 H 174.187 1.18527 4.70294 0
M  V30 1820 H 170.066 -0.0374044 4.60985 0
M  V30 1821 H 173.61 2.96432 6.31485 0
M  V30 1822 H 169.507 1.73348 6.21788 0
M  V30 1823 H 170.275 3.41124 7.44027 0
M  V30 1824 N 172.938 -1.57226 0.108567 0
M  V30 1825 C 173.868 -2.17778 -0.84232 0
M  V30 1826 C 174.849 -1.11487 -1.2847 0
M  V30 1827 O 176.034 -1.39681 -1.34918 0
M  V30 1828 C 173.164 -2.76888 -2.09644 0
M  V30 1829 C 172.118 -3.88669 -1.79221 0
M  V30 1830 C 171.444 -4.34541 -3.11574 0
M  V30 1831 C 172.744 -5.11251 -1.06864 0
M  V30 1832 H 174.438 -2.97489 -0.337774 0
M  V30 1833 H 171.984 -1.43097 -0.161025 0
M  V30 1834 H 173.937 -3.17904 -2.76614 0
M  V30 1835 H 172.661 -1.94451 -2.62405 0
M  V30 1836 H 171.32 -3.48213 -1.14644 0
M  V30 1837 H 170.968 -3.48977 -3.62249 0
M  V30 1838 H 170.668 -5.09914 -2.91996 0
M  V30 1839 H 172.192 -4.782 -3.7968 0
M  V30 1840 H 173.606 -5.49352 -1.63968 0
M  V30 1841 H 172.003 -5.9214 -0.974178 0
M  V30 1842 H 173.073 -4.8487 -0.0536168 0
M  V30 1843 N 174.416 0.165178 -1.56732 0
M  V30 1844 C 175.656 0.887231 -1.8414 0
M  V30 1845 C 176.02 1.79159 -0.690353 0
M  V30 1846 O 177.221 2.55172 -0.845032 0
M  V30 1847 C 175.492 1.65674 -3.16681 0
M  V30 1848 S 177.051 2.42671 -3.6559 0
M  V30 1849 H 173.869 0.297042 -0.645978 0
M  V30 1850 H 176.471 0.148439 -1.94936 0
M  V30 1851 H 175.175 0.983507 -3.98441 0
M  V30 1852 H 174.706 2.43679 -3.08843 0
M  V30 1853 H 176.721 3.67499 -3.33406 0
M  V30 1854 N 175.894 1.51508 0.433938 0
M  V30 1855 C 177.142 1.6402 1.18075 0
M  V30 1856 C 177.463 0.360328 1.91642 0
M  V30 1857 O 176.733 -0.623945 1.85698 0
M  V30 1858 H 175.313 0.6045 0.43885 0
M  V30 1859 H 177.975 1.88452 0.497178 0
M  V30 1860 H 177.071 2.46949 1.90847 0
M  V30 1861 N 177.372 -0.689602 1.41712 0
M  V30 1862 C 178.618 -1.45181 1.41599 0
M  V30 1863 C 178.951 -1.94181 0.0270081 0
M  V30 1864 O 178.226 -1.6993 -0.946265 0
M  V30 1865 C 178.509 -2.65945 2.42787 0
M  V30 1866 C 178.362 -2.22672 3.90816 0
M  V30 1867 C 179.681 -3.68149 2.41151 0
M  V30 1868 H 176.8 -0.526576 0.515642 0
M  V30 1869 H 179.442 -0.784947 1.73028 0
M  V30 1870 H 177.592 -3.2284 2.16116 0
M  V30 1871 H 179.264 -1.71058 4.28412 0
M  V30 1872 H 177.507 -1.54394 4.05395 0
M  V30 1873 H 178.178 -3.0935 4.57172 0
M  V30 1874 H 180.654 -3.2094 2.64834 0
M  V30 1875 H 179.53 -4.50248 3.13955 0
M  V30 1876 H 179.791 -4.18259 1.43221 0
M  V30 1877 N 178.85 -1.27639 -0.924453 0
M  V30 1878 C 179.797 -1.10644 -2.0255 0
M  V30 1879 C 180.767 -0.00658438 -1.66099 0
M  V30 1880 O 181.952 -0.16952 -1.90045 0
M  V30 1881 C 179.092 -0.76309 -3.36557 0
M  V30 1882 C 178.205 -1.94091 -3.85944 0
M  V30 1883 C 177.34 -1.53914 -5.08413 0
M  V30 1884 C 176.379 -2.68425 -5.50104 0
M  V30 1885 N 175.516 -2.28815 -6.63768 0
M  V30 1886 H 180.356 -2.04858 -2.16419 0
M  V30 1887 H 177.893 -1.01974 -1.06017 0
M  V30 1888 H 179.851 -0.544822 -4.13627 0
M  V30 1889 H 178.481 0.142102 -3.22487 0
M  V30 1890 H 177.533 -2.27162 -3.05125 0
M  V30 1891 H 178.845 -2.7998 -4.12811 0
M  V30 1892 H 177.999 -1.28231 -5.92994 0
M  V30 1893 H 176.738 -0.651391 -4.8333 0
M  V30 1894 H 175.743 -2.94819 -4.64071 0
M  V30 1895 H 176.968 -3.57826 -5.7718 0
M  V30 1896 H 174.914 -1.42495 -6.40337 0
M  V30 1897 H 174.831 -3.08242 -6.90306 0
M  V30 1898 H 176.099 -2.06387 -7.51681 0
M  V30 1899 N 180.328 1.1314 -1.09713 0
M  V30 1900 C 181.291 2.16831 -0.742751 0
M  V30 1901 C 182.291 1.59159 0.229129 0
M  V30 1902 O 183.481 1.74199 0.00693237 0
M  V30 1903 C 180.613 3.40756 -0.0989168 0
M  V30 1904 H 181.806 2.49695 -1.66109 0
M  V30 1905 H 179.359 1.2802 -0.896699 0
M  V30 1906 H 180.094 3.13485 0.830514 0
M  V30 1907 H 179.879 3.83888 -0.798265 0
M  V30 1908 H 181.369 4.17386 0.133524 0
M  V30 1909 N 181.806 0.884767 1.30421 0
M  V30 1910 C 182.754 0.340869 2.30089 0
M  V30 1911 C 183.748 -0.55201 1.60154 0
M  V30 1912 O 184.954 -0.436467 1.74628 0
M  V30 1913 H 181.329 0.0915739 0.746404 0
M  V30 1914 H 183.3 1.19513 2.73421 0
M  V30 1915 C 182.049 -0.429779 3.45034 0
M  V30 1916 H 181.372 0.248024 3.9903 0
M  V30 1917 H 182.812 -0.775445 4.16849 0
M  V30 1918 C 181.271 -1.62677 2.95022 0
M  V30 1919 O 181.801 -2.72614 2.95033 0
M  V30 1920 N 180.007 -1.46387 2.51036 0
M  V30 1921 H 179.554 -0.569506 2.51226 0
M  V30 1922 H 179.512 -2.26612 2.17932 0
M  V30 1923 N 183.284 -1.43765 0.645699 0
M  V30 1924 C 184.194 -2.34544 -0.0512957 0
M  V30 1925 C 185.21 -1.53455 -0.82022 0
M  V30 1926 O 186.386 -1.86133 -0.769176 0
M  V30 1927 C 183.451 -3.31636 -1.01087 0
M  V30 1928 C 182.512 -4.2863 -0.239712 0
M  V30 1929 C 181.745 -5.21084 -1.15358 0
M  V30 1930 O 181.968 -5.1779 -2.39269 0
M  V30 1931 O 180.902 -5.98593 -0.630038 0
M  V30 1932 H 184.728 -2.95624 0.695718 0
M  V30 1933 H 182.313 -1.43781 0.405882 0
M  V30 1934 H 184.195 -3.9136 -1.56254 0
M  V30 1935 H 182.87 -2.73069 -1.73824 0
M  V30 1936 H 181.777 -3.72408 0.355356 0
M  V30 1937 H 183.11 -4.90157 0.447936 0
M  V30 1938 N 184.763 -0.387143 -1.52771 0
M  V30 1939 C 186.011 0.195349 -2.01154 0
M  V30 1940 C 186.332 1.475 -1.27549 0
M  V30 1941 O 185.602 1.91878 -0.394924 0
M  V30 1942 H 184.182 0.075178 -0.743207 0
M  V30 1943 H 186.844 -0.518337 -1.87881 0
M  V30 1944 H 185.94 0.407096 -3.09434 0
M  V30 1945 N 186.241 1.57166 -0.116904 0
M  V30 1946 C 187.469 1.99473 0.549383 0
M  V30 1947 C 187.884 0.996541 1.60357 0
M  V30 1948 O 187.241 -0.0108731 1.82497 0
M  V30 1949 C 187.292 3.41788 1.17741 0
M  V30 1950 O 187.013 4.37788 0.165362 0
M  V30 1951 C 188.514 3.99216 1.92722 0
M  V30 1952 H 185.734 0.655009 0.145616 0
M  V30 1953 H 188.278 2.03494 -0.202625 0
M  V30 1954 H 186.433 3.38713 1.88021 0
M  V30 1955 H 186.847 5.20806 0.621403 0
M  V30 1956 H 188.321 5.00882 2.31995 0
M  V30 1957 H 188.798 3.3824 2.80161 0
M  V30 1958 H 189.404 4.0583 1.27209 0
M  V30 1959 N 187.719 -0.156864 1.56817 0
M  V30 1960 C 188.965 -0.872416 1.83076 0
M  V30 1961 C 189.298 -1.81261 0.697001 0
M  V30 1962 O 188.573 -1.92171 -0.30008 0
M  V30 1963 C 188.856 -1.65551 3.19789 0
M  V30 1964 C 188.709 -0.737467 4.43713 0
M  V30 1965 C 190.028 -2.62012 3.53606 0
M  V30 1966 H 187.147 -0.315715 0.665953 0
M  V30 1967 H 189.789 -0.138004 1.89498 0
M  V30 1968 H 187.939 -2.28159 3.14445 0
M  V30 1969 H 189.611 -0.123143 4.61136 0
M  V30 1970 H 187.854 -0.0464067 4.33775 0
M  V30 1971 H 188.525 -1.32122 5.35955 0
M  V30 1972 H 191.001 -2.09525 3.59497 0
M  V30 1973 H 189.877 -3.13861 4.50314 0
M  V30 1974 H 190.138 -3.42902 2.79053 0
M  V30 1975 N 189.197 -1.51736 -0.425897 0
M  V30 1976 C 190.445 -1.64644 -1.17204 0
M  V30 1977 C 190.766 -0.370486 -1.91448 0
M  V30 1978 O 190.036 0.614088 -1.86026 0
M  V30 1979 H 188.616 -0.606819 -0.435638 0
M  V30 1980 H 191.278 -1.88713 -0.487177 0
M  V30 1981 H 190.374 -2.47958 -1.89534 0
M  V30 1982 N 190.675 0.682077 -1.42076 0
M  V30 1983 C 191.921 1.44428 -1.42367 0
M  V30 1984 C 192.254 1.94164 -0.0373056 0
M  V30 1985 O 191.529 1.70429 0.937239 0
M  V30 1986 C 191.812 2.64654 -2.44194 0
M  V30 1987 C 191.665 2.20596 -3.91991 0
M  V30 1988 C 192.984 3.66865 -2.431 0
M  V30 1989 H 190.103 0.523834 -0.518428 0
M  V30 1990 H 192.745 0.77576 -1.73442 0
M  V30 1991 H 190.895 3.2169 -2.17826 0
M  V30 1992 H 192.567 1.68783 -4.29313 0
M  V30 1993 H 190.81 1.52242 -4.06208 0
M  V30 1994 H 191.481 3.06921 -4.58807 0
M  V30 1995 H 193.957 3.19531 -2.66532 0
M  V30 1996 H 192.833 4.48577 -3.16339 0
M  V30 1997 H 193.094 4.17493 -1.45437 0
M  V30 1998 N 192.153 1.28127 0.917671 0
M  V30 1999 C 193.378 1.18007 1.70555 0
M  V30 2000 C 193.803 -0.258257 1.86319 0
M  V30 2001 O 193.161 -1.1869 1.37049 0
M  V30 2002 C 193.209 1.87948 3.07746 0
M  V30 2003 O 192.313 1.18427 3.9503 0
M  V30 2004 H 191.654 0.409867 0.522403 0
M  V30 2005 H 194.184 1.69379 1.1477 0
M  V30 2006 H 194.194 1.95701 3.58001 0
M  V30 2007 H 192.869 2.92573 2.95591 0
M  V30 2008 H 191.446 1.18811 3.53466 0
M  V30 2009 N 193.631 -1.12557 1.10312 0
M  V30 2010 C 194.594 -2.16434 0.75424 0
M  V30 2011 C 195.594 -1.59278 -0.220685 0
M  V30 2012 O 196.784 -1.742 0.00230591 0
M  V30 2013 C 193.916 -3.40699 0.116987 0
M  V30 2014 H 195.109 -2.48811 1.67431 0
M  V30 2015 H 192.662 -1.27542 0.903475 0
M  V30 2016 H 193.397 -3.13921 -0.813877 0
M  V30 2017 H 193.182 -3.83459 0.818613 0
M  V30 2018 H 194.672 -4.17451 -0.111387 0
M  V30 2019 N 195.109 -0.891671 -1.2995 0
M  V30 2020 C 196.072 -0.36828 -2.26222 0
M  V30 2021 C 197.072 0.493014 -1.53056 0
M  V30 2022 O 198.262 0.299213 -1.71611 0
M  V30 2023 C 195.394 0.47442 -3.37583 0
M  V30 2024 H 196.587 -1.21844 -2.74033 0
M  V30 2025 H 194.14 -0.669107 -1.41254 0
M  V30 2026 H 194.875 1.34489 -2.95099 0
M  V30 2027 H 194.66 -0.142615 -3.91841 0
M  V30 2028 H 196.15 0.83218 -4.09224 0
M  V30 2029 N 196.587 1.43421 -0.653314 0
M  V30 2030 C 197.815 2.06163 -0.174491 0
M  V30 2031 C 198.23 1.48969 1.1599 0
M  V30 2032 O 197.587 0.621042 1.71608 0
M  V30 2033 C 197.638 3.61417 -0.0774865 0
M  V30 2034 O 197.359 4.16485 -1.35912 0
M  V30 2035 C 198.86 4.41235 0.427402 0
M  V30 2036 H 196.08 0.664946 -0.0899353 0
M  V30 2037 H 198.624 1.83924 -0.893988 0
M  V30 2038 H 196.779 3.82841 0.59257 0
M  V30 2039 H 197.193 5.10153 -1.21839 0
M  V30 2040 H 198.667 5.5021 0.44423 0
M  V30 2041 H 199.144 4.14268 1.45873 0
M  V30 2042 H 199.75 4.2478 -0.210167 0
M  V30 2043 N 198.065 0.39524 1.52563 0
M  V30 2044 C 198.975 -0.444232 2.30356 0
M  V30 2045 C 199.991 -1.06615 1.37511 0
M  V30 2046 O 201.167 -1.07067 1.70583 0
M  V30 2047 C 198.232 -1.55315 3.09964 0
M  V30 2048 C 197.293 -0.955734 4.18526 0
M  V30 2049 C 196.526 -2.01181 4.9433 0
M  V30 2050 O 196.749 -3.22781 4.70285 0
M  V30 2051 O 195.683 -1.62579 5.79527 0
M  V30 2052 H 199.509 0.189667 3.03107 0
M  V30 2053 H 197.094 0.1588 1.48554 0
M  V30 2054 H 198.976 -2.19724 3.59582 0
M  V30 2055 H 197.651 -2.17191 2.4002 0
M  V30 2056 H 196.558 -0.274743 3.7309 0
M  V30 2057 H 197.891 -0.381109 4.90722 0
M  V30 2058 N 199.544 -1.57102 0.125237 0
M  V30 2059 C 200.96 -1.57915 -0.231322 0
M  V30 2060 C 201.16 -1.13833 -1.66266 0
M  V30 2061 O 200.216 -0.828581 -2.38518 0
M  V30 2062 C 201.529 -3.00699 0.00766489 0
M  V30 2063 C 203.077 -3.12947 -0.0577483 0
M  V30 2064 C 203.552 -4.57742 0.153626 0
M  V30 2065 N 205.043 -4.63092 0.0998073 0
M  V30 2066 C 205.778 -5.72905 0.238174 0
M  V30 2067 N 205.274 -6.91445 0.433057 0
M  V30 2068 N 207.067 -5.6182 0.177308 0
M  V30 2069 H 199.218 -1.84055 1.06007 0
M  V30 2070 H 201.481 -0.850905 0.417929 0
M  V30 2071 H 201.187 -3.3726 0.997431 0
M  V30 2072 H 201.061 -3.70236 -0.721452 0
M  V30 2073 H 203.448 -2.7624 -1.03804 0
M  V30 2074 H 203.529 -2.4594 0.70335 0
M  V30 2075 H 203.173 -4.95149 1.13092 0
M  V30 2076 H 203.103 -5.22848 -0.627534 0
M  V30 2077 H 205.594 -3.77871 -0.047051 0
M  V30 2078 H 205.907 -7.70985 0.529332 0
M  V30 2079 H 204.252 -6.93415 0.469109 0
M  V30 2080 H 207.443 -4.68093 0.0259748 0
M  V30 2081 H 207.616 -6.47357 0.288582 0
M  V30 2082 N 201.022 0.148545 -1.56898 0
M  V30 2083 C 202.247 0.880385 -1.87787 0
M  V30 2084 C 202.672 1.74018 -0.714093 0
M  V30 2085 O 202.03 1.78153 0.336343 0
M  V30 2086 C 202.078 1.71422 -3.17249 0
M  V30 2087 O 201.182 2.8183 -3.01074 0
M  V30 2088 H 200.523 0.245301 -0.617028 0
M  V30 2089 H 203.053 0.139826 -2.04122 0
M  V30 2090 H 203.063 2.10954 -3.49231 0
M  V30 2091 H 201.738 1.08284 -4.01556 0
M  V30 2092 H 200.315 2.45715 -2.80497 0
M  V30 2093 N 202.5 1.5196 0.417844 0
M  V30 2094 C 203.916 1.40569 0.755816 0
M  V30 2095 C 204.116 0.503316 1.95113 0
M  V30 2096 O 203.172 -0.0341925 2.52477 0
M  V30 2097 C 204.485 2.82947 1.01791 0
M  V30 2098 C 206.033 2.92231 1.12116 0
M  V30 2099 C 206.508 4.35559 1.41608 0
M  V30 2100 N 207.999 4.38753 1.48491 0
M  V30 2101 C 208.734 5.46705 1.7292 0
M  V30 2102 N 208.23 6.64788 1.95011 0
M  V30 2103 N 210.023 5.34209 1.74863 0
M  V30 2104 H 202.174 2.09168 -0.369098 0
M  V30 2105 H 204.437 0.942409 -0.102809 0
M  V30 2106 H 204.143 3.5106 0.212081 0
M  V30 2107 H 204.017 3.23462 1.94042 0
M  V30 2108 H 206.404 2.24304 1.9176 0
M  V30 2109 H 206.485 2.55185 0.177225 0
M  V30 2110 H 206.129 5.04042 0.624848 0
M  V30 2111 H 206.059 4.70133 2.37239 0
M  V30 2112 H 208.55 3.5363 1.33244 0
M  V30 2113 H 208.863 7.42845 2.13076 0
M  V30 2114 H 207.208 6.67869 1.92293 0
M  V30 2115 H 210.399 4.40937 1.57137 0
M  V30 2116 H 210.572 6.18415 1.93563 0
M  V30 2117 N 203.978 -0.674533 1.42435 0
M  V30 2118 C 205.218 -1.4466 1.44405 0
M  V30 2119 C 205.582 -1.91911 0.0585784 0
M  V30 2120 O 206.783 -2.68759 -0.0469991 0
M  V30 2121 C 205.054 -2.61136 2.44013 0
M  V30 2122 S 206.613 -3.49981 2.64687 0
M  V30 2123 H 203.431 -0.494074 0.511284 0
M  V30 2124 H 206.033 -0.785162 1.7904 0
M  V30 2125 H 204.737 -2.24662 3.43446 0
M  V30 2126 H 204.268 -3.32153 2.10803 0
M  V30 2127 H 206.283 -4.57124 1.93007 0
M  V30 2128 N 205.456 -1.28612 -0.910864 0
M  V30 2129 C 206.404 -1.1265 -2.03501 0
M  V30 2130 C 207.398 -0.0450054 -1.6934 0
M  V30 2131 O 208.604 -0.203988 -1.7884 0
M  V30 2132 H 204.979 -0.347639 -0.666822 0
M  V30 2133 H 206.95 -2.07849 -2.14106 0
M  V30 2134 C 205.699 -0.808143 -3.38178 0
M  V30 2135 H 205.022 -1.63231 -3.6496 0
M  V30 2136 H 206.462 -0.736426 -4.17556 0
M  V30 2137 C 204.921 0.488226 -3.33344 0
M  V30 2138 O 205.451 1.51766 -3.71927 0
M  V30 2139 N 203.657 0.490009 -2.86439 0
M  V30 2140 H 203.204 -0.348161 -2.55236 0
M  V30 2141 H 203.162 1.35741 -2.83587 0
M  V30 2142 N 206.934 1.1197 -1.10907 0
M  V30 2143 C 208.162 1.87402 -0.876824 0
M  V30 2144 C 208.577 1.79894 0.573025 0
M  V30 2145 O 207.934 1.17629 1.39534 0
M  V30 2146 C 207.985 3.36428 -1.32282 0
M  V30 2147 O 207.706 3.43765 -2.71582 0
M  V30 2148 C 209.207 4.28783 -1.12518 0
M  V30 2149 H 206.427 0.592793 -0.314384 0
M  V30 2150 H 208.971 1.41649 -1.47499 0
M  V30 2151 H 207.126 3.79706 -0.768229 0
M  V30 2152 H 207.54 4.3652 -2.90776 0
M  V30 2153 H 209.014 5.31613 -1.48633 0
M  V30 2154 H 209.491 4.39153 -0.0642394 0
M  V30 2155 H 210.097 3.91291 -1.66648 0
M  V30 2156 N 208.412 0.89855 1.29475 0
M  V30 2157 C 209.64 0.539261 1.99749 0
M  V30 2158 C 210.055 -0.875716 1.67262 0
M  V30 2159 O 209.412 -1.57786 0.917049 0
M  V30 2160 C 209.463 0.72061 3.54245 0
M  V30 2161 O 209.184 2.07989 3.8558 0
M  V30 2162 C 210.685 0.366118 4.41786 0
M  V30 2163 H 207.905 0.207047 0.638258 0
M  V30 2164 H 210.449 1.20758 1.65039 0
M  V30 2165 H 208.604 0.0994862 3.87272 0
M  V30 2166 H 209.018 2.10841 4.80257 0
M  V30 2167 H 210.492 0.543848 5.49314 0
M  V30 2168 H 210.969 -0.696763 4.33638 0
M  V30 2169 H 211.575 0.964135 4.14228 0
M  V30 2170 N 209.89 -1.43072 0.660911 0
M  V30 2171 C 210.822 -2.29108 -0.0647641 0
M  V30 2172 C 211.835 -1.42928 -0.779448 0
M  V30 2173 O 213.024 -1.66788 -0.635921 0
M  V30 2174 C 210.124 -3.20032 -1.11503 0
M  V30 2175 C 209.297 -4.34792 -0.476955 0
M  V30 2176 C 208.356 -5.06534 -1.42513 0
M  V30 2177 O 207.382 -5.61538 -0.930771 0
M  V30 2178 N 208.584 -5.1075 -2.75889 0
M  V30 2179 H 211.349 -2.92029 0.673731 0
M  V30 2180 H 208.91 -1.53846 0.50427 0
M  V30 2181 H 210.902 -3.64892 -1.75032 0
M  V30 2182 H 209.472 -2.58658 -1.75541 0
M  V30 2183 H 208.692 -3.92752 0.337572 0
M  V30 2184 H 209.98 -5.0879 -0.0318525 0
M  V30 2185 H 209.378 -4.67447 -3.18606 0
M  V30 2186 H 207.935 -5.59302 -3.347 0
M  V30 2187 N 211.368 -0.403325 -1.52352 0
M  V30 2188 C 212.616 0.174003 -2.0135 0
M  V30 2189 C 212.937 1.46139 -1.29106 0
M  V30 2190 O 212.207 1.91448 -0.415253 0
M  V30 2191 H 210.787 0.0672911 -0.743963 0
M  V30 2192 H 213.449 -0.538235 -1.87321 0
M  V30 2193 H 212.545 0.374254 -3.09848 0
M  V30 2194 N 212.846 1.57033 -0.133567 0
M  V30 2195 C 213.794 2.17348 0.828412 0
M  V30 2196 C 214.788 1.12671 1.26498 0
M  V30 2197 O 215.994 1.30947 1.23502 0
M  V30 2198 H 212.369 0.695775 0.285309 0
M  V30 2199 H 214.34 2.96935 0.295372 0
M  V30 2200 C 213.089 2.79893 2.06289 0
M  V30 2201 H 212.412 3.60147 1.73592 0
M  V30 2202 H 213.852 3.25615 2.71572 0
M  V30 2203 C 212.311 1.77713 2.86216 0
M  V30 2204 O 212.841 1.23937 3.82103 0
M  V30 2205 N 211.047 1.47321 2.50489 0
M  V30 2206 H 210.594 1.91243 1.7258 0
M  V30 2207 H 210.552 0.79199 3.04261 0
M  V30 2208 N 214.325 -0.140222 1.56975 0
M  V30 2209 C 215.235 -1.19223 2.02047 0
M  V30 2210 C 216.251 -1.46612 0.937062 0
M  V30 2211 O 217.427 -1.58148 1.24704 0
M  V30 2212 C 214.492 -2.50414 2.39778 0
M  V30 2213 C 213.553 -2.30612 3.621 0
M  V30 2214 C 212.786 -3.55547 3.98023 0
M  V30 2215 O 213.009 -4.62004 3.34528 0
M  V30 2216 O 211.943 -3.47808 4.91237 0
M  V30 2217 H 215.769 -0.839559 2.91865 0
M  V30 2218 H 213.354 -0.349453 1.45256 0
M  V30 2219 H 215.236 -3.27747 2.64877 0
M  V30 2220 H 213.911 -2.85198 1.53114 0
M  V30 2221 H 212.818 -1.51207 3.4218 0
M  V30 2222 H 214.151 -2.00741 4.49404 0
M  V30 2223 N 215.803 -1.52179 -0.40978 0
M  V30 2224 C 217.049 -1.66453 -1.15851 0
M  V30 2225 C 217.382 -0.392972 -1.90182 0
M  V30 2226 O 216.657 0.608579 -1.84734 0
M  V30 2227 C 216.94 -2.88612 -2.15349 0
M  V30 2228 C 216.793 -4.25815 -1.44918 0
M  V30 2229 C 218.112 -3.06294 -3.16026 0
M  V30 2230 H 215.231 -0.60575 -0.419805 0
M  V30 2231 H 217.873 -1.84732 -0.444314 0
M  V30 2232 H 216.023 -2.73158 -2.76255 0
M  V30 2233 H 217.695 -4.52995 -0.871365 0
M  V30 2234 H 215.938 -4.27247 -0.751159 0
M  V30 2235 H 216.609 -5.07337 -2.17516 0
M  V30 2236 H 219.085 -3.20641 -2.65195 0
M  V30 2237 H 217.961 -3.93283 -3.8291 0
M  V30 2238 H 218.222 -2.19579 -3.83715 0
M  V30 2239 N 217.281 0.66697 -1.42791 0
M  V30 2240 C 218.509 1.45505 -1.47091 0
M  V30 2241 C 218.924 1.8861 -0.0845873 0
M  V30 2242 O 218.281 1.58632 0.90234 0
M  V30 2243 C 218.332 2.69906 -2.40485 0
M  V30 2244 O 218.053 2.28608 -3.73725 0
M  V30 2245 C 219.554 3.63396 -2.53886 0
M  V30 2246 H 216.774 0.447459 -0.500022 0
M  V30 2247 H 219.318 0.818866 -1.8739 0
M  V30 2248 H 217.473 3.29696 -2.03419 0
M  V30 2249 H 217.887 3.08997 -4.23817 0
M  V30 2250 H 219.361 4.47387 -3.2334 0
M  V30 2251 H 219.838 4.09824 -1.57927 0
M  V30 2252 H 220.444 3.09495 -2.91706 0
M  V30 2253 N 218.759 1.29093 0.90403 0
M  V30 2254 C 219.984 1.19809 1.69294 0
M  V30 2255 C 220.409 -0.238481 1.86582 0
M  V30 2256 O 219.767 -1.1723 1.383 0
M  V30 2257 C 219.815 1.91202 3.05736 0
M  V30 2258 O 218.919 1.22611 3.93752 0
M  V30 2259 H 218.26 0.415385 0.518027 0
M  V30 2260 H 220.79 1.70586 1.12967 0
M  V30 2261 H 220.8 1.99487 3.55906 0
M  V30 2262 H 219.475 2.95692 2.92471 0
M  V30 2263 H 218.052 1.22554 3.52186 0
M  V30 2264 N 220.237 -1.11381 1.11499 0
M  V30 2265 C 221.486 -1.82494 0.858993 0
M  V30 2266 C 221.799 -1.85605 -0.617278 0
M  V30 2267 O 223.005 -2.52824 -0.989552 0
M  V30 2268 C 221.461 -3.27745 1.48699 0
M  V30 2269 C 221.069 -3.32961 2.99735 0
M  V30 2270 C 222.813 -4.03754 1.31085 0
M  V30 2271 C 220.72 -4.72612 3.55516 0
M  V30 2272 H 219.65 -0.683802 0.317696 0
M  V30 2273 H 222.301 -1.25331 1.34031 0
M  V30 2274 H 220.683 -3.84844 0.933339 0
M  V30 2275 H 221.857 -2.85741 3.61509 0
M  V30 2276 H 220.172 -2.70433 3.16631 0
M  V30 2277 H 222.769 -5.06891 1.70192 0
M  V30 2278 H 223.112 -4.15527 0.253496 0
M  V30 2279 H 223.645 -3.53043 1.83318 0
M  V30 2280 H 220.384 -4.66036 4.60967 0
M  V30 2281 H 219.904 -5.2024 2.98513 0
M  V30 2282 H 221.583 -5.4157 3.53992 0
M  V30 2283 N 221.715 -0.905404 -1.28997 0
M  V30 2284 C 222.645 -0.404212 -2.29975 0
M  V30 2285 C 223.626 0.523784 -1.61835 0
M  V30 2286 O 224.811 0.433298 -1.89304 0
M  V30 2287 C 221.941 0.364042 -3.45387 0
M  V30 2288 C 220.895 -0.474048 -4.25367 0
M  V30 2289 C 220.221 0.422045 -5.33032 0
M  V30 2290 C 221.521 -1.72696 -4.92923 0
M  V30 2291 H 223.215 -1.24807 -2.72146 0
M  V30 2292 H 220.761 -0.601585 -1.30832 0
M  V30 2293 H 222.714 0.725447 -4.15109 0
M  V30 2294 H 221.438 1.24174 -3.02074 0
M  V30 2295 H 220.097 -0.81786 -3.57361 0
M  V30 2296 H 219.745 1.29804 -4.85963 0
M  V30 2297 H 219.445 -0.135057 -5.87445 0
M  V30 2298 H 220.969 0.779517 -6.05604 0
M  V30 2299 H 222.383 -1.43495 -5.55051 0
M  V30 2300 H 220.78 -2.22582 -5.57295 0
M  V30 2301 H 221.85 -2.45964 -4.17887 0
M  V30 2302 N 223.193 1.4272 -0.668489 0
M  V30 2303 C 224.609 1.55992 -0.33745 0
M  V30 2304 C 224.809 1.64933 1.15756 0
M  V30 2305 O 223.865 1.61278 1.94282 0
M  V30 2306 C 225.178 2.81314 -1.06222 0
M  V30 2307 C 226.726 2.95078 -1.04394 0
M  V30 2308 C 227.201 4.23252 -1.74991 0
M  V30 2309 N 228.692 4.3015 -1.71829 0
M  V30 2310 C 229.427 5.28127 -2.23315 0
M  V30 2311 N 228.923 6.32293 -2.83156 0
M  V30 2312 N 230.716 5.19882 -2.13726 0
M  V30 2313 H 222.867 1.3516 -1.63846 0
M  V30 2314 H 225.13 0.650174 -0.689912 0
M  V30 2315 H 224.836 2.80823 -2.11734 0
M  V30 2316 H 224.71 3.72012 -0.62344 0
M  V30 2317 H 227.097 2.951 0.0028244 0
M  V30 2318 H 227.178 2.05627 -1.52155 0
M  V30 2319 H 226.822 4.2399 -2.79633 0
M  V30 2320 H 226.752 5.11626 -1.24685 0
M  V30 2321 H 229.243 3.55499 -1.28175 0
M  V30 2322 H 229.556 7.03398 -3.20079 0
M  V30 2323 H 227.901 6.32873 -2.87223 0
M  V30 2324 H 231.092 4.37423 -1.66669 0
M  V30 2325 H 231.265 5.96077 -2.54158 0
M  V30 2326 N 224.671 0.411399 1.52136 0
M  V30 2327 C 225.917 -0.156262 2.02799 0
M  V30 2328 C 226.272 -1.42613 1.29149 0
M  V30 2329 O 225.565 -1.87592 0.389839 0
M  V30 2330 C 225.759 -0.455872 3.54481 0
M  V30 2331 C 225.588 0.783404 4.42824 0
M  V30 2332 C 224.358 1.30928 4.88043 0
M  V30 2333 C 226.556 1.66217 4.86699 0
M  V30 2334 N 224.538 2.5038 5.6052 0
M  V30 2335 C 225.909 2.70292 5.5798 0
M  V30 2336 C 227.964 1.67966 4.68713 0
M  V30 2337 C 226.667 3.7603 6.13184 0
M  V30 2338 C 228.693 2.72624 5.24815 0
M  V30 2339 C 228.055 3.7542 5.9602 0
M  V30 2340 H 224.154 -0.0186886 0.781777 0
M  V30 2341 H 226.738 0.566255 1.86284 0
M  V30 2342 H 224.909 -1.14743 3.71064 0
M  V30 2343 H 226.641 -1.01261 3.91827 0
M  V30 2344 H 223.396 0.866977 4.65597 0
M  V30 2345 H 223.82 3.10881 6.014 0
M  V30 2346 H 228.462 0.898312 4.13147 0
M  V30 2347 H 226.18 4.55019 6.6782 0
M  V30 2348 H 229.766 2.74887 5.12765 0
M  V30 2349 H 228.646 4.55073 6.38654 0
M  V30 2350 N 226.149 -1.5696 0.141893 0
M  V30 2351 C 227.112 -2.15316 -0.785587 0
M  V30 2352 C 228.112 -1.09366 -1.1788 0
M  V30 2353 O 229.302 -1.35031 -1.10056 0
M  V30 2354 C 226.434 -2.71211 -2.06537 0
M  V30 2355 H 227.627 -2.98608 -0.278041 0
M  V30 2356 H 225.18 -1.5593 -0.107519 0
M  V30 2357 H 225.915 -1.91571 -2.6167 0
M  V30 2358 H 225.7 -3.4872 -1.79268 0
M  V30 2359 H 227.19 -3.16189 -2.72789 0
M  V30 2360 N 227.627 0.131896 -1.57047 0
M  V30 2361 C 228.574 1.16236 -1.99393 0
M  V30 2362 C 229.544 1.41863 -0.863943 0
M  V30 2363 O 230.729 1.53946 -1.12718 0
M  V30 2364 C 227.869 2.48708 -2.39245 0
M  V30 2365 C 226.982 2.30127 -3.65603 0
M  V30 2366 C 226.117 3.55738 -3.94492 0
M  V30 2367 C 225.156 3.32259 -5.14073 0
M  V30 2368 N 224.293 4.50039 -5.38896 0
M  V30 2369 H 229.133 0.794251 -2.87221 0
M  V30 2370 H 226.67 0.380707 -1.42088 0
M  V30 2371 H 228.628 3.25969 -2.60384 0
M  V30 2372 H 227.258 2.83437 -1.54478 0
M  V30 2373 H 226.31 1.43845 -3.52154 0
M  V30 2374 H 227.622 2.08746 -4.5302 0
M  V30 2375 H 226.776 4.41423 -4.1621 0
M  V30 2376 H 225.515 3.80138 -3.05526 0
M  V30 2377 H 224.52 2.44963 -4.92212 0
M  V30 2378 H 225.745 3.09242 -6.04604 0
M  V30 2379 H 223.691 4.74584 -4.52886 0
M  V30 2380 H 223.608 4.31716 -6.2061 0
M  V30 2381 H 224.876 5.36895 -5.65123 0
M  V30 2382 N 229.106 1.52395 0.401703 0
M  V30 2383 C 230.383 1.57387 1.16141 0
M  V30 2384 C 230.763 0.359359 2.08019 0
M  V30 2385 O 230.111 -0.65326 2.18963 0
M  V30 2386 C 230.321 2.90631 1.93221 0
M  V30 2387 C 231.669 3.43904 2.49028 0
M  V30 2388 O 232.693 2.92421 2.03393 0
M  V30 2389 O 231.552 4.33823 3.32356 0
M  V30 2390 H 228.646 0.634262 0.530698 0
M  V30 2391 H 231.192 1.64725 0.407883 0
M  V30 2392 H 229.964 3.70473 1.25958 0
M  V30 2393 H 229.587 2.8662 2.75563 0
M  V30 2394 N 230.584 -0.659388 1.43143 0
M  V30 2395 C 231.547 -1.75432 1.47501 0
M  V30 2396 C 232.547 -1.56707 0.360512 0
M  V30 2397 O 233.737 -1.62717 0.622002 0
M  V30 2398 C 230.869 -3.14239 1.32162 0
M  V30 2399 H 232.062 -1.7295 2.45006 0
M  V30 2400 H 229.615 -0.870469 1.29817 0
M  V30 2401 H 230.35 -3.22336 0.356401 0
M  V30 2402 H 230.135 -3.29235 2.12948 0
M  V30 2403 H 231.625 -3.94094 1.3813 0
M  V30 2404 N 232.062 -1.29571 -0.897171 0
M  V30 2405 C 233.31 -1.17456 -1.64464 0
M  V30 2406 C 233.631 0.273698 -1.9307 0
M  V30 2407 O 232.901 1.18684 -1.55855 0
M  V30 2408 H 231.481 -0.431706 -0.609622 0
M  V30 2409 H 234.143 -1.62531 -1.07562 0
M  V30 2410 H 233.239 -1.72648 -2.59998 0
M  V30 2411 N 233.54 1.10788 -1.12088 0
M  V30 2412 C 234.487 2.17025 -0.785407 0
M  V30 2413 C 235.457 1.64265 0.246191 0
M  V30 2414 O 236.642 1.90412 0.121584 0
M  V30 2415 C 233.782 3.44249 -0.242177 0
M  V30 2416 C 232.895 4.1098 -1.33115 0
M  V30 2417 C 232.03 5.25911 -0.747741 0
M  V30 2418 C 231.069 5.84538 -1.81609 0
M  V30 2419 N 230.206 6.90853 -1.25167 0
M  V30 2420 H 235.046 2.45066 -1.69548 0
M  V30 2421 H 232.583 1.20297 -0.846582 0
M  V30 2422 H 234.541 4.17101 0.0908026 0
M  V30 2423 H 233.171 3.16571 0.631072 0
M  V30 2424 H 232.223 3.36133 -1.78097 0
M  V30 2425 H 233.535 4.50601 -2.13917 0
M  V30 2426 H 232.689 6.056 -0.365216 0
M  V30 2427 H 231.428 4.87614 0.0915188 0
M  V30 2428 H 230.433 5.03522 -2.20785 0
M  V30 2429 H 231.658 6.249 -2.6585 0
M  V30 2430 H 229.604 6.54562 -0.434174 0
M  V30 2431 H 229.521 7.29166 -1.99633 0
M  V30 2432 H 230.789 7.7433 -0.896259 0
M  V30 2433 N 235.018 0.912232 1.28515 0
M  V30 2434 C 236.243 0.559774 1.99703 0
M  V30 2435 C 236.668 -0.851393 1.67729 0
M  V30 2436 O 236.026 -1.56875 0.908834 0
M  V30 2437 C 236.074 0.773874 3.52198 0
M  V30 2438 O 235.178 -0.167842 4.12058 0
M  V30 2439 H 234.519 0.21723 0.627461 0
M  V30 2440 H 237.049 1.22725 1.63706 0
M  V30 2441 H 237.059 0.683386 4.02236 0
M  V30 2442 H 235.734 1.80261 3.74805 0
M  V30 2443 H 234.311 -0.0287509 3.72889 0
M  V30 2444 N 236.496 -1.42363 0.676048 0
M  V30 2445 C 237.742 -2.0182 0.199125 0
M  V30 2446 C 238.075 -1.53339 -1.19168 0
M  V30 2447 O 237.35 -0.736124 -1.80032 0
M  V30 2448 C 237.633 -3.59331 0.235144 0
M  V30 2449 C 237.486 -4.17989 1.66149 0
M  V30 2450 C 238.805 -4.3813 -0.41595 0
M  V30 2451 H 235.924 -0.733293 0.0738311 0
M  V30 2452 H 238.566 -1.69368 0.86107 0
M  V30 2453 H 236.716 -3.87109 -0.328487 0
M  V30 2454 H 238.388 -4.0116 2.27747 0
M  V30 2455 H 236.631 -3.7377 2.20178 0
M  V30 2456 H 237.302 -5.27126 1.63837 0
M  V30 2457 H 239.778 -4.16051 0.0638529 0
M  V30 2458 H 238.654 -5.47717 -0.360115 0
M  V30 2459 H 238.915 -4.16101 -1.49373 0
M  V30 2460 N 237.974 -0.419461 -1.51915 0
M  V30 2461 C 239.222 0.152637 -2.01523 0
M  V30 2462 C 239.543 1.44762 -1.30649 0
M  V30 2463 O 238.813 1.90997 -0.435535 0
M  V30 2464 H 237.393 0.0593966 -0.744635 0
M  V30 2465 H 240.055 -0.558073 -1.86739 0
M  V30 2466 H 239.151 0.341369 -3.10227 0
M  V30 2467 N 239.452 1.56882 -0.150215 0
M  V30 2468 C 240.701 1.95403 0.500071 0
M  V30 2469 C 241.014 1.03777 1.658 0
M  V30 2470 O 242.22 1.31889 2.37313 0
M  V30 2471 C 240.676 3.4738 0.941018 0
M  V30 2472 C 240.284 4.47596 -0.190158 0
M  V30 2473 C 242.028 3.9476 1.56091 0
M  V30 2474 C 239.935 5.90787 0.269237 0
M  V30 2475 H 238.865 0.729515 0.190588 0
M  V30 2476 H 241.516 1.81988 -0.235074 0
M  V30 2477 H 239.898 3.56138 1.73152 0
M  V30 2478 H 241.072 4.50536 -0.967157 0
M  V30 2479 H 239.387 4.10151 -0.718666 0
M  V30 2480 H 241.984 4.99181 1.9163 0
M  V30 2481 H 242.327 3.36494 2.45107 0
M  V30 2482 H 242.86 3.88932 0.835249 0
M  V30 2483 H 239.599 6.52879 -0.585621 0
M  V30 2484 H 239.119 5.912 1.01204 0
M  V30 2485 H 240.798 6.42979 0.720176 0
M  V30 2486 N 240.93 -0.123565 1.57115 0
M  V30 2487 C 242.176 -0.833386 1.84885 0
M  V30 2488 C 242.509 -1.79742 0.735292 0
M  V30 2489 O 241.784 -1.92764 -0.25925 0
M  V30 2490 C 242.067 -1.5873 3.23228 0
M  V30 2491 C 241.92 -0.643183 4.45178 0
M  V30 2492 C 243.239 -2.54453 3.59085 0
M  V30 2493 H 240.358 -0.301518 0.6725 0
M  V30 2494 H 243 -0.097778 1.89748 0
M  V30 2495 H 241.15 -2.21438 3.19214 0
M  V30 2496 H 242.822 -0.0253015 4.61293 0
M  V30 2497 H 241.065 0.0456139 4.33776 0
M  V30 2498 H 241.736 -1.20724 5.38637 0
M  V30 2499 H 244.212 -2.01853 3.63861 0
M  V30 2500 H 243.088 -3.04238 4.5687 0
M  V30 2501 H 243.349 -3.36906 2.86264 0
M  V30 2502 N 242.408 -1.52605 -0.393616 0
M  V30 2503 C 243.636 -1.71294 -1.16043 0
M  V30 2504 C 244.051 -0.429259 -1.83855 0
M  V30 2505 O 243.408 0.595921 -1.72496 0
M  V30 2506 C 243.459 -2.8593 -2.21193 0
M  V30 2507 O 243.18 -4.09329 -1.56146 0
M  V30 2508 C 244.681 -3.16259 -3.10636 0
M  V30 2509 H 241.901 -0.573641 -0.348104 0
M  V30 2510 H 244.445 -1.99234 -0.461092 0
M  V30 2511 H 242.6 -2.60465 -2.86769 0
M  V30 2512 H 243.014 -4.73323 -2.25978 0
M  V30 2513 H 244.488 -3.99946 -3.80456 0
M  V30 2514 H 244.965 -2.3045 -3.73884 0
M  V30 2515 H 245.571 -3.43547 -2.50711 0
M  V30 2516 N 243.887 0.651787 -1.4349 0
M  V30 2517 C 245.115 1.43937 -1.48626 0
M  V30 2518 C 245.53 1.8851 -0.104587 0
M  V30 2519 O 244.887 1.5958 0.885464 0
M  V30 2520 C 244.938 2.6734 -2.43334 0
M  V30 2521 O 244.659 2.24631 -3.76128 0
M  V30 2522 C 246.16 3.60683 -2.57726 0
M  V30 2523 H 243.38 0.44213 -0.504739 0
M  V30 2524 H 245.924 0.798944 -1.88248 0
M  V30 2525 H 244.079 3.2752 -2.06904 0
M  V30 2526 H 244.493 3.04485 -4.2707 0
M  V30 2527 H 245.967 4.43933 -3.28067 0
M  V30 2528 H 246.444 4.08126 -1.62265 0
M  V30 2529 H 247.05 3.06384 -2.94973 0
M  V30 2530 N 245.365 1.30045 0.890287 0
M  V30 2531 C 246.593 1.21472 1.67487 0
M  V30 2532 C 247.008 -0.223241 1.87476 0
M  V30 2533 O 246.365 -1.14828 1.41847 0
M  V30 2534 C 246.416 1.93394 3.05419 0
M  V30 2535 O 246.137 3.31576 2.86337 0
M  V30 2536 C 247.638 1.91414 3.99844 0
M  V30 2537 H 244.858 0.420604 0.522813 0
M  V30 2538 H 247.402 1.7158 1.11268 0
M  V30 2539 H 245.557 1.47099 3.58386 0
M  V30 2540 H 245.971 3.67929 3.73802 0
M  V30 2541 H 247.445 2.46285 4.94012 0
M  V30 2542 H 247.922 0.891833 4.3005 0
M  V30 2543 H 248.528 2.37496 3.52811 0
M  V30 2544 N 246.843 -1.10192 1.12674 0
M  V30 2545 C 248.259 -1.34235 0.863317 0
M  V30 2546 C 248.459 -1.95062 -0.505277 0
M  V30 2547 O 247.515 -2.19192 -1.25345 0
M  V30 2548 C 248.828 -2.2616 1.98172 0
M  V30 2549 C 250.376 -2.3969 2.0129 0
M  V30 2550 C 250.851 -3.34946 3.1237 0
M  V30 2551 N 252.342 -3.42515 3.11829 0
M  V30 2552 C 253.077 -4.16199 3.94419 0
M  V30 2553 N 252.573 -4.92747 4.87004 0
M  V30 2554 N 254.366 -4.11843 3.82547 0
M  V30 2555 H 246.517 -0.690798 2.00853 0
M  V30 2556 H 248.78 -0.366774 0.874174 0
M  V30 2557 H 248.486 -1.8868 2.96804 0
M  V30 2558 H 248.36 -3.26488 1.88906 0
M  V30 2559 H 250.747 -2.76438 1.03276 0
M  V30 2560 H 250.828 -1.39169 2.14629 0
M  V30 2561 H 250.472 -2.98923 4.10619 0
M  V30 2562 H 250.402 -4.35353 2.96269 0
M  V30 2563 H 252.893 -2.87926 2.44759 0
M  V30 2564 H 253.206 -5.46376 5.46528 0
M  V30 2565 H 251.551 -4.91862 4.91016 0
M  V30 2566 H 254.742 -3.51136 3.0955 0
M  V30 2567 H 254.915 -4.69007 4.47142 0
M  V30 2568 N 248.321 -0.919034 -1.28029 0
M  V30 2569 C 249.567 -0.555757 -1.95036 0
M  V30 2570 C 249.9 0.899198 -1.72128 0
M  V30 2571 O 249.175 1.64023 -1.04531 0
M  V30 2572 C 249.458 -0.872024 -3.49382 0
M  V30 2573 C 249.311 -2.3801 -3.81669 0
M  V30 2574 C 250.63 -0.37185 -4.38526 0
M  V30 2575 H 247.749 -0.203386 -0.708381 0
M  V30 2576 H 250.391 -1.14924 -1.51303 0
M  V30 2577 H 248.541 -0.366946 -3.86763 0
M  V30 2578 H 250.213 -2.9562 -3.54128 0
M  V30 2579 H 248.456 -2.83289 -3.28526 0
M  V30 2580 H 249.127 -2.55192 -4.8947 0
M  V30 2581 H 251.603 -0.804602 -4.08247 0
M  V30 2582 H 250.479 -0.622173 -5.45362 0
M  V30 2583 H 250.74 0.727934 -4.36066 0
M  V30 2584 N 249.799 1.42003 -0.683588 0
M  V30 2585 C 250.747 2.326 0.000815408 0
M  V30 2586 C 251.741 1.50308 0.781278 0
M  V30 2587 O 252.947 1.66322 0.688251 0
M  V30 2588 H 249.322 0.751758 0.0190616 0
M  V30 2589 H 251.293 2.88011 -0.780528 0
M  V30 2590 C 250.042 3.34978 0.93195 0
M  V30 2591 H 249.365 3.98345 0.340817 0
M  V30 2592 H 250.805 4.00936 1.37936 0
M  V30 2593 C 249.264 2.67925 2.04249 0
M  V30 2594 O 249.794 2.51788 3.12995 0
M  V30 2595 N 248 2.2681 1.81675 0
M  V30 2596 H 247.547 2.40135 0.932363 0
M  V30 2597 H 247.505 1.8228 2.56167 0
M  V30 2598 N 251.277 0.427512 1.51691 0
M  V30 2599 C 252.227 -0.406604 2.24345 0
M  V30 2600 C 253.211 -0.998276 1.26187 0
M  V30 2601 O 254.403 -0.918045 1.51331 0
M  V30 2602 C 251.532 -1.51266 3.08177 0
M  V30 2603 C 250.618 -0.930868 4.13758 0
M  V30 2604 N 251.009 -0.0773552 5.05741 0
M  V30 2605 C 249.307 -1.19948 4.29568 0
M  V30 2606 C 250.008 0.248344 5.8117 0
M  V30 2607 N 248.984 -0.365535 5.4237 0
M  V30 2608 H 252.786 0.251581 2.92821 0
M  V30 2609 H 250.3 0.239003 1.60632 0
M  V30 2610 H 252.297 -2.123 3.58796 0
M  V30 2611 H 250.957 -2.17328 2.41244 0
M  V30 2612 H 251.968 0.288351 5.17097 0
M  V30 2613 H 248.645 -1.85832 3.73862 0
M  V30 2614 H 250.035 0.942286 6.6526 0
M  V30 2615 N 252.755 -1.56801 0.158532 0
M  V30 2616 C 253.718 -2.16138 -0.762705 0
M  V30 2617 C 254.718 -1.1061 -1.16713 0
M  V30 2618 O 255.908 -1.36191 -1.08617 0
M  V30 2619 C 253.04 -2.73386 -2.03649 0
M  V30 2620 H 254.233 -2.98886 -0.246354 0
M  V30 2621 H 251.786 -1.56035 -0.0909744 0
M  V30 2622 H 252.521 -1.94335 -2.59623 0
M  V30 2623 H 252.306 -3.50601 -1.75559 0
M  V30 2624 H 253.796 -3.19065 -2.6942 0
M  V30 2625 N 254.233 0.115231 -1.57178 0
M  V30 2626 C 255.461 0.836437 -1.89239 0
M  V30 2627 C 255.876 1.73256 -0.750175 0
M  V30 2628 O 255.233 1.80357 0.278832 0
M  V30 2629 C 255.284 1.66671 -3.20785 0
M  V30 2630 O 255.005 0.806652 -4.3061 0
M  V30 2631 C 256.506 2.49274 -3.66575 0
M  V30 2632 H 253.726 0.240253 -0.626514 0
M  V30 2633 H 256.27 0.0984932 -2.04263 0
M  V30 2634 H 254.425 2.35737 -3.0742 0
M  V30 2635 H 254.839 1.37969 -5.06028 0
M  V30 2636 H 256.313 3.03055 -4.6137 0
M  V30 2637 H 256.79 3.26807 -2.93417 0
M  V30 2638 H 257.396 1.85443 -3.82741 0
M  V30 2639 N 255.711 1.52812 0.385517 0
M  V30 2640 C 257.122 1.5993 0.963293 0
M  V30 2641 C 257.473 0.454302 1.90868 0
M  V30 2642 O 256.598 -0.422132 2.12243 0
M  V30 2643 C 257.193 2.89871 1.75387 0
M  V30 2644 C 255.752 2.99389 2.28129 0
M  V30 2645 C 254.899 2.55071 1.08783 0
M  V30 2646 H 257.85 1.5784 0.164948 0
M  V30 2647 H 257.871 2.76553 2.61341 0
M  V30 2648 H 257.383 3.73186 1.06554 0
M  V30 2649 H 255.484 2.20619 3.00263 0
M  V30 2650 H 255.597 4.04096 2.57377 0
M  V30 2651 H 253.961 2.09473 1.4489 0
M  V30 2652 H 254.744 3.40785 0.414807 0
M  V30 2653 N 257.189 -0.644168 1.43834 0
M  V30 2654 C 258.414 -1.43642 1.49605 0
M  V30 2655 C 258.839 -1.8773 0.117913 0
M  V30 2656 O 258.197 -1.57938 -0.890239 0
M  V30 2657 C 258.245 -2.6416 2.45463 0
M  V30 2658 O 257.349 -3.63538 1.94714 0
M  V30 2659 H 256.69 -0.430329 0.50568 0
M  V30 2660 H 259.22 -0.787448 1.8884 0
M  V30 2661 H 259.23 -3.11864 2.63068 0
M  V30 2662 H 257.905 -2.31414 3.45572 0
M  V30 2663 H 256.482 -3.2273 1.86814 0
M  V30 2664 N 258.668 -1.30515 -0.883378 0
M  V30 2665 C 259.631 -1.1701 -1.97082 0
M  V30 2666 C 260.631 -0.10089 -1.60483 0
M  V30 2667 O 261.821 -0.349127 -1.70666 0
M  V30 2668 C 258.953 -0.793045 -3.31547 0
M  V30 2669 H 260.146 -2.13622 -2.10489 0
M  V30 2670 H 257.699 -1.13935 -1.06998 0
M  V30 2671 H 258.434 0.172499 -3.23841 0
M  V30 2672 H 258.219 -1.56576 -3.5948 0
M  V30 2673 H 259.709 -0.722073 -4.1131 0
M  V30 2674 N 260.146 1.09593 -1.13257 0
M  V30 2675 C 261.109 2.14359 -0.811358 0
M  V30 2676 C 262.109 1.59808 0.178377 0
M  V30 2677 O 263.299 1.74132 -0.0484911 0
M  V30 2678 C 260.431 3.40269 -0.207276 0
M  V30 2679 H 261.624 2.44284 -1.73969 0
M  V30 2680 H 259.177 1.25102 -0.936973 0
M  V30 2681 H 259.912 3.15969 0.73036 0
M  V30 2682 H 259.697 3.81154 -0.919992 0
M  V30 2683 H 261.187 4.176 0.000667944 0
M  V30 2684 N 261.624 0.925811 1.2754 0
M  V30 2685 C 262.854 0.580666 1.98272 0
M  V30 2686 C 263.262 -0.845207 1.69272 0
M  V30 2687 O 262.605 -1.57306 0.948707 0
M  V30 2688 C 262.667 0.724418 3.52126 0
M  V30 2689 C 262.331 2.12206 4.04744 0
M  V30 2690 C 263.328 3.09604 4.17662 0
M  V30 2691 C 261.013 2.4385 4.39138 0
M  V30 2692 C 263.007 4.36755 4.64246 0
M  V30 2693 C 260.694 3.71237 4.85414 0
M  V30 2694 C 261.692 4.67503 4.97926 0
M  V30 2695 O 261.38 5.92624 5.43187 0
M  V30 2696 H 261.112 0.218987 0.639547 0
M  V30 2697 H 263.666 1.24452 1.63404 0
M  V30 2698 H 261.896 0.0034663 3.867 0
M  V30 2699 H 263.585 0.384607 4.04074 0
M  V30 2700 H 264.351 2.86478 3.91351 0
M  V30 2701 H 260.23 1.69665 4.28643 0
M  V30 2702 H 263.774 5.11898 4.73927 0
M  V30 2703 H 259.671 3.94182 5.11166 0
M  V30 2704 H 260.439 5.95585 5.61445 0
M  V30 2705 N 263.102 -1.41638 0.69111 0
M  V30 2706 C 264.065 -2.29178 0.0319786 0
M  V30 2707 C 265.065 -1.44153 -0.712496 0
M  V30 2708 O 266.255 -1.65354 -0.548053 0
M  V30 2709 C 263.387 -3.26952 -0.965161 0
M  V30 2710 H 264.58 -2.88959 0.802681 0
M  V30 2711 H 262.133 -1.4955 0.454356 0
M  V30 2712 H 262.868 -2.72142 -1.76378 0
M  V30 2713 H 262.653 -3.89685 -0.434522 0
M  V30 2714 H 264.143 -3.92561 -1.42428 0
M  V30 2715 N 264.58 -0.43555 -1.51462 0
M  V30 2716 C 265.53 0.394701 -2.24558 0
M  V30 2717 C 266.514 0.99157 -1.26715 0
M  V30 2718 O 267.706 0.910007 -1.51815 0
M  V30 2719 C 264.835 1.4963 -3.08975 0
M  V30 2720 C 263.921 0.908912 -4.14246 0
M  V30 2721 N 264.312 0.0505335 -5.05775 0
M  V30 2722 C 262.61 1.17668 -4.30198 0
M  V30 2723 C 263.311 -0.279161 -5.8103 0
M  V30 2724 N 262.287 0.336767 -5.42556 0
M  V30 2725 H 266.089 -0.267106 -2.92684 0
M  V30 2726 H 263.603 -0.247518 -1.60503 0
M  V30 2727 H 265.6 2.10394 -3.59917 0
M  V30 2728 H 264.26 2.16046 -2.42393 0
M  V30 2729 H 265.271 -0.31577 -5.16936 0
M  V30 2730 H 261.948 1.83847 -3.74842 0
M  V30 2731 H 263.338 -0.977553 -6.64751 0
M  V30 2732 N 266.058 1.56714 -0.166846 0
M  V30 2733 C 267.283 2.01557 0.488833 0
M  V30 2734 C 267.708 1.0463 1.56314 0
M  V30 2735 O 267.066 0.0251304 1.81283 0
M  V30 2736 C 267.114 3.4503 1.04818 0
M  V30 2737 O 266.218 3.51163 2.16236 0
M  V30 2738 H 265.559 0.653516 0.117526 0
M  V30 2739 H 268.089 2.02818 -0.269421 0
M  V30 2740 H 268.099 3.84243 1.37191 0
M  V30 2741 H 266.774 4.15077 0.261572 0
M  V30 2742 H 265.351 3.23807 1.84942 0
M  V30 2743 N 267.536 -0.106894 1.57237 0
M  V30 2744 C 268.499 -1.11466 2.0027 0
M  V30 2745 C 269.499 -1.33623 0.894519 0
M  V30 2746 O 270.689 -1.29935 1.16028 0
M  V30 2747 C 267.821 -2.46646 2.35327 0
M  V30 2748 H 269.014 -0.744516 2.90512 0
M  V30 2749 H 266.567 -0.351576 1.52295 0
M  V30 2750 H 267.302 -2.88558 1.48003 0
M  V30 2751 H 267.087 -2.31915 3.16161 0
M  V30 2752 H 268.577 -3.19151 2.69318 0
M  V30 2753 N 269.014 -1.53014 -0.377408 0
M  V30 2754 C 270.291 -1.59215 -1.13622 0
M  V30 2755 C 270.671 -0.392407 -2.07421 0
M  V30 2756 O 270.019 0.618342 -2.19975 0
M  V30 2757 C 270.229 -2.93669 -1.88573 0
M  V30 2758 C 271.577 -3.47822 -2.43526 0
M  V30 2759 O 272.601 -2.9562 -1.98715 0
M  V30 2760 O 271.46 -4.39055 -3.25412 0
M  V30 2761 H 268.554 -0.642625 -0.52054 0
M  V30 2762 H 271.1 -1.65353 -0.381625 0
M  V30 2763 H 269.872 -3.7243 -1.20048 0
M  V30 2764 H 269.495 -2.90968 -2.70968 0
M  V30 2765 N 270.492 0.636531 -1.44174 0
M  V30 2766 C 271.908 0.954104 -1.27941 0
M  V30 2767 C 272.108 2.0039 -0.211248 0
M  V30 2768 O 271.164 2.49236 0.404695 0
M  V30 2769 C 272.477 1.4225 -2.64925 0
M  V30 2770 C 274.025 1.53827 -2.72592 0
M  V30 2771 C 274.5 2.04053 -4.10032 0
M  V30 2772 N 275.991 2.11331 -4.12182 0
M  V30 2773 C 276.726 2.51352 -5.15374 0
M  V30 2774 N 276.222 2.90549 -6.2893 0
M  V30 2775 N 278.015 2.51438 -5.02728 0
M  V30 2776 H 270.166 -0.0578386 -2.12321 0
M  V30 2777 H 272.429 0.0367406 -0.947288 0
M  V30 2778 H 272.135 0.725466 -3.44136 0
M  V30 2779 H 272.009 2.39451 -2.9145 0
M  V30 2780 H 274.396 2.22628 -1.93702 0
M  V30 2781 H 274.477 0.550154 -2.49814 0
M  V30 2782 H 274.121 1.35848 -4.89395 0
M  V30 2783 H 274.051 3.03726 -4.30184 0
M  V30 2784 H 276.542 1.83745 -3.30222 0
M  V30 2785 H 276.855 3.19884 -7.03487 0
M  V30 2786 H 275.2 2.88313 -6.32377 0
M  V30 2787 H 278.391 2.20203 -4.13072 0
M  V30 2788 H 278.564 2.82304 -5.83274 0
M  V30 2789 N 271.97 1.30982 0.876444 0
M  V30 2790 C 273.247 1.10942 1.61094 0
M  V30 2791 C 273.627 -0.338223 2.08373 0
M  V30 2792 O 272.975 -1.33122 1.85717 0
M  V30 2793 C 273.185 2.11789 2.77392 0
M  V30 2794 C 274.533 2.43965 3.47514 0
M  V30 2795 O 275.557 2.10166 2.87591 0
M  V30 2796 O 274.416 3.01817 4.55597 0
M  V30 2797 H 271.51 0.42667 0.708436 0
M  V30 2798 H 274.056 1.42438 0.922474 0
M  V30 2799 H 272.828 3.09194 2.39823 0
M  V30 2800 H 272.451 1.81161 3.5393 0
M  V30 2801 N 273.449 -1.08991 1.13837 0
M  V30 2802 C 274.695 -1.81699 0.91417 0
M  V30 2803 C 275.05 -1.84264 -0.553594 0
M  V30 2804 O 274.343 -1.30313 -1.4046 0
M  V30 2805 C 274.537 -3.27042 1.44147 0
M  V30 2806 C 274.366 -3.38637 2.95897 0
M  V30 2807 C 273.136 -3.50177 3.64286 0
M  V30 2808 C 275.334 -3.30791 3.93804 0
M  V30 2809 N 273.316 -3.50501 5.04006 0
M  V30 2810 C 274.687 -3.38037 5.19741 0
M  V30 2811 C 276.742 -3.14488 3.86007 0
M  V30 2812 C 275.445 -3.30659 6.38793 0
M  V30 2813 C 277.471 -3.08438 5.04599 0
M  V30 2814 C 276.833 -3.1628 6.29402 0
M  V30 2815 H 272.932 -0.678967 0.387979 0
M  V30 2816 H 275.516 -1.30224 1.4474 0
M  V30 2817 H 273.687 -3.76976 0.935091 0
M  V30 2818 H 275.419 -3.87785 1.1578 0
M  V30 2819 H 272.174 -3.53815 3.1482 0
M  V30 2820 H 272.598 -3.54236 5.76928 0
M  V30 2821 H 277.24 -3.07291 2.90399 0
M  V30 2822 H 274.958 -3.36618 7.34652 0
M  V30 2823 H 278.544 -2.96952 5.0031 0
M  V30 2824 H 277.424 -3.1162 7.19627 0
M  V30 2825 N 274.927 -0.932562 -1.27047 0
M  V30 2826 C 276.157 -0.591173 -1.97961 0
M  V30 2827 C 276.565 0.836219 -1.69717 0
M  V30 2828 O 275.908 1.56801 -0.957036 0
M  V30 2829 C 275.97 -0.743082 -3.51736 0
M  V30 2830 C 275.634 -2.1435 -4.03613 0
M  V30 2831 C 276.631 -3.11815 -4.16014 0
M  V30 2832 C 274.316 -2.46175 -4.37839 0
M  V30 2833 C 276.31 -4.39211 -4.61923 0
M  V30 2834 C 273.997 -3.73806 -4.83438 0
M  V30 2835 C 274.995 -4.70137 -4.95439 0
M  V30 2836 O 274.683 -5.95496 -5.40037 0
M  V30 2837 H 274.415 -0.222375 -0.638377 0
M  V30 2838 H 276.969 -1.25317 -1.62742 0
M  V30 2839 H 275.199 -0.0239739 -3.86693 0
M  V30 2840 H 276.888 -0.40603 -4.03864 0
M  V30 2841 H 277.654 -2.88549 -3.89826 0
M  V30 2842 H 273.533 -1.71936 -4.27737 0
M  V30 2843 H 277.077 -5.14404 -4.71205 0
M  V30 2844 H 272.974 -3.96888 -5.09068 0
M  V30 2845 H 273.742 -5.98554 -5.58279 0
M  V30 2846 N 276.405 1.4127 -0.698611 0
M  V30 2847 C 277.63 2.06024 -0.238512 0
M  V30 2848 C 278.055 1.5224 1.10475 0
M  V30 2849 O 277.413 0.650623 1.69223 0
M  V30 2850 C 277.461 3.59988 -0.209952 0
M  V30 2851 O 276.565 4.04282 0.814235 0
M  V30 2852 H 275.906 0.653829 -0.115775 0
M  V30 2853 H 278.436 1.8098 -0.954326 0
M  V30 2854 H 278.446 4.07979 -0.0418436 0
M  V30 2855 H 277.121 3.98503 -1.1903 0
M  V30 2856 H 275.698 3.6779 0.615234 0
M  V30 2857 N 277.883 0.443576 1.51229 0
M  V30 2858 C 279.16 -0.181038 1.9476 0
M  V30 2859 C 279.54 -1.59523 1.38259 0
M  V30 2860 O 278.888 -2.2122 0.572198 0
M  V30 2861 C 279.098 -0.152422 3.48667 0
M  V30 2862 C 280.446 -0.354923 4.23114 0
M  V30 2863 O 281.47 -0.230257 3.55455 0
M  V30 2864 O 280.329 -0.603674 5.43156 0
M  V30 2865 H 277.423 -0.1266 0.817252 0
M  V30 2866 H 279.969 0.502004 1.62105 0
M  V30 2867 H 278.741 0.836022 3.82265 0
M  V30 2868 H 278.364 -0.878107 3.87782 0
M  V30 2869 N 279.361 -1.56624 0.175154 0
M  V30 2870 C 280.309 -2.19468 -0.770495 0
M  V30 2871 C 281.303 -1.15985 -1.23466 0
M  V30 2872 O 282.509 -1.34176 -1.19987 0
M  V30 2873 H 278.884 -0.703095 -0.266761 0
M  V30 2874 H 280.855 -2.97613 -0.216542 0
M  V30 2875 C 279.604 -2.85264 -1.98796 0
M  V30 2876 H 278.927 -3.64623 -1.63983 0
M  V30 2877 H 280.367 -3.327 -2.62843 0
M  V30 2878 C 278.826 -1.85239 -2.81404 0
M  V30 2879 O 279.356 -1.34024 -3.78682 0
M  V30 2880 N 277.562 -1.53911 -2.46495 0
M  V30 2881 H 277.109 -1.95751 -1.67449 0
M  V30 2882 H 277.067 -0.872382 -3.02054 0
M  V30 2883 N 280.839 0.0985539 -1.57292 0
M  V30 2884 C 281.749 1.13824 -2.05137 0
M  V30 2885 C 282.765 1.44076 -0.975604 0
M  V30 2886 O 283.941 1.54786 -1.28853 0
M  V30 2887 C 281.006 2.43969 -2.46333 0
M  V30 2888 C 280.067 2.2093 -3.68087 0
M  V30 2889 C 279.3 3.44869 -4.0731 0
M  V30 2890 O 279.523 4.52972 -3.46659 0
M  V30 2891 O 278.457 3.34661 -5.00285 0
M  V30 2892 H 282.283 0.761881 -2.93988 0
M  V30 2893 H 279.868 0.310818 -1.46131 0
M  V30 2894 H 281.75 3.20609 -2.73473 0
M  V30 2895 H 280.425 2.81038 -1.60621 0
M  V30 2896 H 279.332 1.42081 -3.46069 0
M  V30 2897 H 280.665 1.88755 -4.54568 0
M  V30 2898 N 282.317 1.53212 0.369288 0
M  V30 2899 C 283.25 1.74166 1.4745 0
M  V30 2900 C 284.228 0.589923 1.51521 0
M  V30 2901 O 285.412 0.822078 1.69629 0
M  V30 2902 C 282.539 1.81711 2.8583 0
M  V30 2903 C 281.585 3.03649 2.99499 0
M  V30 2904 S 282.418 4.63242 2.6864 0
M  V30 2905 C 283.574 4.7363 4.09177 0
M  V30 2906 H 283.807 2.67636 1.29454 0
M  V30 2907 H 281.34 1.43754 0.563396 0
M  V30 2908 H 283.298 1.86743 3.65564 0
M  V30 2909 H 281.959 0.89299 3.01139 0
M  V30 2910 H 281.152 3.05526 4.00836 0
M  V30 2911 H 280.754 2.9671 2.27683 0
M  V30 2912 H 283.046 4.53456 5.03372 0
M  V30 2913 H 283.989 5.75682 4.12306 0
M  V30 2914 H 284.397 4.02295 3.96004 0
M  V30 2915 N 283.795 -0.628877 1.44509 0
M  V30 2916 C 285.206 -1.21054 1.42137 0
M  V30 2917 C 285.557 -1.95715 0.137881 0
M  V30 2918 O 284.682 -2.02554 -0.761645 0
M  V30 2919 C 285.277 -2.20189 2.57493 0
M  V30 2920 C 283.836 -2.73777 2.58308 0
M  V30 2921 C 282.983 -1.48813 2.33987 0
M  V30 2922 H 285.934 -0.41942 1.53057 0
M  V30 2923 H 285.955 -3.02833 2.30375 0
M  V30 2924 H 285.467 -1.6582 3.50892 0
M  V30 2925 H 283.568 -3.32142 1.68856 0
M  V30 2926 H 283.681 -3.19662 3.56865 0
M  V30 2927 H 282.045 -1.77024 1.83124 0
M  V30 2928 H 282.828 -0.963442 3.29504 0
M  V30 2929 N 285.273 -1.31445 -0.869486 0
M  V30 2930 C 286.684 -1.19042 -1.43826 0
M  V30 2931 C 287.035 0.202919 -1.95148 0
M  V30 2932 O 286.16 1.10071 -1.86315 0
M  V30 2933 C 286.755 -2.15499 -2.6143 0
M  V30 2934 C 285.314 -2.07028 -3.14351 0
M  V30 2935 C 284.461 -2.04701 -1.87063 0
M  V30 2936 H 287.412 -1.43489 -0.677984 0
M  V30 2937 H 287.433 -1.74488 -3.38134 0
M  V30 2938 H 286.945 -3.16899 -2.24046 0
M  V30 2939 H 285.046 -1.08825 -3.56354 0
M  V30 2940 H 285.159 -2.96157 -3.766 0
M  V30 2941 H 283.523 -1.49724 -2.06046 0
M  V30 2942 H 284.306 -3.07857 -1.51917 0
M  V30 2943 N 286.751 1.08385 -1.14413 0
M  V30 2944 C 287.661 2.18856 -0.844951 0
M  V30 2945 C 288.677 1.73121 0.174668 0
M  V30 2946 O 289.853 2.014 0.00312857 0
M  V30 2947 C 286.918 3.45155 -0.32696 0
M  V30 2948 C 285.979 4.05513 -1.40916 0
M  V30 2949 C 285.212 5.25784 -0.915793 0
M  V30 2950 O 285.435 5.69884 0.242651 0
M  V30 2951 O 284.369 5.77545 -1.69487 0
M  V30 2952 H 288.195 2.46919 -1.76818 0
M  V30 2953 H 285.78 1.17524 -0.922411 0
M  V30 2954 H 287.662 4.21377 -0.0440211 0
M  V30 2955 H 286.337 3.18668 0.568539 0
M  V30 2956 H 285.244 3.30879 -1.74556 0
M  V30 2957 H 286.577 4.3625 -2.27919 0
M  V30 2958 N 288.23 0.939286 1.26551 0
M  V30 2959 C 289.193 0.451987 2.24699 0
M  V30 2960 C 290.193 -0.435869 1.5478 0
M  V30 2961 O 291.383 -0.235314 1.72603 0
M  V30 2962 C 288.515 -0.348801 3.39111 0
M  V30 2963 H 289.708 1.3193 2.69322 0
M  V30 2964 H 287.261 0.721072 1.38673 0
M  V30 2965 H 287.996 -1.23444 2.99887 0
M  V30 2966 H 287.781 0.287945 3.91041 0
M  V30 2967 H 289.271 -0.679726 4.12031 0
M  V30 2968 N 289.708 -1.40897 0.706093 0
M  V30 2969 C 290.638 -2.33418 0.0620085 0
M  V30 2970 C 291.619 -1.52385 -0.755827 0
M  V30 2971 O 292.804 -1.80886 -0.706674 0
M  V30 2972 C 289.934 -3.36293 -0.867445 0
M  V30 2973 C 288.888 -4.27716 -0.155932 0
M  V30 2974 C 288.214 -5.2105 -1.20046 0
M  V30 2975 C 289.514 -5.12944 0.984149 0
M  V30 2976 H 291.208 -2.87527 0.83477 0
M  V30 2977 H 288.754 -1.38249 0.402875 0
M  V30 2978 H 290.707 -3.99949 -1.32735 0
M  V30 2979 H 289.431 -2.80556 -1.67199 0
M  V30 2980 H 288.09 -3.65498 0.284047 0
M  V30 2981 H 287.738 -4.61624 -1.99781 0
M  V30 2982 H 287.438 -5.83056 -0.729328 0
M  V30 2983 H 288.962 -5.87584 -1.66066 0
M  V30 2984 H 290.376 -5.70109 0.604048 0
M  V30 2985 H 288.773 -5.83945 1.38304 0
M  V30 2986 H 289.843 -4.49485 1.81911 0
M  V30 2987 N 291.186 -0.45159 -1.50991 0
M  V30 2988 C 292.411 0.110667 -2.07105 0
M  V30 2989 C 292.836 1.3446 -1.31538 0
M  V30 2990 O 292.194 1.77743 -0.357365 0
M  V30 2991 C 292.242 0.397238 -3.58405 0
M  V30 2992 O 291.346 1.48124 -3.84881 0
M  V30 2993 H 290.687 -0.00439271 -0.663985 0
M  V30 2994 H 293.217 -0.637026 -1.9443 0
M  V30 2995 H 293.227 0.64351 -4.02893 0
M  V30 2996 H 291.902 -0.504553 -4.12828 0
M  V30 2997 H 290.479 1.22381 -3.52246 0
M  V30 2998 N 292.664 1.56529 -0.183458 0
M  V30 2999 C 293.596 2.15747 0.773697 0
M  V30 3000 C 294.609 1.1162 1.1851 0
M  V30 3001 O 295.798 1.3876 1.12285 0
M  V30 3002 C 292.898 2.6952 2.05456 0
M  V30 3003 C 292.071 3.98429 1.8048 0
M  V30 3004 C 291.13 4.37145 2.92901 0
M  V30 3005 O 290.156 5.04791 2.6301 0
M  V30 3006 N 291.358 3.99695 4.2098 0
M  V30 3007 H 294.123 2.98505 0.26736 0
M  V30 3008 H 291.684 1.619 -0.0010878 0
M  V30 3009 H 293.676 2.92412 2.79781 0
M  V30 3010 H 292.246 1.91282 2.47245 0
M  V30 3011 H 291.466 3.8379 0.899947 0
M  V30 3012 H 292.754 4.82597 1.61175 0
M  V30 3013 H 292.152 3.4526 4.48121 0
M  V30 3014 H 290.709 4.27562 4.9197 0
M  V30 3015 N 294.142 -0.090211 1.57342 0
M  V30 3016 C 295.39 -0.791241 1.85967 0
M  V30 3017 C 295.711 -1.7903 0.772859 0
M  V30 3018 O 294.981 -1.94872 -0.200398 0
M  V30 3019 H 293.561 -0.295205 0.686195 0
M  V30 3020 H 296.223 -0.0706782 1.94772 0
M  V30 3021 H 295.319 -1.31882 2.82867 0
M  V30 3022 N 295.62 -1.53406 -0.361157 0
M  V30 3023 C 296.86 -1.71507 -1.11197 0
M  V30 3024 C 297.224 -0.459337 -1.86425 0
M  V30 3025 O 298.425 -0.517102 -2.63779 0
M  V30 3026 C 296.696 -2.93307 -2.0422 0
M  V30 3027 S 298.255 -3.32135 -2.86761 0
M  V30 3028 H 295.073 -0.603448 -0.375995 0
M  V30 3029 H 297.675 -1.91516 -0.392642 0
M  V30 3030 H 296.379 -3.82891 -1.47724 0
M  V30 3031 H 295.91 -2.75712 -2.80618 0
M  V30 3032 H 297.925 -2.84493 -4.06544 0
M  V30 3033 N 297.098 0.621204 -1.44841 0
M  V30 3034 C 298.045 1.73267 -1.5247 0
M  V30 3035 C 299.015 1.6189 -0.371611 0
M  V30 3036 O 300.2 1.81668 -0.58321 0
M  V30 3037 C 297.34 3.11545 -1.48438 0
M  V30 3038 C 296.453 3.33827 -2.74196 0
M  V30 3039 C 295.588 4.62133 -2.61929 0
M  V30 3040 C 294.627 4.77627 -3.82804 0
M  V30 3041 N 293.764 5.97219 -3.69153 0
M  V30 3042 H 298.604 1.66082 -2.47428 0
M  V30 3043 H 296.141 0.810026 -1.22788 0
M  V30 3044 H 298.099 3.91528 -1.4409 0
M  V30 3045 H 296.729 3.1772 -0.570402 0
M  V30 3046 H 295.781 2.47715 -2.88689 0
M  V30 3047 H 297.093 3.41153 -3.6389 0
M  V30 3048 H 296.247 5.50291 -2.5547 0
M  V30 3049 H 294.986 4.57182 -1.69811 0
M  V30 3050 H 293.991 3.87896 -3.89637 0
M  V30 3051 H 295.216 4.84385 -4.75971 0
M  V30 3052 H 293.162 5.93339 -2.79794 0
M  V30 3053 H 293.079 6.05644 -4.52472 0
M  V30 3054 H 294.347 6.87912 -3.66603 0
M  V30 3055 N 298.576 1.31904 0.862503 0
M  V30 3056 C 299.853 1.12644 1.59908 0
M  V30 3057 C 300.233 -0.316104 2.0872 0
M  V30 3058 O 299.581 -1.31145 1.87118 0
M  V30 3059 C 299.791 2.1472 2.7513 0
M  V30 3060 C 301.139 2.47637 3.44907 0
M  V30 3061 O 302.163 2.13205 2.85346 0
M  V30 3062 O 301.022 3.06632 4.52371 0
M  V30 3063 H 298.116 0.43416 0.703871 0
M  V30 3064 H 300.662 1.43408 0.907314 0
M  V30 3065 H 299.434 3.1172 2.3653 0
M  V30 3066 H 299.057 1.84905 3.51989 0
M  V30 3067 N 300.054 -1.07777 1.14986 0
M  V30 3068 C 301.303 -1.79669 0.916617 0
M  V30 3069 C 301.616 -1.87474 -0.557917 0
M  V30 3070 O 302.822 -2.55845 -0.908617 0
M  V30 3071 C 301.278 -3.22848 1.59051 0
M  V30 3072 C 300.886 -3.23257 3.10176 0
M  V30 3073 C 302.63 -3.99379 1.43864 0
M  V30 3074 C 300.537 -4.61063 3.70372 0
M  V30 3075 H 299.467 -0.673349 0.33929 0
M  V30 3076 H 302.118 -1.21003 1.37951 0
M  V30 3077 H 300.5 -3.8168 1.0553 0
M  V30 3078 H 301.674 -2.74095 3.70417 0
M  V30 3079 H 299.989 -2.60222 3.25074 0
M  V30 3080 H 302.586 -5.0122 1.86232 0
M  V30 3081 H 302.929 -4.14511 0.385564 0
M  V30 3082 H 303.462 -3.47032 1.94457 0
M  V30 3083 H 300.201 -4.51135 4.7556 0
M  V30 3084 H 299.721 -5.1048 3.14913 0
M  V30 3085 H 301.4 -5.30034 3.71043 0
M  V30 3086 N 301.532 -0.945985 -1.26051 0
M  V30 3087 C 302.495 -0.463897 -2.24456 0
M  V30 3088 C 303.495 0.427655 -1.55009 0
M  V30 3089 O 304.685 0.226157 -1.72726 0
M  V30 3090 C 301.817 0.330812 -3.39291 0
M  V30 3091 H 303.01 -1.33357 -2.68619 0
M  V30 3092 H 300.563 -0.728416 -1.38289 0
M  V30 3093 H 301.298 1.21852 -3.00537 0
M  V30 3094 H 301.083 -0.308679 -3.90883 0
M  V30 3095 H 302.573 0.657865 -4.12386 0
M  V30 3096 N 303.011 1.40521 -0.713556 0
M  V30 3097 C 304.241 2.0494 -0.261395 0
M  V30 3098 C 304.649 1.53861 1.10107 0
M  V30 3099 O 303.992 0.689321 1.70276 0
M  V30 3100 C 304.054 3.59138 -0.161227 0
M  V30 3101 C 303.718 4.33096 -1.45865 0
M  V30 3102 C 304.715 4.61182 -2.40016 0
M  V30 3103 C 302.4 4.72043 -1.71701 0
M  V30 3104 C 304.394 5.27196 -3.58251 0
M  V30 3105 C 302.081 5.37789 -2.90218 0
M  V30 3106 C 303.079 5.65295 -3.83315 0
M  V30 3107 O 302.767 6.29683 -4.99754 0
M  V30 3108 H 302.499 0.666041 -0.115608 0
M  V30 3109 H 305.053 1.80954 -0.971849 0
M  V30 3110 H 303.283 3.81936 0.605153 0
M  V30 3111 H 304.972 4.05091 0.256105 0
M  V30 3112 H 305.738 4.31559 -2.21318 0
M  V30 3113 H 301.617 4.50003 -1.00092 0
M  V30 3114 H 305.161 5.48582 -4.30934 0
M  V30 3115 H 301.058 5.66831 -3.08825 0
M  V30 3116 H 301.826 6.4818 -4.99805 0
M  V30 3117 N 304.489 0.459591 1.5075 0
M  V30 3118 C 305.421 -0.37665 2.26084 0
M  V30 3119 C 306.434 -0.967109 1.30961 0
M  V30 3120 O 307.623 -0.857468 1.56556 0
M  V30 3121 C 304.723 -1.54112 3.01832 0
M  V30 3122 C 303.896 -1.06553 4.24223 0
M  V30 3123 C 302.955 -2.1027 4.82362 0
M  V30 3124 O 301.981 -1.68798 5.43595 0
M  V30 3125 N 303.183 -3.42974 4.68347 0
M  V30 3126 H 305.948 0.269124 2.98489 0
M  V30 3127 H 303.509 0.28972 1.59287 0
M  V30 3128 H 305.501 -2.23165 3.37608 0
M  V30 3129 H 304.071 -2.0918 2.32298 0
M  V30 3130 H 303.291 -0.201274 3.93686 0
M  V30 3131 H 304.579 -0.725516 5.03601 0
M  V30 3132 H 303.977 -3.79385 4.19623 0
M  V30 3133 H 302.534 -4.07858 5.08424 0
M  V30 3134 N 305.967 -1.56429 0.191757 0
M  V30 3135 C 306.897 -2.21937 -0.725696 0
M  V30 3136 C 307.878 -1.1814 -1.2238 0
M  V30 3137 O 309.063 -1.46636 -1.27325 0
M  V30 3138 C 306.193 -2.87611 -1.94672 0
M  V30 3139 C 305.147 -3.97623 -1.58366 0
M  V30 3140 C 304.473 -4.50446 -2.88102 0
M  V30 3141 C 305.773 -5.16197 -0.796133 0
M  V30 3142 H 307.467 -2.98861 -0.179606 0
M  V30 3143 H 305.013 -1.43749 -0.0849464 0
M  V30 3144 H 306.966 -3.3212 -2.59373 0
M  V30 3145 H 305.69 -2.08087 -2.51728 0
M  V30 3146 H 304.349 -3.53801 -0.960247 0
M  V30 3147 H 303.997 -3.67688 -3.43241 0
M  V30 3148 H 303.697 -5.24675 -2.64556 0
M  V30 3149 H 305.221 -4.97654 -3.53798 0
M  V30 3150 H 306.635 -5.57271 -1.34618 0
M  V30 3151 H 305.032 -5.96471 -0.658928 0
M  V30 3152 H 306.102 -4.84473 0.203478 0
M  V30 3153 N 307.445 0.0818655 -1.57387 0
M  V30 3154 C 308.378 1.12986 -1.98266 0
M  V30 3155 C 309.356 1.38123 -0.857954 0
M  V30 3156 O 310.54 1.51663 -1.1194 0
M  V30 3157 C 307.667 2.47632 -2.31076 0
M  V30 3158 C 306.713 2.38693 -3.53452 0
M  V30 3159 S 307.546 1.79071 -5.04672 0
M  V30 3160 C 308.702 3.15316 -5.40673 0
M  V30 3161 H 308.935 0.781435 -2.86846 0
M  V30 3162 H 306.468 0.290034 -1.51651 0
M  V30 3163 H 308.426 3.25089 -2.50654 0
M  V30 3164 H 307.087 2.79638 -1.43043 0
M  V30 3165 H 306.28 3.37964 -3.73893 0
M  V30 3166 H 305.882 1.69369 -3.33452 0
M  V30 3167 H 308.174 4.11613 -5.38127 0
M  V30 3168 H 309.117 2.99664 -6.41566 0
M  V30 3169 H 309.525 3.15457 -4.68132 0
M  V30 3170 N 308.923 1.53595 0.353017 0
M  V30 3171 C 309.873 1.77299 1.43349 0
M  V30 3172 C 310.857 0.627884 1.48143 0
M  V30 3173 O 312.049 0.88697 1.53173 0
M  V30 3174 C 309.178 1.97757 2.80619 0
M  V30 3175 C 308.264 3.18305 2.80254 0
M  V30 3176 N 308.655 4.39967 2.49526 0
M  V30 3177 C 306.953 3.19283 3.11407 0
M  V30 3178 C 307.654 5.21772 2.57156 0
M  V30 3179 N 306.63 4.58269 2.92388 0
M  V30 3180 H 310.432 2.68963 1.18474 0
M  V30 3181 H 307.946 1.52391 0.561306 0
M  V30 3182 H 309.943 2.1287 3.58458 0
M  V30 3183 H 308.603 1.07329 3.06448 0
M  V30 3184 H 309.614 4.67482 2.22893 0
M  V30 3185 H 306.291 2.3879 3.4247 0
M  V30 3186 H 307.681 6.2885 2.36638 0
M  V30 3187 N 310.401 -0.613514 1.45168 0
M  V30 3188 C 311.349 -1.74572 1.53712 0
M  V30 3189 C 312.343 -1.64426 0.407505 0
M  V30 3190 O 313.549 -1.70291 0.583176 0
M  V30 3191 H 309.924 -0.576641 0.48269 0
M  V30 3192 H 311.895 -1.64492 2.48968 0
M  V30 3193 C 310.644 -3.12943 1.51532 0
M  V30 3194 H 309.967 -3.21407 2.37776 0
M  V30 3195 H 311.407 -3.9201 1.61569 0
M  V30 3196 C 309.866 -3.36053 0.238798 0
M  V30 3197 O 310.396 -3.95837 -0.6838 0
M  V30 3198 N 308.602 -2.9028 0.136359 0
M  V30 3199 H 308.149 -2.41811 0.887999 0
M  V30 3200 H 308.107 -3.06116 -0.716944 0
M  V30 3201 N 311.879 -1.3236 -0.855495 0
M  V30 3202 C 313.128 -1.22226 -1.60448 0
M  V30 3203 C 313.441 0.214733 -1.94418 0
M  V30 3204 O 314.647 0.437917 -2.67945 0
M  V30 3205 C 313.103 -2.14063 -2.89318 0
M  V30 3206 C 312.711 -3.62839 -2.62777 0
M  V30 3207 C 314.455 -2.12764 -3.67331 0
M  V30 3208 C 312.362 -4.4664 -3.87643 0
M  V30 3209 H 311.292 -0.453904 -0.602069 0
M  V30 3210 H 313.943 -1.57314 -0.944698 0
M  V30 3211 H 312.325 -1.71889 -3.5675 0
M  V30 3212 H 313.499 -4.1335 -2.03662 0
M  V30 3213 H 311.814 -3.66261 -1.98096 0
M  V30 3214 H 314.411 -2.72611 -4.59987 0
M  V30 3215 H 314.754 -1.11841 -4.00995 0
M  V30 3216 H 315.287 -2.53214 -3.06802 0
M  V30 3217 H 312.026 -5.48373 -3.5912 0
M  V30 3218 H 311.546 -4.0088 -4.46156 0
M  V30 3219 H 313.225 -4.59597 -4.55389 0
M  V30 3220 N 313.357 1.07166 -1.15556 0
M  V30 3221 C 314.773 1.31899 -0.898603 0
M  V30 3222 C 314.973 1.96333 0.453383 0
M  V30 3223 O 314.029 2.22438 1.19489 0
M  V30 3224 C 315.342 2.20826 -2.04099 0
M  V30 3225 C 316.89 2.34269 -2.07574 0
M  V30 3226 C 317.365 3.26546 -3.21141 0
M  V30 3227 N 318.856 3.34127 -3.20801 0
M  V30 3228 C 319.591 4.05595 -4.05315 0
M  V30 3229 N 319.087 4.79661 -4.99897 0
M  V30 3230 N 320.88 4.01555 -3.93332 0
M  V30 3231 H 313.031 0.637302 -2.02613 0
M  V30 3232 H 315.294 0.343468 -0.883591 0
M  V30 3233 H 315 1.80744 -3.01703 0
M  V30 3234 H 314.874 3.21364 -1.97496 0
M  V30 3235 H 317.261 2.73603 -1.10568 0
M  V30 3236 H 317.342 1.33429 -2.18244 0
M  V30 3237 H 316.986 2.87931 -4.184 0
M  V30 3238 H 316.916 4.27345 -3.07708 0
M  V30 3239 H 319.407 2.81336 -2.52306 0
M  V30 3240 H 319.72 5.31694 -5.60822 0
M  V30 3241 H 318.065 4.78671 -5.03884 0
M  V30 3242 H 321.256 3.42806 -3.18751 0
M  V30 3243 H 321.429 4.56987 -4.5942 0
M  V30 3244 N 314.835 0.952656 1.25548 0
M  V30 3245 C 316.112 0.523818 1.88456 0
M  V30 3246 C 316.492 -0.998871 1.85973 0
M  V30 3247 O 315.84 -1.86381 1.3219 0
M  V30 3248 C 316.05 1.0982 3.31271 0
M  V30 3249 C 317.398 1.17385 4.08051 0
M  V30 3250 O 318.422 1.04961 3.40384 0
M  V30 3251 O 317.281 1.36852 5.29088 0
M  V30 3252 H 314.375 0.172485 0.808813 0
M  V30 3253 H 316.921 1.04596 1.33633 0
M  V30 3254 H 315.693 2.1415 3.27499 0
M  V30 3255 H 315.316 0.559191 3.93648 0
M  V30 3256 N 316.313 -1.40141 0.720998 0
M  V30 3257 C 317.562 -2.0002 0.259804 0
M  V30 3258 C 317.875 -1.57839 -1.15526 0
M  V30 3259 O 319.081 -2.10455 -1.71525 0
M  V30 3260 C 317.537 -3.57516 0.413566 0
M  V30 3261 C 317.145 -4.08667 1.83562 0
M  V30 3262 C 318.889 -4.24498 0.0134387 0
M  V30 3263 C 316.796 -5.58686 1.93968 0
M  V30 3264 H 315.726 -0.748195 0.0933806 0
M  V30 3265 H 318.377 -1.60313 0.892866 0
M  V30 3266 H 316.759 -3.9495 -0.288169 0
M  V30 3267 H 317.933 -3.82598 2.56817 0
M  V30 3268 H 316.248 -3.543 2.1877 0
M  V30 3269 H 318.845 -5.34654 0.0703954 0
M  V30 3270 H 319.188 -4.03375 -1.02927 0
M  V30 3271 H 319.721 -3.92188 0.665815 0
M  V30 3272 H 316.46 -5.8467 2.96379 0
M  V30 3273 H 315.98 -5.86602 1.25131 0
M  V30 3274 H 317.659 -6.23875 1.71431 0
M  V30 3275 N 317.792 -0.46758 -1.50504 0
M  V30 3276 C 319.069 0.15003 -1.95024 0
M  V30 3277 C 319.449 1.57304 -1.40779 0
M  V30 3278 O 318.797 2.20281 -0.607319 0
M  V30 3279 C 319.007 0.0969324 -3.48865 0
M  V30 3280 C 320.355 0.287565 -4.23625 0
M  V30 3281 O 321.379 0.173678 -3.55776 0
M  V30 3282 O 320.238 0.517186 -5.44047 0
M  V30 3283 H 317.332 0.113582 -0.819163 0
M  V30 3284 H 319.878 -0.52773 -1.61286 0
M  V30 3285 H 318.65 -0.896732 -3.80886 0
M  V30 3286 H 318.273 0.816303 -3.8913 0
M  V30 3287 N 319.27 1.56325 -0.20005 0
M  V30 3288 C 320.516 1.98012 0.438059 0
M  V30 3289 C 320.849 1.08702 1.60927 0
M  V30 3290 O 320.124 0.140064 1.93995 0
M  V30 3291 C 320.407 3.48841 0.893419 0
M  V30 3292 C 320.26 4.48928 -0.279947 0
M  V30 3293 C 321.579 4.03498 1.75719 0
M  V30 3294 H 318.698 0.719918 0.157757 0
M  V30 3295 H 321.34 1.87743 -0.291968 0
M  V30 3296 H 319.49 3.57723 1.51547 0
M  V30 3297 H 321.162 4.52079 -0.91772 0
M  V30 3298 H 319.405 4.23694 -0.930919 0
M  V30 3299 H 320.076 5.5194 0.0812601 0
M  V30 3300 H 322.552 3.97427 1.23253 0
M  V30 3301 H 321.428 5.09393 2.04476 0
M  V30 3302 H 321.689 3.4906 2.71311 0
M  V30 3303 N 320.748 -0.0735177 1.57428 0
M  V30 3304 C 321.997 -0.771809 1.86349 0
M  V30 3305 C 322.31 -1.78828 0.792452 0
M  V30 3306 O 323.516 -2.53602 0.96945 0
M  V30 3307 C 321.972 -1.42358 3.30548 0
M  V30 3308 C 321.58 -0.445761 4.45777 0
M  V30 3309 C 323.324 -2.10434 3.6867 0
M  V30 3310 C 321.231 -1.10335 5.81016 0
M  V30 3311 H 320.161 -0.291999 0.695164 0
M  V30 3312 H 322.812 -0.0250749 1.83483 0
M  V30 3313 H 321.194 -2.21852 3.28021 0
M  V30 3314 H 322.368 0.319239 4.59693 0
M  V30 3315 H 320.683 0.130457 4.16196 0
M  V30 3316 H 323.28 -2.60405 4.67004 0
M  V30 3317 H 323.623 -2.90298 2.98383 0
M  V30 3318 H 324.156 -1.37773 3.7318 0
M  V30 3319 H 320.895 -0.345061 6.54591 0
M  V30 3320 H 320.415 -1.83925 5.70904 0
M  V30 3321 H 322.094 -1.62367 6.26295 0
M  V30 3322 N 322.226 -1.5378 -0.344866 0
M  V30 3323 C 323.159 -1.7649 -1.4466 0
M  V30 3324 C 324.137 -0.613954 -1.50563 0
M  V30 3325 O 325.321 -0.84896 -1.683 0
M  V30 3326 C 322.448 -1.86235 -2.82903 0
M  V30 3327 C 321.494 -3.08375 -2.94631 0
M  V30 3328 S 322.327 -4.67457 -2.61236 0
M  V30 3329 C 323.483 -4.80079 -4.0159 0
M  V30 3330 H 323.716 -2.69661 -1.2518 0
M  V30 3331 H 321.249 -1.44632 -0.540455 0
M  V30 3332 H 323.207 -1.92535 -3.62547 0
M  V30 3333 H 321.868 -0.940786 -2.9968 0
M  V30 3334 H 321.061 -3.11865 -3.95925 0
M  V30 3335 H 320.663 -3.00294 -2.22934 0
M  V30 3336 H 322.955 -4.61407 -4.96094 0
M  V30 3337 H 323.898 -5.82168 -4.03095 0
M  V30 3338 H 324.306 -4.08544 -3.89554 0
M  V30 3339 N 323.704 0.605807 -1.45491 0
M  V30 3340 C 324.952 1.36207 -1.49305 0
M  V30 3341 C 325.273 1.94519 -0.136863 0
M  V30 3342 O 324.543 1.77261 0.833983 0
M  V30 3343 H 323.123 0.50565 -0.549843 0
M  V30 3344 H 325.785 0.711239 -1.81459 0
M  V30 3345 H 324.881 2.18058 -2.23287 0
M  V30 3346 N 325.182 1.32811 0.848464 0
M  V30 3347 C 326.43 1.23479 1.59991 0
M  V30 3348 C 326.751 -0.201853 1.93952 0
M  V30 3349 O 326.021 -1.12818 1.60153 0
M  V30 3350 H 324.601 0.454034 0.593179 0
M  V30 3351 H 327.263 1.66412 1.01455 0
M  V30 3352 H 326.359 1.82178 2.53412 0
M  V30 3353 N 326.66 -1.06551 1.16123 0
M  V30 3354 C 327.908 -1.78947 0.939267 0
M  V30 3355 C 328.229 -1.87532 -0.534476 0
M  V30 3356 O 327.499 -1.38211 -1.38833 0
M  V30 3357 H 326.079 -0.662807 0.344523 0
M  V30 3358 H 328.741 -1.28725 1.46342 0
M  V30 3359 H 327.837 -2.81117 1.35572 0
M  V30 3360 N 328.138 -0.959301 -1.25041 0
M  V30 3361 C 329.554 -0.664474 -1.4511 0
M  V30 3362 C 329.754 0.776481 -1.85938 0
M  V30 3363 O 328.81 1.55128 -1.99227 0
M  V30 3364 C 330.123 -1.64139 -2.5195 0
M  V30 3365 C 331.671 -1.65309 -2.65786 0
M  V30 3366 C 332.146 -2.61777 -3.75815 0
M  V30 3367 N 333.637 -2.60169 -3.83231 0
M  V30 3368 C 334.372 -3.31489 -4.6787 0
M  V30 3369 N 333.868 -4.12298 -5.56761 0
M  V30 3370 N 335.661 -3.20354 -4.61876 0
M  V30 3371 H 327.812 -1.89043 -0.968332 0
M  V30 3372 H 330.075 -0.813408 -0.4869 0
M  V30 3373 H 329.781 -2.67086 -2.28819 0
M  V30 3374 H 329.655 -1.40756 -3.49954 0
M  V30 3375 H 332.042 -0.630778 -2.8828 0
M  V30 3376 H 332.123 -1.92753 -1.68167 0
M  V30 3377 H 331.767 -3.64137 -3.54071 0
M  V30 3378 H 331.697 -2.31616 -4.72929 0
M  V30 3379 H 334.188 -2.01507 -3.19692 0
M  V30 3380 H 334.501 -4.63625 -6.18281 0
M  V30 3381 H 332.846 -4.16395 -5.56454 0
M  V30 3382 H 336.037 -2.56692 -3.91442 0
M  V30 3383 H 336.21 -3.76201 -5.27614 0
M  V30 3384 N 329.616 1.39756 -0.72842 0
M  V30 3385 C 330.563 2.30647 -0.0841519 0
M  V30 3386 C 331.533 1.48869 0.7367 0
M  V30 3387 O 332.718 1.77574 0.698015 0
M  V30 3388 C 329.858 3.35165 0.822091 0
M  V30 3389 C 328.971 4.31999 -0.0106663 0
M  V30 3390 C 328.106 5.23585 0.896241 0
M  V30 3391 C 327.145 6.12072 0.0583381 0
M  V30 3392 N 326.282 6.96035 0.920818 0
M  V30 3393 H 331.122 2.85173 -0.864891 0
M  V30 3394 H 328.659 1.40422 -0.438179 0
M  V30 3395 H 330.617 3.94345 1.36189 0
M  V30 3396 H 329.247 2.8211 1.56888 0
M  V30 3397 H 328.299 3.74492 -0.66781 0
M  V30 3398 H 329.611 4.9443 -0.658825 0
M  V30 3399 H 328.765 5.87759 1.50412 0
M  V30 3400 H 327.504 4.61459 1.57819 0
M  V30 3401 H 326.509 5.46916 -0.562389 0
M  V30 3402 H 327.734 6.76261 -0.6203 0
M  V30 3403 H 325.68 6.36485 1.58818 0
M  V30 3404 H 325.597 7.55284 0.32899 0
M  V30 3405 H 326.865 7.64646 1.51447 0
M  V30 3406 N 331.094 0.475555 1.50254 0
M  V30 3407 C 332.324 -0.0753399 2.06463 0
M  V30 3408 C 332.732 -1.33661 1.33908 0
M  V30 3409 O 332.075 -1.79219 0.403257 0
M  V30 3410 C 332.137 -0.424921 3.5698 0
M  V30 3411 C 331.801 0.734965 4.51051 0
M  V30 3412 C 332.798 1.61827 4.94073 0
M  V30 3413 C 330.483 0.926557 4.9368 0
M  V30 3414 C 332.477 2.67754 5.78434 0
M  V30 3415 C 330.164 1.98904 5.77824 0
M  V30 3416 C 331.162 2.8629 6.20103 0
M  V30 3417 O 330.85 3.90708 7.02568 0
M  V30 3418 H 330.582 0.00576308 0.675975 0
M  V30 3419 H 333.136 0.664662 1.94349 0
M  V30 3420 H 331.366 -1.21817 3.67012 0
M  V30 3421 H 333.055 -0.911422 3.95535 0
M  V30 3422 H 333.821 1.48196 4.61804 0
M  V30 3423 H 329.7 0.25584 4.6029 0
M  V30 3424 H 333.244 3.35992 6.11355 0
M  V30 3425 H 329.141 2.12541 6.09505 0
M  V30 3426 H 329.909 3.87751 7.20827 0
M  V30 3427 N 332.573 -1.56217 0.208337 0
M  V30 3428 C 333.506 -2.15633 -0.746842 0
M  V30 3429 C 334.484 -1.09685 -1.20034 0
M  V30 3430 O 335.668 -1.3787 -1.28547 0
M  V30 3431 C 332.795 -2.72594 -2.01023 0
M  V30 3432 C 331.841 -3.91251 -1.69779 0
M  V30 3433 S 332.674 -5.28962 -0.834209 0
M  V30 3434 C 333.83 -5.89353 -2.10745 0
M  V30 3435 H 334.063 -2.96315 -0.241789 0
M  V30 3436 H 331.596 -1.54398 -0.00682183 0
M  V30 3437 H 333.554 -3.06053 -2.73572 0
M  V30 3438 H 332.215 -1.91929 -2.48641 0
M  V30 3439 H 331.408 -4.29562 -2.63614 0
M  V30 3440 H 331.01 -3.58869 -1.05303 0
M  V30 3441 H 333.302 -6.04522 -3.05875 0
M  V30 3442 H 334.245 -6.85661 -1.76845 0
M  V30 3443 H 334.653 -5.1807 -2.24196 0
M  V30 3444 N 334.051 0.0651679 -1.57465 0
M  V30 3445 C 335.281 0.774683 -1.91526 0
M  V30 3446 C 335.689 1.71305 -0.803196 0
M  V30 3447 O 335.032 1.82231 0.231881 0
M  V30 3448 C 335.094 1.61645 -3.21109 0
M  V30 3449 C 334.758 0.846753 -4.49087 0
M  V30 3450 C 335.755 0.163024 -5.19644 0
M  V30 3451 C 333.44 0.811966 -4.95694 0
M  V30 3452 C 335.434 -0.54519 -6.35064 0
M  V30 3453 C 333.121 0.0999836 -6.11018 0
M  V30 3454 C 334.119 -0.577388 -6.80555 0
M  V30 3455 O 333.807 -1.27789 -7.93678 0
M  V30 3456 H 333.539 0.225031 -0.637446 0
M  V30 3457 H 336.093 0.0377134 -2.05365 0
M  V30 3458 H 334.323 2.39638 -3.03497 0
M  V30 3459 H 336.012 2.20525 -3.40769 0
M  V30 3460 H 336.778 0.181163 -4.84662 0
M  V30 3461 H 332.657 1.32867 -4.41438 0
M  V30 3462 H 336.201 -1.07446 -6.89276 0
M  V30 3463 H 332.098 0.0797945 -6.45451 0
M  V30 3464 H 332.866 -1.18784 -8.09835 0
M  V30 3465 N 335.529 1.53961 0.336706 0
M  V30 3466 C 336.94 1.62914 0.911925 0
M  V30 3467 C 337.291 0.514795 1.89326 0
M  V30 3468 O 336.416 -0.354395 2.13478 0
M  V30 3469 C 337.011 2.95304 1.66076 0
M  V30 3470 C 335.57 3.06496 2.18489 0
M  V30 3471 C 334.717 2.58403 1.00613 0
M  V30 3472 H 337.668 1.58285 0.114649 0
M  V30 3473 H 337.689 2.84727 2.5241 0
M  V30 3474 H 337.201 3.76387 0.946276 0
M  V30 3475 H 335.302 2.3006 2.93092 0
M  V30 3476 H 335.415 4.1208 2.44391 0
M  V30 3477 H 333.779 2.13977 1.38152 0
M  V30 3478 H 334.562 3.41932 0.306179 0
M  V30 3479 N 337.007 -0.598083 1.45811 0
M  V30 3480 C 337.954 -1.7082 1.55207 0
M  V30 3481 C 338.924 -1.61278 0.39732 0
M  V30 3482 O 340.109 -1.80717 0.612038 0
M  V30 3483 C 337.249 -3.09144 1.53376 0
M  V30 3484 C 336.362 -3.29423 2.79472 0
M  V30 3485 C 335.497 -4.57907 2.69248 0
M  V30 3486 C 334.536 -4.71476 3.90354 0
M  V30 3487 N 333.673 -5.9127 3.78608 0
M  V30 3488 H 338.513 -1.62125 2.50039 0
M  V30 3489 H 336.05 -0.790389 1.24062 0
M  V30 3490 H 338.008 -3.89186 1.50301 0
M  V30 3491 H 336.638 -3.16773 0.620876 0
M  V30 3492 H 335.69 -2.43091 2.92594 0
M  V30 3493 H 337.002 -3.3532 3.69272 0
M  V30 3494 H 336.156 -5.46157 2.64192 0
M  V30 3495 H 334.895 -4.54423 1.77063 0
M  V30 3496 H 333.9 -3.81648 3.95759 0
M  V30 3497 H 335.125 -4.76751 4.83617 0
M  V30 3498 H 333.071 -5.88813 2.89199 0
M  V30 3499 H 332.988 -5.98369 4.6205 0
M  V30 3500 H 334.256 -6.81992 3.77501 0
M  V30 3501 N 338.485 -1.33259 -0.841409 0
M  V30 3502 C 339.433 -1.23279 -1.97244 0
M  V30 3503 C 340.427 -0.134706 -1.68864 0
M  V30 3504 O 341.633 -0.298501 -1.77508 0
M  V30 3505 H 338.008 -0.382497 -0.647457 0
M  V30 3506 H 339.979 -2.18906 -2.02787 0
M  V30 3507 C 338.728 -0.986268 -3.33419 0
M  V30 3508 H 338.051 -1.82347 -3.55794 0
M  V30 3509 H 339.491 -0.956728 -4.13065 0
M  V30 3510 C 337.95 0.310842 -3.35463 0
M  V30 3511 O 338.48 1.31838 -3.79449 0
M  V30 3512 N 336.686 0.337485 -2.88634 0
M  V30 3513 H 336.233 -0.482967 -2.53032 0
M  V30 3514 H 336.191 1.20518 -2.90384 0
M  V30 3515 N 339.963 1.05934 -1.16686 0
M  V30 3516 C 340.91 2.13499 -0.876748 0
M  V30 3517 C 341.88 1.65162 0.176299 0
M  V30 3518 O 343.065 1.90757 0.0407143 0
M  V30 3519 C 340.205 3.42912 -0.387967 0
M  V30 3520 C 339.318 4.04964 -1.50426 0
M  V30 3521 C 338.453 5.22266 -0.970125 0
M  V30 3522 C 337.492 5.76309 -2.06238 0
M  V30 3523 N 336.629 6.84922 -1.54356 0
M  V30 3524 H 341.469 2.37654 -1.7979 0
M  V30 3525 H 339.006 1.16598 -0.896843 0
M  V30 3526 H 340.964 4.17111 -0.086186 0
M  V30 3527 H 339.594 3.18963 0.496235 0
M  V30 3528 H 338.646 3.28277 -1.92193 0
M  V30 3529 H 339.958 4.41122 -2.32836 0
M  V30 3530 H 339.112 6.03506 -0.621743 0
M  V30 3531 H 337.851 4.87564 -0.115377 0
M  V30 3532 H 336.856 4.93704 -2.41942 0
M  V30 3533 H 338.081 6.13062 -2.92115 0
M  V30 3534 H 336.027 6.52131 -0.711406 0
M  V30 3535 H 335.944 7.20043 -2.30379 0
M  V30 3536 H 337.212 7.69832 -1.22387 0
M  V30 3537 N 341.441 0.965919 1.2453 0
M  V30 3538 C 342.669 0.644385 1.96609 0
M  V30 3539 C 343.084 -0.785823 1.71669 0
M  V30 3540 O 342.441 -1.52703 0.999399 0
M  V30 3541 C 342.492 0.907375 3.49927 0
M  V30 3542 O 342.213 2.28136 3.74013 0
M  V30 3543 C 343.714 0.599784 4.39224 0
M  V30 3544 H 340.934 0.240588 0.626385 0
M  V30 3545 H 343.478 1.29337 1.58405 0
M  V30 3546 H 341.633 0.304631 3.862 0
M  V30 3547 H 342.047 2.36002 4.68405 0
M  V30 3548 H 343.521 0.834263 5.45659 0
M  V30 3549 H 343.998 -0.465921 4.36722 0
M  V30 3550 H 344.604 1.18235 4.08535 0
M  V30 3551 N 342.919 -1.39368 0.735821 0
M  V30 3552 C 344.196 -1.94465 0.210395 0
M  V30 3553 C 344.576 -1.67254 -1.28799 0
M  V30 3554 O 343.924 -1.00123 -2.05396 0
M  V30 3555 C 344.134 -3.4472 0.544897 0
M  V30 3556 C 345.482 -4.21708 0.494689 0
M  V30 3557 O 346.506 -3.52922 0.482136 0
M  V30 3558 O 345.365 -5.44299 0.489947 0
M  V30 3559 H 342.459 -0.826096 0.0386666 0
M  V30 3560 H 345.005 -1.48863 0.814735 0
M  V30 3561 H 343.777 -3.57963 1.58045 0
M  V30 3562 H 343.4 -3.97502 -0.08837 0
M  V30 3563 N 344.397 -0.483516 -1.5 0
M  V30 3564 C 345.643 0.0672592 -2.02688 0
M  V30 3565 C 345.976 1.38247 -1.36387 0
M  V30 3566 O 345.251 1.88131 -0.493675 0
M  V30 3567 C 345.534 0.238109 -3.59312 0
M  V30 3568 C 345.387 -1.099 -4.36168 0
M  V30 3569 C 346.706 0.986916 -4.28892 0
M  V30 3570 H 343.825 0.0229696 -0.736642 0
M  V30 3571 H 346.467 -0.631527 -1.79197 0
M  V30 3572 H 344.617 0.8333 -3.79458 0
M  V30 3573 H 346.289 -1.73172 -4.27562 0
M  V30 3574 H 344.532 -1.69261 -3.99416 0
M  V30 3575 H 345.203 -0.932954 -5.44059 0
M  V30 3576 H 347.679 0.482302 -4.13295 0
M  V30 3577 H 346.555 1.07527 -5.38265 0
M  V30 3578 H 346.816 2.0265 -3.92919 0
M  V30 3579 N 345.875 1.56104 -0.216619 0
M  V30 3580 C 346.785 2.23694 0.706982 0
M  V30 3581 C 347.801 1.24295 1.21765 0
M  V30 3582 O 348.977 1.57094 1.2603 0
M  V30 3583 C 346.042 2.8998 1.90033 0
M  V30 3584 C 345.103 4.04708 1.43213 0
M  V30 3585 C 344.336 4.67824 2.56859 0
M  V30 3586 O 344.559 4.29913 3.74874 0
M  V30 3587 O 343.493 5.56905 2.28343 0
M  V30 3588 H 347.319 3.03272 0.161235 0
M  V30 3589 H 344.904 1.49394 0.0136177 0
M  V30 3590 H 346.786 3.31837 2.59735 0
M  V30 3591 H 345.461 2.13365 2.43428 0
M  V30 3592 H 344.368 3.6743 0.70327 0
M  V30 3593 H 345.701 4.83051 0.944615 0
M  V30 3594 N 347.353 -0.0568162 1.57498 0
M  V30 3595 C 348.583 -0.764515 1.91934 0
M  V30 3596 C 348.991 -1.70877 0.81227 0
M  V30 3597 O 348.334 -1.82351 -0.222213 0
M  V30 3598 C 348.396 -1.5994 3.21962 0
M  V30 3599 C 348.06 -0.822925 4.4953 0
M  V30 3600 C 349.057 -0.135464 5.19723 0
M  V30 3601 C 346.742 -0.785666 4.96117 0
M  V30 3602 C 348.736 0.578861 6.34766 0
M  V30 3603 C 346.423 -0.0675784 6.11063 0
M  V30 3604 C 347.421 0.613471 6.80239 0
M  V30 3605 O 347.109 1.31996 7.92989 0
M  V30 3606 H 346.841 -0.221647 0.63863 0
M  V30 3607 H 349.395 -0.0268218 2.05382 0
M  V30 3608 H 347.625 -2.38026 3.04763 0
M  V30 3609 H 349.314 -2.18715 3.41934 0
M  V30 3610 H 350.08 -0.155458 4.84751 0
M  V30 3611 H 345.959 -1.30524 4.42136 0
M  V30 3612 H 349.503 1.111 6.88696 0
M  V30 3613 H 345.4 -0.0455636 6.45484 0
M  V30 3614 H 346.168 1.23077 8.09194 0
M  V30 3615 N 348.832 -1.54138 -0.328536 0
M  V30 3616 C 349.742 -1.86192 -1.42723 0
M  V30 3617 C 350.758 -0.753382 -1.56844 0
M  V30 3618 O 351.934 -1.04718 -1.72035 0
M  V30 3619 C 348.999 -2.07824 -2.77507 0
M  V30 3620 C 348.06 -3.31641 -2.72603 0
M  V30 3621 C 347.293 -3.52232 -4.00959 0
M  V30 3622 O 347.516 -2.7636 -4.9898 0
M  V30 3623 O 346.45 -4.45699 -4.0452 0
M  V30 3624 H 350.276 -2.79608 -1.18547 0
M  V30 3625 H 347.861 -1.3998 -0.522104 0
M  V30 3626 H 349.743 -2.23411 -3.57303 0
M  V30 3627 H 348.418 -1.17596 -3.01584 0
M  V30 3628 H 347.325 -3.21444 -1.91376 0
M  V30 3629 H 348.658 -4.2191 -2.53481 0
M  V30 3630 N 350.31 0.590341 -1.46126 0
M  V30 3631 C 351.535 1.37991 -1.54833 0
M  V30 3632 C 351.96 1.87163 -0.187506 0
M  V30 3633 O 351.318 1.61133 0.831008 0
M  V30 3634 C 351.366 2.54867 -2.55098 0
M  V30 3635 O 350.47 3.56061 -2.08073 0
M  V30 3636 H 349.811 0.411265 -0.521303 0
M  V30 3637 H 352.341 0.716819 -1.91632 0
M  V30 3638 H 352.351 3.01886 -2.74461 0
M  V30 3639 H 351.026 2.18429 -3.53923 0
M  V30 3640 H 349.603 3.15574 -1.98664 0
M  V30 3641 N 351.788 1.33704 0.83433 0
M  V30 3642 C 353.065 1.16011 1.57483 0
M  V30 3643 C 353.445 -0.27176 2.09343 0
M  V30 3644 O 352.793 -1.27146 1.89858 0
M  V30 3645 C 353.003 2.20507 2.70514 0
M  V30 3646 C 354.351 2.54898 3.39577 0
M  V30 3647 O 355.375 2.19209 2.80759 0
M  V30 3648 O 354.234 3.16158 4.45765 0
M  V30 3649 H 351.328 0.448992 0.694503 0
M  V30 3650 H 353.874 1.453 0.876691 0
M  V30 3651 H 352.646 3.16667 2.29865 0
M  V30 3652 H 352.269 1.92329 3.47987 0
M  V30 3653 N 353.266 -1.05314 1.17247 0
M  V30 3654 C 354.176 -2.16538 0.90268 0
M  V30 3655 C 355.192 -1.73523 -0.128707 0
M  V30 3656 O 356.368 -2.01337 0.0502701 0
M  V30 3657 C 353.433 -3.44167 0.418356 0
M  V30 3658 C 352.494 -4.01635 1.51618 0
M  V30 3659 C 351.727 -5.23171 1.05487 0
M  V30 3660 O 351.95 -5.70327 -0.0914715 0
M  V30 3661 O 350.884 -5.72848 1.8474 0
M  V30 3662 H 354.71 -2.42145 1.83302 0
M  V30 3663 H 352.295 -1.15037 0.953246 0
M  V30 3664 H 354.177 -4.21112 0.155726 0
M  V30 3665 H 352.852 -3.20063 -0.48385 0
M  V30 3666 H 351.759 -3.26135 1.83268 0
M  V30 3667 H 353.092 -4.30053 2.39405 0
M  V30 3668 N 354.744 -0.972509 -1.24016 0
M  V30 3669 C 355.691 -0.505969 -2.25186 0
M  V30 3670 C 356.661 0.451009 -1.5986 0
M  V30 3671 O 357.846 0.360307 -1.87367 0
M  V30 3672 C 354.986 0.193089 -3.44559 0
M  V30 3673 C 354.099 -0.803222 -4.24467 0
M  V30 3674 C 353.234 -0.0797793 -5.3114 0
M  V30 3675 C 352.273 -1.06583 -6.02749 0
M  V30 3676 N 351.41 -0.372074 -7.01113 0
M  V30 3677 H 356.25 -1.37351 -2.64459 0
M  V30 3678 H 353.787 -0.688419 -1.29997 0
M  V30 3679 H 355.745 0.615125 -4.1264 0
M  V30 3680 H 354.375 1.02455 -3.06109 0
M  V30 3681 H 353.427 -1.34368 -3.55878 0
M  V30 3682 H 354.739 -1.55494 -4.73944 0
M  V30 3683 H 353.893 0.400015 -6.0538 0
M  V30 3684 H 352.632 0.704597 -4.82583 0
M  V30 3685 H 351.637 -1.55645 -5.27309 0
M  V30 3686 H 352.862 -1.85074 -6.53395 0
M  V30 3687 H 350.808 0.393238 -6.5482 0
M  V30 3688 H 350.725 -1.06258 -7.48495 0
M  V30 3689 H 351.993 0.0855932 -7.79453 0
M  V30 3690 N 356.222 1.38976 -0.743202 0
M  V30 3691 C 357.185 2.28901 -0.117014 0
M  V30 3692 C 358.185 1.46698 0.658503 0
M  V30 3693 O 359.375 1.67274 0.486305 0
M  V30 3694 C 356.507 3.30309 0.84315 0
M  V30 3695 H 357.7 2.8578 -0.909373 0
M  V30 3696 H 355.253 1.47761 -0.509547 0
M  V30 3697 H 355.988 2.785 1.66157 0
M  V30 3698 H 355.773 3.91029 0.289594 0
M  V30 3699 H 357.263 3.97577 1.2776 0
M  V30 3700 N 357.7 0.491464 1.49741 0
M  V30 3701 C 359.116 0.146835 1.58923 0
M  V30 3702 C 359.316 -1.34804 1.49767 0
M  V30 3703 O 358.372 -2.12317 1.36667 0
M  V30 3704 C 359.685 0.715157 2.92072 0
M  V30 3705 C 361.233 0.680407 3.05515 0
M  V30 3706 C 361.708 1.22663 4.41269 0
M  V30 3707 N 363.199 1.18691 4.47735 0
M  V30 3708 C 363.934 1.57984 5.51207 0
M  V30 3709 N 363.43 2.04824 6.6183 0
M  V30 3710 N 365.223 1.49459 5.41866 0
M  V30 3711 H 357.374 1.46347 1.53936 0
M  V30 3712 H 359.637 0.606453 0.728642 0
M  V30 3713 H 359.343 1.76317 3.04311 0
M  V30 3714 H 359.217 0.17018 3.76816 0
M  V30 3715 H 361.604 -0.358743 2.92911 0
M  V30 3716 H 361.685 1.26242 2.22478 0
M  V30 3717 H 361.329 2.26451 4.54623 0
M  V30 3718 H 361.259 0.620637 5.2293 0
M  V30 3719 H 363.75 0.843605 3.68364 0
M  V30 3720 H 364.063 2.32901 7.3687 0
M  V30 3721 H 362.408 2.08791 6.62896 0
M  V30 3722 H 365.599 1.12692 4.54333 0
M  V30 3723 H 365.772 1.80406 6.22381 0
M  V30 3724 N 359.178 -1.55987 0.224894 0
M  V30 3725 C 360.426 -1.97998 -0.405099 0
M  V30 3726 C 360.747 -1.11387 -1.60056 0
M  V30 3727 O 360.017 -0.191645 -1.9496 0
M  V30 3728 H 358.597 -0.731235 -0.152658 0
M  V30 3729 H 361.259 -1.92279 0.318567 0
M  V30 3730 H 360.355 -3.03463 -0.729167 0
M  V30 3731 N 360.656 0.0484629 -1.57525 0
M  V30 3732 C 361.884 0.755421 -1.92616 0
M  V30 3733 C 362.299 1.69919 -0.822984 0
M  V30 3734 O 361.656 1.81378 0.202085 0
M  V30 3735 C 361.707 1.52915 -3.27566 0
M  V30 3736 O 361.428 0.62329 -4.33644 0
M  V30 3737 C 362.929 2.33502 -3.76818 0
M  V30 3738 H 360.149 0.213465 -0.63614 0
M  V30 3739 H 362.693 0.0117698 -2.04497 0
M  V30 3740 H 360.848 2.22486 -3.17142 0
M  V30 3741 H 361.262 1.16383 -5.11425 0
M  V30 3742 H 362.736 2.83214 -4.73808 0
M  V30 3743 H 363.213 3.14068 -3.07014 0
M  V30 3744 H 363.819 1.69043 -3.90262 0
M  V30 3745 N 362.134 1.5431 0.320358 0
M  V30 3746 C 363.55 1.45091 0.664889 0
M  V30 3747 C 363.75 0.626382 1.91517 0
M  V30 3748 O 362.806 0.126443 2.52183 0
M  V30 3749 C 364.119 2.88848 0.83591 0
M  V30 3750 C 365.667 2.9877 0.933046 0
M  V30 3751 C 366.142 4.43683 1.13621 0
M  V30 3752 N 367.633 4.47309 1.20287 0
M  V30 3753 C 368.368 5.56595 1.37801 0
M  V30 3754 N 367.864 6.75844 1.52338 0
M  V30 3755 N 369.657 5.44248 1.40535 0
M  V30 3756 H 361.808 2.06398 -0.501374 0
M  V30 3757 H 364.071 0.933963 -0.162534 0
M  V30 3758 H 363.777 3.51698 -0.0116092 0
M  V30 3759 H 363.651 3.35148 1.73078 0
M  V30 3760 H 366.038 2.36045 1.77107 0
M  V30 3761 H 366.119 2.55796 0.0145782 0
M  V30 3762 H 365.763 5.06995 0.303032 0
M  V30 3763 H 365.693 4.84269 2.0686 0
M  V30 3764 H 368.184 3.61388 1.10485 0
M  V30 3765 H 368.497 7.54892 1.65403 0
M  V30 3766 H 366.842 6.78746 1.4943 0
M  V30 3767 H 370.033 4.50038 1.28777 0
M  V30 3768 H 370.206 6.29473 1.53842 0
M  V30 3769 N 363.613 -0.582584 1.46437 0
M  V30 3770 C 364.543 -1.70187 1.59871 0
M  V30 3771 C 365.524 -1.64066 0.449042 0
M  V30 3772 O 366.709 -1.82081 0.6753 0
M  V30 3773 C 363.839 -3.08827 1.58881 0
M  V30 3774 C 362.793 -3.29779 2.72819 0
M  V30 3775 C 362.119 -4.68947 2.5689 0
M  V30 3776 C 363.419 -3.17601 4.1464 0
M  V30 3777 H 365.113 -1.592 2.53566 0
M  V30 3778 H 362.659 -0.764472 1.22032 0
M  V30 3779 H 364.612 -3.86951 1.66873 0
M  V30 3780 H 363.336 -3.20713 0.617306 0
M  V30 3781 H 361.995 -2.54054 2.64296 0
M  V30 3782 H 361.643 -4.77599 1.57823 0
M  V30 3783 H 361.343 -4.83919 3.33312 0
M  V30 3784 H 362.867 -5.4924 2.66773 0
M  V30 3785 H 364.281 -3.8557 4.24274 0
M  V30 3786 H 362.678 -3.44094 4.9165 0
M  V30 3787 H 363.748 -2.14681 4.34788 0
M  V30 3788 N 365.091 -1.34144 -0.827227 0
M  V30 3789 C 366.368 -1.16844 -1.56865 0
M  V30 3790 C 366.748 0.260654 -2.09485 0
M  V30 3791 O 366.096 1.26138 -1.9053 0
M  V30 3792 C 366.306 -2.21939 -2.6934 0
M  V30 3793 C 367.654 -2.56695 -3.3822 0
M  V30 3794 O 368.678 -2.20695 -2.79593 0
M  V30 3795 O 367.537 -3.18518 -4.44082 0
M  V30 3796 H 364.631 -0.452669 -0.692112 0
M  V30 3797 H 367.177 -1.45763 -0.868973 0
M  V30 3798 H 365.949 -3.17882 -2.28182 0
M  V30 3799 H 365.572 -1.94172 -3.46962 0
M  V30 3800 N 366.569 1.04691 -1.17803 0
M  V30 3801 C 367.817 1.7743 -0.967617 0
M  V30 3802 C 368.138 1.88359 0.504574 0
M  V30 3803 O 367.408 1.40402 1.36617 0
M  V30 3804 H 365.988 0.657242 -0.355024 0
M  V30 3805 H 368.65 1.2638 -1.48371 0
M  V30 3806 H 367.746 2.78924 -1.40027 0
M  V30 3807 N 368.047 0.979072 1.23499 0
M  V30 3808 C 368.977 0.537606 2.27227 0
M  V30 3809 C 369.958 -0.428539 1.64613 0
M  V30 3810 O 371.143 -0.322191 1.91509 0
M  V30 3811 C 368.273 -0.162052 3.46922 0
M  V30 3812 C 367.227 0.721242 4.21879 0
M  V30 3813 C 366.553 -0.110555 5.34586 0
M  V30 3814 C 367.853 2.01141 4.82016 0
M  V30 3815 H 369.547 1.40462 2.64406 0
M  V30 3816 H 367.093 0.67684 1.27102 0
M  V30 3817 H 369.046 -0.482192 4.18632 0
M  V30 3818 H 367.77 -1.06351 3.08799 0
M  V30 3819 H 366.429 1.02482 3.51984 0
M  V30 3820 H 366.077 -1.0125 4.92704 0
M  V30 3821 H 365.777 0.477325 5.85658 0
M  V30 3822 H 367.301 -0.425107 6.09118 0
M  V30 3823 H 368.715 1.75612 5.45741 0
M  V30 3824 H 367.112 2.54695 5.43369 0
M  V30 3825 H 368.182 2.69909 4.02836 0
M  V30 3826 N 369.525 -1.3858 0.750561 0
M  V30 3827 C 370.802 -1.94231 0.231009 0
M  V30 3828 C 371.182 -1.68611 -1.27018 0
M  V30 3829 O 370.53 -1.02296 -2.04323 0
M  V30 3830 C 370.74 -3.44123 0.581428 0
M  V30 3831 C 372.088 -4.2116 0.539389 0
M  V30 3832 O 373.112 -3.52391 0.519541 0
M  V30 3833 O 371.971 -5.43749 0.54765 0
M  V30 3834 H 369.065 -0.825639 0.0474263 0
M  V30 3835 H 371.611 -1.4799 0.830478 0
M  V30 3836 H 370.383 -3.56267 1.61833 0
M  V30 3837 H 370.006 -3.97573 -0.0462047 0
M  V30 3838 N 371.003 -0.499398 -1.49478 0
M  V30 3839 C 371.933 0.269244 -2.31943 0
M  V30 3840 C 372.914 0.964054 -1.40143 0
M  V30 3841 O 374.099 0.955767 -1.69052 0
M  V30 3842 C 371.229 1.33504 -3.20615 0
M  V30 3843 C 370.183 0.760202 -4.21195 0
M  V30 3844 C 369.509 1.9264 -4.98792 0
M  V30 3845 C 370.809 -0.247661 -5.21712 0
M  V30 3846 H 372.503 -0.419082 -2.96452 0
M  V30 3847 H 370.049 -0.202988 -1.42562 0
M  V30 3848 H 372.002 1.88048 -3.77115 0
M  V30 3849 H 370.726 2.05253 -2.54045 0
M  V30 3850 H 369.385 0.23653 -3.65836 0
M  V30 3851 H 369.033 2.63154 -4.28671 0
M  V30 3852 H 368.733 1.54785 -5.66847 0
M  V30 3853 H 370.257 2.4762 -5.58137 0
M  V30 3854 H 371.671 0.209579 -5.72917 0
M  V30 3855 H 370.068 -0.541962 -5.97648 0
M  V30 3856 H 371.138 -1.16409 -4.7072 0
M  V30 3857 N 372.481 1.55866 -0.233164 0
M  V30 3858 C 373.727 1.98897 0.395959 0
M  V30 3859 C 374.06 1.12091 1.58585 0
M  V30 3860 O 373.335 0.181182 1.93654 0
M  V30 3861 C 373.618 3.50658 0.819224 0
M  V30 3862 C 373.471 4.48233 -0.375109 0
M  V30 3863 C 374.79 4.07135 1.67121 0
M  V30 3864 H 371.909 0.723102 0.142451 0
M  V30 3865 H 374.551 1.87082 -0.331725 0
M  V30 3866 H 372.701 3.60857 1.43925 0
M  V30 3867 H 374.373 4.50031 -1.01341 0
M  V30 3868 H 372.616 4.21624 -1.02058 0
M  V30 3869 H 373.287 5.51988 -0.0358328 0
M  V30 3870 H 375.763 3.99952 1.14795 0
M  V30 3871 H 374.639 5.13615 1.93625 0
M  V30 3872 H 374.9 3.54736 2.63846 0
M  V30 3873 N 373.959 -0.0401083 1.57549 0
M  V30 3874 C 375.236 -0.767917 1.79896 0
M  V30 3875 C 375.616 -1.9416 0.82856 0
M  V30 3876 O 374.964 -2.2812 -0.131671 0
M  V30 3877 C 375.174 -1.2113 3.27305 0
M  V30 3878 C 376.522 -1.63175 3.91994 0
M  V30 3879 O 377.546 -1.30616 3.31388 0
M  V30 3880 O 376.405 -2.23565 4.98679 0
M  V30 3881 H 373.499 -0.370441 0.739393 0
M  V30 3882 H 376.045 -0.017737 1.69691 0
M  V30 3883 H 374.817 -0.372937 3.89519 0
M  V30 3884 H 374.44 -2.02183 3.42356 0
M  V30 3885 N 375.437 -1.54477 -0.31217 0
M  V30 3886 C 376.665 -1.77205 -1.068 0
M  V30 3887 C 377.08 -0.526114 -1.81321 0
M  V30 3888 O 376.437 0.503647 -1.75413 0
M  V30 3889 C 376.488 -2.97253 -2.05725 0
M  V30 3890 O 376.209 -4.1703 -1.34228 0
M  V30 3891 C 377.71 -3.32281 -2.93435 0
M  V30 3892 H 374.93 -0.591287 -0.317208 0
M  V30 3893 H 377.474 -2.01398 -0.354834 0
M  V30 3894 H 375.629 -2.753 -2.72559 0
M  V30 3895 H 376.043 -4.84636 -2.00571 0
M  V30 3896 H 377.517 -4.19551 -3.58721 0
M  V30 3897 H 377.994 -2.49945 -3.61143 0
M  V30 3898 H 378.6 -3.56353 -2.32147 0
M  V30 3899 N 376.915 0.57481 -1.46744 0
M  V30 3900 C 378.161 1.33251 -1.53674 0
M  V30 3901 C 378.516 1.91468 -0.189125 0
M  V30 3902 O 377.809 1.73954 0.803151 0
M  V30 3903 C 378.003 2.476 -2.57738 0
M  V30 3904 C 377.832 2.00586 -4.02487 0
M  V30 3905 C 376.602 1.85237 -4.70123 0
M  V30 3906 C 378.8 1.56078 -4.90045 0
M  V30 3907 N 376.782 1.32377 -5.99458 0
M  V30 3908 C 378.153 1.14863 -6.09267 0
M  V30 3909 C 380.208 1.43968 -4.76632 0
M  V30 3910 C 378.911 0.627435 -7.16558 0
M  V30 3911 C 380.937 0.932512 -5.84002 0
M  V30 3912 C 380.299 0.53019 -7.02402 0
M  V30 3913 H 376.398 0.480284 -0.617131 0
M  V30 3914 H 378.982 0.653592 -1.83402 0
M  V30 3915 H 377.153 3.13045 -2.29907 0
M  V30 3916 H 378.885 3.14567 -2.54616 0
M  V30 3917 H 375.64 2.07423 -4.25761 0
M  V30 3918 H 376.064 1.08085 -6.68316 0
M  V30 3919 H 380.706 1.73689 -3.85476 0
M  V30 3920 H 378.424 0.317821 -8.07475 0
M  V30 3921 H 382.01 0.842611 -5.75666 0
M  V30 3922 H 380.89 0.14381 -7.84068 0
M  V30 3923 N 378.394 1.34581 0.820102 0
M  V30 3924 C 379.341 1.2639 1.93117 0
M  V30 3925 C 380.311 0.138554 1.65521 0
M  V30 3926 O 381.496 0.320004 1.88097 0
M  V30 3927 C 378.636 1.02812 3.29429 0
M  V30 3928 C 377.749 2.24146 3.693 0
M  V30 3929 C 376.884 1.93829 4.94574 0
M  V30 3930 C 375.923 3.1129 5.27034 0
M  V30 3931 N 375.06 2.80838 6.43486 0
M  V30 3932 H 379.9 2.21408 1.99455 0
M  V30 3933 H 377.437 1.10077 0.975784 0
M  V30 3934 H 379.395 0.871788 4.0799 0
M  V30 3935 H 378.025 0.114612 3.22596 0
M  V30 3936 H 377.077 2.50691 2.86109 0
M  V30 3937 H 378.389 3.11899 3.89257 0
M  V30 3938 H 377.543 1.74948 5.80929 0
M  V30 3939 H 376.282 1.03341 4.76626 0
M  V30 3940 H 375.287 3.30764 4.39175 0
M  V30 3941 H 376.512 4.02561 5.4692 0
M  V30 3942 H 374.458 1.92929 6.26988 0
M  V30 3943 H 374.375 3.62123 6.63629 0
M  V30 3944 H 375.643 2.65467 7.32903 0
M  V30 3945 N 379.872 -1.04064 1.18357 0
M  V30 3946 C 381.097 -1.81454 1.00445 0
M  V30 3947 C 381.522 -1.82823 -0.442423 0
M  V30 3948 O 380.88 -1.24555 -1.31741 0
M  V30 3949 C 380.928 -3.24925 1.56384 0
M  V30 3950 O 380.032 -4.04856 0.785209 0
M  V30 3951 H 379.373 -0.560604 0.355835 0
M  V30 3952 H 381.903 -1.31059 1.57114 0
M  V30 3953 H 381.913 -3.75702 1.59097 0
M  V30 3954 H 380.588 -3.23244 2.61699 0
M  V30 3955 H 379.165 -3.63537 0.830399 0
M  V30 3956 N 381.35 -0.985608 -1.22978 0
M  V30 3957 C 382.597 -0.657386 -1.91532 0
M  V30 3958 C 382.925 0.809707 -1.76845 0
M  V30 3959 O 382.18 1.60021 -1.12658 0
M  V30 3960 C 382.479 -1.00014 -3.43121 0
M  V30 3961 C 382.145 -2.4583 -3.77993 0
M  V30 3962 C 380.807 -2.85679 -3.87222 0
M  V30 3963 C 383.159 -3.40378 -3.94705 0
M  V30 3964 C 380.487 -4.19081 -4.10595 0
M  V30 3965 C 382.839 -4.73429 -4.1958 0
M  V30 3966 C 381.503 -5.1303 -4.27032 0
M  V30 3967 H 380.773 -0.240555 -0.700867 0
M  V30 3968 H 383.42 -1.24044 -1.45895 0
M  V30 3969 H 381.725 -0.335072 -3.90365 0
M  V30 3970 H 383.422 -0.724322 -3.94404 0
M  V30 3971 H 380.012 -2.13939 -3.71387 0
M  V30 3972 H 384.196 -3.10766 -3.8696 0
M  V30 3973 H 379.452 -4.49362 -4.14589 0
M  V30 3974 H 383.626 -5.46644 -4.31455 0
M  V30 3975 H 381.253 -6.16418 -4.44896 0
M  V30 3976 N 382.828 1.3818 -0.7579 0
M  V30 3977 C 383.775 2.30416 -0.133057 0
M  V30 3978 C 384.745 1.50398 0.704957 0
M  V30 3979 O 385.93 1.79014 0.660192 0
M  V30 3980 C 383.07 3.36834 0.750813 0
M  V30 3981 C 382.183 4.31879 -0.102297 0
M  V30 3982 C 381.318 5.25368 0.784979 0
M  V30 3983 C 380.357 6.12058 -0.0715046 0
M  V30 3984 N 379.494 6.97832 0.772972 0
M  V30 3985 H 384.334 2.83274 -0.925186 0
M  V30 3986 H 381.871 1.39461 -0.467866 0
M  V30 3987 H 383.829 3.97145 1.27794 0
M  V30 3988 H 382.459 2.85374 1.50868 0
M  V30 3989 H 381.511 3.72991 -0.747095 0
M  V30 3990 H 382.823 4.92921 -0.763552 0
M  V30 3991 H 381.977 5.90818 1.37911 0
M  V30 3992 H 380.716 4.64703 1.47996 0
M  V30 3993 H 379.721 5.456 -0.678272 0
M  V30 3994 H 380.946 6.74793 -0.763606 0
M  V30 3995 H 378.892 6.3971 1.45282 0
M  V30 3996 H 378.809 7.55812 0.168709 0
M  V30 3997 H 380.077 7.67687 1.35194 0
M  V30 3998 N 384.306 0.507319 1.49211 0
M  V30 3999 C 385.717 0.0611118 1.866 0
M  V30 4000 C 386.068 -1.35488 1.41907 0
M  V30 4001 O 385.193 -2.0108 0.799726 0
M  V30 4002 C 385.788 0.104125 3.3864 0
M  V30 4003 C 384.347 -0.28677 3.75306 0
M  V30 4004 C 383.494 0.473893 2.73221 0
M  V30 4005 H 386.445 0.719775 1.41439 0
M  V30 4006 H 386.466 -0.689672 3.74198 0
M  V30 4007 H 385.978 1.13482 3.71138 0
M  V30 4008 H 384.079 -1.32046 3.48417 0
M  V30 4009 H 384.192 0.0370745 4.79086 0
M  V30 4010 H 382.556 -0.0770644 2.54583 0
M  V30 4011 H 383.339 1.50478 3.08563 0
M  V30 4012 N 385.784 -1.5574 0.241426 0
M  V30 4013 C 387.2 -1.59196 -0.113548 0
M  V30 4014 C 387.4 -1.25852 -1.57364 0
M  V30 4015 O 386.456 -1.00322 -2.31715 0
M  V30 4016 C 387.769 -2.99814 0.230695 0
M  V30 4017 C 389.317 -3.12513 0.174547 0
M  V30 4018 C 389.792 -4.55342 0.492744 0
M  V30 4019 N 391.283 -4.61076 0.443043 0
M  V30 4020 C 392.018 -5.6956 0.662484 0
M  V30 4021 N 391.514 -6.86328 0.944761 0
M  V30 4022 N 393.307 -5.58957 0.593564 0
M  V30 4023 H 385.458 -1.75685 1.19368 0
M  V30 4024 H 387.721 -0.81756 0.479896 0
M  V30 4025 H 387.427 -3.28932 1.24485 0
M  V30 4026 H 387.301 -3.74568 -0.444833 0
M  V30 4027 H 389.688 -2.83179 -0.830277 0
M  V30 4028 H 389.769 -2.40045 0.883845 0
M  V30 4029 H 389.413 -4.85396 1.4951 0
M  V30 4030 H 389.343 -5.26062 -0.23797 0
M  V30 4031 H 391.834 -3.77179 0.233374 0
M  V30 4032 H 392.147 -7.64935 1.09977 0
M  V30 4033 H 390.492 -6.88025 0.982175 0
M  V30 4034 H 393.683 -4.66611 0.373123 0
M  V30 4035 H 393.856 -6.43433 0.767981 0
M  V30 4036 N 387.262 0.0317525 -1.57568 0
M  V30 4037 C 388.492 0.733884 -1.93126 0
M  V30 4038 C 388.9 1.69563 -0.839352 0
M  V30 4039 O 388.243 1.82681 0.193175 0
M  V30 4040 C 388.305 1.54798 -3.24465 0
M  V30 4041 C 387.969 0.751304 -4.50782 0
M  V30 4042 C 388.966 0.0527632 -5.19873 0
M  V30 4043 C 386.651 0.706639 -4.97305 0
M  V30 4044 C 388.645 -0.679774 -6.33765 0
M  V30 4045 C 386.332 -0.0296449 -6.11093 0
M  V30 4046 C 387.33 -0.721614 -6.79177 0
M  V30 4047 O 387.018 -1.44595 -7.90789 0
M  V30 4048 H 386.75 0.211459 -0.642076 0
M  V30 4049 H 389.304 -0.00585615 -2.05399 0
M  V30 4050 H 387.534 2.33147 -3.08512 0
M  V30 4051 H 389.223 2.13247 -3.4537 0
M  V30 4052 H 389.989 0.0783188 -4.84937 0
M  V30 4053 H 385.868 1.23474 -4.44157 0
M  V30 4054 H 389.412 -1.22042 -6.86842 0
M  V30 4055 H 385.309 -0.0571331 -6.45475 0
M  V30 4056 H 386.077 -1.35935 -8.07133 0
M  V30 4057 N 388.74 1.54641 0.303973 0
M  V30 4058 C 389.687 1.85386 1.37479 0
M  V30 4059 C 390.657 0.702528 1.50512 0
M  V30 4060 O 391.842 0.950867 1.65418 0
M  V30 4061 C 388.982 2.10413 2.73533 0
M  V30 4062 C 388.095 3.38049 2.68974 0
M  V30 4063 C 387.23 3.52934 3.97002 0
M  V30 4064 C 386.269 4.74373 3.86829 0
M  V30 4065 N 385.406 4.8608 5.06627 0
M  V30 4066 H 390.246 2.76732 1.1056 0
M  V30 4067 H 387.783 1.37034 0.534805 0
M  V30 4068 H 389.741 2.22919 3.52652 0
M  V30 4069 H 388.371 1.22338 2.98719 0
M  V30 4070 H 387.423 3.3418 1.81736 0
M  V30 4071 H 388.735 4.27288 2.57346 0
M  V30 4072 H 387.889 3.65088 4.84557 0
M  V30 4073 H 386.628 2.61824 4.1146 0
M  V30 4074 H 385.633 4.62255 2.97658 0
M  V30 4075 H 386.858 5.66888 3.73918 0
M  V30 4076 H 384.804 3.97891 5.21554 0
M  V30 4077 H 384.721 5.69315 4.9741 0
M  V30 4078 H 385.989 5.02587 5.95841 0
M  V30 4079 N 390.218 -0.567019 1.47046 0
M  V30 4080 C 391.168 -1.67018 1.55207 0
M  V30 4081 C 392.152 -1.55543 0.411714 0
M  V30 4082 O 393.344 -1.64192 0.661064 0
M  V30 4083 C 390.473 -3.05801 1.56014 0
M  V30 4084 C 389.559 -3.22515 2.75399 0
M  V30 4085 N 389.95 -3.09329 4.00186 0
M  V30 4086 C 388.248 -3.53493 2.71954 0
M  V30 4087 C 388.949 -3.2847 4.80086 0
M  V30 4088 N 387.925 -3.54352 4.12233 0
M  V30 4089 H 391.727 -1.55377 2.4947 0
M  V30 4090 H 389.241 -0.771503 1.42904 0
M  V30 4091 H 391.238 -3.84996 1.59949 0
M  V30 4092 H 389.898 -3.18561 0.628396 0
M  V30 4093 H 390.909 -2.86863 4.31196 0
M  V30 4094 H 387.586 -3.7284 1.87873 0
M  V30 4095 H 388.976 -3.23326 5.88991 0
M  V30 4096 N 391.696 -1.35014 -0.812953 0
M  V30 4097 C 392.921 -1.31187 -1.60639 0
M  V30 4098 C 393.346 0.109382 -1.87782 0
M  V30 4099 O 392.704 1.07424 -1.46047 0
M  V30 4100 C 392.752 -2.11809 -2.91838 0
M  V30 4101 O 391.856 -1.49444 -3.8437 0
M  V30 4102 H 391.197 -0.450084 -0.488181 0
M  V30 4103 H 393.727 -1.77963 -1.00947 0
M  V30 4104 H 393.737 -2.23531 -3.41318 0
M  V30 4105 H 392.412 -3.15137 -2.71407 0
M  V30 4106 H 390.989 -1.46524 -3.42907 0
M  V30 4107 N 393.175 1.03435 -1.18907 0
M  V30 4108 C 394.125 2.09924 -0.889706 0
M  V30 4109 C 395.109 1.60261 0.143216 0
M  V30 4110 O 396.301 1.76892 -0.0617122 0
M  V30 4111 C 393.43 3.40669 -0.424168 0
M  V30 4112 C 392.516 3.97082 -1.48952 0
M  V30 4113 N 392.907 4.27227 -2.70759 0
M  V30 4114 C 391.205 4.25029 -1.35152 0
M  V30 4115 C 391.906 4.7246 -3.39347 0
M  V30 4116 N 390.882 4.7366 -2.66735 0
M  V30 4117 H 394.684 2.31116 -1.81555 0
M  V30 4118 H 392.198 1.21246 -1.08042 0
M  V30 4119 H 394.195 4.16461 -0.191176 0
M  V30 4120 H 392.855 3.20901 0.495263 0
M  V30 4121 H 393.866 4.16678 -3.0757 0
M  V30 4122 H 390.543 4.14554 -0.495126 0
M  V30 4123 H 391.933 5.04751 -4.43481 0
M  V30 4124 N 394.653 0.992116 1.22453 0
M  V30 4125 C 395.9 0.667534 1.91181 0
M  V30 4126 C 396.228 -0.800317 1.77271 0
M  V30 4127 O 395.483 -1.59421 1.13505 0
M  V30 4128 C 395.782 1.01832 3.42586 0
M  V30 4129 C 395.448 2.47831 3.76684 0
M  V30 4130 C 394.11 2.87729 3.85701 0
M  V30 4131 C 396.462 3.42466 3.92895 0
M  V30 4132 C 393.79 4.21252 4.08367 0
M  V30 4133 C 396.142 4.75648 4.17064 0
M  V30 4134 C 394.806 5.15288 4.24305 0
M  V30 4135 H 394.076 0.244268 0.699581 0
M  V30 4136 H 396.723 1.24816 1.45235 0
M  V30 4137 H 395.028 0.355769 3.90181 0
M  V30 4138 H 396.725 0.745228 3.94014 0
M  V30 4139 H 393.315 2.15905 3.70247 0
M  V30 4140 H 397.499 3.12814 3.85307 0
M  V30 4141 H 392.755 4.51554 4.122 0
M  V30 4142 H 396.929 5.48924 4.2855 0
M  V30 4143 H 394.556 6.18769 4.41621 0
M  V30 4144 N 396.131 -1.37776 0.765217 0
M  V30 4145 C 397.38 -1.99092 0.323307 0
M  V30 4146 C 397.693 -1.61434 -1.10446 0
M  V30 4147 O 398.899 -2.15805 -1.64743 0
M  V30 4148 C 397.355 -3.56019 0.527098 0
M  V30 4149 C 396.963 -4.0262 1.96471 0
M  V30 4150 C 398.707 -4.2424 0.148483 0
M  V30 4151 C 396.614 -5.52233 2.11644 0
M  V30 4152 H 395.544 -0.744846 0.117137 0
M  V30 4153 H 398.195 -1.57391 0.943417 0
M  V30 4154 H 396.577 -3.95667 -0.162372 0
M  V30 4155 H 397.751 -3.74234 2.68859 0
M  V30 4156 H 396.066 -3.47161 2.29931 0
M  V30 4157 H 398.663 -5.34159 0.240456 0
M  V30 4158 H 399.006 -4.06446 -0.900422 0
M  V30 4159 H 399.539 -3.89872 0.79025 0
M  V30 4160 H 396.278 -5.74945 3.1483 0
M  V30 4161 H 395.798 -5.82324 1.4373 0
M  V30 4162 H 397.477 -6.18106 1.91193 0
M  V30 4163 N 397.609 -0.515225 -1.4894 0
M  V30 4164 C 398.855 0.016187 -2.03394 0
M  V30 4165 C 399.21 1.33377 -1.38666 0
M  V30 4166 O 398.503 1.84461 -0.518141 0
M  V30 4167 C 398.697 0.210595 -3.56779 0
M  V30 4168 C 398.526 -1.08659 -4.36375 0
M  V30 4169 C 397.296 -1.64237 -4.77864 0
M  V30 4170 C 399.494 -1.9935 -4.74093 0
M  V30 4171 N 397.476 -2.88398 -5.41941 0
M  V30 4172 C 398.847 -3.08088 -5.38035 0
M  V30 4173 C 400.902 -1.99856 -4.56029 0
M  V30 4174 C 399.605 -4.17377 -5.85823 0
M  V30 4175 C 401.631 -3.08129 -5.04787 0
M  V30 4176 C 400.993 -4.15586 -5.68742 0
M  V30 4177 H 397.092 -0.0352107 -0.781207 0
M  V30 4178 H 399.676 -0.693237 -1.8194 0
M  V30 4179 H 397.847 0.889088 -3.78087 0
M  V30 4180 H 399.579 0.740287 -3.97872 0
M  V30 4181 H 396.334 -1.18566 -4.58518 0
M  V30 4182 H 396.758 -3.51572 -5.78555 0
M  V30 4183 H 401.4 -1.18079 -4.05977 0
M  V30 4184 H 399.118 -4.99943 -6.34888 0
M  V30 4185 H 402.704 -3.09557 -4.92611 0
M  V30 4186 H 401.584 -4.97987 -6.05787 0
M  V30 4187 N 399.087 1.5561 -0.249682 0
M  V30 4188 C 400.035 2.22894 0.664906 0
M  V30 4189 C 401.029 1.21743 1.17792 0
M  V30 4190 O 402.235 1.39748 1.13449 0
M  V30 4191 H 398.61 0.715022 0.232912 0
M  V30 4192 H 400.581 2.98307 0.0742998 0
M  V30 4193 C 399.33 2.94424 1.84959 0
M  V30 4194 H 398.653 3.72031 1.46399 0
M  V30 4195 H 400.093 3.44862 2.4667 0
M  V30 4196 C 398.552 1.98454 2.72245 0
M  V30 4197 O 399.082 1.51939 3.71857 0
M  V30 4198 N 397.288 1.65496 2.38871 0
M  V30 4199 H 396.835 2.03517 1.57919 0
M  V30 4200 H 396.793 1.0155 2.97548 0
M  V30 4201 N 400.565 -0.0233959 1.57583 0
M  V30 4202 C 401.981 -0.379134 1.55031 0
M  V30 4203 C 402.181 -1.76255 0.976548 0
M  V30 4204 O 401.237 -2.45266 0.600078 0
M  V30 4205 C 402.55 -0.275792 2.99433 0
M  V30 4206 C 404.098 -0.352458 3.11009 0
M  V30 4207 C 404.573 -0.278501 4.57152 0
M  V30 4208 N 406.064 -0.337123 4.61972 0
M  V30 4209 C 406.799 -0.302876 5.726 0
M  V30 4210 N 406.295 -0.220589 6.92449 0
M  V30 4211 N 408.088 -0.353023 5.6099 0
M  V30 4212 H 400.239 0.881869 1.93227 0
M  V30 4213 H 402.502 0.335867 0.886509 0
M  V30 4214 H 402.208 0.675108 3.4516 0
M  V30 4215 H 402.082 -1.06721 3.61788 0
M  V30 4216 H 404.469 -1.29379 2.65226 0
M  V30 4217 H 404.55 0.468409 2.51475 0
M  V30 4218 H 404.194 0.659189 5.03604 0
M  V30 4219 H 404.124 -1.11755 5.14605 0
M  V30 4220 H 406.615 -0.403002 3.75745 0
M  V30 4221 H 406.928 -0.199713 7.72542 0
M  V30 4222 H 405.273 -0.186555 6.9475 0
M  V30 4223 H 408.464 -0.415339 4.66254 0
M  V30 4224 H 408.637 -0.322866 6.47195 0
M  V30 4225 N 402.043 -1.548 -0.295768 0
M  V30 4226 C 403.271 -1.78327 -1.04914 0
M  V30 4227 C 403.686 -0.545316 -1.80753 0
M  V30 4228 O 403.043 0.485013 -1.75937 0
M  V30 4229 C 403.094 -2.99418 -2.02561 0
M  V30 4230 O 402.815 -4.18431 -1.29798 0
M  V30 4231 C 404.316 -3.35375 -2.89895 0
M  V30 4232 H 401.536 -0.594618 -0.310918 0
M  V30 4233 H 404.08 -2.01763 -0.333454 0
M  V30 4234 H 402.235 -2.78175 -2.69624 0
M  V30 4235 H 402.649 -4.86736 -1.95419 0
M  V30 4236 H 404.123 -4.23332 -3.54251 0
M  V30 4237 H 404.6 -2.53761 -3.58472 0
M  V30 4238 H 405.206 -3.58796 -2.28355 0
M  V30 4239 N 403.521 0.559213 -1.47345 0
M  V30 4240 C 404.431 1.69388 -1.62311 0
M  V30 4241 C 405.447 1.6648 -0.505993 0
M  V30 4242 O 406.623 1.85964 -0.773262 0
M  V30 4243 C 403.688 3.05894 -1.63185 0
M  V30 4244 C 402.749 3.19885 -2.86307 0
M  V30 4245 C 401.982 4.49879 -2.87131 0
M  V30 4246 O 402.205 5.35217 -1.97229 0
M  V30 4247 O 401.139 4.67618 -3.78968 0
M  V30 4248 H 404.965 1.59706 -2.58317 0
M  V30 4249 H 402.55 0.728989 -1.30407 0
M  V30 4250 H 404.432 3.87133 -1.66451 0
M  V30 4251 H 403.107 3.15964 -0.70345 0
M  V30 4252 H 402.014 2.38052 -2.88587 0
M  V30 4253 H 403.347 3.14718 -3.78435 0
M  V30 4254 N 404.999 1.35443 0.805782 0
M  V30 4255 C 405.929 1.31095 1.93226 0
M  V30 4256 C 406.91 0.185244 1.69088 0
M  V30 4257 O 408.095 0.380332 1.90439 0
M  V30 4258 C 405.225 1.08299 3.29983 0
M  V30 4259 C 404.179 2.17519 3.68605 0
M  V30 4260 C 403.505 1.79887 5.03532 0
M  V30 4261 C 404.805 3.5949 3.78898 0
M  V30 4262 H 406.499 2.25352 1.97122 0
M  V30 4263 H 404.045 1.0848 0.946996 0
M  V30 4264 H 405.998 1.03897 4.08391 0
M  V30 4265 H 404.722 0.104885 3.26432 0
M  V30 4266 H 403.381 2.2102 2.92482 0
M  V30 4267 H 403.029 0.80693 4.96485 0
M  V30 4268 H 402.729 2.53001 5.30344 0
M  V30 4269 H 404.253 1.77011 5.84379 0
M  V30 4270 H 405.667 3.58307 4.47536 0
M  V30 4271 H 404.064 4.31371 4.1718 0
M  V30 4272 H 405.134 3.95584 2.80431 0
M  V30 4273 N 406.477 -1.02803 1.19454 0
M  V30 4274 C 407.407 -2.12999 0.956758 0
M  V30 4275 C 408.388 -1.69743 -0.110188 0
M  V30 4276 O 409.573 -1.94148 0.0450038 0
M  V30 4277 C 406.703 -3.43746 0.495553 0
M  V30 4278 C 405.657 -4.00688 1.50443 0
M  V30 4279 C 404.983 -5.27067 0.900275 0
M  V30 4280 C 406.283 -4.35397 2.8849 0
M  V30 4281 H 407.977 -2.33148 1.87836 0
M  V30 4282 H 405.523 -1.12045 0.904539 0
M  V30 4283 H 407.476 -4.2021 0.316493 0
M  V30 4284 H 406.2 -3.23321 -0.461646 0
M  V30 4285 H 404.859 -3.2632 1.67065 0
M  V30 4286 H 404.507 -5.02959 -0.064503 0
M  V30 4287 H 404.207 -5.66127 1.57397 0
M  V30 4288 H 405.731 -6.06196 0.73203 0
M  V30 4289 H 407.145 -5.02795 2.75446 0
M  V30 4290 H 405.542 -4.85541 3.52661 0
M  V30 4291 H 406.612 -3.44662 3.41081 0
M  V30 4292 N 407.956 -0.998596 -1.21925 0
M  V30 4293 C 409.184 -0.696286 -1.94832 0
M  V30 4294 C 409.599 0.740032 -1.73692 0
M  V30 4295 O 408.956 1.5 -1.03953 0
M  V30 4296 C 409.007 -0.999833 -3.47398 0
M  V30 4297 O 408.728 -2.37972 -3.67833 0
M  V30 4298 C 410.229 -0.716025 -4.37479 0
M  V30 4299 H 407.449 -0.257111 -0.619786 0
M  V30 4300 H 409.993 -1.33491 -1.54921 0
M  V30 4301 H 408.148 -0.406918 -3.85257 0
M  V30 4302 H 408.562 -2.48338 -4.61983 0
M  V30 4303 H 410.036 -0.978642 -5.43256 0
M  V30 4304 H 410.513 0.349968 -4.37803 0
M  V30 4305 H 411.119 -1.29025 -4.05256 0
M  V30 4306 N 409.434 1.37368 -0.772513 0
M  V30 4307 C 410.364 2.32856 -0.173304 0
M  V30 4308 C 411.345 1.55818 0.682262 0
M  V30 4309 O 412.53 1.84052 0.619566 0
M  V30 4310 C 409.66 3.40048 0.706007 0
M  V30 4311 C 408.614 4.27973 -0.0483144 0
M  V30 4312 C 407.94 5.26184 0.950491 0
M  V30 4313 C 409.24 5.07665 -1.22776 0
M  V30 4314 H 410.934 2.83217 -0.971002 0
M  V30 4315 H 408.48 1.3617 -0.468377 0
M  V30 4316 H 410.433 4.05827 1.13501 0
M  V30 4317 H 409.157 2.88214 1.53623 0
M  V30 4318 H 407.816 3.63726 -0.458107 0
M  V30 4319 H 407.464 4.7063 1.77529 0
M  V30 4320 H 407.164 5.85872 0.450314 0
M  V30 4321 H 408.688 5.94838 1.37842 0
M  V30 4322 H 410.102 5.66578 -0.875366 0
M  V30 4323 H 408.499 5.76681 -1.66007 0
M  V30 4324 H 409.569 4.40294 -2.03149 0
M  V30 4325 N 410.912 0.523116 1.48665 0
M  V30 4326 C 412.189 -0.0775449 1.95446 0
M  V30 4327 C 412.569 -1.5197 1.4652 0
M  V30 4328 O 411.917 -2.17876 0.688657 0
M  V30 4329 C 412.127 0.0326135 3.48985 0
M  V30 4330 C 413.475 -0.130141 4.24401 0
M  V30 4331 O 414.499 -0.0415142 3.56176 0
M  V30 4332 O 413.358 -0.31491 5.45592 0
M  V30 4333 H 410.452 -0.0831012 0.822814 0
M  V30 4334 H 412.998 0.587227 1.59216 0
M  V30 4335 H 411.77 1.03748 3.77296 0
M  V30 4336 H 411.393 -0.671317 3.91892 0
M  V30 4337 N 412.39 -1.55475 0.257931 0
M  V30 4338 C 413.801 -1.8511 -0.243135 0
M  V30 4339 C 414.152 -1.17986 -1.5676 0
M  V30 4340 O 413.277 -0.462102 -2.11409 0
M  V30 4341 C 413.872 -3.35826 -0.447929 0
M  V30 4342 C 412.431 -3.65647 -0.893245 0
M  V30 4343 C 411.578 -2.7729 0.0232965 0
M  V30 4344 H 414.529 -1.51261 0.480199 0
M  V30 4345 H 414.55 -3.58002 -1.28898 0
M  V30 4346 H 414.062 -3.84652 0.516196 0
M  V30 4347 H 412.163 -3.22308 -1.86945 0
M  V30 4348 H 412.276 -4.73312 -0.742469 0
M  V30 4349 H 410.64 -2.49942 -0.490021 0
M  V30 4350 H 411.423 -3.28926 0.982994 0
M  V30 4351 N 413.868 0.0150385 -1.57593 0
M  V30 4352 C 414.818 1.01943 -2.0394 0
M  V30 4353 C 415.802 1.31209 -0.931286 0
M  V30 4354 O 416.994 1.30559 -1.19513 0
M  V30 4355 C 414.123 2.31621 -2.53391 0
M  V30 4356 C 413.209 2.05384 -3.7105 0
M  V30 4357 N 413.6 1.49253 -4.83278 0
M  V30 4358 C 411.898 2.35601 -3.78693 0
M  V30 4359 C 412.599 1.39143 -5.64813 0
M  V30 4360 N 411.575 1.87187 -5.10355 0
M  V30 4361 H 415.377 0.57969 -2.88126 0
M  V30 4362 H 412.891 0.221056 -1.60888 0
M  V30 4363 H 414.888 3.044 -2.84862 0
M  V30 4364 H 413.548 2.76261 -1.70616 0
M  V30 4365 H 414.559 1.17334 -5.04433 0
M  V30 4366 H 411.236 2.8322 -3.06746 0
M  V30 4367 H 412.626 0.961153 -6.6499 0
M  V30 4368 N 415.346 1.54954 0.287554 0
M  V30 4369 C 416.294 1.87606 1.37502 0
M  V30 4370 C 417.288 0.751001 1.51843 0
M  V30 4371 O 418.494 0.935169 1.53801 0
M  V30 4372 H 414.869 0.595231 0.459569 0
M  V30 4373 H 416.84 2.78477 1.07206 0
M  V30 4374 C 415.589 2.15183 2.73115 0
M  V30 4375 H 414.912 3.01234 2.62866 0
M  V30 4376 H 416.352 2.4196 3.48183 0
M  V30 4377 C 414.811 0.954686 3.2309 0
M  V30 4378 O 415.341 0.181949 4.01288 0
M  V30 4379 N 413.547 0.756368 2.80584 0
M  V30 4380 H 413.094 1.38643 2.17108 0
M  V30 4381 H 413.052 -0.0430391 3.14371 0
M  V30 4382 N 416.824 -0.551391 1.4764 0
M  V30 4383 C 418.07 -1.31024 1.54792 0
M  V30 4384 C 418.403 -1.9304 0.211967 0
M  V30 4385 O 417.678 -1.78175 -0.77999 0
M  V30 4386 C 417.961 -2.41593 2.67029 0
M  V30 4387 C 417.814 -1.84408 4.10261 0
M  V30 4388 C 419.133 -3.43488 2.75143 0
M  V30 4389 H 416.252 -0.475031 0.563485 0
M  V30 4390 H 418.894 -0.616454 1.79722 0
M  V30 4391 H 417.044 -3.00772 2.45904 0
M  V30 4392 H 418.716 -1.29445 4.42766 0
M  V30 4393 H 416.959 -1.15051 4.18265 0
M  V30 4394 H 417.63 -2.64367 4.84576 0
M  V30 4395 H 420.106 -2.94236 2.94218 0
M  V30 4396 H 418.982 -4.18274 3.55441 0
M  V30 4397 H 419.243 -4.02703 1.82435 0
M  V30 4398 N 418.302 -1.35869 -0.798587 0
M  V30 4399 C 419.579 -1.20145 -1.54352 0
M  V30 4400 C 419.959 0.216161 -2.0999 0
M  V30 4401 O 419.307 1.22068 -1.93162 0
M  V30 4402 C 419.517 -2.27602 -2.64572 0
M  V30 4403 C 420.865 -2.63811 -3.32699 0
M  V30 4404 O 421.889 -2.26576 -2.74849 0
M  V30 4405 O 420.748 -3.27866 -4.37226 0
M  V30 4406 H 417.842 -0.467248 -0.682355 0
M  V30 4407 H 420.388 -1.47574 -0.837859 0
M  V30 4408 H 419.16 -3.2265 -2.21388 0
M  V30 4409 H 418.783 -2.01488 -3.42766 0
M  V30 4410 N 419.78 1.02168 -1.19998 0
M  V30 4411 C 421.01 1.79036 -1.031 0
M  V30 4412 C 421.418 1.84409 0.423078 0
M  V30 4413 O 420.761 1.29228 1.30559 0
M  V30 4414 C 420.823 3.25185 -1.53281 0
M  V30 4415 C 420.487 3.43431 -3.01503 0
M  V30 4416 C 421.484 3.33063 -3.99206 0
M  V30 4417 C 419.169 3.69412 -3.40353 0
M  V30 4418 C 421.163 3.48413 -5.33748 0
M  V30 4419 C 418.85 3.84406 -4.75053 0
M  V30 4420 C 419.848 3.7391 -5.71559 0
M  V30 4421 O 419.536 3.88452 -7.03818 0
M  V30 4422 H 419.268 0.570043 -0.363355 0
M  V30 4423 H 421.822 1.29524 -1.59414 0
M  V30 4424 H 420.052 3.75756 -0.913483 0
M  V30 4425 H 421.741 3.83671 -1.32481 0
M  V30 4426 H 422.507 3.12934 -3.70537 0
M  V30 4427 H 418.386 3.76671 -2.65782 0
M  V30 4428 H 421.93 3.40137 -6.09059 0
M  V30 4429 H 417.827 4.04035 -5.03415 0
M  V30 4430 H 418.595 4.055 -7.10993 0
M  V30 4431 N 421.258 1.00505 1.21394 0
M  V30 4432 C 422.188 0.585684 2.26035 0
M  V30 4433 C 423.169 -0.393525 1.65485 0
M  V30 4434 O 424.354 -0.281497 1.92149 0
M  V30 4435 C 421.484 -0.0884283 3.47187 0
M  V30 4436 C 420.438 0.810567 4.20254 0
M  V30 4437 C 419.764 0.00286382 5.347 0
M  V30 4438 C 421.064 2.1132 4.77641 0
M  V30 4439 H 422.758 1.46039 2.61368 0
M  V30 4440 H 420.304 0.703648 1.25638 0
M  V30 4441 H 422.257 -0.393286 4.19561 0
M  V30 4442 H 420.981 -0.997766 3.10986 0
M  V30 4443 H 419.64 1.09925 3.49731 0
M  V30 4444 H 419.288 -0.907765 4.94741 0
M  V30 4445 H 418.988 0.601444 5.84514 0
M  V30 4446 H 420.512 -0.295808 6.09883 0
M  V30 4447 H 421.926 1.87148 5.41893 0
M  V30 4448 H 420.323 2.66164 5.37845 0
M  V30 4449 H 421.393 2.78393 3.9702 0
M  V30 4450 N 422.737 -1.36956 0.779787 0
M  V30 4451 C 423.667 -2.32761 0.185651 0
M  V30 4452 C 424.648 -1.56177 -0.673989 0
M  V30 4453 O 425.833 -1.84378 -0.609797 0
M  V30 4454 C 422.963 -3.40418 -0.687964 0
M  V30 4455 C 421.917 -4.27941 0.0710102 0
M  V30 4456 C 421.243 -5.26681 -0.922573 0
M  V30 4457 C 422.543 -5.07006 1.25467 0
M  V30 4458 H 424.237 -2.82698 0.986008 0
M  V30 4459 H 421.783 -1.3592 0.475592 0
M  V30 4460 H 423.736 -4.06423 -1.11348 0
M  V30 4461 H 422.46 -2.89025 -1.52093 0
M  V30 4462 H 421.119 -3.63478 0.47739 0
M  V30 4463 H 420.767 -4.71565 -1.7503 0
M  V30 4464 H 420.467 -5.86103 -0.419237 0
M  V30 4465 H 421.991 -5.9556 -1.34686 0
M  V30 4466 H 423.405 -5.66105 0.905401 0
M  V30 4467 H 421.802 -5.75793 1.69063 0
M  V30 4468 H 422.872 -4.3921 2.05481 0
M  V30 4469 N 424.215 -0.530993 -1.48385 0
M  V30 4470 C 425.463 0.00273189 -2.021 0
M  V30 4471 C 425.784 1.34672 -1.41027 0
M  V30 4472 O 425.054 1.8724 -0.576012 0
M  V30 4473 H 423.634 0.00399774 -0.746989 0
M  V30 4474 H 426.296 -0.695054 -1.82085 0
M  V30 4475 H 425.392 0.11031 -3.11905 0
M  V30 4476 N 425.693 1.55336 -0.266172 0
M  V30 4477 C 426.623 2.25146 0.618981 0
M  V30 4478 C 427.604 1.23845 1.16604 0
M  V30 4479 O 428.789 1.52544 1.20183 0
M  V30 4480 C 425.919 2.96572 1.80728 0
M  V30 4481 C 424.873 4.04726 1.39215 0
M  V30 4482 C 424.199 4.63678 2.66283 0
M  V30 4483 C 425.499 5.19407 0.548942 0
M  V30 4484 H 427.193 2.99377 0.0368116 0
M  V30 4485 H 424.739 1.43991 0.0162651 0
M  V30 4486 H 426.692 3.44116 2.43232 0
M  V30 4487 H 425.416 2.19861 2.41514 0
M  V30 4488 H 424.075 3.57979 0.790351 0
M  V30 4489 H 423.723 3.83646 3.25308 0
M  V30 4490 H 423.423 5.367 2.39222 0
M  V30 4491 H 424.947 5.13967 3.29651 0
M  V30 4492 H 426.361 5.63059 1.07876 0
M  V30 4493 H 424.758 5.98936 0.373593 0
M  V30 4494 H 425.828 4.8295 -0.434394 0
M  V30 4495 N 427.171 -0.0066808 1.57599 0
M  V30 4496 C 428.418 -0.69292 1.90276 0
M  V30 4497 C 428.746 -1.74148 0.866192 0
M  V30 4498 O 428.001 -1.95268 -0.129933 0
M  V30 4499 C 428.3 -1.37939 3.29708 0
M  V30 4500 C 427.966 -0.464679 4.48499 0
M  V30 4501 C 426.628 -0.212809 4.80729 0
M  V30 4502 C 428.98 0.16551 5.20937 0
M  V30 4503 C 426.308 0.677653 5.82773 0
M  V30 4504 C 428.66 1.04381 6.23929 0
M  V30 4505 C 427.324 1.30492 6.54621 0
M  V30 4506 H 426.594 -0.253558 0.696268 0
M  V30 4507 H 429.241 0.0474123 1.91441 0
M  V30 4508 H 427.546 -2.1936 3.24636 0
M  V30 4509 H 429.243 -1.9163 3.52249 0
M  V30 4510 H 425.833 -0.671153 4.23313 0
M  V30 4511 H 430.017 -0.0160756 4.96297 0
M  V30 4512 H 425.273 0.88803 6.04917 0
M  V30 4513 H 429.447 1.53851 6.79193 0
M  V30 4514 H 427.074 1.99662 7.33512 0
M  V30 4515 N 428.649 -1.55105 -0.279332 0
M  V30 4516 C 429.559 -1.90638 -1.36727 0
M  V30 4517 C 430.575 -0.802899 -1.54368 0
M  V30 4518 O 431.751 -1.10138 -1.68616 0
M  V30 4519 C 428.816 -2.16547 -2.70755 0
M  V30 4520 C 427.877 -3.40146 -2.61915 0
M  V30 4521 C 427.11 -3.6481 -3.8955 0
M  V30 4522 O 427.333 -2.92095 -4.89935 0
M  V30 4523 O 426.267 -4.58343 -3.90135 0
M  V30 4524 H 430.093 -2.83237 -1.09591 0
M  V30 4525 H 427.678 -1.4157 -0.477306 0
M  V30 4526 H 429.56 -2.34665 -3.50014 0
M  V30 4527 H 428.235 -1.27131 -2.9769 0
M  V30 4528 H 427.142 -3.2737 -1.81052 0
M  V30 4529 H 428.475 -4.29761 -2.3993 0
M  V30 4530 N 430.127 0.543554 -1.4793 0
M  V30 4531 C 431.538 1.12561 -1.48953 0
M  V30 4532 C 431.889 1.94578 -0.251754 0
M  V30 4533 O 431.014 2.0665 0.642255 0
M  V30 4534 C 431.609 2.04801 -2.69892 0
M  V30 4535 C 430.168 2.58251 -2.73831 0
M  V30 4536 C 429.315 1.34918 -2.42265 0
M  V30 4537 H 432.266 0.32947 -1.55242 0
M  V30 4538 H 432.287 2.88886 -2.47639 0
M  V30 4539 H 431.799 1.4508 -3.59963 0
M  V30 4540 H 429.9 3.21732 -1.87934 0
M  V30 4541 H 430.013 2.98312 -3.74895 0
M  V30 4542 H 428.377 1.66046 -1.93134 0
M  V30 4543 H 429.16 0.769693 -3.3456 0
M  V30 4544 N 431.605 1.3629 0.791371 0
M  V30 4545 C 432.853 1.30154 1.5461 0
M  V30 4546 C 433.174 -0.119409 1.94634 0
M  V30 4547 O 432.444 -1.05924 1.64794 0
M  V30 4548 H 431.024 0.478784 0.573389 0
M  V30 4549 H 433.686 1.70565 0.94306 0
M  V30 4550 H 432.782 1.92762 2.45457 0
M  V30 4551 N 433.083 -1.0153 1.20538 0
M  V30 4552 C 434.36 -1.72327 0.925343 0
M  V30 4553 C 434.74 -2.03383 -0.565547 0
M  V30 4554 O 434.088 -1.69934 -1.52757 0
M  V30 4555 C 434.298 -2.9902 1.79967 0
M  V30 4556 C 435.646 -3.72258 2.04228 0
M  V30 4557 O 436.67 -3.08979 1.77231 0
M  V30 4558 O 435.529 -4.86053 2.4983 0
M  V30 4559 H 432.623 -0.751099 0.346092 0
M  V30 4560 H 435.169 -1.07366 1.31417 0
M  V30 4561 H 433.941 -2.72402 2.80915 0
M  V30 4562 H 433.564 -3.71721 1.41099 0
M  V30 4563 N 434.561 -1.01147 -1.20859 0
M  V30 4564 C 435.494 -0.522108 -2.22147 0
M  V30 4565 C 436.472 0.427686 -1.56874 0
M  V30 4566 O 437.656 0.34889 -1.85243 0
M  V30 4567 C 434.783 0.240819 -3.37843 0
M  V30 4568 C 433.829 -0.657752 -4.21398 0
M  V30 4569 S 434.662 -2.12393 -4.91578 0
M  V30 4570 C 435.818 -1.37102 -6.10699 0
M  V30 4571 H 436.051 -1.38035 -2.63313 0
M  V30 4572 H 433.584 -0.819941 -1.30829 0
M  V30 4573 H 435.542 0.674908 -4.04914 0
M  V30 4574 H 434.203 1.07457 -2.95147 0
M  V30 4575 H 433.396 -0.0697456 -5.03952 0
M  V30 4576 H 432.998 -1.0294 -3.59555 0
M  V30 4577 H 435.29 -0.648315 -6.74391 0
M  V30 4578 H 436.233 -2.17252 -6.73949 0
M  V30 4579 H 436.641 -0.876154 -5.57659 0
M  V30 4580 N 436.039 1.36541 -0.78704 0
M  V30 4581 C 436.971 2.28761 -0.141773 0
M  V30 4582 C 437.984 1.49365 0.647599 0
M  V30 4583 O 439.173 1.71836 0.483173 0
M  V30 4584 C 436.273 3.28771 0.822368 0
M  V30 4585 C 435.446 4.3732 0.0835594 0
M  V30 4586 C 434.505 5.17307 0.963296 0
M  V30 4587 O 433.531 5.67638 0.421419 0
M  V30 4588 N 434.733 5.33515 2.28784 0
M  V30 4589 H 437.498 2.84777 -0.933919 0
M  V30 4590 H 435.059 1.48682 -0.640735 0
M  V30 4591 H 437.051 3.79169 1.41468 0
M  V30 4592 H 435.621 2.73412 1.5154 0
M  V30 4593 H 434.841 3.88118 -0.689809 0
M  V30 4594 H 436.129 5.0701 -0.426358 0
M  V30 4595 H 435.527 4.94234 2.75226 0
M  V30 4596 H 434.084 5.87165 2.82985 0
M  V30 4597 N 437.518 0.538854 1.48102 0
M  V30 4598 C 438.748 0.0122958 2.06596 0
M  V30 4599 C 439.156 -1.27861 1.39457 0
M  V30 4600 O 438.499 -1.77348 0.478907 0
M  V30 4601 C 438.561 -0.273131 3.58461 0
M  V30 4602 C 438.225 0.92561 4.47528 0
M  V30 4603 C 439.222 1.82637 4.86765 0
M  V30 4604 C 436.907 1.13511 4.89306 0
M  V30 4605 C 438.901 2.92047 5.66558 0
M  V30 4606 C 436.588 2.23233 5.68868 0
M  V30 4607 C 437.586 3.12333 6.07402 0
M  V30 4608 O 437.274 4.20155 6.85365 0
M  V30 4609 H 437.006 0.0344283 0.675123 0
M  V30 4610 H 439.56 0.746494 1.91355 0
M  V30 4611 H 437.79 -1.06141 3.71848 0
M  V30 4612 H 439.479 -0.742842 3.99045 0
M  V30 4613 H 440.245 1.67649 4.55103 0
M  V30 4614 H 436.124 0.450835 4.5879 0
M  V30 4615 H 439.668 3.6162 5.96554 0
M  V30 4616 H 435.565 2.38201 5.99942 0
M  V30 4617 H 436.333 4.17975 7.03732 0
M  V30 4618 N 438.996 -1.55193 0.274407 0
M  V30 4619 C 439.906 -2.26164 -0.623473 0
M  V30 4620 C 440.922 -1.28729 -1.17068 0
M  V30 4621 O 442.098 -1.61663 -1.20112 0
M  V30 4622 C 439.163 -2.96833 -1.7914 0
M  V30 4623 C 438.224 -4.09745 -1.28093 0
M  V30 4624 C 437.457 -4.77034 -2.3932 0
M  V30 4625 O 437.68 -4.4353 -3.5866 0
M  V30 4626 O 436.614 -5.64996 -2.07516 0
M  V30 4627 H 440.44 -3.03661 -0.0485661 0
M  V30 4628 H 438.025 -1.49341 0.0418382 0
M  V30 4629 H 439.907 -3.41248 -2.4724 0
M  V30 4630 H 438.582 -2.22253 -2.35341 0
M  V30 4631 H 437.489 -3.69787 -0.566416 0
M  V30 4632 H 438.822 -4.86224 -0.764683 0
M  V30 4633 N 440.474 -0.00167713 -1.576 0
M  V30 4634 C 441.404 0.988091 -2.11563 0
M  V30 4635 C 442.385 1.35736 -1.02517 0
M  V30 4636 O 443.57 1.44082 -1.30208 0
M  V30 4637 C 440.7 2.27941 -2.62031 0
M  V30 4638 C 439.654 2.0517 -3.75619 0
M  V30 4639 C 438.98 3.4033 -4.12407 0
M  V30 4640 C 440.28 1.41294 -5.02825 0
M  V30 4641 H 441.974 0.538771 -2.94513 0
M  V30 4642 H 439.52 0.257712 -1.41675 0
M  V30 4643 H 441.473 2.97539 -2.9841 0
M  V30 4644 H 440.197 2.74989 -1.76205 0
M  V30 4645 H 438.856 1.37998 -3.39635 0
M  V30 4646 H 438.504 3.85085 -3.23603 0
M  V30 4647 H 438.204 3.25909 -4.88935 0
M  V30 4648 H 439.728 4.1124 -4.51347 0
M  V30 4649 H 441.142 2.00851 -5.36965 0
M  V30 4650 H 439.539 1.37356 -5.84169 0
M  V30 4651 H 440.609 0.382362 -4.8339 0
M  V30 4652 N 441.952 1.55251 0.271103 0
M  V30 4653 C 442.9 1.89054 1.35504 0
M  V30 4654 C 443.894 0.767064 1.51038 0
M  V30 4655 O 445.1 0.951429 1.528 0
M  V30 4656 H 441.475 0.600072 0.45323 0
M  V30 4657 H 443.446 2.79598 1.04247 0
M  V30 4658 C 442.195 2.18068 2.70817 0
M  V30 4659 H 441.518 3.04005 2.59656 0
M  V30 4660 H 442.958 2.4564 3.45597 0
M  V30 4661 C 441.417 0.988901 3.2206 0
M  V30 4662 O 441.947 0.224501 4.01072 0
M  V30 4663 N 440.153 0.786085 2.79766 0
M  V30 4664 H 439.7 1.40937 2.15626 0
M  V30 4665 H 439.658 -0.00969349 3.14399 0
M  V30 4666 N 443.43 -0.535701 1.48216 0
M  V30 4667 C 444.846 -0.863701 1.3421 0
M  V30 4668 C 445.046 -1.98458 0.34879 0
M  V30 4669 O 444.102 -2.51432 -0.23204 0
M  V30 4670 C 445.415 -1.23662 2.74095 0
M  V30 4671 C 446.963 -1.34683 2.82541 0
M  V30 4672 C 447.438 -1.75322 4.23115 0
M  V30 4673 N 448.929 -1.82434 4.2576 0
M  V30 4674 C 449.664 -2.15252 5.31464 0
M  V30 4675 N 449.16 -2.46533 6.47452 0
M  V30 4676 N 450.953 -2.16209 5.18855 0
M  V30 4677 H 443.104 0.203965 2.11418 0
M  V30 4678 H 445.367 0.0286033 0.947568 0
M  V30 4679 H 445.073 -0.486674 3.48316 0
M  V30 4680 H 444.947 -2.18805 3.07253 0
M  V30 4681 H 447.334 -2.08756 2.08579 0
M  V30 4682 H 447.415 -0.376756 2.5301 0
M  V30 4683 H 447.059 -1.01812 4.97591 0
M  V30 4684 H 446.989 -2.7337 4.50085 0
M  V30 4685 H 449.48 -1.6056 3.42095 0
M  V30 4686 H 449.793 -2.70662 7.23852 0
M  V30 4687 H 448.138 -2.44065 6.50736 0
M  V30 4688 H 451.329 -1.91224 4.2726 0
M  V30 4689 H 451.502 -2.41453 6.01335 0
M  V30 4690 N 444.908 -1.36708 -0.784132 0
M  V30 4691 C 445.856 -1.31533 -1.91838 0
M  V30 4692 C 446.85 -0.206205 -1.6814 0
M  V30 4693 O 448.056 -0.373519 -1.76082 0
M  V30 4694 H 444.431 -0.409613 -0.630651 0
M  V30 4695 H 446.402 -2.2731 -1.9332 0
M  V30 4696 C 445.151 -1.12679 -3.28936 0
M  V30 4697 H 444.474 -1.97274 -3.4774 0
M  V30 4698 H 445.914 -1.13106 -4.08636 0
M  V30 4699 C 444.373 0.168281 -3.36479 0
M  V30 4700 O 444.903 1.15625 -3.84699 0
M  V30 4701 N 443.109 0.214762 -2.89805 0
M  V30 4702 H 442.656 -0.589852 -2.50756 0
M  V30 4703 H 442.614 1.08094 -2.95234 0
M  V30 4704 N 446.386 1.0089 -1.21074 0
M  V30 4705 C 447.334 2.11707 -0.963476 0
M  V30 4706 C 448.328 1.69172 0.0879032 0
M  V30 4707 O 449.534 1.79889 -0.0631415 0
M  V30 4708 H 445.909 0.692026 -0.294287 0
M  V30 4709 H 447.88 2.29743 -1.90422 0
M  V30 4710 C 446.629 3.43473 -0.540509 0
M  V30 4711 H 445.952 3.76634 -1.34114 0
M  V30 4712 H 447.392 4.22044 -0.406777 0
M  V30 4713 C 445.851 3.2849 0.748079 0
M  V30 4714 O 446.381 3.58883 1.8046 0
M  V30 4715 N 444.587 2.81715 0.713081 0
M  V30 4716 H 444.134 2.5718 -0.146973 0
M  V30 4717 H 444.092 2.72071 1.57558 0
M  V30 4718 N 447.864 1.01787 1.20321 0
M  V30 4719 C 449.11 0.708985 1.90003 0
M  V30 4720 C 449.443 -0.759572 1.78729 0
M  V30 4721 O 448.718 -1.55198 1.17234 0
M  V30 4722 C 449.001 1.1469 3.41348 0
M  V30 4723 C 448.854 2.67586 3.61549 0
M  V30 4724 C 450.173 0.71915 4.34185 0
M  V30 4725 H 447.292 0.259034 0.689978 0
M  V30 4726 H 449.934 1.26584 1.41692 0
M  V30 4727 H 448.084 0.673128 3.82624 0
M  V30 4728 H 449.756 3.22826 3.29517 0
M  V30 4729 H 447.999 3.085 3.04976 0
M  V30 4730 H 448.67 2.93281 4.67643 0
M  V30 4731 H 451.146 1.12647 4.00562 0
M  V30 4732 H 450.022 1.05358 5.38694 0
M  V30 4733 H 450.283 -0.379111 4.40472 0
M  V30 4734 N 449.342 -1.36122 0.79427 0
M  V30 4735 C 450.57 -2.03362 0.380989 0
M  V30 4736 C 450.985 -1.59881 -1.00416 0
M  V30 4737 O 450.342 -0.790515 -1.6449 0
M  V30 4738 C 450.393 -3.58804 0.440649 0
M  V30 4739 O 450.114 -4.007 1.77118 0
M  V30 4740 C 451.615 -4.43296 0.0186117 0
M  V30 4741 H 448.835 -0.652526 0.156367 0
M  V30 4742 H 451.379 -1.73998 1.07447 0
M  V30 4743 H 449.534 -3.8686 -0.204458 0
M  V30 4744 H 449.948 -4.95309 1.72538 0
M  V30 4745 H 451.422 -5.51887 0.111488 0
M  V30 4746 H 451.899 -4.2684 -1.03461 0
M  V30 4747 H 452.505 -4.20512 0.636395 0
M  V30 4748 N 450.82 -0.546701 -1.47814 0
M  V30 4749 C 452.097 0.0464413 -1.95545 0
M  V30 4750 C 452.477 1.4962 -1.48919 0
M  V30 4751 O 451.825 2.16752 -0.723232 0
M  V30 4752 C 452.035 -0.0881298 -3.48889 0
M  V30 4753 C 453.383 0.0626059 -4.24554 0
M  V30 4754 O 454.407 -0.0151555 -3.56197 0
M  V30 4755 O 453.266 0.228071 -5.46024 0
M  V30 4756 H 450.36 0.0700004 -0.824032 0
M  V30 4757 H 452.906 -0.612482 -1.58262 0
M  V30 4758 H 451.678 -1.09737 -3.75597 0
M  V30 4759 H 451.301 0.608886 -3.9291 0
M  V30 4760 N 452.299 1.55045 -0.282633 0
M  V30 4761 C 453.71 1.85473 0.213655 0
M  V30 4762 C 454.061 1.20465 1.54863 0
M  V30 4763 O 453.186 0.495676 2.10647 0
M  V30 4764 C 453.781 3.36496 0.394445 0
M  V30 4765 C 452.34 3.67022 0.834961 0
M  V30 4766 C 451.487 2.77218 -0.0674081 0
M  V30 4767 H 454.438 1.50478 -0.504202 0
M  V30 4768 H 454.459 3.60007 1.23186 0
M  V30 4769 H 453.971 3.83782 -0.577326 0
M  V30 4770 H 452.072 3.25241 1.81794 0
M  V30 4771 H 452.185 4.74433 0.667075 0
M  V30 4772 H 450.549 2.5069 0.450196 0
M  V30 4773 H 451.332 3.2732 -1.0352 0
M  V30 4774 N 453.777 0.010035 1.57597 0
M  V30 4775 C 455.002 -0.687021 1.95691 0
M  V30 4776 C 455.427 -1.65952 0.885519 0
M  V30 4777 O 454.785 -1.80633 -0.15543 0
M  V30 4778 C 454.833 -1.3864 3.32884 0
M  V30 4779 O 453.937 -2.50115 3.27897 0
M  V30 4780 H 453.278 -0.181989 0.638573 0
M  V30 4781 H 455.808 0.0662122 2.04493 0
M  V30 4782 H 455.818 -1.74754 3.6868 0
M  V30 4783 H 454.493 -0.673411 4.10412 0
M  V30 4784 H 453.07 -2.16253 3.03791 0
M  V30 4785 N 455.255 -1.55392 -0.262866 0
M  V30 4786 C 456.185 -1.91978 -1.32917 0
M  V30 4787 C 457.166 -0.7828 -1.51017 0
M  V30 4788 O 458.351 -1.04178 -1.63892 0
M  V30 4789 C 455.481 -2.20055 -2.68687 0
M  V30 4790 C 454.435 -3.35854 -2.65304 0
M  V30 4791 C 453.761 -3.49435 -4.04721 0
M  V30 4792 C 455.061 -4.71977 -2.23685 0
M  V30 4793 H 456.755 -2.81292 -1.02544 0
M  V30 4794 H 454.301 -1.3534 -0.491846 0
M  V30 4795 H 456.254 -2.44237 -3.43404 0
M  V30 4796 H 454.978 -1.27551 -3.00663 0
M  V30 4797 H 453.637 -3.11655 -1.93045 0
M  V30 4798 H 453.285 -2.54379 -4.33936 0
M  V30 4799 H 452.985 -4.27297 -4.0335 0
M  V30 4800 H 454.509 -3.7592 -4.81161 0
M  V30 4801 H 455.923 -4.95637 -2.88127 0
M  V30 4802 H 454.32 -5.52828 -2.33456 0
M  V30 4803 H 455.39 -4.70115 -1.18827 0
M  V30 4804 N 456.733 0.527833 -1.48498 0
M  V30 4805 C 457.958 1.313 -1.60546 0
M  V30 4806 C 458.383 1.86199 -0.26672 0
M  V30 4807 O 457.741 1.64513 0.761918 0
M  V30 4808 C 457.789 2.43818 -2.65678 0
M  V30 4809 O 456.893 3.46916 -2.22987 0
M  V30 4810 H 456.234 0.388784 -0.538277 0
M  V30 4811 H 458.764 0.634896 -1.945 0
M  V30 4812 H 458.774 2.89973 -2.87018 0
M  V30 4813 H 457.449 2.03222 -3.62869 0
M  V30 4814 H 456.026 3.06864 -2.11869 0
M  V30 4815 N 458.211 1.37122 0.776871 0
M  V30 4816 C 459.121 1.34651 1.9211 0
M  V30 4817 C 460.137 0.246824 1.7224 0
M  V30 4818 O 461.313 0.48134 1.95563 0
M  V30 4819 C 458.378 1.14748 3.2716 0
M  V30 4820 C 457.439 2.34308 3.5972 0
M  V30 4821 C 456.672 2.15345 4.88326 0
M  V30 4822 O 456.895 1.13507 5.58992 0
M  V30 4823 O 455.829 3.03414 5.1983 0
M  V30 4824 H 459.655 2.31013 1.97146 0
M  V30 4825 H 457.24 1.17799 0.918901 0
M  V30 4826 H 459.122 1.05616 4.0795 0
M  V30 4827 H 457.797 0.214562 3.22988 0
M  V30 4828 H 456.704 2.49011 2.79185 0
M  V30 4829 H 458.037 3.26149 3.68629 0
M  V30 4830 N 459.689 -1.00246 1.21608 0
M  V30 4831 C 460.622 -2.08794 0.920892 0
M  V30 4832 C 461.6 -1.62059 -0.132552 0
M  V30 4833 O 462.784 -1.885 -0.0030366 0
M  V30 4834 C 459.911 -3.36525 0.383226 0
M  V30 4835 C 458.957 -4.02172 1.41987 0
M  V30 4836 S 459.79 -4.44256 2.98994 0
M  V30 4837 C 460.946 -5.7517 2.4684 0
M  V30 4838 H 461.179 -2.33511 1.8401 0
M  V30 4839 H 458.712 -1.13562 1.04609 0
M  V30 4840 H 460.67 -4.10423 0.0795871 0
M  V30 4841 H 459.331 -3.09854 -0.514711 0
M  V30 4842 H 458.524 -4.94114 0.993335 0
M  V30 4843 H 458.126 -3.34559 1.67171 0
M  V30 4844 H 460.418 -6.51042 1.87484 0
M  V30 4845 H 461.361 -6.22638 3.37235 0
M  V30 4846 H 461.769 -5.32112 1.88461 0
M  V30 4847 N 461.167 -1.02423 -1.1978 0
M  V30 4848 C 462.413 -0.719051 -1.89625 0
M  V30 4849 C 462.746 0.750083 -1.7913 0
M  V30 4850 O 462.021 1.54574 -1.18056 0
M  V30 4851 C 462.304 -1.16499 -3.40735 0
M  V30 4852 C 462.157 -2.695 -3.60125 0
M  V30 4853 C 463.476 -0.742166 -4.33797 0
M  V30 4854 H 460.595 -0.26269 -0.688595 0
M  V30 4855 H 463.237 -1.27333 -1.41018 0
M  V30 4856 H 461.387 -0.69341 -3.82262 0
M  V30 4857 H 463.059 -3.24569 -3.278 0
M  V30 4858 H 461.302 -3.10113 -3.03336 0
M  V30 4859 H 461.973 -2.95757 -4.66081 0
M  V30 4860 H 464.449 -1.1477 -3.99959 0
M  V30 4861 H 463.325 -1.08213 -5.38127 0
M  V30 4862 H 463.586 0.355747 -4.40666 0
M  V30 4863 N 462.645 1.35699 -0.801477 0
M  V30 4864 C 463.891 1.99208 -0.380022 0
M  V30 4865 C 464.224 1.63445 1.04878 0
M  V30 4866 O 463.499 0.895223 1.72673 0
M  V30 4867 C 463.782 3.55755 -0.557708 0
M  V30 4868 C 463.635 4.01332 -2.03107 0
M  V30 4869 C 464.954 4.40096 0.0197968 0
M  V30 4870 H 462.073 0.723667 -0.139552 0
M  V30 4871 H 464.715 1.60928 -1.01006 0
M  V30 4872 H 462.865 3.88494 -0.0213741 0
M  V30 4873 H 464.537 3.79026 -2.62939 0
M  V30 4874 H 462.78 3.52429 -2.52936 0
M  V30 4875 H 463.451 5.10234 -2.1063 0
M  V30 4876 H 465.927 4.13786 -0.438179 0
M  V30 4877 H 464.803 5.48735 -0.134477 0
M  V30 4878 H 465.064 4.2786 1.11303 0
M  V30 4879 N 464.123 0.554532 1.47522 0
M  V30 4880 C 465.369 0.0295227 2.02779 0
M  V30 4881 C 465.702 -1.31582 1.42828 0
M  V30 4882 O 464.977 -1.85561 0.582872 0
M  V30 4883 C 465.26 -0.0664057 3.60039 0
M  V30 4884 C 465.113 1.30585 4.30427 0
M  V30 4885 C 466.432 -0.781162 4.33112 0
M  V30 4886 H 463.551 0.0122027 0.736899 0
M  V30 4887 H 466.193 0.716305 1.7598 0
M  V30 4888 H 464.343 -0.651307 3.83002 0
M  V30 4889 H 466.015 1.93374 4.18813 0
M  V30 4890 H 464.258 1.88125 3.90886 0
M  V30 4891 H 464.929 1.19147 5.38988 0
M  V30 4892 H 467.405 -0.284565 4.15126 0
M  V30 4893 H 466.281 -0.817237 5.42782 0
M  V30 4894 H 466.542 -1.83672 4.0214 0
M  V30 4895 N 465.601 -1.54893 0.290851 0
M  V30 4896 C 466.564 -2.21824 -0.576784 0
M  V30 4897 C 467.564 -1.20104 -1.06919 0
M  V30 4898 O 468.754 -1.44906 -0.966843 0
M  V30 4899 C 465.886 -2.89662 -1.79747 0
M  V30 4900 H 467.079 -2.99899 0.00784051 0
M  V30 4901 H 464.632 -1.56245 0.0415934 0
M  V30 4902 H 465.367 -2.15639 -2.42219 0
M  V30 4903 H 465.152 -3.64219 -1.45214 0
M  V30 4904 H 466.642 -3.4075 -2.4141 0
M  V30 4905 N 467.08 -0.0183926 -1.57589 0
M  V30 4906 C 468.329 0.66185 -1.90532 0
M  V30 4907 C 468.642 1.73904 -0.895366 0
M  V30 4908 O 469.848 2.47518 -1.11566 0
M  V30 4909 C 468.304 1.22844 -3.38286 0
M  V30 4910 C 467.912 0.185103 -4.47617 0
M  V30 4911 C 469.656 1.88581 -3.80312 0
M  V30 4912 C 467.563 0.762723 -5.86461 0
M  V30 4913 H 466.493 0.250972 -0.711006 0
M  V30 4914 H 469.144 -0.0819435 -1.83317 0
M  V30 4915 H 467.526 2.0235 -3.40398 0
M  V30 4916 H 468.7 -0.58671 -4.5705 0
M  V30 4917 H 467.015 -0.372889 -4.14727 0
M  V30 4918 H 469.612 2.32735 -4.81392 0
M  V30 4919 H 469.955 2.72408 -3.14801 0
M  V30 4920 H 470.488 1.15782 -3.80578 0
M  V30 4921 H 467.227 -0.0371713 -6.55489 0
M  V30 4922 H 466.747 1.50327 -5.80656 0
M  V30 4923 H 468.426 1.25576 -6.34697 0
M  V30 4924 N 468.558 1.5553 0.254621 0
M  V30 4925 C 469.49 1.86104 1.33783 0
M  V30 4926 C 470.503 0.746752 1.44663 0
M  V30 4927 O 471.692 1.0248 1.46151 0
M  V30 4928 C 468.792 2.02532 2.71724 0
M  V30 4929 C 467.965 3.33335 2.83208 0
M  V30 4930 C 467.024 3.396 4.01943 0
M  V30 4931 O 466.05 4.12862 3.91834 0
M  V30 4932 N 467.252 2.68332 5.1476 0
M  V30 4933 H 470.017 2.79605 1.07893 0
M  V30 4934 H 467.578 1.55672 0.444732 0
M  V30 4935 H 469.57 2.04074 3.4948 0
M  V30 4936 H 468.14 1.15811 2.90356 0
M  V30 4937 H 467.36 3.44176 1.92189 0
M  V30 4938 H 468.648 4.19565 2.87824 0
M  V30 4939 H 468.046 2.08528 5.25864 0
M  V30 4940 H 466.603 2.75575 5.90679 0
M  V30 4941 N 470.036 -0.519951 1.48776 0
M  V30 4942 C 471.285 -1.27175 1.56555 0
M  V30 4943 C 471.598 -1.9401 0.248869 0
M  V30 4944 O 472.804 -2.70725 0.205004 0
M  V30 4945 C 471.26 -2.30811 2.76142 0
M  V30 4946 C 470.868 -1.7 4.14493 0
M  V30 4947 C 472.612 -3.06937 2.9324 0
M  V30 4948 C 470.519 -2.71635 5.25327 0
M  V30 4949 H 469.449 -0.478329 0.582853 0
M  V30 4950 H 472.1 -0.547916 1.75129 0
M  V30 4951 H 470.482 -3.06274 2.51023 0
M  V30 4952 H 471.656 -1.00658 4.49672 0
M  V30 4953 H 469.971 -1.06331 4.02595 0
M  V30 4954 H 472.568 -3.82905 3.73213 0
M  V30 4955 H 472.911 -3.63409 2.03075 0
M  V30 4956 H 473.444 -2.38589 3.18308 0
M  V30 4957 H 470.183 -2.1997 6.1749 0
M  V30 4958 H 469.703 -3.39275 4.94624 0
M  V30 4959 H 471.382 -3.34429 5.53865 0
M  V30 4960 N 471.514 -1.37532 -0.769588 0
M  V30 4961 C 472.444 -1.36172 -1.89682 0
M  V30 4962 C 473.425 -0.23001 -1.68538 0
M  V30 4963 O 474.61 -0.43069 -1.89364 0
M  V30 4964 C 471.74 -1.1701 -3.26995 0
M  V30 4965 C 470.694 -2.27216 -3.62708 0
M  V30 4966 C 470.02 -1.93174 -4.98586 0
M  V30 4967 C 471.32 -3.6941 -3.69234 0
M  V30 4968 H 473.014 -2.30499 -1.91078 0
M  V30 4969 H 470.56 -1.10953 -0.917902 0
M  V30 4970 H 472.513 -1.14688 -4.05493 0
M  V30 4971 H 471.237 -0.191395 -3.26039 0
M  V30 4972 H 469.896 -2.28697 -2.86519 0
M  V30 4973 H 469.544 -0.938281 -4.94171 0
M  V30 4974 H 469.244 -2.66973 -5.23449 0
M  V30 4975 H 470.768 -1.92443 -5.79481 0
M  V30 4976 H 472.182 -3.70047 -4.37879 0
M  V30 4977 H 470.579 -4.4228 -4.05597 0
M  V30 4978 H 471.649 -4.0288 -2.69844 0
M  V30 4979 N 472.992 0.995999 -1.22138 0
M  V30 4980 C 474.408 1.25917 -0.980667 0
M  V30 4981 C 474.608 1.98819 0.327604 0
M  V30 4982 O 473.664 2.29587 1.05101 0
M  V30 4983 C 474.977 2.07399 -2.17729 0
M  V30 4984 C 476.525 2.20594 -2.22052 0
M  V30 4985 C 477 3.05462 -3.41258 0
M  V30 4986 N 478.491 3.13049 -3.41401 0
M  V30 4987 C 479.226 3.78997 -4.30289 0
M  V30 4988 N 478.722 4.46899 -5.2939 0
M  V30 4989 N 480.515 3.75728 -4.18073 0
M  V30 4990 H 472.666 0.507158 -2.06256 0
M  V30 4991 H 474.929 0.28658 -0.903646 0
M  V30 4992 H 474.635 1.61191 -3.12586 0
M  V30 4993 H 474.509 3.08154 -2.17534 0
M  V30 4994 H 476.896 2.66017 -1.27745 0
M  V30 4995 H 476.977 1.1928 -2.26287 0
M  V30 4996 H 476.621 2.60739 -4.35864 0
M  V30 4997 H 476.551 4.06911 -3.34262 0
M  V30 4998 H 479.042 2.64721 -2.69688 0
M  V30 4999 H 479.355 4.94952 -5.935 0
M  V30 5000 H 477.7 4.45657 -5.33306 0
M  V30 5001 H 480.891 3.2184 -3.39907 0
M  V30 5002 H 481.064 4.26845 -4.87553 0
M  V30 5003 N 474.47 1.03057 1.19235 0
M  V30 5004 C 475.417 0.612832 2.22515 0
M  V30 5005 C 476.387 -0.374224 1.61829 0
M  V30 5006 O 477.572 -0.270501 1.88873 0
M  V30 5007 C 474.712 -0.028475 3.45088 0
M  V30 5008 C 473.825 1.00483 4.20151 0
M  V30 5009 C 472.96 0.333102 5.30155 0
M  V30 5010 C 471.999 1.3522 5.96977 0
M  V30 5011 N 471.136 0.70616 6.9854 0
M  V30 5012 H 475.976 1.49812 2.57605 0
M  V30 5013 H 473.513 0.749658 1.26564 0
M  V30 5014 H 475.471 -0.417548 4.15105 0
M  V30 5015 H 474.101 -0.877334 3.10649 0
M  V30 5016 H 473.153 1.51194 3.49062 0
M  V30 5017 H 474.465 1.77929 4.65986 0
M  V30 5018 H 473.619 -0.110725 6.06599 0
M  V30 5019 H 472.358 -0.473547 4.85396 0
M  V30 5020 H 471.363 1.80627 5.19282 0
M  V30 5021 H 472.588 2.16037 6.4382 0
M  V30 5022 H 470.534 -0.0803667 6.55951 0
M  V30 5023 H 470.451 1.41848 7.42573 0
M  V30 5024 H 471.719 0.286391 7.78974 0
M  V30 5025 N 475.948 -1.35272 0.808662 0
M  V30 5026 C 476.896 -2.31663 0.208606 0
M  V30 5027 C 477.89 -1.56731 -0.642778 0
M  V30 5028 O 479.096 -1.71843 -0.53571 0
M  V30 5029 H 475.471 -0.750421 0.0486993 0
M  V30 5030 H 477.442 -2.79814 1.03666 0
M  V30 5031 C 476.191 -3.42008 -0.626573 0
M  V30 5032 H 475.514 -3.99795 0.0192103 0
M  V30 5033 H 476.954 -4.11727 -1.01278 0
M  V30 5034 C 475.413 -2.85226 -1.79298 0
M  V30 5035 O 475.943 -2.78945 -2.89055 0
M  V30 5036 N 474.149 -2.42245 -1.60516 0
M  V30 5037 H 473.696 -2.47554 -0.712375 0
M  V30 5038 H 473.654 -2.04603 -2.38715 0
M  V30 5039 N 477.426 -0.562348 -1.47226 0
M  V30 5040 C 478.837 -0.130325 -1.86245 0
M  V30 5041 C 479.188 1.30128 -1.46838 0
M  V30 5042 O 478.313 1.97974 -0.873805 0
M  V30 5043 C 478.908 -0.229738 -3.3802 0
M  V30 5044 C 477.467 0.14728 -3.76112 0
M  V30 5045 C 476.614 -0.574971 -2.71274 0
M  V30 5046 H 479.565 -0.771773 -1.3867 0
M  V30 5047 H 479.586 0.550316 -3.76499 0
M  V30 5048 H 479.098 -1.27178 -3.66671 0
M  V30 5049 H 477.199 1.19023 -3.53078 0
M  V30 5050 H 477.312 -0.214858 -4.78618 0
M  V30 5051 H 475.676 -0.0174756 -2.54694 0
M  V30 5052 H 476.459 -1.61827 -3.02766 0
M  V30 5053 N 478.904 1.54736 -0.299062 0
M  V30 5054 C 479.851 2.23448 0.577899 0
M  V30 5055 C 480.821 1.21637 1.13109 0
M  V30 5056 O 482.006 1.50252 1.17597 0
M  V30 5057 C 479.146 2.9774 1.74484 0
M  V30 5058 C 478.259 4.1432 1.22323 0
M  V30 5059 C 477.394 4.76199 2.35388 0
M  V30 5060 C 476.433 5.84927 1.80351 0
M  V30 5061 N 475.57 6.4077 2.86982 0
M  V30 5062 H 480.41 2.97996 -0.0146545 0
M  V30 5063 H 477.947 1.47088 -0.0190013 0
M  V30 5064 H 479.905 3.39045 2.43114 0
M  V30 5065 H 478.535 2.25572 2.30905 0
M  V30 5066 H 477.587 3.7797 0.429249 0
M  V30 5067 H 478.899 4.92659 0.780309 0
M  V30 5068 H 478.053 5.20346 3.11969 0
M  V30 5069 H 476.792 3.97188 2.83006 0
M  V30 5070 H 475.797 5.40207 1.02259 0
M  V30 5071 H 477.022 6.65821 1.3364 0
M  V30 5072 H 474.968 5.64643 3.33938 0
M  V30 5073 H 474.885 7.1445 2.4718 0
M  V30 5074 H 476.153 6.89574 3.63466 0
M  V30 5075 N 480.382 0.0267497 1.57577 0
M  V30 5076 C 481.63 -0.651116 1.91324 0
M  V30 5077 C 481.951 -1.72804 0.90353 0
M  V30 5078 O 481.221 -1.95822 -0.0552946 0
M  V30 5079 H 479.801 -0.243491 0.706202 0
M  V30 5080 H 482.463 0.0739935 1.94759 0
M  V30 5081 H 481.559 -1.10536 2.9187 0
M  V30 5082 N 481.861 -1.55662 -0.24637 0
M  V30 5083 C 483.108 -1.77519 -0.974335 0
M  V30 5084 C 483.436 -0.591165 -1.85298 0
M  V30 5085 O 482.691 0.425497 -1.91018 0
M  V30 5086 C 482.99 -3.04885 -1.86494 0
M  V30 5087 C 482.656 -4.36209 -1.14161 0
M  V30 5088 C 481.318 -4.71896 -0.941701 0
M  V30 5089 C 483.67 -5.17391 -0.628957 0
M  V30 5090 C 480.998 -5.86299 -0.216852 0
M  V30 5091 C 483.35 -6.32546 0.0824273 0
M  V30 5092 C 482.014 -6.66853 0.293807 0
M  V30 5093 H 481.284 -0.649588 -0.356535 0
M  V30 5094 H 483.931 -1.89934 -0.244394 0
M  V30 5095 H 482.236 -2.87484 -2.66196 0
M  V30 5096 H 483.933 -3.18994 -2.42989 0
M  V30 5097 H 480.523 -4.08174 -1.30736 0
M  V30 5098 H 484.707 -4.90276 -0.770943 0
M  V30 5099 H 479.963 -6.11385 -0.0426124 0
M  V30 5100 H 484.137 -6.94693 0.487292 0
M  V30 5101 H 481.764 -7.55349 0.857428 0
M  V30 5102 N 483.339 0.512053 -1.4905 0
M  V30 5103 C 484.586 1.26686 -1.57978 0
M  V30 5104 C 484.914 1.92733 -0.261553 0
M  V30 5105 O 484.169 1.80772 0.749667 0
M  V30 5106 C 484.468 2.36446 -2.68008 0
M  V30 5107 C 484.134 1.87932 -4.09869 0
M  V30 5108 C 482.796 1.74419 -4.48477 0
M  V30 5109 C 485.148 1.5149 -4.98698 0
M  V30 5110 C 482.476 1.22827 -5.73699 0
M  V30 5111 C 484.828 1.01355 -6.24428 0
M  V30 5112 C 483.492 0.864735 -6.61875 0
M  V30 5113 H 482.762 0.463577 -0.578081 0
M  V30 5114 H 485.409 0.569421 -1.82838 0
M  V30 5115 H 483.714 3.11933 -2.37076 0
M  V30 5116 H 485.411 2.9453 -2.72127 0
M  V30 5117 H 482.001 1.99405 -3.79389 0
M  V30 5118 H 486.185 1.60782 -4.69535 0
M  V30 5119 H 481.441 1.10008 -6.01422 0
M  V30 5120 H 485.615 0.722351 -6.92644 0
M  V30 5121 H 483.242 0.462777 -7.5879 0
M  V30 5122 N 484.817 1.37938 0.762283 0
M  V30 5123 C 485.747 1.37176 1.88958 0
M  V30 5124 C 486.728 0.238945 1.68413 0
M  V30 5125 O 487.913 0.440726 1.89133 0
M  V30 5126 C 485.043 1.18742 3.2637 0
M  V30 5127 C 483.997 2.29136 3.61498 0
M  V30 5128 C 483.323 1.95816 4.97554 0
M  V30 5129 C 484.623 3.71363 3.6727 0
M  V30 5130 H 486.317 2.31509 1.89853 0
M  V30 5131 H 483.863 1.11438 0.912005 0
M  V30 5132 H 485.816 1.16837 4.04879 0
M  V30 5133 H 484.54 0.208683 3.25933 0
M  V30 5134 H 483.199 2.30213 2.85303 0
M  V30 5135 H 482.847 0.964475 4.93667 0
M  V30 5136 H 482.547 2.69745 5.22026 0
M  V30 5137 H 484.071 1.95513 5.78452 0
M  V30 5138 H 485.485 3.72364 4.35911 0
M  V30 5139 H 483.882 4.44425 4.03245 0
M  V30 5140 H 484.952 4.04305 2.67704 0
M  V30 5141 N 486.295 -0.989507 1.22664 0
M  V30 5142 C 487.225 -2.09847 1.02404 0
M  V30 5143 C 488.206 -1.70007 -0.0561303 0
M  V30 5144 O 489.391 -1.93906 0.106748 0
M  V30 5145 C 486.521 -3.41996 0.604663 0
M  V30 5146 C 485.475 -3.95699 1.63115 0
M  V30 5147 C 484.801 -5.23936 1.0675 0
M  V30 5148 C 486.101 -4.25999 3.02196 0
M  V30 5149 H 487.795 -2.27054 1.95158 0
M  V30 5150 H 485.341 -1.09111 0.939727 0
M  V30 5151 H 487.294 -4.1899 0.45002 0
M  V30 5152 H 486.018 -3.24626 -0.35855 0
M  V30 5153 H 484.677 -3.2084 1.77362 0
M  V30 5154 H 484.325 -5.02909 0.0955422 0
M  V30 5155 H 484.025 -5.60833 1.75328 0
M  V30 5156 H 485.549 -6.0356 0.924516 0
M  V30 5157 H 486.963 -4.93777 2.91303 0
M  V30 5158 H 485.36 -4.74076 3.67929 0
M  V30 5159 H 486.43 -3.33636 3.51873 0
M  V30 5160 N 487.773 -1.03688 -1.18687 0
M  V30 5161 C 489.019 -0.739123 -1.88851 0
M  V30 5162 C 489.352 0.731042 -1.79915 0
M  V30 5163 O 488.627 1.53313 -1.19688 0
M  V30 5164 C 488.91 -1.20106 -3.3948 0
M  V30 5165 C 488.763 -2.73304 -3.57246 0
M  V30 5166 C 490.082 -0.788134 -4.32986 0
M  V30 5167 H 487.201 -0.269978 -0.68577 0
M  V30 5168 H 489.843 -1.28822 -1.3966 0
M  V30 5169 H 487.993 -0.733915 -3.81505 0
M  V30 5170 H 489.665 -3.28027 -3.24339 0
M  V30 5171 H 487.908 -3.13313 -3.00029 0
M  V30 5172 H 488.579 -3.00684 -4.62918 0
M  V30 5173 H 491.055 -1.19005 -3.98719 0
M  V30 5174 H 489.931 -1.13915 -5.36949 0
M  V30 5175 H 490.192 0.308988 -4.41019 0
M  V30 5176 N 489.251 1.34841 -0.815825 0
M  V30 5177 C 490.161 2.33425 -0.234462 0
M  V30 5178 C 491.177 1.62295 0.627413 0
M  V30 5179 O 492.353 1.94109 0.536987 0
M  V30 5180 C 489.418 3.41471 0.599849 0
M  V30 5181 C 488.479 4.28362 -0.283596 0
M  V30 5182 C 487.712 5.31248 0.51099 0
M  V30 5183 O 487.935 5.43056 1.7449 0
M  V30 5184 O 486.869 6.01812 -0.10297 0
M  V30 5185 H 490.695 2.84962 -1.05024 0
M  V30 5186 H 488.28 1.37774 -0.577809 0
M  V30 5187 H 490.162 4.07464 1.07475 0
M  V30 5188 H 488.837 2.9219 1.39308 0
M  V30 5189 H 487.744 3.65318 -0.805836 0
M  V30 5190 H 489.077 4.81066 -1.041 0
M  V30 5191 N 490.729 0.570148 1.46925 0
M  V30 5192 C 491.977 0.0508523 2.02036 0
M  V30 5193 C 492.298 -1.30885 1.44548 0
M  V30 5194 O 491.568 -1.85647 0.625453 0
M  V30 5195 H 490.148 0.0158088 0.746833 0
M  V30 5196 H 492.81 0.743086 1.80178 0
M  V30 5197 H 491.906 -0.027575 3.12088 0
M  V30 5198 N 492.207 -1.54576 0.307264 0
M  V30 5199 C 493.455 -1.99867 -0.299574 0
M  V30 5200 C 493.776 -1.19714 -1.53927 0
M  V30 5201 O 493.046 -0.29472 -1.9367 0
M  V30 5202 H 491.626 -0.738299 -0.113683 0
M  V30 5203 H 494.288 -1.9032 0.420042 0
M  V30 5204 H 493.384 -3.06901 -0.567283 0
M  V30 5205 N 493.685 -0.035106 -1.57561 0
M  V30 5206 C 495.101 0.321334 -1.56332 0
M  V30 5207 C 495.301 1.72509 -1.04129 0
M  V30 5208 O 494.357 2.4287 -0.690694 0
M  V30 5209 C 495.67 0.164469 -3.0025 0
M  V30 5210 C 497.218 0.236786 -3.12103 0
M  V30 5211 C 497.693 0.10864 -4.57871 0
M  V30 5212 N 499.184 0.165433 -4.62904 0
M  V30 5213 C 499.919 0.0901506 -5.73329 0
M  V30 5214 N 499.415 -0.0365606 -6.9279 0
M  V30 5215 N 501.208 0.144572 -5.61914 0
M  V30 5216 H 493.359 -0.952976 -1.89821 0
M  V30 5217 H 495.622 -0.368537 -0.873432 0
M  V30 5218 H 495.328 -0.802746 -3.42416 0
M  V30 5219 H 495.202 0.932194 -3.655 0
M  V30 5220 H 497.589 1.19446 -2.69845 0
M  V30 5221 H 497.67 -0.561419 -2.49563 0
M  V30 5222 H 497.314 -0.845644 -5.00811 0
M  V30 5223 H 497.244 0.925786 -5.18398 0
M  V30 5224 H 499.735 0.263269 -3.76982 0
M  V30 5225 H 500.048 -0.0871487 -7.72751 0
M  V30 5226 H 498.393 -0.0714256 -6.94963 0
M  V30 5227 H 501.584 0.242006 -4.67474 0
M  V30 5228 H 501.757 0.0824413 -6.47948 0
M  V30 5229 N 495.163 1.55791 0.238111 0
M  V30 5230 C 496.412 1.77234 0.962868 0
M  V30 5231 C 496.725 0.600661 1.86149 0
M  V30 5232 O 497.931 0.698315 2.62366 0
M  V30 5233 C 496.387 3.13808 1.76218 0
M  V30 5234 C 495.995 4.3865 0.910518 0
M  V30 5235 C 497.739 3.44585 2.47914 0
M  V30 5236 C 495.646 5.66252 1.70623 0
M  V30 5237 H 494.576 0.660731 0.36325 0
M  V30 5238 H 497.227 1.8221 0.217242 0
M  V30 5239 H 495.609 3.02963 2.55009 0
M  V30 5240 H 496.783 4.60507 0.164316 0
M  V30 5241 H 495.098 4.15271 0.30647 0
M  V30 5242 H 497.695 4.3714 3.07917 0
M  V30 5243 H 498.038 2.66314 3.19973 0
M  V30 5244 H 498.571 3.56685 1.76127 0
M  V30 5245 H 495.31 6.47369 1.02923 0
M  V30 5246 H 494.83 5.48483 2.42748 0
M  V30 5247 H 496.509 6.05829 2.27114 0
M  V30 5248 N 496.642 -0.504142 1.49319 0
M  V30 5249 C 497.919 -1.26548 1.49147 0
M  V30 5250 C 498.299 -2.09977 0.21744 0
M  V30 5251 O 497.647 -2.14028 -0.800269 0
M  V30 5252 C 497.857 -2.12489 2.76857 0
M  V30 5253 C 499.205 -2.7178 3.26222 0
M  V30 5254 O 500.229 -2.22758 2.77952 0
M  V30 5255 O 499.088 -3.61015 4.10281 0
M  V30 5256 H 496.182 -0.572495 0.596806 0
M  V30 5257 H 498.728 -0.51867 1.61579 0
M  V30 5258 H 497.5 -1.50796 3.61077 0
M  V30 5259 H 497.123 -2.94368 2.6727 0
M  V30 5260 N 498.12 -1.38341 -0.754957 0
M  V30 5261 C 499.07 -1.31964 -1.85929 0
M  V30 5262 C 500.054 -0.204181 -1.59599 0
M  V30 5263 O 501.246 -0.440036 -1.71443 0
M  V30 5264 C 498.375 -1.14565 -3.2362 0
M  V30 5265 C 497.461 -2.30727 -3.55846 0
M  V30 5266 N 497.852 -3.56165 -3.59138 0
M  V30 5267 C 496.15 -2.23249 -3.86104 0
M  V30 5268 C 496.851 -4.32865 -3.88591 0
M  V30 5269 N 495.827 -3.62203 -4.05351 0
M  V30 5270 H 499.629 -2.2694 -1.8675 0
M  V30 5271 H 497.143 -1.31553 -0.952243 0
M  V30 5272 H 499.14 -1.0808 -4.02647 0
M  V30 5273 H 497.8 -0.205212 -3.24051 0
M  V30 5274 H 498.811 -3.89854 -3.40932 0
M  V30 5275 H 495.488 -1.37357 -3.94258 0
M  V30 5276 H 496.878 -5.41504 -3.97773 0
M  V30 5277 N 499.598 0.982988 -1.23187 0
M  V30 5278 C 500.846 1.72052 -1.06031 0
M  V30 5279 C 501.167 1.90769 0.404019 0
M  V30 5280 O 500.437 1.47446 1.28982 0
M  V30 5281 H 499.017 0.637499 -0.389363 0
M  V30 5282 H 501.679 1.18338 -1.54862 0
M  V30 5283 H 500.775 2.7111 -1.54615 0
M  V30 5284 N 501.076 1.04316 1.18135 0
M  V30 5285 C 502.026 0.606731 2.19779 0
M  V30 5286 C 503.01 -0.352144 1.56999 0
M  V30 5287 O 504.202 -0.170795 1.76174 0
M  V30 5288 C 501.331 -0.0262443 3.4329 0
M  V30 5289 C 500.417 0.955928 4.13186 0
M  V30 5290 N 500.808 2.12395 4.59045 0
M  V30 5291 C 499.106 0.782473 4.39082 0
M  V30 5292 C 499.807 2.74458 5.12882 0
M  V30 5293 N 498.783 2.02316 5.04548 0
M  V30 5294 H 502.585 1.49679 2.5293 0
M  V30 5295 H 500.099 0.912088 1.34368 0
M  V30 5296 H 502.096 -0.356617 4.15372 0
M  V30 5297 H 500.756 -0.911811 3.11635 0
M  V30 5298 H 501.767 2.50272 4.53414 0
M  V30 5299 H 498.444 -0.0527906 4.17467 0
M  V30 5300 H 499.834 3.73459 5.5855 0
M  V30 5301 N 502.554 -1.34406 0.822964 0
M  V30 5302 C 503.504 -2.26963 0.217208 0
M  V30 5303 C 504.488 -1.48536 -0.618545 0
M  V30 5304 O 505.68 -1.7056 -0.473118 0
M  V30 5305 C 502.809 -3.37655 -0.619973 0
M  V30 5306 C 501.895 -4.23495 0.226411 0
M  V30 5307 N 502.286 -4.88876 1.29744 0
M  V30 5308 C 500.584 -4.45999 0.0107554 0
M  V30 5309 C 501.285 -5.52642 1.81553 0
M  V30 5310 N 500.261 -5.31949 1.11942 0
M  V30 5311 H 504.063 -2.75017 1.03647 0
M  V30 5312 H 501.577 -1.48126 0.665777 0
M  V30 5313 H 503.574 -4.02932 -1.07011 0
M  V30 5314 H 502.234 -2.91151 -1.43739 0
M  V30 5315 H 503.245 -4.89886 1.68024 0
M  V30 5316 H 499.922 -4.10253 -0.774495 0
M  V30 5317 H 501.312 -6.14755 2.71156 0
M  V30 5318 N 504.032 -0.577932 -1.46621 0
M  V30 5319 C 504.942 0.160651 -2.34049 0
M  V30 5320 C 505.958 0.890911 -1.49462 0
M  V30 5321 O 507.134 0.855166 -1.82343 0
M  V30 5322 C 504.199 1.16447 -3.26559 0
M  V30 5323 C 503.26 0.4394 -4.27045 0
M  V30 5324 C 502.493 1.3954 -5.15135 0
M  V30 5325 O 502.716 2.63162 -5.06065 0
M  V30 5326 O 501.65 0.908585 -5.95003 0
M  V30 5327 H 505.476 -0.557057 -2.98547 0
M  V30 5328 H 503.061 -0.338369 -1.45518 0
M  V30 5329 H 504.943 1.7434 -3.83645 0
M  V30 5330 H 503.618 1.86373 -2.64663 0
M  V30 5331 H 502.525 -0.181247 -3.73661 0
M  V30 5332 H 503.858 -0.218799 -4.91713 0
M  V30 5333 N 505.51 1.54411 -0.315457 0
M  V30 5334 C 506.758 2.00023 0.288971 0
M  V30 5335 C 507.079 1.20529 1.5329 0
M  V30 5336 O 506.349 0.304986 1.93511 0
M  V30 5337 H 504.929 0.738891 0.109766 0
M  V30 5338 H 507.591 1.90094 -0.430129 0
M  V30 5339 H 506.687 3.07198 0.550999 0
M  V30 5340 N 506.988 0.0434614 1.5754 0
M  V30 5341 C 507.935 -0.93356 2.11077 0
M  V30 5342 C 508.905 -1.31383 1.01626 0
M  V30 5343 O 510.09 -1.40465 1.29129 0
M  V30 5344 C 507.23 -2.20578 2.65404 0
M  V30 5345 C 506.343 -1.88068 3.88914 0
M  V30 5346 C 505.478 -3.09691 4.31584 0
M  V30 5347 C 504.517 -2.73067 5.47815 0
M  V30 5348 N 503.654 -3.87359 5.85574 0
M  V30 5349 H 508.494 -0.470118 2.94268 0
M  V30 5350 H 506.031 -0.220434 1.45439 0
M  V30 5351 H 507.989 -2.95011 2.94999 0
M  V30 5352 H 506.619 -2.64513 1.85021 0
M  V30 5353 H 505.671 -1.03816 3.6596 0
M  V30 5354 H 506.983 -1.57104 4.73413 0
M  V30 5355 H 506.137 -3.92431 4.62691 0
M  V30 5356 H 504.876 -3.43827 3.45882 0
M  V30 5357 H 503.881 -1.88742 5.16388 0
M  V30 5358 H 505.106 -2.40131 6.35227 0
M  V30 5359 H 503.052 -4.21311 5.02825 0
M  V30 5360 H 502.969 -3.60068 6.64746 0
M  V30 5361 H 504.237 -4.70761 6.21292 0
M  V30 5362 N 508.466 -1.55915 -0.229846 0
M  V30 5363 C 509.429 -1.90914 -1.26824 0
M  V30 5364 C 510.429 -0.786999 -1.40225 0
M  V30 5365 O 511.619 -1.05484 -1.38632 0
M  V30 5366 C 508.751 -2.15264 -2.64337 0
M  V30 5367 H 509.944 -2.8378 -0.969998 0
M  V30 5368 H 507.497 -1.49069 -0.4699 0
M  V30 5369 H 508.232 -1.24923 -2.99274 0
M  V30 5370 H 508.017 -2.97005 -2.55989 0
M  V30 5371 H 509.507 -2.43467 -3.39284 0
M  V30 5372 N 509.944 0.496216 -1.49584 0
M  V30 5373 C 510.891 1.59722 -1.66606 0
M  V30 5374 C 511.861 1.58158 -0.507477 0
M  V30 5375 O 513.046 1.76072 -0.735076 0
M  V30 5376 C 510.186 2.97844 -1.74308 0
M  V30 5377 C 509.299 3.09388 -3.01502 0
M  V30 5378 C 508.434 4.38271 -3.00153 0
M  V30 5379 C 507.473 4.43466 -4.21906 0
M  V30 5380 N 506.61 5.63784 -4.1844 0
M  V30 5381 H 511.45 1.44515 -2.60613 0
M  V30 5382 H 508.987 0.703048 -1.29212 0
M  V30 5383 H 510.945 3.77907 -1.76754 0
M  V30 5384 H 509.575 3.11743 -0.837619 0
M  V30 5385 H 508.627 2.22357 -3.08645 0
M  V30 5386 H 509.939 3.09085 -3.91494 0
M  V30 5387 H 509.093 5.2666 -3.01188 0
M  V30 5388 H 507.832 4.41146 -2.07947 0
M  V30 5389 H 506.837 3.53478 -4.21109 0
M  V30 5390 H 508.062 4.42303 -5.1531 0
M  V30 5391 H 506.008 5.67491 -3.29074 0
M  V30 5392 H 505.925 5.65118 -5.02173 0
M  V30 5393 H 507.193 6.54367 -4.23585 0
M  V30 5394 N 511.423 1.38739 0.74761 0
M  V30 5395 C 512.355 1.32341 1.87132 0
M  V30 5396 C 513.368 0.234502 1.61102 0
M  V30 5397 O 514.557 0.492516 1.71571 0
M  V30 5398 C 511.657 1.02915 3.22896 0
M  V30 5399 C 510.83 2.22834 3.76383 0
M  V30 5400 C 509.889 1.90059 4.90677 0
M  V30 5401 O 508.915 2.62615 5.04997 0
M  V30 5402 N 510.117 0.859141 5.74107 0
M  V30 5403 H 512.882 2.29175 1.93129 0
M  V30 5404 H 510.443 1.32678 0.927805 0
M  V30 5405 H 512.435 0.79031 3.96908 0
M  V30 5406 H 511.005 0.148572 3.12247 0
M  V30 5407 H 510.225 2.62747 2.93867 0
M  V30 5408 H 511.513 3.02851 4.08851 0
M  V30 5409 H 510.911 0.257564 5.65113 0
M  V30 5410 H 509.468 0.680189 6.48241 0
M  V30 5411 N 512.901 -0.976442 1.23707 0
M  V30 5412 C 513.864 -2.0511 1.02287 0
M  V30 5413 C 514.864 -1.60791 -0.0167195 0
M  V30 5414 O 516.054 -1.72761 0.223408 0
M  V30 5415 C 513.186 -3.36458 0.548507 0
M  V30 5416 H 514.379 -2.25545 1.9766 0
M  V30 5417 H 511.932 -1.15042 1.05806 0
M  V30 5418 H 512.667 -3.21713 -0.408818 0
M  V30 5419 H 512.452 -3.69967 1.29874 0
M  V30 5420 H 513.942 -4.15489 0.419406 0
M  V30 5421 N 514.379 -1.04941 -1.1758 0
M  V30 5422 C 515.309 -0.669172 -2.23706 0
M  V30 5423 C 516.29 0.331835 -1.66832 0
M  V30 5424 O 517.475 0.209988 -1.93061 0
M  V30 5425 C 514.605 -0.0404889 -3.47276 0
M  V30 5426 C 513.559 -0.965983 -4.16957 0
M  V30 5427 C 512.885 -0.201312 -5.34321 0
M  V30 5428 C 514.185 -2.28902 -4.69469 0
M  V30 5429 H 515.879 -1.55639 -2.55767 0
M  V30 5430 H 513.425 -0.749793 -1.22939 0
M  V30 5431 H 515.378 0.237298 -4.20731 0
M  V30 5432 H 514.102 0.881658 -3.14475 0
M  V30 5433 H 512.761 -1.22829 -3.45411 0
M  V30 5434 H 512.409 0.723519 -4.97769 0
M  V30 5435 H 512.109 -0.817968 -5.81879 0
M  V30 5436 H 513.633 0.0692499 -6.10561 0
M  V30 5437 H 515.047 -2.07132 -5.34574 0
M  V30 5438 H 513.444 -2.85942 -5.27596 0
M  V30 5439 H 514.514 -2.92937 -3.86414 0
M  V30 5440 N 515.857 1.33968 -0.830081 0
M  V30 5441 C 516.807 2.26845 -0.229242 0
M  V30 5442 C 517.791 1.48862 0.610659 0
M  V30 5443 O 518.983 1.70808 0.464067 0
M  V30 5444 C 516.112 3.3798 0.602057 0
M  V30 5445 C 515.198 4.23369 -0.248866 0
M  V30 5446 N 515.589 4.88182 -1.32334 0
M  V30 5447 C 513.887 4.45987 -0.0344077 0
M  V30 5448 C 514.588 5.51671 -1.84482 0
M  V30 5449 N 513.564 5.31348 -1.14762 0
M  V30 5450 H 517.366 2.74464 -1.05104 0
M  V30 5451 H 514.88 1.4777 -0.673623 0
M  V30 5452 H 516.877 4.03494 1.04873 0
M  V30 5453 H 515.537 2.9191 1.42193 0
M  V30 5454 H 516.548 4.88988 -1.70619 0
M  V30 5455 H 513.225 4.10658 0.752727 0
M  V30 5456 H 514.615 6.13308 -2.74413 0
M  V30 5457 N 517.335 0.585699 1.46312 0
M  V30 5458 C 518.245 -0.148236 2.34131 0
M  V30 5459 C 519.261 -0.882972 1.49932 0
M  V30 5460 O 520.437 -0.845484 1.82794 0
M  V30 5461 C 517.502 -1.14714 3.27172 0
M  V30 5462 C 516.563 -0.416746 4.27272 0
M  V30 5463 C 515.796 -1.36806 5.15868 0
M  V30 5464 O 516.019 -2.60475 5.07454 0
M  V30 5465 O 514.953 -0.877018 5.95476 0
M  V30 5466 H 518.779 0.572882 2.98248 0
M  V30 5467 H 516.364 0.346082 1.45336 0
M  V30 5468 H 518.246 -1.72303 3.84564 0
M  V30 5469 H 516.921 -1.84967 2.65648 0
M  V30 5470 H 515.828 0.201061 3.73559 0
M  V30 5471 H 517.161 0.244872 4.9159 0
M  V30 5472 N 518.813 -1.54241 0.323641 0
M  V30 5473 C 519.776 -2.22997 -0.529602 0
M  V30 5474 C 520.776 -1.22345 -1.04347 0
M  V30 5475 O 521.966 -1.46924 -0.935889 0
M  V30 5476 C 519.098 -2.93409 -1.73562 0
M  V30 5477 H 520.291 -2.99815 0.0714518 0
M  V30 5478 H 517.844 -1.56121 0.0747258 0
M  V30 5479 H 518.579 -2.20729 -2.37591 0
M  V30 5480 H 518.364 -3.67217 -1.37456 0
M  V30 5481 H 519.854 -3.45794 -2.34128 0
M  V30 5482 N 520.291 -0.0518155 -1.57515 0
M  V30 5483 C 521.537 0.622745 -1.93002 0
M  V30 5484 C 521.87 1.70456 -0.930499 0
M  V30 5485 O 521.145 1.94452 0.0434086 0
M  V30 5486 C 521.428 1.21824 -3.38867 0
M  V30 5487 C 521.281 0.144434 -4.49568 0
M  V30 5488 C 522.6 2.12968 -3.8514 0
M  V30 5489 H 519.719 0.22491 -0.701844 0
M  V30 5490 H 522.361 -0.113711 -1.89659 0
M  V30 5491 H 520.511 1.8459 -3.41846 0
M  V30 5492 H 522.183 -0.48753 -4.58717 0
M  V30 5493 H 520.426 -0.527424 -4.30582 0
M  V30 5494 H 521.097 0.601127 -5.48717 0
M  V30 5495 H 523.573 1.60163 -3.8404 0
M  V30 5496 H 522.449 2.51578 -4.87852 0
M  V30 5497 H 522.71 3.03004 -3.21934 0
M  V30 5498 N 521.769 1.56035 0.221574 0
M  V30 5499 C 522.679 1.95581 1.29558 0
M  V30 5500 C 523.695 0.859639 1.51282 0
M  V30 5501 O 524.871 1.16321 1.64413 0
M  V30 5502 C 521.936 2.26447 2.62531 0
M  V30 5503 C 520.997 3.49632 2.4911 0
M  V30 5504 C 520.23 3.79017 3.75742 0
M  V30 5505 O 520.453 3.10077 4.78757 0
M  V30 5506 O 519.387 4.72507 3.72855 0
M  V30 5507 H 523.213 2.8711 0.990035 0
M  V30 5508 H 520.798 1.43244 0.424434 0
M  V30 5509 H 522.68 2.47494 3.41064 0
M  V30 5510 H 521.355 1.38092 2.92766 0
M  V30 5511 H 520.262 3.33864 1.68777 0
M  V30 5512 H 521.595 4.3837 2.23814 0
M  V30 5513 N 523.247 -0.488276 1.49845 0
M  V30 5514 C 524.18 -1.60651 1.62069 0
M  V30 5515 C 525.158 -1.5568 0.469308 0
M  V30 5516 O 526.342 -1.75553 0.686551 0
M  V30 5517 C 523.469 -2.99197 1.58741 0
M  V30 5518 C 522.515 -3.22385 2.79232 0
M  V30 5519 S 523.348 -3.04133 4.40753 0
M  V30 5520 C 524.504 -4.45052 4.4009 0
M  V30 5521 H 524.737 -1.50039 2.56662 0
M  V30 5522 H 522.27 -0.674371 1.38894 0
M  V30 5523 H 524.228 -3.79081 1.57506 0
M  V30 5524 H 522.889 -3.07213 0.654136 0
M  V30 5525 H 522.082 -4.23557 2.73159 0
M  V30 5526 H 521.684 -2.50245 2.77945 0
M  V30 5527 H 523.976 -5.37375 4.12594 0
M  V30 5528 H 524.919 -4.56172 5.41583 0
M  V30 5529 H 525.327 -4.26327 3.70008 0
M  V30 5530 N 524.725 -1.39134 -0.740242 0
M  V30 5531 C 526.002 -1.26584 -1.49117 0
M  V30 5532 C 526.382 0.126902 -2.10718 0
M  V30 5533 O 525.73 1.13765 -1.98166 0
M  V30 5534 C 525.94 -2.38619 -2.54681 0
M  V30 5535 C 527.288 -2.77685 -3.21211 0
M  V30 5536 O 528.312 -2.38029 -2.64991 0
M  V30 5537 O 527.171 -3.46115 -4.22926 0
M  V30 5538 H 524.265 -0.495769 -0.661923 0
M  V30 5539 H 526.811 -1.50995 -0.774514 0
M  V30 5540 H 525.583 -3.3175 -2.07504 0
M  V30 5541 H 525.206 -2.15845 -3.33911 0
M  V30 5542 N 526.204 0.969867 -1.24223 0
M  V30 5543 C 527.62 1.23809 -1.00716 0
M  V30 5544 C 527.82 1.99469 0.285358 0
M  V30 5545 O 526.876 2.31764 1.00207 0
M  V30 5546 C 528.189 2.02734 -2.2208 0
M  V30 5547 C 529.737 2.15834 -2.26681 0
M  V30 5548 C 530.212 2.98154 -3.47661 0
M  V30 5549 N 531.703 3.05737 -3.47964 0
M  V30 5550 C 532.438 3.69785 -4.38231 0
M  V30 5551 N 531.934 4.35569 -5.3875 0
M  V30 5552 N 533.727 3.66775 -4.25949 0
M  V30 5553 H 525.878 0.463294 -2.07286 0
M  V30 5554 H 528.141 0.267348 -0.909521 0
M  V30 5555 H 527.847 1.54524 -3.15935 0
M  V30 5556 H 527.721 3.0347 -2.24021 0
M  V30 5557 H 530.108 2.63248 -1.33359 0
M  V30 5558 H 530.189 1.14453 -2.28767 0
M  V30 5559 H 529.833 2.51435 -4.41297 0
M  V30 5560 H 529.763 3.99729 -3.42818 0
M  V30 5561 H 532.254 2.58941 -2.75242 0
M  V30 5562 H 532.567 4.82251 -6.03866 0
M  V30 5563 H 530.912 4.34244 -5.42639 0
M  V30 5564 H 534.103 3.14558 -3.46657 0
M  V30 5565 H 534.276 4.16407 -4.96497 0
M  V30 5566 N 527.682 1.05563 1.17022 0
M  V30 5567 C 528.645 0.664098 2.19368 0
M  V30 5568 C 529.645 -0.286358 1.5823 0
M  V30 5569 O 530.835 -0.069728 1.7406 0
M  V30 5570 C 527.967 -0.0239932 3.40892 0
M  V30 5571 H 529.16 1.57 2.55521 0
M  V30 5572 H 526.713 0.849964 1.31169 0
M  V30 5573 H 527.448 -0.942988 3.10287 0
M  V30 5574 H 527.233 0.659351 3.86516 0
M  V30 5575 H 528.723 -0.283909 4.16634 0
M  V30 5576 N 529.16 -1.33526 0.837174 0
M  V30 5577 C 530.409 -1.97098 0.428387 0
M  V30 5578 C 530.722 -1.67062 -1.01734 0
M  V30 5579 O 531.928 -2.24235 -1.53072 0
M  V30 5580 C 530.384 -3.52725 0.715075 0
M  V30 5581 C 529.992 -3.9164 2.17537 0
M  V30 5582 C 531.736 -4.22857 0.373154 0
M  V30 5583 C 529.643 -5.40237 2.40619 0
M  V30 5584 H 528.573 -0.737589 0.156455 0
M  V30 5585 H 531.224 -1.52169 1.02552 0
M  V30 5586 H 529.606 -3.95971 0.0475904 0
M  V30 5587 H 530.78 -3.59456 2.88319 0
M  V30 5588 H 529.095 -3.34485 2.4801 0
M  V30 5589 H 531.692 -5.32133 0.523264 0
M  V30 5590 H 532.035 -4.10647 -0.683708 0
M  V30 5591 H 532.568 -3.85135 0.995801 0
M  V30 5592 H 529.307 -5.57449 3.44864 0
M  V30 5593 H 528.827 -5.73887 1.74396 0
M  V30 5594 H 530.506 -6.07102 2.23688 0
M  V30 5595 N 530.638 -0.59345 -1.46 0
M  V30 5596 C 531.886 -0.082988 -2.0193 0
M  V30 5597 C 532.207 1.28569 -1.46612 0
M  V30 5598 O 531.477 1.84629 -0.654909 0
M  V30 5599 H 530.057 -0.0276882 -0.746487 0
M  V30 5600 H 532.719 -0.771657 -1.78973 0
M  V30 5601 H 531.815 -0.022079 -3.12092 0
M  V30 5602 N 532.116 1.54067 -0.331816 0
M  V30 5603 C 533.048 2.22139 0.564538 0
M  V30 5604 C 534.061 1.22408 1.07332 0
M  V30 5605 O 535.25 1.4883 0.985481 0
M  V30 5606 C 532.35 2.87876 1.78831 0
M  V30 5607 C 531.523 4.13817 1.41682 0
M  V30 5608 C 530.582 4.63072 2.49901 0
M  V30 5609 O 529.608 5.27562 2.13699 0
M  V30 5610 N 530.81 4.38001 3.80967 0
M  V30 5611 H 533.575 2.99694 -0.0183736 0
M  V30 5612 H 531.136 1.61153 -0.155396 0
M  V30 5613 H 533.128 3.17747 2.50637 0
M  V30 5614 H 531.698 2.13977 2.27887 0
M  V30 5615 H 530.918 3.9062 0.530044 0
M  V30 5616 H 532.206 4.95762 1.14443 0
M  V30 5617 H 531.604 3.864 4.13173 0
M  V30 5618 H 530.161 4.72507 4.48977 0
M  V30 5619 N 533.594 0.0601682 1.57485 0
M  V30 5620 C 534.557 -0.896373 2.10945 0
M  V30 5621 C 535.557 -1.23402 1.03095 0
M  V30 5622 O 536.747 -1.16921 1.29132 0
M  V30 5623 C 533.879 -2.20346 2.60116 0
M  V30 5624 H 535.072 -0.432778 2.96761 0
M  V30 5625 H 532.625 -0.188372 1.55161 0
M  V30 5626 H 533.36 -2.71268 1.7772 0
M  V30 5627 H 533.145 -1.9714 3.38937 0
M  V30 5628 H 534.635 -2.88846 3.01592 0
M  V30 5629 N 535.072 -1.5615 -0.213296 0
M  V30 5630 C 536.32 -1.79191 -0.934612 0
M  V30 5631 C 536.641 -0.630112 -1.84539 0
M  V30 5632 O 535.911 0.35257 -1.92701 0
M  V30 5633 H 534.491 -0.660937 -0.348097 0
M  V30 5634 H 537.153 -1.93618 -0.22317 0
M  V30 5635 H 536.249 -2.71656 -1.53654 0
M  V30 5636 N 536.55 0.480323 -1.50102 0
M  V30 5637 C 537.775 1.26126 -1.64642 0
M  V30 5638 C 538.2 1.85257 -0.325823 0
M  V30 5639 O 537.558 1.66854 0.709194 0
M  V30 5640 C 537.606 2.35243 -2.73301 0
M  V30 5641 O 536.71 3.39646 -2.33911 0
M  V30 5642 H 536.051 0.371463 -0.550374 0
M  V30 5643 H 538.581 0.572696 -1.96421 0
M  V30 5644 H 538.591 2.80695 -2.96098 0
M  V30 5645 H 537.266 1.91574 -3.6915 0
M  V30 5646 H 535.843 2.99969 -2.21525 0
M  V30 5647 N 538.028 1.39524 0.732853 0
M  V30 5648 C 538.958 1.41153 1.86005 0
M  V30 5649 C 539.939 0.274614 1.67869 0
M  V30 5650 O 541.124 0.480745 1.88155 0
M  V30 5651 C 538.254 1.25638 3.23778 0
M  V30 5652 C 537.208 2.36752 3.56556 0
M  V30 5653 C 536.534 2.06326 4.93289 0
M  V30 5654 C 537.834 3.79069 3.5931 0
M  V30 5655 H 539.528 2.35484 1.84899 0
M  V30 5656 H 537.074 1.13348 0.888162 0
M  V30 5657 H 539.027 1.25398 4.0231 0
M  V30 5658 H 537.751 0.277772 3.25417 0
M  V30 5659 H 536.41 2.36213 2.80355 0
M  V30 5660 H 536.058 1.06897 4.9151 0
M  V30 5661 H 535.758 2.80757 5.16187 0
M  V30 5662 H 537.282 2.07739 5.74175 0
M  V30 5663 H 538.696 3.81526 4.27914 0
M  V30 5664 H 537.093 4.52878 3.93728 0
M  V30 5665 H 538.163 4.09893 2.59068 0
M  V30 5666 N 539.506 -0.963266 1.24736 0
M  V30 5667 C 540.734 -1.74166 1.11686 0
M  V30 5668 C 541.149 -1.8589 -0.330187 0
M  V30 5669 O 540.506 -1.35042 -1.2276 0
M  V30 5670 C 540.557 -3.15989 1.75595 0
M  V30 5671 O 540.278 -3.04847 3.14642 0
M  V30 5672 C 541.779 -4.10145 1.68213 0
M  V30 5673 H 538.999 -0.546031 0.389989 0
M  V30 5674 H 541.543 -1.20907 1.64929 0
M  V30 5675 H 539.698 -3.66219 1.26343 0
M  V30 5676 H 540.112 -3.9425 3.4593 0
M  V30 5677 H 541.586 -5.07299 2.17604 0
M  V30 5678 H 542.063 -4.3445 0.644208 0
M  V30 5679 H 542.669 -3.65827 2.16912 0
M  V30 5680 N 540.985 -1.06182 -1.16461 0
M  V30 5681 C 542.21 -0.798599 -1.91408 0
M  V30 5682 C 542.635 0.640987 -1.76842 0
M  V30 5683 O 541.993 1.44652 -1.09296 0
M  V30 5684 C 542.041 -1.19665 -3.40165 0
M  V30 5685 O 541.145 -0.334768 -4.11039 0
M  V30 5686 H 540.486 -0.291961 -0.596368 0
M  V30 5687 H 543.016 -1.41732 -1.47557 0
M  V30 5688 H 543.026 -1.16772 -3.90933 0
M  V30 5689 H 541.701 -2.24526 -3.50087 0
M  V30 5690 H 540.278 -0.425168 -3.70468 0
M  V30 5691 N 542.463 1.3308 -0.844243 0
M  V30 5692 C 543.688 2.02341 -0.455282 0
M  V30 5693 C 544.113 1.6308 0.93737 0
M  V30 5694 O 543.471 0.826118 1.61385 0
M  V30 5695 C 543.519 3.55743 -0.58988 0
M  V30 5696 O 542.623 4.1063 0.38166 0
M  V30 5697 H 541.964 0.637898 -0.184343 0
M  V30 5698 H 544.494 1.6986 -1.14056 0
M  V30 5699 H 544.504 4.05243 -0.473522 0
M  V30 5700 H 543.179 3.83662 -1.60549 0
M  V30 5701 H 541.756 3.72236 0.22241 0
M  V30 5702 N 543.941 0.601185 1.45683 0
M  V30 5703 C 544.851 -0.123395 2.34275 0
M  V30 5704 C 545.867 -0.86702 1.5086 0
M  V30 5705 O 547.043 -0.826049 1.8368 0
M  V30 5706 C 544.108 -1.11237 3.2837 0
M  V30 5707 C 543.169 -0.371405 4.2769 0
M  V30 5708 C 542.402 -1.31327 5.1729 0
M  V30 5709 O 542.625 -2.55078 5.10188 0
M  V30 5710 O 541.559 -0.813811 5.96373 0
M  V30 5711 H 545.385 0.604483 2.97623 0
M  V30 5712 H 542.97 0.361477 1.44961 0
M  V30 5713 H 544.852 -1.68214 3.8637 0
M  V30 5714 H 543.527 -1.82139 2.67595 0
M  V30 5715 H 542.434 0.24067 3.73325 0
M  V30 5716 H 543.767 0.296998 4.91303 0
M  V30 5717 N 545.419 -1.53889 0.339982 0
M  V30 5718 C 546.696 -1.93084 -0.312719 0
M  V30 5719 C 547.076 -1.2712 -1.68534 0
M  V30 5720 O 546.424 -0.420835 -2.24591 0
M  V30 5721 C 546.634 -3.4683 -0.388558 0
M  V30 5722 C 547.982 -4.19732 -0.641088 0
M  V30 5723 O 549.006 -3.53075 -0.470818 0
M  V30 5724 O 547.865 -5.3781 -0.970685 0
M  V30 5725 H 544.959 -0.806784 -0.18174 0
M  V30 5726 H 547.505 -1.65137 0.390898 0
M  V30 5727 H 546.277 -3.87055 0.574821 0
M  V30 5728 H 545.9 -3.80933 -1.1391 0
M  V30 5729 N 546.897 -0.0685191 -1.57451 0
M  V30 5730 C 548.125 0.610462 -1.97689 0
M  V30 5731 C 548.54 1.63346 -0.946758 0
M  V30 5732 O 547.897 1.82377 0.0669868 0
M  V30 5733 C 547.948 1.28196 -3.38006 0
M  V30 5734 O 547.669 0.299906 -4.37072 0
M  V30 5735 C 549.17 2.04907 -3.931 0
M  V30 5736 H 546.39 0.165689 -0.650222 0
M  V30 5737 H 548.934 -0.139953 -2.04021 0
M  V30 5738 H 547.089 1.98348 -3.32771 0
M  V30 5739 H 547.503 0.78126 -5.18649 0
M  V30 5740 H 548.977 2.47287 -4.93511 0
M  V30 5741 H 549.454 2.9043 -3.29465 0
M  V30 5742 H 550.06 1.39629 -4.01726 0
M  V30 5743 N 548.375 1.56261 0.205012 0
M  V30 5744 C 549.305 1.96779 1.257 0
M  V30 5745 C 550.286 0.838309 1.48008 0
M  V30 5746 O 551.471 1.10189 1.59913 0
M  V30 5747 C 548.601 2.29876 2.60335 0
M  V30 5748 C 547.555 3.45469 2.52656 0
M  V30 5749 C 546.881 3.64215 3.91473 0
M  V30 5750 C 548.181 4.79954 2.06014 0
M  V30 5751 H 549.875 2.84904 0.920338 0
M  V30 5752 H 547.421 1.37072 0.441277 0
M  V30 5753 H 549.374 2.56814 3.34102 0
M  V30 5754 H 548.098 1.38622 2.95722 0
M  V30 5755 H 546.757 3.18605 1.81345 0
M  V30 5756 H 546.405 2.70309 4.24196 0
M  V30 5757 H 546.105 4.41973 3.87213 0
M  V30 5758 H 547.629 3.93519 4.66878 0
M  V30 5759 H 549.043 5.05989 2.69533 0
M  V30 5760 H 547.44 5.61111 2.12777 0
M  V30 5761 H 548.51 4.74201 1.01297 0
M  V30 5762 N 549.853 -0.472356 1.50355 0
M  V30 5763 C 551.081 -1.24784 1.65035 0
M  V30 5764 C 551.496 -1.85837 0.333176 0
M  V30 5765 O 550.853 -1.69168 -0.68472 0
M  V30 5766 C 550.904 -2.35747 2.74054 0
M  V30 5767 O 550.625 -1.77197 4.00665 0
M  V30 5768 C 552.126 -3.26645 2.99696 0
M  V30 5769 H 549.346 -0.377432 0.554785 0
M  V30 5770 H 551.89 -0.563962 1.9657 0
M  V30 5771 H 550.045 -2.99912 2.45217 0
M  V30 5772 H 550.459 -2.5026 4.60945 0
M  V30 5773 H 551.933 -4.00718 3.79644 0
M  V30 5774 H 552.41 -3.8535 2.10718 0
M  V30 5775 H 553.016 -2.68218 3.3006 0
M  V30 5776 N 551.331 -1.39911 -0.725443 0
M  V30 5777 C 552.577 -1.37858 -1.48738 0
M  V30 5778 C 552.91 0.0224187 -1.94187 0
M  V30 5779 O 552.185 0.989204 -1.67466 0
M  V30 5780 C 552.468 -2.3594 -2.72038 0
M  V30 5781 C 552.321 -3.85023 -2.32546 0
M  V30 5782 C 553.64 -2.31704 -3.74167 0
M  V30 5783 H 550.759 -0.502074 -0.539528 0
M  V30 5784 H 553.401 -1.70974 -0.828728 0
M  V30 5785 H 551.551 -2.0783 -3.28236 0
M  V30 5786 H 553.223 -4.2392 -1.81905 0
M  V30 5787 H 551.466 -4.01334 -1.64661 0
M  V30 5788 H 552.137 -4.49152 -3.20884 0
M  V30 5789 H 554.613 -2.5658 -3.27576 0
M  V30 5790 H 553.489 -3.02395 -4.58092 0
M  V30 5791 H 553.75 -1.3253 -4.21768 0
M  V30 5792 N 552.809 0.956637 -1.25245 0
M  V30 5793 C 554.055 1.70352 -1.10036 0
M  V30 5794 C 554.388 1.90869 0.358156 0
M  V30 5795 O 553.663 1.47819 1.26411 0
M  V30 5796 C 553.946 3.08766 -1.85298 0
M  V30 5797 C 553.799 2.95672 -3.38966 0
M  V30 5798 C 555.118 4.08622 -1.63451 0
M  V30 5799 H 552.237 0.618279 -0.401123 0
M  V30 5800 H 554.879 1.11212 -1.54051 0
M  V30 5801 H 553.029 3.59252 -1.47887 0
M  V30 5802 H 554.701 2.52527 -3.86041 0
M  V30 5803 H 552.944 2.31634 -3.6678 0
M  V30 5804 H 553.615 3.93776 -3.86839 0
M  V30 5805 H 556.091 3.67038 -1.96015 0
M  V30 5806 H 554.967 5.03514 -2.18551 0
M  V30 5807 H 555.228 4.3834 -0.575357 0
M  V30 5808 N 554.287 1.06798 1.15896 0
M  V30 5809 C 555.515 0.808694 1.90441 0
M  V30 5810 C 555.93 -0.637506 1.77711 0
M  V30 5811 O 555.287 -1.43684 1.12522 0
M  V30 5812 C 555.338 1.20068 3.40978 0
M  V30 5813 O 555.059 2.59013 3.53333 0
M  V30 5814 C 556.56 0.96987 4.3256 0
M  V30 5815 H 553.78 0.292809 0.603742 0
M  V30 5816 H 556.324 1.42296 1.46874 0
M  V30 5817 H 554.479 0.630842 3.82229 0
M  V30 5818 H 554.893 2.7485 4.46719 0
M  V30 5819 H 556.367 1.29371 5.36626 0
M  V30 5820 H 556.844 -0.0941209 4.39099 0
M  V30 5821 H 557.45 1.52433 3.97044 0
M  V30 5822 N 555.766 -1.3263 0.851289 0
M  V30 5823 C 556.729 -2.27247 0.298541 0
M  V30 5824 C 557.729 -1.51467 -0.539847 0
M  V30 5825 O 558.919 -1.7061 -0.351843 0
M  V30 5826 C 556.051 -3.35964 -0.578004 0
M  V30 5827 H 557.244 -2.7765 1.13359 0
M  V30 5828 H 554.797 -1.43245 0.625354 0
M  V30 5829 H 555.532 -2.90823 -1.435 0
M  V30 5830 H 555.317 -3.92094 0.0220539 0
M  V30 5831 H 556.807 -4.06472 -0.957626 0
M  V30 5832 N 557.244 -0.608902 -1.45362 0
M  V30 5833 C 558.521 -0.0365378 -1.95566 0
M  V30 5834 C 558.901 1.43169 -1.55131 0
M  V30 5835 O 558.249 2.1349 -0.814513 0
M  V30 5836 C 558.459 -0.236026 -3.48201 0
M  V30 5837 C 559.807 -0.117518 -4.24437 0
M  V30 5838 O 560.831 -0.166217 -3.55812 0
M  V30 5839 O 559.69 -0.00372127 -5.465 0
M  V30 5840 H 556.784 0.0349874 -0.82626 0
M  V30 5841 H 559.33 -0.679055 -1.55521 0
M  V30 5842 H 558.102 -1.25569 -3.70605 0
M  V30 5843 H 557.725 0.441691 -3.95139 0
M  V30 5844 N 558.722 1.53707 -0.348139 0
M  V30 5845 C 559.672 2.2193 0.522592 0
M  V30 5846 C 560.656 1.20831 1.06248 0
M  V30 5847 O 561.848 1.46357 0.995415 0
M  V30 5848 C 558.977 2.99904 1.6707 0
M  V30 5849 C 558.063 4.08364 1.14454 0
M  V30 5850 N 558.454 5.04656 0.339958 0
M  V30 5851 C 556.752 4.22757 1.421 0
M  V30 5852 C 557.453 5.81675 0.0538806 0
M  V30 5853 N 556.429 5.39739 0.646776 0
M  V30 5854 H 560.231 2.93733 -0.099135 0
M  V30 5855 H 557.745 1.61656 -0.15524 0
M  V30 5856 H 559.742 3.47284 2.30651 0
M  V30 5857 H 558.402 2.29629 2.29566 0
M  V30 5858 H 559.413 5.17896 -0.0193552 0
M  V30 5859 H 556.09 3.63704 2.05002 0
M  V30 5860 H 557.48 6.69256 -0.595443 0
M  V30 5861 N 560.2 0.0768682 1.57412 0
M  V30 5862 C 561.425 -0.603404 1.98428 0
M  V30 5863 C 561.85 -1.62047 0.955108 0
M  V30 5864 O 561.208 -1.81129 -0.0786778 0
M  V30 5865 C 561.256 -1.24396 3.38464 0
M  V30 5866 O 560.36 -2.35982 3.3821 0
M  V30 5867 H 559.701 -0.154741 0.645718 0
M  V30 5868 H 562.231 0.152885 2.04028 0
M  V30 5869 H 562.241 -1.5896 3.7576 0
M  V30 5870 H 560.916 -0.498735 4.12899 0
M  V30 5871 H 559.493 -2.03173 3.1269 0
M  V30 5872 N 561.678 -1.56367 -0.196722 0
M  V30 5873 C 562.628 -1.9082 -1.24787 0
M  V30 5874 C 563.612 -0.773719 -1.41076 0
M  V30 5875 O 564.804 -1.03655 -1.43474 0
M  V30 5876 C 561.933 -2.24982 -2.59303 0
M  V30 5877 C 561.019 -3.44882 -2.46814 0
M  V30 5878 N 561.41 -4.62835 -2.04003 0
M  V30 5879 C 559.708 -3.48988 -2.77711 0
M  V30 5880 C 560.409 -5.44993 -2.03366 0
M  V30 5881 N 559.385 -4.85356 -2.44807 0
M  V30 5882 H 563.187 -2.79516 -0.908175 0
M  V30 5883 H 560.701 -1.57265 -0.405166 0
M  V30 5884 H 562.698 -2.47848 -3.35227 0
M  V30 5885 H 561.358 -1.37611 -2.94098 0
M  V30 5886 H 562.369 -4.87532 -1.74738 0
M  V30 5887 H 559.046 -2.72029 -3.16712 0
M  V30 5888 H 560.436 -6.49464 -1.72181 0
M  V30 5889 N 563.156 0.464375 -1.50603 0
M  V30 5890 C 564.402 1.21776 -1.62168 0
M  V30 5891 C 564.735 1.91476 -0.324154 0
M  V30 5892 O 564.01 1.8242 0.674782 0
M  V30 5893 C 564.293 2.25614 -2.80661 0
M  V30 5894 C 564.146 1.60175 -4.20314 0
M  V30 5895 C 565.465 3.26862 -2.94702 0
M  V30 5896 H 562.584 0.44137 -0.590222 0
M  V30 5897 H 565.226 0.510623 -1.8301 0
M  V30 5898 H 563.376 2.85923 -2.63021 0
M  V30 5899 H 565.048 1.03411 -4.4956 0
M  V30 5900 H 563.291 0.904697 -4.24261 0
M  V30 5901 H 563.962 2.35665 -4.99165 0
M  V30 5902 H 566.438 2.76582 -3.10872 0
M  V30 5903 H 565.314 3.96839 -3.79223 0
M  V30 5904 H 565.575 3.91382 -2.05603 0
M  V30 5905 N 564.634 1.40294 0.718013 0
M  V30 5906 C 565.881 1.3844 1.47786 0
M  V30 5907 C 566.209 -0.0140838 1.94495 0
M  V30 5908 O 565.464 -0.998165 1.68331 0
M  V30 5909 C 565.763 2.31814 2.72024 0
M  V30 5910 C 565.429 3.79117 2.44093 0
M  V30 5911 C 564.091 4.19249 2.36185 0
M  V30 5912 C 566.443 4.72212 2.20602 0
M  V30 5913 C 563.771 5.50516 2.02851 0
M  V30 5914 C 566.123 6.03775 1.88781 0
M  V30 5915 C 564.787 6.42953 1.79354 0
M  V30 5916 H 564.057 0.506588 0.540786 0
M  V30 5917 H 566.704 1.72929 0.822663 0
M  V30 5918 H 565.009 1.90501 3.42369 0
M  V30 5919 H 566.706 2.27664 3.30106 0
M  V30 5920 H 563.296 3.47318 2.51133 0
M  V30 5921 H 567.48 4.42026 2.25669 0
M  V30 5922 H 562.736 5.79776 1.94088 0
M  V30 5923 H 566.91 6.75428 1.69617 0
M  V30 5924 H 564.537 7.44584 1.53291 0
M  V30 5925 N 566.112 -0.949982 1.2575 0
M  V30 5926 C 567.34 -1.72972 1.13527 0
M  V30 5927 C 567.755 -1.8623 -0.310453 0
M  V30 5928 O 567.112 -1.36336 -1.2132 0
M  V30 5929 C 567.163 -3.14108 1.78936 0
M  V30 5930 O 566.884 -3.01493 3.17858 0
M  V30 5931 C 568.385 -4.08338 1.72554 0
M  V30 5932 H 565.605 -0.541864 0.395758 0
M  V30 5933 H 568.149 -1.19151 1.66202 0
M  V30 5934 H 566.304 -3.64858 1.30221 0
M  V30 5935 H 566.718 -3.90559 3.50092 0
M  V30 5936 H 568.192 -5.04963 2.22973 0
M  V30 5937 H 568.669 -4.33742 0.690251 0
M  V30 5938 H 569.275 -3.63506 2.2078 0
M  V30 5939 N 567.59 -1.07411 -1.15328 0
M  V30 5940 C 568.837 -0.797649 -1.86128 0
M  V30 5941 C 569.165 0.676298 -1.82364 0
M  V30 5942 O 568.42 1.51223 -1.24218 0
M  V30 5943 C 568.719 -1.25191 -3.34757 0
M  V30 5944 C 568.385 -2.73191 -3.58716 0
M  V30 5945 C 567.047 -3.13616 -3.64964 0
M  V30 5946 C 569.399 -3.68718 -3.6837 0
M  V30 5947 C 566.727 -4.48383 -3.78377 0
M  V30 5948 C 569.079 -5.03248 -3.83306 0
M  V30 5949 C 567.743 -5.43293 -3.878 0
M  V30 5950 H 567.013 -0.29188 -0.681092 0
M  V30 5951 H 569.66 -1.34524 -1.36292 0
M  V30 5952 H 567.965 -0.623712 -3.86804 0
M  V30 5953 H 569.662 -1.01489 -3.87945 0
M  V30 5954 H 566.252 -2.40898 -3.54494 0
M  V30 5955 H 570.436 -3.38614 -3.62842 0
M  V30 5956 H 565.692 -4.78877 -3.80114 0
M  V30 5957 H 569.866 -5.77142 -3.89718 0
M  V30 5958 H 567.493 -6.47721 -3.97946 0
M  V30 5959 N 569.068 1.32177 -0.85831 0
M  V30 5960 C 570.316 1.96735 -0.462568 0
M  V30 5961 C 570.637 1.6824 0.985911 0
M  V30 5962 O 569.907 0.991564 1.68952 0
M  V30 5963 H 568.487 0.727849 -0.168064 0
M  V30 5964 H 571.149 1.61195 -1.09554 0
M  V30 5965 H 570.245 3.06068 -0.610647 0
M  V30 5966 N 570.547 0.616602 1.45037 0
M  V30 5967 C 571.795 0.115103 2.01772 0
M  V30 5968 C 572.116 -1.2622 1.48639 0
M  V30 5969 O 571.386 -1.83563 0.684199 0
M  V30 5970 H 569.966 0.0395607 0.745952 0
M  V30 5971 H 572.628 0.800032 1.77723 0
M  V30 5972 H 571.724 0.0717274 3.12018 0
M  V30 5973 N 572.025 -1.5352 0.356285 0
M  V30 5974 C 573.255 -2.05236 -0.236983 0
M  V30 5975 C 573.663 -1.23016 -1.43749 0
M  V30 5976 O 573.006 -0.2615 -1.81829 0
M  V30 5977 C 573.068 -3.52549 -0.7035 0
M  V30 5978 C 572.732 -4.55425 0.379059 0
M  V30 5979 C 573.729 -5.0524 1.22592 0
M  V30 5980 C 571.414 -4.99425 0.536638 0
M  V30 5981 C 573.408 -5.97647 2.21578 0
M  V30 5982 C 571.095 -5.9164 1.52988 0
M  V30 5983 C 572.093 -6.4064 2.3679 0
M  V30 5984 O 571.781 -7.31039 3.34421 0
M  V30 5985 H 571.513 -0.674346 -0.047254 0
M  V30 5986 H 574.067 -1.98962 0.510238 0
M  V30 5987 H 572.297 -3.56331 -1.50217 0
M  V30 5988 H 573.986 -3.87171 -1.21873 0
M  V30 5989 H 574.752 -4.72002 1.11532 0
M  V30 5990 H 570.631 -4.60879 -0.105834 0
M  V30 5991 H 574.175 -6.35816 2.87025 0
M  V30 5992 H 570.072 -6.24293 1.64099 0
M  V30 5993 H 570.84 -7.49009 3.30041 0
M  V30 5994 N 573.503 -0.0852151 -1.57369 0
M  V30 5995 C 574.731 0.58946 -1.98325 0
M  V30 5996 C 575.146 1.62333 -0.96403 0
M  V30 5997 O 574.503 1.82438 0.0476395 0
M  V30 5998 C 574.554 1.24604 -3.39347 0
M  V30 5999 O 574.275 0.253532 -4.37366 0
M  V30 6000 C 575.776 2.00726 -3.95252 0
M  V30 6001 H 572.996 0.158783 -0.651942 0
M  V30 6002 H 575.54 -0.161584 -2.03861 0
M  V30 6003 H 573.695 1.94808 -3.34856 0
M  V30 6004 H 574.109 0.726207 -5.19448 0
M  V30 6005 H 575.583 2.42039 -4.96106 0
M  V30 6006 H 576.06 2.86919 -3.32527 0
M  V30 6007 H 576.666 1.3536 -4.03185 0
M  V30 6008 N 574.981 1.5647 0.188427 0
M  V30 6009 C 576.392 1.70864 0.752494 0
M  V30 6010 C 576.743 0.692905 1.83557 0
M  V30 6011 O 575.868 -0.149307 2.15884 0
M  V30 6012 C 576.463 3.09789 1.37173 0
M  V30 6013 C 575.022 3.25925 1.88281 0
M  V30 6014 C 574.169 2.66817 0.755259 0
M  V30 6015 H 577.12 1.58657 -0.0367408 0
M  V30 6016 H 577.141 3.07489 2.24122 0
M  V30 6017 H 576.653 3.83693 0.583219 0
M  V30 6018 H 574.754 2.56948 2.6983 0
M  V30 6019 H 574.867 4.33498 2.04001 0
M  V30 6020 H 573.231 2.2617 1.17128 0
M  V30 6021 H 574.014 3.43294 -0.0211237 0
M  V30 6022 N 576.459 -0.456382 1.50847 0
M  V30 6023 C 577.875 -0.791345 1.386 0
M  V30 6024 C 578.075 -1.9633 0.453498 0
M  V30 6025 O 577.131 -2.52308 -0.0984353 0
M  V30 6026 C 578.444 -1.08959 2.80265 0
M  V30 6027 C 579.992 -1.19517 2.89283 0
M  V30 6028 C 580.467 -1.52647 4.31814 0
M  V30 6029 N 581.958 -1.59609 4.34832 0
M  V30 6030 C 582.693 -1.86777 5.42127 0
M  V30 6031 N 582.189 -2.11866 6.59609 0
M  V30 6032 N 583.982 -1.88402 5.29586 0
M  V30 6033 H 576.133 0.315746 2.1004 0
M  V30 6034 H 578.396 0.0787916 0.94472 0
M  V30 6035 H 578.102 -0.301355 3.50407 0
M  V30 6036 H 577.976 -2.02211 3.18419 0
M  V30 6037 H 580.363 -1.97406 2.19351 0
M  V30 6038 H 580.444 -0.242111 2.54652 0
M  V30 6039 H 580.088 -0.752922 5.02288 0
M  V30 6040 H 580.018 -2.49127 4.63943 0
M  V30 6041 H 582.509 -1.42201 3.50125 0
M  V30 6042 H 582.822 -2.31912 7.37182 0
M  V30 6043 H 581.167 -2.09228 6.62758 0
M  V30 6044 H 584.358 -1.68307 4.36795 0
M  V30 6045 H 584.531 -2.09238 6.13289 0
M  V30 6046 N 577.937 -1.40673 -0.710563 0
M  V30 6047 C 579.185 -1.38947 -1.46759 0
M  V30 6048 C 579.506 0.00572879 -1.94999 0
M  V30 6049 O 578.776 0.961358 -1.70689 0
M  V30 6050 H 577.356 -0.5114 -0.544499 0
M  V30 6051 H 580.018 -1.75773 -0.842012 0
M  V30 6052 H 579.114 -2.06745 -2.33801 0
M  V30 6053 N 579.415 0.9433 -1.26252 0
M  V30 6054 C 580.363 2.06302 -1.07434 0
M  V30 6055 C 581.357 1.694 -0.00189471 0
M  V30 6056 O 582.563 1.79302 -0.158408 0
M  V30 6057 H 578.938 0.675453 -0.330556 0
M  V30 6058 H 580.909 2.19326 -2.02333 0
M  V30 6059 C 579.658 3.40125 -0.721817 0
M  V30 6060 H 578.981 3.68996 -1.5389 0
M  V30 6061 H 580.421 4.19295 -0.629922 0
M  V30 6062 C 578.88 3.31993 0.572902 0
M  V30 6063 O 579.41 3.67945 1.61182 0
M  V30 6064 N 577.616 2.85099 0.562748 0
M  V30 6065 H 577.163 2.5604 -0.283092 0
M  V30 6066 H 577.121 2.80041 1.42915 0
M  V30 6067 N 580.893 1.08022 1.14757 0
M  V30 6068 C 582.118 0.82895 1.90114 0
M  V30 6069 C 582.543 -0.612772 1.77839 0
M  V30 6070 O 581.901 -1.42895 1.11583 0
M  V30 6071 C 581.949 1.25062 3.38219 0
M  V30 6072 O 581.053 0.400119 4.10454 0
M  V30 6073 H 580.394 0.301412 0.591648 0
M  V30 6074 H 582.924 1.44062 1.45284 0
M  V30 6075 H 582.934 1.22977 3.89025 0
M  V30 6076 H 581.609 2.30067 3.46471 0
M  V30 6077 H 580.186 0.484052 3.69745 0
M  V30 6078 N 582.371 -1.3172 0.865308 0
M  V30 6079 C 583.62 -1.96145 0.470098 0
M  V30 6080 C 583.933 -1.69182 -0.981674 0
M  V30 6081 O 585.139 -2.27431 -1.48281 0
M  V30 6082 C 583.595 -3.51129 0.789732 0
M  V30 6083 C 583.203 -3.86938 2.25795 0
M  V30 6084 C 584.947 -4.2197 0.462765 0
M  V30 6085 C 582.854 -5.35012 2.52024 0
M  V30 6086 H 581.784 -0.734105 0.172065 0
M  V30 6087 H 584.435 -1.49959 1.05757 0
M  V30 6088 H 582.817 -3.95781 0.131571 0
M  V30 6089 H 583.991 -3.5326 2.95879 0
M  V30 6090 H 582.306 -3.29149 2.55049 0
M  V30 6091 H 584.903 -5.30904 0.636019 0
M  V30 6092 H 585.246 -4.12005 -0.59645 0
M  V30 6093 H 585.779 -3.82936 1.07727 0
M  V30 6094 H 582.518 -5.50008 3.56611 0
M  V30 6095 H 582.038 -5.70058 1.8653 0
M  V30 6096 H 583.717 -6.0222 2.36515 0
M  V30 6097 N 583.85 -0.624285 -1.44708 0
M  V30 6098 C 585.096 -0.126051 -2.02107 0
M  V30 6099 C 585.425 1.2496 -1.49048 0
M  V30 6100 O 584.68 1.84163 -0.662005 0
M  V30 6101 C 584.979 -0.0546353 -3.57358 0
M  V30 6102 C 584.644 -1.36815 -4.29642 0
M  V30 6103 C 583.307 -1.72792 -4.49106 0
M  V30 6104 C 585.659 -2.23549 -4.70824 0
M  V30 6105 C 582.986 -2.95222 -5.07012 0
M  V30 6106 C 585.339 -3.45243 -5.30085 0
M  V30 6107 C 584.003 -3.81452 -5.47769 0
M  V30 6108 H 583.273 -0.0461252 -0.739563 0
M  V30 6109 H 585.92 -0.809236 -1.73562 0
M  V30 6110 H 584.225 0.711891 -3.85278 0
M  V30 6111 H 585.922 0.347282 -3.99493 0
M  V30 6112 H 582.512 -1.07817 -4.14817 0
M  V30 6113 H 586.696 -1.9705 -4.55505 0
M  V30 6114 H 581.952 -3.23361 -5.18891 0
M  V30 6115 H 586.125 -4.12689 -5.60946 0
M  V30 6116 H 583.753 -4.76403 -5.92405 0
M  V30 6117 N 585.328 1.53329 -0.364422 0
M  V30 6118 C 586.576 2.00842 0.225189 0
M  V30 6119 C 586.897 1.25345 1.49378 0
M  V30 6120 O 586.167 0.366396 1.92443 0
M  V30 6121 H 584.747 0.742009 0.0862027 0
M  V30 6122 H 587.409 1.8863 -0.490389 0
M  V30 6123 H 586.505 3.08795 0.452987 0
M  V30 6124 N 586.806 0.0935595 1.57322 0
M  V30 6125 C 587.736 -0.863062 2.16964 0
M  V30 6126 C 588.717 -1.29528 1.10256 0
M  V30 6127 O 589.902 -1.36245 1.38387 0
M  V30 6128 C 587.032 -2.12276 2.74875 0
M  V30 6129 C 585.986 -1.82921 3.86942 0
M  V30 6130 C 585.312 -3.15707 4.31548 0
M  V30 6131 C 586.612 -1.11737 5.10208 0
M  V30 6132 H 588.306 -0.366145 2.97153 0
M  V30 6133 H 585.852 -0.174673 1.42937 0
M  V30 6134 H 587.805 -2.79634 3.1525 0
M  V30 6135 H 586.529 -2.64248 1.91938 0
M  V30 6136 H 585.188 -1.17961 3.47103 0
M  V30 6137 H 584.836 -3.65563 3.45504 0
M  V30 6138 H 584.536 -2.96849 5.07104 0
M  V30 6139 H 586.06 -3.84226 4.74555 0
M  V30 6140 H 587.474 -1.69203 5.47762 0
M  V30 6141 H 585.871 -1.03064 5.91183 0
M  V30 6142 H 586.941 -0.0998818 4.84797 0
M  V30 6143 N 588.284 -1.56567 -0.180126 0
M  V30 6144 C 589.247 -1.94852 -1.20686 0
M  V30 6145 C 590.247 -0.831212 -1.3765 0
M  V30 6146 O 591.437 -1.09841 -1.35206 0
M  V30 6147 C 588.569 -2.23565 -2.57355 0
M  V30 6148 H 589.762 -2.86722 -0.879225 0
M  V30 6149 H 587.315 -1.50489 -0.422237 0
M  V30 6150 H 588.05 -1.34381 -2.95148 0
M  V30 6151 H 587.835 -3.04999 -2.46411 0
M  V30 6152 H 589.325 -2.54137 -3.31367 0
M  V30 6153 N 589.762 0.448376 -1.51087 0
M  V30 6154 C 591.173 1.0286 -1.5581 0
M  V30 6155 C 591.524 1.92583 -0.374989 0
M  V30 6156 O 590.649 2.10316 0.509533 0
M  V30 6157 C 591.244 1.87223 -2.8237 0
M  V30 6158 C 589.803 2.40314 -2.897 0
M  V30 6159 C 588.95 1.19238 -2.50355 0
M  V30 6160 H 591.901 0.230075 -1.57023 0
M  V30 6161 H 591.922 2.72553 -2.6551 0
M  V30 6162 H 591.434 1.21894 -3.68461 0
M  V30 6163 H 589.535 3.09129 -2.08014 0
M  V30 6164 H 589.648 2.73866 -3.93108 0
M  V30 6165 H 588.012 1.53428 -2.03303 0
M  V30 6166 H 588.795 0.555367 -3.38778 0
M  V30 6167 N 591.24 1.41047 0.703093 0
M  V30 6168 C 592.173 1.36713 1.82715 0
M  V30 6169 C 593.151 0.235533 1.60885 0
M  V30 6170 O 594.335 0.421227 1.83733 0
M  V30 6171 C 591.462 1.13069 3.1927 0
M  V30 6172 C 590.508 2.28846 3.59905 0
M  V30 6173 S 591.341 3.91297 3.65578 0
M  V30 6174 C 592.497 3.69941 5.04871 0
M  V30 6175 H 592.73 2.31838 1.86114 0
M  V30 6176 H 590.263 1.27481 0.871083 0
M  V30 6177 H 592.221 1.00113 3.98105 0
M  V30 6178 H 590.882 0.195763 3.13489 0
M  V30 6179 H 590.075 2.07977 4.59088 0
M  V30 6180 H 589.677 2.3817 2.88359 0
M  V30 6181 H 591.969 3.29181 5.92154 0
M  V30 6182 H 592.912 4.68699 5.30779 0
M  V30 6183 H 593.32 3.03369 4.76054 0
M  V30 6184 N 592.718 -0.936591 1.26751 0
M  V30 6185 C 593.648 -2.05315 1.11212 0
M  V30 6186 C 594.629 -1.70092 0.0160262 0
M  V30 6187 O 595.814 -1.93279 0.188894 0
M  V30 6188 C 592.944 -3.39123 0.749171 0
M  V30 6189 C 591.898 -3.88425 1.79751 0
M  V30 6190 C 591.224 -5.18936 1.28876 0
M  V30 6191 C 592.524 -4.12798 3.19992 0
M  V30 6192 H 594.218 -2.18573 2.04613 0
M  V30 6193 H 591.764 -1.05027 0.985159 0
M  V30 6194 H 593.717 -4.16704 0.627323 0
M  V30 6195 H 592.441 -3.25855 -0.220543 0
M  V30 6196 H 591.1 -3.13028 1.90811 0
M  V30 6197 H 590.748 -5.02051 0.308757 0
M  V30 6198 H 590.448 -5.52892 1.98958 0
M  V30 6199 H 591.972 -5.99096 1.17967 0
M  V30 6200 H 593.386 -4.80977 3.11983 0
M  V30 6201 H 591.783 -4.58044 3.87705 0
M  V30 6202 H 592.853 -3.18412 3.65707 0
M  V30 6203 N 594.196 -1.08629 -1.14182 0
M  V30 6204 C 595.421 -0.83902 -1.89671 0
M  V30 6205 C 595.846 0.603332 -1.78161 0
M  V30 6206 O 595.204 1.42301 -1.12339 0
M  V30 6207 C 595.252 -1.26854 -3.37551 0
M  V30 6208 O 594.356 -0.42188 -4.10236 0
M  V30 6209 H 593.697 -0.304545 -0.590041 0
M  V30 6210 H 596.227 -1.4483 -1.44518 0
M  V30 6211 H 596.237 -1.25038 -3.88368 0
M  V30 6212 H 594.912 -2.31901 -3.45246 0
M  V30 6213 H 593.489 -0.503654 -3.69483 0
M  V30 6214 N 595.674 1.31259 -0.872281 0
M  V30 6215 C 596.951 1.91362 -0.404943 0
M  V30 6216 C 597.331 1.79362 1.11321 0
M  V30 6217 O 596.679 1.20277 1.94283 0
M  V30 6218 C 596.889 3.3749 -0.888893 0
M  V30 6219 C 598.237 4.14593 -0.916384 0
M  V30 6220 O 599.261 3.46282 -0.834701 0
M  V30 6221 O 598.12 5.3661 -1.03498 0
M  V30 6222 H 595.214 0.818016 -0.121569 0
M  V30 6223 H 597.76 1.39912 -0.960346 0
M  V30 6224 H 596.532 3.40249 -1.93251 0
M  V30 6225 H 596.155 3.96375 -0.311932 0
M  V30 6226 N 597.152 0.631951 1.44375 0
M  V30 6227 C 598.38 0.143867 2.06399 0
M  V30 6228 C 598.795 -1.18188 1.47231 0
M  V30 6229 O 598.152 -1.72511 0.595498 0
M  V30 6230 C 598.203 0.0238253 3.61492 0
M  V30 6231 O 597.924 1.29715 4.18456 0
M  V30 6232 C 599.425 -0.492856 4.40552 0
M  V30 6233 H 596.645 0.0800542 0.666207 0
M  V30 6234 H 599.189 0.866586 1.85231 0
M  V30 6235 H 597.344 -0.649338 3.81919 0
M  V30 6236 H 597.758 1.14252 5.11905 0
M  V30 6237 H 599.232 -0.525861 5.49489 0
M  V30 6238 H 599.709 -1.52006 4.12057 0
M  V30 6239 H 600.315 0.147085 4.25046 0
M  V30 6240 N 598.631 -1.53133 0.372548 0
M  V30 6241 C 599.908 -1.93704 -0.271693 0
M  V30 6242 C 600.288 -1.30667 -1.65799 0
M  V30 6243 O 599.636 -0.46838 -2.23648 0
M  V30 6244 C 599.846 -3.47576 -0.314903 0
M  V30 6245 C 601.194 -4.20998 -0.551912 0
M  V30 6246 O 602.218 -3.53994 -0.39582 0
M  V30 6247 O 601.077 -5.39748 -0.85639 0
M  V30 6248 H 598.171 -0.810457 -0.164586 0
M  V30 6249 H 600.717 -1.6427 0.425838 0
M  V30 6250 H 599.489 -3.85749 0.656792 0
M  V30 6251 H 599.112 -3.83264 -1.05804 0
M  V30 6252 N 600.109 -0.101901 -1.5727 0
M  V30 6253 C 601.056 0.854577 -2.14396 0
M  V30 6254 C 602.026 1.27521 -1.06432 0
M  V30 6255 O 603.211 1.35575 -1.34253 0
M  V30 6256 C 600.351 2.10576 -2.73408 0
M  V30 6257 C 599.464 1.73504 -3.95626 0
M  V30 6258 C 598.599 2.9346 -4.42781 0
M  V30 6259 C 597.638 2.52547 -5.57572 0
M  V30 6260 N 596.775 3.65359 -5.99547 0
M  V30 6261 H 601.615 0.360578 -2.9581 0
M  V30 6262 H 599.152 0.166303 -1.46157 0
M  V30 6263 H 601.11 2.83859 -3.05745 0
M  V30 6264 H 599.74 2.57463 -1.94711 0
M  V30 6265 H 598.792 0.901622 -3.6956 0
M  V30 6266 H 600.104 1.39426 -4.78917 0
M  V30 6267 H 599.258 3.74988 -4.76937 0
M  V30 6268 H 597.997 3.30753 -3.58404 0
M  V30 6269 H 597.002 1.69446 -5.23037 0
M  V30 6270 H 598.227 2.1639 -6.43702 0
M  V30 6271 H 596.173 4.02358 -5.18116 0
M  V30 6272 H 596.09 3.35148 -6.77652 0
M  V30 6273 H 597.358 4.47378 -6.38336 0
M  V30 6274 N 601.587 1.56661 0.17182 0
M  V30 6275 C 602.534 1.96371 1.21273 0
M  V30 6276 C 603.504 0.82756 1.44016 0
M  V30 6277 O 604.689 1.08764 1.56764 0
M  V30 6278 C 601.829 2.32838 2.54716 0
M  V30 6279 C 600.942 3.59628 2.39356 0
M  V30 6280 C 600.077 3.85311 3.65662 0
M  V30 6281 C 599.116 5.0545 3.45234 0
M  V30 6282 N 598.253 5.27268 4.63608 0
M  V30 6283 H 603.093 2.85106 0.86709 0
M  V30 6284 H 600.63 1.41073 0.416744 0
M  V30 6285 H 602.588 2.52004 3.3249 0
M  V30 6286 H 601.218 1.47214 2.87277 0
M  V30 6287 H 600.27 3.4838 1.52761 0
M  V30 6288 H 601.582 4.4756 2.20207 0
M  V30 6289 H 600.736 4.04841 4.51872 0
M  V30 6290 H 599.475 2.95753 3.8779 0
M  V30 6291 H 598.48 4.85819 2.5741 0
M  V30 6292 H 599.705 5.96538 3.24529 0
M  V30 6293 H 597.651 4.40662 4.85956 0
M  V30 6294 H 597.568 6.09422 4.4737 0
M  V30 6295 H 598.836 5.51277 5.51103 0
M  V30 6296 N 603.065 -0.440357 1.51323 0
M  V30 6297 C 604.476 -1.02032 1.56353 0
M  V30 6298 C 604.827 -1.92382 0.385197 0
M  V30 6299 O 603.952 -2.10583 -0.498373 0
M  V30 6300 C 604.547 -1.85723 2.83359 0
M  V30 6301 C 603.106 -2.38774 2.90971 0
M  V30 6302 C 602.253 -1.17908 2.50984 0
M  V30 6303 H 605.204 -0.221744 1.57143 0
M  V30 6304 H 605.225 -2.71141 2.66951 0
M  V30 6305 H 604.737 -1.19939 3.69102 0
M  V30 6306 H 602.838 -3.08021 2.09651 0
M  V30 6307 H 602.951 -2.71778 3.94555 0
M  V30 6308 H 601.315 -1.52347 2.04114 0
M  V30 6309 H 602.098 -0.537393 3.39068 0
M  V30 6310 N 604.543 -1.41418 -0.695603 0
M  V30 6311 C 605.79 -1.40774 -1.45564 0
M  V30 6312 C 606.118 -0.0168604 -1.94493 0
M  V30 6313 O 605.373 0.971259 -1.69897 0
M  V30 6314 C 605.672 -2.36112 -2.68302 0
M  V30 6315 C 605.338 -3.82952 -2.38031 0
M  V30 6316 C 604 -4.22954 -2.29486 0
M  V30 6317 C 606.352 -4.75662 -2.13061 0
M  V30 6318 C 603.68 -5.53674 -1.94067 0
M  V30 6319 C 606.032 -6.06702 -1.79151 0
M  V30 6320 C 604.696 -6.45725 -1.69102 0
M  V30 6321 H 603.966 -0.515128 -0.532658 0
M  V30 6322 H 606.613 -1.74216 -0.795047 0
M  V30 6323 H 604.918 -1.95924 -3.39295 0
M  V30 6324 H 606.615 -2.32887 -3.26442 0
M  V30 6325 H 603.205 -3.5127 -2.45576 0
M  V30 6326 H 607.389 -4.45561 -2.18608 0
M  V30 6327 H 602.645 -5.8279 -1.8484 0
M  V30 6328 H 606.819 -6.78041 -1.5885 0
M  V30 6329 H 604.446 -7.46929 -1.41426 0
M  V30 6330 N 606.021 0.929856 -1.27246 0
M  V30 6331 C 607.249 1.71144 -1.16265 0
M  V30 6332 C 607.664 1.867 0.280786 0
M  V30 6333 O 607.021 1.38249 1.19136 0
M  V30 6334 C 607.072 3.11222 -1.83911 0
M  V30 6335 O 606.793 2.96398 -3.22614 0
M  V30 6336 C 608.294 4.05541 -1.79028 0
M  V30 6337 H 605.514 0.535499 -0.404328 0
M  V30 6338 H 608.058 1.16492 -1.68077 0
M  V30 6339 H 606.213 3.6274 -1.36009 0
M  V30 6340 H 606.627 3.8494 -3.56261 0
M  V30 6341 H 608.101 5.01351 -2.30978 0
M  V30 6342 H 608.578 4.32589 -0.759168 0
M  V30 6343 H 609.184 3.59947 -2.26535 0
M  V30 6344 N 607.499 1.09233 1.13605 0
M  V30 6345 C 608.462 0.733553 2.17144 0
M  V30 6346 C 609.462 -0.235873 1.59061 0
M  V30 6347 O 610.652 -0.0143167 1.74194 0
M  V30 6348 C 607.784 0.084471 3.40795 0
M  V30 6349 H 608.977 1.65049 2.50397 0
M  V30 6350 H 606.53 0.891264 1.28399 0
M  V30 6351 H 607.265 -0.843795 3.1313 0
M  V30 6352 H 607.05 0.781985 3.84223 0
M  V30 6353 H 608.54 -0.151216 4.17326 0
M  V30 6354 N 608.977 -1.30795 0.87923 0
M  V30 6355 C 610.226 -1.95636 0.490875 0
M  V30 6356 C 610.539 -1.70214 -0.963674 0
M  V30 6357 O 611.745 -2.28991 -1.45861 0
M  V30 6358 C 610.201 -3.50271 0.826929 0
M  V30 6359 C 609.809 -3.84521 2.29886 0
M  V30 6360 C 611.553 -4.21456 0.507494 0
M  V30 6361 C 609.46 -5.32309 2.57685 0
M  V30 6362 H 608.39 -0.732238 0.179841 0
M  V30 6363 H 611.041 -1.48829 1.07341 0
M  V30 6364 H 609.423 -3.9562 0.173542 0
M  V30 6365 H 610.597 -3.50102 2.99609 0
M  V30 6366 H 608.912 -3.26425 2.58526 0
M  V30 6367 H 611.509 -5.30199 0.692293 0
M  V30 6368 H 611.852 -4.12614 -0.552718 0
M  V30 6369 H 612.385 -3.81772 1.11782 0
M  V30 6370 H 609.124 -5.46195 3.62424 0
M  V30 6371 H 608.644 -5.68048 1.92566 0
M  V30 6372 H 610.323 -5.99678 2.42889 0
M  V30 6373 N 610.455 -0.639598 -1.44038 0
M  V30 6374 C 611.385 0.0469443 -2.33453 0
M  V30 6375 C 612.366 0.82609 -1.48694 0
M  V30 6376 O 613.551 0.790285 -1.77393 0
M  V30 6377 C 610.681 1.02338 -3.3188 0
M  V30 6378 C 609.635 0.355284 -4.26523 0
M  V30 6379 C 608.961 1.44221 -5.14883 0
M  V30 6380 C 610.261 -0.743798 -5.16977 0
M  V30 6381 H 611.955 -0.699735 -2.91108 0
M  V30 6382 H 609.501 -0.337946 -1.39978 0
M  V30 6383 H 611.454 1.51247 -3.93322 0
M  V30 6384 H 610.178 1.80105 -2.72451 0
M  V30 6385 H 608.837 -0.113239 -3.66425 0
M  V30 6386 H 608.485 2.21097 -4.51802 0
M  V30 6387 H 608.185 1.00052 -5.79019 0
M  V30 6388 H 609.709 1.93295 -5.79197 0
M  V30 6389 H 611.123 -0.337444 -5.72306 0
M  V30 6390 H 609.52 -1.10914 -5.89761 0
M  V30 6391 H 610.59 -1.60745 -4.57481 0
M  V30 6392 N 611.933 1.52934 -0.380664 0
M  V30 6393 C 613.163 2.05587 0.204302 0
M  V30 6394 C 613.571 1.25288 1.41773 0
M  V30 6395 O 612.914 0.290394 1.8139 0
M  V30 6396 C 612.976 3.53624 0.647324 0
M  V30 6397 C 612.64 4.54765 -0.451465 0
M  V30 6398 C 613.637 5.03226 -1.30614 0
M  V30 6399 C 611.322 4.98508 -0.616025 0
M  V30 6400 C 613.316 5.94046 -2.31058 0
M  V30 6401 C 611.003 5.89131 -1.62381 0
M  V30 6402 C 612.001 6.36792 -2.46952 0
M  V30 6403 O 611.689 7.25626 -3.46009 0
M  V30 6404 H 611.421 0.675013 0.0365198 0
M  V30 6405 H 613.975 1.98125 -0.541827 0
M  V30 6406 H 612.205 3.58676 1.44529 0
M  V30 6407 H 613.894 3.89061 1.15698 0
M  V30 6408 H 614.66 4.70167 -1.19027 0
M  V30 6409 H 610.539 4.60989 0.0324987 0
M  V30 6410 H 614.083 6.3117 -2.97104 0
M  V30 6411 H 609.98 6.21603 -1.7401 0
M  V30 6412 H 610.748 7.43664 -3.41916 0
M  V30 6413 N 613.412 0.11024 1.57214 0
M  V30 6414 C 614.66 -0.548783 1.94506 0
M  V30 6415 C 614.981 -1.67772 0.99386 0
M  V30 6416 O 614.251 -1.9584 0.0485841 0
M  V30 6417 H 612.831 -0.205715 0.718116 0
M  V30 6418 H 615.493 0.177127 1.94093 0
M  V30 6419 H 614.589 -0.949096 2.97319 0
M  V30 6420 N 614.89 -1.56749 -0.16351 0
M  V30 6421 C 615.838 -1.97939 -1.22159 0
M  V30 6422 C 616.832 -0.869288 -1.45395 0
M  V30 6423 O 618.038 -1.05443 -1.45883 0
M  V30 6424 H 614.413 -0.629869 -0.410815 0
M  V30 6425 H 616.384 -2.86115 -0.847381 0
M  V30 6426 C 615.133 -2.36206 -2.55151 0
M  V30 6427 H 614.456 -3.2117 -2.38097 0
M  V30 6428 H 615.896 -2.68863 -3.27854 0
M  V30 6429 C 614.355 -1.20841 -3.14482 0
M  V30 6430 O 614.885 -0.500258 -3.98573 0
M  V30 6431 N 613.091 -0.976943 -2.73686 0
M  V30 6432 H 612.638 -1.55457 -2.05404 0
M  V30 6433 H 612.596 -0.206912 -3.13718 0
M  V30 6434 N 616.368 0.432326 -1.51554 0
M  V30 6435 C 617.616 1.17901 -1.64146 0
M  V30 6436 C 617.937 1.91604 -0.362367 0
M  V30 6437 O 617.207 1.85764 0.621968 0
M  V30 6438 H 615.787 0.438206 -0.604966 0
M  V30 6439 H 618.449 0.495172 -1.88505 0
M  V30 6440 H 617.545 1.90584 -2.47152 0
M  V30 6441 N 617.846 1.41785 0.688094 0
M  V30 6442 C 619.257 1.3701 1.26828 0
M  V30 6443 C 619.608 0.056835 1.96118 0
M  V30 6444 O 618.733 -0.84475 1.99231 0
M  V30 6445 C 619.328 2.48168 2.30648 0
M  V30 6446 C 617.887 2.46766 2.84224 0
M  V30 6447 C 617.034 2.27633 1.58361 0
M  V30 6448 H 619.985 1.51192 0.482351 0
M  V30 6449 H 620.006 2.17655 3.121 0
M  V30 6450 H 619.518 3.43735 1.80188 0
M  V30 6451 H 617.619 1.54978 3.3884 0
M  V30 6452 H 617.732 3.43342 3.34145 0
M  V30 6453 H 616.096 1.75648 1.84445 0
M  V30 6454 H 616.879 3.25238 1.09887 0
M  V30 6455 N 619.324 -0.923095 1.27737 0
M  V30 6456 C 620.572 -1.66797 1.14119 0
M  V30 6457 C 620.893 -1.92479 -0.312541 0
M  V30 6458 O 620.163 -1.53432 -1.218 0
M  V30 6459 H 618.743 -0.618196 0.419336 0
M  V30 6460 H 621.405 -1.10815 1.60331 0
M  V30 6461 H 620.501 -2.63424 1.67374 0
M  V30 6462 N 620.802 -1.09834 -1.13024 0
M  V30 6463 C 622.032 -0.857657 -1.87957 0
M  V30 6464 C 622.44 0.595008 -1.796 0
M  V30 6465 O 621.783 1.42158 -1.16347 0
M  V30 6466 C 621.845 -1.21949 -3.38185 0
M  V30 6467 C 621.509 -2.67791 -3.7032 0
M  V30 6468 C 622.506 -3.66036 -3.69207 0
M  V30 6469 C 620.191 -3.04019 -3.99847 0
M  V30 6470 C 622.185 -4.98533 -3.9717 0
M  V30 6471 C 619.872 -4.36706 -4.27471 0
M  V30 6472 C 620.87 -5.33772 -4.26118 0
M  V30 6473 O 620.558 -6.64072 -4.53061 0
M  V30 6474 H 620.29 -0.308009 -0.601753 0
M  V30 6475 H 622.844 -1.46496 -1.43973 0
M  V30 6476 H 621.074 -0.555249 -3.82693 0
M  V30 6477 H 622.763 -0.957281 -3.9445 0
M  V30 6478 H 623.529 -3.39392 -3.46465 0
M  V30 6479 H 619.408 -2.29096 -4.00045 0
M  V30 6480 H 622.952 -5.74288 -3.96029 0
M  V30 6481 H 618.849 -4.63091 -4.49685 0
M  V30 6482 H 619.617 -6.69608 -4.7071 0
M  V30 6483 N 622.28 1.30327 -0.886154 0
M  V30 6484 C 623.227 2.28099 -0.352069 0
M  V30 6485 C 624.197 1.56433 0.558397 0
M  V30 6486 O 625.382 1.84492 0.486561 0
M  V30 6487 C 622.522 3.42456 0.426346 0
M  V30 6488 C 621.635 4.28938 -0.513472 0
M  V30 6489 C 620.77 5.30458 0.280657 0
M  V30 6490 C 619.809 6.0859 -0.654556 0
M  V30 6491 N 618.946 7.02022 0.104322 0
M  V30 6492 H 623.786 2.73166 -1.19097 0
M  V30 6493 H 621.323 1.34367 -0.598662 0
M  V30 6494 H 623.281 4.07518 0.893587 0
M  V30 6495 H 621.911 2.98455 1.22981 0
M  V30 6496 H 620.963 3.64173 -1.09921 0
M  V30 6497 H 622.275 4.83399 -1.2299 0
M  V30 6498 H 621.429 6.01273 0.8097 0
M  V30 6499 H 620.168 4.76693 1.03029 0
M  V30 6500 H 619.173 5.36651 -1.19522 0
M  V30 6501 H 620.398 6.64443 -1.4033 0
M  V30 6502 H 618.344 6.50645 0.836472 0
M  V30 6503 H 618.261 7.53979 -0.552453 0
M  V30 6504 H 619.529 7.77077 0.614069 0
M  V30 6505 N 623.758 0.647228 1.43697 0
M  V30 6506 C 625.004 0.158422 2.0218 0
M  V30 6507 C 625.337 -1.22233 1.50907 0
M  V30 6508 O 624.612 -1.81478 0.699702 0
M  V30 6509 C 624.895 0.1627 3.59732 0
M  V30 6510 C 624.748 1.57694 4.21251 0
M  V30 6511 C 626.067 -0.504138 4.37203 0
M  V30 6512 H 623.186 0.059042 0.734631 0
M  V30 6513 H 625.828 0.826772 1.71069 0
M  V30 6514 H 623.978 -0.406414 3.86368 0
M  V30 6515 H 625.65 2.19618 4.05667 0
M  V30 6516 H 623.893 2.12603 3.7813 0
M  V30 6517 H 624.564 1.53183 5.3032 0
M  V30 6518 H 627.04 -0.0199841 4.16095 0
M  V30 6519 H 625.916 -0.470394 5.46881 0
M  V30 6520 H 626.177 -1.57726 4.13007 0
M  V30 6521 N 625.236 -1.5273 0.388769 0
M  V30 6522 C 626.482 -2.01871 -0.193877 0
M  V30 6523 C 626.815 -1.27475 -1.46505 0
M  V30 6524 O 626.09 -0.375063 -1.90849 0
M  V30 6525 C 626.373 -3.5712 -0.462336 0
M  V30 6526 C 626.226 -4.42186 0.824091 0
M  V30 6527 C 627.545 -4.21881 -1.25319 0
M  V30 6528 H 624.664 -0.733764 -0.0689899 0
M  V30 6529 H 627.306 -1.82796 0.518231 0
M  V30 6530 H 625.456 -3.73504 -1.06896 0
M  V30 6531 H 627.128 -4.37554 1.46096 0
M  V30 6532 H 625.371 -4.09219 1.43952 0
M  V30 6533 H 626.042 -5.48828 0.590905 0
M  V30 6534 H 628.518 -4.0947 -0.73981 0
M  V30 6535 H 627.394 -5.30487 -1.40977 0
M  V30 6536 H 627.655 -3.79478 -2.26824 0
M  V30 6537 N 626.714 -0.118576 -1.57153 0
M  V30 6538 C 627.962 0.538461 -1.94795 0
M  V30 6539 C 628.283 1.67243 -1.00274 0
M  V30 6540 O 627.553 1.95811 -0.0589692 0
M  V30 6541 H 626.133 0.201904 -0.719197 0
M  V30 6542 H 628.795 -0.187418 -1.93997 0
M  V30 6543 H 627.891 0.933315 -2.97818 0
M  V30 6544 N 628.193 1.56834 0.155195 0
M  V30 6545 C 629.441 1.82536 0.867462 0
M  V30 6546 C 629.762 0.698168 1.82073 0
M  V30 6547 O 629.032 -0.280807 1.93877 0
M  V30 6548 H 627.612 0.673401 0.323327 0
M  V30 6549 H 630.274 1.94313 0.151156 0
M  V30 6550 H 629.37 2.77171 1.43466 0
M  V30 6551 N 629.671 -0.424282 1.51781 0
M  V30 6552 C 630.581 -1.54087 1.76902 0
M  V30 6553 C 631.597 -1.61249 0.653826 0
M  V30 6554 O 632.773 -1.78247 0.937552 0
M  V30 6555 C 629.838 -2.8996 1.90063 0
M  V30 6556 C 628.899 -2.92809 3.13945 0
M  V30 6557 C 628.132 -4.22201 3.26469 0
M  V30 6558 O 628.355 -5.15286 2.44616 0
M  V30 6559 O 627.289 -4.31599 4.1953 0
M  V30 6560 H 631.115 -1.358 2.71647 0
M  V30 6561 H 628.7 -0.608618 1.36441 0
M  V30 6562 H 630.582 -3.70575 2.0063 0
M  V30 6563 H 629.257 -3.08347 0.985067 0
M  V30 6564 H 628.164 -2.11102 3.08847 0
M  V30 6565 H 629.497 -2.79369 4.05233 0
M  V30 6566 N 631.149 -1.42148 -0.680565 0
M  V30 6567 C 632.565 -1.24947 -0.992995 0
M  V30 6568 C 632.765 -0.149527 -2.00944 0
M  V30 6569 O 631.821 0.481145 -2.47873 0
M  V30 6570 C 633.134 -2.60426 -1.5033 0
M  V30 6571 C 634.682 -2.67733 -1.62137 0
M  V30 6572 C 635.157 -4.03564 -2.16565 0
M  V30 6573 N 636.648 -4.05488 -2.23905 0
M  V30 6574 C 637.383 -5.07401 -2.67081 0
M  V30 6575 N 636.879 -6.19698 -3.09751 0
M  V30 6576 N 638.672 -4.94758 -2.66778 0
M  V30 6577 H 630.823 -2.12399 -0.0074788 0
M  V30 6578 H 633.086 -0.94571 -0.0658529 0
M  V30 6579 H 632.792 -3.41743 -0.830947 0
M  V30 6580 H 632.666 -2.83949 -2.483 0
M  V30 6581 H 635.053 -1.86765 -2.2848 0
M  V30 6582 H 635.134 -2.48004 -0.626713 0
M  V30 6583 H 634.778 -4.84987 -1.50833 0
M  V30 6584 H 634.708 -4.20641 -3.1681 0
M  V30 6585 H 637.199 -3.24415 -1.93812 0
M  V30 6586 H 637.512 -6.93318 -3.41365 0
M  V30 6587 H 635.857 -6.23212 -3.07623 0
M  V30 6588 H 639.048 -4.06105 -2.32801 0
M  V30 6589 H 639.221 -5.74317 -3.00107 0
M  V30 6590 N 632.627 0.916307 -1.28225 0
M  V30 6591 C 633.537 2.05165 -1.13775 0
M  V30 6592 C 634.553 1.73879 -0.0649418 0
M  V30 6593 O 635.729 1.99531 -0.273722 0
M  V30 6594 C 632.794 3.37385 -0.798267 0
M  V30 6595 C 631.855 3.82296 -1.95316 0
M  V30 6596 C 631.088 5.08206 -1.62978 0
M  V30 6597 O 631.311 5.6781 -0.542948 0
M  V30 6598 O 630.245 5.48768 -2.47261 0
M  V30 6599 H 634.071 2.20273 -2.09078 0
M  V30 6600 H 631.656 1.0373 -1.07519 0
M  V30 6601 H 633.538 4.16773 -0.62278 0
M  V30 6602 H 632.213 3.23458 0.125139 0
M  V30 6603 H 631.12 3.03746 -2.18378 0
M  V30 6604 H 632.453 4.00782 -2.85718 0
M  V30 6605 N 634.105 1.10431 1.1244 0
M  V30 6606 C 635.053 0.747974 2.20246 0
M  V30 6607 C 636.047 -0.255848 1.67457 0
M  V30 6608 O 637.253 -0.116221 1.79624 0
M  V30 6609 H 633.628 0.223946 0.71788 0
M  V30 6610 H 635.599 1.6661 2.47556 0
M  V30 6611 C 634.348 0.195957 3.47147 0
M  V30 6612 H 633.671 0.959606 3.88113 0
M  V30 6613 H 635.111 -0.0153154 4.23997 0
M  V30 6614 C 633.57 -1.07132 3.19413 0
M  V30 6615 O 634.1 -2.15284 3.3914 0
M  V30 6616 N 632.306 -0.98994 2.73219 0
M  V30 6617 H 631.853 -0.109736 2.57366 0
M  V30 6618 H 631.811 -1.83856 2.55038 0
M  V30 6619 N 635.583 -1.29855 0.893053 0
M  V30 6620 C 636.829 -1.96116 0.516349 0
M  V30 6621 C 637.162 -1.70281 -0.933695 0
M  V30 6622 O 636.437 -1.01205 -1.66096 0
M  V30 6623 C 636.72 -3.51068 0.801455 0
M  V30 6624 C 636.573 -3.86387 2.30272 0
M  V30 6625 C 637.892 -4.39186 0.283423 0
M  V30 6626 H 635.011 -0.712335 0.189072 0
M  V30 6627 H 637.653 -1.53587 1.11852 0
M  V30 6628 H 635.803 -3.87424 0.288949 0
M  V30 6629 H 637.475 -3.60012 2.88425 0
M  V30 6630 H 635.718 -3.34167 2.76613 0
M  V30 6631 H 636.389 -4.94512 2.45279 0
M  V30 6632 H 638.865 -4.09785 0.722187 0
M  V30 6633 H 637.741 -5.46505 0.512169 0
M  V30 6634 H 638.002 -4.34511 -0.815643 0
M  V30 6635 N 637.061 -0.65484 -1.43351 0
M  V30 6636 C 638.286 -0.175046 -2.0666 0
M  V30 6637 C 638.711 1.15104 -1.4877 0
M  V30 6638 O 638.069 1.71144 -0.598279 0
M  V30 6639 C 638.117 -0.0991544 -3.60464 0
M  V30 6640 O 637.221 0.938169 -4.01587 0
M  V30 6641 H 636.562 -0.0956148 -0.65708 0
M  V30 6642 H 639.092 -0.898222 -1.83829 0
M  V30 6643 H 639.102 0.083632 -4.07914 0
M  V30 6644 H 637.777 -1.06719 -4.01975 0
M  V30 6645 H 636.354 0.72804 -3.65724 0
M  V30 6646 N 638.539 1.52521 -0.396863 0
M  V30 6647 C 639.472 2.23118 0.478926 0
M  V30 6648 C 640.45 1.23475 1.05796 0
M  V30 6649 O 641.634 1.52486 1.10817 0
M  V30 6650 C 638.761 2.95028 1.66362 0
M  V30 6651 C 637.807 4.09002 1.20913 0
M  V30 6652 S 638.64 5.35182 0.184407 0
M  V30 6653 C 639.796 6.10616 1.37471 0
M  V30 6654 H 640.029 2.97056 -0.120542 0
M  V30 6655 H 637.562 1.53334 -0.18109 0
M  V30 6656 H 639.52 3.37066 2.34301 0
M  V30 6657 H 638.181 2.20756 2.23441 0
M  V30 6658 H 637.374 4.58445 2.09389 0
M  V30 6659 H 636.976 3.69016 0.608559 0
M  V30 6660 H 639.268 6.37247 2.30048 0
M  V30 6661 H 640.211 7.02084 0.921051 0
M  V30 6662 H 640.619 5.41499 1.59495 0
M  V30 6663 N 640.017 0.126909 1.57088 0
M  V30 6664 C 641.263 -0.529952 1.95753 0
M  V30 6665 C 641.596 -1.65823 1.01077 0
M  V30 6666 O 640.871 -1.94437 0.0494162 0
M  V30 6667 C 641.154 -1.05517 3.44294 0
M  V30 6668 C 641.007 0.0702253 4.49745 0
M  V30 6669 C 642.326 -1.9435 3.94862 0
M  V30 6670 H 639.445 -0.191168 0.711775 0
M  V30 6671 H 642.087 0.204071 1.88901 0
M  V30 6672 H 640.237 -1.68069 3.50264 0
M  V30 6673 H 641.909 0.705834 4.55868 0
M  V30 6674 H 640.152 0.732259 4.27575 0
M  V30 6675 H 640.823 -0.338642 5.5096 0
M  V30 6676 H 643.299 -1.41658 3.91244 0
M  V30 6677 H 642.175 -2.28015 4.993 0
M  V30 6678 H 642.436 -2.87299 3.36024 0
M  V30 6679 N 641.495 -1.56914 -0.146875 0
M  V30 6680 C 642.772 -1.74273 -0.888165 0
M  V30 6681 C 643.152 -0.69496 -1.99333 0
M  V30 6682 O 642.5 0.286093 -2.26702 0
M  V30 6683 C 642.71 -3.18336 -1.43051 0
M  V30 6684 C 644.058 -3.80024 -1.89387 0
M  V30 6685 O 645.082 -3.21765 -1.52792 0
M  V30 6686 O 643.941 -4.82367 -2.56874 0
M  V30 6687 H 641.035 -0.712565 -0.419738 0
M  V30 6688 H 643.581 -1.6918 -0.132791 0
M  V30 6689 H 642.353 -3.86092 -0.636274 0
M  V30 6690 H 641.976 -3.27854 -2.24938 0
M  V30 6691 N 642.974 0.416227 -1.52004 0
M  V30 6692 C 644.204 1.18401 -1.69307 0
M  V30 6693 C 644.612 1.84943 -0.399072 0
M  V30 6694 O 643.955 1.72406 0.634177 0
M  V30 6695 C 644.017 2.29465 -2.76742 0
M  V30 6696 C 643.681 1.83117 -4.18709 0
M  V30 6697 C 644.678 1.32286 -5.02789 0
M  V30 6698 C 642.363 1.90167 -4.64911 0
M  V30 6699 C 644.357 0.891178 -6.31139 0
M  V30 6700 C 642.044 1.4661 -5.93253 0
M  V30 6701 C 643.042 0.961696 -6.76196 0
M  V30 6702 O 642.73 0.532388 -8.02135 0
M  V30 6703 H 642.462 0.362098 -0.570843 0
M  V30 6704 H 645.016 0.496764 -1.99302 0
M  V30 6705 H 643.246 3.01531 -2.42107 0
M  V30 6706 H 644.935 2.91252 -2.82713 0
M  V30 6707 H 645.701 1.26218 -4.68288 0
M  V30 6708 H 641.58 2.28371 -4.00459 0
M  V30 6709 H 645.124 0.496788 -6.95829 0
M  V30 6710 H 641.021 1.52355 -6.27263 0
M  V30 6711 H 641.789 0.656339 -8.15864 0
M  V30 6712 N 644.452 1.42507 0.673017 0
M  V30 6713 C 645.415 1.4582 1.76831 0
M  V30 6714 C 646.415 0.345542 1.57043 0
M  V30 6715 O 647.605 0.606447 1.63303 0
M  V30 6716 C 644.737 1.29158 3.15485 0
M  V30 6717 H 645.93 2.43345 1.7528 0
M  V30 6718 H 643.483 1.28981 0.882817 0
M  V30 6719 H 644.218 0.325626 3.22661 0
M  V30 6720 H 644.003 2.09797 3.31252 0
M  V30 6721 H 645.493 1.34363 3.95394 0
M  V30 6722 N 645.93 -0.909495 1.28709 0
M  V30 6723 C 646.88 -1.9991 1.09636 0
M  V30 6724 C 647.864 -1.60889 0.01872 0
M  V30 6725 O 649.056 -1.75374 0.239338 0
M  V30 6726 C 646.185 -3.34675 0.764702 0
M  V30 6727 C 645.271 -3.80085 1.8814 0
M  V30 6728 N 645.662 -3.97824 3.12361 0
M  V30 6729 C 643.96 -4.09278 1.77221 0
M  V30 6730 C 644.661 -4.35928 3.85151 0
M  V30 6731 N 643.637 -4.44426 3.13028 0
M  V30 6732 H 647.439 -2.11681 2.03883 0
M  V30 6733 H 644.953 -1.09763 1.1969 0
M  V30 6734 H 646.95 -4.12426 0.609132 0
M  V30 6735 H 645.61 -3.24255 -0.169952 0
M  V30 6736 H 646.621 -3.83626 3.47925 0
M  V30 6737 H 643.298 -4.0747 0.909621 0
M  V30 6738 H 644.688 -4.57581 4.92006 0
M  V30 6739 N 647.408 -1.11026 -1.11852 0
M  V30 6740 C 648.356 -0.759643 -2.19846 0
M  V30 6741 C 649.35 0.246964 -1.6759 0
M  V30 6742 O 650.556 0.106693 -1.79684 0
M  V30 6743 H 646.931 -0.22775 -0.716683 0
M  V30 6744 H 648.902 -1.6792 -2.46669 0
M  V30 6745 C 647.651 -0.214364 -3.47039 0
M  V30 6746 H 646.974 -0.980175 -3.87599 0
M  V30 6747 H 648.414 -0.00717047 -4.23999 0
M  V30 6748 C 646.873 1.05436 -3.19976 0
M  V30 6749 O 647.403 2.13483 -3.40276 0
M  V30 6750 N 645.609 0.975436 -2.7374 0
M  V30 6751 H 645.156 0.0960853 -2.57421 0
M  V30 6752 H 645.114 1.82501 -2.5601 0
M  V30 6753 N 648.886 1.2938 -0.899927 0
M  V30 6754 C 649.834 2.29675 -0.367698 0
M  V30 6755 C 650.828 1.60787 0.533282 0
M  V30 6756 O 652.034 1.75126 0.416058 0
M  V30 6757 H 648.409 0.745284 -0.100279 0
M  V30 6758 H 650.38 2.72008 -1.22696 0
M  V30 6759 C 649.129 3.45512 0.389483 0
M  V30 6760 H 648.452 3.98713 -0.294575 0
M  V30 6761 H 649.892 4.17725 0.726744 0
M  V30 6762 C 648.351 2.969 1.59223 0
M  V30 6763 O 648.881 2.98195 2.69152 0
M  V30 6764 N 647.087 2.52728 1.43447 0
M  V30 6765 H 646.634 2.51873 0.540148 0
M  V30 6766 H 646.592 2.20561 2.24054 0
M  V30 6767 N 650.364 0.662433 1.43002 0
M  V30 6768 C 651.594 0.187343 2.05749 0
M  V30 6769 C 652.002 -1.15582 1.49791 0
M  V30 6770 O 651.345 -1.72651 0.627487 0
M  V30 6771 C 651.407 0.0316493 3.59486 0
M  V30 6772 C 651.071 1.30156 4.38073 0
M  V30 6773 C 652.068 2.23234 4.69535 0
M  V30 6774 C 649.753 1.54572 4.77926 0
M  V30 6775 C 651.747 3.39012 5.39768 0
M  V30 6776 C 649.434 2.70641 5.47902 0
M  V30 6777 C 650.432 3.62687 5.78746 0
M  V30 6778 O 650.12 4.76728 6.47291 0
M  V30 6779 H 649.852 0.0915214 0.669776 0
M  V30 6780 H 652.406 0.905982 1.8434 0
M  V30 6781 H 650.636 -0.742451 3.79506 0
M  V30 6782 H 652.325 -0.401977 4.03905 0
M  V30 6783 H 653.091 2.05616 4.39257 0
M  V30 6784 H 648.97 0.83804 4.53319 0
M  V30 6785 H 652.514 4.10877 5.63761 0
M  V30 6786 H 648.411 2.88189 5.77596 0
M  V30 6787 H 649.179 4.76113 6.65777 0
M  V30 6788 N 651.842 -1.52309 0.404946 0
M  V30 6789 C 652.774 -2.24579 -0.45791 0
M  V30 6790 C 653.787 -1.2739 -1.01369 0
M  V30 6791 O 654.976 -1.53363 -0.91335 0
M  V30 6792 C 652.076 -2.9608 -1.64893 0
M  V30 6793 C 651.249 -4.20106 -1.21777 0
M  V30 6794 C 650.308 -4.74468 -2.27523 0
M  V30 6795 O 649.334 -5.37157 -1.88285 0
M  V30 6796 N 650.536 -4.55678 -3.59635 0
M  V30 6797 H 653.301 -2.99265 0.161341 0
M  V30 6798 H 650.862 -1.60228 0.232107 0
M  V30 6799 H 652.854 -3.29344 -2.35191 0
M  V30 6800 H 651.424 -2.24606 -2.17419 0
M  V30 6801 H 650.644 -3.92704 -0.343071 0
M  V30 6802 H 651.932 -5.00658 -0.906596 0
M  V30 6803 H 651.33 -4.05673 -3.94266 0
M  V30 6804 H 649.887 -4.9339 -4.25922 0
M  V30 6805 N 653.32 -0.135238 -1.57019 0
M  V30 6806 C 654.283 0.794707 -2.14981 0
M  V30 6807 C 655.283 1.18342 -1.08866 0
M  V30 6808 O 656.473 1.10627 -1.34563 0
M  V30 6809 C 653.605 2.07685 -2.70333 0
M  V30 6810 H 654.798 0.290696 -2.98488 0
M  V30 6811 H 652.351 0.114128 -1.55883 0
M  V30 6812 H 653.086 2.6248 -1.9046 0
M  V30 6813 H 652.871 1.80745 -3.47957 0
M  V30 6814 H 654.361 2.74127 -3.1503 0
M  V30 6815 N 654.798 1.5699 0.138552 0
M  V30 6816 C 655.73 1.95515 1.1961 0
M  V30 6817 C 656.743 0.852002 1.38726 0
M  V30 6818 O 657.932 1.13038 1.38147 0
M  V30 6819 C 655.032 2.2213 2.55952 0
M  V30 6820 C 654.205 3.53424 2.57702 0
M  V30 6821 C 653.264 3.6848 3.75645 0
M  V30 6822 O 652.29 4.4079 3.60129 0
M  V30 6823 N 653.492 3.05777 4.93438 0
M  V30 6824 H 656.257 2.86838 0.868557 0
M  V30 6825 H 653.818 1.58542 0.328033 0
M  V30 6826 H 655.81 2.29435 3.33379 0
M  V30 6827 H 654.38 1.3703 2.80965 0
M  V30 6828 H 653.6 3.57484 1.6613 0
M  V30 6829 H 654.888 4.39759 2.55909 0
M  V30 6830 H 654.286 2.46961 5.08947 0
M  V30 6831 H 652.843 3.18631 5.6861 0
M  V30 6832 N 656.276 -0.40816 1.52223 0
M  V30 6833 C 657.501 -1.18127 1.70472 0
M  V30 6834 C 657.926 -1.83491 0.41384 0
M  V30 6835 O 657.284 -1.70047 -0.628778 0
M  V30 6836 C 657.332 -2.21935 2.84213 0
M  V30 6837 O 656.436 -3.28099 2.4985 0
M  V30 6838 H 655.777 -0.344781 0.56747 0
M  V30 6839 H 658.307 -0.478328 1.9893 0
M  V30 6840 H 658.317 -2.66248 3.09153 0
M  V30 6841 H 656.992 -1.73744 3.7787 0
M  V30 6842 H 655.569 -2.89058 2.35584 0
M  V30 6843 N 657.755 -1.42862 -0.66545 0
M  V30 6844 C 658.718 -1.46756 -1.76055 0
M  V30 6845 C 659.718 -0.353866 -1.56858 0
M  V30 6846 O 660.908 -0.615099 -1.62979 0
M  V30 6847 C 658.04 -1.30829 -3.14796 0
M  V30 6848 H 659.233 -2.44271 -1.73987 0
M  V30 6849 H 656.786 -1.29447 -0.875965 0
M  V30 6850 H 657.521 -0.342733 -3.22484 0
M  V30 6851 H 657.306 -2.11551 -3.30134 0
M  V30 6852 H 658.796 -1.36458 -3.94676 0
M  V30 6853 N 659.233 0.902656 -1.29189 0
M  V30 6854 C 660.479 1.65532 -1.17163 0
M  V30 6855 C 660.812 1.92216 0.276879 0
M  V30 6856 O 660.087 1.53048 1.20027 0
M  V30 6857 C 660.37 3.00629 -1.98228 0
M  V30 6858 C 660.223 2.81029 -3.51202 0
M  V30 6859 C 661.542 4.01321 -1.80635 0
M  V30 6860 H 658.661 0.60071 -0.426985 0
M  V30 6861 H 661.303 1.04578 -1.5863 0
M  V30 6862 H 659.453 3.52656 -1.62991 0
M  V30 6863 H 661.125 2.35927 -3.96404 0
M  V30 6864 H 659.368 2.1587 -3.76275 0
M  V30 6865 H 660.039 3.77014 -4.03192 0
M  V30 6866 H 662.515 3.58394 -2.11406 0
M  V30 6867 H 661.391 4.93792 -2.3971 0
M  V30 6868 H 661.652 4.35505 -0.760754 0
M  V30 6869 N 660.711 1.11618 1.11262 0
M  V30 6870 C 662.122 0.881942 1.64556 0
M  V30 6871 C 662.473 -0.585442 1.87262 0
M  V30 6872 O 661.598 -1.44795 1.60821 0
M  V30 6873 C 662.193 1.59446 2.98935 0
M  V30 6874 C 660.752 1.40661 3.4913 0
M  V30 6875 C 659.899 1.63593 2.23903 0
M  V30 6876 H 662.85 1.27217 0.94877 0
M  V30 6877 H 662.871 1.04054 3.65996 0
M  V30 6878 H 662.383 2.66241 2.82378 0
M  V30 6879 H 660.484 0.360835 3.70849 0
M  V30 6880 H 660.597 2.15693 4.27801 0
M  V30 6881 H 658.961 1.05944 2.3162 0
M  V30 6882 H 659.744 2.71666 2.09886 0
M  V30 6883 N 662.189 -1.289 0.906776 0
M  V30 6884 C 663.119 -2.29932 0.406659 0
M  V30 6885 C 664.1 -1.6189 -0.522061 0
M  V30 6886 O 665.285 -1.8935 -0.431283 0
M  V30 6887 C 662.415 -3.45425 -0.360366 0
M  V30 6888 C 661.369 -4.25316 0.478574 0
M  V30 6889 C 660.695 -5.33076 -0.416373 0
M  V30 6890 C 661.995 -4.92739 1.7322 0
M  V30 6891 H 663.689 -2.72013 1.25097 0
M  V30 6892 H 661.235 -1.30768 0.602977 0
M  V30 6893 H 663.188 -4.15186 -0.721029 0
M  V30 6894 H 661.912 -3.02206 -1.23852 0
M  V30 6895 H 660.571 -3.57273 0.821662 0
M  V30 6896 H 660.219 -4.86101 -1.29287 0
M  V30 6897 H 659.919 -5.8743 0.141309 0
M  V30 6898 H 661.443 -6.05686 -0.773072 0
M  V30 6899 H 662.857 -5.54898 1.44086 0
M  V30 6900 H 661.254 -5.57057 2.23175 0
M  V30 6901 H 662.324 -4.17625 2.46408 0
M  V30 6902 N 663.667 -0.670007 -1.42649 0
M  V30 6903 C 665.083 -0.33911 -1.55956 0
M  V30 6904 C 665.283 1.1558 -1.65056 0
M  V30 6905 O 664.339 1.94111 -1.61485 0
M  V30 6906 C 665.652 -1.06522 -2.812 0
M  V30 6907 C 667.2 -1.04708 -2.94966 0
M  V30 6908 C 667.675 -1.75442 -4.23065 0
M  V30 6909 N 669.166 -1.72286 -4.29967 0
M  V30 6910 C 669.901 -2.23877 -5.27889 0
M  V30 6911 N 669.397 -2.83829 -6.31991 0
M  V30 6912 N 671.19 -2.14279 -5.19654 0
M  V30 6913 H 663.341 -1.6399 -1.34986 0
M  V30 6914 H 665.604 -0.690603 -0.649439 0
M  V30 6915 H 665.31 -2.12033 -2.80597 0
M  V30 6916 H 665.184 -0.627398 -3.71946 0
M  V30 6917 H 667.571 -0.000315966 -2.951 0
M  V30 6918 H 667.652 -1.52374 -2.05465 0
M  V30 6919 H 667.296 -2.80084 -4.23693 0
M  V30 6920 H 667.226 -1.25229 -5.11493 0
M  V30 6921 H 669.717 -1.28554 -3.55362 0
M  V30 6922 H 670.03 -3.20827 -7.03057 0
M  V30 6923 H 668.375 -2.87896 -6.32567 0
M  V30 6924 H 671.566 -1.67135 -4.37245 0
M  V30 6925 H 671.739 -2.54792 -5.95806 0
M  V30 6926 N 665.145 1.52092 -0.413018 0
M  V30 6927 C 666.095 2.23947 0.427993 0
M  V30 6928 C 667.079 1.25229 1.01027 0
M  V30 6929 O 668.271 1.50448 0.932444 0
M  V30 6930 C 665.4 3.0672 1.542 0
M  V30 6931 C 664.486 4.12851 0.970307 0
M  V30 6932 N 664.877 5.05644 0.125611 0
M  V30 6933 C 663.175 4.28404 1.24042 0
M  V30 6934 C 663.876 5.8138 -0.192876 0
M  V30 6935 N 662.852 5.41996 0.417273 0
M  V30 6936 H 666.654 2.93048 -0.223628 0
M  V30 6937 H 664.168 1.60852 -0.223664 0
M  V30 6938 H 666.165 3.56754 2.15714 0
M  V30 6939 H 664.825 2.39159 2.19621 0
M  V30 6940 H 665.836 5.17348 -0.238995 0
M  V30 6941 H 662.513 3.72071 1.89391 0
M  V30 6942 H 663.903 6.66129 -0.878762 0
M  V30 6943 N 666.623 0.143563 1.56945 0
M  V30 6944 C 667.533 -0.810562 2.20152 0
M  V30 6945 C 668.549 -1.27431 1.1848 0
M  V30 6946 O 669.725 -1.33221 1.51044 0
M  V30 6947 C 666.79 -2.03353 2.80799 0
M  V30 6948 C 665.851 -1.61936 3.97587 0
M  V30 6949 C 665.084 -2.78403 4.55332 0
M  V30 6950 O 665.307 -3.94521 4.11958 0
M  V30 6951 O 664.241 -2.54073 5.45647 0
M  V30 6952 H 668.067 -0.30253 3.02189 0
M  V30 6953 H 665.652 -0.0832925 1.49168 0
M  V30 6954 H 667.534 -2.74932 3.19359 0
M  V30 6955 H 666.209 -2.53116 2.01777 0
M  V30 6956 H 665.116 -0.873904 3.6375 0
M  V30 6957 H 666.449 -1.16892 4.78118 0
M  V30 6958 N 668.101 -1.57061 -0.130224 0
M  V30 6959 C 669.329 -1.88432 -0.854456 0
M  V30 6960 C 669.744 -0.733608 -1.73964 0
M  V30 6961 O 669.101 0.296029 -1.80083 0
M  V30 6962 C 669.152 -3.1918 -1.69724 0
M  V30 6963 O 668.873 -4.2982 -0.847705 0
M  V30 6964 C 670.374 -3.6418 -2.5276 0
M  V30 6965 H 667.594 -0.624193 -0.246221 0
M  V30 6966 H 670.138 -2.04159 -0.11798 0
M  V30 6967 H 668.293 -3.05156 -2.3866 0
M  V30 6968 H 668.707 -5.04689 -1.42792 0
M  V30 6969 H 670.181 -4.58457 -3.07443 0
M  V30 6970 H 670.658 -2.90285 -3.29592 0
M  V30 6971 H 671.264 -3.80954 -1.89087 0
M  V30 6972 N 669.579 0.400081 -1.52437 0
M  V30 6973 C 670.529 1.48734 -1.72807 0
M  V30 6974 C 671.513 1.50004 -0.582032 0
M  V30 6975 O 672.705 1.55828 -0.839449 0
M  V30 6976 C 669.834 2.86568 -1.89034 0
M  V30 6977 C 668.92 2.8991 -3.09537 0
M  V30 6978 N 669.311 2.62937 -4.32086 0
M  V30 6979 C 667.609 3.21078 -3.09556 0
M  V30 6980 C 668.31 2.73079 -5.13617 0
M  V30 6981 N 667.286 3.06342 -4.49061 0
M  V30 6982 H 671.088 1.26689 -2.65193 0
M  V30 6983 H 668.602 0.607902 -1.50593 0
M  V30 6984 H 670.599 3.64834 -2.01746 0
M  V30 6985 H 669.259 3.09604 -0.978547 0
M  V30 6986 H 670.27 2.37163 -4.60406 0
M  V30 6987 H 666.947 3.49651 -2.28146 0
M  V30 6988 H 668.337 2.55863 -6.21276 0
M  V30 6989 N 671.057 1.43213 0.657864 0
M  V30 6990 C 672.305 1.44298 1.41501 0
M  V30 6991 C 672.626 0.0666478 1.94886 0
M  V30 6992 O 671.896 -0.897345 1.74139 0
M  V30 6993 H 670.476 0.531257 0.525143 0
M  V30 6994 H 673.138 1.78777 0.776195 0
M  V30 6995 H 672.234 2.1528 2.25966 0
M  V30 6996 N 672.536 -0.895792 1.29666 0
M  V30 6997 C 673.784 -1.64339 1.17631 0
M  V30 6998 C 674.105 -1.93099 -0.271643 0
M  V30 6999 O 673.375 -1.55981 -1.18518 0
M  V30 7000 H 671.955 -0.609162 0.432354 0
M  V30 7001 H 674.617 -1.07389 1.62646 0
M  V30 7002 H 673.713 -2.59815 1.72924 0
M  V30 7003 N 674.014 -1.12206 -1.10668 0
M  V30 7004 C 674.924 -0.800686 -2.20513 0
M  V30 7005 C 675.94 0.209512 -1.72734 0
M  V30 7006 O 677.116 0.043705 -2.01353 0
M  V30 7007 C 674.181 -0.257353 -3.45744 0
M  V30 7008 C 673.242 -1.32718 -4.0827 0
M  V30 7009 C 672.475 -0.809674 -5.27522 0
M  V30 7010 O 672.698 0.35742 -5.69279 0
M  V30 7011 O 671.632 -1.57816 -5.80842 0
M  V30 7012 H 675.458 -1.71807 -2.50432 0
M  V30 7013 H 673.043 -0.898546 -1.19359 0
M  V30 7014 H 674.925 0.0408849 -4.2138 0
M  V30 7015 H 673.6 0.632627 -3.17458 0
M  V30 7016 H 672.507 -1.67855 -3.34329 0
M  V30 7017 H 673.84 -2.19083 -4.40753 0
M  V30 7018 N 675.492 1.28418 -0.913599 0
M  V30 7019 C 676.769 1.89977 -0.465619 0
M  V30 7020 C 677.149 1.82813 1.05559 0
M  V30 7021 O 676.497 1.26397 1.90358 0
M  V30 7022 C 676.707 3.34492 -0.995813 0
M  V30 7023 C 678.055 4.11468 -1.04782 0
M  V30 7024 O 679.079 3.43451 -0.944445 0
M  V30 7025 O 677.938 5.33046 -1.20518 0
M  V30 7026 H 675.032 0.813734 -0.147532 0
M  V30 7027 H 677.578 1.36786 -1.00437 0
M  V30 7028 H 676.35 3.33929 -2.03978 0
M  V30 7029 H 675.973 3.95181 -0.437878 0
M  V30 7030 N 676.97 0.677563 1.42291 0
M  V30 7031 C 678.216 0.201272 2.01799 0
M  V30 7032 C 678.549 -1.19004 1.53465 0
M  V30 7033 O 677.824 -1.79953 0.738039 0
M  V30 7034 C 678.107 0.238968 3.59306 0
M  V30 7035 C 677.96 1.66594 4.17812 0
M  V30 7036 C 679.279 -0.411287 4.38174 0
M  V30 7037 H 676.398 0.0746114 0.733214 0
M  V30 7038 H 679.04 0.862872 1.69276 0
M  V30 7039 H 677.19 -0.324368 3.87144 0
M  V30 7040 H 678.862 2.28173 4.00917 0
M  V30 7041 H 677.105 2.20576 3.73536 0
M  V30 7042 H 677.776 1.64398 5.26951 0
M  V30 7043 H 680.252 0.0682804 4.16044 0
M  V30 7044 H 679.128 -0.354286 5.47755 0
M  V30 7045 H 679.389 -1.4893 4.1626 0
M  V30 7046 N 678.448 -1.51871 0.421078 0
M  V30 7047 C 679.411 -2.25914 -0.386712 0
M  V30 7048 C 680.411 -1.28733 -0.963555 0
M  V30 7049 O 681.601 -1.52579 -0.840556 0
M  V30 7050 C 678.733 -3.03853 -1.54551 0
M  V30 7051 H 679.926 -2.98754 0.261978 0
M  V30 7052 H 677.479 -1.5533 0.173862 0
M  V30 7053 H 678.214 -2.35392 -2.23072 0
M  V30 7054 H 677.999 -3.75215 -1.13824 0
M  V30 7055 H 679.489 -3.59984 -2.11663 0
M  V30 7056 N 679.926 -0.151884 -1.56866 0
M  V30 7057 C 681.172 0.498742 -1.96572 0
M  V30 7058 C 681.505 1.64194 -1.03702 0
M  V30 7059 O 680.78 1.94334 -0.0803432 0
M  V30 7060 C 681.063 1.00027 -3.45929 0
M  V30 7061 C 680.916 -0.141767 -4.49577 0
M  V30 7062 C 682.235 1.88044 -3.97904 0
M  V30 7063 H 679.354 0.17982 -0.714726 0
M  V30 7064 H 681.996 -0.234097 -1.88552 0
M  V30 7065 H 680.146 1.62476 -3.52894 0
M  V30 7066 H 681.818 -0.778269 -4.54687 0
M  V30 7067 H 680.061 -0.80019 -4.26356 0
M  V30 7068 H 680.732 0.250947 -5.51429 0
M  V30 7069 H 683.208 1.35416 -3.93449 0
M  V30 7070 H 682.084 2.20043 -5.02864 0
M  V30 7071 H 682.345 2.81916 -3.40552 0
M  V30 7072 N 681.404 1.57128 0.121893 0
M  V30 7073 C 682.651 1.847 0.830188 0
M  V30 7074 C 682.979 0.736543 1.80015 0
M  V30 7075 O 682.234 -0.272358 1.93796 0
M  V30 7076 C 682.533 3.1874 1.61677 0
M  V30 7077 C 682.199 4.43901 0.791361 0
M  V30 7078 C 680.861 4.77887 0.563731 0
M  V30 7079 C 683.213 5.20753 0.215823 0
M  V30 7080 C 680.541 5.86168 -0.249737 0
M  V30 7081 C 682.893 6.29891 -0.584821 0
M  V30 7082 C 681.557 6.6241 -0.822794 0
M  V30 7083 H 680.827 0.675866 0.303787 0
M  V30 7084 H 683.474 1.91276 0.0926894 0
M  V30 7085 H 681.779 3.07728 2.42509 0
M  V30 7086 H 683.476 3.37295 2.16872 0
M  V30 7087 H 680.066 4.17272 0.978867 0
M  V30 7088 H 684.25 4.94851 0.378907 0
M  V30 7089 H 679.506 6.0979 -0.44336 0
M  V30 7090 H 683.68 6.88624 -1.03779 0
M  V30 7091 H 681.307 7.46147 -1.45496 0
M  V30 7092 N 682.882 -0.391992 1.52647 0
M  V30 7093 C 684.107 -1.16312 1.71716 0
M  V30 7094 C 684.532 -1.83042 0.433279 0
M  V30 7095 O 683.89 -1.70705 -0.610707 0
M  V30 7096 C 683.938 -2.18908 2.86551 0
M  V30 7097 O 683.042 -3.2543 2.53316 0
M  V30 7098 H 682.383 -0.338743 0.571095 0
M  V30 7099 H 684.913 -0.457202 1.99426 0
M  V30 7100 H 684.923 -2.62954 3.1196 0
M  V30 7101 H 683.598 -1.69726 3.79692 0
M  V30 7102 H 682.175 -2.86543 2.38637 0
M  V30 7103 N 684.36 -1.4356 -0.65026 0
M  V30 7104 C 685.307 -1.48948 -1.76304 0
M  V30 7105 C 686.277 -0.338919 -1.62605 0
M  V30 7106 O 687.462 -0.54649 -1.82806 0
M  V30 7107 C 684.602 -1.42131 -3.14472 0
M  V30 7108 C 683.715 -2.67415 -3.39284 0
M  V30 7109 C 682.85 -2.52565 -4.67316 0
M  V30 7110 C 681.889 -3.73103 -4.85243 0
M  V30 7111 N 681.026 -3.57046 -6.04535 0
M  V30 7112 H 685.866 -2.44032 -1.71034 0
M  V30 7113 H 683.403 -1.21131 -0.834601 0
M  V30 7114 H 685.361 -1.36172 -3.94351 0
M  V30 7115 H 683.991 -0.506273 -3.18805 0
M  V30 7116 H 683.043 -2.8364 -2.53481 0
M  V30 7117 H 684.355 -3.56943 -3.48415 0
M  V30 7118 H 683.509 -2.44331 -5.55326 0
M  V30 7119 H 682.248 -1.60566 -4.60511 0
M  V30 7120 H 681.253 -3.81743 -3.95667 0
M  V30 7121 H 682.478 -4.66115 -4.93876 0
M  V30 7122 H 680.424 -2.67783 -5.98856 0
M  V30 7123 H 680.341 -4.40178 -6.14638 0
M  V30 7124 H 681.609 -3.52669 -6.95158 0
M  V30 7125 N 685.838 0.888903 -1.30139 0
M  V30 7126 C 687.086 1.63713 -1.18501 0
M  V30 7127 C 687.407 1.9324 0.261399 0
M  V30 7128 O 686.677 1.56608 1.17689 0
M  V30 7129 H 685.257 0.606861 -0.435579 0
M  V30 7130 H 687.919 1.06525 -1.63213 0
M  V30 7131 H 687.015 2.58894 -1.743 0
M  V30 7132 N 687.317 1.12792 1.10072 0
M  V30 7133 C 688.728 0.899346 1.63611 0
M  V30 7134 C 689.079 -0.565547 1.87872 0
M  V30 7135 O 688.204 -1.43081 1.62348 0
M  V30 7136 C 688.799 1.62608 2.97227 0
M  V30 7137 C 687.358 1.44356 3.47618 0
M  V30 7138 C 686.505 1.65958 2.22156 0
M  V30 7139 H 689.456 1.28216 0.935223 0
M  V30 7140 H 689.477 1.0793 3.64872 0
M  V30 7141 H 688.989 2.69221 2.79538 0
M  V30 7142 H 687.09 0.400148 3.70445 0
M  V30 7143 H 687.203 2.20218 4.25489 0
M  V30 7144 H 685.567 1.08395 2.30484 0
M  V30 7145 H 686.35 2.73877 2.06993 0
M  V30 7146 N 688.795 -1.27931 0.920396 0
M  V30 7147 C 689.728 -2.2537 0.358285 0
M  V30 7148 C 690.706 -1.53328 -0.541242 0
M  V30 7149 O 691.89 -1.82196 -0.483399 0
M  V30 7150 C 689.017 -3.35178 -0.487193 0
M  V30 7151 C 688.063 -4.25079 0.347881 0
M  V30 7152 S 688.896 -5.05792 1.75883 0
M  V30 7153 C 690.052 -6.19089 0.920832 0
M  V30 7154 H 690.285 -2.72701 1.18413 0
M  V30 7155 H 687.818 -1.36474 0.722088 0
M  V30 7156 H 689.776 -3.98895 -0.96916 0
M  V30 7157 H 688.437 -2.865 -1.28749 0
M  V30 7158 H 687.63 -5.03113 -0.298912 0
M  V30 7159 H 687.232 -3.66119 0.763748 0
M  V30 7160 H 689.524 -6.77326 0.15349 0
M  V30 7161 H 690.467 -6.8803 1.67394 0
M  V30 7162 H 690.875 -5.62573 0.466069 0
M  V30 7163 N 690.273 -0.685099 -1.4193 0
M  V30 7164 C 691.236 -0.0222632 -2.29189 0
M  V30 7165 C 692.236 0.7186 -1.4385 0
M  V30 7166 O 693.426 0.555058 -1.6512 0
M  V30 7167 C 690.558 0.979013 -3.2654 0
M  V30 7168 H 691.751 -0.790424 -2.89296 0
M  V30 7169 H 689.304 -0.448012 -1.49742 0
M  V30 7170 H 690.039 1.77531 -2.71392 0
M  V30 7171 H 689.824 0.451037 -3.89497 0
M  V30 7172 H 691.314 1.44091 -3.91954 0
M  V30 7173 N 691.751 1.51645 -0.429126 0
M  V30 7174 C 692.701 2.24388 0.404217 0
M  V30 7175 C 693.685 1.26294 0.996933 0
M  V30 7176 O 694.877 1.51428 0.916434 0
M  V30 7177 C 692.006 3.08338 1.50938 0
M  V30 7178 C 691.092 4.13857 0.926464 0
M  V30 7179 N 691.483 5.05749 0.0719732 0
M  V30 7180 C 689.781 4.29695 1.19491 0
M  V30 7181 C 690.482 5.81143 -0.254528 0
M  V30 7182 N 689.458 5.42408 0.359763 0
M  V30 7183 H 693.26 2.92794 -0.254697 0
M  V30 7184 H 690.774 1.60606 -0.240712 0
M  V30 7185 H 692.771 3.59022 2.11918 0
M  V30 7186 H 691.431 2.41475 2.17072 0
M  V30 7187 H 692.442 5.17066 -0.293854 0
M  V30 7188 H 689.119 3.74059 1.85434 0
M  V30 7189 H 690.509 6.65159 -0.949365 0
M  V30 7190 N 693.229 0.160201 1.56784 0
M  V30 7191 C 694.159 -0.770264 2.2043 0
M  V30 7192 C 695.14 -1.24736 1.15651 0
M  V30 7193 O 696.325 -1.30253 1.44041 0
M  V30 7194 C 693.455 -2.00427 2.83631 0
M  V30 7195 C 692.409 -1.66345 3.94352 0
M  V30 7196 C 691.735 -2.97119 4.4455 0
M  V30 7197 C 693.035 -0.899972 5.14488 0
M  V30 7198 H 694.729 -0.239783 2.98438 0
M  V30 7199 H 692.275 -0.113891 1.43549 0
M  V30 7200 H 694.228 -2.66012 3.26827 0
M  V30 7201 H 692.952 -2.5587 2.02973 0
M  V30 7202 H 691.611 -1.03133 3.51794 0
M  V30 7203 H 691.259 -3.5058 3.60698 0
M  V30 7204 H 690.959 -2.75073 5.19238 0
M  V30 7205 H 692.483 -3.63753 4.90425 0
M  V30 7206 H 693.897 -1.45818 5.54446 0
M  V30 7207 H 692.294 -0.778968 5.95023 0
M  V30 7208 H 693.364 0.105827 4.84785 0
M  V30 7209 N 694.707 -1.5719 -0.113559 0
M  V30 7210 C 695.637 -2.03772 -1.14013 0
M  V30 7211 C 696.618 -0.923176 -1.42869 0
M  V30 7212 O 697.803 -1.19325 -1.53216 0
M  V30 7213 C 694.933 -2.44663 -2.4649 0
M  V30 7214 C 693.887 -3.59612 -2.32085 0
M  V30 7215 C 693.213 -3.8642 -3.69573 0
M  V30 7216 C 694.513 -4.91149 -1.7768 0
M  V30 7217 H 696.207 -2.89785 -0.752665 0
M  V30 7218 H 693.753 -1.39412 -0.360609 0
M  V30 7219 H 695.706 -2.75857 -3.18561 0
M  V30 7220 H 694.43 -1.55628 -2.87137 0
M  V30 7221 H 693.089 -3.28636 -1.62461 0
M  V30 7222 H 692.737 -2.94581 -4.07715 0
M  V30 7223 H 692.437 -4.63797 -3.60786 0
M  V30 7224 H 693.961 -4.2007 -4.4314 0
M  V30 7225 H 695.375 -5.20843 -2.39574 0
M  V30 7226 H 693.772 -5.72562 -1.79701 0
M  V30 7227 H 694.842 -4.79301 -0.734776 0
M  V30 7228 N 696.185 0.383891 -1.52853 0
M  V30 7229 C 697.135 1.46892 -1.74375 0
M  V30 7230 C 698.119 1.49378 -0.597909 0
M  V30 7231 O 699.311 1.54929 -0.855929 0
M  V30 7232 C 696.44 2.84547 -1.92063 0
M  V30 7233 C 695.526 2.8661 -3.12594 0
M  V30 7234 N 695.917 2.58339 -4.3485 0
M  V30 7235 C 694.215 3.17777 -3.12944 0
M  V30 7236 C 694.916 2.67616 -5.16485 0
M  V30 7237 N 693.892 3.01561 -4.52285 0
M  V30 7238 H 697.694 1.23869 -2.66522 0
M  V30 7239 H 695.208 0.591895 -1.51229 0
M  V30 7240 H 697.205 3.62674 -2.05604 0
M  V30 7241 H 695.865 3.08549 -1.01133 0
M  V30 7242 H 696.876 2.32266 -4.62896 0
M  V30 7243 H 693.553 3.47211 -2.31842 0
M  V30 7244 H 694.943 2.4926 -6.23955 0
M  V30 7245 N 697.663 1.43903 0.642637 0
M  V30 7246 C 698.911 1.45791 1.39962 0
M  V30 7247 C 699.232 0.0873144 1.94804 0
M  V30 7248 O 698.502 -0.878825 1.75081 0
M  V30 7249 H 697.082 0.536797 0.519479 0
M  V30 7250 H 699.744 1.7959 0.757189 0
M  V30 7251 H 698.84 2.17665 2.2367 0
M  V30 7252 N 699.141 -0.881989 1.30609 0
M  V30 7253 C 700.387 -1.63647 1.19781 0
M  V30 7254 C 700.72 -1.92632 -0.246265 0
M  V30 7255 O 699.995 -1.54938 -1.17577 0
M  V30 7256 C 700.278 -2.97437 2.02985 0
M  V30 7257 C 700.131 -2.75406 3.55628 0
M  V30 7258 C 701.45 -3.98397 1.86997 0
M  V30 7259 H 698.569 -0.593841 0.436488 0
M  V30 7260 H 701.211 -1.02041 1.60273 0
M  V30 7261 H 699.361 -3.50018 1.68581 0
M  V30 7262 H 701.033 -2.2959 4.00107 0
M  V30 7263 H 699.276 -2.09856 3.79662 0
M  V30 7264 H 699.947 -3.70552 4.09139 0
M  V30 7265 H 702.423 -3.54986 2.17081 0
M  V30 7266 H 701.299 -4.89916 2.47536 0
M  V30 7267 H 701.56 -4.3424 0.829943 0
M  V30 7268 N 700.619 -1.13374 -1.09472 0
M  V30 7269 C 701.569 -0.77946 -2.14263 0
M  V30 7270 C 702.553 0.226271 -1.59301 0
M  V30 7271 O 703.745 0.0302581 -1.76974 0
M  V30 7272 C 700.874 -0.246635 -3.42413 0
M  V30 7273 C 699.96 -1.28124 -4.04283 0
M  V30 7274 N 700.351 -2.48201 -4.40715 0
M  V30 7275 C 698.649 -1.12892 -4.31476 0
M  V30 7276 C 699.35 -3.14347 -4.8945 0
M  V30 7277 N 698.326 -2.41771 -4.86876 0
M  V30 7278 H 702.128 -1.69305 -2.40235 0
M  V30 7279 H 699.642 -1.01598 -1.26695 0
M  V30 7280 H 701.639 0.0254131 -4.16892 0
M  V30 7281 H 700.299 0.661287 -3.17895 0
M  V30 7282 H 701.31 -2.85511 -4.32093 0
M  V30 7283 H 697.987 -0.279117 -4.16566 0
M  V30 7284 H 699.377 -4.16663 -5.27107 0
M  V30 7285 N 702.098 1.27442 -0.927168 0
M  V30 7286 C 703.008 2.30599 -0.431448 0
M  V30 7287 C 704.024 1.67028 0.48761 0
M  V30 7288 O 705.2 1.97962 0.370546 0
M  V30 7289 C 702.265 3.45327 0.308292 0
M  V30 7290 C 701.326 4.24418 -0.645615 0
M  V30 7291 C 700.559 5.33667 0.0589164 0
M  V30 7292 O 700.782 5.5589 1.27838 0
M  V30 7293 O 699.716 5.98774 -0.612638 0
M  V30 7294 H 703.542 2.75036 -1.28797 0
M  V30 7295 H 701.127 1.32382 -0.692495 0
M  V30 7296 H 703.009 4.15107 0.725555 0
M  V30 7297 H 701.684 3.02945 1.14043 0
M  V30 7298 H 700.591 3.57174 -1.11255 0
M  V30 7299 H 701.924 4.70512 -1.44496 0
M  V30 7300 N 703.576 0.692616 1.41565 0
M  V30 7301 C 704.508 -0.0137132 2.29196 0
M  V30 7302 C 705.521 -0.747417 1.44629 0
M  V30 7303 O 706.71 -0.598611 1.68163 0
M  V30 7304 C 703.81 -1.04347 3.22436 0
M  V30 7305 C 702.983 -0.379985 4.35746 0
M  V30 7306 C 702.042 -1.31195 5.09583 0
M  V30 7307 O 701.068 -0.805455 5.63472 0
M  V30 7308 N 702.27 -2.64443 5.16769 0
M  V30 7309 H 705.035 0.738614 2.90456 0
M  V30 7310 H 702.596 0.538415 1.52685 0
M  V30 7311 H 704.588 -1.6686 3.687 0
M  V30 7312 H 703.158 -1.69736 2.62504 0
M  V30 7313 H 702.378 0.424975 3.91903 0
M  V30 7314 H 703.666 0.0814904 5.08735 0
M  V30 7315 H 703.064 -3.08114 4.74428 0
M  V30 7316 H 701.621 -3.22159 5.66619 0
M  V30 7317 N 705.054 -1.51416 0.437162 0
M  V30 7318 C 706.002 -2.29328 -0.388765 0
M  V30 7319 C 706.996 -1.35171 -1.02104 0
M  V30 7320 O 708.202 -1.52513 -0.956024 0
M  V30 7321 H 704.577 -0.738048 -0.144183 0
M  V30 7322 H 706.548 -2.96995 0.289212 0
M  V30 7323 C 705.297 -3.14741 -1.47761 0
M  V30 7324 H 704.62 -3.8708 -1.00045 0
M  V30 7325 H 706.06 -3.72313 -2.02877 0
M  V30 7326 C 704.519 -2.30105 -2.46076 0
M  V30 7327 O 705.049 -1.96055 -3.50607 0
M  V30 7328 N 703.255 -1.93331 -2.1696 0
M  V30 7329 H 702.802 -2.2122 -1.31983 0
M  V30 7330 H 702.76 -1.36999 -2.82982 0
M  V30 7331 N 706.532 -0.168513 -1.56696 0
M  V30 7332 C 707.762 0.482802 -2.0088 0
M  V30 7333 C 708.17 1.57537 -1.0478 0
M  V30 7334 O 707.513 1.83656 -0.0402746 0
M  V30 7335 C 707.575 1.1236 -3.4149 0
M  V30 7336 C 707.239 0.173027 -4.56672 0
M  V30 7337 C 708.236 -0.607565 -5.16338 0
M  V30 7338 C 705.921 0.0696691 -5.02252 0
M  V30 7339 C 707.915 -1.47874 -6.2001 0
M  V30 7340 C 705.602 -0.805096 -6.05773 0
M  V30 7341 C 706.6 -1.57789 -6.64524 0
M  V30 7342 O 706.288 -2.43804 -7.66038 0
M  V30 7343 H 706.02 0.128246 -0.663723 0
M  V30 7344 H 708.574 -0.266532 -2.03663 0
M  V30 7345 H 706.804 1.921 -3.35611 0
M  V30 7346 H 708.493 1.67683 -3.69645 0
M  V30 7347 H 709.259 -0.53787 -4.82008 0
M  V30 7348 H 705.138 0.660957 -4.56237 0
M  V30 7349 H 708.682 -2.0824 -6.65794 0
M  V30 7350 H 704.579 -0.876005 -6.39528 0
M  V30 7351 H 705.347 -2.37289 -7.83349 0
M  V30 7352 N 708.01 1.57248 0.105221 0
M  V30 7353 C 709.256 1.85845 0.811753 0
M  V30 7354 C 709.589 0.756219 1.78871 0
M  V30 7355 O 708.864 -0.236736 1.93054 0
M  V30 7356 C 709.147 3.25059 1.54947 0
M  V30 7357 C 709 4.45898 0.591185 0
M  V30 7358 C 710.319 3.6203 2.50245 0
M  V30 7359 H 707.438 0.675973 0.293649 0
M  V30 7360 H 710.08 1.89849 0.0756269 0
M  V30 7361 H 708.23 3.21776 2.17698 0
M  V30 7362 H 709.902 4.61291 -0.0285352 0
M  V30 7363 H 708.145 4.33693 -0.0962343 0
M  V30 7364 H 708.816 5.40009 1.1443 0
M  V30 7365 H 711.292 3.66192 1.97593 0
M  V30 7366 H 710.168 4.60389 2.98886 0
M  V30 7367 H 710.429 2.90176 3.33542 0
M  V30 7368 N 709.488 -0.375779 1.53054 0
M  V30 7369 C 710.899 -0.95309 1.6054 0
M  V30 7370 C 711.25 -1.90575 0.466446 0
M  V30 7371 O 710.375 -2.12507 -0.408609 0
M  V30 7372 C 710.97 -1.73537 2.90982 0
M  V30 7373 C 709.529 -2.26218 3.00836 0
M  V30 7374 C 708.676 -1.07157 2.55759 0
M  V30 7375 H 711.627 -0.154895 1.57942 0
M  V30 7376 H 711.648 -2.59574 2.78211 0
M  V30 7377 H 711.16 -1.04176 3.73857 0
M  V30 7378 H 709.261 -2.98852 2.22527 0
M  V30 7379 H 709.374 -2.54799 4.05727 0
M  V30 7380 H 707.738 -1.43553 2.10391 0
M  V30 7381 H 708.521 -0.393099 3.41042 0
M  V30 7382 N 710.966 -1.44241 -0.634997 0
M  V30 7383 C 711.916 -1.47247 -1.74076 0
M  V30 7384 C 712.9 -0.338708 -1.57295 0
M  V30 7385 O 714.092 -0.583751 -1.67097 0
M  V30 7386 C 711.221 -1.41579 -3.12746 0
M  V30 7387 C 710.307 -2.60055 -3.35011 0
M  V30 7388 N 710.698 -3.85321 -3.27661 0
M  V30 7389 C 708.996 -2.55168 -3.65794 0
M  V30 7390 C 709.697 -4.64241 -3.50508 0
M  V30 7391 N 708.673 -3.95254 -3.73196 0
M  V30 7392 H 712.475 -2.4195 -1.66845 0
M  V30 7393 H 709.989 -1.3915 -0.837326 0
M  V30 7394 H 711.986 -1.41816 -3.92038 0
M  V30 7395 H 710.646 -0.479108 -3.21146 0
M  V30 7396 H 711.657 -4.17345 -3.06665 0
M  V30 7397 H 708.334 -1.70276 -3.81198 0
M  V30 7398 H 709.724 -5.73267 -3.50449 0
M  V30 7399 N 712.444 0.87505 -1.31075 0
M  V30 7400 C 713.69 1.63009 -1.20647 0
M  V30 7401 C 714.023 1.9276 0.236045 0
M  V30 7402 O 713.298 1.55559 1.16754 0
M  V30 7403 C 713.581 2.96357 -2.0456 0
M  V30 7404 C 713.434 2.73516 -3.57084 0
M  V30 7405 C 714.753 3.974 -1.89107 0
M  V30 7406 H 711.872 0.591518 -0.439631 0
M  V30 7407 H 714.514 1.0119 -1.60812 0
M  V30 7408 H 712.664 3.49119 -1.70435 0
M  V30 7409 H 714.336 2.27465 -4.01319 0
M  V30 7410 H 712.579 2.0784 -3.80769 0
M  V30 7411 H 713.25 3.68377 -4.11099 0
M  V30 7412 H 715.726 3.5383 -2.18961 0
M  V30 7413 H 714.602 4.88596 -2.5013 0
M  V30 7414 H 714.863 4.33794 -0.85296 0
M  V30 7415 N 713.922 1.13953 1.08869 0
M  V30 7416 C 714.855 0.765765 2.14968 0
M  V30 7417 C 715.833 -0.250689 1.60656 0
M  V30 7418 O 717.017 -0.140852 1.87973 0
M  V30 7419 C 714.144 0.136146 3.38426 0
M  V30 7420 C 713.19 1.12201 4.11477 0
M  V30 7421 S 714.023 2.65711 4.64928 0
M  V30 7422 C 715.179 2.04125 5.91679 0
M  V30 7423 H 715.412 1.66444 2.46341 0
M  V30 7424 H 712.945 0.960263 1.20906 0
M  V30 7425 H 714.903 -0.220712 4.09906 0
M  V30 7426 H 713.564 -0.739887 3.05261 0
M  V30 7427 H 712.757 0.629398 5.00055 0
M  V30 7428 H 712.359 1.42262 3.45886 0
M  V30 7429 H 714.651 1.39381 6.63008 0
M  V30 7430 H 715.594 2.90808 6.45629 0
M  V30 7431 H 716.002 1.4905 5.44467 0
M  V30 7432 N 715.4 -1.26948 0.933913 0
M  V30 7433 C 716.363 -2.24889 0.442457 0
M  V30 7434 C 717.363 -1.54594 -0.442426 0
M  V30 7435 O 718.553 -1.72502 -0.242629 0
M  V30 7436 C 715.685 -3.3896 -0.363173 0
M  V30 7437 H 716.878 -2.69879 1.30787 0
M  V30 7438 H 714.431 -1.38978 0.715187 0
M  V30 7439 H 715.166 -2.99361 -1.24714 0
M  V30 7440 H 714.951 -3.9116 0.271366 0
M  V30 7441 H 716.441 -4.11739 -0.697186 0
M  V30 7442 N 716.879 -0.700114 -1.41195 0
M  V30 7443 C 718.109 -0.241828 -2.0518 0
M  V30 7444 C 718.517 1.1157 -1.52803 0
M  V30 7445 O 717.86 1.70926 -0.673042 0
M  V30 7446 C 717.922 -0.12695 -3.59276 0
M  V30 7447 C 717.586 -1.41725 -4.34469 0
M  V30 7448 C 718.583 -2.35604 -4.63451 0
M  V30 7449 C 716.268 -1.67189 -4.73659 0
M  V30 7450 C 718.262 -3.53204 -5.3059 0
M  V30 7451 C 715.949 -2.85073 -5.40534 0
M  V30 7452 C 716.947 -3.77904 -5.68927 0
M  V30 7453 O 716.635 -4.93723 -6.34424 0
M  V30 7454 H 716.367 -0.109247 -0.667114 0
M  V30 7455 H 718.921 -0.954538 -1.81873 0
M  V30 7456 H 717.151 0.641571 -3.81341 0
M  V30 7457 H 718.84 0.294748 -4.04828 0
M  V30 7458 H 719.606 -2.1719 -4.33651 0
M  V30 7459 H 715.485 -0.957935 -4.50937 0
M  V30 7460 H 719.029 -4.25679 -5.52669 0
M  V30 7461 H 714.926 -3.03402 -5.69752 0
M  V30 7462 H 715.694 -4.93597 -6.5292 0
M  V30 7463 N 718.357 1.51182 -0.445186 0
M  V30 7464 C 719.32 2.26501 0.350722 0
M  V30 7465 C 720.32 1.3025 0.942952 0
M  V30 7466 O 721.51 1.53897 0.816175 0
M  V30 7467 C 718.642 3.06274 1.49697 0
M  V30 7468 H 719.835 2.98299 -0.309474 0
M  V30 7469 H 717.388 1.55034 -0.198551 0
M  V30 7470 H 718.123 2.38911 2.19299 0
M  V30 7471 H 717.908 3.76979 1.0784 0
M  V30 7472 H 719.398 3.63306 2.05909 0
M  V30 7473 N 719.835 0.176821 1.56605 0
M  V30 7474 C 720.798 -0.737429 2.17013 0
M  V30 7475 C 721.798 -1.15414 1.11965 0
M  V30 7476 O 722.988 -1.0702 1.37449 0
M  V30 7477 C 720.12 -2.00445 2.75744 0
M  V30 7478 H 721.313 -0.211455 2.99154 0
M  V30 7479 H 718.866 -0.0727582 1.56131 0
M  V30 7480 H 719.601 -2.57338 1.97352 0
M  V30 7481 H 719.386 -1.71456 3.52626 0
M  V30 7482 H 720.876 -2.65679 3.22187 0
M  V30 7483 N 721.313 -1.57302 -0.09688 0
M  V30 7484 C 722.553 -1.87823 -0.806334 0
M  V30 7485 C 722.917 -0.767593 -1.75989 0
M  V30 7486 O 724.118 -0.955173 -2.51257 0
M  V30 7487 C 722.389 -3.23585 -1.51749 0
M  V30 7488 S 723.948 -3.75795 -2.26547 0
M  V30 7489 H 720.766 -0.658281 -0.268676 0
M  V30 7490 H 723.368 -1.95397 -0.0635476 0
M  V30 7491 H 722.072 -4.0234 -0.809348 0
M  V30 7492 H 721.603 -3.19145 -2.30021 0
M  V30 7493 H 723.618 -3.49068 -3.52656 0
M  V30 7494 N 722.791 0.367657 -1.53252 0
M  V30 7495 C 724.04 1.10782 -1.68554 0
M  V30 7496 C 724.353 1.90523 -0.442765 0
M  V30 7497 O 725.559 2.6729 -0.47629 0
M  V30 7498 C 724.015 2.01863 -2.97959 0
M  V30 7499 C 723.623 1.27443 -4.29491 0
M  V30 7500 C 725.367 2.75883 -3.22628 0
M  V30 7501 C 723.274 2.17414 -5.49987 0
M  V30 7502 H 722.204 0.417272 -0.628013 0
M  V30 7503 H 724.855 0.368971 -1.79752 0
M  V30 7504 H 723.237 2.7947 -2.80558 0
M  V30 7505 H 724.411 0.549138 -4.57516 0
M  V30 7506 H 722.726 0.652935 -4.11249 0
M  V30 7507 H 725.323 3.43421 -4.09837 0
M  V30 7508 H 725.666 3.41138 -2.38601 0
M  V30 7509 H 726.199 2.0536 -3.40693 0
M  V30 7510 H 722.938 1.5674 -6.36485 0
M  V30 7511 H 722.458 2.87799 -5.26243 0
M  V30 7512 H 724.137 2.77019 -5.84696 0
M  V30 7513 N 724.269 1.44576 0.627338 0
M  V30 7514 C 725.517 1.47267 1.38408 0
M  V30 7515 C 725.838 0.107971 1.94701 0
M  V30 7516 O 725.108 -0.860206 1.76004 0
M  V30 7517 H 723.688 0.542276 0.513756 0
M  V30 7518 H 726.35 1.80383 0.738099 0
M  V30 7519 H 725.446 2.20025 2.21349 0
M  V30 7520 N 725.747 -0.868086 1.31537 0
M  V30 7521 C 726.71 -1.95703 1.19302 0
M  V30 7522 C 727.71 -1.60355 0.119612 0
M  V30 7523 O 728.9 -1.70247 0.36902 0
M  V30 7524 C 726.032 -3.30599 0.831684 0
M  V30 7525 H 727.225 -2.07982 2.16064 0
M  V30 7526 H 724.778 -1.05661 1.15176 0
M  V30 7527 H 725.513 -3.2402 -0.134694 0
M  V30 7528 H 725.298 -3.57629 1.60761 0
M  V30 7529 H 726.788 -4.10439 0.770026 0
M  V30 7530 N 727.225 -1.14528 -1.08264 0
M  V30 7531 C 728.173 -0.829201 -2.17318 0
M  V30 7532 C 729.167 0.193521 -1.68291 0
M  V30 7533 O 730.373 0.0494744 -1.79932 0
M  V30 7534 H 726.748 -0.250435 -0.709074 0
M  V30 7535 H 728.719 -1.75683 -2.41201 0
M  V30 7536 C 727.468 -0.324663 -3.46181 0
M  V30 7537 H 726.791 -1.10299 -3.84284 0
M  V30 7538 H 728.231 -0.142059 -4.23762 0
M  V30 7539 C 726.69 0.952033 -3.23169 0
M  V30 7540 O 727.22 2.02549 -3.46896 0
M  V30 7541 N 725.426 0.887854 -2.76705 0
M  V30 7542 H 724.973 0.0141402 -2.57596 0
M  V30 7543 H 724.931 1.74263 -2.61686 0
M  V30 7544 N 728.703 1.26451 -0.940633 0
M  V30 7545 C 729.633 2.28773 -0.467479 0
M  V30 7546 C 730.614 1.63218 0.478955 0
M  V30 7547 O 731.799 1.90427 0.380929 0
M  V30 7548 C 728.929 3.46259 0.268656 0
M  V30 7549 C 727.883 4.23898 -0.591171 0
M  V30 7550 C 727.209 5.33993 0.274891 0
M  V30 7551 C 728.509 4.87974 -1.86223 0
M  V30 7552 H 730.203 2.68601 -1.32265 0
M  V30 7553 H 727.749 1.29123 -0.637436 0
M  V30 7554 H 729.702 4.16951 0.610696 0
M  V30 7555 H 728.426 3.05383 1.15796 0
M  V30 7556 H 727.085 3.54969 -0.916098 0
M  V30 7557 H 726.733 4.89358 1.16353 0
M  V30 7558 H 726.433 5.86849 -0.297006 0
M  V30 7559 H 727.957 6.07523 0.612213 0
M  V30 7560 H 729.371 5.50883 -1.58747 0
M  V30 7561 H 727.768 5.50945 -2.37866 0
M  V30 7562 H 728.838 4.10945 -2.57394 0
M  V30 7563 N 730.181 0.707592 1.40822 0
M  V30 7564 C 731.429 0.243189 2.00632 0
M  V30 7565 C 731.75 -1.16512 1.56365 0
M  V30 7566 O 731.02 -1.78841 0.799553 0
M  V30 7567 H 729.6 0.0869203 0.741926 0
M  V30 7568 H 732.262 0.911438 1.72275 0
M  V30 7569 H 731.358 0.270014 3.1093 0
M  V30 7570 N 731.66 -1.50943 0.453197 0
M  V30 7571 C 732.61 -2.25003 -0.368467 0
M  V30 7572 C 733.594 -1.27864 -0.976714 0
M  V30 7573 O 734.786 -1.52867 -0.892228 0
M  V30 7574 C 731.915 -3.10701 -1.46014 0
M  V30 7575 C 731.001 -4.15278 -0.860506 0
M  V30 7576 N 731.392 -5.05799 0.00849611 0
M  V30 7577 C 729.69 -4.31542 -1.1264 0
M  V30 7578 C 730.391 -5.80664 0.346951 0
M  V30 7579 N 729.367 -5.42912 -0.273426 0
M  V30 7580 H 733.169 -2.92352 0.301246 0
M  V30 7581 H 730.683 -1.60203 0.266233 0
M  V30 7582 H 732.68 -3.62348 -2.06179 0
M  V30 7583 H 731.34 -2.44898 -2.13202 0
M  V30 7584 H 732.351 -5.16533 0.376077 0
M  V30 7585 H 729.028 -3.76962 -1.7946 0
M  V30 7586 H 730.418 -6.63565 1.05507 0
M  V30 7587 N 733.138 -0.185124 -1.56509 0
M  V30 7588 C 734.378 0.458547 -1.9919 0
M  V30 7589 C 734.742 1.59484 -1.06906 0
M  V30 7590 O 735.943 2.30201 -1.38783 0
M  V30 7591 C 734.214 0.916263 -3.45455 0
M  V30 7592 S 735.773 1.55918 -4.10165 0
M  V30 7593 H 732.591 0.147008 -0.695636 0
M  V30 7594 H 735.193 -0.285841 -1.93399 0
M  V30 7595 H 733.897 0.0790543 -4.10324 0
M  V30 7596 H 733.428 1.69436 -3.55042 0
M  V30 7597 H 735.443 2.84771 -4.0635 0
M  V30 7598 N 734.616 1.57351 0.0885366 0
M  V30 7599 C 735.579 2.01557 1.09121 0
M  V30 7600 C 736.579 0.910052 1.3257 0
M  V30 7601 O 737.769 1.17537 1.28572 0
M  V30 7602 C 734.901 2.38189 2.43883 0
M  V30 7603 H 736.094 2.91361 0.710562 0
M  V30 7604 H 733.647 1.52694 0.333779 0
M  V30 7605 H 734.382 1.5136 2.86811 0
M  V30 7606 H 734.167 3.18846 2.28209 0
M  V30 7607 H 735.657 2.73025 3.15986 0
M  V30 7608 N 736.094 -0.359525 1.53444 0
M  V30 7609 C 737.505 -0.936009 1.61542 0
M  V30 7610 C 737.856 -1.90069 0.486633 0
M  V30 7611 O 736.981 -2.12929 -0.386047 0
M  V30 7612 C 737.576 -1.70441 2.92806 0
M  V30 7613 C 736.135 -2.23015 3.03218 0
M  V30 7614 C 735.282 -1.04438 2.56881 0
M  V30 7615 H 738.233 -0.138134 1.58098 0
M  V30 7616 H 738.254 -2.56609 2.80948 0
M  V30 7617 H 737.766 -1.00205 3.74941 0
M  V30 7618 H 735.867 -2.96475 2.25684 0
M  V30 7619 H 735.98 -2.50481 4.08407 0
M  V30 7620 H 734.344 -1.41314 2.11902 0
M  V30 7621 H 735.127 -0.356905 3.4144 0
M  V30 7622 N 737.572 -1.44907 -0.619662 0
M  V30 7623 C 738.535 -1.52282 -1.71297 0
M  V30 7624 C 739.535 -0.40359 -1.55653 0
M  V30 7625 O 740.725 -0.666638 -1.6094 0
M  V30 7626 C 737.857 -1.40778 -3.10474 0
M  V30 7627 H 739.05 -2.49683 -1.66128 0
M  V30 7628 H 736.603 -1.32168 -0.834339 0
M  V30 7629 H 737.338 -0.445156 -3.2123 0
M  V30 7630 H 737.123 -2.21947 -3.23237 0
M  V30 7631 H 738.613 -1.48946 -3.90135 0
M  V30 7632 N 739.05 0.861098 -1.31996 0
M  V30 7633 C 740.275 1.65264 -1.2531 0
M  V30 7634 C 740.7 1.87265 0.177007 0
M  V30 7635 O 740.058 1.4208 1.12619 0
M  V30 7636 C 740.106 2.99284 -2.0115 0
M  V30 7637 O 739.21 3.89508 -1.3549 0
M  V30 7638 H 738.551 0.50409 -0.432192 0
M  V30 7639 H 741.081 1.07297 -1.74208 0
M  V30 7640 H 741.091 3.49154 -2.11081 0
M  V30 7641 H 739.766 2.82591 -3.05148 0
M  V30 7642 H 738.343 3.47966 -1.34066 0
M  V30 7643 N 740.528 1.15101 1.07655 0
M  V30 7644 C 741.753 0.948177 1.84457 0
M  V30 7645 C 742.178 -0.498432 1.81376 0
M  V30 7646 O 741.536 -1.35509 1.20445 0
M  V30 7647 C 741.584 1.46318 3.29581 0
M  V30 7648 O 740.688 0.660342 4.07079 0
M  V30 7649 H 740.029 0.338428 0.571281 0
M  V30 7650 H 742.559 1.5301 1.35828 0
M  V30 7651 H 742.569 1.47468 3.80417 0
M  V30 7652 H 741.244 2.51635 3.31138 0
M  V30 7653 H 739.821 0.718216 3.65918 0
M  V30 7654 N 742.006 -1.2595 0.947325 0
M  V30 7655 C 742.969 -2.24407 0.466285 0
M  V30 7656 C 743.969 -1.55054 -0.426005 0
M  V30 7657 O 745.159 -1.7275 -0.224319 0
M  V30 7658 C 742.291 -3.39326 -0.327201 0
M  V30 7659 H 743.484 -2.68477 1.33642 0
M  V30 7660 H 741.037 -1.38211 0.729887 0
M  V30 7661 H 741.772 -3.00667 -1.21532 0
M  V30 7662 H 741.557 -3.9085 0.312839 0
M  V30 7663 H 743.047 -4.12455 -0.653477 0
M  V30 7664 N 743.484 -0.715051 -1.40445 0
M  V30 7665 C 744.732 -0.253826 -2.005 0
M  V30 7666 C 745.053 1.15681 -1.5698 0
M  V30 7667 O 744.323 1.78414 -0.809027 0
M  V30 7668 H 742.903 -0.0908537 -0.741454 0
M  V30 7669 H 745.565 -0.920561 -1.7179 0
M  V30 7670 H 744.661 -0.286499 -3.10782 0
M  V30 7671 N 744.962 1.50701 -0.461195 0
M  V30 7672 C 746.187 2.07171 0.0974773 0
M  V30 7673 C 746.612 1.32391 1.3362 0
M  V30 7674 O 745.97 0.368676 1.77512 0
M  V30 7675 C 746.018 3.58651 0.374409 0
M  V30 7676 O 745.122 3.85816 1.4567 0
M  V30 7677 H 744.463 0.663944 -0.00862047 0
M  V30 7678 H 746.993 1.94021 -0.649394 0
M  V30 7679 H 747.003 4.03295 0.617843 0
M  V30 7680 H 745.678 4.12498 -0.530829 0
M  V30 7681 H 744.255 3.53018 1.20136 0
M  V30 7682 N 746.441 0.193421 1.56409 0
M  V30 7683 C 747.371 -0.723334 2.22014 0
M  V30 7684 C 748.352 -1.22254 1.1827 0
M  V30 7685 O 749.537 -1.27168 1.46771 0
M  V30 7686 C 746.667 -1.94366 2.87818 0
M  V30 7687 C 745.621 -1.57943 3.97791 0
M  V30 7688 C 744.947 -2.87623 4.50752 0
M  V30 7689 C 746.247 -0.790639 5.16281 0
M  V30 7690 H 747.941 -0.176426 2.9888 0
M  V30 7691 H 745.487 -0.0834166 1.43758 0
M  V30 7692 H 747.44 -2.5902 3.32396 0
M  V30 7693 H 746.164 -2.51507 2.08355 0
M  V30 7694 H 744.823 -0.956482 3.53903 0
M  V30 7695 H 744.471 -3.4285 3.68053 0
M  V30 7696 H 744.171 -2.63998 5.24956 0
M  V30 7697 H 745.695 -3.53268 4.9803 0
M  V30 7698 H 747.109 -1.34024 5.57414 0
M  V30 7699 H 745.506 -0.65258 5.96541 0
M  V30 7700 H 746.576 0.208633 4.84451 0
M  V30 7701 N 747.919 -1.57396 -0.0801906 0
M  V30 7702 C 748.882 -2.02133 -1.0805 0
M  V30 7703 C 749.882 -0.91707 -1.32085 0
M  V30 7704 O 751.072 -1.18217 -1.27947 0
M  V30 7705 C 748.204 -2.39479 -2.42616 0
M  V30 7706 H 749.397 -2.91733 -0.6951 0
M  V30 7707 H 746.95 -1.52869 -0.325677 0
M  V30 7708 H 747.685 -1.52879 -2.86004 0
M  V30 7709 H 747.47 -3.20052 -2.26515 0
M  V30 7710 H 748.96 -2.74697 -3.14534 0
M  V30 7711 N 749.397 0.351382 -1.53633 0
M  V30 7712 C 750.36 1.41403 -1.80383 0
M  V30 7713 C 751.36 1.45963 -0.674635 0
M  V30 7714 O 752.55 1.46476 -0.942895 0
M  V30 7715 C 749.682 2.80401 -1.93876 0
M  V30 7716 H 750.875 1.18951 -2.75301 0
M  V30 7717 H 748.428 0.58533 -1.44926 0
M  V30 7718 H 749.163 3.08147 -1.01074 0
M  V30 7719 H 748.948 2.78488 -2.7602 0
M  V30 7720 H 750.438 3.57329 -2.16116 0
M  V30 7721 N 750.875 1.45233 0.611969 0
M  V30 7722 C 752.123 1.48727 1.36838 0
M  V30 7723 C 752.444 0.128616 1.94575 0
M  V30 7724 O 751.714 -0.84149 1.76906 0
M  V30 7725 H 750.294 0.547695 0.507976 0
M  V30 7726 H 752.956 1.81156 0.718925 0
M  V30 7727 H 752.052 2.2236 2.19003 0
M  V30 7728 N 752.353 -0.854086 1.3245 0
M  V30 7729 C 753.764 -1.42427 1.20712 0
M  V30 7730 C 754.115 -1.95371 -0.18013 0
M  V30 7731 O 753.24 -1.87587 -1.07889 0
M  V30 7732 C 753.835 -2.58897 2.18536 0
M  V30 7733 C 752.394 -3.11913 2.10683 0
M  V30 7734 C 751.541 -1.84661 2.06871 0
M  V30 7735 H 754.492 -0.661192 1.4427 0
M  V30 7736 H 754.513 -3.36074 1.78422 0
M  V30 7737 H 754.025 -2.20333 3.19492 0
M  V30 7738 H 752.126 -3.55059 1.12977 0
M  V30 7739 H 752.239 -3.73119 3.00532 0
M  V30 7740 H 750.603 -2.04285 1.52118 0
M  V30 7741 H 751.386 -1.48314 3.09609 0
M  V30 7742 N 753.831 -1.1567 -1.07043 0
M  V30 7743 C 754.761 -0.879348 -2.16309 0
M  V30 7744 C 755.742 0.171311 -1.69235 0
M  V30 7745 O 756.927 0.0250175 -1.94184 0
M  V30 7746 C 754.057 -0.371307 -3.45309 0
M  V30 7747 C 753.011 -1.359 -4.05851 0
M  V30 7748 C 752.337 -0.709678 -5.29969 0
M  V30 7749 C 753.637 -2.72606 -4.45514 0
M  V30 7750 H 755.331 -1.79308 -2.39768 0
M  V30 7751 H 752.877 -0.863558 -1.15233 0
M  V30 7752 H 754.83 -0.164798 -4.21078 0
M  V30 7753 H 753.554 0.577906 -3.21446 0
M  V30 7754 H 752.213 -1.55193 -3.32131 0
M  V30 7755 H 751.861 0.245782 -5.02399 0
M  V30 7756 H 751.561 -1.36886 -5.71433 0
M  V30 7757 H 753.085 -0.513015 -6.08441 0
M  V30 7758 H 754.499 -2.57141 -5.12398 0
M  V30 7759 H 752.896 -3.34927 -4.97939 0
M  V30 7760 H 753.966 -3.28434 -3.56734 0
M  V30 7761 N 755.309 1.25446 -0.953992 0
M  V30 7762 C 756.239 2.28264 -0.491717 0
M  V30 7763 C 757.22 1.63717 0.461617 0
M  V30 7764 O 758.405 1.90821 0.36071 0
M  V30 7765 C 755.535 3.46525 0.231915 0
M  V30 7766 C 754.489 4.23247 -0.636098 0
M  V30 7767 C 753.815 5.34254 0.218238 0
M  V30 7768 C 755.115 4.85971 -1.91389 0
M  V30 7769 H 756.809 2.67183 -1.35106 0
M  V30 7770 H 754.355 1.2844 -0.651095 0
M  V30 7771 H 756.308 4.17576 0.566439 0
M  V30 7772 H 755.032 3.06594 1.12551 0
M  V30 7773 H 753.691 3.53978 -0.953696 0
M  V30 7774 H 753.339 4.90564 1.11156 0
M  V30 7775 H 753.039 5.86501 -0.359232 0
M  V30 7776 H 754.563 6.08138 0.547743 0
M  V30 7777 H 755.977 5.49168 -1.64581 0
M  V30 7778 H 754.374 5.48391 -2.43696 0
M  V30 7779 H 755.444 4.08192 -2.61738 0
M  V30 7780 N 756.787 0.722489 1.40064 0
M  V30 7781 C 757.717 0.0892452 2.33329 0
M  V30 7782 C 758.698 -0.737992 1.53257 0
M  V30 7783 O 759.883 -0.685516 1.81698 0
M  V30 7784 C 757.013 -0.828139 3.37282 0
M  V30 7785 C 755.967 -0.106005 4.27869 0
M  V30 7786 C 755.293 -1.13957 5.22415 0
M  V30 7787 C 756.593 1.04395 5.11761 0
M  V30 7788 H 758.287 0.868269 2.86534 0
M  V30 7789 H 755.833 0.418982 1.3777 0
M  V30 7790 H 757.786 -1.28058 4.01471 0
M  V30 7791 H 756.51 -1.63914 2.82489 0
M  V30 7792 H 755.169 0.326683 3.65142 0
M  V30 7793 H 754.817 -1.9438 4.63924 0
M  V30 7794 H 754.517 -0.661233 5.83868 0
M  V30 7795 H 756.041 -1.59197 5.89482 0
M  V30 7796 H 757.455 0.670541 5.69365 0
M  V30 7797 H 755.852 1.4511 5.82291 0
M  V30 7798 H 756.922 1.87144 4.47331 0
M  V30 7799 N 758.265 -1.50454 0.469181 0
M  V30 7800 C 759.228 -2.2703 -0.314643 0
M  V30 7801 C 760.228 -1.31734 -0.922111 0
M  V30 7802 O 761.418 -1.55176 -0.791588 0
M  V30 7803 C 758.55 -3.08616 -1.44806 0
M  V30 7804 H 759.743 -2.97769 0.356892 0
M  V30 7805 H 757.296 -1.54698 0.223191 0
M  V30 7806 H 758.031 -2.42369 -2.1547 0
M  V30 7807 H 757.816 -3.78647 -1.01829 0
M  V30 7808 H 759.306 -3.66536 -2.00103 0
M  V30 7809 N 759.743 -0.201713 -1.56304 0
M  V30 7810 C 760.673 0.71155 -2.22394 0
M  V30 7811 C 761.654 1.21625 -1.18917 0
M  V30 7812 O 762.839 1.26388 -1.47444 0
M  V30 7813 C 759.969 1.92837 -2.88845 0
M  V30 7814 C 758.923 1.55831 -3.98623 0
M  V30 7815 C 758.249 2.85228 -4.52271 0
M  V30 7816 C 759.549 0.763249 -5.16693 0
M  V30 7817 H 761.243 0.160573 -2.98969 0
M  V30 7818 H 758.789 0.0757916 -1.438 0
M  V30 7819 H 760.742 2.57253 -3.33764 0
M  V30 7820 H 759.466 2.50398 -2.09686 0
M  V30 7821 H 758.125 0.9377 -3.54405 0
M  V30 7822 H 757.773 3.40893 -3.69866 0
M  V30 7823 H 757.473 2.6121 -5.26349 0
M  V30 7824 H 758.997 3.50622 -4.99897 0
M  V30 7825 H 760.411 1.31066 -5.58117 0
M  V30 7826 H 758.808 0.620935 -5.96879 0
M  V30 7827 H 759.878 -0.234322 -4.84334 0
M  V30 7828 N 761.222 1.57436 0.0718424 0
M  V30 7829 C 762.185 2.02703 1.06977 0
M  V30 7830 C 763.185 0.924062 1.31597 0
M  V30 7831 O 764.375 1.18894 1.27318 0
M  V30 7832 C 761.507 2.40763 2.41342 0
M  V30 7833 H 762.7 2.92098 0.679619 0
M  V30 7834 H 760.253 1.5304 0.317565 0
M  V30 7835 H 760.988 1.54394 2.8519 0
M  V30 7836 H 760.773 3.21249 2.24814 0
M  V30 7837 H 762.263 2.76361 3.13073 0
M  V30 7838 N 762.7 -0.34323 1.53817 0
M  V30 7839 C 763.63 -1.42709 1.84814 0
M  V30 7840 C 764.611 -1.5488 0.703297 0
M  V30 7841 O 765.796 -1.69082 0.955237 0
M  V30 7842 C 762.926 -2.79756 2.05801 0
M  V30 7843 C 761.88 -2.82392 3.21619 0
M  V30 7844 C 761.206 -4.22326 3.2794 0
M  V30 7845 C 762.506 -2.479 4.59721 0
M  V30 7846 H 764.2 -1.17018 2.75585 0
M  V30 7847 H 761.746 -0.561485 1.32602 0
M  V30 7848 H 763.699 -3.55627 2.26069 0
M  V30 7849 H 762.423 -3.06883 1.11761 0
M  V30 7850 H 761.082 -2.08974 3.01207 0
M  V30 7851 H 760.73 -4.46564 2.31494 0
M  V30 7852 H 760.43 -4.25001 4.05768 0
M  V30 7853 H 761.954 -5.00039 3.50419 0
M  V30 7854 H 763.368 -3.13484 4.80001 0
M  V30 7855 H 761.765 -2.61857 5.39954 0
M  V30 7856 H 762.835 -1.43087 4.63308 0
M  V30 7857 N 764.178 -1.45556 -0.604258 0
M  V30 7858 C 765.408 -1.53056 -1.38771 0
M  V30 7859 C 765.816 -0.163092 -1.88496 0
M  V30 7860 O 765.159 0.846157 -1.63052 0
M  V30 7861 C 765.221 -2.45656 -2.62476 0
M  V30 7862 C 764.885 -3.92328 -2.34367 0
M  V30 7863 C 765.882 -4.82137 -1.94525 0
M  V30 7864 C 763.567 -4.37275 -2.47177 0
M  V30 7865 C 765.561 -6.14901 -1.67856 0
M  V30 7866 C 763.248 -5.70079 -2.20122 0
M  V30 7867 C 764.246 -6.58711 -1.80524 0
M  V30 7868 O 763.934 -7.89053 -1.53788 0
M  V30 7869 H 763.666 -0.520721 -0.431075 0
M  V30 7870 H 766.22 -1.91464 -0.743693 0
M  V30 7871 H 764.45 -2.02225 -3.29609 0
M  V30 7872 H 766.139 -2.43802 -3.24523 0
M  V30 7873 H 766.905 -4.48675 -1.84162 0
M  V30 7874 H 762.784 -3.68527 -2.76964 0
M  V30 7875 H 766.328 -6.8404 -1.36874 0
M  V30 7876 H 762.225 -6.03095 -2.30102 0
M  V30 7877 H 762.993 -8.01113 -1.67812 0
M  V30 7878 N 765.656 0.84705 -1.32902 0
M  V30 7879 C 767.067 1.41785 -1.21466 0
M  V30 7880 C 767.418 1.95464 0.169767 0
M  V30 7881 O 766.543 1.88157 1.06892 0
M  V30 7882 C 767.138 2.57734 -2.19906 0
M  V30 7883 C 765.697 3.10791 -2.12334 0
M  V30 7884 C 764.844 1.83562 -2.07847 0
M  V30 7885 H 767.795 0.653532 -1.44619 0
M  V30 7886 H 767.816 3.35123 -1.80202 0
M  V30 7887 H 767.328 2.18635 -3.20656 0
M  V30 7888 H 765.429 3.54455 -1.14858 0
M  V30 7889 H 765.542 3.71519 -3.02506 0
M  V30 7890 H 763.906 2.03475 -1.53199 0
M  V30 7891 H 764.689 1.4667 -3.10392 0
M  V30 7892 N 767.134 1.16236 1.06428 0
M  V30 7893 C 768.064 0.890807 2.1584 0
M  V30 7894 C 769.045 -0.162333 1.69324 0
M  V30 7895 O 770.23 -0.0147191 1.94194 0
M  V30 7896 C 767.36 0.389615 3.45108 0
M  V30 7897 C 766.314 1.38051 4.05125 0
M  V30 7898 C 765.64 0.737773 5.29586 0
M  V30 7899 C 766.94 2.74965 4.44062 0
M  V30 7900 H 768.634 1.80577 2.38814 0
M  V30 7901 H 766.18 0.869657 1.14774 0
M  V30 7902 H 768.133 0.187127 4.20984 0
M  V30 7903 H 766.857 -0.560851 3.21748 0
M  V30 7904 H 765.516 1.56952 3.31303 0
M  V30 7905 H 765.164 -0.219135 5.02522 0
M  V30 7906 H 764.864 1.39914 5.70699 0
M  V30 7907 H 766.388 0.545275 6.0816 0
M  V30 7908 H 767.802 2.59855 5.11027 0
M  V30 7909 H 766.199 3.37563 4.96156 0
M  V30 7910 H 767.269 3.30321 3.54987 0
M  V30 7911 N 768.612 -1.24939 0.960631 0
M  V30 7912 C 769.837 -1.9742 0.635608 0
M  V30 7913 C 770.262 -1.70857 -0.786737 0
M  V30 7914 O 769.62 -0.968063 -1.53291 0
M  V30 7915 C 769.668 -3.48987 0.907771 0
M  V30 7916 O 768.772 -4.12399 -0.0104053 0
M  V30 7917 H 768.113 -0.61871 0.241027 0
M  V30 7918 H 770.643 -1.58901 1.28886 0
M  V30 7919 H 770.653 -3.99334 0.836453 0
M  V30 7920 H 769.328 -3.6765 1.94439 0
M  V30 7921 H 767.905 -3.72727 0.113631 0
M  V30 7922 N 770.09 -0.729906 -1.39679 0
M  V30 7923 C 771.336 -0.27603 -2.00913 0
M  V30 7924 C 771.669 1.13227 -1.57776 0
M  V30 7925 O 770.944 1.7709 -0.804319 0
M  V30 7926 C 771.227 -0.372157 -3.58172 0
M  V30 7927 C 771.08 -1.81986 -4.11341 0
M  V30 7928 C 772.399 0.248378 -4.39399 0
M  V30 7929 H 769.518 -0.101773 -0.729939 0
M  V30 7930 H 772.16 -0.925104 -1.65957 0
M  V30 7931 H 770.31 0.180459 -3.88081 0
M  V30 7932 H 771.982 -2.42896 -3.92172 0
M  V30 7933 H 770.225 -2.34287 -3.65092 0
M  V30 7934 H 770.896 -1.83842 -5.20486 0
M  V30 7935 H 773.372 -0.222645 -4.15504 0
M  V30 7936 H 772.248 0.150746 -5.48693 0
M  V30 7937 H 772.509 1.33378 -4.21501 0
M  V30 7938 N 771.568 1.50203 -0.477153 0
M  V30 7939 C 772.498 2.31517 0.303646 0
M  V30 7940 C 773.479 1.38696 0.984753 0
M  V30 7941 O 774.664 1.67615 0.980758 0
M  V30 7942 C 771.794 3.18598 1.38249 0
M  V30 7943 C 770.748 4.2002 0.822645 0
M  V30 7944 C 770.074 4.95878 2.00024 0
M  V30 7945 C 771.374 5.22023 -0.170185 0
M  V30 7946 H 773.068 2.97042 -0.375027 0
M  V30 7947 H 770.614 1.42848 -0.181802 0
M  V30 7948 H 772.567 3.74282 1.93625 0
M  V30 7949 H 771.291 2.5097 2.09002 0
M  V30 7950 H 769.95 3.65445 0.290813 0
M  V30 7951 H 769.598 4.24717 2.69489 0
M  V30 7952 H 769.298 5.64487 1.63183 0
M  V30 7953 H 770.822 5.54399 2.55878 0
M  V30 7954 H 772.236 5.72543 0.294606 0
M  V30 7955 H 770.633 5.98386 -0.453181 0
M  V30 7956 H 771.703 4.72396 -1.09408 0
M  V30 7957 N 773.046 0.209999 1.56195 0
M  V30 7958 C 774.293 -0.424813 1.97994 0
M  V30 7959 C 774.621 -1.60589 1.09733 0
M  V30 7960 O 773.876 -1.95201 0.139693 0
M  V30 7961 C 774.175 -0.91312 3.45539 0
M  V30 7962 C 773.841 0.156187 4.50629 0
M  V30 7963 C 772.503 0.449966 4.79092 0
M  V30 7964 C 774.855 0.879959 5.13718 0
M  V30 7965 C 772.183 1.47223 5.67928 0
M  V30 7966 C 774.535 1.89148 6.0366 0
M  V30 7967 C 773.199 2.1923 6.30472 0
M  V30 7968 H 772.469 -0.15545 0.724511 0
M  V30 7969 H 775.116 0.310095 1.88973 0
M  V30 7970 H 773.421 -1.72658 3.51705 0
M  V30 7971 H 775.118 -1.41395 3.75245 0
M  V30 7972 H 771.708 -0.0829466 4.2852 0
M  V30 7973 H 775.892 0.66623 4.91808 0
M  V30 7974 H 771.148 1.71105 5.86969 0
M  V30 7975 H 775.322 2.45745 6.516 0
M  V30 7976 H 772.949 2.98587 6.99107 0
M  V30 7977 O 774.563 -1.61333 0.0733639 0
M  V30 7978 H 775.254 -1.86233 -0.532616 0
M  V30 END ATOM
M  V30 BEGIN BOND
M  V30 END BOND
M  V30 END CTAB
M  END
$$$$
