drugbank_target|P05113 Interleukin-5 (DB01411; DB06602; DB06612)
 OpenBabel12092119493D

  0  0  0     0  0            999 V3000
M  V30 BEGIN CTAB
M  V30 COUNTS 2188 2205 0 0 0
M  V30 BEGIN ATOM
M  V30 1 H -0.908 1.98254 -0.117106 0
M  V30 2 N 0 1.576 0 0
M  V30 3 C 0.933 2.03868 1.02534 0
M  V30 4 C 1.911 0.928543 1.3348 0
M  V30 5 O 3.095 1.19667 1.45644 0
M  V30 6 C 0.222 2.43627 2.35294 0
M  V30 7 C -0.732 3.65373 2.2001 0
M  V30 8 S 0.101 5.13292 1.52614 0
M  V30 9 C 1.257 5.56322 2.86805 0
M  V30 10 H 1.49 2.90518 0.631377 0
M  V30 11 H -0.977 1.52953 0.210867 0
M  V30 12 H 0.981 2.67203 3.11629 0
M  V30 13 H -0.358 1.57376 2.7183 0
M  V30 14 H -1.165 3.90944 3.18086 0
M  V30 15 H -1.563 3.418 1.51819 0
M  V30 16 H 0.729 5.58782 3.83104 0
M  V30 17 H 1.672 6.56266 2.65933 0
M  V30 18 H 2.08 4.83886 2.90714 0
M  V30 19 N 1.4781 -0.272755 1.55222 0
M  V30 20 C 2.8941 -0.619959 1.47067 0
M  V30 21 C 3.0941 -1.895 0.684978 0
M  V30 22 O 2.1501 -2.51675 0.203931 0
M  V30 23 C 3.4631 -0.746693 2.91282 0
M  V30 24 C 5.0111 -0.840731 3.01497 0
M  V30 25 C 5.4861 -0.99924 4.46967 0
M  V30 26 N 6.9771 -1.06476 4.50796 0
M  V30 27 C 7.7121 -1.20621 5.6057 0
M  V30 28 N 7.2081 -1.31483 6.80209 0
M  V30 29 N 9.0011 -1.23733 5.48312 0
M  V30 30 H 1.1521 0.564606 2.04758 0
M  V30 31 H 3.4151 0.191177 0.928523 0
M  V30 32 H 3.1211 0.119753 3.51496 0
M  V30 33 H 2.9951 -1.6269 3.40311 0
M  V30 34 H 5.3821 -1.69764 2.41379 0
M  V30 35 H 5.4631 0.0640874 2.5572 0
M  V30 36 H 5.1071 -0.146984 5.07687 0
M  V30 37 H 5.0371 -1.91871 4.90401 0
M  V30 38 H 7.5281 -0.993196 3.64615 0
M  V30 39 H 7.8411 -1.42111 7.59621 0
M  V30 40 H 6.1861 -1.28487 6.8302 0
M  V30 41 H 9.3771 -1.14877 4.53785 0
M  V30 42 H 9.5501 -1.34412 6.33906 0
M  V30 43 N 2.9562 -1.48159 -0.537278 0
M  V30 44 C 3.8892 -1.567 -1.65893 0
M  V30 45 C 4.8672 -0.41787 -1.57139 0
M  V30 46 O 6.0512 -0.628461 -1.77715 0
M  V30 47 C 3.1782 -1.48818 -3.04255 0
M  V30 48 C 2.2242 -2.68482 -3.31391 0
M  V30 49 S 3.0572 -4.30516 -3.1846 0
M  V30 50 C 4.2132 -4.2522 -4.59281 0
M  V30 51 H 4.4462 -2.5159 -1.58397 0
M  V30 52 H 1.9792 -1.36602 -0.719672 0
M  V30 53 H 3.9372 -1.44958 -3.84054 0
M  V30 54 H 2.5982 -0.552777 -3.09198 0
M  V30 55 H 1.7912 -2.59085 -4.32309 0
M  V30 56 H 1.3932 -2.69567 -2.59248 0
M  V30 57 H 3.6852 -3.94703 -5.5065 0
M  V30 58 H 4.6282 -5.26292 -4.73732 0
M  V30 59 H 5.0362 -3.55791 -4.38261 0
M  V30 60 N 4.4343 0.785586 -1.36625 0
M  V30 61 C 5.3643 1.91259 -1.33949 0
M  V30 62 C 6.3453 1.68795 -0.210325 0
M  V30 63 O 7.5303 1.89854 -0.408561 0
M  V30 64 C 4.6603 3.28339 -1.13186 0
M  V30 65 C 3.6143 3.65335 -2.22967 0
M  V30 66 C 2.9403 5.00806 -1.87342 0
M  V30 67 C 4.2403 3.7352 -3.65075 0
M  V30 68 H 5.9343 1.93755 -2.28253 0
M  V30 69 H 3.4803 0.930788 -1.09874 0
M  V30 70 H 5.4333 4.06804 -1.09948 0
M  V30 71 H 4.1573 3.2624 -0.153332 0
M  V30 72 H 2.8163 2.89169 -2.25337 0
M  V30 73 H 2.4643 4.95233 -0.880545 0
M  V30 74 H 2.1643 5.26529 -2.60846 0
M  V30 75 H 3.6883 5.81687 -1.85667 0
M  V30 76 H 5.1023 4.42168 -3.64911 0
M  V30 77 H 3.4993 4.10731 -4.37516 0
M  V30 78 H 4.5693 2.74527 -3.99703 0
M  V30 79 N 5.9124 1.20967 1.01018 0
M  V30 80 C 6.8424 0.988272 2.11555 0
M  V30 81 C 7.8234 -0.0849778 1.69888 0
M  V30 82 O 9.0084 0.0738202 1.9406 0
M  V30 83 C 6.1384 0.546528 3.42973 0
M  V30 84 C 5.0924 1.56375 3.9841 0
M  V30 85 C 4.4184 0.97842 5.25672 0
M  V30 86 C 5.7184 2.94922 4.31066 0
M  V30 87 H 7.4124 1.91276 2.30334 0
M  V30 88 H 4.9584 0.921073 1.1069 0
M  V30 89 H 6.9114 0.378839 4.19694 0
M  V30 90 H 5.6354 -0.413598 3.23971 0
M  V30 91 H 4.2944 1.71891 3.23804 0
M  V30 92 H 3.9424 0.0101688 5.02999 0
M  V30 93 H 3.6424 1.65784 5.63728 0
M  V30 94 H 5.1664 0.821939 6.05043 0
M  V30 95 H 6.5804 2.8288 4.9865 0
M  V30 96 H 4.9774 3.5983 4.80253 0
M  V30 97 H 6.0474 3.4616 3.39561 0
M  V30 98 N 7.3905 -1.2043 1.01659 0
M  V30 99 C 8.3405 -2.21076 0.557623 0
M  V30 100 C 9.3245 -1.56176 -0.387029 0
M  V30 101 O 10.5165 -1.7575 -0.209996 0
M  V30 102 C 7.6455 -3.43146 -0.102707 0
M  V30 103 C 6.7315 -4.15213 0.863652 0
M  V30 104 N 7.1225 -4.63662 2.02117 0
M  V30 105 C 5.4205 -4.40716 0.684472 0
M  V30 106 C 6.1215 -5.18868 2.62966 0
M  V30 107 N 5.0975 -5.0893 1.91027 0
M  V30 108 H 8.8995 -2.56201 1.44008 0
M  V30 109 H 6.4135 -1.36366 0.881931 0
M  V30 110 H 8.4105 -4.14475 -0.449054 0
M  V30 111 H 7.0705 -3.09526 -0.981003 0
M  V30 112 H 8.0815 -4.58877 2.40109 0
M  V30 113 H 4.7585 -4.17245 -0.14577 0
M  V30 114 H 6.1485 -5.6673 3.60924 0
M  V30 115 N 8.8686 -0.792821 -1.36206 0
M  V30 116 C 9.7986 -0.207853 -2.32573 0
M  V30 117 C 10.7796 0.659055 -1.56813 0
M  V30 118 O 11.9646 0.592176 -1.84951 0
M  V30 119 C 9.0946 0.655449 -3.41059 0
M  V30 120 C 8.0486 -0.111842 -4.27854 0
M  V30 121 C 7.3746 0.872274 -5.27537 0
M  V30 122 C 8.6746 -1.30299 -5.05786 0
M  V30 123 H 10.3686 -1.01294 -2.81744 0
M  V30 124 H 7.9146 -0.48854 -1.3546 0
M  V30 125 H 9.8676 1.07464 -4.07467 0
M  V30 126 H 8.5916 1.49328 -2.90463 0
M  V30 127 H 7.2506 -0.512053 -3.63006 0
M  V30 128 H 6.8986 1.70523 -4.73214 0
M  V30 129 H 6.5986 0.363291 -5.86476 0
M  V30 130 H 8.1226 1.28996 -5.96818 0
M  V30 131 H 9.5366 -0.959379 -5.65216 0
M  V30 132 H 7.9336 -1.7455 -5.74154 0
M  V30 133 H 9.0036 -2.09663 -4.37229 0
M  V30 134 N 10.3467 1.47872 -0.545128 0
M  V30 135 C 11.5717 2.07391 -0.0190611 0
M  V30 136 C 11.9967 1.39688 1.25971 0
M  V30 137 O 11.3547 0.467816 1.7516 0
M  V30 138 C 11.4027 3.60188 0.172335 0
M  V30 139 O 10.5067 3.9339 1.23766 0
M  V30 140 H 9.8477 0.662411 -0.0459059 0
M  V30 141 H 12.3777 1.90066 -0.757365 0
M  V30 142 H 12.3877 4.06129 0.390305 0
M  V30 143 H 11.0627 4.08865 -0.761725 0
M  V30 144 H 9.6397 3.5921 1.00114 0
M  V30 145 N 11.8248 0.280983 1.55075 0
M  V30 146 C 12.7548 -0.597469 2.25727 0
M  V30 147 C 13.7358 -1.15417 1.24952 0
M  V30 148 O 14.9208 -1.18722 1.53684 0
M  V30 149 C 12.0508 -1.7789 2.98283 0
M  V30 150 C 11.0048 -1.35347 4.06036 0
M  V30 151 C 10.3308 -2.61846 4.66198 0
M  V30 152 C 11.6308 -0.499354 5.19907 0
M  V30 153 H 13.3248 -0.00824265 2.99399 0
M  V30 154 H 10.8708 -0.0025244 1.44 0
M  V30 155 H 12.8238 -2.39937 3.46422 0
M  V30 156 H 11.5478 -2.39405 2.22155 0
M  V30 157 H 10.2068 -0.756156 3.58717 0
M  V30 158 H 9.8548 -3.21632 3.86732 0
M  V30 159 H 9.5548 -2.3409 5.38958 0
M  V30 160 H 11.0788 -3.24732 5.1709 0
M  V30 161 H 12.4928 -1.02498 5.64063 0
M  V30 162 H 10.8898 -0.316424 5.99265 0
M  V30 163 H 11.9598 0.480459 4.82514 0
M  V30 164 N 13.3029 -1.57598 0.00835791 0
M  V30 165 C 14.2329 -2.1198 -0.979113 0
M  V30 166 C 15.2139 -1.03091 -1.35301 0
M  V30 167 O 16.3989 -1.30818 -1.43528 0
M  V30 168 C 13.5289 -2.62995 -2.26828 0
M  V30 169 C 12.4829 -3.76485 -2.03576 0
M  V30 170 C 11.8089 -4.13846 -3.38579 0
M  V30 171 C 13.1089 -5.0342 -1.39161 0
M  V30 172 H 14.8029 -2.94738 -0.526281 0
M  V30 173 H 12.3489 -1.41783 -0.251704 0
M  V30 174 H 14.3019 -2.99669 -2.96271 0
M  V30 175 H 13.0259 -1.7737 -2.7424 0
M  V30 176 H 11.6849 -3.40217 -1.36557 0
M  V30 177 H 11.3329 -3.25232 -3.83709 0
M  V30 178 H 11.0329 -4.90312 -3.23834 0
M  V30 179 H 12.5569 -4.53086 -4.09323 0
M  V30 180 H 13.9709 -5.37812 -1.98573 0
M  V30 181 H 12.3679 -5.84746 -1.34878 0
M  V30 182 H 13.4379 -4.83548 -0.361868 0
M  V30 183 N 14.781 0.264519 -1.55364 0
M  V30 184 C 15.744 1.31046 -1.88042 0
M  V30 185 C 16.744 1.41943 -0.755569 0
M  V30 186 O 17.934 1.40947 -1.02369 0
M  V30 187 C 15.066 2.69067 -2.09323 0
M  V30 188 H 16.259 1.03297 -2.81549 0
M  V30 189 H 13.812 0.502989 -1.47986 0
M  V30 190 H 14.547 3.01982 -1.18226 0
M  V30 191 H 14.332 2.62542 -2.91229 0
M  V30 192 H 15.822 3.44623 -2.35848 0
M  V30 193 N 16.2591 1.48442 0.529413 0
M  V30 194 C 17.1891 1.65902 1.64313 0
M  V30 195 C 18.1701 0.507897 1.6234 0
M  V30 196 O 19.3551 0.740503 1.79528 0
M  V30 197 C 16.4851 1.69911 3.02898 0
M  V30 198 C 15.4391 2.8453 3.19729 0
M  V30 199 C 14.7651 2.73629 4.59381 0
M  V30 200 C 16.0651 4.25821 3.02447 0
M  V30 201 H 17.7591 2.5914 1.49955 0
M  V30 202 H 15.3051 1.24709 0.719982 0
M  V30 203 H 17.2581 1.80715 3.80684 0
M  V30 204 H 15.9821 0.732524 3.18279 0
M  V30 205 H 14.6411 2.73283 2.44361 0
M  V30 206 H 14.2891 1.74938 4.71599 0
M  V30 207 H 13.9891 3.50541 4.71588 0
M  V30 208 H 15.5131 2.86401 5.39265 0
M  V30 209 H 16.9271 4.37898 3.70024 0
M  V30 210 H 15.3241 5.03735 3.26146 0
M  V30 211 H 16.3941 4.42244 1.98867 0
M  V30 212 N 17.7372 -0.778329 1.37039 0
M  V30 213 C 18.9852 -1.53361 1.31623 0
M  V30 214 C 19.3062 -1.94739 -0.100831 0
M  V30 215 O 18.5762 -1.65797 -1.04347 0
M  V30 216 H 17.1562 -0.568794 0.484234 0
M  V30 217 H 19.8182 -0.926742 1.71457 0
M  V30 218 H 18.9142 -2.43606 1.95096 0
M  V30 219 N 19.2153 -1.21501 -1.00376 0
M  V30 220 C 20.1783 -0.976927 -2.07337 0
M  V30 221 C 21.1783 0.0525322 -1.60714 0
M  V30 222 O 22.3683 -0.184869 -1.73216 0
M  V30 223 C 19.5003 -0.473423 -3.37597 0
M  V30 224 H 20.6933 -1.92587 -2.29892 0
M  V30 225 H 18.2463 -1.03217 -1.17371 0
M  V30 226 H 18.9813 0.480379 -3.20722 0
M  V30 227 H 18.7663 -1.216 -3.72768 0
M  V30 228 H 20.2563 -0.32675 -4.1632 0
M  V30 229 N 20.6934 1.19889 -1.02296 0
M  V30 230 C 21.6564 2.21116 -0.603351 0
M  V30 231 C 22.6564 1.5738 0.329884 0
M  V30 232 O 23.8464 1.73802 0.117702 0
M  V30 233 C 20.9784 3.40696 0.117992 0
M  V30 234 H 22.1714 2.59754 -1.49893 0
M  V30 235 H 19.7244 1.33463 -0.813468 0
M  V30 236 H 20.4594 3.07569 1.0282 0
M  V30 237 H 20.2444 3.88188 -0.552511 0
M  V30 238 H 21.7344 4.15692 0.398696 0
M  V30 239 N 22.1715 0.800033 1.35784 0
M  V30 240 C 23.4015 0.389041 2.02904 0
M  V30 241 C 23.8095 -1.0027 1.60445 0
M  V30 242 O 23.1525 -1.65633 0.794453 0
M  V30 243 C 23.2145 0.385495 3.57427 0
M  V30 244 C 22.8785 1.72662 4.23127 0
M  V30 245 C 23.8755 2.68385 4.4527 0
M  V30 246 C 21.5605 2.00883 4.60381 0
M  V30 247 C 23.5545 3.90517 5.03761 0
M  V30 248 C 21.2415 3.2328 5.18588 0
M  V30 249 C 22.2395 4.17915 5.40218 0
M  V30 250 O 21.9275 5.38153 5.97199 0
M  V30 251 H 21.6595 0.157032 0.657508 0
M  V30 252 H 24.2135 1.08311 1.74522 0
M  V30 253 H 22.4435 -0.365128 3.84972 0
M  V30 254 H 24.1325 -0.00228296 4.059 0
M  V30 255 H 24.8985 2.47872 4.16874 0
M  V30 256 H 20.7775 1.28037 4.42863 0
M  V30 257 H 24.3215 4.64395 5.2056 0
M  V30 258 H 20.2185 3.43667 5.4641 0
M  V30 259 H 20.9865 5.3936 6.15656 0
M  V30 260 N 23.6496 -1.47581 0.552962 0
M  V30 261 C 24.8956 -2.02782 0.0273648 0
M  V30 262 C 25.2286 -1.42687 -1.31734 0
M  V30 263 O 24.5036 -0.580897 -1.85623 0
M  V30 264 C 24.7866 -3.60031 -0.0702371 0
M  V30 265 C 24.6396 -4.30566 1.30126 0
M  V30 266 C 25.9586 -4.33028 -0.785771 0
M  V30 267 H 23.0776 -0.736912 0.0114185 0
M  V30 268 H 25.7196 -1.76056 0.714432 0
M  V30 269 H 23.8696 -3.82932 -0.655382 0
M  V30 270 H 25.5416 -4.19018 1.92929 0
M  V30 271 H 23.7846 -3.91086 1.87709 0
M  V30 272 H 24.4556 -5.39114 1.18573 0
M  V30 273 H 26.9316 -4.15095 -0.288982 0
M  V30 274 H 25.8076 -5.42695 -0.823013 0
M  V30 275 H 26.0686 -4.01945 -1.841 0
M  V30 276 N 25.1277 -0.289203 -1.54924 0
M  V30 277 C 26.3577 0.325989 -2.04012 0
M  V30 278 C 26.7657 1.48961 -1.1665 0
M  V30 279 O 26.1087 1.82794 -0.1822 0
M  V30 280 C 26.1707 0.856112 -3.49158 0
M  V30 281 C 25.8347 -0.180697 -4.56643 0
M  V30 282 C 26.8317 -1.0051 -5.10092 0
M  V30 283 C 24.5167 -0.318998 -5.01286 0
M  V30 284 C 26.5107 -1.95385 -6.06715 0
M  V30 285 C 24.1977 -1.27121 -5.97732 0
M  V30 286 C 25.1957 -2.08713 -6.50329 0
M  V30 287 O 24.8837 -3.02322 -7.44887 0
M  V30 288 H 24.6157 0.0765276 -0.671654 0
M  V30 289 H 27.1697 -0.423254 -2.00992 0
M  V30 290 H 25.3997 1.65567 -3.49463 0
M  V30 291 H 27.0887 1.38591 -3.81507 0
M  V30 292 H 27.8547 -0.90906 -4.76404 0
M  V30 293 H 23.7337 0.306108 -4.59983 0
M  V30 294 H 27.2777 -2.59111 -6.47694 0
M  V30 295 H 23.1747 -1.36801 -6.30837 0
M  V30 296 H 23.9427 -2.97165 -7.6265 0
M  V30 297 N 26.6058 1.57591 -0.0167156 0
M  V30 298 C 27.5688 2.08393 0.954204 0
M  V30 299 C 28.5688 0.996531 1.26198 0
M  V30 300 O 29.7588 1.25858 1.20438 0
M  V30 301 C 26.8908 2.5394 2.27436 0
M  V30 302 H 28.0838 2.95455 0.514451 0
M  V30 303 H 25.6368 1.54582 0.231089 0
M  V30 304 H 26.3718 1.70171 2.76066 0
M  V30 305 H 26.1568 3.33371 2.06412 0
M  V30 306 H 27.6468 2.93512 2.97053 0
M  V30 307 N 28.0839 -0.256276 1.55502 0
M  V30 308 C 29.3329 -0.983486 1.76098 0
M  V30 309 C 29.6459 -1.86837 0.578896 0
M  V30 310 O 30.8519 -2.63163 0.667648 0
M  V30 311 C 29.3079 -1.79868 3.1173 0
M  V30 312 C 28.9159 -0.961648 4.37557 0
M  V30 313 C 30.6599 -2.51919 3.41668 0
M  V30 314 C 28.5669 -1.77219 5.64223 0
M  V30 315 H 27.4969 -0.370936 0.656447 0
M  V30 316 H 30.1479 -0.238492 1.81944 0
M  V30 317 H 28.5299 -2.58527 2.99966 0
M  V30 318 H 29.7039 -0.218048 4.60284 0
M  V30 319 H 28.0189 -0.354913 4.14885 0
M  V30 320 H 30.6159 -3.12998 4.33516 0
M  V30 321 H 30.9589 -3.23059 2.62562 0
M  V30 322 H 31.4919 -1.80278 3.54605 0
M  V30 323 H 28.2309 -1.10471 6.46124 0
M  V30 324 H 27.7509 -2.49132 5.45613 0
M  V30 325 H 29.4299 -2.34169 6.03137 0
M  V30 326 N 29.562 -1.4872 -0.521534 0
M  V30 327 C 30.973 -1.50607 -1.10337 0
M  V30 328 C 31.324 -0.280612 -1.94183 0
M  V30 329 O 30.449 0.611507 -2.0758 0
M  V30 330 C 31.044 -2.72903 -2.00772 0
M  V30 331 C 29.603 -2.77634 -2.54158 0
M  V30 332 C 28.75 -2.44241 -1.31307 0
M  V30 333 H 31.701 -1.55714 -0.306388 0
M  V30 334 H 31.722 -2.519 -2.85178 0
M  V30 335 H 31.234 -3.62077 -1.39721 0
M  V30 336 H 29.335 -1.92689 -3.18907 0
M  V30 337 H 29.448 -3.79283 -2.92714 0
M  V30 338 H 27.812 -1.95577 -1.63161 0
M  V30 339 H 28.595 -3.35666 -0.719943 0
M  V30 340 N 31.0401 0.771051 -1.3745 0
M  V30 341 C 32.2681 1.56015 -1.35893 0
M  V30 342 C 32.6831 1.88718 0.0555523 0
M  V30 343 O 32.0401 1.51502 1.01752 0
M  V30 344 C 32.0911 2.87001 -2.19801 0
M  V30 345 O 31.8121 2.557 -3.55738 0
M  V30 346 C 33.3131 3.81228 -2.26231 0
M  V30 347 H 30.5331 0.483317 -0.465453 0
M  V30 348 H 33.0771 0.955611 -1.80799 0
M  V30 349 H 31.2321 3.43877 -1.78402 0
M  V30 350 H 31.6461 3.39584 -3.99729 0
M  V30 351 H 33.1201 4.70139 -2.89263 0
M  V30 352 H 33.5971 4.20409 -1.27093 0
M  V30 353 H 34.2031 3.30281 -2.67945 0
M  V30 354 N 32.5182 1.22032 0.997298 0
M  V30 355 C 33.4282 1.00271 2.12092 0
M  V30 356 C 34.4442 -0.047621 1.73935 0
M  V30 357 O 35.6202 0.144136 2.00884 0
M  V30 358 C 32.6852 0.578449 3.4184 0
M  V30 359 C 31.7462 1.70189 3.94125 0
M  V30 360 C 30.9792 1.29778 5.17681 0
M  V30 361 O 31.2022 0.174676 5.70132 0
M  V30 362 O 30.1362 2.11261 5.63607 0
M  V30 363 H 33.9622 1.94398 2.3333 0
M  V30 364 H 31.5472 1.00587 1.10465 0
M  V30 365 H 33.4292 0.351998 4.19927 0
M  V30 366 H 32.1042 -0.334019 3.21972 0
M  V30 367 H 31.0112 1.98282 3.1723 0
M  V30 368 H 32.3442 2.59206 4.18417 0
M  V30 369 N 33.9963 -1.19345 1.0293 0
M  V30 370 C 35.2453 -1.88363 0.721256 0
M  V30 371 C 35.5583 -1.80514 -0.753254 0
M  V30 372 O 36.7643 -2.44788 -1.17436 0
M  V30 373 C 35.2203 -3.37872 1.23978 0
M  V30 374 C 34.8283 -3.54278 2.74211 0
M  V30 375 C 36.5723 -4.12365 1.00775 0
M  V30 376 C 34.4793 -4.97682 3.19479 0
M  V30 377 H 33.4093 -0.705484 0.266098 0
M  V30 378 H 36.0603 -1.34928 1.24365 0
M  V30 379 H 34.4423 -3.90707 0.6453 0
M  V30 380 H 35.6163 -3.11769 3.39318 0
M  V30 381 H 33.9313 -2.93174 2.95699 0
M  V30 382 H 36.5283 -5.18119 1.32123 0
M  V30 383 H 36.8713 -4.16263 -0.0554308 0
M  V30 384 H 37.4043 -3.65668 1.56625 0
M  V30 385 H 34.1433 -4.98945 4.25128 0
M  V30 386 H 33.6633 -5.4095 2.591 0
M  V30 387 H 35.3423 -5.66337 3.12845 0
M  V30 388 N 35.4744 -0.807222 -1.35358 0
M  V30 389 C 36.8854 -0.44876 -1.81226 0
M  V30 390 C 37.2364 1.02929 -1.67033 0
M  V30 391 O 36.3614 1.79991 -1.20133 0
M  V30 392 C 36.9564 -0.807774 -3.2903 0
M  V30 393 C 35.5154 -0.501901 -3.73039 0
M  V30 394 C 34.6624 -1.03304 -2.57339 0
M  V30 395 H 37.6134 -0.998808 -1.23327 0
M  V30 396 H 37.6344 -0.10554 -3.80354 0
M  V30 397 H 37.1464 -1.88357 -3.39328 0
M  V30 398 H 35.2474 0.565128 -3.68289 0
M  V30 399 H 35.3604 -1.03497 -4.67787 0
M  V30 400 H 33.7244 -0.455339 -2.50597 0
M  V30 401 H 34.5074 -2.11496 -2.70415 0
M  V30 402 N 36.9525 1.47285 -0.560781 0
M  V30 403 C 38.1805 2.06855 -0.0430262 0
M  V30 404 C 38.5955 1.41291 1.25229 0
M  V30 405 O 37.9525 0.510648 1.7521 0
M  V30 406 C 38.0035 3.61178 0.152518 0
M  V30 407 O 37.7245 4.24285 -1.0915 0
M  V30 408 C 39.2255 4.37624 0.707145 0
M  V30 409 H 36.4455 0.669319 -0.0474652 0
M  V30 410 H 38.9895 1.89237 -0.77521 0
M  V30 411 H 37.1445 3.78298 0.834843 0
M  V30 412 H 37.5585 5.16868 -0.891482 0
M  V30 413 H 39.0325 5.46271 0.793244 0
M  V30 414 H 39.5095 4.04152 1.71923 0
M  V30 415 H 40.1155 4.25257 0.0604027 0
M  V30 416 N 38.4306 0.297415 1.54768 0
M  V30 417 C 39.6556 -0.318435 2.04941 0
M  V30 418 C 40.0806 -1.4701 1.17345 0
M  V30 419 O 39.4386 -1.80436 0.176758 0
M  V30 420 C 39.4866 -0.755749 3.52592 0
M  V30 421 O 38.5906 -1.86088 3.68028 0
M  V30 422 H 37.9316 -0.062421 0.661059 0
M  V30 423 H 40.4616 0.438215 1.99852 0
M  V30 424 H 40.4716 -1.04552 3.94376 0
M  V30 425 H 39.1466 0.0867233 4.1581 0
M  V30 426 H 37.7236 -1.57193 3.38149 0
M  V30 427 N 39.9087 -1.5758 0.0250728 0
M  V30 428 C 40.8717 -2.08896 -0.943139 0
M  V30 429 C 41.8717 -1.00321 -1.25668 0
M  V30 430 O 43.0617 -1.26495 -1.19769 0
M  V30 431 C 40.1937 -2.55143 -2.26086 0
M  V30 432 H 41.3867 -2.95723 -0.498775 0
M  V30 433 H 38.9397 -1.54703 -0.222888 0
M  V30 434 H 39.6747 -1.71633 -2.75159 0
M  V30 435 H 39.4597 -3.34461 -2.04641 0
M  V30 436 H 40.9497 -2.95083 -2.95492 0
M  V30 437 N 41.3868 0.248026 -1.55636 0
M  V30 438 C 42.3168 1.31079 -1.93237 0
M  V30 439 C 43.2978 1.50264 -0.797174 0
M  V30 440 O 44.4828 1.62891 -1.05737 0
M  V30 441 C 41.6128 2.66575 -2.22609 0
M  V30 442 C 40.5668 2.62087 -3.3837 0
M  V30 443 C 39.8928 4.01369 -3.53281 0
M  V30 444 C 41.1928 2.19171 -4.7409 0
M  V30 445 H 42.8868 0.998556 -2.82257 0
M  V30 446 H 40.4328 0.47891 -1.35803 0
M  V30 447 H 42.3858 3.41057 -2.47503 0
M  V30 448 H 41.1098 2.99432 -1.30414 0
M  V30 449 H 39.7688 1.90063 -3.13483 0
M  V30 450 H 39.4168 4.31489 -2.58508 0
M  V30 451 H 39.1168 3.99254 -4.31127 0
M  V30 452 H 40.6408 4.77552 -3.80495 0
M  V30 453 H 42.0548 2.83384 -4.98363 0
M  V30 454 H 40.4518 2.2817 -5.5503 0
M  V30 455 H 41.5218 1.14336 -4.71227 0
M  V30 456 N 42.8649 1.48995 0.513639 0
M  V30 457 C 44.1109 1.58076 1.27042 0
M  V30 458 C 44.4439 0.261026 1.92438 0
M  V30 459 O 43.7189 -0.734393 1.80103 0
M  V30 460 C 44.0019 2.73091 2.34719 0
M  V30 461 C 43.8549 4.14821 1.73907 0
M  V30 462 C 45.1739 2.83796 3.36375 0
M  V30 463 H 42.2929 0.575391 0.460536 0
M  V30 464 H 44.9349 1.81232 0.570516 0
M  V30 465 H 43.0849 2.53479 2.94416 0
M  V30 466 H 44.7569 4.45917 1.18135 0
M  V30 467 H 42.9999 4.21058 1.0437 0
M  V30 468 H 43.6709 4.91147 2.51949 0
M  V30 469 H 46.1469 3.01611 2.86653 0
M  V30 470 H 45.0229 3.65971 4.09093 0
M  V30 471 H 45.2839 1.92624 3.9793 0
M  V30 472 N 44.343 -0.763751 1.37857 0
M  V30 473 C 45.29 -1.87726 1.34267 0
M  V30 474 C 46.26 -1.64807 0.206879 0
M  V30 475 O 47.445 -1.86613 0.397508 0
M  V30 476 C 44.585 -3.24896 1.16346 0
M  V30 477 C 43.698 -3.59716 2.39225 0
M  V30 478 C 42.833 -4.86137 2.14114 0
M  V30 479 C 41.872 -5.13711 3.32817 0
M  V30 480 N 41.009 -6.31323 3.07206 0
M  V30 481 H 45.849 -1.90129 2.29466 0
M  V30 482 H 43.386 -0.929433 1.14017 0
M  V30 483 H 45.344 -4.04036 1.03975 0
M  V30 484 H 43.974 -3.21847 0.247909 0
M  V30 485 H 43.026 -2.75498 2.62307 0
M  V30 486 H 44.338 -3.76027 3.27728 0
M  V30 487 H 43.492 -5.73198 1.9882 0
M  V30 488 H 42.231 -4.71945 1.22961 0
M  V30 489 H 41.236 -4.25123 3.48641 0
M  V30 490 H 42.461 -5.29807 4.24832 0
M  V30 491 H 40.407 -6.18474 2.1869 0
M  V30 492 H 40.324 -6.48087 3.89254 0
M  V30 493 H 41.592 -7.213 2.95546 0
M  V30 494 N 45.8211 -1.22559 -0.990812 0
M  V30 495 C 46.7311 -1.01394 -2.11557 0
M  V30 496 C 47.7471 0.0383962 -1.73958 0
M  V30 497 O 48.9231 -0.154787 -2.00804 0
M  V30 498 C 45.9881 -0.596569 -3.41529 0
M  V30 499 C 45.0491 -1.72276 -3.93217 0
M  V30 500 C 44.2821 -1.32521 -5.16985 0
M  V30 501 O 44.5051 -0.204909 -5.70032 0
M  V30 502 O 43.4391 -2.14247 -5.62478 0
M  V30 503 H 47.2651 -1.95633 -2.32296 0
M  V30 504 H 44.8501 -1.01172 -1.0993 0
M  V30 505 H 46.7321 -0.374263 -4.19735 0
M  V30 506 H 45.4071 0.316939 -3.22145 0
M  V30 507 H 44.3141 -1.99961 -3.16174 0
M  V30 508 H 45.6471 -2.61421 -4.17037 0
M  V30 509 N 47.2992 1.18797 -1.03562 0
M  V30 510 C 48.5272 1.92599 -0.755869 0
M  V30 511 C 48.9422 1.75886 0.686271 0
M  V30 512 O 48.2992 1.08517 1.46732 0
M  V30 513 C 48.3502 3.44159 -1.10619 0
M  V30 514 O 48.0712 3.60341 -2.4917 0
M  V30 515 C 49.5722 4.3507 -0.850214 0
M  V30 516 H 46.7922 0.611587 -0.276048 0
M  V30 517 H 49.3362 1.50742 -1.38192 0
M  V30 518 H 47.4912 3.83823 -0.525194 0
M  V30 519 H 47.9052 4.54128 -2.62427 0
M  V30 520 H 49.3792 5.39989 -1.14523 0
M  V30 521 H 49.8562 4.38673 0.215176 0
M  V30 522 H 50.4622 4.01097 -1.41426 0
M  V30 523 N 48.7773 0.814389 1.34928 0
M  V30 524 C 49.7073 0.244827 2.32213 0
M  V30 525 C 50.6883 -0.634024 1.57842 0
M  V30 526 O 51.8733 -0.562676 1.8587 0
M  V30 527 C 49.0033 -0.601106 3.42058 0
M  V30 528 C 47.9573 0.179896 4.27622 0
M  V30 529 C 47.2833 -0.788237 5.28858 0
M  V30 530 C 48.5833 1.38329 5.03649 0
M  V30 531 H 50.2773 1.05763 2.80097 0
M  V30 532 H 47.8233 0.510029 1.34665 0
M  V30 533 H 49.7763 -1.00968 4.09125 0
M  V30 534 H 48.5003 -1.44688 2.92802 0
M  V30 535 H 47.1593 0.569739 3.62146 0
M  V30 536 H 46.8073 -1.62973 4.75866 0
M  V30 537 H 46.5073 -0.269942 5.8698 0
M  V30 538 H 48.0313 -1.19485 5.98795 0
M  V30 539 H 49.4453 1.04918 5.63618 0
M  V30 540 H 47.8423 1.83662 5.71304 0
M  V30 541 H 48.9123 2.16592 4.33839 0
M  V30 542 N 50.2554 -1.46986 0.568584 0
M  V30 543 C 51.2184 -2.28624 -0.162366 0
M  V30 544 C 52.2184 -1.37596 -0.832103 0
M  V30 545 O 53.4084 -1.60115 -0.68622 0
M  V30 546 C 50.5404 -3.17596 -1.23878 0
M  V30 547 H 51.7334 -2.94722 0.554899 0
M  V30 548 H 49.2864 -1.52863 0.325976 0
M  V30 549 H 50.0214 -2.56214 -1.98808 0
M  V30 550 H 49.8064 -3.846 -0.763219 0
M  V30 551 H 51.2964 -3.79078 -1.75185 0
M  V30 552 N 51.7335 -0.305618 -1.54608 0
M  V30 553 C 52.6635 0.561482 -2.26649 0
M  V30 554 C 53.6445 1.13415 -1.26772 0
M  V30 555 O 54.8295 1.16262 -1.55553 0
M  V30 556 C 51.9595 1.73122 -3.01075 0
M  V30 557 C 50.9135 1.2887 -4.08138 0
M  V30 558 C 50.2395 2.54396 -4.70305 0
M  V30 559 C 51.5395 0.416578 -5.20636 0
M  V30 560 H 53.2335 -0.0393902 -2.99374 0
M  V30 561 H 50.7795 -0.020385 -1.43986 0
M  V30 562 H 52.7325 2.34396 -3.50195 0
M  V30 563 H 51.4565 2.3584 -2.25936 0
M  V30 564 H 50.1155 0.698991 -3.59875 0
M  V30 565 H 49.7635 3.15439 -3.918 0
M  V30 566 H 49.4635 2.25486 -5.42614 0
M  V30 567 H 50.9875 3.16464 -5.2219 0
M  V30 568 H 52.4015 0.935116 -5.65622 0
M  V30 569 H 50.7985 0.221046 -5.99693 0
M  V30 570 H 51.8685 -0.557162 -4.81688 0
M  V30 571 N 53.2116 1.57565 -0.0334293 0
M  V30 572 C 54.1416 2.13511 0.945265 0
M  V30 573 C 55.1226 1.05231 1.33643 0
M  V30 574 O 56.3076 1.33084 1.41429 0
M  V30 575 C 53.4376 2.6657 2.22616 0
M  V30 576 C 52.3916 3.79676 1.97561 0
M  V30 577 C 51.7176 4.1918 3.31952 0
M  V30 578 C 53.0176 5.0557 1.31135 0
M  V30 579 H 54.7116 2.95538 0.479325 0
M  V30 580 H 52.2576 1.42166 0.229115 0
M  V30 581 H 54.2106 3.04344 2.91466 0
M  V30 582 H 52.9346 1.8171 2.71384 0
M  V30 583 H 51.5936 3.42347 1.31127 0
M  V30 584 H 51.2416 3.31296 3.78487 0
M  V30 585 H 50.9416 4.95402 3.15992 0
M  V30 586 H 52.4656 4.59541 4.02063 0
M  V30 587 H 53.8796 5.40903 1.89992 0
M  V30 588 H 52.2766 5.86818 1.25559 0
M  V30 589 H 53.3466 4.84062 0.284894 0
M  V30 590 N 54.6897 -0.239769 1.55765 0
M  V30 591 C 55.9147 -0.988373 1.82335 0
M  V30 592 C 56.3397 -1.77886 0.611421 0
M  V30 593 O 55.6977 -1.75889 -0.439639 0
M  V30 594 C 55.7457 -1.89627 3.06715 0
M  V30 595 O 54.8497 -2.98904 2.84131 0
M  V30 596 H 54.1907 -0.280858 0.601677 0
M  V30 597 H 56.7207 -0.258597 2.02959 0
M  V30 598 H 56.7307 -2.30957 3.36338 0
M  V30 599 H 55.4057 -1.31511 3.9456 0
M  V30 600 H 53.9827 -2.61651 2.65694 0
M  V30 601 N 56.1678 -1.49265 -0.50573 0
M  V30 602 C 57.3958 -1.62215 -1.28429 0
M  V30 603 C 57.8108 -0.291697 -1.86533 0
M  V30 604 O 57.1678 0.722233 -1.67601 0
M  V30 605 C 57.2188 -2.68735 -2.41793 0
M  V30 606 O 56.9398 -3.96619 -1.86078 0
M  V30 607 C 58.4408 -2.92346 -3.3324 0
M  V30 608 H 55.6608 -0.546239 -0.389697 0
M  V30 609 H 58.2048 -1.95265 -0.607609 0
M  V30 610 H 56.3598 -2.38476 -3.053 0
M  V30 611 H 56.7738 -4.55256 -2.60465 0
M  V30 612 H 58.2478 -3.70623 -4.09075 0
M  V30 613 H 58.7248 -2.02081 -3.89948 0
M  V30 614 H 59.3308 -3.24003 -2.75503 0
M  V30 615 N 57.6459 0.756429 -1.3826 0
M  V30 616 C 58.5959 1.86069 -1.31766 0
M  V30 617 C 59.5799 1.59621 -0.202483 0
M  V30 618 O 60.7719 1.7149 -0.438211 0
M  V30 619 C 57.9009 3.23742 -1.1422 0
M  V30 620 C 56.9869 3.56091 -2.30348 0
M  V30 621 N 57.3779 3.59517 -3.55783 0
M  V30 622 C 55.6759 3.86341 -2.22838 0
M  V30 623 C 56.3769 3.89052 -4.32451 0
M  V30 624 N 55.3529 4.05736 -3.61772 0
M  V30 625 H 59.1549 1.86992 -2.26741 0
M  V30 626 H 56.6689 0.953643 -1.31451 0
M  V30 627 H 58.6659 4.02761 -1.07652 0
M  V30 628 H 57.3259 3.24073 -0.201763 0
M  V30 629 H 58.3369 3.41347 -3.89491 0
M  V30 630 H 55.0139 3.94404 -1.36937 0
M  V30 631 H 56.4039 3.98349 -5.4108 0
M  V30 632 N 59.124 1.23083 0.984299 0
M  V30 633 C 60.54 0.992637 1.24975 0
M  V30 634 C 60.74 -0.308618 1.99123 0
M  V30 635 O 59.796 -1.02905 2.30579 0
M  V30 636 C 61.109 2.19698 2.05312 0
M  V30 637 C 62.657 2.24147 2.18465 0
M  V30 638 C 63.132 3.44157 3.02192 0
M  V30 639 N 64.623 3.44372 3.09777 0
M  V30 640 C 65.358 4.33886 3.74874 0
M  V30 641 N 64.854 5.3363 4.41827 0
M  V30 642 N 66.647 4.21639 3.71721 0
M  V30 643 H 58.798 2.06731 0.487453 0
M  V30 644 H 61.061 0.906339 0.277944 0
M  V30 645 H 60.767 3.1411 1.58201 0
M  V30 646 H 60.641 2.20465 3.06064 0
M  V30 647 H 63.028 1.30277 2.64786 0
M  V30 648 H 63.109 2.27415 1.17115 0
M  V30 649 H 62.753 4.38332 2.56568 0
M  V30 650 H 62.683 3.3813 4.03702 0
M  V30 651 H 65.174 2.72201 2.62135 0
M  V30 652 H 65.487 5.98196 4.89266 0
M  V30 653 H 63.832 5.37534 4.40548 0
M  V30 654 H 67.023 3.42962 3.18582 0
M  V30 655 H 67.196 4.91604 4.22173 0
M  V30 656 N 60.6021 -1.18246 1.0419 0
M  V30 657 C 61.8301 -1.92195 0.766072 0
M  V30 658 C 62.2451 -1.76247 -0.676933 0
M  V30 659 O 61.6021 -1.09293 -1.46155 0
M  V30 660 C 61.6531 -3.43568 1.12442 0
M  V30 661 O 61.3741 -3.59015 2.51078 0
M  V30 662 C 62.8751 -4.34613 0.873275 0
M  V30 663 H 60.0951 -0.610114 0.279288 0
M  V30 664 H 62.6391 -1.50007 1.38989 0
M  V30 665 H 60.7941 -3.8354 0.545542 0
M  V30 666 H 61.2081 -4.5273 2.64831 0
M  V30 667 H 62.6821 -5.39374 1.17385 0
M  V30 668 H 63.1591 -4.38781 -0.191909 0
M  V30 669 H 63.7651 -4.00341 1.43551 0
M  V30 670 N 62.0802 -0.821533 -1.34494 0
M  V30 671 C 63.0102 -0.257138 -2.3208 0
M  V30 672 C 63.9912 0.625645 -1.58176 0
M  V30 673 O 65.1762 0.552811 -1.86166 0
M  V30 674 C 62.3062 0.582958 -3.42372 0
M  V30 675 C 61.2602 -0.202571 -4.2752 0
M  V30 676 C 60.5862 0.760179 -5.29269 0
M  V30 677 C 61.8862 -1.40998 -5.02908 0
M  V30 678 H 63.5802 -1.07247 -2.79532 0
M  V30 679 H 61.1262 -0.517163 -1.34393 0
M  V30 680 H 63.0792 0.987972 -4.09655 0
M  V30 681 H 61.8032 1.43133 -2.93565 0
M  V30 682 H 60.4622 -0.588936 -3.61838 0
M  V30 683 H 60.1102 1.60447 -4.76724 0
M  V30 684 H 59.8102 0.238809 -5.87115 0
M  V30 685 H 61.3342 1.16308 -5.9942 0
M  V30 686 H 62.7482 -1.07905 -5.63054 0
M  V30 687 H 61.1452 -1.86689 -5.70322 0
M  V30 688 H 62.2152 -2.1889 -4.32684 0
M  V30 689 N 63.5583 1.46682 -0.576371 0
M  V30 690 C 64.4883 2.33028 0.148397 0
M  V30 691 C 65.4693 1.44961 0.889956 0
M  V30 692 O 66.6543 1.73789 0.866662 0
M  V30 693 C 63.7843 3.27117 1.1667 0
M  V30 694 C 62.7383 4.24575 0.540386 0
M  V30 695 C 62.0643 5.08126 1.6647 0
M  V30 696 C 63.3643 5.19722 -0.518331 0
M  V30 697 H 65.0583 2.93875 -0.572509 0
M  V30 698 H 62.6043 1.41315 -0.276768 0
M  V30 699 H 64.5573 3.86374 1.68204 0
M  V30 700 H 63.2813 2.64364 1.9178 0
M  V30 701 H 61.9403 3.66571 0.0461769 0
M  V30 702 H 61.5883 4.41762 2.40531 0
M  V30 703 H 61.2883 5.74122 1.25131 0
M  V30 704 H 62.8123 5.70246 2.18293 0
M  V30 705 H 64.2263 5.73232 -0.0883058 0
M  V30 706 H 62.6233 5.94026 -0.851679 0
M  V30 707 H 63.6933 4.64037 -1.40703 0
M  V30 708 N 65.0364 0.313813 1.54444 0
M  V30 709 C 66.2854 -0.292519 1.99568 0
M  V30 710 C 66.5984 -1.54011 1.20582 0
M  V30 711 O 67.8044 -2.22183 1.56035 0
M  V30 712 C 66.2604 -0.571752 3.55329 0
M  V30 713 C 65.8684 0.658229 4.43138 0
M  V30 714 C 67.6124 -1.13857 4.08946 0
M  V30 715 C 65.5194 0.351439 5.90355 0
M  V30 716 H 64.4494 -0.113079 0.745472 0
M  V30 717 H 67.1004 0.424518 1.78522 0
M  V30 718 H 65.4824 -1.34872 3.72325 0
M  V30 719 H 66.6564 1.43403 4.37918 0
M  V30 720 H 64.9714 1.14458 4.0036 0
M  V30 721 H 67.5684 -1.38257 5.16516 0
M  V30 722 H 67.9114 -2.08489 3.6033 0
M  V30 723 H 68.4444 -0.423015 3.95544 0
M  V30 724 H 65.1834 1.26667 6.43145 0
M  V30 725 H 64.7034 -0.386842 5.98551 0
M  V30 726 H 66.3824 -0.0423134 6.46986 0
M  V30 727 N 66.5145 -1.57545 0.0417849 0
M  V30 728 C 67.4775 -2.09885 -0.92093 0
M  V30 729 C 68.4775 -1.01648 -1.24596 0
M  V30 730 O 69.6675 -1.27759 -1.1842 0
M  V30 731 C 66.7995 -2.57527 -2.23367 0
M  V30 732 H 67.9925 -2.96236 -0.467382 0
M  V30 733 H 65.5455 -1.5493 -0.206467 0
M  V30 734 H 66.2805 -1.74542 -2.73323 0
M  V30 735 H 66.0655 -3.36613 -2.01083 0
M  V30 736 H 67.5555 -2.98201 -2.92346 0
M  V30 737 N 67.9926 0.231505 -1.5589 0
M  V30 738 C 68.9406 1.30649 -1.92441 0
M  V30 739 C 69.9346 1.49037 -0.805254 0
M  V30 740 O 71.1406 1.50329 -0.990007 0
M  V30 741 H 67.5156 0.437812 -0.611412 0
M  V30 742 H 69.4866 0.970973 -2.82161 0
M  V30 743 C 68.2356 2.65179 -2.24889 0
M  V30 744 H 67.5586 2.51835 -3.10514 0
M  V30 745 H 68.9986 3.39234 -2.54355 0
M  V30 746 C 67.4576 3.19439 -1.07054 0
M  V30 747 O 67.9876 4.00371 -0.326499 0
M  V30 748 N 66.1936 2.77675 -0.85703 0
M  V30 749 H 65.7406 2.11969 -1.46379 0
M  V30 750 H 65.6986 3.14321 -0.0703223 0
M  V30 751 N 69.4707 1.49531 0.497807 0
M  V30 752 C 70.3807 1.69176 1.62532 0
M  V30 753 C 71.3967 0.5744 1.64246 0
M  V30 754 O 72.5727 0.849497 1.82608 0
M  V30 755 C 69.6377 1.75695 2.98885 0
M  V30 756 C 68.6987 2.9929 3.07773 0
M  V30 757 C 67.9317 3.05488 4.37622 0
M  V30 758 O 68.1547 2.19192 5.26603 0
M  V30 759 O 67.0887 3.9798 4.51548 0
M  V30 760 H 70.9147 2.647 1.48887 0
M  V30 761 H 68.4997 1.3331 0.674441 0
M  V30 762 H 70.3817 1.82317 3.79919 0
M  V30 763 H 69.0567 0.8335 3.12785 0
M  V30 764 H 67.9637 2.98183 2.25915 0
M  V30 765 H 69.2967 3.91125 2.98801 0
M  V30 766 N 70.9488 -0.749086 1.3866 0
M  V30 767 C 72.1768 -1.53834 1.38358 0
M  V30 768 C 72.5918 -1.88783 -0.0255219 0
M  V30 769 O 71.9488 -1.53101 -0.993292 0
M  V30 770 C 71.9998 -2.83468 2.2434 0
M  V30 771 O 71.7208 -2.50008 3.5976 0
M  V30 772 C 73.2218 -3.7758 2.32267 0
M  V30 773 H 70.4418 -0.47585 0.473083 0
M  V30 774 H 72.9858 -0.926726 1.82297 0
M  V30 775 H 71.1408 -3.40995 1.83851 0
M  V30 776 H 71.5548 -3.33182 4.05081 0
M  V30 777 H 73.0288 -4.65478 2.96706 0
M  V30 778 H 73.5058 -4.18334 1.33765 0
M  V30 779 H 74.1118 -3.25976 2.73166 0
M  V30 780 N 72.4269 -1.23603 -0.977757 0
M  V30 781 C 73.3569 -1.04401 -2.0886 0
M  V30 782 C 74.3379 0.0399052 -1.70053 0
M  V30 783 O 75.5229 -0.125246 -1.93796 0
M  V30 784 C 72.6529 -0.637269 -3.41403 0
M  V30 785 C 71.6069 -1.66883 -3.94124 0
M  V30 786 C 70.9329 -1.11745 -5.22893 0
M  V30 787 C 72.2329 -3.06247 -4.23096 0
M  V30 788 H 73.9269 -1.97316 -2.25182 0
M  V30 789 H 71.4729 -0.950096 -1.08209 0
M  V30 790 H 73.4259 -0.48998 -4.18542 0
M  V30 791 H 72.1499 0.327557 -3.24953 0
M  V30 792 H 70.8089 -1.80416 -3.19133 0
M  V30 793 H 70.4569 -0.143527 -5.02795 0
M  V30 794 H 70.1569 -1.80672 -5.59134 0
M  V30 795 H 71.6809 -0.982067 -6.02651 0
M  V30 796 H 73.0949 -2.96001 -4.90975 0
M  V30 797 H 71.4919 -3.72436 -4.70544 0
M  V30 798 H 72.5619 -3.55041 -3.30263 0
M  V30 799 N 73.905 1.17692 -1.04816 0
M  V30 800 C 75.321 1.39863 -0.768794 0
M  V30 801 C 75.521 1.91118 0.638451 0
M  V30 802 O 74.577 2.10036 1.40146 0
M  V30 803 C 75.89 2.39274 -1.82122 0
M  V30 804 C 77.438 2.52987 -1.843 0
M  V30 805 C 77.913 3.55669 -2.88555 0
M  V30 806 N 79.404 3.63183 -2.87493 0
M  V30 807 C 80.139 4.42381 -3.64811 0
M  V30 808 N 79.635 5.25125 -4.51903 0
M  V30 809 N 81.428 4.37217 -3.53267 0
M  V30 810 H 73.579 0.82752 -1.95617 0
M  V30 811 H 75.842 0.426123 -0.846831 0
M  V30 812 H 75.548 2.08678 -2.83102 0
M  V30 813 H 75.422 3.38725 -1.65967 0
M  V30 814 H 77.809 2.82896 -0.839869 0
M  V30 815 H 77.89 1.53623 -2.04532 0
M  V30 816 H 77.534 3.26499 -3.89051 0
M  V30 817 H 77.464 4.54728 -2.65575 0
M  V30 818 H 79.955 3.04103 -2.24343 0
M  V30 819 H 80.268 5.82728 -5.07591 0
M  V30 820 H 78.613 5.24519 -4.55966 0
M  V30 821 H 81.804 3.71626 -2.84625 0
M  V30 822 H 81.977 4.98696 -4.13771 0
M  V30 823 N 75.3831 0.828654 1.34056 0
M  V30 824 C 76.6321 0.415828 1.97367 0
M  V30 825 C 76.9451 -1.02796 1.6641 0
M  V30 826 O 78.1511 -1.54497 2.23255 0
M  V30 827 C 76.6071 0.692601 3.53173 0
M  V30 828 C 76.2151 2.15038 3.93017 0
M  V30 829 C 77.9591 0.346222 4.23086 0
M  V30 830 C 75.8661 2.37174 5.41758 0
M  V30 831 H 74.7961 0.151755 0.738571 0
M  V30 832 H 77.4471 1.01581 1.52819 0
M  V30 833 H 75.8291 0.0223764 3.95994 0
M  V30 834 H 77.0031 2.86024 3.61285 0
M  V30 835 H 75.3181 2.45875 3.36057 0
M  V30 836 H 77.9151 0.48937 5.32456 0
M  V30 837 H 78.2581 -0.709842 4.10204 0
M  V30 838 H 78.7911 0.971258 3.85761 0
M  V30 839 H 75.5301 3.41308 5.59633 0
M  V30 840 H 75.0501 1.70738 5.74986 0
M  V30 841 H 76.7291 2.19818 6.08514 0
M  V30 842 N 76.8612 -1.46375 0.584142 0
M  V30 843 C 78.2722 -1.86031 0.157959 0
M  V30 844 C 78.6232 -1.48753 -1.27933 0
M  V30 845 O 77.7482 -0.903098 -1.96655 0
M  V30 846 C 78.3432 -3.37642 0.279892 0
M  V30 847 C 76.9022 -3.76289 -0.09143 0
M  V30 848 C 76.0492 -2.7039 0.615178 0
M  V30 849 H 79.0002 -1.37509 0.792274 0
M  V30 850 H 79.0212 -3.77275 -0.494364 0
M  V30 851 H 78.5332 -3.64742 1.32607 0
M  V30 852 H 76.6342 -3.54806 -1.13769 0
M  V30 853 H 76.7472 -4.78246 0.285886 0
M  V30 854 H 75.1112 -2.5464 0.0552833 0
M  V30 855 H 75.8942 -3.0033 1.66303 0
M  V30 856 N 78.3393 -0.321999 -1.54275 0
M  V30 857 C 79.5853 0.281461 -2.00837 0
M  V30 858 C 79.9183 1.51909 -1.20985 0
M  V30 859 O 79.1933 1.923 -0.291733 0
M  V30 860 C 79.4763 0.617162 -3.54772 0
M  V30 861 C 79.3293 -0.631064 -4.45351 0
M  V30 862 C 80.6483 1.43542 -4.16033 0
M  V30 863 H 77.7673 0.100826 -0.730071 0
M  V30 864 H 80.4093 -0.438268 -1.84876 0
M  V30 865 H 78.5593 1.23034 -3.68504 0
M  V30 866 H 80.2313 -1.26934 -4.43492 0
M  V30 867 H 78.4743 -1.26025 -4.15091 0
M  V30 868 H 79.1453 -0.351735 -5.50878 0
M  V30 869 H 81.6213 0.917134 -4.05867 0
M  V30 870 H 80.4973 1.63907 -5.23856 0
M  V30 871 H 80.7583 2.43108 -3.69257 0
M  V30 872 N 79.8174 1.5752 -0.0501392 0
M  V30 873 C 81.2284 1.80271 0.485705 0
M  V30 874 C 81.5794 0.96228 1.70981 0
M  V30 875 O 80.7044 0.178578 2.15662 0
M  V30 876 C 81.2994 3.26957 0.887938 0
M  V30 877 C 79.8584 3.5063 1.36877 0
M  V30 878 C 79.0054 2.75165 0.343468 0
M  V30 879 H 81.9564 1.56281 -0.276028 0
M  V30 880 H 81.9774 3.37821 1.75093 0
M  V30 881 H 81.4894 3.881 -0.0031809 0
M  V30 882 H 79.5904 2.94766 2.27911 0
M  V30 883 H 79.7034 4.59343 1.36164 0
M  V30 884 H 78.0674 2.4127 0.816128 0
M  V30 885 H 78.8504 3.39034 -0.539548 0
M  V30 886 N 81.2955 -0.223234 1.56011 0
M  V30 887 C 82.5415 -0.949279 1.79211 0
M  V30 888 C 82.8745 -1.84054 0.619494 0
M  V30 889 O 82.1495 -1.90726 -0.381317 0
M  V30 890 C 82.4325 -1.78965 3.12479 0
M  V30 891 C 82.2855 -0.924997 4.40186 0
M  V30 892 C 83.6045 -2.76774 3.42175 0
M  V30 893 H 80.7235 -0.343676 0.651963 0
M  V30 894 H 83.3655 -0.218253 1.88742 0
M  V30 895 H 81.5155 -2.41291 3.04485 0
M  V30 896 H 83.1875 -0.318615 4.60198 0
M  V30 897 H 81.4305 -0.230344 4.33188 0
M  V30 898 H 82.1015 -1.54735 5.29869 0
M  V30 899 H 84.5775 -2.24584 3.50287 0
M  V30 900 H 83.4535 -3.32678 4.36597 0
M  V30 901 H 83.7145 -3.54429 2.64258 0
M  V30 902 N 82.7736 -1.49793 -0.48987 0
M  V30 903 C 83.7236 -1.63673 -1.5873 0
M  V30 904 C 84.7076 -0.491956 -1.53195 0
M  V30 905 O 85.8996 -0.745461 -1.60536 0
M  V30 906 C 83.0286 -1.71689 -2.97284 0
M  V30 907 C 82.1146 -2.91781 -3.07774 0
M  V30 908 N 82.5056 -4.15714 -2.88124 0
M  V30 909 C 80.8036 -2.89949 -3.38889 0
M  V30 910 C 81.5046 -4.965 -3.03088 0
M  V30 911 N 80.4806 -4.30083 -3.3246 0
M  V30 912 H 84.2826 -2.57204 -1.42208 0
M  V30 913 H 81.7966 -1.46719 -0.69623 0
M  V30 914 H 83.7936 -1.79732 -3.76168 0
M  V30 915 H 82.4536 -0.793024 -3.14867 0
M  V30 916 H 83.4646 -4.45515 -2.64077 0
M  V30 917 H 80.1416 -2.06987 -3.62578 0
M  V30 918 H 81.5316 -6.04991 -2.92294 0
M  V30 919 N 84.2517 0.741722 -1.39055 0
M  V30 920 C 85.1987 1.85566 -1.37237 0
M  V30 921 C 86.1687 1.64457 -0.233072 0
M  V30 922 O 87.3537 1.85957 -0.427147 0
M  V30 923 C 84.4937 3.23004 -1.215 0
M  V30 924 C 83.6067 3.55864 -2.44918 0
M  V30 925 C 82.7417 4.82669 -2.21821 0
M  V30 926 C 81.7807 5.08351 -3.40948 0
M  V30 927 N 80.9177 6.26356 -3.17211 0
M  V30 928 H 85.7577 1.86455 -2.32462 0
M  V30 929 H 83.2947 0.911176 -1.15482 0
M  V30 930 H 85.2527 4.02331 -1.10389 0
M  V30 931 H 83.8827 3.21411 -0.29908 0
M  V30 932 H 82.9347 2.7129 -2.66657 0
M  V30 933 H 84.2467 3.70765 -3.33668 0
M  V30 934 H 83.4007 5.69962 -2.07914 0
M  V30 935 H 82.1397 4.69929 -1.30454 0
M  V30 936 H 81.1447 4.19522 -3.55361 0
M  V30 937 H 82.3697 5.22981 -4.33207 0
M  V30 938 H 80.3157 6.14917 -2.28502 0
M  V30 939 H 80.2327 6.41813 -3.99515 0
M  V30 940 H 81.5007 7.16506 -3.06984 0
M  V30 941 N 85.7298 1.2412 0.971189 0
M  V30 942 C 86.6778 1.02812 2.08644 0
M  V30 943 C 87.6718 -0.0358403 1.69362 0
M  V30 944 O 88.8778 0.118429 1.7961 0
M  V30 945 H 85.2528 0.315428 0.682649 0
M  V30 946 H 87.2238 1.97397 2.23779 0
M  V30 947 C 85.9728 0.645874 3.41649 0
M  V30 948 H 85.2958 1.45632 3.72332 0
M  V30 949 H 86.7358 0.536366 4.20594 0
M  V30 950 C 85.1948 -0.646713 3.30635 0
M  V30 951 O 85.7248 -1.69338 3.64263 0
M  V30 952 N 83.9308 -0.626115 2.83775 0
M  V30 953 H 83.4778 0.225988 2.56607 0
M  V30 954 H 83.4358 -1.49117 2.76788 0
M  V30 955 N 87.2079 -1.17134 1.05439 0
M  V30 956 C 88.1579 -2.1919 0.627675 0
M  V30 957 C 89.1419 -1.57328 -0.337147 0
M  V30 958 O 90.3339 -1.76329 -0.153976 0
M  V30 959 C 87.4629 -3.43299 0.00651435 0
M  V30 960 C 86.5489 -4.12255 0.995312 0
M  V30 961 N 86.9399 -4.56997 2.16765 0
M  V30 962 C 85.2379 -4.38316 0.824336 0
M  V30 963 C 85.9389 -5.10239 2.7934 0
M  V30 964 N 84.9149 -5.02595 2.07122 0
M  V30 965 H 88.7169 -2.5149 1.52086 0
M  V30 966 H 86.2309 -1.33491 0.924868 0
M  V30 967 H 88.2279 -4.15693 -0.316965 0
M  V30 968 H 86.8879 -3.1249 -0.882033 0
M  V30 969 H 87.8989 -4.51006 2.54587 0
M  V30 970 H 84.5759 -4.17498 -0.0129526 0
M  V30 971 H 85.9659 -5.54961 3.78772 0
M  V30 972 N 88.686 -0.835752 -1.33615 0
M  V30 973 C 89.618 -0.224151 -2.28101 0
M  V30 974 C 90.631 0.593331 -1.51603 0
M  V30 975 O 91.82 0.420911 -1.73466 0
M  V30 976 C 88.92 0.703309 -3.31522 0
M  V30 977 C 88.093 -0.0741528 -4.37337 0
M  V30 978 C 87.152 0.776176 -5.20444 0
M  V30 979 O 86.178 0.216506 -5.68788 0
M  V30 980 N 87.38 2.09401 -5.41416 0
M  V30 981 H 90.145 -1.03598 -2.81225 0
M  V30 982 H 87.706 -0.69392 -1.46275 0
M  V30 983 H 89.698 1.27707 -3.84022 0
M  V30 984 H 88.268 1.41585 -2.78698 0
M  V30 985 H 87.488 -0.82928 -3.85378 0
M  V30 986 H 88.776 -0.608863 -5.05144 0
M  V30 987 H 88.174 2.57229 -5.03835 0
M  V30 988 H 86.731 2.61633 -5.96985 0
M  V30 989 N 90.1641 1.46063 -0.591896 0
M  V30 990 C 91.0941 2.33172 0.123673 0
M  V30 991 C 92.0751 1.45897 0.87453 0
M  V30 992 O 93.2601 1.74698 0.848181 0
M  V30 993 C 90.3901 3.28336 1.13194 0
M  V30 994 C 89.3441 4.25124 0.495324 0
M  V30 995 C 88.6701 5.09863 1.61071 0
M  V30 996 C 89.9701 5.19143 -0.573425 0
M  V30 997 H 91.6641 2.93252 -0.603646 0
M  V30 998 H 89.2101 1.41014 -0.291741 0
M  V30 999 H 91.1631 3.88137 1.64097 0
M  V30 1000 H 89.8871 2.66383 1.88965 0
M  V30 1001 H 88.5461 3.66599 0.00729452 0
M  V30 1002 H 88.1941 4.44288 2.35832 0
M  V30 1003 H 87.8941 5.75417 1.19035 0
M  V30 1004 H 89.4181 5.72529 2.12233 0
M  V30 1005 H 90.8321 5.73106 -0.1491 0
M  V30 1006 H 89.2291 5.93089 -0.914636 0
M  V30 1007 H 90.2991 4.62519 -1.45617 0
M  V30 1008 N 91.6422 0.330177 1.54103 0
M  V30 1009 C 92.8822 -0.270916 2.02597 0
M  V30 1010 C 93.2462 -1.48826 1.21304 0
M  V30 1011 O 94.4472 -2.16266 1.59633 0
M  V30 1012 C 92.7182 -0.590328 3.52491 0
M  V30 1013 S 94.2772 -1.17014 4.2291 0
M  V30 1014 H 91.0952 -0.0815379 0.706309 0
M  V30 1015 H 93.6972 0.464835 1.89893 0
M  V30 1016 H 92.4012 0.303691 4.09275 0
M  V30 1017 H 91.9322 -1.3561 3.69288 0
M  V30 1018 H 93.9472 -2.45662 4.3112 0
M  V30 1019 N 93.1203 -1.57491 0.0584922 0
M  V30 1020 C 94.3483 -1.97296 -0.623037 0
M  V30 1021 C 94.7633 -0.936338 -1.63946 0
M  V30 1022 O 94.1203 0.0785981 -1.82331 0
M  V30 1023 C 94.1713 -3.37183 -1.30345 0
M  V30 1024 O 93.8923 -4.36872 -0.32773 0
M  V30 1025 C 95.3933 -3.91788 -2.07406 0
M  V30 1026 H 92.6133 -0.649153 -0.169826 0
M  V30 1027 H 95.1573 -2.04106 0.12696 0
M  V30 1028 H 93.3123 -3.31502 -2.00463 0
M  V30 1029 H 93.7263 -5.18141 -0.814269 0
M  V30 1030 H 95.2003 -4.91926 -2.50425 0
M  V30 1031 H 95.6773 -3.27609 -2.92521 0
M  V30 1032 H 96.2833 -4.00829 -1.42184 0
M  V30 1033 N 94.5984 0.214957 -1.56127 0
M  V30 1034 C 95.5084 1.28727 -1.96129 0
M  V30 1035 C 96.5244 1.50916 -0.866044 0
M  V30 1036 O 97.7004 1.63918 -1.17016 0
M  V30 1037 C 94.7654 2.61569 -2.27558 0
M  V30 1038 C 93.8264 2.47625 -3.50685 0
M  V30 1039 C 93.0594 3.74132 -3.80606 0
M  V30 1040 O 93.2824 4.77438 -3.12104 0
M  V30 1041 O 92.2164 3.70849 -4.74083 0
M  V30 1042 H 96.0424 0.977855 -2.87527 0
M  V30 1043 H 93.6274 0.418358 -1.43423 0
M  V30 1044 H 95.5094 3.40012 -2.48938 0
M  V30 1045 H 94.1844 2.92178 -1.39332 0
M  V30 1046 H 93.0914 1.67361 -3.34576 0
M  V30 1047 H 94.4244 2.21954 -4.39315 0
M  V30 1048 N 96.0765 1.50051 0.48192 0
M  V30 1049 C 96.9865 1.7089 1.60728 0
M  V30 1050 C 98.0025 0.591788 1.63627 0
M  V30 1051 O 99.1785 0.868817 1.81696 0
M  V30 1052 C 96.2435 1.78855 2.97005 0
M  V30 1053 C 95.3045 3.02537 3.04581 0
M  V30 1054 C 94.5375 3.10112 4.34357 0
M  V30 1055 O 94.7605 2.24765 5.24249 0
M  V30 1056 O 93.6945 4.02747 4.47301 0
M  V30 1057 H 97.5205 2.66264 1.46072 0
M  V30 1058 H 95.1055 1.34018 0.660264 0
M  V30 1059 H 96.9875 1.86336 3.77964 0
M  V30 1060 H 95.6625 0.866628 3.11883 0
M  V30 1061 H 94.5695 3.00563 2.22739 0
M  V30 1062 H 95.9025 3.94272 2.94636 0
M  V30 1063 N 97.5546 -0.734337 1.39446 0
M  V30 1064 C 98.8036 -1.48937 1.36017 0
M  V30 1065 C 99.1166 -1.95557 -0.0409005 0
M  V30 1066 O 100.323 -2.70779 -0.19778 0
M  V30 1067 C 98.7786 -2.69125 2.38955 0
M  V30 1068 C 98.3866 -2.29452 3.8478 0
M  V30 1069 C 100.131 -3.46944 2.44603 0
M  V30 1070 C 98.0376 -3.46366 4.79358 0
M  V30 1071 H 96.9676 -0.559296 0.505672 0
M  V30 1072 H 99.6186 -0.800983 1.65095 0
M  V30 1073 H 98.0006 -3.40041 2.02948 0
M  V30 1074 H 99.1746 -1.66077 4.29831 0
M  V30 1075 H 97.4896 -1.64723 3.82433 0
M  V30 1076 H 100.087 -4.33907 3.12456 0
M  V30 1077 H 100.43 -3.89454 1.47076 0
M  V30 1078 H 100.963 -2.83056 2.79507 0
M  V30 1079 H 97.7016 -3.08905 5.78151 0
M  V30 1080 H 97.2216 -4.08719 4.38986 0
M  V30 1081 H 98.9006 -4.12691 4.98292 0
M  V30 1082 N 99.0327 -1.24633 -0.964593 0
M  V30 1083 C 100.28 -1.08788 -1.70796 0
M  V30 1084 C 100.608 0.372783 -1.90894 0
M  V30 1085 O 99.8627 1.29167 -1.47018 0
M  V30 1086 C 100.162 -1.7763 -3.10133 0
M  V30 1087 C 99.8277 -3.27557 -3.09866 0
M  V30 1088 C 98.4897 -3.6846 -3.09501 0
M  V30 1089 C 100.842 -4.23389 -3.03959 0
M  V30 1090 C 98.1697 -5.03624 -3.00965 0
M  V30 1091 C 100.522 -5.58565 -2.96965 0
M  V30 1092 C 99.1857 -5.98809 -2.9493 0
M  V30 1093 H 98.4557 -0.398084 -0.624988 0
M  V30 1094 H 101.103 -1.54777 -1.12767 0
M  V30 1095 H 99.4077 -1.24044 -3.71645 0
M  V30 1096 H 101.105 -1.62832 -3.66451 0
M  V30 1097 H 97.6947 -2.95006 -3.10917 0
M  V30 1098 H 101.879 -3.92787 -3.03368 0
M  V30 1099 H 97.1347 -5.33998 -2.97752 0
M  V30 1100 H 101.309 -6.32523 -2.91354 0
M  V30 1101 H 98.9357 -7.03505 -2.88071 0
M  V30 1102 N 100.511 1.16574 -1.06058 0
M  V30 1103 C 101.443 2.2045 -0.627239 0
M  V30 1104 C 102.456 1.59752 0.313534 0
M  V30 1105 O 103.645 1.78192 0.104896 0
M  V30 1106 C 100.745 3.3875 0.100974 0
M  V30 1107 C 99.9178 4.29008 -0.852687 0
M  V30 1108 C 98.9768 5.25944 -0.164152 0
M  V30 1109 O 98.0028 5.63535 -0.801047 0
M  V30 1110 N 99.2048 5.70075 1.09518 0
M  V30 1111 H 101.97 2.58249 -1.52077 0
M  V30 1112 H 99.5308 1.3156 -0.943594 0
M  V30 1113 H 101.523 4.00638 0.57194 0
M  V30 1114 H 100.093 2.99476 0.89628 0
M  V30 1115 H 99.3128 3.64419 -1.50308 0
M  V30 1116 H 100.601 4.86195 -1.49972 0
M  V30 1117 H 99.9988 5.41624 1.6328 0
M  V30 1118 H 98.5558 6.34067 1.51006 0
M  V30 1119 N 101.989 0.842826 1.3317 0
M  V30 1120 C 103.237 0.439577 1.97262 0
M  V30 1121 C 103.558 -1.00548 1.67078 0
M  V30 1122 O 102.828 -1.70098 0.971779 0
M  V30 1123 H 101.408 0.159558 0.72976 0
M  V30 1124 H 104.07 1.07665 1.62463 0
M  V30 1125 H 103.166 0.574886 3.0676 0
M  V30 1126 N 103.467 -1.45747 0.599634 0
M  V30 1127 C 104.716 -2.01502 0.0893511 0
M  V30 1128 C 105.029 -1.4748 -1.28488 0
M  V30 1129 O 106.235 -1.95161 -1.88745 0
M  V30 1130 C 104.691 -3.59735 0.109082 0
M  V30 1131 C 104.299 -4.22754 1.48267 0
M  V30 1132 C 106.043 -4.23085 -0.346374 0
M  V30 1133 C 103.95 -5.73115 1.45921 0
M  V30 1134 H 102.88 -0.753417 0.0296347 0
M  V30 1135 H 105.531 -1.67303 0.753788 0
M  V30 1136 H 103.913 -3.91087 -0.621854 0
M  V30 1137 H 105.087 -4.02987 2.23468 0
M  V30 1138 H 103.402 -3.71567 1.87955 0
M  V30 1139 H 105.999 -5.33327 -0.38298 0
M  V30 1140 H 106.342 -3.93201 -1.36743 0
M  V30 1141 H 106.875 -3.9642 0.331038 0
M  V30 1142 H 103.614 -6.07685 2.45762 0
M  V30 1143 H 103.134 -5.95097 0.749665 0
M  V30 1144 H 104.813 -6.3616 1.17941 0
M  V30 1145 N 104.945 -0.338344 -1.53925 0
M  V30 1146 C 106.193 0.259245 -2.0043 0
M  V30 1147 C 106.514 1.51484 -1.22791 0
M  V30 1148 O 105.784 1.93037 -0.33368 0
M  V30 1149 H 104.364 0.0987845 -0.740439 0
M  V30 1150 H 107.026 -0.458302 -1.89435 0
M  V30 1151 H 106.122 0.505334 -3.07982 0
M  V30 1152 N 106.423 1.57458 -0.0668435 0
M  V30 1153 C 107.651 1.97624 0.612565 0
M  V30 1154 C 108.066 0.94502 1.63447 0
M  V30 1155 O 107.423 -0.0689276 1.8237 0
M  V30 1156 C 107.474 3.37869 1.28555 0
M  V30 1157 O 107.195 4.3704 0.304557 0
M  V30 1158 C 108.696 3.92882 2.05325 0
M  V30 1159 H 105.916 0.650045 0.166381 0
M  V30 1160 H 108.46 2.04035 -0.137782 0
M  V30 1161 H 106.615 3.3256 1.98702 0
M  V30 1162 H 107.029 5.18565 0.786779 0
M  V30 1163 H 108.503 4.93247 2.47812 0
M  V30 1164 H 108.98 3.29156 2.9078 0
M  V30 1165 H 109.586 4.01577 1.40056 0
M  V30 1166 N 107.901 -0.206675 1.56239 0
M  V30 1167 C 108.831 -1.25909 1.96645 0
M  V30 1168 C 109.812 -1.48097 0.836734 0
M  V30 1169 O 110.997 -1.6003 1.10019 0
M  V30 1170 C 108.127 -2.6058 2.29599 0
M  V30 1171 C 107.081 -2.53024 3.452 0
M  V30 1172 C 106.407 -3.91861 3.63798 0
M  V30 1173 C 107.707 -2.06524 4.79734 0
M  V30 1174 H 109.401 -0.923369 2.84806 0
M  V30 1175 H 106.947 -0.442735 1.37025 0
M  V30 1176 H 108.9 -3.34375 2.56459 0
M  V30 1177 H 107.624 -2.95869 1.38307 0
M  V30 1178 H 106.283 -1.81684 3.18412 0
M  V30 1179 H 105.931 -4.24483 2.69857 0
M  V30 1180 H 105.631 -3.87683 4.4156 0
M  V30 1181 H 107.155 -4.67296 3.93022 0
M  V30 1182 H 108.569 -2.70072 5.05702 0
M  V30 1183 H 106.966 -2.13374 5.60885 0
M  V30 1184 H 108.036 -1.01802 4.74093 0
M  V30 1185 N 109.379 -1.50304 -0.473955 0
M  V30 1186 C 110.289 -1.7174 -1.5982 0
M  V30 1187 C 111.305 -0.600457 -1.63311 0
M  V30 1188 O 112.481 -0.878441 -1.81233 0
M  V30 1189 C 109.546 -1.80427 -2.96052 0
M  V30 1190 C 108.607 -3.04148 -3.02972 0
M  V30 1191 C 107.84 -3.12411 -4.32706 0
M  V30 1192 O 108.063 -2.27542 -5.23049 0
M  V30 1193 O 106.997 -4.05113 -4.45159 0
M  V30 1194 H 110.823 -2.67035 -1.44657 0
M  V30 1195 H 108.408 -1.34366 -0.653148 0
M  V30 1196 H 110.29 -1.88338 -3.7697 0
M  V30 1197 H 108.965 -0.883156 -3.11419 0
M  V30 1198 H 107.872 -3.0174 -2.21142 0
M  V30 1199 H 109.205 -3.95829 -2.92541 0
M  V30 1200 N 110.857 0.726932 -1.39834 0
M  V30 1201 C 112.082 1.52121 -1.40976 0
M  V30 1202 C 112.507 1.88098 -0.00826029 0
M  V30 1203 O 111.865 1.52479 0.980807 0
M  V30 1204 C 111.913 2.78021 -2.29644 0
M  V30 1205 O 111.017 3.74272 -1.73188 0
M  V30 1206 H 110.358 0.45908 -0.479731 0
M  V30 1207 H 112.888 0.896207 -1.83927 0
M  V30 1208 H 112.898 3.26671 -2.44438 0
M  V30 1209 H 111.573 2.51169 -3.31492 0
M  V30 1210 H 110.15 3.33073 -1.6768 0
M  V30 1211 N 112.336 1.25143 0.95797 0
M  V30 1212 C 113.268 1.01023 2.05735 0
M  V30 1213 C 114.281 -0.0236902 1.62783 0
M  V30 1214 O 115.47 0.21448 1.77207 0
M  V30 1215 C 112.57 0.504595 3.35122 0
M  V30 1216 C 111.743 1.6039 4.06932 0
M  V30 1217 C 110.802 1.09922 5.14591 0
M  V30 1218 O 109.828 1.79293 5.40225 0
M  V30 1219 N 111.03 -0.0612545 5.80468 0
M  V30 1220 H 113.795 1.95683 2.26998 0
M  V30 1221 H 111.356 1.16303 1.12629 0
M  V30 1222 H 113.348 0.151516 4.04416 0
M  V30 1223 H 111.918 -0.347989 3.10657 0
M  V30 1224 H 111.138 2.12872 3.31782 0
M  V30 1225 H 112.426 2.34252 4.51667 0
M  V30 1226 H 111.824 -0.640985 5.62057 0
M  V30 1227 H 110.381 -0.355395 6.5083 0
M  V30 1228 N 113.814 -1.1601 1.06675 0
M  V30 1229 C 115.042 -1.90527 0.806667 0
M  V30 1230 C 115.457 -1.77643 -0.639396 0
M  V30 1231 O 114.814 -1.12369 -1.43803 0
M  V30 1232 C 114.865 -3.41106 1.19705 0
M  V30 1233 O 114.586 -3.53608 2.58636 0
M  V30 1234 C 116.087 -4.32663 0.965266 0
M  V30 1235 H 113.307 -0.604053 0.292166 0
M  V30 1236 H 115.851 -1.47026 1.4214 0
M  V30 1237 H 114.006 -3.82296 0.626774 0
M  V30 1238 H 114.42 -4.47011 2.74375 0
M  V30 1239 H 115.894 -5.36763 1.288 0
M  V30 1240 H 116.371 -4.39089 -0.0987936 0
M  V30 1241 H 116.977 -3.97206 1.52011 0
M  V30 1242 N 115.292 -0.849877 -1.32721 0
M  V30 1243 C 116.538 -0.451591 -1.97708 0
M  V30 1244 C 116.871 0.989175 -1.6712 0
M  V30 1245 O 116.146 1.69334 -0.956891 0
M  V30 1246 C 116.429 -0.685598 -3.53513 0
M  V30 1247 C 116.282 -2.17444 -3.93749 0
M  V30 1248 C 117.601 -0.138874 -4.39881 0
M  V30 1249 H 114.72 -0.16555 -0.718166 0
M  V30 1250 H 117.362 -1.06742 -1.57182 0
M  V30 1251 H 115.512 -0.161416 -3.88165 0
M  V30 1252 H 117.184 -2.76433 -3.693 0
M  V30 1253 H 115.427 -2.65476 -3.43081 0
M  V30 1254 H 116.098 -2.28888 -5.02309 0
M  V30 1255 H 118.574 -0.587068 -4.11938 0
M  V30 1256 H 117.45 -0.332213 -5.47894 0
M  V30 1257 H 117.711 0.95806 -4.31594 0
M  V30 1258 N 116.77 1.45427 -0.607355 0
M  V30 1259 C 117.702 2.2871 0.149752 0
M  V30 1260 C 118.715 1.39937 0.831958 0
M  V30 1261 O 119.904 1.64313 0.697385 0
M  V30 1262 C 117.004 3.15673 1.23304 0
M  V30 1263 C 116.177 4.32722 0.637996 0
M  V30 1264 C 115.236 5.00895 1.61215 0
M  V30 1265 O 114.262 5.57697 1.13854 0
M  V30 1266 N 115.464 5.00159 2.94655 0
M  V30 1267 H 118.229 2.94328 -0.564882 0
M  V30 1268 H 115.79 1.55612 -0.446823 0
M  V30 1269 H 117.782 3.58144 1.88454 0
M  V30 1270 H 116.352 2.51965 1.8502 0
M  V30 1271 H 115.572 3.93734 -0.191572 0
M  V30 1272 H 116.86 5.08321 0.220665 0
M  V30 1273 H 116.258 4.553 3.35735 0
M  V30 1274 H 114.815 5.46495 3.55228 0
M  V30 1275 N 118.248 0.346503 1.53744 0
M  V30 1276 C 119.496 -0.248612 2.00565 0
M  V30 1277 C 119.817 -1.5083 1.23593 0
M  V30 1278 O 119.087 -1.92858 0.343912 0
M  V30 1279 H 117.667 -0.0948564 0.740953 0
M  V30 1280 H 120.329 0.468341 1.89189 0
M  V30 1281 H 119.425 -0.488994 3.08245 0
M  V30 1282 N 119.726 -1.57421 0.075193 0
M  V30 1283 C 120.974 -1.93236 -0.591974 0
M  V30 1284 C 121.295 -0.956241 -1.69944 0
M  V30 1285 O 120.565 -0.00494792 -1.95899 0
M  V30 1286 H 119.145 -0.713355 -0.22166 0
M  V30 1287 H 121.807 -1.9444 0.133848 0
M  V30 1288 H 120.903 -2.95131 -1.01509 0
M  V30 1289 N 121.204 0.198386 -1.56346 0
M  V30 1290 C 122.432 0.935572 -1.84539 0
M  V30 1291 C 122.847 1.76989 -0.657281 0
M  V30 1292 O 122.204 1.78626 0.374043 0
M  V30 1293 C 122.255 1.8344 -3.11499 0
M  V30 1294 O 121.976 1.03377 -4.25728 0
M  V30 1295 C 123.477 2.68355 -3.52846 0
M  V30 1296 H 120.697 0.273126 -0.612897 0
M  V30 1297 H 123.241 0.20663 -2.03453 0
M  V30 1298 H 121.396 2.51701 -2.94492 0
M  V30 1299 H 121.81 1.64599 -4.98003 0
M  V30 1300 H 123.284 3.27085 -4.44657 0
M  V30 1301 H 123.761 3.41901 -2.75681 0
M  V30 1302 H 124.367 2.05471 -3.72373 0
M  V30 1303 N 122.682 1.50554 0.465978 0
M  V30 1304 C 123.928 1.62038 1.21949 0
M  V30 1305 C 124.261 0.322116 1.9151 0
M  V30 1306 O 123.536 -0.676723 1.82348 0
M  V30 1307 C 123.819 2.80421 2.25912 0
M  V30 1308 C 123.672 4.20144 1.60622 0
M  V30 1309 C 124.991 2.94354 3.27176 0
M  V30 1310 H 122.11 0.589752 0.441998 0
M  V30 1311 H 124.752 1.82956 0.51257 0
M  V30 1312 H 122.902 2.62717 2.86203 0
M  V30 1313 H 124.574 4.49449 1.03889 0
M  V30 1314 H 122.817 4.24165 0.909211 0
M  V30 1315 H 123.488 4.98914 2.36196 0
M  V30 1316 H 125.964 3.10578 2.76913 0
M  V30 1317 H 124.84 3.788 3.97242 0
M  V30 1318 H 125.101 2.05186 3.916 0
M  V30 1319 N 124.16 -0.719506 1.40217 0
M  V30 1320 C 125.07 -1.86378 1.42479 0
M  V30 1321 C 126.086 -1.71073 0.317834 0
M  V30 1322 O 127.262 -1.93406 0.561794 0
M  V30 1323 C 124.327 -3.22136 1.28178 0
M  V30 1324 C 123.388 -3.49723 2.48982 0
M  V30 1325 C 122.621 -4.79004 2.35353 0
M  V30 1326 O 122.844 -5.53821 1.36524 0
M  V30 1327 O 121.778 -5.06839 3.2465 0
M  V30 1328 H 125.604 -1.87425 2.38968 0
M  V30 1329 H 123.189 -0.869405 1.21498 0
M  V30 1330 H 125.071 -4.03234 1.22395 0
M  V30 1331 H 123.746 -3.21825 0.347934 0
M  V30 1332 H 122.653 -2.6865 2.60342 0
M  V30 1333 H 123.986 -3.54828 3.41113 0
M  V30 1334 N 125.638 -1.25649 -0.95132 0
M  V30 1335 C 127.054 -1.02542 -1.223 0
M  V30 1336 C 127.254 0.255715 -1.99871 0
M  V30 1337 O 126.31 0.967558 -2.33226 0
M  V30 1338 C 127.623 -2.25065 -1.99415 0
M  V30 1339 C 129.171 -2.29861 -2.12446 0
M  V30 1340 C 129.646 -3.52048 -2.92961 0
M  V30 1341 N 131.137 -3.52465 -3.00538 0
M  V30 1342 C 131.872 -4.43672 -3.63239 0
M  V30 1343 N 131.368 -5.45157 -4.27523 0
M  V30 1344 N 133.161 -4.31346 -3.60412 0
M  V30 1345 H 125.312 -2.07951 -0.432471 0
M  V30 1346 H 127.575 -0.91339 -0.253816 0
M  V30 1347 H 127.281 -3.18194 -1.49817 0
M  V30 1348 H 127.155 -2.28502 -3.00111 0
M  V30 1349 H 129.542 -1.37252 -2.61239 0
M  V30 1350 H 129.623 -2.3044 -1.11044 0
M  V30 1351 H 129.267 -4.44981 -2.44856 0
M  V30 1352 H 129.197 -3.48715 -3.94596 0
M  V30 1353 H 131.688 -2.79056 -2.54826 0
M  V30 1354 H 132.001 -6.10958 -4.73234 0
M  V30 1355 H 130.346 -5.49025 -4.26141 0
M  V30 1356 H 133.537 -3.51288 -3.09377 0
M  V30 1357 H 133.71 -5.02624 -4.0899 0
M  V30 1358 N 127.117 1.15442 -1.07289 0
M  V30 1359 C 128.047 2.22312 -0.714107 0
M  V30 1360 C 129.028 1.67467 0.298155 0
M  V30 1361 O 130.213 1.93445 0.171048 0
M  V30 1362 C 127.343 3.47124 -0.110448 0
M  V30 1363 C 126.297 4.14926 -1.04979 0
M  V30 1364 C 125.623 5.33807 -0.308924 0
M  V30 1365 C 126.923 4.64762 -2.38314 0
M  V30 1366 H 128.617 2.5258 -1.6076 0
M  V30 1367 H 126.163 1.21404 -0.77441 0
M  V30 1368 H 128.116 4.21124 0.152482 0
M  V30 1369 H 126.84 3.16187 0.81812 0
M  V30 1370 H 125.499 3.42866 -1.29764 0
M  V30 1371 H 125.147 4.99126 0.623084 0
M  V30 1372 H 124.847 5.80113 -0.935036 0
M  V30 1373 H 126.371 6.10576 -0.0537771 0
M  V30 1374 H 127.785 5.30292 -2.1786 0
M  V30 1375 H 126.182 5.21728 -2.96514 0
M  V30 1376 H 127.252 3.80434 -3.00663 0
M  V30 1377 N 128.595 0.856903 1.32268 0
M  V30 1378 C 129.842 0.461386 1.97174 0
M  V30 1379 C 130.17 -0.983491 1.67803 0
M  V30 1380 O 129.425 -1.70541 0.959903 0
M  V30 1381 C 129.724 0.649919 3.51441 0
M  V30 1382 C 129.39 2.0656 4.00804 0
M  V30 1383 C 128.052 2.45279 4.13995 0
M  V30 1384 C 130.404 2.98947 4.26943 0
M  V30 1385 C 127.732 3.75653 4.50668 0
M  V30 1386 C 130.084 4.28822 4.65075 0
M  V30 1387 C 128.748 4.67472 4.76472 0
M  V30 1388 H 128.018 0.168833 0.72151 0
M  V30 1389 H 130.665 1.08739 1.57633 0
M  V30 1390 H 128.97 -0.0593018 3.91755 0
M  V30 1391 H 130.667 0.32391 3.9969 0
M  V30 1392 H 127.257 1.75495 3.91024 0
M  V30 1393 H 131.441 2.70265 4.16258 0
M  V30 1394 H 126.697 4.05379 4.57688 0
M  V30 1395 H 130.871 5.0047 4.84255 0
M  V30 1396 H 128.498 5.68539 5.04646 0
M  V30 1397 N 130.073 -1.45103 0.615059 0
M  V30 1398 C 131.02 -2.30586 -0.0993978 0
M  V30 1399 C 131.99 -1.42544 -0.852669 0
M  V30 1400 O 133.175 -1.71465 -0.836917 0
M  V30 1401 C 130.315 -3.27572 -1.08583 0
M  V30 1402 C 129.428 -4.30717 -0.332656 0
M  V30 1403 C 128.563 -5.14807 -1.30947 0
M  V30 1404 C 127.602 -6.09673 -0.544538 0
M  V30 1405 N 126.739 -6.86517 -1.47101 0
M  V30 1406 H 131.579 -2.91144 0.635542 0
M  V30 1407 H 129.116 -1.4346 0.325206 0
M  V30 1408 H 131.074 -3.82276 -1.67095 0
M  V30 1409 H 129.704 -2.68751 -1.78809 0
M  V30 1410 H 128.756 -3.78615 0.368107 0
M  V30 1411 H 130.068 -4.98102 0.263842 0
M  V30 1412 H 129.222 -5.73948 -1.96643 0
M  V30 1413 H 127.961 -4.47458 -1.9399 0
M  V30 1414 H 126.966 -5.49656 0.126003 0
M  V30 1415 H 128.191 -6.79052 0.080947 0
M  V30 1416 H 126.137 -6.21851 -2.08895 0
M  V30 1417 H 126.054 -7.50281 -0.928137 0
M  V30 1418 H 127.322 -7.50194 -2.11731 0
M  V30 1419 N 131.551 -0.354651 -1.53558 0
M  V30 1420 C 132.499 0.512195 -2.26891 0
M  V30 1421 C 133.493 1.09263 -1.29452 0
M  V30 1422 O 134.699 1.03709 -1.47121 0
M  V30 1423 H 131.074 0.183878 -0.729173 0
M  V30 1424 H 133.045 -0.128202 -2.98124 0
M  V30 1425 C 131.794 1.64563 -3.06291 0
M  V30 1426 H 131.117 1.20829 -3.81104 0
M  V30 1427 H 132.557 2.22711 -3.60799 0
M  V30 1428 C 131.016 2.58158 -2.16462 0
M  V30 1429 O 131.546 3.60695 -1.76811 0
M  V30 1430 N 129.752 2.27096 -1.81317 0
M  V30 1431 H 129.299 1.43751 -2.1376 0
M  V30 1432 H 129.257 2.89975 -1.21498 0
M  V30 1433 N 133.029 1.57378 -0.0835403 0
M  V30 1434 C 133.959 2.1641 0.87686 0
M  V30 1435 C 134.94 1.09429 1.30228 0
M  V30 1436 O 136.125 1.37516 1.37124 0
M  V30 1437 C 133.255 2.73517 2.14022 0
M  V30 1438 C 132.209 3.85769 1.85381 0
M  V30 1439 C 131.535 4.29529 3.18448 0
M  V30 1440 C 132.835 5.09486 1.14984 0
M  V30 1441 H 134.529 2.96914 0.385059 0
M  V30 1442 H 132.075 1.42823 0.18377 0
M  V30 1443 H 134.028 3.13463 2.81636 0
M  V30 1444 H 132.752 1.90252 2.65465 0
M  V30 1445 H 131.411 3.46345 1.20169 0
M  V30 1446 H 131.059 3.43169 3.67755 0
M  V30 1447 H 130.759 5.05204 3.00071 0
M  V30 1448 H 132.283 4.72099 3.8724 0
M  V30 1449 H 133.697 5.46674 1.72687 0
M  V30 1450 H 132.094 5.90515 1.06826 0
M  V30 1451 H 133.164 4.84724 0.130749 0
M  V30 1452 N 134.507 -0.190092 1.56449 0
M  V30 1453 C 135.732 -0.929864 1.85387 0
M  V30 1454 C 136.157 -1.7585 0.667704 0
M  V30 1455 O 135.515 -1.77198 -0.383459 0
M  V30 1456 C 135.563 -1.79773 3.12593 0
M  V30 1457 O 134.667 -2.89713 2.93496 0
M  V30 1458 H 134.008 -0.261574 0.610307 0
M  V30 1459 H 136.538 -0.193896 2.03679 0
M  V30 1460 H 136.548 -2.20139 3.43515 0
M  V30 1461 H 135.223 -1.18892 3.98544 0
M  V30 1462 H 133.8 -2.53065 2.73884 0
M  V30 1463 N 135.985 -1.50799 -0.457987 0
M  V30 1464 C 136.915 -1.73553 -1.5621 0
M  V30 1465 C 137.896 -0.584774 -1.59732 0
M  V30 1466 O 139.081 -0.825314 -1.7579 0
M  V30 1467 C 136.211 -1.84169 -2.94447 0
M  V30 1468 C 135.165 -2.99461 -3.0579 0
M  V30 1469 C 134.491 -2.95235 -4.45803 0
M  V30 1470 C 135.791 -4.39766 -2.81786 0
M  V30 1471 H 137.485 -2.66 -1.37421 0
M  V30 1472 H 135.031 -1.28002 -0.659662 0
M  V30 1473 H 136.984 -1.98672 -3.71628 0
M  V30 1474 H 135.708 -0.883545 -3.14422 0
M  V30 1475 H 134.367 -2.8463 -2.31044 0
M  V30 1476 H 134.015 -1.97239 -4.62715 0
M  V30 1477 H 133.715 -3.72642 -4.54326 0
M  V30 1478 H 135.239 -3.11803 -5.24987 0
M  V30 1479 H 136.653 -4.55054 -3.4871 0
M  V30 1480 H 135.05 -5.18722 -3.0174 0
M  V30 1481 H 136.12 -4.51229 -1.7754 0
M  V30 1482 N 137.463 0.71206 -1.40597 0
M  V30 1483 C 138.712 1.46754 -1.38369 0
M  V30 1484 C 139.025 1.95598 0.0097839 0
M  V30 1485 O 140.231 2.71059 0.154677 0
M  V30 1486 C 138.687 2.65289 -2.43207 0
M  V30 1487 C 138.295 2.23301 -3.88382 0
M  V30 1488 C 140.039 3.43008 -2.50091 0
M  V30 1489 C 137.946 3.38696 -4.84808 0
M  V30 1490 H 136.876 0.55118 -0.514506 0
M  V30 1491 H 139.527 0.774616 -1.66349 0
M  V30 1492 H 137.909 3.36769 -2.08332 0
M  V30 1493 H 139.083 1.59218 -4.32419 0
M  V30 1494 H 137.398 1.58618 -3.85006 0
M  V30 1495 H 139.995 4.28881 -3.1932 0
M  V30 1496 H 140.338 3.87065 -1.53253 0
M  V30 1497 H 140.871 2.78574 -2.83974 0
M  V30 1498 H 137.61 2.99668 -5.82992 0
M  V30 1499 H 137.13 4.01683 -4.45433 0
M  V30 1500 H 138.809 4.04712 -5.04794 0
M  V30 1501 N 138.941 1.26152 0.944643 0
M  V30 1502 C 139.888 1.07408 2.04285 0
M  V30 1503 C 140.858 -0.0198413 1.66088 0
M  V30 1504 O 142.043 0.139264 1.90291 0
M  V30 1505 C 139.183 0.70945 3.37729 0
M  V30 1506 C 138.296 1.87926 3.88983 0
M  V30 1507 C 137.431 1.45807 5.10797 0
M  V30 1508 C 136.47 2.5964 5.54305 0
M  V30 1509 N 135.607 2.18226 6.67324 0
M  V30 1510 H 140.447 2.01389 2.1965 0
M  V30 1511 H 137.984 1.00275 1.07626 0
M  V30 1512 H 139.942 0.478948 4.14442 0
M  V30 1513 H 138.572 -0.193389 3.2222 0
M  V30 1514 H 137.624 2.22279 3.08701 0
M  V30 1515 H 138.936 2.73377 4.17213 0
M  V30 1516 H 138.09 1.18781 5.94959 0
M  V30 1517 H 136.829 0.574414 4.84305 0
M  V30 1518 H 135.834 2.87399 4.68702 0
M  V30 1519 H 137.059 3.48599 5.828 0
M  V30 1520 H 135.005 1.3229 6.42523 0
M  V30 1521 H 134.922 2.97221 6.95123 0
M  V30 1522 H 136.19 1.94403 7.54869 0
M  V30 1523 N 140.419 -1.14872 1.07899 0
M  V30 1524 C 141.366 -2.19791 0.704319 0
M  V30 1525 C 142.336 -1.63238 -0.306987 0
M  V30 1526 O 143.521 -1.8983 -0.192171 0
M  V30 1527 C 140.661 -3.44911 0.114244 0
M  V30 1528 C 139.774 -4.15637 1.1777 0
M  V30 1529 C 138.909 -5.28324 0.552037 0
M  V30 1530 C 137.948 -5.90875 1.59789 0
M  V30 1531 N 137.085 -6.95022 0.994404 0
M  V30 1532 H 141.925 -2.5119 1.60336 0
M  V30 1533 H 139.462 -1.23356 0.801352 0
M  V30 1534 H 141.42 -4.16477 -0.245544 0
M  V30 1535 H 140.05 -3.14011 -0.74813 0
M  V30 1536 H 139.102 -3.42512 1.65499 0
M  V30 1537 H 140.414 -4.5823 1.97046 0
M  V30 1538 H 139.568 -6.06538 0.1402 0
M  V30 1539 H 138.307 -4.86939 -0.272431 0
M  V30 1540 H 137.312 -5.11369 2.01945 0
M  V30 1541 H 138.537 -6.34337 2.42474 0
M  V30 1542 H 136.483 -6.55722 0.190939 0
M  V30 1543 H 136.4 -7.36073 1.72432 0
M  V30 1544 H 137.668 -7.77123 0.608253 0
M  V30 1545 N 141.898 -0.863906 -1.31812 0
M  V30 1546 C 143.128 -0.485406 -2.00817 0
M  V30 1547 C 143.536 0.925007 -1.65046 0
M  V30 1548 O 142.879 1.61653 -0.872574 0
M  V30 1549 C 142.941 -0.555589 -3.55181 0
M  V30 1550 C 142.605 -1.92654 -4.14407 0
M  V30 1551 C 143.602 -2.89324 -4.31958 0
M  V30 1552 C 141.287 -2.2262 -4.50273 0
M  V30 1553 C 143.281 -4.14108 -4.84555 0
M  V30 1554 C 140.968 -3.47654 -5.02573 0
M  V30 1555 C 141.966 -4.43214 -5.19664 0
M  V30 1556 O 141.654 -5.66033 -5.70843 0
M  V30 1557 H 141.386 -0.188224 -0.649267 0
M  V30 1558 H 143.94 -1.16514 -1.69156 0
M  V30 1559 H 142.17 0.181037 -3.86276 0
M  V30 1560 H 143.859 -0.19138 -4.05449 0
M  V30 1561 H 144.625 -2.6748 -4.04573 0
M  V30 1562 H 140.504 -1.4902 -4.3625 0
M  V30 1563 H 144.048 -4.88703 -4.9781 0
M  V30 1564 H 139.945 -3.69345 -5.29391 0
M  V30 1565 H 140.713 -5.6812 -5.89222 0
M  V30 1566 N 143.376 1.44774 -0.622745 0
M  V30 1567 C 144.625 2.01334 -0.121397 0
M  V30 1568 C 144.938 1.49505 1.26125 0
M  V30 1569 O 146.144 1.98139 1.85616 0
M  V30 1570 C 144.6 3.59516 -0.166298 0
M  V30 1571 C 144.208 4.20342 -1.54974 0
M  V30 1572 C 145.952 4.23582 0.279021 0
M  V30 1573 C 143.859 5.70721 -1.55021 0
M  V30 1574 H 142.789 0.752851 -0.0416172 0
M  V30 1575 H 145.44 1.66083 -0.780309 0
M  V30 1576 H 143.822 3.92027 0.559557 0
M  V30 1577 H 144.996 3.99381 -2.29851 0
M  V30 1578 H 143.311 3.68529 -1.93843 0
M  V30 1579 H 145.908 5.33868 0.298083 0
M  V30 1580 H 146.251 3.95327 1.30471 0
M  V30 1581 H 146.784 3.95843 -0.394063 0
M  V30 1582 H 143.523 6.03698 -2.55399 0
M  V30 1583 H 143.043 5.93829 -0.844245 0
M  V30 1584 H 144.722 6.34203 -1.28047 0
M  V30 1585 N 144.854 0.36279 1.53368 0
M  V30 1586 C 146.131 -0.284021 1.93527 0
M  V30 1587 C 146.511 -1.66628 1.29608 0
M  V30 1588 O 145.859 -2.23942 0.45413 0
M  V30 1589 C 146.069 -0.337028 3.47369 0
M  V30 1590 C 147.417 -0.578708 4.20638 0
M  V30 1591 O 148.441 -0.418352 3.53735 0
M  V30 1592 O 147.3 -0.89074 5.39192 0
M  V30 1593 H 144.394 -0.169743 0.809393 0
M  V30 1594 H 146.94 0.41537 1.64538 0
M  V30 1595 H 145.712 0.632217 3.86159 0
M  V30 1596 H 145.335 -1.08243 3.82582 0
M  V30 1597 N 146.332 -1.57332 0.0918853 0
M  V30 1598 C 147.58 -1.93853 -0.571446 0
M  V30 1599 C 147.901 -0.974212 -1.6892 0
M  V30 1600 O 147.171 -0.0257254 -1.95883 0
M  V30 1601 H 145.751 -0.715666 -0.214082 0
M  V30 1602 H 148.413 -1.94287 0.154464 0
M  V30 1603 H 147.509 -2.96191 -0.983729 0
M  V30 1604 N 147.81 0.181792 -1.56548 0
M  V30 1605 C 148.742 1.24956 -1.92142 0
M  V30 1606 C 149.755 1.41022 -0.813422 0
M  V30 1607 O 150.944 1.41212 -1.09186 0
M  V30 1608 C 148.044 2.61981 -2.14987 0
M  V30 1609 C 147.217 2.6735 -3.46183 0
M  V30 1610 C 146.276 3.85664 -3.5798 0
M  V30 1611 O 145.302 3.72148 -4.30691 0
M  V30 1612 N 146.504 5.01683 -2.92053 0
M  V30 1613 H 149.269 0.947329 -2.84334 0
M  V30 1614 H 146.83 0.371629 -1.57577 0
M  V30 1615 H 148.822 3.3958 -2.20154 0
M  V30 1616 H 147.392 2.84637 -1.2923 0
M  V30 1617 H 146.612 1.75925 -3.52766 0
M  V30 1618 H 147.9 2.67939 -4.32534 0
M  V30 1619 H 147.298 5.15564 -2.32832 0
M  V30 1620 H 145.855 5.77181 -3.0283 0
M  V30 1621 N 149.288 1.51039 0.449983 0
M  V30 1622 C 150.235 1.71439 1.54523 0
M  V30 1623 C 151.205 0.555871 1.56522 0
M  V30 1624 O 152.39 0.788871 1.73728 0
M  V30 1625 C 149.53 1.83384 2.92343 0
M  V30 1626 C 148.643 3.10873 2.9997 0
M  V30 1627 C 147.778 3.13488 4.28834 0
M  V30 1628 C 146.817 4.35343 4.30282 0
M  V30 1629 N 145.954 4.35579 5.5065 0
M  V30 1630 H 150.794 2.64934 1.36433 0
M  V30 1631 H 148.331 1.31312 0.662982 0
M  V30 1632 H 150.289 1.88291 3.72293 0
M  V30 1633 H 148.919 0.933086 3.0902 0
M  V30 1634 H 147.971 3.15336 2.12761 0
M  V30 1635 H 149.283 4.00814 2.96901 0
M  V30 1636 H 148.437 3.17241 5.17149 0
M  V30 1637 H 147.176 2.21414 4.34543 0
M  V30 1638 H 146.181 4.3178 3.40362 0
M  V30 1639 H 147.406 5.28668 4.26248 0
M  V30 1640 H 145.352 3.46369 5.57104 0
M  V30 1641 H 145.269 5.19313 5.49409 0
M  V30 1642 H 146.537 4.43507 6.41032 0
M  V30 1643 N 150.766 -0.704594 1.40972 0
M  V30 1644 C 151.713 -1.81862 1.42109 0
M  V30 1645 C 152.683 -1.63781 0.276593 0
M  V30 1646 O 153.868 -1.84759 0.4763 0
M  V30 1647 C 151.008 -3.19669 1.30022 0
M  V30 1648 C 150.121 -3.49246 2.54267 0
M  V30 1649 C 149.256 -4.76618 2.3454 0
M  V30 1650 C 148.295 -4.99133 3.54306 0
M  V30 1651 N 147.432 -6.17726 3.33706 0
M  V30 1652 H 152.272 -1.80226 2.37324 0
M  V30 1653 H 149.809 -0.880238 1.17857 0
M  V30 1654 H 151.767 -3.99263 1.21018 0
M  V30 1655 H 150.397 -3.20506 0.384192 0
M  V30 1656 H 149.449 -2.64125 2.73756 0
M  V30 1657 H 150.761 -3.61788 3.43381 0
M  V30 1658 H 149.915 -5.64249 2.22952 0
M  V30 1659 H 148.654 -4.66305 1.42867 0
M  V30 1660 H 147.659 -4.09953 3.66359 0
M  V30 1661 H 148.884 -5.11311 4.4692 0
M  V30 1662 H 146.83 -6.08642 2.44725 0
M  V30 1663 H 146.747 -6.30995 4.16391 0
M  V30 1664 H 148.015 -7.08115 3.25873 0
M  V30 1665 N 152.244 -1.26651 -0.937939 0
M  V30 1666 C 153.191 -1.0849 -2.03712 0
M  V30 1667 C 154.161 0.011033 -1.66096 0
M  V30 1668 O 155.346 -0.149353 -1.90215 0
M  V30 1669 C 152.486 -0.72735 -3.37348 0
M  V30 1670 C 151.599 -1.89986 -3.87981 0
M  V30 1671 C 150.734 -1.48513 -5.10017 0
M  V30 1672 C 149.773 -2.62575 -5.5292 0
M  V30 1673 N 148.91 -2.21762 -6.66158 0
M  V30 1674 H 153.75 -2.02551 -2.18579 0
M  V30 1675 H 151.287 -1.00844 -1.07093 0
M  V30 1676 H 153.245 -0.50092 -4.14182 0
M  V30 1677 H 151.875 0.176298 -3.22318 0
M  V30 1678 H 150.927 -2.23913 -3.07518 0
M  V30 1679 H 152.239 -2.75586 -4.15757 0
M  V30 1680 H 151.393 -1.21934 -5.94321 0
M  V30 1681 H 150.132 -0.60009 -4.83994 0
M  V30 1682 H 149.137 -2.8988 -4.67172 0
M  V30 1683 H 150.362 -3.51685 -5.80943 0
M  V30 1684 H 148.308 -1.35696 -6.41812 0
M  V30 1685 H 148.225 -3.00903 -6.93537 0
M  V30 1686 H 149.493 -1.98403 -7.53828 0
M  V30 1687 N 153.722 1.14298 -1.08507 0
M  V30 1688 C 154.962 1.87016 -0.824894 0
M  V30 1689 C 155.326 1.81099 0.637735 0
M  V30 1690 O 156.527 2.48963 1.01345 0
M  V30 1691 C 154.798 3.31584 -1.33368 0
M  V30 1692 S 156.357 4.21903 -1.20596 0
M  V30 1693 H 153.175 0.645259 -0.2986 0
M  V30 1694 H 155.777 1.37822 -1.38656 0
M  V30 1695 H 154.481 3.33439 -2.39262 0
M  V30 1696 H 154.012 3.85836 -0.767734 0
M  V30 1697 H 156.027 4.95971 -0.150891 0
M  V30 1698 N 155.201 0.870884 1.31352 0
M  V30 1699 C 156.449 0.48132 1.96285 0
M  V30 1700 C 156.77 -0.969813 1.69173 0
M  V30 1701 O 156.04 -1.67998 1.00764 0
M  V30 1702 H 154.62 0.175002 0.726212 0
M  V30 1703 H 157.282 1.11087 1.60143 0
M  V30 1704 H 156.378 0.639825 3.05471 0
M  V30 1705 N 156.679 -1.44442 0.630414 0
M  V30 1706 C 157.589 -2.34476 -0.0761693 0
M  V30 1707 C 158.605 -1.52576 -0.836449 0
M  V30 1708 O 159.781 -1.85307 -0.788874 0
M  V30 1709 C 156.846 -3.30545 -1.04599 0
M  V30 1710 C 155.907 -4.28352 -0.28516 0
M  V30 1711 C 155.14 -5.19831 -1.20878 0
M  V30 1712 O 155.363 -5.15223 -2.44747 0
M  V30 1713 O 154.297 -5.97892 -0.693491 0
M  V30 1714 H 158.123 -2.96345 0.664324 0
M  V30 1715 H 155.708 -1.44203 0.39061 0
M  V30 1716 H 157.59 -3.89681 -1.60396 0
M  V30 1717 H 156.265 -2.7121 -1.76711 0
M  V30 1718 H 155.172 -3.72764 0.315837 0
M  V30 1719 H 156.505 -4.90605 0.395924 0
M  V30 1720 N 158.157 -0.370918 -1.53173 0
M  V30 1721 C 159.067 0.480823 -2.2962 0
M  V30 1722 C 160.083 1.08789 -1.35798 0
M  V30 1723 O 161.259 1.09768 -1.68858 0
M  V30 1724 C 158.324 1.60227 -3.07454 0
M  V30 1725 C 157.385 1.0222 -4.16953 0
M  V30 1726 C 156.618 2.0902 -4.91066 0
M  V30 1727 O 156.841 3.30222 -4.65091 0
M  V30 1728 O 155.775 1.71778 -5.76867 0
M  V30 1729 H 159.601 -0.141421 -3.03371 0
M  V30 1730 H 157.186 -0.135146 -1.48787 0
M  V30 1731 H 159.068 2.25417 -3.56041 0
M  V30 1732 H 157.743 2.20982 -2.36535 0
M  V30 1733 H 156.65 0.334064 -3.72605 0
M  V30 1734 H 157.983 0.459131 -4.90054 0
M  V30 1735 N 159.635 1.57281 -0.100228 0
M  V30 1736 C 161.051 1.57527 0.256416 0
M  V30 1737 C 161.251 1.11173 1.68056 0
M  V30 1738 O 160.307 0.79053 2.39806 0
M  V30 1739 C 161.62 3.00673 0.0401747 0
M  V30 1740 C 163.168 3.12815 0.107528 0
M  V30 1741 C 163.643 4.57929 -0.0807834 0
M  V30 1742 N 165.134 4.63193 -0.0261207 0
M  V30 1743 C 165.869 5.73212 -0.146999 0
M  V30 1744 N 165.365 6.92047 -0.322999 0
M  V30 1745 N 167.158 5.62031 -0.0879044 0
M  V30 1746 H 159.309 1.85718 -1.03065 0
M  V30 1747 H 161.572 0.857446 -0.404339 0
M  V30 1748 H 161.278 3.38804 -0.943649 0
M  V30 1749 H 161.152 3.69042 0.780262 0
M  V30 1750 H 163.539 2.74554 1.08186 0
M  V30 1751 H 163.62 2.47028 -0.664134 0
M  V30 1752 H 163.264 4.96886 -1.05201 0
M  V30 1753 H 163.194 5.21783 0.710635 0
M  V30 1754 H 165.685 3.77748 0.107161 0
M  V30 1755 H 165.998 7.7173 -0.406608 0
M  V30 1756 H 164.343 6.94074 -0.358733 0
M  V30 1757 H 167.534 4.68075 0.048498 0
M  V30 1758 H 167.707 6.47734 -0.185557 0
M  V30 1759 N 161.113 -0.173488 1.56642 0
M  V30 1760 C 162.529 -0.525174 1.50712 0
M  V30 1761 C 162.729 -1.8476 0.804107 0
M  V30 1762 O 161.785 -2.49869 0.363574 0
M  V30 1763 C 163.098 -0.559937 2.95441 0
M  V30 1764 C 164.646 -0.647288 3.06234 0
M  V30 1765 C 165.121 -0.712963 4.52417 0
M  V30 1766 N 166.612 -0.775911 4.56655 0
M  V30 1767 C 167.347 -0.847264 5.67106 0
M  V30 1768 N 166.843 -0.879585 6.87194 0
M  V30 1769 N 168.636 -0.886117 5.55071 0
M  V30 1770 H 160.787 0.693681 2.00753 0
M  V30 1771 H 163.05 0.249841 0.914485 0
M  V30 1772 H 162.756 0.343049 3.50023 0
M  V30 1773 H 162.63 -1.40718 3.49969 0
M  V30 1774 H 165.017 -1.5407 2.51687 0
M  V30 1775 H 165.098 0.226586 2.54794 0
M  V30 1776 H 164.742 0.176183 5.07594 0
M  V30 1777 H 164.672 -1.60295 5.0161 0
M  V30 1778 H 167.163 -0.759304 3.70193 0
M  V30 1779 H 167.476 -0.935144 7.67121 0
M  V30 1780 H 165.821 -0.847898 6.89808 0
M  V30 1781 H 169.012 -0.857853 4.60172 0
M  V30 1782 H 169.185 -0.938263 6.41171 0
M  V30 1783 N 162.591 -1.51276 -0.441967 0
M  V30 1784 C 164.007 -1.39349 -0.778083 0
M  V30 1785 C 164.207 -0.472212 -1.95889 0
M  V30 1786 O 163.263 0.0743551 -2.5239 0
M  V30 1787 C 164.576 -2.81292 -1.0628 0
M  V30 1788 C 166.124 -2.9041 -1.16751 0
M  V30 1789 C 166.599 -4.33251 -1.48519 0
M  V30 1790 N 168.09 -4.36336 -1.55453 0
M  V30 1791 C 168.825 -5.43885 -1.81596 0
M  V30 1792 N 168.321 -6.61601 -2.05562 0
M  V30 1793 N 170.114 -5.3136 -1.8334 0
M  V30 1794 H 162.265 -2.09729 0.335774 0
M  V30 1795 H 164.528 -0.943925 0.0878028 0
M  V30 1796 H 164.234 -3.50678 -0.267905 0
M  V30 1797 H 164.108 -3.20334 -1.99163 0
M  V30 1798 H 166.495 -2.21225 -1.95304 0
M  V30 1799 H 166.576 -2.54871 -0.217801 0
M  V30 1800 H 166.22 -5.02984 -0.704958 0
M  V30 1801 H 166.15 -4.66299 -2.44689 0
M  V30 1802 H 168.641 -3.51466 -1.38853 0
M  V30 1803 H 168.954 -7.39361 -2.24867 0
M  V30 1804 H 167.299 -6.64725 -2.02894 0
M  V30 1805 H 170.49 -4.38382 -1.64132 0
M  V30 1806 H 170.663 -6.15258 -2.03377 0
M  V30 1807 N 164.069 0.697108 -1.41344 0
M  V30 1808 C 165.315 1.4593 -1.40827 0
M  V30 1809 C 165.648 1.94193 -0.0167098 0
M  V30 1810 O 164.923 1.69425 0.955263 0
M  V30 1811 C 165.206 2.67229 -2.41373 0
M  V30 1812 C 165.059 2.24741 -3.8963 0
M  V30 1813 C 166.378 3.69423 -2.39196 0
M  V30 1814 H 163.497 0.529303 -0.512842 0
M  V30 1815 H 166.139 0.794112 -1.72609 0
M  V30 1816 H 164.289 3.23982 -2.14401 0
M  V30 1817 H 165.961 1.73327 -4.27499 0
M  V30 1818 H 164.204 1.56542 -4.0457 0
M  V30 1819 H 164.875 3.1177 -4.55525 0
M  V30 1820 H 167.351 3.2234 -2.63128 0
M  V30 1821 H 166.227 4.51907 -3.11563 0
M  V30 1822 H 166.488 4.19012 -1.41001 0
M  V30 1823 N 165.547 1.27147 0.931209 0
M  V30 1824 C 166.495 1.09398 2.05268 0
M  V30 1825 C 167.489 0.0180591 1.6939 0
M  V30 1826 O 168.695 0.17551 1.79142 0
M  V30 1827 H 165.07 0.336986 0.672268 0
M  V30 1828 H 167.041 2.04416 2.17386 0
M  V30 1829 C 165.79 0.75424 3.39421 0
M  V30 1830 H 165.113 1.57404 3.67511 0
M  V30 1831 H 166.553 0.669903 4.18674 0
M  V30 1832 C 165.012 -0.541197 3.32525 0
M  V30 1833 O 165.542 -1.57664 3.69466 0
M  V30 1834 N 163.748 -0.535517 2.85623 0
M  V30 1835 H 163.295 0.307511 2.55758 0
M  V30 1836 H 163.253 -1.40236 2.81392 0
M  V30 1837 N 167.025 -1.13721 1.09112 0
M  V30 1838 C 167.957 -2.1871 0.685467 0
M  V30 1839 C 168.97 -1.60527 -0.271068 0
M  V30 1840 O 170.159 -1.78407 -0.0576148 0
M  V30 1841 C 167.259 -3.38898 -0.0111255 0
M  V30 1842 C 166.432 -4.26597 0.966131 0
M  V30 1843 C 165.491 -5.25324 0.303539 0
M  V30 1844 O 164.517 -5.61213 0.950177 0
M  V30 1845 N 165.719 -5.72779 -0.943651 0
M  V30 1846 H 168.484 -2.54126 1.58871 0
M  V30 1847 H 166.045 -1.29012 0.978143 0
M  V30 1848 H 168.037 -4.02014 -0.465517 0
M  V30 1849 H 166.607 -3.01747 -0.816565 0
M  V30 1850 H 165.827 -3.60306 1.59917 0
M  V30 1851 H 167.115 -4.82048 1.6281 0
M  V30 1852 H 166.513 -5.45762 -1.48862 0
M  V30 1853 H 165.07 -6.37847 -1.34142 0
M  V30 1854 N 168.503 -0.877838 -1.30888 0
M  V30 1855 C 169.75 -0.492696 -1.96415 0
M  V30 1856 C 170.078 0.956671 -1.69346 0
M  V30 1857 O 169.333 1.68993 -0.986913 0
M  V30 1858 C 169.632 -0.705748 -3.50363 0
M  V30 1859 C 169.298 -2.1291 -3.97467 0
M  V30 1860 C 167.96 -2.51834 -4.1004 0
M  V30 1861 C 170.312 -3.05702 -4.22132 0
M  V30 1862 C 167.64 -3.82775 -4.44635 0
M  V30 1863 C 169.992 -4.36166 -4.58194 0
M  V30 1864 C 168.656 -4.74993 -4.68975 0
M  V30 1865 H 167.926 -0.18029 -0.718733 0
M  V30 1866 H 170.573 -1.11233 -1.55883 0
M  V30 1867 H 168.878 -0.00303058 -3.918 0
M  V30 1868 H 170.575 -0.387456 -3.99124 0
M  V30 1869 H 167.165 -1.81694 -3.88182 0
M  V30 1870 H 171.349 -2.76853 -4.11906 0
M  V30 1871 H 166.605 -4.12609 -4.51181 0
M  V30 1872 H 170.779 -5.08111 -4.76231 0
M  V30 1873 H 168.406 -5.76495 -4.95537 0
M  V30 1874 N 169.982 1.44106 -0.638065 0
M  V30 1875 C 170.912 2.33448 0.0494287 0
M  V30 1876 C 171.893 1.48606 0.827672 0
M  V30 1877 O 173.078 1.77308 0.792173 0
M  V30 1878 C 170.208 3.31771 1.02691 0
M  V30 1879 C 169.162 4.26485 0.359823 0
M  V30 1880 C 168.488 5.14729 1.44769 0
M  V30 1881 C 169.788 5.17056 -0.738296 0
M  V30 1882 H 171.482 2.91183 -0.696636 0
M  V30 1883 H 169.028 1.40014 -0.336456 0
M  V30 1884 H 170.981 3.93161 1.51666 0
M  V30 1885 H 169.705 2.7226 1.80395 0
M  V30 1886 H 168.364 3.66437 -0.10934 0
M  V30 1887 H 168.012 4.51566 2.21578 0
M  V30 1888 H 167.712 5.78913 1.00668 0
M  V30 1889 H 169.236 5.78991 1.93911 0
M  V30 1890 H 170.65 5.72342 -0.331354 0
M  V30 1891 H 169.047 5.89879 -1.10286 0
M  V30 1892 H 170.117 4.57652 -1.60258 0
M  V30 1893 N 171.46 0.379036 1.52974 0
M  V30 1894 C 172.737 -0.263479 1.93817 0
M  V30 1895 C 173.117 -1.65244 1.31368 0
M  V30 1896 O 172.465 -2.23448 0.477856 0
M  V30 1897 C 172.675 -0.300166 3.47707 0
M  V30 1898 C 174.023 -0.534061 4.21228 0
M  V30 1899 O 175.047 -0.38081 3.54159 0
M  V30 1900 O 173.906 -0.833501 5.40106 0
M  V30 1901 H 171 -0.161149 0.811147 0
M  V30 1902 H 173.546 0.432798 1.64088 0
M  V30 1903 H 172.318 0.673138 3.85467 0
M  V30 1904 H 171.941 -1.04179 3.83709 0
M  V30 1905 N 172.938 -1.57226 0.108567 0
M  V30 1906 C 174.168 -1.9889 -0.559142 0
M  V30 1907 C 174.576 -0.986889 -1.61422 0
M  V30 1908 O 173.919 0.0298705 -1.83676 0
M  V30 1909 C 173.981 -3.36952 -1.25315 0
M  V30 1910 C 173.645 -4.55679 -0.347248 0
M  V30 1911 C 174.642 -5.18281 0.409996 0
M  V30 1912 C 172.327 -5.0162 -0.261367 0
M  V30 1913 C 174.321 -6.25203 1.24096 0
M  V30 1914 C 172.008 -6.08405 0.573238 0
M  V30 1915 C 173.006 -6.70063 1.32304 0
M  V30 1916 O 172.694 -7.74788 2.14381 0
M  V30 1917 H 172.426 -0.658343 -0.153492 0
M  V30 1918 H 174.98 -2.04532 0.188584 0
M  V30 1919 H 173.21 -3.28032 -2.04773 0
M  V30 1920 H 174.899 -3.62974 -1.81673 0
M  V30 1921 H 175.665 -4.8371 0.353457 0
M  V30 1922 H 171.544 -4.53381 -0.834656 0
M  V30 1923 H 175.088 -6.73259 1.82669 0
M  V30 1924 H 170.985 -6.42406 0.631208 0
M  V30 1925 H 171.753 -7.91837 2.07209 0
M  V30 1926 N 174.416 0.165178 -1.56732 0
M  V30 1927 C 175.346 1.20651 -1.99914 0
M  V30 1928 C 176.327 1.45827 -0.875705 0
M  V30 1929 O 177.512 1.57057 -1.14223 0
M  V30 1930 C 174.642 2.54401 -2.36427 0
M  V30 1931 C 173.596 2.43782 -3.51787 0
M  V30 1932 C 172.922 3.82078 -3.7406 0
M  V30 1933 C 174.222 1.93732 -4.85041 0
M  V30 1934 H 175.916 0.847534 -2.87154 0
M  V30 1935 H 173.462 0.40625 -1.38151 0
M  V30 1936 H 175.415 3.27458 -2.65234 0
M  V30 1937 H 174.139 2.92098 -1.46103 0
M  V30 1938 H 172.798 1.73178 -3.23117 0
M  V30 1939 H 172.446 4.17179 -2.81017 0
M  V30 1940 H 172.146 3.7584 -4.51684 0
M  V30 1941 H 173.67 4.56712 -4.05274 0
M  V30 1942 H 175.084 2.56569 -5.12684 0
M  V30 1943 H 173.481 1.98428 -5.66345 0
M  V30 1944 H 174.551 0.891962 -4.76626 0
M  V30 1945 N 175.894 1.51508 0.433938 0
M  V30 1946 C 176.826 1.69266 1.54537 0
M  V30 1947 C 177.839 0.573276 1.52373 0
M  V30 1948 O 179.028 0.847698 1.57087 0
M  V30 1949 C 176.128 1.69524 2.93453 0
M  V30 1950 C 175.301 2.98101 3.20085 0
M  V30 1951 C 174.36 2.90502 4.38742 0
M  V30 1952 O 173.386 3.64442 4.3723 0
M  V30 1953 N 174.588 2.06586 5.42496 0
M  V30 1954 H 177.353 2.65145 1.39708 0
M  V30 1955 H 174.914 1.49437 0.622922 0
M  V30 1956 H 176.906 1.62004 3.70859 0
M  V30 1957 H 175.476 0.812245 3.01863 0
M  V30 1958 H 174.696 3.19464 2.30947 0
M  V30 1959 H 175.984 3.83207 3.34708 0
M  V30 1960 H 175.382 1.45896 5.46563 0
M  V30 1961 H 173.939 2.04943 6.18742 0
M  V30 1962 N 177.372 -0.689602 1.41712 0
M  V30 1963 C 178.282 -1.83314 1.46401 0
M  V30 1964 C 179.298 -1.7036 0.35405 0
M  V30 1965 O 180.474 -1.92171 0.602692 0
M  V30 1966 C 177.539 -3.19344 1.34982 0
M  V30 1967 C 176.6 -3.44363 2.56344 0
M  V30 1968 C 175.833 -4.73904 2.45461 0
M  V30 1969 O 176.056 -5.508 1.48241 0
M  V30 1970 O 174.99 -4.99839 3.35328 0
M  V30 1971 H 178.816 -1.82314 2.42889 0
M  V30 1972 H 176.401 -0.843438 1.23315 0
M  V30 1973 H 178.283 -4.00547 1.3092 0
M  V30 1974 H 176.958 -3.21014 0.41612 0
M  V30 1975 H 175.865 -2.63067 2.65982 0
M  V30 1976 H 177.198 -3.47512 3.48563 0
M  V30 1977 N 178.85 -1.27639 -0.924453 0
M  V30 1978 C 180.097 -1.14167 -1.67249 0
M  V30 1979 C 180.425 0.311863 -1.91984 0
M  V30 1980 O 179.68 1.24425 -1.51053 0
M  V30 1981 C 179.979 -1.87407 -3.04325 0
M  V30 1982 C 179.645 -3.37249 -2.99289 0
M  V30 1983 C 178.307 -3.7812 -2.97622 0
M  V30 1984 C 180.659 -4.32845 -2.90336 0
M  V30 1985 C 177.987 -5.12944 -2.8479 0
M  V30 1986 C 180.339 -5.6773 -2.79045 0
M  V30 1987 C 179.003 -6.07889 -2.7573 0
M  V30 1988 H 178.273 -0.417766 -0.612007 0
M  V30 1989 H 180.92 -1.58286 -1.07786 0
M  V30 1990 H 179.225 -1.35805 -3.67511 0
M  V30 1991 H 180.922 -1.74408 -3.61086 0
M  V30 1992 H 177.512 -3.04748 -3.01374 0
M  V30 1993 H 181.696 -4.02239 -2.90719 0
M  V30 1994 H 176.952 -5.432 -2.80612 0
M  V30 1995 H 181.126 -6.41472 -2.71083 0
M  V30 1996 H 178.753 -7.12314 -2.65544 0
M  V30 1997 N 180.328 1.1314 -1.09713 0
M  V30 1998 C 181.258 2.20748 -0.761102 0
M  V30 1999 C 182.239 1.68061 0.262566 0
M  V30 2000 O 183.424 1.93765 0.129977 0
M  V30 2001 C 180.554 3.46812 -0.184054 0
M  V30 2002 C 179.508 4.12606 -1.13757 0
M  V30 2003 C 178.834 5.33031 -0.422083 0
M  V30 2004 C 180.134 4.59603 -2.48118 0
M  V30 2005 H 181.828 2.49113 -1.66082 0
M  V30 2006 H 179.374 1.19734 -0.799987 0
M  V30 2007 H 181.327 4.21353 0.0631215 0
M  V30 2008 H 180.051 3.17851 0.750868 0
M  V30 2009 H 178.71 3.40036 -1.37007 0
M  V30 2010 H 178.358 5.00335 0.517072 0
M  V30 2011 H 178.058 5.77999 -1.05788 0
M  V30 2012 H 179.582 6.10325 -0.183277 0
M  V30 2013 H 180.996 5.25552 -2.29059 0
M  V30 2014 H 179.393 5.15321 -3.07514 0
M  V30 2015 H 180.463 3.73971 -3.08665 0
M  V30 2016 N 181.806 0.884767 1.30421 0
M  V30 2017 C 183.054 0.502112 1.95763 0
M  V30 2018 C 183.375 -0.951815 1.70192 0
M  V30 2019 O 182.645 -1.6692 1.0254 0
M  V30 2020 H 181.225 0.182694 0.724315 0
M  V30 2021 H 183.887 1.1278 1.58955 0
M  V30 2022 H 182.983 0.672188 3.04775 0
M  V30 2023 N 183.284 -1.43765 0.645699 0
M  V30 2024 C 184.53 -2.02197 0.156271 0
M  V30 2025 C 184.863 -1.50776 -1.22393 0
M  V30 2026 O 184.138 -0.697771 -1.81553 0
M  V30 2027 C 184.421 -3.59749 0.158872 0
M  V30 2028 C 184.274 -4.21419 1.57245 0
M  V30 2029 C 185.593 -4.37149 -0.50879 0
M  V30 2030 H 182.712 -0.734694 0.0582602 0
M  V30 2031 H 185.354 -1.71157 0.824951 0
M  V30 2032 H 183.504 -3.86325 -0.410525 0
M  V30 2033 H 185.176 -4.059 2.19186 0
M  V30 2034 H 183.419 -3.78356 2.122 0
M  V30 2035 H 184.09 -5.30482 1.52619 0
M  V30 2036 H 186.566 -4.16093 -0.024412 0
M  V30 2037 H 185.442 -5.4683 -0.476213 0
M  V30 2038 H 185.703 -4.12839 -1.58165 0
M  V30 2039 N 184.763 -0.387143 -1.52771 0
M  V30 2040 C 185.696 0.493123 -2.22808 0
M  V30 2041 C 186.674 1.0658 -1.22798 0
M  V30 2042 O 187.858 1.11785 -1.51777 0
M  V30 2043 C 184.985 1.68238 -2.93962 0
M  V30 2044 C 184.031 1.23515 -4.08223 0
M  V30 2045 S 184.864 0.21848 -5.35054 0
M  V30 2046 C 186.02 1.41357 -6.09729 0
M  V30 2047 H 186.253 -0.101625 -2.97126 0
M  V30 2048 H 183.786 -0.171323 -1.53447 0
M  V30 2049 H 185.744 2.36443 -3.35567 0
M  V30 2050 H 184.405 2.24842 -2.19328 0
M  V30 2051 H 183.598 2.12304 -4.57103 0
M  V30 2052 H 183.2 0.632044 -3.68621 0
M  V30 2053 H 185.492 2.34101 -6.3577 0
M  V30 2054 H 186.435 0.965736 -7.01484 0
M  V30 2055 H 186.843 1.6294 -5.40473 0
M  V30 2056 N 186.241 1.57166 -0.116904 0
M  V30 2057 C 187.189 2.16457 0.851418 0
M  V30 2058 C 188.183 1.11323 1.27686 0
M  V30 2059 O 189.389 1.2963 1.24884 0
M  V30 2060 H 185.764 0.69271 0.292672 0
M  V30 2061 H 187.735 2.96605 0.32685 0
M  V30 2062 C 186.484 2.77689 2.09246 0
M  V30 2063 H 185.807 3.58285 1.77402 0
M  V30 2064 H 187.247 3.22716 2.7501 0
M  V30 2065 C 185.706 1.74667 2.88085 0
M  V30 2066 O 186.236 1.19877 3.83396 0
M  V30 2067 N 184.442 1.44656 2.52038 0
M  V30 2068 H 183.989 1.89402 1.74599 0
M  V30 2069 H 183.947 0.759675 3.05084 0
M  V30 2070 N 187.719 -0.156864 1.56817 0
M  V30 2071 C 188.947 -0.886316 1.86955 0
M  V30 2072 C 189.362 -1.75185 0.703975 0
M  V30 2073 O 188.719 -1.79555 -0.326552 0
M  V30 2074 C 188.77 -1.75117 3.16253 0
M  V30 2075 O 188.491 -0.920537 4.2832 0
M  V30 2076 C 189.992 -2.58905 3.59837 0
M  V30 2077 H 187.212 -0.25678 0.619923 0
M  V30 2078 H 189.756 -0.152615 2.0393 0
M  V30 2079 H 187.911 -2.43805 3.01062 0
M  V30 2080 H 188.325 -1.51337 5.02192 0
M  V30 2081 H 189.799 -3.1518 4.53172 0
M  V30 2082 H 190.276 -3.34472 2.84649 0
M  V30 2083 H 190.882 -1.95526 3.7769 0
M  V30 2084 N 189.197 -1.51736 -0.425897 0
M  V30 2085 C 190.107 -1.76738 -1.54275 0
M  V30 2086 C 191.123 -0.65211 -1.61318 0
M  V30 2087 O 192.299 -0.935654 -1.78346 0
M  V30 2088 C 189.364 -1.89755 -2.90162 0
M  V30 2089 C 188.425 -3.13633 -2.93143 0
M  V30 2090 C 187.658 -3.2602 -4.22548 0
M  V30 2091 O 187.881 -2.44067 -5.15546 0
M  V30 2092 O 186.815 -4.19071 -4.32046 0
M  V30 2093 H 190.641 -2.71502 -1.36089 0
M  V30 2094 H 188.226 -1.36376 -0.610069 0
M  V30 2095 H 190.108 -2.00236 -3.70788 0
M  V30 2096 H 188.783 -0.981785 -3.08452 0
M  V30 2097 H 187.69 -3.08622 -2.11431 0
M  V30 2098 H 189.023 -4.04936 -2.798 0
M  V30 2099 N 190.675 0.682077 -1.42076 0
M  V30 2100 C 191.921 1.44283 -1.43366 0
M  V30 2101 C 192.276 1.92344 -0.0465775 0
M  V30 2102 O 191.569 1.67517 0.929973 0
M  V30 2103 C 191.763 2.66036 -2.38662 0
M  V30 2104 C 191.592 2.29889 -3.86499 0
M  V30 2105 C 190.362 2.19599 -4.55087 0
M  V30 2106 C 192.56 1.91999 -4.77117 0
M  V30 2107 N 190.542 1.76478 -5.87987 0
M  V30 2108 C 191.913 1.59741 -5.99068 0
M  V30 2109 C 193.968 1.78927 -4.64639 0
M  V30 2110 C 192.671 1.15723 -7.0993 0
M  V30 2111 C 194.697 1.36314 -5.75476 0
M  V30 2112 C 194.059 1.04975 -6.96534 0
M  V30 2113 H 190.158 0.524739 -0.579805 0
M  V30 2114 H 192.742 0.787834 -1.78048 0
M  V30 2115 H 190.913 3.29237 -2.06053 0
M  V30 2116 H 192.645 3.32588 -2.30581 0
M  V30 2117 H 189.4 2.38433 -4.09202 0
M  V30 2118 H 189.824 1.57362 -6.58458 0
M  V30 2119 H 194.466 2.01805 -3.7153 0
M  V30 2120 H 192.184 0.91591 -8.02893 0
M  V30 2121 H 195.77 1.26731 -5.6783 0
M  V30 2122 H 194.65 0.725017 -7.80841 0
M  V30 2123 N 192.153 1.28127 0.917671 0
M  V30 2124 C 193.402 1.14432 1.66097 0
M  V30 2125 C 193.715 -0.307247 1.93172 0
M  V30 2126 O 194.921 -0.565259 2.65551 0
M  V30 2127 C 193.377 2.00015 2.99202 0
M  V30 2128 C 192.985 3.49889 2.79789 0
M  V30 2129 C 194.729 1.94996 3.77064 0
M  V30 2130 C 192.636 4.27636 4.08511 0
M  V30 2131 H 191.566 0.424662 0.62304 0
M  V30 2132 H 194.217 1.52628 1.01868 0
M  V30 2133 H 192.599 1.54672 3.64544 0
M  V30 2134 H 193.773 4.03162 2.23152 0
M  V30 2135 H 192.088 3.56392 2.15345 0
M  V30 2136 H 194.685 2.50354 4.72469 0
M  V30 2137 H 195.028 0.925819 4.05875 0
M  V30 2138 H 195.561 2.38287 3.18534 0
M  V30 2139 H 192.3 5.30615 3.84874 0
M  V30 2140 H 191.82 3.79137 4.64774 0
M  V30 2141 H 193.499 4.37346 4.76799 0
M  V30 2142 N 193.631 -1.12557 1.10312 0
M  V30 2143 C 194.88 -1.83395 0.839588 0
M  V30 2144 C 195.193 -1.84939 -0.636929 0
M  V30 2145 O 196.399 -2.51761 -1.01631 0
M  V30 2146 C 194.855 -3.29303 1.45215 0
M  V30 2147 C 194.463 -3.36122 2.96186 0
M  V30 2148 C 196.207 -4.05121 1.26796 0
M  V30 2149 C 194.114 -4.76357 3.50483 0
M  V30 2150 H 193.044 -0.687133 0.310425 0
M  V30 2151 H 195.695 -1.26746 1.32694 0
M  V30 2152 H 194.077 -3.85812 0.892469 0
M  V30 2153 H 195.251 -2.89559 3.58458 0
M  V30 2154 H 193.566 -2.73776 3.13745 0
M  V30 2155 H 196.163 -5.08668 1.64806 0
M  V30 2156 H 196.506 -4.15773 0.209409 0
M  V30 2157 H 197.039 -3.54967 1.79563 0
M  V30 2158 H 193.778 -4.70899 4.55998 0
M  V30 2159 H 193.298 -5.23377 2.92978 0
M  V30 2160 H 194.977 -5.45294 3.48228 0
M  V30 2161 N 195.109 -0.891671 -1.2995 0
M  V30 2162 C 196.019 -0.367691 -2.31701 0
M  V30 2163 C 197.035 0.533486 -1.6562 0
M  V30 2164 O 198.211 0.424997 -1.96865 0
M  V30 2165 C 195.276 0.403406 -3.44345 0
M  V30 2166 C 194.337 -0.528328 -4.26037 0
M  V30 2167 C 193.57 0.206063 -5.33302 0
M  V30 2168 O 193.793 1.43119 -5.52153 0
M  V30 2169 O 192.727 -0.447281 -6.00236 0
M  V30 2170 H 196.553 -1.21163 -2.78484 0
M  V30 2171 H 194.138 -0.655725 -1.34241 0
M  V30 2172 H 196.02 0.839753 -4.12948 0
M  V30 2173 H 194.695 1.22354 -2.99685 0
M  V30 2174 H 193.602 -1.01362 -3.60106 0
M  V30 2175 H 194.935 -1.31465 -4.74318 0
M  V30 2176 N 196.587 1.43421 -0.653314 0
M  V30 2177 C 197.812 2.06678 -0.172846 0
M  V30 2178 C 198.237 1.48648 1.15262 0
M  V30 2179 O 197.595 0.596457 1.71208 0
M  V30 2180 C 197.643 3.60474 -0.0953184 0
M  V30 2181 O 196.747 4.01487 0.942442 0
M  V30 2182 H 196.088 0.657181 -0.0949155 0
M  V30 2183 H 198.618 1.83925 -0.896265 0
M  V30 2184 H 198.628 4.07905 0.0879728 0
M  V30 2185 H 197.303 4.02088 -1.06291 0
M  V30 2186 H 195.88 3.65646 0.731932 0
M  V30 2187 O 198.104 0.537413 1.52296 0
M  V30 2188 H 198.795 0.0295046 1.93678 0
M  V30 END ATOM
M  V30 BEGIN BOND
M  V30 END BOND
M  V30 END CTAB
M  END
$$$$
