drugbank_target|P05108 Cholesterol side-chain cleavage enzyme, mitochondrial (DB00357)
 OpenBabel12092120343D

  0  0  0     0  0            999 V3000
M  V30 BEGIN CTAB
M  V30 COUNTS 8483 8598 0 0 0
M  V30 BEGIN ATOM
M  V30 1 H -0.908 1.98254 -0.117106 0
M  V30 2 N 0 1.576 0 0
M  V30 3 C 0.933 2.03868 1.02534 0
M  V30 4 C 1.911 0.928543 1.3348 0
M  V30 5 O 3.095 1.19667 1.45644 0
M  V30 6 C 0.222 2.43627 2.35294 0
M  V30 7 C -0.732 3.65373 2.2001 0
M  V30 8 S 0.101 5.13292 1.52614 0
M  V30 9 C 1.257 5.56322 2.86805 0
M  V30 10 H 1.49 2.90518 0.631377 0
M  V30 11 H -0.977 1.52953 0.210867 0
M  V30 12 H 0.981 2.67203 3.11629 0
M  V30 13 H -0.358 1.57376 2.7183 0
M  V30 14 H -1.165 3.90944 3.18086 0
M  V30 15 H -1.563 3.418 1.51819 0
M  V30 16 H 0.729 5.58782 3.83104 0
M  V30 17 H 1.672 6.56266 2.65933 0
M  V30 18 H 2.08 4.83886 2.90714 0
M  V30 19 N 1.4781 -0.272755 1.55222 0
M  V30 20 C 2.4081 -1.34136 1.91127 0
M  V30 21 C 3.3891 -1.51513 0.773168 0
M  V30 22 O 4.5741 -1.64552 1.03132 0
M  V30 23 C 1.7041 -2.70083 2.1834 0
M  V30 24 C 0.6581 -2.67437 3.34158 0
M  V30 25 C -0.0159 -4.06938 3.46851 0
M  V30 26 C 1.2841 -2.26686 4.70543 0
M  V30 27 H 2.9781 -1.04333 2.80633 0
M  V30 28 H 0.5241 -0.500454 1.35024 0
M  V30 29 H 2.4771 -3.44952 2.42046 0
M  V30 30 H 1.2011 -3.01469 1.25634 0
M  V30 31 H -0.1399 -1.95026 3.1042 0
M  V30 32 H -0.4919 -4.35547 2.51611 0
M  V30 33 H -0.7919 -4.06062 4.2472 0
M  V30 34 H 0.7321 -4.83545 3.72849 0
M  V30 35 H 2.1461 -2.91277 4.93792 0
M  V30 36 H 0.5431 -2.36971 5.5133 0
M  V30 37 H 1.6131 -1.21818 4.69349 0
M  V30 38 N 2.9562 -1.48159 -0.537278 0
M  V30 39 C 3.9192 -1.61665 -1.62472 0
M  V30 40 C 4.9192 -0.490395 -1.5314 0
M  V30 41 O 6.1092 -0.755998 -1.5694 0
M  V30 42 C 3.2412 -1.57997 -3.02076 0
M  V30 43 H 4.4342 -2.58621 -1.51839 0
M  V30 44 H 1.9872 -1.36647 -0.758771 0
M  V30 45 H 2.7222 -0.624913 -3.18222 0
M  V30 46 H 2.5072 -2.39755 -3.10258 0
M  V30 47 H 3.9972 -1.70627 -3.81151 0
M  V30 48 N 4.4343 0.785586 -1.36625 0
M  V30 49 C 5.3813 1.89838 -1.31264 0
M  V30 50 C 6.3513 1.65115 -0.180633 0
M  V30 51 O 7.5363 1.87222 -0.36777 0
M  V30 52 C 4.6763 3.26706 -1.11163 0
M  V30 53 C 3.7893 3.63476 -2.33472 0
M  V30 54 C 2.9243 4.89481 -2.06353 0
M  V30 55 C 1.9633 5.18941 -3.24602 0
M  V30 56 N 1.1003 6.36131 -2.97123 0
M  V30 57 H 5.9403 1.93756 -2.26413 0
M  V30 58 H 3.4773 0.947454 -1.12524 0
M  V30 59 H 5.4353 4.05639 -0.975337 0
M  V30 60 H 4.0653 3.222 -0.196674 0
M  V30 61 H 3.1173 2.79636 -2.57891 0
M  V30 62 H 4.4293 3.81193 -3.21704 0
M  V30 63 H 3.5833 5.76288 -1.89675 0
M  V30 64 H 2.3223 4.73841 -1.15437 0
M  V30 65 H 1.3273 4.30615 -3.41834 0
M  V30 66 H 2.5523 5.36498 -4.16349 0
M  V30 67 H 0.4983 6.21875 -2.08823 0
M  V30 68 H 0.4153 6.54198 -3.78894 0
M  V30 69 H 1.6833 7.2591 -2.84033 0
M  V30 70 N 5.9124 1.20967 1.01018 0
M  V30 71 C 7.1604 1.02172 1.74371 0
M  V30 72 C 7.4814 -0.446414 1.89821 0
M  V30 73 O 6.7514 -1.32234 1.44537 0
M  V30 74 H 5.3314 0.375066 0.646014 0
M  V30 75 H 7.9934 1.52187 1.21758 0
M  V30 76 H 7.0894 1.48538 2.74487 0
M  V30 77 N 7.3905 -1.2043 1.01659 0
M  V30 78 C 8.3205 -2.25466 0.607226 0
M  V30 79 C 9.3015 -1.65853 -0.377716 0
M  V30 80 O 10.4865 -1.92409 -0.263149 0
M  V30 81 C 7.6165 -3.47256 -0.0552949 0
M  V30 82 C 6.5705 -4.19462 0.850632 0
M  V30 83 C 5.8965 -5.34673 0.0538859 0
M  V30 84 C 7.1965 -4.75603 2.15868 0
M  V30 85 H 8.8905 -2.59962 1.48526 0
M  V30 86 H 6.4365 -1.2496 0.715605 0
M  V30 87 H 8.3895 -4.19917 -0.353233 0
M  V30 88 H 7.1135 -3.11924 -0.968045 0
M  V30 89 H 5.7725 -3.48667 1.13257 0
M  V30 90 H 5.4205 -4.95585 -0.860514 0
M  V30 91 H 5.1205 -5.83913 0.657192 0
M  V30 92 H 6.6445 -6.10138 -0.237598 0
M  V30 93 H 8.0585 -5.40083 1.92311 0
M  V30 94 H 6.4555 -5.3528 2.71284 0
M  V30 95 H 7.5255 -3.94346 2.82169 0
M  V30 96 N 8.8686 -0.792821 -1.36206 0
M  V30 97 C 10.2796 -0.429513 -1.81692 0
M  V30 98 C 10.6306 1.04695 -1.65932 0
M  V30 99 O 9.7556 1.81256 -1.18218 0
M  V30 100 C 10.3506 -0.772831 -3.29868 0
M  V30 101 C 8.9096 -0.462307 -3.7355 0
M  V30 102 C 8.0566 -1.00569 -2.5842 0
M  V30 103 H 11.0076 -0.985672 -1.24379 0
M  V30 104 H 11.0286 -0.0651928 -3.80444 0
M  V30 105 H 10.5406 -1.84747 -3.41307 0
M  V30 106 H 8.6416 0.604158 -3.67669 0
M  V30 107 H 8.7546 -0.985299 -4.68859 0
M  V30 108 H 7.1186 -0.428734 -2.51066 0
M  V30 109 H 7.9016 -2.08616 -2.72643 0
M  V30 110 N 10.3467 1.47872 -0.545128 0
M  V30 111 C 11.7577 1.86384 -0.108581 0
M  V30 112 C 12.1087 1.45309 1.31832 0
M  V30 113 O 11.2337 0.850641 1.9898 0
M  V30 114 C 11.8287 3.38265 -0.190274 0
M  V30 115 C 10.3877 3.75914 0.191164 0
M  V30 116 C 9.5347 2.71926 -0.543273 0
M  V30 117 H 12.4857 1.39561 -0.755537 0
M  V30 118 H 12.5067 3.75831 0.594217 0
M  V30 119 H 12.0187 3.6813 -1.2289 0
M  V30 120 H 10.1197 3.51665 1.23136 0
M  V30 121 H 10.2327 4.78836 -0.158987 0
M  V30 122 H 8.5967 2.54697 0.0122495 0
M  V30 123 H 9.3797 3.04634 -1.58282 0
M  V30 124 N 11.8248 0.280983 1.55075 0
M  V30 125 C 13.2408 -0.0729964 1.59433 0
M  V30 126 C 13.4408 -1.5411 1.29817 0
M  V30 127 O 12.4968 -2.29086 1.06187 0
M  V30 128 C 13.8098 0.306921 2.9913 0
M  V30 129 C 15.3578 0.254023 3.11968 0
M  V30 130 C 15.8328 0.608467 4.5394 0
M  V30 131 N 17.3238 0.560241 4.59799 0
M  V30 132 C 18.0588 0.80722 5.6769 0
M  V30 133 N 17.5548 1.11912 6.83701 0
M  V30 134 N 19.3478 0.735623 5.57266 0
M  V30 135 H 11.4988 1.238 1.7259 0
M  V30 136 H 13.7618 0.500547 0.805082 0
M  V30 137 H 13.4678 1.32816 3.25657 0
M  V30 138 H 13.3418 -0.349363 3.75579 0
M  V30 139 H 15.7288 -0.75794 2.852 0
M  V30 140 H 15.8098 0.944649 2.37718 0
M  V30 141 H 15.4538 1.61814 4.81434 0
M  V30 142 H 15.3838 -0.104013 5.26497 0
M  V30 143 H 17.8748 0.329288 3.76463 0
M  V30 144 H 18.1878 1.29409 7.61888 0
M  V30 145 H 16.5328 1.15695 6.85303 0
M  V30 146 H 19.7238 0.491752 4.6551 0
M  V30 147 H 19.8968 0.931482 6.4127 0
M  V30 148 N 13.3029 -1.57598 0.00835791 0
M  V30 149 C 14.5279 -1.95617 -0.689103 0
M  V30 150 C 14.9529 -0.883753 -1.66046 0
M  V30 151 O 14.3109 0.157352 -1.80616 0
M  V30 152 C 14.3589 -3.32736 -1.38994 0
M  V30 153 O 13.4629 -3.27631 -2.50463 0
M  V30 154 H 12.8039 -0.638379 -0.182668 0
M  V30 155 H 15.3339 -2.045 0.064036 0
M  V30 156 H 15.3439 -3.68494 -1.75147 0
M  V30 157 H 14.0189 -4.1034 -0.677778 0
M  V30 158 H 12.5959 -3.03561 -2.16576 0
M  V30 159 N 14.781 0.264519 -1.55364 0
M  V30 160 C 16.027 0.99646 -1.76631 0
M  V30 161 C 16.36 1.85632 -0.570478 0
M  V30 162 O 15.635 1.89647 0.43175 0
M  V30 163 C 15.918 1.87187 -3.07625 0
M  V30 164 C 15.771 1.04138 -4.37579 0
M  V30 165 C 17.09 2.85749 -3.34717 0
M  V30 166 H 14.209 0.360841 -0.642622 0
M  V30 167 H 16.851 0.268218 -1.88097 0
M  V30 168 H 15.001 2.49279 -2.9798 0
M  V30 169 H 16.673 0.440517 -4.59192 0
M  V30 170 H 14.916 0.345115 -4.32425 0
M  V30 171 H 15.587 1.68729 -5.2558 0
M  V30 172 H 18.063 2.33793 -3.4421 0
M  V30 173 H 16.939 3.44136 -4.27623 0
M  V30 174 H 17.2 3.61311 -2.54768 0
M  V30 175 N 16.2591 1.48442 0.529413 0
M  V30 176 C 17.1891 1.65902 1.64313 0
M  V30 177 C 18.1701 0.507897 1.6234 0
M  V30 178 O 19.3551 0.740503 1.79528 0
M  V30 179 C 16.4851 1.69911 3.02898 0
M  V30 180 C 15.4391 2.8453 3.19729 0
M  V30 181 C 14.7651 2.73629 4.59381 0
M  V30 182 C 16.0651 4.25821 3.02447 0
M  V30 183 H 17.7591 2.5914 1.49955 0
M  V30 184 H 15.3051 1.24709 0.719982 0
M  V30 185 H 17.2581 1.80715 3.80684 0
M  V30 186 H 15.9821 0.732524 3.18279 0
M  V30 187 H 14.6411 2.73283 2.44361 0
M  V30 188 H 14.2891 1.74938 4.71599 0
M  V30 189 H 13.9891 3.50541 4.71588 0
M  V30 190 H 15.5131 2.86401 5.39265 0
M  V30 191 H 16.9271 4.37898 3.70024 0
M  V30 192 H 15.3241 5.03735 3.26146 0
M  V30 193 H 16.3941 4.42244 1.98867 0
M  V30 194 N 17.7372 -0.778329 1.37039 0
M  V30 195 C 18.9832 -1.53892 1.32079 0
M  V30 196 C 19.3162 -1.9396 -0.0965386 0
M  V30 197 O 18.5912 -1.63568 -1.05242 0
M  V30 198 C 18.8742 -2.80847 2.25382 0
M  V30 199 C 18.7272 -2.47076 3.75864 0
M  V30 200 C 20.0462 -3.82741 2.1725 0
M  V30 201 H 17.1652 -0.558303 0.48111 0
M  V30 202 H 19.8072 -0.893397 1.67685 0
M  V30 203 H 17.9572 -3.35931 1.95148 0
M  V30 204 H 19.6292 -1.97957 4.16666 0
M  V30 205 H 17.8722 -1.79863 3.94755 0
M  V30 206 H 18.5432 -3.37798 4.36574 0
M  V30 207 H 21.0192 -3.37133 2.43887 0
M  V30 208 H 19.8952 -4.69303 2.84686 0
M  V30 209 H 20.1562 -4.2652 1.16331 0
M  V30 210 N 19.2153 -1.21501 -1.00376 0
M  V30 211 C 20.1623 -0.975387 -2.09177 0
M  V30 212 C 21.1323 0.0990615 -1.65804 0
M  V30 213 O 22.3173 -0.0483147 -1.90739 0
M  V30 214 C 19.4573 -0.547507 -3.40729 0
M  V30 215 C 18.5703 -1.69153 -3.97506 0
M  V30 216 C 17.7053 -1.2127 -5.17172 0
M  V30 217 C 16.7443 -2.32897 -5.66061 0
M  V30 218 N 15.8813 -1.86138 -6.76976 0
M  V30 219 H 20.7213 -1.9068 -2.29009 0
M  V30 220 H 18.2583 -0.950257 -1.12288 0
M  V30 221 H 20.2163 -0.280667 -4.16255 0
M  V30 222 H 18.8463 0.346904 -3.20931 0
M  V30 223 H 17.8983 -2.07298 -3.18954 0
M  V30 224 H 19.2103 -2.5316 -4.29781 0
M  V30 225 H 18.3643 -0.902591 -5.99948 0
M  V30 226 H 17.1033 -0.342692 -4.86495 0
M  V30 227 H 16.1083 -2.64709 -4.81881 0
M  V30 228 H 17.3333 -3.20396 -5.98768 0
M  V30 229 H 15.2793 -1.01484 -6.48103 0
M  V30 230 H 15.1963 -2.63717 -7.08512 0
M  V30 231 H 16.4643 -1.58165 -7.63285 0
M  V30 232 N 20.6934 1.19889 -1.02296 0
M  V30 233 C 21.9414 1.89046 -0.714558 0
M  V30 234 C 22.2624 1.79636 0.758681 0
M  V30 235 O 21.5324 1.20292 1.54618 0
M  V30 236 H 20.1124 0.699802 -0.261317 0
M  V30 237 H 22.7744 1.45574 -1.29592 0
M  V30 238 H 21.8704 2.95524 -1.0036 0
M  V30 239 N 22.1715 0.800033 1.35784 0
M  V30 240 C 23.4115 0.382891 2.00782 0
M  V30 241 C 23.7755 -1.02891 1.62103 0
M  V30 242 O 24.9765 -1.54771 2.19771 0
M  V30 243 C 23.2475 0.553299 3.53091 0
M  V30 244 S 24.8065 0.225608 4.3822 0
M  V30 245 H 21.6245 0.145737 0.695904 0
M  V30 246 H 24.2265 1.04085 1.65489 0
M  V30 247 H 22.9305 1.58091 3.78729 0
M  V30 248 H 22.4615 -0.120214 3.93216 0
M  V30 249 H 24.4765 -0.969074 4.86645 0
M  V30 250 N 23.6496 -1.47581 0.552962 0
M  V30 251 C 24.5816 -2.27997 -0.234533 0
M  V30 252 C 25.5946 -1.36753 -0.883321 0
M  V30 253 O 26.7836 -1.61612 -0.757889 0
M  V30 254 C 23.8836 -3.10879 -1.34935 0
M  V30 255 C 23.0566 -4.30056 -0.798158 0
M  V30 256 C 22.1156 -4.94567 -1.79694 0
M  V30 257 O 21.1416 -5.53087 -1.34474 0
M  V30 258 N 22.3436 -4.88878 -3.13015 0
M  V30 259 H 25.1086 -2.96222 0.455255 0
M  V30 260 H 22.6696 -1.57163 0.388761 0
M  V30 261 H 24.6616 -3.50903 -2.01616 0
M  V30 262 H 23.2316 -2.44924 -1.94244 0
M  V30 263 H 22.4516 -3.94174 0.0453079 0
M  V30 264 H 23.7396 -5.07152 -0.409173 0
M  V30 265 H 23.1376 -4.42526 -3.52402 0
M  V30 266 H 21.6946 -5.32934 -3.75266 0
M  V30 267 N 25.1277 -0.289203 -1.54924 0
M  V30 268 C 26.3557 0.326463 -2.04308 0
M  V30 269 C 26.7707 1.48413 -1.16701 0
M  V30 270 O 26.1277 1.81507 -0.190087 0
M  V30 271 C 26.1787 0.794014 -3.52672 0
M  V30 272 O 25.8997 -0.317564 -4.36948 0
M  V30 273 C 27.4007 1.47605 -4.18004 0
M  V30 274 H 24.6207 0.0726272 -0.667058 0
M  V30 275 H 27.1647 -0.425401 -2.00026 0
M  V30 276 H 25.3197 1.49593 -3.57352 0
M  V30 277 H 25.7337 0.0443186 -5.24481 0
M  V30 278 H 27.2077 1.75447 -5.23376 0
M  V30 279 H 27.6847 2.41224 -3.67025 0
M  V30 280 H 28.2907 0.81762 -4.17367 0
M  V30 281 N 26.6058 1.57591 -0.0167156 0
M  V30 282 C 27.8528 1.91283 0.664597 0
M  V30 283 C 28.1808 0.891949 1.72842 0
M  V30 284 O 27.4358 -0.100931 1.9544 0
M  V30 285 C 27.7348 3.3172 1.33029 0
M  V30 286 C 27.4008 4.4914 0.398047 0
M  V30 287 C 26.0628 4.80992 0.141421 0
M  V30 288 C 28.4148 5.20634 -0.242825 0
M  V30 289 C 25.7428 5.81703 -0.764092 0
M  V30 290 C 28.0948 6.22311 -1.13632 0
M  V30 291 C 26.7588 6.52611 -1.40196 0
M  V30 292 H 26.0288 0.699956 0.243193 0
M  V30 293 H 28.6758 1.9135 -0.0758267 0
M  V30 294 H 26.9808 3.27856 2.14517 0
M  V30 295 H 28.6778 3.55055 1.86379 0
M  V30 296 H 25.2678 4.24262 0.608238 0
M  V30 297 H 29.4518 4.96267 -0.0576019 0
M  V30 298 H 24.7078 6.03532 -0.977732 0
M  V30 299 H 28.8818 6.76834 -1.63917 0
M  V30 300 H 26.5088 7.30467 -2.10529 0
M  V30 301 N 28.0839 -0.256276 1.55502 0
M  V30 302 C 29.0139 -1.32102 1.92539 0
M  V30 303 C 29.9949 -1.50684 0.789194 0
M  V30 304 O 31.1799 -1.63449 1.04872 0
M  V30 305 C 28.3099 -2.67752 2.21192 0
M  V30 306 C 27.2639 -2.63878 3.36975 0
M  V30 307 C 26.5899 -4.03236 3.51147 0
M  V30 308 C 27.8899 -2.21682 4.72921 0
M  V30 309 H 29.5839 -1.01351 2.81724 0
M  V30 310 H 27.1299 -0.486105 1.35547 0
M  V30 311 H 29.0829 -3.42365 2.45691 0
M  V30 312 H 27.8069 -3.0012 1.28824 0
M  V30 313 H 26.4659 -1.91722 3.12471 0
M  V30 314 H 26.1139 -4.32854 2.56216 0
M  V30 315 H 25.8139 -4.01535 4.29003 0
M  V30 316 H 27.3379 -4.79563 3.77957 0
M  V30 317 H 28.7519 -2.86023 4.96854 0
M  V30 318 H 27.1489 -2.3111 5.53812 0
M  V30 319 H 28.2189 -1.16833 4.70615 0
M  V30 320 N 29.562 -1.4872 -0.521534 0
M  V30 321 C 30.787 -1.61101 -1.30618 0
M  V30 322 C 31.212 -0.274611 -1.86085 0
M  V30 323 O 30.57 0.754937 -1.64834 0
M  V30 324 C 30.618 -2.66709 -2.4269 0
M  V30 325 O 29.722 -2.24456 -3.45967 0
M  V30 326 H 29.063 -0.539921 -0.386499 0
M  V30 327 H 31.593 -1.94767 -0.626645 0
M  V30 328 H 31.603 -2.88245 -2.88754 0
M  V30 329 H 30.278 -3.63727 -2.01682 0
M  V30 330 H 28.855 -2.13168 -3.05964 0
M  V30 331 N 31.0401 0.771051 -1.3745 0
M  V30 332 C 32.0031 1.86598 -1.33093 0
M  V30 333 C 33.0031 1.59076 -0.234845 0
M  V30 334 O 34.1931 1.67145 -0.490732 0
M  V30 335 C 31.3251 3.23747 -1.06773 0
M  V30 336 H 32.5181 1.91873 -2.30488 0
M  V30 337 H 30.0711 0.970876 -1.2249 0
M  V30 338 H 30.8061 3.24148 -0.099129 0
M  V30 339 H 30.5911 3.45115 -1.86112 0
M  V30 340 H 32.0811 4.03824 -1.06377 0
M  V30 341 N 32.5182 1.22032 0.997298 0
M  V30 342 C 33.9292 1.0397 1.55071 0
M  V30 343 C 34.2802 -0.398192 1.92117 0
M  V30 344 O 33.4052 -1.28254 1.74298 0
M  V30 345 C 34.0002 1.88109 2.81781 0
M  V30 346 C 32.5592 1.74357 3.33581 0
M  V30 347 C 31.7062 1.84846 2.06706 0
M  V30 348 H 34.6572 1.35941 0.818883 0
M  V30 349 H 34.6782 1.39589 3.53971 0
M  V30 350 H 34.1902 2.92754 2.54787 0
M  V30 351 H 32.2912 0.72427 3.65493 0
M  V30 352 H 32.4042 2.56772 4.04481 0
M  V30 353 H 30.7682 1.28238 2.20062 0
M  V30 354 H 31.5512 2.91014 1.82114 0
M  V30 355 N 33.9963 -1.19345 1.0293 0
M  V30 356 C 35.4123 -1.41069 0.746446 0
M  V30 357 C 35.6123 -1.90078 -0.668776 0
M  V30 358 O 34.6683 -2.0778 -1.4347 0
M  V30 359 C 35.9813 -2.42141 1.78292 0
M  V30 360 C 37.5293 -2.55887 1.80252 0
M  V30 361 C 38.0043 -3.60214 2.8286 0
M  V30 362 N 39.4953 -3.67711 2.81679 0
M  V30 363 C 40.2303 -4.48128 3.57727 0
M  V30 364 N 39.7263 -5.32248 4.43491 0
M  V30 365 N 41.5193 -4.42782 3.46267 0
M  V30 366 H 33.6703 -0.858536 1.94275 0
M  V30 367 H 35.9333 -0.439541 0.839945 0
M  V30 368 H 35.6393 -2.13155 2.79746 0
M  V30 369 H 35.5133 -3.41323 1.60557 0
M  V30 370 H 37.9003 -2.84196 0.794757 0
M  V30 371 H 37.9813 -1.56858 2.02062 0
M  V30 372 H 37.6253 -3.32647 3.83807 0
M  V30 373 H 37.5553 -4.58895 2.58307 0
M  V30 374 H 40.0463 -3.07634 2.19476 0
M  V30 375 H 40.3593 -5.90729 4.98256 0
M  V30 376 H 38.7043 -5.31707 4.47564 0
M  V30 377 H 41.8953 -3.76107 2.78677 0
M  V30 378 H 42.0683 -5.05215 4.05785 0
M  V30 379 N 35.4744 -0.807222 -1.35358 0
M  V30 380 C 36.3844 -0.219594 -2.3357 0
M  V30 381 C 37.4004 0.637734 -1.61892 0
M  V30 382 O 38.5764 0.549336 -1.93763 0
M  V30 383 C 35.6414 0.62158 -3.41083 0
M  V30 384 C 34.7024 -0.256315 -4.28534 0
M  V30 385 C 33.9354 0.544807 -5.30912 0
M  V30 386 O 34.1584 1.77944 -5.41934 0
M  V30 387 O 33.0924 -0.0646478 -6.01865 0
M  V30 388 H 36.9184 -1.03208 -2.85625 0
M  V30 389 H 34.5034 -0.569025 -1.38139 0
M  V30 390 H 36.3854 1.10067 -4.06772 0
M  V30 391 H 35.0604 1.41165 -2.91297 0
M  V30 392 H 33.9674 -0.782559 -3.65823 0
M  V30 393 H 35.3004 -1.01034 -4.81719 0
M  V30 394 N 36.9525 1.47285 -0.560781 0
M  V30 395 C 38.2005 2.02064 -0.0379868 0
M  V30 396 C 38.5215 1.43711 1.31803 0
M  V30 397 O 37.7915 0.61362 1.86042 0
M  V30 398 H 36.3715 0.746918 -0.0110531 0
M  V30 399 H 39.0335 1.80648 -0.731598 0
M  V30 400 H 38.1295 3.12064 0.0474463 0
M  V30 401 N 38.4306 0.297415 1.54768 0
M  V30 402 C 39.3606 -0.573494 2.26348 0
M  V30 403 C 40.3416 -1.14085 1.26169 0
M  V30 404 O 41.5266 -1.17086 1.54934 0
M  V30 405 C 38.6566 -1.74716 3.00153 0
M  V30 406 C 37.6106 -1.31032 4.07449 0
M  V30 407 C 36.9366 -2.56887 4.68949 0
M  V30 408 C 38.2366 -0.444183 5.20408 0
M  V30 409 H 39.9306 0.0235131 2.99391 0
M  V30 410 H 37.4766 0.0127488 1.43994 0
M  V30 411 H 39.4296 -2.3625 3.48947 0
M  V30 412 H 38.1536 -2.37035 2.24682 0
M  V30 413 H 36.8126 -0.718066 3.59499 0
M  V30 414 H 36.4606 -3.17512 3.90122 0
M  V30 415 H 36.1606 -2.2836 5.41411 0
M  V30 416 H 37.6846 -3.19229 5.20505 0
M  V30 417 H 39.0986 -0.9651 5.65118 0
M  V30 418 H 37.4956 -0.252846 5.99567 0
M  V30 419 H 38.5656 0.531609 4.81977 0
M  V30 420 N 39.9087 -1.5758 0.0250728 0
M  V30 421 C 41.1567 -1.91255 -0.653151 0
M  V30 422 C 41.4777 -0.901691 -1.729 0
M  V30 423 O 40.7477 0.0573785 -1.95816 0
M  V30 424 H 39.3277 -0.705942 -0.244243 0
M  V30 425 H 41.9897 -1.94767 0.0719209 0
M  V30 426 H 41.0857 -2.91752 -1.10847 0
M  V30 427 N 41.3868 0.248026 -1.55636 0
M  V30 428 C 42.8028 0.596483 -1.48035 0
M  V30 429 C 43.0028 1.88386 -0.715039 0
M  V30 430 O 42.0588 2.51319 -0.243944 0
M  V30 431 C 43.3718 0.700258 -2.92433 0
M  V30 432 C 44.9198 0.792659 -3.02797 0
M  V30 433 C 45.3948 0.928005 -4.485 0
M  V30 434 N 46.8858 0.992903 -4.52433 0
M  V30 435 C 47.6208 1.11687 -5.62418 0
M  V30 436 N 47.1168 1.20645 -6.82214 0
M  V30 437 N 48.9098 1.14994 -5.50212 0
M  V30 438 H 41.0608 -0.597109 -2.03834 0
M  V30 439 H 43.3238 -0.205925 -0.925364 0
M  V30 440 H 43.0298 -0.175658 -3.51261 0
M  V30 441 H 42.9038 1.57255 -3.42857 0
M  V30 442 H 45.2908 1.65903 -2.4405 0
M  V30 443 H 45.3718 -0.104762 -2.55585 0
M  V30 444 H 45.0158 0.0661971 -5.07857 0
M  V30 445 H 44.9458 1.84045 -4.93391 0
M  V30 446 H 47.4368 0.935064 -3.66149 0
M  V30 447 H 47.7498 1.30008 -7.61786 0
M  V30 448 H 46.0948 1.17605 -6.84977 0
M  V30 449 H 49.2858 1.07643 -4.55555 0
M  V30 450 H 49.4588 1.24311 -6.35965 0
M  V30 451 N 42.8649 1.48995 0.513639 0
M  V30 452 C 43.7949 1.67636 1.62544 0
M  V30 453 C 44.7759 0.525087 1.61793 0
M  V30 454 O 45.9609 0.759502 1.78732 0
M  V30 455 C 43.0909 1.73114 3.01079 0
M  V30 456 C 42.0449 2.87905 3.16693 0
M  V30 457 C 41.3709 2.78486 4.56453 0
M  V30 458 C 42.6709 4.29005 2.97913 0
M  V30 459 H 44.3649 2.60716 1.47198 0
M  V30 460 H 41.9109 1.25465 0.706714 0
M  V30 461 H 43.8639 1.84742 3.78746 0
M  V30 462 H 42.5879 0.766241 3.17484 0
M  V30 463 H 41.2469 2.75859 2.41448 0
M  V30 464 H 40.8949 1.7993 4.69717 0
M  V30 465 H 40.5949 3.55523 4.67843 0
M  V30 466 H 42.1189 2.92104 5.36197 0
M  V30 467 H 43.5329 4.41798 3.65359 0
M  V30 468 H 41.9299 5.07166 3.20785 0
M  V30 469 H 42.9999 4.44329 1.94165 0
M  V30 470 N 44.343 -0.763751 1.37857 0
M  V30 471 C 45.759 -1.06542 1.18832 0
M  V30 472 C 45.959 -2.01478 0.0299722 0
M  V30 473 O 45.015 -2.4458 -0.627447 0
M  V30 474 C 46.328 -1.65525 2.51042 0
M  V30 475 C 47.876 -1.77745 2.57635 0
M  V30 476 C 48.351 -2.4014 3.89996 0
M  V30 477 N 49.842 -2.47582 3.91481 0
M  V30 478 C 50.577 -2.96732 4.9065 0
M  V30 479 N 50.073 -3.45993 6.00217 0
M  V30 480 N 51.866 -2.95679 4.78048 0
M  V30 481 H 44.017 -0.133556 2.1198 0
M  V30 482 H 46.28 -0.121879 0.940133 0
M  V30 483 H 45.986 -1.03236 3.36207 0
M  V30 484 H 45.86 -2.64719 2.68707 0
M  V30 485 H 48.247 -2.39164 1.72872 0
M  V30 486 H 48.328 -0.772836 2.43846 0
M  V30 487 H 47.972 -1.79358 4.75177 0
M  V30 488 H 47.902 -3.41223 4.01092 0
M  V30 489 H 50.393 -2.1273 3.12337 0
M  V30 490 H 50.706 -3.81922 6.7183 0
M  V30 491 H 49.051 -3.44077 6.03851 0
M  V30 492 H 52.242 -2.56499 3.91568 0
M  V30 493 H 52.415 -3.33672 5.55488 0
M  V30 494 N 45.8211 -1.22559 -0.990812 0
M  V30 495 C 47.0671 -1.05297 -1.73322 0
M  V30 496 C 47.4001 0.410655 -1.89808 0
M  V30 497 O 46.6751 1.30439 -1.44277 0
M  V30 498 C 46.9581 -1.76713 -3.13759 0
M  V30 499 C 46.8111 -3.30684 -3.04907 0
M  V30 500 C 48.1301 -1.52121 -4.12974 0
M  V30 501 H 45.2491 -0.38392 -0.629106 0
M  V30 502 H 47.8911 -1.50926 -1.15418 0
M  V30 503 H 46.0411 -1.37924 -3.63193 0
M  V30 504 H 47.7131 -3.7893 -2.63077 0
M  V30 505 H 45.9561 -3.60253 -2.41661 0
M  V30 506 H 46.6271 -3.75833 -4.04294 0
M  V30 507 H 49.1031 -1.85819 -3.72304 0
M  V30 508 H 47.9791 -2.04582 -5.0935 0
M  V30 509 H 48.2401 -0.454257 -4.3976 0
M  V30 510 N 47.2992 1.18797 -1.03562 0
M  V30 511 C 48.7102 1.70322 -0.764676 0
M  V30 512 C 49.0612 1.82708 0.714996 0
M  V30 513 O 48.1862 1.50299 1.55689 0
M  V30 514 C 48.7812 3.09356 -1.38145 0
M  V30 515 C 47.3402 3.58114 -1.15895 0
M  V30 516 C 46.4872 2.34798 -1.4753 0
M  V30 517 H 49.4382 1.03543 -1.20268 0
M  V30 518 H 49.4592 3.72378 -0.781977 0
M  V30 519 H 48.9712 3.00309 -2.45837 0
M  V30 520 H 47.0722 3.72464 -0.100544 0
M  V30 521 H 47.1852 4.4184 -1.8524 0
M  V30 522 H 45.5492 2.38464 -0.894829 0
M  V30 523 H 46.3322 2.28375 -2.56319 0
M  V30 524 N 48.7773 0.814389 1.34928 0
M  V30 525 C 50.0053 0.411136 2.02774 0
M  V30 526 C 50.4203 -0.980316 1.61354 0
M  V30 527 O 49.7773 -1.63299 0.814847 0
M  V30 528 C 49.8283 0.493865 3.58111 0
M  V30 529 O 49.5493 1.83047 3.98027 0
M  V30 530 C 51.0503 0.0844174 4.4322 0
M  V30 531 H 48.2703 0.166037 0.650133 0
M  V30 532 H 50.8143 1.10018 1.72384 0
M  V30 533 H 48.9693 -0.147006 3.87121 0
M  V30 534 H 49.3833 1.79872 4.92693 0
M  V30 535 H 50.8573 0.193404 5.51661 0
M  V30 536 H 51.3343 -0.97113 4.28329 0
M  V30 537 H 51.9403 0.69875 4.19521 0
M  V30 538 N 50.2554 -1.46986 0.568584 0
M  V30 539 C 51.5034 -2.02041 0.0487022 0
M  V30 540 C 51.8244 -1.44408 -1.31039 0
M  V30 541 O 51.0944 -0.623477 -1.85714 0
M  V30 542 H 49.6744 -0.746849 0.015014 0
M  V30 543 H 52.3364 -1.80257 0.741168 0
M  V30 544 H 51.4324 -3.12085 -0.0308961 0
M  V30 545 N 51.7335 -0.305618 -1.54608 0
M  V30 546 C 52.6435 0.57778 -2.27374 0
M  V30 547 C 53.6595 1.14451 -1.31061 0
M  V30 548 O 54.8355 1.16831 -1.6405 0
M  V30 549 C 51.9005 1.73123 -3.00382 0
M  V30 550 C 50.9615 1.19812 -4.12242 0
M  V30 551 C 50.1945 2.2966 -4.81759 0
M  V30 552 O 50.4175 3.49651 -4.50666 0
M  V30 553 O 49.3515 1.96091 -5.69062 0
M  V30 554 H 53.1775 -0.012624 -3.03697 0
M  V30 555 H 50.7625 -0.0719184 -1.49227 0
M  V30 556 H 52.6445 2.40315 -3.4616 0
M  V30 557 H 51.3195 2.30815 -2.26949 0
M  V30 558 H 50.2265 0.491798 -3.70853 0
M  V30 559 H 51.5595 0.666566 -4.87666 0
M  V30 560 N 53.2116 1.57565 -0.0334293 0
M  V30 561 C 54.4596 1.91598 0.642999 0
M  V30 562 C 54.7806 0.910847 1.7242 0
M  V30 563 O 54.0506 -0.0469931 1.95844 0
M  V30 564 H 52.6306 0.707228 0.240496 0
M  V30 565 H 55.2926 1.94726 -0.0822488 0
M  V30 566 H 54.3886 2.92336 1.09298 0
M  V30 567 N 54.6897 -0.239769 1.55765 0
M  V30 568 C 55.6527 -1.28038 1.90103 0
M  V30 569 C 56.6527 -1.40723 0.778055 0
M  V30 570 O 57.8427 -1.39301 1.04599 0
M  V30 571 C 54.9747 -2.65702 2.13577 0
M  V30 572 H 56.1677 -0.988048 2.83157 0
M  V30 573 H 53.7207 -0.479382 1.48767 0
M  V30 574 H 54.4557 -3.00063 1.23015 0
M  V30 575 H 54.2407 -2.57875 2.95369 0
M  V30 576 H 55.7307 -3.40828 2.41301 0
M  V30 577 N 56.1678 -1.49265 -0.50573 0
M  V30 578 C 57.4158 -1.582 -1.25766 0
M  V30 579 C 57.7368 -0.268482 -1.93143 0
M  V30 580 O 57.0068 0.711833 -1.8251 0
M  V30 581 H 55.5868 -0.582873 -0.467191 0
M  V30 582 H 58.2488 -1.85865 -0.586525 0
M  V30 583 H 57.3448 -2.37563 -2.02412 0
M  V30 584 N 57.6459 0.756429 -1.3826 0
M  V30 585 C 58.8949 1.51082 -1.3363 0
M  V30 586 C 59.2079 1.95467 0.0720068 0
M  V30 587 O 60.4139 2.7043 0.240834 0
M  V30 588 C 58.8699 2.72893 -2.34644 0
M  V30 589 C 58.4779 2.35544 -3.81081 0
M  V30 590 C 60.2219 3.50791 -2.39052 0
M  V30 591 C 58.1289 3.53948 -4.73787 0
M  V30 592 H 57.0589 0.56727 -0.49671 0
M  V30 593 H 59.7099 0.827147 -1.638 0
M  V30 594 H 58.0919 3.43227 -1.97513 0
M  V30 595 H 59.2659 1.72894 -4.27135 0
M  V30 596 H 57.5809 1.70786 -3.79764 0
M  V30 597 H 60.1779 4.38823 -3.05513 0
M  V30 598 H 60.5209 3.91745 -1.40861 0
M  V30 599 H 61.0539 2.87467 -2.74968 0
M  V30 600 H 57.7929 3.18064 -5.73163 0
M  V30 601 H 57.3129 4.15651 -4.32428 0
M  V30 602 H 58.9919 4.20566 -4.91663 0
M  V30 603 N 59.124 1.23083 0.984299 0
M  V30 604 C 60.349 1.088 1.76571 0
M  V30 605 C 60.774 -0.356657 1.84688 0
M  V30 606 O 60.132 -1.25788 1.30565 0
M  V30 607 C 60.18 1.71371 3.17277 0
M  V30 608 O 59.284 0.973213 4.00752 0
M  V30 609 H 58.625 0.381599 0.543395 0
M  V30 610 H 61.155 1.63057 1.23587 0
M  V30 611 H 61.165 1.76449 3.67872 0
M  V30 612 H 59.84 2.76493 3.10684 0
M  V30 613 H 58.417 0.999078 3.59267 0
M  V30 614 N 60.6021 -1.18246 1.0419 0
M  V30 615 C 61.8301 -1.92195 0.766072 0
M  V30 616 C 62.2451 -1.76247 -0.676933 0
M  V30 617 O 61.6021 -1.09293 -1.46155 0
M  V30 618 C 61.6531 -3.43568 1.12442 0
M  V30 619 O 61.3741 -3.59015 2.51078 0
M  V30 620 C 62.8751 -4.34613 0.873275 0
M  V30 621 H 60.0951 -0.610114 0.279288 0
M  V30 622 H 62.6391 -1.50007 1.38989 0
M  V30 623 H 60.7941 -3.8354 0.545542 0
M  V30 624 H 61.2081 -4.5273 2.64831 0
M  V30 625 H 62.6821 -5.39374 1.17385 0
M  V30 626 H 63.1591 -4.38781 -0.191909 0
M  V30 627 H 63.7651 -4.00341 1.43551 0
M  V30 628 N 62.0802 -0.821533 -1.34494 0
M  V30 629 C 63.4962 -0.507117 -1.51329 0
M  V30 630 C 63.6962 0.968964 -1.76673 0
M  V30 631 O 62.7522 1.75348 -1.81685 0
M  V30 632 C 64.0652 -1.36544 -2.67911 0
M  V30 633 C 65.6132 -1.36242 -2.81793 0
M  V30 634 C 66.0882 -2.2052 -4.01416 0
M  V30 635 N 67.5792 -2.18136 -4.08621 0
M  V30 636 C 68.3142 -2.80095 -5.00334 0
M  V30 637 N 67.8102 -3.51039 -5.9728 0
M  V30 638 N 69.6032 -2.69656 -4.93196 0
M  V30 639 H 61.7542 -1.77729 -1.16302 0
M  V30 640 H 64.0172 -0.757291 -0.570276 0
M  V30 641 H 63.7232 -2.41361 -2.55808 0
M  V30 642 H 63.5972 -1.02917 -3.62888 0
M  V30 643 H 65.9842 -0.322041 -2.93338 0
M  V30 644 H 66.0652 -1.73866 -1.87628 0
M  V30 645 H 65.7092 -3.24607 -3.90631 0
M  V30 646 H 65.6392 -1.80247 -4.94791 0
M  V30 647 H 68.1302 -1.6653 -3.39229 0
M  V30 648 H 68.4432 -3.95565 -6.63889 0
M  V30 649 H 66.7882 -3.55145 -5.97409 0
M  V30 650 H 69.9792 -2.13808 -4.16418 0
M  V30 651 H 70.1522 -3.1823 -5.64476 0
M  V30 652 N 63.5583 1.46682 -0.576371 0
M  V30 653 C 64.7833 2.07304 -0.0630475 0
M  V30 654 C 65.2083 1.42329 1.2298 0
M  V30 655 O 64.5663 0.504865 1.74129 0
M  V30 656 C 64.6143 3.60472 0.095895 0
M  V30 657 O 63.7183 3.95927 1.15394 0
M  V30 658 H 63.0593 0.661288 -0.0599463 0
M  V30 659 H 65.5893 1.88417 -0.797511 0
M  V30 660 H 65.5993 4.06865 0.304071 0
M  V30 661 H 64.2743 4.07157 -0.84828 0
M  V30 662 H 62.8513 3.61252 0.924724 0
M  V30 663 N 65.0364 0.313813 1.54444 0
M  V30 664 C 66.4474 -0.176243 1.85866 0
M  V30 665 C 66.7984 -1.52405 1.23561 0
M  V30 666 O 65.9234 -2.09605 0.538016 0
M  V30 667 C 66.5184 -0.32657 3.37222 0
M  V30 668 C 65.0774 -0.760846 3.6863 0
M  V30 669 C 64.2244 0.123247 2.77026 0
M  V30 670 H 67.1754 0.534418 1.49431 0
M  V30 671 H 67.1964 -1.15908 3.62416 0
M  V30 672 H 66.7084 0.654531 3.82541 0
M  V30 673 H 64.8094 -1.75204 3.28838 0
M  V30 674 H 64.9224 -0.571353 4.75681 0
M  V30 675 H 63.2864 -0.399597 2.51546 0
M  V30 676 H 64.0694 1.10094 3.25168 0
M  V30 677 N 66.5145 -1.57545 0.0417849 0
M  V30 678 C 67.9305 -1.56467 -0.314704 0
M  V30 679 C 68.1305 -1.04859 -1.72066 0
M  V30 680 O 67.1865 -0.700983 -2.42575 0
M  V30 681 C 68.4995 -3.00317 -0.15174 0
M  V30 682 C 70.0475 -3.12201 -0.223553 0
M  V30 683 C 70.5225 -4.57913 -0.0892295 0
M  V30 684 N 72.0135 -4.6297 -0.145808 0
M  V30 685 C 72.7485 -5.73362 -0.0658459 0
M  V30 686 N 72.2445 -6.92769 0.0659282 0
M  V30 687 N 74.0375 -5.6197 -0.12075 0
M  V30 688 H 66.1885 -1.89416 0.961014 0
M  V30 689 H 68.4515 -0.871862 0.372237 0
M  V30 690 H 68.1575 -3.42073 0.817254 0
M  V30 691 H 68.0315 -3.65892 -0.916692 0
M  V30 692 H 70.4185 -2.70349 -1.18301 0
M  V30 693 H 70.4995 -2.49323 0.571994 0
M  V30 694 H 70.1435 -5.00448 0.866867 0
M  V30 695 H 70.0735 -5.18786 -0.903802 0
M  V30 696 H 72.5645 -3.7709 -0.247286 0
M  V30 697 H 72.8775 -7.72707 0.119905 0
M  V30 698 H 71.2225 -6.94927 0.100885 0
M  V30 699 H 74.4135 -4.67572 -0.222187 0
M  V30 700 H 74.5865 -6.47977 -0.0549735 0
M  V30 701 N 67.9926 0.231505 -1.5589 0
M  V30 702 C 69.4036 0.799327 -1.68724 0
M  V30 703 C 69.7546 1.85398 -0.642022 0
M  V30 704 O 68.8796 2.1539 0.208784 0
M  V30 705 C 69.4746 1.45664 -3.05888 0
M  V30 706 C 68.0336 1.97197 -3.20609 0
M  V30 707 C 67.1806 0.828552 -2.64632 0
M  V30 708 H 70.1316 0.00702616 -1.58698 0
M  V30 709 H 70.1526 2.32517 -3.01191 0
M  V30 710 H 69.6646 0.688808 -3.81939 0
M  V30 711 H 67.7656 2.76813 -2.4941 0
M  V30 712 H 67.8786 2.15878 -4.27707 0
M  V30 713 H 66.2426 1.23321 -2.22854 0
M  V30 714 H 67.0256 0.0735544 -3.43221 0
M  V30 715 N 69.4707 1.49531 0.497807 0
M  V30 716 C 70.7177 1.59179 1.25173 0
M  V30 717 C 71.0457 0.279932 1.92475 0
M  V30 718 O 70.3007 -0.732383 1.81479 0
M  V30 719 C 70.5997 2.70252 2.33878 0
M  V30 720 C 70.2657 4.11644 1.84012 0
M  V30 721 C 68.9277 4.50121 1.70132 0
M  V30 722 C 71.2797 5.00121 1.46725 0
M  V30 723 C 68.6077 5.74845 1.17348 0
M  V30 724 C 70.9597 6.25366 0.95392 0
M  V30 725 C 69.6237 6.6267 0.801538 0
M  V30 726 H 68.8937 0.582478 0.45804 0
M  V30 727 H 71.5407 1.83373 0.551948 0
M  V30 728 H 69.8457 2.40041 3.09657 0
M  V30 729 H 71.5427 2.74925 2.9192 0
M  V30 730 H 68.1327 3.81274 1.95775 0
M  V30 731 H 72.3167 4.71048 1.56294 0
M  V30 732 H 67.5727 6.02444 1.04264 0
M  V30 733 H 71.7467 6.93301 0.656225 0
M  V30 734 H 69.3737 7.59197 0.390351 0
M  V30 735 N 70.9488 -0.749086 1.3866 0
M  V30 736 C 71.8968 -1.88428 1.36373 0
M  V30 737 C 72.8908 -1.67561 0.248929 0
M  V30 738 O 74.0968 -1.75074 0.41821 0
M  V30 739 H 70.4718 -0.620023 0.42553 0
M  V30 740 H 72.4428 -1.87473 2.32156 0
M  V30 741 C 71.1918 -3.25961 1.21014 0
M  V30 742 H 70.5148 -3.42607 2.06059 0
M  V30 743 H 71.9548 -4.05625 1.23469 0
M  V30 744 C 70.4138 -3.36799 -0.0825941 0
M  V30 745 O 70.9438 -3.87517 -1.05797 0
M  V30 746 N 69.1498 -2.90258 -0.140939 0
M  V30 747 H 68.6968 -2.49174 0.653477 0
M  V30 748 H 68.6548 -2.97889 -1.00545 0
M  V30 749 N 72.4269 -1.23603 -0.977757 0
M  V30 750 C 73.3369 -1.03632 -2.1047 0
M  V30 751 C 74.3529 0.0199435 -1.73989 0
M  V30 752 O 75.5289 -0.176076 -2.00629 0
M  V30 753 C 72.5939 -0.63276 -3.40877 0
M  V30 754 C 71.6549 -1.76437 -3.91367 0
M  V30 755 C 70.8879 -1.37997 -5.15551 0
M  V30 756 O 71.1109 -0.265357 -5.69782 0
M  V30 757 O 70.0449 -2.20201 -5.60174 0
M  V30 758 H 73.8709 -1.98086 -2.30208 0
M  V30 759 H 71.4559 -1.02332 -1.08851 0
M  V30 760 H 73.3379 -0.418761 -4.19314 0
M  V30 761 H 72.0129 0.282754 -3.22463 0
M  V30 762 H 70.9199 -2.03304 -3.14036 0
M  V30 763 H 72.2529 -2.6583 -4.14241 0
M  V30 764 N 73.905 1.17692 -1.04816 0
M  V30 765 C 75.154 1.87192 -0.751132 0
M  V30 766 C 75.467 1.8169 0.724441 0
M  V30 767 O 76.673 2.46625 1.13527 0
M  V30 768 C 75.129 3.35857 -1.29338 0
M  V30 769 C 74.737 3.4987 -2.79812 0
M  V30 770 C 76.481 4.10709 -1.07322 0
M  V30 771 C 74.388 4.92536 -3.27356 0
M  V30 772 H 73.318 0.701162 -0.277288 0
M  V30 773 H 75.969 1.32932 -1.26496 0
M  V30 774 H 74.351 3.89631 -0.707376 0
M  V30 775 H 75.525 3.06332 -3.44235 0
M  V30 776 H 73.84 2.88433 -3.00325 0
M  V30 777 H 76.437 5.15952 -1.4035 0
M  V30 778 H 76.78 4.16299 -0.0108001 0
M  V30 779 H 77.313 3.6313 -1.62423 0
M  V30 780 H 74.052 4.92119 -4.33012 0
M  V30 781 H 73.572 5.3676 -2.67673 0
M  V30 782 H 75.251 5.61288 -3.21815 0
M  V30 783 N 75.3831 0.828654 1.34056 0
M  V30 784 C 76.7941 0.477534 1.8049 0
M  V30 785 C 77.1451 -1.00258 1.6865 0
M  V30 786 O 76.2701 -1.78057 1.22982 0
M  V30 787 C 76.8651 0.860018 3.27703 0
M  V30 788 C 75.4241 0.561185 3.72193 0
M  V30 789 C 74.5711 1.07385 2.55663 0
M  V30 790 H 77.5221 1.0183 1.21722 0
M  V30 791 H 77.5431 0.166038 3.80138 0
M  V30 792 H 77.0551 1.93731 3.36288 0
M  V30 793 H 75.1561 -0.506465 3.69142 0
M  V30 794 H 75.2691 1.10926 4.66082 0
M  V30 795 H 73.6331 0.495149 2.49841 0
M  V30 796 H 74.4161 2.15771 2.67016 0
M  V30 797 N 76.8612 -1.46375 0.584142 0
M  V30 798 C 78.0862 -2.07268 0.0740405 0
M  V30 799 C 78.5112 -1.42979 -1.22223 0
M  V30 800 O 77.8692 -0.514092 -1.73859 0
M  V30 801 C 77.9172 -3.60518 -0.0767769 0
M  V30 802 O 77.0212 -3.96533 -1.13292 0
M  V30 803 H 76.3622 -0.660961 0.0634524 0
M  V30 804 H 78.8922 -1.87991 0.807492 0
M  V30 805 H 78.9022 -4.07021 -0.282489 0
M  V30 806 H 77.5772 -4.06702 0.86986 0
M  V30 807 H 76.1542 -3.61738 -0.905553 0
M  V30 808 N 78.3393 -0.321999 -1.54275 0
M  V30 809 C 79.7503 0.166384 -1.85957 0
M  V30 810 C 80.1013 1.51747 -1.24367 0
M  V30 811 O 79.2263 2.09317 -0.549124 0
M  V30 812 C 79.8213 0.308681 -3.37391 0
M  V30 813 C 78.3803 0.741286 -3.69028 0
M  V30 814 C 77.5273 -0.137937 -2.76957 0
M  V30 815 H 80.4783 -0.542335 -1.49146 0
M  V30 816 H 80.4993 1.13984 -3.63026 0
M  V30 817 H 80.0113 -0.674809 -3.82188 0
M  V30 818 H 78.1123 1.73458 -3.29762 0
M  V30 819 H 78.2253 0.546118 -4.75977 0
M  V30 820 H 76.5893 0.386251 -2.51754 0
M  V30 821 H 77.3723 -1.11816 -3.2458 0
M  V30 822 N 79.8174 1.5752 -0.0501392 0
M  V30 823 C 81.0654 1.9227 0.622642 0
M  V30 824 C 81.3864 0.929083 1.71444 0
M  V30 825 O 80.6564 -0.0262186 1.95882 0
M  V30 826 H 79.2364 0.709739 0.232981 0
M  V30 827 H 81.8984 1.94628 -0.102898 0
M  V30 828 H 80.9944 2.93479 1.06191 0
M  V30 829 N 81.2955 -0.223234 1.56011 0
M  V30 830 C 82.5725 -0.972108 1.69733 0
M  V30 831 C 82.9525 -2.02485 0.59691 0
M  V30 832 O 82.3005 -2.25037 -0.396324 0
M  V30 833 C 82.5105 -1.58407 3.10979 0
M  V30 834 C 83.8585 -2.07696 3.70334 0
M  V30 835 O 84.8825 -1.68304 3.1393 0
M  V30 836 O 83.7415 -2.80096 4.69264 0
M  V30 837 H 80.8355 -0.453993 0.691245 0
M  V30 838 H 83.3815 -0.215149 1.68331 0
M  V30 839 H 82.1535 -0.823831 3.82529 0
M  V30 840 H 81.7765 -2.40661 3.16493 0
M  V30 841 N 82.7736 -1.49793 -0.48987 0
M  V30 842 C 83.7216 -1.67783 -1.61095 0
M  V30 843 C 84.7156 -0.543683 -1.60438 0
M  V30 844 O 85.9216 -0.723647 -1.64813 0
M  V30 845 H 82.2966 -0.529255 -0.534222 0
M  V30 846 H 84.2676 -2.61861 -1.43078 0
M  V30 847 C 83.0166 -1.77191 -2.99164 0
M  V30 848 H 82.3396 -2.63841 -3.0038 0
M  V30 849 H 83.7796 -1.93809 -3.77113 0
M  V30 850 C 82.2386 -0.519203 -3.32875 0
M  V30 851 O 82.7686 0.350124 -4.00171 0
M  V30 852 N 80.9746 -0.378816 -2.8812 0
M  V30 853 H 80.5216 -1.08725 -2.33531 0
M  V30 854 H 80.4796 0.458239 -3.11043 0
M  V30 855 N 84.2517 0.741722 -1.39055 0
M  V30 856 C 85.4997 1.49818 -1.35643 0
M  V30 857 C 85.8207 1.94938 0.0491642 0
M  V30 858 O 85.0907 1.68505 0.999141 0
M  V30 859 H 83.6707 0.555755 -0.499144 0
M  V30 860 H 86.3327 0.880957 -1.73854 0
M  V30 861 H 85.4287 2.38348 -2.01486 0
M  V30 862 N 85.7298 1.2412 0.971189 0
M  V30 863 C 86.9758 1.09048 1.71698 0
M  V30 864 C 87.3308 -0.367442 1.88859 0
M  V30 865 O 86.6238 -1.26792 1.43646 0
M  V30 866 C 86.8178 1.75983 3.11071 0
M  V30 867 C 86.6468 3.28133 3.07504 0
M  V30 868 C 85.4168 3.97331 3.1218 0
M  V30 869 C 87.6148 4.24773 2.89952 0
M  V30 870 N 85.5968 5.3639 2.98596 0
M  V30 871 C 86.9678 5.50806 2.84627 0
M  V30 872 C 89.0228 4.15392 2.74506 0
M  V30 873 C 87.7258 6.68533 2.65437 0
M  V30 874 C 89.7518 5.32793 2.56682 0
M  V30 875 C 89.1138 6.57756 2.52063 0
M  V30 876 H 85.2128 0.453632 0.636979 0
M  V30 877 H 87.7968 1.56983 1.15171 0
M  V30 878 H 85.9678 1.30566 3.65796 0
M  V30 879 H 87.6998 1.53803 3.74335 0
M  V30 880 H 84.4548 3.48473 3.20724 0
M  V30 881 H 84.8788 6.09321 2.95054 0
M  V30 882 H 89.5208 3.19543 2.76861 0
M  V30 883 H 87.2388 7.64509 2.61825 0
M  V30 884 H 90.8248 5.27383 2.4568 0
M  V30 885 H 89.7048 7.4707 2.38446 0
M  V30 886 N 87.2079 -1.17134 1.05439 0
M  V30 887 C 88.1379 -2.2342 0.678649 0
M  V30 888 C 89.1189 -1.66971 -0.32476 0
M  V30 889 O 90.3039 -1.93149 -0.201802 0
M  V30 890 C 87.4339 -3.47256 0.0552099 0
M  V30 891 C 86.3879 -4.16543 0.98365 0
M  V30 892 C 85.7139 -5.34231 0.223961 0
M  V30 893 C 87.0139 -4.68495 2.3089 0
M  V30 894 H 88.7079 -2.55105 1.56722 0
M  V30 895 H 86.2539 -1.2262 0.754998 0
M  V30 896 H 88.2069 -4.20828 -0.21946 0
M  V30 897 H 86.9309 -3.14846 -0.868319 0
M  V30 898 H 85.5899 -3.44887 1.24293 0
M  V30 899 H 85.2379 -4.98071 -0.702412 0
M  V30 900 H 84.9379 -5.81527 0.842627 0
M  V30 901 H 86.4619 -6.10585 -0.0433671 0
M  V30 902 H 87.8759 -5.33691 2.09396 0
M  V30 903 H 86.2729 -5.26379 2.88176 0
M  V30 904 H 87.3429 -3.85169 2.94572 0
M  V30 905 N 88.686 -0.835752 -1.33615 0
M  V30 906 C 89.634 -0.255238 -2.31195 0
M  V30 907 C 90.628 0.61107 -1.57995 0
M  V30 908 O 91.834 0.500979 -1.72888 0
M  V30 909 H 88.209 -0.0638085 -0.749288 0
M  V30 910 H 90.18 -1.09283 -2.77669 0
M  V30 911 C 88.929 0.55754 -3.43201 0
M  V30 912 H 88.252 -0.0997553 -3.99676 0
M  V30 913 H 89.692 0.929622 -4.13683 0
M  V30 914 C 88.151 1.73515 -2.88781 0
M  V30 915 O 88.681 2.83376 -2.84712 0
M  V30 916 N 86.887 1.55603 -2.4543 0
M  V30 917 H 86.434 0.662354 -2.48939 0
M  V30 918 H 86.392 2.34545 -2.09371 0
M  V30 919 N 90.1641 1.46063 -0.591896 0
M  V30 920 C 91.0941 2.33172 0.123673 0
M  V30 921 C 92.0751 1.45897 0.87453 0
M  V30 922 O 93.2601 1.74698 0.848181 0
M  V30 923 C 90.3901 3.28336 1.13194 0
M  V30 924 C 89.3441 4.25124 0.495324 0
M  V30 925 C 88.6701 5.09863 1.61071 0
M  V30 926 C 89.9701 5.19143 -0.573425 0
M  V30 927 H 91.6641 2.93252 -0.603646 0
M  V30 928 H 89.2101 1.41014 -0.291741 0
M  V30 929 H 91.1631 3.88137 1.64097 0
M  V30 930 H 89.8871 2.66383 1.88965 0
M  V30 931 H 88.5461 3.66599 0.00729452 0
M  V30 932 H 88.1941 4.44288 2.35832 0
M  V30 933 H 87.8941 5.75417 1.19035 0
M  V30 934 H 89.4181 5.72529 2.12233 0
M  V30 935 H 90.8321 5.73106 -0.1491 0
M  V30 936 H 89.2291 5.93089 -0.914636 0
M  V30 937 H 90.2991 4.62519 -1.45617 0
M  V30 938 N 91.6422 0.330177 1.54103 0
M  V30 939 C 92.8722 -0.271784 2.04805 0
M  V30 940 C 93.2802 -1.45816 1.20559 0
M  V30 941 O 92.6232 -1.82247 0.2306 0
M  V30 942 C 92.6852 -0.763238 3.51305 0
M  V30 943 C 92.3492 0.301705 4.56003 0
M  V30 944 C 93.3462 1.13999 5.07248 0
M  V30 945 C 91.0312 0.451793 5.00264 0
M  V30 946 C 93.0252 2.11402 6.01322 0
M  V30 947 C 90.7122 1.42924 5.94151 0
M  V30 948 C 91.7102 2.25882 6.44567 0
M  V30 949 O 91.3982 3.21965 7.3661 0
M  V30 950 H 91.1302 -0.058693 0.673447 0
M  V30 951 H 93.6842 0.476395 1.99799 0
M  V30 952 H 91.9142 -1.56244 3.5373 0
M  V30 953 H 93.6032 -1.28427 3.85047 0
M  V30 954 H 94.3692 1.03505 4.73827 0
M  V30 955 H 90.2482 -0.184044 4.60632 0
M  V30 956 H 93.7922 2.76192 6.40596 0
M  V30 957 H 89.6892 1.53479 6.26988 0
M  V30 958 H 90.4572 3.17281 7.54503 0
M  V30 959 N 93.1203 -1.57491 0.0584922 0
M  V30 960 C 94.0703 -2.08474 -0.923188 0
M  V30 961 C 95.0543 -0.991479 -1.26722 0
M  V30 962 O 96.2463 -1.25473 -1.24842 0
M  V30 963 C 93.3753 -2.6392 -2.19548 0
M  V30 964 C 92.4613 -3.80227 -1.87852 0
M  V30 965 N 92.8523 -4.89714 -1.26546 0
M  V30 966 C 91.1503 -3.89271 -2.17679 0
M  V30 967 C 91.8513 -5.70689 -1.12644 0
M  V30 968 N 90.8273 -5.18531 -1.63176 0
M  V30 969 H 94.6293 -2.90517 -0.444653 0
M  V30 970 H 92.1433 -1.61745 -0.145764 0
M  V30 971 H 94.1403 -2.98752 -2.9078 0
M  V30 972 H 92.8003 -1.83318 -2.68001 0
M  V30 973 H 93.8113 -5.09358 -0.936757 0
M  V30 974 H 90.4883 -3.19623 -2.68602 0
M  V30 975 H 91.8783 -6.6875 -0.6499 0
M  V30 976 N 94.5984 0.214957 -1.56127 0
M  V30 977 C 95.8454 0.938372 -1.79446 0
M  V30 978 C 96.1734 1.8407 -0.628378 0
M  V30 979 O 95.4284 1.91837 0.386925 0
M  V30 980 C 95.7274 1.80314 -3.0858 0
M  V30 981 C 95.3934 1.05349 -4.3842 0
M  V30 982 C 94.0554 0.846435 -4.73697 0
M  V30 983 C 96.4074 0.524588 -5.18553 0
M  V30 984 C 93.7354 0.098683 -5.86617 0
M  V30 985 C 96.0874 -0.209853 -6.32252 0
M  V30 986 C 94.7514 -0.428102 -6.66126 0
M  V30 987 H 94.0214 0.343375 -0.656639 0
M  V30 988 H 96.6684 0.206077 -1.90388 0
M  V30 989 H 94.9734 2.6035 -2.92789 0
M  V30 990 H 96.6704 2.36513 -3.23825 0
M  V30 991 H 93.2604 1.22486 -4.10725 0
M  V30 992 H 97.4444 0.672008 -4.91729 0
M  V30 993 H 92.7004 -0.0805753 -6.11347 0
M  V30 994 H 96.8744 -0.627157 -6.9357 0
M  V30 995 H 94.5014 -1.00944 -7.53468 0
M  V30 996 N 96.0765 1.50051 0.48192 0
M  V30 997 C 97.3225 1.61706 1.2338 0
M  V30 998 C 97.6775 0.308488 1.89911 0
M  V30 999 O 96.9705 -0.692798 1.78636 0
M  V30 1000 C 97.1645 2.72717 2.30998 0
M  V30 1001 C 96.9935 4.14242 1.75024 0
M  V30 1002 C 95.7635 4.80786 1.55476 0
M  V30 1003 C 97.9615 4.98846 1.25128 0
M  V30 1004 N 95.9435 6.06563 0.946311 0
M  V30 1005 C 97.3145 6.15258 0.765382 0
M  V30 1006 C 99.3695 4.84702 1.13881 0
M  V30 1007 C 98.0725 7.19079 0.178113 0
M  V30 1008 C 100.098 5.8869 0.565486 0
M  V30 1009 C 99.4605 7.04343 0.0899105 0
M  V30 1010 H 95.5595 0.645958 0.440753 0
M  V30 1011 H 98.1435 1.8713 0.537624 0
M  V30 1012 H 96.3145 2.49033 2.98055 0
M  V30 1013 H 98.0465 2.73789 2.9803 0
M  V30 1014 H 94.8015 4.37899 1.80392 0
M  V30 1015 H 95.2255 6.73767 0.660812 0
M  V30 1016 H 99.8675 3.95583 1.49244 0
M  V30 1017 H 97.5855 8.07882 -0.187749 0
M  V30 1018 H 101.171 5.79808 0.480974 0
M  V30 1019 H 100.051 7.83433 -0.346782 0
M  V30 1020 N 97.5546 -0.734337 1.39446 0
M  V30 1021 C 98.9706 -1.03997 1.21065 0
M  V30 1022 C 99.1706 -2.01369 0.0727019 0
M  V30 1023 O 98.2266 -2.45856 -0.575426 0
M  V30 1024 C 99.5396 -1.60163 2.54496 0
M  V30 1025 C 101.088 -1.7224 2.61347 0
M  V30 1026 C 101.563 -2.31814 3.95002 0
M  V30 1027 N 103.054 -2.39223 3.96644 0
M  V30 1028 C 103.789 -2.86258 4.96834 0
M  V30 1029 N 103.285 -3.33184 6.07421 0
M  V30 1030 N 105.078 -2.85473 4.84213 0
M  V30 1031 H 97.2286 -0.0885624 2.12215 0
M  V30 1032 H 99.4916 -0.10191 0.942506 0
M  V30 1033 H 99.1976 -0.960811 3.38321 0
M  V30 1034 H 99.0716 -2.5896 2.74262 0
M  V30 1035 H 101.459 -2.35443 1.77906 0
M  V30 1036 H 101.54 -0.720939 2.4543 0
M  V30 1037 H 101.184 -1.69238 4.78875 0
M  V30 1038 H 101.114 -3.32638 4.08239 0
M  V30 1039 H 103.605 -2.06057 3.16779 0
M  V30 1040 H 103.918 -3.67586 6.7978 0
M  V30 1041 H 102.263 -3.31191 6.11013 0
M  V30 1042 H 105.454 -2.48136 3.96921 0
M  V30 1043 H 105.627 -3.21814 5.62441 0
M  V30 1044 N 99.0327 -1.24633 -0.964593 0
M  V30 1045 C 99.9427 -1.05859 -2.09359 0
M  V30 1046 C 100.959 0.00148855 -1.74 0
M  V30 1047 O 102.135 -0.197346 -2.00431 0
M  V30 1048 C 99.1997 -0.668879 -3.40187 0
M  V30 1049 C 98.2607 -1.80578 -3.89474 0
M  V30 1050 C 97.4937 -1.43457 -5.14058 0
M  V30 1051 O 97.7167 -0.325775 -5.69469 0
M  V30 1052 O 96.6507 -2.2613 -5.57807 0
M  V30 1053 H 100.477 -2.00516 -2.28094 0
M  V30 1054 H 98.0617 -1.03481 -1.0776 0
M  V30 1055 H 99.9437 -0.463211 -4.18846 0
M  V30 1056 H 98.6187 0.248536 -3.22744 0
M  V30 1057 H 97.5257 -2.06623 -3.11862 0
M  V30 1058 H 98.8587 -2.70208 -4.11398 0
M  V30 1059 N 100.511 1.16574 -1.06058 0
M  V30 1060 C 101.739 1.90952 -0.796552 0
M  V30 1061 C 102.154 1.77302 0.648808 0
M  V30 1062 O 101.511 1.11605 1.44397 0
M  V30 1063 C 101.562 3.41736 -1.17894 0
M  V30 1064 O 101.283 3.54975 -2.56758 0
M  V30 1065 C 102.784 4.33169 -0.942308 0
M  V30 1066 H 100.004 0.605594 -0.288959 0
M  V30 1067 H 102.548 1.47777 -1.41358 0
M  V30 1068 H 100.703 3.82623 -0.606491 0
M  V30 1069 H 101.117 4.4846 -2.72 0
M  V30 1070 H 102.591 5.37439 -1.25952 0
M  V30 1071 H 103.068 4.3903 0.122078 0
M  V30 1072 H 103.674 3.98007 -1.49902 0
M  V30 1073 N 101.989 0.842826 1.3317 0
M  V30 1074 C 103.237 0.439577 1.97262 0
M  V30 1075 C 103.558 -1.00548 1.67078 0
M  V30 1076 O 102.828 -1.70098 0.971779 0
M  V30 1077 H 101.408 0.159558 0.72976 0
M  V30 1078 H 104.07 1.07665 1.62463 0
M  V30 1079 H 103.166 0.574886 3.0676 0
M  V30 1080 N 103.467 -1.45747 0.599634 0
M  V30 1081 C 104.695 -2.06668 0.0978551 0
M  V30 1082 C 105.11 -1.44562 -1.21439 0
M  V30 1083 O 104.467 -0.556923 -1.73795 0
M  V30 1084 C 104.518 -3.61456 -0.0567044 0
M  V30 1085 O 104.239 -4.21242 1.20361 0
M  V30 1086 C 105.74 -4.39345 -0.590869 0
M  V30 1087 H 102.96 -0.667825 0.0651943 0
M  V30 1088 H 105.504 -1.87115 0.82511 0
M  V30 1089 H 103.659 -3.80378 -0.734251 0
M  V30 1090 H 104.073 -5.14323 1.02821 0
M  V30 1091 H 105.547 -5.48182 -0.648131 0
M  V30 1092 H 106.024 -4.08568 -1.61147 0
M  V30 1093 H 106.63 -4.25268 0.0523679 0
M  V30 1094 N 104.945 -0.338344 -1.53925 0
M  V30 1095 C 105.895 0.536712 -2.21593 0
M  V30 1096 C 106.879 1.07015 -1.20153 0
M  V30 1097 O 108.071 1.00471 -1.45721 0
M  V30 1098 C 105.2 1.68977 -2.98834 0
M  V30 1099 C 104.286 1.17052 -4.07627 0
M  V30 1100 N 104.677 0.372085 -5.0443 0
M  V30 1101 C 102.975 1.44789 -4.21844 0
M  V30 1102 C 103.676 0.0909171 -5.81629 0
M  V30 1103 N 102.652 0.681131 -5.39316 0
M  V30 1104 H 106.454 -0.0804298 -2.9379 0
M  V30 1105 H 103.968 -0.144943 -1.61752 0
M  V30 1106 H 105.965 2.32857 -3.45808 0
M  V30 1107 H 104.625 2.31024 -2.28162 0
M  V30 1108 H 105.636 0.0136217 -5.17898 0
M  V30 1109 H 102.313 2.07313 -3.62391 0
M  V30 1110 H 103.703 -0.552817 -6.69622 0
M  V30 1111 N 106.423 1.57458 -0.0668435 0
M  V30 1112 C 107.37 2.12439 0.902122 0
M  V30 1113 C 108.34 1.03565 1.2986 0
M  V30 1114 O 109.525 1.312 1.38532 0
M  V30 1115 C 106.665 2.6865 2.16614 0
M  V30 1116 C 105.778 3.91663 1.82274 0
M  V30 1117 C 104.913 4.36134 3.0325 0
M  V30 1118 C 103.952 5.51808 2.64904 0
M  V30 1119 N 103.089 5.9126 3.78624 0
M  V30 1120 H 107.929 2.94934 0.426382 0
M  V30 1121 H 105.466 1.4575 0.198819 0
M  V30 1122 H 107.424 2.99346 2.90599 0
M  V30 1123 H 106.054 1.88928 2.61737 0
M  V30 1124 H 105.106 3.6746 0.983719 0
M  V30 1125 H 106.418 4.75693 1.50059 0
M  V30 1126 H 105.572 4.68465 3.85519 0
M  V30 1127 H 104.311 3.50948 3.38655 0
M  V30 1128 H 103.316 5.19133 1.81055 0
M  V30 1129 H 104.541 6.38722 2.30675 0
M  V30 1130 H 102.487 5.09024 4.138 0
M  V30 1131 H 102.404 6.70018 3.5016 0
M  V30 1132 H 103.672 6.28212 4.61486 0
M  V30 1133 N 107.901 -0.206675 1.56239 0
M  V30 1134 C 109.147 -0.930218 1.80208 0
M  V30 1135 C 109.48 -1.83387 0.638981 0
M  V30 1136 O 108.755 -1.91119 -0.361066 0
M  V30 1137 C 109.038 -1.75641 3.1436 0
M  V30 1138 C 108.891 -0.878257 4.41142 0
M  V30 1139 C 110.21 -2.73129 3.45092 0
M  V30 1140 H 107.329 -0.336742 0.655571 0
M  V30 1141 H 109.971 -0.198222 1.88963 0
M  V30 1142 H 108.121 -2.38048 3.07027 0
M  V30 1143 H 109.793 -0.269787 4.6051 0
M  V30 1144 H 108.036 -0.184385 4.33408 0
M  V30 1145 H 108.707 -1.49106 5.3148 0
M  V30 1146 H 111.183 -2.20856 3.52649 0
M  V30 1147 H 110.059 -3.28028 4.40101 0
M  V30 1148 H 110.32 -3.51606 2.68003 0
M  V30 1149 N 109.379 -1.50304 -0.473955 0
M  V30 1150 C 110.329 -1.65347 -1.56985 0
M  V30 1151 C 111.313 -0.508176 -1.52664 0
M  V30 1152 O 112.505 -0.762446 -1.59737 0
M  V30 1153 C 109.634 -1.74832 -2.95447 0
M  V30 1154 C 108.72 -2.95028 -3.04662 0
M  V30 1155 N 109.111 -4.18747 -2.83698 0
M  V30 1156 C 107.409 -2.93527 -3.35795 0
M  V30 1157 C 108.11 -4.99687 -2.97805 0
M  V30 1158 N 107.086 -4.33585 -3.2788 0
M  V30 1159 H 110.888 -2.58698 -1.39472 0
M  V30 1160 H 108.402 -1.47449 -0.680629 0
M  V30 1161 H 110.399 -1.83712 -3.7424 0
M  V30 1162 H 109.059 -0.826376 -3.14008 0
M  V30 1163 H 110.07 -4.48291 -2.59337 0
M  V30 1164 H 106.747 -2.10821 -3.60362 0
M  V30 1165 H 108.137 -6.08057 -2.85861 0
M  V30 1166 N 110.857 0.726932 -1.39834 0
M  V30 1167 C 111.787 1.85405 -1.41941 0
M  V30 1168 C 112.768 1.67751 -0.281728 0
M  V30 1169 O 113.953 1.8795 -0.488717 0
M  V30 1170 C 111.083 3.23243 -1.2701 0
M  V30 1171 C 110.037 3.55549 -2.38262 0
M  V30 1172 C 109.363 4.9241 -2.08415 0
M  V30 1173 C 110.663 3.577 -3.80589 0
M  V30 1174 H 112.357 1.83899 -2.36266 0
M  V30 1175 H 109.903 0.883349 -1.13723 0
M  V30 1176 H 111.856 4.01775 -1.27103 0
M  V30 1177 H 110.58 3.25296 -0.291564 0
M  V30 1178 H 109.239 2.79351 -2.37399 0
M  V30 1179 H 108.887 4.91052 -1.0898 0
M  V30 1180 H 108.587 5.14992 -2.82943 0
M  V30 1181 H 110.111 5.73289 -2.10171 0
M  V30 1182 H 111.525 4.26293 -3.83337 0
M  V30 1183 H 109.922 3.91804 -4.54543 0
M  V30 1184 H 110.992 2.57328 -4.10987 0
M  V30 1185 N 112.336 1.25143 0.95797 0
M  V30 1186 C 113.286 1.01924 2.0395 0
M  V30 1187 C 114.27 -0.0427175 1.60843 0
M  V30 1188 O 115.462 0.17221 1.7616 0
M  V30 1189 C 112.591 0.636373 3.3735 0
M  V30 1190 C 111.677 1.73492 3.8699 0
M  V30 1191 N 112.068 2.96945 4.0946 0
M  V30 1192 C 110.366 1.61467 4.15746 0
M  V30 1193 C 111.067 3.68228 4.50315 0
M  V30 1194 N 110.043 2.95833 4.56053 0
M  V30 1195 H 113.845 1.95653 2.19311 0
M  V30 1196 H 111.359 1.15413 1.14253 0
M  V30 1197 H 113.356 0.451233 4.14451 0
M  V30 1198 H 112.016 -0.293621 3.2337 0
M  V30 1199 H 113.027 3.33025 3.96629 0
M  V30 1200 H 109.704 0.753394 4.10646 0
M  V30 1201 H 111.094 4.74178 4.76031 0
M  V30 1202 N 113.814 -1.1601 1.06675 0
M  V30 1203 C 114.764 -2.18512 0.650888 0
M  V30 1204 C 115.748 -1.57677 -0.320441 0
M  V30 1205 O 116.94 -1.76482 -0.135266 0
M  V30 1206 C 114.069 -3.43273 0.0429255 0
M  V30 1207 C 113.155 -4.11176 1.03898 0
M  V30 1208 N 113.546 -4.54672 2.216 0
M  V30 1209 C 111.844 -4.37417 0.870779 0
M  V30 1210 C 112.545 -5.07248 2.84736 0
M  V30 1211 N 111.521 -5.0037 2.12441 0
M  V30 1212 H 115.323 -2.49863 1.54745 0
M  V30 1213 H 112.837 -1.32503 0.938975 0
M  V30 1214 H 114.834 -4.16006 -0.272857 0
M  V30 1215 H 113.494 -3.13408 -0.84884 0
M  V30 1216 H 114.505 -4.4828 2.59356 0
M  V30 1217 H 111.182 -4.17488 0.0313293 0
M  V30 1218 H 112.572 -5.50912 3.84636 0
M  V30 1219 N 115.292 -0.849877 -1.32721 0
M  V30 1220 C 116.538 -0.451591 -1.97708 0
M  V30 1221 C 116.871 0.989175 -1.6712 0
M  V30 1222 O 116.146 1.69334 -0.956891 0
M  V30 1223 C 116.429 -0.685598 -3.53513 0
M  V30 1224 C 116.282 -2.17444 -3.93749 0
M  V30 1225 C 117.601 -0.138874 -4.39881 0
M  V30 1226 H 114.72 -0.16555 -0.718166 0
M  V30 1227 H 117.362 -1.06742 -1.57182 0
M  V30 1228 H 115.512 -0.161416 -3.88165 0
M  V30 1229 H 117.184 -2.76433 -3.693 0
M  V30 1230 H 115.427 -2.65476 -3.43081 0
M  V30 1231 H 116.098 -2.28888 -5.02309 0
M  V30 1232 H 118.574 -0.587068 -4.11938 0
M  V30 1233 H 117.45 -0.332213 -5.47894 0
M  V30 1234 H 117.711 0.95806 -4.31594 0
M  V30 1235 N 116.77 1.45427 -0.607355 0
M  V30 1236 C 117.702 2.2871 0.149752 0
M  V30 1237 C 118.715 1.39937 0.831958 0
M  V30 1238 O 119.904 1.64313 0.697385 0
M  V30 1239 C 117.004 3.15673 1.23304 0
M  V30 1240 C 116.177 4.32722 0.637996 0
M  V30 1241 C 115.236 5.00895 1.61215 0
M  V30 1242 O 114.262 5.57697 1.13854 0
M  V30 1243 N 115.464 5.00159 2.94655 0
M  V30 1244 H 118.229 2.94328 -0.564882 0
M  V30 1245 H 115.79 1.55612 -0.446823 0
M  V30 1246 H 117.782 3.58144 1.88454 0
M  V30 1247 H 116.352 2.51965 1.8502 0
M  V30 1248 H 115.572 3.93734 -0.191572 0
M  V30 1249 H 116.86 5.08321 0.220665 0
M  V30 1250 H 116.258 4.553 3.35735 0
M  V30 1251 H 114.815 5.46495 3.55228 0
M  V30 1252 N 118.248 0.346503 1.53744 0
M  V30 1253 C 119.196 -0.52422 2.26616 0
M  V30 1254 C 120.19 -1.09948 1.28871 0
M  V30 1255 O 121.396 -1.04488 1.46568 0
M  V30 1256 H 117.771 -0.187743 0.728187 0
M  V30 1257 H 119.742 0.11239 2.98188 0
M  V30 1258 C 118.491 -1.66186 3.05414 0
M  V30 1259 H 117.814 -1.22848 3.80458 0
M  V30 1260 H 119.254 -2.24622 3.59612 0
M  V30 1261 C 117.713 -2.59302 2.1509 0
M  V30 1262 O 118.243 -3.61628 1.74895 0
M  V30 1263 N 116.449 -2.28055 1.8011 0
M  V30 1264 H 115.996 -1.44883 2.12994 0
M  V30 1265 H 115.954 -2.90615 1.19958 0
M  V30 1266 N 119.726 -1.57421 0.075193 0
M  V30 1267 C 120.973 -1.93618 -0.593146 0
M  V30 1268 C 121.301 -0.955484 -1.69413 0
M  V30 1269 O 120.556 0.0283251 -1.9568 0
M  V30 1270 C 120.855 -3.36428 -1.20626 0
M  V30 1271 C 120.521 -4.50307 -0.231078 0
M  V30 1272 C 119.183 -4.81186 0.0371936 0
M  V30 1273 C 121.535 -5.19374 0.435888 0
M  V30 1274 C 118.863 -5.78466 0.979461 0
M  V30 1275 C 121.215 -6.17665 1.3665 0
M  V30 1276 C 119.879 -6.46958 1.6432 0
M  V30 1277 H 119.149 -0.708499 -0.217047 0
M  V30 1278 H 121.796 -1.90937 0.146793 0
M  V30 1279 H 120.101 -3.35592 -2.02201 0
M  V30 1280 H 121.798 -3.61727 -1.73073 0
M  V30 1281 H 118.388 -4.26227 -0.450357 0
M  V30 1282 H 122.572 -4.95711 0.241748 0
M  V30 1283 H 117.828 -5.99487 1.20106 0
M  V30 1284 H 122.002 -6.70284 1.88924 0
M  V30 1285 H 119.629 -7.2215 2.37494 0
M  V30 1286 N 121.204 0.198386 -1.56346 0
M  V30 1287 C 122.136 1.26987 -1.90806 0
M  V30 1288 C 123.149 1.41877 -0.798419 0
M  V30 1289 O 124.338 1.42362 -1.07682 0
M  V30 1290 C 121.438 2.64246 -2.12196 0
M  V30 1291 C 120.611 2.71007 -3.43328 0
M  V30 1292 C 119.67 3.89439 -3.5387 0
M  V30 1293 O 118.696 3.76695 -4.26719 0
M  V30 1294 N 119.898 5.04752 -2.86715 0
M  V30 1295 H 122.663 0.977433 -2.83313 0
M  V30 1296 H 120.224 0.388322 -1.57174 0
M  V30 1297 H 122.216 3.41896 -2.1654 0
M  V30 1298 H 120.786 2.85992 -1.26204 0
M  V30 1299 H 120.006 1.79657 -3.50881 0
M  V30 1300 H 121.294 2.72512 -4.29668 0
M  V30 1301 H 120.692 5.18004 -2.2735 0
M  V30 1302 H 119.249 5.8036 -2.96691 0
M  V30 1303 N 122.682 1.50554 0.465978 0
M  V30 1304 C 123.629 1.6979 1.56333 0
M  V30 1305 C 124.599 0.539239 1.57103 0
M  V30 1306 O 125.784 0.770401 1.74555 0
M  V30 1307 C 122.924 1.80273 2.94271 0
M  V30 1308 C 122.037 3.07674 3.0325 0
M  V30 1309 C 121.172 3.08922 4.32135 0
M  V30 1310 C 120.211 4.30755 4.34875 0
M  V30 1311 N 119.348 4.29714 5.55239 0
M  V30 1312 H 124.188 2.63472 1.39235 0
M  V30 1313 H 121.725 1.30602 0.676873 0
M  V30 1314 H 123.683 1.84332 3.74269 0
M  V30 1315 H 122.313 0.900258 3.09992 0
M  V30 1316 H 121.365 3.13062 2.16094 0
M  V30 1317 H 122.677 3.97642 3.01135 0
M  V30 1318 H 121.831 3.11738 5.20485 0
M  V30 1319 H 120.57 2.16792 4.36866 0
M  V30 1320 H 119.575 4.28146 3.44922 0
M  V30 1321 H 120.8 5.24117 4.31831 0
M  V30 1322 H 118.746 3.4044 5.60746 0
M  V30 1323 H 118.663 5.13456 5.54886 0
M  V30 1324 H 119.931 4.36683 6.457 0
M  V30 1325 N 124.16 -0.719506 1.40217 0
M  V30 1326 C 125.39 -1.50646 1.41384 0
M  V30 1327 C 125.798 -1.89197 0.0107743 0
M  V30 1328 O 125.141 -1.55709 -0.974708 0
M  V30 1329 C 125.203 -2.81405 2.23722 0
M  V30 1330 C 124.867 -2.65199 3.72181 0
M  V30 1331 C 125.864 -2.32717 4.64907 0
M  V30 1332 C 123.549 -2.81586 4.1595 0
M  V30 1333 C 125.543 -2.16827 5.99387 0
M  V30 1334 C 123.23 -2.65313 5.50502 0
M  V30 1335 C 124.228 -2.32981 6.42035 0
M  V30 1336 O 123.916 -2.16827 7.74107 0
M  V30 1337 H 123.648 -0.471606 0.484318 0
M  V30 1338 H 126.202 -0.895456 1.84853 0
M  V30 1339 H 124.432 -3.44823 1.75026 0
M  V30 1340 H 126.121 -3.43102 2.16878 0
M  V30 1341 H 126.887 -2.19694 4.32388 0
M  V30 1342 H 122.766 -3.0574 3.45027 0
M  V30 1343 H 126.31 -1.91513 6.70797 0
M  V30 1344 H 122.207 -2.7792 5.82607 0
M  V30 1345 H 122.975 -2.31778 7.84998 0
M  V30 1346 N 125.638 -1.25649 -0.95132 0
M  V30 1347 C 126.886 -1.10375 -1.69298 0
M  V30 1348 C 127.207 0.355339 -1.91735 0
M  V30 1349 O 126.477 1.25188 -1.50681 0
M  V30 1350 H 125.057 -0.405461 -0.627384 0
M  V30 1351 H 127.719 -1.57823 -1.14358 0
M  V30 1352 H 126.815 -1.61465 -2.67087 0
M  V30 1353 N 127.117 1.15442 -1.07289 0
M  V30 1354 C 128.528 1.67803 -0.818475 0
M  V30 1355 C 128.879 1.8489 0.656507 0
M  V30 1356 O 128.004 1.55176 1.50829 0
M  V30 1357 C 128.599 3.04805 -1.47917 0
M  V30 1358 C 127.158 3.54245 -1.27229 0
M  V30 1359 C 126.305 2.29986 -1.54925 0
M  V30 1360 H 129.256 0.996646 -1.23502 0
M  V30 1361 H 129.277 3.69702 -0.90005 0
M  V30 1362 H 128.789 2.92336 -2.55267 0
M  V30 1363 H 126.89 3.71956 -0.21899 0
M  V30 1364 H 127.003 4.35723 -1.99203 0
M  V30 1365 H 125.367 2.35496 -0.970242 0
M  V30 1366 H 126.15 2.20105 -2.63455 0
M  V30 1367 N 128.595 0.856903 1.32268 0
M  V30 1368 C 129.844 0.457599 1.96441 0
M  V30 1369 C 130.157 -0.992426 1.68553 0
M  V30 1370 O 131.363 -1.49727 2.26482 0
M  V30 1371 C 129.819 0.767358 3.51624 0
M  V30 1372 C 129.427 2.23326 3.88367 0
M  V30 1373 C 131.171 0.435887 4.22256 0
M  V30 1374 C 129.078 2.48613 5.36606 0
M  V30 1375 H 128.008 0.167387 0.735185 0
M  V30 1376 H 130.659 1.048 1.5063 0
M  V30 1377 H 129.041 0.106367 3.95857 0
M  V30 1378 H 130.215 2.93623 3.55137 0
M  V30 1379 H 128.53 2.52948 3.30766 0
M  V30 1380 H 131.127 0.602202 5.31298 0
M  V30 1381 H 131.47 -0.622672 4.11617 0
M  V30 1382 H 132.003 1.05286 3.83614 0
M  V30 1383 H 128.742 3.53101 5.52268 0
M  V30 1384 H 128.262 1.82896 5.71235 0
M  V30 1385 H 129.941 2.32676 6.03714 0
M  V30 1386 N 130.073 -1.45103 0.615059 0
M  V30 1387 C 131.303 -2.06254 0.119596 0
M  V30 1388 C 131.711 -1.4591 -1.20445 0
M  V30 1389 O 131.054 -0.570384 -1.7462 0
M  V30 1390 C 131.116 -3.59396 -0.0865591 0
M  V30 1391 C 130.78 -4.42116 1.15683 0
M  V30 1392 C 131.777 -4.7662 2.07676 0
M  V30 1393 C 129.462 -4.82749 1.38775 0
M  V30 1394 C 131.456 -5.50622 3.21082 0
M  V30 1395 C 129.143 -5.56504 2.52481 0
M  V30 1396 C 130.141 -5.90358 3.43463 0
M  V30 1397 O 129.829 -6.62615 4.55189 0
M  V30 1398 H 129.561 -0.672423 0.0694512 0
M  V30 1399 H 132.115 -1.87219 0.844885 0
M  V30 1400 H 130.345 -3.76859 -0.866823 0
M  V30 1401 H 132.034 -4.02365 -0.534555 0
M  V30 1402 H 132.8 -4.4578 1.91063 0
M  V30 1403 H 128.679 -4.55829 0.688545 0
M  V30 1404 H 132.223 -5.76965 3.92119 0
M  V30 1405 H 128.12 -5.86759 2.69043 0
M  V30 1406 H 128.888 -6.81071 4.53966 0
M  V30 1407 N 131.551 -0.354651 -1.53558 0
M  V30 1408 C 132.967 -0.00315426 -1.596 0
M  V30 1409 C 133.167 1.47741 -1.37021 0
M  V30 1410 O 132.223 2.23759 -1.16996 0
M  V30 1411 C 133.536 -0.44929 -2.97325 0
M  V30 1412 C 135.084 -0.402578 -3.104 0
M  V30 1413 C 135.559 -0.824355 -4.5052 0
M  V30 1414 N 137.05 -0.778979 -4.56603 0
M  V30 1415 C 137.785 -1.07715 -5.63192 0
M  V30 1416 N 137.281 -1.44405 -6.77583 0
M  V30 1417 N 139.074 -1.00066 -5.53121 0
M  V30 1418 H 131.225 -1.31893 -1.66487 0
M  V30 1419 H 133.488 -0.538388 -0.780284 0
M  V30 1420 H 133.194 -1.48202 -3.1895 0
M  V30 1421 H 133.068 0.169772 -3.76818 0
M  V30 1422 H 135.455 0.621004 -2.88492 0
M  V30 1423 H 135.536 -1.05699 -2.32941 0
M  V30 1424 H 135.18 -1.846 -4.73165 0
M  V30 1425 H 135.11 -0.147304 -5.26394 0
M  V30 1426 H 137.601 -0.508528 -3.74463 0
M  V30 1427 H 137.914 -1.65612 -7.54846 0
M  V30 1428 H 136.259 -1.4826 -6.79002 0
M  V30 1429 H 139.45 -0.713293 -4.62633 0
M  V30 1430 H 139.623 -1.23638 -6.36096 0
M  V30 1431 N 133.029 1.57378 -0.0835403 0
M  V30 1432 C 133.939 2.16897 0.894021 0
M  V30 1433 C 134.955 1.13528 1.31861 0
M  V30 1434 O 136.131 1.45848 1.3889 0
M  V30 1435 C 133.196 2.72831 2.13925 0
M  V30 1436 C 132.257 3.91115 1.76997 0
M  V30 1437 C 131.49 4.44371 2.95584 0
M  V30 1438 O 131.713 3.96596 4.09961 0
M  V30 1439 O 130.647 5.35549 2.74719 0
M  V30 1440 H 134.473 3.00814 0.417679 0
M  V30 1441 H 132.058 1.48741 0.140181 0
M  V30 1442 H 133.94 3.0863 2.86924 0
M  V30 1443 H 132.615 1.91967 2.60635 0
M  V30 1444 H 131.522 3.60148 1.01214 0
M  V30 1445 H 132.855 4.73307 1.3506 0
M  V30 1446 N 134.507 -0.190092 1.56449 0
M  V30 1447 C 135.454 -1.23557 1.94942 0
M  V30 1448 C 136.424 -1.44972 0.810696 0
M  V30 1449 O 137.609 -1.58023 1.06927 0
M  V30 1450 C 134.749 -2.57416 2.2985 0
M  V30 1451 C 133.862 -2.43537 3.5681 0
M  V30 1452 C 132.997 -3.70134 3.81017 0
M  V30 1453 C 132.036 -3.51109 5.01387 0
M  V30 1454 N 131.173 -4.6973 5.21822 0
M  V30 1455 H 136.013 -0.900304 2.84075 0
M  V30 1456 H 133.55 -0.43318 1.40577 0
M  V30 1457 H 135.508 -3.35409 2.48106 0
M  V30 1458 H 134.138 -2.88975 1.43852 0
M  V30 1459 H 133.19 -1.56816 3.46573 0
M  V30 1460 H 134.502 -2.25415 4.4496 0
M  V30 1461 H 133.656 -4.56566 3.9954 0
M  V30 1462 H 132.395 -3.91215 2.91207 0
M  V30 1463 H 131.4 -2.63063 4.82782 0
M  V30 1464 H 132.625 -3.31468 5.9271 0
M  V30 1465 H 130.571 -4.91065 4.34961 0
M  V30 1466 H 130.488 -4.54452 6.0416 0
M  V30 1467 H 131.756 -5.57499 5.44808 0
M  V30 1468 N 135.985 -1.50799 -0.457987 0
M  V30 1469 C 136.915 -1.73553 -1.5621 0
M  V30 1470 C 137.896 -0.584774 -1.59732 0
M  V30 1471 O 139.081 -0.825314 -1.7579 0
M  V30 1472 C 136.211 -1.84169 -2.94447 0
M  V30 1473 C 135.165 -2.99461 -3.0579 0
M  V30 1474 C 134.491 -2.95235 -4.45803 0
M  V30 1475 C 135.791 -4.39766 -2.81786 0
M  V30 1476 H 137.485 -2.66 -1.37421 0
M  V30 1477 H 135.031 -1.28002 -0.659662 0
M  V30 1478 H 136.984 -1.98672 -3.71628 0
M  V30 1479 H 135.708 -0.883545 -3.14422 0
M  V30 1480 H 134.367 -2.8463 -2.31044 0
M  V30 1481 H 134.015 -1.97239 -4.62715 0
M  V30 1482 H 133.715 -3.72642 -4.54326 0
M  V30 1483 H 135.239 -3.11803 -5.24987 0
M  V30 1484 H 136.653 -4.55054 -3.4871 0
M  V30 1485 H 135.05 -5.18722 -3.0174 0
M  V30 1486 H 136.12 -4.51229 -1.7754 0
M  V30 1487 N 137.463 0.71206 -1.40597 0
M  V30 1488 C 138.711 1.46907 -1.38791 0
M  V30 1489 C 139.032 1.94998 0.00780391 0
M  V30 1490 O 138.302 1.70587 0.963174 0
M  V30 1491 H 136.882 0.545043 -0.51082 0
M  V30 1492 H 139.544 0.843882 -1.75683 0
M  V30 1493 H 138.64 2.34021 -2.06496 0
M  V30 1494 N 138.941 1.26152 0.944643 0
M  V30 1495 C 139.889 1.07215 2.06417 0
M  V30 1496 C 140.883 9.2007e-05 1.694 0
M  V30 1497 O 142.089 0.1565 1.79318 0
M  V30 1498 H 138.464 0.329837 0.675805 0
M  V30 1499 H 140.435 2.02099 2.19541 0
M  V30 1500 C 139.184 0.718197 3.40202 0
M  V30 1501 H 138.507 1.53497 3.69159 0
M  V30 1502 H 139.947 0.625459 4.19361 0
M  V30 1503 C 138.406 -0.576435 3.31932 0
M  V30 1504 O 138.936 -1.61574 3.67773 0
M  V30 1505 N 137.142 -0.565781 2.85039 0
M  V30 1506 H 136.689 0.280367 2.5607 0
M  V30 1507 H 136.647 -1.43213 2.79888 0
M  V30 1508 N 140.419 -1.14872 1.07899 0
M  V30 1509 C 141.665 -1.86064 0.806725 0
M  V30 1510 C 141.998 -1.82434 -0.665706 0
M  V30 1511 O 141.273 -1.25138 -1.48899 0
M  V30 1512 C 141.556 -3.34929 1.32267 0
M  V30 1513 C 141.409 -3.47161 2.86006 0
M  V30 1514 C 142.728 -4.29863 0.943717 0
M  V30 1515 H 139.847 -0.675591 0.294526 0
M  V30 1516 H 142.489 -1.34925 1.33773 0
M  V30 1517 H 140.639 -3.78611 0.870974 0
M  V30 1518 H 142.311 -3.12302 3.39507 0
M  V30 1519 H 140.554 -2.88539 3.23925 0
M  V30 1520 H 141.225 -4.51777 3.17177 0
M  V30 1521 H 143.701 -3.9417 1.33302 0
M  V30 1522 H 142.577 -5.32494 1.33198 0
M  V30 1523 H 142.838 -4.41846 -0.149796 0
M  V30 1524 N 141.898 -0.863906 -1.31812 0
M  V30 1525 C 142.808 -0.318461 -2.32428 0
M  V30 1526 C 143.824 0.568496 -1.64451 0
M  V30 1527 O 145 0.46666 -1.95919 0
M  V30 1528 C 142.065 0.476355 -3.43412 0
M  V30 1529 C 141.126 -0.43784 -4.27061 0
M  V30 1530 C 140.359 0.319138 -5.32745 0
M  V30 1531 O 140.582 1.54799 -5.48993 0
M  V30 1532 O 139.516 -0.319861 -6.01049 0
M  V30 1533 H 143.342 -1.15229 -2.80991 0
M  V30 1534 H 140.927 -0.627103 -1.35602 0
M  V30 1535 H 142.809 0.927156 -4.11074 0
M  V30 1536 H 141.484 1.28683 -2.97022 0
M  V30 1537 H 140.391 -0.937013 -3.62175 0
M  V30 1538 H 141.724 -1.21375 -4.77 0
M  V30 1539 N 143.376 1.44774 -0.622745 0
M  V30 1540 C 144.601 2.06999 -0.128968 0
M  V30 1541 C 145.026 1.4617 1.1839 0
M  V30 1542 O 144.384 0.560007 1.72434 0
M  V30 1543 C 144.432 3.60595 -0.0188351 0
M  V30 1544 O 143.536 3.99398 1.02739 0
M  V30 1545 H 142.877 0.659047 -0.0809544 0
M  V30 1546 H 145.407 1.85784 -0.85705 0
M  V30 1547 H 145.417 4.07627 0.174476 0
M  V30 1548 H 144.092 4.04252 -0.977384 0
M  V30 1549 H 142.669 3.64011 0.809326 0
M  V30 1550 N 144.854 0.36279 1.53368 0
M  V30 1551 C 146.1 -0.228113 2.01513 0
M  V30 1552 C 146.433 -1.48648 1.2497 0
M  V30 1553 O 145.708 -1.91459 0.342616 0
M  V30 1554 C 145.991 -0.522884 3.56284 0
M  V30 1555 C 145.844 0.74892 4.43521 0
M  V30 1556 C 147.163 -1.32461 4.19693 0
M  V30 1557 H 144.282 -0.0814343 0.732487 0
M  V30 1558 H 146.924 0.48713 1.83649 0
M  V30 1559 H 145.074 -1.1322 3.71636 0
M  V30 1560 H 146.746 1.38648 4.39971 0
M  V30 1561 H 144.989 1.36986 4.11603 0
M  V30 1562 H 145.66 0.497667 5.49752 0
M  V30 1563 H 148.136 -0.809203 4.08156 0
M  V30 1564 H 147.012 -1.49961 5.28018 0
M  V30 1565 H 147.273 -2.33232 3.75573 0
M  V30 1566 N 146.332 -1.57332 0.0918853 0
M  V30 1567 C 147.562 -1.98286 -0.580205 0
M  V30 1568 C 147.97 -0.969713 -1.6246 0
M  V30 1569 O 147.313 0.0493501 -1.83634 0
M  V30 1570 C 147.375 -3.35603 -1.28882 0
M  V30 1571 C 147.039 -4.55285 -0.395559 0
M  V30 1572 C 148.036 -5.18687 0.355002 0
M  V30 1573 C 145.721 -5.01314 -0.314556 0
M  V30 1574 C 147.715 -6.26484 1.17458 0
M  V30 1575 C 145.402 -6.08979 0.508677 0
M  V30 1576 C 146.4 -6.71429 1.2519 0
M  V30 1577 O 146.088 -7.77018 2.06151 0
M  V30 1578 H 145.82 -0.656678 -0.160466 0
M  V30 1579 H 148.374 -2.04721 0.16688 0
M  V30 1580 H 146.604 -3.25842 -2.08241 0
M  V30 1581 H 148.293 -3.61026 -1.85512 0
M  V30 1582 H 149.059 -4.84058 0.302134 0
M  V30 1583 H 144.938 -4.5247 -0.882697 0
M  V30 1584 H 148.482 -6.75159 1.75518 0
M  V30 1585 H 144.379 -6.4304 0.563037 0
M  V30 1586 H 145.147 -7.93991 1.98799 0
M  V30 1587 N 147.81 0.181792 -1.56548 0
M  V30 1588 C 149.056 0.901431 -1.81665 0
M  V30 1589 C 149.389 1.82347 -0.668075 0
M  V30 1590 O 148.664 1.91669 0.330615 0
M  V30 1591 C 148.947 1.70618 -3.17115 0
M  V30 1592 C 148.8 0.807964 -4.42484 0
M  V30 1593 C 150.119 2.67605 -3.49393 0
M  V30 1594 H 147.238 0.32627 -0.660846 0
M  V30 1595 H 149.88 0.168134 -1.89255 0
M  V30 1596 H 148.03 2.33133 -3.10775 0
M  V30 1597 H 149.702 0.19649 -4.60881 0
M  V30 1598 H 147.945 0.115411 -4.33646 0
M  V30 1599 H 148.616 1.40632 -5.33785 0
M  V30 1600 H 151.092 2.15218 -3.56118 0
M  V30 1601 H 149.968 3.20985 -4.45264 0
M  V30 1602 H 150.229 3.47298 -2.73563 0
M  V30 1603 N 149.288 1.51039 0.449983 0
M  V30 1604 C 150.537 1.62317 1.19733 0
M  V30 1605 C 150.85 0.339101 1.92638 0
M  V30 1606 O 152.056 0.331069 2.69474 0
M  V30 1607 C 150.512 2.86608 2.17678 0
M  V30 1608 C 150.12 4.21972 1.50479 0
M  V30 1609 C 151.864 3.07239 2.92924 0
M  V30 1610 C 149.771 5.37426 2.46834 0
M  V30 1611 H 148.701 0.604532 0.450619 0
M  V30 1612 H 151.352 1.77494 0.465625 0
M  V30 1613 H 149.734 2.65037 2.94231 0
M  V30 1614 H 150.908 4.53878 0.795716 0
M  V30 1615 H 149.223 4.07117 0.874344 0
M  V30 1616 H 151.82 3.90668 3.65079 0
M  V30 1617 H 152.163 2.19807 3.5354 0
M  V30 1618 H 152.696 3.29091 2.23481 0
M  V30 1619 H 149.435 6.27079 1.90926 0
M  V30 1620 H 148.955 5.09912 3.15832 0
M  V30 1621 H 150.634 5.68862 3.08228 0
M  V30 1622 N 150.766 -0.704594 1.40972 0
M  V30 1623 C 152.043 -1.45847 1.30338 0
M  V30 1624 C 152.423 -2.10973 -0.0732344 0
M  V30 1625 O 151.771 -2.00997 -1.08685 0
M  V30 1626 C 151.981 -2.48525 2.45023 0
M  V30 1627 C 153.329 -3.1404 2.8577 0
M  V30 1628 O 154.353 -2.58848 2.44696 0
M  V30 1629 O 153.212 -4.13981 3.56766 0
M  V30 1630 H 150.306 -0.649092 0.512454 0
M  V30 1631 H 152.852 -0.735836 1.52917 0
M  V30 1632 H 151.624 -1.98994 3.36923 0
M  V30 1633 H 151.247 -3.2831 2.24272 0
M  V30 1634 N 152.244 -1.26651 -0.937939 0
M  V30 1635 C 153.655 -1.1125 -1.49934 0
M  V30 1636 C 154.006 0.306077 -1.93798 0
M  V30 1637 O 153.131 1.19792 -1.80219 0
M  V30 1638 C 153.726 -2.01339 -2.72485 0
M  V30 1639 C 152.285 -1.90074 -3.24883 0
M  V30 1640 C 151.432 -1.94498 -1.97651 0
M  V30 1641 H 154.383 -1.39693 -0.753091 0
M  V30 1642 H 154.404 -1.56319 -3.46907 0
M  V30 1643 H 153.916 -3.04577 -2.40529 0
M  V30 1644 H 152.017 -0.897827 -3.61621 0
M  V30 1645 H 152.13 -2.75778 -3.9177 0
M  V30 1646 H 150.494 -1.38591 -2.13693 0
M  V30 1647 H 151.277 -2.99372 -1.68022 0
M  V30 1648 N 153.722 1.14298 -1.08507 0
M  V30 1649 C 154.632 2.23027 -0.727753 0
M  V30 1650 C 155.648 1.71952 0.26619 0
M  V30 1651 O 156.824 2.011 0.109882 0
M  V30 1652 C 153.889 3.46403 -0.143541 0
M  V30 1653 C 152.95 4.12413 -1.19223 0
M  V30 1654 C 152.183 5.29899 -0.635798 0
M  V30 1655 O 152.406 5.67796 0.544393 0
M  V30 1656 O 151.34 5.85717 -1.38634 0
M  V30 1657 H 155.166 2.55945 -1.63481 0
M  V30 1658 H 152.751 1.22248 -0.858817 0
M  V30 1659 H 154.633 4.21018 0.179404 0
M  V30 1660 H 153.308 3.15206 0.736659 0
M  V30 1661 H 152.215 3.39667 -1.56772 0
M  V30 1662 H 153.548 4.47718 -2.04474 0
M  V30 1663 N 155.201 0.870884 1.31352 0
M  V30 1664 C 156.478 0.402907 1.91405 0
M  V30 1665 C 156.858 -1.11512 1.79244 0
M  V30 1666 O 156.206 -1.94411 1.2007 0
M  V30 1667 C 156.416 0.885301 3.37585 0
M  V30 1668 C 157.764 0.911971 4.14691 0
M  V30 1669 O 158.788 0.831016 3.46371 0
M  V30 1670 O 157.647 1.02927 5.3672 0
M  V30 1671 H 154.741 0.120698 0.818145 0
M  V30 1672 H 157.287 0.958857 1.40014 0
M  V30 1673 H 156.059 1.92889 3.40455 0
M  V30 1674 H 155.682 0.307714 3.96407 0
M  V30 1675 N 156.679 -1.44442 0.630414 0
M  V30 1676 C 157.925 -2.02351 0.134816 0
M  V30 1677 C 158.258 -1.4947 -1.23986 0
M  V30 1678 O 157.533 -0.678475 -1.82283 0
M  V30 1679 C 157.816 -3.59898 0.120707 0
M  V30 1680 C 157.669 -4.23063 1.52767 0
M  V30 1681 C 158.988 -4.36585 -0.555127 0
M  V30 1682 H 156.107 -0.73527 0.0504646 0
M  V30 1683 H 158.749 -1.72022 0.806751 0
M  V30 1684 H 156.899 -3.85868 -0.451477 0
M  V30 1685 H 158.571 -4.08202 2.14869 0
M  V30 1686 H 156.814 -3.80586 2.08175 0
M  V30 1687 H 157.485 -5.32071 1.46984 0
M  V30 1688 H 159.961 -4.16044 -0.0685429 0
M  V30 1689 H 158.837 -5.46294 -0.534185 0
M  V30 1690 H 159.098 -4.11138 -1.62535 0
M  V30 1691 N 158.157 -0.370918 -1.53173 0
M  V30 1692 C 159.12 0.460778 -2.24521 0
M  V30 1693 C 160.12 1.00536 -1.25496 0
M  V30 1694 O 161.31 0.890266 -1.49733 0
M  V30 1695 C 158.442 1.64457 -2.98608 0
M  V30 1696 H 159.635 -0.163613 -2.99453 0
M  V30 1697 H 157.188 -0.122699 -1.55818 0
M  V30 1698 H 157.923 2.30691 -2.2793 0
M  V30 1699 H 157.708 1.26099 -3.7127 0
M  V30 1700 H 159.198 2.23384 -3.5283 0
M  V30 1701 N 159.635 1.57281 -0.100228 0
M  V30 1702 C 160.565 2.17328 0.853857 0
M  V30 1703 C 161.546 1.10804 1.2906 0
M  V30 1704 O 162.731 1.38963 1.35657 0
M  V30 1705 C 159.861 2.75772 2.11109 0
M  V30 1706 C 158.815 3.87713 1.81279 0
M  V30 1707 C 158.141 4.32882 3.13874 0
M  V30 1708 C 159.441 5.10677 1.09574 0
M  V30 1709 H 161.135 2.97305 0.353545 0
M  V30 1710 H 158.681 1.43009 0.168612 0
M  V30 1711 H 160.634 3.16433 2.78296 0
M  V30 1712 H 159.358 1.93057 2.63432 0
M  V30 1713 H 158.017 3.476 1.16489 0
M  V30 1714 H 157.665 3.47051 3.64095 0
M  V30 1715 H 157.365 5.08358 2.94696 0
M  V30 1716 H 158.889 4.7618 3.82211 0
M  V30 1717 H 160.303 5.48474 1.66879 0
M  V30 1718 H 158.7 5.91615 1.00557 0
M  V30 1719 H 159.77 4.84835 0.0793299 0
M  V30 1720 N 161.113 -0.173488 1.56642 0
M  V30 1721 C 162.043 -1.2171 1.99271 0
M  V30 1722 C 163.024 -1.46289 0.867959 0
M  V30 1723 O 164.209 -1.5766 1.13388 0
M  V30 1724 C 161.339 -2.55651 2.35074 0
M  V30 1725 C 160.293 -2.45645 3.50489 0
M  V30 1726 C 159.619 -3.84056 3.72028 0
M  V30 1727 C 160.919 -1.96302 4.84007 0
M  V30 1728 H 162.613 -0.86275 2.867 0
M  V30 1729 H 160.159 -0.413571 1.37933 0
M  V30 1730 H 162.112 -3.2886 2.63494 0
M  V30 1731 H 160.836 -2.92869 1.44552 0
M  V30 1732 H 159.495 -1.7489 3.22194 0
M  V30 1733 H 159.143 -4.18664 2.788 0
M  V30 1734 H 158.843 -3.7823 4.49684 0
M  V30 1735 H 160.367 -4.58854 4.02846 0
M  V30 1736 H 161.781 -2.59284 5.11317 0
M  V30 1737 H 160.178 -2.01429 5.65284 0
M  V30 1738 H 161.248 -0.917226 4.76146 0
M  V30 1739 N 162.591 -1.51276 -0.441967 0
M  V30 1740 C 163.838 -1.63715 -1.19179 0
M  V30 1741 C 164.166 -0.351175 -1.91303 0
M  V30 1742 O 163.421 0.664524 -1.84072 0
M  V30 1743 C 163.72 -2.78746 -2.23686 0
M  V30 1744 C 163.386 -4.18189 -1.68607 0
M  V30 1745 C 162.048 -4.56125 -1.53308 0
M  V30 1746 C 164.4 -5.05222 -1.28062 0
M  V30 1747 C 161.728 -5.78804 -0.959317 0
M  V30 1748 C 164.08 -6.28476 -0.721162 0
M  V30 1749 C 162.744 -6.65188 -0.55504 0
M  V30 1750 H 162.014 -0.599076 -0.436106 0
M  V30 1751 H 164.661 -1.85296 -0.48351 0
M  V30 1752 H 162.966 -2.51369 -3.00535 0
M  V30 1753 H 164.663 -2.8557 -2.81515 0
M  V30 1754 H 161.253 -3.88277 -1.8149 0
M  V30 1755 H 165.437 -4.76524 -1.38704 0
M  V30 1756 H 160.693 -6.05899 -0.81833 0
M  V30 1757 H 164.867 -6.95259 -0.398458 0
M  V30 1758 H 162.494 -7.60123 -0.108311 0
M  V30 1759 N 164.069 0.697108 -1.41344 0
M  V30 1760 C 165.016 1.81106 -1.43071 0
M  V30 1761 C 165.986 1.63632 -0.285275 0
M  V30 1762 O 167.171 1.84504 -0.486091 0
M  V30 1763 C 164.311 3.18975 -1.31715 0
M  V30 1764 C 163.424 3.47892 -2.56115 0
M  V30 1765 C 162.559 4.75367 -2.37064 0
M  V30 1766 C 161.598 4.97247 -3.56948 0
M  V30 1767 N 160.735 6.15947 -3.36977 0
M  V30 1768 H 165.575 1.78965 -2.38276 0
M  V30 1769 H 163.112 0.873975 -1.18322 0
M  V30 1770 H 165.07 3.98615 -1.23133 0
M  V30 1771 H 163.7 3.20297 -0.401183 0
M  V30 1772 H 162.752 2.62669 -2.75153 0
M  V30 1773 H 164.064 3.59962 -3.45295 0
M  V30 1774 H 163.218 5.63059 -2.25941 0
M  V30 1775 H 161.957 4.65541 -1.45338 0
M  V30 1776 H 160.962 4.08004 -3.68527 0
M  V30 1777 H 162.187 5.08934 -4.49626 0
M  V30 1778 H 160.133 6.07336 -2.47949 0
M  V30 1779 H 160.05 6.28777 -4.19732 0
M  V30 1780 H 161.318 7.06377 -3.29623 0
M  V30 1781 N 165.547 1.27147 0.931209 0
M  V30 1782 C 166.772 1.16191 1.71797 0
M  V30 1783 C 167.197 -0.278004 1.86034 0
M  V30 1784 O 166.555 -1.20137 1.35782 0
M  V30 1785 C 166.603 1.84673 3.09723 0
M  V30 1786 O 165.707 1.14231 3.96264 0
M  V30 1787 H 165.048 0.404303 0.526721 0
M  V30 1788 H 167.578 1.68152 1.1656 0
M  V30 1789 H 167.588 1.91893 3.60057 0
M  V30 1790 H 166.263 2.89421 2.98677 0
M  V30 1791 H 164.84 1.15056 3.54706 0
M  V30 1792 N 167.025 -1.13721 1.09112 0
M  V30 1793 C 167.935 -2.22638 0.73957 0
M  V30 1794 C 168.951 -1.72091 -0.257068 0
M  V30 1795 O 170.127 -2.01155 -0.0992154 0
M  V30 1796 C 167.192 -3.46322 0.16191 0
M  V30 1797 C 166.253 -4.11775 1.21408 0
M  V30 1798 C 165.486 -5.29555 0.663891 0
M  V30 1799 O 165.709 -5.68077 -0.514274 0
M  V30 1800 O 164.643 -5.84973 1.41738 0
M  V30 1801 H 168.469 -2.55074 1.64836 0
M  V30 1802 H 166.054 -1.21791 0.865289 0
M  V30 1803 H 167.936 -4.21107 -0.157073 0
M  V30 1804 H 166.611 -3.15593 -0.719932 0
M  V30 1805 H 165.518 -3.3883 1.58571 0
M  V30 1806 H 166.851 -4.46627 2.06845 0
M  V30 1807 N 168.503 -0.877838 -1.30888 0
M  V30 1808 C 169.751 -0.491723 -1.96027 0
M  V30 1809 C 170.072 0.960827 -1.69685 0
M  V30 1810 O 169.342 1.67462 -1.01654 0
M  V30 1811 H 167.922 -0.17885 -0.725273 0
M  V30 1812 H 170.584 -1.11935 -1.59551 0
M  V30 1813 H 169.68 -0.656016 -3.05128 0
M  V30 1814 N 169.982 1.44106 -0.638065 0
M  V30 1815 C 171.393 1.85316 -0.226894 0
M  V30 1816 C 171.744 1.53399 1.22324 0
M  V30 1817 O 170.869 0.975463 1.93167 0
M  V30 1818 C 171.464 3.3637 -0.405013 0
M  V30 1819 C 170.023 3.76369 -0.0482902 0
M  V30 1820 C 169.17 2.67921 -0.715108 0
M  V30 1821 H 172.121 1.34474 -0.842764 0
M  V30 1822 H 172.142 3.7885 0.354 0
M  V30 1823 H 171.654 3.59569 -1.46053 0
M  V30 1824 H 169.755 3.58784 1.00522 0
M  V30 1825 H 169.868 4.76856 -0.463187 0
M  V30 1826 H 168.232 2.54259 -0.149753 0
M  V30 1827 H 169.015 2.93951 -1.77335 0
M  V30 1828 N 171.46 0.379036 1.52974 0
M  V30 1829 C 172.408 -0.476033 2.27677 0
M  V30 1830 C 173.402 -1.0719 1.31174 0
M  V30 1831 O 174.608 -1.01355 1.48752 0
M  V30 1832 H 170.983 -0.172255 0.732006 0
M  V30 1833 H 172.954 0.175615 2.97883 0
M  V30 1834 C 171.703 -1.5967 3.0887 0
M  V30 1835 H 171.026 -1.1475 3.82978 0
M  V30 1836 H 172.466 -2.16943 3.64296 0
M  V30 1837 C 170.925 -2.54682 2.20542 0
M  V30 1838 O 171.455 -3.57836 1.82527 0
M  V30 1839 N 169.661 -2.24183 1.84907 0
M  V30 1840 H 169.208 -1.40333 2.1602 0
M  V30 1841 H 169.166 -2.88006 1.26096 0
M  V30 1842 N 172.938 -1.57226 0.108567 0
M  V30 1843 C 174.349 -1.8195 -0.418464 0
M  V30 1844 C 174.7 -1.02508 -1.67292 0
M  V30 1845 O 173.825 -0.258496 -2.14851 0
M  V30 1846 C 174.42 -3.30028 -0.765979 0
M  V30 1847 C 172.979 -3.55469 -1.23769 0
M  V30 1848 C 172.126 -2.7625 -0.241106 0
M  V30 1849 H 175.077 -1.55149 0.33384 0
M  V30 1850 H 175.098 -3.44086 -1.62434 0
M  V30 1851 H 174.61 -3.87821 0.147219 0
M  V30 1852 H 172.711 -3.03022 -2.16814 0
M  V30 1853 H 172.824 -4.6408 -1.19022 0
M  V30 1854 H 171.188 -2.44133 -0.72602 0
M  V30 1855 H 171.971 -3.36797 0.665007 0
M  V30 1856 N 174.416 0.165178 -1.56732 0
M  V30 1857 C 175.326 1.22423 -2.00125 0
M  V30 1858 C 176.342 1.48084 -0.913619 0
M  V30 1859 O 177.518 1.60112 -1.22172 0
M  V30 1860 C 174.583 2.54197 -2.35764 0
M  V30 1861 C 173.644 2.36343 -3.58386 0
M  V30 1862 C 172.877 3.61834 -3.92316 0
M  V30 1863 O 173.1 4.67267 -3.27135 0
M  V30 1864 O 172.034 3.55579 -4.85641 0
M  V30 1865 H 175.86 0.885886 -2.90492 0
M  V30 1866 H 173.445 0.372518 -1.44681 0
M  V30 1867 H 175.327 3.3192 -2.59629 0
M  V30 1868 H 174.002 2.87598 -1.48557 0
M  V30 1869 H 172.909 1.56632 -3.39731 0
M  V30 1870 H 174.242 2.07865 -4.46154 0
M  V30 1871 N 175.894 1.51508 0.433938 0
M  V30 1872 C 177.31 1.39759 0.770682 0
M  V30 1873 C 177.51 0.482594 1.95636 0
M  V30 1874 O 176.566 -0.0609691 2.52426 0
M  V30 1875 C 177.879 2.81851 1.04787 0
M  V30 1876 C 179.427 2.91025 1.1521 0
M  V30 1877 C 179.902 4.34032 1.46219 0
M  V30 1878 N 181.393 4.37154 1.53136 0
M  V30 1879 C 182.128 5.4484 1.78709 0
M  V30 1880 N 181.624 6.62682 2.02051 0
M  V30 1881 N 183.417 5.32324 1.80519 0
M  V30 1882 H 175.568 2.09548 -0.346892 0
M  V30 1883 H 177.831 0.943446 -0.0928074 0
M  V30 1884 H 177.537 3.50815 0.249304 0
M  V30 1885 H 177.411 3.21386 1.97461 0
M  V30 1886 H 179.798 2.22257 1.94128 0
M  V30 1887 H 179.879 2.54983 0.204281 0
M  V30 1888 H 179.523 5.03351 0.678274 0
M  V30 1889 H 179.453 4.6759 2.42212 0
M  V30 1890 H 181.944 3.52197 1.36987 0
M  V30 1891 H 182.257 7.40543 2.20943 0
M  V30 1892 H 180.602 6.65791 1.99366 0
M  V30 1893 H 183.793 4.39246 1.61805 0
M  V30 1894 H 183.966 6.16328 2.00111 0
M  V30 1895 N 177.372 -0.689602 1.41712 0
M  V30 1896 C 178.619 -1.44966 1.4139 0
M  V30 1897 C 178.947 -1.94484 0.025105 0
M  V30 1898 O 178.202 -1.70307 -0.964048 0
M  V30 1899 C 178.501 -2.67298 2.37247 0
M  V30 1900 C 178.167 -2.36405 3.83958 0
M  V30 1901 C 176.829 -2.27691 4.23923 0
M  V30 1902 C 179.181 -2.11043 4.76561 0
M  V30 1903 C 176.509 -1.91719 5.54492 0
M  V30 1904 C 178.861 -1.76578 6.07456 0
M  V30 1905 C 177.525 -1.66363 6.46436 0
M  V30 1906 H 176.795 -0.53047 0.517381 0
M  V30 1907 H 179.442 -0.787655 1.74552 0
M  V30 1908 H 177.747 -3.38461 1.9736 0
M  V30 1909 H 179.444 -3.25452 2.34269 0
M  V30 1910 H 176.034 -2.44085 3.52308 0
M  V30 1911 H 180.218 -2.16717 4.46483 0
M  V30 1912 H 175.474 -1.82367 5.83568 0
M  V30 1913 H 179.648 -1.55974 6.78708 0
M  V30 1914 H 177.275 -1.38258 7.47522 0
M  V30 1915 N 178.85 -1.27639 -0.924453 0
M  V30 1916 C 179.78 -1.13166 -2.04244 0
M  V30 1917 C 180.761 -0.032256 -1.70069 0
M  V30 1918 O 181.946 -0.207328 -1.9309 0
M  V30 1919 C 179.076 -0.781496 -3.38393 0
M  V30 1920 C 178.03 -1.83449 -3.86692 0
M  V30 1921 C 177.356 -1.33822 -5.17683 0
M  V30 1922 C 178.656 -3.23917 -4.09726 0
M  V30 1923 H 180.35 -2.06689 -2.1661 0
M  V30 1924 H 177.896 -0.995136 -1.04082 0
M  V30 1925 H 179.849 -0.667057 -4.16087 0
M  V30 1926 H 178.573 0.189439 -3.2605 0
M  V30 1927 H 177.232 -1.93789 -3.11193 0
M  V30 1928 H 176.88 -0.35665 -5.01734 0
M  V30 1929 H 176.58 -2.04224 -5.50968 0
M  V30 1930 H 178.104 -1.23679 -5.97943 0
M  V30 1931 H 179.518 -3.16559 -4.77978 0
M  V30 1932 H 177.915 -3.92059 -4.54324 0
M  V30 1933 H 178.985 -3.68729 -3.14908 0
M  V30 1934 N 180.328 1.1314 -1.09713 0
M  V30 1935 C 181.577 1.83838 -0.829851 0
M  V30 1936 C 181.89 1.84599 0.646728 0
M  V30 1937 O 183.096 2.51218 1.02965 0
M  V30 1938 C 181.552 3.30069 -1.43466 0
M  V30 1939 C 181.16 3.37688 -2.94399 0
M  V30 1940 C 182.904 4.05788 -1.24645 0
M  V30 1941 C 180.811 4.78209 -3.47952 0
M  V30 1942 H 179.741 0.68877 -0.306777 0
M  V30 1943 H 182.392 1.27448 -1.3202 0
M  V30 1944 H 180.774 3.8628 -0.871996 0
M  V30 1945 H 181.948 2.91456 -3.56918 0
M  V30 1946 H 180.263 2.75436 -3.12289 0
M  V30 1947 H 182.86 5.09535 -1.62107 0
M  V30 1948 H 183.203 4.15878 -0.187357 0
M  V30 1949 H 183.736 3.55915 -1.77678 0
M  V30 1950 H 180.475 4.73311 -4.53495 0
M  V30 1951 H 179.995 5.24924 -2.90198 0
M  V30 1952 H 181.674 5.47133 -3.45332 0
M  V30 1953 N 181.806 0.884767 1.30421 0
M  V30 1954 C 183.217 0.553656 1.78302 0
M  V30 1955 C 183.568 -0.930153 1.7275 0
M  V30 1956 O 182.693 -1.72681 1.30423 0
M  V30 1957 C 183.288 0.998234 3.2376 0
M  V30 1958 C 181.847 0.71854 3.69478 0
M  V30 1959 C 180.994 1.18132 2.50879 0
M  V30 1960 H 183.945 1.06901 1.17294 0
M  V30 1961 H 183.966 0.327118 3.79091 0
M  V30 1962 H 183.478 2.0782 3.27769 0
M  V30 1963 H 181.579 -0.349444 3.70958 0
M  V30 1964 H 181.692 1.30595 4.60958 0
M  V30 1965 H 180.056 0.600669 2.47516 0
M  V30 1966 H 180.839 2.26902 2.57624 0
M  V30 1967 N 183.284 -1.43765 0.645699 0
M  V30 1968 C 184.695 -1.85193 0.236719 0
M  V30 1969 C 185.046 -1.54045 -1.21509 0
M  V30 1970 O 184.171 -0.985694 -1.92647 0
M  V30 1971 C 184.766 -3.36151 0.422845 0
M  V30 1972 C 183.325 -3.76338 0.0682492 0
M  V30 1973 C 182.472 -2.67538 0.729306 0
M  V30 1974 H 185.423 -1.34025 0.849883 0
M  V30 1975 H 185.444 -3.79032 -0.333904 0
M  V30 1976 H 184.956 -3.5879 1.47958 0
M  V30 1977 H 183.057 -3.59312 -0.986179 0
M  V30 1978 H 183.17 -4.76603 0.488469 0
M  V30 1979 H 181.534 -2.54176 0.163235 0
M  V30 1980 H 182.317 -2.93006 1.78892 0
M  V30 1981 N 184.763 -0.387143 -1.52771 0
M  V30 1982 C 186.009 0.188506 -2.02525 0
M  V30 1983 C 186.364 1.44649 -1.26864 0
M  V30 1984 O 185.657 1.88189 -0.359945 0
M  V30 1985 C 185.851 0.512209 -3.53711 0
M  V30 1986 C 185.68 -0.712855 -4.44014 0
M  V30 1987 C 184.45 -1.23147 -4.90064 0
M  V30 1988 C 186.648 -1.58453 -4.89282 0
M  V30 1989 N 184.63 -2.41431 -5.64433 0
M  V30 1990 C 186.001 -2.61381 -5.6221 0
M  V30 1991 C 188.056 -1.60488 -4.71326 0
M  V30 1992 C 186.759 -3.66227 -6.19088 0
M  V30 1993 C 188.785 -2.6424 -5.29085 0
M  V30 1994 C 188.147 -3.6589 -6.01917 0
M  V30 1995 H 184.246 0.0311236 -0.78138 0
M  V30 1996 H 186.83 -0.536548 -1.87161 0
M  V30 1997 H 185.001 1.20632 -3.69192 0
M  V30 1998 H 186.733 1.07482 -3.90166 0
M  V30 1999 H 183.488 -0.792795 -4.66917 0
M  V30 2000 H 183.912 -3.01274 -6.0627 0
M  V30 2001 H 188.554 -0.83247 -4.14524 0
M  V30 2002 H 186.272 -4.44337 -6.74974 0
M  V30 2003 H 189.858 -2.66695 -5.17074 0
M  V30 2004 H 188.738 -4.44855 -6.45813 0
M  V30 2005 N 186.241 1.57166 -0.116904 0
M  V30 2006 C 187.487 1.95412 0.542405 0
M  V30 2007 C 187.82 1.00019 1.66463 0
M  V30 2008 O 187.095 0.0370346 1.94465 0
M  V30 2009 C 187.378 3.43615 1.07708 0
M  V30 2010 C 187.231 4.49781 -0.0415868 0
M  V30 2011 C 188.55 3.93616 1.96861 0
M  V30 2012 H 185.669 0.710543 0.195696 0
M  V30 2013 H 188.311 1.89027 -0.192038 0
M  V30 2014 H 186.461 3.49187 1.70296 0
M  V30 2015 H 188.133 4.56308 -0.676793 0
M  V30 2016 H 186.376 4.28033 -0.705019 0
M  V30 2017 H 187.047 5.50733 0.373717 0
M  V30 2018 H 189.523 3.90335 1.44146 0
M  V30 2019 H 188.399 4.97838 2.3119 0
M  V30 2020 H 188.66 3.34188 2.89432 0
M  V30 2021 N 187.719 -0.156864 1.56817 0
M  V30 2022 C 188.682 -1.17781 1.96622 0
M  V30 2023 C 189.682 -1.36401 0.851555 0
M  V30 2024 O 190.872 -1.33561 1.11836 0
M  V30 2025 C 188.004 -2.54008 2.27361 0
M  V30 2026 H 189.197 -0.836564 2.87996 0
M  V30 2027 H 186.75 -0.39985 1.51099 0
M  V30 2028 H 187.485 -2.9312 1.38748 0
M  V30 2029 H 187.27 -2.41856 3.08623 0
M  V30 2030 H 188.76 -3.27558 2.59029 0
M  V30 2031 N 189.197 -1.51736 -0.425897 0
M  V30 2032 C 190.427 -1.68549 -1.19476 0
M  V30 2033 C 190.835 -0.387288 -1.85194 0
M  V30 2034 O 190.178 0.645142 -1.71999 0
M  V30 2035 C 190.24 -2.75275 -2.31223 0
M  V30 2036 C 189.904 -4.17534 -1.8578 0
M  V30 2037 C 190.901 -5.01936 -1.35485 0
M  V30 2038 C 188.586 -4.6369 -1.93123 0
M  V30 2039 C 190.58 -6.30559 -0.931347 0
M  V30 2040 C 188.267 -5.92307 -1.50384 0
M  V30 2041 C 189.265 -6.75569 -1.00473 0
M  V30 2042 O 188.953 -8.0178 -0.583452 0
M  V30 2043 H 188.685 -0.568525 -0.365725 0
M  V30 2044 H 191.239 -1.98982 -0.509444 0
M  V30 2045 H 189.469 -2.40182 -3.03067 0
M  V30 2046 H 191.158 -2.80853 -2.93047 0
M  V30 2047 H 191.924 -4.67475 -1.29197 0
M  V30 2048 H 187.803 -3.98997 -2.30916 0
M  V30 2049 H 191.347 -6.95498 -0.541084 0
M  V30 2050 H 187.244 -6.2628 -1.56346 0
M  V30 2051 H 188.012 -8.1543 -0.708275 0
M  V30 2052 N 190.675 0.682077 -1.42076 0
M  V30 2053 C 191.625 1.78823 -1.41444 0
M  V30 2054 C 192.609 1.58323 -0.28681 0
M  V30 2055 O 193.801 1.68926 -0.528498 0
M  V30 2056 C 190.93 3.17232 -1.3122 0
M  V30 2057 C 190.016 3.4338 -2.489 0
M  V30 2058 N 190.407 3.40152 -3.7434 0
M  V30 2059 C 188.705 3.73986 -2.43003 0
M  V30 2060 C 189.406 3.65581 -4.52466 0
M  V30 2061 N 188.382 3.85989 -3.8277 0
M  V30 2062 H 192.184 1.7471 -2.36334 0
M  V30 2063 H 189.698 0.882622 -1.36321 0
M  V30 2064 H 191.695 3.96489 -1.2885 0
M  V30 2065 H 190.355 3.22547 -0.373263 0
M  V30 2066 H 191.366 3.20221 -4.07037 0
M  V30 2067 H 188.043 3.86591 -1.57651 0
M  V30 2068 H 189.433 3.69108 -5.61435 0
M  V30 2069 N 192.153 1.28127 0.917671 0
M  V30 2070 C 193.085 1.07517 2.02417 0
M  V30 2071 C 194.098 0.0281099 1.62776 0
M  V30 2072 O 195.287 0.270748 1.76435 0
M  V30 2073 C 192.387 0.610957 3.33347 0
M  V30 2074 C 191.56 1.73255 4.01624 0
M  V30 2075 C 190.619 1.26238 5.10833 0
M  V30 2076 O 189.645 1.96389 5.34247 0
M  V30 2077 N 190.847 0.123448 5.80369 0
M  V30 2078 H 193.612 2.02806 2.20658 0
M  V30 2079 H 191.173 1.19827 1.08871 0
M  V30 2080 H 193.165 0.280101 4.0373 0
M  V30 2081 H 191.735 -0.24898 3.11607 0
M  V30 2082 H 190.955 2.23319 3.24842 0
M  V30 2083 H 192.243 2.48503 4.43986 0
M  V30 2084 H 191.641 -0.461847 5.63812 0
M  V30 2085 H 190.198 -0.148158 6.51632 0
M  V30 2086 N 193.631 -1.12557 1.10312 0
M  V30 2087 C 194.861 -1.87592 0.865617 0
M  V30 2088 C 195.269 -1.79851 -0.587389 0
M  V30 2089 O 194.612 -1.16949 -1.41664 0
M  V30 2090 C 194.674 -3.37665 1.23381 0
M  V30 2091 C 194.338 -3.69181 2.69359 0
M  V30 2092 C 195.335 -3.67652 3.67597 0
M  V30 2093 C 193.02 -3.98555 3.05711 0
M  V30 2094 C 195.014 -3.95053 5.00212 0
M  V30 2095 C 192.701 -4.25616 4.38514 0
M  V30 2096 C 193.699 -4.23851 5.35574 0
M  V30 2097 O 193.387 -4.50242 6.65986 0
M  V30 2098 H 193.119 -0.600442 0.310557 0
M  V30 2099 H 195.673 -1.4335 1.47105 0
M  V30 2100 H 193.903 -3.82454 0.571467 0
M  V30 2101 H 195.592 -3.94041 0.973994 0
M  V30 2102 H 196.358 -3.45024 3.40857 0
M  V30 2103 H 192.237 -3.99071 2.30789 0
M  V30 2104 H 195.781 -3.93591 5.75962 0
M  V30 2105 H 191.678 -4.47718 4.64994 0
M  V30 2106 H 192.446 -4.67867 6.71597 0
M  V30 2107 N 195.109 -0.891671 -1.2995 0
M  V30 2108 C 196.339 -0.527893 -1.99742 0
M  V30 2109 C 196.747 0.88979 -1.66971 0
M  V30 2110 O 196.09 1.59766 -0.906667 0
M  V30 2111 C 196.152 -0.630804 -3.53922 0
M  V30 2112 C 195.816 -2.01401 -4.10228 0
M  V30 2113 C 196.813 -2.98422 -4.25724 0
M  V30 2114 C 194.498 -2.32121 -4.45449 0
M  V30 2115 C 196.492 -4.24293 -4.75662 0
M  V30 2116 C 194.179 -3.58237 -4.95086 0
M  V30 2117 C 195.177 -4.54137 -5.10146 0
M  V30 2118 O 194.865 -5.78014 -5.58708 0
M  V30 2119 H 194.597 -0.201953 -0.645129 0
M  V30 2120 H 197.151 -1.20076 -1.66646 0
M  V30 2121 H 195.381 0.0990616 -3.86573 0
M  V30 2122 H 197.07 -0.277338 -4.04951 0
M  V30 2123 H 197.836 -2.76001 -3.98809 0
M  V30 2124 H 193.715 -1.5824 -4.32991 0
M  V30 2125 H 197.259 -4.99153 -4.87332 0
M  V30 2126 H 193.156 -3.80491 -5.21437 0
M  V30 2127 H 193.924 -5.8049 -5.77039 0
M  V30 2128 N 196.587 1.43421 -0.653314 0
M  V30 2129 C 197.519 2.29071 0.0769134 0
M  V30 2130 C 198.532 1.42513 0.787017 0
M  V30 2131 O 199.721 1.66449 0.644757 0
M  V30 2132 C 196.821 3.19436 1.13199 0
M  V30 2133 C 195.994 4.34533 0.500006 0
M  V30 2134 C 195.053 5.05771 1.45198 0
M  V30 2135 O 194.079 5.61037 0.960538 0
M  V30 2136 N 195.281 5.0928 2.78594 0
M  V30 2137 H 198.046 2.92382 -0.658235 0
M  V30 2138 H 195.607 1.54112 -0.496104 0
M  V30 2139 H 197.599 3.63958 1.76964 0
M  V30 2140 H 196.169 2.57724 1.7691 0
M  V30 2141 H 195.389 3.92925 -0.316738 0
M  V30 2142 H 196.677 5.08766 0.0588345 0
M  V30 2143 H 196.075 4.65751 3.2108 0
M  V30 2144 H 194.632 5.57519 3.37662 0
M  V30 2145 N 198.065 0.39524 1.52563 0
M  V30 2146 C 199.481 0.0454682 1.59535 0
M  V30 2147 C 199.681 -1.44056 1.4089 0
M  V30 2148 O 198.737 -2.20579 1.22888 0
M  V30 2149 C 200.05 0.527963 2.96029 0
M  V30 2150 C 201.598 0.484733 3.09224 0
M  V30 2151 C 202.073 0.943512 4.48176 0
M  V30 2152 N 203.564 0.899765 4.54377 0
M  V30 2153 C 204.299 1.22609 5.60138 0
M  V30 2154 N 203.795 1.62319 6.73516 0
M  V30 2155 N 205.588 1.14696 5.50274 0
M  V30 2156 H 197.739 1.36261 1.62931 0
M  V30 2157 H 200.002 0.558887 0.765735 0
M  V30 2158 H 199.708 1.56607 3.14908 0
M  V30 2159 H 199.582 -0.0698056 3.77135 0
M  V30 2160 H 201.969 -0.544298 2.90037 0
M  V30 2161 H 202.05 1.11838 2.30056 0
M  V30 2162 H 201.694 1.9708 4.68104 0
M  V30 2163 H 201.624 0.286817 5.25818 0
M  V30 2164 H 204.115 0.607632 3.72983 0
M  V30 2165 H 204.428 1.85567 7.5019 0
M  V30 2166 H 202.773 1.66211 6.74833 0
M  V30 2167 H 205.964 0.835701 4.6058 0
M  V30 2168 H 206.137 1.40459 6.32594 0
M  V30 2169 N 199.544 -1.57102 0.125237 0
M  V30 2170 C 200.955 -1.82384 -0.399142 0
M  V30 2171 C 201.306 -1.04276 -1.66195 0
M  V30 2172 O 200.431 -0.281269 -2.14564 0
M  V30 2173 C 201.026 -3.30821 -0.730932 0
M  V30 2174 C 199.585 -3.56762 -1.19992 0
M  V30 2175 C 198.732 -2.7649 -0.211792 0
M  V30 2176 H 201.683 -1.54786 0.350277 0
M  V30 2177 H 201.704 -3.4579 -1.58775 0
M  V30 2178 H 201.216 -3.87643 0.188345 0
M  V30 2179 H 199.317 -3.05305 -2.13588 0
M  V30 2180 H 199.43 -4.65317 -1.14093 0
M  V30 2181 H 197.794 -2.4489 -0.700085 0
M  V30 2182 H 198.577 -3.36073 0.700691 0
M  V30 2183 N 201.022 0.148545 -1.56898 0
M  V30 2184 C 202.271 0.85984 -1.82454 0
M  V30 2185 C 202.584 1.82406 -0.706229 0
M  V30 2186 O 203.79 2.57938 -0.847349 0
M  V30 2187 C 202.246 1.57967 -3.2338 0
M  V30 2188 C 201.854 0.65794 -4.43142 0
M  V30 2189 C 203.598 2.27784 -3.58211 0
M  V30 2190 C 201.505 1.3793 -5.75091 0
M  V30 2191 H 200.435 0.324834 -0.68044 0
M  V30 2192 H 203.086 0.112588 -1.83154 0
M  V30 2193 H 201.468 2.37249 -3.17063 0
M  V30 2194 H 202.642 -0.0995497 -4.60692 0
M  V30 2195 H 200.957 0.0682643 -4.16344 0
M  V30 2196 H 203.554 2.8239 -4.54048 0
M  V30 2197 H 203.897 3.04204 -2.84193 0
M  V30 2198 H 204.43 1.55421 -3.66182 0
M  V30 2199 H 201.169 0.656982 -6.52199 0
M  V30 2200 H 200.689 2.10954 -5.61479 0
M  V30 2201 H 202.368 1.92063 -6.17835 0
M  V30 2202 N 202.5 1.5196 0.417844 0
M  V30 2203 C 203.748 1.65263 1.16329 0
M  V30 2204 C 204.069 0.380634 1.91249 0
M  V30 2205 O 203.339 -0.604214 1.86349 0
M  V30 2206 H 201.919 0.60912 0.432414 0
M  V30 2207 H 204.581 1.88969 0.477162 0
M  V30 2208 H 203.677 2.4896 1.88217 0
M  V30 2209 N 203.978 -0.674533 1.42435 0
M  V30 2210 C 205.224 -1.43671 1.43131 0
M  V30 2211 C 205.557 -1.94142 0.0476021 0
M  V30 2212 O 204.832 -1.70924 -0.928188 0
M  V30 2213 C 205.115 -2.63355 2.45594 0
M  V30 2214 C 204.968 -2.18514 3.93156 0
M  V30 2215 C 206.287 -3.65571 2.45043 0
M  V30 2216 H 203.406 -0.521077 0.521198 0
M  V30 2217 H 206.048 -0.766551 1.7385 0
M  V30 2218 H 204.198 -3.2053 2.19528 0
M  V30 2219 H 205.87 -1.66504 4.30202 0
M  V30 2220 H 204.113 -1.50086 4.07009 0
M  V30 2221 H 204.784 -3.04484 4.60428 0
M  V30 2222 H 207.26 -3.18113 2.68223 0
M  V30 2223 H 206.136 -4.46893 3.18713 0
M  V30 2224 H 206.397 -4.16716 1.47649 0
M  V30 2225 N 205.456 -1.28612 -0.910864 0
M  V30 2226 C 206.386 -1.15326 -2.03032 0
M  V30 2227 C 207.367 -0.0502924 -1.70026 0
M  V30 2228 O 208.552 -0.227797 -1.92859 0
M  V30 2229 C 205.682 -0.817343 -3.37545 0
M  V30 2230 C 204.636 -1.8754 -3.84724 0
M  V30 2231 C 203.962 -1.39305 -5.16235 0
M  V30 2232 C 205.262 -3.28244 -4.06267 0
M  V30 2233 H 206.956 -2.08975 -2.14406 0
M  V30 2234 H 204.502 -1.00612 -1.03021 0
M  V30 2235 H 206.455 -0.711151 -4.15356 0
M  V30 2236 H 205.179 0.154846 -3.26233 0
M  V30 2237 H 203.838 -1.97079 -3.09121 0
M  V30 2238 H 203.486 -0.409846 -5.01328 0
M  V30 2239 H 203.186 -2.10057 -5.48771 0
M  V30 2240 H 204.71 -1.30014 -5.96598 0
M  V30 2241 H 206.124 -3.21611 -4.74594 0
M  V30 2242 H 204.521 -3.96855 -4.5014 0
M  V30 2243 H 205.591 -3.72048 -3.10979 0
M  V30 2244 N 206.934 1.1197 -1.10907 0
M  V30 2245 C 207.864 2.19928 -0.784473 0
M  V30 2246 C 208.845 1.6833 0.244726 0
M  V30 2247 O 210.03 1.93892 0.109418 0
M  V30 2248 C 207.16 3.46597 -0.220827 0
M  V30 2249 C 206.114 4.11376 -1.18127 0
M  V30 2250 C 205.44 5.32554 -0.478594 0
M  V30 2251 C 206.74 4.56945 -2.52979 0
M  V30 2252 H 208.434 2.47337 -1.68715 0
M  V30 2253 H 205.98 1.18879 -0.812642 0
M  V30 2254 H 207.933 4.21396 0.0184278 0
M  V30 2255 H 206.657 3.1863 0.717113 0
M  V30 2256 H 205.316 3.38564 -1.40606 0
M  V30 2257 H 204.964 5.00856 0.463976 0
M  V30 2258 H 204.664 5.76844 -1.11912 0
M  V30 2259 H 206.188 6.10096 -0.248 0
M  V30 2260 H 207.602 5.23093 -2.3462 0
M  V30 2261 H 205.999 5.1203 -3.12962 0
M  V30 2262 H 207.069 3.70676 -3.12614 0
M  V30 2263 N 208.412 0.89855 1.29475 0
M  V30 2264 C 209.359 0.373819 2.27753 0
M  V30 2265 C 210.329 -0.543444 1.56958 0
M  V30 2266 O 211.514 -0.468934 1.84948 0
M  V30 2267 C 208.654 -0.393648 3.42848 0
M  V30 2268 C 207.767 0.554379 4.28428 0
M  V30 2269 C 206.902 -0.230026 5.30702 0
M  V30 2270 C 205.941 0.712599 6.07938 0
M  V30 2271 N 205.078 -0.0373283 7.0209 0
M  V30 2272 H 209.918 1.21699 2.72017 0
M  V30 2273 H 207.455 0.611456 1.33789 0
M  V30 2274 H 209.413 -0.85466 4.08352 0
M  V30 2275 H 208.043 -1.20128 2.99615 0
M  V30 2276 H 207.095 1.13391 3.63107 0
M  V30 2277 H 208.407 1.27597 4.82204 0
M  V30 2278 H 207.561 -0.752288 6.02018 0
M  V30 2279 H 206.3 -0.984758 4.77654 0
M  V30 2280 H 205.305 1.24637 5.35486 0
M  V30 2281 H 206.53 1.46664 6.63074 0
M  V30 2282 H 204.476 -0.774348 6.51414 0
M  V30 2283 H 204.393 0.624374 7.53417 0
M  V30 2284 H 205.661 -0.539891 7.77628 0
M  V30 2285 N 209.89 -1.43072 0.660911 0
M  V30 2286 C 210.837 -2.30785 -0.0259884 0
M  V30 2287 C 211.807 -1.45184 -0.806888 0
M  V30 2288 O 212.992 -1.74041 -0.781943 0
M  V30 2289 C 210.132 -3.30861 -0.981067 0
M  V30 2290 C 209.245 -4.31558 -0.195458 0
M  V30 2291 C 208.38 -5.18712 -1.14503 0
M  V30 2292 C 207.419 -6.11097 -0.350299 0
M  V30 2293 N 206.556 -6.90849 -1.25186 0
M  V30 2294 H 211.396 -2.88975 0.727846 0
M  V30 2295 H 208.933 -1.42353 0.370682 0
M  V30 2296 H 210.891 -3.87399 -1.54849 0
M  V30 2297 H 209.521 -2.74304 -1.70169 0
M  V30 2298 H 208.573 -3.77252 0.488374 0
M  V30 2299 H 209.885 -4.9701 0.422176 0
M  V30 2300 H 209.039 -5.79914 -1.78284 0
M  V30 2301 H 207.778 -4.53404 -1.79656 0
M  V30 2302 H 206.783 -5.48976 0.300808 0
M  V30 2303 H 208.008 -6.7845 0.296941 0
M  V30 2304 H 205.954 -6.28182 -1.89005 0
M  V30 2305 H 205.871 -7.52854 -0.688971 0
M  V30 2306 H 207.139 -7.5655 -1.87757 0
M  V30 2307 N 211.368 -0.403325 -1.52352 0
M  V30 2308 C 212.593 0.176499 -2.06648 0
M  V30 2309 C 213.018 1.38577 -1.27193 0
M  V30 2310 O 212.376 1.7879 -0.300637 0
M  V30 2311 C 212.424 0.511061 -3.5696 0
M  V30 2312 O 211.528 1.60294 -3.79973 0
M  V30 2313 H 210.869 0.0167337 -0.663789 0
M  V30 2314 H 213.399 -0.574848 -1.96359 0
M  V30 2315 H 213.409 0.771362 -4.00642 0
M  V30 2316 H 212.084 -0.37296 -4.14224 0
M  V30 2317 H 210.661 1.33526 -3.48174 0
M  V30 2318 N 212.846 1.57033 -0.133567 0
M  V30 2319 C 213.809 2.14897 0.796995 0
M  V30 2320 C 214.809 1.0874 1.18458 0
M  V30 2321 O 215.999 1.34446 1.1077 0
M  V30 2322 C 213.131 2.70112 2.07973 0
M  V30 2323 H 214.324 2.98457 0.293873 0
M  V30 2324 H 211.877 1.55871 0.115787 0
M  V30 2325 H 212.612 1.9018 2.62682 0
M  V30 2326 H 212.397 3.47764 1.81115 0
M  V30 2327 H 213.887 3.14738 2.74462 0
M  V30 2328 N 214.325 -0.140222 1.56975 0
M  V30 2329 C 215.288 -1.15689 1.97861 0
M  V30 2330 C 216.288 -1.3549 0.865974 0
M  V30 2331 O 217.478 -1.32367 1.13246 0
M  V30 2332 C 214.61 -2.51582 2.30042 0
M  V30 2333 H 215.803 -0.805971 2.88867 0
M  V30 2334 H 213.356 -0.383801 1.51515 0
M  V30 2335 H 214.091 -2.91632 1.41849 0
M  V30 2336 H 213.876 -2.38569 3.11171 0
M  V30 2337 H 215.366 -3.24792 2.62488 0
M  V30 2338 N 215.803 -1.52179 -0.40978 0
M  V30 2339 C 217.049 -1.67408 -1.15525 0
M  V30 2340 C 217.404 -0.398746 -1.88223 0
M  V30 2341 O 216.697 0.60678 -1.81738 0
M  V30 2342 C 216.891 -2.83428 -2.17723 0
M  V30 2343 C 216.72 -4.22121 -1.55061 0
M  V30 2344 C 215.49 -4.87657 -1.3236 0
M  V30 2345 C 217.688 -5.04248 -1.01185 0
M  V30 2346 N 215.67 -6.10387 -0.655834 0
M  V30 2347 C 217.041 -6.18209 -0.470963 0
M  V30 2348 C 219.096 -4.89583 -0.906252 0
M  V30 2349 C 217.799 -7.1911 0.165172 0
M  V30 2350 C 219.825 -5.90718 -0.28397 0
M  V30 2351 C 219.187 -7.03969 0.246243 0
M  V30 2352 H 215.286 -0.666251 -0.409431 0
M  V30 2353 H 217.87 -1.89482 -0.447729 0
M  V30 2354 H 216.041 -2.6297 -2.85834 0
M  V30 2355 H 217.773 -2.87697 -2.84627 0
M  V30 2356 H 214.528 -4.46007 -1.59294 0
M  V30 2357 H 214.952 -6.76153 -0.338596 0
M  V30 2358 H 219.594 -4.02253 -1.302 0
M  V30 2359 H 217.312 -8.06066 0.572986 0
M  V30 2360 H 220.898 -5.81443 -0.203792 0
M  V30 2361 H 219.778 -7.80886 0.720173 0
M  V30 2362 N 217.281 0.66697 -1.42791 0
M  V30 2363 C 218.228 1.7803 -1.4688 0
M  V30 2364 C 219.198 1.6299 -0.319919 0
M  V30 2365 O 220.383 1.83432 -0.525118 0
M  V30 2366 C 217.523 3.1611 -1.38451 0
M  V30 2367 C 216.636 3.42381 -2.63437 0
M  V30 2368 C 215.771 4.70232 -2.47094 0
M  V30 2369 C 214.81 4.89564 -3.67415 0
M  V30 2370 N 213.947 6.08661 -3.49966 0
M  V30 2371 H 218.787 1.7387 -2.42019 0
M  V30 2372 H 216.324 0.84868 -1.20149 0
M  V30 2373 H 218.282 3.95914 -1.31561 0
M  V30 2374 H 216.912 3.19374 -0.469033 0
M  V30 2375 H 215.964 2.56774 -2.80662 0
M  V30 2376 H 217.276 3.52557 -3.52853 0
M  V30 2377 H 216.43 5.5814 -2.37834 0
M  V30 2378 H 215.169 4.62353 -1.5518 0
M  V30 2379 H 214.174 4.00096 -3.77099 0
M  V30 2380 H 215.399 4.99282 -4.6032 0
M  V30 2381 H 213.345 6.0194 -2.60776 0
M  V30 2382 H 213.262 6.19733 -4.32975 0
M  V30 2383 H 214.53 6.99226 -3.44532 0
M  V30 2384 N 218.759 1.29093 0.90403 0
M  V30 2385 C 219.706 1.13853 2.00764 0
M  V30 2386 C 220.676 0.0330084 1.66067 0
M  V30 2387 O 221.861 0.199733 1.89752 0
M  V30 2388 C 219.001 0.816537 3.35301 0
M  V30 2389 C 218.114 2.00206 3.82807 0
M  V30 2390 C 217.249 1.61983 5.059 0
M  V30 2391 C 216.288 2.77143 5.45764 0
M  V30 2392 N 215.425 2.39346 6.60044 0
M  V30 2393 H 220.265 2.08276 2.13132 0
M  V30 2394 H 217.802 1.03648 1.04381 0
M  V30 2395 H 219.76 0.610557 4.12708 0
M  V30 2396 H 218.39 -0.090779 3.22672 0
M  V30 2397 H 217.442 2.31988 3.01473 0
M  V30 2398 H 218.754 2.86512 4.08304 0
M  V30 2399 H 217.908 1.37649 5.90879 0
M  V30 2400 H 216.647 0.728202 4.82233 0
M  V30 2401 H 215.652 3.02165 4.59322 0
M  V30 2402 H 216.877 3.66964 5.71414 0
M  V30 2403 H 214.823 1.52665 6.37989 0
M  V30 2404 H 214.74 3.19185 6.85315 0
M  V30 2405 H 216.008 2.1832 7.48303 0
M  V30 2406 N 220.237 -1.11381 1.11499 0
M  V30 2407 C 221.514 -1.7955 0.775965 0
M  V30 2408 C 221.894 -1.97859 -0.73588 0
M  V30 2409 O 221.242 -1.56376 -1.66609 0
M  V30 2410 C 221.452 -3.13196 1.53977 0
M  V30 2411 C 222.8 -3.88227 1.71944 0
M  V30 2412 O 223.824 -3.22887 1.50407 0
M  V30 2413 O 222.683 -5.05477 2.07738 0
M  V30 2414 H 219.777 -0.777728 0.28119 0
M  V30 2415 H 222.323 -1.18118 1.21845 0
M  V30 2416 H 221.095 -2.95229 2.56818 0
M  V30 2417 H 220.718 -3.82342 1.09088 0
M  V30 2418 N 221.715 -0.905404 -1.28997 0
M  V30 2419 C 223.131 -0.60233 -1.47798 0
M  V30 2420 C 223.331 0.854645 -1.82478 0
M  V30 2421 O 222.387 1.63439 -1.92468 0
M  V30 2422 C 223.7 -1.53306 -2.58685 0
M  V30 2423 C 225.248 -1.53887 -2.72558 0
M  V30 2424 C 225.723 -2.45602 -3.86579 0
M  V30 2425 N 227.214 -2.43681 -3.93921 0
M  V30 2426 C 227.949 -3.11347 -4.81509 0
M  V30 2427 N 227.445 -3.88313 -5.73746 0
M  V30 2428 N 229.238 -3.00476 -4.75048 0
M  V30 2429 H 221.389 -1.84765 -1.04764 0
M  V30 2430 H 223.652 -0.792025 -0.520961 0
M  V30 2431 H 223.358 -2.57141 -2.39941 0
M  V30 2432 H 223.232 -1.25787 -3.55609 0
M  V30 2433 H 225.619 -0.507941 -2.90696 0
M  V30 2434 H 225.7 -1.85447 -1.76191 0
M  V30 2435 H 225.344 -3.48792 -3.69197 0
M  V30 2436 H 225.274 -2.11349 -4.82327 0
M  V30 2437 H 227.765 -1.87767 -3.27951 0
M  V30 2438 H 228.078 -4.36985 -6.37389 0
M  V30 2439 H 226.423 -3.92419 -5.73614 0
M  V30 2440 H 229.614 -2.39858 -4.01977 0
M  V30 2441 H 229.787 -3.53485 -5.43095 0
M  V30 2442 N 223.193 1.4272 -0.668489 0
M  V30 2443 C 224.439 2.01923 -0.188419 0
M  V30 2444 C 224.772 1.52704 1.19979 0
M  V30 2445 O 224.047 0.726566 1.8042 0
M  V30 2446 C 224.33 3.59451 -0.216085 0
M  V30 2447 C 224.183 4.18864 -1.6393 0
M  V30 2448 C 225.502 4.37903 0.439179 0
M  V30 2449 H 222.621 0.733674 -0.0699412 0
M  V30 2450 H 225.263 1.69822 -0.852076 0
M  V30 2451 H 223.413 3.86929 0.349012 0
M  V30 2452 H 225.085 4.02362 -2.25616 0
M  V30 2453 H 223.328 3.74933 -2.18193 0
M  V30 2454 H 223.999 5.27987 -1.61039 0
M  V30 2455 H 226.475 4.16079 -0.0417878 0
M  V30 2456 H 225.351 5.47519 0.389157 0
M  V30 2457 H 225.612 4.15303 1.51577 0
M  V30 2458 N 224.671 0.411399 1.52136 0
M  V30 2459 C 225.634 -0.401089 2.25663 0
M  V30 2460 C 226.634 -0.971732 1.28117 0
M  V30 2461 O 227.824 -0.850254 1.52041 0
M  V30 2462 C 224.956 -1.56483 3.02863 0
M  V30 2463 H 226.149 0.24295 2.98914 0
M  V30 2464 H 223.702 0.163968 1.55438 0
M  V30 2465 H 224.437 -2.24567 2.33967 0
M  V30 2466 H 224.222 -1.16211 3.74483 0
M  V30 2467 H 225.712 -2.13951 3.58629 0
M  V30 2468 N 226.149 -1.5696 0.141893 0
M  V30 2469 C 227.079 -2.19516 -0.795936 0
M  V30 2470 C 228.06 -1.14187 -1.26077 0
M  V30 2471 O 229.245 -1.42511 -1.31925 0
M  V30 2472 C 226.375 -2.81272 -2.03723 0
M  V30 2473 C 225.329 -3.92384 -1.70936 0
M  V30 2474 C 224.655 -4.41052 -3.02287 0
M  V30 2475 C 225.955 -5.13403 -0.959954 0
M  V30 2476 H 227.649 -2.98138 -0.274596 0
M  V30 2477 H 225.195 -1.43406 -0.130636 0
M  V30 2478 H 227.148 -3.237 -2.69808 0
M  V30 2479 H 225.872 -1.99973 -2.58221 0
M  V30 2480 H 224.531 -3.50566 -1.07232 0
M  V30 2481 H 224.179 -3.56582 -3.54765 0
M  V30 2482 H 223.879 -5.15993 -2.81114 0
M  V30 2483 H 225.403 -4.86146 -3.69451 0
M  V30 2484 H 226.817 -5.52706 -1.52279 0
M  V30 2485 H 225.214 -5.94073 -0.848357 0
M  V30 2486 H 226.284 -4.84875 0.0492434 0
M  V30 2487 N 227.627 0.131896 -1.57047 0
M  V30 2488 C 228.575 1.18146 -2.0036 0
M  V30 2489 C 229.569 1.43614 -0.898406 0
M  V30 2490 O 230.775 1.43729 -1.08361 0
M  V30 2491 H 227.15 0.398042 -0.638018 0
M  V30 2492 H 229.121 0.789564 -2.87765 0
M  V30 2493 C 227.87 2.50341 -2.41298 0
M  V30 2494 H 227.193 2.31578 -3.25902 0
M  V30 2495 H 228.633 3.22371 -2.75414 0
M  V30 2496 C 227.092 3.11984 -1.27153 0
M  V30 2497 O 227.622 3.97484 -0.580459 0
M  V30 2498 N 225.828 2.71662 -1.03189 0
M  V30 2499 H 225.375 2.02231 -1.59564 0
M  V30 2500 H 225.333 3.13238 -0.270077 0
M  V30 2501 N 229.106 1.52395 0.401703 0
M  V30 2502 C 230.038 1.72505 1.50912 0
M  V30 2503 C 231.051 0.605468 1.51122 0
M  V30 2504 O 232.24 0.880828 1.55254 0
M  V30 2505 C 229.34 1.75711 2.89791 0
M  V30 2506 C 228.513 3.04824 3.1369 0
M  V30 2507 C 227.572 2.99743 4.32482 0
M  V30 2508 O 226.598 3.73635 4.29402 0
M  V30 2509 N 227.8 2.18047 5.37992 0
M  V30 2510 H 230.565 2.68049 1.34052 0
M  V30 2511 H 228.126 1.50724 0.591084 0
M  V30 2512 H 230.118 1.69834 3.6734 0
M  V30 2513 H 228.688 0.876092 3.00072 0
M  V30 2514 H 227.908 3.2429 2.24119 0
M  V30 2515 H 229.196 3.90221 3.26504 0
M  V30 2516 H 228.594 1.57456 5.43345 0
M  V30 2517 H 227.151 2.18021 6.14256 0
M  V30 2518 N 230.584 -0.659388 1.43143 0
M  V30 2519 C 231.494 -1.80167 1.50256 0
M  V30 2520 C 232.51 -1.69571 0.390106 0
M  V30 2521 O 233.686 -1.90849 0.643319 0
M  V30 2522 C 230.751 -3.16409 1.41725 0
M  V30 2523 C 229.812 -3.38848 2.63591 0
M  V30 2524 C 229.045 -4.68591 2.55458 0
M  V30 2525 O 229.268 -5.47532 1.59891 0
M  V30 2526 O 228.202 -4.92614 3.45854 0
M  V30 2527 H 232.028 -1.77121 2.46702 0
M  V30 2528 H 229.613 -0.817092 1.25076 0
M  V30 2529 H 231.495 -3.9768 1.39387 0
M  V30 2530 H 230.17 -3.20059 0.484118 0
M  V30 2531 H 229.077 -2.57366 2.71502 0
M  V30 2532 H 230.41 -3.4004 3.55856 0
M  V30 2533 N 232.062 -1.29571 -0.897171 0
M  V30 2534 C 233.308 -1.17863 -1.65034 0
M  V30 2535 C 233.641 0.268729 -1.92332 0
M  V30 2536 O 232.916 1.19378 -1.53555 0
M  V30 2537 C 233.199 -1.995 -2.99786 0
M  V30 2538 C 233.052 -3.5239 -2.79538 0
M  V30 2539 C 234.371 -1.82335 -4.00552 0
M  V30 2540 H 231.49 -0.429528 -0.598895 0
M  V30 2541 H 234.132 -1.59072 -1.03905 0
M  V30 2542 H 232.282 -1.64485 -3.51962 0
M  V30 2543 H 233.954 -3.97401 -2.34244 0
M  V30 2544 H 232.197 -3.77187 -2.14273 0
M  V30 2545 H 232.868 -4.04787 -3.75302 0
M  V30 2546 H 235.344 -2.12924 -3.57495 0
M  V30 2547 H 234.22 -2.41801 -4.92771 0
M  V30 2548 H 234.481 -0.779209 -4.35179 0
M  V30 2549 N 233.54 1.10788 -1.12088 0
M  V30 2550 C 234.473 2.16237 -0.729168 0
M  V30 2551 C 235.451 1.60207 0.277921 0
M  V30 2552 O 236.635 1.87707 0.172737 0
M  V30 2553 C 233.762 3.38609 -0.0786848 0
M  V30 2554 C 232.808 4.13322 -1.05201 0
M  V30 2555 S 233.641 4.69371 -2.57781 0
M  V30 2556 C 234.797 5.95058 -1.94053 0
M  V30 2557 H 235.03 2.4913 -1.62239 0
M  V30 2558 H 232.563 1.22519 -0.939603 0
M  V30 2559 H 234.521 4.09473 0.290254 0
M  V30 2560 H 233.182 3.03962 0.791593 0
M  V30 2561 H 232.375 5.01051 -0.544433 0
M  V30 2562 H 231.977 3.48251 -1.36371 0
M  V30 2563 H 234.269 6.65278 -1.28107 0
M  V30 2564 H 235.212 6.50472 -2.79807 0
M  V30 2565 H 235.62 5.46918 -1.39787 0
M  V30 2566 N 235.018 0.912232 1.28515 0
M  V30 2567 C 235.981 0.404223 2.25607 0
M  V30 2568 C 236.981 -0.468602 1.53821 0
M  V30 2569 O 238.171 -0.271873 1.72065 0
M  V30 2570 C 235.303 -0.420653 3.38295 0
M  V30 2571 H 236.496 1.26188 2.7206 0
M  V30 2572 H 234.049 0.691495 1.40171 0
M  V30 2573 H 234.784 -1.29777 2.97201 0
M  V30 2574 H 234.569 0.204935 3.91564 0
M  V30 2575 H 236.059 -0.766971 4.10496 0
M  V30 2576 N 236.496 -1.42363 0.676048 0
M  V30 2577 C 237.907 -1.84649 0.275948 0
M  V30 2578 C 238.258 -1.56588 -1.18214 0
M  V30 2579 O 237.383 -1.02634 -1.90513 0
M  V30 2580 C 237.978 -3.35178 0.494053 0
M  V30 2581 C 236.537 -3.76109 0.148061 0
M  V30 2582 C 235.684 -2.65931 0.785891 0
M  V30 2583 H 238.635 -1.32192 0.878121 0
M  V30 2584 H 238.656 -3.79655 -0.25343 0
M  V30 2585 H 238.168 -3.55571 1.55535 0
M  V30 2586 H 236.269 -3.61323 -0.909742 0
M  V30 2587 H 236.382 -4.7546 0.589454 0
M  V30 2588 H 234.746 -2.53773 0.217113 0
M  V30 2589 H 235.529 -2.89146 1.85067 0
M  V30 2590 N 237.974 -0.419461 -1.51915 0
M  V30 2591 C 238.884 0.407528 -2.31033 0
M  V30 2592 C 239.9 1.04413 -1.3919 0
M  V30 2593 O 241.076 1.0434 -1.72265 0
M  V30 2594 C 238.141 1.50365 -3.12396 0
M  V30 2595 C 237.202 0.889029 -4.19994 0
M  V30 2596 C 236.435 1.93291 -4.97468 0
M  V30 2597 O 236.658 3.15259 -4.75361 0
M  V30 2598 O 235.592 1.53339 -5.8204 0
M  V30 2599 H 239.418 -0.237865 -3.02767 0
M  V30 2600 H 237.003 -0.182413 -1.48282 0
M  V30 2601 H 238.885 2.13975 -3.63032 0
M  V30 2602 H 237.56 2.13345 -2.43445 0
M  V30 2603 H 236.467 0.215353 -3.7348 0
M  V30 2604 H 237.8 0.302991 -4.91267 0
M  V30 2605 N 239.452 1.56882 -0.150215 0
M  V30 2606 C 240.415 2.1573 0.774157 0
M  V30 2607 C 241.415 1.0999 1.17298 0
M  V30 2608 O 242.605 1.35613 1.09338 0
M  V30 2609 C 239.737 2.72302 2.05096 0
M  V30 2610 H 240.93 2.98752 0.262201 0
M  V30 2611 H 238.483 1.55985 0.099248 0
M  V30 2612 H 239.218 1.92956 2.6065 0
M  V30 2613 H 239.003 3.49665 1.77416 0
M  V30 2614 H 240.493 3.17632 2.71109 0
M  V30 2615 N 240.93 -0.123565 1.57115 0
M  V30 2616 C 242.158 -0.846461 1.88793 0
M  V30 2617 C 242.573 -1.73652 0.740976 0
M  V30 2618 O 241.93 -1.80207 -0.288393 0
M  V30 2619 C 241.981 -1.6837 3.19897 0
M  V30 2620 O 241.702 -0.829477 4.30176 0
M  V30 2621 C 243.203 -2.51214 3.65248 0
M  V30 2622 H 240.423 -0.243573 0.625231 0
M  V30 2623 H 242.967 -0.109324 2.04208 0
M  V30 2624 H 241.122 -2.37364 3.06165 0
M  V30 2625 H 241.536 -1.40651 5.0529 0
M  V30 2626 H 243.01 -3.05497 4.59756 0
M  V30 2627 H 243.487 -3.28359 2.9168 0
M  V30 2628 H 244.093 -1.8747 3.81752 0
M  V30 2629 N 242.408 -1.52605 -0.393616 0
M  V30 2630 C 243.355 -1.77055 -1.48054 0
M  V30 2631 C 244.325 -0.61358 -1.54352 0
M  V30 2632 O 245.51 -0.852806 -1.70681 0
M  V30 2633 C 242.65 -1.94108 -2.85335 0
M  V30 2634 C 241.763 -3.21792 -2.88226 0
M  V30 2635 C 240.898 -3.29188 -4.16904 0
M  V30 2636 C 239.937 -4.51013 -4.13828 0
M  V30 2637 N 239.074 -4.55716 -5.34105 0
M  V30 2638 H 243.914 -2.69815 -1.26506 0
M  V30 2639 H 241.451 -1.33683 -0.61379 0
M  V30 2640 H 243.409 -2.01979 -3.65049 0
M  V30 2641 H 242.039 -1.04713 -3.05344 0
M  V30 2642 H 241.091 -3.23015 -2.00911 0
M  V30 2643 H 242.403 -4.11557 -2.8182 0
M  V30 2644 H 241.557 -3.36216 -5.05018 0
M  V30 2645 H 240.296 -2.37389 -4.26026 0
M  V30 2646 H 239.301 -4.44115 -3.24102 0
M  V30 2647 H 240.526 -5.44123 -4.06333 0
M  V30 2648 H 238.472 -3.66807 -5.43865 0
M  V30 2649 H 238.389 -5.39346 -5.29756 0
M  V30 2650 H 239.657 -4.66993 -6.2413 0
M  V30 2651 N 243.887 0.651787 -1.4349 0
M  V30 2652 C 244.835 1.78586 -1.49029 0
M  V30 2653 C 245.829 1.65448 -0.363767 0
M  V30 2654 O 247.035 1.71777 -0.537821 0
M  V30 2655 H 243.41 0.589236 -0.467231 0
M  V30 2656 H 245.381 1.71035 -2.44519 0
M  V30 2657 C 244.13 3.16851 -1.43181 0
M  V30 2658 H 243.453 3.27598 -2.29171 0
M  V30 2659 H 244.893 3.96156 -1.51118 0
M  V30 2660 C 243.352 3.36568 -0.149616 0
M  V30 2661 O 243.882 3.93885 0.788509 0
M  V30 2662 N 242.088 2.90539 -0.0593484 0
M  V30 2663 H 241.635 2.4408 -0.823575 0
M  V30 2664 H 241.593 3.04108 0.797853 0
M  V30 2665 N 245.365 1.30045 0.890287 0
M  V30 2666 C 246.612 1.18561 1.64163 0
M  V30 2667 C 246.94 -0.260852 1.92743 0
M  V30 2668 O 246.195 -1.20376 1.54299 0
M  V30 2669 C 246.494 1.95409 2.99249 0
M  V30 2670 C 246.16 3.45066 2.90242 0
M  V30 2671 C 244.822 3.85878 2.87492 0
M  V30 2672 C 247.174 4.4039 2.78758 0
M  V30 2673 C 244.502 5.20314 2.7109 0
M  V30 2674 C 246.854 5.74928 2.63894 0
M  V30 2675 C 245.518 6.14986 2.59516 0
M  V30 2676 H 244.788 0.433846 0.600715 0
M  V30 2677 H 247.435 1.61088 1.03552 0
M  V30 2678 H 245.74 1.45501 3.63781 0
M  V30 2679 H 247.437 1.8392 3.56334 0
M  V30 2680 H 244.027 3.12631 2.93189 0
M  V30 2681 H 248.211 4.09806 2.79952 0
M  V30 2682 H 243.467 5.50449 2.66112 0
M  V30 2683 H 247.641 6.48434 2.53981 0
M  V30 2684 H 245.268 7.19104 2.46565 0
M  V30 2685 N 246.843 -1.10192 1.12674 0
M  V30 2686 C 247.773 -2.18652 0.819362 0
M  V30 2687 C 248.754 -1.68698 -0.217915 0
M  V30 2688 O 249.939 -1.94041 -0.0785581 0
M  V30 2689 C 247.069 -3.46202 0.27594 0
M  V30 2690 C 246.023 -4.09444 1.24656 0
M  V30 2691 C 245.349 -5.31725 0.563258 0
M  V30 2692 C 246.649 -4.52863 2.60217 0
M  V30 2693 H 248.343 -2.44622 1.72628 0
M  V30 2694 H 245.889 -1.17571 0.831451 0
M  V30 2695 H 247.842 -4.21372 0.0486149 0
M  V30 2696 H 246.566 -3.1973 -0.666331 0
M  V30 2697 H 245.225 -3.36284 1.45974 0
M  V30 2698 H 244.873 -5.0153 -0.384235 0
M  V30 2699 H 244.573 -5.74991 1.21075 0
M  V30 2700 H 246.097 -6.09624 0.34503 0
M  V30 2701 H 247.511 -5.19294 2.42913 0
M  V30 2702 H 245.908 -5.06986 3.21068 0
M  V30 2703 H 246.978 -3.65656 3.18471 0
M  V30 2704 N 248.321 -0.919034 -1.28029 0
M  V30 2705 C 249.732 -0.600735 -1.76771 0
M  V30 2706 C 250.083 0.884024 -1.75156 0
M  V30 2707 O 249.208 1.69163 -1.34956 0
M  V30 2708 C 249.803 -1.08372 -3.21 0
M  V30 2709 C 248.362 -0.816248 -3.67443 0
M  V30 2710 C 247.509 -1.24742 -2.47658 0
M  V30 2711 H 250.46 -1.09974 -1.14418 0
M  V30 2712 H 250.481 -0.427512 -3.78091 0
M  V30 2713 H 249.993 -2.16437 -3.22144 0
M  V30 2714 H 248.094 0.250968 -3.71754 0
M  V30 2715 H 248.207 -1.4277 -4.57333 0
M  V30 2716 H 246.571 -0.666083 -2.45836 0
M  V30 2717 H 247.354 -2.33653 -2.51518 0
M  V30 2718 N 249.799 1.42003 -0.683588 0
M  V30 2719 C 250.729 2.33487 -0.024866 0
M  V30 2720 C 251.71 1.51163 0.779975 0
M  V30 2721 O 252.895 1.79739 0.735362 0
M  V30 2722 C 250.025 3.3487 0.920836 0
M  V30 2723 C 248.979 4.27414 0.223958 0
M  V30 2724 C 248.305 5.19074 1.2832 0
M  V30 2725 C 249.605 5.14445 -0.90242 0
M  V30 2726 H 251.299 2.88819 -0.788921 0
M  V30 2727 H 248.845 1.38873 -0.38083 0
M  V30 2728 H 250.798 3.97787 1.39081 0
M  V30 2729 H 249.522 2.77861 1.71642 0
M  V30 2730 H 248.181 3.65904 -0.225864 0
M  V30 2731 H 247.829 4.58387 2.071 0
M  V30 2732 H 247.529 5.81822 0.821995 0
M  V30 2733 H 249.053 5.84867 1.75392 0
M  V30 2734 H 250.467 5.70998 -0.513272 0
M  V30 2735 H 248.864 5.86072 -1.28997 0
M  V30 2736 H 249.934 4.52322 -1.74737 0
M  V30 2737 N 251.277 0.427512 1.51691 0
M  V30 2738 C 252.207 -0.3796 2.30394 0
M  V30 2739 C 253.188 -1.02982 1.35384 0
M  V30 2740 O 254.373 -1.03534 1.643 0
M  V30 2741 C 251.503 -1.48649 3.1388 0
M  V30 2742 C 250.457 -0.960294 4.17088 0
M  V30 2743 C 249.783 -2.16219 4.89033 0
M  V30 2744 C 251.083 -0.00153679 5.223 0
M  V30 2745 H 252.777 0.277164 2.98114 0
M  V30 2746 H 250.323 0.134739 1.43368 0
M  V30 2747 H 252.276 -2.05826 3.67714 0
M  V30 2748 H 251 -2.1714 2.43962 0
M  V30 2749 H 249.659 -0.410806 3.64291 0
M  V30 2750 H 249.307 -2.83307 4.15628 0
M  V30 2751 H 249.007 -1.81654 5.58816 0
M  V30 2752 H 250.531 -2.73968 5.45687 0
M  V30 2753 H 251.945 -0.482687 5.71264 0
M  V30 2754 H 250.342 0.256199 5.99553 0
M  V30 2755 H 251.412 0.938174 4.75738 0
M  V30 2756 N 252.755 -1.56801 0.158532 0
M  V30 2757 C 254.032 -1.88131 -0.535357 0
M  V30 2758 C 254.412 -1.06638 -1.82186 0
M  V30 2759 O 253.76 -0.156533 -2.27963 0
M  V30 2760 C 253.97 -3.39949 -0.789653 0
M  V30 2761 C 255.318 -4.09416 -1.12533 0
M  V30 2762 O 256.342 -3.45194 -0.878622 0
M  V30 2763 O 255.201 -5.22855 -1.59014 0
M  V30 2764 H 252.295 -0.780143 -0.27442 0
M  V30 2765 H 254.841 -1.68564 0.19601 0
M  V30 2766 H 253.613 -3.91115 0.120353 0
M  V30 2767 H 253.236 -3.65084 -1.57479 0
M  V30 2768 N 254.233 0.115231 -1.57178 0
M  V30 2769 C 255.196 1.12526 -1.99676 0
M  V30 2770 C 256.196 1.34095 -0.88742 0
M  V30 2771 O 257.386 1.30548 -1.15337 0
M  V30 2772 C 254.518 2.4789 -2.34015 0
M  V30 2773 H 255.711 0.759912 -2.90113 0
M  V30 2774 H 253.264 0.359648 -1.52106 0
M  V30 2775 H 253.999 2.89339 -1.4647 0
M  V30 2776 H 253.784 2.33588 -3.14927 0
M  V30 2777 H 255.274 3.20575 -2.67622 0
M  V30 2778 N 255.711 1.52812 0.385517 0
M  V30 2779 C 256.957 1.68275 1.13188 0
M  V30 2780 C 257.29 0.423179 1.89533 0
M  V30 2781 O 256.565 -0.579113 1.85679 0
M  V30 2782 C 256.848 2.92001 2.1073 0
M  V30 2783 C 256.701 4.28067 1.38125 0
M  V30 2784 C 258.02 3.11283 3.11113 0
M  V30 2785 H 255.139 0.612352 0.410115 0
M  V30 2786 H 257.781 1.85415 0.414869 0
M  V30 2787 H 255.931 2.77519 2.71874 0
M  V30 2788 H 257.603 4.54324 0.799187 0
M  V30 2789 H 255.846 4.28388 0.683092 0
M  V30 2790 H 256.517 5.10733 2.09417 0
M  V30 2791 H 258.993 3.2482 2.6006 0
M  V30 2792 H 257.869 3.99325 3.76605 0
M  V30 2793 H 258.13 2.25656 3.80173 0
M  V30 2794 N 257.189 -0.644168 1.43834 0
M  V30 2795 C 258.414 -1.43642 1.49605 0
M  V30 2796 C 258.839 -1.8773 0.117913 0
M  V30 2797 O 258.197 -1.57938 -0.890239 0
M  V30 2798 C 258.245 -2.6416 2.45463 0
M  V30 2799 O 257.349 -3.63538 1.94714 0
M  V30 2800 H 256.69 -0.430329 0.50568 0
M  V30 2801 H 259.22 -0.787448 1.8884 0
M  V30 2802 H 259.23 -3.11864 2.63068 0
M  V30 2803 H 257.905 -2.31414 3.45572 0
M  V30 2804 H 256.482 -3.2273 1.86814 0
M  V30 2805 N 258.668 -1.30515 -0.883378 0
M  V30 2806 C 260.084 -1.08881 -1.16692 0
M  V30 2807 C 260.284 0.149409 -2.00945 0
M  V30 2808 O 259.34 0.84257 -2.38027 0
M  V30 2809 C 260.653 -2.35319 -1.87204 0
M  V30 2810 C 262.201 -2.40799 -1.99962 0
M  V30 2811 C 262.676 -3.67083 -2.73887 0
M  V30 2812 N 264.167 -3.679 -2.81432 0
M  V30 2813 C 264.902 -4.62303 -3.3921 0
M  V30 2814 N 264.398 -5.67052 -3.98025 0
M  V30 2815 N 266.191 -4.49845 -3.3704 0
M  V30 2816 H 258.342 -2.09951 -0.321633 0
M  V30 2817 H 260.605 -0.92556 -0.205043 0
M  V30 2818 H 260.311 -3.25689 -1.3274 0
M  V30 2819 H 260.185 -2.44089 -2.87577 0
M  V30 2820 H 262.572 -1.50907 -2.53597 0
M  V30 2821 H 262.653 -2.36003 -0.98673 0
M  V30 2822 H 262.297 -4.57334 -2.20925 0
M  V30 2823 H 262.227 -3.69141 -3.75556 0
M  V30 2824 H 264.718 -2.92171 -2.39676 0
M  V30 2825 H 265.031 -6.35184 -4.40183 0
M  V30 2826 H 263.376 -5.70842 -3.96439 0
M  V30 2827 H 266.567 -3.67194 -2.90321 0
M  V30 2828 H 266.74 -5.23597 -3.81772 0
M  V30 2829 N 260.146 1.09593 -1.13257 0
M  V30 2830 C 261.423 1.78293 -0.804432 0
M  V30 2831 C 261.803 1.99004 0.70431 0
M  V30 2832 O 261.151 1.59007 1.641 0
M  V30 2833 C 261.361 3.10707 -1.5894 0
M  V30 2834 C 262.709 3.85443 -1.78099 0
M  V30 2835 O 263.733 3.20454 -1.55525 0
M  V30 2836 O 262.592 5.02108 -2.15753 0
M  V30 2837 H 259.686 0.773156 -0.293528 0
M  V30 2838 H 262.232 1.16164 -1.23709 0
M  V30 2839 H 261.004 2.91106 -2.61482 0
M  V30 2840 H 260.627 3.80558 -1.15157 0
M  V30 2841 N 261.624 0.925811 1.2754 0
M  V30 2842 C 262.871 0.565255 1.94451 0
M  V30 2843 C 263.199 -0.89316 1.7278 0
M  V30 2844 O 262.454 -1.65213 1.04895 0
M  V30 2845 C 262.753 0.835296 3.47502 0
M  V30 2846 C 262.419 2.27515 3.89291 0
M  V30 2847 C 261.081 2.66879 4.00411 0
M  V30 2848 C 263.433 3.21158 4.10496 0
M  V30 2849 C 260.761 3.99014 4.30122 0
M  V30 2850 C 263.113 4.52871 4.4169 0
M  V30 2851 C 261.777 4.92072 4.51023 0
M  V30 2852 H 261.047 0.206841 0.711546 0
M  V30 2853 H 263.694 1.16942 1.51647 0
M  V30 2854 H 261.999 0.148442 3.91519 0
M  V30 2855 H 263.696 0.535322 3.97411 0
M  V30 2856 H 260.286 1.95976 3.81171 0
M  V30 2857 H 264.47 2.9195 4.01346 0
M  V30 2858 H 259.726 4.2907 4.35556 0
M  V30 2859 H 263.9 5.25436 4.57045 0
M  V30 2860 H 261.527 5.9449 4.738 0
M  V30 2861 N 263.102 -1.41638 0.69111 0
M  V30 2862 C 264.348 -2.01598 0.220519 0
M  V30 2863 C 264.681 -1.54594 -1.17535 0
M  V30 2864 O 263.956 -0.755177 -1.79241 0
M  V30 2865 C 264.239 -3.59062 0.273243 0
M  V30 2866 C 264.092 -4.16203 1.70573 0
M  V30 2867 C 265.411 -4.38546 -0.369457 0
M  V30 2868 H 262.53 -0.732468 0.0816045 0
M  V30 2869 H 265.172 -1.68445 0.878986 0
M  V30 2870 H 263.322 -3.87435 -0.287411 0
M  V30 2871 H 264.994 -3.98722 2.31989 0
M  V30 2872 H 263.237 -3.71414 2.2413 0
M  V30 2873 H 263.908 -5.25358 1.69419 0
M  V30 2874 H 266.384 -4.1596 0.107977 0
M  V30 2875 H 265.26 -5.48069 -0.302002 0
M  V30 2876 H 265.521 -4.17662 -1.44951 0
M  V30 2877 N 264.58 -0.43555 -1.51462 0
M  V30 2878 C 265.805 0.132627 -2.06976 0
M  V30 2879 C 266.23 1.35848 -1.30104 0
M  V30 2880 O 265.588 1.78112 -0.338493 0
M  V30 2881 C 265.636 0.43523 -3.57964 0
M  V30 2882 O 264.74 1.52198 -3.83288 0
M  V30 2883 H 264.081 0.00265 -0.663995 0
M  V30 2884 H 266.611 -0.616369 -1.95095 0
M  V30 2885 H 266.621 0.686206 -4.02188 0
M  V30 2886 H 265.296 -0.460739 -4.1334 0
M  V30 2887 H 263.873 1.2611 -3.50928 0
M  V30 2888 N 266.058 1.56714 -0.166846 0
M  V30 2889 C 267.304 1.97039 0.479962 0
M  V30 2890 C 267.637 1.05264 1.63197 0
M  V30 2891 O 266.912 0.0988833 1.94248 0
M  V30 2892 C 267.195 3.46867 0.967212 0
M  V30 2893 C 267.048 4.49421 -0.18466 0
M  V30 2894 C 268.367 3.9968 1.84238 0
M  V30 2895 H 265.486 0.71641 0.172992 0
M  V30 2896 H 268.128 1.8832 -0.252079 0
M  V30 2897 H 266.278 3.54428 1.59101 0
M  V30 2898 H 267.95 4.53924 -0.821621 0
M  V30 2899 H 266.193 4.25573 -0.840837 0
M  V30 2900 H 266.864 5.51644 0.198317 0
M  V30 2901 H 269.34 3.94723 1.31655 0
M  V30 2902 H 268.216 5.04941 2.15234 0
M  V30 2903 H 268.477 3.43226 2.78654 0
M  V30 2904 N 267.536 -0.106894 1.57237 0
M  V30 2905 C 268.466 -1.13148 2.04254 0
M  V30 2906 C 269.447 -1.42476 0.929224 0
M  V30 2907 O 270.632 -1.52709 1.19973 0
M  V30 2908 C 267.762 -2.4545 2.45706 0
M  V30 2909 C 266.716 -2.30558 3.60592 0
M  V30 2910 C 266.042 -3.67931 3.87983 0
M  V30 2911 C 267.342 -1.75597 4.91897 0
M  V30 2912 H 269.036 -0.740374 2.90101 0
M  V30 2913 H 266.582 -0.354696 1.39563 0
M  V30 2914 H 268.535 -3.17389 2.77205 0
M  V30 2915 H 267.259 -2.86475 1.56843 0
M  V30 2916 H 265.918 -1.61067 3.29322 0
M  V30 2917 H 265.566 -4.06462 2.96306 0
M  V30 2918 H 265.266 -3.58817 4.65322 0
M  V30 2919 H 266.79 -4.41356 4.21945 0
M  V30 2920 H 268.204 -2.37364 5.21854 0
M  V30 2921 H 266.601 -1.77272 5.73319 0
M  V30 2922 H 267.671 -0.714451 4.79608 0
M  V30 2923 N 269.014 -1.53014 -0.377408 0
M  V30 2924 C 269.964 -1.74996 -1.46152 0
M  V30 2925 C 270.948 -0.604236 -1.49123 0
M  V30 2926 O 272.14 -0.862489 -1.54564 0
M  V30 2927 C 269.269 -1.93267 -2.8373 0
M  V30 2928 C 268.355 -3.13807 -2.85283 0
M  V30 2929 N 268.746 -4.35941 -2.56493 0
M  V30 2930 C 267.044 -3.14288 -3.16448 0
M  V30 2931 C 267.745 -5.17615 -2.65424 0
M  V30 2932 N 266.721 -4.53559 -2.99641 0
M  V30 2933 H 270.523 -2.67044 -1.22738 0
M  V30 2934 H 268.037 -1.51479 -0.585479 0
M  V30 2935 H 270.034 -2.0714 -3.61799 0
M  V30 2936 H 268.694 -1.0244 -3.08117 0
M  V30 2937 H 269.705 -4.63876 -2.30302 0
M  V30 2938 H 266.382 -2.33312 -3.46225 0
M  V30 2939 H 267.772 -6.25006 -2.46612 0
M  V30 2940 N 270.492 0.636531 -1.44174 0
M  V30 2941 C 271.908 0.954104 -1.27941 0
M  V30 2942 C 272.108 2.0039 -0.211248 0
M  V30 2943 O 271.164 2.49236 0.404695 0
M  V30 2944 C 272.477 1.4225 -2.64925 0
M  V30 2945 C 274.025 1.53827 -2.72592 0
M  V30 2946 C 274.5 2.04053 -4.10032 0
M  V30 2947 N 275.991 2.11331 -4.12182 0
M  V30 2948 C 276.726 2.51352 -5.15374 0
M  V30 2949 N 276.222 2.90549 -6.2893 0
M  V30 2950 N 278.015 2.51438 -5.02728 0
M  V30 2951 H 270.166 -0.0578386 -2.12321 0
M  V30 2952 H 272.429 0.0367406 -0.947288 0
M  V30 2953 H 272.135 0.725466 -3.44136 0
M  V30 2954 H 272.009 2.39451 -2.9145 0
M  V30 2955 H 274.396 2.22628 -1.93702 0
M  V30 2956 H 274.477 0.550154 -2.49814 0
M  V30 2957 H 274.121 1.35848 -4.89395 0
M  V30 2958 H 274.051 3.03726 -4.30184 0
M  V30 2959 H 276.542 1.83745 -3.30222 0
M  V30 2960 H 276.855 3.19884 -7.03487 0
M  V30 2961 H 275.2 2.88313 -6.32377 0
M  V30 2962 H 278.391 2.20203 -4.13072 0
M  V30 2963 H 278.564 2.82304 -5.83274 0
M  V30 2964 N 271.97 1.30982 0.876444 0
M  V30 2965 C 273.386 1.09498 1.16113 0
M  V30 2966 C 273.586 -0.13875 2.01022 0
M  V30 2967 O 272.642 -0.829935 2.38471 0
M  V30 2968 C 273.955 2.36308 1.85954 0
M  V30 2969 C 275.503 2.41856 1.98683 0
M  V30 2970 C 275.978 3.6853 2.71937 0
M  V30 2971 N 277.469 3.69387 2.79477 0
M  V30 2972 C 278.204 4.64096 3.36753 0
M  V30 2973 N 277.7 5.69155 3.95012 0
M  V30 2974 N 279.493 4.51626 3.3465 0
M  V30 2975 H 271.644 2.10118 0.310494 0
M  V30 2976 H 273.907 0.926634 0.200131 0
M  V30 2977 H 273.613 3.26388 1.31011 0
M  V30 2978 H 273.487 2.4561 2.86278 0
M  V30 2979 H 275.874 1.52249 2.52793 0
M  V30 2980 H 275.955 2.36523 0.9742 0
M  V30 2981 H 275.599 4.58499 2.18496 0
M  V30 2982 H 275.529 3.71127 3.73593 0
M  V30 2983 H 278.02 2.93438 2.38123 0
M  V30 2984 H 278.333 6.3751 4.36808 0
M  V30 2985 H 276.678 5.72937 3.93406 0
M  V30 2986 H 279.869 3.68728 2.8837 0
M  V30 2987 H 280.042 5.25614 3.7899 0
M  V30 2988 N 273.449 -1.08991 1.13837 0
M  V30 2989 C 274.698 -1.80631 0.897509 0
M  V30 2990 C 275.011 -1.86872 -0.57777 0
M  V30 2991 O 276.217 -2.54866 -0.935701 0
M  V30 2992 C 274.673 -3.24517 1.55618 0
M  V30 2993 C 274.281 -3.26529 3.0673 0
M  V30 2994 C 276.025 -4.00882 1.3962 0
M  V30 2995 C 273.932 -4.64965 3.65461 0
M  V30 2996 H 272.862 -0.67691 0.332129 0
M  V30 2997 H 275.513 -1.2246 1.3666 0
M  V30 2998 H 273.895 -3.82778 1.01476 0
M  V30 2999 H 275.069 -2.78008 3.67489 0
M  V30 3000 H 273.384 -2.63656 3.22296 0
M  V30 3001 H 275.981 -5.03167 1.80906 0
M  V30 3002 H 276.324 -4.14896 0.341578 0
M  V30 3003 H 276.857 -3.49075 1.90766 0
M  V30 3004 H 273.596 -4.56153 4.70749 0
M  V30 3005 H 273.116 -5.13792 3.09481 0
M  V30 3006 H 274.795 -5.3394 3.654 0
M  V30 3007 N 274.927 -0.932562 -1.27047 0
M  V30 3008 C 275.874 -0.434072 -2.26681 0
M  V30 3009 C 276.844 0.501639 -1.58344 0
M  V30 3010 O 278.029 0.419734 -1.86126 0
M  V30 3011 C 275.169 0.30261 -3.43771 0
M  V30 3012 C 274.282 -0.667774 -4.26808 0
M  V30 3013 C 273.417 0.0892393 -5.31125 0
M  V30 3014 C 272.456 -0.873532 -6.05835 0
M  V30 3015 N 271.593 -0.148832 -7.01942 0
M  V30 3016 H 276.433 -1.28868 -2.68695 0
M  V30 3017 H 273.97 -0.646713 -1.32121 0
M  V30 3018 H 275.928 0.746092 -4.10474 0
M  V30 3019 H 274.558 1.12142 -3.02695 0
M  V30 3020 H 273.61 -1.22978 -3.59973 0
M  V30 3021 H 274.922 -1.40337 -4.78651 0
M  V30 3022 H 274.076 0.592409 -6.03801 0
M  V30 3023 H 272.815 0.85777 -4.80097 0
M  V30 3024 H 271.82 -1.38791 -5.31994 0
M  V30 3025 H 273.045 -1.64193 -6.58952 0
M  V30 3026 H 270.991 0.601365 -6.53238 0
M  V30 3027 H 270.908 -0.82391 -7.51497 0
M  V30 3028 H 272.176 0.333527 -7.78786 0
M  V30 3029 N 276.405 1.4127 -0.698611 0
M  V30 3030 C 277.352 2.30773 -0.0352094 0
M  V30 3031 C 278.322 1.47273 0.768111 0
M  V30 3032 O 279.507 1.76053 0.735524 0
M  V30 3033 C 276.647 3.33346 0.893 0
M  V30 3034 C 275.76 4.31924 0.0809695 0
M  V30 3035 C 274.895 5.21566 1.0071 0
M  V30 3036 C 273.934 6.11811 0.188155 0
M  V30 3037 N 273.071 6.93926 1.06825 0
M  V30 3038 H 277.911 2.86943 -0.804207 0
M  V30 3039 H 275.448 1.4132 -0.408294 0
M  V30 3040 H 277.406 3.91368 1.44523 0
M  V30 3041 H 276.036 2.78719 1.62836 0
M  V30 3042 H 275.088 3.75825 -0.588224 0
M  V30 3043 H 276.4 4.95716 -0.553801 0
M  V30 3044 H 275.554 5.84437 1.62845 0
M  V30 3045 H 274.293 4.58008 1.67572 0
M  V30 3046 H 273.298 5.47986 -0.446254 0
M  V30 3047 H 274.523 6.77425 -0.476716 0
M  V30 3048 H 272.469 6.32973 1.72283 0
M  V30 3049 H 272.386 7.54416 0.489123 0
M  V30 3050 H 273.654 7.61262 1.67632 0
M  V30 3051 N 277.883 0.443576 1.51229 0
M  V30 3052 C 278.846 -0.353132 2.26463 0
M  V30 3053 C 279.846 -0.944338 1.3015 0
M  V30 3054 O 281.036 -0.817813 1.5381 0
M  V30 3055 C 278.168 -1.50023 3.06114 0
M  V30 3056 H 279.361 0.3063 2.98332 0
M  V30 3057 H 276.914 0.196902 1.55055 0
M  V30 3058 H 277.649 -2.19553 2.38677 0
M  V30 3059 H 277.434 -1.08241 3.76864 0
M  V30 3060 H 278.924 -2.06296 3.63087 0
M  V30 3061 N 279.361 -1.56624 0.175154 0
M  V30 3062 C 280.609 -1.96609 -0.467885 0
M  V30 3063 C 280.93 -1.06238 -1.63519 0
M  V30 3064 O 280.2 -0.129523 -1.95471 0
M  V30 3065 H 278.78 -0.726008 -0.175845 0
M  V30 3066 H 281.442 -1.93195 0.257234 0
M  V30 3067 H 280.538 -3.00989 -0.825342 0
M  V30 3068 N 280.839 0.0985539 -1.57292 0
M  V30 3069 C 282.064 0.820196 -1.90493 0
M  V30 3070 C 282.489 1.71658 -0.769094 0
M  V30 3071 O 281.847 1.79133 0.279495 0
M  V30 3072 C 281.895 1.61242 -3.22542 0
M  V30 3073 O 280.999 2.72108 -3.09888 0
M  V30 3074 H 280.34 0.225547 -0.62452 0
M  V30 3075 H 282.87 0.0748159 -2.04463 0
M  V30 3076 H 282.88 1.99737 -3.55766 0
M  V30 3077 H 281.555 0.954535 -4.04798 0
M  V30 3078 H 280.132 2.36667 -2.88172 0
M  V30 3079 N 282.317 1.53212 0.369288 0
M  V30 3080 C 283.565 1.68881 1.11012 0
M  V30 3081 C 283.886 0.441285 1.89941 0
M  V30 3082 O 283.156 -0.544623 1.88177 0
M  V30 3083 H 281.736 0.622569 0.412816 0
M  V30 3084 H 284.398 1.90391 0.416802 0
M  V30 3085 H 283.494 2.54822 1.80201 0
M  V30 3086 N 283.795 -0.628877 1.44509 0
M  V30 3087 C 284.743 -1.76193 1.51852 0
M  V30 3088 C 285.737 -1.64849 0.390042 0
M  V30 3089 O 286.943 -1.709 0.565082 0
M  V30 3090 H 283.318 -0.581728 0.476547 0
M  V30 3091 H 285.289 -1.67123 2.47209 0
M  V30 3092 C 284.038 -3.14533 1.48204 0
M  V30 3093 H 283.361 -3.23911 2.34354 0
M  V30 3094 H 284.801 -3.93701 1.57402 0
M  V30 3095 C 283.26 -3.36287 0.203142 0
M  V30 3096 O 283.79 -3.9509 -0.725745 0
M  V30 3097 N 281.996 -2.90408 0.105563 0
M  V30 3098 H 281.543 -2.42739 0.862301 0
M  V30 3099 H 281.501 -3.05339 -0.749371 0
M  V30 3100 N 285.273 -1.31445 -0.869486 0
M  V30 3101 C 286.503 -1.23942 -1.65294 0
M  V30 3102 C 286.911 0.197561 -1.88166 0
M  V30 3103 O 286.254 1.14019 -1.44033 0
M  V30 3104 C 286.316 -1.91385 -3.04322 0
M  V30 3105 C 285.98 -3.40726 -3.04557 0
M  V30 3106 C 286.977 -4.36464 -2.82481 0
M  V30 3107 C 284.662 -3.82425 -3.25663 0
M  V30 3108 C 286.656 -5.71876 -2.8149 0
M  V30 3109 C 284.343 -5.1795 -3.243 0
M  V30 3110 C 285.341 -6.12486 -3.02241 0
M  V30 3111 O 285.029 -7.45534 -3.00724 0
M  V30 3112 H 284.761 -0.429459 -0.522054 0
M  V30 3113 H 287.315 -1.73873 -1.0935 0
M  V30 3114 H 285.545 -1.36004 -3.61994 0
M  V30 3115 H 287.234 -1.77791 -3.64891 0
M  V30 3116 H 288 -4.05576 -2.65956 0
M  V30 3117 H 283.879 -3.09274 -3.41863 0
M  V30 3118 H 287.423 -6.45638 -2.64191 0
M  V30 3119 H 283.32 -5.48473 -3.40365 0
M  V30 3120 H 284.088 -7.54713 -3.16782 0
M  V30 3121 N 286.751 1.08385 -1.14413 0
M  V30 3122 C 287.976 1.85057 -0.936413 0
M  V30 3123 C 288.401 1.81055 0.509971 0
M  V30 3124 O 287.759 1.1958 1.36273 0
M  V30 3125 C 287.807 3.30505 -1.44217 0
M  V30 3126 O 286.911 4.07491 -0.634409 0
M  V30 3127 H 286.252 0.573425 -0.334784 0
M  V30 3128 H 288.782 1.36799 -1.52142 0
M  V30 3129 H 288.792 3.81348 -1.45043 0
M  V30 3130 H 287.467 3.32734 -2.49522 0
M  V30 3131 H 286.044 3.66368 -0.694902 0
M  V30 3132 N 288.23 0.939286 1.26551 0
M  V30 3133 C 289.478 0.58469 1.93457 0
M  V30 3134 C 289.799 -0.878774 1.74076 0
M  V30 3135 O 289.069 -1.62421 1.09528 0
M  V30 3136 H 287.649 0.21325 0.715914 0
M  V30 3137 H 290.311 1.1942 1.54029 0
M  V30 3138 H 289.407 0.800849 3.0165 0
M  V30 3139 N 289.708 -1.40897 0.706093 0
M  V30 3140 C 290.985 -1.94868 0.169099 0
M  V30 3141 C 291.365 -1.64485 -1.32318 0
M  V30 3142 O 290.713 -0.95744 -2.07474 0
M  V30 3143 C 290.923 -3.45798 0.471654 0
M  V30 3144 C 292.271 -4.22663 0.405127 0
M  V30 3145 O 293.295 -3.53865 0.407168 0
M  V30 3146 O 292.154 -5.45216 0.374383 0
M  V30 3147 H 289.248 -0.82673 0.0211352 0
M  V30 3148 H 291.794 -1.50558 0.782976 0
M  V30 3149 H 290.566 -3.61235 1.50416 0
M  V30 3150 H 290.189 -3.97225 -0.172666 0
M  V30 3151 N 291.186 -0.45159 -1.50991 0
M  V30 3152 C 292.435 0.111653 -2.01391 0
M  V30 3153 C 292.748 1.42529 -1.33959 0
M  V30 3154 O 293.954 2.07232 -1.75405 0
M  V30 3155 C 292.41 0.249514 -3.59034 0
M  V30 3156 C 292.018 -1.05453 -4.35412 0
M  V30 3157 C 293.762 0.765762 -4.17536 0
M  V30 3158 C 291.669 -0.881529 -5.84793 0
M  V30 3159 H 290.599 0.0455022 -0.752626 0
M  V30 3160 H 293.25 -0.583524 -1.73975 0
M  V30 3161 H 291.632 1.00803 -3.82955 0
M  V30 3162 H 292.806 -1.82248 -4.23229 0
M  V30 3163 H 291.121 -1.50039 -3.88429 0
M  V30 3164 H 293.718 0.911913 -5.26866 0
M  V30 3165 H 294.061 1.75201 -3.77638 0
M  V30 3166 H 294.594 0.0651744 -3.97747 0
M  V30 3167 H 291.333 -1.84057 -6.29129 0
M  V30 3168 H 290.853 -0.153625 -5.99603 0
M  V30 3169 H 292.532 -0.540363 -6.4474 0
M  V30 3170 N 292.664 1.56529 -0.183458 0
M  V30 3171 C 293.889 2.02064 0.467428 0
M  V30 3172 C 294.314 1.06282 1.55196 0
M  V30 3173 O 293.672 0.0443565 1.81246 0
M  V30 3174 C 293.72 3.46122 1.01153 0
M  V30 3175 O 292.824 3.53437 2.12499 0
M  V30 3176 H 292.165 0.654726 0.110588 0
M  V30 3177 H 294.695 2.02521 -0.290917 0
M  V30 3178 H 294.705 3.85676 1.33108 0
M  V30 3179 H 293.38 4.15331 0.217533 0
M  V30 3180 H 291.957 3.2575 1.81497 0
M  V30 3181 N 294.142 -0.090211 1.57342 0
M  V30 3182 C 295.419 -0.824761 1.77361 0
M  V30 3183 C 295.799 -1.96698 0.76637 0
M  V30 3184 O 295.147 -2.27586 -0.204179 0
M  V30 3185 C 295.357 -1.31481 3.23286 0
M  V30 3186 C 296.705 -1.75563 3.86604 0
M  V30 3187 O 297.729 -1.41093 3.27065 0
M  V30 3188 O 296.588 -2.39317 4.91314 0
M  V30 3189 H 293.682 -0.393776 0.727234 0
M  V30 3190 H 296.228 -0.0717138 1.69548 0
M  V30 3191 H 295 -0.496671 3.88135 0
M  V30 3192 H 294.623 -2.12973 3.35751 0
M  V30 3193 N 295.62 -1.53406 -0.361157 0
M  V30 3194 C 296.897 -1.60411 -1.11927 0
M  V30 3195 C 297.277 -0.414385 -2.06993 0
M  V30 3196 O 296.625 0.594976 -2.20618 0
M  V30 3197 C 296.835 -2.95652 -1.85448 0
M  V30 3198 C 298.183 -3.50386 -2.39823 0
M  V30 3199 O 299.207 -2.97711 -1.95568 0
M  V30 3200 O 298.066 -4.42482 -3.20737 0
M  V30 3201 H 295.16 -0.64811 -0.513695 0
M  V30 3202 H 297.706 -1.65749 -0.364065 0
M  V30 3203 H 296.478 -3.73682 -1.16091 0
M  V30 3204 H 296.101 -2.93825 -2.67866 0
M  V30 3205 N 297.098 0.621204 -1.44841 0
M  V30 3206 C 298.028 1.74366 -1.55303 0
M  V30 3207 C 299.009 1.65199 -0.405385 0
M  V30 3208 O 300.194 1.83807 -0.626787 0
M  V30 3209 C 297.324 3.12931 -1.50637 0
M  V30 3210 C 296.278 3.36896 -2.63979 0
M  V30 3211 C 295.604 4.75594 -2.44366 0
M  V30 3212 C 296.904 3.28483 -4.06074 0
M  V30 3213 H 298.598 1.65867 -2.49256 0
M  V30 3214 H 296.144 0.796558 -1.19962 0
M  V30 3215 H 298.097 3.9124 -1.56555 0
M  V30 3216 H 296.821 3.22237 -0.532057 0
M  V30 3217 H 295.48 2.60972 -2.57467 0
M  V30 3218 H 295.128 4.81616 -1.45105 0
M  V30 3219 H 294.828 4.92586 -3.20364 0
M  V30 3220 H 296.352 5.5612 -2.52117 0
M  V30 3221 H 297.766 3.96684 -4.13902 0
M  V30 3222 H 296.163 3.57008 -4.82354 0
M  V30 3223 H 297.233 2.26133 -4.28943 0
M  V30 3224 N 298.576 1.31904 0.862503 0
M  V30 3225 C 299.823 1.22017 1.61611 0
M  V30 3226 C 300.151 -0.21991 1.93253 0
M  V30 3227 O 299.406 -1.17076 1.56817 0
M  V30 3228 C 299.705 2.01713 2.95037 0
M  V30 3229 C 299.371 3.51145 2.82857 0
M  V30 3230 C 298.033 3.91889 2.79243 0
M  V30 3231 C 300.385 4.46204 2.69353 0
M  V30 3232 C 297.713 5.25947 2.59993 0
M  V30 3233 C 300.065 5.80397 2.5164 0
M  V30 3234 C 298.729 6.20352 2.46413 0
M  V30 3235 H 297.999 0.44649 0.591378 0
M  V30 3236 H 300.646 1.63248 1.00111 0
M  V30 3237 H 298.951 1.53185 3.60613 0
M  V30 3238 H 300.648 1.91437 3.52353 0
M  V30 3239 H 297.238 3.1878 2.86491 0
M  V30 3240 H 301.422 4.15652 2.71196 0
M  V30 3241 H 296.678 5.5597 2.54376 0
M  V30 3242 H 300.852 6.53676 2.40169 0
M  V30 3243 H 298.479 7.24172 2.31256 0
M  V30 3244 N 300.054 -1.07777 1.14986 0
M  V30 3245 C 301.47 -1.32373 0.891596 0
M  V30 3246 C 301.67 -1.9609 -0.463788 0
M  V30 3247 O 300.726 -2.21801 -1.20667 0
M  V30 3248 C 302.039 -2.21905 2.02925 0
M  V30 3249 C 303.587 -2.35367 2.06329 0
M  V30 3250 C 304.062 -3.28245 3.19405 0
M  V30 3251 N 305.553 -3.35824 3.19024 0
M  V30 3252 C 306.288 -4.07739 4.03158 0
M  V30 3253 N 305.784 -4.82306 4.97346 0
M  V30 3254 N 307.577 -4.03635 3.91197 0
M  V30 3255 H 299.728 -0.648039 2.02273 0
M  V30 3256 H 301.991 -0.348149 0.881757 0
M  V30 3257 H 301.697 -1.82342 3.0074 0
M  V30 3258 H 301.571 -3.22407 1.95789 0
M  V30 3259 H 303.958 -2.74186 1.09116 0
M  V30 3260 H 304.039 -1.34585 2.17533 0
M  V30 3261 H 303.683 -2.90146 4.16867 0
M  V30 3262 H 303.613 -4.28971 3.05437 0
M  V30 3263 H 306.104 -2.8267 2.50811 0
M  V30 3264 H 306.417 -5.34661 5.57994 0
M  V30 3265 H 304.762 -4.81337 5.01338 0
M  V30 3266 H 307.953 -3.44491 3.16928 0
M  V30 3267 H 308.126 -4.59417 4.5699 0
M  V30 3268 N 301.532 -0.945985 -1.26051 0
M  V30 3269 C 302.779 -0.596118 -1.93527 0
M  V30 3270 C 303.107 0.865559 -1.74179 0
M  V30 3271 O 302.362 1.63524 -1.0751 0
M  V30 3272 C 302.661 -0.890475 -3.46129 0
M  V30 3273 C 302.327 -2.3368 -3.85622 0
M  V30 3274 C 300.989 -2.73216 -3.96114 0
M  V30 3275 C 303.341 -3.27648 -4.05334 0
M  V30 3276 C 300.669 -4.05806 -4.2372 0
M  V30 3277 C 303.021 -4.59841 -4.3443 0
M  V30 3278 C 301.685 -4.99185 -4.43137 0
M  V30 3279 H 300.955 -0.218135 -0.708165 0
M  V30 3280 H 303.602 -1.1934 -1.49768 0
M  V30 3281 H 301.907 -0.210711 -3.91233 0
M  V30 3282 H 303.604 -0.598478 -3.96509 0
M  V30 3283 H 300.194 -2.02015 -3.78005 0
M  V30 3284 H 304.378 -2.98298 -3.96651 0
M  V30 3285 H 299.634 -4.35945 -4.28675 0
M  V30 3286 H 303.808 -5.32641 -4.48628 0
M  V30 3287 H 301.435 -6.01952 -4.64282 0
M  V30 3288 N 303.011 1.40521 -0.713556 0
M  V30 3289 C 303.974 2.29098 -0.0684347 0
M  V30 3290 C 304.974 1.45268 0.689472 0
M  V30 3291 O 306.164 1.66205 0.521677 0
M  V30 3292 C 303.296 3.28446 0.913024 0
M  V30 3293 H 304.489 2.87645 -0.84855 0
M  V30 3294 H 302.042 1.48809 -0.47809 0
M  V30 3295 H 302.777 2.74913 1.72027 0
M  V30 3296 H 302.562 3.90327 0.372472 0
M  V30 3297 H 304.052 3.94777 1.36165 0
M  V30 3298 N 304.489 0.459591 1.5075 0
M  V30 3299 C 305.736 -0.0993495 2.02256 0
M  V30 3300 C 306.064 -1.40751 1.34237 0
M  V30 3301 O 305.319 -1.90379 0.453228 0
M  V30 3302 C 305.618 -0.342866 3.55752 0
M  V30 3303 C 305.284 0.88218 4.42186 0
M  V30 3304 C 303.946 1.21808 4.65528 0
M  V30 3305 C 306.298 1.69837 4.92752 0
M  V30 3306 C 303.626 2.37045 5.36681 0
M  V30 3307 C 305.978 2.84192 5.65171 0
M  V30 3308 C 304.642 3.1821 5.8677 0
M  V30 3309 H 303.912 -0.0363545 0.740108 0
M  V30 3310 H 306.559 0.611329 1.8148 0
M  V30 3311 H 304.864 -1.13567 3.7498 0
M  V30 3312 H 306.561 -0.789121 3.93159 0
M  V30 3313 H 303.151 0.610467 4.2423 0
M  V30 3314 H 307.335 1.45205 4.74583 0
M  V30 3315 H 302.591 2.63689 5.51614 0
M  V30 3316 H 306.765 3.4779 6.03337 0
M  V30 3317 H 304.392 4.07613 6.41682 0
M  V30 3318 N 305.967 -1.56429 0.191757 0
M  V30 3319 C 306.877 -2.22541 -0.742481 0
M  V30 3320 C 307.893 -1.22342 -1.23727 0
M  V30 3321 O 309.069 -1.55069 -1.28513 0
M  V30 3322 C 306.134 -2.8692 -1.94623 0
M  V30 3323 C 305.195 -4.02378 -1.49633 0
M  V30 3324 C 304.428 -4.63678 -2.6427 0
M  V30 3325 O 304.651 -4.23895 -3.81666 0
M  V30 3326 O 303.585 -5.53202 -2.37174 0
M  V30 3327 H 307.411 -3.02977 -0.209462 0
M  V30 3328 H 304.996 -1.49353 -0.0373832 0
M  V30 3329 H 306.878 -3.27663 -2.64982 0
M  V30 3330 H 305.553 -2.09466 -2.46791 0
M  V30 3331 H 304.46 -3.66265 -0.761636 0
M  V30 3332 H 305.793 -4.81487 -1.02134 0
M  V30 3333 N 307.445 0.0818655 -1.57387 0
M  V30 3334 C 308.67 0.799946 -1.91352 0
M  V30 3335 C 309.095 1.70833 -0.787258 0
M  V30 3336 O 308.453 1.79419 0.26048 0
M  V30 3337 C 308.501 1.57812 -3.24234 0
M  V30 3338 O 307.605 2.68806 -3.12757 0
M  V30 3339 H 306.946 0.21891 -0.626877 0
M  V30 3340 H 309.476 0.0531256 -2.04531 0
M  V30 3341 H 309.486 1.95952 -3.57864 0
M  V30 3342 H 308.161 0.911548 -4.05788 0
M  V30 3343 H 306.738 2.33597 -2.90666 0
M  V30 3344 N 308.923 1.53595 0.353017 0
M  V30 3345 C 310.172 1.69603 1.09168 0
M  V30 3346 C 310.485 0.460925 1.90092 0
M  V30 3347 O 311.691 0.501774 2.66823 0
M  V30 3348 C 310.147 2.99872 1.9901 0
M  V30 3349 C 309.755 4.30687 1.23339 0
M  V30 3350 C 311.499 3.25246 2.72792 0
M  V30 3351 C 309.406 5.52036 2.12156 0
M  V30 3352 H 308.336 0.631966 0.411261 0
M  V30 3353 H 310.987 1.80096 0.351802 0
M  V30 3354 H 309.369 2.83212 2.7678 0
M  V30 3355 H 310.543 4.58019 0.505456 0
M  V30 3356 H 308.858 4.11853 0.613663 0
M  V30 3357 H 311.455 4.13095 3.39495 0
M  V30 3358 H 311.798 2.41846 3.38846 0
M  V30 3359 H 312.331 3.42638 2.021 0
M  V30 3360 H 309.07 6.37951 1.50659 0
M  V30 3361 H 308.59 5.28966 2.82764 0
M  V30 3362 H 310.269 5.87313 2.71427 0
M  V30 3363 N 310.401 -0.613514 1.45168 0
M  V30 3364 C 311.629 -1.39946 1.5239 0
M  V30 3365 C 312.044 -1.88167 0.154531 0
M  V30 3366 O 311.401 -1.61872 -0.842843 0
M  V30 3367 C 311.452 -2.60795 2.50337 0
M  V30 3368 O 311.173 -2.1458 3.81952 0
M  V30 3369 C 312.674 -3.53723 2.67198 0
M  V30 3370 H 309.894 -0.428593 0.516284 0
M  V30 3371 H 312.438 -0.748753 1.903 0
M  V30 3372 H 310.593 -3.21919 2.15515 0
M  V30 3373 H 311.007 -2.93055 4.34993 0
M  V30 3374 H 312.481 -4.35079 3.39721 0
M  V30 3375 H 312.958 -4.0368 1.73029 0
M  V30 3376 H 313.564 -2.98456 3.02992 0
M  V30 3377 N 311.879 -1.3236 -0.855495 0
M  V30 3378 C 312.827 -1.2118 -1.9854 0
M  V30 3379 C 313.821 -0.116788 -1.68997 0
M  V30 3380 O 315.027 -0.279657 -1.77814 0
M  V30 3381 H 311.402 -0.375608 -0.651477 0
M  V30 3382 H 313.373 -2.16743 -2.05098 0
M  V30 3383 C 312.122 -0.950849 -3.34446 0
M  V30 3384 H 311.445 -1.78563 -3.57708 0
M  V30 3385 H 312.885 -0.912863 -4.14057 0
M  V30 3386 C 311.344 0.346404 -3.35114 0
M  V30 3387 O 311.874 1.35855 -3.7803 0
M  V30 3388 N 310.08 0.36808 -2.88259 0
M  V30 3389 H 309.627 -0.456102 -2.5353 0
M  V30 3390 H 309.585 1.23591 -2.89089 0
M  V30 3391 N 313.357 1.07166 -1.15556 0
M  V30 3392 C 314.603 1.80065 -0.932984 0
M  V30 3393 C 314.936 1.86586 0.53845 0
M  V30 3394 O 314.211 1.35098 1.39924 0
M  V30 3395 C 314.494 3.25022 -1.55025 0
M  V30 3396 C 314.347 3.26634 -3.09242 0
M  V30 3397 C 315.666 4.22341 -1.2376 0
M  V30 3398 H 312.785 0.653697 -0.340366 0
M  V30 3399 H 315.427 1.25389 -1.4275 0
M  V30 3400 H 313.577 3.71712 -1.12972 0
M  V30 3401 H 315.249 2.88173 -3.60214 0
M  V30 3402 H 313.492 2.65539 -3.43033 0
M  V30 3403 H 314.163 4.28854 -3.47546 0
M  V30 3404 H 316.639 3.8405 -1.60139 0
M  V30 3405 H 315.515 5.22053 -1.69564 0
M  V30 3406 H 315.776 4.41828 -0.154938 0
M  V30 3407 N 314.835 0.952656 1.25548 0
M  V30 3408 C 316.084 0.602053 1.92505 0
M  V30 3409 C 316.397 -0.864663 1.75451 0
M  V30 3410 O 317.603 -1.32514 2.36965 0
M  V30 3411 C 316.059 1.02607 3.44963 0
M  V30 3412 C 315.667 2.51519 3.70732 0
M  V30 3413 C 317.411 0.747905 4.1786 0
M  V30 3414 C 315.318 2.87732 5.16686 0
M  V30 3415 H 314.248 0.22146 0.720744 0
M  V30 3416 H 316.899 1.15684 1.42441 0
M  V30 3417 H 315.281 0.399712 3.93978 0
M  V30 3418 H 316.455 3.19157 3.32378 0
M  V30 3419 H 314.77 2.76786 3.11092 0
M  V30 3420 H 317.367 0.994647 5.25367 0
M  V30 3421 H 317.71 -0.315629 4.15102 0
M  V30 3422 H 318.243 1.33452 3.74747 0
M  V30 3423 H 314.982 3.93095 5.24554 0
M  V30 3424 H 314.502 2.24765 5.56094 0
M  V30 3425 H 316.181 2.76817 5.84792 0
M  V30 3426 N 316.313 -1.40141 0.720998 0
M  V30 3427 C 317.56 -2.00787 0.262842 0
M  V30 3428 C 317.888 -1.5718 -1.14563 0
M  V30 3429 O 317.143 -0.785391 -1.79249 0
M  V30 3430 C 317.442 -3.56165 0.296892 0
M  V30 3431 C 317.108 -4.19373 1.65641 0
M  V30 3432 C 315.77 -4.36352 2.02855 0
M  V30 3433 C 318.122 -4.54578 2.54968 0
M  V30 3434 C 315.45 -4.8582 3.28931 0
M  V30 3435 C 317.802 -5.05447 3.80402 0
M  V30 3436 C 316.466 -5.20635 4.17726 0
M  V30 3437 H 315.736 -0.734731 0.0961807 0
M  V30 3438 H 318.383 -1.67673 0.925093 0
M  V30 3439 H 316.688 -3.8922 -0.448932 0
M  V30 3440 H 318.385 -4.00929 -0.0755208 0
M  V30 3441 H 314.975 -4.06549 1.35704 0
M  V30 3442 H 319.159 -4.41091 2.27491 0
M  V30 3443 H 314.415 -4.95764 3.57811 0
M  V30 3444 H 318.589 -5.31663 4.49786 0
M  V30 3445 H 316.216 -5.58728 5.15487 0
M  V30 3446 N 317.792 -0.46758 -1.50504 0
M  V30 3447 C 319.04 0.0884469 -2.01906 0
M  V30 3448 C 319.361 1.40532 -1.35188 0
M  V30 3449 O 318.631 1.89515 -0.496079 0
M  V30 3450 H 317.211 0.0356765 -0.746148 0
M  V30 3451 H 319.873 -0.6172 -1.84869 0
M  V30 3452 H 318.969 0.2425 -3.11156 0
M  V30 3453 N 319.27 1.56325 -0.20005 0
M  V30 3454 C 320.18 2.22931 0.730668 0
M  V30 3455 C 321.196 1.22997 1.23076 0
M  V30 3456 O 322.372 1.55748 1.27689 0
M  V30 3457 C 319.437 2.87948 1.93098 0
M  V30 3458 C 318.498 4.03166 1.47497 0
M  V30 3459 C 317.731 4.65073 2.61807 0
M  V30 3460 O 317.954 4.25913 3.79413 0
M  V30 3461 O 316.888 5.54452 2.34237 0
M  V30 3462 H 320.714 3.03084 0.193391 0
M  V30 3463 H 318.299 1.49371 0.0294621 0
M  V30 3464 H 320.181 3.29063 2.6324 0
M  V30 3465 H 318.856 2.10771 2.45677 0
M  V30 3466 H 317.763 3.66664 0.742201 0
M  V30 3467 H 319.096 4.82022 0.995796 0
M  V30 3468 N 320.748 -0.0735177 1.57428 0
M  V30 3469 C 322.164 -0.428264 1.53747 0
M  V30 3470 C 322.364 -1.79272 0.91998 0
M  V30 3471 O 321.42 -2.47051 0.521745 0
M  V30 3472 C 322.733 -0.370914 2.98404 0
M  V30 3473 C 324.281 -0.451224 3.0973 0
M  V30 3474 C 324.756 -0.4238 4.56035 0
M  V30 3475 N 326.247 -0.483925 4.60665 0
M  V30 3476 C 326.982 -0.484891 5.71346 0
M  V30 3477 N 326.478 -0.440775 6.91396 0
M  V30 3478 N 328.271 -0.531319 5.59583 0
M  V30 3479 H 320.422 0.819949 1.95935 0
M  V30 3480 H 322.685 0.307493 0.896745 0
M  V30 3481 H 322.391 0.564956 3.47133 0
M  V30 3482 H 322.265 -1.18176 3.5821 0
M  V30 3483 H 324.652 -1.37752 2.60976 0
M  V30 3484 H 324.733 0.388167 2.52838 0
M  V30 3485 H 324.377 0.498638 5.05446 0
M  V30 3486 H 324.307 -1.2807 5.10789 0
M  V30 3487 H 326.798 -0.522338 3.74273 0
M  V30 3488 H 327.111 -0.44539 7.71515 0
M  V30 3489 H 325.456 -0.40749 6.93804 0
M  V30 3490 H 328.647 -0.563464 4.64696 0
M  V30 3491 H 328.82 -0.528603 6.4584 0
M  V30 3492 N 322.226 -1.5378 -0.344866 0
M  V30 3493 C 323.158 -1.77988 -1.44406 0
M  V30 3494 C 324.171 -0.661138 -1.48771 0
M  V30 3495 O 325.36 -0.937842 -1.51877 0
M  V30 3496 C 322.46 -1.86345 -2.8307 0
M  V30 3497 C 321.633 -3.16256 -3.0216 0
M  V30 3498 C 320.692 -3.15588 -4.21059 0
M  V30 3499 O 319.718 -3.89314 -4.15239 0
M  V30 3500 N 320.92 -2.37864 -5.29529 0
M  V30 3501 H 323.685 -2.72839 -1.24012 0
M  V30 3502 H 321.246 -1.52814 -0.534737 0
M  V30 3503 H 323.238 -1.83351 -3.60783 0
M  V30 3504 H 321.808 -0.986858 -2.96614 0
M  V30 3505 H 321.028 -3.32385 -2.11929 0
M  V30 3506 H 322.316 -4.0207 -3.11797 0
M  V30 3507 H 321.714 -1.77514 -5.37127 0
M  V30 3508 H 320.271 -2.40668 -6.05741 0
M  V30 3509 N 323.704 0.605807 -1.45491 0
M  V30 3510 C 324.952 1.36207 -1.49305 0
M  V30 3511 C 325.273 1.94519 -0.136863 0
M  V30 3512 O 324.543 1.77261 0.833983 0
M  V30 3513 H 323.123 0.50565 -0.549843 0
M  V30 3514 H 325.785 0.711239 -1.81459 0
M  V30 3515 H 324.881 2.18058 -2.23287 0
M  V30 3516 N 325.182 1.32811 0.848464 0
M  V30 3517 C 326.115 1.16601 1.96162 0
M  V30 3518 C 327.093 0.0638855 1.62474 0
M  V30 3519 O 328.277 0.224348 1.8716 0
M  V30 3520 C 325.404 0.786333 3.29446 0
M  V30 3521 C 324.45 1.89459 3.8211 0
M  V30 3522 S 325.283 3.50395 4.04949 0
M  V30 3523 C 326.439 3.14413 5.41198 0
M  V30 3524 H 326.672 2.10832 2.09612 0
M  V30 3525 H 324.205 1.17543 1.00115 0
M  V30 3526 H 326.163 0.574044 4.06466 0
M  V30 3527 H 324.824 -0.137218 3.138 0
M  V30 3528 H 324.017 1.58207 4.78526 0
M  V30 3529 H 323.619 2.06304 3.11953 0
M  V30 3530 H 325.911 2.64642 6.23675 0
M  V30 3531 H 326.854 4.09874 5.77416 0
M  V30 3532 H 327.262 2.51266 5.05495 0
M  V30 3533 N 326.66 -1.06551 1.16123 0
M  V30 3534 C 327.59 -2.15935 0.88851 0
M  V30 3535 C 328.571 -1.69306 -0.164135 0
M  V30 3536 O 329.756 -1.94193 -0.0167857 0
M  V30 3537 C 326.886 -3.45149 0.385942 0
M  V30 3538 C 325.84 -4.05271 1.3762 0
M  V30 3539 C 325.166 -5.29664 0.732137 0
M  V30 3540 C 326.466 -4.44355 2.74493 0
M  V30 3541 H 328.16 -2.39006 1.80323 0
M  V30 3542 H 325.706 -1.14866 0.868435 0
M  V30 3543 H 327.659 -4.21004 0.182647 0
M  V30 3544 H 326.383 -3.21689 -0.564274 0
M  V30 3545 H 325.042 -3.3147 1.56599 0
M  V30 3546 H 324.69 -5.02499 -0.224483 0
M  V30 3547 H 324.39 -5.70848 1.39307 0
M  V30 3548 H 325.914 -6.08218 0.538802 0
M  V30 3549 H 327.328 -5.11303 2.59311 0
M  V30 3550 H 325.725 -4.96515 3.37035 0
M  V30 3551 H 326.795 -3.55339 3.29943 0
M  V30 3552 N 328.138 -0.959301 -1.25041 0
M  V30 3553 C 329.048 -0.489994 -2.29426 0
M  V30 3554 C 330.064 0.444944 -1.68215 0
M  V30 3555 O 331.24 0.320046 -1.98841 0
M  V30 3556 C 328.305 0.220309 -3.45999 0
M  V30 3557 C 327.366 -0.753418 -4.22637 0
M  V30 3558 C 326.599 -0.076918 -5.33645 0
M  V30 3559 O 326.822 1.13649 -5.58963 0
M  V30 3560 O 325.756 -0.764824 -5.97021 0
M  V30 3561 H 329.582 -1.35755 -2.71669 0
M  V30 3562 H 327.167 -0.725961 -1.30576 0
M  V30 3563 H 329.049 0.619677 -4.16819 0
M  V30 3564 H 327.724 1.06296 -3.0575 0
M  V30 3565 H 326.631 -1.20308 -3.54227 0
M  V30 3566 H 327.964 -1.56423 -4.66683 0
M  V30 3567 N 329.616 1.39756 -0.72842 0
M  V30 3568 C 330.526 2.34444 -0.0855374 0
M  V30 3569 C 331.542 1.57976 0.729356 0
M  V30 3570 O 332.718 1.90301 0.659346 0
M  V30 3571 C 329.783 3.36965 0.815798 0
M  V30 3572 C 328.844 4.29299 -0.0105996 0
M  V30 3573 C 328.077 5.26923 0.84781 0
M  V30 3574 O 328.3 5.30859 2.08673 0
M  V30 3575 O 327.234 6.01249 0.279969 0
M  V30 3576 H 331.06 2.91065 -0.866892 0
M  V30 3577 H 328.645 1.4117 -0.48902 0
M  V30 3578 H 330.527 3.99804 1.33171 0
M  V30 3579 H 329.202 2.82739 1.57608 0
M  V30 3580 H 328.109 3.69703 -0.571877 0
M  V30 3581 H 329.442 4.86712 -0.73295 0
M  V30 3582 N 331.094 0.475555 1.50254 0
M  V30 3583 C 332.34 -0.0780073 2.0265 0
M  V30 3584 C 332.673 -1.38968 1.35652 0
M  V30 3585 O 331.948 -1.8839 0.483691 0
M  V30 3586 C 332.231 -0.257161 3.59181 0
M  V30 3587 C 332.084 1.07585 4.36744 0
M  V30 3588 C 333.403 -1.00965 4.28362 0
M  V30 3589 H 330.522 -0.0268758 0.73651 0
M  V30 3590 H 333.164 0.622015 1.7953 0
M  V30 3591 H 331.314 -0.853412 3.79011 0
M  V30 3592 H 332.986 1.70902 4.28474 0
M  V30 3593 H 331.229 1.6714 4.00308 0
M  V30 3594 H 331.9 0.904088 5.44546 0
M  V30 3595 H 334.376 -0.504214 4.13034 0
M  V30 3596 H 333.252 -1.10381 5.37687 0
M  V30 3597 H 333.513 -2.04731 3.91839 0
M  V30 3598 N 332.573 -1.56217 0.208337 0
M  V30 3599 C 333.819 -1.98242 -0.427552 0
M  V30 3600 C 334.152 -1.09554 -1.60348 0
M  V30 3601 O 333.427 -0.15035 -1.93918 0
M  V30 3602 C 333.71 -3.4931 -0.874907 0
M  V30 3603 C 333.563 -4.48773 0.303751 0
M  V30 3604 C 334.882 -4.04424 -1.73577 0
M  V30 3605 H 332.001 -0.720744 -0.153936 0
M  V30 3606 H 334.643 -1.87586 0.30192 0
M  V30 3607 H 332.793 -3.58522 -1.49648 0
M  V30 3608 H 334.465 -4.51586 0.941682 0
M  V30 3609 H 332.708 -4.23194 0.953375 0
M  V30 3610 H 333.379 -5.51976 -0.0519883 0
M  V30 3611 H 335.855 -3.98075 -1.21143 0
M  V30 3612 H 334.731 -5.1047 -2.01771 0
M  V30 3613 H 334.992 -3.50494 -2.69456 0
M  V30 3614 N 334.051 0.0651679 -1.57465 0
M  V30 3615 C 334.999 1.09542 -2.05191 0
M  V30 3616 C 335.993 1.39675 -0.958509 0
M  V30 3617 O 337.199 1.39003 -1.14359 0
M  V30 3618 H 333.574 0.370623 -0.654326 0
M  V30 3619 H 335.545 0.666802 -2.90854 0
M  V30 3620 C 334.294 2.39881 -2.51699 0
M  V30 3621 H 333.617 2.17547 -3.3543 0
M  V30 3622 H 335.057 3.104 -2.88839 0
M  V30 3623 C 333.516 3.0631 -1.40271 0
M  V30 3624 O 334.046 3.94664 -0.748523 0
M  V30 3625 N 332.252 2.67041 -1.14618 0
M  V30 3626 H 331.799 1.95281 -1.67997 0
M  V30 3627 H 331.757 3.1181 -0.402688 0
M  V30 3628 N 335.529 1.53961 0.336706 0
M  V30 3629 C 336.94 1.62914 0.911925 0
M  V30 3630 C 337.291 0.514795 1.89326 0
M  V30 3631 O 336.416 -0.354395 2.13478 0
M  V30 3632 C 337.011 2.95304 1.66076 0
M  V30 3633 C 335.57 3.06496 2.18489 0
M  V30 3634 C 334.717 2.58403 1.00613 0
M  V30 3635 H 337.668 1.58285 0.114649 0
M  V30 3636 H 337.689 2.84727 2.5241 0
M  V30 3637 H 337.201 3.76387 0.946276 0
M  V30 3638 H 335.302 2.3006 2.93092 0
M  V30 3639 H 335.415 4.1208 2.44391 0
M  V30 3640 H 333.779 2.13977 1.38152 0
M  V30 3641 H 334.562 3.41932 0.306179 0
M  V30 3642 N 337.007 -0.598083 1.45811 0
M  V30 3643 C 337.917 -1.73632 1.57763 0
M  V30 3644 C 338.933 -1.67763 0.461676 0
M  V30 3645 O 340.109 -1.87949 0.723685 0
M  V30 3646 C 337.174 -3.10114 1.55018 0
M  V30 3647 C 336.235 -3.27364 2.77726 0
M  V30 3648 C 335.468 -4.57334 2.75102 0
M  V30 3649 O 335.691 -5.40258 1.8297 0
M  V30 3650 O 334.625 -4.77502 3.66437 0
M  V30 3651 H 338.451 -1.66498 2.53992 0
M  V30 3652 H 336.036 -0.763308 1.28429 0
M  V30 3653 H 337.918 -3.9141 1.56129 0
M  V30 3654 H 336.593 -3.17718 0.619431 0
M  V30 3655 H 335.5 -2.45619 2.82174 0
M  V30 3656 H 336.833 -3.24641 3.69958 0
M  V30 3657 N 338.485 -1.33259 -0.841409 0
M  V30 3658 C 339.448 -1.23221 -1.9326 0
M  V30 3659 C 340.448 -0.151895 -1.60081 0
M  V30 3660 O 341.638 -0.403246 -1.69468 0
M  V30 3661 C 338.77 -0.898123 -3.28856 0
M  V30 3662 H 339.963 -2.2021 -2.03587 0
M  V30 3663 H 337.516 -1.17281 -1.03319 0
M  V30 3664 H 338.251 0.0693841 -3.24226 0
M  V30 3665 H 338.036 -1.67934 -3.54317 0
M  V30 3666 H 339.526 -0.852563 -4.08805 0
M  V30 3667 N 339.963 1.05934 -1.16686 0
M  V30 3668 C 340.895 2.13468 -0.834503 0
M  V30 3669 C 341.908 1.62013 0.15984 0
M  V30 3670 O 343.097 1.7838 -0.0654228 0
M  V30 3671 C 340.197 3.3817 -0.222361 0
M  V30 3672 C 339.37 4.18928 -1.25771 0
M  V30 3673 C 338.429 5.21985 -0.664703 0
M  V30 3674 O 337.455 5.53334 -1.33453 0
M  V30 3675 N 338.657 5.77919 0.546834 0
M  V30 3676 H 341.422 2.42578 -1.75999 0
M  V30 3677 H 338.983 1.21967 -1.06469 0
M  V30 3678 H 340.975 4.04266 0.187472 0
M  V30 3679 H 339.545 3.06655 0.606758 0
M  V30 3680 H 338.765 3.48433 -1.84358 0
M  V30 3681 H 340.053 4.69687 -1.95631 0
M  V30 3682 H 339.451 5.54721 1.10912 0
M  V30 3683 H 338.008 6.45573 0.898829 0
M  V30 3684 N 341.441 0.965919 1.2453 0
M  V30 3685 C 342.857 0.67216 1.44756 0
M  V30 3686 C 343.057 -0.766609 1.86347 0
M  V30 3687 O 342.113 -1.5407 2.00047 0
M  V30 3688 C 343.426 1.65473 2.51076 0
M  V30 3689 C 344.974 1.66716 2.64905 0
M  V30 3690 C 345.449 2.63766 3.74421 0
M  V30 3691 N 346.94 2.62198 3.81846 0
M  V30 3692 C 347.675 3.33966 4.66106 0
M  V30 3693 N 347.171 4.15245 5.54566 0
M  V30 3694 N 348.964 3.22799 4.60171 0
M  V30 3695 H 341.115 1.89553 0.958293 0
M  V30 3696 H 343.378 0.815979 0.482579 0
M  V30 3697 H 343.084 2.68296 2.27399 0
M  V30 3698 H 342.958 1.4261 3.49202 0
M  V30 3699 H 345.345 0.646057 2.87941 0
M  V30 3700 H 345.426 1.93642 1.67142 0
M  V30 3701 H 345.07 3.6601 3.52135 0
M  V30 3702 H 345 2.34121 4.71694 0
M  V30 3703 H 347.491 2.032 3.18619 0
M  V30 3704 H 347.804 4.66898 6.15814 0
M  V30 3705 H 346.149 4.1934 5.54237 0
M  V30 3706 H 349.34 2.58764 3.90075 0
M  V30 3707 H 349.513 3.78994 5.25612 0
M  V30 3708 N 342.919 -1.39368 0.735821 0
M  V30 3709 C 344.166 -2.00497 0.284123 0
M  V30 3710 C 344.494 -1.58387 -1.12889 0
M  V30 3711 O 343.749 -0.804359 -1.78406 0
M  V30 3712 C 344.048 -3.5583 0.334651 0
M  V30 3713 C 343.714 -4.17593 1.7008 0
M  V30 3714 C 342.376 -4.34176 2.07472 0
M  V30 3715 C 344.728 -4.51848 2.59775 0
M  V30 3716 C 342.056 -4.82304 3.34065 0
M  V30 3717 C 344.408 -5.01384 3.85741 0
M  V30 3718 C 343.072 -5.16175 4.23225 0
M  V30 3719 H 342.342 -0.73367 0.103968 0
M  V30 3720 H 344.989 -1.66683 0.942825 0
M  V30 3721 H 343.294 -3.89674 -0.407625 0
M  V30 3722 H 344.991 -4.00986 -0.0329927 0
M  V30 3723 H 341.581 -4.05087 1.40008 0
M  V30 3724 H 345.765 -4.38653 2.32157 0
M  V30 3725 H 341.021 -4.91941 3.63049 0
M  V30 3726 H 345.195 -5.26863 4.55399 0
M  V30 3727 H 342.822 -5.5323 5.21384 0
M  V30 3728 N 344.397 -0.483516 -1.5 0
M  V30 3729 C 345.646 0.0689102 -2.01582 0
M  V30 3730 C 345.959 1.39655 -1.36952 0
M  V30 3731 O 347.165 2.03465 -1.79762 0
M  V30 3732 C 345.621 0.173302 -3.59483 0
M  V30 3733 C 345.229 -1.14665 -4.33077 0
M  V30 3734 C 346.973 0.677024 -4.19066 0
M  V30 3735 C 344.88 -1.00537 -5.82792 0
M  V30 3736 H 343.81 0.0295277 -0.753422 0
M  V30 3737 H 346.461 -0.620295 -1.72698 0
M  V30 3738 H 344.843 0.926569 -3.85007 0
M  V30 3739 H 346.017 -1.91184 -4.19268 0
M  V30 3740 H 344.332 -1.58244 -3.85159 0
M  V30 3741 H 346.929 0.799952 -5.28682 0
M  V30 3742 H 347.272 1.67151 -3.81269 0
M  V30 3743 H 347.805 -0.0192083 -3.97795 0
M  V30 3744 H 344.544 -1.9736 -6.25083 0
M  V30 3745 H 344.064 -0.280776 -5.99142 0
M  V30 3746 H 345.743 -0.677 -6.43448 0
M  V30 3747 N 345.875 1.56104 -0.216619 0
M  V30 3748 C 347.152 1.89988 0.465165 0
M  V30 3749 C 347.532 1.13326 1.78102 0
M  V30 3750 O 346.88 0.241033 2.27225 0
M  V30 3751 C 347.09 3.42646 0.662939 0
M  V30 3752 C 348.438 4.13311 0.972602 0
M  V30 3753 O 349.462 3.48217 0.749901 0
M  V30 3754 O 348.321 5.28396 1.39499 0
M  V30 3755 H 345.415 0.78979 0.245276 0
M  V30 3756 H 347.961 1.67721 -0.258436 0
M  V30 3757 H 346.733 3.90399 -0.26543 0
M  V30 3758 H 346.356 3.70677 1.43821 0
M  V30 3759 N 347.353 -0.0568162 1.57498 0
M  V30 3760 C 348.316 -1.05038 2.03715 0
M  V30 3761 C 349.316 -1.30709 0.936577 0
M  V30 3762 O 350.506 -1.26178 1.20103 0
M  V30 3763 C 347.638 -2.39034 2.43055 0
M  V30 3764 H 348.831 -0.651715 2.92733 0
M  V30 3765 H 346.384 -0.302947 1.53336 0
M  V30 3766 H 347.119 -2.83703 1.57108 0
M  V30 3767 H 346.904 -2.21739 3.2338 0
M  V30 3768 H 348.394 -3.10421 2.79336 0
M  V30 3769 N 348.832 -1.54138 -0.328536 0
M  V30 3770 C 350.081 -1.71318 -1.06456 0
M  V30 3771 C 350.394 -0.491109 -1.89334 0
M  V30 3772 O 351.6 -0.54416 -2.65991 0
M  V30 3773 C 350.056 -3.03 -1.94214 0
M  V30 3774 C 349.664 -4.32595 -1.16471 0
M  V30 3775 C 351.408 -3.29544 -2.67583 0
M  V30 3776 C 349.315 -5.55341 -2.03347 0
M  V30 3777 H 348.245 -0.638429 -0.401155 0
M  V30 3778 H 350.896 -1.80633 -0.323106 0
M  V30 3779 H 349.278 -2.87579 -2.72239 0
M  V30 3780 H 350.452 -4.58766 -0.432525 0
M  V30 3781 H 348.767 -4.12777 -0.548063 0
M  V30 3782 H 351.364 -4.18444 -3.3288 0
M  V30 3783 H 351.707 -2.47206 -3.34955 0
M  V30 3784 H 352.24 -3.45809 -1.96623 0
M  V30 3785 H 348.979 -6.40268 -1.40491 0
M  V30 3786 H 348.499 -5.33397 -2.74313 0
M  V30 3787 H 350.178 -5.91557 -2.62049 0
M  V30 3788 N 350.31 0.590341 -1.46126 0
M  V30 3789 C 351.54 1.37304 -1.54373 0
M  V30 3790 C 351.948 1.88332 -0.181071 0
M  V30 3791 O 351.291 1.63852 0.830559 0
M  V30 3792 C 351.353 2.6012 -2.48149 0
M  V30 3793 C 351.017 2.30613 -3.94546 0
M  V30 3794 C 352.014 1.89915 -4.83971 0
M  V30 3795 C 349.699 2.42993 -4.39613 0
M  V30 3796 C 351.693 1.61981 -6.16475 0
M  V30 3797 C 349.38 2.14672 -5.72153 0
M  V30 3798 C 350.378 1.7423 -6.60404 0
M  V30 3799 O 350.066 1.46251 -7.90485 0
M  V30 3800 H 349.798 0.426086 -0.524811 0
M  V30 3801 H 352.352 0.72539 -1.92165 0
M  V30 3802 H 350.582 3.27664 -2.05361 0
M  V30 3803 H 352.271 3.22182 -2.46887 0
M  V30 3804 H 353.037 1.79872 -4.50412 0
M  V30 3805 H 348.916 2.73435 -3.71153 0
M  V30 3806 H 352.46 1.30341 -6.85315 0
M  V30 3807 H 348.357 2.24337 -6.05263 0
M  V30 3808 H 349.125 1.6016 -8.02677 0
M  V30 3809 N 351.788 1.33704 0.83433 0
M  V30 3810 C 352.72 1.20172 1.9517 0
M  V30 3811 C 353.733 0.131572 1.62267 0
M  V30 3812 O 354.922 0.382406 1.74356 0
M  V30 3813 C 352.022 0.821716 3.28787 0
M  V30 3814 C 351.195 1.98446 3.89792 0
M  V30 3815 C 350.254 1.58469 5.01771 0
M  V30 3816 O 349.28 2.29968 5.20676 0
M  V30 3817 N 350.482 0.492291 5.78409 0
M  V30 3818 H 353.247 2.16429 2.07313 0
M  V30 3819 H 350.808 1.26509 1.0103 0
M  V30 3820 H 352.8 0.536291 4.01131 0
M  V30 3821 H 351.37 -0.0503058 3.1256 0
M  V30 3822 H 350.59 2.43526 3.09982 0
M  V30 3823 H 351.878 2.76236 4.27283 0
M  V30 3824 H 351.276 -0.102349 5.65607 0
M  V30 3825 H 349.833 0.266555 6.51255 0
M  V30 3826 N 353.266 -1.05314 1.17247 0
M  V30 3827 C 354.199 -2.12512 0.831507 0
M  V30 3828 C 355.177 -1.61351 -0.201168 0
M  V30 3829 O 356.361 -1.88317 -0.0829831 0
M  V30 3830 C 353.488 -3.37848 0.24015 0
M  V30 3831 C 352.534 -4.07832 1.24801 0
M  V30 3832 S 353.367 -4.56537 2.79882 0
M  V30 3833 C 354.523 -5.85122 2.22223 0
M  V30 3834 H 354.756 -2.41106 1.7394 0
M  V30 3835 H 352.289 -1.17896 0.996988 0
M  V30 3836 H 354.247 -4.10391 -0.0945588 0
M  V30 3837 H 352.908 -3.07392 -0.645668 0
M  V30 3838 H 352.101 -4.97883 0.78287 0
M  V30 3839 H 351.703 -3.41348 1.52831 0
M  V30 3840 H 353.995 -6.58408 1.59703 0
M  V30 3841 H 354.938 -6.36381 3.10523 0
M  V30 3842 H 355.346 -5.39626 1.65722 0
M  V30 3843 N 354.744 -0.972509 -1.24016 0
M  V30 3844 C 355.991 -0.637034 -1.92219 0
M  V30 3845 C 356.319 0.828418 -1.75976 0
M  V30 3846 O 355.574 1.61206 -1.10955 0
M  V30 3847 C 355.873 -0.963694 -3.44162 0
M  V30 3848 C 355.539 -2.41807 -3.80579 0
M  V30 3849 C 354.201 -2.81556 -3.9023 0
M  V30 3850 C 356.553 -3.36172 -3.98293 0
M  V30 3851 C 353.881 -4.14702 -4.15017 0
M  V30 3852 C 356.233 -4.68952 -4.24578 0
M  V30 3853 C 354.897 -5.08472 -4.32449 0
M  V30 3854 H 354.167 -0.233107 -0.703379 0
M  V30 3855 H 356.814 -1.2249 -1.47202 0
M  V30 3856 H 355.119 -0.29365 -3.90698 0
M  V30 3857 H 356.816 -0.682449 -3.9515 0
M  V30 3858 H 353.406 -2.09988 -3.73635 0
M  V30 3859 H 357.59 -3.06644 -3.90234 0
M  V30 3860 H 352.846 -4.4494 -4.19331 0
M  V30 3861 H 357.02 -5.42037 -4.37229 0
M  V30 3862 H 354.647 -6.11665 -4.51409 0
M  V30 3863 N 356.222 1.38976 -0.743202 0
M  V30 3864 C 357.172 2.27843 -0.084513 0
M  V30 3865 C 358.156 1.44677 0.704094 0
M  V30 3866 O 359.348 1.67511 0.571755 0
M  V30 3867 C 356.477 3.33466 0.815781 0
M  V30 3868 C 355.563 4.24095 0.0208844 0
M  V30 3869 N 355.954 4.95609 -1.0102 0
M  V30 3870 C 354.252 4.45303 0.249293 0
M  V30 3871 C 354.953 5.62287 -1.49024 0
M  V30 3872 N 353.929 5.37571 -0.807377 0
M  V30 3873 H 357.731 2.80593 -0.87436 0
M  V30 3874 H 355.245 1.51755 -0.578283 0
M  V30 3875 H 357.242 3.96008 1.30321 0
M  V30 3876 H 355.902 2.82276 1.6047 0
M  V30 3877 H 356.913 4.98849 -1.39176 0
M  V30 3878 H 353.59 4.0504 1.01237 0
M  V30 3879 H 354.98 6.29519 -2.34853 0
M  V30 3880 N 357.7 0.491464 1.49741 0
M  V30 3881 C 358.928 -0.0535151 2.06831 0
M  V30 3882 C 359.343 -1.31683 1.35296 0
M  V30 3883 O 358.7 -1.77402 0.42836 0
M  V30 3884 C 358.751 -0.320835 3.60073 0
M  V30 3885 O 358.472 0.892394 4.28915 0
M  V30 3886 C 359.973 -0.910519 4.33848 0
M  V30 3887 H 357.193 0.0161909 0.670805 0
M  V30 3888 H 359.737 0.68609 1.92647 0
M  V30 3889 H 357.892 -1.0104 3.73991 0
M  V30 3890 H 358.306 0.649401 5.20464 0
M  V30 3891 H 359.78 -1.04721 5.41976 0
M  V30 3892 H 360.257 -1.90589 3.95692 0
M  V30 3893 H 360.863 -0.258712 4.24512 0
M  V30 3894 N 359.178 -1.55987 0.224894 0
M  V30 3895 C 360.403 -2.03232 -0.41369 0
M  V30 3896 C 360.828 -1.10359 -1.52323 0
M  V30 3897 O 360.186 -0.092395 -1.81064 0
M  V30 3898 C 360.234 -3.48682 -0.919405 0
M  V30 3899 O 359.338 -3.58947 -2.03054 0
M  V30 3900 H 358.679 -0.657428 -0.0931903 0
M  V30 3901 H 361.209 -2.01679 0.34451 0
M  V30 3902 H 361.219 -3.8907 -1.22835 0
M  V30 3903 H 359.894 -4.15761 -0.107339 0
M  V30 3904 H 358.471 -3.30448 -1.72796 0
M  V30 3905 N 360.656 0.0484629 -1.57525 0
M  V30 3906 C 361.902 0.744226 -1.88651 0
M  V30 3907 C 362.235 1.76029 -0.820212 0
M  V30 3908 O 361.51 1.93782 0.166985 0
M  V30 3909 C 361.793 1.43128 -3.30434 0
M  V30 3910 C 361.646 0.43005 -4.47739 0
M  V30 3911 C 362.965 2.37031 -3.70816 0
M  V30 3912 H 360.084 0.269089 -0.68612 0
M  V30 3913 H 362.726 0.00713532 -1.89999 0
M  V30 3914 H 360.876 2.05956 -3.29415 0
M  V30 3915 H 362.548 -0.194816 -4.60888 0
M  V30 3916 H 360.791 -0.252522 -4.33064 0
M  V30 3917 H 361.462 0.948874 -5.43783 0
M  V30 3918 H 363.938 1.84263 -3.73077 0
M  V30 3919 H 362.814 2.82094 -4.70865 0
M  V30 3920 H 363.075 3.22864 -3.02012 0
M  V30 3921 N 362.134 1.5431 0.320358 0
M  V30 3922 C 363.545 1.63872 0.894594 0
M  V30 3923 C 363.896 0.534847 1.88769 0
M  V30 3924 O 363.021 -0.331732 2.13842 0
M  V30 3925 C 363.616 2.97049 1.62934 0
M  V30 3926 C 362.175 3.08796 2.15226 0
M  V30 3927 C 361.322 2.59456 0.978671 0
M  V30 3928 H 364.273 1.58398 0.0978544 0
M  V30 3929 H 364.294 2.87388 2.49376 0
M  V30 3930 H 363.806 3.7737 0.906302 0
M  V30 3931 H 361.907 2.33156 2.90636 0
M  V30 3932 H 362.02 4.14649 2.40006 0
M  V30 3933 H 360.384 2.1543 1.35875 0
M  V30 3934 H 361.167 3.42237 0.269895 0
M  V30 3935 N 363.613 -0.582584 1.46437 0
M  V30 3936 C 364.546 -1.70633 1.51524 0
M  V30 3937 C 365.524 -1.58349 0.369351 0
M  V30 3938 O 366.708 -1.79563 0.573516 0
M  V30 3939 C 363.835 -3.08687 1.39392 0
M  V30 3940 C 362.881 -3.3949 2.58164 0
M  V30 3941 S 363.714 -3.31548 4.20519 0
M  V30 3942 C 364.87 -4.72139 4.10896 0
M  V30 3943 H 365.103 -1.66058 2.46601 0
M  V30 3944 H 362.636 -0.761337 1.34324 0
M  V30 3945 H 364.594 -3.8833 1.33079 0
M  V30 3946 H 363.255 -3.10751 0.457436 0
M  V30 3947 H 362.448 -4.40071 2.45669 0
M  V30 3948 H 362.05 -2.67415 2.61468 0
M  V30 3949 H 364.342 -5.62527 3.77584 0
M  V30 3950 H 365.285 -4.89692 5.11476 0
M  V30 3951 H 365.693 -4.48995 3.42146 0
M  V30 3952 N 365.091 -1.34144 -0.827227 0
M  V30 3953 C 366.021 -1.28005 -1.95287 0
M  V30 3954 C 367.002 -0.158321 -1.69362 0
M  V30 3955 O 368.187 -0.349987 -1.9102 0
M  V30 3956 C 365.317 -1.03036 -3.31664 0
M  V30 3957 C 364.271 -2.11628 -3.72019 0
M  V30 3958 C 363.597 -1.71854 -5.0633 0
M  V30 3959 C 364.897 -3.53417 -3.8457 0
M  V30 3960 H 366.591 -2.22187 -2.00682 0
M  V30 3961 H 364.137 -1.0696 -0.964135 0
M  V30 3962 H 366.09 -0.973863 -4.09993 0
M  V30 3963 H 364.814 -0.0529391 -3.26557 0
M  V30 3964 H 363.473 -2.16339 -2.95961 0
M  V30 3965 H 363.121 -0.727841 -4.97706 0
M  V30 3966 H 362.821 -2.44531 -5.34302 0
M  V30 3967 H 364.345 -1.67692 -5.87122 0
M  V30 3968 H 365.759 -3.51142 -4.5318 0
M  V30 3969 H 364.156 -4.24679 -4.2399 0
M  V30 3970 H 365.226 -3.91072 -2.86689 0
M  V30 3971 N 366.569 1.04691 -1.17803 0
M  V30 3972 C 367.517 2.14665 -0.895635 0
M  V30 3973 C 368.511 1.68806 0.141679 0
M  V30 3974 O 369.717 1.79999 -0.00587914 0
M  V30 3975 H 366.092 0.701038 -0.272121 0
M  V30 3976 H 368.063 2.35685 -1.83017 0
M  V30 3977 C 366.812 3.45019 -0.430962 0
M  V30 3978 H 366.135 3.8071 -1.22064 0
M  V30 3979 H 367.575 4.23125 -0.272301 0
M  V30 3980 C 366.034 3.25943 0.852207 0
M  V30 3981 O 366.564 3.5296 1.91786 0
M  V30 3982 N 364.77 2.79304 0.802346 0
M  V30 3983 H 364.317 2.57518 -0.0650788 0
M  V30 3984 H 364.275 2.66921 1.66134 0
M  V30 3985 N 368.047 0.979072 1.23499 0
M  V30 3986 C 368.977 0.537606 2.27227 0
M  V30 3987 C 369.958 -0.428539 1.64613 0
M  V30 3988 O 371.143 -0.322191 1.91509 0
M  V30 3989 C 368.273 -0.162052 3.46922 0
M  V30 3990 C 367.227 0.721242 4.21879 0
M  V30 3991 C 366.553 -0.110555 5.34586 0
M  V30 3992 C 367.853 2.01141 4.82016 0
M  V30 3993 H 369.547 1.40462 2.64406 0
M  V30 3994 H 367.093 0.67684 1.27102 0
M  V30 3995 H 369.046 -0.482192 4.18632 0
M  V30 3996 H 367.77 -1.06351 3.08799 0
M  V30 3997 H 366.429 1.02482 3.51984 0
M  V30 3998 H 366.077 -1.0125 4.92704 0
M  V30 3999 H 365.777 0.477325 5.85658 0
M  V30 4000 H 367.301 -0.425107 6.09118 0
M  V30 4001 H 368.715 1.75612 5.45741 0
M  V30 4002 H 367.112 2.54695 5.43369 0
M  V30 4003 H 368.182 2.69909 4.02836 0
M  V30 4004 N 369.525 -1.3858 0.750561 0
M  V30 4005 C 370.936 -1.82927 0.373438 0
M  V30 4006 C 371.287 -1.62634 -1.09748 0
M  V30 4007 O 370.412 -1.12588 -1.84805 0
M  V30 4008 C 371.007 -3.32088 0.671029 0
M  V30 4009 C 369.566 -3.74795 0.34722 0
M  V30 4010 C 368.713 -2.61391 0.92575 0
M  V30 4011 H 371.664 -1.27351 0.946958 0
M  V30 4012 H 371.685 -3.80465 -0.0518269 0
M  V30 4013 H 371.197 -3.46826 1.74164 0
M  V30 4014 H 369.298 -3.65638 -0.716933 0
M  V30 4015 H 369.411 -4.71667 0.840656 0
M  V30 4016 H 367.775 -2.52265 0.351327 0
M  V30 4017 H 368.558 -2.78929 2.00133 0
M  V30 4018 N 371.003 -0.499398 -1.49478 0
M  V30 4019 C 372.414 -0.051215 -1.8663 0
M  V30 4020 C 372.765 1.36238 -1.41186 0
M  V30 4021 O 371.89 2.01502 -0.789051 0
M  V30 4022 C 372.485 -0.0861651 -3.3869 0
M  V30 4023 C 371.044 0.30667 -3.75149 0
M  V30 4024 C 370.191 -0.459397 -2.73468 0
M  V30 4025 H 373.142 -0.712264 -1.41818 0
M  V30 4026 H 373.163 0.709507 -3.73826 0
M  V30 4027 H 372.675 -1.11512 -3.71735 0
M  V30 4028 H 370.776 1.33892 -3.47712 0
M  V30 4029 H 370.889 -0.0116669 -4.79099 0
M  V30 4030 H 369.253 0.0905645 -2.54539 0
M  V30 4031 H 370.036 -1.4884 -3.09357 0
M  V30 4032 N 372.481 1.55866 -0.233164 0
M  V30 4033 C 373.758 1.90471 0.444988 0
M  V30 4034 C 374.138 1.15209 1.7689 0
M  V30 4035 O 373.486 0.265119 2.26957 0
M  V30 4036 C 373.696 3.4333 0.626559 0
M  V30 4037 C 375.044 4.14319 0.92871 0
M  V30 4038 O 376.068 3.48993 0.712926 0
M  V30 4039 O 374.927 5.29846 1.33887 0
M  V30 4040 H 372.021 0.792347 0.236885 0
M  V30 4041 H 374.567 1.67437 -0.276211 0
M  V30 4042 H 373.339 3.90095 -0.306822 0
M  V30 4043 H 372.962 3.72181 1.39881 0
M  V30 4044 N 373.959 -0.0401083 1.57549 0
M  V30 4045 C 374.889 -1.04384 2.08869 0
M  V30 4046 C 375.87 -1.38407 0.988817 0
M  V30 4047 O 377.055 -1.47483 1.26342 0
M  V30 4048 C 374.185 -2.34808 2.55895 0
M  V30 4049 C 373.139 -2.15057 3.70047 0
M  V30 4050 C 372.465 -3.51145 4.03239 0
M  V30 4051 C 373.765 -1.54576 4.98902 0
M  V30 4052 H 375.459 -0.616666 2.92981 0
M  V30 4053 H 373.005 -0.295184 1.40942 0
M  V30 4054 H 374.958 -3.05346 2.90417 0
M  V30 4055 H 373.682 -2.79565 1.68853 0
M  V30 4056 H 372.341 -1.46954 3.35857 0
M  V30 4057 H 371.989 -3.93529 3.13279 0
M  V30 4058 H 371.689 -3.38758 4.80122 0
M  V30 4059 H 373.213 -4.23062 4.40285 0
M  V30 4060 H 374.627 -2.15017 5.31451 0
M  V30 4061 H 373.024 -1.52796 5.80322 0
M  V30 4062 H 374.094 -0.51039 4.82206 0
M  V30 4063 N 375.437 -1.54477 -0.31217 0
M  V30 4064 C 376.684 -1.73227 -1.04875 0
M  V30 4065 C 377.012 -0.512042 -1.87639 0
M  V30 4066 O 376.267 0.506131 -1.89042 0
M  V30 4067 C 376.566 -2.967 -1.99258 0
M  V30 4068 C 376.232 -4.30974 -1.32559 0
M  V30 4069 C 374.894 -4.67477 -1.141 0
M  V30 4070 C 377.246 -5.14258 -0.847835 0
M  V30 4071 C 374.574 -5.84852 -0.465326 0
M  V30 4072 C 376.926 -6.32327 -0.185931 0
M  V30 4073 C 375.59 -6.67499 0.0107077 0
M  V30 4074 H 374.86 -0.633881 -0.383765 0
M  V30 4075 H 377.507 -1.88727 -0.324731 0
M  V30 4076 H 375.812 -2.75935 -2.7815 0
M  V30 4077 H 377.509 -3.08401 -2.563 0
M  V30 4078 H 374.099 -4.02262 -1.4793 0
M  V30 4079 H 378.283 -4.86565 -0.978192 0
M  V30 4080 H 373.539 -6.10654 -0.301883 0
M  V30 4081 H 377.713 -6.96135 0.192211 0
M  V30 4082 H 375.34 -7.58306 0.536287 0
M  V30 4083 N 376.915 0.57481 -1.46744 0
M  V30 4084 C 378.331 0.898981 -1.31873 0
M  V30 4085 C 378.531 1.99313 -0.29605 0
M  V30 4086 O 377.587 2.50728 0.298621 0
M  V30 4087 C 378.9 1.30886 -2.7072 0
M  V30 4088 C 380.448 1.42127 -2.78871 0
M  V30 4089 C 380.923 1.86478 -4.18318 0
M  V30 4090 N 382.414 1.93658 -4.20774 0
M  V30 4091 C 383.149 2.29267 -5.2557 0
M  V30 4092 N 382.645 2.63612 -6.40688 0
M  V30 4093 N 384.438 2.29889 -5.1294 0
M  V30 4094 H 376.589 -0.147839 -2.11885 0
M  V30 4095 H 378.852 -0.00347013 -0.947994 0
M  V30 4096 H 378.558 0.578853 -3.46904 0
M  V30 4097 H 378.432 2.26874 -3.01343 0
M  V30 4098 H 380.819 2.14213 -2.0297 0
M  V30 4099 H 380.9 0.443705 -2.51922 0
M  V30 4100 H 380.544 1.14968 -4.94717 0
M  V30 4101 H 380.474 2.85207 -4.42679 0
M  V30 4102 H 382.965 1.69574 -3.37718 0
M  V30 4103 H 383.278 2.89759 -7.16421 0
M  V30 4104 H 381.623 2.61232 -6.44036 0
M  V30 4105 H 384.814 2.02485 -4.22039 0
M  V30 4106 H 384.987 2.57312 -5.94722 0
M  V30 4107 N 378.394 1.34581 0.820102 0
M  V30 4108 C 379.324 1.29038 1.94606 0
M  V30 4109 C 380.305 0.1673 1.69275 0
M  V30 4110 O 381.49 0.360112 1.90832 0
M  V30 4111 C 378.62 1.04793 3.31113 0
M  V30 4112 C 377.574 2.13597 3.70891 0
M  V30 4113 C 376.9 1.74537 5.05412 0
M  V30 4114 C 378.2 3.55451 3.8269 0
M  V30 4115 H 379.894 2.23248 1.99501 0
M  V30 4116 H 377.44 1.0747 0.958449 0
M  V30 4117 H 379.393 0.995592 4.0947 0
M  V30 4118 H 378.117 0.0702565 3.26524 0
M  V30 4119 H 376.776 2.17905 2.9481 0
M  V30 4120 H 376.424 0.754226 4.97313 0
M  V30 4121 H 376.124 2.47361 5.32997 0
M  V30 4122 H 377.648 1.70803 5.86224 0
M  V30 4123 H 379.062 3.5354 4.51312 0
M  V30 4124 H 377.459 4.26922 4.21732 0
M  V30 4125 H 378.529 3.92587 2.84611 0
M  V30 4126 N 379.872 -1.04064 1.18357 0
M  V30 4127 C 381.119 -1.77265 0.978947 0
M  V30 4128 C 381.447 -1.88189 -0.491428 0
M  V30 4129 O 380.702 -1.38653 -1.38108 0
M  V30 4130 C 381.001 -3.20634 1.57888 0
M  V30 4131 C 380.667 -3.29743 3.07539 0
M  V30 4132 C 379.329 -3.31937 3.48384 0
M  V30 4133 C 381.681 -3.29841 4.03552 0
M  V30 4134 C 379.009 -3.3187 4.83818 0
M  V30 4135 C 381.361 -3.31313 5.38901 0
M  V30 4136 C 380.025 -3.31799 5.79194 0
M  V30 4137 H 379.295 -0.648659 0.358222 0
M  V30 4138 H 381.942 -1.22225 1.47422 0
M  V30 4139 H 380.247 -3.78675 1.00561 0
M  V30 4140 H 381.944 -3.75917 1.39598 0
M  V30 4141 H 378.534 -3.28757 2.74986 0
M  V30 4142 H 382.718 -3.27337 3.73047 0
M  V30 4143 H 377.974 -3.30562 5.14333 0
M  V30 4144 H 382.148 -3.30338 6.13066 0
M  V30 4145 H 379.775 -3.315 6.84114 0
M  V30 4146 N 381.35 -0.985608 -1.22978 0
M  V30 4147 C 382.766 -0.695104 -1.43668 0
M  V30 4148 C 382.966 0.736866 -1.87543 0
M  V30 4149 O 382.022 1.50868 -2.02473 0
M  V30 4150 C 383.335 -1.69447 -2.48412 0
M  V30 4151 C 384.883 -1.70909 -2.62219 0
M  V30 4152 C 385.358 -2.6969 -3.70178 0
M  V30 4153 N 386.849 -2.6824 -3.77626 0
M  V30 4154 C 387.584 -3.41339 -4.60733 0
M  V30 4155 N 387.08 -4.24015 -5.4789 0
M  V30 4156 N 388.873 -3.30079 -4.54977 0
M  V30 4157 H 381.024 -1.91054 -0.928016 0
M  V30 4158 H 383.287 -0.823553 -0.469536 0
M  V30 4159 H 382.993 -2.7188 -2.23102 0
M  V30 4160 H 382.867 -1.48147 -3.46889 0
M  V30 4161 H 385.254 -0.691785 -2.86877 0
M  V30 4162 H 385.335 -1.96276 -1.6404 0
M  V30 4163 H 384.979 -3.71566 -3.46268 0
M  V30 4164 H 384.909 -2.41595 -4.67909 0
M  V30 4165 H 387.4 -2.08243 -3.15346 0
M  V30 4166 H 387.713 -4.76636 -6.08308 0
M  V30 4167 H 386.058 -4.28104 -5.47496 0
M  V30 4168 H 389.249 -2.64937 -3.85909 0
M  V30 4169 H 389.422 -3.87308 -5.19516 0
M  V30 4170 N 382.828 1.3818 -0.7579 0
M  V30 4171 C 384.056 2.04301 -0.326937 0
M  V30 4172 C 384.471 1.57163 1.0462 0
M  V30 4173 O 383.828 0.746626 1.66529 0
M  V30 4174 C 383.879 3.59846 -0.345363 0
M  V30 4175 O 383.6 4.05256 -1.66432 0
M  V30 4176 C 385.101 4.4319 0.098927 0
M  V30 4177 H 382.321 0.656443 -0.139012 0
M  V30 4178 H 384.865 1.76786 -1.02796 0
M  V30 4179 H 383.02 3.86182 0.306955 0
M  V30 4180 H 383.434 4.99709 -1.59345 0
M  V30 4181 H 384.908 5.51989 0.0348745 0
M  V30 4182 H 385.385 4.23947 1.14741 0
M  V30 4183 H 385.991 4.22051 -0.52468 0
M  V30 4184 N 384.306 0.507319 1.49211 0
M  V30 4185 C 385.253 -0.267728 2.29242 0
M  V30 4186 C 386.223 -0.954609 1.35928 0
M  V30 4187 O 387.408 -0.960046 1.64887 0
M  V30 4188 C 384.548 -1.32243 3.18756 0
M  V30 4189 C 383.661 -0.64669 4.27132 0
M  V30 4190 C 382.796 -1.68238 5.03855 0
M  V30 4191 C 381.835 -0.98885 6.0406 0
M  V30 4192 N 380.972 -1.96903 6.73924 0
M  V30 4193 H 385.812 0.420968 2.95012 0
M  V30 4194 H 383.349 0.219443 1.45454 0
M  V30 4195 H 385.307 -1.94599 3.69036 0
M  V30 4196 H 383.937 -1.97981 2.54958 0
M  V30 4197 H 382.989 0.0902926 3.80293 0
M  V30 4198 H 384.301 -0.101058 4.98698 0
M  V30 4199 H 383.455 -2.38081 5.58034 0
M  V30 4200 H 382.194 -2.26187 4.32077 0
M  V30 4201 H 381.199 -0.276222 5.49106 0
M  V30 4202 H 382.424 -0.415767 6.77826 0
M  V30 4203 H 380.37 -2.53803 6.04913 0
M  V30 4204 H 380.287 -1.47423 7.41487 0
M  V30 4205 H 381.555 -2.66015 7.32705 0
M  V30 4206 N 385.784 -1.5574 0.241426 0
M  V30 4207 C 387.012 -2.03208 -0.389134 0
M  V30 4208 C 387.427 -1.12082 -1.51931 0
M  V30 4209 O 386.784 -0.134183 -1.82006 0
M  V30 4210 C 386.835 -3.50064 -0.902087 0
M  V30 4211 O 386.556 -4.37717 0.18305 0
M  V30 4212 C 388.057 -4.13268 -1.60389 0
M  V30 4213 H 385.277 -0.664509 -0.0931053 0
M  V30 4214 H 387.821 -2.0124 0.36369 0
M  V30 4215 H 385.976 -3.52583 -1.60511 0
M  V30 4216 H 386.39 -5.24097 -0.205579 0
M  V30 4217 H 387.864 -5.17733 -1.91458 0
M  V30 4218 H 388.341 -3.59434 -2.52397 0
M  V30 4219 H 388.947 -4.14655 -0.945576 0
M  V30 4220 N 387.262 0.0317525 -1.57568 0
M  V30 4221 C 388.508 0.718712 -1.90279 0
M  V30 4222 C 388.863 1.73108 -0.839727 0
M  V30 4223 O 388.156 1.90997 0.15188 0
M  V30 4224 C 388.35 1.43167 -3.27472 0
M  V30 4225 C 388.179 0.489869 -4.47024 0
M  V30 4226 C 386.949 0.111909 -5.05176 0
M  V30 4227 C 389.147 -0.230592 -5.13783 0
M  V30 4228 N 387.129 -0.831427 -6.08244 0
M  V30 4229 C 388.5 -1.02968 -6.1139 0
M  V30 4230 C 390.555 -0.297821 -4.97008 0
M  V30 4231 C 389.258 -1.88982 -6.9403 0
M  V30 4232 C 391.284 -1.14507 -5.80209 0
M  V30 4233 C 390.646 -1.9321 -6.77384 0
M  V30 4234 H 386.745 0.237177 -0.745165 0
M  V30 4235 H 389.329 -0.0211267 -1.94689 0
M  V30 4236 H 387.5 2.14199 -3.23996 0
M  V30 4237 H 389.232 2.0708 -3.47707 0
M  V30 4238 H 385.987 0.473513 -4.71227 0
M  V30 4239 H 386.411 -1.29752 -6.6445 0
M  V30 4240 H 391.053 0.296346 -4.2176 0
M  V30 4241 H 388.771 -2.4948 -7.68626 0
M  V30 4242 H 392.357 -1.20059 -5.69278 0
M  V30 4243 H 391.237 -2.57711 -7.40645 0
M  V30 4244 N 388.74 1.54641 0.303973 0
M  V30 4245 C 389.687 1.85386 1.37479 0
M  V30 4246 C 390.657 0.702528 1.50512 0
M  V30 4247 O 391.842 0.950867 1.65418 0
M  V30 4248 C 388.982 2.10413 2.73533 0
M  V30 4249 C 388.095 3.38049 2.68974 0
M  V30 4250 C 387.23 3.52934 3.97002 0
M  V30 4251 C 386.269 4.74373 3.86829 0
M  V30 4252 N 385.406 4.8608 5.06627 0
M  V30 4253 H 390.246 2.76732 1.1056 0
M  V30 4254 H 387.783 1.37034 0.534805 0
M  V30 4255 H 389.741 2.22919 3.52652 0
M  V30 4256 H 388.371 1.22338 2.98719 0
M  V30 4257 H 387.423 3.3418 1.81736 0
M  V30 4258 H 388.735 4.27288 2.57346 0
M  V30 4259 H 387.889 3.65088 4.84557 0
M  V30 4260 H 386.628 2.61824 4.1146 0
M  V30 4261 H 385.633 4.62255 2.97658 0
M  V30 4262 H 386.858 5.66888 3.73918 0
M  V30 4263 H 384.804 3.97891 5.21554 0
M  V30 4264 H 384.721 5.69315 4.9741 0
M  V30 4265 H 385.989 5.02587 5.95841 0
M  V30 4266 N 390.218 -0.567019 1.47046 0
M  V30 4267 C 391.495 -1.3276 1.43646 0
M  V30 4268 C 391.875 -2.1071 0.128186 0
M  V30 4269 O 391.223 -2.10441 -0.890326 0
M  V30 4270 C 391.433 -2.2404 2.67595 0
M  V30 4271 C 392.781 -2.85372 3.14401 0
M  V30 4272 O 393.805 -2.34346 2.68254 0
M  V30 4273 O 392.664 -3.78091 3.946 0
M  V30 4274 H 389.758 -0.597293 0.571988 0
M  V30 4275 H 392.304 -0.586735 1.59234 0
M  V30 4276 H 391.076 -1.65975 3.54356 0
M  V30 4277 H 390.699 -3.05439 2.54544 0
M  V30 4278 N 391.696 -1.35014 -0.812953 0
M  V30 4279 C 392.646 -1.23959 -1.91359 0
M  V30 4280 C 393.63 -0.136306 -1.60322 0
M  V30 4281 O 394.822 -0.366925 -1.73155 0
M  V30 4282 C 391.951 -1.00736 -3.28188 0
M  V30 4283 C 391.037 -2.15426 -3.65311 0
M  V30 4284 N 391.428 -3.40612 -3.73921 0
M  V30 4285 C 389.726 -2.06672 -3.95225 0
M  V30 4286 C 390.427 -4.15994 -4.06601 0
M  V30 4287 N 389.403 -3.44685 -4.20349 0
M  V30 4288 H 393.205 -2.18815 -1.96208 0
M  V30 4289 H 390.719 -1.27395 -1.00718 0
M  V30 4290 H 392.716 -0.909052 -4.06868 0
M  V30 4291 H 391.376 -0.067586 -3.2463 0
M  V30 4292 H 392.387 -3.75043 -3.5716 0
M  V30 4293 H 389.064 -1.20511 -3.99729 0
M  V30 4294 H 390.454 -5.24145 -4.20382 0
M  V30 4295 N 393.175 1.03435 -1.18907 0
M  V30 4296 C 394.421 1.77005 -0.989798 0
M  V30 4297 C 394.754 1.88205 0.478816 0
M  V30 4298 O 394.029 1.39481 1.35556 0
M  V30 4299 C 394.312 3.19925 -1.65287 0
M  V30 4300 C 394.165 3.1663 -3.19477 0
M  V30 4301 C 395.484 4.18189 -1.37134 0
M  V30 4302 H 392.603 0.642538 -0.360991 0
M  V30 4303 H 395.245 1.20784 -1.46667 0
M  V30 4304 H 393.395 3.67929 -1.24741 0
M  V30 4305 H 395.067 2.76567 -3.692 0
M  V30 4306 H 393.31 2.54491 -3.51307 0
M  V30 4307 H 393.981 4.1758 -3.61013 0
M  V30 4308 H 396.457 3.78761 -1.72276 0
M  V30 4309 H 395.333 5.16394 -1.86087 0
M  V30 4310 H 395.594 4.41112 -0.295424 0
M  V30 4311 N 394.653 0.992116 1.22453 0
M  V30 4312 C 395.616 0.546883 2.2258 0
M  V30 4313 C 396.616 -0.369829 1.56489 0
M  V30 4314 O 397.806 -0.161896 1.73446 0
M  V30 4315 C 394.938 -0.204659 3.40285 0
M  V30 4316 H 396.131 1.43234 2.63484 0
M  V30 4317 H 393.684 0.779239 1.3549 0
M  V30 4318 H 394.419 -1.10614 3.04853 0
M  V30 4319 H 394.204 0.45354 3.89468 0
M  V30 4320 H 395.694 -0.504358 4.14543 0
M  V30 4321 N 396.131 -1.37776 0.765217 0
M  V30 4322 C 397.094 -2.28686 0.153416 0
M  V30 4323 C 398.094 -1.47727 -0.635081 0
M  V30 4324 O 399.284 -1.68027 -0.459632 0
M  V30 4325 C 396.416 -3.31608 -0.790495 0
M  V30 4326 H 397.609 -2.84297 0.954723 0
M  V30 4327 H 395.162 -1.46932 0.53299 0
M  V30 4328 H 395.897 -2.81109 -1.61705 0
M  V30 4329 H 395.682 -3.9144 -0.227348 0
M  V30 4330 H 397.172 -3.99559 -1.21419 0
M  V30 4331 N 397.609 -0.515225 -1.4894 0
M  V30 4332 C 398.855 0.016187 -2.03394 0
M  V30 4333 C 399.21 1.33377 -1.38666 0
M  V30 4334 O 398.503 1.84461 -0.518141 0
M  V30 4335 C 398.697 0.210595 -3.56779 0
M  V30 4336 C 398.526 -1.08659 -4.36375 0
M  V30 4337 C 397.296 -1.64237 -4.77864 0
M  V30 4338 C 399.494 -1.9935 -4.74093 0
M  V30 4339 N 397.476 -2.88398 -5.41941 0
M  V30 4340 C 398.847 -3.08088 -5.38035 0
M  V30 4341 C 400.902 -1.99856 -4.56029 0
M  V30 4342 C 399.605 -4.17377 -5.85823 0
M  V30 4343 C 401.631 -3.08129 -5.04787 0
M  V30 4344 C 400.993 -4.15586 -5.68742 0
M  V30 4345 H 397.092 -0.0352107 -0.781207 0
M  V30 4346 H 399.676 -0.693237 -1.8194 0
M  V30 4347 H 397.847 0.889088 -3.78087 0
M  V30 4348 H 399.579 0.740287 -3.97872 0
M  V30 4349 H 396.334 -1.18566 -4.58518 0
M  V30 4350 H 396.758 -3.51572 -5.78555 0
M  V30 4351 H 401.4 -1.18079 -4.05977 0
M  V30 4352 H 399.118 -4.99943 -6.34888 0
M  V30 4353 H 402.704 -3.09557 -4.92611 0
M  V30 4354 H 401.584 -4.97987 -6.05787 0
M  V30 4355 N 399.087 1.5561 -0.249682 0
M  V30 4356 C 400.364 1.90932 0.424761 0
M  V30 4357 C 400.744 1.17078 1.75658 0
M  V30 4358 O 400.092 0.289176 2.26663 0
M  V30 4359 C 400.302 3.43975 0.590109 0
M  V30 4360 C 401.65 4.15281 0.884714 0
M  V30 4361 O 402.674 3.49729 0.67587 0
M  V30 4362 O 401.533 5.31236 1.28259 0
M  V30 4363 H 398.627 0.794815 0.228468 0
M  V30 4364 H 401.173 1.67135 -0.293954 0
M  V30 4365 H 399.945 3.89748 -0.34818 0
M  V30 4366 H 399.568 3.73644 1.35926 0
M  V30 4367 N 400.565 -0.0233959 1.57583 0
M  V30 4368 C 401.811 -0.714119 1.89811 0
M  V30 4369 C 402.144 -1.74702 0.848113 0
M  V30 4370 O 401.419 -1.94023 -0.136135 0
M  V30 4371 C 401.702 -1.37853 3.32669 0
M  V30 4372 C 401.555 -0.358764 4.48367 0
M  V30 4373 C 402.874 -2.31101 3.7454 0
M  V30 4374 H 399.993 -0.25814 0.690314 0
M  V30 4375 H 402.635 0.0230927 1.89986 0
M  V30 4376 H 400.785 -2.00689 3.3265 0
M  V30 4377 H 402.457 0.268115 4.6052 0
M  V30 4378 H 400.7 0.321387 4.32608 0
M  V30 4379 H 401.371 -0.862242 5.45224 0
M  V30 4380 H 403.847 -1.78304 3.75961 0
M  V30 4381 H 402.723 -2.74567 4.75294 0
M  V30 4382 H 402.984 -3.18018 3.0711 0
M  V30 4383 N 402.043 -1.548 -0.295768 0
M  V30 4384 C 403.292 -1.73538 -1.02798 0
M  V30 4385 C 403.605 -0.531159 -1.8825 0
M  V30 4386 O 404.811 -0.600458 -2.64777 0
M  V30 4387 C 403.267 -3.07051 -1.87744 0
M  V30 4388 C 402.875 -4.34968 -1.07269 0
M  V30 4389 C 404.619 -3.35146 -2.60533 0
M  V30 4390 C 402.526 -5.5953 -1.91521 0
M  V30 4391 H 401.456 -0.646794 -0.387522 0
M  V30 4392 H 404.107 -1.81278 -0.284718 0
M  V30 4393 H 402.489 -2.93289 -2.66078 0
M  V30 4394 H 403.663 -4.5958 -0.335117 0
M  V30 4395 H 401.978 -4.13847 -0.460384 0
M  V30 4396 H 404.575 -4.2541 -3.23929 0
M  V30 4397 H 404.918 -2.54255 -3.29636 0
M  V30 4398 H 405.451 -3.49902 -1.89244 0
M  V30 4399 H 402.19 -6.43103 -1.26878 0
M  V30 4400 H 401.71 -5.39096 -2.62937 0
M  V30 4401 H 403.389 -5.96982 -2.49442 0
M  V30 4402 N 403.521 0.559213 -1.47345 0
M  V30 4403 C 404.768 1.31648 -1.53867 0
M  V30 4404 C 405.096 1.93468 -0.200104 0
M  V30 4405 O 404.351 1.78295 0.806799 0
M  V30 4406 C 404.65 2.44853 -2.6035 0
M  V30 4407 C 404.316 2.00876 -4.03683 0
M  V30 4408 C 402.978 1.88599 -4.42701 0
M  V30 4409 C 405.33 1.67279 -4.93626 0
M  V30 4410 C 402.658 1.41017 -5.69501 0
M  V30 4411 C 405.01 1.21169 -6.20887 0
M  V30 4412 C 403.674 1.07487 -6.58789 0
M  V30 4413 H 402.944 0.481734 -0.56304 0
M  V30 4414 H 405.591 0.627301 -1.80934 0
M  V30 4415 H 403.896 3.19318 -2.27032 0
M  V30 4416 H 405.593 3.03039 -2.62619 0
M  V30 4417 H 402.183 2.11374 -3.72853 0
M  V30 4418 H 406.367 1.75638 -4.64182 0
M  V30 4419 H 401.623 1.29086 -5.97618 0
M  V30 4420 H 405.797 0.942345 -6.89995 0
M  V30 4421 H 403.424 0.703946 -7.56934 0
M  V30 4422 N 404.999 1.35443 0.805782 0
M  V30 4423 C 406.224 1.32037 1.59941 0
M  V30 4424 C 406.649 -0.0994215 1.87837 0
M  V30 4425 O 406.007 -1.06648 1.46615 0
M  V30 4426 C 406.055 2.13354 2.90711 0
M  V30 4427 O 405.159 1.5148 3.83572 0
M  V30 4428 H 404.5 0.452666 0.485787 0
M  V30 4429 H 407.03 1.78496 1.00002 0
M  V30 4430 H 407.04 2.25338 3.40128 0
M  V30 4431 H 405.715 3.16572 2.69732 0
M  V30 4432 H 404.292 1.4834 3.42125 0
M  V30 4433 N 406.477 -1.02803 1.19454 0
M  V30 4434 C 407.424 -2.11099 0.933046 0
M  V30 4435 C 408.394 -1.65571 -0.132447 0
M  V30 4436 O 409.579 -1.90797 0.00987576 0
M  V30 4437 C 406.719 -3.41763 0.478747 0
M  V30 4438 C 405.832 -4.00833 1.6111 0
M  V30 4439 C 404.967 -5.19511 1.10825 0
M  V30 4440 C 404.006 -5.70639 2.21445 0
M  V30 4441 N 403.143 -6.80589 1.72461 0
M  V30 4442 H 407.983 -2.32804 1.86028 0
M  V30 4443 H 405.52 -1.14179 0.927441 0
M  V30 4444 H 407.478 -4.16736 0.196745 0
M  V30 4445 H 406.108 -3.20166 -0.411493 0
M  V30 4446 H 405.16 -3.23066 2.00829 0
M  V30 4447 H 406.472 -4.34794 2.4445 0
M  V30 4448 H 405.626 -6.01645 0.781533 0
M  V30 4449 H 404.365 -4.87086 0.244606 0
M  V30 4450 H 403.37 -4.87116 2.54947 0
M  V30 4451 H 404.595 -6.05102 3.08267 0
M  V30 4452 H 402.541 -6.50016 0.884056 0
M  V30 4453 H 402.458 -7.13681 2.49389 0
M  V30 4454 H 403.726 -7.66317 1.42755 0
M  V30 4455 N 407.956 -0.998596 -1.21925 0
M  V30 4456 C 408.919 -0.558679 -2.22287 0
M  V30 4457 C 409.919 0.361525 -1.56683 0
M  V30 4458 O 411.109 0.152695 -1.73529 0
M  V30 4459 C 408.241 0.18661 -3.40389 0
M  V30 4460 H 409.434 -1.4463 -2.62721 0
M  V30 4461 H 406.987 -0.786413 -1.35075 0
M  V30 4462 H 407.722 1.08996 -3.05435 0
M  V30 4463 H 407.507 -0.474188 -3.89222 0
M  V30 4464 H 408.997 0.482367 -4.14805 0
M  V30 4465 N 409.434 1.37368 -0.772513 0
M  V30 4466 C 410.711 1.93839 -0.26188 0
M  V30 4467 C 411.091 1.7061 1.24319 0
M  V30 4468 O 410.439 1.05534 2.02669 0
M  V30 4469 C 410.649 3.43154 -0.636102 0
M  V30 4470 C 411.997 4.20249 -0.606324 0
M  V30 4471 O 413.021 3.5152 -0.575538 0
M  V30 4472 O 411.88 5.42809 -0.634086 0
M  V30 4473 H 408.974 0.82478 -0.0605555 0
M  V30 4474 H 411.52 1.4665 -0.853917 0
M  V30 4475 H 410.292 3.53647 -1.6748 0
M  V30 4476 H 409.915 3.97596 -0.0170516 0
M  V30 4477 N 410.912 0.523116 1.48665 0
M  V30 4478 C 412.161 -0.01544 2.01694 0
M  V30 4479 C 412.474 -1.35975 1.40606 0
M  V30 4480 O 413.68 -1.98627 1.85093 0
M  V30 4481 C 412.136 -0.0779303 3.59816 0
M  V30 4482 C 411.744 1.26107 4.29885 0
M  V30 4483 C 413.488 -0.565678 4.20714 0
M  V30 4484 C 411.395 1.15954 5.79921 0
M  V30 4485 H 410.325 -0.00954163 0.75394 0
M  V30 4486 H 412.976 0.665865 1.70993 0
M  V30 4487 H 411.358 -0.824165 3.87329 0
M  V30 4488 H 412.532 2.02233 4.14051 0
M  V30 4489 H 410.847 1.68401 3.80828 0
M  V30 4490 H 413.444 -0.6595 5.30617 0
M  V30 4491 H 413.787 -1.56984 3.85567 0
M  V30 4492 H 414.32 0.12467 3.97605 0
M  V30 4493 H 411.059 2.13864 6.19631 0
M  V30 4494 H 410.579 0.439529 5.98187 0
M  V30 4495 H 412.258 0.847361 6.41427 0
M  V30 4496 N 412.39 -1.55475 0.257931 0
M  V30 4497 C 413.62 -2.03314 -0.367026 0
M  V30 4498 C 414.028 -1.13625 -1.51281 0
M  V30 4499 O 413.371 -0.145334 -1.83124 0
M  V30 4500 C 413.433 -3.47362 -0.926284 0
M  V30 4501 C 413.097 -4.56914 0.0886584 0
M  V30 4502 C 414.094 -5.12013 0.902123 0
M  V30 4503 C 411.779 -5.01827 0.217936 0
M  V30 4504 C 413.773 -6.10529 1.83122 0
M  V30 4505 C 411.46 -6.00172 1.15052 0
M  V30 4506 C 412.458 -6.54402 1.95568 0
M  V30 4507 O 412.146 -7.50827 2.87253 0
M  V30 4508 H 411.878 -0.669976 -0.0900443 0
M  V30 4509 H 414.432 -2.01804 0.382673 0
M  V30 4510 H 412.662 -3.46056 -1.72575 0
M  V30 4511 H 414.351 -3.78637 -1.46249 0
M  V30 4512 H 415.117 -4.78139 0.812891 0
M  V30 4513 H 410.996 -4.59272 -0.398721 0
M  V30 4514 H 414.54 -6.52783 2.46008 0
M  V30 4515 H 410.437 -6.33465 1.24064 0
M  V30 4516 H 411.205 -7.68483 2.81739 0
M  V30 4517 N 413.868 0.0150385 -1.57593 0
M  V30 4518 C 415.096 0.714395 -1.94175 0
M  V30 4519 C 415.511 1.68135 -0.858841 0
M  V30 4520 O 414.868 1.81766 0.163567 0
M  V30 4521 C 414.919 1.45933 -3.30735 0
M  V30 4522 O 414.64 0.531167 -4.34868 0
M  V30 4523 C 416.141 2.25456 -3.81686 0
M  V30 4524 H 413.361 0.199923 -0.640525 0
M  V30 4525 H 415.905 -0.0316096 -2.04476 0
M  V30 4526 H 414.06 2.15709 -3.21789 0
M  V30 4527 H 414.474 1.05509 -5.13778 0
M  V30 4528 H 415.948 2.731 -4.79709 0
M  V30 4529 H 416.425 3.07485 -3.13607 0
M  V30 4530 H 417.031 1.60727 -3.9376 0
M  V30 4531 N 415.346 1.54954 0.287554 0
M  V30 4532 C 416.278 1.83224 1.37701 0
M  V30 4533 C 417.291 0.715898 1.46215 0
M  V30 4534 O 418.48 0.993565 1.48292 0
M  V30 4535 C 415.58 1.96723 2.75959 0
M  V30 4536 C 414.753 3.27253 2.90215 0
M  V30 4537 C 413.812 3.30998 4.09056 0
M  V30 4538 O 412.838 4.04457 4.00503 0
M  V30 4539 N 414.04 2.57353 5.20336 0
M  V30 4540 H 416.805 2.77254 1.138 0
M  V30 4541 H 414.366 1.54694 0.477652 0
M  V30 4542 H 416.358 1.96615 3.5373 0
M  V30 4543 H 414.928 1.09626 2.92747 0
M  V30 4544 H 414.148 3.40022 1.99447 0
M  V30 4545 H 415.436 4.13365 2.96659 0
M  V30 4546 H 414.834 1.97327 5.30169 0
M  V30 4547 H 413.391 2.62984 5.96391 0
M  V30 4548 N 416.824 -0.551391 1.4764 0
M  V30 4549 C 417.772 -1.67896 1.60978 0
M  V30 4550 C 418.766 -1.62549 0.476877 0
M  V30 4551 O 419.972 -1.67664 0.654878 0
M  V30 4552 H 416.347 -0.555649 0.506713 0
M  V30 4553 H 418.318 -1.53784 2.55721 0
M  V30 4554 C 417.067 -3.06234 1.64669 0
M  V30 4555 H 416.39 -3.11033 2.51194 0
M  V30 4556 H 417.83 -3.84804 1.7805 0
M  V30 4557 C 416.289 -3.34737 0.381115 0
M  V30 4558 O 416.819 -3.98381 -0.515297 0
M  V30 4559 N 415.025 -2.8944 0.259354 0
M  V30 4560 H 414.572 -2.37827 0.98976 0
M  V30 4561 H 414.53 -3.08882 -0.586464 0
M  V30 4562 N 418.302 -1.35869 -0.798587 0
M  V30 4563 C 419.549 -1.29588 -1.55606 0
M  V30 4564 C 419.877 0.127456 -1.94082 0
M  V30 4565 O 419.132 1.09461 -1.62225 0
M  V30 4566 C 419.431 -2.1556 -2.85077 0
M  V30 4567 C 419.097 -3.6424 -2.65781 0
M  V30 4568 C 417.759 -4.04766 -2.60227 0
M  V30 4569 C 420.111 -4.58547 -2.47758 0
M  V30 4570 C 417.439 -5.37753 -2.34603 0
M  V30 4571 C 419.791 -5.91742 -2.23662 0
M  V30 4572 C 418.455 -6.31402 -2.16534 0
M  V30 4573 H 417.725 -0.474197 -0.569402 0
M  V30 4574 H 420.372 -1.67839 -0.922086 0
M  V30 4575 H 418.677 -1.70216 -3.52893 0
M  V30 4576 H 420.374 -2.08031 -3.42818 0
M  V30 4577 H 416.964 -3.32086 -2.70956 0
M  V30 4578 H 421.148 -4.28117 -2.51056 0
M  V30 4579 H 416.404 -5.67474 -2.2756 0
M  V30 4580 H 420.578 -6.6439 -2.08708 0
M  V30 4581 H 418.205 -7.34381 -1.96441 0
M  V30 4582 N 419.78 1.02168 -1.19998 0
M  V30 4583 C 421.01 1.79036 -1.031 0
M  V30 4584 C 421.418 1.84409 0.423078 0
M  V30 4585 O 420.761 1.29228 1.30559 0
M  V30 4586 C 420.823 3.25185 -1.53281 0
M  V30 4587 C 420.487 3.43431 -3.01503 0
M  V30 4588 C 421.484 3.33063 -3.99206 0
M  V30 4589 C 419.169 3.69412 -3.40353 0
M  V30 4590 C 421.163 3.48413 -5.33748 0
M  V30 4591 C 418.85 3.84406 -4.75053 0
M  V30 4592 C 419.848 3.7391 -5.71559 0
M  V30 4593 O 419.536 3.88452 -7.03818 0
M  V30 4594 H 419.268 0.570043 -0.363355 0
M  V30 4595 H 421.822 1.29524 -1.59414 0
M  V30 4596 H 420.052 3.75756 -0.913483 0
M  V30 4597 H 421.741 3.83671 -1.32481 0
M  V30 4598 H 422.507 3.12934 -3.70537 0
M  V30 4599 H 418.386 3.76671 -2.65782 0
M  V30 4600 H 421.93 3.40137 -6.09059 0
M  V30 4601 H 417.827 4.04035 -5.03415 0
M  V30 4602 H 418.595 4.055 -7.10993 0
M  V30 4603 N 421.258 1.00505 1.21394 0
M  V30 4604 C 422.504 0.698477 1.91031 0
M  V30 4605 C 422.859 -0.762448 1.76648 0
M  V30 4606 O 422.152 -1.54554 1.13241 0
M  V30 4607 C 422.346 1.0546 3.41486 0
M  V30 4608 C 422.175 2.5486 3.70508 0
M  V30 4609 C 420.945 3.21461 3.8986 0
M  V30 4610 C 423.143 3.53019 3.74008 0
M  V30 4611 N 421.125 4.60211 4.06299 0
M  V30 4612 C 422.496 4.77279 3.95733 0
M  V30 4613 C 424.551 3.47154 3.56915 0
M  V30 4614 C 423.254 5.96388 4.02137 0
M  V30 4615 C 425.28 4.65652 3.64585 0
M  V30 4616 C 424.642 5.88717 3.86771 0
M  V30 4617 H 420.741 0.30707 0.719189 0
M  V30 4618 H 423.325 1.28753 1.46051 0
M  V30 4619 H 421.496 0.494007 3.85246 0
M  V30 4620 H 423.228 0.702765 3.98552 0
M  V30 4621 H 419.983 2.71906 3.87768 0
M  V30 4622 H 420.407 5.32216 4.1842 0
M  V30 4623 H 425.049 2.53015 3.38738 0
M  V30 4624 H 422.767 6.90919 4.19114 0
M  V30 4625 H 426.353 4.62717 3.52681 0
M  V30 4626 H 425.233 6.78877 3.92549 0
M  V30 4627 N 422.737 -1.36956 0.779787 0
M  V30 4628 C 423.647 -2.33965 0.172491 0
M  V30 4629 C 424.663 -1.60574 -0.670222 0
M  V30 4630 O 425.839 -1.92617 -0.588263 0
M  V30 4631 C 422.904 -3.39761 -0.690173 0
M  V30 4632 C 421.965 -4.28964 0.169924 0
M  V30 4633 C 421.198 -5.29707 -0.651662 0
M  V30 4634 O 421.421 -5.38238 -1.88827 0
M  V30 4635 O 420.355 -6.01873 -0.0566264 0
M  V30 4636 H 424.181 -2.87647 0.974321 0
M  V30 4637 H 421.766 -1.39258 0.541078 0
M  V30 4638 H 423.648 -4.04471 -1.1824 0
M  V30 4639 H 422.323 -2.88394 -1.47006 0
M  V30 4640 H 421.23 -3.67326 0.708696 0
M  V30 4641 H 422.563 -4.83656 0.913085 0
M  V30 4642 N 424.215 -0.530993 -1.48385 0
M  V30 4643 C 425.145 0.219985 -2.32461 0
M  V30 4644 C 426.126 0.934111 -1.42156 0
M  V30 4645 O 427.311 0.919694 -1.71042 0
M  V30 4646 C 424.441 1.26674 -3.23375 0
M  V30 4647 C 423.395 0.67069 -4.22712 0
M  V30 4648 C 422.721 1.82017 -5.02766 0
M  V30 4649 C 424.021 -0.358268 -5.2107 0
M  V30 4650 H 425.715 -0.48187 -2.95497 0
M  V30 4651 H 423.261 -0.233182 -1.42099 0
M  V30 4652 H 425.214 1.80006 -3.81019 0
M  V30 4653 H 423.938 1.99818 -2.58341 0
M  V30 4654 H 422.597 0.158878 -3.66256 0
M  V30 4655 H 422.245 2.54002 -4.34157 0
M  V30 4656 H 421.945 1.42727 -5.70003 0
M  V30 4657 H 423.469 2.35725 -5.63264 0
M  V30 4658 H 424.883 0.0880081 -5.73232 0
M  V30 4659 H 423.28 -0.66861 -5.96364 0
M  V30 4660 H 424.35 -1.26367 -4.68145 0
M  V30 4661 N 425.693 1.55336 -0.266172 0
M  V30 4662 C 427.109 1.59356 0.0882065 0
M  V30 4663 C 427.309 1.2834 1.55342 0
M  V30 4664 O 426.365 1.03996 2.30089 0
M  V30 4665 C 427.678 2.99409 -0.278364 0
M  V30 4666 C 429.226 3.12196 -0.224243 0
M  V30 4667 C 429.701 4.545 -0.565123 0
M  V30 4668 N 431.192 4.60313 -0.51634 0
M  V30 4669 C 431.927 5.68434 -0.753013 0
M  V30 4670 N 431.423 6.84738 -1.05383 0
M  V30 4671 N 433.216 5.57942 -0.682414 0
M  V30 4672 H 425.367 1.73764 -1.22147 0
M  V30 4673 H 427.63 0.809822 -0.492841 0
M  V30 4674 H 427.336 3.2691 -1.29703 0
M  V30 4675 H 427.21 3.75228 0.385186 0
M  V30 4676 H 429.597 2.84464 0.78512 0
M  V30 4677 H 429.678 2.38609 -0.921922 0
M  V30 4678 H 429.322 4.82956 -1.57213 0
M  V30 4679 H 429.252 5.26374 0.154248 0
M  V30 4680 H 431.743 3.7676 -0.29335 0
M  V30 4681 H 432.056 7.63088 -1.22133 0
M  V30 4682 H 430.401 6.86375 -1.09151 0
M  V30 4683 H 433.592 4.65958 -0.44731 0
M  V30 4684 H 433.765 6.4213 -0.870248 0
M  V30 4685 N 427.171 -0.0066808 1.57599 0
M  V30 4686 C 428.103 -1.02827 2.04839 0
M  V30 4687 C 429.116 -1.31108 0.965113 0
M  V30 4688 O 430.305 -1.28202 1.24203 0
M  V30 4689 C 427.405 -2.36464 2.42771 0
M  V30 4690 C 426.578 -2.27219 3.73751 0
M  V30 4691 C 425.637 -3.43489 3.98625 0
M  V30 4692 O 424.663 -3.21976 4.69382 0
M  V30 4693 N 425.865 -4.66116 3.46 0
M  V30 4694 H 428.63 -0.625455 2.93101 0
M  V30 4695 H 426.191 -0.194198 1.60731 0
M  V30 4696 H 428.183 -3.13008 2.56531 0
M  V30 4697 H 426.753 -2.68512 1.60063 0
M  V30 4698 H 425.973 -1.35629 3.70133 0
M  V30 4699 H 427.261 -2.18208 4.59633 0
M  V30 4700 H 426.659 -4.86493 2.88688 0
M  V30 4701 H 425.216 -5.39949 3.65101 0
M  V30 4702 N 428.649 -1.55105 -0.279332 0
M  V30 4703 C 429.596 -1.8755 -1.34513 0
M  V30 4704 C 430.566 -0.726384 -1.49375 0
M  V30 4705 O 431.751 -0.977063 -1.63884 0
M  V30 4706 C 428.891 -2.14738 -2.70151 0
M  V30 4707 C 428.004 -3.42285 -2.63562 0
M  V30 4708 C 427.139 -3.59206 -3.91337 0
M  V30 4709 C 426.178 -4.80467 -3.79233 0
M  V30 4710 N 425.315 -4.94079 -4.98829 0
M  V30 4711 H 430.155 -2.78456 -1.06143 0
M  V30 4712 H 427.692 -1.37867 -0.512936 0
M  V30 4713 H 429.65 -2.28501 -3.49061 0
M  V30 4714 H 428.28 -1.27075 -2.96735 0
M  V30 4715 H 427.332 -3.37029 -1.76397 0
M  V30 4716 H 428.644 -4.31328 -2.50515 0
M  V30 4717 H 427.798 -3.72751 -4.78687 0
M  V30 4718 H 426.537 -2.68337 -4.07243 0
M  V30 4719 H 425.542 -4.66932 -2.90266 0
M  V30 4720 H 426.767 -5.72765 -3.64852 0
M  V30 4721 H 424.713 -4.06139 -5.15158 0
M  V30 4722 H 424.63 -5.77156 -4.8829 0
M  V30 4723 H 425.898 -5.12003 -5.8777 0
M  V30 4724 N 430.127 0.543554 -1.4793 0
M  V30 4725 C 431.375 1.29752 -1.54948 0
M  V30 4726 C 431.696 1.93764 -0.219242 0
M  V30 4727 O 430.966 1.80639 0.75805 0
M  V30 4728 H 429.546 0.481874 -0.570795 0
M  V30 4729 H 432.208 0.633636 -1.84312 0
M  V30 4730 H 431.304 2.08392 -2.32334 0
M  V30 4731 N 431.605 1.3629 0.791371 0
M  V30 4732 C 432.83 1.33726 1.58531 0
M  V30 4733 C 433.255 -0.0794933 1.87932 0
M  V30 4734 O 432.613 -1.05087 1.47738 0
M  V30 4735 C 432.661 2.16425 2.88431 0
M  V30 4736 O 431.765 1.5554 3.81944 0
M  V30 4737 H 431.106 0.457793 0.480959 0
M  V30 4738 H 433.636 1.79547 0.981031 0
M  V30 4739 H 433.646 2.28933 3.37718 0
M  V30 4740 H 432.321 3.19415 2.66359 0
M  V30 4741 H 430.898 1.51961 3.40532 0
M  V30 4742 N 433.083 -1.0153 1.20538 0
M  V30 4743 C 434.329 -1.75408 1.01783 0
M  V30 4744 C 434.662 -1.88943 -0.448814 0
M  V30 4745 O 433.937 -1.4162 -1.33319 0
M  V30 4746 C 434.22 -3.17255 1.70356 0
M  V30 4747 C 434.073 -3.11508 3.24473 0
M  V30 4748 C 435.392 -4.15955 1.43769 0
M  V30 4749 H 432.511 -0.636713 0.371167 0
M  V30 4750 H 435.153 -1.18436 1.4857 0
M  V30 4751 H 433.303 -3.65898 1.30578 0
M  V30 4752 H 434.975 -2.70658 3.73553 0
M  V30 4753 H 433.218 -2.4887 3.55311 0
M  V30 4754 H 433.889 -4.11784 3.67611 0
M  V30 4755 H 436.365 -3.75973 1.7828 0
M  V30 4756 H 435.241 -5.13368 1.94279 0
M  V30 4757 H 435.502 -4.40586 0.365564 0
M  V30 4758 N 434.561 -1.01147 -1.20859 0
M  V30 4759 C 435.511 -0.548247 -2.2131 0
M  V30 4760 C 436.495 0.393646 -1.5601 0
M  V30 4761 O 437.687 0.217445 -1.75659 0
M  V30 4762 C 434.816 0.117252 -3.431 0
M  V30 4763 C 433.902 -0.846043 -4.15575 0
M  V30 4764 N 434.293 -2.00149 -4.64515 0
M  V30 4765 C 432.591 -0.665783 -4.41003 0
M  V30 4766 C 433.292 -2.60764 -5.19978 0
M  V30 4767 N 432.268 -1.88868 -5.09735 0
M  V30 4768 H 436.07 -1.42921 -2.56809 0
M  V30 4769 H 433.584 -0.876142 -1.36739 0
M  V30 4770 H 435.581 0.46662 -4.1428 0
M  V30 4771 H 434.241 0.994115 -3.09107 0
M  V30 4772 H 435.252 -2.38162 -4.5989 0
M  V30 4773 H 431.929 0.163456 -4.1718 0
M  V30 4774 H 433.319 -3.58519 -5.68255 0
M  V30 4775 N 436.039 1.36541 -0.78704 0
M  V30 4776 C 436.989 2.27459 -0.156957 0
M  V30 4777 C 437.973 1.46843 0.657709 0
M  V30 4778 O 439.165 1.69245 0.518173 0
M  V30 4779 C 436.294 3.35893 0.709278 0
M  V30 4780 C 435.38 4.23947 -0.114049 0
M  V30 4781 N 435.771 4.92145 -1.16736 0
M  V30 4782 C 434.069 4.4587 0.107497 0
M  V30 4783 C 434.77 5.57261 -1.66837 0
M  V30 4784 N 433.746 5.3473 -0.977992 0
M  V30 4785 H 437.548 2.77669 -0.963185 0
M  V30 4786 H 435.062 1.49839 -0.62627 0
M  V30 4787 H 437.059 3.99953 1.17656 0
M  V30 4788 H 435.719 2.87238 1.51408 0
M  V30 4789 H 436.73 4.94169 -1.54976 0
M  V30 4790 H 433.407 4.08056 0.882994 0
M  V30 4791 H 434.797 6.21728 -2.54762 0
M  V30 4792 N 437.518 0.538854 1.48102 0
M  V30 4793 C 438.795 -0.0568108 1.95517 0
M  V30 4794 C 439.175 -1.50408 1.48124 0
M  V30 4795 O 438.523 -2.17133 0.711727 0
M  V30 4796 C 438.733 0.0696262 3.48931 0
M  V30 4797 C 440.081 -0.0851202 4.24515 0
M  V30 4798 O 441.105 -0.0037347 3.562 0
M  V30 4799 O 439.964 -0.257025 5.45895 0
M  V30 4800 H 437.058 -0.0743695 0.823649 0
M  V30 4801 H 439.604 0.604081 1.58584 0
M  V30 4802 H 438.376 1.07744 3.76174 0
M  V30 4803 H 437.999 -0.629714 3.92582 0
M  V30 4804 N 438.996 -1.55193 0.274407 0
M  V30 4805 C 440.226 -2.03692 -0.345442 0
M  V30 4806 C 440.634 -1.15224 -1.50067 0
M  V30 4807 O 439.977 -0.164749 -1.8296 0
M  V30 4808 C 440.039 -3.48325 -0.88939 0
M  V30 4809 C 439.703 -4.56794 0.137115 0
M  V30 4810 C 440.7 -5.11028 0.956378 0
M  V30 4811 C 438.385 -5.01568 0.27115 0
M  V30 4812 C 440.379 -6.08552 1.89587 0
M  V30 4813 C 438.066 -5.98918 1.21412 0
M  V30 4814 C 439.064 -6.52291 2.02498 0
M  V30 4815 O 438.752 -7.47738 2.952 0
M  V30 4816 H 438.484 -0.670893 -0.0829332 0
M  V30 4817 H 441.038 -2.01387 0.404056 0
M  V30 4818 H 439.268 -3.47867 -1.68895 0
M  V30 4819 H 440.957 -3.80167 -1.42225 0
M  V30 4820 H 441.723 -4.7725 0.863559 0
M  V30 4821 H 437.602 -4.5967 -0.349987 0
M  V30 4822 H 441.146 -6.50137 2.52918 0
M  V30 4823 H 437.043 -6.32114 1.30776 0
M  V30 4824 H 437.811 -7.65451 2.89874 0
M  V30 4825 N 440.474 -0.00167713 -1.576 0
M  V30 4826 C 441.89 0.354422 -1.55615 0
M  V30 4827 C 442.09 1.74679 -1.00447 0
M  V30 4828 O 441.146 2.4428 -0.639022 0
M  V30 4829 C 442.459 0.22812 -2.99833 0
M  V30 4830 C 444.007 0.302934 -3.11531 0
M  V30 4831 C 444.482 0.205737 -4.57538 0
M  V30 4832 N 445.973 0.263584 -4.62449 0
M  V30 4833 C 446.708 0.211742 -5.73009 0
M  V30 4834 N 446.204 0.110399 -6.92712 0
M  V30 4835 N 447.997 0.263729 -5.61481 0
M  V30 4836 H 440.148 -0.912498 -1.918 0
M  V30 4837 H 442.411 -0.349928 -0.881053 0
M  V30 4838 H 442.117 -0.729934 -3.44042 0
M  V30 4839 H 441.991 1.00951 -3.6344 0
M  V30 4840 H 444.378 1.25143 -2.67251 0
M  V30 4841 H 444.459 -0.508357 -2.50698 0
M  V30 4842 H 444.103 -0.739225 -5.02492 0
M  V30 4843 H 444.033 1.03554 -5.16318 0
M  V30 4844 H 446.524 0.343173 -3.76339 0
M  V30 4845 H 446.837 0.0767828 -7.72762 0
M  V30 4846 H 445.182 0.0760025 -6.94958 0
M  V30 4847 H 448.373 0.34111 -4.66855 0
M  V30 4848 H 448.546 0.219862 -6.47627 0
M  V30 4849 N 441.952 1.55251 0.271103 0
M  V30 4850 C 443.2 1.75599 1.00047 0
M  V30 4851 C 443.521 0.561188 1.8675 0
M  V30 4852 O 442.791 -0.423846 1.9126 0
M  V30 4853 H 441.371 0.647562 0.372387 0
M  V30 4854 H 444.033 1.92656 0.294876 0
M  V30 4855 H 443.129 2.65766 1.6363 0
M  V30 4856 N 443.43 -0.535701 1.48216 0
M  V30 4857 C 444.679 -1.28828 1.55197 0
M  V30 4858 C 444.992 -1.94263 0.228278 0
M  V30 4859 O 446.198 -2.70927 0.176278 0
M  V30 4860 C 444.654 -2.33727 2.73678 0
M  V30 4861 C 444.262 -1.74386 4.12666 0
M  V30 4862 C 446.006 -3.1003 2.89968 0
M  V30 4863 C 443.913 -2.77192 5.22416 0
M  V30 4864 H 442.843 -0.484484 0.577747 0
M  V30 4865 H 445.494 -0.56646 1.74538 0
M  V30 4866 H 443.876 -3.08919 2.4776 0
M  V30 4867 H 445.05 -1.05421 4.48579 0
M  V30 4868 H 443.365 -1.10595 4.01445 0
M  V30 4869 H 445.962 -3.86842 3.6913 0
M  V30 4870 H 446.305 -3.65542 1.9921 0
M  V30 4871 H 446.838 -2.41952 3.15759 0
M  V30 4872 H 443.577 -2.26507 6.15122 0
M  V30 4873 H 443.097 -3.44502 4.90998 0
M  V30 4874 H 444.776 -3.40285 5.50286 0
M  V30 4875 N 444.908 -1.36708 -0.784132 0
M  V30 4876 C 445.838 -1.34153 -1.91116 0
M  V30 4877 C 446.819 -0.212121 -1.68772 0
M  V30 4878 O 448.004 -0.410581 -1.8981 0
M  V30 4879 C 445.134 -1.13535 -3.28218 0
M  V30 4880 C 444.088 -2.23356 -3.65097 0
M  V30 4881 C 443.414 -1.87875 -5.00607 0
M  V30 4882 C 444.714 -3.65473 -3.73131 0
M  V30 4883 H 446.408 -2.28459 -1.93512 0
M  V30 4884 H 443.954 -1.09973 -0.929618 0
M  V30 4885 H 445.907 -1.10381 -4.06687 0
M  V30 4886 H 444.631 -0.156804 -3.26223 0
M  V30 4887 H 443.29 -2.25645 -2.88929 0
M  V30 4888 H 442.938 -0.885814 -4.95139 0
M  V30 4889 H 442.638 -2.61406 -5.26252 0
M  V30 4890 H 444.162 -1.86286 -5.81489 0
M  V30 4891 H 445.576 -3.65382 -4.41779 0
M  V30 4892 H 443.973 -4.37953 -4.10265 0
M  V30 4893 H 445.043 -3.99995 -2.74102 0
M  V30 4894 N 446.386 1.0089 -1.21074 0
M  V30 4895 C 447.616 1.77933 -1.04993 0
M  V30 4896 C 448.024 1.84847 0.403495 0
M  V30 4897 O 447.367 1.30606 1.29181 0
M  V30 4898 C 447.429 3.23541 -1.56722 0
M  V30 4899 C 447.093 3.40214 -3.05129 0
M  V30 4900 C 448.09 3.2881 -4.02716 0
M  V30 4901 C 445.775 3.65781 -3.44252 0
M  V30 4902 C 447.769 3.42732 -5.37414 0
M  V30 4903 C 445.456 3.79346 -4.79103 0
M  V30 4904 C 446.454 3.67827 -5.75493 0
M  V30 4905 O 446.142 3.80965 -7.07899 0
M  V30 4906 H 445.874 0.566157 -0.369381 0
M  V30 4907 H 448.428 1.27826 -1.60779 0
M  V30 4908 H 446.658 3.74766 -0.953285 0
M  V30 4909 H 448.347 3.82245 -1.36543 0
M  V30 4910 H 449.113 3.08986 -3.73835 0
M  V30 4911 H 444.992 3.73831 -2.69762 0
M  V30 4912 H 448.536 3.33658 -6.12632 0
M  V30 4913 H 444.433 3.98672 -5.07672 0
M  V30 4914 H 445.201 3.97937 -7.15254 0
M  V30 4915 N 447.864 1.01787 1.20321 0
M  V30 4916 C 449.28 0.732951 1.41774 0
M  V30 4917 C 449.48 -0.686883 1.89431 0
M  V30 4918 O 448.536 -1.45446 2.06402 0
M  V30 4919 C 449.849 1.75973 2.43832 0
M  V30 4920 C 451.397 1.77802 2.57596 0
M  V30 4921 C 451.872 2.7941 3.62897 0
M  V30 4922 N 453.363 2.78157 3.70382 0
M  V30 4923 C 454.098 3.53434 4.51521 0
M  V30 4924 N 453.594 4.38392 5.36455 0
M  V30 4925 N 455.387 3.42026 4.46066 0
M  V30 4926 H 447.538 1.93447 0.877035 0
M  V30 4927 H 449.801 0.835712 0.447536 0
M  V30 4928 H 449.507 2.77699 2.15815 0
M  V30 4929 H 449.381 1.57292 3.4284 0
M  V30 4930 H 451.768 0.767602 2.84942 0
M  V30 4931 H 451.849 2.00557 1.58779 0
M  V30 4932 H 451.493 3.80616 3.36295 0
M  V30 4933 H 451.423 2.53916 4.61339 0
M  V30 4934 H 453.914 2.16531 3.09714 0
M  V30 4935 H 454.227 4.92596 5.95457 0
M  V30 4936 H 452.572 4.4247 5.35953 0
M  V30 4937 H 455.763 2.75075 3.78749 0
M  V30 4938 H 455.936 4.00946 5.09064 0
M  V30 4939 N 449.342 -1.36122 0.79427 0
M  V30 4940 C 450.272 -2.32551 0.210328 0
M  V30 4941 C 451.253 -1.56884 -0.657386 0
M  V30 4942 O 452.438 -1.85014 -0.590207 0
M  V30 4943 C 449.568 -3.41128 -0.651819 0
M  V30 4944 C 448.522 -4.27842 0.116395 0
M  V30 4945 C 447.848 -5.2763 -0.86666 0
M  V30 4946 C 449.148 -5.05647 1.30837 0
M  V30 4947 H 450.842 -2.81636 1.01594 0
M  V30 4948 H 448.388 -1.35407 0.489981 0
M  V30 4949 H 450.341 -4.07581 -1.07031 0
M  V30 4950 H 449.065 -2.90622 -1.49019 0
M  V30 4951 H 447.724 -3.62952 0.515915 0
M  V30 4952 H 447.372 -4.73395 -1.70019 0
M  V30 4953 H 447.072 -5.86514 -0.35705 0
M  V30 4954 H 448.596 -5.96955 -1.28361 0
M  V30 4955 H 450.01 -5.65113 0.965393 0
M  V30 4956 H 448.407 -5.73967 1.75161 0
M  V30 4957 H 449.477 -4.37006 2.10128 0
M  V30 4958 N 450.82 -0.546701 -1.47814 0
M  V30 4959 C 451.75 0.195317 -2.32682 0
M  V30 4960 C 452.731 0.918981 -1.43139 0
M  V30 4961 O 453.916 0.901501 -1.72008 0
M  V30 4962 C 451.046 1.23237 -3.247 0
M  V30 4963 C 450 0.625818 -4.234 0
M  V30 4964 C 449.326 1.76674 -5.04669 0
M  V30 4965 C 450.626 -0.413515 -5.2066 0
M  V30 4966 H 452.32 -0.513184 -2.94969 0
M  V30 4967 H 449.866 -0.248241 -1.41844 0
M  V30 4968 H 451.819 1.75955 -3.82907 0
M  V30 4969 H 450.543 1.97067 -2.60446 0
M  V30 4970 H 449.202 0.120023 -3.66403 0
M  V30 4971 H 448.85 2.49383 -4.36826 0
M  V30 4972 H 448.55 1.36673 -5.71484 0
M  V30 4973 H 450.074 2.29738 -5.65732 0
M  V30 4974 H 451.488 0.0272042 -5.73294 0
M  V30 4975 H 449.885 -0.731825 -5.95621 0
M  V30 4976 H 450.955 -1.31325 -4.66778 0
M  V30 4977 N 452.299 1.55045 -0.282633 0
M  V30 4978 C 453.547 1.99365 0.331334 0
M  V30 4979 C 453.868 1.1725 1.55812 0
M  V30 4980 O 453.138 0.263871 1.94115 0
M  V30 4981 H 451.718 0.736397 0.125414 0
M  V30 4982 H 454.38 1.90964 -0.389711 0
M  V30 4983 H 453.476 3.0596 0.616036 0
M  V30 4984 N 453.777 0.010035 1.57597 0
M  V30 4985 C 455.054 -0.710296 1.82248 0
M  V30 4986 C 455.434 -1.91426 0.889911 0
M  V30 4987 O 454.782 -2.28424 -0.0590292 0
M  V30 4988 C 454.992 -1.10655 3.30993 0
M  V30 4989 C 456.34 -1.50621 3.96987 0
M  V30 4990 O 457.364 -1.20007 3.35375 0
M  V30 4991 O 456.223 -2.07587 5.05539 0
M  V30 4992 H 453.317 -0.34673 0.750804 0
M  V30 4993 H 455.863 0.0362578 1.69661 0
M  V30 4994 H 454.635 -0.248826 3.90508 0
M  V30 4995 H 454.258 -1.91189 3.48615 0
M  V30 4996 N 455.255 -1.55392 -0.262866 0
M  V30 4997 C 456.48 -1.80847 -1.01533 0
M  V30 4998 C 456.905 -0.584946 -1.78774 0
M  V30 4999 O 456.263 0.465701 -1.75217 0
M  V30 5000 C 456.311 -3.03866 -1.94159 0
M  V30 5001 O 455.415 -2.79662 -3.03089 0
M  V30 5002 H 454.756 -0.597441 -0.289759 0
M  V30 5003 H 457.286 -2.02553 -0.288698 0
M  V30 5004 H 457.296 -3.32872 -2.35924 0
M  V30 5005 H 455.971 -3.92564 -1.37354 0
M  V30 5006 H 454.548 -2.61781 -2.65566 0
M  V30 5007 N 456.733 0.527833 -1.48498 0
M  V30 5008 C 457.68 1.6322 -1.6318 0
M  V30 5009 C 458.65 1.59199 -0.473815 0
M  V30 5010 O 459.835 1.77591 -0.697563 0
M  V30 5011 C 456.975 3.01474 -1.67951 0
M  V30 5012 C 456.088 3.15713 -2.94871 0
M  V30 5013 C 455.223 4.44539 -2.90789 0
M  V30 5014 C 454.262 4.52315 -4.12404 0
M  V30 5015 N 453.399 5.72533 -4.06387 0
M  V30 5016 H 458.239 1.50011 -2.57489 0
M  V30 5017 H 455.776 0.730298 -1.27691 0
M  V30 5018 H 457.734 3.81572 -1.68698 0
M  V30 5019 H 456.364 3.1345 -0.771306 0
M  V30 5020 H 455.416 2.28854 -3.03859 0
M  V30 5021 H 456.728 3.1732 -3.8485 0
M  V30 5022 H 455.882 5.3293 -2.89949 0
M  V30 5023 H 454.621 4.45457 -1.98542 0
M  V30 5024 H 453.626 3.62331 -4.13517 0
M  V30 5025 H 454.851 4.53134 -5.05812 0
M  V30 5026 H 452.797 5.74344 -3.16962 0
M  V30 5027 H 452.714 5.75643 -4.90073 0
M  V30 5028 H 453.982 6.63204 -4.0961 0
M  V30 5029 N 458.211 1.37122 0.776871 0
M  V30 5030 C 459.144 1.26835 1.89705 0
M  V30 5031 C 460.122 0.14992 1.61907 0
M  V30 5032 O 461.306 0.323242 1.85708 0
M  V30 5033 C 458.433 0.95986 3.24814 0
M  V30 5034 C 457.479 2.09447 3.7153 0
M  V30 5035 S 458.312 3.71368 3.85806 0
M  V30 5036 C 459.468 3.42659 5.23771 0
M  V30 5037 H 459.701 2.21647 1.98141 0
M  V30 5038 H 457.234 1.22685 0.937433 0
M  V30 5039 H 459.192 0.788696 4.02852 0
M  V30 5040 H 457.853 0.0293137 3.14086 0
M  V30 5041 H 457.046 1.8335 4.69467 0
M  V30 5042 H 456.648 2.2255 3.00578 0
M  V30 5043 H 458.94 2.9733 6.0877 0
M  V30 5044 H 459.883 4.39905 5.54878 0
M  V30 5045 H 460.291 2.77708 4.91466 0
M  V30 5046 N 459.689 -1.00246 1.21608 0
M  V30 5047 C 460.914 -1.78167 1.06167 0
M  V30 5048 C 461.339 -1.84138 -0.384035 0
M  V30 5049 O 460.697 -1.28683 -1.27712 0
M  V30 5050 C 460.745 -3.19786 1.66642 0
M  V30 5051 O 459.849 -4.02153 0.913613 0
M  V30 5052 H 459.19 -0.549 0.37349 0
M  V30 5053 H 461.72 -1.25994 1.61204 0
M  V30 5054 H 461.73 -3.70451 1.70969 0
M  V30 5055 H 460.405 -3.14754 2.7185 0
M  V30 5056 H 458.982 -3.60711 0.945635 0
M  V30 5057 N 461.167 -1.02423 -1.1978 0
M  V30 5058 C 462.414 -0.717988 -1.89344 0
M  V30 5059 C 462.742 0.753036 -1.79331 0
M  V30 5060 O 461.997 1.56355 -1.17692 0
M  V30 5061 C 462.296 -1.1088 -3.39765 0
M  V30 5062 C 461.962 -2.57731 -3.6998 0
M  V30 5063 C 460.624 -2.97854 -3.77937 0
M  V30 5064 C 462.976 -3.52763 -3.83677 0
M  V30 5065 C 460.304 -4.31931 -3.97054 0
M  V30 5066 C 462.656 -4.86538 -4.04306 0
M  V30 5067 C 461.32 -5.26356 -4.10494 0
M  V30 5068 H 460.59 -0.26273 -0.692859 0
M  V30 5069 H 463.237 -1.28623 -1.41875 0
M  V30 5070 H 461.542 -0.459094 -3.89101 0
M  V30 5071 H 463.239 -0.849432 -3.919 0
M  V30 5072 H 459.829 -2.25646 -3.64393 0
M  V30 5073 H 464.013 -3.2292 -3.76877 0
M  V30 5074 H 459.269 -4.62324 -4.00083 0
M  V30 5075 H 463.443 -5.60093 -4.13846 0
M  V30 5076 H 461.07 -6.3026 -4.2506 0
M  V30 5077 N 462.645 1.35699 -0.801477 0
M  V30 5078 C 463.555 2.33661 -0.209691 0
M  V30 5079 C 464.571 1.6162 0.644591 0
M  V30 5080 O 465.747 1.93529 0.557545 0
M  V30 5081 C 462.812 3.40816 0.636033 0
M  V30 5082 C 461.873 4.28639 -0.238147 0
M  V30 5083 C 461.106 5.30676 0.567307 0
M  V30 5084 O 461.329 5.41174 1.8024 0
M  V30 5085 O 460.263 6.01887 -0.0391336 0
M  V30 5086 H 464.089 2.8606 -1.01996 0
M  V30 5087 H 461.674 1.38379 -0.563164 0
M  V30 5088 H 463.556 4.06301 1.11791 0
M  V30 5089 H 462.231 2.90696 1.42399 0
M  V30 5090 H 461.138 3.66152 -0.767044 0
M  V30 5091 H 462.471 4.82143 -0.989915 0
M  V30 5092 N 464.123 0.554532 1.47522 0
M  V30 5093 C 465.4 -0.0360704 1.95567 0
M  V30 5094 C 465.78 -1.48828 1.49711 0
M  V30 5095 O 465.128 -2.16366 0.734717 0
M  V30 5096 C 465.338 0.106631 3.48837 0
M  V30 5097 C 466.686 -0.0400899 4.24581 0
M  V30 5098 O 467.71 0.0340453 3.56184 0
M  V30 5099 O 466.569 -0.199111 5.46137 0
M  V30 5100 H 463.663 -0.0656294 0.824392 0
M  V30 5101 H 466.209 0.620867 1.57935 0
M  V30 5102 H 464.981 1.11727 3.7501 0
M  V30 5103 H 464.604 -0.58804 3.93227 0
M  V30 5104 N 465.601 -1.54893 0.290851 0
M  V30 5105 C 466.85 -1.99111 -0.322113 0
M  V30 5106 C 467.163 -1.18283 -1.55784 0
M  V30 5107 O 468.369 -1.5272 -2.24475 0
M  V30 5108 C 466.825 -3.54442 -0.624438 0
M  V30 5109 C 466.433 -4.44066 0.592373 0
M  V30 5110 C 468.177 -4.07211 -1.19916 0
M  V30 5111 C 466.084 -5.90812 0.263762 0
M  V30 5112 H 465.014 -0.743712 -0.124133 0
M  V30 5113 H 467.665 -1.79132 0.39797 0
M  V30 5114 H 466.047 -3.70281 -1.40384 0
M  V30 5115 H 467.221 -4.39999 1.36886 0
M  V30 5116 H 465.536 -4.02015 1.08502 0
M  V30 5117 H 468.133 -5.14407 -1.45909 0
M  V30 5118 H 468.476 -3.57196 -2.13815 0
M  V30 5119 H 469.009 -3.94873 -0.481687 0
M  V30 5120 H 465.748 -6.44955 1.17105 0
M  V30 5121 H 465.268 -5.97911 -0.475655 0
M  V30 5122 H 466.947 -6.46852 -0.138354 0
M  V30 5123 N 467.08 -0.0183926 -1.57589 0
M  V30 5124 C 468.027 0.967022 -2.09565 0
M  V30 5125 C 468.997 1.32983 -0.995225 0
M  V30 5126 O 470.182 1.42501 -1.26878 0
M  V30 5127 C 467.322 2.24772 -2.61861 0
M  V30 5128 C 466.435 1.94232 -3.85873 0
M  V30 5129 C 465.57 3.16518 -4.26603 0
M  V30 5130 C 464.609 2.81748 -5.43401 0
M  V30 5131 N 463.746 3.96626 -5.79338 0
M  V30 5132 H 468.586 0.516874 -2.93483 0
M  V30 5133 H 466.123 0.243544 -1.4507 0
M  V30 5134 H 468.081 2.99667 -2.90268 0
M  V30 5135 H 466.711 2.67423 -1.8079 0
M  V30 5136 H 465.763 1.09625 -3.64262 0
M  V30 5137 H 467.075 1.64616 -4.70853 0
M  V30 5138 H 466.229 3.99743 -4.56389 0
M  V30 5139 H 464.968 3.49286 -3.40368 0
M  V30 5140 H 463.973 1.96933 -5.1332 0
M  V30 5141 H 465.198 2.50207 -6.31327 0
M  V30 5142 H 463.144 4.29257 -4.96059 0
M  V30 5143 H 463.061 3.70598 -6.58933 0
M  V30 5144 H 464.329 4.80586 -6.13724 0
M  V30 5145 N 468.558 1.5553 0.254621 0
M  V30 5146 C 469.521 1.88872 1.29846 0
M  V30 5147 C 470.521 0.764591 1.41459 0
M  V30 5148 O 471.711 1.03265 1.40293 0
M  V30 5149 C 468.843 2.11032 2.67728 0
M  V30 5150 H 470.036 2.82201 1.01502 0
M  V30 5151 H 467.589 1.48303 0.493556 0
M  V30 5152 H 468.324 1.20146 3.01223 0
M  V30 5153 H 468.109 2.92895 2.60682 0
M  V30 5154 H 469.599 2.38038 3.43115 0
M  V30 5155 N 470.036 -0.519951 1.48776 0
M  V30 5156 C 470.984 -1.64443 1.64503 0
M  V30 5157 C 471.978 -1.61501 0.511248 0
M  V30 5158 O 473.184 -1.66238 0.690294 0
M  V30 5159 H 469.559 -0.544776 0.518385 0
M  V30 5160 H 471.53 -1.48325 2.58925 0
M  V30 5161 C 470.279 -3.02673 1.71127 0
M  V30 5162 H 469.602 -3.05635 2.57735 0
M  V30 5163 H 471.042 -3.80941 1.86172 0
M  V30 5164 C 469.501 -3.33854 0.452032 0
M  V30 5165 O 470.031 -3.99385 -0.430678 0
M  V30 5166 N 468.237 -2.88825 0.32069 0
M  V30 5167 H 467.784 -2.35674 1.03998 0
M  V30 5168 H 467.742 -3.10056 -0.520814 0
M  V30 5169 N 471.514 -1.37532 -0.769588 0
M  V30 5170 C 472.76 -1.33057 -1.53048 0
M  V30 5171 C 473.093 0.0841865 -1.94017 0
M  V30 5172 O 472.368 1.04198 -1.64235 0
M  V30 5173 C 472.651 -2.27166 -2.79406 0
M  V30 5174 C 472.504 -3.77429 -2.44677 0
M  V30 5175 C 473.823 -2.19683 -3.81349 0
M  V30 5176 H 470.942 -0.484655 -0.555228 0
M  V30 5177 H 473.584 -1.68251 -0.882702 0
M  V30 5178 H 471.734 -1.97283 -3.34682 0
M  V30 5179 H 473.406 -4.17918 -1.953 0
M  V30 5180 H 471.649 -3.95892 -1.77346 0
M  V30 5181 H 472.32 -4.38716 -3.35011 0
M  V30 5182 H 474.796 -2.46029 -3.35573 0
M  V30 5183 H 473.672 -2.87668 -4.67481 0
M  V30 5184 H 473.933 -1.19045 -4.25771 0
M  V30 5185 N 472.992 0.995999 -1.22138 0
M  V30 5186 C 474.22 1.77066 -1.07029 0
M  V30 5187 C 474.635 1.8495 0.379357 0
M  V30 5188 O 473.992 1.3174 1.26297 0
M  V30 5189 C 474.043 3.20533 -1.67155 0
M  V30 5190 O 473.764 3.13082 -3.06449 0
M  V30 5191 C 475.265 4.14461 -1.5728 0
M  V30 5192 H 472.485 0.556179 -0.375374 0
M  V30 5193 H 475.029 1.25238 -1.61666 0
M  V30 5194 H 473.184 3.6944 -1.16589 0
M  V30 5195 H 473.598 4.03283 -3.35355 0
M  V30 5196 H 475.072 5.1289 -2.04078 0
M  V30 5197 H 475.549 4.36005 -0.528795 0
M  V30 5198 H 476.155 3.71449 -2.07136 0
M  V30 5199 N 474.47 1.03057 1.19235 0
M  V30 5200 C 475.38 0.622922 2.26179 0
M  V30 5201 C 476.396 -0.346113 1.70523 0
M  V30 5202 O 477.572 -0.203572 2.00369 0
M  V30 5203 C 474.637 -0.0182063 3.46695 0
M  V30 5204 C 473.698 0.998546 4.17526 0
M  V30 5205 C 472.931 0.387917 5.32288 0
M  V30 5206 O 473.154 -0.808668 5.64639 0
M  V30 5207 O 472.088 1.1116 5.91546 0
M  V30 5208 H 475.914 1.51363 2.63292 0
M  V30 5209 H 473.499 0.800856 1.26122 0
M  V30 5210 H 475.381 -0.375606 4.19723 0
M  V30 5211 H 474.056 -0.882895 3.11427 0
M  V30 5212 H 472.963 1.40756 3.4661 0
M  V30 5213 H 474.296 1.83366 4.56769 0
M  V30 5214 N 475.948 -1.35272 0.808662 0
M  V30 5215 C 476.881 -2.27595 0.165994 0
M  V30 5216 C 477.859 -1.48189 -0.669241 0
M  V30 5217 O 479.043 -1.77444 -0.636073 0
M  V30 5218 C 476.17 -3.29843 -0.769505 0
M  V30 5219 C 475.216 -4.26498 -0.0136267 0
M  V30 5220 S 476.049 -5.18878 1.32384 0
M  V30 5221 C 477.205 -6.24666 0.392838 0
M  V30 5222 H 477.438 -2.81755 0.948756 0
M  V30 5223 H 474.971 -1.42103 0.603828 0
M  V30 5224 H 476.929 -3.89247 -1.30374 0
M  V30 5225 H 475.59 -2.74558 -1.52567 0
M  V30 5226 H 474.783 -4.98769 -0.724227 0
M  V30 5227 H 474.385 -3.71274 0.450713 0
M  V30 5228 H 476.677 -6.7619 -0.4211 0
M  V30 5229 H 477.62 -6.99741 1.0848 0
M  V30 5230 H 478.028 -5.64499 -0.0123908 0
M  V30 5231 N 477.426 -0.562348 -1.47226 0
M  V30 5232 C 478.356 0.170627 -2.32876 0
M  V30 5233 C 479.337 0.903748 -1.44106 0
M  V30 5234 O 480.522 0.883206 -1.72954 0
M  V30 5235 C 477.652 1.19786 -3.25989 0
M  V30 5236 C 476.606 0.580875 -4.2404 0
M  V30 5237 C 475.932 1.71311 -5.06514 0
M  V30 5238 C 477.232 -0.468714 -5.20193 0
M  V30 5239 H 478.926 -0.544441 -2.94408 0
M  V30 5240 H 476.472 -0.263271 -1.41573 0
M  V30 5241 H 478.425 1.71884 -3.84752 0
M  V30 5242 H 477.149 1.94294 -2.62521 0
M  V30 5243 H 475.808 0.0811538 -3.6651 0
M  V30 5244 H 475.456 2.44736 -4.39447 0
M  V30 5245 H 475.156 1.30604 -5.72902 0
M  V30 5246 H 476.68 2.23725 -5.68137 0
M  V30 5247 H 478.094 -0.0336028 -5.7329 0
M  V30 5248 H 476.491 -0.794957 -5.94811 0
M  V30 5249 H 477.561 -1.36269 -4.65359 0
M  V30 5250 N 478.904 1.54736 -0.299062 0
M  V30 5251 C 479.867 2.22127 0.565012 0
M  V30 5252 C 480.867 1.20669 1.06281 0
M  V30 5253 O 482.057 1.45417 0.959145 0
M  V30 5254 C 479.189 2.90611 1.78208 0
M  V30 5255 H 480.382 2.99891 -0.0237448 0
M  V30 5256 H 477.935 1.5622 -0.0498788 0
M  V30 5257 H 478.67 2.16921 2.41072 0
M  V30 5258 H 478.455 3.64984 1.43281 0
M  V30 5259 H 479.945 3.42026 2.396 0
M  V30 5260 N 480.382 0.0267497 1.57577 0
M  V30 5261 C 481.63 -0.651116 1.91324 0
M  V30 5262 C 481.951 -1.72804 0.90353 0
M  V30 5263 O 481.221 -1.95822 -0.0552946 0
M  V30 5264 H 479.801 -0.243491 0.706202 0
M  V30 5265 H 482.463 0.0739935 1.94759 0
M  V30 5266 H 481.559 -1.10536 2.9187 0
M  V30 5267 N 481.861 -1.55662 -0.24637 0
M  V30 5268 C 483.109 -1.77168 -0.972411 0
M  V30 5269 C 483.43 -0.590827 -1.85834 0
M  V30 5270 O 482.7 0.393365 -1.9191 0
M  V30 5271 H 481.28 -0.653405 -0.362038 0
M  V30 5272 H 483.942 -1.93101 -0.264189 0
M  V30 5273 H 483.038 -2.68335 -1.59382 0
M  V30 5274 N 483.339 0.512053 -1.4905 0
M  V30 5275 C 484.585 1.26874 -1.58212 0
M  V30 5276 C 484.918 1.9241 -0.263073 0
M  V30 5277 O 484.193 1.80181 0.732476 0
M  V30 5278 C 484.476 2.34428 -2.73341 0
M  V30 5279 C 484.329 1.73466 -4.15006 0
M  V30 5280 C 485.648 3.36073 -2.84154 0
M  V30 5281 H 482.767 0.459924 -0.575881 0
M  V30 5282 H 485.409 0.568587 -1.81293 0
M  V30 5283 H 483.559 2.94146 -2.53792 0
M  V30 5284 H 485.231 1.17661 -4.46042 0
M  V30 5285 H 483.474 1.03921 -4.21168 0
M  V30 5286 H 484.145 2.51426 -4.91415 0
M  V30 5287 H 486.621 2.86332 -3.01916 0
M  V30 5288 H 485.497 4.08703 -3.66406 0
M  V30 5289 H 485.758 3.97725 -1.93048 0
M  V30 5290 N 484.817 1.37938 0.762283 0
M  V30 5291 C 486.094 1.24196 1.51112 0
M  V30 5292 C 486.474 -0.160409 2.1049 0
M  V30 5293 O 485.822 -1.16904 1.96331 0
M  V30 5294 C 486.032 2.34537 2.58445 0
M  V30 5295 C 487.38 2.7254 3.25588 0
M  V30 5296 O 488.404 2.33783 2.68745 0
M  V30 5297 O 487.263 3.39343 4.28379 0
M  V30 5298 H 484.357 0.485175 0.669727 0
M  V30 5299 H 486.903 1.49743 0.798438 0
M  V30 5300 H 485.675 3.28406 2.12756 0
M  V30 5301 H 485.298 2.10505 3.37303 0
M  V30 5302 N 486.295 -0.989507 1.22664 0
M  V30 5303 C 487.523 -1.76496 1.07967 0
M  V30 5304 C 487.938 -1.85148 -0.369543 0
M  V30 5305 O 487.295 -1.32408 -1.25596 0
M  V30 5306 C 487.346 -3.19642 1.68853 0
M  V30 5307 O 487.067 -3.11453 3.08105 0
M  V30 5308 C 488.568 -4.13621 1.59475 0
M  V30 5309 H 485.788 -0.55418 0.378319 0
M  V30 5310 H 488.332 -1.24378 1.62328 0
M  V30 5311 H 486.487 -3.68816 1.18547 0
M  V30 5312 H 486.901 -4.01499 3.37489 0
M  V30 5313 H 488.375 -5.11801 2.06795 0
M  V30 5314 H 488.852 -4.35718 0.55191 0
M  V30 5315 H 489.458 -3.70346 2.09103 0
M  V30 5316 N 487.773 -1.03688 -1.18687 0
M  V30 5317 C 489.001 -0.757918 -1.92518 0
M  V30 5318 C 489.416 0.684398 -1.75959 0
M  V30 5319 O 488.773 1.46617 -1.08673 0
M  V30 5320 C 488.824 -1.10985 -3.44042 0
M  V30 5321 O 488.545 -2.49554 -3.60076 0
M  V30 5322 C 490.046 -0.854844 -4.3498 0
M  V30 5323 H 487.266 -0.276699 -0.611293 0
M  V30 5324 H 489.81 -1.38352 -1.50595 0
M  V30 5325 H 487.965 -0.529279 -3.83767 0
M  V30 5326 H 488.379 -2.6291 -4.53849 0
M  V30 5327 H 489.853 -1.15098 -5.39867 0
M  V30 5328 H 490.33 0.210507 -4.38695 0
M  V30 5329 H 490.936 -1.41853 -4.00946 0
M  V30 5330 N 489.251 1.34841 -0.815825 0
M  V30 5331 C 490.476 2.03261 -0.41226 0
M  V30 5332 C 490.901 1.61055 0.971751 0
M  V30 5333 O 490.259 0.7917 1.63101 0
M  V30 5334 C 490.307 3.56914 -0.514289 0
M  V30 5335 O 489.411 4.09728 0.468675 0
M  V30 5336 H 488.752 0.641664 -0.170771 0
M  V30 5337 H 491.282 1.72241 -1.10427 0
M  V30 5338 H 491.292 4.06156 -0.387457 0
M  V30 5339 H 489.967 3.86982 -1.52375 0
M  V30 5340 H 488.544 3.71681 0.301316 0
M  V30 5341 N 490.729 0.570148 1.46925 0
M  V30 5342 C 491.662 -0.218362 2.27153 0
M  V30 5343 C 492.64 -0.90847 1.34854 0
M  V30 5344 O 493.824 -0.924875 1.64251 0
M  V30 5345 C 490.951 -1.3122 3.12248 0
M  V30 5346 C 489.997 -0.729277 4.20219 0
M  V30 5347 S 490.83 0.434159 5.33737 0
M  V30 5348 C 491.986 -0.661188 6.22398 0
M  V30 5349 H 492.219 0.462393 2.93682 0
M  V30 5350 H 489.752 0.356753 1.50222 0
M  V30 5351 H 491.71 -1.93856 3.61842 0
M  V30 5352 H 490.371 -1.96485 2.45056 0
M  V30 5353 H 489.564 -1.5511 4.79538 0
M  V30 5354 H 489.166 -0.178836 3.73572 0
M  V30 5355 H 491.458 -1.55006 6.5953 0
M  V30 5356 H 492.401 -0.105046 7.08022 0
M  V30 5357 H 492.809 -0.959682 5.56283 0
M  V30 5358 N 492.207 -1.54576 0.307264 0
M  V30 5359 C 493.435 -2.04675 -0.302597 0
M  V30 5360 C 493.85 -1.18425 -1.47041 0
M  V30 5361 O 493.207 -0.211257 -1.81273 0
M  V30 5362 C 493.258 -3.53575 -0.752801 0
M  V30 5363 O 492.979 -4.36547 0.368536 0
M  V30 5364 C 494.48 -4.19699 -1.42717 0
M  V30 5365 H 491.7 -0.66786 -0.0648374 0
M  V30 5366 H 494.244 -1.99516 0.448716 0
M  V30 5367 H 492.399 -3.59074 -1.45412 0
M  V30 5368 H 492.813 -5.24497 0.0168937 0
M  V30 5369 H 494.287 -5.25388 -1.69327 0
M  V30 5370 H 494.764 -3.69815 -2.36925 0
M  V30 5371 H 495.37 -4.18293 -0.768856 0
M  V30 5372 N 493.685 -0.035106 -1.57561 0
M  V30 5373 C 494.615 0.942993 -2.13612 0
M  V30 5374 C 495.596 1.33531 -1.05373 0
M  V30 5375 O 496.781 1.41287 -1.33235 0
M  V30 5376 C 493.911 2.22332 -2.66807 0
M  V30 5377 C 492.865 1.97156 -3.79886 0
M  V30 5378 C 492.191 3.31506 -4.19533 0
M  V30 5379 C 493.491 1.30596 -5.05709 0
M  V30 5380 H 495.185 0.476179 -2.95589 0
M  V30 5381 H 492.731 0.227602 -1.4219 0
M  V30 5382 H 494.684 2.91142 -3.04654 0
M  V30 5383 H 493.408 2.7119 -1.81999 0
M  V30 5384 H 492.067 1.30763 -3.42486 0
M  V30 5385 H 491.715 3.78134 -3.31698 0
M  V30 5386 H 491.415 3.15465 -4.95738 0
M  V30 5387 H 492.939 4.01574 -4.59968 0
M  V30 5388 H 494.353 1.89416 -5.41105 0
M  V30 5389 H 492.75 1.24934 -5.86951 0
M  V30 5390 H 493.82 0.279742 -4.84092 0
M  V30 5391 N 495.163 1.55791 0.238111 0
M  V30 5392 C 496.095 1.87513 1.31802 0
M  V30 5393 C 497.108 0.762053 1.43863 0
M  V30 5394 O 498.297 1.04024 1.45056 0
M  V30 5395 C 495.397 2.05402 2.69561 0
M  V30 5396 C 494.57 3.3632 2.79656 0
M  V30 5397 C 493.629 3.43844 3.98319 0
M  V30 5398 O 492.655 4.16994 3.87433 0
M  V30 5399 N 493.857 2.73777 5.11885 0
M  V30 5400 H 496.622 2.80734 1.04922 0
M  V30 5401 H 494.183 1.56135 0.428196 0
M  V30 5402 H 496.175 2.07769 3.47296 0
M  V30 5403 H 494.745 1.18884 2.89111 0
M  V30 5404 H 493.965 3.46195 1.88528 0
M  V30 5405 H 495.253 4.22594 2.83358 0
M  V30 5406 H 494.651 2.14094 5.23622 0
M  V30 5407 H 493.208 2.81825 5.87723 0
M  V30 5408 N 496.642 -0.504142 1.49319 0
M  V30 5409 C 497.888 -1.25767 1.59857 0
M  V30 5410 C 498.243 -1.90348 0.280262 0
M  V30 5411 O 497.536 -1.77588 -0.719241 0
M  V30 5412 C 497.73 -2.35021 2.69258 0
M  V30 5413 C 497.559 -1.81154 4.11598 0
M  V30 5414 C 496.329 -1.62596 4.78425 0
M  V30 5415 C 498.527 -1.3252 4.96934 0
M  V30 5416 N 496.509 -1.03625 6.05091 0
M  V30 5417 C 497.88 -0.856633 6.14054 0
M  V30 5418 C 499.935 -1.21063 4.82958 0
M  V30 5419 C 498.638 -0.284841 7.18736 0
M  V30 5420 C 500.664 -0.652815 5.87786 0
M  V30 5421 C 500.026 -0.194461 7.04132 0
M  V30 5422 H 496.125 -0.450293 0.639343 0
M  V30 5423 H 498.709 -0.565344 1.86311 0
M  V30 5424 H 496.88 -3.01719 2.44581 0
M  V30 5425 H 498.612 -3.02061 2.69335 0
M  V30 5426 H 495.367 -1.86873 4.35173 0
M  V30 5427 H 495.791 -0.76076 6.72712 0
M  V30 5428 H 500.433 -1.551 3.93324 0
M  V30 5429 H 498.151 0.0677979 8.08072 0
M  V30 5430 H 501.737 -0.566994 5.79031 0
M  V30 5431 H 500.617 0.230442 7.83861 0
M  V30 5432 N 498.12 -1.38341 -0.754957 0
M  V30 5433 C 499.07 -1.31964 -1.85929 0
M  V30 5434 C 500.054 -0.204181 -1.59599 0
M  V30 5435 O 501.246 -0.440036 -1.71443 0
M  V30 5436 C 498.375 -1.14565 -3.2362 0
M  V30 5437 C 497.461 -2.30727 -3.55846 0
M  V30 5438 N 497.852 -3.56165 -3.59138 0
M  V30 5439 C 496.15 -2.23249 -3.86104 0
M  V30 5440 C 496.851 -4.32865 -3.88591 0
M  V30 5441 N 495.827 -3.62203 -4.05351 0
M  V30 5442 H 499.629 -2.2694 -1.8675 0
M  V30 5443 H 497.143 -1.31553 -0.952243 0
M  V30 5444 H 499.14 -1.0808 -4.02647 0
M  V30 5445 H 497.8 -0.205212 -3.24051 0
M  V30 5446 H 498.811 -3.89854 -3.40932 0
M  V30 5447 H 495.488 -1.37357 -3.94258 0
M  V30 5448 H 496.878 -5.41504 -3.97773 0
M  V30 5449 N 499.598 0.982988 -1.23187 0
M  V30 5450 C 500.528 2.09301 -1.03515 0
M  V30 5451 C 501.509 1.70035 0.0471136 0
M  V30 5452 O 502.694 1.93847 -0.117029 0
M  V30 5453 C 499.824 3.4167 -0.622791 0
M  V30 5454 C 498.778 3.94828 -1.65211 0
M  V30 5455 C 498.104 5.23362 -1.09527 0
M  V30 5456 C 499.404 4.2439 -3.04451 0
M  V30 5457 H 501.098 2.26016 -1.96359 0
M  V30 5458 H 498.644 1.08611 -0.945501 0
M  V30 5459 H 500.597 4.18746 -0.472233 0
M  V30 5460 H 499.321 3.24811 0.341329 0
M  V30 5461 H 497.98 3.19895 -1.79061 0
M  V30 5462 H 497.628 5.02852 -0.122211 0
M  V30 5463 H 497.328 5.59895 -1.783 0
M  V30 5464 H 498.852 6.03062 -0.956511 0
M  V30 5465 H 500.266 4.92225 -2.93917 0
M  V30 5466 H 498.663 4.72118 -3.70438 0
M  V30 5467 H 499.733 3.31765 -3.53638 0
M  V30 5468 N 501.076 1.04316 1.18135 0
M  V30 5469 C 502.306 0.767003 1.91835 0
M  V30 5470 C 502.714 -0.68002 1.76557 0
M  V30 5471 O 502.057 -1.47548 1.09432 0
M  V30 5472 C 502.119 1.05674 3.43618 0
M  V30 5473 C 501.783 2.49818 3.82675 0
M  V30 5474 C 502.78 3.48003 3.86251 0
M  V30 5475 C 500.465 2.84596 4.13897 0
M  V30 5476 C 502.459 4.79016 4.20503 0
M  V30 5477 C 500.146 4.15813 4.4782 0
M  V30 5478 C 501.144 5.12834 4.51099 0
M  V30 5479 O 500.832 6.41699 4.84229 0
M  V30 5480 H 500.564 0.278948 0.615763 0
M  V30 5481 H 503.118 1.3946 1.50798 0
M  V30 5482 H 501.348 0.372029 3.84906 0
M  V30 5483 H 503.037 0.767994 3.98568 0
M  V30 5484 H 503.803 3.22475 3.62264 0
M  V30 5485 H 499.682 2.09748 4.1052 0
M  V30 5486 H 503.226 5.54739 4.22978 0
M  V30 5487 H 499.123 4.41109 4.71268 0
M  V30 5488 H 499.891 6.46387 5.02121 0
M  V30 5489 N 502.554 -1.34406 0.822964 0
M  V30 5490 C 503.464 -2.33298 0.246838 0
M  V30 5491 C 504.48 -1.62625 -0.618797 0
M  V30 5492 O 505.656 -1.94391 -0.526685 0
M  V30 5493 C 502.721 -3.41785 -0.581731 0
M  V30 5494 C 501.782 -4.28206 0.306309 0
M  V30 5495 C 501.015 -5.31512 -0.48281 0
M  V30 5496 O 501.238 -5.43973 -1.71607 0
M  V30 5497 O 500.172 -6.01749 0.134884 0
M  V30 5498 H 503.998 -2.84401 1.06534 0
M  V30 5499 H 501.583 -1.37466 0.585108 0
M  V30 5500 H 503.465 -4.08028 -1.05313 0
M  V30 5501 H 502.14 -2.92925 -1.37756 0
M  V30 5502 H 501.047 -3.64885 0.825199 0
M  V30 5503 H 502.38 -4.80507 1.06649 0
M  V30 5504 N 504.032 -0.577932 -1.46621 0
M  V30 5505 C 504.965 0.206312 -2.27265 0
M  V30 5506 C 505.943 0.901306 -1.35334 0
M  V30 5507 O 507.127 0.916151 -1.64739 0
M  V30 5508 C 504.254 1.29563 -3.1294 0
M  V30 5509 C 503.3 0.706981 -4.206 0
M  V30 5510 S 504.133 -0.462459 -5.33499 0
M  V30 5511 C 505.289 0.628171 -6.2274 0
M  V30 5512 H 505.522 -0.477961 -2.93433 0
M  V30 5513 H 503.055 -0.364715 -1.50031 0
M  V30 5514 H 505.013 1.91935 -3.62865 0
M  V30 5515 H 503.674 1.95183 -2.46095 0
M  V30 5516 H 502.867 1.52565 -4.80354 0
M  V30 5517 H 502.469 0.159022 -3.73662 0
M  V30 5518 H 504.761 1.51506 -6.60342 0
M  V30 5519 H 505.704 0.0674961 -7.08068 0
M  V30 5520 H 506.112 0.930167 -5.56784 0
M  V30 5521 N 505.51 1.54411 -0.315457 0
M  V30 5522 C 506.473 2.22713 0.54142 0
M  V30 5523 C 507.473 1.2179 1.04995 0
M  V30 5524 O 508.663 1.46426 0.943667 0
M  V30 5525 C 505.795 2.92485 1.75116 0
M  V30 5526 H 506.988 2.99849 -0.0555508 0
M  V30 5527 H 504.541 1.56159 -0.0664453 0
M  V30 5528 H 505.276 2.19466 2.38758 0
M  V30 5529 H 505.061 3.66483 1.39401 0
M  V30 5530 H 506.551 3.44548 2.35959 0
M  V30 5531 N 506.988 0.0434614 1.5754 0
M  V30 5532 C 508.404 -0.313039 1.565 0
M  V30 5533 C 508.604 -1.71954 1.05043 0
M  V30 5534 O 507.66 -2.425 0.703564 0
M  V30 5535 C 508.973 -0.148544 3.00333 0
M  V30 5536 C 510.521 -0.220231 3.12224 0
M  V30 5537 C 510.996 -0.0843565 4.57922 0
M  V30 5538 N 512.487 -0.140881 4.62986 0
M  V30 5539 C 513.222 -0.0597443 5.73369 0
M  V30 5540 N 512.718 0.0733004 6.92761 0
M  V30 5541 N 514.511 -0.11477 5.61983 0
M  V30 5542 H 506.662 0.96303 1.89313 0
M  V30 5543 H 508.925 0.373164 0.871466 0
M  V30 5544 H 508.631 0.820894 3.41986 0
M  V30 5545 H 508.505 -0.912798 3.65989 0
M  V30 5546 H 510.892 -1.18014 2.70475 0
M  V30 5547 H 510.973 0.574646 2.49262 0
M  V30 5548 H 510.617 0.872192 5.00355 0
M  V30 5549 H 510.547 -0.898281 5.18882 0
M  V30 5550 H 513.038 -0.243273 3.77116 0
M  V30 5551 H 513.351 0.128128 7.72694 0
M  V30 5552 H 511.696 0.10828 6.94916 0
M  V30 5553 H 514.887 -0.217212 4.67596 0
M  V30 5554 H 515.06 -0.0480779 6.47982 0
M  V30 5555 N 508.466 -1.55915 -0.229846 0
M  V30 5556 C 509.414 -1.9258 -1.30444 0
M  V30 5557 C 510.408 -0.806839 -1.48951 0
M  V30 5558 O 511.614 -0.991606 -1.50224 0
M  V30 5559 H 507.989 -0.611878 -0.437161 0
M  V30 5560 H 509.96 -2.82264 -0.96797 0
M  V30 5561 C 508.709 -2.25171 -2.6494 0
M  V30 5562 H 508.032 -3.10782 -2.51504 0
M  V30 5563 H 509.472 -2.54716 -3.38963 0
M  V30 5564 C 507.931 -1.07394 -3.19324 0
M  V30 5565 O 508.461 -0.330759 -4.00336 0
M  V30 5566 N 506.667 -0.859984 -2.77584 0
M  V30 5567 H 506.214 -1.46605 -2.11813 0
M  V30 5568 H 506.172 -0.0736671 -3.14314 0
M  V30 5569 N 509.944 0.496216 -1.49584 0
M  V30 5570 C 510.874 1.60576 -1.69521 0
M  V30 5571 C 511.855 1.61169 -0.543933 0
M  V30 5572 O 513.04 1.77834 -0.78031 0
M  V30 5573 C 510.17 2.99038 -1.76616 0
M  V30 5574 C 509.124 3.13312 -2.91581 0
M  V30 5575 C 508.45 4.53172 -2.83794 0
M  V30 5576 C 509.75 2.92886 -4.32452 0
M  V30 5577 H 511.444 1.44146 -2.62416 0
M  V30 5578 H 508.99 0.692024 -1.26282 0
M  V30 5579 H 510.943 3.76564 -1.8915 0
M  V30 5580 H 509.667 3.16568 -0.80324 0
M  V30 5581 H 508.326 2.38213 -2.78658 0
M  V30 5582 H 507.974 4.67585 -1.854 0
M  V30 5583 H 507.674 4.63662 -3.60958 0
M  V30 5584 H 509.198 5.32752 -2.98342 0
M  V30 5585 H 510.612 3.60178 -4.46032 0
M  V30 5586 H 509.009 3.14844 -5.10875 0
M  V30 5587 H 510.079 1.88966 -4.46565 0
M  V30 5588 N 511.423 1.38739 0.74761 0
M  V30 5589 C 512.37 1.36449 1.86146 0
M  V30 5590 C 513.34 0.226098 1.64554 0
M  V30 5591 O 514.525 0.41926 1.86137 0
M  V30 5592 C 511.665 1.2013 3.23516 0
M  V30 5593 C 510.778 2.43407 3.56899 0
M  V30 5594 C 509.913 2.19773 4.83605 0
M  V30 5595 C 508.952 3.3879 5.09792 0
M  V30 5596 N 508.089 3.14553 6.27695 0
M  V30 5597 H 512.929 2.3167 1.87438 0
M  V30 5598 H 510.466 1.15094 0.916063 0
M  V30 5599 H 512.424 1.08683 4.02795 0
M  V30 5600 H 511.054 0.285453 3.21535 0
M  V30 5601 H 510.106 2.65504 2.72418 0
M  V30 5602 H 511.418 3.32094 3.72176 0
M  V30 5603 H 510.572 2.05496 5.70838 0
M  V30 5604 H 509.311 1.28461 4.70478 0
M  V30 5605 H 508.316 3.53579 4.21025 0
M  V30 5606 H 509.541 4.30986 5.24812 0
M  V30 5607 H 507.487 2.25893 6.1588 0
M  V30 5608 H 507.404 3.96791 6.435 0
M  V30 5609 H 508.672 3.03943 7.17801 0
M  V30 5610 N 512.901 -0.976442 1.23707 0
M  V30 5611 C 514.147 -1.72081 1.07312 0
M  V30 5612 C 514.48 -1.90275 -0.388476 0
M  V30 5613 O 513.755 -1.4579 -1.28746 0
M  V30 5614 C 514.038 -3.11675 1.80363 0
M  V30 5615 C 513.891 -3.01027 3.3422 0
M  V30 5616 C 515.21 -4.1117 1.5693 0
M  V30 5617 H 512.329 -0.624583 0.391236 0
M  V30 5618 H 514.971 -1.13649 1.52263 0
M  V30 5619 H 513.121 -3.61559 1.42153 0
M  V30 5620 H 514.793 -2.58637 3.81975 0
M  V30 5621 H 513.036 -2.3744 3.63049 0
M  V30 5622 H 513.707 -3.9988 3.80525 0
M  V30 5623 H 516.183 -3.7011 1.90151 0
M  V30 5624 H 515.059 -5.06928 2.10513 0
M  V30 5625 H 515.32 -4.392 0.505548 0
M  V30 5626 N 514.379 -1.04941 -1.1758 0
M  V30 5627 C 515.311 -0.606174 -2.21039 0
M  V30 5628 C 516.324 0.328763 -1.59446 0
M  V30 5629 O 517.513 0.121895 -1.78083 0
M  V30 5630 C 514.613 0.133294 -3.38638 0
M  V30 5631 C 513.786 -0.811711 -4.29802 0
M  V30 5632 C 512.845 -0.113958 -5.26077 0
M  V30 5633 O 511.871 -0.747237 -5.64274 0
M  V30 5634 N 513.073 1.14953 -5.69004 0
M  V30 5635 H 515.838 -1.49606 -2.59689 0
M  V30 5636 H 513.399 -0.930997 -1.32454 0
M  V30 5637 H 515.391 0.610144 -4.00074 0
M  V30 5638 H 513.961 0.924816 -2.98607 0
M  V30 5639 H 513.181 -1.46824 -3.65837 0
M  V30 5640 H 514.469 -1.45326 -4.87604 0
M  V30 5641 H 513.867 1.68441 -5.40041 0
M  V30 5642 H 512.424 1.57049 -6.32597 0
M  V30 5643 N 515.857 1.33968 -0.830081 0
M  V30 5644 C 517.134 1.92554 -0.343858 0
M  V30 5645 C 517.514 1.7573 1.16971 0
M  V30 5646 O 516.862 1.14035 1.98011 0
M  V30 5647 C 517.072 3.40147 -0.781073 0
M  V30 5648 C 518.42 4.17299 -0.78402 0
M  V30 5649 O 519.444 3.48762 -0.724112 0
M  V30 5650 O 518.303 5.39631 -0.863739 0
M  V30 5651 H 515.397 0.821469 -0.0954827 0
M  V30 5652 H 517.943 1.42897 -0.915348 0
M  V30 5653 H 516.715 3.46225 -1.82329 0
M  V30 5654 H 516.338 3.97166 -0.18567 0
M  V30 5655 N 517.335 0.585699 1.46312 0
M  V30 5656 C 518.268 -0.194257 2.27372 0
M  V30 5657 C 519.246 -0.894116 1.3581 0
M  V30 5658 O 520.43 -0.907402 1.65222 0
M  V30 5659 C 517.557 -1.27901 3.13622 0
M  V30 5660 C 516.603 -0.684666 4.20969 0
M  V30 5661 S 517.436 0.490745 5.33247 0
M  V30 5662 C 518.592 -0.595137 6.23064 0
M  V30 5663 H 518.825 0.493515 2.93175 0
M  V30 5664 H 516.358 0.372666 1.49835 0
M  V30 5665 H 518.316 -1.90008 3.63878 0
M  V30 5666 H 516.977 -1.93875 2.47126 0
M  V30 5667 H 516.17 -1.50015 4.81156 0
M  V30 5668 H 515.772 -0.139204 3.73741 0
M  V30 5669 H 518.064 -1.48002 6.61137 0
M  V30 5670 H 519.007 -0.0299446 7.08094 0
M  V30 5671 H 519.415 -0.900627 5.57269 0
M  V30 5672 N 518.813 -1.54241 0.323641 0
M  V30 5673 C 519.743 -2.27289 -0.534993 0
M  V30 5674 C 520.724 -1.28087 -1.11927 0
M  V30 5675 O 521.909 -1.56899 -1.14439 0
M  V30 5676 C 519.039 -3.03075 -1.69596 0
M  V30 5677 C 517.993 -4.09614 -1.24098 0
M  V30 5678 C 517.319 -4.73242 -2.4889 0
M  V30 5679 C 518.619 -5.21087 -0.355789 0
M  V30 5680 H 520.313 -2.99308 0.0743257 0
M  V30 5681 H 517.859 -1.43952 0.0371874 0
M  V30 5682 H 519.812 -3.52907 -2.30293 0
M  V30 5683 H 518.536 -2.28673 -2.33187 0
M  V30 5684 H 517.195 -3.60666 -0.656945 0
M  V30 5685 H 516.843 -3.95455 -3.10845 0
M  V30 5686 H 516.543 -5.45209 -2.19138 0
M  V30 5687 H 518.067 -5.25848 -3.10348 0
M  V30 5688 H 519.481 -5.66675 -0.869042 0
M  V30 5689 H 517.878 -5.9991 -0.151045 0
M  V30 5690 H 518.948 -4.81005 0.613339 0
M  V30 5691 N 520.291 -0.0518155 -1.57515 0
M  V30 5692 C 521.707 0.304735 -1.56664 0
M  V30 5693 C 521.907 1.71395 -1.05953 0
M  V30 5694 O 520.963 2.42123 -0.716414 0
M  V30 5695 C 522.276 0.132614 -3.00407 0
M  V30 5696 C 523.824 0.20367 -3.12337 0
M  V30 5697 C 524.299 0.0600706 -4.57961 0
M  V30 5698 N 525.79 0.116326 -4.63054 0
M  V30 5699 C 526.525 0.0293363 -5.73392 0
M  V30 5700 N 526.021 -0.110038 -6.92713 0
M  V30 5701 N 527.814 0.0849651 -5.62036 0
M  V30 5702 H 519.965 -0.973056 -1.888 0
M  V30 5703 H 522.228 -0.377781 -0.869474 0
M  V30 5704 H 521.934 -0.839019 -3.41546 0
M  V30 5705 H 521.808 0.893376 -3.66468 0
M  V30 5706 H 524.195 1.16578 -2.71097 0
M  V30 5707 H 524.276 -0.587857 -2.48954 0
M  V30 5708 H 523.92 -0.898715 -4.99886 0
M  V30 5709 H 523.85 0.87075 -5.19351 0
M  V30 5710 H 526.341 0.22327 -3.7724 0
M  V30 5711 H 526.654 -0.169104 -7.72615 0
M  V30 5712 H 524.999 -0.145132 -6.94848 0
M  V30 5713 H 528.19 0.192411 -4.67704 0
M  V30 5714 H 528.363 0.0137131 -6.47999 0
M  V30 5715 N 521.769 1.56035 0.221574 0
M  V30 5716 C 522.732 1.91584 1.2581 0
M  V30 5717 C 523.732 0.794425 1.39805 0
M  V30 5718 O 524.922 1.06217 1.38071 0
M  V30 5719 C 522.054 2.16663 2.63192 0
M  V30 5720 H 523.247 2.8429 0.954935 0
M  V30 5721 H 520.8 1.49316 0.461988 0
M  V30 5722 H 521.535 1.26508 2.98607 0
M  V30 5723 H 521.32 2.98358 2.5441 0
M  V30 5724 H 522.81 2.45262 3.37988 0
M  V30 5725 N 523.247 -0.488276 1.49845 0
M  V30 5726 C 524.157 -1.61451 1.70207 0
M  V30 5727 C 525.173 -1.63877 0.584846 0
M  V30 5728 O 526.349 -1.82063 0.861107 0
M  V30 5729 C 523.414 -2.9776 1.77594 0
M  V30 5730 C 522.475 -3.05861 3.01243 0
M  V30 5731 C 521.708 -4.35668 3.08268 0
M  V30 5732 O 521.931 -5.25197 2.22541 0
M  V30 5733 O 520.865 -4.49005 4.00847 0
M  V30 5734 H 524.691 -1.47199 2.65643 0
M  V30 5735 H 522.276 -0.665939 1.33737 0
M  V30 5736 H 524.158 -3.7875 1.84732 0
M  V30 5737 H 522.833 -3.12248 0.8534 0
M  V30 5738 H 521.74 -2.24012 2.99616 0
M  V30 5739 H 523.073 -2.96304 3.9302 0
M  V30 5740 N 524.725 -1.39134 -0.740242 0
M  V30 5741 C 525.971 -1.36273 -1.50192 0
M  V30 5742 C 526.304 0.0430136 -1.94152 0
M  V30 5743 O 525.579 1.00691 -1.66408 0
M  V30 5744 C 525.862 -2.33041 -2.74525 0
M  V30 5745 C 525.715 -3.82535 -2.36617 0
M  V30 5746 C 527.034 -2.27723 -3.76604 0
M  V30 5747 H 524.153 -0.496323 -0.544823 0
M  V30 5748 H 526.795 -1.70085 -0.846815 0
M  V30 5749 H 524.945 -2.04337 -3.30422 0
M  V30 5750 H 526.617 -4.21967 -1.86391 0
M  V30 5751 H 524.86 -3.99565 -1.68909 0
M  V30 5752 H 525.531 -4.45723 -3.2563 0
M  V30 5753 H 528.007 -2.53091 -3.30279 0
M  V30 5754 H 526.883 -2.97519 -4.61274 0
M  V30 5755 H 527.144 -1.28049 -4.2315 0
M  V30 5756 N 526.204 0.969867 -1.24223 0
M  V30 5757 C 527.134 2.08191 -1.05729 0
M  V30 5758 C 528.115 1.70075 0.0290765 0
M  V30 5759 O 529.3 1.93712 -0.137583 0
M  V30 5760 C 526.43 3.40991 -0.658995 0
M  V30 5761 C 525.384 3.93054 -1.69389 0
M  V30 5762 C 524.71 5.22171 -1.15072 0
M  V30 5763 C 526.01 4.21137 -3.08935 0
M  V30 5764 H 527.704 2.23921 -1.98746 0
M  V30 5765 H 525.25 1.07602 -0.956967 0
M  V30 5766 H 527.203 4.18221 -0.51662 0
M  V30 5767 H 525.927 3.25155 0.30686 0
M  V30 5768 H 524.586 3.17977 -1.82444 0
M  V30 5769 H 524.234 5.02694 -0.175539 0
M  V30 5770 H 523.934 5.57973 -1.84229 0
M  V30 5771 H 525.458 6.02013 -1.02042 0
M  V30 5772 H 526.872 4.8908 -2.99121 0
M  V30 5773 H 525.269 4.68163 -3.75425 0
M  V30 5774 H 526.339 3.27996 -3.57137 0
M  V30 5775 N 527.682 1.05563 1.17022 0
M  V30 5776 C 528.645 0.664098 2.19368 0
M  V30 5777 C 529.645 -0.286358 1.5823 0
M  V30 5778 O 530.835 -0.069728 1.7406 0
M  V30 5779 C 527.967 -0.0239932 3.40892 0
M  V30 5780 H 529.16 1.57 2.55521 0
M  V30 5781 H 526.713 0.849964 1.31169 0
M  V30 5782 H 527.448 -0.942988 3.10287 0
M  V30 5783 H 527.233 0.659351 3.86516 0
M  V30 5784 H 528.723 -0.283909 4.16634 0
M  V30 5785 N 529.16 -1.33526 0.837174 0
M  V30 5786 C 530.123 -2.27551 0.274421 0
M  V30 5787 C 531.123 -1.50886 -0.555881 0
M  V30 5788 O 532.313 -1.70227 -0.369918 0
M  V30 5789 C 529.445 -3.35332 -0.613605 0
M  V30 5790 H 530.638 -2.78837 1.10408 0
M  V30 5791 H 528.191 -1.439 0.610126 0
M  V30 5792 H 528.926 -2.89285 -1.46577 0
M  V30 5793 H 528.711 -3.92095 -0.0195341 0
M  V30 5794 H 530.201 -4.05433 -1.00068 0
M  V30 5795 N 530.638 -0.59345 -1.46 0
M  V30 5796 C 532.054 -0.255965 -1.57534 0
M  V30 5797 C 532.254 1.24167 -1.58697 0
M  V30 5798 O 531.31 2.02398 -1.50968 0
M  V30 5799 C 532.623 -0.91466 -2.86451 0
M  V30 5800 C 534.171 -0.889253 -3.00102 0
M  V30 5801 C 534.646 -1.52769 -4.3177 0
M  V30 5802 N 536.137 -1.49253 -4.38495 0
M  V30 5803 C 536.872 -1.9558 -5.39014 0
M  V30 5804 N 536.368 -2.49929 -6.46148 0
M  V30 5805 N 538.161 -1.86432 -5.30282 0
M  V30 5806 H 530.312 -1.56604 -1.43489 0
M  V30 5807 H 532.575 -0.655207 -0.685133 0
M  V30 5808 H 532.281 -1.96861 -2.91442 0
M  V30 5809 H 532.155 -0.429356 -3.74748 0
M  V30 5810 H 534.542 0.156111 -2.94687 0
M  V30 5811 H 534.623 -1.41268 -2.13253 0
M  V30 5812 H 534.267 -2.57231 -4.37944 0
M  V30 5813 H 534.197 -0.979398 -5.17412 0
M  V30 5814 H 536.688 -1.09536 -3.61677 0
M  V30 5815 H 537.001 -2.83109 -7.19075 0
M  V30 5816 H 535.346 -2.53961 -6.46938 0
M  V30 5817 H 538.537 -1.43722 -4.4549 0
M  V30 5818 H 538.71 -2.22852 -6.08474 0
M  V30 5819 N 532.116 1.54067 -0.331816 0
M  V30 5820 C 533.066 2.21363 0.546101 0
M  V30 5821 C 534.05 1.19698 1.07523 0
M  V30 5822 O 535.242 1.45293 1.01088 0
M  V30 5823 C 532.371 2.98115 1.70242 0
M  V30 5824 C 531.457 4.07127 1.18779 0
M  V30 5825 N 531.848 5.04267 0.393465 0
M  V30 5826 C 530.146 4.21226 1.46576 0
M  V30 5827 C 530.847 5.81585 0.115572 0
M  V30 5828 N 529.823 5.39022 0.703987 0
M  V30 5829 H 533.625 2.93821 -0.0679751 0
M  V30 5830 H 531.139 1.61812 -0.138085 0
M  V30 5831 H 533.136 3.44818 2.34321 0
M  V30 5832 H 531.796 2.27181 2.31989 0
M  V30 5833 H 532.807 5.17888 0.0355757 0
M  V30 5834 H 529.484 3.61509 2.08848 0
M  V30 5835 H 530.874 6.6985 -0.524426 0
M  V30 5836 N 533.594 0.0601682 1.57485 0
M  V30 5837 C 534.526 -0.94047 2.09016 0
M  V30 5838 C 535.539 -1.26897 1.01985 0
M  V30 5839 O 536.728 -1.22819 1.29529 0
M  V30 5840 C 533.828 -2.25955 2.52582 0
M  V30 5841 C 533.001 -2.11163 3.83052 0
M  V30 5842 C 532.06 -3.26273 4.12835 0
M  V30 5843 O 531.086 -3.01779 4.82616 0
M  V30 5844 N 532.288 -4.51022 3.65458 0
M  V30 5845 H 535.053 -0.500578 2.9549 0
M  V30 5846 H 532.614 -0.125852 1.6141 0
M  V30 5847 H 534.606 -3.01846 2.69575 0
M  V30 5848 H 533.176 -2.61481 1.71308 0
M  V30 5849 H 532.396 -1.19808 3.75552 0
M  V30 5850 H 533.684 -1.98517 4.68475 0
M  V30 5851 H 533.082 -4.73811 3.09062 0
M  V30 5852 H 531.639 -5.23978 3.87673 0
M  V30 5853 N 535.072 -1.5615 -0.213296 0
M  V30 5854 C 536.035 -1.92249 -1.24792 0
M  V30 5855 C 537.035 -0.801828 -1.39382 0
M  V30 5856 O 538.225 -1.06948 -1.37506 0
M  V30 5857 C 535.357 -2.18056 -2.62039 0
M  V30 5858 H 536.55 -2.84793 -0.939845 0
M  V30 5859 H 534.103 -1.49559 -0.454062 0
M  V30 5860 H 534.838 -1.2809 -2.97932 0
M  V30 5861 H 534.623 -2.99703 -2.52825 0
M  V30 5862 H 536.113 -2.47051 -3.36683 0
M  V30 5863 N 536.55 0.480323 -1.50102 0
M  V30 5864 C 537.482 1.59669 -1.64433 0
M  V30 5865 C 538.495 1.54063 -0.52615 0
M  V30 5866 O 539.684 1.59619 -0.798992 0
M  V30 5867 C 536.784 2.98527 -1.6042 0
M  V30 5868 C 535.957 3.291 -2.88117 0
M  V30 5869 C 535.016 4.47468 -2.76873 0
M  V30 5870 O 534.042 4.4823 -3.50825 0
M  V30 5871 N 535.244 5.48593 -1.89806 0
M  V30 5872 H 538.009 1.47795 -2.60723 0
M  V30 5873 H 535.57 0.66858 -1.4745 0
M  V30 5874 H 537.562 3.75666 -1.50523 0
M  V30 5875 H 536.132 3.04218 -0.719036 0
M  V30 5876 H 535.352 2.40662 -3.12211 0
M  V30 5877 H 536.64 3.46334 -3.72734 0
M  V30 5878 H 536.038 5.50791 -1.2902 0
M  V30 5879 H 534.595 6.24752 -1.85819 0
M  V30 5880 N 538.028 1.39524 0.732853 0
M  V30 5881 C 539.276 1.36594 1.48951 0
M  V30 5882 C 539.597 -0.0367507 1.94965 0
M  V30 5883 O 538.867 -0.988391 1.69138 0
M  V30 5884 H 537.447 0.502673 0.552566 0
M  V30 5885 H 540.109 1.74411 0.869869 0
M  V30 5886 H 539.205 2.03 2.3706 0
M  V30 5887 N 539.506 -0.963266 1.24736 0
M  V30 5888 C 540.783 -1.68248 0.9976 0
M  V30 5889 C 541.163 -2.05599 -0.478776 0
M  V30 5890 O 540.511 -1.7626 -1.45412 0
M  V30 5891 C 540.721 -2.91118 1.92487 0
M  V30 5892 C 542.069 -3.63261 2.19833 0
M  V30 5893 O 543.093 -3.01184 1.90176 0
M  V30 5894 O 541.952 -4.75019 2.7022 0
M  V30 5895 H 539.046 -0.735744 0.377637 0
M  V30 5896 H 541.592 -1.01696 1.35853 0
M  V30 5897 H 540.364 -2.60242 2.92215 0
M  V30 5898 H 539.987 -3.65402 1.56738 0
M  V30 5899 N 540.985 -1.06182 -1.16461 0
M  V30 5900 C 541.918 -0.615859 -2.19733 0
M  V30 5901 C 542.896 0.360766 -1.58547 0
M  V30 5902 O 544.08 0.270009 -1.86556 0
M  V30 5903 C 541.207 0.097312 -3.3856 0
M  V30 5904 C 540.253 -0.835889 -4.18229 0
M  V30 5905 S 541.086 -2.33052 -4.82128 0
M  V30 5906 C 542.242 -1.62881 -6.04335 0
M  V30 5907 H 542.475 -1.49079 -2.57221 0
M  V30 5908 H 540.008 -0.874692 -1.27234 0
M  V30 5909 H 541.966 0.502563 -4.07412 0
M  V30 5910 H 540.627 0.948418 -2.99439 0
M  V30 5911 H 539.82 -0.283426 -5.03202 0
M  V30 5912 H 539.422 -1.18097 -3.54865 0
M  V30 5913 H 541.714 -0.933764 -6.71034 0
M  V30 5914 H 542.657 -2.45641 -6.64128 0
M  V30 5915 H 543.065 -1.11189 -5.53441 0
M  V30 5916 N 542.463 1.3308 -0.844243 0
M  V30 5917 C 543.426 2.27403 -0.286485 0
M  V30 5918 C 544.426 1.51179 0.547872 0
M  V30 5919 O 545.616 1.70421 0.360886 0
M  V30 5920 C 542.748 3.35653 0.595813 0
M  V30 5921 H 543.941 2.78248 -1.11885 0
M  V30 5922 H 541.494 1.43574 -0.617749 0
M  V30 5923 H 542.229 2.90058 1.4504 0
M  V30 5924 H 542.014 3.921 -0.00125994 0
M  V30 5925 H 543.504 4.05958 0.979168 0
M  V30 5926 N 543.941 0.601185 1.45683 0
M  V30 5927 C 545.169 0.100054 2.06658 0
M  V30 5928 C 545.584 -1.21285 1.44691 0
M  V30 5929 O 544.941 -1.73735 0.558772 0
M  V30 5930 C 544.992 -0.0528579 3.61461 0
M  V30 5931 O 544.713 1.20809 4.21114 0
M  V30 5932 C 546.214 -0.586193 4.39407 0
M  V30 5933 H 543.434 0.065905 0.667756 0
M  V30 5934 H 545.978 0.827101 1.87028 0
M  V30 5935 H 544.133 -0.730203 3.80456 0
M  V30 5936 H 544.547 1.03368 5.14213 0
M  V30 5937 H 546.021 -0.642297 5.4825 0
M  V30 5938 H 546.498 -1.60713 4.0874 0
M  V30 5939 H 547.104 0.0568935 4.25262 0
M  V30 5940 N 545.419 -1.53889 0.339982 0
M  V30 5941 C 546.352 -2.21187 -0.561405 0
M  V30 5942 C 547.33 -1.19463 -1.10306 0
M  V30 5943 O 548.514 -1.48268 -1.164 0
M  V30 5944 C 545.641 -2.8865 -1.77198 0
M  V30 5945 C 544.687 -4.04232 -1.3601 0
M  V30 5946 S 545.52 -5.34129 -0.382909 0
M  V30 5947 C 546.676 -6.05094 -1.60039 0
M  V30 5948 H 546.909 -2.97298 0.0102092 0
M  V30 5949 H 544.442 -1.53901 0.124056 0
M  V30 5950 H 546.4 -3.28138 -2.4665 0
M  V30 5951 H 545.061 -2.12311 -2.3148 0
M  V30 5952 H 544.254 -4.50358 -2.2626 0
M  V30 5953 H 543.856 -3.66503 -0.745098 0
M  V30 5954 H 546.148 -6.2827 -2.53541 0
M  V30 5955 H 547.091 -6.98182 -1.18099 0
M  V30 5956 H 547.499 -5.35207 -1.79483 0
M  V30 5957 N 546.897 -0.0685191 -1.57451 0
M  V30 5958 C 547.827 0.89747 -2.15564 0
M  V30 5959 C 548.808 1.31266 -1.08181 0
M  V30 5960 O 549.993 1.38429 -1.36202 0
M  V30 5961 C 547.123 2.16623 -2.71463 0
M  V30 5962 C 546.077 1.89054 -3.83982 0
M  V30 5963 C 545.403 3.22532 -4.26471 0
M  V30 5964 C 546.703 1.1984 -5.08366 0
M  V30 5965 H 548.397 0.413373 -2.96533 0
M  V30 5966 H 545.943 0.197391 -1.42641 0
M  V30 5967 H 547.896 2.84614 -3.10761 0
M  V30 5968 H 546.62 2.67269 -1.8771 0
M  V30 5969 H 545.279 1.23469 -3.45183 0
M  V30 5970 H 544.927 3.71013 -3.39644 0
M  V30 5971 H 544.627 3.04879 -5.02317 0
M  V30 5972 H 546.151 3.91727 -4.68383 0
M  V30 5973 H 547.565 1.77896 -5.45001 0
M  V30 5974 H 545.962 1.12456 -5.89469 0
M  V30 5975 H 547.032 0.176996 -4.84577 0
M  V30 5976 N 548.375 1.56261 0.205012 0
M  V30 5977 C 549.307 1.90266 1.27795 0
M  V30 5978 C 550.32 0.792397 1.42214 0
M  V30 5979 O 551.509 1.07077 1.42817 0
M  V30 5980 C 548.609 2.11074 2.65143 0
M  V30 5981 C 547.782 3.42176 2.7246 0
M  V30 5982 C 546.841 3.52216 3.90936 0
M  V30 5983 O 545.867 4.25119 3.78501 0
M  V30 5984 N 547.069 2.84573 5.05963 0
M  V30 5985 H 549.834 2.82896 0.989434 0
M  V30 5986 H 547.395 1.57008 0.394981 0
M  V30 5987 H 549.387 2.15089 3.4281 0
M  V30 5988 H 547.957 1.2499 2.86524 0
M  V30 5989 H 547.177 3.50116 1.81142 0
M  V30 5990 H 548.465 4.28509 2.74331 0
M  V30 5991 H 547.863 2.25152 5.18963 0
M  V30 5992 H 546.42 2.94228 5.81613 0
M  V30 5993 N 549.853 -0.472356 1.50355 0
M  V30 5994 C 550.783 -1.57859 1.72055 0
M  V30 5995 C 551.764 -1.60283 0.569505 0
M  V30 5996 O 552.949 -1.7657 0.808503 0
M  V30 5997 C 550.079 -2.96191 1.81351 0
M  V30 5998 C 549.033 -3.08633 2.96529 0
M  V30 5999 C 548.359 -4.486 2.90968 0
M  V30 6000 C 549.659 -2.85969 4.37057 0
M  V30 6001 H 551.353 -1.39953 2.64676 0
M  V30 6002 H 548.899 -0.671846 1.27367 0
M  V30 6003 H 550.852 -3.73507 1.95117 0
M  V30 6004 H 549.576 -3.15251 0.853502 0
M  V30 6005 H 548.235 -2.33749 2.82413 0
M  V30 6006 H 547.883 -4.64577 1.92815 0
M  V30 6007 H 547.583 -4.57861 3.68289 0
M  V30 6008 H 549.107 -5.27938 3.0678 0
M  V30 6009 H 550.521 -3.53036 4.51706 0
M  V30 6010 H 548.918 -3.06677 5.15819 0
M  V30 6011 H 549.988 -1.81838 4.49514 0
M  V30 6012 N 551.331 -1.39911 -0.725443 0
M  V30 6013 C 552.577 -1.37858 -1.48738 0
M  V30 6014 C 552.91 0.0224187 -1.94187 0
M  V30 6015 O 552.185 0.989204 -1.67466 0
M  V30 6016 C 552.468 -2.3594 -2.72038 0
M  V30 6017 C 552.321 -3.85023 -2.32546 0
M  V30 6018 C 553.64 -2.31704 -3.74167 0
M  V30 6019 H 550.759 -0.502074 -0.539528 0
M  V30 6020 H 553.401 -1.70974 -0.828728 0
M  V30 6021 H 551.551 -2.0783 -3.28236 0
M  V30 6022 H 553.223 -4.2392 -1.81905 0
M  V30 6023 H 551.466 -4.01334 -1.64661 0
M  V30 6024 H 552.137 -4.49152 -3.20884 0
M  V30 6025 H 554.613 -2.5658 -3.27576 0
M  V30 6026 H 553.489 -3.02395 -4.58092 0
M  V30 6027 H 553.75 -1.3253 -4.21768 0
M  V30 6028 N 552.809 0.956637 -1.25245 0
M  V30 6029 C 554.22 1.51569 -1.09012 0
M  V30 6030 C 554.571 1.93322 0.334813 0
M  V30 6031 O 553.696 1.78421 1.22454 0
M  V30 6032 C 554.291 2.75444 -1.97271 0
M  V30 6033 C 552.85 3.27669 -1.8523 0
M  V30 6034 C 551.997 2.00517 -1.91542 0
M  V30 6035 H 554.948 0.773746 -1.3856 0
M  V30 6036 H 554.969 3.4919 -1.51151 0
M  V30 6037 H 554.481 2.45024 -3.00973 0
M  V30 6038 H 552.582 3.62914 -0.844045 0
M  V30 6039 H 552.695 3.9582 -2.69932 0
M  V30 6040 H 551.059 2.15727 -1.35404 0
M  V30 6041 H 551.842 1.72448 -2.96844 0
M  V30 6042 N 554.287 1.06798 1.15896 0
M  V30 6043 C 555.217 0.704677 2.22613 0
M  V30 6044 C 556.198 -0.305252 1.67339 0
M  V30 6045 O 557.383 -0.179247 1.93371 0
M  V30 6046 C 554.513 0.0957325 3.47168 0
M  V30 6047 C 553.467 1.0322 4.15367 0
M  V30 6048 C 552.793 0.286293 5.33933 0
M  V30 6049 C 554.093 2.36341 4.65768 0
M  V30 6050 H 555.787 1.59688 2.53259 0
M  V30 6051 H 553.333 0.769257 1.21731 0
M  V30 6052 H 555.286 -0.170333 4.21056 0
M  V30 6053 H 554.01 -0.831516 3.15838 0
M  V30 6054 H 552.669 1.28309 3.43413 0
M  V30 6055 H 552.317 -0.644237 4.98857 0
M  V30 6056 H 552.017 0.910436 5.80504 0
M  V30 6057 H 553.541 0.0278938 6.10594 0
M  V30 6058 H 554.955 2.1561 5.31211 0
M  V30 6059 H 553.352 2.94299 5.2298 0
M  V30 6060 H 554.422 2.99047 3.81705 0
M  V30 6061 N 555.766 -1.3263 0.851289 0
M  V30 6062 C 556.696 -2.31449 0.308771 0
M  V30 6063 C 557.677 -1.59531 -0.590255 0
M  V30 6064 O 558.862 -1.87351 -0.511205 0
M  V30 6065 C 555.992 -3.43586 -0.506548 0
M  V30 6066 C 554.946 -4.26963 0.297753 0
M  V30 6067 C 554.272 -5.30831 -0.642094 0
M  V30 6068 C 555.572 -4.99643 1.52166 0
M  V30 6069 H 557.266 -2.77074 1.13447 0
M  V30 6070 H 554.812 -1.33207 0.546971 0
M  V30 6071 H 556.765 -4.11754 -0.896474 0
M  V30 6072 H 555.489 -2.96681 -1.36558 0
M  V30 6073 H 554.148 -3.60437 0.669391 0
M  V30 6074 H 553.796 -4.8018 -1.49788 0
M  V30 6075 H 553.496 -5.87501 -0.107968 0
M  V30 6076 H 555.02 -6.01862 -1.02927 0
M  V30 6077 H 556.434 -5.6051 1.20421 0
M  V30 6078 H 554.831 -5.66022 1.99347 0
M  V30 6079 H 555.901 -4.27701 2.28474 0
M  V30 6080 N 557.244 -0.608902 -1.45362 0
M  V30 6081 C 558.191 0.109172 -2.30542 0
M  V30 6082 C 559.161 0.858704 -1.42181 0
M  V30 6083 O 560.346 0.844178 -1.71109 0
M  V30 6084 C 557.486 1.09971 -3.27109 0
M  V30 6085 C 556.599 0.350911 -4.30572 0
M  V30 6086 C 555.734 1.33129 -5.14247 0
M  V30 6087 C 554.773 0.570377 -6.09437 0
M  V30 6088 N 553.91 1.5001 -6.85887 0
M  V30 6089 H 558.75 -0.623195 -2.91411 0
M  V30 6090 H 556.287 -0.319122 -1.43597 0
M  V30 6091 H 558.245 1.68714 -3.81564 0
M  V30 6092 H 556.875 1.79947 -2.67991 0
M  V30 6093 H 555.927 -0.352054 -3.78767 0
M  V30 6094 H 557.239 -0.242725 -4.98209 0
M  V30 6095 H 556.393 1.99074 -5.73109 0
M  V30 6096 H 555.132 1.95885 -4.46632 0
M  V30 6097 H 554.137 -0.102702 -5.49704 0
M  V30 6098 H 555.362 -0.0521607 -6.7908 0
M  V30 6099 H 553.308 2.11529 -6.2096 0
M  V30 6100 H 553.225 0.959934 -7.49881 0
M  V30 6101 H 554.493 2.14909 -7.49289 0
M  V30 6102 N 558.722 1.53707 -0.348139 0
M  V30 6103 C 559.685 2.23812 0.494058 0
M  V30 6104 C 560.685 1.23989 1.02388 0
M  V30 6105 O 561.875 1.48395 0.912396 0
M  V30 6106 C 559.007 2.96133 1.68872 0
M  V30 6107 H 560.2 2.99663 -0.119141 0
M  V30 6108 H 557.753 1.55983 -0.0995539 0
M  V30 6109 H 558.488 2.24481 2.34049 0
M  V30 6110 H 558.273 3.69357 1.31596 0
M  V30 6111 H 559.763 3.49475 2.28597 0
M  V30 6112 N 560.2 0.0768682 1.57412 0
M  V30 6113 C 561.425 -0.603404 1.98428 0
M  V30 6114 C 561.85 -1.62047 0.955108 0
M  V30 6115 O 561.208 -1.81129 -0.0786778 0
M  V30 6116 C 561.256 -1.24396 3.38464 0
M  V30 6117 O 560.36 -2.35982 3.3821 0
M  V30 6118 H 559.701 -0.154741 0.645718 0
M  V30 6119 H 562.231 0.152885 2.04028 0
M  V30 6120 H 562.241 -1.5896 3.7576 0
M  V30 6121 H 560.916 -0.498735 4.12899 0
M  V30 6122 H 559.493 -2.03173 3.1269 0
M  V30 6123 N 561.678 -1.56367 -0.196722 0
M  V30 6124 C 562.927 -1.79724 -0.915539 0
M  V30 6125 C 563.24 -0.649804 -1.84491 0
M  V30 6126 O 564.446 -0.767631 -2.60422 0
M  V30 6127 C 562.902 -3.18369 -1.67836 0
M  V30 6128 C 562.51 -4.4091 -0.793897 0
M  V30 6129 C 564.254 -3.51037 -2.38691 0
M  V30 6130 C 562.161 -5.70577 -1.55549 0
M  V30 6131 H 561.091 -0.67013 -0.345604 0
M  V30 6132 H 563.742 -1.82721 -0.168856 0
M  V30 6133 H 562.124 -3.09617 -2.46887 0
M  V30 6134 H 563.298 -4.60781 -0.042163 0
M  V30 6135 H 561.613 -4.15937 -0.19626 0
M  V30 6136 H 564.21 -4.4515 -2.96219 0
M  V30 6137 H 564.553 -2.74704 -3.12799 0
M  V30 6138 H 565.086 -3.61229 -1.66608 0
M  V30 6139 H 561.825 -6.49871 -0.857226 0
M  V30 6140 H 561.345 -5.54726 -2.2812 0
M  V30 6141 H 563.024 -6.11637 -2.10971 0
M  V30 6142 N 563.156 0.464375 -1.50603 0
M  V30 6143 C 564.103 1.56152 -1.69956 0
M  V30 6144 C 565.073 1.57046 -0.54091 0
M  V30 6145 O 566.258 1.74473 -0.772258 0
M  V30 6146 C 563.398 2.94079 -1.80586 0
M  V30 6147 C 562.511 3.02923 -3.07996 0
M  V30 6148 C 561.646 4.31806 -3.09382 0
M  V30 6149 C 560.685 4.34417 -4.31218 0
M  V30 6150 N 559.822 5.54782 -4.30304 0
M  V30 6151 H 564.662 1.38955 -2.6362 0
M  V30 6152 H 562.199 0.675482 -1.30674 0
M  V30 6153 H 564.157 3.74073 -1.8473 0
M  V30 6154 H 562.787 3.09896 -0.903556 0
M  V30 6155 H 561.839 2.1576 -3.13292 0
M  V30 6156 H 563.151 3.00712 -3.97962 0
M  V30 6157 H 562.305 5.20153 -3.12292 0
M  V30 6158 H 561.044 4.36636 -2.17257 0
M  V30 6159 H 560.049 3.44467 -4.28512 0
M  V30 6160 H 561.274 4.31273 -5.24576 0
M  V30 6161 H 559.22 5.60384 -3.41037 0
M  V30 6162 H 559.137 5.54339 -5.14047 0
M  V30 6163 H 560.405 6.45235 -4.3737 0
M  V30 6164 N 564.634 1.40294 0.718013 0
M  V30 6165 C 565.544 1.42678 1.86226 0
M  V30 6166 C 566.56 0.319655 1.71039 0
M  V30 6167 O 567.736 0.563852 1.93346 0
M  V30 6168 C 564.801 1.2852 3.21999 0
M  V30 6169 C 563.862 2.49354 3.49458 0
M  V30 6170 C 563.095 2.35863 4.78753 0
M  V30 6171 O 563.318 1.37114 5.53675 0
M  V30 6172 O 562.252 3.25189 5.06494 0
M  V30 6173 H 566.078 2.39167 1.87171 0
M  V30 6174 H 563.663 1.2159 0.868112 0
M  V30 6175 H 565.545 1.22824 4.03103 0
M  V30 6176 H 564.22 0.351359 3.21787 0
M  V30 6177 H 563.127 2.60628 2.68373 0
M  V30 6178 H 564.46 3.41491 3.54464 0
M  V30 6179 N 566.112 -0.949982 1.2575 0
M  V30 6180 C 567.34 -1.72972 1.13527 0
M  V30 6181 C 567.755 -1.8623 -0.310453 0
M  V30 6182 O 567.112 -1.36336 -1.2132 0
M  V30 6183 C 567.163 -3.14108 1.78936 0
M  V30 6184 O 566.884 -3.01493 3.17858 0
M  V30 6185 C 568.385 -4.08338 1.72554 0
M  V30 6186 H 565.605 -0.541864 0.395758 0
M  V30 6187 H 568.149 -1.19151 1.66202 0
M  V30 6188 H 566.304 -3.64858 1.30221 0
M  V30 6189 H 566.718 -3.90559 3.50092 0
M  V30 6190 H 568.192 -5.04963 2.22973 0
M  V30 6191 H 568.669 -4.33742 0.690251 0
M  V30 6192 H 569.275 -3.63506 2.2078 0
M  V30 6193 N 567.59 -1.07411 -1.15328 0
M  V30 6194 C 568.52 -0.716472 -2.22236 0
M  V30 6195 C 569.501 0.296373 -1.67498 0
M  V30 6196 O 570.686 0.168989 -1.93463 0
M  V30 6197 C 567.816 -0.114142 -3.47112 0
M  V30 6198 C 566.77 -1.05421 -4.14814 0
M  V30 6199 C 566.096 -0.314604 -5.33774 0
M  V30 6200 C 567.396 -2.38808 -4.64508 0
M  V30 6201 H 569.09 -1.61029 -2.52408 0
M  V30 6202 H 566.636 -0.775702 -1.21321 0
M  V30 6203 H 568.589 0.148001 -4.2114 0
M  V30 6204 H 567.313 0.814755 -3.16274 0
M  V30 6205 H 565.972 -1.30128 -3.42728 0
M  V30 6206 H 565.62 0.617772 -4.99192 0
M  V30 6207 H 565.32 -0.941209 -5.80013 0
M  V30 6208 H 566.844 -0.0602747 -6.1057 0
M  V30 6209 H 568.258 -2.18424 -5.3006 0
M  V30 6210 H 566.655 -2.97069 -5.21412 0
M  V30 6211 H 567.725 -3.01067 -3.80114 0
M  V30 6212 N 569.068 1.32177 -0.85831 0
M  V30 6213 C 570.484 1.49873 -0.548656 0
M  V30 6214 C 570.684 1.79278 0.919874 0
M  V30 6215 O 569.74 1.86451 1.70271 0
M  V30 6216 C 571.053 2.64043 -1.4388 0
M  V30 6217 C 572.601 2.77928 -1.43961 0
M  V30 6218 C 573.076 3.95182 -2.31506 0
M  V30 6219 N 574.567 4.0245 -2.29321 0
M  V30 6220 C 575.302 4.9242 -2.93786 0
M  V30 6221 N 574.798 5.87373 -3.67376 0
M  V30 6222 N 576.591 4.85572 -2.83155 0
M  V30 6223 H 568.742 1.11357 -1.80868 0
M  V30 6224 H 571.005 0.549175 -0.772729 0
M  V30 6225 H 570.711 2.49055 -2.48324 0
M  V30 6226 H 570.585 3.59912 -1.12885 0
M  V30 6227 H 572.972 2.92338 -0.402813 0
M  V30 6228 H 573.053 1.82762 -1.78974 0
M  V30 6229 H 572.697 3.81531 -3.35256 0
M  V30 6230 H 572.627 4.89633 -1.93823 0
M  V30 6231 H 575.118 3.34507 -1.75822 0
M  V30 6232 H 575.431 6.52728 -4.13722 0
M  V30 6233 H 573.776 5.87388 -3.71484 0
M  V30 6234 H 576.967 4.10363 -2.25211 0
M  V30 6235 H 577.14 5.55486 -3.33676 0
M  V30 6236 N 570.547 0.616602 1.45037 0
M  V30 6237 C 571.477 -0.0840787 2.33349 0
M  V30 6238 C 572.458 -0.849641 1.4736 0
M  V30 6239 O 573.643 -0.818407 1.76113 0
M  V30 6240 C 570.773 -1.07604 3.3021 0
M  V30 6241 C 569.727 -0.423096 4.25904 0
M  V30 6242 C 569.053 -1.52394 5.12523 0
M  V30 6243 C 570.353 0.661457 5.18095 0
M  V30 6244 H 572.047 0.653333 2.92185 0
M  V30 6245 H 569.593 0.315634 1.40498 0
M  V30 6246 H 571.546 -1.57485 3.90866 0
M  V30 6247 H 570.27 -1.84416 2.69552 0
M  V30 6248 H 568.929 0.05493 3.66559 0
M  V30 6249 H 568.577 -2.28257 4.48227 0
M  V30 6250 H 568.277 -1.09251 5.77354 0
M  V30 6251 H 569.801 -2.02485 5.76049 0
M  V30 6252 H 571.215 0.246353 5.7277 0
M  V30 6253 H 569.612 1.01517 5.91451 0
M  V30 6254 H 570.682 1.53446 4.59981 0
M  V30 6255 N 572.025 -1.5352 0.356285 0
M  V30 6256 C 572.975 -2.22204 -0.510815 0
M  V30 6257 C 573.959 -1.21393 -1.05605 0
M  V30 6258 O 575.151 -1.46883 -0.987639 0
M  V30 6259 C 572.28 -3.00786 -1.65478 0
M  V30 6260 C 571.366 -4.08965 -1.12287 0
M  V30 6261 N 571.757 -5.04829 -0.313191 0
M  V30 6262 C 570.055 -4.23505 -1.39856 0
M  V30 6263 C 570.756 -5.81695 -0.0230322 0
M  V30 6264 N 569.732 -5.40074 -0.618144 0
M  V30 6265 H 573.534 -2.93676 0.114711 0
M  V30 6266 H 571.048 -1.61572 0.163811 0
M  V30 6267 H 573.045 -3.48502 -2.28806 0
M  V30 6268 H 571.705 -2.30843 -2.28345 0
M  V30 6269 H 572.716 -5.17879 0.0468202 0
M  V30 6270 H 569.393 -3.64786 -2.0307 0
M  V30 6271 H 570.783 -6.68931 0.630927 0
M  V30 6272 N 573.503 -0.0852151 -1.57369 0
M  V30 6273 C 574.914 0.445428 -1.81309 0
M  V30 6274 C 575.265 1.68795 -1.00013 0
M  V30 6275 O 574.39 2.15211 -0.226573 0
M  V30 6276 C 574.985 0.814887 -3.28854 0
M  V30 6277 C 573.544 1.29032 -3.53592 0
M  V30 6278 C 572.691 0.282089 -2.75861 0
M  V30 6279 H 575.642 -0.310771 -1.55627 0
M  V30 6280 H 575.663 1.67524 -3.41637 0
M  V30 6281 H 575.175 -0.0896309 -3.87996 0
M  V30 6282 H 573.276 2.21289 -2.9977 0
M  V30 6283 H 573.389 1.25898 -4.62262 0
M  V30 6284 H 571.753 0.762182 -2.43029 0
M  V30 6285 H 572.536 -0.614936 -3.37748 0
M  V30 6286 N 574.981 1.5647 0.188427 0
M  V30 6287 C 576.23 1.80207 0.905995 0
M  V30 6288 C 576.543 0.659579 1.84144 0
M  V30 6289 O 577.749 0.781431 2.60011 0
M  V30 6290 C 576.205 3.19255 1.66145 0
M  V30 6291 C 575.813 4.41324 0.770504 0
M  V30 6292 C 577.557 3.52298 2.36826 0
M  V30 6293 C 575.464 5.71394 1.52521 0
M  V30 6294 H 574.394 0.671953 0.342045 0
M  V30 6295 H 577.045 1.82808 0.159164 0
M  V30 6296 H 575.427 3.10922 2.45242 0
M  V30 6297 H 576.601 4.60797 0.0177261 0
M  V30 6298 H 574.916 4.16035 0.174199 0
M  V30 6299 H 577.513 4.46715 2.93854 0
M  V30 6300 H 577.856 2.76359 3.11338 0
M  V30 6301 H 578.389 3.62108 1.6469 0
M  V30 6302 H 575.128 6.50316 0.82275 0
M  V30 6303 H 574.648 5.55928 2.25175 0
M  V30 6304 H 576.327 6.12747 2.07725 0
M  V30 6305 N 576.459 -0.456382 1.50847 0
M  V30 6306 C 577.684 -1.2349 1.66628 0
M  V30 6307 C 578.109 -1.84715 0.355254 0
M  V30 6308 O 577.467 -1.67961 -0.682559 0
M  V30 6309 C 577.515 -2.30865 2.77009 0
M  V30 6310 O 576.619 -3.35882 2.39285 0
M  V30 6311 H 575.96 -0.36266 0.556214 0
M  V30 6312 H 578.49 -0.541374 1.97308 0
M  V30 6313 H 578.5 -2.75949 3.00526 0
M  V30 6314 H 577.175 -1.85677 3.72152 0
M  V30 6315 H 575.752 -2.96406 2.26269 0
M  V30 6316 N 577.937 -1.40673 -0.710563 0
M  V30 6317 C 579.183 -1.39428 -1.47267 0
M  V30 6318 C 579.516 0.00182129 -1.942 0
M  V30 6319 O 578.791 0.971387 -1.68506 0
M  V30 6320 C 579.074 -2.38812 -2.6952 0
M  V30 6321 C 578.927 -3.87467 -2.28449 0
M  V30 6322 C 580.246 -2.3566 -3.71689 0
M  V30 6323 H 577.365 -0.507768 -0.534173 0
M  V30 6324 H 580.007 -1.71843 -0.810547 0
M  V30 6325 H 578.157 -2.113 -3.26013 0
M  V30 6326 H 579.829 -4.25825 -1.77399 0
M  V30 6327 H 578.072 -4.03058 -1.60395 0
M  V30 6328 H 578.743 -4.5253 -3.16103 0
M  V30 6329 H 581.219 -2.6004 -3.24836 0
M  V30 6330 H 580.095 -3.07237 -4.54859 0
M  V30 6331 H 580.356 -1.36996 -4.20339 0
M  V30 6332 N 579.415 0.9433 -1.26252 0
M  V30 6333 C 580.643 1.72367 -1.14443 0
M  V30 6334 C 581.058 1.86392 0.300572 0
M  V30 6335 O 580.415 1.36978 1.20596 0
M  V30 6336 C 580.466 3.13155 -1.806 0
M  V30 6337 O 580.187 2.99803 -3.19452 0
M  V30 6338 C 581.688 4.07417 -1.74717 0
M  V30 6339 H 578.908 0.539758 -0.398626 0
M  V30 6340 H 581.452 1.18268 -1.66832 0
M  V30 6341 H 579.607 3.64162 -1.32154 0
M  V30 6342 H 580.021 3.88697 -3.52158 0
M  V30 6343 H 581.495 5.03773 -2.25647 0
M  V30 6344 H 581.972 4.3337 -0.713244 0
M  V30 6345 H 582.578 3.6233 -2.22704 0
M  V30 6346 N 580.893 1.08022 1.14757 0
M  V30 6347 C 581.823 0.728248 2.21853 0
M  V30 6348 C 582.804 -0.287486 1.67653 0
M  V30 6349 O 583.989 -0.158727 1.9355 0
M  V30 6350 C 581.119 0.132549 3.47047 0
M  V30 6351 C 580.073 1.07619 4.14249 0
M  V30 6352 C 579.399 0.342907 5.33599 0
M  V30 6353 C 580.699 2.41268 4.63235 0
M  V30 6354 H 582.393 1.62365 2.51551 0
M  V30 6355 H 579.939 0.782125 1.20908 0
M  V30 6356 H 581.892 -0.125665 4.21213 0
M  V30 6357 H 580.616 -0.797971 3.16702 0
M  V30 6358 H 579.275 1.31944 3.42033 0
M  V30 6359 H 578.923 -0.59129 4.99513 0
M  V30 6360 H 578.623 0.971955 5.79506 0
M  V30 6361 H 580.147 0.0926538 6.1053 0
M  V30 6362 H 581.561 2.21232 5.28894 0
M  V30 6363 H 579.958 2.9983 5.19829 0
M  V30 6364 H 581.028 3.03079 3.78512 0
M  V30 6365 N 582.371 -1.3172 0.865308 0
M  V30 6366 C 583.303 -2.27545 0.274906 0
M  V30 6367 C 584.316 -1.52887 -0.559413 0
M  V30 6368 O 585.505 -1.74361 -0.382166 0
M  V30 6369 C 582.605 -3.33006 -0.629286 0
M  V30 6370 C 581.778 -4.37063 0.171553 0
M  V30 6371 C 580.837 -5.22044 -0.660052 0
M  V30 6372 O 579.863 -5.69129 -0.0897527 0
M  V30 6373 N 581.065 -5.45946 -1.97289 0
M  V30 6374 H 583.83 -2.78848 1.09836 0
M  V30 6375 H 581.391 -1.44693 0.726331 0
M  V30 6376 H 583.383 -3.86772 -1.19121 0
M  V30 6377 H 581.953 -2.81782 -1.35342 0
M  V30 6378 H 581.173 -3.83436 0.914919 0
M  V30 6379 H 582.461 -5.03662 0.721235 0
M  V30 6380 H 581.859 -5.0944 -2.45942 0
M  V30 6381 H 580.416 -6.02665 -2.4827 0
M  V30 6382 N 583.85 -0.624285 -1.44708 0
M  V30 6383 C 585.266 -0.289322 -1.56956 0
M  V30 6384 C 585.466 1.20773 -1.61295 0
M  V30 6385 O 584.522 1.9915 -1.55227 0
M  V30 6386 C 585.835 -0.975215 -2.84447 0
M  V30 6387 C 587.383 -0.952709 -2.98148 0
M  V30 6388 C 587.858 -1.61893 -4.28433 0
M  V30 6389 N 589.349 -1.5852 -4.35231 0
M  V30 6390 C 590.084 -2.06969 -5.34744 0
M  V30 6391 N 589.58 -2.63579 -6.40701 0
M  V30 6392 N 591.373 -1.97638 -5.26209 0
M  V30 6393 H 583.524 -1.59612 -1.40135 0
M  V30 6394 H 585.787 -0.669592 -0.671081 0
M  V30 6395 H 585.493 -2.02999 -2.87201 0
M  V30 6396 H 585.367 -0.508749 -3.73753 0
M  V30 6397 H 587.754 0.093568 -2.94952 0
M  V30 6398 H 587.835 -1.4576 -2.10209 0
M  V30 6399 H 587.479 -2.66463 -4.32389 0
M  V30 6400 H 587.409 -1.08893 -5.15218 0
M  V30 6401 H 589.899 -1.17183 -3.59272 0
M  V30 6402 H 590.213 -2.98298 -7.12908 0
M  V30 6403 H 588.558 -2.67626 -6.41406 0
M  V30 6404 H 591.749 -1.5314 -4.42341 0
M  V30 6405 H 591.922 -2.35708 -6.03611 0
M  V30 6406 N 585.328 1.53329 -0.364422 0
M  V30 6407 C 586.558 2.05359 0.226096 0
M  V30 6408 C 586.966 1.23777 1.43094 0
M  V30 6409 O 586.309 0.271139 1.81688 0
M  V30 6410 C 586.371 3.52918 0.684794 0
M  V30 6411 C 586.035 4.55218 -0.403206 0
M  V30 6412 C 587.032 5.04583 -1.2527 0
M  V30 6413 C 584.717 4.99134 -0.563117 0
M  V30 6414 C 586.711 5.96463 -2.24745 0
M  V30 6415 C 584.398 5.9082 -1.56124 0
M  V30 6416 C 585.396 6.39375 -2.40184 0
M  V30 6417 O 585.084 7.29255 -3.38293 0
M  V30 6418 H 584.816 0.674588 0.0436772 0
M  V30 6419 H 587.37 1.98688 -0.520782 0
M  V30 6420 H 585.6 3.57122 1.48326 0
M  V30 6421 H 587.289 3.87812 1.19818 0
M  V30 6422 H 588.055 4.71403 -1.14034 0
M  V30 6423 H 583.934 4.60928 0.0813909 0
M  V30 6424 H 587.478 6.34285 -2.90393 0
M  V30 6425 H 583.375 6.23414 -1.67407 0
M  V30 6426 H 584.143 7.47249 -3.34009 0
M  V30 6427 N 586.806 0.0935595 1.57322 0
M  V30 6428 C 587.736 -0.863062 2.16964 0
M  V30 6429 C 588.717 -1.29528 1.10256 0
M  V30 6430 O 589.902 -1.36245 1.38387 0
M  V30 6431 C 587.032 -2.12276 2.74875 0
M  V30 6432 C 585.986 -1.82921 3.86942 0
M  V30 6433 C 585.312 -3.15707 4.31548 0
M  V30 6434 C 586.612 -1.11737 5.10208 0
M  V30 6435 H 588.306 -0.366145 2.97153 0
M  V30 6436 H 585.852 -0.174673 1.42937 0
M  V30 6437 H 587.805 -2.79634 3.1525 0
M  V30 6438 H 586.529 -2.64248 1.91938 0
M  V30 6439 H 585.188 -1.17961 3.47103 0
M  V30 6440 H 584.836 -3.65563 3.45504 0
M  V30 6441 H 584.536 -2.96849 5.07104 0
M  V30 6442 H 586.06 -3.84226 4.74555 0
M  V30 6443 H 587.474 -1.69203 5.47762 0
M  V30 6444 H 585.871 -1.03064 5.91183 0
M  V30 6445 H 586.941 -0.0998818 4.84797 0
M  V30 6446 N 588.284 -1.56567 -0.180126 0
M  V30 6447 C 589.53 -1.81761 -0.899497 0
M  V30 6448 C 589.863 -0.670015 -1.82276 0
M  V30 6449 O 589.138 0.328575 -1.91705 0
M  V30 6450 C 589.421 -3.17296 -1.7028 0
M  V30 6451 C 589.274 -4.4257 -0.803255 0
M  V30 6452 C 590.593 -3.49678 -2.67233 0
M  V30 6453 H 587.712 -0.661192 -0.325567 0
M  V30 6454 H 590.354 -1.89272 -0.16612 0
M  V30 6455 H 588.504 -3.11023 -2.32802 0
M  V30 6456 H 590.176 -4.60902 -0.191585 0
M  V30 6457 H 588.419 -4.33658 -0.110796 0
M  V30 6458 H 589.09 -5.33935 -1.40064 0
M  V30 6459 H 591.566 -3.56347 -2.14839 0
M  V30 6460 H 590.442 -4.45605 -3.20511 0
M  V30 6461 H 590.703 -2.73932 -3.47007 0
M  V30 6462 N 589.762 0.448376 -1.51087 0
M  V30 6463 C 590.71 1.56407 -1.72161 0
M  V30 6464 C 591.704 1.58878 -0.587721 0
M  V30 6465 O 592.91 1.62755 -0.768822 0
M  V30 6466 H 589.285 0.519423 -0.543786 0
M  V30 6467 H 591.256 1.35803 -2.65707 0
M  V30 6468 C 590.005 2.94163 -1.85373 0
M  V30 6469 H 589.328 2.9299 -2.72024 0
M  V30 6470 H 590.768 3.71625 -2.04135 0
M  V30 6471 C 589.227 3.31317 -0.610803 0
M  V30 6472 O 589.757 4.00985 0.239636 0
M  V30 6473 N 587.963 2.86966 -0.458127 0
M  V30 6474 H 587.51 2.30443 -1.15124 0
M  V30 6475 H 587.468 3.12188 0.372289 0
M  V30 6476 N 591.24 1.41047 0.703093 0
M  V30 6477 C 592.517 1.30493 1.45708 0
M  V30 6478 C 592.897 -0.0709892 2.10981 0
M  V30 6479 O 592.245 -1.08471 2.01113 0
M  V30 6480 C 592.455 2.45287 2.48265 0
M  V30 6481 C 593.803 2.86104 3.13735 0
M  V30 6482 O 594.827 2.44971 2.58587 0
M  V30 6483 O 593.686 3.57206 4.13601 0
M  V30 6484 H 590.78 0.513144 0.648546 0
M  V30 6485 H 593.326 1.52995 0.734208 0
M  V30 6486 H 592.098 3.37135 1.98635 0
M  V30 6487 H 591.721 2.24622 3.28071 0
M  V30 6488 N 592.718 -0.936591 1.26751 0
M  V30 6489 C 593.648 -2.05315 1.11212 0
M  V30 6490 C 594.629 -1.70092 0.0160262 0
M  V30 6491 O 595.814 -1.93279 0.188894 0
M  V30 6492 C 592.944 -3.39123 0.749171 0
M  V30 6493 C 591.898 -3.88425 1.79751 0
M  V30 6494 C 591.224 -5.18936 1.28876 0
M  V30 6495 C 592.524 -4.12798 3.19992 0
M  V30 6496 H 594.218 -2.18573 2.04613 0
M  V30 6497 H 591.764 -1.05027 0.985159 0
M  V30 6498 H 593.717 -4.16704 0.627323 0
M  V30 6499 H 592.441 -3.25855 -0.220543 0
M  V30 6500 H 591.1 -3.13028 1.90811 0
M  V30 6501 H 590.748 -5.02051 0.308757 0
M  V30 6502 H 590.448 -5.52892 1.98958 0
M  V30 6503 H 591.972 -5.99096 1.17967 0
M  V30 6504 H 593.386 -4.80977 3.11983 0
M  V30 6505 H 591.783 -4.58044 3.87705 0
M  V30 6506 H 592.853 -3.18412 3.65707 0
M  V30 6507 N 594.196 -1.08629 -1.14182 0
M  V30 6508 C 595.442 -0.818556 -1.85546 0
M  V30 6509 C 595.775 0.654076 -1.82854 0
M  V30 6510 O 595.05 1.48099 -1.26083 0
M  V30 6511 C 595.333 -1.34397 -3.3408 0
M  V30 6512 C 595.186 -2.8821 -3.45333 0
M  V30 6513 C 596.505 -0.971069 -4.29253 0
M  V30 6514 H 593.624 -0.298821 -0.673702 0
M  V30 6515 H 596.266 -1.34629 -1.34071 0
M  V30 6516 H 594.416 -0.895064 -3.78049 0
M  V30 6517 H 596.088 -3.41488 -3.10134 0
M  V30 6518 H 594.331 -3.25756 -2.86471 0
M  V30 6519 H 595.002 -3.20047 -4.49749 0
M  V30 6520 H 597.478 -1.35809 -3.93313 0
M  V30 6521 H 596.354 -1.36586 -5.31635 0
M  V30 6522 H 596.615 0.121659 -4.41933 0
M  V30 6523 N 595.674 1.31259 -0.872281 0
M  V30 6524 C 596.604 2.30929 -0.345554 0
M  V30 6525 C 597.585 1.60449 0.5648 0
M  V30 6526 O 598.77 1.8814 0.481335 0
M  V30 6527 C 595.9 3.44348 0.451823 0
M  V30 6528 C 594.854 4.26435 -0.365641 0
M  V30 6529 C 594.18 5.31785 0.557562 0
M  V30 6530 C 595.48 4.97159 -1.60095 0
M  V30 6531 H 597.174 2.75234 -1.17841 0
M  V30 6532 H 594.72 1.3232 -0.568094 0
M  V30 6533 H 596.673 4.13128 0.830854 0
M  V30 6534 H 595.397 2.98816 1.31821 0
M  V30 6535 H 594.056 3.59326 -0.726649 0
M  V30 6536 H 593.704 4.82502 1.4213 0
M  V30 6537 H 593.404 5.87598 0.0144878 0
M  V30 6538 H 594.928 6.03424 0.933387 0
M  V30 6539 H 596.342 5.58523 -1.29323 0
M  V30 6540 H 594.739 5.62779 -2.08327 0
M  V30 6541 H 595.809 4.24012 -2.35249 0
M  V30 6542 N 597.152 0.631951 1.44375 0
M  V30 6543 C 598.568 0.297642 1.568 0
M  V30 6544 C 598.768 -1.19916 1.61934 0
M  V30 6545 O 597.824 -1.98324 1.56281 0
M  V30 6546 C 599.137 0.990286 2.83926 0
M  V30 6547 C 600.685 0.968507 2.97639 0
M  V30 6548 C 601.16 1.64163 4.27568 0
M  V30 6549 N 602.651 1.60826 4.34384 0
M  V30 6550 C 603.386 2.09802 5.33639 0
M  V30 6551 N 602.882 2.66973 6.39294 0
M  V30 6552 N 604.675 2.00426 5.25153 0
M  V30 6553 H 596.826 1.60353 1.39286 0
M  V30 6554 H 599.089 0.673142 0.667521 0
M  V30 6555 H 598.795 2.04519 2.8612 0
M  V30 6556 H 598.669 0.528563 3.73478 0
M  V30 6557 H 601.056 -0.0779247 2.94997 0
M  V30 6558 H 601.137 1.46873 2.09433 0
M  V30 6559 H 600.781 2.68752 4.3097 0
M  V30 6560 H 600.711 1.11624 5.14634 0
M  V30 6561 H 603.202 1.19087 3.58646 0
M  V30 6562 H 603.515 3.02074 7.11316 0
M  V30 6563 H 601.86 2.71024 6.39977 0
M  V30 6564 H 605.051 1.55483 4.41523 0
M  V30 6565 H 605.224 2.38906 6.02352 0
M  V30 6566 N 598.631 -1.53133 0.372548 0
M  V30 6567 C 599.908 -1.93704 -0.271693 0
M  V30 6568 C 600.288 -1.30667 -1.65799 0
M  V30 6569 O 599.636 -0.46838 -2.23648 0
M  V30 6570 C 599.846 -3.47576 -0.314903 0
M  V30 6571 C 601.194 -4.20998 -0.551912 0
M  V30 6572 O 602.218 -3.53994 -0.39582 0
M  V30 6573 O 601.077 -5.39748 -0.85639 0
M  V30 6574 H 598.171 -0.810457 -0.164586 0
M  V30 6575 H 600.717 -1.6427 0.425838 0
M  V30 6576 H 599.489 -3.85749 0.656792 0
M  V30 6577 H 599.112 -3.83264 -1.05804 0
M  V30 6578 N 600.109 -0.101901 -1.5727 0
M  V30 6579 C 601.339 0.567568 -1.98651 0
M  V30 6580 C 601.747 1.61839 -0.980037 0
M  V30 6581 O 601.09 1.83661 0.0376564 0
M  V30 6582 C 601.152 1.26742 -3.36417 0
M  V30 6583 C 600.816 0.366561 -4.55528 0
M  V30 6584 C 601.813 -0.388022 -5.1845 0
M  V30 6585 C 599.498 0.282629 -5.01504 0
M  V30 6586 C 601.492 -1.21445 -6.25724 0
M  V30 6587 C 599.179 -0.547443 -6.08643 0
M  V30 6588 C 600.177 -1.29462 -6.70618 0
M  V30 6589 O 599.865 -2.11095 -7.7569 0
M  V30 6590 H 599.597 0.156282 -0.657687 0
M  V30 6591 H 602.151 -0.179912 -2.04611 0
M  V30 6592 H 600.381 2.06162 -3.27161 0
M  V30 6593 H 602.07 1.8321 -3.622 0
M  V30 6594 H 602.836 -0.332949 -4.83856 0
M  V30 6595 H 598.715 0.853868 -4.53023 0
M  V30 6596 H 602.259 -1.79814 -6.74027 0
M  V30 6597 H 598.156 -0.603971 -6.42668 0
M  V30 6598 H 598.924 -2.03851 -7.92709 0
M  V30 6599 N 601.587 1.56661 0.17182 0
M  V30 6600 C 602.52 1.91474 1.24149 0
M  V30 6601 C 603.498 0.777485 1.42807 0
M  V30 6602 O 604.682 1.03075 1.57822 0
M  V30 6603 C 601.809 2.16523 2.60453 0
M  V30 6604 C 600.855 3.39209 2.58533 0
M  V30 6605 S 601.688 4.93594 2.07665 0
M  V30 6606 C 602.844 5.21737 3.45747 0
M  V30 6607 H 603.077 2.81903 0.944346 0
M  V30 6608 H 600.61 1.49743 0.376364 0
M  V30 6609 H 602.568 2.31635 3.38903 0
M  V30 6610 H 601.229 1.26802 2.87368 0
M  V30 6611 H 600.422 3.53935 3.58812 0
M  V30 6612 H 600.024 3.2321 1.88178 0
M  V30 6613 H 602.316 5.13684 4.41741 0
M  V30 6614 H 603.259 6.23361 3.35896 0
M  V30 6615 H 603.667 4.49307 3.41736 0
M  V30 6616 N 603.065 -0.440357 1.51323 0
M  V30 6617 C 604.314 -1.18697 1.63076 0
M  V30 6618 C 604.627 -1.92418 0.35136 0
M  V30 6619 O 605.833 -2.69258 0.348221 0
M  V30 6620 C 604.289 -2.15849 2.87988 0
M  V30 6621 C 603.897 -1.47789 4.22921 0
M  V30 6622 C 605.641 -2.90962 3.09098 0
M  V30 6623 C 603.548 -2.43407 5.38987 0
M  V30 6624 H 602.478 -0.44676 0.607389 0
M  V30 6625 H 605.129 -0.454313 1.77787 0
M  V30 6626 H 603.511 -2.92537 2.66905 0
M  V30 6627 H 604.685 -0.7668 4.54375 0
M  V30 6628 H 603 -0.848404 4.07665 0
M  V30 6629 H 605.597 -3.62584 3.92985 0
M  V30 6630 H 605.94 -3.52133 2.22053 0
M  V30 6631 H 606.473 -2.21381 3.30507 0
M  V30 6632 H 603.212 -1.86929 6.28282 0
M  V30 6633 H 602.732 -3.12579 5.11913 0
M  V30 6634 H 604.411 -3.046 5.70813 0
M  V30 6635 N 604.543 -1.41418 -0.695603 0
M  V30 6636 C 605.954 -1.36335 -1.27552 0
M  V30 6637 C 606.305 -0.0464336 -1.96145 0
M  V30 6638 O 605.43 0.855304 -1.9878 0
M  V30 6639 C 606.025 -2.46941 -2.3196 0
M  V30 6640 C 604.584 -2.45256 -2.85529 0
M  V30 6641 C 603.731 -2.2679 -1.59566 0
M  V30 6642 H 606.682 -1.50934 -0.490362 0
M  V30 6643 H 606.703 -2.15997 -3.1325 0
M  V30 6644 H 606.215 -3.42775 -1.82008 0
M  V30 6645 H 604.316 -1.53179 -3.39657 0
M  V30 6646 H 604.429 -3.41565 -3.35961 0
M  V30 6647 H 602.793 -1.74667 -1.85374 0
M  V30 6648 H 603.576 -3.24651 -1.1161 0
M  V30 6649 N 606.021 0.929856 -1.27246 0
M  V30 6650 C 606.984 2.01172 -1.09829 0
M  V30 6651 C 607.984 1.60743 -0.0429687 0
M  V30 6652 O 609.174 1.71813 -0.287373 0
M  V30 6653 C 606.306 3.34191 -0.673003 0
M  V30 6654 H 607.499 2.18054 -2.05895 0
M  V30 6655 H 605.052 1.11036 -1.10003 0
M  V30 6656 H 605.787 3.23009 0.289134 0
M  V30 6657 H 605.572 3.64892 -1.43515 0
M  V30 6658 H 607.062 4.13646 -0.573323 0
M  V30 6659 N 607.499 1.09233 1.13605 0
M  V30 6660 C 608.446 0.729921 2.18954 0
M  V30 6661 C 609.416 -0.287916 1.63586 0
M  V30 6662 O 610.601 -0.170003 1.90041 0
M  V30 6663 C 607.741 0.154489 3.44754 0
M  V30 6664 C 606.854 1.22613 4.14234 0
M  V30 6665 C 605.989 0.613657 5.27644 0
M  V30 6666 C 605.028 1.66674 5.8897 0
M  V30 6667 N 604.165 1.07545 6.93814 0
M  V30 6668 H 609.005 1.63257 2.49302 0
M  V30 6669 H 606.542 0.815693 1.22413 0
M  V30 6670 H 608.5 -0.196923 4.16735 0
M  V30 6671 H 607.13 -0.711433 3.14863 0
M  V30 6672 H 606.182 1.69485 3.40557 0
M  V30 6673 H 607.494 2.0238 4.55899 0
M  V30 6674 H 606.648 0.210976 6.06333 0
M  V30 6675 H 605.387 -0.215584 4.87223 0
M  V30 6676 H 604.392 2.07899 5.08978 0
M  V30 6677 H 605.617 2.49861 6.31464 0
M  V30 6678 H 603.563 0.267451 6.55455 0
M  V30 6679 H 603.48 1.81011 7.3401 0
M  V30 6680 H 604.748 0.698906 7.7636 0
M  V30 6681 N 608.977 -1.30795 0.87923 0
M  V30 6682 C 610.205 -2.00527 0.509548 0
M  V30 6683 C 610.62 -1.65944 -0.90045 0
M  V30 6684 O 609.977 -0.893525 -1.5913 0
M  V30 6685 C 610.028 -3.55276 0.667943 0
M  V30 6686 O 609.749 -3.88625 2.02242 0
M  V30 6687 C 611.25 -4.4228 0.300494 0
M  V30 6688 H 608.47 -0.641261 0.197549 0
M  V30 6689 H 611.014 -1.66813 1.18295 0
M  V30 6690 H 609.169 -3.87377 0.0419843 0
M  V30 6691 H 609.583 -4.83334 2.03688 0
M  V30 6692 H 611.057 -5.50061 0.462242 0
M  V30 6693 H 611.534 -4.32556 -0.76106 0
M  V30 6694 H 612.14 -4.15613 0.902536 0
M  V30 6695 N 610.455 -0.639598 -1.44038 0
M  V30 6696 C 611.385 0.0469443 -2.33453 0
M  V30 6697 C 612.366 0.82609 -1.48694 0
M  V30 6698 O 613.551 0.790285 -1.77393 0
M  V30 6699 C 610.681 1.02338 -3.3188 0
M  V30 6700 C 609.635 0.355284 -4.26523 0
M  V30 6701 C 608.961 1.44221 -5.14883 0
M  V30 6702 C 610.261 -0.743798 -5.16977 0
M  V30 6703 H 611.955 -0.699735 -2.91108 0
M  V30 6704 H 609.501 -0.337946 -1.39978 0
M  V30 6705 H 611.454 1.51247 -3.93322 0
M  V30 6706 H 610.178 1.80105 -2.72451 0
M  V30 6707 H 608.837 -0.113239 -3.66425 0
M  V30 6708 H 608.485 2.21097 -4.51802 0
M  V30 6709 H 608.185 1.00052 -5.79019 0
M  V30 6710 H 609.709 1.93295 -5.79197 0
M  V30 6711 H 611.123 -0.337444 -5.72306 0
M  V30 6712 H 609.52 -1.10914 -5.89761 0
M  V30 6713 H 610.59 -1.60745 -4.57481 0
M  V30 6714 N 611.933 1.52934 -0.380664 0
M  V30 6715 C 613.179 2.01765 0.20458 0
M  V30 6716 C 613.512 1.26696 1.47179 0
M  V30 6717 O 612.787 0.364936 1.91046 0
M  V30 6718 C 613.07 3.56869 0.481269 0
M  V30 6719 C 612.923 4.42617 -0.800629 0
M  V30 6720 C 614.242 4.2121 1.27554 0
M  V30 6721 H 611.361 0.733388 0.0728803 0
M  V30 6722 H 614.003 1.83068 -0.50853 0
M  V30 6723 H 612.153 3.72932 1.08875 0
M  V30 6724 H 613.825 4.38323 -1.43773 0
M  V30 6725 H 612.068 4.09977 -1.4178 0
M  V30 6726 H 612.739 5.49134 -0.561791 0
M  V30 6727 H 615.215 4.09072 0.761514 0
M  V30 6728 H 614.091 5.29732 1.43788 0
M  V30 6729 H 614.352 3.78269 2.28833 0
M  V30 6730 N 613.412 0.11024 1.57214 0
M  V30 6731 C 614.344 -0.873497 2.11902 0
M  V30 6732 C 615.357 -1.23588 1.05971 0
M  V30 6733 O 616.546 -1.18636 1.33371 0
M  V30 6734 C 613.646 -2.17805 2.59643 0
M  V30 6735 C 612.819 -1.98869 3.89576 0
M  V30 6736 C 611.878 -3.12974 4.23006 0
M  V30 6737 O 610.904 -2.86272 4.91973 0
M  V30 6738 N 612.106 -4.39167 3.79622 0
M  V30 6739 H 614.871 -0.406317 2.96933 0
M  V30 6740 H 612.432 -0.074437 1.61729 0
M  V30 6741 H 614.424 -2.93117 2.79042 0
M  V30 6742 H 612.994 -2.55899 1.7954 0
M  V30 6743 H 612.214 -1.078 3.79174 0
M  V30 6744 H 613.502 -1.83512 4.74553 0
M  V30 6745 H 612.9 -4.63739 3.2398 0
M  V30 6746 H 611.457 -5.11379 4.04147 0
M  V30 6747 N 614.89 -1.56749 -0.16351 0
M  V30 6748 C 616.136 -1.82704 -0.880168 0
M  V30 6749 C 616.469 -0.689311 -1.81555 0
M  V30 6750 O 615.744 0.308224 -1.92042 0
M  V30 6751 C 616.027 -3.19084 -1.66905 0
M  V30 6752 C 615.88 -4.43397 -0.756269 0
M  V30 6753 C 617.199 -3.52493 -2.63509 0
M  V30 6754 H 614.318 -0.664608 -0.318535 0
M  V30 6755 H 616.96 -1.89438 -0.146036 0
M  V30 6756 H 615.11 -3.13475 -2.2949 0
M  V30 6757 H 616.782 -4.61079 -0.14269 0
M  V30 6758 H 615.025 -4.33752 -0.0647944 0
M  V30 6759 H 615.696 -5.3539 -1.34393 0
M  V30 6760 H 618.172 -3.58606 -2.11047 0
M  V30 6761 H 617.048 -4.48979 -3.15767 0
M  V30 6762 H 617.309 -2.77597 -3.44082 0
M  V30 6763 N 616.368 0.432326 -1.51554 0
M  V30 6764 C 617.331 1.50765 -1.72634 0
M  V30 6765 C 618.331 1.49334 -0.596314 0
M  V30 6766 O 619.521 1.51268 -0.863925 0
M  V30 6767 C 616.653 2.90284 -1.7874 0
M  V30 6768 H 617.846 1.33377 -2.68609 0
M  V30 6769 H 615.399 0.661329 -1.4162 0
M  V30 6770 H 616.134 3.13071 -0.845977 0
M  V30 6771 H 615.919 2.92727 -2.6087 0
M  V30 6772 H 617.409 3.68282 -1.96871 0
M  V30 6773 N 617.846 1.41785 0.688094 0
M  V30 6774 C 619.095 1.4084 1.44385 0
M  V30 6775 C 619.408 0.0234166 1.95586 0
M  V30 6776 O 620.614 -0.108647 2.71283 0
M  V30 6777 C 619.07 2.47675 2.61123 0
M  V30 6778 C 618.678 3.92116 2.16677 0
M  V30 6779 C 620.422 2.55877 3.38714 0
M  V30 6780 C 618.329 4.90487 3.30419 0
M  V30 6781 H 617.259 0.523787 0.542368 0
M  V30 6782 H 619.91 1.6764 0.74627 0
M  V30 6783 H 618.292 2.14018 3.33185 0
M  V30 6784 H 619.466 4.35059 1.51856 0
M  V30 6785 H 617.781 3.87642 1.5206 0
M  V30 6786 H 620.378 3.26553 4.234 0
M  V30 6787 H 620.721 1.59801 3.84408 0
M  V30 6788 H 621.254 2.88662 2.73714 0
M  V30 6789 H 617.993 5.87994 2.89729 0
M  V30 6790 H 617.513 4.52187 3.94065 0
M  V30 6791 H 619.192 5.11591 3.96085 0
M  V30 6792 N 619.324 -0.923095 1.27737 0
M  V30 6793 C 620.554 -1.70277 1.17001 0
M  V30 6794 C 620.962 -1.87188 -0.275199 0
M  V30 6795 O 620.305 -1.39195 -1.19877 0
M  V30 6796 C 620.367 -3.11976 1.78637 0
M  V30 6797 C 620.031 -3.18386 3.27841 0
M  V30 6798 C 621.028 -3.00287 4.2441 0
M  V30 6799 C 618.713 -3.41198 3.68632 0
M  V30 6800 C 620.707 -3.04896 5.59747 0
M  V30 6801 C 618.394 -3.4544 5.04097 0
M  V30 6802 C 619.392 -3.27309 5.99465 0
M  V30 6803 O 619.08 -3.31295 7.32461 0
M  V30 6804 H 618.812 -0.539366 0.407505 0
M  V30 6805 H 621.366 -1.16446 1.69202 0
M  V30 6806 H 619.596 -3.67308 1.20919 0
M  V30 6807 H 621.285 -3.7193 1.6255 0
M  V30 6808 H 622.051 -2.825 3.94232 0
M  V30 6809 H 617.93 -3.54359 2.94873 0
M  V30 6810 H 621.474 -2.90662 6.34162 0
M  V30 6811 H 617.371 -3.62753 5.33929 0
M  V30 6812 H 618.139 -3.47719 7.40968 0
M  V30 6813 N 620.802 -1.09834 -1.13024 0
M  V30 6814 C 621.765 -0.745058 -2.16752 0
M  V30 6815 C 622.765 0.227435 -1.59183 0
M  V30 6816 O 623.955 0.0050786 -1.74199 0
M  V30 6817 C 621.087 -0.102543 -3.40746 0
M  V30 6818 H 622.28 -1.66375 -2.49518 0
M  V30 6819 H 619.833 -0.898061 -1.27924 0
M  V30 6820 H 620.568 0.827177 -3.13573 0
M  V30 6821 H 620.353 -0.80235 -3.83803 0
M  V30 6822 H 621.843 0.129082 -4.174 0
M  V30 6823 N 622.28 1.30327 -0.886154 0
M  V30 6824 C 623.21 2.30549 -0.370028 0
M  V30 6825 C 624.191 1.61039 0.547751 0
M  V30 6826 O 625.376 1.8864 0.461353 0
M  V30 6827 C 622.506 3.44808 0.415275 0
M  V30 6828 C 621.46 4.26024 -0.41085 0
M  V30 6829 C 620.786 5.32347 0.501128 0
M  V30 6830 C 622.086 4.95433 -1.65359 0
M  V30 6831 H 623.78 2.73969 -1.20754 0
M  V30 6832 H 621.326 1.3171 -0.582097 0
M  V30 6833 H 623.279 4.13986 0.78699 0
M  V30 6834 H 622.003 3.00197 1.28644 0
M  V30 6835 H 620.662 3.58535 -0.764719 0
M  V30 6836 H 620.31 4.83982 1.37004 0
M  V30 6837 H 620.01 5.87581 -0.0478356 0
M  V30 6838 H 621.534 6.0438 0.869333 0
M  V30 6839 H 622.948 5.5712 -1.35239 0
M  V30 6840 H 621.345 5.60537 -2.14284 0
M  V30 6841 H 622.415 4.21493 -2.39733 0
M  V30 6842 N 623.758 0.647228 1.43697 0
M  V30 6843 C 625.006 0.157876 2.01482 0
M  V30 6844 C 625.327 -1.23039 1.51282 0
M  V30 6845 O 624.597 -1.82071 0.722982 0
M  V30 6846 H 623.177 0.0553745 0.744945 0
M  V30 6847 H 625.839 0.83755 1.75986 0
M  V30 6848 H 624.935 0.137895 3.11795 0
M  V30 6849 N 625.236 -1.5273 0.388769 0
M  V30 6850 C 626.652 -1.59553 0.0387049 0
M  V30 6851 C 626.852 -1.40278 -1.44652 0
M  V30 6852 O 625.908 -1.21951 -2.21098 0
M  V30 6853 C 627.221 -2.9625 0.515409 0
M  V30 6854 C 628.769 -3.09426 0.471621 0
M  V30 6855 C 629.244 -4.48572 0.924505 0
M  V30 6856 N 630.735 -4.54754 0.880496 0
M  V30 6857 C 631.47 -5.60653 1.20234 0
M  V30 6858 N 630.966 -6.74198 1.59463 0
M  V30 6859 N 632.759 -5.50755 1.12363 0
M  V30 6860 H 624.91 -1.63508 1.35569 0
M  V30 6861 H 627.173 -0.768097 0.555636 0
M  V30 6862 H 626.879 -3.15569 1.5527 0
M  V30 6863 H 626.753 -3.77102 -0.085792 0
M  V30 6864 H 629.14 -2.89804 -0.556588 0
M  V30 6865 H 629.221 -2.30528 1.10862 0
M  V30 6866 H 628.865 -4.68936 1.95094 0
M  V30 6867 H 628.795 -5.25935 0.264524 0
M  V30 6868 H 631.286 -3.73237 0.591815 0
M  V30 6869 H 631.599 -7.5097 1.82385 0
M  V30 6870 H 629.944 -6.75531 1.63349 0
M  V30 6871 H 633.135 -4.6093 0.816169 0
M  V30 6872 H 633.308 -6.33184 1.37777 0
M  V30 6873 N 626.714 -0.118576 -1.57153 0
M  V30 6874 C 627.624 0.845484 -2.18835 0
M  V30 6875 C 628.64 1.29299 -1.16438 0
M  V30 6876 O 629.816 1.35607 -1.48905 0
M  V30 6877 C 626.881 2.07795 -2.77529 0
M  V30 6878 C 625.942 1.6824 -3.9496 0
M  V30 6879 C 625.175 2.85612 -4.50845 0
M  V30 6880 O 625.398 4.01025 -4.05629 0
M  V30 6881 O 624.332 2.62721 -5.41536 0
M  V30 6882 H 628.158 0.350568 -3.0167 0
M  V30 6883 H 625.743 0.107013 -1.49016 0
M  V30 6884 H 627.625 2.79978 -3.14945 0
M  V30 6885 H 626.3 2.56294 -1.97725 0
M  V30 6886 H 625.207 0.931663 -3.62313 0
M  V30 6887 H 626.54 1.24484 -4.76198 0
M  V30 6888 N 628.193 1.56834 0.155195 0
M  V30 6889 C 629.604 1.72421 0.716082 0
M  V30 6890 C 629.955 0.731685 1.82046 0
M  V30 6891 O 629.08 -0.103481 2.16152 0
M  V30 6892 C 629.675 3.12629 1.30571 0
M  V30 6893 C 628.234 3.29846 1.81325 0
M  V30 6894 C 627.381 2.68359 0.698494 0
M  V30 6895 H 630.332 1.58544 -0.0703861 0
M  V30 6896 H 630.353 3.12174 2.1755 0
M  V30 6897 H 629.865 3.84844 0.501701 0
M  V30 6898 H 627.966 2.62614 2.64319 0
M  V30 6899 H 628.079 4.37727 1.9476 0
M  V30 6900 H 626.443 2.28604 1.12305 0
M  V30 6901 H 627.226 3.43171 -0.0939366 0
M  V30 6902 N 629.671 -0.424282 1.51781 0
M  V30 6903 C 630.899 -1.1947 1.68921 0
M  V30 6904 C 631.314 -1.84683 0.39213 0
M  V30 6905 O 630.671 -1.71261 -0.630554 0
M  V30 6906 C 630.722 -2.26909 2.81416 0
M  V30 6907 O 630.443 -1.64361 4.061 0
M  V30 6908 C 631.944 -3.16945 3.09937 0
M  V30 6909 H 629.164 -0.359591 0.566511 0
M  V30 6910 H 631.708 -0.501139 1.98265 0
M  V30 6911 H 629.863 -2.91959 2.54635 0
M  V30 6912 H 630.277 -2.35468 4.68674 0
M  V30 6913 H 631.751 -3.88437 3.922 0
M  V30 6914 H 632.228 -3.78451 2.22871 0
M  V30 6915 H 632.834 -2.57581 3.38426 0
M  V30 6916 N 631.149 -1.42148 -0.680565 0
M  V30 6917 C 632.396 -1.4231 -1.44063 0
M  V30 6918 C 632.724 -0.037488 -1.94464 0
M  V30 6919 O 631.979 0.953184 -1.70918 0
M  V30 6920 C 632.278 -2.38945 -2.65782 0
M  V30 6921 C 631.944 -3.85455 -2.33956 0
M  V30 6922 C 630.606 -4.25364 -2.24987 0
M  V30 6923 C 632.958 -4.77895 -2.08004 0
M  V30 6924 C 630.286 -5.55701 -1.88184 0
M  V30 6925 C 632.638 -6.08568 -1.72706 0
M  V30 6926 C 631.302 -6.47482 -1.62244 0
M  V30 6927 H 630.572 -0.520748 -0.527164 0
M  V30 6928 H 633.219 -1.7505 -0.776524 0
M  V30 6929 H 631.524 -1.99511 -3.37198 0
M  V30 6930 H 633.221 -2.36336 -3.23954 0
M  V30 6931 H 629.811 -3.53855 -2.41836 0
M  V30 6932 H 633.995 -4.47854 -2.1387 0
M  V30 6933 H 629.251 -5.84718 -1.78648 0
M  V30 6934 H 633.425 -6.79688 -1.5165 0
M  V30 6935 H 631.052 -7.48387 -1.33496 0
M  V30 6936 N 632.627 0.916307 -1.28225 0
M  V30 6937 C 633.874 1.66518 -1.1523 0
M  V30 6938 C 634.202 1.92178 0.299632 0
M  V30 6939 O 633.457 1.51842 1.2346 0
M  V30 6940 C 633.756 3.03125 -1.8934 0
M  V30 6941 C 633.422 2.97135 -3.39148 0
M  V30 6942 C 632.084 2.95208 -3.80007 0
M  V30 6943 C 634.436 2.87574 -4.34685 0
M  V30 6944 C 631.764 2.81518 -5.14747 0
M  V30 6945 C 634.116 2.75424 -5.69495 0
M  V30 6946 C 632.78 2.71854 -6.09632 0
M  V30 6947 H 632.05 0.609334 -0.421655 0
M  V30 6948 H 634.697 1.06776 -1.58969 0
M  V30 6949 H 633.002 3.66639 -1.38143 0
M  V30 6950 H 634.699 3.59968 -1.76704 0
M  V30 6951 H 631.289 2.99428 -3.06661 0
M  V30 6952 H 635.473 2.88152 -4.04082 0
M  V30 6953 H 630.729 2.77148 -5.44976 0
M  V30 6954 H 634.903 2.66993 -6.43185 0
M  V30 6955 H 632.53 2.61003 -7.1399 0
M  V30 6956 N 634.105 1.10431 1.1244 0
M  V30 6957 C 635.352 0.846717 1.83948 0
M  V30 6958 C 635.68 -0.627709 1.84093 0
M  V30 6959 O 634.935 -1.47876 1.28184 0
M  V30 6960 C 635.234 1.34022 3.3132 0
M  V30 6961 C 634.9 2.82606 3.51347 0
M  V30 6962 C 633.562 3.23182 3.56521 0
M  V30 6963 C 635.914 3.78356 3.58464 0
M  V30 6964 C 633.242 4.58258 3.66356 0
M  V30 6965 C 635.594 5.13234 3.69829 0
M  V30 6966 C 634.258 5.53384 3.73259 0
M  V30 6967 H 633.528 0.309836 0.673114 0
M  V30 6968 H 636.175 1.38091 1.32677 0
M  V30 6969 H 634.48 0.726047 3.85014 0
M  V30 6970 H 636.177 1.11739 3.85118 0
M  V30 6971 H 632.767 2.50212 3.47983 0
M  V30 6972 H 636.951 3.48115 3.53737 0
M  V30 6973 H 632.207 4.88787 3.67284 0
M  V30 6974 H 636.381 5.87272 3.74279 0
M  V30 6975 H 634.008 6.58045 3.80633 0
M  V30 6976 N 635.583 -1.29855 0.893053 0
M  V30 6977 C 636.86 -1.90694 0.435336 0
M  V30 6978 C 637.24 -1.8111 -1.08454 0
M  V30 6979 O 636.588 -1.23352 -1.92345 0
M  V30 6980 C 636.798 -3.36033 0.942472 0
M  V30 6981 C 638.146 -4.13083 0.982226 0
M  V30 6982 O 639.17 -3.4491 0.889686 0
M  V30 6983 O 638.029 -5.34896 1.12022 0
M  V30 6984 H 635.123 -0.815978 0.134567 0
M  V30 6985 H 637.669 -1.38367 0.982484 0
M  V30 6986 H 636.441 -3.37132 1.9864 0
M  V30 6987 H 636.064 -3.95828 0.374952 0
M  V30 6988 N 637.061 -0.65484 -1.43351 0
M  V30 6989 C 638.472 -0.248506 -1.85039 0
M  V30 6990 C 638.823 1.20526 -1.54816 0
M  V30 6991 O 637.948 1.92016 -0.99794 0
M  V30 6992 C 638.543 -0.444241 -3.35875 0
M  V30 6993 C 637.102 -0.0922108 -3.76287 0
M  V30 6994 C 636.249 -0.746327 -2.67068 0
M  V30 6995 H 639.2 -0.8584 -1.33481 0
M  V30 6996 H 639.221 0.309762 -3.79237 0
M  V30 6997 H 638.733 -1.50239 -3.5784 0
M  V30 6998 H 636.834 0.96328 -3.59933 0
M  V30 6999 H 636.947 -0.518807 -4.76283 0
M  V30 7000 H 635.311 -0.179416 -2.54067 0
M  V30 7001 H 636.094 -1.80754 -2.91861 0
M  V30 7002 N 638.539 1.52521 -0.396863 0
M  V30 7003 C 639.449 2.30403 0.44178 0
M  V30 7004 C 640.465 1.37625 1.06468 0
M  V30 7005 O 641.641 1.70697 1.06886 0
M  V30 7006 C 638.706 3.1013 1.54986 0
M  V30 7007 C 637.767 4.18628 0.951279 0
M  V30 7008 C 637 4.94543 2.00655 0
M  V30 7009 O 637.223 4.70629 3.22281 0
M  V30 7010 O 636.157 5.797 1.61962 0
M  V30 7011 H 639.983 3.03087 -0.192892 0
M  V30 7012 H 637.568 1.48537 -0.16038 0
M  V30 7013 H 639.45 3.59816 2.19341 0
M  V30 7014 H 638.125 2.40251 2.16935 0
M  V30 7015 H 637.032 3.73119 0.270773 0
M  V30 7016 H 638.365 4.90763 0.375887 0
M  V30 7017 N 640.017 0.126909 1.57088 0
M  V30 7018 C 640.965 -0.837618 2.16995 0
M  V30 7019 C 641.959 -1.26974 1.12133 0
M  V30 7020 O 643.165 -1.24056 1.30423 0
M  V30 7021 H 639.54 -0.288256 0.694559 0
M  V30 7022 H 641.511 -0.307957 2.96807 0
M  V30 7023 C 640.26 -2.07474 2.79016 0
M  V30 7024 H 639.583 -1.75117 3.59408 0
M  V30 7025 H 641.023 -2.72949 3.24461 0
M  V30 7026 C 639.482 -2.86967 1.76498 0
M  V30 7027 O 640.012 -3.82625 1.22316 0
M  V30 7028 N 638.218 -2.51111 1.46258 0
M  V30 7029 H 637.765 -1.73389 1.90509 0
M  V30 7030 H 637.723 -3.04594 0.779085 0
M  V30 7031 N 641.495 -1.56914 -0.146875 0
M  V30 7032 C 642.742 -1.83356 -0.859467 0
M  V30 7033 C 643.07 -0.707811 -1.81164 0
M  V30 7034 O 642.325 0.303155 -1.93338 0
M  V30 7035 C 642.624 -3.16128 -1.66727 0
M  V30 7036 C 642.29 -4.42586 -0.861881 0
M  V30 7037 C 640.952 -4.76929 -0.639687 0
M  V30 7038 C 643.304 -5.20344 -0.298643 0
M  V30 7039 C 640.632 -5.86491 0.156451 0
M  V30 7040 C 642.984 -6.30742 0.484536 0
M  V30 7041 C 641.648 -6.63635 0.717306 0
M  V30 7042 H 640.918 -0.670947 -0.314501 0
M  V30 7043 H 643.565 -1.91104 -0.123108 0
M  V30 7044 H 641.87 -3.03831 -2.47374 0
M  V30 7045 H 643.567 -3.33802 -2.2221 0
M  V30 7046 H 640.157 -4.15662 -1.04513 0
M  V30 7047 H 644.341 -4.94186 -0.457585 0
M  V30 7048 H 639.597 -6.10419 0.346292 0
M  V30 7049 H 643.771 -6.90188 0.928105 0
M  V30 7050 H 641.398 -7.48367 1.33607 0
M  V30 7051 N 642.974 0.416227 -1.52004 0
M  V30 7052 C 644.251 1.17637 -1.56272 0
M  V30 7053 C 644.631 2.08352 -0.339493 0
M  V30 7054 O 643.979 2.1833 0.674124 0
M  V30 7055 C 644.189 1.95986 -2.88774 0
M  V30 7056 C 645.537 2.52299 -3.41512 0
M  V30 7057 O 646.561 2.06174 -2.90467 0
M  V30 7058 O 645.42 3.3648 -4.30631 0
M  V30 7059 H 642.514 0.536726 -0.629169 0
M  V30 7060 H 645.06 0.423583 -1.64329 0
M  V30 7061 H 643.832 1.29487 -3.69254 0
M  V30 7062 H 643.455 2.78285 -2.83978 0
M  V30 7063 N 644.452 1.42507 0.673017 0
M  V30 7064 C 645.863 1.38347 1.25367 0
M  V30 7065 C 646.214 0.0776327 1.96046 0
M  V30 7066 O 645.339 -0.823571 2.00116 0
M  V30 7067 C 645.934 2.506 2.28002 0
M  V30 7068 C 644.493 2.49767 2.81591 0
M  V30 7069 C 643.64 2.293 1.55938 0
M  V30 7070 H 646.591 1.51695 0.466288 0
M  V30 7071 H 646.612 2.20953 3.09774 0
M  V30 7072 H 646.124 3.45627 1.76532 0
M  V30 7073 H 644.225 1.58563 3.37177 0
M  V30 7074 H 644.338 3.46867 3.30485 0
M  V30 7075 H 642.702 1.77594 1.82572 0
M  V30 7076 H 643.485 3.26385 1.06431 0
M  V30 7077 N 645.93 -0.909495 1.28709 0
M  V30 7078 C 647.158 -1.69272 1.18973 0
M  V30 7079 C 647.573 -1.87123 -0.251048 0
M  V30 7080 O 646.93 -1.40127 -1.16922 0
M  V30 7081 C 646.981 -3.08257 1.88839 0
M  V30 7082 O 646.702 -2.91228 3.27289 0
M  V30 7083 C 648.203 -4.02642 1.85457 0
M  V30 7084 H 645.423 -0.528999 0.412797 0
M  V30 7085 H 647.967 -1.13803 1.69909 0
M  V30 7086 H 646.122 -3.6053 1.41762 0
M  V30 7087 H 646.536 -3.79223 3.6234 0
M  V30 7088 H 648.01 -4.97613 2.38925 0
M  V30 7089 H 648.487 -4.31327 0.827893 0
M  V30 7090 H 649.093 -3.56298 2.32233 0
M  V30 7091 N 647.408 -1.11026 -1.11852 0
M  V30 7092 C 648.824 -0.843294 -1.35502 0
M  V30 7093 C 649.024 0.534179 -1.9429 0
M  V30 7094 O 648.08 1.28585 -2.17307 0
M  V30 7095 C 649.393 -1.94793 -2.29077 0
M  V30 7096 C 650.941 -1.97709 -2.42652 0
M  V30 7097 C 651.416 -3.07364 -3.39546 0
M  V30 7098 N 652.907 -3.0671 -3.47107 0
M  V30 7099 C 653.642 -3.88197 -4.22008 0
M  V30 7100 N 653.138 -4.79635 -4.99922 0
M  V30 7101 N 654.931 -3.76391 -4.17476 0
M  V30 7102 H 647.082 -1.99805 -0.720538 0
M  V30 7103 H 649.345 -0.868633 -0.379711 0
M  V30 7104 H 649.051 -2.93971 -1.93065 0
M  V30 7105 H 648.925 -1.84039 -3.29256 0
M  V30 7106 H 651.312 -0.991604 -2.77941 0
M  V30 7107 H 651.393 -2.1254 -1.4234 0
M  V30 7108 H 651.037 -4.06136 -3.04985 0
M  V30 7109 H 650.967 -2.89774 -4.39703 0
M  V30 7110 H 653.458 -2.40457 -2.91528 0
M  V30 7111 H 653.771 -5.38357 -5.54429 0
M  V30 7112 H 652.116 -4.8366 -4.99097 0
M  V30 7113 H 655.307 -3.04303 -3.55693 0
M  V30 7114 H 655.48 -4.40131 -4.75593 0
M  V30 7115 N 648.886 1.2938 -0.899927 0
M  V30 7116 C 650.132 1.96206 -0.536153 0
M  V30 7117 C 650.487 1.69647 0.90761 0
M  V30 7118 O 649.78 0.999089 1.63489 0
M  V30 7119 C 649.974 3.49114 -0.765113 0
M  V30 7120 C 649.803 3.90538 -2.22958 0
M  V30 7121 C 648.573 4.15395 -2.87706 0
M  V30 7122 C 650.771 4.0224 -3.20479 0
M  V30 7123 N 648.753 4.43389 -4.24593 0
M  V30 7124 C 650.124 4.34288 -4.42486 0
M  V30 7125 C 652.179 3.84716 -3.16066 0
M  V30 7126 C 650.882 4.50638 -5.6064 0
M  V30 7127 C 652.908 4.02276 -4.33507 0
M  V30 7128 C 652.27 4.34684 -5.54283 0
M  V30 7129 H 648.369 0.742364 -0.245804 0
M  V30 7130 H 650.953 1.56314 -1.16078 0
M  V30 7131 H 649.124 3.88028 -0.169861 0
M  V30 7132 H 650.856 4.03035 -0.366751 0
M  V30 7133 H 647.611 4.09164 -2.385 0
M  V30 7134 H 648.035 4.61494 -4.95331 0
M  V30 7135 H 652.677 3.58724 -2.23778 0
M  V30 7136 H 650.395 4.75467 -6.5342 0
M  V30 7137 H 653.981 3.90169 -4.31578 0
M  V30 7138 H 652.861 4.47988 -6.43643 0
M  V30 7139 N 650.364 0.662433 1.43002 0
M  V30 7140 C 651.294 -0.00979809 2.33498 0
M  V30 7141 C 652.275 -0.802329 1.49989 0
M  V30 7142 O 653.46 -0.761964 1.78627 0
M  V30 7143 C 650.59 -0.970446 3.33466 0
M  V30 7144 C 649.544 -0.287383 4.27034 0
M  V30 7145 C 648.87 -1.36012 5.17112 0
M  V30 7146 C 650.17 0.82595 5.15728 0
M  V30 7147 H 651.864 0.745959 2.89958 0
M  V30 7148 H 649.41 0.360172 1.39423 0
M  V30 7149 H 651.363 -1.44971 3.95679 0
M  V30 7150 H 650.087 -1.75748 2.75282 0
M  V30 7151 H 648.746 0.17152 3.66199 0
M  V30 7152 H 648.394 -2.13882 4.55262 0
M  V30 7153 H 648.094 -0.908276 5.80538 0
M  V30 7154 H 649.618 -1.84056 5.82199 0
M  V30 7155 H 651.032 0.42845 5.71697 0
M  V30 7156 H 649.429 1.20282 5.87922 0
M  V30 7157 H 650.499 1.68003 4.54866 0
M  V30 7158 N 651.842 -1.52309 0.404946 0
M  V30 7159 C 653.067 -2.06666 -0.1743 0
M  V30 7160 C 653.492 -1.27341 -1.38441 0
M  V30 7161 O 652.85 -0.302539 -1.78758 0
M  V30 7162 C 652.898 -3.57014 -0.507262 0
M  V30 7163 O 652.002 -3.80144 -1.59889 0
M  V30 7164 H 651.343 -0.663807 -0.0160273 0
M  V30 7165 H 653.873 -1.96297 0.576937 0
M  V30 7166 H 653.883 -4.00724 -0.767098 0
M  V30 7167 H 652.558 -4.14184 0.377368 0
M  V30 7168 H 651.135 -3.48316 -1.33155 0
M  V30 7169 N 653.32 -0.135238 -1.57019 0
M  V30 7170 C 654.267 0.808908 -2.1616 0
M  V30 7171 C 655.237 1.25234 -1.09113 0
M  V30 7172 O 656.422 1.32697 -1.37099 0
M  V30 7173 C 653.562 2.04729 -2.77813 0
M  V30 7174 C 652.675 1.65074 -3.99218 0
M  V30 7175 C 651.81 2.84002 -4.48906 0
M  V30 7176 C 650.849 2.40663 -5.62803 0
M  V30 7177 N 649.986 3.5256 -6.07162 0
M  V30 7178 H 654.826 0.297751 -2.96509 0
M  V30 7179 H 652.363 0.135264 -1.46477 0
M  V30 7180 H 654.321 2.7731 -3.11697 0
M  V30 7181 H 652.951 2.53275 -2.00128 0
M  V30 7182 H 652.003 0.823029 -3.7139 0
M  V30 7183 H 653.315 1.29236 -4.81767 0
M  V30 7184 H 652.469 3.64788 -4.84783 0
M  V30 7185 H 651.208 3.23076 -3.65339 0
M  V30 7186 H 650.213 1.58314 -5.26514 0
M  V30 7187 H 651.438 2.02687 -6.48147 0
M  V30 7188 H 649.384 3.91278 -5.26534 0
M  V30 7189 H 649.301 3.20699 -6.84608 0
M  V30 7190 H 650.569 4.33738 -6.47682 0
M  V30 7191 N 654.798 1.5699 0.138552 0
M  V30 7192 C 656.075 1.74741 0.87891 0
M  V30 7193 C 656.455 0.705522 1.98961 0
M  V30 7194 O 655.803 -0.274066 2.2685 0
M  V30 7195 C 656.013 3.1909 1.4136 0
M  V30 7196 C 657.361 3.81023 1.87368 0
M  V30 7197 O 658.385 3.22571 1.51084 0
M  V30 7198 O 657.244 4.83722 2.54312 0
M  V30 7199 H 654.338 0.714781 0.415953 0
M  V30 7200 H 656.884 1.69248 0.123817 0
M  V30 7201 H 655.656 3.86424 0.61579 0
M  V30 7202 H 655.279 3.29043 2.23196 0
M  V30 7203 N 656.276 -0.40816 1.52223 0
M  V30 7204 C 657.223 -1.49737 1.75635 0
M  V30 7205 C 658.193 -1.5493 0.598824 0
M  V30 7206 O 659.378 -1.71487 0.83648 0
M  V30 7207 C 656.518 -2.87174 1.91376 0
M  V30 7208 C 655.631 -2.91283 3.19027 0
M  V30 7209 C 654.766 -4.20026 3.25195 0
M  V30 7210 C 653.805 -4.18113 4.47044 0
M  V30 7211 N 652.942 -5.38429 4.50598 0
M  V30 7212 H 657.782 -1.29075 2.68596 0
M  V30 7213 H 655.319 -0.626518 1.33091 0
M  V30 7214 H 657.277 -3.66959 1.98486 0
M  V30 7215 H 655.907 -3.06329 1.01795 0
M  V30 7216 H 654.959 -2.03984 3.21084 0
M  V30 7217 H 656.271 -2.85734 4.08849 0
M  V30 7218 H 655.425 -5.08204 3.31382 0
M  V30 7219 H 654.164 -4.28271 2.33313 0
M  V30 7220 H 653.169 -3.28325 4.41002 0
M  V30 7221 H 654.394 -4.11507 5.40221 0
M  V30 7222 H 652.34 -5.4734 3.616 0
M  V30 7223 H 652.257 -5.34879 5.34266 0
M  V30 7224 H 653.525 -6.28557 4.61016 0
M  V30 7225 N 657.755 -1.42862 -0.66545 0
M  V30 7226 C 658.703 -1.47319 -1.8 0
M  V30 7227 C 659.697 -0.347963 -1.65788 0
M  V30 7228 O 660.903 -0.521406 -1.72283 0
M  V30 7229 H 657.278 -0.461588 -0.593667 0
M  V30 7230 H 659.249 -2.42876 -1.7336 0
M  V30 7231 C 657.998 -1.40152 -3.18203 0
M  V30 7232 H 657.321 -2.26035 -3.2977 0
M  V30 7233 H 658.761 -1.47331 -3.9758 0
M  V30 7234 C 657.22 -0.117493 -3.36695 0
M  V30 7235 O 657.75 0.826058 -3.93115 0
M  V30 7236 N 655.956 -0.0316218 -2.90583 0
M  V30 7237 H 655.503 -0.800247 -2.44855 0
M  V30 7238 H 655.461 0.826835 -3.03333 0
M  V30 7239 N 659.233 0.902656 -1.29189 0
M  V30 7240 C 660.482 1.6475 -1.16362 0
M  V30 7241 C 660.795 1.93517 0.284682 0
M  V30 7242 O 662.001 2.66192 0.534229 0
M  V30 7243 C 660.457 2.96848 -2.03493 0
M  V30 7244 C 660.065 2.75687 -3.5313 0
M  V30 7245 C 661.809 3.74762 -1.99383 0
M  V30 7246 C 659.716 4.03492 -4.32375 0
M  V30 7247 H 658.646 0.618041 -0.431904 0
M  V30 7248 H 661.297 1.0008 -1.53806 0
M  V30 7249 H 659.679 3.62715 -1.58916 0
M  V30 7250 H 660.853 2.18431 -4.05739 0
M  V30 7251 H 659.168 2.11171 -3.58881 0
M  V30 7252 H 661.765 4.69515 -2.5585 0
M  V30 7253 H 662.108 4.04767 -0.973123 0
M  V30 7254 H 662.641 3.15732 -2.41988 0
M  V30 7255 H 659.38 3.78656 -5.3507 0
M  V30 7256 H 658.9 4.60318 -3.84535 0
M  V30 7257 H 660.579 4.71662 -4.42881 0
M  V30 7258 N 660.711 1.11618 1.11262 0
M  V30 7259 C 661.939 0.888739 1.8684 0
M  V30 7260 C 662.354 -0.561558 1.80255 0
M  V30 7261 O 661.711 -1.38782 1.18515 0
M  V30 7262 C 661.762 1.34422 3.35579 0
M  V30 7263 O 661.483 2.73766 3.42029 0
M  V30 7264 C 662.984 1.15246 4.28058 0
M  V30 7265 H 660.204 0.318152 0.590779 0
M  V30 7266 H 662.748 1.48398 1.40707 0
M  V30 7267 H 660.903 0.79239 3.7921 0
M  V30 7268 H 661.317 2.9355 4.34659 0
M  V30 7269 H 662.791 1.52015 5.30656 0
M  V30 7270 H 663.268 0.0922007 4.39103 0
M  V30 7271 H 663.874 1.69136 3.90222 0
M  V30 7272 N 662.189 -1.289 0.906776 0
M  V30 7273 C 663.419 -1.99112 0.551168 0
M  V30 7274 C 663.827 -1.67998 -0.870243 0
M  V30 7275 O 663.17 -0.92525 -1.58697 0
M  V30 7276 C 663.232 -3.53162 0.672065 0
M  V30 7277 C 662.896 -4.07849 2.06174 0
M  V30 7278 C 663.893 -4.22212 3.0337 0
M  V30 7279 C 661.578 -4.4271 2.37304 0
M  V30 7280 C 663.572 -4.70678 4.29815 0
M  V30 7281 C 661.259 -4.90871 3.6399 0
M  V30 7282 C 662.257 -5.04811 4.6006 0
M  V30 7283 O 661.945 -5.51925 5.84495 0
M  V30 7284 H 661.677 -0.642728 0.209469 0
M  V30 7285 H 664.231 -1.65234 1.22012 0
M  V30 7286 H 662.461 -3.86662 -0.05394 0
M  V30 7287 H 664.15 -4.046 0.324579 0
M  V30 7288 H 664.916 -3.9556 2.80637 0
M  V30 7289 H 660.795 -4.31114 1.63283 0
M  V30 7290 H 664.339 -4.81474 5.04806 0
M  V30 7291 H 660.236 -5.16961 3.86551 0
M  V30 7292 H 661.004 -5.70225 5.87185 0
M  V30 7293 N 663.667 -0.670007 -1.42649 0
M  V30 7294 C 664.914 -0.190286 -2.01604 0
M  V30 7295 C 665.242 1.20155 -1.52948 0
M  V30 7296 O 664.497 1.81964 -0.72026 0
M  V30 7297 C 664.796 -0.168298 -3.57004 0
M  V30 7298 C 664.462 -1.50415 -4.25072 0
M  V30 7299 C 663.124 -1.86992 -4.43382 0
M  V30 7300 C 665.476 -2.38414 -4.63474 0
M  V30 7301 C 662.804 -3.11203 -4.97363 0
M  V30 7302 C 665.156 -3.61933 -5.18833 0
M  V30 7303 C 663.82 -3.98685 -5.35356 0
M  V30 7304 H 663.09 -0.0696305 -0.737721 0
M  V30 7305 H 665.737 -0.864044 -1.70899 0
M  V30 7306 H 664.042 0.588958 -3.87348 0
M  V30 7307 H 665.739 0.22001 -4.00396 0
M  V30 7308 H 662.329 -1.20959 -4.11177 0
M  V30 7309 H 666.513 -2.11442 -4.49006 0
M  V30 7310 H 661.769 -3.39705 -5.08341 0
M  V30 7311 H 665.943 -4.30326 -5.47533 0
M  V30 7312 H 663.57 -4.95009 -5.76949 0
M  V30 7313 N 665.145 1.52092 -0.413018 0
M  V30 7314 C 666.561 1.59471 -0.0640836 0
M  V30 7315 C 666.761 1.42562 1.42402 0
M  V30 7316 O 665.817 1.25453 2.19129 0
M  V30 7317 C 667.13 2.95392 -0.562474 0
M  V30 7318 C 668.678 3.08637 -0.520788 0
M  V30 7319 C 669.153 4.47044 -0.995752 0
M  V30 7320 N 670.644 4.53296 -0.952732 0
M  V30 7321 C 671.379 5.58669 -1.29138 0
M  V30 7322 N 670.875 6.71576 -1.70168 0
M  V30 7323 N 672.668 5.48898 -1.2111 0
M  V30 7324 H 664.819 1.6133 -1.38153 0
M  V30 7325 H 667.082 0.75916 -0.567785 0
M  V30 7326 H 666.788 3.13059 -1.60271 0
M  V30 7327 H 666.662 3.77191 0.0257875 0
M  V30 7328 H 669.049 2.90652 0.510412 0
M  V30 7329 H 669.13 2.28735 -1.14515 0
M  V30 7330 H 668.774 4.65773 -2.0253 0
M  V30 7331 H 668.704 5.25448 -0.348162 0
M  V30 7332 H 671.195 3.72248 -0.651119 0
M  V30 7333 H 671.508 7.47973 -1.9431 0
M  V30 7334 H 669.853 6.72847 -1.74075 0
M  V30 7335 H 673.044 4.59573 -0.889396 0
M  V30 7336 H 673.217 6.30912 -1.47833 0
M  V30 7337 N 666.623 0.143563 1.56945 0
M  V30 7338 C 667.571 -0.814556 2.17871 0
M  V30 7339 C 668.565 -1.25778 1.13474 0
M  V30 7340 O 669.771 -1.22666 1.31731 0
M  V30 7341 H 666.146 -0.280873 0.697578 0
M  V30 7342 H 668.117 -0.276459 2.97117 0
M  V30 7343 C 666.866 -2.04503 2.81201 0
M  V30 7344 H 666.189 -1.71296 3.61245 0
M  V30 7345 H 667.629 -2.69493 3.27337 0
M  V30 7346 C 666.088 -2.85079 1.79532 0
M  V30 7347 O 666.618 -3.81306 1.26368 0
M  V30 7348 N 664.824 -2.49546 1.48913 0
M  V30 7349 H 664.371 -1.71359 1.92338 0
M  V30 7350 H 664.329 -3.03751 0.811348 0
M  V30 7351 N 668.101 -1.57061 -0.130224 0
M  V30 7352 C 669.031 -2.02552 -1.16168 0
M  V30 7353 C 670.012 -0.907971 -1.4384 0
M  V30 7354 O 671.197 -1.17693 -1.54473 0
M  V30 7355 C 668.327 -2.42035 -2.49071 0
M  V30 7356 C 667.281 -3.5713 -2.35886 0
M  V30 7357 C 666.607 -3.82478 -3.7365 0
M  V30 7358 C 667.907 -4.89236 -1.8288 0
M  V30 7359 H 669.601 -2.8897 -0.783359 0
M  V30 7360 H 667.147 -1.39021 -0.375376 0
M  V30 7361 H 669.1 -2.72462 -3.21469 0
M  V30 7362 H 667.824 -1.52573 -2.88771 0
M  V30 7363 H 666.483 -3.26895 -1.65938 0
M  V30 7364 H 666.131 -2.9024 -4.10816 0
M  V30 7365 H 665.831 -4.59944 -3.65685 0
M  V30 7366 H 667.355 -4.15347 -4.47571 0
M  V30 7367 H 668.769 -5.18272 -2.45085 0
M  V30 7368 H 667.166 -5.70624 -1.85763 0
M  V30 7369 H 668.236 -4.78494 -0.785571 0
M  V30 7370 N 669.579 0.400081 -1.52437 0
M  V30 7371 C 670.827 1.14392 -1.6661 0
M  V30 7372 C 671.148 1.90792 -0.402927 0
M  V30 7373 O 670.418 1.87042 0.582425 0
M  V30 7374 H 668.998 0.425275 -0.614125 0
M  V30 7375 H 671.66 0.455076 -1.89513 0
M  V30 7376 H 670.756 1.85298 -2.51139 0
M  V30 7377 N 671.057 1.43213 0.657864 0
M  V30 7378 C 672.304 1.44584 1.41781 0
M  V30 7379 C 672.632 0.0684208 1.9438 0
M  V30 7380 O 671.887 -0.925872 1.72413 0
M  V30 7381 C 672.186 2.43143 2.61947 0
M  V30 7382 C 671.852 3.89128 2.27794 0
M  V30 7383 C 670.514 4.28889 2.18191 0
M  V30 7384 C 672.866 4.81144 2.00375 0
M  V30 7385 C 670.194 5.58625 1.79319 0
M  V30 7386 C 672.546 6.11239 1.63003 0
M  V30 7387 C 671.21 6.49981 1.51922 0
M  V30 7388 H 670.48 0.529069 0.518813 0
M  V30 7389 H 673.127 1.76263 0.748577 0
M  V30 7390 H 671.432 2.04851 3.33981 0
M  V30 7391 H 673.129 2.4146 3.20153 0
M  V30 7392 H 669.719 3.57657 2.36176 0
M  V30 7393 H 673.903 4.512 2.06718 0
M  V30 7394 H 669.159 5.87486 1.69323 0
M  V30 7395 H 673.333 6.82014 1.40817 0
M  V30 7396 H 670.96 7.50416 1.21572 0
M  V30 7397 N 672.536 -0.895792 1.29666 0
M  V30 7398 C 673.784 -1.64339 1.17631 0
M  V30 7399 C 674.105 -1.93099 -0.271643 0
M  V30 7400 O 673.375 -1.55981 -1.18518 0
M  V30 7401 H 671.955 -0.609162 0.432354 0
M  V30 7402 H 674.617 -1.07389 1.62646 0
M  V30 7403 H 673.713 -2.59815 1.72924 0
M  V30 7404 N 674.014 -1.12206 -1.10668 0
M  V30 7405 C 675.26 -0.887096 -1.83036 0
M  V30 7406 C 675.615 0.580887 -1.83422 0
M  V30 7407 O 674.908 1.42379 -1.28213 0
M  V30 7408 C 675.102 -1.39276 -3.29146 0
M  V30 7409 C 674.931 -2.90837 -3.42992 0
M  V30 7410 C 673.701 -3.59047 -3.55546 0
M  V30 7411 C 675.899 -3.8885 -3.36601 0
M  V30 7412 N 673.881 -4.98747 -3.57945 0
M  V30 7413 C 675.252 -5.14666 -3.45716 0
M  V30 7414 C 677.307 -3.81296 -3.20184 0
M  V30 7415 C 676.01 -6.33814 -3.40106 0
M  V30 7416 C 678.036 -4.99965 -3.15895 0
M  V30 7417 C 677.398 -6.24637 -3.25589 0
M  V30 7418 H 673.497 -0.377857 -0.684652 0
M  V30 7419 H 676.081 -1.42791 -1.32358 0
M  V30 7420 H 674.252 -0.879026 -3.78322 0
M  V30 7421 H 675.984 -1.10011 -3.89461 0
M  V30 7422 H 672.739 -3.09533 -3.5845 0
M  V30 7423 H 673.163 -5.71606 -3.62762 0
M  V30 7424 H 677.805 -2.85806 -3.11569 0
M  V30 7425 H 675.523 -7.29574 -3.47487 0
M  V30 7426 H 679.109 -4.95847 -3.04347 0
M  V30 7427 H 677.989 -7.14921 -3.22269 0
M  V30 7428 N 675.492 1.28418 -0.913599 0
M  V30 7429 C 676.74 1.94596 -0.545594 0
M  V30 7430 C 677.061 1.7227 0.913668 0
M  V30 7431 O 676.331 1.06233 1.64595 0
M  V30 7432 H 674.911 0.720065 -0.198783 0
M  V30 7433 H 677.573 1.56404 -1.16292 0
M  V30 7434 H 676.669 3.03202 -0.739911 0
M  V30 7435 N 676.97 0.677563 1.42291 0
M  V30 7436 C 678.216 0.201272 2.01799 0
M  V30 7437 C 678.549 -1.19004 1.53465 0
M  V30 7438 O 677.824 -1.79953 0.738039 0
M  V30 7439 C 678.107 0.238968 3.59306 0
M  V30 7440 C 677.96 1.66594 4.17812 0
M  V30 7441 C 679.279 -0.411287 4.38174 0
M  V30 7442 H 676.398 0.0746114 0.733214 0
M  V30 7443 H 679.04 0.862872 1.69276 0
M  V30 7444 H 677.19 -0.324368 3.87144 0
M  V30 7445 H 678.862 2.28173 4.00917 0
M  V30 7446 H 677.105 2.20576 3.73536 0
M  V30 7447 H 677.776 1.64398 5.26951 0
M  V30 7448 H 680.252 0.0682804 4.16044 0
M  V30 7449 H 679.128 -0.354286 5.47755 0
M  V30 7450 H 679.389 -1.4893 4.1626 0
M  V30 7451 N 678.448 -1.51871 0.421078 0
M  V30 7452 C 679.864 -1.59435 0.0725398 0
M  V30 7453 C 680.064 -1.43315 -1.41644 0
M  V30 7454 O 679.12 -1.26614 -2.18461 0
M  V30 7455 C 680.433 -2.9509 0.578132 0
M  V30 7456 C 681.981 -3.08356 0.537149 0
M  V30 7457 C 682.456 -4.4651 1.01945 0
M  V30 7458 N 683.947 -4.52784 0.976758 0
M  V30 7459 C 684.682 -5.57976 1.32099 0
M  V30 7460 N 684.178 -6.70664 1.73727 0
M  V30 7461 N 685.971 -5.48248 1.2402 0
M  V30 7462 H 678.122 -1.60595 1.39007 0
M  V30 7463 H 680.385 -0.756138 0.571803 0
M  V30 7464 H 680.091 -3.12205 1.61929 0
M  V30 7465 H 679.965 -3.772 -0.00578374 0
M  V30 7466 H 682.352 -2.90919 -0.494991 0
M  V30 7467 H 682.433 -2.28125 1.15727 0
M  V30 7468 H 682.077 -4.64692 2.04997 0
M  V30 7469 H 682.007 -5.25256 0.376023 0
M  V30 7470 H 684.498 -3.71898 0.670851 0
M  V30 7471 H 684.811 -7.46932 1.98274 0
M  V30 7472 H 683.156 -6.71914 1.77641 0
M  V30 7473 H 686.347 -4.59095 0.913756 0
M  V30 7474 H 686.52 -6.30119 1.51176 0
M  V30 7475 N 679.926 -0.151884 -1.56866 0
M  V30 7476 C 680.858 0.817008 -2.14144 0
M  V30 7477 C 681.871 1.20735 -1.0921 0
M  V30 7478 O 683.06 1.15058 -1.36469 0
M  V30 7479 C 680.16 2.10844 -2.65326 0
M  V30 7480 C 679.333 1.88471 -3.94712 0
M  V30 7481 C 678.392 3.01649 -4.31155 0
M  V30 7482 O 677.418 2.73127 -4.9939 0
M  V30 7483 N 678.62 4.28947 -3.91132 0
M  V30 7484 H 681.385 0.327448 -2.97906 0
M  V30 7485 H 678.946 0.0315313 -1.61869 0
M  V30 7486 H 680.938 2.85616 -2.86715 0
M  V30 7487 H 679.508 2.51049 -1.86262 0
M  V30 7488 H 678.728 0.977088 -3.81899 0
M  V30 7489 H 680.016 1.70866 -4.79252 0
M  V30 7490 H 679.414 4.54986 -3.36161 0
M  V30 7491 H 677.971 5.00484 -4.17563 0
M  V30 7492 N 681.404 1.57128 0.121893 0
M  V30 7493 C 682.644 1.86517 0.836113 0
M  V30 7494 C 683.008 0.739497 1.77188 0
M  V30 7495 O 684.209 0.91508 2.52744 0
M  V30 7496 C 682.48 3.21129 1.56878 0
M  V30 7497 S 684.039 3.72143 2.32497 0
M  V30 7498 H 680.857 0.653923 0.279115 0
M  V30 7499 H 683.459 1.95271 0.0946254 0
M  V30 7500 H 682.163 4.01002 0.873255 0
M  V30 7501 H 681.694 3.15446 2.35069 0
M  V30 7502 H 683.709 3.43413 3.58164 0
M  V30 7503 N 682.882 -0.391992 1.52647 0
M  V30 7504 C 683.812 -1.48517 1.8018 0
M  V30 7505 C 684.793 -1.57039 0.653667 0
M  V30 7506 O 685.978 -1.72036 0.900962 0
M  V30 7507 C 683.108 -2.86161 1.96797 0
M  V30 7508 C 682.062 -2.92481 3.12472 0
M  V30 7509 C 681.388 -4.32546 3.14338 0
M  V30 7510 C 682.688 -2.624 4.51601 0
M  V30 7511 H 684.382 -1.25726 2.71723 0
M  V30 7512 H 681.928 -0.603387 1.30749 0
M  V30 7513 H 683.881 -3.62639 2.14641 0
M  V30 7514 H 682.605 -3.10283 1.01941 0
M  V30 7515 H 681.264 -2.18451 2.94406 0
M  V30 7516 H 680.912 -4.53703 2.1717 0
M  V30 7517 H 680.612 -4.37695 3.92042 0
M  V30 7518 H 682.136 -5.10934 3.34333 0
M  V30 7519 H 683.55 -3.28596 4.69785 0
M  V30 7520 H 681.947 -2.78903 5.3135 0
M  V30 7521 H 683.017 -1.57754 4.58521 0
M  V30 7522 N 684.36 -1.4356 -0.65026 0
M  V30 7523 C 685.608 -1.45046 -1.40734 0
M  V30 7524 C 685.929 -0.0769822 -1.94848 0
M  V30 7525 O 685.199 0.888098 -1.74613 0
M  V30 7526 H 683.779 -0.534034 -0.522318 0
M  V30 7527 H 686.441 -1.79186 -0.766703 0
M  V30 7528 H 685.537 -2.16476 -2.24822 0
M  V30 7529 N 685.838 0.888903 -1.30139 0
M  V30 7530 C 687.254 1.17153 -1.08385 0
M  V30 7531 C 687.454 2.0088 0.157925 0
M  V30 7532 O 686.51 2.37668 0.852652 0
M  V30 7533 C 687.823 1.882 -2.34523 0
M  V30 7534 C 689.371 2.00981 -2.39949 0
M  V30 7535 C 689.846 2.75441 -3.65918 0
M  V30 7536 N 691.337 2.82989 -3.66704 0
M  V30 7537 C 692.072 3.41167 -4.60861 0
M  V30 7538 N 691.568 4.00425 -5.6536 0
M  V30 7539 N 693.361 3.38944 -4.48412 0
M  V30 7540 H 685.512 0.33053 -2.09812 0
M  V30 7541 H 687.775 0.208964 -0.924683 0
M  V30 7542 H 687.481 1.34119 -3.25123 0
M  V30 7543 H 687.355 2.88609 -2.42868 0
M  V30 7544 H 689.742 2.54234 -1.4983 0
M  V30 7545 H 689.823 0.996725 -2.35582 0
M  V30 7546 H 689.467 2.22861 -4.56394 0
M  V30 7547 H 689.397 3.77118 -3.67546 0
M  V30 7548 H 691.888 2.40912 -2.91153 0
M  V30 7549 H 692.201 4.42871 -6.33313 0
M  V30 7550 H 690.546 3.98856 -5.69157 0
M  V30 7551 H 693.737 2.91875 -3.6596 0
M  V30 7552 H 693.91 3.83989 -5.21974 0
M  V30 7553 N 687.317 1.12792 1.10072 0
M  V30 7554 C 688.733 0.864745 1.34143 0
M  V30 7555 C 688.933 -0.503201 1.95116 0
M  V30 7556 O 687.989 -1.25111 2.19325 0
M  V30 7557 C 689.302 1.98413 2.25949 0
M  V30 7558 C 690.85 2.01545 2.39476 0
M  V30 7559 C 691.325 3.12727 3.34613 0
M  V30 7560 N 692.816 3.12194 3.42183 0
M  V30 7561 C 693.551 3.94862 4.15779 0
M  V30 7562 N 693.047 4.87528 4.92228 0
M  V30 7563 N 694.84 3.82985 4.11435 0
M  V30 7564 H 686.991 2.00926 0.68866 0
M  V30 7565 H 689.254 0.874564 0.365844 0
M  V30 7566 H 688.96 2.97005 1.88364 0
M  V30 7567 H 688.834 1.89254 3.26287 0
M  V30 7568 H 691.221 1.0357 2.76328 0
M  V30 7569 H 691.302 2.14777 1.3894 0
M  V30 7570 H 690.946 4.10936 2.98486 0
M  V30 7571 H 690.876 2.96732 4.35037 0
M  V30 7572 H 693.367 2.45065 2.87666 0
M  V30 7573 H 693.68 5.47109 5.45794 0
M  V30 7574 H 692.025 4.91539 4.9134 0
M  V30 7575 H 695.216 3.09923 3.50807 0
M  V30 7576 H 695.389 4.47641 4.68531 0
M  V30 7577 N 688.795 -1.27931 0.920396 0
M  V30 7578 C 690.044 -1.93975 0.552867 0
M  V30 7579 C 690.357 -1.73193 -0.909035 0
M  V30 7580 O 691.563 -2.33515 -1.38502 0
M  V30 7581 C 690.019 -3.47463 0.937947 0
M  V30 7582 C 689.627 -3.77013 2.42003 0
M  V30 7583 C 691.371 -4.19628 0.64132 0
M  V30 7584 C 689.278 -5.23841 2.74489 0
M  V30 7585 H 688.208 -0.726146 0.203046 0
M  V30 7586 H 690.859 -1.45339 1.12022 0
M  V30 7587 H 689.241 -3.94867 0.299317 0
M  V30 7588 H 690.415 -3.40393 3.10595 0
M  V30 7589 H 688.73 -3.18035 2.6878 0
M  V30 7590 H 691.327 -5.27729 0.860622 0
M  V30 7591 H 691.67 -4.14164 -0.421168 0
M  V30 7592 H 692.203 -3.78022 1.23872 0
M  V30 7593 H 688.942 -5.34388 3.79618 0
M  V30 7594 H 688.462 -5.61634 2.1054 0
M  V30 7595 H 690.141 -5.91647 2.61845 0
M  V30 7596 N 690.273 -0.685099 -1.4193 0
M  V30 7597 C 691.236 -0.0222632 -2.29189 0
M  V30 7598 C 692.236 0.7186 -1.4385 0
M  V30 7599 O 693.426 0.555058 -1.6512 0
M  V30 7600 C 690.558 0.979013 -3.2654 0
M  V30 7601 H 691.751 -0.790424 -2.89296 0
M  V30 7602 H 689.304 -0.448012 -1.49742 0
M  V30 7603 H 690.039 1.77531 -2.71392 0
M  V30 7604 H 689.824 0.451037 -3.89497 0
M  V30 7605 H 691.314 1.44091 -3.91954 0
M  V30 7606 N 691.751 1.51645 -0.429126 0
M  V30 7607 C 692.661 2.31288 0.392809 0
M  V30 7608 C 693.677 1.39852 1.03525 0
M  V30 7609 O 694.853 1.72926 1.03241 0
M  V30 7610 C 691.918 3.13347 1.48372 0
M  V30 7611 C 690.979 4.20551 0.862268 0
M  V30 7612 C 690.212 4.98688 1.9012 0
M  V30 7613 O 690.435 4.77359 3.12225 0
M  V30 7614 O 689.369 5.83005 1.4963 0
M  V30 7615 H 693.195 3.02609 -0.257138 0
M  V30 7616 H 690.78 1.48163 -0.191851 0
M  V30 7617 H 692.662 3.64387 2.1166 0
M  V30 7618 H 691.337 2.44799 2.1179 0
M  V30 7619 H 690.244 3.73609 0.191568 0
M  V30 7620 H 691.577 4.91449 0.271704 0
M  V30 7621 N 693.229 0.160201 1.56784 0
M  V30 7622 C 694.159 -0.770264 2.2043 0
M  V30 7623 C 695.14 -1.24736 1.15651 0
M  V30 7624 O 696.325 -1.30253 1.44041 0
M  V30 7625 C 693.455 -2.00427 2.83631 0
M  V30 7626 C 692.409 -1.66345 3.94352 0
M  V30 7627 C 691.735 -2.97119 4.4455 0
M  V30 7628 C 693.035 -0.899972 5.14488 0
M  V30 7629 H 694.729 -0.239783 2.98438 0
M  V30 7630 H 692.275 -0.113891 1.43549 0
M  V30 7631 H 694.228 -2.66012 3.26827 0
M  V30 7632 H 692.952 -2.5587 2.02973 0
M  V30 7633 H 691.611 -1.03133 3.51794 0
M  V30 7634 H 691.259 -3.5058 3.60698 0
M  V30 7635 H 690.959 -2.75073 5.19238 0
M  V30 7636 H 692.483 -3.63753 4.90425 0
M  V30 7637 H 693.897 -1.45818 5.54446 0
M  V30 7638 H 692.294 -0.778968 5.95023 0
M  V30 7639 H 693.364 0.105827 4.84785 0
M  V30 7640 N 694.707 -1.5719 -0.113559 0
M  V30 7641 C 695.617 -2.04041 -1.15777 0
M  V30 7642 C 696.633 -0.961812 -1.45001 0
M  V30 7643 O 697.809 -1.2737 -1.56009 0
M  V30 7644 C 694.874 -2.43994 -2.46308 0
M  V30 7645 C 693.935 -3.65962 -2.24433 0
M  V30 7646 C 693.168 -4.04 -3.4874 0
M  V30 7647 O 693.391 -3.42321 -4.56259 0
M  V30 7648 O 692.325 -4.97069 -3.3942 0
M  V30 7649 H 696.151 -2.93248 -0.789899 0
M  V30 7650 H 693.736 -1.45828 -0.324748 0
M  V30 7651 H 695.618 -2.70401 -3.23204 0
M  V30 7652 H 694.293 -1.57932 -2.82558 0
M  V30 7653 H 693.2 -3.44697 -1.45377 0
M  V30 7654 H 694.533 -4.52746 -1.93084 0
M  V30 7655 N 696.185 0.383891 -1.52853 0
M  V30 7656 C 697.118 1.49105 -1.72751 0
M  V30 7657 C 698.096 1.52077 -0.575438 0
M  V30 7658 O 699.28 1.70406 -0.805854 0
M  V30 7659 C 696.407 2.87551 -1.78975 0
M  V30 7660 C 695.453 3.02383 -3.00777 0
M  V30 7661 S 696.286 2.73048 -4.60657 0
M  V30 7662 C 697.442 4.13678 -4.69704 0
M  V30 7663 H 697.675 1.32002 -2.66388 0
M  V30 7664 H 695.208 0.577088 -1.4321 0
M  V30 7665 H 697.166 3.6733 -1.83246 0
M  V30 7666 H 695.827 3.01977 -0.864215 0
M  V30 7667 H 695.02 4.03733 -3.01688 0
M  V30 7668 H 694.622 2.30504 -2.94523 0
M  V30 7669 H 696.914 5.07676 -4.48633 0
M  V30 7670 H 697.857 4.1778 -5.71721 0
M  V30 7671 H 698.265 3.99825 -3.98497 0
M  V30 7672 N 697.663 1.43903 0.642637 0
M  V30 7673 C 698.891 1.4954 1.42988 0
M  V30 7674 C 699.306 0.116588 1.8844 0
M  V30 7675 O 698.663 -0.875285 1.60141 0
M  V30 7676 C 698.714 2.45031 2.65785 0
M  V30 7677 O 698.435 3.77551 2.22232 0
M  V30 7678 C 699.936 2.60017 3.59035 0
M  V30 7679 H 697.156 0.507544 0.438907 0
M  V30 7680 H 699.7 1.88752 0.786942 0
M  V30 7681 H 697.855 2.08985 3.26196 0
M  V30 7682 H 698.269 4.29001 3.01759 0
M  V30 7683 H 699.743 3.30887 4.41835 0
M  V30 7684 H 700.22 1.64861 4.07084 0
M  V30 7685 H 700.826 2.96918 3.045 0
M  V30 7686 N 699.141 -0.881989 1.30609 0
M  V30 7687 C 700.39 -1.62878 1.18969 0
M  V30 7688 C 700.703 -1.93946 -0.253859 0
M  V30 7689 O 701.909 -2.67008 -0.491813 0
M  V30 7690 C 700.365 -2.93573 2.0819 0
M  V30 7691 C 699.973 -2.70034 3.57471 0
M  V30 7692 C 701.717 -3.71543 2.0532 0
M  V30 7693 C 699.624 -3.96563 4.38739 0
M  V30 7694 H 698.554 -0.611092 0.441682 0
M  V30 7695 H 701.205 -0.976201 1.55379 0
M  V30 7696 H 699.587 -3.6014 1.64666 0
M  V30 7697 H 700.761 -2.11949 4.09163 0
M  V30 7698 H 699.076 -2.05435 3.62195 0
M  V30 7699 H 701.673 -4.65386 2.63288 0
M  V30 7700 H 702.016 -4.03167 1.03739 0
M  V30 7701 H 702.549 -3.11842 2.46981 0
M  V30 7702 H 699.288 -3.70095 5.41027 0
M  V30 7703 H 698.808 -4.54142 3.9181 0
M  V30 7704 H 700.487 -4.64557 4.50329 0
M  V30 7705 N 700.619 -1.13374 -1.09472 0
M  V30 7706 C 701.866 -0.89519 -1.81639 0
M  V30 7707 C 702.194 0.57868 -1.85692 0
M  V30 7708 O 701.449 1.44426 -1.32059 0
M  V30 7709 C 701.748 -1.42759 -3.2765 0
M  V30 7710 C 701.414 -2.91822 -3.43731 0
M  V30 7711 C 700.076 -3.32521 -3.47827 0
M  V30 7712 C 702.428 -3.87727 -3.48307 0
M  V30 7713 C 699.756 -4.6781 -3.54078 0
M  V30 7714 C 702.108 -5.22859 -3.56091 0
M  V30 7715 C 700.772 -5.63086 -3.58456 0
M  V30 7716 H 700.042 -0.327573 -0.664663 0
M  V30 7717 H 702.689 -1.4156 -1.28969 0
M  V30 7718 H 700.994 -0.827871 -3.82954 0
M  V30 7719 H 702.691 -1.2191 -3.8202 0
M  V30 7720 H 699.281 -2.5935 -3.41226 0
M  V30 7721 H 703.465 -3.57371 -3.44383 0
M  V30 7722 H 698.721 -4.98353 -3.54195 0
M  V30 7723 H 702.895 -5.96989 -3.58577 0
M  V30 7724 H 700.522 -6.67905 -3.63052 0
M  V30 7725 N 702.098 1.27442 -0.927168 0
M  V30 7726 C 703.028 2.29256 -0.443188 0
M  V30 7727 C 704.009 1.62701 0.49624 0
M  V30 7728 O 705.194 1.90013 0.401105 0
M  V30 7729 C 702.324 3.45955 0.305366 0
M  V30 7730 C 701.278 4.24501 -0.546178 0
M  V30 7731 C 700.604 5.33671 0.331512 0
M  V30 7732 C 701.904 4.89921 -1.81037 0
M  V30 7733 H 703.598 2.69988 -1.29409 0
M  V30 7734 H 701.144 1.29792 -0.623705 0
M  V30 7735 H 703.097 4.1628 0.654885 0
M  V30 7736 H 701.821 3.04138 1.19029 0
M  V30 7737 H 700.48 3.55921 -0.878398 0
M  V30 7738 H 700.128 4.88096 1.21537 0
M  V30 7739 H 699.828 5.87131 -0.234746 0
M  V30 7740 H 701.352 6.0684 0.676614 0
M  V30 7741 H 702.766 5.52536 -1.52895 0
M  V30 7742 H 701.163 5.53436 -2.32009 0
M  V30 7743 H 702.233 4.13652 -2.53021 0
M  V30 7744 N 703.576 0.692616 1.41565 0
M  V30 7745 C 704.825 0.219452 2.00503 0
M  V30 7746 C 705.138 -1.18683 1.55479 0
M  V30 7747 O 706.344 -1.75731 2.06956 0
M  V30 7748 C 704.8 0.341451 3.58277 0
M  V30 7749 C 704.408 1.75291 4.12283 0
M  V30 7750 C 706.152 -0.0720899 4.24439 0
M  V30 7751 C 704.059 1.82673 5.62481 0
M  V30 7752 H 702.989 0.0782874 0.749925 0
M  V30 7753 H 705.64 0.860386 1.62079 0
M  V30 7754 H 704.022 -0.367683 3.94289 0
M  V30 7755 H 705.196 2.49057 3.87695 0
M  V30 7756 H 703.511 2.11587 3.58636 0
M  V30 7757 H 706.108 -0.0373385 5.34687 0
M  V30 7758 H 706.451 -1.11034 4.0122 0
M  V30 7759 H 706.984 0.586663 3.9345 0
M  V30 7760 H 703.723 2.84539 5.90523 0
M  V30 7761 H 703.243 1.13288 5.89004 0
M  V30 7762 H 704.922 1.58827 6.27203 0
M  V30 7763 N 705.054 -1.51416 0.437162 0
M  V30 7764 C 706.002 -2.29328 -0.388765 0
M  V30 7765 C 706.996 -1.35171 -1.02104 0
M  V30 7766 O 708.202 -1.52513 -0.956024 0
M  V30 7767 H 704.577 -0.738048 -0.144183 0
M  V30 7768 H 706.548 -2.96995 0.289212 0
M  V30 7769 C 705.297 -3.14741 -1.47761 0
M  V30 7770 H 704.62 -3.8708 -1.00045 0
M  V30 7771 H 706.06 -3.72313 -2.02877 0
M  V30 7772 C 704.519 -2.30105 -2.46076 0
M  V30 7773 O 705.049 -1.96055 -3.50607 0
M  V30 7774 N 703.255 -1.93331 -2.1696 0
M  V30 7775 H 702.802 -2.2122 -1.31983 0
M  V30 7776 H 702.76 -1.36999 -2.82982 0
M  V30 7777 N 706.532 -0.168513 -1.56696 0
M  V30 7778 C 707.465 0.801477 -2.13662 0
M  V30 7779 C 708.443 1.22786 -1.06594 0
M  V30 7780 O 709.627 1.32014 -1.34554 0
M  V30 7781 C 706.754 2.07896 -2.6739 0
M  V30 7782 C 705.8 1.79681 -3.86803 0
M  V30 7783 S 706.633 0.968556 -5.26668 0
M  V30 7784 C 707.789 2.25676 -5.83799 0
M  V30 7785 H 708.022 0.317121 -2.95604 0
M  V30 7786 H 705.555 0.0461132 -1.54331 0
M  V30 7787 H 707.513 2.81272 -2.98992 0
M  V30 7788 H 706.174 2.53445 -1.85539 0
M  V30 7789 H 705.367 2.74461 -4.22714 0
M  V30 7790 H 704.969 1.14402 -3.56073 0
M  V30 7791 H 707.261 3.2116 -5.96542 0
M  V30 7792 H 708.204 1.94238 -6.80939 0
M  V30 7793 H 708.612 2.37308 -5.12197 0
M  V30 7794 N 708.01 1.57248 0.105221 0
M  V30 7795 C 708.94 2.04374 1.12931 0
M  V30 7796 C 709.921 0.93074 1.42377 0
M  V30 7797 O 711.106 1.20136 1.52581 0
M  V30 7798 C 708.236 2.45967 2.45189 0
M  V30 7799 C 707.19 3.60838 2.30174 0
M  V30 7800 C 706.516 3.88374 3.67518 0
M  V30 7801 C 707.816 4.92084 1.75073 0
M  V30 7802 H 709.51 2.9018 0.737287 0
M  V30 7803 H 707.056 1.39601 0.353211 0
M  V30 7804 H 709.009 2.77542 3.17094 0
M  V30 7805 H 707.733 1.57148 2.86308 0
M  V30 7806 H 706.392 3.29493 1.60716 0
M  V30 7807 H 706.04 2.96739 4.06147 0
M  V30 7808 H 705.74 4.65703 3.58321 0
M  V30 7809 H 707.264 4.22415 4.40906 0
M  V30 7810 H 708.678 5.22106 2.36809 0
M  V30 7811 H 707.075 5.73507 1.76662 0
M  V30 7812 H 708.145 4.79684 0.709347 0
M  V30 7813 N 709.488 -0.375779 1.53054 0
M  V30 7814 C 710.398 -1.48381 1.81715 0
M  V30 7815 C 711.414 -1.59087 0.704795 0
M  V30 7816 O 712.59 -1.75174 0.993785 0
M  V30 7817 C 709.655 -2.83767 1.99192 0
M  V30 7818 C 708.716 -2.82673 3.23102 0
M  V30 7819 C 707.949 -4.11601 3.39736 0
M  V30 7820 O 708.172 -5.07243 2.60885 0
M  V30 7821 O 707.106 -4.18034 4.33049 0
M  V30 7822 H 710.932 -1.27089 2.7583 0
M  V30 7823 H 708.517 -0.564902 1.38308 0
M  V30 7824 H 710.399 -3.64004 2.12318 0
M  V30 7825 H 709.074 -3.05057 1.08267 0
M  V30 7826 H 707.981 -2.0117 3.15407 0
M  V30 7827 H 709.314 -2.66335 4.13916 0
M  V30 7828 N 710.966 -1.44241 -0.634997 0
M  V30 7829 C 711.914 -1.51103 -1.76835 0
M  V30 7830 C 712.908 -0.383051 -1.65012 0
M  V30 7831 O 714.114 -0.557832 -1.71138 0
M  V30 7832 H 710.489 -0.474076 -0.583743 0
M  V30 7833 H 712.46 -2.46499 -1.68169 0
M  V30 7834 C 711.209 -1.4687 -3.15158 0
M  V30 7835 H 710.532 -2.32979 -3.24901 0
M  V30 7836 H 711.972 -1.55731 -3.94365 0
M  V30 7837 C 710.431 -0.188884 -3.3637 0
M  V30 7838 O 710.961 0.742487 -3.94778 0
M  V30 7839 N 709.167 -0.0932516 -2.9045 0
M  V30 7840 H 708.714 -0.852004 -2.43102 0
M  V30 7841 H 708.672 0.762308 -3.05018 0
M  V30 7842 N 712.444 0.87505 -1.31075 0
M  V30 7843 C 713.691 1.62768 -1.20469 0
M  V30 7844 C 714.019 1.93034 0.23834 0
M  V30 7845 O 713.274 1.55693 1.18567 0
M  V30 7846 C 713.573 2.96948 -1.98888 0
M  V30 7847 C 713.239 2.86195 -3.4843 0
M  V30 7848 C 711.901 2.82969 -3.89207 0
M  V30 7849 C 714.253 2.73599 -4.43614 0
M  V30 7850 C 711.581 2.64999 -5.23443 0
M  V30 7851 C 713.933 2.57166 -5.77969 0
M  V30 7852 C 712.597 2.52321 -6.17973 0
M  V30 7853 H 711.867 0.595611 -0.440827 0
M  V30 7854 H 714.514 1.01665 -1.62285 0
M  V30 7855 H 712.819 3.62058 -1.49737 0
M  V30 7856 H 714.516 3.54164 -1.88067 0
M  V30 7857 H 711.106 2.8952 -3.16032 0
M  V30 7858 H 715.29 2.7515 -4.13045 0
M  V30 7859 H 710.546 2.5967 -5.53517 0
M  V30 7860 H 714.72 2.46396 -6.51354 0
M  V30 7861 H 712.347 2.38156 -7.21932 0
M  V30 7862 N 713.922 1.13953 1.08869 0
M  V30 7863 C 715.338 0.878924 1.33218 0
M  V30 7864 C 715.538 -0.482478 1.95638 0
M  V30 7865 O 714.594 -1.22778 2.2064 0
M  V30 7866 C 715.907 2.00798 2.23832 0
M  V30 7867 C 717.455 2.04073 2.37325 0
M  V30 7868 C 717.93 3.16258 3.31278 0
M  V30 7869 N 719.421 3.15805 3.38853 0
M  V30 7870 C 720.156 3.99249 4.11567 0
M  V30 7871 N 719.652 4.92721 4.87029 0
M  V30 7872 N 721.445 3.87327 4.0735 0
M  V30 7873 H 713.596 2.01645 0.66731 0
M  V30 7874 H 715.859 0.878395 0.356547 0
M  V30 7875 H 715.565 2.98986 1.85203 0
M  V30 7876 H 715.439 1.92704 3.24261 0
M  V30 7877 H 717.826 1.06495 2.75214 0
M  V30 7878 H 717.907 2.16239 1.36654 0
M  V30 7879 H 717.551 4.14079 2.9411 0
M  V30 7880 H 717.481 3.0133 4.31866 0
M  V30 7881 H 719.972 2.48102 2.8505 0
M  V30 7882 H 720.285 5.52867 5.39961 0
M  V30 7883 H 718.63 4.96723 4.86098 0
M  V30 7884 H 721.821 3.13627 3.475 0
M  V30 7885 H 721.994 4.52585 4.63757 0
M  V30 7886 N 715.4 -1.26948 0.933913 0
M  V30 7887 C 716.646 -1.94374 0.57848 0
M  V30 7888 C 716.979 -1.73166 -0.879048 0
M  V30 7889 O 716.254 -1.06438 -1.62792 0
M  V30 7890 C 716.537 -3.4834 0.912739 0
M  V30 7891 C 716.39 -3.78866 2.42448 0
M  V30 7892 C 717.709 -4.38062 0.423003 0
M  V30 7893 H 714.828 -0.705959 0.211639 0
M  V30 7894 H 717.47 -1.49951 1.16682 0
M  V30 7895 H 715.62 -3.86309 0.412058 0
M  V30 7896 H 717.292 -3.50654 2.99733 0
M  V30 7897 H 715.535 -3.25198 2.87104 0
M  V30 7898 H 716.206 -4.86458 2.60887 0
M  V30 7899 H 718.682 -4.0728 0.852191 0
M  V30 7900 H 717.558 -5.44599 0.685776 0
M  V30 7901 H 717.819 -4.36886 -0.676994 0
M  V30 7902 N 716.879 -0.700114 -1.41195 0
M  V30 7903 C 717.789 -0.0382854 -2.34569 0
M  V30 7904 C 718.805 0.761036 -1.56474 0
M  V30 7905 O 719.981 0.697553 -1.88934 0
M  V30 7906 C 717.046 0.883522 -3.35253 0
M  V30 7907 C 716.107 0.0758957 -4.29233 0
M  V30 7908 C 715.34 0.9538 -5.25108 0
M  V30 7909 O 715.563 2.19326 -5.26547 0
M  V30 7910 O 714.497 0.401049 -6.00562 0
M  V30 7911 H 718.323 -0.808073 -2.92752 0
M  V30 7912 H 715.908 -0.460479 -1.42127 0
M  V30 7913 H 717.79 1.41199 -3.9704 0
M  V30 7914 H 716.465 1.63272 -2.79506 0
M  V30 7915 H 715.372 -0.497274 -3.7078 0
M  V30 7916 H 716.705 -0.634741 -4.8809 0
M  V30 7917 N 718.357 1.51182 -0.445186 0
M  V30 7918 C 719.606 2.01342 0.120189 0
M  V30 7919 C 719.919 1.33353 1.43095 0
M  V30 7920 O 721.125 1.74525 2.07974 0
M  V30 7921 C 719.581 3.58925 0.264732 0
M  V30 7922 C 719.189 4.35855 -1.03606 0
M  V30 7923 C 720.933 4.17208 0.783455 0
M  V30 7924 C 718.84 5.85162 -0.856731 0
M  V30 7925 H 717.77 0.752426 0.0486922 0
M  V30 7926 H 720.421 1.74221 -0.576143 0
M  V30 7927 H 718.803 3.82525 1.02425 0
M  V30 7928 H 719.977 4.23997 -1.80452 0
M  V30 7929 H 718.292 3.89062 -1.48391 0
M  V30 7930 H 720.889 5.26475 0.934239 0
M  V30 7931 H 721.232 3.76892 1.768 0
M  V30 7932 H 721.765 3.97715 0.0820346 0
M  V30 7933 H 718.504 6.29904 -1.81388 0
M  V30 7934 H 718.024 5.99663 -0.128206 0
M  V30 7935 H 719.703 6.44963 -0.513027 0
M  V30 7936 N 719.835 0.176821 1.56605 0
M  V30 7937 C 720.767 -0.782836 2.15417 0
M  V30 7938 C 721.78 -1.18982 1.11117 0
M  V30 7939 O 722.969 -1.12872 1.38283 0
M  V30 7940 C 720.069 -2.06596 2.68647 0
M  V30 7941 C 719.242 -1.82167 3.9766 0
M  V30 7942 C 718.301 -2.94751 4.35899 0
M  V30 7943 O 717.327 -2.65148 5.03672 0
M  V30 7944 N 718.529 -4.2267 3.97907 0
M  V30 7945 H 721.294 -0.280012 2.98389 0
M  V30 7946 H 718.855 -0.00577529 1.61899 0
M  V30 7947 H 720.847 -2.81018 2.91223 0
M  V30 7948 H 719.417 -2.48054 1.90232 0
M  V30 7949 H 718.637 -0.916208 3.83405 0
M  V30 7950 H 719.925 -1.6322 4.81909 0
M  V30 7951 H 719.323 -4.4958 3.43357 0
M  V30 7952 H 717.88 -4.93778 4.25472 0
M  V30 7953 N 721.313 -1.57302 -0.09688 0
M  V30 7954 C 722.263 -1.98369 -1.12399 0
M  V30 7955 C 723.247 -0.861872 -1.3587 0
M  V30 7956 O 724.439 -1.1257 -1.36591 0
M  V30 7957 C 721.568 -2.41017 -2.4447 0
M  V30 7958 C 720.654 -3.59881 -2.24381 0
M  V30 7959 N 721.045 -4.74872 -1.74155 0
M  V30 7960 C 719.343 -3.65943 -2.54954 0
M  V30 7961 C 720.044 -5.56823 -1.68294 0
M  V30 7962 N 719.02 -4.99942 -2.13444 0
M  V30 7963 H 722.822 -2.84726 -0.728575 0
M  V30 7964 H 720.336 -1.59523 -0.304332 0
M  V30 7965 H 722.333 -2.68665 -3.18786 0
M  V30 7966 H 720.993 -1.56036 -2.84751 0
M  V30 7967 H 722.004 -4.97657 -1.43379 0
M  V30 7968 H 718.681 -2.9162 -2.98771 0
M  V30 7969 H 720.071 -6.59099 -1.30528 0
M  V30 7970 N 722.791 0.367657 -1.53252 0
M  V30 7971 C 723.721 1.45632 -1.8252 0
M  V30 7972 C 724.702 1.55979 -0.678568 0
M  V30 7973 O 725.887 1.70581 -0.928217 0
M  V30 7974 C 723.017 2.82994 -2.01325 0
M  V30 7975 C 721.971 2.87473 -3.17086 0
M  V30 7976 C 721.297 4.2749 -3.21179 0
M  V30 7977 C 722.597 2.55182 -4.55719 0
M  V30 7978 H 724.291 1.21387 -2.73689 0
M  V30 7979 H 721.837 0.58251 -1.31692 0
M  V30 7980 H 723.79 3.59179 -2.20383 0
M  V30 7981 H 722.514 3.08622 -1.06864 0
M  V30 7982 H 721.173 2.13739 -2.97844 0
M  V30 7983 H 720.821 4.5019 -2.24361 0
M  V30 7984 H 720.521 4.31403 -3.98955 0
M  V30 7985 H 722.045 5.0555 -3.42419 0
M  V30 7986 H 723.459 3.21081 -4.74953 0
M  V30 7987 H 721.856 2.70414 -5.3572 0
M  V30 7988 H 722.926 1.5044 -4.60973 0
M  V30 7989 N 724.269 1.44576 0.627338 0
M  V30 7990 C 725.494 1.51271 1.41887 0
M  V30 7991 C 725.919 0.139814 1.8758 0
M  V30 7992 O 725.277 -0.871746 1.58966 0
M  V30 7993 C 725.325 2.48529 2.61277 0
M  V30 7994 O 724.429 1.98944 3.61241 0
M  V30 7995 H 723.77 0.510668 0.424399 0
M  V30 7996 H 726.3 1.89746 0.765356 0
M  V30 7997 H 726.31 2.66689 3.08773 0
M  V30 7998 H 724.985 3.48249 2.27366 0
M  V30 7999 H 723.562 1.90568 3.20528 0
M  V30 8000 N 725.747 -0.868086 1.31537 0
M  V30 8001 C 727.024 -1.60384 1.11965 0
M  V30 8002 C 727.404 -2.08584 -0.324949 0
M  V30 8003 O 726.752 -1.86561 -1.31937 0
M  V30 8004 C 726.962 -2.76038 2.13551 0
M  V30 8005 C 728.31 -3.45954 2.46173 0
M  V30 8006 O 729.334 -2.86247 2.11993 0
M  V30 8007 O 728.193 -4.53666 3.04711 0
M  V30 8008 H 725.287 -0.705705 0.431172 0
M  V30 8009 H 727.833 -0.913385 1.43022 0
M  V30 8010 H 726.605 -2.37849 3.10714 0
M  V30 8011 H 726.228 -3.52769 1.83411 0
M  V30 8012 N 727.225 -1.14528 -1.08264 0
M  V30 8013 C 728.471 -0.91576 -1.80947 0
M  V30 8014 C 728.804 0.55623 -1.86064 0
M  V30 8015 O 728.079 1.41207 -1.33756 0
M  V30 8016 C 728.362 -1.51917 -3.26486 0
M  V30 8017 C 728.215 -3.06111 -3.2957 0
M  V30 8018 C 729.534 -1.19724 -4.23502 0
M  V30 8019 H 726.653 -0.334113 -0.656915 0
M  V30 8020 H 729.295 -1.41547 -1.26746 0
M  V30 8021 H 727.445 -1.0942 -3.72773 0
M  V30 8022 H 729.117 -3.57448 -2.91597 0
M  V30 8023 H 727.36 -3.40483 -2.688 0
M  V30 8024 H 728.031 -3.43438 -4.32151 0
M  V30 8025 H 730.507 -1.56467 -3.85561 0
M  V30 8026 H 729.383 -1.64575 -5.23647 0
M  V30 8027 H 729.644 -0.112771 -4.41956 0
M  V30 8028 N 728.703 1.26451 -0.940633 0
M  V30 8029 C 729.951 1.93395 -0.586748 0
M  V30 8030 C 730.272 1.7417 0.876921 0
M  V30 8031 O 729.542 1.097 1.62304 0
M  V30 8032 H 728.122 0.715687 -0.214012 0
M  V30 8033 H 730.784 1.53902 -1.19584 0
M  V30 8034 H 729.88 3.01565 -0.804059 0
M  V30 8035 N 730.181 0.707592 1.40822 0
M  V30 8036 C 731.409 0.253073 2.05346 0
M  V30 8037 C 731.824 -1.10218 1.53289 0
M  V30 8038 O 731.181 -1.69112 0.686105 0
M  V30 8039 C 731.232 0.215411 3.60858 0
M  V30 8040 O 730.953 1.51714 4.10992 0
M  V30 8041 C 732.454 -0.258636 4.42545 0
M  V30 8042 H 729.674 0.115256 0.661027 0
M  V30 8043 H 732.218 0.963555 1.80377 0
M  V30 8044 H 730.373 -0.445978 3.84824 0
M  V30 8045 H 730.787 1.41226 5.05129 0
M  V30 8046 H 732.261 -0.233849 5.51504 0
M  V30 8047 H 732.738 -1.2995 4.19535 0
M  V30 8048 H 733.344 0.372186 4.23668 0
M  V30 8049 N 731.66 -1.50943 0.453197 0
M  V30 8050 C 732.888 -2.06628 -0.106135 0
M  V30 8051 C 733.303 -1.31901 -1.35084 0
M  V30 8052 O 732.66 -0.383074 -1.78434 0
M  V30 8053 C 732.711 -3.5914 -0.412368 0
M  V30 8054 O 732.432 -4.31047 0.782948 0
M  V30 8055 C 733.933 -4.31391 -1.02064 0
M  V30 8056 H 731.153 -0.670999 -0.000885896 0
M  V30 8057 H 733.697 -1.94331 0.63684 0
M  V30 8058 H 731.852 -3.71299 -1.10526 0
M  V30 8059 H 732.266 -5.21948 0.516736 0
M  V30 8060 H 733.74 -5.39135 -1.1848 0
M  V30 8061 H 734.217 -3.90714 -2.00598 0
M  V30 8062 H 734.823 -4.23716 -0.366664 0
M  V30 8063 N 733.138 -0.185124 -1.56509 0
M  V30 8064 C 734.385 0.456258 -1.97293 0
M  V30 8065 C 734.713 1.62314 -1.07165 0
M  V30 8066 O 733.968 1.95398 -0.108621 0
M  V30 8067 C 734.267 0.967977 -3.44042 0
M  V30 8068 C 733.933 -0.084476 -4.50821 0
M  V30 8069 C 732.595 -0.373689 -4.79747 0
M  V30 8070 C 734.947 -0.79812 -5.15053 0
M  V30 8071 C 732.275 -1.3817 -5.70198 0
M  V30 8072 C 734.627 -1.79521 -6.06593 0
M  V30 8073 C 733.291 -2.09172 -6.3388 0
M  V30 8074 H 732.561 0.166957 -0.721946 0
M  V30 8075 H 735.208 -0.279992 -1.89442 0
M  V30 8076 H 733.513 1.78231 -3.48914 0
M  V30 8077 H 735.21 1.47347 -3.72948 0
M  V30 8078 H 731.8 0.15111 -4.28334 0
M  V30 8079 H 735.984 -0.587903 -4.92806 0
M  V30 8080 H 731.24 -1.61745 -5.89617 0
M  V30 8081 H 735.414 -2.35347 -6.55427 0
M  V30 8082 H 733.041 -2.87427 -7.03768 0
M  V30 8083 N 734.616 1.57351 0.0885366 0
M  V30 8084 C 735.564 2.03542 1.12576 0
M  V30 8085 C 736.558 0.937668 1.41082 0
M  V30 8086 O 737.764 1.12283 1.40686 0
M  V30 8087 H 734.139 0.648752 0.380296 0
M  V30 8088 H 736.11 2.89833 0.709906 0
M  V30 8089 C 734.859 2.4811 2.43591 0
M  V30 8090 H 734.182 3.32164 2.22502 0
M  V30 8091 H 735.622 2.842 3.14653 0
M  V30 8092 C 734.081 1.35708 3.08359 0
M  V30 8093 O 734.611 0.689852 3.95732 0
M  V30 8094 N 732.817 1.10641 2.68713 0
M  V30 8095 H 732.364 1.6508 1.97753 0
M  V30 8096 H 732.322 0.356355 3.12374 0
M  V30 8097 N 736.094 -0.359525 1.53444 0
M  V30 8098 C 737.024 -1.44662 1.8329 0
M  V30 8099 C 738.005 -1.55617 0.68683 0
M  V30 8100 O 739.19 -1.70086 0.93725 0
M  V30 8101 C 736.32 -2.81923 2.02822 0
M  V30 8102 C 735.274 -2.85787 3.18606 0
M  V30 8103 C 734.6 -4.25781 3.23442 0
M  V30 8104 C 735.9 -2.52762 4.57065 0
M  V30 8105 H 737.594 -1.19934 2.74329 0
M  V30 8106 H 735.14 -0.575517 1.31999 0
M  V30 8107 H 737.093 -3.58005 2.22285 0
M  V30 8108 H 735.817 -3.08051 1.085 0
M  V30 8109 H 734.476 -2.12157 2.98973 0
M  V30 8110 H 734.124 -4.48994 2.26745 0
M  V30 8111 H 733.824 -4.29281 4.01238 0
M  V30 8112 H 735.348 -5.03727 3.45096 0
M  V30 8113 H 736.762 -3.18557 4.76649 0
M  V30 8114 H 735.159 -2.67569 5.37147 0
M  V30 8115 H 736.229 -1.47993 4.61764 0
M  V30 8116 N 737.572 -1.44907 -0.619662 0
M  V30 8117 C 738.821 -1.47569 -1.37501 0
M  V30 8118 C 739.134 -0.116707 -1.95252 0
M  V30 8119 O 740.34 -0.020909 -2.71492 0
M  V30 8120 C 738.796 -2.59851 -2.49009 0
M  V30 8121 C 738.404 -4.02008 -1.97722 0
M  V30 8122 C 740.148 -2.71746 -3.2612 0
M  V30 8123 C 738.055 -5.05693 -3.0664 0
M  V30 8124 H 736.985 -0.549068 -0.51676 0
M  V30 8125 H 739.636 -1.71009 -0.665437 0
M  V30 8126 H 738.018 -2.29671 -3.22594 0
M  V30 8127 H 739.192 -4.41809 -1.30925 0
M  V30 8128 H 737.507 -3.94456 -1.33392 0
M  V30 8129 H 740.104 -3.46382 -4.07337 0
M  V30 8130 H 740.447 -1.77959 -3.76346 0
M  V30 8131 H 740.98 -3.01392 -2.5963 0
M  V30 8132 H 737.719 -6.01148 -2.61345 0
M  V30 8133 H 737.239 -4.70473 -3.72042 0
M  V30 8134 H 738.918 -5.29906 -3.71226 0
M  V30 8135 N 739.05 0.861098 -1.31996 0
M  V30 8136 C 739.98 1.98482 -1.22993 0
M  V30 8137 C 740.961 1.6971 -0.115168 0
M  V30 8138 O 742.146 1.91849 -0.30126 0
M  V30 8139 C 739.276 3.34179 -0.945615 0
M  V30 8140 C 738.23 3.77284 -2.02091 0
M  V30 8141 C 737.556 5.1054 -1.58912 0
M  V30 8142 C 738.856 3.93439 -3.43515 0
M  V30 8143 H 740.55 2.06271 -2.17008 0
M  V30 8144 H 738.096 0.991043 -1.04472 0
M  V30 8145 H 740.049 4.12338 -0.869206 0
M  V30 8146 H 738.773 3.26586 0.0301849 0
M  V30 8147 H 737.432 3.01371 -2.08737 0
M  V30 8148 H 737.08 4.99397 -0.600942 0
M  V30 8149 H 736.78 5.40352 -2.30854 0
M  V30 8150 H 738.304 5.91199 -1.52696 0
M  V30 8151 H 739.718 4.6197 -3.39495 0
M  V30 8152 H 738.115 4.34661 -4.13751 0
M  V30 8153 H 739.185 2.96548 -3.8365 0
M  V30 8154 N 740.528 1.15101 1.07655 0
M  V30 8155 C 741.461 0.788522 2.14144 0
M  V30 8156 C 742.439 -0.233635 1.60913 0
M  V30 8157 O 743.623 -0.120908 1.88112 0
M  V30 8158 C 740.75 0.172033 3.38263 0
M  V30 8159 C 739.796 1.16559 4.10264 0
M  V30 8160 S 740.629 2.70627 4.62084 0
M  V30 8161 C 741.785 2.10389 5.8948 0
M  V30 8162 H 742.018 1.69047 2.44561 0
M  V30 8163 H 739.551 0.973033 1.19881 0
M  V30 8164 H 741.509 -0.177223 4.10117 0
M  V30 8165 H 740.17 -0.707468 3.06029 0
M  V30 8166 H 739.363 0.6824 4.99359 0
M  V30 8167 H 738.965 1.45923 3.44358 0
M  V30 8168 H 741.257 1.46405 6.61492 0
M  V30 8169 H 742.2 2.97639 6.42508 0
M  V30 8170 H 742.608 1.54816 5.42856 0
M  V30 8171 N 742.006 -1.2595 0.947325 0
M  V30 8172 C 743.417 -1.75389 0.639963 0
M  V30 8173 C 743.768 -1.77081 -0.844788 0
M  V30 8174 O 742.893 -1.3869 -1.66114 0
M  V30 8175 C 743.488 -3.18506 1.15496 0
M  V30 8176 C 742.047 -3.65534 0.897894 0
M  V30 8177 C 741.194 -2.44818 1.30228 0
M  V30 8178 H 744.145 -1.1194 1.12495 0
M  V30 8179 H 744.166 -3.77045 0.511627 0
M  V30 8180 H 743.678 -3.17243 2.23559 0
M  V30 8181 H 741.779 -3.72221 -0.168096 0
M  V30 8182 H 741.892 -4.54039 1.52922 0
M  V30 8183 H 740.256 -2.44291 0.720678 0
M  V30 8184 H 741.039 -2.46251 2.39198 0
M  V30 8185 N 743.484 -0.715051 -1.40445 0
M  V30 8186 C 744.394 -0.0631624 -2.34515 0
M  V30 8187 C 745.41 0.744397 -1.57273 0
M  V30 8188 O 746.586 0.677475 -1.89663 0
M  V30 8189 C 743.651 0.847915 -3.36172 0
M  V30 8190 C 742.712 0.0303655 -4.29289 0
M  V30 8191 C 741.945 0.898051 -5.2609 0
M  V30 8192 O 742.168 2.13729 -5.28844 0
M  V30 8193 O 741.102 0.337328 -6.00954 0
M  V30 8194 H 744.928 -0.839078 -2.91879 0
M  V30 8195 H 742.513 -0.475527 -1.4163 0
M  V30 8196 H 744.395 1.3698 -3.98515 0
M  V30 8197 H 743.07 1.60299 -2.81222 0
M  V30 8198 H 741.977 -0.536573 -3.70232 0
M  V30 8199 H 743.31 -0.686474 -4.87389 0
M  V30 8200 N 744.962 1.50701 -0.461195 0
M  V30 8201 C 745.909 2.2831 0.338094 0
M  V30 8202 C 746.879 1.32928 0.995957 0
M  V30 8203 O 748.064 1.61857 1.0103 0
M  V30 8204 C 745.204 3.14539 1.41983 0
M  V30 8205 C 744.317 4.24942 0.77773 0
M  V30 8206 C 743.452 4.98443 1.83652 0
M  V30 8207 C 742.491 6.00733 1.17413 0
M  V30 8208 N 741.628 6.6755 2.17533 0
M  V30 8209 H 746.468 2.96167 -0.330051 0
M  V30 8210 H 744.005 1.4606 -0.174611 0
M  V30 8211 H 745.963 3.62877 2.05855 0
M  V30 8212 H 744.593 2.48749 2.05727 0
M  V30 8213 H 743.645 3.80391 0.0266924 0
M  V30 8214 H 744.957 4.98151 0.254362 0
M  V30 8215 H 744.111 5.50449 2.55129 0
M  V30 8216 H 742.85 4.24917 2.39367 0
M  V30 8217 H 741.855 5.47997 0.444944 0
M  V30 8218 H 743.08 6.76227 0.624006 0
M  V30 8219 H 741.026 5.96823 2.72284 0
M  V30 8220 H 740.943 7.36603 1.70154 0
M  V30 8221 H 742.211 7.24178 2.88421 0
M  V30 8222 N 746.441 0.193421 1.56409 0
M  V30 8223 C 747.852 -0.319471 1.83946 0
M  V30 8224 C 748.203 -1.61505 1.11403 0
M  V30 8225 O 747.328 -2.13139 0.374289 0
M  V30 8226 C 747.923 -0.586411 3.33686 0
M  V30 8227 C 746.482 -1.04368 3.61641 0
M  V30 8228 C 745.629 -0.0913834 2.77149 0
M  V30 8229 H 748.58 0.417242 1.53117 0
M  V30 8230 H 748.601 -1.43591 3.52366 0
M  V30 8231 H 748.113 0.356701 3.86457 0
M  V30 8232 H 746.214 -2.00113 3.14302 0
M  V30 8233 H 746.327 -0.937549 4.69837 0
M  V30 8234 H 744.691 -0.592954 2.47702 0
M  V30 8235 H 745.474 0.846142 3.32709 0
M  V30 8236 N 747.919 -1.57396 -0.0801906 0
M  V30 8237 C 749.168 -1.8602 -0.779702 0
M  V30 8238 C 749.481 -0.784864 -1.79163 0
M  V30 8239 O 750.687 -0.958691 -2.54011 0
M  V30 8240 C 749.143 -3.29942 -1.43758 0
M  V30 8241 C 748.751 -4.45584 -0.464654 0
M  V30 8242 C 750.495 -3.67775 -2.11995 0
M  V30 8243 C 748.402 -5.80544 -1.12797 0
M  V30 8244 H 747.332 -0.69392 -0.294943 0
M  V30 8245 H 749.983 -1.83471 -0.0328527 0
M  V30 8246 H 748.365 -3.27078 -2.2324 0
M  V30 8247 H 749.539 -4.59824 0.299749 0
M  V30 8248 H 747.854 -4.16247 0.112813 0
M  V30 8249 H 750.451 -4.65896 -2.62383 0
M  V30 8250 H 750.794 -2.9715 -2.91561 0
M  V30 8251 H 751.327 -3.72593 -1.39354 0
M  V30 8252 H 748.066 -6.54439 -0.372807 0
M  V30 8253 H 747.586 -5.70119 -1.86344 0
M  V30 8254 H 749.265 -6.25602 -1.6502 0
M  V30 8255 N 749.397 0.351382 -1.53633 0
M  V30 8256 C 750.622 1.11718 -1.74739 0
M  V30 8257 C 751.047 1.81829 -0.481657 0
M  V30 8258 O 750.405 1.72264 0.565233 0
M  V30 8259 C 750.453 2.11234 -2.92254 0
M  V30 8260 O 749.557 3.186 -2.61855 0
M  V30 8261 H 748.898 0.323482 -0.579875 0
M  V30 8262 H 751.428 0.404167 -2.00568 0
M  V30 8263 H 751.438 2.54591 -3.18822 0
M  V30 8264 H 750.113 1.59599 -3.84058 0
M  V30 8265 H 748.69 2.80115 -2.4615 0
M  V30 8266 N 750.875 1.45233 0.611969 0
M  V30 8267 C 752.122 1.49021 1.37109 0
M  V30 8268 C 752.45 0.130227 1.94064 0
M  V30 8269 O 751.705 -0.870551 1.75271 0
M  V30 8270 C 752.004 2.51353 2.54079 0
M  V30 8271 C 751.67 3.96178 2.15299 0
M  V30 8272 C 750.332 4.35614 2.04436 0
M  V30 8273 C 752.684 4.87275 1.84966 0
M  V30 8274 C 750.012 5.64047 1.61456 0
M  V30 8275 C 752.364 6.16115 1.43474 0
M  V30 8276 C 751.028 6.54486 1.31167 0
M  V30 8277 H 750.298 0.545307 0.501719 0
M  V30 8278 H 752.945 1.78555 0.692122 0
M  V30 8279 H 751.25 2.15372 3.27295 0
M  V30 8280 H 752.947 2.51523 3.12309 0
M  V30 8281 H 749.537 3.6499 2.24678 0
M  V30 8282 H 753.721 4.57548 1.92258 0
M  V30 8283 H 748.977 5.92575 1.50547 0
M  V30 8284 H 753.151 6.86149 1.19048 0
M  V30 8285 H 750.778 7.53904 0.97637 0
M  V30 8286 N 752.353 -0.854086 1.3245 0
M  V30 8287 C 753.581 -1.64074 1.26045 0
M  V30 8288 C 753.996 -1.8802 -0.171456 0
M  V30 8289 O 753.353 -1.4496 -1.10873 0
M  V30 8290 C 753.404 -2.9997 2.01743 0
M  V30 8291 O 753.125 -2.77084 3.39346 0
M  V30 8292 C 754.626 -3.94414 2.02368 0
M  V30 8293 H 751.846 -0.511015 0.434862 0
M  V30 8294 H 754.39 -1.06494 1.74583 0
M  V30 8295 H 752.545 -3.54193 1.56926 0
M  V30 8296 H 752.959 -3.63514 3.78098 0
M  V30 8297 H 754.433 -4.87032 2.59815 0
M  V30 8298 H 754.91 -4.27427 1.01009 0
M  V30 8299 H 755.516 -3.46127 2.47135 0
M  V30 8300 N 753.831 -1.1567 -1.07043 0
M  V30 8301 C 755.078 -0.933517 -1.79699 0
M  V30 8302 C 755.406 0.539162 -1.86878 0
M  V30 8303 O 754.661 1.41592 -1.35093 0
M  V30 8304 C 754.96 -1.49677 -3.24548 0
M  V30 8305 C 754.626 -2.99047 -3.37463 0
M  V30 8306 C 753.288 -3.39824 -3.40695 0
M  V30 8307 C 755.64 -3.95027 -3.40004 0
M  V30 8308 C 752.968 -4.75215 -3.44075 0
M  V30 8309 C 755.32 -5.30295 -3.44921 0
M  V30 8310 C 753.984 -5.70562 -3.46432 0
M  V30 8311 H 753.254 -0.341598 -0.657565 0
M  V30 8312 H 755.901 -1.44263 -1.25938 0
M  V30 8313 H 754.206 -0.908915 -3.81111 0
M  V30 8314 H 755.903 -1.29986 -3.79348 0
M  V30 8315 H 752.493 -2.6653 -3.35648 0
M  V30 8316 H 756.677 -3.64596 -3.36725 0
M  V30 8317 H 751.933 -5.05754 -3.43545 0
M  V30 8318 H 756.107 -6.0446 -3.45833 0
M  V30 8319 H 753.734 -6.75456 -3.48803 0
M  V30 8320 N 755.309 1.25446 -0.953992 0
M  V30 8321 C 756.555 1.93756 -0.618888 0
M  V30 8322 C 756.91 1.73344 0.83484 0
M  V30 8323 O 756.203 1.06753 1.59105 0
M  V30 8324 C 756.397 3.45555 -0.912496 0
M  V30 8325 C 756.226 3.8073 -2.39321 0
M  V30 8326 C 754.996 4.02819 -3.05065 0
M  V30 8327 C 757.194 3.88286 -3.37251 0
M  V30 8328 N 755.176 4.24981 -4.43017 0
M  V30 8329 C 756.547 4.1513 -4.60507 0
M  V30 8330 C 758.602 3.70965 -3.32099 0
M  V30 8331 C 757.305 4.26454 -5.79249 0
M  V30 8332 C 759.331 3.83528 -4.50178 0
M  V30 8333 C 758.693 4.10783 -5.72221 0
M  V30 8334 H 754.792 0.731271 -0.277069 0
M  V30 8335 H 757.376 1.5125 -1.22604 0
M  V30 8336 H 755.547 3.86959 -0.334284 0
M  V30 8337 H 757.279 4.01117 -0.537362 0
M  V30 8338 H 754.034 3.9868 -2.55639 0
M  V30 8339 H 754.458 4.4007 -5.14459 0
M  V30 8340 H 759.1 3.4891 -2.38791 0
M  V30 8341 H 756.818 4.47325 -6.72998 0
M  V30 8342 H 760.404 3.71513 -4.47738 0
M  V30 8343 H 759.284 4.20285 -6.62065 0
M  V30 8344 N 756.787 0.722489 1.40064 0
M  V30 8345 C 758.198 0.336507 1.83642 0
M  V30 8346 C 758.549 -1.13002 1.6039 0
M  V30 8347 O 757.674 -1.87036 1.08842 0
M  V30 8348 C 758.269 0.603985 3.33373 0
M  V30 8349 C 756.828 0.271637 3.75419 0
M  V30 8350 C 755.975 0.872898 2.63203 0
M  V30 8351 H 758.926 0.921108 1.29233 0
M  V30 8352 H 758.947 -0.128471 3.80283 0
M  V30 8353 H 758.459 1.67141 3.50265 0
M  V30 8354 H 756.56 -0.790455 3.64119 0
M  V30 8355 H 756.673 0.745457 4.73265 0
M  V30 8356 H 755.037 0.300431 2.52922 0
M  V30 8357 H 755.82 1.94473 2.82905 0
M  V30 8358 N 758.265 -1.50454 0.469181 0
M  V30 8359 C 759.512 -2.02315 -0.086469 0
M  V30 8360 C 759.84 -1.3513 -1.39893 0
M  V30 8361 O 759.095 -0.465341 -1.90087 0
M  V30 8362 C 759.394 -3.55963 -0.320207 0
M  V30 8363 C 759.06 -4.41615 0.910318 0
M  V30 8364 C 757.722 -4.64743 1.2477 0
M  V30 8365 C 760.074 -4.91661 1.72971 0
M  V30 8366 C 757.402 -5.35161 2.40457 0
M  V30 8367 C 759.754 -5.6335 2.87785 0
M  V30 8368 C 758.418 -5.84732 3.2194 0
M  V30 8369 H 757.688 -0.740324 -0.0316412 0
M  V30 8370 H 760.335 -1.81087 0.622872 0
M  V30 8371 H 758.64 -3.75695 -1.11177 0
M  V30 8372 H 760.337 -3.93653 -0.764071 0
M  V30 8373 H 756.927 -4.23833 0.637467 0
M  V30 8374 H 761.111 -4.73649 1.48224 0
M  V30 8375 H 756.367 -5.49924 2.67196 0
M  V30 8376 H 760.541 -6.0111 3.51624 0
M  V30 8377 H 758.168 -6.39074 4.1169 0
M  V30 8378 N 759.743 -0.201713 -1.56304 0
M  V30 8379 C 760.691 0.733133 -2.20744 0
M  V30 8380 C 761.685 1.2148 -1.18064 0
M  V30 8381 O 762.891 1.17692 -1.36193 0
M  V30 8382 H 759.266 0.254789 -0.707521 0
M  V30 8383 H 761.237 0.165996 -2.97938 0
M  V30 8384 C 759.986 1.93925 -2.88597 0
M  V30 8385 H 759.309 1.5777 -3.67353 0
M  V30 8386 H 760.749 2.57158 -3.37114 0
M  V30 8387 C 759.208 2.78219 -1.89989 0
M  V30 8388 O 759.738 3.76353 -1.40432 0
M  V30 8389 N 757.944 2.43847 -1.58072 0
M  V30 8390 H 757.491 1.64103 -1.98565 0
M  V30 8391 H 757.449 3.0053 -0.923524 0
M  V30 8392 N 761.222 1.57436 0.0718424 0
M  V30 8393 C 762.154 2.00412 1.1121 0
M  V30 8394 C 763.167 0.910074 1.34987 0
M  V30 8395 O 764.356 1.18796 1.33228 0
M  V30 8396 C 761.456 2.32786 2.46301 0
M  V30 8397 C 760.629 3.64036 2.4248 0
M  V30 8398 C 759.688 3.8408 3.59679 0
M  V30 8399 O 758.714 4.55667 3.4111 0
M  V30 8400 N 759.916 3.2643 4.80025 0
M  V30 8401 H 762.681 2.90264 0.746118 0
M  V30 8402 H 760.242 1.59791 0.260495 0
M  V30 8403 H 762.234 2.43368 3.23348 0
M  V30 8404 H 760.804 1.48824 2.74901 0
M  V30 8405 H 760.024 3.64208 1.50818 0
M  V30 8406 H 761.312 4.50217 2.37027 0
M  V30 8407 H 760.71 2.68325 4.98014 0
M  V30 8408 H 759.267 3.42461 5.54584 0
M  V30 8409 N 762.7 -0.34323 1.53817 0
M  V30 8410 C 763.61 -1.44493 1.84821 0
M  V30 8411 C 764.626 -1.57556 0.738381 0
M  V30 8412 O 765.802 -1.73026 1.03072 0
M  V30 8413 C 762.867 -2.79478 2.05166 0
M  V30 8414 C 761.928 -2.75756 3.29025 0
M  V30 8415 C 761.161 -4.04302 3.4839 0
M  V30 8416 O 761.384 -5.01595 2.71586 0
M  V30 8417 O 760.318 -4.08754 4.41819 0
M  V30 8418 H 764.144 -1.21209 2.78464 0
M  V30 8419 H 761.729 -0.535437 1.39476 0
M  V30 8420 H 763.611 -3.59419 2.19991 0
M  V30 8421 H 762.286 -3.02692 1.14713 0
M  V30 8422 H 761.193 -1.94434 3.19603 0
M  V30 8423 H 762.526 -2.57495 4.19472 0
M  V30 8424 N 764.178 -1.45556 -0.604258 0
M  V30 8425 C 765.141 -1.54091 -1.69672 0
M  V30 8426 C 766.141 -0.420076 -1.55216 0
M  V30 8427 O 767.331 -0.683671 -1.60224 0
M  V30 8428 C 764.463 -1.44063 -3.08964 0
M  V30 8429 H 765.656 -2.51431 -1.6347 0
M  V30 8430 H 763.209 -1.33046 -0.820273 0
M  V30 8431 H 763.944 -0.479201 -3.2074 0
M  V30 8432 H 763.729 -2.25362 -3.20865 0
M  V30 8433 H 765.219 -1.53075 -3.88533 0
M  V30 8434 N 765.656 0.84705 -1.32902 0
M  V30 8435 C 766.884 1.63403 -1.26913 0
M  V30 8436 C 767.299 1.88108 0.161483 0
M  V30 8437 O 766.656 1.45546 1.10103 0
M  V30 8438 C 766.707 2.98896 -2.03331 0
M  V30 8439 O 766.428 2.75281 -3.40811 0
M  V30 8440 C 767.929 3.93335 -2.04457 0
M  V30 8441 H 765.149 0.508701 -0.437566 0
M  V30 8442 H 767.693 1.05567 -1.75145 0
M  V30 8443 H 765.848 3.53356 -1.58802 0
M  V30 8444 H 766.262 3.61504 -3.8002 0
M  V30 8445 H 767.736 4.85647 -2.62394 0
M  V30 8446 H 768.213 4.26885 -1.03274 0
M  V30 8447 H 768.819 3.44812 -2.48967 0
M  V30 8448 N 767.134 1.16236 1.06428 0
M  V30 8449 C 768.066 0.825446 2.1382 0
M  V30 8450 C 769.079 -0.166707 1.61944 0
M  V30 8451 O 770.268 0.0578606 1.78406 0
M  V30 8452 C 767.368 0.208023 3.38261 0
M  V30 8453 C 766.541 1.23994 4.19457 0
M  V30 8454 C 765.6 0.642569 5.22262 0
M  V30 8455 O 764.626 1.31106 5.53895 0
M  V30 8456 N 765.828 -0.571327 5.77682 0
M  V30 8457 H 768.593 1.7497 2.43322 0
M  V30 8458 H 766.154 1.05951 1.22417 0
M  V30 8459 H 768.146 -0.204608 4.04182 0
M  V30 8460 H 766.716 -0.619752 3.06395 0
M  V30 8461 H 765.936 1.82879 3.49212 0
M  V30 8462 H 767.224 1.93638 4.70512 0
M  V30 8463 H 766.622 -1.13263 5.54245 0
M  V30 8464 H 765.179 -0.926187 6.45186 0
M  V30 8465 N 768.612 -1.24939 0.960631 0
M  V30 8466 C 769.544 -2.24879 0.442937 0
M  V30 8467 C 770.557 -1.56615 -0.444464 0
M  V30 8468 O 771.746 -1.76715 -0.251776 0
M  V30 8469 C 768.846 -3.36757 -0.380537 0
M  V30 8470 C 768.019 -4.34587 0.495283 0
M  V30 8471 C 767.078 -5.25502 -0.270995 0
M  V30 8472 O 766.104 -5.68227 0.332661 0
M  V30 8473 N 767.306 -5.59077 -1.56249 0
M  V30 8474 H 770.071 -2.69932 1.30218 0
M  V30 8475 H 767.632 -1.38907 0.83166 0
M  V30 8476 H 769.624 -3.94542 -0.90103 0
M  V30 8477 H 768.194 -2.91045 -1.14067 0
M  V30 8478 H 767.414 -3.75593 1.19682 0
M  V30 8479 H 768.702 -4.96925 1.09285 0
M  V30 8480 H 768.1 -5.2628 -2.07476 0
M  V30 8481 H 766.657 -6.19421 -2.02882 0
M  V30 8482 O 770.129 -0.867795 -1.36204 0
M  V30 8483 H 770.82 -0.466586 -1.87996 0
M  V30 END ATOM
M  V30 BEGIN BOND
M  V30 END BOND
M  V30 END CTAB
M  END
$$$$
