drugbank_target|P05160 Coagulation factor XIII B chain (DB01593; DB09310; DB11300; DB11571; DB14487)
 OpenBabel12092121083D

  0  0  0     0  0            999 V3000
M  V30 BEGIN CTAB
M  V30 COUNTS 10392 10533 0 0 0
M  V30 BEGIN ATOM
M  V30 1 H -0.908 1.98254 -0.117106 0
M  V30 2 N 0 1.576 0 0
M  V30 3 C 0.933 2.03868 1.02534 0
M  V30 4 C 1.911 0.928543 1.3348 0
M  V30 5 O 3.095 1.19667 1.45644 0
M  V30 6 C 0.222 2.43627 2.35294 0
M  V30 7 C -0.732 3.65373 2.2001 0
M  V30 8 S 0.101 5.13292 1.52614 0
M  V30 9 C 1.257 5.56322 2.86805 0
M  V30 10 H 1.49 2.90518 0.631377 0
M  V30 11 H -0.977 1.52953 0.210867 0
M  V30 12 H 0.981 2.67203 3.11629 0
M  V30 13 H -0.358 1.57376 2.7183 0
M  V30 14 H -1.165 3.90944 3.18086 0
M  V30 15 H -1.563 3.418 1.51819 0
M  V30 16 H 0.729 5.58782 3.83104 0
M  V30 17 H 1.672 6.56266 2.65933 0
M  V30 18 H 2.08 4.83886 2.90714 0
M  V30 19 N 1.4781 -0.272755 1.55222 0
M  V30 20 C 2.8941 -0.619959 1.47067 0
M  V30 21 C 3.0941 -1.895 0.684978 0
M  V30 22 O 2.1501 -2.51675 0.203931 0
M  V30 23 C 3.4631 -0.746693 2.91282 0
M  V30 24 C 5.0111 -0.840731 3.01497 0
M  V30 25 C 5.4861 -0.99924 4.46967 0
M  V30 26 N 6.9771 -1.06476 4.50796 0
M  V30 27 C 7.7121 -1.20621 5.6057 0
M  V30 28 N 7.2081 -1.31483 6.80209 0
M  V30 29 N 9.0011 -1.23733 5.48312 0
M  V30 30 H 1.1521 0.564606 2.04758 0
M  V30 31 H 3.4151 0.191177 0.928523 0
M  V30 32 H 3.1211 0.119753 3.51496 0
M  V30 33 H 2.9951 -1.6269 3.40311 0
M  V30 34 H 5.3821 -1.69764 2.41379 0
M  V30 35 H 5.4631 0.0640874 2.5572 0
M  V30 36 H 5.1071 -0.146984 5.07687 0
M  V30 37 H 5.0371 -1.91871 4.90401 0
M  V30 38 H 7.5281 -0.993196 3.64615 0
M  V30 39 H 7.8411 -1.42111 7.59621 0
M  V30 40 H 6.1861 -1.28487 6.8302 0
M  V30 41 H 9.3771 -1.14877 4.53785 0
M  V30 42 H 9.5501 -1.34412 6.33906 0
M  V30 43 N 2.9562 -1.48159 -0.537278 0
M  V30 44 C 3.8862 -1.65029 -1.6519 0
M  V30 45 C 4.8672 -0.499281 -1.62607 0
M  V30 46 O 6.0522 -0.730972 -1.79918 0
M  V30 47 C 3.1822 -1.68303 -3.03795 0
M  V30 48 C 2.1362 -2.8283 -3.21234 0
M  V30 49 C 1.4622 -2.71189 -4.60826 0
M  V30 50 C 2.7622 -4.24211 -3.04701 0
M  V30 51 H 4.4562 -2.58341 -1.51328 0
M  V30 52 H 2.0022 -1.24325 -0.726585 0
M  V30 53 H 3.9552 -1.78693 -3.81637 0
M  V30 54 H 2.6792 -0.715635 -3.18663 0
M  V30 55 H 1.3382 -2.71983 -2.45807 0
M  V30 56 H 0.9862 -1.72435 -4.7252 0
M  V30 57 H 0.6862 -3.48035 -4.7344 0
M  V30 58 H 2.2102 -2.83537 -5.40777 0
M  V30 59 H 3.6242 -4.3593 -3.72341 0
M  V30 60 H 2.0212 -5.01998 -3.28813 0
M  V30 61 H 3.0912 -4.41184 -2.01209 0
M  V30 62 N 4.4343 0.785586 -1.36625 0
M  V30 63 C 5.3813 1.89838 -1.31264 0
M  V30 64 C 6.3513 1.65115 -0.180633 0
M  V30 65 O 7.5363 1.87222 -0.36777 0
M  V30 66 C 4.6763 3.26706 -1.11163 0
M  V30 67 C 3.7893 3.63476 -2.33472 0
M  V30 68 C 2.9243 4.89481 -2.06353 0
M  V30 69 C 1.9633 5.18941 -3.24602 0
M  V30 70 N 1.1003 6.36131 -2.97123 0
M  V30 71 H 5.9403 1.93756 -2.26413 0
M  V30 72 H 3.4773 0.947454 -1.12524 0
M  V30 73 H 5.4353 4.05639 -0.975337 0
M  V30 74 H 4.0653 3.222 -0.196674 0
M  V30 75 H 3.1173 2.79636 -2.57891 0
M  V30 76 H 4.4293 3.81193 -3.21704 0
M  V30 77 H 3.5833 5.76288 -1.89675 0
M  V30 78 H 2.3223 4.73841 -1.15437 0
M  V30 79 H 1.3273 4.30615 -3.41834 0
M  V30 80 H 2.5523 5.36498 -4.16349 0
M  V30 81 H 0.4983 6.21875 -2.08823 0
M  V30 82 H 0.4153 6.54198 -3.78894 0
M  V30 83 H 1.6833 7.2591 -2.84033 0
M  V30 84 N 5.9124 1.20967 1.01018 0
M  V30 85 C 6.8604 0.961223 2.1181 0
M  V30 86 C 7.8544 -0.0897034 1.69162 0
M  V30 87 O 9.0604 0.0612271 1.79896 0
M  V30 88 H 5.4354 0.29355 0.692338 0
M  V30 89 H 7.4064 1.90178 2.29946 0
M  V30 90 C 6.1554 0.536854 3.4353 0
M  V30 91 H 5.4784 1.33713 3.76777 0
M  V30 92 H 6.9184 0.402286 4.22087 0
M  V30 93 C 5.3774 -0.751574 3.2841 0
M  V30 94 O 5.9074 -1.80841 3.58691 0
M  V30 95 N 4.1134 -0.716079 2.81639 0
M  V30 96 H 3.6604 0.144236 2.57196 0
M  V30 97 H 3.6184 -1.57847 2.71904 0
M  V30 98 N 7.3905 -1.2043 1.01659 0
M  V30 99 C 8.3205 -2.25466 0.607226 0
M  V30 100 C 9.3015 -1.65853 -0.377716 0
M  V30 101 O 10.4865 -1.92409 -0.263149 0
M  V30 102 C 7.6165 -3.47256 -0.0552949 0
M  V30 103 C 6.5705 -4.19462 0.850632 0
M  V30 104 C 5.8965 -5.34673 0.0538859 0
M  V30 105 C 7.1965 -4.75603 2.15868 0
M  V30 106 H 8.8905 -2.59962 1.48526 0
M  V30 107 H 6.4365 -1.2496 0.715605 0
M  V30 108 H 8.3895 -4.19917 -0.353233 0
M  V30 109 H 7.1135 -3.11924 -0.968045 0
M  V30 110 H 5.7725 -3.48667 1.13257 0
M  V30 111 H 5.4205 -4.95585 -0.860514 0
M  V30 112 H 5.1205 -5.83913 0.657192 0
M  V30 113 H 6.6445 -6.10138 -0.237598 0
M  V30 114 H 8.0585 -5.40083 1.92311 0
M  V30 115 H 6.4555 -5.3528 2.71284 0
M  V30 116 H 7.5255 -3.94346 2.82169 0
M  V30 117 N 8.8686 -0.792821 -1.36206 0
M  V30 118 C 10.0966 -0.378825 -2.03402 0
M  V30 119 C 10.5116 1.00586 -1.59774 0
M  V30 120 O 9.8686 1.64574 -0.788764 0
M  V30 121 C 9.9196 -0.43683 -3.58851 0
M  V30 122 O 9.6406 -1.76691 -4.00889 0
M  V30 123 C 11.1416 -0.0138943 -4.43298 0
M  V30 124 H 8.3616 -0.155673 -0.652692 0
M  V30 125 H 10.9056 -1.07261 -1.74113 0
M  V30 126 H 9.0606 0.208575 -3.86838 0
M  V30 127 H 9.4746 -1.72011 -4.95492 0
M  V30 128 H 10.9486 -0.105615 -5.51899 0
M  V30 129 H 11.4256 1.03915 -4.2673 0
M  V30 130 H 12.0316 -0.63192 -4.20579 0
M  V30 131 N 10.3467 1.47872 -0.545128 0
M  V30 132 C 11.5937 2.02493 -0.0165858 0
M  V30 133 C 11.9217 1.42073 1.32836 0
M  V30 134 O 11.1767 0.561459 1.87473 0
M  V30 135 C 11.4757 3.57131 0.13867 0
M  V30 136 C 11.1417 4.36411 -1.13384 0
M  V30 137 C 9.8037 4.57792 -1.48256 0
M  V30 138 C 12.1557 4.82223 -1.97764 0
M  V30 139 C 9.4837 5.22233 -2.67376 0
M  V30 140 C 11.8357 5.47977 -3.16076 0
M  V30 141 C 10.4997 5.67593 -3.51275 0
M  V30 142 H 9.7697 0.740975 -0.00606918 0
M  V30 143 H 12.4167 1.77683 -0.714207 0
M  V30 144 H 10.7217 3.80865 0.919172 0
M  V30 145 H 12.4187 3.97031 0.562782 0
M  V30 146 H 9.0087 4.2004 -0.852297 0
M  V30 147 H 13.1927 4.65493 -1.72132 0
M  V30 148 H 8.4487 5.35616 -2.94831 0
M  V30 149 H 12.6227 5.8244 -3.81755 0
M  V30 150 H 10.2497 6.17298 -4.43675 0
M  V30 151 N 11.8248 0.280983 1.55075 0
M  V30 152 C 13.0738 -0.334784 1.98902 0
M  V30 153 C 13.3868 -1.56534 1.17288 0
M  V30 154 O 14.5928 -2.25443 1.51287 0
M  V30 155 C 13.0488 -0.646994 3.54037 0
M  V30 156 C 12.6568 0.564085 4.44435 0
M  V30 157 C 14.4008 -1.22506 4.06439 0
M  V30 158 C 12.3078 0.226137 5.90967 0
M  V30 159 H 11.2378 -0.128866 0.742906 0
M  V30 160 H 13.8888 0.386556 1.79382 0
M  V30 161 H 12.2708 -1.42739 3.6938 0
M  V30 162 H 13.4448 1.34082 4.40861 0
M  V30 163 H 11.7598 1.0594 4.02698 0
M  V30 164 H 14.3568 -1.49182 5.13468 0
M  V30 165 H 14.6998 -2.16085 3.55827 0
M  V30 166 H 15.2328 -0.50682 3.94558 0
M  V30 167 H 11.9718 1.12996 6.45687 0
M  V30 168 H 11.4918 -0.513717 5.97596 0
M  V30 169 H 13.1708 -0.179539 6.46751 0
M  V30 170 N 13.3029 -1.57598 0.00835791 0
M  V30 171 C 14.5519 -1.90107 -0.673968 0
M  V30 172 C 14.8649 -0.884275 -1.7447 0
M  V30 173 O 16.0709 -1.09987 -2.48224 0
M  V30 174 C 14.5269 -3.37497 -1.24995 0
M  V30 175 C 14.1349 -4.47491 -0.2136 0
M  V30 176 C 15.8789 -3.79104 -1.90999 0
M  V30 177 C 13.7859 -5.85963 -0.80005 0
M  V30 178 H 12.7159 -0.709393 -0.255495 0
M  V30 179 H 15.3669 -1.83365 0.0702693 0
M  V30 180 H 13.7489 -3.39102 -2.04513 0
M  V30 181 H 14.9229 -4.57414 0.557596 0
M  V30 182 H 13.2379 -4.14956 0.346474 0
M  V30 183 H 15.8349 -4.79901 -2.35795 0
M  V30 184 H 16.1779 -3.1306 -2.74407 0
M  V30 185 H 16.7109 -3.79833 -1.18203 0
M  V30 186 H 13.4499 -6.555 -0.00456708 0
M  V30 187 H 12.9699 -5.79687 -1.54021 0
M  V30 188 H 14.6489 -6.33884 -1.29615 0
M  V30 189 N 14.781 0.264519 -1.55364 0
M  V30 190 C 16.03 0.992812 -1.75574 0
M  V30 191 C 16.343 1.87142 -0.568979 0
M  V30 192 O 17.549 2.63513 -0.653682 0
M  V30 193 C 16.005 1.81519 -3.10771 0
M  V30 194 C 15.613 0.984839 -4.37041 0
M  V30 195 C 17.357 2.53727 -3.40327 0
M  V30 196 C 15.264 1.80209 -5.63275 0
M  V30 197 H 14.194 0.374412 -0.65447 0
M  V30 198 H 16.845 0.248138 -1.81815 0
M  V30 199 H 15.227 2.60115 -2.98591 0
M  V30 200 H 16.401 0.242455 -4.60162 0
M  V30 201 H 14.716 0.37691 -4.14691 0
M  V30 202 H 17.313 3.15292 -4.3185 0
M  V30 203 H 17.656 3.24447 -2.60845 0
M  V30 204 H 18.189 1.82156 -3.53644 0
M  V30 205 H 14.928 1.13896 -6.45529 0
M  V30 206 H 14.448 2.52022 -5.44284 0
M  V30 207 H 16.127 2.37364 -6.01887 0
M  V30 208 N 16.2591 1.48442 0.529413 0
M  V30 209 C 17.1891 1.65902 1.64313 0
M  V30 210 C 18.1701 0.507897 1.6234 0
M  V30 211 O 19.3551 0.740503 1.79528 0
M  V30 212 C 16.4851 1.69911 3.02898 0
M  V30 213 C 15.4391 2.8453 3.19729 0
M  V30 214 C 14.7651 2.73629 4.59381 0
M  V30 215 C 16.0651 4.25821 3.02447 0
M  V30 216 H 17.7591 2.5914 1.49955 0
M  V30 217 H 15.3051 1.24709 0.719982 0
M  V30 218 H 17.2581 1.80715 3.80684 0
M  V30 219 H 15.9821 0.732524 3.18279 0
M  V30 220 H 14.6411 2.73283 2.44361 0
M  V30 221 H 14.2891 1.74938 4.71599 0
M  V30 222 H 13.9891 3.50541 4.71588 0
M  V30 223 H 15.5131 2.86401 5.39265 0
M  V30 224 H 16.9271 4.37898 3.70024 0
M  V30 225 H 15.3241 5.03735 3.26146 0
M  V30 226 H 16.3941 4.42244 1.98867 0
M  V30 227 N 17.7372 -0.778329 1.37039 0
M  V30 228 C 18.9862 -1.53189 1.3121 0
M  V30 229 C 19.2992 -1.95328 -0.103095 0
M  V30 230 O 20.5052 -2.70012 -0.283826 0
M  V30 231 C 18.9612 -2.76591 2.30272 0
M  V30 232 C 18.5692 -2.41577 3.77286 0
M  V30 233 C 20.3132 -3.5455 2.33441 0
M  V30 234 C 18.2202 -3.61441 4.68096 0
M  V30 235 H 17.1502 -0.5751 0.487622 0
M  V30 236 H 19.8012 -0.853101 1.62464 0
M  V30 237 H 18.1832 -3.46326 1.92027 0
M  V30 238 H 19.3572 -1.79668 4.2433 0
M  V30 239 H 17.6722 -1.76806 3.76999 0
M  V30 240 H 20.2692 -4.43628 2.98493 0
M  V30 241 H 20.6122 -3.93936 1.34611 0
M  V30 242 H 21.1452 -2.91805 2.7036 0
M  V30 243 H 17.8842 -3.27142 5.6803 0
M  V30 244 H 17.4042 -4.22478 4.25761 0
M  V30 245 H 19.0832 -4.28335 4.8491 0
M  V30 246 N 19.2153 -1.21501 -1.00376 0
M  V30 247 C 20.4643 -1.02718 -1.73586 0
M  V30 248 C 20.7773 0.439589 -1.90596 0
M  V30 249 O 21.9833 0.746848 -2.61026 0
M  V30 250 C 20.4393 -1.78929 -3.1227 0
M  V30 251 C 20.0473 -3.29783 -3.03228 0
M  V30 252 C 21.7913 -1.68557 -3.89601 0
M  V30 253 C 19.6983 -3.98479 -4.36999 0
M  V30 254 H 18.6283 -0.380733 -0.650814 0
M  V30 255 H 21.2793 -1.45248 -1.1214 0
M  V30 256 H 19.6613 -1.29192 -3.74333 0
M  V30 257 H 20.8353 -3.86832 -2.50395 0
M  V30 258 H 19.1503 -3.40711 -2.39385 0
M  V30 259 H 21.7473 -2.17211 -4.88593 0
M  V30 260 H 22.0903 -0.644021 -4.11288 0
M  V30 261 H 22.6233 -2.15778 -3.34193 0
M  V30 262 H 19.3623 -5.02841 -4.20513 0
M  V30 263 H 18.8823 -3.46219 -4.89788 0
M  V30 264 H 20.5613 -4.03462 -5.05794 0
M  V30 265 N 20.6934 1.19889 -1.02296 0
M  V30 266 C 21.9184 1.9393 -0.735237 0
M  V30 267 C 22.3434 1.74639 0.698782 0
M  V30 268 O 21.7014 1.04481 1.48167 0
M  V30 269 C 21.7494 3.43916 -1.08417 0
M  V30 270 O 20.8534 4.11917 -0.199446 0
M  V30 271 H 20.1944 0.605645 -0.272196 0
M  V30 272 H 22.7244 1.52137 -1.36804 0
M  V30 273 H 22.7344 3.9456 -1.03856 0
M  V30 274 H 21.4094 3.5728 -2.12894 0
M  V30 275 H 19.9864 3.71666 -0.303136 0
M  V30 276 N 22.1715 0.800033 1.35784 0
M  V30 277 C 23.4195 0.376597 1.9856 0
M  V30 278 C 23.7405 -1.05812 1.63795 0
M  V30 279 O 23.0105 -1.73103 0.917171 0
M  V30 280 H 21.5905 0.136261 0.734467 0
M  V30 281 H 24.2525 1.02442 1.65806 0
M  V30 282 H 23.3485 0.477002 3.08433 0
M  V30 283 N 23.6496 -1.47581 0.552962 0
M  V30 284 C 24.5596 -2.33743 -0.200353 0
M  V30 285 C 25.5756 -1.47928 -0.916151 0
M  V30 286 O 26.7516 -1.80865 -0.885993 0
M  V30 287 C 23.8166 -3.24536 -1.21973 0
M  V30 288 C 22.8776 -4.26238 -0.511819 0
M  V30 289 C 22.1106 -5.12693 -1.48263 0
M  V30 290 O 22.3336 -5.01525 -2.71714 0
M  V30 291 O 21.2676 -5.93375 -1.00945 0
M  V30 292 H 25.0936 -2.9945 0.506304 0
M  V30 293 H 22.6786 -1.46071 0.313622 0
M  V30 294 H 24.5606 -3.80631 -1.80827 0
M  V30 295 H 23.2356 -2.61462 -1.90839 0
M  V30 296 H 22.1426 -3.73914 0.117799 0
M  V30 297 H 23.4756 -4.92014 0.135308 0
M  V30 298 N 25.1277 -0.289203 -1.54924 0
M  V30 299 C 26.0577 0.58549 -2.2604 0
M  V30 300 C 27.0387 1.14753 -1.25562 0
M  V30 301 O 28.2237 1.17906 -1.54311 0
M  V30 302 C 25.3537 1.76305 -2.99222 0
M  V30 303 C 24.3077 1.33191 -4.06748 0
M  V30 304 C 23.6337 2.5937 -4.6758 0
M  V30 305 C 24.9337 0.471775 -5.20165 0
M  V30 306 H 26.6277 -0.00763532 -2.99399 0
M  V30 307 H 24.1737 -0.00511229 -1.43999 0
M  V30 308 H 26.1267 2.38097 -3.47689 0
M  V30 309 H 24.8507 2.38223 -2.23422 0
M  V30 310 H 23.5097 0.737121 -3.59113 0
M  V30 311 H 23.1577 3.19576 -3.88433 0
M  V30 312 H 22.8577 2.31228 -5.40192 0
M  V30 313 H 24.3817 3.21985 -5.18804 0
M  V30 314 H 25.7957 0.995056 -5.64599 0
M  V30 315 H 24.1927 0.284639 -5.99425 0
M  V30 316 H 25.2627 -0.506041 -4.82252 0
M  V30 317 N 26.6058 1.57591 -0.0167156 0
M  V30 318 C 27.8358 1.95292 0.674149 0
M  V30 319 C 28.2438 0.891097 1.66901 0
M  V30 320 O 27.5868 -0.136908 1.83189 0
M  V30 321 C 27.6488 3.29072 1.44747 0
M  V30 322 C 27.3128 4.52879 0.612331 0
M  V30 323 C 28.3098 5.1979 -0.107126 0
M  V30 324 C 25.9948 4.99242 0.553381 0
M  V30 325 C 27.9888 6.31375 -0.874339 0
M  V30 326 C 25.6758 6.10713 -0.217546 0
M  V30 327 C 26.6738 6.76637 -0.930123 0
M  V30 328 O 26.3618 7.85969 -1.68844 0
M  V30 329 H 26.0938 0.648275 0.191615 0
M  V30 330 H 28.6478 2.05284 -0.0690148 0
M  V30 331 H 26.8778 3.15535 2.2355 0
M  V30 332 H 28.5668 3.51764 2.02526 0
M  V30 333 H 29.3328 4.84948 -0.0708392 0
M  V30 334 H 25.2118 4.47744 1.09757 0
M  V30 335 H 28.7558 6.82764 -1.43106 0
M  V30 336 H 24.6528 6.44994 -0.255593 0
M  V30 337 H 25.4208 8.02571 -1.6069 0
M  V30 338 N 28.0839 -0.256276 1.55502 0
M  V30 339 C 29.0469 -1.30047 1.88734 0
M  V30 340 C 30.0469 -1.4154 0.763086 0
M  V30 341 O 31.2369 -1.40403 1.03115 0
M  V30 342 C 28.3689 -2.67953 2.10747 0
M  V30 343 H 29.5619 -1.01802 2.82093 0
M  V30 344 H 27.1149 -0.495134 1.4825 0
M  V30 345 H 27.8499 -3.01351 1.19825 0
M  V30 346 H 27.6349 -2.60993 2.92617 0
M  V30 347 H 29.1249 -3.43368 2.37673 0
M  V30 348 N 29.562 -1.4872 -0.521534 0
M  V30 349 C 30.472 -1.66569 -1.65203 0
M  V30 350 C 31.488 -0.548197 -1.65139 0
M  V30 351 O 32.664 -0.820339 -1.83936 0
M  V30 352 C 29.729 -1.70917 -3.01642 0
M  V30 353 C 28.79 -2.94356 -3.12495 0
M  V30 354 C 28.023 -2.98487 -4.42426 0
M  V30 355 O 28.246 -2.10786 -5.30024 0
M  V30 356 O 27.18 -3.90746 -4.57822 0
M  V30 357 H 31.006 -2.62298 -1.5308 0
M  V30 358 H 28.591 -1.3222 -0.695565 0
M  V30 359 H 30.473 -1.7625 -3.82771 0
M  V30 360 H 29.148 -0.783633 -3.14071 0
M  V30 361 H 28.055 -2.94552 -2.3063 0
M  V30 362 H 29.388 -3.86322 -3.04986 0
M  V30 363 N 31.0401 0.771051 -1.3745 0
M  V30 364 C 31.9501 1.91538 -1.35464 0
M  V30 365 C 32.9661 1.72134 -0.254123 0
M  V30 366 O 34.1421 1.95358 -0.489626 0
M  V30 367 C 31.2071 3.26671 -1.16134 0
M  V30 368 C 30.2681 3.58723 -2.35831 0
M  V30 369 C 29.5011 4.87409 -2.17413 0
M  V30 370 O 29.7241 5.58506 -1.15876 0
M  V30 371 O 28.6581 5.18539 -3.05615 0
M  V30 372 H 32.4841 1.96165 -2.31847 0
M  V30 373 H 30.0691 0.9139 -1.18187 0
M  V30 374 H 31.9511 4.07499 -1.07345 0
M  V30 375 H 30.6261 3.22894 -0.228251 0
M  V30 376 H 29.5331 2.78127 -2.50192 0
M  V30 377 H 30.8661 3.67243 -3.27709 0
M  V30 378 N 32.5182 1.22032 0.997298 0
M  V30 379 C 33.4652 0.986467 2.08656 0
M  V30 380 C 34.4352 -0.0902671 1.65855 0
M  V30 381 O 35.6202 0.0584294 1.90711 0
M  V30 382 C 32.7602 0.565569 3.40434 0
M  V30 383 C 31.8732 1.71259 3.96604 0
M  V30 384 C 31.0082 1.24011 5.16522 0
M  V30 385 C 30.0472 2.35896 5.64818 0
M  V30 386 N 29.1842 1.89726 6.7598 0
M  V30 387 H 34.0242 1.91892 2.27994 0
M  V30 388 H 31.5612 0.956199 1.11782 0
M  V30 389 H 33.5192 0.302738 4.161 0
M  V30 390 H 32.1492 -0.329879 3.2111 0
M  V30 391 H 31.2012 2.08986 3.17851 0
M  V30 392 H 32.5132 2.55436 4.28432 0
M  V30 393 H 31.6672 0.934395 5.99461 0
M  V30 394 H 30.4062 0.368487 4.86306 0
M  V30 395 H 29.4112 2.67261 4.8047 0
M  V30 396 H 30.6362 3.23567 5.97061 0
M  V30 397 H 28.5822 1.0492 6.47555 0
M  V30 398 H 28.4992 2.67471 7.07103 0
M  V30 399 H 29.7672 1.62211 7.62435 0
M  V30 400 N 33.9963 -1.19345 1.0293 0
M  V30 401 C 35.4073 -1.70725 0.755633 0
M  V30 402 C 35.7583 -1.82326 -0.724676 0
M  V30 403 O 34.8833 -1.49471 -1.56484 0
M  V30 404 C 35.4783 -3.10084 1.36503 0
M  V30 405 C 34.0373 -3.58723 1.13994 0
M  V30 406 C 33.1843 -2.35577 1.46283 0
M  V30 407 H 36.1353 -1.0418 1.19718 0
M  V30 408 H 36.1563 -3.72787 0.762217 0
M  V30 409 H 35.6683 -3.01609 2.44241 0
M  V30 410 H 33.7693 -3.72512 0.0807901 0
M  V30 411 H 33.8823 -4.42816 1.82894 0
M  V30 412 H 32.2463 -2.38935 0.88217 0
M  V30 413 H 33.0293 -2.29731 2.55105 0
M  V30 414 N 35.4744 -0.807222 -1.35358 0
M  V30 415 C 36.7144 -0.393534 -2.00576 0
M  V30 416 C 37.0784 1.0203 -1.62647 0
M  V30 417 O 38.2794 1.53603 -2.20589 0
M  V30 418 C 36.5504 -0.572017 -3.52793 0
M  V30 419 S 38.1094 -0.248845 -4.38094 0
M  V30 420 H 34.9274 -0.149425 -0.695121 0
M  V30 421 H 37.5294 -1.04961 -1.64935 0
M  V30 422 H 36.2334 -1.60097 -3.77885 0
M  V30 423 H 35.7644 0.099359 -3.93275 0
M  V30 424 H 37.7794 0.943253 -4.87152 0
M  V30 425 N 36.9525 1.47285 -0.560781 0
M  V30 426 C 38.2005 2.02064 -0.0379868 0
M  V30 427 C 38.5215 1.43711 1.31803 0
M  V30 428 O 37.7915 0.61362 1.86042 0
M  V30 429 H 36.3715 0.746918 -0.0110531 0
M  V30 430 H 39.0335 1.80648 -0.731598 0
M  V30 431 H 38.1295 3.12064 0.0474463 0
M  V30 432 N 38.4306 0.297415 1.54768 0
M  V30 433 C 39.6776 -0.312913 2.00068 0
M  V30 434 C 40.0056 -1.54171 1.18582 0
M  V30 435 O 39.2606 -1.94108 0.249133 0
M  V30 436 C 39.5596 -0.717561 3.50123 0
M  V30 437 C 39.2256 0.409095 4.4904 0
M  V30 438 C 37.8876 0.718399 4.75807 0
M  V30 439 C 40.2396 1.16717 5.07963 0
M  V30 440 C 37.5676 1.78896 5.5876 0
M  V30 441 C 39.9196 2.22762 5.92081 0
M  V30 442 C 38.5836 2.54303 6.1716 0
M  V30 443 H 37.8536 -0.114503 0.7321 0
M  V30 444 H 40.5006 0.415767 1.86932 0
M  V30 445 H 38.8056 -1.52627 3.60849 0
M  V30 446 H 40.5026 -1.20091 3.82595 0
M  V30 447 H 37.0926 0.157918 4.28309 0
M  V30 448 H 41.2766 0.941466 4.87289 0
M  V30 449 H 36.5326 2.0381 5.7643 0
M  V30 450 H 40.7066 2.81962 6.36765 0
M  V30 451 H 38.3336 3.3739 6.81229 0
M  V30 452 N 39.9087 -1.5758 0.0250728 0
M  V30 453 C 41.3197 -1.79476 -0.514323 0
M  V30 454 C 41.6707 -0.934956 -1.72491 0
M  V30 455 O 40.7957 -0.144245 -2.15919 0
M  V30 456 C 41.3907 -3.25503 -0.939842 0
M  V30 457 C 39.9497 -3.48408 -1.42438 0
M  V30 458 C 39.0967 -2.74583 -0.387201 0
M  V30 459 H 42.0477 -1.567 0.25113 0
M  V30 460 H 42.0687 -3.34992 -1.80445 0
M  V30 461 H 41.5807 -3.88056 -0.0585628 0
M  V30 462 H 39.6817 -2.91103 -2.32572 0
M  V30 463 H 39.7947 -4.57119 -1.43455 0
M  V30 464 H 38.1587 -2.39942 -0.854409 0
M  V30 465 H 38.9417 -3.39849 0.485543 0
M  V30 466 N 41.3868 0.248026 -1.55636 0
M  V30 467 C 42.3368 1.30994 -1.86614 0
M  V30 468 C 43.3208 1.43543 -0.726918 0
M  V30 469 O 44.5128 1.46804 -0.988818 0
M  V30 470 C 41.6418 2.6656 -2.16335 0
M  V30 471 C 40.7278 2.58019 -3.36581 0
M  V30 472 N 41.1188 2.1911 -4.55878 0
M  V30 473 C 39.4168 2.89035 -3.39669 0
M  V30 474 C 40.1178 2.21174 -5.38012 0
M  V30 475 N 39.0938 2.60632 -4.77045 0
M  V30 476 H 42.8958 0.999583 -2.76379 0
M  V30 477 H 40.4098 0.456652 -1.55848 0
M  V30 478 H 42.4068 3.43194 -2.36692 0
M  V30 479 H 41.0668 2.98463 -1.27867 0
M  V30 480 H 42.0778 1.90672 -4.81523 0
M  V30 481 H 38.7548 3.25485 -2.61469 0
M  V30 482 H 40.1448 1.9344 -6.43452 0
M  V30 483 N 42.8649 1.48995 0.513639 0
M  V30 484 C 44.1109 1.58076 1.27042 0
M  V30 485 C 44.4439 0.261026 1.92438 0
M  V30 486 O 43.7189 -0.734393 1.80103 0
M  V30 487 C 44.0019 2.73091 2.34719 0
M  V30 488 C 43.8549 4.14821 1.73907 0
M  V30 489 C 45.1739 2.83796 3.36375 0
M  V30 490 H 42.2929 0.575391 0.460536 0
M  V30 491 H 44.9349 1.81232 0.570516 0
M  V30 492 H 43.0849 2.53479 2.94416 0
M  V30 493 H 44.7569 4.45917 1.18135 0
M  V30 494 H 42.9999 4.21058 1.0437 0
M  V30 495 H 43.6709 4.91147 2.51949 0
M  V30 496 H 46.1469 3.01611 2.86653 0
M  V30 497 H 45.0229 3.65971 4.09093 0
M  V30 498 H 45.2839 1.92624 3.9793 0
M  V30 499 N 44.343 -0.763751 1.37857 0
M  V30 500 C 45.253 -1.90817 1.36478 0
M  V30 501 C 46.269 -1.71997 0.263248 0
M  V30 502 O 47.445 -1.95095 0.499979 0
M  V30 503 C 44.51 -3.2605 1.17864 0
M  V30 504 C 43.571 -3.57467 2.3773 0
M  V30 505 C 42.804 -4.86249 2.19995 0
M  V30 506 O 43.027 -5.57884 1.18836 0
M  V30 507 O 41.961 -5.16911 3.08361 0
M  V30 508 H 45.787 -1.94933 2.32884 0
M  V30 509 H 43.372 -0.907619 1.1867 0
M  V30 510 H 45.254 -4.06924 1.09504 0
M  V30 511 H 43.929 -3.22769 0.245372 0
M  V30 512 H 42.836 -2.76796 2.51664 0
M  V30 513 H 44.169 -3.655 3.29652 0
M  V30 514 N 45.8211 -1.22559 -0.990812 0
M  V30 515 C 46.7691 -0.994798 -2.10253 0
M  V30 516 C 47.7631 0.0627798 -1.69284 0
M  V30 517 O 48.9691 -0.0898392 -1.79776 0
M  V30 518 H 45.3441 -0.304527 -0.687581 0
M  V30 519 H 47.3151 -1.93812 -2.26891 0
M  V30 520 C 46.0641 -0.591439 -3.42633 0
M  V30 521 H 45.3871 -1.3969 -3.74602 0
M  V30 522 H 46.8271 -0.469385 -4.21394 0
M  V30 523 C 45.2861 0.699232 -3.29564 0
M  V30 524 O 45.8161 1.75112 -3.61523 0
M  V30 525 N 44.0221 0.671182 -2.82743 0
M  V30 526 H 43.5691 -0.185136 -2.56934 0
M  V30 527 H 43.5271 1.53502 -2.7438 0
M  V30 528 N 47.2992 1.18797 -1.03562 0
M  V30 529 C 48.5472 1.88278 -0.734569 0
M  V30 530 C 48.8682 1.8043 0.739586 0
M  V30 531 O 48.1382 1.21925 1.53333 0
M  V30 532 H 46.7182 0.696991 -0.268725 0
M  V30 533 H 49.3802 1.44192 -1.31129 0
M  V30 534 H 48.4762 2.94443 -1.03489 0
M  V30 535 N 48.7773 0.814389 1.34928 0
M  V30 536 C 50.1933 0.499084 1.51596 0
M  V30 537 C 50.3933 -0.978319 1.76157 0
M  V30 538 O 49.4493 -1.76309 1.80752 0
M  V30 539 C 50.7623 1.35121 2.68631 0
M  V30 540 C 52.3103 1.34746 2.82511 0
M  V30 541 C 52.7853 2.18388 4.0258 0
M  V30 542 N 54.2763 2.15966 4.09772 0
M  V30 543 C 55.0113 2.77437 5.01813 0
M  V30 544 N 54.5073 3.47866 5.99134 0
M  V30 545 N 56.3003 2.67037 4.94619 0
M  V30 546 H 48.4513 1.7711 1.17243 0
M  V30 547 H 50.7143 0.754256 0.574284 0
M  V30 548 H 50.4203 2.40001 2.57085 0
M  V30 549 H 50.2943 1.00991 3.63429 0
M  V30 550 H 52.6813 0.30648 2.93504 0
M  V30 551 H 52.7623 1.72869 1.88547 0
M  V30 552 H 52.4063 3.2253 3.92347 0
M  V30 553 H 52.3363 1.77621 4.9574 0
M  V30 554 H 54.8273 1.64729 3.40107 0
M  V30 555 H 55.1403 3.92038 6.65977 0
M  V30 556 H 53.4853 3.51972 5.99284 0
M  V30 557 H 56.6763 2.11597 4.17546 0
M  V30 558 H 56.8493 3.15232 5.66156 0
M  V30 559 N 50.2554 -1.46986 0.568584 0
M  V30 560 C 51.5044 -2.01646 0.0465894 0
M  V30 561 C 51.8174 -1.44721 -1.31587 0
M  V30 562 O 53.0234 -1.91113 -1.92842 0
M  V30 563 C 51.4794 -3.59885 0.032752 0
M  V30 564 C 51.0874 -4.25804 1.39266 0
M  V30 565 C 52.8314 -4.22255 -0.436038 0
M  V30 566 C 50.7384 -5.76081 1.33732 0
M  V30 567 H 49.6684 -0.753876 0.013647 0
M  V30 568 H 52.3194 -1.68864 0.718131 0
M  V30 569 H 50.7014 -3.8968 -0.704669 0
M  V30 570 H 51.8754 -4.07637 2.1487 0
M  V30 571 H 50.1904 -3.7547 1.80032 0
M  V30 572 H 52.7874 -5.32394 -0.49602 0
M  V30 573 H 53.1304 -3.90212 -1.45053 0
M  V30 574 H 53.6634 -3.97033 0.246877 0
M  V30 575 H 50.4024 -6.12761 2.32817 0
M  V30 576 H 49.9224 -5.96553 0.623267 0
M  V30 577 H 51.6014 -6.38518 1.0442 0
M  V30 578 N 51.7335 -0.305618 -1.54608 0
M  V30 579 C 52.6965 0.555591 -2.22364 0
M  V30 580 C 53.6965 1.05768 -1.21119 0
M  V30 581 O 54.8865 0.952972 -1.45822 0
M  V30 582 C 52.0185 1.76974 -2.91364 0
M  V30 583 H 53.2115 -0.0364572 -2.99878 0
M  V30 584 H 50.7645 -0.0565007 -1.56198 0
M  V30 585 H 51.4995 2.40151 -2.17941 0
M  V30 586 H 51.2845 1.41732 -3.65588 0
M  V30 587 H 52.7745 2.38148 -3.43038 0
M  V30 588 N 53.2116 1.57565 -0.0334293 0
M  V30 589 C 54.1436 2.0739 0.975811 0
M  V30 590 C 55.1566 0.998166 1.2861 0
M  V30 591 O 56.3456 1.27426 1.25 0
M  V30 592 C 53.4456 2.4871 2.30209 0
M  V30 593 C 52.6186 3.79413 2.17634 0
M  V30 594 C 51.6776 4.07237 3.33233 0
M  V30 595 O 50.7036 4.77425 3.09927 0
M  V30 596 N 51.9056 3.5775 4.5716 0
M  V30 597 H 54.6706 2.94598 0.55066 0
M  V30 598 H 52.2316 1.61173 0.15323 0
M  V30 599 H 54.2236 2.64413 3.06378 0
M  V30 600 H 52.7936 1.66845 2.64351 0
M  V30 601 H 52.0136 3.73465 1.26165 0
M  V30 602 H 53.3016 4.65038 2.0644 0
M  V30 603 H 52.6996 3.00976 4.78989 0
M  V30 604 H 51.2566 3.78724 5.30482 0
M  V30 605 N 54.6897 -0.239769 1.55765 0
M  V30 606 C 55.9197 -0.982743 1.8173 0
M  V30 607 C 56.3277 -1.7917 0.607835 0
M  V30 608 O 55.6707 -1.78525 -0.432973 0
M  V30 609 C 55.7327 -1.96332 3.01155 0
M  V30 610 C 55.3967 -1.34062 4.36894 0
M  V30 611 C 56.3937 -0.739539 5.14613 0
M  V30 612 C 54.0787 -1.35784 4.83599 0
M  V30 613 C 56.0727 -0.163989 6.37189 0
M  V30 614 C 53.7597 -0.778441 6.06122 0
M  V30 615 C 54.7577 -0.182548 6.82756 0
M  V30 616 O 54.4457 0.387887 8.02964 0
M  V30 617 H 54.1777 -0.294481 0.608487 0
M  V30 618 H 56.7317 -0.26572 2.03674 0
M  V30 619 H 54.9617 -2.71884 2.74984 0
M  V30 620 H 56.6507 -2.57032 3.14149 0
M  V30 621 H 57.4167 -0.718687 4.79646 0
M  V30 622 H 53.2957 -1.81105 4.23936 0
M  V30 623 H 56.8397 0.301753 6.96947 0
M  V30 624 H 52.7367 -0.796645 6.40565 0
M  V30 625 H 53.5047 0.28044 8.18019 0
M  V30 626 N 56.1678 -1.49265 -0.50573 0
M  V30 627 C 57.3978 -1.61979 -1.28243 0
M  V30 628 C 57.8058 -0.288576 -1.86986 0
M  V30 629 O 57.1488 0.735408 -1.68337 0
M  V30 630 C 57.2108 -2.62632 -2.45489 0
M  V30 631 C 56.8748 -4.071 -2.07651 0
M  V30 632 C 57.8718 -4.94049 -1.61901 0
M  V30 633 C 55.5568 -4.52801 -2.17431 0
M  V30 634 C 57.5508 -6.24736 -1.26428 0
M  V30 635 C 55.2378 -5.83503 -1.8157 0
M  V30 636 C 56.2358 -6.69294 -1.36142 0
M  V30 637 O 55.9238 -7.9756 -1.00764 0
M  V30 638 H 55.6558 -0.54834 -0.395347 0
M  V30 639 H 58.2098 -1.96002 -0.614204 0
M  V30 640 H 56.4398 -2.2378 -3.15372 0
M  V30 641 H 58.1288 -2.64925 -3.07522 0
M  V30 642 H 58.8948 -4.5997 -1.53795 0
M  V30 643 H 54.7738 -3.86196 -2.51742 0
M  V30 644 H 58.3178 -6.91652 -0.908992 0
M  V30 645 H 54.2148 -6.17112 -1.89324 0
M  V30 646 H 54.9828 -8.10529 -1.13952 0
M  V30 647 N 57.6459 0.756429 -1.3826 0
M  V30 648 C 58.8759 1.54341 -1.3734 0
M  V30 649 C 59.2839 1.89159 0.0393917 0
M  V30 650 O 58.6269 1.5307 1.01565 0
M  V30 651 C 58.6889 2.87238 -2.16182 0
M  V30 652 C 58.3529 2.74973 -3.65019 0
M  V30 653 C 59.3499 2.44962 -4.58574 0
M  V30 654 C 57.0349 2.92515 -4.08338 0
M  V30 655 C 59.0289 2.32642 -5.93428 0
M  V30 656 C 56.7159 2.79815 -5.43274 0
M  V30 657 C 57.7139 2.49921 -6.35632 0
M  V30 658 O 57.4019 2.37275 -7.68086 0
M  V30 659 H 57.1339 0.484281 -0.471643 0
M  V30 660 H 59.6879 0.944152 -1.82414 0
M  V30 661 H 57.9179 3.49342 -1.65822 0
M  V30 662 H 59.6069 3.48731 -2.07705 0
M  V30 663 H 60.3729 2.31081 -4.26412 0
M  V30 664 H 56.2519 3.14781 -3.368 0
M  V30 665 H 59.7959 2.0923 -6.65484 0
M  V30 666 H 55.6929 2.93269 -5.75034 0
M  V30 667 H 56.4609 2.52509 -7.78577 0
M  V30 668 N 59.124 1.23083 0.984299 0
M  V30 669 C 60.352 1.08714 1.76037 0
M  V30 670 C 60.767 -0.361691 1.85303 0
M  V30 671 O 60.124 -1.25034 1.32939 0
M  V30 672 C 60.175 1.70206 3.18923 0
M  V30 673 O 59.896 3.09423 3.10144 0
M  V30 674 C 61.397 1.61227 4.12941 0
M  V30 675 H 58.617 0.380664 0.552572 0
M  V30 676 H 61.161 1.62853 1.23689 0
M  V30 677 H 59.316 1.20109 3.6831 0
M  V30 678 H 59.73 3.39188 4.00065 0
M  V30 679 H 61.204 2.08962 5.10919 0
M  V30 680 H 61.681 0.570375 4.35481 0
M  V30 681 H 62.287 2.10671 3.69456 0
M  V30 682 N 60.6021 -1.18246 1.0419 0
M  V30 683 C 61.8491 -1.88257 0.746017 0
M  V30 684 C 62.1771 -1.80429 -0.726331 0
M  V30 685 O 61.4321 -1.2 -1.54591 0
M  V30 686 C 61.7311 -3.38082 1.15911 0
M  V30 687 C 61.3971 -3.66114 2.63195 0
M  V30 688 C 60.0591 -3.73474 3.03432 0
M  V30 689 C 62.4111 -3.78398 3.5842 0
M  V30 690 C 59.7391 -3.90599 4.37778 0
M  V30 691 C 62.0911 -3.97039 4.92487 0
M  V30 692 C 60.7551 -4.02635 5.32392 0
M  V30 693 H 60.0251 -0.688883 0.272987 0
M  V30 694 H 62.6721 -1.3995 1.30715 0
M  V30 695 H 60.9771 -3.88377 0.516806 0
M  V30 696 H 62.6741 -3.90596 0.907516 0
M  V30 697 H 59.2641 -3.61003 2.3103 0
M  V30 698 H 63.4481 -3.72042 3.28479 0
M  V30 699 H 58.7041 -3.93175 4.68213 0
M  V30 700 H 62.8781 -4.05486 5.66175 0
M  V30 701 H 60.5051 -4.15657 6.36501 0
M  V30 702 N 62.0802 -0.821533 -1.34494 0
M  V30 703 C 63.0272 -0.240397 -2.29545 0
M  V30 704 C 63.9972 0.634031 -1.53523 0
M  V30 705 O 65.1822 0.575966 -1.81899 0
M  V30 706 C 62.3222 0.592869 -3.39969 0
M  V30 707 C 61.4352 -0.30365 -4.30932 0
M  V30 708 C 60.5702 0.539049 -5.28458 0
M  V30 709 C 59.6092 -0.356942 -6.11058 0
M  V30 710 N 58.7462 0.446603 -7.00678 0
M  V30 711 H 63.5862 -1.05632 -2.7865 0
M  V30 712 H 61.1232 -0.532413 -1.37127 0
M  V30 713 H 63.0812 1.09129 -4.02675 0
M  V30 714 H 61.7112 1.37392 -2.92102 0
M  V30 715 H 60.7632 -0.920276 -3.691 0
M  V30 716 H 62.0752 -0.992661 -4.88823 0
M  V30 717 H 61.2292 1.102 -5.96608 0
M  V30 718 H 59.9682 1.26157 -4.71101 0
M  V30 719 H 58.9732 -0.932047 -5.41842 0
M  V30 720 H 60.1982 -1.07755 -6.70497 0
M  V30 721 H 58.1442 1.15282 -6.45791 0
M  V30 722 H 58.0612 -0.184048 -7.55776 0
M  V30 723 H 59.3292 0.992352 -7.73158 0
M  V30 724 N 63.5583 1.46682 -0.576371 0
M  V30 725 C 64.7833 2.07304 -0.0630475 0
M  V30 726 C 65.2083 1.42329 1.2298 0
M  V30 727 O 64.5663 0.504865 1.74129 0
M  V30 728 C 64.6143 3.60472 0.095895 0
M  V30 729 O 63.7183 3.95927 1.15394 0
M  V30 730 H 63.0593 0.661288 -0.0599463 0
M  V30 731 H 65.5893 1.88417 -0.797511 0
M  V30 732 H 65.5993 4.06865 0.304071 0
M  V30 733 H 64.2743 4.07157 -0.84828 0
M  V30 734 H 62.8513 3.61252 0.924724 0
M  V30 735 N 65.0364 0.313813 1.54444 0
M  V30 736 C 66.2834 -0.291675 2.00388 0
M  V30 737 C 66.6114 -1.52904 1.2021 0
M  V30 738 O 65.8664 -1.93833 0.269707 0
M  V30 739 C 66.1654 -0.680386 3.50864 0
M  V30 740 C 65.8314 0.456699 4.48581 0
M  V30 741 C 64.4934 0.768824 4.75018 0
M  V30 742 C 66.8454 1.22098 5.06697 0
M  V30 743 C 64.1734 1.84812 5.56831 0
M  V30 744 C 66.5254 2.29029 5.89685 0
M  V30 745 C 65.1894 2.60834 6.14428 0
M  V30 746 H 64.4594 -0.106732 0.733273 0
M  V30 747 H 67.1064 0.43557 1.86481 0
M  V30 748 H 65.4114 -1.48791 3.62448 0
M  V30 749 H 67.1084 -1.16026 3.83847 0
M  V30 750 H 63.6984 0.203337 4.28117 0
M  V30 751 H 67.8824 0.993096 4.86263 0
M  V30 752 H 63.1384 2.09912 5.74236 0
M  V30 753 H 67.3124 2.887 6.33739 0
M  V30 754 H 64.9394 3.44596 6.77612 0
M  V30 755 N 66.5145 -1.57545 0.0417849 0
M  V30 756 C 67.7445 -1.96339 -0.642995 0
M  V30 757 C 68.1525 -0.917536 -1.65463 0
M  V30 758 O 67.4955 0.107747 -1.83384 0
M  V30 759 C 67.5575 -3.31333 -1.39494 0
M  V30 760 C 67.2215 -4.53796 -0.540204 0
M  V30 761 C 68.2185 -5.19553 0.189806 0
M  V30 762 C 65.9035 -5.0006 -0.473886 0
M  V30 763 C 67.8975 -6.29904 0.974674 0
M  V30 764 C 65.5845 -6.10289 0.314677 0
M  V30 765 C 66.5825 -6.75072 1.03765 0
M  V30 766 O 66.2705 -7.83183 1.81327 0
M  V30 767 H 66.0025 -0.651241 -0.181277 0
M  V30 768 H 68.5565 -2.05148 0.101665 0
M  V30 769 H 66.7865 -3.19052 -2.18502 0
M  V30 770 H 68.4755 -3.54942 -1.96904 0
M  V30 771 H 69.2415 -4.84774 0.147981 0
M  V30 772 H 65.1205 -4.49433 -1.0262 0
M  V30 773 H 68.6645 -6.80401 1.5395 0
M  V30 774 H 64.5615 -6.44506 0.358174 0
M  V30 775 H 65.3295 -7.99913 1.73438 0
M  V30 776 N 67.9926 0.231505 -1.5589 0
M  V30 777 C 69.2396 0.957352 -1.78441 0
M  V30 778 C 69.5676 1.84726 -0.60882 0
M  V30 779 O 68.8226 1.91416 0.40725 0
M  V30 780 C 69.1216 1.83577 -3.0665 0
M  V30 781 C 68.7876 1.09993 -4.37278 0
M  V30 782 C 67.4496 0.896629 -4.72773 0
M  V30 783 C 69.8016 0.579558 -5.17968 0
M  V30 784 C 67.1296 0.160896 -5.86479 0
M  V30 785 C 69.4816 -0.142783 -6.32439 0
M  V30 786 C 68.1456 -0.357427 -6.66542 0
M  V30 787 H 67.4156 0.35032 -0.65296 0
M  V30 788 H 70.0626 0.226259 -1.90159 0
M  V30 789 H 68.3676 2.63441 -2.90011 0
M  V30 790 H 70.0646 2.39934 -3.21298 0
M  V30 791 H 66.6546 1.26835 -4.09403 0
M  V30 792 H 70.8386 0.724125 -4.90989 0
M  V30 793 H 66.0946 -0.0157293 -6.11398 0
M  V30 794 H 70.2686 -0.553559 -6.94196 0
M  V30 795 H 67.8956 -0.929466 -7.54497 0
M  V30 796 N 69.4707 1.49531 0.497807 0
M  V30 797 C 70.8817 1.52344 1.07927 0
M  V30 798 C 71.2327 0.311469 1.93712 0
M  V30 799 O 70.3577 -0.578405 2.08527 0
M  V30 800 C 70.9527 2.76062 1.96405 0
M  V30 801 C 69.5117 2.81643 2.49709 0
M  V30 802 C 68.6587 2.46299 1.27404 0
M  V30 803 H 71.6097 1.56182 0.281576 0
M  V30 804 H 71.6307 2.56405 2.81135 0
M  V30 805 H 71.1427 3.64254 1.33943 0
M  V30 806 H 69.2437 1.97739 3.15801 0
M  V30 807 H 69.3567 3.83891 2.86643 0
M  V30 808 H 67.7207 1.98148 1.60029 0
M  V30 809 H 68.5037 3.36769 0.66645 0
M  V30 810 N 70.9488 -0.749086 1.3866 0
M  V30 811 C 71.8818 -1.87111 1.30631 0
M  V30 812 C 72.8598 -1.61572 0.18251 0
M  V30 813 O 74.0438 -1.85019 0.360592 0
M  V30 814 C 71.1708 -3.22815 1.02511 0
M  V30 815 C 70.2168 -3.67234 2.1689 0
M  V30 816 S 71.0498 -3.78245 3.79066 0
M  V30 817 C 72.2058 -5.16761 3.53142 0
M  V30 818 H 72.4388 -1.93636 2.25594 0
M  V30 819 H 69.9718 -0.912525 1.24549 0
M  V30 820 H 71.9298 -4.01181 0.869701 0
M  V30 821 H 70.5908 -3.13964 0.0925884 0
M  V30 822 H 69.7838 -4.65677 1.92771 0
M  V30 823 H 69.3858 -2.96034 2.28561 0
M  V30 824 H 71.6778 -6.02656 3.09534 0
M  V30 825 H 72.6208 -5.45902 4.50995 0
M  V30 826 H 73.0288 -4.85771 2.87554 0
M  V30 827 N 72.4269 -1.23603 -0.977757 0
M  V30 828 C 73.6519 -1.09735 -1.75991 0
M  V30 829 C 74.0769 0.346858 -1.84874 0
M  V30 830 O 73.4349 1.25093 -1.3123 0
M  V30 831 C 73.4829 -1.73051 -3.16363 0
M  V30 832 O 72.5869 -0.994452 -4.0023 0
M  V30 833 H 71.9279 -0.384476 -0.541364 0
M  V30 834 H 74.4579 -1.6371 -1.2272 0
M  V30 835 H 74.4679 -1.78398 -3.66931 0
M  V30 836 H 73.1429 -2.78137 -3.09213 0
M  V30 837 H 71.7199 -1.01812 -3.58732 0
M  V30 838 N 73.905 1.17692 -1.04816 0
M  V30 839 C 75.154 1.87192 -0.751132 0
M  V30 840 C 75.467 1.8169 0.724441 0
M  V30 841 O 76.673 2.46625 1.13527 0
M  V30 842 C 75.129 3.35857 -1.29338 0
M  V30 843 C 74.737 3.4987 -2.79812 0
M  V30 844 C 76.481 4.10709 -1.07322 0
M  V30 845 C 74.388 4.92536 -3.27356 0
M  V30 846 H 73.318 0.701162 -0.277288 0
M  V30 847 H 75.969 1.32932 -1.26496 0
M  V30 848 H 74.351 3.89631 -0.707376 0
M  V30 849 H 75.525 3.06332 -3.44235 0
M  V30 850 H 73.84 2.88433 -3.00325 0
M  V30 851 H 76.437 5.15952 -1.4035 0
M  V30 852 H 76.78 4.16299 -0.0108001 0
M  V30 853 H 77.313 3.6313 -1.62423 0
M  V30 854 H 74.052 4.92119 -4.33012 0
M  V30 855 H 73.572 5.3676 -2.67673 0
M  V30 856 H 75.251 5.61288 -3.21815 0
M  V30 857 N 75.3831 0.828654 1.34056 0
M  V30 858 C 76.6601 0.341809 1.9259 0
M  V30 859 C 77.0401 -1.17158 1.75605 0
M  V30 860 O 76.3881 -1.98132 1.13824 0
M  V30 861 C 76.5981 0.777453 3.4023 0
M  V30 862 C 77.9461 0.779579 4.17382 0
M  V30 863 O 78.9701 0.7204 3.48839 0
M  V30 864 O 77.8291 0.857996 5.39723 0
M  V30 865 H 74.9231 0.0946085 0.821571 0
M  V30 866 H 77.4691 0.913827 1.42994 0
M  V30 867 H 76.2411 1.8196 3.46419 0
M  V30 868 H 75.8641 0.181444 3.97186 0
M  V30 869 N 76.8612 -1.46375 0.584142 0
M  V30 870 C 77.8082 -2.30323 -0.148286 0
M  V30 871 C 78.7782 -1.40703 -0.882713 0
M  V30 872 O 79.9632 -1.69651 -0.873099 0
M  V30 873 C 77.1032 -3.25196 -1.15507 0
M  V30 874 C 76.2162 -4.29915 -0.423943 0
M  V30 875 C 75.3512 -5.11914 -1.41838 0
M  V30 876 C 74.3902 -6.08381 -0.673736 0
M  V30 877 N 73.5272 -6.83242 -1.6163 0
M  V30 878 H 78.3672 -2.92427 0.573644 0
M  V30 879 H 75.9042 -1.44118 0.294703 0
M  V30 880 H 77.8622 -3.78646 -1.75166 0
M  V30 881 H 76.4922 -2.64898 -1.8447 0
M  V30 882 H 75.5442 -3.7931 0.287714 0
M  V30 883 H 76.8562 -4.98549 0.158128 0
M  V30 884 H 76.0102 -5.69648 -2.08773 0
M  V30 885 H 74.7492 -4.43243 -2.03438 0
M  V30 886 H 73.7542 -5.49799 0.00938483 0
M  V30 887 H 74.9792 -6.79071 -0.0631082 0
M  V30 888 H 72.9252 -6.1728 -2.22038 0
M  V30 889 H 72.8422 -7.48144 -1.08707 0
M  V30 890 H 74.1102 -7.45534 -2.27596 0
M  V30 891 N 78.3393 -0.321999 -1.54275 0
M  V30 892 C 79.2863 0.544664 -2.24281 0
M  V30 893 C 80.2563 1.1129 -1.23303 0
M  V30 894 O 81.4413 1.15354 -1.51981 0
M  V30 895 C 78.5813 1.70045 -3.00298 0
M  V30 896 C 77.6943 1.16159 -4.1609 0
M  V30 897 C 76.8293 2.28293 -4.79641 0
M  V30 898 C 75.8683 1.71648 -5.8754 0
M  V30 899 N 75.0053 2.77438 -6.44959 0
M  V30 900 H 79.8453 -0.0588907 -2.97942 0
M  V30 901 H 77.3823 -0.0408345 -1.47043 0
M  V30 902 H 79.3403 2.38054 -3.42616 0
M  V30 903 H 77.9703 2.27531 -2.28975 0
M  V30 904 H 77.0223 0.373092 -3.78566 0
M  V30 905 H 78.3343 0.707087 -4.93763 0
M  V30 906 H 77.4883 3.0421 -5.2492 0
M  V30 907 H 76.2273 2.77079 -4.01346 0
M  V30 908 H 75.2323 0.942282 -5.41665 0
M  V30 909 H 76.4573 1.23741 -6.67731 0
M  V30 910 H 74.4033 3.25519 -5.69538 0
M  V30 911 H 74.3203 2.36547 -7.1804 0
M  V30 912 H 75.5883 3.53189 -6.94894 0
M  V30 913 N 79.8174 1.5752 -0.0501392 0
M  V30 914 C 80.7474 2.14502 0.922566 0
M  V30 915 C 81.7284 1.06642 1.3252 0
M  V30 916 O 82.9134 1.34577 1.4001 0
M  V30 917 C 80.0434 2.68916 2.19776 0
M  V30 918 C 78.9974 3.8175 1.93523 0
M  V30 919 C 78.3234 4.22677 3.27487 0
M  V30 920 C 79.6234 5.06932 1.25765 0
M  V30 921 H 81.3174 2.9603 0.447952 0
M  V30 922 H 78.8634 1.42401 0.214024 0
M  V30 923 H 80.8164 3.07419 2.88222 0
M  V30 924 H 79.5404 1.84578 2.69441 0
M  V30 925 H 78.1994 3.43718 1.27489 0
M  V30 926 H 77.8474 3.35291 3.74952 0
M  V30 927 H 77.5474 4.98725 3.1072 0
M  V30 928 H 79.0714 4.63779 3.97166 0
M  V30 929 H 80.4854 5.42888 1.84244 0
M  V30 930 H 78.8824 5.88116 1.19328 0
M  V30 931 H 79.9524 4.84337 0.233536 0
M  V30 932 N 81.2955 -0.223234 1.56011 0
M  V30 933 C 82.5205 -0.968978 1.83373 0
M  V30 934 C 82.9455 -1.77227 0.630254 0
M  V30 935 O 82.3035 -1.76345 -0.420959 0
M  V30 936 C 82.3515 -1.86363 3.08709 0
M  V30 937 O 81.4555 -2.95873 2.87285 0
M  V30 938 H 80.7965 -0.274461 0.604622 0
M  V30 939 H 83.3265 -0.237056 2.03222 0
M  V30 940 H 83.3365 -2.27376 3.38768 0
M  V30 941 H 82.0115 -1.27319 3.95933 0
M  V30 942 H 80.5885 -2.58818 2.68454 0
M  V30 943 N 82.7736 -1.49793 -0.48987 0
M  V30 944 C 84.0206 -1.59841 -1.24327 0
M  V30 945 C 84.3486 -0.290135 -1.92324 0
M  V30 946 O 83.6036 0.722749 -1.81865 0
M  V30 947 C 83.9026 -2.71488 -2.32441 0
M  V30 948 C 83.5686 -4.12614 -1.81826 0
M  V30 949 C 82.2306 -4.51017 -1.67742 0
M  V30 950 C 84.5826 -5.00892 -1.4407 0
M  V30 951 C 81.9106 -5.75459 -1.14297 0
M  V30 952 C 84.2626 -6.25863 -0.920742 0
M  V30 953 C 82.9266 -6.63086 -0.766383 0
M  V30 954 H 82.1966 -0.584899 -0.454944 0
M  V30 955 H 84.8436 -1.83663 -0.542215 0
M  V30 956 H 83.1486 -2.4168 -3.0838 0
M  V30 957 H 84.8456 -2.76469 -2.90458 0
M  V30 958 H 81.4356 -3.82307 -1.93751 0
M  V30 959 H 85.6196 -4.7187 -1.53794 0
M  V30 960 H 80.8756 -6.02989 -1.01068 0
M  V30 961 H 85.0496 -6.9364 -0.619448 0
M  V30 962 H 82.6766 -7.59393 -0.350083 0
M  V30 963 N 84.2517 0.741722 -1.39055 0
M  V30 964 C 85.4987 1.50114 -1.35912 0
M  V30 965 C 85.8267 1.94443 0.0470937 0
M  V30 966 O 85.0817 1.66612 1.02659 0
M  V30 967 C 85.3807 2.7592 -2.27163 0
M  V30 968 C 85.0467 2.50493 -3.74919 0
M  V30 969 C 83.7087 2.43267 -4.1518 0
M  V30 970 C 86.0607 2.28585 -4.684 0
M  V30 971 C 83.3887 2.12166 -5.46994 0
M  V30 972 C 85.7407 1.99002 -6.00484 0
M  V30 973 C 84.4047 1.90241 -6.39816 0
M  V30 974 H 83.6747 0.549306 -0.497336 0
M  V30 975 H 86.3217 0.851896 -1.71508 0
M  V30 976 H 84.6267 3.45553 -1.84663 0
M  V30 977 H 86.3237 3.33923 -2.22028 0
M  V30 978 H 82.9137 2.56992 -3.43006 0
M  V30 979 H 87.0977 2.33139 -4.38132 0
M  V30 980 H 82.3537 2.03901 -5.76398 0
M  V30 981 H 86.5277 1.81057 -6.72452 0
M  V30 982 H 84.1547 1.65907 -7.41875 0
M  V30 983 N 85.7298 1.2412 0.971189 0
M  V30 984 C 86.9698 1.09066 1.7287 0
M  V30 985 C 87.3338 -0.364794 1.88503 0
M  V30 986 O 88.5348 -0.636748 2.61149 0
M  V30 987 C 86.8058 1.80629 3.08396 0
M  V30 988 S 88.3648 1.81263 3.99611 0
M  V30 989 H 85.1828 0.390145 0.594397 0
M  V30 990 H 87.7848 1.57397 1.15959 0
M  V30 991 H 86.4888 2.85647 2.94676 0
M  V30 992 H 86.0198 1.32617 3.70373 0
M  V30 993 H 88.0348 0.877804 4.88374 0
M  V30 994 N 87.2079 -1.17134 1.05439 0
M  V30 995 C 88.1379 -2.2342 0.678649 0
M  V30 996 C 89.1189 -1.66971 -0.32476 0
M  V30 997 O 90.3039 -1.93149 -0.201802 0
M  V30 998 C 87.4339 -3.47256 0.0552099 0
M  V30 999 C 86.3879 -4.16543 0.98365 0
M  V30 1000 C 85.7139 -5.34231 0.223961 0
M  V30 1001 C 87.0139 -4.68495 2.3089 0
M  V30 1002 H 88.7079 -2.55105 1.56722 0
M  V30 1003 H 86.2539 -1.2262 0.754998 0
M  V30 1004 H 88.2069 -4.20828 -0.21946 0
M  V30 1005 H 86.9309 -3.14846 -0.868319 0
M  V30 1006 H 85.5899 -3.44887 1.24293 0
M  V30 1007 H 85.2379 -4.98071 -0.702412 0
M  V30 1008 H 84.9379 -5.81527 0.842627 0
M  V30 1009 H 86.4619 -6.10585 -0.0433671 0
M  V30 1010 H 87.8759 -5.33691 2.09396 0
M  V30 1011 H 86.2729 -5.26379 2.88176 0
M  V30 1012 H 87.3429 -3.85169 2.94572 0
M  V30 1013 N 88.686 -0.835752 -1.33615 0
M  V30 1014 C 89.649 -0.272 -2.2758 0
M  V30 1015 C 90.649 0.557487 -1.50827 0
M  V30 1016 O 91.839 0.37173 -1.70188 0
M  V30 1017 C 88.971 0.617173 -3.35267 0
M  V30 1018 H 90.164 -1.10111 -2.78954 0
M  V30 1019 H 87.717 -0.608594 -1.43965 0
M  V30 1020 H 88.452 1.46884 -2.89129 0
M  V30 1021 H 88.237 0.0237066 -3.92093 0
M  V30 1022 H 89.727 1.005 -4.05326 0
M  V30 1023 N 90.1641 1.46063 -0.591896 0
M  V30 1024 C 91.4121 2.01938 -0.0808391 0
M  V30 1025 C 91.7331 1.46475 1.28725 0
M  V30 1026 O 91.0031 0.652944 1.84698 0
M  V30 1027 H 89.5831 0.746516 -0.0268938 0
M  V30 1028 H 92.2451 1.79055 -0.769752 0
M  V30 1029 H 91.3411 3.12094 -0.0187578 0
M  V30 1030 N 91.6422 0.330177 1.54103 0
M  V30 1031 C 92.8722 -0.271784 2.04805 0
M  V30 1032 C 93.2802 -1.45816 1.20559 0
M  V30 1033 O 92.6232 -1.82247 0.2306 0
M  V30 1034 C 92.6852 -0.763238 3.51305 0
M  V30 1035 C 92.3492 0.301705 4.56003 0
M  V30 1036 C 93.3462 1.13999 5.07248 0
M  V30 1037 C 91.0312 0.451793 5.00264 0
M  V30 1038 C 93.0252 2.11402 6.01322 0
M  V30 1039 C 90.7122 1.42924 5.94151 0
M  V30 1040 C 91.7102 2.25882 6.44567 0
M  V30 1041 O 91.3982 3.21965 7.3661 0
M  V30 1042 H 91.1302 -0.058693 0.673447 0
M  V30 1043 H 93.6842 0.476395 1.99799 0
M  V30 1044 H 91.9142 -1.56244 3.5373 0
M  V30 1045 H 93.6032 -1.28427 3.85047 0
M  V30 1046 H 94.3692 1.03505 4.73827 0
M  V30 1047 H 90.2482 -0.184044 4.60632 0
M  V30 1048 H 93.7922 2.76192 6.40596 0
M  V30 1049 H 89.6892 1.53479 6.26988 0
M  V30 1050 H 90.4572 3.17281 7.54503 0
M  V30 1051 N 93.1203 -1.57491 0.0584922 0
M  V30 1052 C 94.3483 -1.97296 -0.623037 0
M  V30 1053 C 94.7633 -0.936338 -1.63946 0
M  V30 1054 O 94.1203 0.0785981 -1.82331 0
M  V30 1055 C 94.1713 -3.37183 -1.30345 0
M  V30 1056 O 93.8923 -4.36872 -0.32773 0
M  V30 1057 C 95.3933 -3.91788 -2.07406 0
M  V30 1058 H 92.6133 -0.649153 -0.169826 0
M  V30 1059 H 95.1573 -2.04106 0.12696 0
M  V30 1060 H 93.3123 -3.31502 -2.00463 0
M  V30 1061 H 93.7263 -5.18141 -0.814269 0
M  V30 1062 H 95.2003 -4.91926 -2.50425 0
M  V30 1063 H 95.6773 -3.27609 -2.92521 0
M  V30 1064 H 96.2833 -4.00829 -1.42184 0
M  V30 1065 N 94.5984 0.214957 -1.56127 0
M  V30 1066 C 95.8264 0.955092 -1.83536 0
M  V30 1067 C 96.2414 1.77677 -0.638472 0
M  V30 1068 O 95.5984 1.78219 0.392968 0
M  V30 1069 C 95.6494 1.86734 -3.09536 0
M  V30 1070 O 95.3704 1.07887 -4.24608 0
M  V30 1071 C 96.8714 2.72082 -3.4998 0
M  V30 1072 H 94.0914 0.279611 -0.609966 0
M  V30 1073 H 96.6354 0.228197 -2.03223 0
M  V30 1074 H 94.7904 2.5481 -2.91806 0
M  V30 1075 H 95.2044 1.69872 -4.9623 0
M  V30 1076 H 96.6784 3.31782 -4.41163 0
M  V30 1077 H 97.1554 3.44806 -2.7204 0
M  V30 1078 H 97.7614 2.09409 -3.70173 0
M  V30 1079 N 96.0765 1.50051 0.48192 0
M  V30 1080 C 96.9865 1.7089 1.60728 0
M  V30 1081 C 98.0025 0.591788 1.63627 0
M  V30 1082 O 99.1785 0.868817 1.81696 0
M  V30 1083 C 96.2435 1.78855 2.97005 0
M  V30 1084 C 95.3045 3.02537 3.04581 0
M  V30 1085 C 94.5375 3.10112 4.34357 0
M  V30 1086 O 94.7605 2.24765 5.24249 0
M  V30 1087 O 93.6945 4.02747 4.47301 0
M  V30 1088 H 97.5205 2.66264 1.46072 0
M  V30 1089 H 95.1055 1.34018 0.660264 0
M  V30 1090 H 96.9875 1.86336 3.77964 0
M  V30 1091 H 95.6625 0.866628 3.11883 0
M  V30 1092 H 94.5695 3.00563 2.22739 0
M  V30 1093 H 95.9025 3.94272 2.94636 0
M  V30 1094 N 97.5546 -0.734337 1.39446 0
M  V30 1095 C 98.7796 -1.52866 1.40167 0
M  V30 1096 C 99.2046 -1.881 -0.00171513 0
M  V30 1097 O 98.5626 -1.51957 -0.988879 0
M  V30 1098 C 98.6106 -2.79235 2.28167 0
M  V30 1099 O 97.7146 -3.75185 1.71201 0
M  V30 1100 H 97.0556 -0.461618 0.477289 0
M  V30 1101 H 99.5856 -0.905949 1.8345 0
M  V30 1102 H 99.5956 -3.27963 2.42702 0
M  V30 1103 H 98.2706 -2.52923 3.30156 0
M  V30 1104 H 96.8476 -3.33958 1.65912 0
M  V30 1105 N 99.0327 -1.24633 -0.964593 0
M  V30 1106 C 100.281 -1.08573 -1.70459 0
M  V30 1107 C 100.602 0.375655 -1.91347 0
M  V30 1108 O 99.8717 1.26779 -1.49345 0
M  V30 1109 H 98.4517 -0.398784 -0.631649 0
M  V30 1110 H 101.114 -1.56601 -1.16026 0
M  V30 1111 H 100.21 -1.58623 -2.68785 0
M  V30 1112 N 100.511 1.16574 -1.06058 0
M  V30 1113 C 101.927 1.3904 -0.783585 0
M  V30 1114 C 102.127 1.91784 0.618145 0
M  V30 1115 O 101.183 2.11511 1.37911 0
M  V30 1116 C 102.496 2.37329 -1.84649 0
M  V30 1117 C 104.044 2.51018 -1.86973 0
M  V30 1118 C 104.519 3.52588 -2.92311 0
M  V30 1119 N 106.01 3.60113 -2.91329 0
M  V30 1120 C 106.745 4.38486 -3.69482 0
M  V30 1121 N 106.241 5.20302 -4.57447 0
M  V30 1122 N 108.034 4.33446 -3.57885 0
M  V30 1123 H 100.185 0.806725 -1.96483 0
M  V30 1124 H 102.448 0.417117 -0.851303 0
M  V30 1125 H 102.154 2.05663 -2.85299 0
M  V30 1126 H 102.028 3.36946 -1.6955 0
M  V30 1127 H 104.415 2.81989 -0.869827 0
M  V30 1128 H 104.496 1.51445 -2.0615 0
M  V30 1129 H 104.14 3.22354 -3.92492 0
M  V30 1130 H 104.07 4.51886 -2.70383 0
M  V30 1131 H 106.561 3.01707 -2.27555 0
M  V30 1132 H 106.874 5.77311 -5.13743 0
M  V30 1133 H 105.219 5.19653 -4.61503 0
M  V30 1134 H 108.41 3.68586 -2.88551 0
M  V30 1135 H 108.583 4.94279 -4.19037 0
M  V30 1136 N 101.989 0.842826 1.3317 0
M  V30 1137 C 102.921 0.236245 2.27979 0
M  V30 1138 C 103.934 -0.585282 1.51915 0
M  V30 1139 O 105.123 -0.411705 1.73687 0
M  V30 1140 C 102.223 -0.685717 3.3189 0
M  V30 1141 C 101.396 0.0973448 4.37292 0
M  V30 1142 C 100.455 -0.748565 5.20848 0
M  V30 1143 O 99.4809 -0.186339 5.68895 0
M  V30 1144 N 100.683 -2.06527 5.42519 0
M  V30 1145 H 103.448 1.05088 2.80672 0
M  V30 1146 H 101.009 0.701667 1.45905 0
M  V30 1147 H 103.001 -1.25669 3.84694 0
M  V30 1148 H 101.571 -1.40105 2.79445 0
M  V30 1149 H 100.791 0.849706 3.84933 0
M  V30 1150 H 102.079 0.635643 5.04814 0
M  V30 1151 H 101.477 -2.54554 5.05192 0
M  V30 1152 H 100.034 -2.58464 5.98364 0
M  V30 1153 N 103.467 -1.45747 0.599634 0
M  V30 1154 C 104.377 -2.34262 -0.125888 0
M  V30 1155 C 105.393 -1.50768 -0.868625 0
M  V30 1156 O 106.569 -1.83592 -0.828003 0
M  V30 1157 C 103.634 -3.28252 -1.11587 0
M  V30 1158 C 102.695 -4.27651 -0.375956 0
M  V30 1159 C 101.928 -5.1715 -1.31877 0
M  V30 1160 O 102.151 -5.09916 -2.55621 0
M  V30 1161 O 101.085 -5.96286 -0.820157 0
M  V30 1162 H 104.911 -2.97688 0.601315 0
M  V30 1163 H 102.496 -1.44999 0.359934 0
M  V30 1164 H 104.378 -3.86191 -1.68626 0
M  V30 1165 H 103.053 -2.67401 -1.82424 0
M  V30 1166 H 101.96 -3.7335 0.236698 0
M  V30 1167 H 103.293 -4.91334 0.29177 0
M  V30 1168 N 104.945 -0.338344 -1.53925 0
M  V30 1169 C 105.855 0.529421 -2.28548 0
M  V30 1170 C 106.871 1.11645 -1.3346 0
M  V30 1171 O 108.047 1.13325 -1.66492 0
M  V30 1172 C 105.112 1.66713 -3.03987 0
M  V30 1173 C 104.173 1.11041 -4.14691 0
M  V30 1174 C 103.406 2.19389 -4.86522 0
M  V30 1175 O 103.629 3.40013 -4.57982 0
M  V30 1176 O 102.563 1.83976 -5.73094 0
M  V30 1177 H 106.389 -0.0770399 -3.03602 0
M  V30 1178 H 103.974 -0.103555 -1.49041 0
M  V30 1179 H 105.856 2.32918 -3.5118 0
M  V30 1180 H 104.531 2.25949 -2.31794 0
M  V30 1181 H 103.438 0.413024 -3.71813 0
M  V30 1182 H 104.771 0.562975 -4.8897 0
M  V30 1183 N 106.423 1.57458 -0.0668435 0
M  V30 1184 C 107.355 2.09413 0.931601 0
M  V30 1185 C 108.368 1.02522 1.26464 0
M  V30 1186 O 109.557 1.30049 1.22269 0
M  V30 1187 C 106.657 2.53537 2.24882 0
M  V30 1188 C 105.83 3.83944 2.09537 0
M  V30 1189 C 104.889 4.14214 3.2452 0
M  V30 1190 O 103.915 4.83891 2.9973 0
M  V30 1191 N 105.117 3.67367 4.49469 0
M  V30 1192 H 107.882 2.95699 0.488048 0
M  V30 1193 H 105.443 1.61462 0.119009 0
M  V30 1194 H 107.435 2.70853 3.00701 0
M  V30 1195 H 106.005 1.72415 2.60753 0
M  V30 1196 H 105.225 3.76057 1.18215 0
M  V30 1197 H 106.513 4.69312 1.96529 0
M  V30 1198 H 105.911 3.11068 4.72497 0
M  V30 1199 H 104.468 3.89891 5.2233 0
M  V30 1200 N 107.901 -0.206675 1.56239 0
M  V30 1201 C 109.129 -0.945345 1.8404 0
M  V30 1202 C 109.544 -1.77336 0.647885 0
M  V30 1203 O 108.901 -1.78425 -0.383511 0
M  V30 1204 C 108.952 -1.8509 3.10522 0
M  V30 1205 O 108.673 -1.05634 4.25174 0
M  V30 1206 C 110.174 -2.70222 3.51418 0
M  V30 1207 H 107.394 -0.276372 0.61144 0
M  V30 1208 H 109.938 -0.217417 2.03341 0
M  V30 1209 H 108.093 -2.53259 2.93153 0
M  V30 1210 H 108.507 -1.67238 4.97124 0
M  V30 1211 H 109.981 -3.29438 4.42916 0
M  V30 1212 H 110.458 -3.43358 2.73864 0
M  V30 1213 H 111.064 -2.07443 3.71278 0
M  V30 1214 N 109.379 -1.50304 -0.473955 0
M  V30 1215 C 110.607 -1.64902 -1.24959 0
M  V30 1216 C 111.022 -0.331198 -1.85872 0
M  V30 1217 O 110.379 0.68652 -1.69095 0
M  V30 1218 C 110.43 -2.73803 -2.36038 0
M  V30 1219 O 110.151 -4.00477 -1.77624 0
M  V30 1220 C 111.652 -2.99349 -3.26964 0
M  V30 1221 H 108.872 -0.554383 -0.378022 0
M  V30 1222 H 111.416 -1.9651 -0.566054 0
M  V30 1223 H 109.571 -2.44898 -3.00173 0
M  V30 1224 H 109.985 -4.60678 -2.5075 0
M  V30 1225 H 111.459 -3.79217 -4.01121 0
M  V30 1226 H 111.936 -2.10307 -3.85574 0
M  V30 1227 H 112.542 -3.29774 -2.68569 0
M  V30 1228 N 110.857 0.726932 -1.39834 0
M  V30 1229 C 112.097 1.4992 -1.38936 0
M  V30 1230 C 112.461 1.91996 0.0126883 0
M  V30 1231 O 113.662 2.68399 0.146715 0
M  V30 1232 C 111.933 2.70013 -2.34153 0
M  V30 1233 S 113.492 3.59563 -2.51515 0
M  V30 1234 H 110.31 0.51271 -0.492595 0
M  V30 1235 H 112.912 0.85107 -1.76003 0
M  V30 1236 H 111.616 2.37254 -3.34871 0
M  V30 1237 H 111.147 3.39748 -1.98331 0
M  V30 1238 H 113.162 4.63973 -1.75909 0
M  V30 1239 N 112.336 1.25143 0.95797 0
M  V30 1240 C 113.564 1.12424 1.73691 0
M  V30 1241 C 113.979 -0.322304 1.86029 0
M  V30 1242 O 113.336 -1.22186 1.35561 0
M  V30 1243 C 113.387 1.76933 3.15241 0
M  V30 1244 O 113.108 3.15932 3.03511 0
M  V30 1245 C 114.609 1.6995 4.09429 0
M  V30 1246 H 111.829 0.3923 0.544373 0
M  V30 1247 H 114.373 1.6544 1.20207 0
M  V30 1248 H 112.528 1.27895 3.6568 0
M  V30 1249 H 112.942 3.47598 3.9278 0
M  V30 1250 H 114.416 2.19753 5.06372 0
M  V30 1251 H 114.893 0.662619 4.34173 0
M  V30 1252 H 115.499 2.18461 3.64904 0
M  V30 1253 N 113.814 -1.1601 1.06675 0
M  V30 1254 C 115.042 -1.90527 0.806667 0
M  V30 1255 C 115.457 -1.77643 -0.639396 0
M  V30 1256 O 114.814 -1.12369 -1.43803 0
M  V30 1257 C 114.865 -3.41106 1.19705 0
M  V30 1258 O 114.586 -3.53608 2.58636 0
M  V30 1259 C 116.087 -4.32663 0.965266 0
M  V30 1260 H 113.307 -0.604053 0.292166 0
M  V30 1261 H 115.851 -1.47026 1.4214 0
M  V30 1262 H 114.006 -3.82296 0.626774 0
M  V30 1263 H 114.42 -4.47011 2.74375 0
M  V30 1264 H 115.894 -5.36763 1.288 0
M  V30 1265 H 116.371 -4.39089 -0.0987936 0
M  V30 1266 H 116.977 -3.97206 1.52011 0
M  V30 1267 N 115.292 -0.849877 -1.32721 0
M  V30 1268 C 116.202 -0.293791 -2.32753 0
M  V30 1269 C 117.218 0.585906 -1.63839 0
M  V30 1270 O 118.394 0.487413 -1.95413 0
M  V30 1271 C 115.459 0.512752 -3.42887 0
M  V30 1272 C 114.52 -0.39252 -4.27502 0
M  V30 1273 C 113.753 0.375625 -5.32377 0
M  V30 1274 O 113.976 1.60613 -5.4732 0
M  V30 1275 O 112.91 -0.256094 -6.01355 0
M  V30 1276 H 116.736 -1.12242 -2.82197 0
M  V30 1277 H 114.321 -0.612685 -1.36259 0
M  V30 1278 H 116.203 0.970704 -4.10067 0
M  V30 1279 H 114.878 1.31826 -2.95641 0
M  V30 1280 H 113.785 -0.898547 -3.63149 0
M  V30 1281 H 115.118 -1.16309 -4.7826 0
M  V30 1282 N 116.77 1.45427 -0.607355 0
M  V30 1283 C 118.018 2.01841 -0.102253 0
M  V30 1284 C 118.339 1.47832 1.27164 0
M  V30 1285 O 117.609 0.672497 1.83995 0
M  V30 1286 H 116.189 0.746188 -0.0348101 0
M  V30 1287 H 118.851 1.78229 -0.7887 0
M  V30 1288 H 117.947 3.12057 -0.0518585 0
M  V30 1289 N 118.248 0.346503 1.53744 0
M  V30 1290 C 119.494 -0.242135 2.01954 0
M  V30 1291 C 119.849 -1.47962 1.22984 0
M  V30 1292 O 119.142 -1.89077 0.309924 0
M  V30 1293 C 119.336 -0.605809 3.52228 0
M  V30 1294 C 119.165 0.594882 4.45748 0
M  V30 1295 C 117.935 1.1011 4.93157 0
M  V30 1296 C 120.133 1.45425 4.93311 0
M  V30 1297 N 118.115 2.26381 5.70636 0
M  V30 1298 C 119.486 2.46383 5.68942 0
M  V30 1299 C 121.541 1.47935 4.75415 0
M  V30 1300 C 120.244 3.49684 6.28581 0
M  V30 1301 C 122.27 2.50119 5.35905 0
M  V30 1302 C 121.632 3.49803 6.11406 0
M  V30 1303 H 117.731 -0.0518296 0.780281 0
M  V30 1304 H 120.315 0.486736 1.88518 0
M  V30 1305 H 118.486 -1.30378 3.65864 0
M  V30 1306 H 120.218 -1.17789 3.87179 0
M  V30 1307 H 116.973 0.668721 4.68855 0
M  V30 1308 H 117.397 2.85094 6.14044 0
M  V30 1309 H 122.039 0.722274 4.16585 0
M  V30 1310 H 119.757 4.26285 6.86518 0
M  V30 1311 H 123.343 2.52892 5.23963 0
M  V30 1312 H 122.223 4.27576 6.5738 0
M  V30 1313 N 119.726 -1.57421 0.075193 0
M  V30 1314 C 120.951 -1.98364 -0.605515 0
M  V30 1315 C 121.376 -0.953383 -1.62149 0
M  V30 1316 O 120.734 0.0806053 -1.81121 0
M  V30 1317 C 120.782 -3.38332 -1.24756 0
M  V30 1318 O 119.886 -3.37959 -2.36342 0
M  V30 1319 H 119.227 -0.645553 -0.155428 0
M  V30 1320 H 121.757 -2.04044 0.150714 0
M  V30 1321 H 121.767 -3.75591 -1.5936 0
M  V30 1322 H 120.442 -4.12846 -0.503129 0
M  V30 1323 H 119.019 -3.12474 -2.03506 0
M  V30 1324 N 121.204 0.198386 -1.56346 0
M  V30 1325 C 122.615 0.763358 -1.70381 0
M  V30 1326 C 122.966 1.83995 -0.681203 0
M  V30 1327 O 122.091 2.15785 0.16305 0
M  V30 1328 C 122.686 1.39143 -3.08909 0
M  V30 1329 C 121.245 1.90352 -3.2472 0
M  V30 1330 C 120.392 0.772233 -2.6633 0
M  V30 1331 H 123.343 -0.0266377 -1.58678 0
M  V30 1332 H 123.364 2.26076 -3.06055 0
M  V30 1333 H 122.876 0.607638 -3.83314 0
M  V30 1334 H 120.977 2.71461 -2.55225 0
M  V30 1335 H 121.09 2.06757 -4.3219 0
M  V30 1336 H 119.454 1.18566 -2.2542 0
M  V30 1337 H 120.237 0.00073556 -3.433 0
M  V30 1338 N 122.682 1.50554 0.465978 0
M  V30 1339 C 123.592 1.72585 1.58907 0
M  V30 1340 C 124.608 0.60911 1.6299 0
M  V30 1341 O 125.784 0.88804 1.80765 0
M  V30 1342 C 122.849 1.81995 2.95091 0
M  V30 1343 C 121.91 3.05751 3.01355 0
M  V30 1344 C 121.143 3.14702 4.31043 0
M  V30 1345 O 121.366 2.30313 5.21835 0
M  V30 1346 O 120.3 4.07468 4.43005 0
M  V30 1347 H 124.126 2.67799 1.43239 0
M  V30 1348 H 121.711 1.34711 0.646013 0
M  V30 1349 H 123.593 1.90335 3.75966 0
M  V30 1350 H 122.268 0.899659 3.10947 0
M  V30 1351 H 121.175 3.02908 2.19539 0
M  V30 1352 H 122.508 3.97375 2.90437 0
M  V30 1353 N 124.16 -0.719506 1.40217 0
M  V30 1354 C 125.571 -1.29848 1.34151 0
M  V30 1355 C 125.922 -1.96196 0.0131349 0
M  V30 1356 O 125.047 -1.973 -0.88892 0
M  V30 1357 C 125.642 -2.36118 2.42968 0
M  V30 1358 C 124.201 -2.8965 2.40374 0
M  V30 1359 C 123.348 -1.63393 2.24049 0
M  V30 1360 H 126.299 -0.51591 1.5008 0
M  V30 1361 H 126.32 -3.16871 2.10649 0
M  V30 1362 H 125.832 -1.878 3.39636 0
M  V30 1363 H 123.933 -3.42208 1.47392 0
M  V30 1364 H 124.046 -3.4171 3.35814 0
M  V30 1365 H 122.41 -1.88312 1.71495 0
M  V30 1366 H 123.193 -1.17104 3.2271 0
M  V30 1367 N 125.638 -1.25649 -0.95132 0
M  V30 1368 C 127.054 -1.02542 -1.223 0
M  V30 1369 C 127.254 0.255715 -1.99871 0
M  V30 1370 O 126.31 0.967558 -2.33226 0
M  V30 1371 C 127.623 -2.25065 -1.99415 0
M  V30 1372 C 129.171 -2.29861 -2.12446 0
M  V30 1373 C 129.646 -3.52048 -2.92961 0
M  V30 1374 N 131.137 -3.52465 -3.00538 0
M  V30 1375 C 131.872 -4.43672 -3.63239 0
M  V30 1376 N 131.368 -5.45157 -4.27523 0
M  V30 1377 N 133.161 -4.31346 -3.60412 0
M  V30 1378 H 125.312 -2.07951 -0.432471 0
M  V30 1379 H 127.575 -0.91339 -0.253816 0
M  V30 1380 H 127.281 -3.18194 -1.49817 0
M  V30 1381 H 127.155 -2.28502 -3.00111 0
M  V30 1382 H 129.542 -1.37252 -2.61239 0
M  V30 1383 H 129.623 -2.3044 -1.11044 0
M  V30 1384 H 129.267 -4.44981 -2.44856 0
M  V30 1385 H 129.197 -3.48715 -3.94596 0
M  V30 1386 H 131.688 -2.79056 -2.54826 0
M  V30 1387 H 132.001 -6.10958 -4.73234 0
M  V30 1388 H 130.346 -5.49025 -4.26141 0
M  V30 1389 H 133.537 -3.51288 -3.09377 0
M  V30 1390 H 133.71 -5.02624 -4.0899 0
M  V30 1391 N 127.117 1.15442 -1.07289 0
M  V30 1392 C 128.357 1.8788 -0.805012 0
M  V30 1393 C 128.721 1.80413 0.656907 0
M  V30 1394 O 129.922 2.47874 1.0398 0
M  V30 1395 C 128.193 3.3298 -1.29843 0
M  V30 1396 S 129.752 4.23158 -1.16114 0
M  V30 1397 H 126.57 0.64839 -0.291739 0
M  V30 1398 H 129.172 1.39285 -1.37186 0
M  V30 1399 H 127.876 3.35958 -2.35712 0
M  V30 1400 H 127.407 3.86629 -0.726767 0
M  V30 1401 H 129.422 4.96103 -0.0982778 0
M  V30 1402 N 128.595 0.856903 1.32268 0
M  V30 1403 C 129.842 0.461386 1.97174 0
M  V30 1404 C 130.17 -0.983491 1.67803 0
M  V30 1405 O 129.425 -1.70541 0.959903 0
M  V30 1406 C 129.724 0.649919 3.51441 0
M  V30 1407 C 129.39 2.0656 4.00804 0
M  V30 1408 C 128.052 2.45279 4.13995 0
M  V30 1409 C 130.404 2.98947 4.26943 0
M  V30 1410 C 127.732 3.75653 4.50668 0
M  V30 1411 C 130.084 4.28822 4.65075 0
M  V30 1412 C 128.748 4.67472 4.76472 0
M  V30 1413 H 128.018 0.168833 0.72151 0
M  V30 1414 H 130.665 1.08739 1.57633 0
M  V30 1415 H 128.97 -0.0593018 3.91755 0
M  V30 1416 H 130.667 0.32391 3.9969 0
M  V30 1417 H 127.257 1.75495 3.91024 0
M  V30 1418 H 131.441 2.70265 4.16258 0
M  V30 1419 H 126.697 4.05379 4.57688 0
M  V30 1420 H 130.871 5.0047 4.84255 0
M  V30 1421 H 128.498 5.68539 5.04646 0
M  V30 1422 N 130.073 -1.45103 0.615059 0
M  V30 1423 C 131.02 -2.30586 -0.0993978 0
M  V30 1424 C 131.99 -1.42544 -0.852669 0
M  V30 1425 O 133.175 -1.71465 -0.836917 0
M  V30 1426 C 130.315 -3.27572 -1.08583 0
M  V30 1427 C 129.428 -4.30717 -0.332656 0
M  V30 1428 C 128.563 -5.14807 -1.30947 0
M  V30 1429 C 127.602 -6.09673 -0.544538 0
M  V30 1430 N 126.739 -6.86517 -1.47101 0
M  V30 1431 H 131.579 -2.91144 0.635542 0
M  V30 1432 H 129.116 -1.4346 0.325206 0
M  V30 1433 H 131.074 -3.82276 -1.67095 0
M  V30 1434 H 129.704 -2.68751 -1.78809 0
M  V30 1435 H 128.756 -3.78615 0.368107 0
M  V30 1436 H 130.068 -4.98102 0.263842 0
M  V30 1437 H 129.222 -5.73948 -1.96643 0
M  V30 1438 H 127.961 -4.47458 -1.9399 0
M  V30 1439 H 126.966 -5.49656 0.126003 0
M  V30 1440 H 128.191 -6.79052 0.080947 0
M  V30 1441 H 126.137 -6.21851 -2.08895 0
M  V30 1442 H 126.054 -7.50281 -0.928137 0
M  V30 1443 H 127.322 -7.50194 -2.11731 0
M  V30 1444 N 131.551 -0.354651 -1.53558 0
M  V30 1445 C 132.498 0.496968 -2.25386 0
M  V30 1446 C 133.468 1.0865 -1.25636 0
M  V30 1447 O 134.653 1.12104 -1.54394 0
M  V30 1448 C 131.793 1.63637 -3.03837 0
M  V30 1449 C 130.906 1.07307 -4.18461 0
M  V30 1450 C 130.041 2.18068 -4.84376 0
M  V30 1451 C 129.08 1.59147 -5.91049 0
M  V30 1452 N 128.217 2.63695 -6.50699 0
M  V30 1453 H 133.057 -0.122075 -2.9775 0
M  V30 1454 H 130.594 -0.0720154 -1.46924 0
M  V30 1455 H 132.552 2.30734 -3.47589 0
M  V30 1456 H 131.182 2.22623 -2.33749 0
M  V30 1457 H 130.234 0.292708 -3.79272 0
M  V30 1458 H 131.546 0.602193 -4.95152 0
M  V30 1459 H 130.7 2.93007 -5.31255 0
M  V30 1460 H 129.439 2.68504 -4.07133 0
M  V30 1461 H 128.444 0.827175 -5.43542 0
M  V30 1462 H 129.669 1.09549 -6.70206 0
M  V30 1463 H 127.615 3.13365 -5.76315 0
M  V30 1464 H 127.532 2.21263 -7.22896 0
M  V30 1465 H 128.8 3.3837 -7.02229 0
M  V30 1466 N 133.029 1.57378 -0.0835403 0
M  V30 1467 C 134.269 1.95808 0.586381 0
M  V30 1468 C 134.633 0.963706 1.66062 0
M  V30 1469 O 135.834 1.23608 2.38693 0
M  V30 1470 C 134.105 3.38808 1.13771 0
M  V30 1471 S 135.664 3.99225 1.82112 0
M  V30 1472 H 132.482 0.684675 0.191679 0
M  V30 1473 H 135.084 1.94843 -0.160194 0
M  V30 1474 H 133.788 4.08954 0.344197 0
M  V30 1475 H 133.319 3.43344 1.92038 0
M  V30 1476 H 135.334 3.87087 3.10449 0
M  V30 1477 N 134.507 -0.190092 1.56449 0
M  V30 1478 C 135.735 -0.925772 1.85033 0
M  V30 1479 C 136.15 -1.76638 0.666658 0
M  V30 1480 O 135.507 -1.78822 -0.364565 0
M  V30 1481 C 135.558 -1.81786 3.12468 0
M  V30 1482 O 135.279 -1.01118 4.26271 0
M  V30 1483 C 136.78 -2.6648 3.54265 0
M  V30 1484 H 134 -0.269872 0.614337 0
M  V30 1485 H 136.544 -0.195837 2.0356 0
M  V30 1486 H 134.699 -2.50136 2.95822 0
M  V30 1487 H 135.113 -1.61956 4.98869 0
M  V30 1488 H 136.587 -3.24722 4.46385 0
M  V30 1489 H 137.064 -3.40434 2.77491 0
M  V30 1490 H 137.67 -2.03493 3.73458 0
M  V30 1491 N 135.985 -1.50799 -0.457987 0
M  V30 1492 C 136.932 -1.70617 -1.5543 0
M  V30 1493 C 137.902 -0.547562 -1.56815 0
M  V30 1494 O 139.087 -0.779647 -1.74144 0
M  V30 1495 C 136.227 -1.81831 -2.93311 0
M  V30 1496 C 135.34 -3.09278 -3.01615 0
M  V30 1497 C 134.475 -3.11209 -4.30491 0
M  V30 1498 C 133.514 -4.33055 -4.32585 0
M  V30 1499 N 132.651 -4.32652 -5.52952 0
M  V30 1500 H 137.491 -2.64207 -1.37836 0
M  V30 1501 H 135.028 -1.30959 -0.669937 0
M  V30 1502 H 136.986 -1.86314 -3.73287 0
M  V30 1503 H 135.616 -0.916685 -3.0951 0
M  V30 1504 H 134.668 -3.14203 -2.1443 0
M  V30 1505 H 135.98 -3.99233 -2.99022 0
M  V30 1506 H 135.134 -3.14494 -5.18824 0
M  V30 1507 H 133.873 -2.19106 -4.35711 0
M  V30 1508 H 132.878 -4.29969 -3.42647 0
M  V30 1509 H 134.103 -5.264 -4.29046 0
M  V30 1510 H 132.049 -3.43409 -5.58933 0
M  V30 1511 H 131.966 -5.16392 -5.52155 0
M  V30 1512 H 133.234 -4.40101 -6.43375 0
M  V30 1513 N 137.463 0.71206 -1.40597 0
M  V30 1514 C 138.874 1.29135 -1.34837 0
M  V30 1515 C 139.225 1.96186 -0.0235395 0
M  V30 1516 O 138.35 1.97768 0.878444 0
M  V30 1517 C 138.945 2.34827 -2.44217 0
M  V30 1518 C 137.504 2.88371 -2.41907 0
M  V30 1519 C 136.651 1.62202 -2.24913 0
M  V30 1520 H 139.602 0.507944 -1.50352 0
M  V30 1521 H 139.623 3.15749 -2.12327 0
M  V30 1522 H 139.135 1.85996 -3.40627 0
M  V30 1523 H 137.236 3.41422 -1.49204 0
M  V30 1524 H 137.349 3.39925 -3.37621 0
M  V30 1525 H 135.713 1.874 -1.72492 0
M  V30 1526 H 136.496 1.15391 -3.23326 0
M  V30 1527 N 138.941 1.26152 0.944643 0
M  V30 1528 C 140.218 1.02247 1.66748 0
M  V30 1529 C 140.598 -0.448202 2.06287 0
M  V30 1530 O 139.946 -1.42779 1.78399 0
M  V30 1531 C 140.156 1.96788 2.88228 0
M  V30 1532 C 141.504 2.25201 3.59958 0
M  V30 1533 O 142.528 1.94626 2.98327 0
M  V30 1534 O 141.387 2.77242 4.70956 0
M  V30 1535 H 138.481 0.388517 0.730057 0
M  V30 1536 H 141.027 1.37348 0.99668 0
M  V30 1537 H 139.799 2.96047 2.55875 0
M  V30 1538 H 139.422 1.62145 3.63035 0
M  V30 1539 N 140.419 -1.14872 1.07899 0
M  V30 1540 C 141.349 -2.2193 0.725887 0
M  V30 1541 C 142.33 -1.67622 -0.28927 0
M  V30 1542 O 143.515 -1.93533 -0.160787 0
M  V30 1543 C 140.645 -3.47061 0.128856 0
M  V30 1544 C 139.599 -4.14363 1.07178 0
M  V30 1545 C 138.925 -5.33636 0.337229 0
M  V30 1546 C 140.225 -4.63492 2.40775 0
M  V30 1547 H 141.919 -2.51724 1.62097 0
M  V30 1548 H 139.465 -1.20991 0.780838 0
M  V30 1549 H 141.418 -4.21199 -0.130147 0
M  V30 1550 H 140.142 -3.16617 -0.80134 0
M  V30 1551 H 138.801 -3.42173 1.3158 0
M  V30 1552 H 138.449 -4.99449 -0.596606 0
M  V30 1553 H 138.149 -5.79609 0.965788 0
M  V30 1554 H 139.673 -6.10539 0.0861567 0
M  V30 1555 H 141.087 -5.2913 2.20669 0
M  V30 1556 H 139.484 -5.20148 2.99276 0
M  V30 1557 H 140.554 -3.78834 3.02676 0
M  V30 1558 N 141.898 -0.863906 -1.31812 0
M  V30 1559 C 143.123 -0.48527 -2.01643 0
M  V30 1560 C 143.548 0.913058 -1.64453 0
M  V30 1561 O 142.906 1.6014 -0.849985 0
M  V30 1562 C 142.954 -0.642625 -3.54828 0
M  V30 1563 O 142.058 0.320659 -4.11151 0
M  V30 1564 H 141.399 -0.193793 -0.635091 0
M  V30 1565 H 143.929 -1.16565 -1.68148 0
M  V30 1566 H 143.939 -0.533628 -4.04495 0
M  V30 1567 H 142.614 -1.66227 -3.81237 0
M  V30 1568 H 141.191 0.167126 -3.72525 0
M  V30 1569 N 143.376 1.44774 -0.622745 0
M  V30 1570 C 144.324 2.32387 0.0994683 0
M  V30 1571 C 145.318 1.46859 0.844326 0
M  V30 1572 O 146.524 1.63254 0.758174 0
M  V30 1573 H 142.899 0.750273 0.0509291 0
M  V30 1574 H 144.87 2.91062 -0.65767 0
M  V30 1575 C 143.619 3.30723 1.07319 0
M  V30 1576 H 142.942 3.96541 0.509462 0
M  V30 1577 H 144.382 3.94725 1.54817 0
M  V30 1578 C 142.841 2.59021 2.15429 0
M  V30 1579 O 143.371 2.38286 3.23393 0
M  V30 1580 N 141.577 2.189 1.91131 0
M  V30 1581 H 141.124 2.35964 1.03337 0
M  V30 1582 H 141.082 1.71251 2.63668 0
M  V30 1583 N 144.854 0.36279 1.53368 0
M  V30 1584 C 146.102 -0.227326 2.00817 0
M  V30 1585 C 146.423 -1.49511 1.25186 0
M  V30 1586 O 145.693 -1.92482 0.364348 0
M  V30 1587 H 144.273 -0.0869923 0.741917 0
M  V30 1588 H 146.935 0.488381 1.88682 0
M  V30 1589 H 146.031 -0.456273 3.08747 0
M  V30 1590 N 146.332 -1.57332 0.0918853 0
M  V30 1591 C 147.562 -1.98286 -0.580205 0
M  V30 1592 C 147.97 -0.969713 -1.6246 0
M  V30 1593 O 147.313 0.0493501 -1.83634 0
M  V30 1594 C 147.375 -3.35603 -1.28882 0
M  V30 1595 C 147.039 -4.55285 -0.395559 0
M  V30 1596 C 148.036 -5.18687 0.355002 0
M  V30 1597 C 145.721 -5.01314 -0.314556 0
M  V30 1598 C 147.715 -6.26484 1.17458 0
M  V30 1599 C 145.402 -6.08979 0.508677 0
M  V30 1600 C 146.4 -6.71429 1.2519 0
M  V30 1601 O 146.088 -7.77018 2.06151 0
M  V30 1602 H 145.82 -0.656678 -0.160466 0
M  V30 1603 H 148.374 -2.04721 0.16688 0
M  V30 1604 H 146.604 -3.25842 -2.08241 0
M  V30 1605 H 148.293 -3.61026 -1.85512 0
M  V30 1606 H 149.059 -4.84058 0.302134 0
M  V30 1607 H 144.938 -4.5247 -0.882697 0
M  V30 1608 H 148.482 -6.75159 1.75518 0
M  V30 1609 H 144.379 -6.4304 0.563037 0
M  V30 1610 H 145.147 -7.93991 1.98799 0
M  V30 1611 N 147.81 0.181792 -1.56548 0
M  V30 1612 C 149.059 0.898348 -1.8059 0
M  V30 1613 C 149.372 1.83862 -0.667379 0
M  V30 1614 O 150.578 2.59678 -0.792446 0
M  V30 1615 C 149.034 1.64791 -3.19956 0
M  V30 1616 C 148.642 0.751789 -4.41647 0
M  V30 1617 C 150.386 2.35331 -3.53298 0
M  V30 1618 C 148.293 1.50098 -5.72035 0
M  V30 1619 H 147.223 0.339194 -0.673397 0
M  V30 1620 H 149.874 0.151413 -1.82874 0
M  V30 1621 H 148.256 2.43921 -3.11959 0
M  V30 1622 H 149.43 -0.0018076 -4.608 0
M  V30 1623 H 147.745 0.156562 -4.16106 0
M  V30 1624 H 150.342 2.91958 -4.47956 0
M  V30 1625 H 150.685 3.10164 -2.77676 0
M  V30 1626 H 151.218 1.63154 -3.62803 0
M  V30 1627 H 147.957 0.795175 -6.50659 0
M  V30 1628 H 147.477 2.22817 -5.56878 0
M  V30 1629 H 149.156 2.05125 -6.13622 0
M  V30 1630 N 149.288 1.51039 0.449983 0
M  V30 1631 C 150.513 1.6715 1.22783 0
M  V30 1632 C 150.938 0.363081 1.84563 0
M  V30 1633 O 150.296 -0.675433 1.68249 0
M  V30 1634 C 150.344 2.77985 2.29689 0
M  V30 1635 O 149.448 2.40707 3.34864 0
M  V30 1636 H 148.789 0.557746 0.360299 0
M  V30 1637 H 151.319 1.97535 0.533005 0
M  V30 1638 H 151.329 3.01693 2.74673 0
M  V30 1639 H 150.004 3.72935 1.84098 0
M  V30 1640 H 148.581 2.27523 2.95445 0
M  V30 1641 N 150.766 -0.704594 1.40972 0
M  V30 1642 C 152.043 -1.45847 1.30338 0
M  V30 1643 C 152.423 -2.10973 -0.0732344 0
M  V30 1644 O 151.771 -2.00997 -1.08685 0
M  V30 1645 C 151.981 -2.48525 2.45023 0
M  V30 1646 C 153.329 -3.1404 2.8577 0
M  V30 1647 O 154.353 -2.58848 2.44696 0
M  V30 1648 O 153.212 -4.13981 3.56766 0
M  V30 1649 H 150.306 -0.649092 0.512454 0
M  V30 1650 H 152.852 -0.735836 1.52917 0
M  V30 1651 H 151.624 -1.98994 3.36923 0
M  V30 1652 H 151.247 -3.2831 2.24272 0
M  V30 1653 N 152.244 -1.26651 -0.937939 0
M  V30 1654 C 153.49 -1.12553 -1.687 0
M  V30 1655 C 153.823 0.329782 -1.91379 0
M  V30 1656 O 153.098 1.24202 -1.4968 0
M  V30 1657 C 153.381 -1.89862 -3.05981 0
M  V30 1658 C 153.234 -3.43318 -2.90607 0
M  V30 1659 C 154.553 -1.69499 -4.0615 0
M  V30 1660 H 151.672 -0.410257 -0.612257 0
M  V30 1661 H 154.314 -1.55685 -1.08913 0
M  V30 1662 H 152.464 -1.53204 -3.57017 0
M  V30 1663 H 154.136 -3.89747 -2.46769 0
M  V30 1664 H 152.379 -3.70179 -2.26164 0
M  V30 1665 H 153.05 -3.92642 -3.8799 0
M  V30 1666 H 155.526 -2.01442 -3.64088 0
M  V30 1667 H 154.402 -2.26002 -5.00214 0
M  V30 1668 H 154.663 -0.640365 -4.37438 0
M  V30 1669 N 153.722 1.14298 -1.08507 0
M  V30 1670 C 154.669 2.19414 -0.715965 0
M  V30 1671 C 155.639 1.63399 0.298326 0
M  V30 1672 O 156.824 1.89929 0.182101 0
M  V30 1673 C 153.964 3.44845 -0.132534 0
M  V30 1674 C 153.077 4.15007 -1.19973 0
M  V30 1675 C 152.212 5.28024 -0.580048 0
M  V30 1676 C 151.251 5.9002 -1.62921 0
M  V30 1677 N 150.388 6.94485 -1.03125 0
M  V30 1678 H 155.228 2.50336 -1.61666 0
M  V30 1679 H 152.765 1.2293 -0.807882 0
M  V30 1680 H 154.723 4.16601 0.223454 0
M  V30 1681 H 153.353 3.14403 0.731467 0
M  V30 1682 H 152.405 3.41629 -1.67313 0
M  V30 1683 H 153.717 4.57178 -1.99473 0
M  V30 1684 H 152.871 6.06455 -0.172364 0
M  V30 1685 H 151.61 4.87076 0.246603 0
M  V30 1686 H 150.615 5.10291 -2.04654 0
M  V30 1687 H 151.84 6.33042 -2.45835 0
M  V30 1688 H 149.786 6.55612 -0.225711 0
M  V30 1689 H 149.703 7.35148 -1.76334 0
M  V30 1690 H 150.971 7.7679 -0.649458 0
M  V30 1691 N 155.201 0.870884 1.31352 0
M  V30 1692 C 156.131 0.343096 2.30966 0
M  V30 1693 C 157.112 -0.566507 1.60389 0
M  V30 1694 O 158.297 -0.483336 1.88089 0
M  V30 1695 C 155.427 -0.455487 3.443 0
M  V30 1696 C 154.381 0.361103 4.26474 0
M  V30 1697 C 153.707 -0.563221 5.31725 0
M  V30 1698 C 155.007 1.59566 4.97329 0
M  V30 1699 H 156.701 1.17548 2.75359 0
M  V30 1700 H 154.247 0.566686 1.32381 0
M  V30 1701 H 156.2 -0.83525 4.13039 0
M  V30 1702 H 154.924 -1.32139 2.98675 0
M  V30 1703 H 153.583 0.722825 3.59403 0
M  V30 1704 H 153.231 -1.42643 4.82351 0
M  V30 1705 H 152.931 -0.0207409 5.87596 0
M  V30 1706 H 154.455 -0.939808 6.03324 0
M  V30 1707 H 155.869 1.28728 5.58661 0
M  V30 1708 H 154.266 2.07728 5.63 0
M  V30 1709 H 155.336 2.34798 4.24262 0
M  V30 1710 N 156.679 -1.44442 0.630414 0
M  V30 1711 C 157.609 -2.33418 -0.0618083 0
M  V30 1712 C 158.59 -1.48165 -0.835541 0
M  V30 1713 O 159.775 -1.76886 -0.801564 0
M  V30 1714 C 156.905 -3.31222 -1.04449 0
M  V30 1715 C 155.859 -4.26288 -0.382436 0
M  V30 1716 C 155.185 -5.13954 -1.47497 0
M  V30 1717 C 156.485 -5.1744 0.710865 0
M  V30 1718 H 158.179 -2.91548 0.681184 0
M  V30 1719 H 155.725 -1.40191 0.329026 0
M  V30 1720 H 157.678 -3.92351 -1.53748 0
M  V30 1721 H 156.402 -2.71299 -1.81836 0
M  V30 1722 H 155.061 -3.6649 0.0899054 0
M  V30 1723 H 154.709 -4.50385 -2.2397 0
M  V30 1724 H 154.409 -5.7837 -1.03737 0
M  V30 1725 H 155.933 -5.77955 -1.96979 0
M  V30 1726 H 157.347 -5.72509 0.300996 0
M  V30 1727 H 155.744 -5.90455 1.07156 0
M  V30 1728 H 156.814 -4.58496 1.57829 0
M  V30 1729 N 158.157 -0.370918 -1.53173 0
M  V30 1730 C 159.387 0.217389 -2.05453 0
M  V30 1731 C 159.795 1.42568 -1.24382 0
M  V30 1732 O 159.138 1.81571 -0.278839 0
M  V30 1733 C 159.2 0.669827 -3.53205 0
M  V30 1734 C 158.864 -0.4225 -4.55043 0
M  V30 1735 C 159.861 -1.27407 -5.04047 0
M  V30 1736 C 157.546 -0.58427 -4.9889 0
M  V30 1737 C 159.54 -2.27271 -5.95505 0
M  V30 1738 C 157.227 -1.58627 -5.90153 0
M  V30 1739 C 158.225 -2.42892 -6.38351 0
M  V30 1740 O 157.913 -3.41382 -7.27814 0
M  V30 1741 H 157.645 0.0408171 -0.674767 0
M  V30 1742 H 160.199 -0.5292 -1.98466 0
M  V30 1743 H 158.429 1.4681 -3.57748 0
M  V30 1744 H 160.118 1.18173 -3.88317 0
M  V30 1745 H 160.884 -1.16031 -4.70916 0
M  V30 1746 H 156.763 0.061851 -4.60959 0
M  V30 1747 H 160.307 -2.93079 -6.33049 0
M  V30 1748 H 156.204 -1.70048 -6.22699 0
M  V30 1749 H 156.972 -3.37173 -7.45826 0
M  V30 1750 N 159.635 1.57281 -0.100228 0
M  V30 1751 C 160.582 2.14305 0.856858 0
M  V30 1752 C 161.552 1.06296 1.27634 0
M  V30 1753 O 162.737 1.34109 1.35718 0
M  V30 1754 C 159.877 2.73184 2.10866 0
M  V30 1755 C 158.99 3.95442 1.73925 0
M  V30 1756 C 158.125 4.42468 2.93931 0
M  V30 1757 C 157.164 5.57303 2.5314 0
M  V30 1758 N 156.301 5.99158 3.65997 0
M  V30 1759 H 161.141 2.95772 0.363726 0
M  V30 1760 H 158.678 1.46139 0.167858 0
M  V30 1761 H 160.636 3.05442 2.84185 0
M  V30 1762 H 159.266 1.94437 2.57671 0
M  V30 1763 H 158.318 3.69464 0.905554 0
M  V30 1764 H 159.63 4.78769 1.39935 0
M  V30 1765 H 158.784 4.76537 3.75496 0
M  V30 1766 H 157.523 3.58052 3.31134 0
M  V30 1767 H 156.528 5.22857 1.70003 0
M  V30 1768 H 157.753 6.43471 2.17075 0
M  V30 1769 H 155.699 5.17687 4.02909 0
M  V30 1770 H 155.616 6.77295 3.35869 0
M  V30 1771 H 156.884 6.3786 4.48057 0
M  V30 1772 N 161.113 -0.173488 1.56642 0
M  V30 1773 C 162.362 -0.888758 1.81063 0
M  V30 1774 C 162.675 -1.83506 0.67712 0
M  V30 1775 O 163.881 -2.59254 0.806206 0
M  V30 1776 C 162.337 -1.63091 3.20826 0
M  V30 1777 C 161.945 -0.728357 4.4204 0
M  V30 1778 C 163.689 -2.33454 3.54541 0
M  V30 1779 C 161.596 -1.47062 5.72823 0
M  V30 1780 H 160.526 -0.335618 0.675186 0
M  V30 1781 H 163.177 -0.141712 1.82952 0
M  V30 1782 H 161.559 -2.42263 3.13248 0
M  V30 1783 H 162.733 0.0262449 4.60793 0
M  V30 1784 H 161.048 -0.134492 4.16183 0
M  V30 1785 H 163.645 -2.89578 4.49498 0
M  V30 1786 H 163.988 -3.08687 2.79317 0
M  V30 1787 H 164.521 -1.61227 3.63663 0
M  V30 1788 H 161.26 -0.760658 6.51072 0
M  V30 1789 H 160.78 -2.1986 5.58052 0
M  V30 1790 H 162.459 -2.01868 6.14702 0
M  V30 1791 N 162.591 -1.51276 -0.441967 0
M  V30 1792 C 163.523 -1.68444 -1.55433 0
M  V30 1793 C 164.536 -0.565187 -1.52674 0
M  V30 1794 O 165.725 -0.839356 -1.57534 0
M  V30 1795 C 162.825 -1.67966 -2.94348 0
M  V30 1796 C 161.998 -2.964 -3.21661 0
M  V30 1797 C 161.057 -2.88171 -4.40277 0
M  V30 1798 O 160.083 -3.62119 -4.39157 0
M  V30 1799 N 161.285 -2.03706 -5.43584 0
M  V30 1800 H 164.05 -2.644 -1.41112 0
M  V30 1801 H 161.611 -1.49104 -0.630838 0
M  V30 1802 H 163.603 -1.60035 -3.71713 0
M  V30 1803 H 162.173 -0.796225 -3.0229 0
M  V30 1804 H 161.393 -3.18234 -2.32638 0
M  V30 1805 H 162.681 -3.81427 -3.36736 0
M  V30 1806 H 162.079 -1.42995 -5.47329 0
M  V30 1807 H 160.636 -2.01658 -6.1982 0
M  V30 1808 N 164.069 0.697108 -1.41344 0
M  V30 1809 C 164.979 1.84088 -1.45427 0
M  V30 1810 C 165.995 1.70545 -0.34501 0
M  V30 1811 O 167.171 1.92488 -0.592492 0
M  V30 1812 C 164.236 3.20056 -1.33286 0
M  V30 1813 C 163.297 3.45718 -2.54514 0
M  V30 1814 C 162.53 4.75199 -2.42944 0
M  V30 1815 O 162.753 5.51579 -1.45318 0
M  V30 1816 O 161.687 5.0161 -3.32672 0
M  V30 1817 H 165.513 1.836 -2.41919 0
M  V30 1818 H 163.098 0.849966 -1.22866 0
M  V30 1819 H 164.98 4.01236 -1.28794 0
M  V30 1820 H 163.655 3.2123 -0.39909 0
M  V30 1821 H 162.562 2.64474 -2.64583 0
M  V30 1822 H 163.895 3.49356 -3.46715 0
M  V30 1823 N 165.547 1.27147 0.931209 0
M  V30 1824 C 166.495 1.09398 2.05268 0
M  V30 1825 C 167.489 0.0180591 1.6939 0
M  V30 1826 O 168.695 0.17551 1.79142 0
M  V30 1827 H 165.07 0.336986 0.672268 0
M  V30 1828 H 167.041 2.04416 2.17386 0
M  V30 1829 C 165.79 0.75424 3.39421 0
M  V30 1830 H 165.113 1.57404 3.67511 0
M  V30 1831 H 166.553 0.669903 4.18674 0
M  V30 1832 C 165.012 -0.541197 3.32525 0
M  V30 1833 O 165.542 -1.57664 3.69466 0
M  V30 1834 N 163.748 -0.535517 2.85623 0
M  V30 1835 H 163.295 0.307511 2.55758 0
M  V30 1836 H 163.253 -1.40236 2.81392 0
M  V30 1837 N 167.025 -1.13721 1.09112 0
M  V30 1838 C 167.958 -2.18094 0.67158 0
M  V30 1839 C 168.936 -1.59414 -0.320299 0
M  V30 1840 O 170.12 -1.87183 -0.222444 0
M  V30 1841 C 167.247 -3.38698 -0.0111189 0
M  V30 1842 C 166.293 -4.15966 0.942055 0
M  V30 1843 S 167.126 -4.7604 2.45246 0
M  V30 1844 C 168.282 -5.99994 1.78208 0
M  V30 1845 H 168.515 -2.53344 1.55577 0
M  V30 1846 H 166.048 -1.24967 0.906789 0
M  V30 1847 H 168.006 -4.08559 -0.398716 0
M  V30 1848 H 166.667 -3.01756 -0.871905 0
M  V30 1849 H 165.86 -5.02318 0.411396 0
M  V30 1850 H 165.462 -3.51745 1.2709 0
M  V30 1851 H 167.754 -6.68441 1.10424 0
M  V30 1852 H 168.697 -6.57662 2.62463 0
M  V30 1853 H 169.105 -5.50432 1.25238 0
M  V30 1854 N 168.503 -0.877838 -1.30888 0
M  V30 1855 C 169.919 -0.570844 -1.49042 0
M  V30 1856 C 170.119 0.893159 -1.80624 0
M  V30 1857 O 169.175 1.67485 -1.88958 0
M  V30 1858 C 170.488 -1.47784 -2.61878 0
M  V30 1859 C 172.036 -1.48071 -2.75761 0
M  V30 1860 C 172.511 -2.37347 -3.91702 0
M  V30 1861 N 174.002 -2.35271 -3.99001 0
M  V30 1862 C 174.737 -3.01063 -4.88004 0
M  V30 1863 N 174.233 -3.76055 -5.81854 0
M  V30 1864 N 176.026 -2.90332 -4.81315 0
M  V30 1865 H 168.177 -1.82502 -1.0866 0
M  V30 1866 H 170.44 -0.780797 -0.537644 0
M  V30 1867 H 170.146 -2.51993 -2.45341 0
M  V30 1868 H 170.02 -1.18215 -3.58197 0
M  V30 1869 H 172.407 -0.446166 -2.91708 0
M  V30 1870 H 172.488 -1.81668 -1.80085 0
M  V30 1871 H 172.132 -3.40883 -3.76512 0
M  V30 1872 H 172.062 -2.01071 -4.86701 0
M  V30 1873 H 174.553 -1.80768 -3.3186 0
M  V30 1874 H 174.866 -4.23366 -6.46514 0
M  V30 1875 H 173.211 -3.80163 -5.81808 0
M  V30 1876 H 176.402 -2.31278 -4.06974 0
M  V30 1877 H 176.575 -3.41885 -5.50471 0
M  V30 1878 N 169.982 1.44106 -0.638065 0
M  V30 1879 C 171.212 2.06037 -0.152394 0
M  V30 1880 C 171.62 1.47808 1.18108 0
M  V30 1881 O 170.963 0.598092 1.73691 0
M  V30 1882 C 171.025 3.59488 0.0293714 0
M  V30 1883 C 170.689 4.4022 -1.22702 0
M  V30 1884 C 171.686 4.73256 -2.15232 0
M  V30 1885 C 169.371 4.8048 -1.46437 0
M  V30 1886 C 171.365 5.45444 -3.29802 0
M  V30 1887 C 169.052 5.52417 -2.61303 0
M  V30 1888 C 170.05 5.84819 -3.52811 0
M  V30 1889 O 169.738 6.55289 -4.65673 0
M  V30 1890 H 169.47 0.671233 -0.0801401 0
M  V30 1891 H 172.024 1.85851 -0.874563 0
M  V30 1892 H 170.254 3.78191 0.806758 0
M  V30 1893 H 171.943 4.03164 0.470475 0
M  V30 1894 H 172.709 4.42684 -1.98131 0
M  V30 1895 H 168.588 4.54676 -0.760977 0
M  V30 1896 H 172.132 5.70653 -4.01249 0
M  V30 1897 H 168.029 5.82404 -2.78344 0
M  V30 1898 H 168.797 6.73762 -4.64744 0
M  V30 1899 N 171.46 0.379036 1.52974 0
M  V30 1900 C 172.708 -0.206014 2.01047 0
M  V30 1901 C 173.029 -1.48175 1.26765 0
M  V30 1902 O 172.299 -1.92085 0.384743 0
M  V30 1903 H 170.879 -0.0791184 0.742798 0
M  V30 1904 H 173.541 0.508366 1.88153 0
M  V30 1905 H 172.637 -0.423501 3.09213 0
M  V30 1906 N 172.938 -1.57226 0.108567 0
M  V30 1907 C 174.178 -1.96717 -0.555155 0
M  V30 1908 C 174.542 -0.990003 -1.64508 0
M  V30 1909 O 175.743 -1.2739 -2.36696 0
M  V30 1910 C 174.014 -3.40575 -1.08367 0
M  V30 1911 S 175.573 -4.02072 -1.75737 0
M  V30 1912 H 172.391 -0.687638 -0.180762 0
M  V30 1913 H 174.993 -1.94563 0.191172 0
M  V30 1914 H 173.697 -4.0945 -0.279092 0
M  V30 1915 H 173.228 -3.46356 -1.86551 0
M  V30 1916 H 175.243 -3.91977 -3.04251 0
M  V30 1917 N 174.416 0.165178 -1.56732 0
M  V30 1918 C 175.379 1.18822 -1.95995 0
M  V30 1919 C 176.379 1.3685 -0.84431 0
M  V30 1920 O 177.569 1.34152 -1.11126 0
M  V30 1921 C 174.701 2.5521 -2.26011 0
M  V30 1922 H 175.894 0.851825 -2.87548 0
M  V30 1923 H 173.447 0.407857 -1.50885 0
M  V30 1924 H 174.182 2.93852 -1.37191 0
M  V30 1925 H 173.967 2.43489 -3.07336 0
M  V30 1926 H 175.457 3.28927 -2.57288 0
M  V30 1927 N 175.894 1.51508 0.433938 0
M  V30 1928 C 177.119 1.68443 1.21003 0
M  V30 1929 C 177.544 0.382636 1.84167 0
M  V30 1930 O 176.902 -0.65755 1.68956 0
M  V30 1931 C 176.95 2.80405 2.26727 0
M  V30 1932 O 176.054 2.44245 3.32292 0
M  V30 1933 H 175.395 0.561536 0.354363 0
M  V30 1934 H 177.925 1.9809 0.512024 0
M  V30 1935 H 177.935 3.0459 2.71457 0
M  V30 1936 H 176.61 3.74867 1.80132 0
M  V30 1937 H 175.187 2.30644 2.93015 0
M  V30 1938 N 177.372 -0.689602 1.41712 0
M  V30 1939 C 178.62 -1.4468 1.4111 0
M  V30 1940 C 178.941 -1.94986 0.0232196 0
M  V30 1941 O 178.211 -1.72097 -0.935913 0
M  V30 1942 H 176.791 -0.536847 0.519427 0
M  V30 1943 H 179.453 -0.815825 1.77004 0
M  V30 1944 H 178.549 -2.30706 2.10193 0
M  V30 1945 N 178.85 -1.27639 -0.924453 0
M  V30 1946 C 180.08 -1.16819 -1.70402 0
M  V30 1947 C 180.488 0.277191 -1.87158 0
M  V30 1948 O 179.831 1.20025 -1.39067 0
M  V30 1949 C 179.893 -1.78305 -3.12166 0
M  V30 1950 C 179.557 -3.27502 -3.18734 0
M  V30 1951 C 180.554 -4.2409 -3.00738 0
M  V30 1952 C 178.239 -3.68269 -3.4159 0
M  V30 1953 C 180.233 -5.59422 -3.05492 0
M  V30 1954 C 177.92 -5.0373 -3.45977 0
M  V30 1955 C 178.918 -5.99116 -3.27946 0
M  V30 1956 O 178.606 -7.32108 -3.32074 0
M  V30 1957 H 178.338 -0.406931 -0.539799 0
M  V30 1958 H 180.892 -1.69078 -1.16626 0
M  V30 1959 H 179.122 -1.20528 -3.67437 0
M  V30 1960 H 180.811 -1.62154 -3.72103 0
M  V30 1961 H 181.577 -3.93931 -2.82919 0
M  V30 1962 H 177.456 -2.94496 -3.54673 0
M  V30 1963 H 181 -6.33852 -2.91337 0
M  V30 1964 H 176.897 -5.33543 -3.63321 0
M  V30 1965 H 177.665 -7.40598 -3.48507 0
M  V30 1966 N 180.328 1.1314 -1.09713 0
M  V30 1967 C 181.275 2.18642 -0.739196 0
M  V30 1968 C 182.245 1.63706 0.280978 0
M  V30 1969 O 183.43 1.90111 0.161946 0
M  V30 1970 C 180.57 3.44685 -0.169102 0
M  V30 1971 C 179.683 4.13711 -1.24367 0
M  V30 1972 C 178.818 5.27379 -0.636019 0
M  V30 1973 C 177.857 5.88259 -1.69169 0
M  V30 1974 N 176.994 6.93352 -1.10485 0
M  V30 1975 H 181.834 2.48607 -1.64312 0
M  V30 1976 H 179.371 1.22066 -0.820875 0
M  V30 1977 H 181.329 4.16815 0.179256 0
M  V30 1978 H 179.959 3.15161 0.698079 0
M  V30 1979 H 179.011 3.39835 -1.70927 0
M  V30 1980 H 180.323 4.55037 -2.04311 0
M  V30 1981 H 179.477 6.06238 -0.236677 0
M  V30 1982 H 178.216 4.8731 0.194928 0
M  V30 1983 H 177.221 5.08092 -2.10055 0
M  V30 1984 H 178.446 6.30399 -2.52536 0
M  V30 1985 H 176.392 6.55335 -0.295234 0
M  V30 1986 H 176.309 7.33236 -1.84121 0
M  V30 1987 H 177.577 7.76057 -0.73181 0
M  V30 1988 N 181.806 0.884767 1.30421 0
M  V30 1989 C 183.034 0.518044 2.0031 0
M  V30 1990 C 183.449 -0.893408 1.66324 0
M  V30 1991 O 182.806 -1.5875 0.900262 0
M  V30 1992 C 182.857 0.682997 3.54989 0
M  V30 1993 O 182.578 2.03888 3.87764 0
M  V30 1994 C 184.079 0.31924 4.42149 0
M  V30 1995 H 181.299 0.200265 0.640418 0
M  V30 1996 H 183.843 1.19001 1.6631 0
M  V30 1997 H 181.998 0.0584052 3.87356 0
M  V30 1998 H 182.412 2.05735 4.82466 0
M  V30 1999 H 183.886 0.485555 5.4986 0
M  V30 2000 H 184.363 -0.742717 4.32875 0
M  V30 2001 H 184.969 0.920147 4.15227 0
M  V30 2002 N 183.284 -1.43765 0.645699 0
M  V30 2003 C 184.512 -2.06253 0.163556 0
M  V30 2004 C 184.927 -1.48352 -1.16778 0
M  V30 2005 O 184.284 -0.611932 -1.71935 0
M  V30 2006 C 184.335 -3.61453 0.0583186 0
M  V30 2007 O 184.056 -4.172 1.33702 0
M  V30 2008 C 185.557 -4.41002 -0.450795 0
M  V30 2009 H 182.777 -0.665413 0.0864077 0
M  V30 2010 H 185.321 -1.84396 0.884222 0
M  V30 2011 H 183.476 -3.82522 -0.612865 0
M  V30 2012 H 183.89 -5.10791 1.19131 0
M  V30 2013 H 185.364 -5.49966 -0.473403 0
M  V30 2014 H 185.841 -4.13488 -1.48068 0
M  V30 2015 H 186.447 -4.24886 0.187637 0
M  V30 2016 N 184.763 -0.387143 -1.52771 0
M  V30 2017 C 186.011 0.195349 -2.01154 0
M  V30 2018 C 186.332 1.475 -1.27549 0
M  V30 2019 O 185.602 1.91878 -0.394924 0
M  V30 2020 H 184.182 0.075178 -0.743207 0
M  V30 2021 H 186.844 -0.518337 -1.87881 0
M  V30 2022 H 185.94 0.407096 -3.09434 0
M  V30 2023 N 186.241 1.57166 -0.116904 0
M  V30 2024 C 187.489 1.94737 0.540533 0
M  V30 2025 C 187.81 1.00096 1.67349 0
M  V30 2026 O 187.08 0.0568854 1.95817 0
M  V30 2027 H 185.66 0.718981 0.202669 0
M  V30 2028 H 188.322 1.94017 -0.185353 0
M  V30 2029 H 187.418 2.97719 0.936483 0
M  V30 2030 N 187.719 -0.156864 1.56817 0
M  V30 2031 C 188.666 -1.19394 1.97519 0
M  V30 2032 C 189.636 -1.4322 0.841265 0
M  V30 2033 O 190.821 -1.55719 1.10255 0
M  V30 2034 C 187.961 -2.52483 2.35258 0
M  V30 2035 C 187.074 -2.35914 3.61896 0
M  V30 2036 C 186.209 -3.61969 3.88782 0
M  V30 2037 C 185.248 -3.40395 5.08722 0
M  V30 2038 N 184.385 -4.58556 5.31668 0
M  V30 2039 H 189.225 -0.839845 2.85921 0
M  V30 2040 H 186.762 -0.403264 1.41464 0
M  V30 2041 H 188.72 -3.30071 2.55165 0
M  V30 2042 H 187.35 -2.85859 1.49949 0
M  V30 2043 H 186.402 -1.49429 3.49821 0
M  V30 2044 H 187.714 -2.15926 4.49641 0
M  V30 2045 H 186.868 -4.47989 4.09135 0
M  V30 2046 H 185.607 -3.84951 2.9944 0
M  V30 2047 H 184.612 -2.52763 4.88253 0
M  V30 2048 H 185.837 -3.18822 5.99608 0
M  V30 2049 H 183.783 -4.81729 4.45279 0
M  V30 2050 H 183.7 -4.41535 6.13664 0
M  V30 2051 H 184.968 -5.45817 5.5651 0
M  V30 2052 N 189.197 -1.51736 -0.425897 0
M  V30 2053 C 190.474 -1.55519 -1.1863 0
M  V30 2054 C 190.854 -0.326219 -2.08564 0
M  V30 2055 O 190.202 0.688012 -2.17896 0
M  V30 2056 C 190.412 -2.87521 -1.9782 0
M  V30 2057 C 191.76 -3.39899 -2.54468 0
M  V30 2058 O 192.784 -2.89148 -2.08019 0
M  V30 2059 O 191.643 -4.2848 -3.39215 0
M  V30 2060 H 188.737 -0.625739 -0.540721 0
M  V30 2061 H 191.283 -1.64055 -0.434038 0
M  V30 2062 H 190.055 -3.68422 -1.31836 0
M  V30 2063 H 189.678 -2.822 -2.80088 0
M  V30 2064 N 190.675 0.682077 -1.42076 0
M  V30 2065 C 191.585 1.82535 -1.47371 0
M  V30 2066 C 192.601 1.7017 -0.363079 0
M  V30 2067 O 193.777 1.91848 -0.612875 0
M  V30 2068 C 190.842 3.18624 -1.36674 0
M  V30 2069 C 189.903 3.42999 -2.58167 0
M  V30 2070 C 189.136 4.72595 -2.4797 0
M  V30 2071 O 189.359 5.50006 -1.5116 0
M  V30 2072 O 188.293 4.98054 -3.37974 0
M  V30 2073 H 192.119 1.81023 -2.43853 0
M  V30 2074 H 189.704 0.836887 -1.2376 0
M  V30 2075 H 191.586 3.99847 -1.33043 0
M  V30 2076 H 190.261 3.20789 -0.433138 0
M  V30 2077 H 189.168 2.61653 -2.67373 0
M  V30 2078 H 190.501 3.45659 -3.50401 0
M  V30 2079 N 192.153 1.28127 0.917671 0
M  V30 2080 C 193.063 1.13556 2.05286 0
M  V30 2081 C 194.079 0.0630914 1.73886 0
M  V30 2082 O 195.255 0.271598 1.9956 0
M  V30 2083 C 192.32 0.794676 3.3747 0
M  V30 2084 C 191.381 1.94909 3.82504 0
M  V30 2085 C 190.614 1.62437 5.0838 0
M  V30 2086 O 190.837 0.536905 5.67867 0
M  V30 2087 O 189.771 2.46677 5.4903 0
M  V30 2088 H 193.597 2.08844 2.20495 0
M  V30 2089 H 191.182 1.07409 1.03845 0
M  V30 2090 H 193.064 0.618344 4.16839 0
M  V30 2091 H 191.739 -0.128581 3.23445 0
M  V30 2092 H 190.646 2.18055 3.03978 0
M  V30 2093 H 191.979 2.85291 4.01086 0
M  V30 2094 N 193.631 -1.12557 1.10312 0
M  V30 2095 C 194.877 -1.84311 0.846011 0
M  V30 2096 C 195.21 -1.83805 -0.626859 0
M  V30 2097 O 194.485 -1.28268 -1.46211 0
M  V30 2098 C 194.768 -3.32048 1.39341 0
M  V30 2099 C 194.621 -3.41016 2.93305 0
M  V30 2100 C 195.94 -4.27764 1.03468 0
M  V30 2101 H 193.059 -0.669192 0.30879 0
M  V30 2102 H 195.701 -1.32057 1.36605 0
M  V30 2103 H 193.851 -3.76678 0.951087 0
M  V30 2104 H 195.523 -3.05031 3.46055 0
M  V30 2105 H 193.766 -2.81603 3.29973 0
M  V30 2106 H 194.437 -4.44948 3.26689 0
M  V30 2107 H 196.913 -3.91253 1.41633 0
M  V30 2108 H 195.789 -5.29549 1.44463 0
M  V30 2109 H 196.05 -4.42064 -0.0560404 0
M  V30 2110 N 195.109 -0.891671 -1.2995 0
M  V30 2111 C 196.355 -0.514261 -1.96171 0
M  V30 2112 C 196.688 0.935506 -1.70182 0
M  V30 2113 O 195.963 1.66204 -1.01028 0
M  V30 2114 C 196.246 -0.797719 -3.51153 0
M  V30 2115 C 196.099 -2.2986 -3.86632 0
M  V30 2116 C 197.418 -0.278749 -4.39216 0
M  V30 2117 H 194.537 -0.188314 -0.712535 0
M  V30 2118 H 197.179 -1.11689 -1.53706 0
M  V30 2119 H 195.329 -0.284826 -3.87455 0
M  V30 2120 H 197.001 -2.88042 -3.60319 0
M  V30 2121 H 195.244 -2.76257 -3.34462 0
M  V30 2122 H 195.915 -2.44753 -4.94773 0
M  V30 2123 H 198.391 -0.717825 -4.09862 0
M  V30 2124 H 197.267 -0.506353 -5.46559 0
M  V30 2125 H 197.528 0.820266 -4.34424 0
M  V30 2126 N 196.587 1.43421 -0.653314 0
M  V30 2127 C 197.519 2.29071 0.0769134 0
M  V30 2128 C 198.532 1.42513 0.787017 0
M  V30 2129 O 199.721 1.66449 0.644757 0
M  V30 2130 C 196.821 3.19436 1.13199 0
M  V30 2131 C 195.994 4.34533 0.500006 0
M  V30 2132 C 195.053 5.05771 1.45198 0
M  V30 2133 O 194.079 5.61037 0.960538 0
M  V30 2134 N 195.281 5.0928 2.78594 0
M  V30 2135 H 198.046 2.92382 -0.658235 0
M  V30 2136 H 195.607 1.54112 -0.496104 0
M  V30 2137 H 197.599 3.63958 1.76964 0
M  V30 2138 H 196.169 2.57724 1.7691 0
M  V30 2139 H 195.389 3.92925 -0.316738 0
M  V30 2140 H 196.677 5.08766 0.0588345 0
M  V30 2141 H 196.075 4.65751 3.2108 0
M  V30 2142 H 194.632 5.57519 3.37662 0
M  V30 2143 N 198.065 0.39524 1.52563 0
M  V30 2144 C 199.305 -0.184744 2.03563 0
M  V30 2145 C 199.669 -1.43548 1.27507 0
M  V30 2146 O 200.87 -2.093 1.68662 0
M  V30 2147 C 199.141 -0.440294 3.54678 0
M  V30 2148 S 200.7 -0.989712 4.27493 0
M  V30 2149 H 197.518 -0.0515075 0.709132 0
M  V30 2150 H 200.12 0.544957 1.87751 0
M  V30 2151 H 198.824 0.477005 4.07618 0
M  V30 2152 H 198.355 -1.19825 3.74707 0
M  V30 2153 H 200.37 -2.27155 4.41152 0
M  V30 2154 N 199.544 -1.57102 0.125237 0
M  V30 2155 C 200.474 -2.18659 -0.819174 0
M  V30 2156 C 201.455 -1.12843 -1.27281 0
M  V30 2157 O 202.64 -1.41104 -1.33429 0
M  V30 2158 C 199.77 -2.79096 -2.06695 0
M  V30 2159 C 198.724 -3.90548 -1.75088 0
M  V30 2160 C 198.05 -4.37821 -3.06948 0
M  V30 2161 C 199.35 -5.12356 -1.01435 0
M  V30 2162 H 201.044 -2.9783 -0.306202 0
M  V30 2163 H 198.59 -1.4326 -0.145839 0
M  V30 2164 H 200.543 -3.2082 -2.73226 0
M  V30 2165 H 199.267 -1.97223 -2.60328 0
M  V30 2166 H 197.926 -3.49409 -1.10944 0
M  V30 2167 H 197.574 -3.52799 -3.58527 0
M  V30 2168 H 197.274 -5.12982 -2.86571 0
M  V30 2169 H 198.798 -4.822 -3.74587 0
M  V30 2170 H 200.212 -5.5106 -1.58132 0
M  V30 2171 H 198.609 -5.9314 -0.911319 0
M  V30 2172 H 199.679 -4.849 -0.00218681 0
M  V30 2173 N 201.022 0.148545 -1.56898 0
M  V30 2174 C 202.247 0.880385 -1.87787 0
M  V30 2175 C 202.672 1.74018 -0.714093 0
M  V30 2176 O 202.03 1.78153 0.336343 0
M  V30 2177 C 202.078 1.71422 -3.17249 0
M  V30 2178 O 201.182 2.8183 -3.01074 0
M  V30 2179 H 200.523 0.245301 -0.617028 0
M  V30 2180 H 203.053 0.139826 -2.04122 0
M  V30 2181 H 203.063 2.10954 -3.49231 0
M  V30 2182 H 201.738 1.08284 -4.01556 0
M  V30 2183 H 200.315 2.45715 -2.80497 0
M  V30 2184 N 202.5 1.5196 0.417844 0
M  V30 2185 C 203.777 1.56146 1.17803 0
M  V30 2186 C 204.157 0.337275 2.08388 0
M  V30 2187 O 203.505 -0.676447 2.18258 0
M  V30 2188 C 203.715 2.88566 1.96293 0
M  V30 2189 C 205.063 3.41244 2.52662 0
M  V30 2190 O 206.087 2.90247 2.06483 0
M  V30 2191 O 204.946 4.30273 3.36938 0
M  V30 2192 H 202.04 0.628598 0.537395 0
M  V30 2193 H 204.586 1.64283 0.425331 0
M  V30 2194 H 203.358 3.69116 1.2988 0
M  V30 2195 H 202.981 2.83681 2.78587 0
M  V30 2196 N 203.978 -0.674533 1.42435 0
M  V30 2197 C 205.226 -1.43175 1.42637 0
M  V30 2198 C 205.547 -1.94951 0.0438992 0
M  V30 2199 O 204.817 -1.7308 -0.917607 0
M  V30 2200 H 203.397 -0.531307 0.525092 0
M  V30 2201 H 206.059 -0.797006 1.77859 0
M  V30 2202 H 205.155 -2.28463 2.12629 0
M  V30 2203 N 205.456 -1.28612 -0.910864 0
M  V30 2204 C 206.702 -1.17116 -1.66299 0
M  V30 2205 C 207.057 0.276917 -1.90397 0
M  V30 2206 O 206.35 1.19795 -1.49532 0
M  V30 2207 C 206.544 -1.90624 -3.0232 0
M  V30 2208 C 206.373 -3.42431 -2.91498 0
M  V30 2209 C 205.143 -4.11773 -2.92867 0
M  V30 2210 C 207.341 -4.38124 -2.69355 0
M  V30 2211 N 205.323 -5.50025 -2.72664 0
M  V30 2212 C 206.694 -5.63759 -2.58023 0
M  V30 2213 C 208.749 -4.28016 -2.54375 0
M  V30 2214 C 207.452 -6.80436 -2.33238 0
M  V30 2215 C 209.478 -5.44433 -2.30969 0
M  V30 2216 C 208.84 -6.69034 -2.20394 0
M  V30 2217 H 204.939 -0.483506 -0.61461 0
M  V30 2218 H 207.523 -1.62299 -1.0755 0
M  V30 2219 H 205.694 -1.4787 -3.5915 0
M  V30 2220 H 207.426 -1.71488 -3.66571 0
M  V30 2221 H 204.181 -3.63378 -3.03732 0
M  V30 2222 H 204.605 -6.22705 -2.65646 0
M  V30 2223 H 209.247 -3.32388 -2.613 0
M  V30 2224 H 206.965 -7.7613 -2.25051 0
M  V30 2225 H 210.551 -5.38504 -2.20238 0
M  V30 2226 H 209.431 -7.57595 -2.02531 0
M  V30 2227 N 206.934 1.1197 -1.10907 0
M  V30 2228 C 208.159 1.87942 -0.877064 0
M  V30 2229 C 208.584 1.79341 0.567314 0
M  V30 2230 O 207.942 1.15184 1.40009 0
M  V30 2231 C 207.99 3.34926 -1.33629 0
M  V30 2232 O 207.094 4.09303 -0.504447 0
M  V30 2233 H 206.435 0.583785 -0.316371 0
M  V30 2234 H 208.965 1.4157 -1.47712 0
M  V30 2235 H 208.975 3.8577 -1.32837 0
M  V30 2236 H 207.65 3.40504 -2.3881 0
M  V30 2237 H 206.227 3.68393 -0.577993 0
M  V30 2238 N 208.412 0.89855 1.29475 0
M  V30 2239 C 209.637 0.538561 2.00285 0
M  V30 2240 C 210.062 -0.869135 1.66816 0
M  V30 2241 O 209.42 -1.57831 0.892145 0
M  V30 2242 C 209.468 0.736475 3.52999 0
M  V30 2243 O 208.572 -0.211537 4.11857 0
M  V30 2244 H 207.913 0.210563 0.62973 0
M  V30 2245 H 210.443 1.20982 1.64998 0
M  V30 2246 H 210.453 0.640685 4.02938 0
M  V30 2247 H 209.128 1.76276 3.76696 0
M  V30 2248 H 207.705 -0.0682991 3.72837 0
M  V30 2249 N 209.89 -1.43072 0.660911 0
M  V30 2250 C 210.822 -2.29108 -0.0647641 0
M  V30 2251 C 211.835 -1.42928 -0.779448 0
M  V30 2252 O 213.024 -1.66788 -0.635921 0
M  V30 2253 C 210.124 -3.20032 -1.11503 0
M  V30 2254 C 209.297 -4.34792 -0.476955 0
M  V30 2255 C 208.356 -5.06534 -1.42513 0
M  V30 2256 O 207.382 -5.61538 -0.930771 0
M  V30 2257 N 208.584 -5.1075 -2.75889 0
M  V30 2258 H 211.349 -2.92029 0.673731 0
M  V30 2259 H 208.91 -1.53846 0.50427 0
M  V30 2260 H 210.902 -3.64892 -1.75032 0
M  V30 2261 H 209.472 -2.58658 -1.75541 0
M  V30 2262 H 208.692 -3.92752 0.337572 0
M  V30 2263 H 209.98 -5.0879 -0.0318525 0
M  V30 2264 H 209.378 -4.67447 -3.18606 0
M  V30 2265 H 207.935 -5.59302 -3.347 0
M  V30 2266 N 211.368 -0.403325 -1.52352 0
M  V30 2267 C 212.779 0.0675782 -1.86578 0
M  V30 2268 C 213.13 1.44941 -1.32236 0
M  V30 2269 O 212.255 2.06112 -0.659307 0
M  V30 2270 C 212.85 0.129404 -3.38553 0
M  V30 2271 C 211.409 0.544629 -3.72439 0
M  V30 2272 C 210.556 -0.284551 -2.75836 0
M  V30 2273 H 213.507 -0.620631 -1.46061 0
M  V30 2274 H 213.528 0.94581 -3.68558 0
M  V30 2275 H 213.04 -0.87645 -3.78074 0
M  V30 2276 H 211.141 1.55734 -3.38493 0
M  V30 2277 H 211.254 0.293046 -4.78203 0
M  V30 2278 H 209.618 0.252258 -2.53448 0
M  V30 2279 H 210.401 -1.28865 -3.18196 0
M  V30 2280 N 212.846 1.57033 -0.133567 0
M  V30 2281 C 214.074 2.00044 0.528195 0
M  V30 2282 C 214.489 1.01349 1.59291 0
M  V30 2283 O 213.846 0.00848369 1.82498 0
M  V30 2284 C 213.897 3.43018 1.1411 0
M  V30 2285 O 213.618 4.37939 0.11892 0
M  V30 2286 C 215.119 4.01237 1.88477 0
M  V30 2287 H 212.339 0.656517 0.138661 0
M  V30 2288 H 214.883 2.03267 -0.224196 0
M  V30 2289 H 213.038 3.40688 1.84418 0
M  V30 2290 H 213.452 5.21436 0.56613 0
M  V30 2291 H 214.926 5.03314 2.26669 0
M  V30 2292 H 215.403 3.41193 2.76558 0
M  V30 2293 H 216.009 4.07156 1.22898 0
M  V30 2294 N 214.325 -0.140222 1.56975 0
M  V30 2295 C 215.565 -0.857823 1.85528 0
M  V30 2296 C 215.929 -1.78039 0.718768 0
M  V30 2297 O 217.13 -2.53795 0.885521 0
M  V30 2298 C 215.401 -1.60615 3.19277 0
M  V30 2299 S 216.96 -2.36824 3.69405 0
M  V30 2300 H 213.778 -0.286727 0.650622 0
M  V30 2301 H 216.38 -0.117408 1.95147 0
M  V30 2302 H 215.084 -0.919994 3.99955 0
M  V30 2303 H 214.615 -2.38735 3.12681 0
M  V30 2304 H 216.63 -3.62148 3.3921 0
M  V30 2305 N 215.803 -1.52179 -0.40978 0
M  V30 2306 C 217.219 -1.40968 -0.74835 0
M  V30 2307 C 217.419 -0.513657 -1.94843 0
M  V30 2308 O 216.475 0.0208026 -2.52491 0
M  V30 2309 C 217.788 -2.83483 -1.0029 0
M  V30 2310 C 219.336 -2.92821 -1.10565 0
M  V30 2311 C 219.811 -4.36303 -1.39296 0
M  V30 2312 N 221.302 -4.39535 -1.46162 0
M  V30 2313 C 222.037 -5.47614 -1.70018 0
M  V30 2314 N 221.533 -6.65812 -1.91483 0
M  V30 2315 N 223.326 -5.35129 -1.72027 0
M  V30 2316 H 215.477 -2.0897 0.380186 0
M  V30 2317 H 217.74 -0.94185 0.107805 0
M  V30 2318 H 217.446 -3.51168 -0.193461 0
M  V30 2319 H 217.32 -3.24487 -1.92323 0
M  V30 2320 H 219.707 -2.25318 -1.90568 0
M  V30 2321 H 219.788 -2.55276 -0.16369 0
M  V30 2322 H 219.432 -5.04366 -0.598109 0
M  V30 2323 H 219.362 -4.71385 -2.34743 0
M  V30 2324 H 221.853 -3.54332 -1.31367 0
M  V30 2325 H 222.166 -7.43964 -2.09134 0
M  V30 2326 H 220.511 -6.68879 -1.88749 0
M  V30 2327 H 223.702 -4.41764 -1.54796 0
M  V30 2328 H 223.875 -6.19433 -1.9028 0
M  V30 2329 N 217.281 0.66697 -1.42791 0
M  V30 2330 C 218.228 1.7803 -1.4688 0
M  V30 2331 C 219.198 1.6299 -0.319919 0
M  V30 2332 O 220.383 1.83432 -0.525118 0
M  V30 2333 C 217.523 3.1611 -1.38451 0
M  V30 2334 C 216.636 3.42381 -2.63437 0
M  V30 2335 C 215.771 4.70232 -2.47094 0
M  V30 2336 C 214.81 4.89564 -3.67415 0
M  V30 2337 N 213.947 6.08661 -3.49966 0
M  V30 2338 H 218.787 1.7387 -2.42019 0
M  V30 2339 H 216.324 0.84868 -1.20149 0
M  V30 2340 H 218.282 3.95914 -1.31561 0
M  V30 2341 H 216.912 3.19374 -0.469033 0
M  V30 2342 H 215.964 2.56774 -2.80662 0
M  V30 2343 H 217.276 3.52557 -3.52853 0
M  V30 2344 H 216.43 5.5814 -2.37834 0
M  V30 2345 H 215.169 4.62353 -1.5518 0
M  V30 2346 H 214.174 4.00096 -3.77099 0
M  V30 2347 H 215.399 4.99282 -4.6032 0
M  V30 2348 H 213.345 6.0194 -2.60776 0
M  V30 2349 H 213.262 6.19733 -4.32975 0
M  V30 2350 H 214.53 6.99226 -3.44532 0
M  V30 2351 N 218.759 1.29093 0.90403 0
M  V30 2352 C 219.669 1.15727 2.0407 0
M  V30 2353 C 220.685 0.0815308 1.73809 0
M  V30 2354 O 221.861 0.292749 1.99261 0
M  V30 2355 C 218.926 0.830424 3.36608 0
M  V30 2356 C 217.987 1.98955 3.80415 0
M  V30 2357 C 217.22 1.6782 5.06628 0
M  V30 2358 O 217.443 0.597105 5.67266 0
M  V30 2359 O 216.377 2.52486 5.46383 0
M  V30 2360 H 220.203 2.11171 2.18267 0
M  V30 2361 H 217.788 1.08504 1.027 0
M  V30 2362 H 219.67 0.662521 4.16159 0
M  V30 2363 H 218.345 -0.0942678 3.23563 0
M  V30 2364 H 217.252 2.21267 3.01648 0
M  V30 2365 H 218.585 2.89529 3.98037 0
M  V30 2366 N 220.237 -1.11381 1.11499 0
M  V30 2367 C 221.187 -2.15555 0.74298 0
M  V30 2368 C 222.171 -1.58894 -0.253276 0
M  V30 2369 O 223.363 -1.76897 -0.0602918 0
M  V30 2370 C 220.492 -3.42782 0.188481 0
M  V30 2371 C 219.578 -4.064 1.21244 0
M  V30 2372 N 219.969 -4.44864 2.40685 0
M  V30 2373 C 218.267 -4.3333 1.05552 0
M  V30 2374 C 218.968 -4.94715 3.05994 0
M  V30 2375 N 217.944 -4.90909 2.33472 0
M  V30 2376 H 221.746 -2.43074 1.65203 0
M  V30 2377 H 219.26 -1.28401 0.994329 0
M  V30 2378 H 221.257 -4.16789 -0.0961693 0
M  V30 2379 H 219.917 -3.16727 -0.715149 0
M  V30 2380 H 220.928 -4.36876 2.78136 0
M  V30 2381 H 217.605 -4.1698 0.208372 0
M  V30 2382 H 218.995 -5.34103 4.07656 0
M  V30 2383 N 221.715 -0.905404 -1.28997 0
M  V30 2384 C 222.625 -0.392246 -2.31298 0
M  V30 2385 C 223.641 0.515889 -1.66176 0
M  V30 2386 O 224.817 0.404093 -1.97304 0
M  V30 2387 C 221.882 0.36686 -3.44754 0
M  V30 2388 C 220.943 -0.573485 -4.25452 0
M  V30 2389 C 220.176 0.149488 -5.33491 0
M  V30 2390 O 220.399 1.37255 -5.5364 0
M  V30 2391 O 219.333 -0.510919 -5.99728 0
M  V30 2392 H 223.159 -1.2411 -2.77183 0
M  V30 2393 H 220.744 -0.669926 -1.33538 0
M  V30 2394 H 222.626 0.795907 -4.13816 0
M  V30 2395 H 221.301 1.19169 -3.00966 0
M  V30 2396 H 220.208 -1.05176 -3.59011 0
M  V30 2397 H 221.541 -1.36489 -4.72897 0
M  V30 2398 N 223.193 1.4272 -0.668489 0
M  V30 2399 C 224.421 2.05966 -0.196348 0
M  V30 2400 C 224.836 1.50191 1.14403 0
M  V30 2401 O 224.193 0.639208 1.7094 0
M  V30 2402 C 224.244 3.61314 -0.115815 0
M  V30 2403 O 223.965 4.1502 -1.40322 0
M  V30 2404 C 225.466 4.41663 0.380579 0
M  V30 2405 H 222.686 0.663954 -0.0969829 0
M  V30 2406 H 225.23 1.82966 -0.913446 0
M  V30 2407 H 223.385 3.83448 0.551931 0
M  V30 2408 H 223.799 5.08832 -1.27243 0
M  V30 2409 H 225.273 5.5065 0.385848 0
M  V30 2410 H 225.75 4.15792 1.41471 0
M  V30 2411 H 226.356 4.24534 -0.255209 0
M  V30 2412 N 224.671 0.411399 1.52136 0
M  V30 2413 C 225.911 -0.163143 2.03748 0
M  V30 2414 C 226.275 -1.42187 1.29022 0
M  V30 2415 O 227.476 -2.075 1.70872 0
M  V30 2416 C 225.747 -0.402651 3.55125 0
M  V30 2417 S 227.306 -0.944315 4.28519 0
M  V30 2418 H 224.124 -0.0439833 0.709638 0
M  V30 2419 H 226.726 0.56484 1.87163 0
M  V30 2420 H 225.43 0.520212 4.0709 0
M  V30 2421 H 224.961 -1.15844 3.75957 0
M  V30 2422 H 226.976 -2.22463 4.43536 0
M  V30 2423 N 226.149 -1.5696 0.141893 0
M  V30 2424 C 227.079 -2.19516 -0.795936 0
M  V30 2425 C 228.06 -1.14187 -1.26077 0
M  V30 2426 O 229.245 -1.42511 -1.31925 0
M  V30 2427 C 226.375 -2.81272 -2.03723 0
M  V30 2428 C 225.329 -3.92384 -1.70936 0
M  V30 2429 C 224.655 -4.41052 -3.02287 0
M  V30 2430 C 225.955 -5.13403 -0.959954 0
M  V30 2431 H 227.649 -2.98138 -0.274596 0
M  V30 2432 H 225.195 -1.43406 -0.130636 0
M  V30 2433 H 227.148 -3.237 -2.69808 0
M  V30 2434 H 225.872 -1.99973 -2.58221 0
M  V30 2435 H 224.531 -3.50566 -1.07232 0
M  V30 2436 H 224.179 -3.56582 -3.54765 0
M  V30 2437 H 223.879 -5.15993 -2.81114 0
M  V30 2438 H 225.403 -4.86146 -3.69451 0
M  V30 2439 H 226.817 -5.52706 -1.52279 0
M  V30 2440 H 225.214 -5.94073 -0.848357 0
M  V30 2441 H 226.284 -4.84875 0.0492434 0
M  V30 2442 N 227.627 0.131896 -1.57047 0
M  V30 2443 C 228.59 1.14638 -1.98471 0
M  V30 2444 C 229.59 1.35029 -0.873148 0
M  V30 2445 O 230.78 1.31764 -1.13946 0
M  V30 2446 C 227.912 2.50358 -2.31373 0
M  V30 2447 H 229.105 0.79064 -2.8929 0
M  V30 2448 H 226.658 0.375761 -1.51716 0
M  V30 2449 H 227.393 2.90876 -1.43393 0
M  V30 2450 H 227.178 2.36915 -3.12432 0
M  V30 2451 H 228.668 3.23395 -2.64207 0
M  V30 2452 N 229.106 1.52395 0.401703 0
M  V30 2453 C 230.517 1.58899 0.980202 0
M  V30 2454 C 230.868 0.434032 1.91339 0
M  V30 2455 O 229.993 -0.444619 2.11783 0
M  V30 2456 C 230.588 2.87994 1.78451 0
M  V30 2457 C 229.147 2.96953 2.31292 0
M  V30 2458 C 228.294 2.53903 1.11483 0
M  V30 2459 H 231.245 1.57657 0.18168 0
M  V30 2460 H 231.266 2.73765 2.64259 0
M  V30 2461 H 230.778 3.72035 1.10506 0
M  V30 2462 H 228.879 2.17422 3.02586 0
M  V30 2463 H 228.992 4.01344 2.61649 0
M  V30 2464 H 227.356 2.07925 1.47104 0
M  V30 2465 H 228.139 3.40326 0.450928 0
M  V30 2466 N 230.584 -0.659388 1.43143 0
M  V30 2467 C 231.494 -1.80167 1.50256 0
M  V30 2468 C 232.51 -1.69571 0.390106 0
M  V30 2469 O 233.686 -1.90849 0.643319 0
M  V30 2470 C 230.751 -3.16409 1.41725 0
M  V30 2471 C 229.812 -3.38848 2.63591 0
M  V30 2472 C 229.045 -4.68591 2.55458 0
M  V30 2473 O 229.268 -5.47532 1.59891 0
M  V30 2474 O 228.202 -4.92614 3.45854 0
M  V30 2475 H 232.028 -1.77121 2.46702 0
M  V30 2476 H 229.613 -0.817092 1.25076 0
M  V30 2477 H 231.495 -3.9768 1.39387 0
M  V30 2478 H 230.17 -3.20059 0.484118 0
M  V30 2479 H 229.077 -2.57366 2.71502 0
M  V30 2480 H 230.41 -3.4004 3.55856 0
M  V30 2481 N 232.062 -1.29571 -0.897171 0
M  V30 2482 C 232.992 -1.17473 -2.01798 0
M  V30 2483 C 233.973 -0.068323 -1.69963 0
M  V30 2484 O 235.158 -0.248239 -1.92607 0
M  V30 2485 C 232.288 -0.853099 -3.36659 0
M  V30 2486 C 231.242 -1.9161 -3.82713 0
M  V30 2487 C 230.568 -1.44773 -5.14728 0
M  V30 2488 C 231.868 -3.32535 -4.02763 0
M  V30 2489 H 233.562 -2.11237 -2.12177 0
M  V30 2490 H 231.108 -1.01699 -1.01948 0
M  V30 2491 H 233.061 -0.755165 -4.14578 0
M  V30 2492 H 231.785 0.120236 -3.26379 0
M  V30 2493 H 230.444 -2.00346 -3.07013 0
M  V30 2494 H 230.092 -0.462995 -5.00865 0
M  V30 2495 H 229.792 -2.15865 -5.46513 0
M  V30 2496 H 231.316 -1.36334 -5.95185 0
M  V30 2497 H 232.73 -3.26626 -4.71156 0
M  V30 2498 H 231.127 -4.01607 -4.45905 0
M  V30 2499 H 232.197 -3.75326 -3.07016 0
M  V30 2500 N 233.54 1.10788 -1.12088 0
M  V30 2501 C 234.77 1.86191 -0.895351 0
M  V30 2502 C 235.178 1.80763 0.558702 0
M  V30 2503 O 234.521 1.19188 1.39785 0
M  V30 2504 C 234.583 3.35659 -1.28737 0
M  V30 2505 C 234.247 3.64849 -2.75198 0
M  V30 2506 C 235.244 3.61757 -3.734 0
M  V30 2507 C 232.929 3.93641 -3.12013 0
M  V30 2508 C 234.923 3.87045 -5.06434 0
M  V30 2509 C 232.61 4.18585 -4.4523 0
M  V30 2510 C 233.608 4.15277 -5.42249 0
M  V30 2511 O 233.296 4.3959 -6.73065 0
M  V30 2512 H 233.028 0.595425 -0.32007 0
M  V30 2513 H 235.582 1.40992 -1.49367 0
M  V30 2514 H 233.812 3.81497 -0.63224 0
M  V30 2515 H 235.501 3.92441 -1.03656 0
M  V30 2516 H 236.267 3.39557 -3.46303 0
M  V30 2517 H 232.146 3.95348 -2.37109 0
M  V30 2518 H 235.69 3.84378 -5.82151 0
M  V30 2519 H 231.587 4.40264 -4.72057 0
M  V30 2520 H 232.355 4.57123 -6.78956 0
M  V30 2521 N 235.018 0.912232 1.28515 0
M  V30 2522 C 235.966 0.389597 2.29314 0
M  V30 2523 C 236.96 -0.517915 1.61289 0
M  V30 2524 O 238.166 -0.399328 1.75515 0
M  V30 2525 H 234.541 0.107386 0.744293 0
M  V30 2526 H 236.512 1.25286 2.70825 0
M  V30 2527 C 235.261 -0.356496 3.45868 0
M  V30 2528 H 234.584 0.332608 3.98414 0
M  V30 2529 H 236.024 -0.686851 4.184 0
M  V30 2530 C 234.483 -1.56383 2.98406 0
M  V30 2531 O 235.013 -2.66294 3.00749 0
M  V30 2532 N 233.219 -1.41029 2.54085 0
M  V30 2533 H 232.766 -0.516089 2.52377 0
M  V30 2534 H 232.724 -2.21939 2.22689 0
M  V30 2535 N 236.496 -1.42363 0.676048 0
M  V30 2536 C 237.744 -2.01123 0.198437 0
M  V30 2537 C 238.065 -1.53731 -1.19966 0
M  V30 2538 O 237.335 -0.759518 -1.80577 0
M  V30 2539 H 235.915 -0.743678 0.0703721 0
M  V30 2540 H 238.577 -1.74263 0.872837 0
M  V30 2541 H 237.673 -3.11454 0.200686 0
M  V30 2542 N 237.974 -0.419461 -1.51915 0
M  V30 2543 C 238.922 0.415502 -2.28859 0
M  V30 2544 C 239.916 1.03674 -1.3397 0
M  V30 2545 O 241.122 0.973757 -1.51387 0
M  V30 2546 H 237.497 0.152786 -0.736315 0
M  V30 2547 H 239.468 -0.254531 -2.97312 0
M  V30 2548 C 238.217 1.51425 -3.12995 0
M  V30 2549 H 237.54 1.04556 -3.85886 0
M  V30 2550 H 238.98 2.07208 -3.6992 0
M  V30 2551 C 237.439 2.48745 -2.27217 0
M  V30 2552 O 237.969 3.52871 -1.9195 0
M  V30 2553 N 236.175 2.19202 -1.90785 0
M  V30 2554 H 235.722 1.34556 -2.19664 0
M  V30 2555 H 235.68 2.84561 -1.33687 0
M  V30 2556 N 239.452 1.56882 -0.150215 0
M  V30 2557 C 240.682 2.00302 0.506213 0
M  V30 2558 C 241.09 1.02934 1.58749 0
M  V30 2559 O 240.433 0.0188384 1.8369 0
M  V30 2560 C 240.495 3.40156 1.16337 0
M  V30 2561 C 240.159 4.56439 0.226311 0
M  V30 2562 C 241.156 5.17012 -0.547265 0
M  V30 2563 C 238.841 5.02136 0.128279 0
M  V30 2564 C 240.835 6.21693 -1.40629 0
M  V30 2565 C 238.522 6.06672 -0.734345 0
M  V30 2566 C 239.52 6.6632 -1.50023 0
M  V30 2567 O 239.208 7.68831 -2.34848 0
M  V30 2568 H 238.94 0.662182 0.135984 0
M  V30 2569 H 241.494 2.03961 -0.242746 0
M  V30 2570 H 239.724 3.33346 1.96004 0
M  V30 2571 H 241.413 3.67663 1.71985 0
M  V30 2572 H 242.179 4.82603 -0.48158 0
M  V30 2573 H 238.058 4.55435 0.714157 0
M  V30 2574 H 241.602 6.68179 -2.00455 0
M  V30 2575 H 237.499 6.40507 -0.801309 0
M  V30 2576 H 238.267 7.86065 -2.28131 0
M  V30 2577 N 240.93 -0.123565 1.57115 0
M  V30 2578 C 242.155 -0.850398 1.89164 0
M  V30 2579 C 242.58 -1.7286 0.741688 0
M  V30 2580 O 241.938 -1.78665 -0.307958 0
M  V30 2581 C 241.986 -1.66353 3.19936 0
M  V30 2582 O 241.09 -2.77004 3.0552 0
M  V30 2583 H 240.431 -0.235454 0.620852 0
M  V30 2584 H 242.961 -0.107335 2.04318 0
M  V30 2585 H 242.971 -2.05372 3.52543 0
M  V30 2586 H 241.646 -1.01881 4.03228 0
M  V30 2587 H 240.223 -2.41221 2.84371 0
M  V30 2588 N 242.408 -1.52605 -0.393616 0
M  V30 2589 C 243.636 -1.71294 -1.16043 0
M  V30 2590 C 244.051 -0.429259 -1.83855 0
M  V30 2591 O 243.408 0.595921 -1.72496 0
M  V30 2592 C 243.459 -2.8593 -2.21193 0
M  V30 2593 O 243.18 -4.09329 -1.56146 0
M  V30 2594 C 244.681 -3.16259 -3.10636 0
M  V30 2595 H 241.901 -0.573641 -0.348104 0
M  V30 2596 H 244.445 -1.99234 -0.461092 0
M  V30 2597 H 242.6 -2.60465 -2.86769 0
M  V30 2598 H 243.014 -4.73323 -2.25978 0
M  V30 2599 H 244.488 -3.99946 -3.80456 0
M  V30 2600 H 244.965 -2.3045 -3.73884 0
M  V30 2601 H 245.571 -3.43547 -2.50711 0
M  V30 2602 N 243.887 0.651787 -1.4349 0
M  V30 2603 C 245.115 1.43937 -1.48626 0
M  V30 2604 C 245.53 1.8851 -0.104587 0
M  V30 2605 O 244.887 1.5958 0.885464 0
M  V30 2606 C 244.938 2.6734 -2.43334 0
M  V30 2607 O 244.659 2.24631 -3.76128 0
M  V30 2608 C 246.16 3.60683 -2.57726 0
M  V30 2609 H 243.38 0.44213 -0.504739 0
M  V30 2610 H 245.924 0.798944 -1.88248 0
M  V30 2611 H 244.079 3.2752 -2.06904 0
M  V30 2612 H 244.493 3.04485 -4.2707 0
M  V30 2613 H 245.967 4.43933 -3.28067 0
M  V30 2614 H 246.444 4.08126 -1.62265 0
M  V30 2615 H 247.05 3.06384 -2.94973 0
M  V30 2616 N 245.365 1.30045 0.890287 0
M  V30 2617 C 246.297 1.11786 2.00091 0
M  V30 2618 C 247.31 0.0626307 1.62679 0
M  V30 2619 O 248.499 0.308112 1.75821 0
M  V30 2620 C 245.599 0.681527 3.31977 0
M  V30 2621 C 244.772 1.81735 3.97858 0
M  V30 2622 C 243.831 1.37045 5.08041 0
M  V30 2623 O 242.857 2.07677 5.29961 0
M  V30 2624 N 244.059 0.246525 5.79976 0
M  V30 2625 H 246.824 2.07441 2.16306 0
M  V30 2626 H 244.385 1.2211 1.06305 0
M  V30 2627 H 246.377 0.365675 4.03045 0
M  V30 2628 H 244.947 -0.182828 3.12065 0
M  V30 2629 H 244.167 2.30159 3.20032 0
M  V30 2630 H 245.455 2.57865 4.38615 0
M  V30 2631 H 244.853 -0.34215 5.64664 0
M  V30 2632 H 243.41 -0.00990438 6.51799 0
M  V30 2633 N 246.843 -1.10192 1.12674 0
M  V30 2634 C 247.79 -2.16606 0.796906 0
M  V30 2635 C 248.76 -1.64394 -0.237476 0
M  V30 2636 O 249.945 -1.90474 -0.111484 0
M  V30 2637 C 247.085 -3.44116 0.26043 0
M  V30 2638 C 246.198 -4.10268 1.35293 0
M  V30 2639 C 245.333 -5.25507 0.775621 0
M  V30 2640 C 244.372 -5.83567 1.84706 0
M  V30 2641 N 243.509 -6.90179 1.28829 0
M  V30 2642 H 248.349 -2.44163 1.70846 0
M  V30 2643 H 245.886 -1.19846 0.85295 0
M  V30 2644 H 247.844 -4.17143 -0.0686814 0
M  V30 2645 H 246.474 -3.16901 -0.614274 0
M  V30 2646 H 245.526 -3.35184 1.79877 0
M  V30 2647 H 246.838 -4.4946 2.16303 0
M  V30 2648 H 245.992 -6.05398 0.397327 0
M  V30 2649 H 244.731 -4.87656 -0.0656581 0
M  V30 2650 H 243.736 -5.02344 2.23452 0
M  V30 2651 H 244.961 -6.23482 2.69161 0
M  V30 2652 H 242.907 -6.54322 0.468881 0
M  V30 2653 H 242.824 -7.28097 2.03497 0
M  V30 2654 H 244.092 -7.73844 0.937311 0
M  V30 2655 N 248.321 -0.919034 -1.28029 0
M  V30 2656 C 249.549 -0.570971 -1.98866 0
M  V30 2657 C 249.964 0.848996 -1.68634 0
M  V30 2658 O 249.321 1.56307 -0.942036 0
M  V30 2659 C 249.372 -0.776876 -3.53054 0
M  V30 2660 O 249.093 -2.14097 -3.82222 0
M  V30 2661 C 250.594 -0.436356 -4.41147 0
M  V30 2662 H 247.814 -0.217175 -0.634883 0
M  V30 2663 H 250.358 -1.23368 -1.63097 0
M  V30 2664 H 248.513 -0.161085 -3.87065 0
M  V30 2665 H 248.927 -2.18455 -4.76841 0
M  V30 2666 H 250.401 -0.63117 -5.4838 0
M  V30 2667 H 250.878 0.627686 -4.34692 0
M  V30 2668 H 251.484 -1.02991 -4.12641 0
M  V30 2669 N 249.799 1.42003 -0.683588 0
M  V30 2670 C 251.046 2.01413 -0.209514 0
M  V30 2671 C 251.374 1.54088 1.1869 0
M  V30 2672 O 250.629 0.737591 1.81268 0
M  V30 2673 C 250.928 3.56827 -0.202357 0
M  V30 2674 C 250.594 4.23617 -1.54464 0
M  V30 2675 C 249.256 4.41577 -1.91215 0
M  V30 2676 C 251.608 4.61178 -2.42826 0
M  V30 2677 C 248.936 4.9437 -3.15935 0
M  V30 2678 C 251.288 5.15355 -3.66867 0
M  V30 2679 C 249.952 5.31528 -4.03776 0
M  V30 2680 H 249.222 0.737023 -0.0766668 0
M  V30 2681 H 251.869 1.70067 -0.880312 0
M  V30 2682 H 250.174 3.87892 0.551969 0
M  V30 2683 H 251.871 4.00588 0.181793 0
M  V30 2684 H 248.461 4.10004 -1.24877 0
M  V30 2685 H 252.645 4.46968 -2.15717 0
M  V30 2686 H 247.901 5.05076 -3.44541 0
M  V30 2687 H 252.075 5.43402 -4.35531 0
M  V30 2688 H 249.702 5.72199 -5.00492 0
M  V30 2689 N 251.277 0.427512 1.51691 0
M  V30 2690 C 252.224 -0.388867 2.275 0
M  V30 2691 C 253.194 -1.02532 1.30677 0
M  V30 2692 O 254.379 -1.0461 1.59566 0
M  V30 2693 C 251.519 -1.48954 3.11298 0
M  V30 2694 C 250.632 -0.872194 4.23104 0
M  V30 2695 C 249.767 -1.94709 4.94228 0
M  V30 2696 C 248.806 -1.30766 5.97969 0
M  V30 2697 N 247.943 -2.32349 6.62539 0
M  V30 2698 H 252.783 0.263997 2.96828 0
M  V30 2699 H 250.32 0.142033 1.46413 0
M  V30 2700 H 252.278 -2.13887 3.58201 0
M  V30 2701 H 250.908 -2.11217 2.44105 0
M  V30 2702 H 249.96 -0.111419 3.80237 0
M  V30 2703 H 251.272 -0.365264 4.97461 0
M  V30 2704 H 250.426 -2.67327 5.44629 0
M  V30 2705 H 249.165 -2.48773 4.1948 0
M  V30 2706 H 248.17 -0.566902 5.4687 0
M  V30 2707 H 249.395 -0.774483 6.74669 0
M  V30 2708 H 247.341 -2.85511 5.90609 0
M  V30 2709 H 247.258 -1.8652 7.3263 0
M  V30 2710 H 248.526 -3.04481 7.17574 0
M  V30 2711 N 252.755 -1.56801 0.158532 0
M  V30 2712 C 254.001 -1.96781 -0.490405 0
M  V30 2713 C 254.334 -1.04397 -1.63753 0
M  V30 2714 O 253.609 -0.0885805 -1.94298 0
M  V30 2715 C 253.892 -3.4635 -0.985594 0
M  V30 2716 C 253.745 -4.49512 0.160824 0
M  V30 2717 C 255.064 -3.98697 -1.86355 0
M  V30 2718 H 252.183 -0.715482 -0.176788 0
M  V30 2719 H 254.825 -1.88451 0.242088 0
M  V30 2720 H 252.975 -3.53579 -1.60978 0
M  V30 2721 H 254.647 -4.54353 0.797537 0
M  V30 2722 H 252.89 -4.26013 0.818256 0
M  V30 2723 H 253.561 -5.51531 -0.227569 0
M  V30 2724 H 256.037 -3.94019 -1.33746 0
M  V30 2725 H 254.913 -5.03792 -2.17909 0
M  V30 2726 H 255.174 -3.41744 -2.8047 0
M  V30 2727 N 254.233 0.115231 -1.57178 0
M  V30 2728 C 255.18 1.14115 -2.00615 0
M  V30 2729 C 256.15 1.40939 -0.878941 0
M  V30 2730 O 257.335 1.52741 -1.14345 0
M  V30 2731 C 254.475 2.46156 -2.4187 0
M  V30 2732 C 253.588 2.26236 -3.68024 0
M  V30 2733 C 252.723 3.51534 -3.98243 0
M  V30 2734 C 251.762 3.26787 -5.17568 0
M  V30 2735 N 250.899 4.44298 -5.43639 0
M  V30 2736 H 255.739 0.763743 -2.88047 0
M  V30 2737 H 253.276 0.365615 -1.42484 0
M  V30 2738 H 255.234 3.23189 -2.63827 0
M  V30 2739 H 253.864 2.81783 -1.57475 0
M  V30 2740 H 252.916 1.40102 -3.5366 0
M  V30 2741 H 254.228 2.03929 -4.55208 0
M  V30 2742 H 253.382 4.36984 -4.20868 0
M  V30 2743 H 252.121 3.76876 -3.09541 0
M  V30 2744 H 251.126 2.39729 -4.94783 0
M  V30 2745 H 252.351 3.02812 -6.0785 0
M  V30 2746 H 250.297 4.69754 -4.57895 0
M  V30 2747 H 250.214 4.25109 -6.25154 0
M  V30 2748 H 251.482 5.3087 -5.70786 0
M  V30 2749 N 255.711 1.52812 0.385517 0
M  V30 2750 C 256.988 1.5861 1.14465 0
M  V30 2751 C 257.368 0.381402 2.07626 0
M  V30 2752 O 256.716 -0.629999 2.19643 0
M  V30 2753 C 256.926 2.92664 1.90128 0
M  V30 2754 C 258.274 3.46526 2.45367 0
M  V30 2755 O 259.298 2.94562 2.0028 0
M  V30 2756 O 258.157 4.37323 3.27736 0
M  V30 2757 H 255.251 0.639855 0.523941 0
M  V30 2758 H 257.797 1.65149 0.390389 0
M  V30 2759 H 256.569 3.71788 1.22022 0
M  V30 2760 H 256.192 2.89527 2.72507 0
M  V30 2761 N 257.189 -0.644168 1.43834 0
M  V30 2762 C 258.136 -1.75671 1.49694 0
M  V30 2763 C 259.106 -1.6246 0.345809 0
M  V30 2764 O 260.291 -1.82573 0.554234 0
M  V30 2765 C 257.431 -3.13867 1.43463 0
M  V30 2766 C 256.544 -3.38147 2.6885 0
M  V30 2767 C 255.679 -4.66241 2.54544 0
M  V30 2768 C 254.718 -4.83657 3.75157 0
M  V30 2769 N 253.855 -6.03016 3.59605 0
M  V30 2770 H 258.695 -1.69998 2.44754 0
M  V30 2771 H 256.232 -0.829458 1.21484 0
M  V30 2772 H 258.19 -3.9377 1.37843 0
M  V30 2773 H 256.82 -3.18588 0.519783 0
M  V30 2774 H 255.872 -2.52276 2.84712 0
M  V30 2775 H 257.184 -3.46899 3.58417 0
M  V30 2776 H 256.338 -5.54285 2.46683 0
M  V30 2777 H 255.077 -4.59826 1.62516 0
M  V30 2778 H 254.082 -3.94046 3.83416 0
M  V30 2779 H 255.307 -4.91896 4.68204 0
M  V30 2780 H 253.253 -5.97715 2.7032 0
M  V30 2781 H 253.17 -6.12766 4.42779 0
M  V30 2782 H 254.438 -6.93657 3.55613 0
M  V30 2783 N 258.668 -1.30515 -0.883378 0
M  V30 2784 C 259.914 -1.19607 -1.63774 0
M  V30 2785 C 260.247 0.248314 -1.92606 0
M  V30 2786 O 259.522 1.17742 -1.54813 0
M  V30 2787 C 259.805 -2.02669 -2.97653 0
M  V30 2788 C 259.658 -3.55335 -2.75784 0
M  V30 2789 C 260.977 -1.86573 -3.98596 0
M  V30 2790 H 258.096 -0.435856 -0.594305 0
M  V30 2791 H 260.738 -1.60165 -1.02212 0
M  V30 2792 H 258.888 -1.68208 -3.50197 0
M  V30 2793 H 260.56 -3.99863 -2.30016 0
M  V30 2794 H 258.803 -3.79438 -2.1026 0
M  V30 2795 H 259.474 -4.08745 -3.70988 0
M  V30 2796 H 261.95 -2.16703 -3.55217 0
M  V30 2797 H 260.826 -2.47014 -4.90179 0
M  V30 2798 H 261.087 -0.825321 -4.34328 0
M  V30 2799 N 260.146 1.09593 -1.13257 0
M  V30 2800 C 261.078 2.16015 -0.766167 0
M  V30 2801 C 262.091 1.61423 0.211303 0
M  V30 2802 O 263.28 1.78498 -0.00863946 0
M  V30 2803 C 260.38 3.38706 -0.114662 0
M  V30 2804 C 259.553 4.22717 -1.12379 0
M  V30 2805 C 258.612 5.23835 -0.498301 0
M  V30 2806 O 257.638 5.573 -1.15781 0
M  V30 2807 N 258.84 5.75886 0.730417 0
M  V30 2808 H 261.605 2.48055 -1.68193 0
M  V30 2809 H 259.166 1.25292 -1.02535 0
M  V30 2810 H 261.158 4.03464 0.315991 0
M  V30 2811 H 259.728 3.04569 0.704011 0
M  V30 2812 H 258.948 3.54122 -1.73179 0
M  V30 2813 H 260.236 4.75673 -1.80589 0
M  V30 2814 H 259.634 5.50911 1.28504 0
M  V30 2815 H 258.191 6.42387 1.10376 0
M  V30 2816 N 261.624 0.925811 1.2754 0
M  V30 2817 C 262.854 0.580666 1.98272 0
M  V30 2818 C 263.262 -0.845207 1.69272 0
M  V30 2819 O 262.605 -1.57306 0.948707 0
M  V30 2820 C 262.667 0.724418 3.52126 0
M  V30 2821 C 262.331 2.12206 4.04744 0
M  V30 2822 C 263.328 3.09604 4.17662 0
M  V30 2823 C 261.013 2.4385 4.39138 0
M  V30 2824 C 263.007 4.36755 4.64246 0
M  V30 2825 C 260.694 3.71237 4.85414 0
M  V30 2826 C 261.692 4.67503 4.97926 0
M  V30 2827 O 261.38 5.92624 5.43187 0
M  V30 2828 H 261.112 0.218987 0.639547 0
M  V30 2829 H 263.666 1.24452 1.63404 0
M  V30 2830 H 261.896 0.0034663 3.867 0
M  V30 2831 H 263.585 0.384607 4.04074 0
M  V30 2832 H 264.351 2.86478 3.91351 0
M  V30 2833 H 260.23 1.69665 4.28643 0
M  V30 2834 H 263.774 5.11898 4.73927 0
M  V30 2835 H 259.671 3.94182 5.11166 0
M  V30 2836 H 260.439 5.95585 5.61445 0
M  V30 2837 N 263.102 -1.41638 0.69111 0
M  V30 2838 C 264.012 -2.34588 0.0233487 0
M  V30 2839 C 265.028 -1.55987 -0.770984 0
M  V30 2840 O 266.204 -1.88486 -0.709569 0
M  V30 2841 C 263.269 -3.34684 -0.904851 0
M  V30 2842 C 262.33 -4.29176 -0.103225 0
M  V30 2843 C 261.563 -5.2449 -0.987216 0
M  V30 2844 O 261.786 -5.2514 -2.22674 0
M  V30 2845 O 260.72 -6.00295 -0.439281 0
M  V30 2846 H 264.546 -2.93261 0.789416 0
M  V30 2847 H 262.131 -1.42417 0.45142 0
M  V30 2848 H 264.013 -3.96133 -1.43724 0
M  V30 2849 H 262.688 -2.78461 -1.65049 0
M  V30 2850 H 261.595 -3.71089 0.473655 0
M  V30 2851 H 262.928 -4.88484 0.60365 0
M  V30 2852 N 264.58 -0.43555 -1.51462 0
M  V30 2853 C 265.82 0.130708 -2.03982 0
M  V30 2854 C 266.184 1.40117 -1.31268 0
M  V30 2855 O 267.385 2.04755 -1.74152 0
M  V30 2856 C 265.656 0.346102 -3.5572 0
M  V30 2857 S 267.215 0.876022 -4.29967 0
M  V30 2858 H 264.033 0.0326881 -0.710248 0
M  V30 2859 H 266.635 -0.594544 -1.8624 0
M  V30 2860 H 265.339 -0.584911 -4.0621 0
M  V30 2861 H 264.87 1.09849 -3.77752 0
M  V30 2862 H 266.885 2.15379 -4.47019 0
M  V30 2863 N 266.058 1.56714 -0.166846 0
M  V30 2864 C 267.021 2.16539 0.751232 0
M  V30 2865 C 268.021 1.11228 1.16125 0
M  V30 2866 O 269.211 1.36765 1.07894 0
M  V30 2867 C 266.343 2.74462 2.02196 0
M  V30 2868 H 267.536 2.99013 0.230499 0
M  V30 2869 H 265.089 1.56081 0.0826982 0
M  V30 2870 H 265.824 1.95709 2.58589 0
M  V30 2871 H 265.609 3.51527 1.73698 0
M  V30 2872 H 267.099 3.20489 2.67725 0
M  V30 2873 N 267.536 -0.106894 1.57237 0
M  V30 2874 C 268.764 -0.826389 1.8968 0
M  V30 2875 C 269.179 -1.72856 0.759353 0
M  V30 2876 O 268.536 -1.80503 -0.269263 0
M  V30 2877 C 268.587 -1.64967 3.21665 0
M  V30 2878 O 268.308 -0.783804 4.31031 0
M  V30 2879 C 269.809 -2.47326 3.67892 0
M  V30 2880 H 267.029 -0.236927 0.627779 0
M  V30 2881 H 269.573 -0.0876593 2.04312 0
M  V30 2882 H 267.728 -2.34103 3.08666 0
M  V30 2883 H 268.142 -1.35284 5.06753 0
M  V30 2884 H 269.616 -3.00604 4.6297 0
M  V30 2885 H 270.093 -3.25247 2.95146 0
M  V30 2886 H 270.699 -1.83411 3.83719 0
M  V30 2887 N 269.014 -1.53014 -0.377408 0
M  V30 2888 C 270.262 -1.6829 -1.11906 0
M  V30 2889 C 270.583 -0.431206 -1.90173 0
M  V30 2890 O 269.853 0.554595 -1.87886 0
M  V30 2891 H 268.433 -0.620371 -0.416112 0
M  V30 2892 H 271.095 -1.90167 -0.426893 0
M  V30 2893 H 270.191 -2.53862 -1.8155 0
M  V30 2894 N 270.492 0.636531 -1.44174 0
M  V30 2895 C 271.722 1.42146 -1.49927 0
M  V30 2896 C 272.13 1.88812 -0.121063 0
M  V30 2897 O 271.473 1.61126 0.882267 0
M  V30 2898 C 271.535 2.67883 -2.39748 0
M  V30 2899 C 271.199 2.43048 -3.8701 0
M  V30 2900 C 272.196 2.05216 -4.77684 0
M  V30 2901 C 269.881 2.56856 -4.3166 0
M  V30 2902 C 271.875 1.81512 -6.11009 0
M  V30 2903 C 269.562 2.32766 -5.65034 0
M  V30 2904 C 270.56 1.95152 -6.54526 0
M  V30 2905 O 270.248 1.71326 -7.85431 0
M  V30 2906 H 269.98 0.442567 -0.51099 0
M  V30 2907 H 272.534 0.786158 -1.8976 0
M  V30 2908 H 270.764 3.34032 -1.94832 0
M  V30 2909 H 272.453 3.29874 -2.36513 0
M  V30 2910 H 273.219 1.94111 -4.44462 0
M  V30 2911 H 269.098 2.85104 -3.62266 0
M  V30 2912 H 272.642 1.52077 -6.80822 0
M  V30 2913 H 268.539 2.43479 -5.97819 0
M  V30 2914 H 269.307 1.85616 -7.97176 0
M  V30 2915 N 271.97 1.30982 0.876444 0
M  V30 2916 C 273.2 1.23063 1.65949 0
M  V30 2917 C 273.608 -0.207537 1.88058 0
M  V30 2918 O 272.951 -1.14781 1.43426 0
M  V30 2919 C 273.013 1.89768 3.05333 0
M  V30 2920 C 272.677 3.39106 3.0636 0
M  V30 2921 C 273.674 4.3496 2.84791 0
M  V30 2922 C 271.359 3.80693 3.27686 0
M  V30 2923 C 273.353 5.70375 2.84519 0
M  V30 2924 C 271.04 5.16223 3.27043 0
M  V30 2925 C 272.038 6.10875 3.05485 0
M  V30 2926 O 271.726 7.43928 3.04674 0
M  V30 2927 H 271.458 0.426685 0.524324 0
M  V30 2928 H 274.012 1.7329 1.10271 0
M  V30 2929 H 272.242 1.34082 3.6271 0
M  V30 2930 H 273.931 1.75853 3.65829 0
M  V30 2931 H 274.697 4.0416 2.68103 0
M  V30 2932 H 270.576 3.07457 3.43499 0
M  V30 2933 H 274.12 6.44228 2.67611 0
M  V30 2934 H 270.017 5.4666 3.43269 0
M  V30 2935 H 270.785 7.53022 3.2078 0
M  V30 2936 N 273.449 -1.08991 1.13837 0
M  V30 2937 C 274.677 -1.85011 0.926202 0
M  V30 2938 C 275.092 -1.8135 -0.525127 0
M  V30 2939 O 274.449 -1.21287 -1.36366 0
M  V30 2940 C 274.5 -3.32802 1.41155 0
M  V30 2941 O 274.221 -3.36444 2.80601 0
M  V30 2942 C 275.722 -4.25649 1.23847 0
M  V30 2943 H 272.942 -0.584249 0.32999 0
M  V30 2944 H 275.486 -1.37688 1.51202 0
M  V30 2945 H 273.641 -3.77536 0.868631 0
M  V30 2946 H 274.055 -4.28657 3.02248 0
M  V30 2947 H 275.529 -5.27485 1.62675 0
M  V30 2948 H 276.006 -4.38828 0.18065 0
M  V30 2949 H 276.612 -3.86735 1.76964 0
M  V30 2950 N 274.927 -0.932562 -1.27047 0
M  V30 2951 C 275.89 -0.440064 -2.24936 0
M  V30 2952 C 276.89 0.444071 -1.54547 0
M  V30 2953 O 278.08 0.244465 -1.72476 0
M  V30 2954 C 275.212 0.36678 -3.38921 0
M  V30 2955 H 276.405 -1.305 -2.70018 0
M  V30 2956 H 273.958 -0.713707 -1.39054 0
M  V30 2957 H 274.693 1.25033 -2.99228 0
M  V30 2958 H 274.478 -0.267204 -3.91188 0
M  V30 2959 H 275.968 0.701567 -4.11665 0
M  V30 2960 N 276.405 1.4127 -0.698611 0
M  V30 2961 C 277.653 2.00782 -0.230409 0
M  V30 2962 C 277.974 1.5562 1.17505 0
M  V30 2963 O 277.244 0.78815 1.79346 0
M  V30 2964 H 275.824 0.742464 -0.0821944 0
M  V30 2965 H 278.486 1.72852 -0.90045 0
M  V30 2966 H 277.582 3.11095 -0.25021 0
M  V30 2967 N 277.883 0.443576 1.51229 0
M  V30 2968 C 279.131 -0.120557 2.0174 0
M  V30 2969 C 279.452 -1.42665 1.32935 0
M  V30 2970 O 278.722 -1.9028 0.465866 0
M  V30 2971 H 277.302 -0.0475426 0.745486 0
M  V30 2972 H 279.964 0.587711 1.85828 0
M  V30 2973 H 279.06 -0.291972 3.10731 0
M  V30 2974 N 279.361 -1.56624 0.175154 0
M  V30 2975 C 280.308 -2.18149 -0.753634 0
M  V30 2976 C 281.278 -1.12265 -1.22417 0
M  V30 2977 O 282.463 -1.40432 -1.29165 0
M  V30 2978 C 279.603 -2.82933 -1.97592 0
M  V30 2979 C 278.716 -4.03289 -1.5486 0
M  V30 2980 C 277.851 -4.55988 -2.72485 0
M  V30 2981 C 276.89 -5.68746 -2.26262 0
M  V30 2982 N 276.027 -6.15938 -3.36994 0
M  V30 2983 H 280.867 -2.9717 -0.222195 0
M  V30 2984 H 278.404 -1.46774 -0.0979422 0
M  V30 2985 H 280.362 -3.18653 -2.69288 0
M  V30 2986 H 278.992 -2.06509 -2.481 0
M  V30 2987 H 278.044 -3.73364 -0.728246 0
M  V30 2988 H 279.356 -4.849 -1.16933 0
M  V30 2989 H 278.51 -4.9391 -3.52332 0
M  V30 2990 H 277.249 -3.73443 -3.13674 0
M  V30 2991 H 276.254 -5.30372 -1.44863 0
M  V30 2992 H 277.479 -6.53095 -1.86127 0
M  V30 2993 H 275.425 -5.36321 -3.77751 0
M  V30 2994 H 275.342 -6.92548 -3.03172 0
M  V30 2995 H 276.61 -6.58511 -4.17114 0
M  V30 2996 N 280.839 0.0985539 -1.57292 0
M  V30 2997 C 281.786 1.11981 -2.01814 0
M  V30 2998 C 282.756 1.39999 -0.89384 0
M  V30 2999 O 283.941 1.5152 -1.15958 0
M  V30 3000 C 281.081 2.43577 -2.44467 0
M  V30 3001 C 280.194 2.2232 -3.70402 0
M  V30 3002 C 279.329 3.4729 -4.01949 0
M  V30 3003 C 278.368 3.2128 -5.21005 0
M  V30 3004 N 277.505 4.38507 -5.48321 0
M  V30 3005 H 282.345 0.733149 -2.88841 0
M  V30 3006 H 279.882 0.350482 -1.42864 0
M  V30 3007 H 281.84 3.20373 -2.6724 0
M  V30 3008 H 280.47 2.80097 -1.60455 0
M  V30 3009 H 279.522 1.36343 -3.55126 0
M  V30 3010 H 280.834 1.99089 -4.57345 0
M  V30 3011 H 279.988 4.32495 -4.25479 0
M  V30 3012 H 278.727 3.73572 -3.13521 0
M  V30 3013 H 277.732 2.34468 -4.97298 0
M  V30 3014 H 278.957 2.96348 -6.11028 0
M  V30 3015 H 276.903 4.64871 -4.62851 0
M  V30 3016 H 276.82 4.18455 -6.29628 0
M  V30 3017 H 278.088 5.24787 -5.76385 0
M  V30 3018 N 282.317 1.53212 0.369288 0
M  V30 3019 C 283.545 1.73119 1.13303 0
M  V30 3020 C 283.96 0.458455 1.83149 0
M  V30 3021 O 283.317 -0.568403 1.73423 0
M  V30 3022 C 283.368 2.89413 2.16616 0
M  V30 3023 O 283.089 4.11761 1.49614 0
M  V30 3024 C 284.59 3.21161 3.05566 0
M  V30 3025 H 281.81 0.579107 0.338934 0
M  V30 3026 H 284.354 1.99942 0.429338 0
M  V30 3027 H 282.509 2.64994 2.82589 0
M  V30 3028 H 282.923 4.76858 2.18419 0
M  V30 3029 H 284.397 4.05949 3.74045 0
M  V30 3030 H 284.874 2.36369 3.70171 0
M  V30 3031 H 285.48 3.47492 2.45213 0
M  V30 3032 N 283.795 -0.628877 1.44509 0
M  V30 3033 C 284.705 -1.7694 1.54044 0
M  V30 3034 C 285.721 -1.68705 0.425987 0
M  V30 3035 O 286.897 -1.89442 0.683656 0
M  V30 3036 C 283.962 -3.13332 1.48405 0
M  V30 3037 C 283.023 -3.33181 2.70719 0
M  V30 3038 C 282.256 -4.63067 2.6534 0
M  V30 3039 O 282.479 -5.44017 1.71469 0
M  V30 3040 O 281.413 -4.85167 3.56226 0
M  V30 3041 H 285.239 -1.71848 2.50403 0
M  V30 3042 H 282.824 -0.790378 1.26781 0
M  V30 3043 H 284.706 -3.94634 1.47791 0
M  V30 3044 H 283.381 -3.1896 0.551898 0
M  V30 3045 H 282.288 -2.51549 2.769 0
M  V30 3046 H 283.621 -3.32416 3.62988 0
M  V30 3047 N 285.273 -1.31445 -0.869486 0
M  V30 3048 C 286.183 -1.21097 -2.0093 0
M  V30 3049 C 287.199 -0.127584 -1.73532 0
M  V30 3050 O 288.375 -0.345477 -1.98415 0
M  V30 3051 C 285.44 -0.919378 -3.34288 0
M  V30 3052 C 284.501 -2.08971 -3.75006 0
M  V30 3053 C 283.734 -1.81194 -5.02001 0
M  V30 3054 O 283.957 -0.747296 -5.65484 0
M  V30 3055 O 282.891 -2.66883 -5.39497 0
M  V30 3056 H 286.717 -2.16883 -2.12592 0
M  V30 3057 H 284.302 -1.11189 -0.997868 0
M  V30 3058 H 286.184 -0.772625 -4.14257 0
M  V30 3059 H 284.859 0.00844772 -3.23699 0
M  V30 3060 H 283.766 -2.29187 -2.95676 0
M  V30 3061 H 285.099 -2.9998 -3.90221 0
M  V30 3062 N 286.751 1.08385 -1.14413 0
M  V30 3063 C 287.997 1.81044 -0.913834 0
M  V30 3064 C 288.33 1.86004 0.558209 0
M  V30 3065 O 287.605 1.33606 1.4135 0
M  V30 3066 C 287.888 3.26648 -1.51569 0
M  V30 3067 C 287.741 3.29895 -3.0576 0
M  V30 3068 C 289.06 4.23629 -1.19273 0
M  V30 3069 H 286.179 0.65727 -0.333414 0
M  V30 3070 H 288.821 1.26896 -1.41412 0
M  V30 3071 H 286.971 3.72889 -1.09023 0
M  V30 3072 H 288.643 2.91977 -3.57137 0
M  V30 3073 H 286.886 2.69163 -3.40197 0
M  V30 3074 H 287.557 4.32516 -3.42977 0
M  V30 3075 H 290.033 3.85727 -1.56057 0
M  V30 3076 H 288.909 5.23822 -1.64017 0
M  V30 3077 H 289.17 4.41968 -0.108068 0
M  V30 3078 N 288.23 0.939286 1.26551 0
M  V30 3079 C 289.14 0.453432 2.30176 0
M  V30 3080 C 290.156 -0.471649 1.67486 0
M  V30 3081 O 291.332 -0.35164 1.98306 0
M  V30 3082 C 288.397 -0.275326 3.45605 0
M  V30 3083 C 287.458 0.686084 4.23782 0
M  V30 3084 C 286.691 -0.00798994 5.33699 0
M  V30 3085 O 286.914 -1.22528 5.57085 0
M  V30 3086 O 285.848 0.669746 5.98162 0
M  V30 3087 H 289.674 1.31416 2.73795 0
M  V30 3088 H 287.259 0.705095 1.31715 0
M  V30 3089 H 289.141 -0.685911 4.1578 0
M  V30 3090 H 287.816 -1.11147 3.0402 0
M  V30 3091 H 286.723 1.14658 3.56096 0
M  V30 3092 H 288.056 1.48979 4.69112 0
M  V30 3093 N 289.708 -1.40897 0.706093 0
M  V30 3094 C 290.948 -2.02916 0.245827 0
M  V30 3095 C 291.312 -1.54751 -1.13649 0
M  V30 3096 O 292.513 -2.08768 -1.69321 0
M  V30 3097 C 290.784 -3.56031 0.312537 0
M  V30 3098 S 292.343 -4.38741 -0.0721388 0
M  V30 3099 H 289.161 -0.704186 0.0982007 0
M  V30 3100 H 291.763 -1.72168 0.926207 0
M  V30 3101 H 290.467 -3.88579 1.32039 0
M  V30 3102 H 289.998 -3.91495 -0.386641 0
M  V30 3103 H 292.013 -4.78952 -1.29692 0
M  V30 3104 N 291.186 -0.45159 -1.50991 0
M  V30 3105 C 292.116 0.342898 -2.30969 0
M  V30 3106 C 293.097 1.00815 -1.37005 0
M  V30 3107 O 294.282 1.00907 -1.65926 0
M  V30 3108 C 291.412 1.43637 -3.16205 0
M  V30 3109 C 290.366 0.893818 -4.18563 0
M  V30 3110 C 289.692 2.08411 -4.92411 0
M  V30 3111 C 290.992 -0.0815568 -5.22236 0
M  V30 3112 H 292.686 -0.324556 -2.97636 0
M  V30 3113 H 290.232 -0.157531 -1.43136 0
M  V30 3114 H 292.185 1.9995 -3.70942 0
M  V30 3115 H 290.909 2.13232 -2.47386 0
M  V30 3116 H 289.568 0.352798 -3.64898 0
M  V30 3117 H 289.216 2.76658 -4.20082 0
M  V30 3118 H 288.916 1.72741 -5.61636 0
M  V30 3119 H 290.44 2.65251 -5.49976 0
M  V30 3120 H 291.854 0.391742 -5.7196 0
M  V30 3121 H 290.251 -0.351551 -5.99069 0
M  V30 3122 H 291.321 -1.01374 -4.74185 0
M  V30 3123 N 292.664 1.56529 -0.183458 0
M  V30 3124 C 293.892 2.01623 0.464285 0
M  V30 3125 C 294.307 1.06366 1.55986 0
M  V30 3126 O 293.664 0.0665398 1.82379 0
M  V30 3127 C 293.715 3.46475 1.03139 0
M  V30 3128 O 293.436 4.38095 -0.0204675 0
M  V30 3129 C 294.937 4.0703 1.75617 0
M  V30 3130 H 292.157 0.660596 0.117704 0
M  V30 3131 H 294.701 2.02451 -0.288751 0
M  V30 3132 H 292.856 3.46383 1.73486 0
M  V30 3133 H 293.27 5.22973 0.399952 0
M  V30 3134 H 294.744 5.10271 2.10542 0
M  V30 3135 H 295.221 3.49819 2.65563 0
M  V30 3136 H 295.827 4.1086 1.09882 0
M  V30 3137 N 294.142 -0.090211 1.57342 0
M  V30 3138 C 295.372 -0.805055 1.90269 0
M  V30 3139 C 295.78 -1.72561 0.775842 0
M  V30 3140 O 295.123 -1.81839 -0.260843 0
M  V30 3141 C 295.185 -1.66734 3.18497 0
M  V30 3142 C 294.849 -0.918092 4.47683 0
M  V30 3143 C 295.846 -0.245674 5.19319 0
M  V30 3144 C 293.531 -0.890724 4.94339 0
M  V30 3145 C 295.525 0.444088 6.35851 0
M  V30 3146 C 293.212 -0.197179 6.10782 0
M  V30 3147 C 294.21 0.469044 6.81388 0
M  V30 3148 O 293.898 1.15146 7.95611 0
M  V30 3149 H 293.63 -0.235143 0.633785 0
M  V30 3150 H 296.184 -0.0703805 2.05279 0
M  V30 3151 H 294.414 -2.44437 2.99646 0
M  V30 3152 H 296.103 -2.25919 3.37217 0
M  V30 3153 H 296.869 -0.258246 4.84312 0
M  V30 3154 H 292.748 -1.39873 4.39268 0
M  V30 3155 H 296.292 0.964667 6.90898 0
M  V30 3156 H 292.189 -0.18247 6.45242 0
M  V30 3157 H 292.957 1.05885 8.11622 0
M  V30 3158 N 295.62 -1.53406 -0.361157 0
M  V30 3159 C 296.868 -1.69467 -1.10115 0
M  V30 3160 C 297.189 -0.451352 -1.89705 0
M  V30 3161 O 296.459 0.534636 -1.88463 0
M  V30 3162 H 295.039 -0.624749 -0.409508 0
M  V30 3163 H 297.701 -1.90609 -0.406699 0
M  V30 3164 H 296.797 -2.55774 -1.78847 0
M  V30 3165 N 297.098 0.621204 -1.44841 0
M  V30 3166 C 298.344 1.38073 -1.49357 0
M  V30 3167 C 298.699 1.91973 -0.128115 0
M  V30 3168 O 297.992 1.71311 0.858087 0
M  V30 3169 C 298.186 2.55675 -2.4973 0
M  V30 3170 C 298.015 2.13289 -3.95901 0
M  V30 3171 C 296.785 2.001 -4.63991 0
M  V30 3172 C 298.983 1.7159 -4.84831 0
M  V30 3173 N 296.965 1.51381 -5.94943 0
M  V30 3174 C 298.336 1.34188 -6.05304 0
M  V30 3175 C 300.391 1.59059 -4.7181 0
M  V30 3176 C 299.094 0.855085 -7.14199 0
M  V30 3177 C 301.12 1.11784 -5.8074 0
M  V30 3178 C 300.482 0.753385 -7.0036 0
M  V30 3179 H 296.581 0.499675 -0.601539 0
M  V30 3180 H 299.165 0.711609 -1.8123 0
M  V30 3181 H 297.336 3.20201 -2.19832 0
M  V30 3182 H 299.068 3.22509 -2.4448 0
M  V30 3183 H 295.823 2.20863 -4.18947 0
M  V30 3184 H 296.247 1.29293 -6.64539 0
M  V30 3185 H 300.889 1.85865 -3.79755 0
M  V30 3186 H 298.607 0.574552 -8.06055 0
M  V30 3187 H 302.193 1.02533 -5.72694 0
M  V30 3188 H 301.073 0.393183 -7.83214 0
M  V30 3189 N 298.576 1.31904 0.862503 0
M  V30 3190 C 299.801 1.25135 1.65397 0
M  V30 3191 C 300.226 -0.179 1.87246 0
M  V30 3192 O 299.584 -1.1277 1.4196 0
M  V30 3193 C 299.632 2.00832 2.99498 0
M  V30 3194 O 298.736 1.35075 3.89652 0
M  V30 3195 H 298.077 0.431655 0.504549 0
M  V30 3196 H 300.607 1.74094 1.07483 0
M  V30 3197 H 300.617 2.10709 3.49379 0
M  V30 3198 H 299.292 3.04847 2.82916 0
M  V30 3199 H 297.869 1.33696 3.48109 0
M  V30 3200 N 300.054 -1.07777 1.14986 0
M  V30 3201 C 300.984 -2.16865 0.865557 0
M  V30 3202 C 301.965 -1.69123 -0.182083 0
M  V30 3203 O 303.15 -1.94164 -0.0373815 0
M  V30 3204 C 300.28 -3.45539 0.349313 0
M  V30 3205 C 299.234 -4.06708 1.33313 0
M  V30 3206 C 298.56 -5.30411 0.675918 0
M  V30 3207 C 299.86 -4.47241 2.69764 0
M  V30 3208 H 301.554 -2.40905 1.77778 0
M  V30 3209 H 299.1 -1.15781 0.856203 0
M  V30 3210 H 301.053 -4.21174 0.137983 0
M  V30 3211 H 299.777 -3.21072 -0.598362 0
M  V30 3212 H 298.436 -3.33112 1.53075 0
M  V30 3213 H 298.084 -5.02232 -0.277767 0
M  V30 3214 H 297.784 -5.72293 1.33244 0
M  V30 3215 H 299.308 -6.08755 0.474262 0
M  V30 3216 H 300.722 -5.14025 2.53873 0
M  V30 3217 H 299.119 -5.00062 3.3175 0
M  V30 3218 H 300.189 -3.58818 3.26156 0
M  V30 3219 N 301.532 -0.945985 -1.26051 0
M  V30 3220 C 302.76 -0.613025 -1.9761 0
M  V30 3221 C 303.175 0.813035 -1.70397 0
M  V30 3222 O 302.532 1.54274 -0.974979 0
M  V30 3223 C 302.583 -0.85159 -3.51326 0
M  V30 3224 O 302.304 -2.22157 -3.77595 0
M  V30 3225 C 303.805 -0.529831 -4.40122 0
M  V30 3226 H 301.025 -0.230593 -0.630133 0
M  V30 3227 H 303.569 -1.268 -1.60443 0
M  V30 3228 H 301.724 -0.243151 -3.86636 0
M  V30 3229 H 302.138 -2.2852 -4.721 0
M  V30 3230 H 303.612 -0.747348 -5.46917 0
M  V30 3231 H 304.089 0.535341 -4.35925 0
M  V30 3232 H 304.695 -1.11721 -4.10364 0
M  V30 3233 N 303.011 1.40521 -0.713556 0
M  V30 3234 C 304.422 1.83853 -0.324807 0
M  V30 3235 C 304.773 1.59667 1.14021 0
M  V30 3236 O 303.898 1.07649 1.87725 0
M  V30 3237 C 304.493 3.33751 -0.582746 0
M  V30 3238 C 303.052 3.75584 -0.247727 0
M  V30 3239 C 302.199 2.63753 -0.856121 0
M  V30 3240 H 305.15 1.29817 -0.91286 0
M  V30 3241 H 305.171 3.80194 0.152682 0
M  V30 3242 H 304.683 3.51322 -1.64908 0
M  V30 3243 H 302.784 3.63608 0.813624 0
M  V30 3244 H 302.897 4.7373 -0.715307 0
M  V30 3245 H 301.261 2.53108 -0.28432 0
M  V30 3246 H 302.044 2.84137 -1.92668 0
M  V30 3247 N 304.489 0.459591 1.5075 0
M  V30 3248 C 305.436 -0.340524 2.28274 0
M  V30 3249 C 306.406 -0.997371 1.32822 0
M  V30 3250 O 307.591 -1.01202 1.61749 0
M  V30 3251 C 304.731 -1.42317 3.14388 0
M  V30 3252 C 303.844 -0.782251 4.24859 0
M  V30 3253 C 302.979 -1.84182 4.98247 0
M  V30 3254 C 302.018 -1.18053 6.00608 0
M  V30 3255 N 301.155 -2.18244 6.67319 0
M  V30 3256 H 305.995 0.326899 2.96202 0
M  V30 3257 H 303.532 0.173057 1.46078 0
M  V30 3258 H 305.49 -2.06241 3.62658 0
M  V30 3259 H 304.12 -2.05992 2.4853 0
M  V30 3260 H 303.172 -0.0307404 3.80388 0
M  V30 3261 H 304.484 -0.259663 4.98124 0
M  V30 3262 H 303.638 -2.55714 5.50177 0
M  V30 3263 H 302.377 -2.39819 4.24662 0
M  V30 3264 H 301.382 -0.450776 5.47949 0
M  V30 3265 H 302.607 -0.631202 6.7616 0
M  V30 3266 H 300.553 -2.72919 5.96533 0
M  V30 3267 H 300.47 -1.70938 7.36421 0
M  V30 3268 H 301.738 -2.89191 7.23871 0
M  V30 3269 N 305.967 -1.56429 0.191757 0
M  V30 3270 C 307.207 -1.99383 -0.450099 0
M  V30 3271 C 307.571 -1.07581 -1.59029 0
M  V30 3272 O 308.772 -1.39758 -2.29611 0
M  V30 3273 C 307.043 -3.45841 -0.901611 0
M  V30 3274 S 308.602 -4.10822 -1.54177 0
M  V30 3275 H 305.42 -0.696253 -0.144057 0
M  V30 3276 H 308.022 -1.93276 0.294036 0
M  V30 3277 H 306.726 -4.10354 -0.0616596 0
M  V30 3278 H 306.257 -3.55757 -1.67929 0
M  V30 3279 H 308.272 -4.07553 -2.83046 0
M  V30 3280 N 307.445 0.0818655 -1.57387 0
M  V30 3281 C 308.673 0.796108 -1.9097 0
M  V30 3282 C 309.088 1.71626 -0.786757 0
M  V30 3283 O 308.445 1.80908 0.240513 0
M  V30 3284 C 308.496 1.59829 -3.24248 0
M  V30 3285 O 308.217 0.715131 -4.32224 0
M  V30 3286 C 309.718 2.41442 -3.7178 0
M  V30 3287 H 306.938 0.22691 -0.631469 0
M  V30 3288 H 309.482 0.0551439 -2.04426 0
M  V30 3289 H 307.637 2.29163 -3.12351 0
M  V30 3290 H 308.051 1.27205 -5.08841 0
M  V30 3291 H 309.525 2.932 -4.67694 0
M  V30 3292 H 310.002 3.2051 -3.00283 0
M  V30 3293 H 310.608 1.77283 -3.86589 0
M  V30 3294 N 308.923 1.53595 0.353017 0
M  V30 3295 C 309.87 1.80919 1.43308 0
M  V30 3296 C 310.84 0.654288 1.5267 0
M  V30 3297 O 312.025 0.897759 1.6836 0
M  V30 3298 C 309.165 2.01605 2.80089 0
M  V30 3299 C 308.278 3.29321 2.79593 0
M  V30 3300 C 307.413 3.40125 4.0803 0
M  V30 3301 C 306.452 4.61826 4.01725 0
M  V30 3302 N 305.589 4.69716 5.21834 0
M  V30 3303 H 310.429 2.73074 1.19308 0
M  V30 3304 H 307.966 1.35263 0.578131 0
M  V30 3305 H 309.924 2.11586 3.59565 0
M  V30 3306 H 308.554 1.12772 3.0246 0
M  V30 3307 H 307.606 3.28229 1.92276 0
M  V30 3308 H 308.918 4.18884 2.70809 0
M  V30 3309 H 308.072 3.49488 4.95927 0
M  V30 3310 H 306.811 2.48601 4.19582 0
M  V30 3311 H 305.816 4.52552 3.12213 0
M  V30 3312 H 307.041 5.54705 3.91764 0
M  V30 3313 H 304.987 3.81097 5.33948 0
M  V30 3314 H 304.904 5.53202 5.1527 0
M  V30 3315 H 306.172 4.83376 6.11529 0
M  V30 3316 N 310.401 -0.613514 1.45168 0
M  V30 3317 C 311.331 -1.7354 1.56225 0
M  V30 3318 C 312.312 -1.64981 0.41414 0
M  V30 3319 O 313.497 -1.83472 0.636526 0
M  V30 3320 C 310.627 -3.12128 1.52295 0
M  V30 3321 C 309.581 -3.35491 2.65762 0
M  V30 3322 C 308.907 -4.74291 2.46885 0
M  V30 3323 C 310.207 -3.26325 4.0781 0
M  V30 3324 H 311.901 -1.64543 2.50132 0
M  V30 3325 H 309.447 -0.790185 1.20383 0
M  V30 3326 H 311.4 -3.90404 1.58628 0
M  V30 3327 H 310.124 -3.2195 0.549139 0
M  V30 3328 H 308.783 -2.59603 2.58847 0
M  V30 3329 H 308.431 -4.80839 1.47657 0
M  V30 3330 H 308.131 -4.9088 3.22972 0
M  V30 3331 H 309.655 -5.54775 2.55063 0
M  V30 3332 H 311.069 -3.94483 4.16 0
M  V30 3333 H 309.466 -3.54445 4.8424 0
M  V30 3334 H 310.536 -2.23855 4.30136 0
M  V30 3335 N 311.879 -1.3236 -0.855495 0
M  V30 3336 C 312.826 -1.21225 -1.964 0
M  V30 3337 C 313.796 -0.0946204 -1.6583 0
M  V30 3338 O 314.981 -0.27002 -1.8888 0
M  V30 3339 C 312.121 -0.940419 -3.32039 0
M  V30 3340 C 311.234 -2.14276 -3.75113 0
M  V30 3341 C 310.369 -1.80648 -4.9954 0
M  V30 3342 C 309.408 -2.97208 -5.35102 0
M  V30 3343 N 308.545 -2.63678 -6.50706 0
M  V30 3344 H 313.385 -2.16042 -2.05255 0
M  V30 3345 H 310.922 -1.07451 -1.00463 0
M  V30 3346 H 312.88 -0.763311 -4.10158 0
M  V30 3347 H 311.51 -0.0290413 -3.22787 0
M  V30 3348 H 310.562 -2.43017 -2.92655 0
M  V30 3349 H 311.874 -3.01468 -3.97389 0
M  V30 3350 H 311.028 -1.59484 -5.85363 0
M  V30 3351 H 309.767 -0.906678 -4.79198 0
M  V30 3352 H 308.772 -3.19004 -4.47791 0
M  V30 3353 H 309.997 -3.87918 -5.57401 0
M  V30 3354 H 307.943 -1.76238 -6.31883 0
M  V30 3355 H 307.86 -3.444 -6.72997 0
M  V30 3356 H 309.128 -2.45942 -7.39684 0
M  V30 3357 N 313.357 1.07166 -1.15556 0
M  V30 3358 C 314.597 1.81391 -0.94216 0
M  V30 3359 C 314.961 1.84788 0.521272 0
M  V30 3360 O 316.162 2.54904 0.85307 0
M  V30 3361 C 314.433 3.22431 -1.54185 0
M  V30 3362 S 315.992 4.13379 -1.47183 0
M  V30 3363 H 312.81 0.624963 -0.339031 0
M  V30 3364 H 315.412 1.28725 -1.4714 0
M  V30 3365 H 314.116 3.17548 -2.59984 0
M  V30 3366 H 313.647 3.80172 -1.01156 0
M  V30 3367 H 315.662 4.94007 -0.466004 0
M  V30 3368 N 314.835 0.952656 1.25548 0
M  V30 3369 C 316.06 0.623025 1.97821 0
M  V30 3370 C 316.485 -0.7976 1.70352 0
M  V30 3371 O 315.843 -1.53905 0.958283 0
M  V30 3372 C 315.891 0.885532 3.49558 0
M  V30 3373 O 314.995 -0.0366641 4.12384 0
M  V30 3374 H 314.336 0.237082 0.620232 0
M  V30 3375 H 316.866 1.27871 1.59719 0
M  V30 3376 H 316.876 0.811009 3.99858 0
M  V30 3377 H 315.551 1.92094 3.6888 0
M  V30 3378 H 314.128 0.0898954 3.72792 0
M  V30 3379 N 316.313 -1.40141 0.720998 0
M  V30 3380 C 317.538 -2.05618 0.271258 0
M  V30 3381 C 317.963 -1.53978 -1.08039 0
M  V30 3382 O 317.321 -0.677463 -1.68167 0
M  V30 3383 C 317.369 -3.59609 0.267197 0
M  V30 3384 O 316.473 -4.05526 -0.749814 0
M  V30 3385 H 315.814 -0.651904 0.126162 0
M  V30 3386 H 318.344 -1.79439 0.982997 0
M  V30 3387 H 318.354 -4.0786 0.106744 0
M  V30 3388 H 317.029 -3.96559 1.25354 0
M  V30 3389 H 315.606 -3.68722 -0.556644 0
M  V30 3390 N 317.792 -0.46758 -1.50504 0
M  V30 3391 C 318.722 0.318381 -2.31319 0
M  V30 3392 C 319.703 0.993564 -1.38066 0
M  V30 3393 O 320.888 0.991411 -1.66987 0
M  V30 3394 C 318.018 1.40275 -3.17711 0
M  V30 3395 C 316.972 0.849373 -4.19487 0
M  V30 3396 C 316.298 2.03177 -4.94594 0
M  V30 3397 C 317.598 -0.136942 -5.2212 0
M  V30 3398 H 319.292 -0.356106 -2.97275 0
M  V30 3399 H 316.838 -0.172703 -1.42961 0
M  V30 3400 H 318.791 1.96004 -3.73042 0
M  V30 3401 H 317.515 2.10596 -2.49634 0
M  V30 3402 H 316.174 0.314076 -3.65252 0
M  V30 3403 H 315.822 2.72187 -4.22993 0
M  V30 3404 H 315.522 1.66774 -5.63436 0
M  V30 3405 H 317.046 2.59403 -5.52759 0
M  V30 3406 H 318.46 0.331056 -5.72343 0
M  V30 3407 H 316.857 -0.41507 -5.98663 0
M  V30 3408 H 317.927 -1.06398 -4.73083 0
M  V30 3409 N 319.27 1.56325 -0.20005 0
M  V30 3410 C 320.686 1.58839 0.155716 0
M  V30 3411 C 320.886 1.21636 1.60645 0
M  V30 3412 O 319.942 0.941437 2.34293 0
M  V30 3413 C 321.255 3.0032 -0.151124 0
M  V30 3414 C 322.803 3.12866 -0.0916284 0
M  V30 3415 C 323.278 4.56488 -0.371845 0
M  V30 3416 N 324.769 4.62089 -0.320641 0
M  V30 3417 C 325.504 5.71116 -0.511243 0
M  V30 3418 N 325 6.88592 -0.762461 0
M  V30 3419 N 326.793 5.60335 -0.445157 0
M  V30 3420 H 318.944 1.78788 -1.14668 0
M  V30 3421 H 321.207 0.829996 -0.458051 0
M  V30 3422 H 320.913 3.32117 -1.15721 0
M  V30 3423 H 320.787 3.73257 0.543986 0
M  V30 3424 H 323.174 2.80878 0.905065 0
M  V30 3425 H 323.255 2.42304 -0.81989 0
M  V30 3426 H 322.899 4.89189 -1.36588 0
M  V30 3427 H 322.829 5.25246 0.377362 0
M  V30 3428 H 325.32 3.77665 -0.13329 0
M  V30 3429 H 325.633 7.67581 -0.896576 0
M  V30 3430 H 323.978 6.90387 -0.799412 0
M  V30 3431 H 327.169 4.67436 -0.249278 0
M  V30 3432 H 327.342 6.45243 -0.597116 0
M  V30 3433 N 320.748 -0.0735177 1.57428 0
M  V30 3434 C 321.678 -1.0879 2.06608 0
M  V30 3435 C 322.659 -1.40473 0.959237 0
M  V30 3436 O 323.844 -1.5013 1.23185 0
M  V30 3437 C 320.974 -2.40183 2.50857 0
M  V30 3438 C 319.928 -2.22858 3.65402 0
M  V30 3439 C 319.254 -3.59619 3.957 0
M  V30 3440 C 320.554 -1.65123 4.95511 0
M  V30 3441 H 322.248 -0.678673 2.91607 0
M  V30 3442 H 319.794 -0.325013 1.40284 0
M  V30 3443 H 321.747 -3.11437 2.83874 0
M  V30 3444 H 320.471 -2.83083 1.62885 0
M  V30 3445 H 319.13 -1.54045 3.32664 0
M  V30 3446 H 318.778 -4.00086 3.04861 0
M  V30 3447 H 318.478 -3.48866 4.72828 0
M  V30 3448 H 320.002 -4.32306 4.31212 0
M  V30 3449 H 321.416 -2.26241 5.26771 0
M  V30 3450 H 319.813 -1.65071 5.7695 0
M  V30 3451 H 320.883 -0.612559 4.81015 0
M  V30 3452 N 322.226 -1.5378 -0.344866 0
M  V30 3453 C 323.475 -1.7018 -1.08267 0
M  V30 3454 C 323.788 -0.471 -1.89845 0
M  V30 3455 O 324.994 -0.515917 -2.66553 0
M  V30 3456 C 323.45 -3.00923 -1.97417 0
M  V30 3457 C 323.058 -4.31335 -1.21053 0
M  V30 3458 C 324.802 -3.26688 -2.71063 0
M  V30 3459 C 322.709 -5.53153 -2.09225 0
M  V30 3460 H 321.639 -0.634138 -0.407903 0
M  V30 3461 H 324.29 -1.8028 -0.342246 0
M  V30 3462 H 322.672 -2.84676 -2.75274 0
M  V30 3463 H 323.846 -4.58281 -0.481159 0
M  V30 3464 H 322.161 -4.12173 -0.591813 0
M  V30 3465 H 324.758 -4.1489 -3.37299 0
M  V30 3466 H 325.101 -2.43639 -3.37558 0
M  V30 3467 H 325.634 -3.43705 -2.0028 0
M  V30 3468 H 322.373 -6.38741 -1.47274 0
M  V30 3469 H 321.893 -5.30458 -2.79955 0
M  V30 3470 H 323.572 -5.88744 -2.68308 0
M  V30 3471 N 323.704 0.605807 -1.45491 0
M  V30 3472 C 324.614 1.74466 -1.56839 0
M  V30 3473 C 325.63 1.68006 -0.452772 0
M  V30 3474 O 326.806 1.8833 -0.713708 0
M  V30 3475 C 323.871 3.10931 -1.53371 0
M  V30 3476 C 322.932 3.28832 -2.75986 0
M  V30 3477 C 322.165 4.58787 -2.72673 0
M  V30 3478 O 322.388 5.4122 -1.80102 0
M  V30 3479 O 321.322 4.79438 -3.63899 0
M  V30 3480 H 325.148 1.67843 -2.53106 0
M  V30 3481 H 322.733 0.770108 -1.28022 0
M  V30 3482 H 324.615 3.92233 -1.54051 0
M  V30 3483 H 323.29 3.18042 -0.602572 0
M  V30 3484 H 322.197 2.47112 -2.80867 0
M  V30 3485 H 323.53 3.26599 -3.68231 0
M  V30 3486 N 325.182 1.32811 0.848464 0
M  V30 3487 C 326.13 1.22231 1.97895 0
M  V30 3488 C 327.124 0.125749 1.68933 0
M  V30 3489 O 328.33 0.289083 1.77663 0
M  V30 3490 H 324.705 0.379058 0.649476 0
M  V30 3491 H 326.676 2.17828 2.03945 0
M  V30 3492 C 325.425 0.968572 3.33937 0
M  V30 3493 H 324.748 1.80458 3.56756 0
M  V30 3494 H 326.188 0.934808 4.13567 0
M  V30 3495 C 324.647 -0.328628 3.35293 0
M  V30 3496 O 325.177 -1.33848 3.78745 0
M  V30 3497 N 323.383 -0.352788 2.88451 0
M  V30 3498 H 322.93 0.469541 2.53285 0
M  V30 3499 H 322.888 -1.22057 2.89741 0
M  V30 3500 N 326.66 -1.06551 1.16123 0
M  V30 3501 C 327.908 -1.78947 0.939267 0
M  V30 3502 C 328.229 -1.87532 -0.534476 0
M  V30 3503 O 327.499 -1.38211 -1.38833 0
M  V30 3504 H 326.079 -0.662807 0.344523 0
M  V30 3505 H 328.741 -1.28725 1.46342 0
M  V30 3506 H 327.837 -2.81117 1.35572 0
M  V30 3507 N 328.138 -0.959301 -1.25041 0
M  V30 3508 C 329.368 -0.63303 -1.96663 0
M  V30 3509 C 329.776 0.800031 -1.71453 0
M  V30 3510 O 329.119 1.54736 -0.99008 0
M  V30 3511 C 329.181 -0.817523 -3.50081 0
M  V30 3512 C 328.845 -2.22863 -3.98975 0
M  V30 3513 C 329.842 -3.20569 -4.09306 0
M  V30 3514 C 327.527 -2.55407 -4.32519 0
M  V30 3515 C 329.521 -4.4891 -4.52503 0
M  V30 3516 C 327.208 -3.83976 -4.754 0
M  V30 3517 C 328.206 -4.8054 -4.85356 0
M  V30 3518 O 327.894 -6.06817 -5.27284 0
M  V30 3519 H 327.626 -0.235866 -0.633516 0
M  V30 3520 H 330.18 -1.2874 -1.60047 0
M  V30 3521 H 328.41 -0.105992 -3.86555 0
M  V30 3522 H 330.099 -0.491604 -4.02912 0
M  V30 3523 H 330.865 -2.96753 -3.83618 0
M  V30 3524 H 326.744 -1.8097 -4.23994 0
M  V30 3525 H 330.288 -5.24283 -4.60188 0
M  V30 3526 H 326.185 -4.07596 -5.00535 0
M  V30 3527 H 326.953 -6.10262 -5.45457 0
M  V30 3528 N 329.616 1.39756 -0.72842 0
M  V30 3529 C 330.863 2.00645 -0.273487 0
M  V30 3530 C 331.191 1.57786 1.13727 0
M  V30 3531 O 330.446 0.794886 1.7883 0
M  V30 3532 C 330.745 3.56002 -0.315776 0
M  V30 3533 C 330.411 4.18489 -1.67863 0
M  V30 3534 C 329.073 4.3527 -2.05166 0
M  V30 3535 C 331.425 4.53219 -2.57375 0
M  V30 3536 C 328.753 4.84069 -3.31503 0
M  V30 3537 C 331.105 5.03423 -3.83077 0
M  V30 3538 C 329.769 5.18413 -4.20481 0
M  V30 3539 H 329.039 0.734211 -0.100076 0
M  V30 3540 H 331.686 1.6718 -0.933972 0
M  V30 3541 H 329.991 3.89452 0.428285 0
M  V30 3542 H 331.688 4.00963 0.0542575 0
M  V30 3543 H 328.278 4.05824 -1.37858 0
M  V30 3544 H 332.462 4.39878 -2.29827 0
M  V30 3545 H 327.718 4.93859 -3.60435 0
M  V30 3546 H 331.892 5.2927 -4.52599 0
M  V30 3547 H 329.519 5.55987 -5.18443 0
M  V30 3548 N 331.094 0.475555 1.50254 0
M  V30 3549 C 332.044 -0.335025 2.25525 0
M  V30 3550 C 333.028 -0.957625 1.29299 0
M  V30 3551 O 334.22 -0.869436 1.54175 0
M  V30 3552 C 331.349 -1.41385 3.12834 0
M  V30 3553 C 330.435 -0.798762 4.1651 0
M  V30 3554 N 330.826 0.0835815 5.05731 0
M  V30 3555 C 329.124 -1.06221 4.33166 0
M  V30 3556 C 329.825 0.433113 5.80085 0
M  V30 3557 N 328.801 -0.1928 5.43258 0
M  V30 3558 H 332.603 0.344612 2.91873 0
M  V30 3559 H 330.117 0.289986 1.5979 0
M  V30 3560 H 332.114 -2.00777 3.65368 0
M  V30 3561 H 330.774 -2.09543 2.48036 0
M  V30 3562 H 331.785 0.452715 5.15918 0
M  V30 3563 H 328.462 -1.73844 3.79585 0
M  V30 3564 H 329.852 1.15346 6.61925 0
M  V30 3565 N 332.573 -1.56217 0.208337 0
M  V30 3566 C 333.984 -1.84243 -0.301904 0
M  V30 3567 C 334.335 -1.12939 -1.60434 0
M  V30 3568 O 333.46 -0.39461 -2.12772 0
M  V30 3569 C 334.055 -3.34231 -0.554543 0
M  V30 3570 C 332.614 -3.62621 -1.00912 0
M  V30 3571 C 331.761 -2.77224 -0.064933 0
M  V30 3572 H 334.712 -1.52712 0.431833 0
M  V30 3573 H 334.733 -3.5372 -1.40223 0
M  V30 3574 H 334.245 -3.86099 0.393561 0
M  V30 3575 H 332.346 -3.16197 -1.97104 0
M  V30 3576 H 332.459 -4.7071 -0.892674 0
M  V30 3577 H 330.823 -2.48256 -0.56929 0
M  V30 3578 H 331.606 -3.31887 0.877851 0
M  V30 3579 N 334.051 0.0651679 -1.57465 0
M  V30 3580 C 335.297 0.764193 -1.87851 0
M  V30 3581 C 335.63 1.76889 -0.801495 0
M  V30 3582 O 334.905 1.93594 0.187528 0
M  V30 3583 C 335.188 1.46625 -3.28897 0
M  V30 3584 C 335.041 0.477515 -4.47258 0
M  V30 3585 C 336.36 2.4095 -3.68281 0
M  V30 3586 H 333.479 0.276351 -0.683227 0
M  V30 3587 H 336.121 0.0272868 -1.8998 0
M  V30 3588 H 334.271 2.09438 -3.27212 0
M  V30 3589 H 335.943 -0.145922 -4.61069 0
M  V30 3590 H 334.186 -0.206576 -4.33308 0
M  V30 3591 H 334.857 1.0065 -5.42746 0
M  V30 3592 H 337.333 1.88209 -3.71102 0
M  V30 3593 H 336.209 2.87072 -4.67847 0
M  V30 3594 H 336.47 3.26049 -2.98571 0
M  V30 3595 N 335.529 1.53961 0.336706 0
M  V30 3596 C 336.476 1.82428 1.41381 0
M  V30 3597 C 337.446 0.670444 1.51968 0
M  V30 3598 O 338.631 0.915565 1.67398 0
M  V30 3599 C 335.771 2.04564 2.77934 0
M  V30 3600 C 334.884 3.32267 2.76084 0
M  V30 3601 C 334.019 3.44434 4.04399 0
M  V30 3602 C 333.058 4.66061 3.96804 0
M  V30 3603 N 332.195 4.75224 5.16823 0
M  V30 3604 H 337.035 2.74324 1.16405 0
M  V30 3605 H 334.572 1.35869 0.563752 0
M  V30 3606 H 336.53 2.15388 3.57301 0
M  V30 3607 H 335.16 1.15974 3.01247 0
M  V30 3608 H 334.212 3.3025 1.88784 0
M  V30 3609 H 335.524 4.21733 2.66351 0
M  V30 3610 H 334.678 3.54728 4.92192 0
M  V30 3611 H 333.417 2.53037 4.16921 0
M  V30 3612 H 332.422 4.55838 3.07396 0
M  V30 3613 H 333.647 5.58829 3.85858 0
M  V30 3614 H 331.593 3.86739 5.29876 0
M  V30 3615 H 331.51 5.58636 5.09374 0
M  V30 3616 H 332.778 4.89835 6.06367 0
M  V30 3617 N 337.007 -0.598083 1.45811 0
M  V30 3618 C 337.939 -1.72231 1.51225 0
M  V30 3619 C 338.952 -1.57757 0.402059 0
M  V30 3620 O 340.141 -1.65464 0.669624 0
M  V30 3621 C 337.241 -3.10331 1.3619 0
M  V30 3622 C 336.414 -3.50955 2.61054 0
M  V30 3623 C 335.473 -4.68055 2.40439 0
M  V30 3624 O 334.499 -4.74691 3.14097 0
M  V30 3625 N 335.701 -5.61941 1.45612 0
M  V30 3626 H 338.466 -1.68046 2.48154 0
M  V30 3627 H 336.027 -0.783637 1.41671 0
M  V30 3628 H 338.019 -3.86439 1.20195 0
M  V30 3629 H 336.589 -3.0897 0.475015 0
M  V30 3630 H 335.809 -2.64711 2.92099 0
M  V30 3631 H 337.097 -3.74858 3.44034 0
M  V30 3632 H 336.495 -5.59301 0.848431 0
M  V30 3633 H 335.052 -6.37542 1.35585 0
M  V30 3634 N 338.485 -1.33259 -0.841409 0
M  V30 3635 C 339.713 -1.27605 -1.62864 0
M  V30 3636 C 340.128 0.153507 -1.88175 0
M  V30 3637 O 339.485 1.09485 -1.46011 0
M  V30 3638 C 339.536 -2.04596 -2.98031 0
M  V30 3639 O 339.257 -3.41975 -2.73834 0
M  V30 3640 C 340.758 -2.06122 -3.92465 0
M  V30 3641 H 337.978 -0.439718 -0.506842 0
M  V30 3642 H 340.522 -1.75591 -1.04824 0
M  V30 3643 H 338.677 -1.60299 -3.5268 0
M  V30 3644 H 339.091 -3.81549 -3.59889 0
M  V30 3645 H 340.565 -2.64451 -4.84531 0
M  V30 3646 H 341.042 -1.05083 -4.26444 0
M  V30 3647 H 341.648 -2.50427 -3.43753 0
M  V30 3648 N 339.963 1.05934 -1.16686 0
M  V30 3649 C 341.193 1.82226 -0.973515 0
M  V30 3650 C 341.601 1.8297 0.481532 0
M  V30 3651 O 340.944 1.25009 1.34604 0
M  V30 3652 C 341.006 3.29897 -1.42858 0
M  V30 3653 C 340.67 3.52849 -2.90425 0
M  V30 3654 C 341.667 3.45595 -3.88407 0
M  V30 3655 C 339.352 3.80053 -3.28428 0
M  V30 3656 C 341.346 3.65217 -5.22394 0
M  V30 3657 C 339.033 3.99325 -4.62583 0
M  V30 3658 C 340.031 3.91905 -5.59374 0
M  V30 3659 O 339.719 4.10647 -6.91104 0
M  V30 3660 H 339.451 0.581314 -0.345036 0
M  V30 3661 H 342.005 1.3453 -1.55212 0
M  V30 3662 H 340.235 3.78472 -0.793477 0
M  V30 3663 H 341.924 3.87692 -1.20207 0
M  V30 3664 H 342.69 3.24564 -3.60393 0
M  V30 3665 H 338.569 3.84936 -2.53664 0
M  V30 3666 H 342.113 3.59341 -5.9793 0
M  V30 3667 H 338.01 4.19846 -4.90306 0
M  V30 3668 H 338.778 4.27915 -6.97733 0
M  V30 3669 N 341.441 0.965919 1.2453 0
M  V30 3670 C 342.351 0.502154 2.29163 0
M  V30 3671 C 343.367 -0.436017 1.68448 0
M  V30 3672 O 344.543 -0.309497 1.99008 0
M  V30 3673 C 341.608 -0.201956 3.46111 0
M  V30 3674 C 340.669 0.775821 4.22232 0
M  V30 3675 C 339.902 0.105217 5.33596 0
M  V30 3676 O 340.125 -1.10683 5.59558 0
M  V30 3677 O 339.059 0.796475 5.96607 0
M  V30 3678 H 342.885 1.37194 2.70946 0
M  V30 3679 H 340.47 0.732875 1.30189 0
M  V30 3680 H 342.352 -0.597564 4.17142 0
M  V30 3681 H 341.027 -1.04673 3.06309 0
M  V30 3682 H 339.934 1.22185 3.53584 0
M  V30 3683 H 341.267 1.58896 4.65846 0
M  V30 3684 N 342.919 -1.39368 0.735821 0
M  V30 3685 C 343.829 -2.34395 0.0979693 0
M  V30 3686 C 344.845 -1.58361 -0.720968 0
M  V30 3687 O 346.021 -1.90648 -0.649245 0
M  V30 3688 C 343.086 -3.37393 -0.797916 0
M  V30 3689 C 342.147 -4.29287 0.0333662 0
M  V30 3690 C 341.38 -5.27365 -0.819854 0
M  V30 3691 O 341.603 -5.31959 -2.05855 0
M  V30 3692 O 340.537 -6.01389 -0.248079 0
M  V30 3693 H 344.363 -2.90601 0.882315 0
M  V30 3694 H 341.948 -1.40909 0.4965 0
M  V30 3695 H 343.83 -4.00505 -1.31048 0
M  V30 3696 H 342.505 -2.83571 -1.56106 0
M  V30 3697 H 341.412 -3.69395 0.591475 0
M  V30 3698 H 342.745 -4.86317 0.758752 0
M  V30 3699 N 344.397 -0.483516 -1.5 0
M  V30 3700 C 345.645 0.067027 -2.01989 0
M  V30 3701 C 345.966 1.3909 -1.36671 0
M  V30 3702 O 345.236 1.88978 -0.516152 0
M  V30 3703 H 343.816 0.0277606 -0.746484 0
M  V30 3704 H 346.478 -0.636773 -1.84204 0
M  V30 3705 H 345.574 0.209484 -3.11396 0
M  V30 3706 N 345.875 1.56104 -0.216619 0
M  V30 3707 C 347.152 1.89988 0.465165 0
M  V30 3708 C 347.532 1.13326 1.78102 0
M  V30 3709 O 346.88 0.241033 2.27225 0
M  V30 3710 C 347.09 3.42646 0.662939 0
M  V30 3711 C 348.438 4.13311 0.972602 0
M  V30 3712 O 349.462 3.48217 0.749901 0
M  V30 3713 O 348.321 5.28396 1.39499 0
M  V30 3714 H 345.415 0.78979 0.245276 0
M  V30 3715 H 347.961 1.67721 -0.258436 0
M  V30 3716 H 346.733 3.90399 -0.26543 0
M  V30 3717 H 346.356 3.70677 1.43821 0
M  V30 3718 N 347.353 -0.0568162 1.57498 0
M  V30 3719 C 348.599 -0.75422 1.88253 0
M  V30 3720 C 348.932 -1.76461 0.810865 0
M  V30 3721 O 348.207 -1.93691 -0.177259 0
M  V30 3722 C 348.49 -1.44878 3.2967 0
M  V30 3723 C 348.343 -0.453789 4.47505 0
M  V30 3724 C 349.662 -2.38994 3.69554 0
M  V30 3725 H 346.781 -0.272724 0.684683 0
M  V30 3726 H 349.423 -0.0172113 1.89992 0
M  V30 3727 H 347.573 -2.077 3.28318 0
M  V30 3728 H 349.245 0.170371 4.60985 0
M  V30 3729 H 347.488 0.229552 4.33192 0
M  V30 3730 H 348.159 -0.977699 5.43273 0
M  V30 3731 H 350.635 -1.86239 3.72095 0
M  V30 3732 H 349.511 -2.84587 4.69363 0
M  V30 3733 H 349.772 -3.24461 3.00296 0
M  V30 3734 N 348.832 -1.54138 -0.328536 0
M  V30 3735 C 350.078 -1.7236 -1.06865 0
M  V30 3736 C 350.411 -0.493231 -1.87832 0
M  V30 3737 O 349.686 0.5098 -1.877 0
M  V30 3738 C 349.969 -2.99621 -1.99747 0
M  V30 3739 C 349.822 -4.32899 -1.22143 0
M  V30 3740 C 351.141 -3.22615 -2.99345 0
M  V30 3741 H 348.26 -0.627151 -0.387105 0
M  V30 3742 H 350.902 -1.86827 -0.345767 0
M  V30 3743 H 349.052 -2.87418 -2.61387 0
M  V30 3744 H 350.724 -4.56978 -0.630017 0
M  V30 3745 H 348.967 -4.30628 -0.523628 0
M  V30 3746 H 349.638 -5.18154 -1.90318 0
M  V30 3747 H 352.114 -3.34248 -2.47826 0
M  V30 3748 H 350.99 -4.13027 -3.61524 0
M  V30 3749 H 351.251 -2.3961 -3.71536 0
M  V30 3750 N 350.31 0.590341 -1.46126 0
M  V30 3751 C 351.242 1.71427 -1.52136 0
M  V30 3752 C 352.255 1.57542 -0.41042 0
M  V30 3753 O 353.444 1.65106 -0.678389 0
M  V30 3754 C 350.544 3.09605 -1.37834 0
M  V30 3755 C 349.717 3.49566 -2.62912 0
M  V30 3756 C 348.776 4.66773 -2.42918 0
M  V30 3757 O 347.802 4.73019 -3.1661 0
M  V30 3758 N 349.004 5.61161 -1.4859 0
M  V30 3759 H 351.769 1.66728 -2.49042 0
M  V30 3760 H 349.33 0.776113 -1.42085 0
M  V30 3761 H 351.322 3.85796 -1.22243 0
M  V30 3762 H 349.892 3.08714 -0.491393 0
M  V30 3763 H 349.112 2.63158 -2.93499 0
M  V30 3764 H 350.4 3.73028 -3.46017 0
M  V30 3765 H 349.798 5.58844 -0.87808 0
M  V30 3766 H 348.355 6.36814 -1.38965 0
M  V30 3767 N 351.788 1.33704 0.83433 0
M  V30 3768 C 353.035 1.25417 1.58987 0
M  V30 3769 C 353.363 -0.178869 1.93676 0
M  V30 3770 O 352.618 -1.13723 1.59265 0
M  V30 3771 C 352.917 2.07926 2.90692 0
M  V30 3772 C 352.583 3.57066 2.75345 0
M  V30 3773 C 351.245 3.97724 2.70867 0
M  V30 3774 C 353.597 4.51817 2.59828 0
M  V30 3775 C 350.925 5.31344 2.48778 0
M  V30 3776 C 353.277 5.85604 2.39272 0
M  V30 3777 C 351.941 6.25439 2.33199 0
M  V30 3778 H 351.211 0.458934 0.581774 0
M  V30 3779 H 353.858 1.65335 0.966261 0
M  V30 3780 H 352.163 1.608 3.57282 0
M  V30 3781 H 353.86 1.98868 3.48213 0
M  V30 3782 H 350.45 3.24785 2.79665 0
M  V30 3783 H 354.634 4.21311 2.62319 0
M  V30 3784 H 349.89 5.61241 2.42526 0
M  V30 3785 H 354.064 6.58623 2.2625 0
M  V30 3786 H 351.691 7.28914 2.15843 0
M  V30 3787 N 353.266 -1.05314 1.17247 0
M  V30 3788 C 354.513 -1.78293 0.960091 0
M  V30 3789 C 354.841 -1.87658 -0.51136 0
M  V30 3790 O 354.096 -1.3718 -1.39571 0
M  V30 3791 C 354.395 -3.2229 1.54479 0
M  V30 3792 C 354.061 -3.32987 3.04024 0
M  V30 3793 C 352.723 -3.35613 3.44844 0
M  V30 3794 C 355.075 -3.34102 4.00031 0
M  V30 3795 C 352.403 -3.36982 4.8027 0
M  V30 3796 C 354.755 -3.3701 5.35357 0
M  V30 3797 C 353.419 -3.37923 5.75642 0
M  V30 3798 H 352.689 -0.652422 0.351322 0
M  V30 3799 H 355.336 -1.23782 1.46117 0
M  V30 3800 H 353.641 -3.7972 0.965391 0
M  V30 3801 H 355.338 -3.77376 1.35603 0
M  V30 3802 H 351.928 -3.31655 2.71483 0
M  V30 3803 H 356.112 -3.31276 3.69554 0
M  V30 3804 H 351.368 -3.35999 5.10798 0
M  V30 3805 H 355.542 -3.36822 6.09528 0
M  V30 3806 H 353.169 -3.38738 6.80559 0
M  V30 3807 N 354.744 -0.972509 -1.24016 0
M  V30 3808 C 355.984 -0.644951 -1.93958 0
M  V30 3809 C 356.348 0.80559 -1.74282 0
M  V30 3810 O 357.549 1.2436 -2.38302 0
M  V30 3811 C 355.82 -1.01521 -3.42678 0
M  V30 3812 S 357.379 -0.802927 -4.31391 0
M  V30 3813 H 354.197 -0.236452 -0.670531 0
M  V30 3814 H 356.799 -1.25048 -1.50277 0
M  V30 3815 H 355.503 -2.06769 -3.54506 0
M  V30 3816 H 355.034 -0.400648 -3.91355 0
M  V30 3817 H 357.049 0.317256 -4.95185 0
M  V30 3818 N 356.222 1.38976 -0.743202 0
M  V30 3819 C 357.172 2.27843 -0.084513 0
M  V30 3820 C 358.156 1.44677 0.704094 0
M  V30 3821 O 359.348 1.67511 0.571755 0
M  V30 3822 C 356.477 3.33466 0.815781 0
M  V30 3823 C 355.563 4.24095 0.0208844 0
M  V30 3824 N 355.954 4.95609 -1.0102 0
M  V30 3825 C 354.252 4.45303 0.249293 0
M  V30 3826 C 354.953 5.62287 -1.49024 0
M  V30 3827 N 353.929 5.37571 -0.807377 0
M  V30 3828 H 357.731 2.80593 -0.87436 0
M  V30 3829 H 355.245 1.51755 -0.578283 0
M  V30 3830 H 357.242 3.96008 1.30321 0
M  V30 3831 H 355.902 2.82276 1.6047 0
M  V30 3832 H 356.913 4.98849 -1.39176 0
M  V30 3833 H 353.59 4.0504 1.01237 0
M  V30 3834 H 354.98 6.29519 -2.34853 0
M  V30 3835 N 357.7 0.491464 1.49741 0
M  V30 3836 C 358.61 -0.296835 2.32715 0
M  V30 3837 C 359.626 -0.976536 1.44013 0
M  V30 3838 O 360.802 -0.960023 1.77047 0
M  V30 3839 C 357.867 -1.35288 3.19215 0
M  V30 3840 C 356.928 -0.687632 4.23757 0
M  V30 3841 C 356.161 -1.69336 5.06123 0
M  V30 3842 O 356.384 -2.92219 4.89861 0
M  V30 3843 O 355.318 -1.25394 5.88693 0
M  V30 3844 H 359.144 0.382048 3.01287 0
M  V30 3845 H 356.729 0.252953 1.47243 0
M  V30 3846 H 358.611 -1.96411 3.72828 0
M  V30 3847 H 357.286 -2.01487 2.53347 0
M  V30 3848 H 356.193 -0.0369159 3.74082 0
M  V30 3849 H 357.526 -0.0682566 4.92153 0
M  V30 3850 N 359.178 -1.55987 0.224894 0
M  V30 3851 C 360.126 -2.21808 -0.700283 0
M  V30 3852 C 361.12 -1.19854 -1.19714 0
M  V30 3853 O 362.326 -1.37925 -1.15658 0
M  V30 3854 H 358.701 -0.711226 -0.244258 0
M  V30 3855 H 360.672 -2.98152 -0.121749 0
M  V30 3856 C 359.421 -2.91444 -1.8962 0
M  V30 3857 H 358.744 -3.69655 -1.52299 0
M  V30 3858 H 360.184 -3.40894 -2.52125 0
M  V30 3859 C 358.643 -1.94098 -2.75368 0
M  V30 3860 O 359.173 -1.46004 -3.74227 0
M  V30 3861 N 357.379 -1.61675 -2.41474 0
M  V30 3862 H 356.926 -2.00979 -1.61137 0
M  V30 3863 H 356.884 -0.968036 -2.99126 0
M  V30 3864 N 360.656 0.0484629 -1.57525 0
M  V30 3865 C 361.886 0.754326 -1.92337 0
M  V30 3866 C 362.294 1.70443 -0.82132 0
M  V30 3867 O 361.637 1.82466 0.21254 0
M  V30 3868 C 361.699 1.58231 -3.22805 0
M  V30 3869 C 361.363 0.799074 -4.4996 0
M  V30 3870 C 362.36 0.1079 -5.19788 0
M  V30 3871 C 360.045 0.759345 -4.96527 0
M  V30 3872 C 362.039 -0.612516 -6.3445 0
M  V30 3873 C 359.726 0.0351713 -6.1109 0
M  V30 3874 C 360.724 -0.649537 -6.79904 0
M  V30 3875 O 360.412 -1.36199 -7.92278 0
M  V30 3876 H 360.144 0.218257 -0.639797 0
M  V30 3877 H 362.698 0.0159295 -2.05394 0
M  V30 3878 H 360.928 2.36406 -3.06021 0
M  V30 3879 H 362.617 2.16898 -3.43089 0
M  V30 3880 H 363.383 0.129748 -4.84826 0
M  V30 3881 H 359.262 1.28177 -4.42822 0
M  V30 3882 H 362.806 -1.14751 -6.88097 0
M  V30 3883 H 358.703 0.0113314 -6.45499 0
M  V30 3884 H 359.471 -1.27366 -8.0853 0
M  V30 3885 N 362.134 1.5431 0.320358 0
M  V30 3886 C 363.364 1.7638 1.07582 0
M  V30 3887 C 363.772 0.513944 1.82086 0
M  V30 3888 O 363.115 -0.525123 1.76035 0
M  V30 3889 C 363.177 2.9055 2.1171 0
M  V30 3890 C 362.841 4.2934 1.56575 0
M  V30 3891 C 363.838 5.10077 1.00586 0
M  V30 3892 C 361.523 4.75893 1.60722 0
M  V30 3893 C 363.517 6.35477 0.494756 0
M  V30 3894 C 361.204 6.0126 1.09224 0
M  V30 3895 C 362.202 6.80886 0.53696 0
M  V30 3896 O 361.89 8.03894 0.0297371 0
M  V30 3897 H 361.622 0.592369 0.325692 0
M  V30 3898 H 364.176 2.02019 0.37116 0
M  V30 3899 H 362.406 2.60489 2.85801 0
M  V30 3900 H 364.095 3.00373 2.73003 0
M  V30 3901 H 364.861 4.75265 0.966869 0
M  V30 3902 H 360.74 4.13957 2.02882 0
M  V30 3903 H 364.284 6.97574 0.0606842 0
M  V30 3904 H 360.181 6.35562 1.12831 0
M  V30 3905 H 360.949 8.18372 0.14486 0
M  V30 3906 N 363.613 -0.582584 1.46437 0
M  V30 3907 C 364.543 -1.70187 1.59871 0
M  V30 3908 C 365.524 -1.64066 0.449042 0
M  V30 3909 O 366.709 -1.82081 0.6753 0
M  V30 3910 C 363.839 -3.08827 1.58881 0
M  V30 3911 C 362.793 -3.29779 2.72819 0
M  V30 3912 C 362.119 -4.68947 2.5689 0
M  V30 3913 C 363.419 -3.17601 4.1464 0
M  V30 3914 H 365.113 -1.592 2.53566 0
M  V30 3915 H 362.659 -0.764472 1.22032 0
M  V30 3916 H 364.612 -3.86951 1.66873 0
M  V30 3917 H 363.336 -3.20713 0.617306 0
M  V30 3918 H 361.995 -2.54054 2.64296 0
M  V30 3919 H 361.643 -4.77599 1.57823 0
M  V30 3920 H 361.343 -4.83919 3.33312 0
M  V30 3921 H 362.867 -5.4924 2.66773 0
M  V30 3922 H 364.281 -3.8557 4.24274 0
M  V30 3923 H 362.678 -3.44094 4.9165 0
M  V30 3924 H 363.748 -2.14681 4.34788 0
M  V30 3925 N 365.091 -1.34144 -0.827227 0
M  V30 3926 C 366.316 -1.29476 -1.62021 0
M  V30 3927 C 366.741 0.129292 -1.87655 0
M  V30 3928 O 366.099 1.08967 -1.449 0
M  V30 3929 C 366.147 -2.08702 -2.94068 0
M  V30 3930 O 365.251 -1.45359 -3.85933 0
M  V30 3931 H 364.592 -0.444881 -0.492927 0
M  V30 3932 H 367.122 -1.76882 -1.02829 0
M  V30 3933 H 367.132 -2.19898 -3.43669 0
M  V30 3934 H 365.807 -3.12241 -2.74734 0
M  V30 3935 H 364.384 -1.42879 -3.44442 0
M  V30 3936 N 366.569 1.04691 -1.17803 0
M  V30 3937 C 367.817 1.7743 -0.967617 0
M  V30 3938 C 368.138 1.88359 0.504574 0
M  V30 3939 O 367.408 1.40402 1.36617 0
M  V30 3940 H 365.988 0.657242 -0.355024 0
M  V30 3941 H 368.65 1.2638 -1.48371 0
M  V30 3942 H 367.746 2.78924 -1.40027 0
M  V30 3943 N 368.047 0.979072 1.23499 0
M  V30 3944 C 369.272 0.664845 1.96455 0
M  V30 3945 C 369.697 -0.761287 1.72006 0
M  V30 3946 O 369.055 -1.51837 0.990713 0
M  V30 3947 C 369.103 0.959479 3.47601 0
M  V30 3948 O 368.207 0.0508168 4.12369 0
M  V30 3949 H 367.548 0.250185 0.615064 0
M  V30 3950 H 370.078 1.31231 1.5697 0
M  V30 3951 H 370.088 0.895642 3.98048 0
M  V30 3952 H 368.763 1.99876 3.64723 0
M  V30 3953 H 367.34 0.16895 3.72517 0
M  V30 3954 N 369.525 -1.3858 0.750561 0
M  V30 3955 C 370.802 -1.94231 0.231009 0
M  V30 3956 C 371.182 -1.68611 -1.27018 0
M  V30 3957 O 370.53 -1.02296 -2.04323 0
M  V30 3958 C 370.74 -3.44123 0.581428 0
M  V30 3959 C 372.088 -4.2116 0.539389 0
M  V30 3960 O 373.112 -3.52391 0.519541 0
M  V30 3961 O 371.971 -5.43749 0.54765 0
M  V30 3962 H 369.065 -0.825639 0.0474263 0
M  V30 3963 H 371.611 -1.4799 0.830478 0
M  V30 3964 H 370.383 -3.56267 1.61833 0
M  V30 3965 H 370.006 -3.97573 -0.0462047 0
M  V30 3966 N 371.003 -0.499398 -1.49478 0
M  V30 3967 C 371.933 0.269244 -2.31943 0
M  V30 3968 C 372.914 0.964054 -1.40143 0
M  V30 3969 O 374.099 0.955767 -1.69052 0
M  V30 3970 C 371.229 1.33504 -3.20615 0
M  V30 3971 C 370.183 0.760202 -4.21195 0
M  V30 3972 C 369.509 1.9264 -4.98792 0
M  V30 3973 C 370.809 -0.247661 -5.21712 0
M  V30 3974 H 372.503 -0.419082 -2.96452 0
M  V30 3975 H 370.049 -0.202988 -1.42562 0
M  V30 3976 H 372.002 1.88048 -3.77115 0
M  V30 3977 H 370.726 2.05253 -2.54045 0
M  V30 3978 H 369.385 0.23653 -3.65836 0
M  V30 3979 H 369.033 2.63154 -4.28671 0
M  V30 3980 H 368.733 1.54785 -5.66847 0
M  V30 3981 H 370.257 2.4762 -5.58137 0
M  V30 3982 H 371.671 0.209579 -5.72917 0
M  V30 3983 H 370.068 -0.541962 -5.97648 0
M  V30 3984 H 371.138 -1.16409 -4.7072 0
M  V30 3985 N 372.481 1.55866 -0.233164 0
M  V30 3986 C 373.73 1.97779 0.39579 0
M  V30 3987 C 374.043 1.12419 1.60066 0
M  V30 3988 O 375.249 1.44283 2.29988 0
M  V30 3989 C 373.705 3.5188 0.755556 0
M  V30 3990 C 373.313 4.45959 -0.427152 0
M  V30 3991 C 375.057 4.02479 1.34946 0
M  V30 3992 C 372.964 5.91383 -0.0443043 0
M  V30 3993 H 371.894 0.738592 0.15165 0
M  V30 3994 H 374.545 1.80486 -0.331212 0
M  V30 3995 H 372.927 3.64816 1.5403 0
M  V30 3996 H 374.101 4.44776 -1.20462 0
M  V30 3997 H 372.416 4.05765 -0.935068 0
M  V30 3998 H 375.013 5.08637 1.649 0
M  V30 3999 H 375.356 3.49014 2.26925 0
M  V30 4000 H 375.889 3.92813 0.62791 0
M  V30 4001 H 372.628 6.48857 -0.930874 0
M  V30 4002 H 372.148 5.95734 0.697238 0
M  V30 4003 H 373.827 6.45893 0.378334 0
M  V30 4004 N 373.959 -0.0401083 1.57549 0
M  V30 4005 C 374.891 -1.07149 2.02612 0
M  V30 4006 C 375.904 -1.33126 0.937085 0
M  V30 4007 O 377.093 -1.30808 1.21456 0
M  V30 4008 C 374.193 -2.41561 2.37701 0
M  V30 4009 C 373.366 -2.35096 3.68848 0
M  V30 4010 C 372.425 -3.51867 3.91249 0
M  V30 4011 O 371.451 -3.3186 4.62447 0
M  V30 4012 N 372.653 -4.73351 3.36035 0
M  V30 4013 H 375.418 -0.687485 2.91708 0
M  V30 4014 H 372.979 -0.228248 1.60283 0
M  V30 4015 H 374.971 -3.18379 2.49833 0
M  V30 4016 H 373.541 -2.71846 1.54332 0
M  V30 4017 H 372.761 -1.4345 3.67173 0
M  V30 4018 H 374.049 -2.27908 4.54901 0
M  V30 4019 H 373.447 -4.92507 2.78304 0
M  V30 4020 H 372.004 -5.47572 3.53565 0
M  V30 4021 N 375.437 -1.54477 -0.31217 0
M  V30 4022 C 376.677 -1.74958 -1.05684 0
M  V30 4023 C 377.041 -0.518414 -1.84869 0
M  V30 4024 O 378.242 -0.600759 -2.62001 0
M  V30 4025 C 376.513 -2.99656 -1.94785 0
M  V30 4026 S 378.072 -3.4109 -2.76049 0
M  V30 4027 H 374.89 -0.615104 -0.356606 0
M  V30 4028 H 377.492 -1.92669 -0.331514 0
M  V30 4029 H 376.196 -3.87397 -1.35468 0
M  V30 4030 H 375.727 -2.845 -2.71704 0
M  V30 4031 H 377.742 -2.97283 -3.97287 0
M  V30 4032 N 376.915 0.57481 -1.46744 0
M  V30 4033 C 378.145 1.35659 -1.55821 0
M  V30 4034 C 378.553 1.88129 -0.201036 0
M  V30 4035 O 377.896 1.64723 0.813134 0
M  V30 4036 C 377.958 2.57473 -2.50894 0
M  V30 4037 C 377.622 2.26415 -3.9697 0
M  V30 4038 C 378.619 1.84771 -4.85958 0
M  V30 4039 C 376.304 2.38316 -4.42166 0
M  V30 4040 C 378.298 1.55434 -6.18158 0
M  V30 4041 C 375.985 2.08591 -5.74398 0
M  V30 4042 C 376.983 1.67216 -6.62214 0
M  V30 4043 O 376.671 1.37859 -7.91991 0
M  V30 4044 H 376.403 0.420496 -0.529301 0
M  V30 4045 H 378.957 0.704967 -1.92923 0
M  V30 4046 H 377.187 3.25468 -2.08824 0
M  V30 4047 H 378.876 3.19546 -2.50291 0
M  V30 4048 H 379.642 1.75085 -4.52295 0
M  V30 4049 H 375.521 2.69483 -3.74032 0
M  V30 4050 H 379.065 1.23065 -6.86659 0
M  V30 4051 H 374.962 2.17905 -6.07608 0
M  V30 4052 H 375.73 1.51638 -8.04331 0
M  V30 4053 N 378.394 1.34581 0.820102 0
M  V30 4054 C 379.342 1.26401 1.95258 0
M  V30 4055 C 380.336 0.161553 1.68628 0
M  V30 4056 O 381.542 0.326703 1.7701 0
M  V30 4057 H 377.917 0.392749 0.64129 0
M  V30 4058 H 379.888 2.22105 1.99279 0
M  V30 4059 C 378.637 1.03919 3.31807 0
M  V30 4060 H 377.96 1.87984 3.52848 0
M  V30 4061 H 379.4 1.02232 4.11491 0
M  V30 4062 C 377.859 -0.257433 3.35915 0
M  V30 4063 O 378.389 -1.25784 3.81499 0
M  V30 4064 N 376.595 -0.291524 2.89134 0
M  V30 4065 H 376.142 0.523161 2.52232 0
M  V30 4066 H 376.1 -1.15883 2.92264 0
M  V30 4067 N 379.872 -1.04064 1.18357 0
M  V30 4068 C 381.119 -1.77265 0.978947 0
M  V30 4069 C 381.447 -1.88189 -0.491428 0
M  V30 4070 O 380.702 -1.38653 -1.38108 0
M  V30 4071 C 381.001 -3.20634 1.57888 0
M  V30 4072 C 380.667 -3.29743 3.07539 0
M  V30 4073 C 379.329 -3.31937 3.48384 0
M  V30 4074 C 381.681 -3.29841 4.03552 0
M  V30 4075 C 379.009 -3.3187 4.83818 0
M  V30 4076 C 381.361 -3.31313 5.38901 0
M  V30 4077 C 380.025 -3.31799 5.79194 0
M  V30 4078 H 379.295 -0.648659 0.358222 0
M  V30 4079 H 381.942 -1.22225 1.47422 0
M  V30 4080 H 380.247 -3.78675 1.00561 0
M  V30 4081 H 381.944 -3.75917 1.39598 0
M  V30 4082 H 378.534 -3.28757 2.74986 0
M  V30 4083 H 382.718 -3.27337 3.73047 0
M  V30 4084 H 377.974 -3.30562 5.14333 0
M  V30 4085 H 382.148 -3.30338 6.13066 0
M  V30 4086 H 379.775 -3.315 6.84114 0
M  V30 4087 N 381.35 -0.985608 -1.22978 0
M  V30 4088 C 382.598 -0.656087 -1.91154 0
M  V30 4089 C 382.919 0.813561 -1.77218 0
M  V30 4090 O 382.189 1.58244 -1.1548 0
M  V30 4091 H 380.769 -0.239674 -0.707506 0
M  V30 4092 H 383.431 -1.25054 -1.49491 0
M  V30 4093 H 382.527 -0.912253 -2.9847 0
M  V30 4094 N 382.828 1.3818 -0.7579 0
M  V30 4095 C 384.074 2.0078 -0.325423 0
M  V30 4096 C 384.429 1.59085 1.08211 0
M  V30 4097 O 383.722 0.820394 1.73148 0
M  V30 4098 C 383.916 3.55252 -0.391218 0
M  V30 4099 C 383.745 4.11947 -1.8036 0
M  V30 4100 C 382.515 4.43519 -2.42113 0
M  V30 4101 C 384.713 4.33908 -2.76095 0
M  V30 4102 N 382.695 4.85847 -3.75267 0
M  V30 4103 C 384.066 4.78692 -3.94023 0
M  V30 4104 C 386.121 4.16015 -2.73561 0
M  V30 4105 C 384.824 5.07459 -5.09782 0
M  V30 4106 C 386.85 4.45909 -3.88483 0
M  V30 4107 C 386.212 4.90921 -5.0515 0
M  V30 4108 H 382.311 0.764215 -0.165831 0
M  V30 4109 H 384.895 1.67724 -0.988776 0
M  V30 4110 H 383.066 3.87646 0.241886 0
M  V30 4111 H 384.798 4.04653 0.061989 0
M  V30 4112 H 381.553 4.32113 -1.93842 0
M  V30 4113 H 381.977 5.11339 -4.4369 0
M  V30 4114 H 386.619 3.80399 -1.84544 0
M  V30 4115 H 384.337 5.4197 -5.99412 0
M  V30 4116 H 387.923 4.33666 -3.87847 0
M  V30 4117 H 386.803 5.1361 -5.92599 0
M  V30 4118 N 384.306 0.507319 1.49211 0
M  V30 4119 C 385.536 -0.0315292 2.06576 0
M  V30 4120 C 385.944 -1.30791 1.36713 0
M  V30 4121 O 385.287 -1.78324 0.441181 0
M  V30 4122 C 385.349 -0.349104 3.57801 0
M  V30 4123 C 385.013 0.830475 4.49391 0
M  V30 4124 C 386.01 1.72271 4.90529 0
M  V30 4125 C 383.695 1.03107 4.91604 0
M  V30 4126 C 385.689 2.79964 5.72625 0
M  V30 4127 C 383.376 2.11116 5.73475 0
M  V30 4128 C 384.374 2.99379 6.1389 0
M  V30 4129 O 384.062 4.05523 6.94123 0
M  V30 4130 H 383.794 0.0201002 0.675701 0
M  V30 4131 H 386.348 0.705737 1.92895 0
M  V30 4132 H 384.578 -1.14005 3.69513 0
M  V30 4133 H 386.267 -0.827319 3.97379 0
M  V30 4134 H 387.033 1.57958 4.58557 0
M  V30 4135 H 382.912 0.353417 4.59643 0
M  V30 4136 H 386.456 3.48884 6.04091 0
M  V30 4137 H 382.353 2.25421 6.0486 0
M  V30 4138 H 383.121 4.02953 7.1244 0
M  V30 4139 N 385.784 -1.5574 0.241426 0
M  V30 4140 C 387.195 -1.84842 -0.262755 0
M  V30 4141 C 387.546 -1.16317 -1.58003 0
M  V30 4142 O 386.671 -0.439653 -2.11887 0
M  V30 4143 C 387.266 -3.35332 -0.483523 0
M  V30 4144 C 385.825 -3.6468 -0.931977 0
M  V30 4145 C 384.972 -2.77299 -0.0061151 0
M  V30 4146 H 387.923 -1.51761 0.464129 0
M  V30 4147 H 387.944 -3.56615 -1.32688 0
M  V30 4148 H 387.456 -3.85178 0.47537 0
M  V30 4149 H 385.557 -3.20307 -1.90353 0
M  V30 4150 H 385.67 -4.72498 -0.792628 0
M  V30 4151 H 384.034 -2.49408 -0.516503 0
M  V30 4152 H 384.817 -3.2995 0.948052 0
M  V30 4153 N 387.262 0.0317525 -1.57568 0
M  V30 4154 C 388.172 1.05021 -2.0978 0
M  V30 4155 C 389.188 1.39809 -1.03583 0
M  V30 4156 O 390.364 1.49182 -1.35302 0
M  V30 4157 C 387.429 2.33301 -2.56459 0
M  V30 4158 C 386.49 2.0512 -3.77127 0
M  V30 4159 C 385.723 3.27283 -4.2157 0
M  V30 4160 O 385.946 4.37861 -3.65559 0
M  V30 4161 O 384.88 3.13141 -5.14029 0
M  V30 4162 H 388.706 0.636505 -2.96955 0
M  V30 4163 H 386.291 0.248559 -1.47318 0
M  V30 4164 H 388.173 3.08722 -2.86825 0
M  V30 4165 H 386.848 2.73973 -1.72397 0
M  V30 4166 H 385.755 1.27276 -3.51784 0
M  V30 4167 H 387.088 1.69305 -4.62165 0
M  V30 4168 N 388.74 1.54641 0.303973 0
M  V30 4169 C 389.965 1.78092 1.06292 0
M  V30 4170 C 390.39 0.537342 1.80262 0
M  V30 4171 O 389.748 -0.511993 1.7392 0
M  V30 4172 C 389.796 2.98612 2.02147 0
M  V30 4173 O 388.9 2.71528 3.10397 0
M  V30 4174 H 388.241 0.589548 0.305497 0
M  V30 4175 H 390.771 2.01716 0.3423 0
M  V30 4176 H 390.781 3.265 2.44667 0
M  V30 4177 H 389.456 3.88785 1.47714 0
M  V30 4178 H 388.033 2.54648 2.72413 0
M  V30 4179 N 390.218 -0.567019 1.47046 0
M  V30 4180 C 391.629 -1.14916 1.47143 0
M  V30 4181 C 391.98 -1.94954 0.220767 0
M  V30 4182 O 391.105 -2.05602 -0.67505 0
M  V30 4183 C 391.7 -2.09069 2.666 0
M  V30 4184 C 390.259 -2.62575 2.69687 0
M  V30 4185 C 389.406 -1.38755 2.40088 0
M  V30 4186 H 392.357 -0.354126 1.54699 0
M  V30 4187 H 392.378 -2.92789 2.43011 0
M  V30 4188 H 391.89 -1.50789 3.57609 0
M  V30 4189 H 389.991 -3.24681 1.82792 0
M  V30 4190 H 390.104 -3.04239 3.70102 0
M  V30 4191 H 388.468 -1.69098 1.90468 0
M  V30 4192 H 389.251 -0.822822 3.33293 0
M  V30 4193 N 391.696 -1.35014 -0.812953 0
M  V30 4194 C 392.942 -1.2812 -1.57204 0
M  V30 4195 C 393.275 0.145869 -1.93651 0
M  V30 4196 O 392.55 1.0937 -1.60836 0
M  V30 4197 C 392.833 -2.18162 -2.86492 0
M  V30 4198 C 392.686 -3.69454 -2.56561 0
M  V30 4199 C 394.005 -2.07439 -3.88145 0
M  V30 4200 H 391.124 -0.466746 -0.570366 0
M  V30 4201 H 393.766 -1.65357 -0.935783 0
M  V30 4202 H 391.916 -1.86535 -3.40789 0
M  V30 4203 H 393.588 -4.11493 -2.08497 0
M  V30 4204 H 391.831 -3.9005 -1.89851 0
M  V30 4205 H 392.502 -4.27835 -3.48799 0
M  V30 4206 H 394.978 -2.35228 -3.4323 0
M  V30 4207 H 393.854 -2.7265 -4.76396 0
M  V30 4208 H 394.115 -1.05439 -4.29343 0
M  V30 4209 N 393.175 1.03435 -1.18907 0
M  V30 4210 C 394.415 1.78302 -0.999391 0
M  V30 4211 C 394.779 1.86353 0.462219 0
M  V30 4212 O 395.98 2.57489 0.771543 0
M  V30 4213 C 394.251 3.17362 -1.64365 0
M  V30 4214 S 395.81 4.08488 -1.6026 0
M  V30 4215 H 392.628 0.613861 -0.358742 0
M  V30 4216 H 395.23 1.23979 -1.51161 0
M  V30 4217 H 393.934 3.09116 -2.69955 0
M  V30 4218 H 393.465 3.76762 -1.13199 0
M  V30 4219 H 395.48 4.92274 -0.622932 0
M  V30 4220 N 394.653 0.992116 1.22453 0
M  V30 4221 C 395.563 0.55065 2.28046 0
M  V30 4222 C 396.579 -0.400189 1.69335 0
M  V30 4223 O 397.755 -0.267215 1.99619 0
M  V30 4224 C 394.82 -0.128496 3.46462 0
M  V30 4225 C 393.881 0.865208 4.20491 0
M  V30 4226 C 393.114 0.218377 5.33253 0
M  V30 4227 O 393.337 -0.987894 5.6178 0
M  V30 4228 O 392.271 0.922845 5.94783 0
M  V30 4229 H 396.097 1.4291 2.67975 0
M  V30 4230 H 393.682 0.760326 1.28606 0
M  V30 4231 H 395.564 -0.508947 4.18315 0
M  V30 4232 H 394.239 -0.981526 3.0846 0
M  V30 4233 H 393.146 1.29658 3.50913 0
M  V30 4234 H 394.479 1.68741 4.62371 0
M  V30 4235 N 396.131 -1.37776 0.765217 0
M  V30 4236 C 397.379 -1.99454 0.325943 0
M  V30 4237 C 397.7 -1.61049 -1.09947 0
M  V30 4238 O 396.97 -0.872821 -1.75381 0
M  V30 4239 H 395.55 -0.737697 0.117525 0
M  V30 4240 H 398.212 -1.68359 0.981895 0
M  V30 4241 H 397.308 -3.09547 0.398353 0
M  V30 4242 N 397.609 -0.515225 -1.4894 0
M  V30 4243 C 399.025 -0.172099 -1.58669 0
M  V30 4244 C 399.225 1.32405 -1.51892 0
M  V30 4245 O 398.281 2.10116 -1.40027 0
M  V30 4246 C 399.594 -0.761533 -2.90897 0
M  V30 4247 C 401.142 -0.728926 -3.04394 0
M  V30 4248 C 401.617 -1.29667 -4.39261 0
M  V30 4249 N 403.108 -1.25799 -4.4579 0
M  V30 4250 C 403.843 -1.66733 -5.48623 0
M  V30 4251 N 403.339 -2.15327 -6.58488 0
M  V30 4252 N 405.132 -1.58061 -5.39419 0
M  V30 4253 H 397.283 -1.48778 -1.51588 0
M  V30 4254 H 399.546 -0.617968 -0.718901 0
M  V30 4255 H 399.252 -1.81136 -3.01468 0
M  V30 4256 H 399.126 -0.230106 -3.76497 0
M  V30 4257 H 401.513 0.312098 -2.93445 0
M  V30 4258 H 401.594 -1.29766 -2.20442 0
M  V30 4259 H 401.238 -2.33655 -4.50963 0
M  V30 4260 H 401.168 -0.703752 -5.21876 0
M  V30 4261 H 403.659 -0.902102 -3.66975 0
M  V30 4262 H 403.972 -2.44594 -7.33071 0
M  V30 4263 H 402.317 -2.19311 -6.59491 0
M  V30 4264 H 405.508 -1.19906 -4.52482 0
M  V30 4265 H 405.681 -1.90284 -6.19432 0
M  V30 4266 N 399.087 1.5561 -0.249682 0
M  V30 4267 C 400.503 1.59254 0.105103 0
M  V30 4268 C 400.703 1.26685 1.56694 0
M  V30 4269 O 399.759 1.0155 2.31179 0
M  V30 4270 C 401.072 2.99687 -0.246592 0
M  V30 4271 C 402.62 3.12416 -0.191118 0
M  V30 4272 C 403.095 4.55074 -0.516885 0
M  V30 4273 N 404.586 4.60835 -0.467489 0
M  V30 4274 C 405.321 5.69201 -0.69268 0
M  V30 4275 N 404.817 6.85817 -0.981146 0
M  V30 4276 N 406.61 5.58635 -0.623198 0
M  V30 4277 H 398.761 1.75049 -1.20298 0
M  V30 4278 H 401.024 0.815003 -0.484225 0
M  V30 4279 H 400.73 3.28267 -1.26228 0
M  V30 4280 H 400.604 3.74798 0.424962 0
M  V30 4281 H 402.991 2.83615 0.815247 0
M  V30 4282 H 403.072 2.39573 -0.896563 0
M  V30 4283 H 402.716 4.84596 -1.52082 0
M  V30 4284 H 402.646 5.26181 0.210068 0
M  V30 4285 H 405.137 3.7705 -0.253373 0
M  V30 4286 H 405.45 7.64341 -1.14032 0
M  V30 4287 H 403.795 6.87494 -1.01865 0
M  V30 4288 H 406.986 4.66406 -0.397863 0
M  V30 4289 H 407.159 6.43017 -0.802093 0
M  V30 4290 N 400.565 -0.0233959 1.57583 0
M  V30 4291 C 401.513 -1.04063 2.08023 0
M  V30 4292 C 402.507 -1.37084 0.995204 0
M  V30 4293 O 403.713 -1.35923 1.18004 0
M  V30 4294 H 400.088 -0.353144 0.663922 0
M  V30 4295 H 402.059 -0.589453 2.9252 0
M  V30 4296 C 400.808 -2.33123 2.57971 0
M  V30 4297 H 400.131 -2.08577 3.4108 0
M  V30 4298 H 401.571 -3.02632 2.96967 0
M  V30 4299 C 400.03 -3.02483 1.48342 0
M  V30 4300 O 400.56 -3.92541 0.852898 0
M  V30 4301 N 398.766 -2.63909 1.21658 0
M  V30 4302 H 398.313 -1.90758 1.73116 0
M  V30 4303 H 398.271 -3.10633 0.485218 0
M  V30 4304 N 402.043 -1.548 -0.295768 0
M  V30 4305 C 403.459 -1.4613 -0.641722 0
M  V30 4306 C 403.659 -0.656771 -1.90496 0
M  V30 4307 O 402.715 -0.166547 -2.5195 0
M  V30 4308 C 404.028 -2.90141 -0.789852 0
M  V30 4309 C 405.576 -3.00216 -0.885396 0
M  V30 4310 C 406.051 -4.45434 -1.06548 0
M  V30 4311 N 407.542 -4.49166 -1.13156 0
M  V30 4312 C 408.277 -5.58717 -1.28929 0
M  V30 4313 N 407.773 -6.78182 -1.41567 0
M  V30 4314 N 409.566 -5.46415 -1.31859 0
M  V30 4315 H 401.717 -2.05574 0.534147 0
M  V30 4316 H 403.98 -0.931259 0.177372 0
M  V30 4317 H 403.686 -3.51635 0.0675598 0
M  V30 4318 H 403.56 -3.37859 -1.67724 0
M  V30 4319 H 405.947 -2.38833 -1.73329 0
M  V30 4320 H 406.028 -2.55787 0.0261185 0
M  V30 4321 H 405.672 -5.07413 -0.222335 0
M  V30 4322 H 405.602 -4.87499 -1.9913 0
M  V30 4323 H 408.093 -3.631 -1.04721 0
M  V30 4324 H 408.406 -7.57428 -1.53372 0
M  V30 4325 H 406.751 -6.81037 -1.38613 0
M  V30 4326 H 409.942 -4.5203 -1.21601 0
M  V30 4327 H 410.115 -6.31841 -1.43808 0
M  V30 4328 N 403.521 0.559213 -1.47345 0
M  V30 4329 C 404.761 1.32728 -1.55444 0
M  V30 4330 C 405.125 1.90838 -0.210895 0
M  V30 4331 O 406.326 2.68282 -0.166719 0
M  V30 4332 C 404.597 2.4092 -2.63993 0
M  V30 4333 S 406.156 3.2784 -2.91661 0
M  V30 4334 H 402.974 0.451883 -0.548929 0
M  V30 4335 H 405.576 0.640404 -1.84714 0
M  V30 4336 H 404.28 1.9666 -3.60212 0
M  V30 4337 H 403.811 3.14351 -2.36531 0
M  V30 4338 H 405.826 4.40341 -2.28722 0
M  V30 4339 N 404.999 1.35443 0.805782 0
M  V30 4340 C 406.41 1.25768 1.37983 0
M  V30 4341 C 406.761 -0.10958 1.95894 0
M  V30 4342 O 405.886 -1.01056 1.91355 0
M  V30 4343 C 406.481 2.27727 2.5085 0
M  V30 4344 C 405.04 2.2179 3.04115 0
M  V30 4345 C 404.187 2.13393 1.77084 0
M  V30 4346 H 407.138 1.4656 0.608752 0
M  V30 4347 H 407.159 1.90422 3.29424 0
M  V30 4348 H 406.671 3.27227 2.08671 0
M  V30 4349 H 404.772 1.25703 3.50756 0
M  V30 4350 H 404.885 3.13788 3.62042 0
M  V30 4351 H 403.249 1.59384 1.98668 0
M  V30 4352 H 404.032 3.14755 1.37056 0
M  V30 4353 N 406.477 -1.02803 1.19454 0
M  V30 4354 C 407.888 -1.57667 0.999899 0
M  V30 4355 C 408.239 -1.91041 -0.446956 0
M  V30 4356 O 407.364 -1.70978 -1.32648 0
M  V30 4357 C 407.959 -2.86477 1.80877 0
M  V30 4358 C 406.518 -3.37911 1.65811 0
M  V30 4359 C 405.665 -2.11343 1.79526 0
M  V30 4360 H 408.616 -0.853214 1.33813 0
M  V30 4361 H 408.637 -3.57408 1.30536 0
M  V30 4362 H 408.149 -2.62155 2.86175 0
M  V30 4363 H 406.25 -3.67218 0.63102 0
M  V30 4364 H 406.363 -4.10885 2.46395 0
M  V30 4365 H 404.727 -2.23254 1.22596 0
M  V30 4366 H 405.51 -1.89461 2.86285 0
M  V30 4367 N 407.956 -0.998596 -1.21925 0
M  V30 4368 C 409.367 -0.711939 -1.72593 0
M  V30 4369 C 409.718 0.770842 -1.80423 0
M  V30 4370 O 408.843 1.60237 -1.4544 0
M  V30 4371 C 409.438 -1.28567 -3.13458 0
M  V30 4372 C 407.997 -1.04828 -3.61508 0
M  V30 4373 C 407.144 -1.4024 -2.39224 0
M  V30 4374 H 410.095 -1.17027 -1.07193 0
M  V30 4375 H 410.116 -0.667098 -3.74607 0
M  V30 4376 H 409.628 -2.36486 -3.07727 0
M  V30 4377 H 407.729 0.0140383 -3.72597 0
M  V30 4378 H 407.842 -1.71566 -4.47328 0
M  V30 4379 H 406.206 -0.821077 -2.41103 0
M  V30 4380 H 406.989 -2.49176 -2.36149 0
M  V30 4381 N 409.434 1.37368 -0.772513 0
M  V30 4382 C 410.845 1.8231 -0.402493 0
M  V30 4383 C 411.196 1.6436 1.07146 0
M  V30 4384 O 410.321 1.15514 1.82991 0
M  V30 4385 C 410.916 3.30979 -0.723776 0
M  V30 4386 C 409.475 3.74195 -0.406802 0
M  V30 4387 C 408.622 2.59885 -0.967218 0
M  V30 4388 H 411.573 1.25829 -0.967099 0
M  V30 4389 H 411.594 3.80499 -0.00870832 0
M  V30 4390 H 411.106 3.44011 -1.7966 0
M  V30 4391 H 409.207 3.66732 0.658673 0
M  V30 4392 H 409.32 4.7027 -0.915588 0
M  V30 4393 H 407.684 2.51674 -0.391416 0
M  V30 4394 H 408.467 2.7571 -2.04546 0
M  V30 4395 N 410.912 0.523116 1.48665 0
M  V30 4396 C 411.842 -0.23231 2.32342 0
M  V30 4397 C 412.823 -0.941637 1.41659 0
M  V30 4398 O 414.008 -0.928751 1.70552 0
M  V30 4399 C 411.138 -1.28387 3.22698 0
M  V30 4400 C 410.092 -0.693098 4.22351 0
M  V30 4401 C 409.418 -1.8468 5.01794 0
M  V30 4402 C 410.718 0.33063 5.21252 0
M  V30 4403 H 412.412 0.466192 2.95748 0
M  V30 4404 H 409.958 0.225643 1.42221 0
M  V30 4405 H 411.911 -1.82024 3.80059 0
M  V30 4406 H 410.635 -2.01186 2.57278 0
M  V30 4407 H 409.294 -0.178299 3.66166 0
M  V30 4408 H 408.942 -2.56301 4.32804 0
M  V30 4409 H 408.642 -1.45747 5.69238 0
M  V30 4410 H 410.166 -2.38709 5.62006 0
M  V30 4411 H 411.58 -0.118407 5.73178 0
M  V30 4412 H 409.977 0.636974 5.9671 0
M  V30 4413 H 411.047 1.23883 4.68808 0
M  V30 4414 N 412.39 -1.55475 0.257931 0
M  V30 4415 C 413.801 -1.8511 -0.243135 0
M  V30 4416 C 414.152 -1.17986 -1.5676 0
M  V30 4417 O 413.277 -0.462102 -2.11409 0
M  V30 4418 C 413.872 -3.35826 -0.447929 0
M  V30 4419 C 412.431 -3.65647 -0.893245 0
M  V30 4420 C 411.578 -2.7729 0.0232965 0
M  V30 4421 H 414.529 -1.51261 0.480199 0
M  V30 4422 H 414.55 -3.58002 -1.28898 0
M  V30 4423 H 414.062 -3.84652 0.516196 0
M  V30 4424 H 412.163 -3.22308 -1.86945 0
M  V30 4425 H 412.276 -4.73312 -0.742469 0
M  V30 4426 H 410.64 -2.49942 -0.490021 0
M  V30 4427 H 411.423 -3.28926 0.982994 0
M  V30 4428 N 413.868 0.0150385 -1.57593 0
M  V30 4429 C 415.117 0.702115 -1.89085 0
M  V30 4430 C 415.43 1.75764 -0.858277 0
M  V30 4431 O 416.636 2.49829 -1.0629 0
M  V30 4432 C 415.092 1.29992 -3.35604 0
M  V30 4433 C 414.7 0.280007 -4.47124 0
M  V30 4434 C 416.444 1.96606 -3.76227 0
M  V30 4435 C 414.351 0.886949 -5.84711 0
M  V30 4436 H 413.281 0.265997 -0.705522 0
M  V30 4437 H 415.932 -0.0430408 -1.8345 0
M  V30 4438 H 414.314 2.09525 -3.36029 0
M  V30 4439 H 415.488 -0.489631 -4.58191 0
M  V30 4440 H 413.803 -0.284835 -4.15425 0
M  V30 4441 H 416.4 2.42893 -4.76347 0
M  V30 4442 H 416.743 2.79024 -3.08952 0
M  V30 4443 H 417.276 1.23828 -3.78036 0
M  V30 4444 H 414.015 0.101876 -6.55421 0
M  V30 4445 H 413.535 1.6261 -5.77337 0
M  V30 4446 H 415.214 1.39011 -6.3189 0
M  V30 4447 N 415.346 1.54954 0.287554 0
M  V30 4448 C 416.294 1.87606 1.37502 0
M  V30 4449 C 417.288 0.751001 1.51843 0
M  V30 4450 O 418.494 0.935169 1.53801 0
M  V30 4451 H 414.869 0.595231 0.459569 0
M  V30 4452 H 416.84 2.78477 1.07206 0
M  V30 4453 C 415.589 2.15183 2.73115 0
M  V30 4454 H 414.912 3.01234 2.62866 0
M  V30 4455 H 416.352 2.4196 3.48183 0
M  V30 4456 C 414.811 0.954686 3.2309 0
M  V30 4457 O 415.341 0.181949 4.01288 0
M  V30 4458 N 413.547 0.756368 2.80584 0
M  V30 4459 H 413.094 1.38643 2.17108 0
M  V30 4460 H 413.052 -0.0430391 3.14371 0
M  V30 4461 N 416.824 -0.551391 1.4764 0
M  V30 4462 C 418.049 -1.33837 1.58437 0
M  V30 4463 C 418.474 -1.866 0.237063 0
M  V30 4464 O 417.832 -1.6328 -0.787994 0
M  V30 4465 C 417.88 -2.48014 2.61766 0
M  V30 4466 O 416.984 -3.50419 2.1744 0
M  V30 4467 H 416.325 -0.397299 0.532024 0
M  V30 4468 H 418.855 -0.665759 1.93465 0
M  V30 4469 H 418.865 -2.94503 2.82369 0
M  V30 4470 H 417.54 -2.08969 3.5959 0
M  V30 4471 H 416.117 -3.10196 2.06961 0
M  V30 4472 N 418.302 -1.35869 -0.798587 0
M  V30 4473 C 419.249 -1.29446 -1.91082 0
M  V30 4474 C 420.219 -0.16487 -1.6528 0
M  V30 4475 O 421.404 -0.349888 -1.87564 0
M  V30 4476 C 418.544 -1.0804 -3.27752 0
M  V30 4477 C 417.657 -2.29993 -3.65687 0
M  V30 4478 C 416.792 -2.01673 -4.91428 0
M  V30 4479 C 415.831 -3.19636 -5.22015 0
M  V30 4480 N 414.968 -2.91039 -6.38937 0
M  V30 4481 H 419.808 -2.24553 -1.95907 0
M  V30 4482 H 417.345 -1.11615 -0.958148 0
M  V30 4483 H 419.303 -0.936586 -4.06551 0
M  V30 4484 H 417.933 -0.16592 -3.22373 0
M  V30 4485 H 416.985 -2.55211 -2.82085 0
M  V30 4486 H 418.297 -3.18052 -3.84245 0
M  V30 4487 H 417.451 -1.84168 -5.78072 0
M  V30 4488 H 416.19 -1.10911 -4.74921 0
M  V30 4489 H 415.195 -3.37709 -4.33858 0
M  V30 4490 H 416.42 -4.11211 -5.40447 0
M  V30 4491 H 414.366 -2.0288 -6.2384 0
M  V30 4492 H 414.283 -3.72635 -6.57784 0
M  V30 4493 H 415.551 -2.77093 -7.28587 0
M  V30 4494 N 419.78 1.02168 -1.19998 0
M  V30 4495 C 421.029 1.75091 -1.0013 0
M  V30 4496 C 421.342 1.89923 0.467835 0
M  V30 4497 O 422.548 2.59888 0.785515 0
M  V30 4498 C 421.004 3.14892 -1.74273 0
M  V30 4499 C 420.612 3.0809 -3.25245 0
M  V30 4500 C 422.356 3.9206 -1.62755 0
M  V30 4501 C 420.263 4.42867 -3.91948 0
M  V30 4502 H 419.193 0.656394 -0.37103 0
M  V30 4503 H 421.844 1.14284 -1.43567 0
M  V30 4504 H 420.226 3.7621 -1.2362 0
M  V30 4505 H 421.4 2.5611 -3.83072 0
M  V30 4506 H 419.715 2.44416 -3.3712 0
M  V30 4507 H 422.312 4.91764 -2.09934 0
M  V30 4508 H 422.655 4.12199 -0.582894 0
M  V30 4509 H 423.188 3.37359 -2.10793 0
M  V30 4510 H 419.927 4.27931 -4.96543 0
M  V30 4511 H 419.447 4.94874 -3.3891 0
M  V30 4512 H 421.126 5.11728 -3.95909 0
M  V30 4513 N 421.258 1.00505 1.21394 0
M  V30 4514 C 422.19 0.52372 2.23136 0
M  V30 4515 C 423.203 -0.387714 1.58116 0
M  V30 4516 O 424.392 -0.187905 1.77508 0
M  V30 4517 C 421.492 -0.258885 3.3791 0
M  V30 4518 C 420.665 0.651634 4.32519 0
M  V30 4519 C 419.724 -0.0813705 5.26137 0
M  V30 4520 O 418.75 0.537295 5.66658 0
M  V30 4521 N 419.952 -1.35992 5.64346 0
M  V30 4522 H 422.717 1.39865 2.65062 0
M  V30 4523 H 420.278 0.881196 1.35818 0
M  V30 4524 H 422.27 -0.758208 3.97534 0
M  V30 4525 H 420.84 -1.035 2.94968 0
M  V30 4526 H 420.06 1.33145 3.71034 0
M  V30 4527 H 421.348 1.27129 4.92662 0
M  V30 4528 H 420.746 -1.88368 5.33417 0
M  V30 4529 H 419.303 -1.8042 6.26332 0
M  V30 4530 N 422.737 -1.36956 0.779787 0
M  V30 4531 C 423.965 -2.03755 0.359398 0
M  V30 4532 C 424.38 -1.58807 -1.02106 0
M  V30 4533 O 423.737 -0.773024 -1.6532 0
M  V30 4534 C 423.788 -3.59251 0.402568 0
M  V30 4535 O 423.509 -4.02557 1.72858 0
M  V30 4536 C 425.01 -4.43291 -0.0284068 0
M  V30 4537 H 422.23 -0.654148 0.149437 0
M  V30 4538 H 424.774 -1.75128 1.05595 0
M  V30 4539 H 422.929 -3.86621 -0.245478 0
M  V30 4540 H 423.343 -4.97111 1.67275 0
M  V30 4541 H 424.817 -5.51975 0.0529466 0
M  V30 4542 H 425.294 -4.25719 -1.07982 0
M  V30 4543 H 425.9 -4.21163 0.591758 0
M  V30 4544 N 424.215 -0.530993 -1.48385 0
M  V30 4545 C 425.165 0.251092 -2.26613 0
M  V30 4546 C 426.149 0.908977 -1.32765 0
M  V30 4547 O 427.341 0.811616 -1.57295 0
M  V30 4548 C 424.47 1.29677 -3.17866 0
M  V30 4549 C 423.556 0.643627 -4.19188 0
M  V30 4550 N 423.947 -0.271223 -5.05072 0
M  V30 4551 C 422.245 0.900711 -4.3681 0
M  V30 4552 C 422.946 -0.648109 -5.78078 0
M  V30 4553 N 421.922 -0.00895987 -5.43599 0
M  V30 4554 H 425.724 -0.452702 -2.90393 0
M  V30 4555 H 423.238 -0.349091 -1.58604 0
M  V30 4556 H 425.235 1.87079 -3.72568 0
M  V30 4557 H 423.895 2.00193 -2.55642 0
M  V30 4558 H 424.906 -0.643883 -5.13882 0
M  V30 4559 H 421.583 1.59636 -3.85775 0
M  V30 4560 H 422.973 -1.39833 -6.57188 0
M  V30 4561 N 425.693 1.55336 -0.266172 0
M  V30 4562 C 426.918 2.04258 0.359661 0
M  V30 4563 C 427.343 1.14359 1.49344 0
M  V30 4564 O 426.701 0.140369 1.80756 0
M  V30 4565 C 426.749 3.50997 0.826635 0
M  V30 4566 O 425.853 3.64204 1.93466 0
M  V30 4567 H 425.194 0.659668 0.075727 0
M  V30 4568 H 427.724 2.00694 -0.39786 0
M  V30 4569 H 427.734 3.9219 1.12477 0
M  V30 4570 H 426.409 4.159 -0.00293032 0
M  V30 4571 H 424.986 3.34913 1.63974 0
M  V30 4572 N 427.171 -0.0066808 1.57599 0
M  V30 4573 C 428.399 -0.704087 1.94551 0
M  V30 4574 C 428.814 -1.67677 0.867746 0
M  V30 4575 O 428.171 -1.8185 -0.153925 0
M  V30 4576 C 428.222 -1.44177 3.31505 0
M  V30 4577 O 427.943 -0.508097 4.35144 0
M  V30 4578 C 429.444 -2.23429 3.82876 0
M  V30 4579 H 426.664 -0.196523 0.641576 0
M  V30 4580 H 429.208 0.042453 2.04456 0
M  V30 4581 H 427.363 -2.13999 3.22929 0
M  V30 4582 H 427.777 -1.02782 5.14331 0
M  V30 4583 H 429.251 -2.70552 4.8115 0
M  V30 4584 H 429.728 -3.05818 3.15233 0
M  V30 4585 H 430.334 -1.58636 3.94607 0
M  V30 4586 N 428.649 -1.55105 -0.279332 0
M  V30 4587 C 429.877 -1.7943 -1.03017 0
M  V30 4588 C 430.292 -0.564456 -1.80165 0
M  V30 4589 O 429.649 0.466326 -1.76442 0
M  V30 4590 C 429.7 -3.0155 -1.99374 0
M  V30 4591 O 429.421 -4.19784 -1.25352 0
M  V30 4592 C 430.922 -3.3843 -2.86321 0
M  V30 4593 H 428.142 -0.597882 -0.304594 0
M  V30 4594 H 430.686 -2.02105 -0.312035 0
M  V30 4595 H 428.841 -2.81019 -2.66659 0
M  V30 4596 H 429.255 -4.88781 -1.90246 0
M  V30 4597 H 430.729 -4.27066 -3.49741 0
M  V30 4598 H 431.206 -2.57549 -3.5576 0
M  V30 4599 H 431.812 -3.61197 -2.24536 0
M  V30 4600 N 430.127 0.543554 -1.4793 0
M  V30 4601 C 431.357 1.32324 -1.58663 0
M  V30 4602 C 431.765 1.8766 -0.240896 0
M  V30 4603 O 431.108 1.66411 0.778011 0
M  V30 4604 C 431.17 2.52094 -2.56299 0
M  V30 4605 C 430.834 2.17944 -4.01683 0
M  V30 4606 C 431.831 1.74422 -4.89768 0
M  V30 4607 C 429.516 2.28884 -4.47121 0
M  V30 4608 C 431.51 1.42287 -6.21316 0
M  V30 4609 C 429.197 1.96361 -5.78693 0
M  V30 4610 C 430.195 1.53132 -6.65612 0
M  V30 4611 O 429.883 1.21029 -7.94737 0
M  V30 4612 H 429.615 0.409174 -0.538101 0
M  V30 4613 H 432.169 0.663887 -1.94375 0
M  V30 4614 H 430.399 3.20965 -2.15681 0
M  V30 4615 H 432.088 3.14165 -2.57012 0
M  V30 4616 H 432.854 1.65452 -4.55907 0
M  V30 4617 H 428.733 2.61488 -3.79664 0
M  V30 4618 H 432.277 1.08472 -6.89115 0
M  V30 4619 H 428.174 2.04967 -6.12094 0
M  V30 4620 H 428.942 1.34543 -8.07366 0
M  V30 4621 N 431.605 1.3629 0.791371 0
M  V30 4622 C 433.021 1.16661 1.08914 0
M  V30 4623 C 433.221 -0.0106266 2.01497 0
M  V30 4624 O 432.277 -0.676596 2.43266 0
M  V30 4625 C 433.59 2.47656 1.70549 0
M  V30 4626 C 435.138 2.54002 1.82899 0
M  V30 4627 C 435.613 3.85078 2.47949 0
M  V30 4628 N 437.104 3.86413 2.5542 0
M  V30 4629 C 437.839 4.84572 3.06557 0
M  V30 4630 N 437.335 5.93124 3.58016 0
M  V30 4631 N 439.128 4.71994 3.05251 0
M  V30 4632 H 431.279 2.11668 0.176238 0
M  V30 4633 H 433.542 0.937486 0.140796 0
M  V30 4634 H 433.248 3.34059 1.09989 0
M  V30 4635 H 433.122 2.63319 2.70079 0
M  V30 4636 H 435.509 1.68018 2.42598 0
M  V30 4637 H 435.59 2.42239 0.821808 0
M  V30 4638 H 435.234 4.71467 1.88895 0
M  V30 4639 H 435.164 3.94135 3.49235 0
M  V30 4640 H 437.655 3.07988 2.18979 0
M  V30 4641 H 437.968 6.63999 3.95381 0
M  V30 4642 H 436.313 5.96796 3.56173 0
M  V30 4643 H 439.504 3.86321 2.64336 0
M  V30 4644 H 439.677 5.48653 3.44796 0
M  V30 4645 N 433.083 -1.0153 1.20538 0
M  V30 4646 C 434.033 -2.08482 0.922991 0
M  V30 4647 C 435.017 -1.60469 -0.117702 0
M  V30 4648 O 436.209 -1.76772 0.0898465 0
M  V30 4649 C 433.338 -3.39952 0.478312 0
M  V30 4650 C 432.424 -3.94662 1.5525 0
M  V30 4651 N 432.815 -4.22866 2.77521 0
M  V30 4652 C 431.113 -4.22825 1.41897 0
M  V30 4653 C 431.814 -4.67002 3.4682 0
M  V30 4654 N 430.79 -4.69356 2.74237 0
M  V30 4655 H 434.592 -2.28199 1.85209 0
M  V30 4656 H 432.106 -1.19512 1.09957 0
M  V30 4657 H 434.103 -4.16105 0.257408 0
M  V30 4658 H 432.763 -3.21648 -0.444148 0
M  V30 4659 H 433.774 -4.11732 3.1416 0
M  V30 4660 H 430.451 -4.13714 0.561015 0
M  V30 4661 H 431.841 -4.97632 4.51455 0
M  V30 4662 N 434.561 -1.01147 -1.20859 0
M  V30 4663 C 435.809 -0.696486 -1.89719 0
M  V30 4664 C 436.13 0.775788 -1.78904 0
M  V30 4665 O 435.4 1.55759 -1.18811 0
M  V30 4666 H 433.98 -0.254628 -0.702263 0
M  V30 4667 H 436.642 -1.28197 -1.46804 0
M  V30 4668 H 435.738 -0.975357 -2.96468 0
M  V30 4669 N 436.039 1.36541 -0.78704 0
M  V30 4670 C 436.949 2.3387 -0.184896 0
M  V30 4671 C 437.965 1.60927 0.661697 0
M  V30 4672 O 439.141 1.92927 0.57804 0
M  V30 4673 C 436.206 3.40122 0.672145 0
M  V30 4674 C 435.267 4.28867 -0.19267 0
M  V30 4675 C 434.5 5.30045 0.623561 0
M  V30 4676 O 434.723 5.39232 1.8597 0
M  V30 4677 O 433.657 6.01895 0.0247068 0
M  V30 4678 H 437.483 2.87126 -0.989562 0
M  V30 4679 H 435.068 1.38969 -0.548455 0
M  V30 4680 H 436.95 4.05093 1.16094 0
M  V30 4681 H 435.625 2.89169 1.45474 0
M  V30 4682 H 434.532 3.66945 -0.728166 0
M  V30 4683 H 435.865 4.83165 -0.938722 0
M  V30 4684 N 437.518 0.538854 1.48102 0
M  V30 4685 C 438.767 0.0059532 2.01699 0
M  V30 4686 C 439.08 -1.34476 1.42041 0
M  V30 4687 O 440.286 -1.96653 1.87189 0
M  V30 4688 C 438.742 -0.0397627 3.59878 0
M  V30 4689 C 438.35 1.30659 4.28523 0
M  V30 4690 C 440.094 -0.521024 4.2129 0
M  V30 4691 C 438.001 1.22098 5.78659 0
M  V30 4692 H 436.931 -0.00154456 0.753998 0
M  V30 4693 H 439.582 0.683963 1.70277 0
M  V30 4694 H 437.964 -0.783037 3.88181 0
M  V30 4695 H 439.138 2.06613 4.11883 0
M  V30 4696 H 437.453 1.7243 3.79021 0
M  V30 4697 H 440.05 -0.603184 5.31287 0
M  V30 4698 H 440.393 -1.52885 3.8721 0
M  V30 4699 H 440.926 0.166834 3.9745 0
M  V30 4700 H 437.665 2.20424 6.17328 0
M  V30 4701 H 437.185 0.50295 5.97688 0
M  V30 4702 H 438.864 0.915345 6.40492 0
M  V30 4703 N 438.996 -1.55193 0.274407 0
M  V30 4704 C 440.242 -1.99877 -0.343086 0
M  V30 4705 C 440.575 -1.16256 -1.55558 0
M  V30 4706 O 439.85 -0.232462 -1.93106 0
M  V30 4707 C 440.133 -3.52706 -0.725965 0
M  V30 4708 C 439.986 -4.47081 0.493818 0
M  V30 4709 C 441.305 -4.11422 -1.56268 0
M  V30 4710 H 438.424 -0.726625 -0.123229 0
M  V30 4711 H 441.066 -1.86136 0.38121 0
M  V30 4712 H 439.216 -3.64546 -1.34307 0
M  V30 4713 H 440.888 -4.47186 1.13237 0
M  V30 4714 H 439.131 -4.1877 1.13201 0
M  V30 4715 H 439.802 -5.51699 0.18217 0
M  V30 4716 H 442.278 -4.02855 -1.04151 0
M  V30 4717 H 441.154 -5.18568 -1.79939 0
M  V30 4718 H 441.415 -3.61607 -2.54348 0
M  V30 4719 N 440.474 -0.00167713 -1.576 0
M  V30 4720 C 441.424 0.997744 -2.0501 0
M  V30 4721 C 442.408 1.30214 -0.94515 0
M  V30 4722 O 443.6 1.29284 -1.20891 0
M  V30 4723 C 440.729 2.2892 -2.55833 0
M  V30 4724 C 439.815 2.01437 -3.73208 0
M  V30 4725 N 440.206 1.44119 -4.84833 0
M  V30 4726 C 438.504 2.31571 -3.8117 0
M  V30 4727 C 439.205 1.33145 -5.66257 0
M  V30 4728 N 438.181 1.81763 -5.12312 0
M  V30 4729 H 441.983 0.549098 -2.88725 0
M  V30 4730 H 439.497 0.20398 -1.61114 0
M  V30 4731 H 441.494 3.01361 -2.88075 0
M  V30 4732 H 440.154 2.74436 -1.73537 0
M  V30 4733 H 441.165 1.11978 -5.0565 0
M  V30 4734 H 437.842 2.7995 -3.09732 0
M  V30 4735 H 439.232 0.890567 -6.65972 0
M  V30 4736 N 441.952 1.55251 0.271103 0
M  V30 4737 C 443.201 1.75151 1.00025 0
M  V30 4738 C 443.514 0.561041 1.87381 0
M  V30 4739 O 444.72 0.642506 2.63788 0
M  V30 4740 C 443.176 3.09999 1.82835 0
M  V30 4741 C 442.784 4.3662 1.00336 0
M  V30 4742 C 444.528 3.39249 2.55168 0
M  V30 4743 C 442.435 5.62506 1.82595 0
M  V30 4744 H 441.365 0.652877 0.377183 0
M  V30 4745 H 444.016 1.81708 0.255843 0
M  V30 4746 H 442.398 2.97485 2.61378 0
M  V30 4747 H 443.572 4.60055 0.261959 0
M  V30 4748 H 441.887 4.14527 0.394486 0
M  V30 4749 H 444.484 4.3051 3.1712 0
M  V30 4750 H 444.827 2.59467 3.2555 0
M  V30 4751 H 445.36 3.52869 1.83653 0
M  V30 4752 H 442.099 6.45041 1.16631 0
M  V30 4753 H 441.619 5.43211 2.54327 0
M  V30 4754 H 443.298 6.00875 2.39913 0
M  V30 4755 N 443.43 -0.535701 1.48216 0
M  V30 4756 C 444.34 -1.66785 1.64985 0
M  V30 4757 C 445.356 -1.65654 0.532414 0
M  V30 4758 O 446.532 -1.8471 0.80275 0
M  V30 4759 C 443.597 -3.0326 1.68031 0
M  V30 4760 C 442.658 -3.1529 2.9136 0
M  V30 4761 C 441.891 -4.45255 2.94252 0
M  V30 4762 O 442.114 -5.32011 2.05719 0
M  V30 4763 O 441.048 -4.6153 3.86359 0
M  V30 4764 H 444.874 -1.55576 2.60825 0
M  V30 4765 H 442.459 -0.70815 1.31551 0
M  V30 4766 H 444.341 -3.84436 1.72589 0
M  V30 4767 H 443.016 -3.14805 0.753628 0
M  V30 4768 H 441.923 -2.3343 2.92337 0
M  V30 4769 H 443.256 -3.08658 3.83394 0
M  V30 4770 N 444.908 -1.36708 -0.784132 0
M  V30 4771 C 446.148 -1.32618 -1.55537 0
M  V30 4772 C 446.512 0.0920681 -1.91779 0
M  V30 4773 O 447.713 0.257573 -2.67563 0
M  V30 4774 C 445.984 -2.22788 -2.79464 0
M  V30 4775 S 447.543 -2.36432 -3.69656 0
M  V30 4776 H 444.361 -0.470973 -0.53264 0
M  V30 4777 H 446.963 -1.72333 -0.92312 0
M  V30 4778 H 445.667 -3.24774 -2.50899 0
M  V30 4779 H 445.198 -1.84112 -3.47658 0
M  V30 4780 H 447.213 -1.56573 -4.7085 0
M  V30 4781 N 446.386 1.0089 -1.21074 0
M  V30 4782 C 447.296 2.13039 -0.982425 0
M  V30 4783 C 448.312 1.73881 0.0642161 0
M  V30 4784 O 449.488 2.01012 -0.12496 0
M  V30 4785 C 446.553 3.42377 -0.545803 0
M  V30 4786 C 445.614 3.95731 -1.6642 0
M  V30 4787 C 444.847 5.18896 -1.24832 0
M  V30 4788 O 445.07 5.70273 -0.120265 0
M  V30 4789 O 444.004 5.65597 -2.05873 0
M  V30 4790 H 447.83 2.35175 -1.92163 0
M  V30 4791 H 445.415 1.1142 -0.995285 0
M  V30 4792 H 447.297 4.20244 -0.311912 0
M  V30 4793 H 445.972 3.21639 0.364727 0
M  V30 4794 H 444.879 3.19108 -1.95246 0
M  V30 4795 H 446.212 4.20872 -2.55201 0
M  V30 4796 N 447.864 1.01787 1.20321 0
M  V30 4797 C 448.794 0.609625 2.25401 0
M  V30 4798 C 449.775 -0.375951 1.65893 0
M  V30 4799 O 450.96 -0.261101 1.92437 0
M  V30 4800 C 448.09 -0.0515995 3.47262 0
M  V30 4801 C 447.044 0.855095 4.19371 0
M  V30 4802 C 446.37 0.0595757 5.34667 0
M  V30 4803 C 447.67 2.16374 4.75373 0
M  V30 4804 H 449.364 1.48803 2.59804 0
M  V30 4805 H 446.91 0.716934 1.24884 0
M  V30 4806 H 448.863 -0.348764 4.19954 0
M  V30 4807 H 447.587 -0.964726 3.12027 0
M  V30 4808 H 446.246 1.13628 3.48546 0
M  V30 4809 H 445.894 -0.85524 4.95676 0
M  V30 4810 H 445.594 0.663406 5.83843 0
M  V30 4811 H 447.118 -0.231105 6.10162 0
M  V30 4812 H 448.532 1.92885 5.39878 0
M  V30 4813 H 446.929 2.71853 5.34991 0
M  V30 4814 H 447.999 2.82589 3.94045 0
M  V30 4815 N 449.342 -1.36122 0.79427 0
M  V30 4816 C 450.29 -2.31871 0.184023 0
M  V30 4817 C 451.284 -1.56041 -0.659365 0
M  V30 4818 O 452.49 -1.71266 -0.553906 0
M  V30 4819 H 448.865 -0.750896 0.0407373 0
M  V30 4820 H 450.836 -2.80898 1.00693 0
M  V30 4821 C 449.585 -3.41324 -0.662813 0
M  V30 4822 H 448.908 -3.99793 -0.0231944 0
M  V30 4823 H 450.348 -4.10629 -1.05639 0
M  V30 4824 C 448.807 -2.83308 -1.82313 0
M  V30 4825 O 449.337 -2.75863 -2.91997 0
M  V30 4826 N 447.543 -2.40529 -1.63077 0
M  V30 4827 H 447.09 -2.46785 -0.738591 0
M  V30 4828 H 447.048 -2.02059 -2.40872 0
M  V30 4829 N 450.82 -0.546701 -1.47814 0
M  V30 4830 C 452.067 -0.0187407 -2.02491 0
M  V30 4831 C 452.395 1.32685 -1.42215 0
M  V30 4832 O 451.65 1.87413 -0.563454 0
M  V30 4833 C 451.949 0.134869 -3.57145 0
M  V30 4834 C 451.615 -1.13849 -4.3629 0
M  V30 4835 C 450.277 -1.48743 -4.57634 0
M  V30 4836 C 452.629 -1.98277 -4.82012 0
M  V30 4837 C 449.957 -2.67932 -5.21948 0
M  V30 4838 C 452.309 -3.16659 -5.4764 0
M  V30 4839 C 450.973 -3.51879 -5.67219 0
M  V30 4840 H 450.243 -0.0068577 -0.740968 0
M  V30 4841 H 452.89 -0.716097 -1.77607 0
M  V30 4842 H 451.195 0.915118 -3.80963 0
M  V30 4843 H 452.892 0.558556 -3.97091 0
M  V30 4844 H 449.482 -0.856767 -4.19949 0
M  V30 4845 H 453.666 -1.72628 -4.6531 0
M  V30 4846 H 448.922 -2.95401 -5.35302 0
M  V30 4847 H 453.096 -3.82374 -5.82033 0
M  V30 4848 H 450.723 -4.44331 -6.16825 0
M  V30 4849 N 452.299 1.55045 -0.282633 0
M  V30 4850 C 453.209 2.26491 0.61147 0
M  V30 4851 C 454.225 1.29348 1.16384 0
M  V30 4852 O 455.401 1.62298 1.19253 0
M  V30 4853 C 452.466 2.97779 1.77563 0
M  V30 4854 C 451.527 4.10418 1.25919 0
M  V30 4855 C 450.76 4.78297 2.36786 0
M  V30 4856 O 450.983 4.45426 3.56303 0
M  V30 4857 O 449.917 5.66089 2.04517 0
M  V30 4858 H 453.743 3.03683 0.0324615 0
M  V30 4859 H 451.328 1.49317 -0.0497576 0
M  V30 4860 H 453.21 3.42554 2.45427 0
M  V30 4861 H 451.885 2.23498 2.34159 0
M  V30 4862 H 450.792 3.70082 0.546797 0
M  V30 4863 H 452.125 4.86622 0.738887 0
M  V30 4864 N 453.777 0.010035 1.57597 0
M  V30 4865 C 455.026 -0.671945 1.90178 0
M  V30 4866 C 455.339 -1.74376 0.886131 0
M  V30 4867 O 456.545 -2.48107 1.10252 0
M  V30 4868 C 455.001 -1.24636 3.3763 0
M  V30 4869 C 454.609 -0.208838 4.47513 0
M  V30 4870 C 456.353 -1.90595 3.79307 0
M  V30 4871 C 454.26 -0.793814 5.86048 0
M  V30 4872 H 453.19 -0.25474 0.709665 0
M  V30 4873 H 455.841 0.0722206 1.83358 0
M  V30 4874 H 454.223 -2.04152 3.3932 0
M  V30 4875 H 455.397 0.562463 4.57354 0
M  V30 4876 H 453.712 0.350889 4.14919 0
M  V30 4877 H 456.309 -2.35284 4.80151 0
M  V30 4878 H 456.652 -2.74074 3.13352 0
M  V30 4879 H 457.185 -1.17798 3.79958 0
M  V30 4880 H 453.924 0.00240855 6.555 0
M  V30 4881 H 453.444 -1.53404 5.79851 0
M  V30 4882 H 455.123 -1.2894 6.34022 0
M  V30 4883 N 455.255 -1.55392 -0.262866 0
M  V30 4884 C 456.205 -1.85355 -1.32768 0
M  V30 4885 C 457.189 -0.713188 -1.44231 0
M  V30 4886 O 458.381 -0.974765 -1.47741 0
M  V30 4887 C 455.51 -2.13781 -2.68612 0
M  V30 4888 C 454.596 -3.34104 -2.61219 0
M  V30 4889 N 454.987 -4.53766 -2.2345 0
M  V30 4890 C 453.285 -3.36895 -2.92263 0
M  V30 4891 C 453.986 -5.35877 -2.26298 0
M  V30 4892 N 452.962 -4.74536 -2.65172 0
M  V30 4893 H 456.764 -2.75413 -1.02591 0
M  V30 4894 H 454.278 -1.55405 -0.471503 0
M  V30 4895 H 456.275 -2.33407 -3.45437 0
M  V30 4896 H 454.935 -1.25013 -2.99669 0
M  V30 4897 H 455.946 -4.79682 -1.95258 0
M  V30 4898 H 452.623 -2.58351 -3.27965 0
M  V30 4899 H 454.013 -6.41577 -1.99572 0
M  V30 4900 N 456.733 0.527833 -1.48498 0
M  V30 4901 C 457.981 1.28101 -1.56316 0
M  V30 4902 C 458.302 1.9352 -0.239781 0
M  V30 4903 O 457.572 1.81433 0.738849 0
M  V30 4904 H 456.152 0.475793 -0.575873 0
M  V30 4905 H 458.814 0.614052 -1.84974 0
M  V30 4906 H 457.91 2.05916 -2.34532 0
M  V30 4907 N 458.211 1.37122 0.776871 0
M  V30 4908 C 459.436 1.354 1.57104 0
M  V30 4909 C 459.861 -0.0595562 1.88006 0
M  V30 4910 O 459.219 -1.03514 1.48844 0
M  V30 4911 C 459.267 2.19472 2.8612 0
M  V30 4912 O 458.371 1.59582 3.80273 0
M  V30 4913 H 457.712 0.462869 0.476076 0
M  V30 4914 H 460.242 1.80577 0.961932 0
M  V30 4915 H 460.252 2.32502 3.35271 0
M  V30 4916 H 458.927 3.22222 2.62956 0
M  V30 4917 H 457.504 1.55564 3.38902 0
M  V30 4918 N 459.689 -1.00246 1.21608 0
M  V30 4919 C 460.652 -2.07233 0.979133 0
M  V30 4920 C 461.652 -1.6072 -0.0508219 0
M  V30 4921 O 462.842 -1.73196 0.186712 0
M  V30 4922 C 459.974 -3.37546 0.477016 0
M  V30 4923 H 461.167 -2.29687 1.92831 0
M  V30 4924 H 458.72 -1.17261 1.03342 0
M  V30 4925 H 459.455 -3.20773 -0.476966 0
M  V30 4926 H 459.24 -3.72638 1.21997 0
M  V30 4927 H 460.73 -4.16285 0.331181 0
M  V30 4928 N 461.167 -1.02423 -1.1978 0
M  V30 4929 C 462.077 -0.610919 -2.26506 0
M  V30 4930 C 463.093 0.355152 -1.70337 0
M  V30 4931 O 464.269 0.214195 -2.00258 0
M  V30 4932 C 461.334 0.0365921 -3.46681 0
M  V30 4933 C 460.395 -0.976389 -4.18049 0
M  V30 4934 C 459.628 -0.359683 -5.32487 0
M  V30 4935 O 459.851 0.838601 -5.64202 0
M  V30 4936 O 458.785 -1.08022 -5.92127 0
M  V30 4937 H 462.611 -1.49965 -2.64091 0
M  V30 4938 H 460.196 -0.794156 -1.26545 0
M  V30 4939 H 462.078 0.39786 -4.19518 0
M  V30 4940 H 460.753 0.899398 -3.10954 0
M  V30 4941 H 459.66 -1.38916 -3.47352 0
M  V30 4942 H 460.993 -1.80941 -4.57735 0
M  V30 4943 N 462.645 1.35699 -0.801477 0
M  V30 4944 C 463.894 1.98165 -0.375979 0
M  V30 4945 C 464.207 1.64306 1.06127 0
M  V30 4946 O 465.413 2.20097 1.58964 0
M  V30 4947 C 463.869 3.54497 -0.621305 0
M  V30 4948 C 463.477 3.9727 -2.07076 0
M  V30 4949 C 465.221 4.23697 -0.26091 0
M  V30 4950 C 463.128 5.46427 -2.26211 0
M  V30 4951 H 462.058 0.741478 -0.136844 0
M  V30 4952 H 464.709 1.54834 -0.984814 0
M  V30 4953 H 463.091 3.95958 0.0574112 0
M  V30 4954 H 464.265 3.66974 -2.78687 0
M  V30 4955 H 462.58 3.40943 -2.39054 0
M  V30 4956 H 465.177 5.33334 -0.381994 0
M  V30 4957 H 465.52 4.0869 0.792344 0
M  V30 4958 H 466.053 3.87639 -0.893339 0
M  V30 4959 H 462.792 5.66396 -3.29963 0
M  V30 4960 H 462.312 5.78309 -1.59119 0
M  V30 4961 H 463.991 6.12819 -2.07513 0
M  V30 4962 N 464.123 0.554532 1.47522 0
M  V30 4963 C 465.539 0.214107 1.58157 0
M  V30 4964 C 465.739 -1.28331 1.55349 0
M  V30 4965 O 464.795 -2.06329 1.45549 0
M  V30 4966 C 466.108 0.838391 2.88776 0
M  V30 4967 C 467.656 0.809374 3.02354 0
M  V30 4968 C 468.131 1.41268 4.35669 0
M  V30 4969 N 469.622 1.37574 4.42298 0
M  V30 4970 C 470.357 1.8122 5.4401 0
M  V30 4971 N 469.853 2.3271 6.52547 0
M  V30 4972 N 471.646 1.72307 5.35039 0
M  V30 4973 H 463.797 1.52744 1.4759 0
M  V30 4974 H 466.06 0.636812 0.702264 0
M  V30 4975 H 465.766 1.89065 2.96559 0
M  V30 4976 H 465.64 0.329847 3.75755 0
M  V30 4977 H 468.027 -0.234187 2.94169 0
M  V30 4978 H 468.108 1.35565 2.16924 0
M  V30 4979 H 467.752 2.45529 4.4461 0
M  V30 4980 H 467.682 0.841871 5.19827 0
M  V30 4981 H 470.173 0.999081 3.64454 0
M  V30 4982 H 470.486 2.63944 7.26329 0
M  V30 4983 H 468.831 2.36719 6.53444 0
M  V30 4984 H 472.022 1.3186 4.49144 0
M  V30 4985 H 472.195 2.06641 6.14169 0
M  V30 4986 N 465.601 -1.54893 0.290851 0
M  V30 4987 C 466.841 -2.01842 -0.322388 0
M  V30 4988 C 467.205 -1.17477 -1.51865 0
M  V30 4989 O 468.406 -1.54077 -2.20258 0
M  V30 4990 C 466.677 -3.50874 -0.679844 0
M  V30 4991 S 468.236 -4.19796 -1.27739 0
M  V30 4992 H 465.054 -0.704005 -0.0994866 0
M  V30 4993 H 467.656 -1.91015 0.416358 0
M  V30 4994 H 466.36 -4.09915 0.199435 0
M  V30 4995 H 465.891 -3.65717 -1.44964 0
M  V30 4996 H 467.906 -4.24729 -2.56554 0
M  V30 4997 N 467.08 -0.0183926 -1.57589 0
M  V30 4998 C 467.99 0.982943 -2.13015 0
M  V30 4999 C 469.006 1.36443 -1.07979 0
M  V30 5000 O 470.182 1.44802 -1.3998 0
M  V30 5001 C 467.247 2.25024 -2.63752 0
M  V30 5002 C 466.308 1.93018 -3.83461 0
M  V30 5003 C 465.541 3.13706 -4.31769 0
M  V30 5004 O 465.764 4.2601 -3.79305 0
M  V30 5005 O 464.698 2.96629 -5.23732 0
M  V30 5006 H 468.524 0.541709 -2.9883 0
M  V30 5007 H 466.109 0.201565 -1.48034 0
M  V30 5008 H 467.991 2.99441 -2.96502 0
M  V30 5009 H 466.666 2.68349 -1.81026 0
M  V30 5010 H 465.573 1.16019 -3.55655 0
M  V30 5011 H 466.906 1.54516 -4.67317 0
M  V30 5012 N 468.558 1.5553 0.254621 0
M  V30 5013 C 469.835 1.6774 1.00611 0
M  V30 5014 C 470.215 0.555993 2.03647 0
M  V30 5015 O 469.563 -0.441583 2.24193 0
M  V30 5016 C 469.773 3.07725 1.6464 0
M  V30 5017 C 471.121 3.66074 2.15116 0
M  V30 5018 O 472.145 3.10476 1.74595 0
M  V30 5019 O 471.004 4.63526 2.89493 0
M  V30 5020 H 468.098 0.681958 0.467828 0
M  V30 5021 H 470.644 1.67863 0.24902 0
M  V30 5022 H 469.416 3.80792 0.900734 0
M  V30 5023 H 469.039 3.1158 2.46989 0
M  V30 5024 N 470.036 -0.519951 1.48776 0
M  V30 5025 C 471.284 -1.2727 1.56993 0
M  V30 5026 C 471.605 -1.9339 0.25004 0
M  V30 5027 O 470.875 -1.81822 -0.729216 0
M  V30 5028 H 469.455 -0.472732 0.578389 0
M  V30 5029 H 472.117 -0.604234 1.85297 0
M  V30 5030 H 471.213 -2.04669 2.3562 0
M  V30 5031 N 471.514 -1.37532 -0.769588 0
M  V30 5032 C 472.461 -1.3347 -1.88293 0
M  V30 5033 C 473.431 -0.199891 -1.64893 0
M  V30 5034 O 474.616 -0.389594 -1.8678 0
M  V30 5035 C 471.756 -1.14968 -3.25387 0
M  V30 5036 C 470.869 -2.37698 -3.60727 0
M  V30 5037 C 470.004 -2.12051 -4.8704 0
M  V30 5038 C 469.043 -3.30636 -5.15117 0
M  V30 5039 N 468.18 -3.04527 -6.3262 0
M  V30 5040 H 473.02 -2.28658 -1.911 0
M  V30 5041 H 470.557 -1.13622 -0.934257 0
M  V30 5042 H 472.515 -1.02261 -4.04473 0
M  V30 5043 H 471.145 -0.234263 -3.21949 0
M  V30 5044 H 470.197 -2.61137 -2.76608 0
M  V30 5045 H 471.509 -3.26131 -3.77413 0
M  V30 5046 H 470.663 -1.96388 -5.74035 0
M  V30 5047 H 469.402 -1.20959 -4.72462 0
M  V30 5048 H 468.407 -3.46836 -4.26597 0
M  V30 5049 H 469.632 -4.22582 -5.31603 0
M  V30 5050 H 467.578 -2.16067 -6.19396 0
M  V30 5051 H 467.495 -3.86503 -6.49732 0
M  V30 5052 H 468.763 -2.92485 -7.22546 0
M  V30 5053 N 472.992 0.995999 -1.22138 0
M  V30 5054 C 474.238 1.7386 -1.05567 0
M  V30 5055 C 474.593 1.8808 0.405418 0
M  V30 5056 O 473.886 1.41062 1.29661 0
M  V30 5057 C 474.08 3.14553 -1.6968 0
M  V30 5058 C 473.909 3.14053 -3.21871 0
M  V30 5059 C 472.679 3.20121 -3.90961 0
M  V30 5060 C 474.877 2.98451 -4.18845 0
M  V30 5061 N 472.859 3.09342 -5.30265 0
M  V30 5062 C 474.23 2.95667 -5.4496 0
M  V30 5063 C 476.285 2.8282 -4.09777 0
M  V30 5064 C 474.988 2.78852 -6.63049 0
M  V30 5065 C 477.014 2.67364 -5.27513 0
M  V30 5066 C 476.376 2.65264 -6.52544 0
M  V30 5067 H 472.475 0.645989 -0.440706 0
M  V30 5068 H 475.059 1.1831 -1.54631 0
M  V30 5069 H 473.23 3.68353 -1.2317 0
M  V30 5070 H 474.962 3.77358 -1.4623 0
M  V30 5071 H 471.717 3.27679 -3.4194 0
M  V30 5072 H 472.141 3.0727 -6.03253 0
M  V30 5073 H 476.783 2.83243 -3.139 0
M  V30 5074 H 474.501 2.77175 -7.59078 0
M  V30 5075 H 478.087 2.56256 -5.22326 0
M  V30 5076 H 476.967 2.5345 -7.42114 0
M  V30 5077 N 474.47 1.03057 1.19235 0
M  V30 5078 C 475.698 0.747697 1.92917 0
M  V30 5079 C 476.113 -0.69372 1.75593 0
M  V30 5080 O 475.47 -1.47191 1.07894 0
M  V30 5081 C 475.521 1.09159 3.44625 0
M  V30 5082 O 475.242 2.47641 3.61394 0
M  V30 5083 C 476.743 0.831763 4.35427 0
M  V30 5084 H 473.963 0.273453 0.612751 0
M  V30 5085 H 476.507 1.37552 1.51327 0
M  V30 5086 H 474.662 0.508919 3.84043 0
M  V30 5087 H 475.076 2.60499 4.55237 0
M  V30 5088 H 476.55 1.12233 5.4047 0
M  V30 5089 H 477.027 -0.233769 4.38577 0
M  V30 5090 H 477.633 1.39725 4.01693 0
M  V30 5091 N 475.948 -1.35272 0.808662 0
M  V30 5092 C 476.858 -2.33546 0.222079 0
M  V30 5093 C 477.874 -1.6196 -0.636011 0
M  V30 5094 O 479.05 -1.93822 -0.547274 0
M  V30 5095 C 476.115 -3.41148 -0.61795 0
M  V30 5096 C 475.176 -4.28507 0.260875 0
M  V30 5097 C 474.409 -5.3097 -0.539156 0
M  V30 5098 O 474.632 -5.42123 -1.77367 0
M  V30 5099 O 473.566 -6.01858 0.0710526 0
M  V30 5100 H 477.392 -2.85515 1.03512 0
M  V30 5101 H 474.977 -1.38079 0.570495 0
M  V30 5102 H 476.859 -4.06889 -1.09634 0
M  V30 5103 H 475.534 -2.91447 -1.40855 0
M  V30 5104 H 474.441 -3.6574 0.786451 0
M  V30 5105 H 475.774 -4.81611 1.01547 0
M  V30 5106 N 477.426 -0.562348 -1.47226 0
M  V30 5107 C 478.837 -0.130325 -1.86245 0
M  V30 5108 C 479.188 1.30128 -1.46838 0
M  V30 5109 O 478.313 1.97974 -0.873805 0
M  V30 5110 C 478.908 -0.229738 -3.3802 0
M  V30 5111 C 477.467 0.14728 -3.76112 0
M  V30 5112 C 476.614 -0.574971 -2.71274 0
M  V30 5113 H 479.565 -0.771773 -1.3867 0
M  V30 5114 H 479.586 0.550316 -3.76499 0
M  V30 5115 H 479.098 -1.27178 -3.66671 0
M  V30 5116 H 477.199 1.19023 -3.53078 0
M  V30 5117 H 477.312 -0.214858 -4.78618 0
M  V30 5118 H 475.676 -0.0174756 -2.54694 0
M  V30 5119 H 476.459 -1.61827 -3.02766 0
M  V30 5120 N 478.904 1.54736 -0.299062 0
M  V30 5121 C 480.315 1.8569 0.193971 0
M  V30 5122 C 480.666 1.22101 1.53577 0
M  V30 5123 O 479.791 0.51799 2.10109 0
M  V30 5124 C 480.386 3.36895 0.358733 0
M  V30 5125 C 478.945 3.67887 0.795986 0
M  V30 5126 C 478.092 2.77131 -0.096807 0
M  V30 5127 H 481.043 1.49934 -0.520134 0
M  V30 5128 H 481.064 3.61294 1.19361 0
M  V30 5129 H 480.576 3.83148 -0.617998 0
M  V30 5130 H 478.677 3.27151 1.78334 0
M  V30 5131 H 478.79 4.75114 0.616718 0
M  V30 5132 H 477.154 2.51153 0.423581 0
M  V30 5133 H 477.937 3.26204 -1.06986 0
M  V30 5134 N 480.382 0.0267497 1.57577 0
M  V30 5135 C 481.329 -0.955894 2.10075 0
M  V30 5136 C 482.299 -1.32453 1.00226 0
M  V30 5137 O 483.484 -1.41826 1.27632 0
M  V30 5138 C 480.624 -2.2338 2.6305 0
M  V30 5139 C 479.737 -1.92183 3.86898 0
M  V30 5140 C 478.872 -3.14251 4.28275 0
M  V30 5141 C 477.911 -2.78862 5.44888 0
M  V30 5142 N 477.048 -3.93548 5.81433 0
M  V30 5143 H 481.888 -0.501303 2.93753 0
M  V30 5144 H 479.425 -0.235847 1.45197 0
M  V30 5145 H 481.383 -2.98124 2.91853 0
M  V30 5146 H 480.013 -2.6646 1.82205 0
M  V30 5147 H 479.065 -1.07692 3.64838 0
M  V30 5148 H 480.377 -1.62117 4.7172 0
M  V30 5149 H 479.531 -3.97317 4.58502 0
M  V30 5150 H 478.27 -3.47476 3.42215 0
M  V30 5151 H 477.275 -1.94208 5.14357 0
M  V30 5152 H 478.5 -2.46855 6.32645 0
M  V30 5153 H 476.446 -4.2662 4.98328 0
M  V30 5154 H 476.363 -3.67098 6.6089 0
M  V30 5155 H 477.631 -4.77325 6.16264 0
M  V30 5156 N 481.861 -1.55662 -0.24637 0
M  V30 5157 C 483.101 -1.79283 -0.981685 0
M  V30 5158 C 483.465 -0.596356 -1.82504 0
M  V30 5159 O 484.666 -0.711342 -2.59217 0
M  V30 5160 C 482.937 -3.07648 -1.819 0
M  V30 5161 S 484.496 -3.52491 -2.61334 0
M  V30 5162 H 481.314 -0.629676 -0.330196 0
M  V30 5163 H 483.916 -1.93901 -0.249498 0
M  V30 5164 H 482.62 -3.92794 -1.18915 0
M  V30 5165 H 482.151 -2.95768 -2.59393 0
M  V30 5166 H 484.166 -3.13866 -3.84321 0
M  V30 5167 N 483.339 0.512053 -1.4905 0
M  V30 5168 C 484.588 1.26343 -1.57227 0
M  V30 5169 C 484.901 1.93876 -0.259155 0
M  V30 5170 O 486.107 2.70612 -0.219358 0
M  V30 5171 C 484.563 2.29343 -2.77362 0
M  V30 5172 C 484.171 1.67799 -4.15388 0
M  V30 5173 C 485.915 3.05378 -2.94864 0
M  V30 5174 C 483.822 2.68845 -5.2676 0
M  V30 5175 H 482.752 0.475231 -0.585382 0
M  V30 5176 H 485.403 0.53862 -1.75417 0
M  V30 5177 H 483.785 3.04938 -2.52643 0
M  V30 5178 H 484.959 0.982715 -4.50199 0
M  V30 5179 H 483.274 1.04194 -4.03153 0
M  V30 5180 H 485.871 3.80921 -3.75238 0
M  V30 5181 H 486.214 3.62327 -2.05 0
M  V30 5182 H 486.747 2.36898 -3.19569 0
M  V30 5183 H 483.486 2.16692 -6.18647 0
M  V30 5184 H 483.006 3.36647 -4.96416 0
M  V30 5185 H 484.685 3.31487 -5.5563 0
M  V30 5186 N 484.817 1.37938 0.762283 0
M  V30 5187 C 485.727 1.36681 1.90671 0
M  V30 5188 C 486.743 0.265078 1.71969 0
M  V30 5189 O 487.919 0.502055 1.95042 0
M  V30 5190 C 484.984 1.18211 3.25925 0
M  V30 5191 C 484.045 2.3811 3.57214 0
M  V30 5192 C 483.278 2.20512 4.86014 0
M  V30 5193 O 483.501 1.19429 5.57757 0
M  V30 5194 O 482.435 3.08911 5.16583 0
M  V30 5195 H 486.261 2.33091 1.94685 0
M  V30 5196 H 483.846 1.18767 0.906356 0
M  V30 5197 H 485.728 1.09937 4.06807 0
M  V30 5198 H 484.403 0.248807 3.22742 0
M  V30 5199 H 483.31 2.51958 2.76529 0
M  V30 5200 H 484.643 3.30041 3.65149 0
M  V30 5201 N 486.295 -0.989507 1.22664 0
M  V30 5202 C 487.543 -1.72612 1.05117 0
M  V30 5203 C 487.864 -1.90552 -0.414131 0
M  V30 5204 O 487.134 -1.4676 -1.29762 0
M  V30 5205 H 485.714 -0.639555 0.385977 0
M  V30 5206 H 488.376 -1.19158 1.54232 0
M  V30 5207 H 487.472 -2.71926 1.53175 0
M  V30 5208 N 487.773 -1.03688 -1.18687 0
M  V30 5209 C 488.705 -0.582696 -2.21669 0
M  V30 5210 C 489.718 0.345656 -1.59088 0
M  V30 5211 O 490.907 0.140776 -1.77944 0
M  V30 5212 C 488.007 0.169204 -3.38477 0
M  V30 5213 C 487.18 -0.766079 -4.30639 0
M  V30 5214 C 486.239 -0.0581541 -5.26168 0
M  V30 5215 O 485.265 -0.687346 -5.65035 0
M  V30 5216 N 486.467 1.20981 -5.67753 0
M  V30 5217 H 489.232 -1.46843 -2.61261 0
M  V30 5218 H 486.793 -0.916896 -1.33434 0
M  V30 5219 H 488.785 0.652543 -3.99405 0
M  V30 5220 H 487.355 0.956435 -2.97609 0
M  V30 5221 H 486.575 -1.42935 -3.67373 0
M  V30 5222 H 487.863 -1.40146 -4.89118 0
M  V30 5223 H 487.261 1.74159 -5.38224 0
M  V30 5224 H 485.818 1.6375 -6.30896 0
M  V30 5225 N 489.251 1.34841 -0.815825 0
M  V30 5226 C 490.161 2.33425 -0.234462 0
M  V30 5227 C 491.177 1.62295 0.627413 0
M  V30 5228 O 492.353 1.94109 0.536987 0
M  V30 5229 C 489.418 3.41471 0.599849 0
M  V30 5230 C 488.479 4.28362 -0.283596 0
M  V30 5231 C 487.712 5.31248 0.51099 0
M  V30 5232 O 487.935 5.43056 1.7449 0
M  V30 5233 O 486.869 6.01812 -0.10297 0
M  V30 5234 H 490.695 2.84962 -1.05024 0
M  V30 5235 H 488.28 1.37774 -0.577809 0
M  V30 5236 H 490.162 4.07464 1.07475 0
M  V30 5237 H 488.837 2.9219 1.39308 0
M  V30 5238 H 487.744 3.65318 -0.805836 0
M  V30 5239 H 489.077 4.81066 -1.041 0
M  V30 5240 N 490.729 0.570148 1.46925 0
M  V30 5241 C 491.676 -0.170257 2.30171 0
M  V30 5242 C 492.646 -0.896099 1.39855 0
M  V30 5243 O 493.831 -0.889248 1.68811 0
M  V30 5244 C 490.971 -1.18605 3.24079 0
M  V30 5245 C 490.084 -0.464947 4.29491 0
M  V30 5246 C 489.219 -1.46716 5.10537 0
M  V30 5247 C 488.258 -0.731758 6.0771 0
M  V30 5248 N 487.395 -1.68142 6.81669 0
M  V30 5249 H 492.235 0.545713 2.92961 0
M  V30 5250 H 489.772 0.280938 1.44392 0
M  V30 5251 H 491.73 -1.78771 3.76957 0
M  V30 5252 H 490.36 -1.86989 2.63125 0
M  V30 5253 H 489.412 0.251506 3.79568 0
M  V30 5254 H 490.724 0.110548 4.98677 0
M  V30 5255 H 489.878 -2.14199 5.6763 0
M  V30 5256 H 488.617 -2.07658 4.41282 0
M  V30 5257 H 487.622 -0.0430787 5.49783 0
M  V30 5258 H 488.847 -0.127904 6.7898 0
M  V30 5259 H 486.793 -2.27918 6.15134 0
M  V30 5260 H 486.71 -1.15841 7.47072 0
M  V30 5261 H 487.978 -2.347 7.43328 0
M  V30 5262 N 492.207 -1.54576 0.307264 0
M  V30 5263 C 493.453 -2.0056 -0.300612 0
M  V30 5264 C 493.786 -1.1953 -1.53057 0
M  V30 5265 O 493.061 -0.27337 -1.92569 0
M  V30 5266 C 493.344 -3.54167 -0.650987 0
M  V30 5267 C 493.197 -4.45933 0.588539 0
M  V30 5268 C 494.516 -4.14645 -1.47506 0
M  V30 5269 H 491.635 -0.729075 -0.107788 0
M  V30 5270 H 494.277 -1.85286 0.420606 0
M  V30 5271 H 492.427 -3.67313 -1.26544 0
M  V30 5272 H 494.099 -4.44683 1.22697 0
M  V30 5273 H 492.342 -4.16274 1.22058 0
M  V30 5274 H 493.013 -5.51189 0.299153 0
M  V30 5275 H 495.489 -4.04973 -0.955821 0
M  V30 5276 H 494.365 -5.22269 -1.68899 0
M  V30 5277 H 494.626 -3.66921 -2.4662 0
M  V30 5278 N 493.685 -0.035106 -1.57561 0
M  V30 5279 C 494.648 0.929819 -2.09492 0
M  V30 5280 C 495.648 1.25026 -1.01119 0
M  V30 5281 O 496.838 1.18961 -1.27255 0
M  V30 5282 C 493.97 2.24457 -2.56577 0
M  V30 5283 H 495.163 0.479935 -2.96035 0
M  V30 5284 H 492.716 0.213033 -1.54841 0
M  V30 5285 H 493.451 2.74061 -1.73382 0
M  V30 5286 H 493.236 2.02508 -3.35757 0
M  V30 5287 H 494.726 2.93607 -2.96959 0
M  V30 5288 N 495.163 1.55791 0.238111 0
M  V30 5289 C 496.403 1.79801 0.972163 0
M  V30 5290 C 496.767 0.606027 1.82185 0
M  V30 5291 O 497.968 0.725079 2.58836 0
M  V30 5292 C 496.239 3.08608 1.80266 0
M  V30 5293 S 497.798 3.53872 2.59461 0
M  V30 5294 H 494.616 0.631418 0.326852 0
M  V30 5295 H 497.218 1.94031 0.239212 0
M  V30 5296 H 495.922 3.93419 1.1683 0
M  V30 5297 H 495.453 2.9714 2.57821 0
M  V30 5298 H 497.468 3.15899 3.82651 0
M  V30 5299 N 496.642 -0.504142 1.49319 0
M  V30 5300 C 497.552 -1.63248 1.68486 0
M  V30 5301 C 498.568 -1.64488 0.567432 0
M  V30 5302 O 499.744 -1.82966 0.841749 0
M  V30 5303 C 496.809 -2.99627 1.74426 0
M  V30 5304 C 495.87 -3.09039 2.97982 0
M  V30 5305 C 495.103 -4.38913 3.0363 0
M  V30 5306 O 495.326 -5.27528 2.16958 0
M  V30 5307 O 494.26 -4.53231 3.96062 0
M  V30 5308 H 498.086 -1.50008 2.64067 0
M  V30 5309 H 495.671 -0.680086 1.33023 0
M  V30 5310 H 497.553 -3.80689 1.80705 0
M  V30 5311 H 496.228 -3.13136 0.820233 0
M  V30 5312 H 495.135 -2.27177 2.97223 0
M  V30 5313 H 496.468 -3.00456 3.89855 0
M  V30 5314 N 498.12 -1.38341 -0.754957 0
M  V30 5315 C 499.03 -1.3769 -1.89944 0
M  V30 5316 C 500.046 -0.274194 -1.71826 0
M  V30 5317 O 501.222 -0.512391 -1.94773 0
M  V30 5318 C 498.287 -1.19938 -3.25293 0
M  V30 5319 C 497.348 -2.40001 -3.55946 0
M  V30 5320 C 496.581 -2.23087 -4.84838 0
M  V30 5321 O 496.804 -1.22386 -5.57116 0
M  V30 5322 O 495.738 -3.11646 -5.14937 0
M  V30 5323 H 499.564 -2.3412 -1.93446 0
M  V30 5324 H 497.149 -1.19246 -0.900044 0
M  V30 5325 H 499.031 -1.12093 -4.06218 0
M  V30 5326 H 497.706 -0.265919 -3.22606 0
M  V30 5327 H 496.613 -2.53421 -2.75188 0
M  V30 5328 H 497.946 -3.31973 -3.63394 0
M  V30 5329 N 499.598 0.982988 -1.23187 0
M  V30 5330 C 501.009 1.53847 -1.05773 0
M  V30 5331 C 501.36 1.92568 0.375744 0
M  V30 5332 O 500.485 1.75783 1.26211 0
M  V30 5333 C 501.08 2.79567 -1.91384 0
M  V30 5334 C 499.639 3.31524 -1.78238 0
M  V30 5335 C 498.786 2.04534 -1.87246 0
M  V30 5336 H 501.737 0.802962 -1.36888 0
M  V30 5337 H 501.758 3.52317 -1.43711 0
M  V30 5338 H 501.27 2.51353 -2.95708 0
M  V30 5339 H 499.371 3.64623 -0.766875 0
M  V30 5340 H 499.484 4.01457 -2.61475 0
M  V30 5341 H 497.848 2.1855 -1.30797 0
M  V30 5342 H 498.631 1.78706 -2.9312 0
M  V30 5343 N 501.076 1.04316 1.18135 0
M  V30 5344 C 502.487 0.775505 1.69832 0
M  V30 5345 C 502.838 -0.703348 1.8316 0
M  V30 5346 O 501.963 -1.54729 1.51287 0
M  V30 5347 C 502.558 1.40112 3.0847 0
M  V30 5348 C 501.117 1.18172 3.57368 0
M  V30 5349 C 500.264 1.49022 2.33854 0
M  V30 5350 H 503.215 1.20925 1.02775 0
M  V30 5351 H 503.236 0.805672 3.71873 0
M  V30 5352 H 502.748 2.47744 2.98738 0
M  V30 5353 H 500.849 0.124258 3.72393 0
M  V30 5354 H 500.962 1.8805 4.40652 0
M  V30 5355 H 499.326 0.909995 2.37889 0
M  V30 5356 H 500.109 2.57768 2.26738 0
M  V30 5357 N 502.554 -1.34406 0.822964 0
M  V30 5358 C 503.801 -1.98284 0.411057 0
M  V30 5359 C 504.129 -1.65245 -1.02588 0
M  V30 5360 O 503.384 -0.91619 -1.72929 0
M  V30 5361 C 503.683 -3.52981 0.560268 0
M  V30 5362 C 503.349 -4.05931 1.96293 0
M  V30 5363 C 502.011 -4.20103 2.34664 0
M  V30 5364 C 504.363 -4.34412 2.87985 0
M  V30 5365 C 501.691 -4.60082 3.64062 0
M  V30 5366 C 504.043 -4.75838 4.16847 0
M  V30 5367 C 502.707 -4.88215 4.55195 0
M  V30 5368 H 501.977 -0.725573 0.150416 0
M  V30 5369 H 504.624 -1.60349 1.04692 0
M  V30 5370 H 502.929 -3.91477 -0.158982 0
M  V30 5371 H 504.626 -4.00385 0.222087 0
M  V30 5372 H 501.216 -3.95363 1.65487 0
M  V30 5373 H 505.4 -4.23001 2.59584 0
M  V30 5374 H 500.656 -4.67856 3.93599 0
M  V30 5375 H 504.83 -4.96834 4.87984 0
M  V30 5376 H 502.457 -5.18952 5.55512 0
M  V30 5377 N 504.032 -0.577932 -1.46621 0
M  V30 5378 C 505.281 -0.0594281 -2.01612 0
M  V30 5379 C 505.594 1.30663 -1.45556 0
M  V30 5380 O 506.8 1.91621 -1.92337 0
M  V30 5381 C 505.256 -0.0556666 -3.59857 0
M  V30 5382 C 504.864 -1.41975 -4.24908 0
M  V30 5383 C 506.608 0.409143 -4.22524 0
M  V30 5384 C 504.515 -1.37397 -5.75218 0
M  V30 5385 H 503.445 -0.0184469 -0.753774 0
M  V30 5386 H 506.096 -0.728869 -1.68404 0
M  V30 5387 H 504.478 0.679843 -3.90121 0
M  V30 5388 H 505.652 -2.17461 -4.0626 0
M  V30 5389 H 503.967 -1.82419 -3.74316 0
M  V30 5390 H 506.564 0.46211 -5.32699 0
M  V30 5391 H 506.907 1.42565 -3.91128 0
M  V30 5392 H 507.44 -0.272152 -3.96868 0
M  V30 5393 H 504.179 -2.36714 -6.11267 0
M  V30 5394 H 503.699 -0.661239 -5.96144 0
M  V30 5395 H 505.378 -1.08484 -6.3784 0
M  V30 5396 N 505.51 1.54411 -0.315457 0
M  V30 5397 C 506.42 2.27737 0.56329 0
M  V30 5398 C 507.436 1.31787 1.13614 0
M  V30 5399 O 508.612 1.64791 1.15784 0
M  V30 5400 C 505.677 3.01478 1.71207 0
M  V30 5401 C 504.738 4.12997 1.17185 0
M  V30 5402 C 503.971 4.83212 2.26588 0
M  V30 5403 O 504.194 4.52884 3.46775 0
M  V30 5404 O 503.128 5.70299 1.92463 0
M  V30 5405 H 506.954 3.03683 -0.0319614 0
M  V30 5406 H 504.539 1.49178 -0.0814188 0
M  V30 5407 H 506.421 3.47683 2.38106 0
M  V30 5408 H 505.096 2.28414 2.29366 0
M  V30 5409 H 504.003 3.71159 0.468174 0
M  V30 5410 H 505.336 4.8808 0.635501 0
M  V30 5411 N 506.988 0.0434614 1.5754 0
M  V30 5412 C 507.936 -0.951465 2.1225 0
M  V30 5413 C 508.93 -1.3274 1.05245 0
M  V30 5414 O 510.136 -1.30795 1.23663 0
M  V30 5415 H 506.511 -0.324667 0.678303 0
M  V30 5416 H 508.482 -0.464855 2.94757 0
M  V30 5417 C 507.231 -2.21972 2.67626 0
M  V30 5418 H 506.554 -1.93923 3.4962 0
M  V30 5419 H 507.994 -2.89765 3.09536 0
M  V30 5420 C 506.453 -2.95919 1.61038 0
M  V30 5421 O 506.983 -3.8857 1.01862 0
M  V30 5422 N 505.189 -2.58511 1.32741 0
M  V30 5423 H 504.736 -1.83244 1.81051 0
M  V30 5424 H 504.694 -3.08296 0.616531 0
M  V30 5425 N 508.466 -1.55915 -0.229846 0
M  V30 5426 C 509.714 -1.7819 -0.953565 0
M  V30 5427 C 510.035 -0.610504 -1.85197 0
M  V30 5428 O 509.305 0.372988 -1.92316 0
M  V30 5429 H 507.885 -0.657208 -0.355087 0
M  V30 5430 H 510.547 -1.9337 -0.243693 0
M  V30 5431 H 509.643 -2.70011 -1.56527 0
M  V30 5432 N 509.944 0.496216 -1.49584 0
M  V30 5433 C 510.907 1.57952 -1.66084 0
M  V30 5434 C 511.907 1.51729 -0.53244 0
M  V30 5435 O 513.097 1.54796 -0.79899 0
M  V30 5436 C 510.229 2.97604 -1.66268 0
M  V30 5437 H 511.422 1.44649 -2.6271 0
M  V30 5438 H 508.975 0.7208 -1.38687 0
M  V30 5439 H 509.71 3.16378 -0.712432 0
M  V30 5440 H 509.495 3.03528 -2.4822 0
M  V30 5441 H 510.985 3.76301 -1.81073 0
M  V30 5442 N 511.423 1.38739 0.74761 0
M  V30 5443 C 512.386 1.36241 1.84312 0
M  V30 5444 C 513.386 0.261811 1.58654 0
M  V30 5445 O 514.576 0.519031 1.66288 0
M  V30 5446 C 511.708 1.12253 3.21888 0
M  V30 5447 H 512.901 2.33712 1.87933 0
M  V30 5448 H 510.454 1.2412 0.949946 0
M  V30 5449 H 511.189 0.154133 3.23934 0
M  V30 5450 H 510.974 1.91943 3.41907 0
M  V30 5451 H 512.464 1.13215 4.0196 0
M  V30 5452 N 512.901 -0.976442 1.23707 0
M  V30 5453 C 513.849 -2.09078 1.01927 0
M  V30 5454 C 514.843 -1.69345 -0.0430193 0
M  V30 5455 O 516.049 -1.79659 0.110814 0
M  V30 5456 H 512.424 -0.68398 0.312531 0
M  V30 5457 H 514.395 -2.24614 1.96447 0
M  V30 5458 C 513.144 -3.41919 0.631385 0
M  V30 5459 H 512.467 -3.72946 1.44053 0
M  V30 5460 H 513.907 -4.20817 0.518532 0
M  V30 5461 C 512.366 -3.30357 -0.660723 0
M  V30 5462 O 512.896 -3.63542 -1.70881 0
M  V30 5463 N 511.102 -2.83507 -0.638139 0
M  V30 5464 H 510.649 -2.567 0.215108 0
M  V30 5465 H 510.607 -2.76153 -1.50289 0
M  V30 5466 N 514.379 -1.04941 -1.1758 0
M  V30 5467 C 515.309 -0.669172 -2.23706 0
M  V30 5468 C 516.29 0.331835 -1.66832 0
M  V30 5469 O 517.475 0.209988 -1.93061 0
M  V30 5470 C 514.605 -0.0404889 -3.47276 0
M  V30 5471 C 513.559 -0.965983 -4.16957 0
M  V30 5472 C 512.885 -0.201312 -5.34321 0
M  V30 5473 C 514.185 -2.28902 -4.69469 0
M  V30 5474 H 515.879 -1.55639 -2.55767 0
M  V30 5475 H 513.425 -0.749793 -1.22939 0
M  V30 5476 H 515.378 0.237298 -4.20731 0
M  V30 5477 H 514.102 0.881658 -3.14475 0
M  V30 5478 H 512.761 -1.22829 -3.45411 0
M  V30 5479 H 512.409 0.723519 -4.97769 0
M  V30 5480 H 512.109 -0.817968 -5.81879 0
M  V30 5481 H 513.633 0.0692499 -6.10561 0
M  V30 5482 H 515.047 -2.07132 -5.34574 0
M  V30 5483 H 513.444 -2.85942 -5.27596 0
M  V30 5484 H 514.514 -2.92937 -3.86414 0
M  V30 5485 N 515.857 1.33968 -0.830081 0
M  V30 5486 C 516.807 2.26845 -0.229242 0
M  V30 5487 C 517.791 1.48862 0.610659 0
M  V30 5488 O 518.983 1.70808 0.464067 0
M  V30 5489 C 516.112 3.3798 0.602057 0
M  V30 5490 C 515.198 4.23369 -0.248866 0
M  V30 5491 N 515.589 4.88182 -1.32334 0
M  V30 5492 C 513.887 4.45987 -0.0344077 0
M  V30 5493 C 514.588 5.51671 -1.84482 0
M  V30 5494 N 513.564 5.31348 -1.14762 0
M  V30 5495 H 517.366 2.74464 -1.05104 0
M  V30 5496 H 514.88 1.4777 -0.673623 0
M  V30 5497 H 516.877 4.03494 1.04873 0
M  V30 5498 H 515.537 2.9191 1.42193 0
M  V30 5499 H 516.548 4.88988 -1.70619 0
M  V30 5500 H 513.225 4.10658 0.752727 0
M  V30 5501 H 514.615 6.13308 -2.74413 0
M  V30 5502 N 517.335 0.585699 1.46312 0
M  V30 5503 C 518.56 0.0762461 2.0726 0
M  V30 5504 C 518.985 -1.22071 1.43109 0
M  V30 5505 O 518.343 -1.73804 0.515942 0
M  V30 5506 C 518.391 -0.0729404 3.60526 0
M  V30 5507 O 517.495 -1.1287 3.96654 0
M  V30 5508 H 516.836 0.0641558 0.660893 0
M  V30 5509 H 519.366 0.809492 1.87905 0
M  V30 5510 H 519.376 -0.278158 4.07051 0
M  V30 5511 H 518.051 0.874188 4.06609 0
M  V30 5512 H 516.628 -0.901703 3.61834 0
M  V30 5513 N 518.813 -1.54241 0.323641 0
M  V30 5514 C 519.76 -2.24339 -0.542277 0
M  V30 5515 C 520.73 -1.23421 -1.11159 0
M  V30 5516 O 521.915 -1.52104 -1.15192 0
M  V30 5517 C 519.055 -3.00479 -1.69725 0
M  V30 5518 C 518.168 -4.16214 -1.15716 0
M  V30 5519 C 517.303 -4.79884 -2.27783 0
M  V30 5520 C 516.342 -5.87722 -1.71023 0
M  V30 5521 N 515.479 -6.45254 -2.76752 0
M  V30 5522 H 520.319 -2.97935 0.0620613 0
M  V30 5523 H 517.856 -1.47039 0.0423993 0
M  V30 5524 H 519.814 -3.42869 -2.3769 0
M  V30 5525 H 518.444 -2.29217 -2.27288 0
M  V30 5526 H 517.496 -3.78605 -0.369063 0
M  V30 5527 H 518.808 -4.93838 -0.701832 0
M  V30 5528 H 517.962 -5.25243 -3.03651 0
M  V30 5529 H 516.701 -4.01641 -2.76652 0
M  V30 5530 H 515.706 -5.41765 -0.936518 0
M  V30 5531 H 516.931 -6.67863 -1.2303 0
M  V30 5532 H 514.877 -5.69884 -3.24912 0
M  V30 5533 H 514.794 -7.18292 -2.35782 0
M  V30 5534 H 516.062 -6.95269 -3.5245 0
M  V30 5535 N 520.291 -0.0518155 -1.57515 0
M  V30 5536 C 521.54 0.621286 -1.91893 0
M  V30 5537 C 521.853 1.71966 -0.932052 0
M  V30 5538 O 523.059 2.45096 -1.16791 0
M  V30 5539 C 521.515 1.15641 -3.40816 0
M  V30 5540 C 521.123 0.0901146 -4.47909 0
M  V30 5541 C 522.867 1.80472 -3.84227 0
M  V30 5542 C 520.774 0.638154 -5.87947 0
M  V30 5543 H 519.704 0.235835 -0.716169 0
M  V30 5544 H 522.355 -0.120809 -1.83102 0
M  V30 5545 H 520.737 1.95084 -3.44613 0
M  V30 5546 H 521.911 -0.683525 -4.55702 0
M  V30 5547 H 520.226 -0.460774 -4.13843 0
M  V30 5548 H 522.823 2.22471 -4.86221 0
M  V30 5549 H 523.166 2.65669 -3.20508 0
M  V30 5550 H 523.699 1.07683 -3.82948 0
M  V30 5551 H 520.438 -0.176202 -6.55263 0
M  V30 5552 H 519.958 1.37976 -5.83714 0
M  V30 5553 H 521.637 1.12085 -6.37217 0
M  V30 5554 N 521.769 1.56035 0.221574 0
M  V30 5555 C 522.999 1.82864 0.961468 0
M  V30 5556 C 523.407 0.628703 1.78449 0
M  V30 5557 O 522.75 -0.412109 1.79018 0
M  V30 5558 C 522.812 3.03425 1.92804 0
M  V30 5559 C 522.476 4.38429 1.28954 0
M  V30 5560 C 523.473 5.15441 0.679431 0
M  V30 5561 C 521.158 4.85151 1.30131 0
M  V30 5562 C 523.152 6.37337 0.0896148 0
M  V30 5563 C 520.839 6.06989 0.707651 0
M  V30 5564 C 521.837 6.82923 0.102855 0
M  V30 5565 O 521.525 8.02456 -0.48157 0
M  V30 5566 H 521.257 0.611883 0.28736 0
M  V30 5567 H 523.811 2.0397 0.241932 0
M  V30 5568 H 522.041 2.78138 2.68656 0
M  V30 5569 H 523.73 3.17127 2.53348 0
M  V30 5570 H 524.496 4.80452 0.662661 0
M  V30 5571 H 520.375 4.26021 1.76145 0
M  V30 5572 H 523.919 6.96547 -0.383069 0
M  V30 5573 H 519.816 6.41451 0.721834 0
M  V30 5574 H 520.584 8.17636 -0.375887 0
M  V30 5575 N 523.247 -0.488276 1.49845 0
M  V30 5576 C 524.477 -1.26344 1.63465 0
M  V30 5577 C 524.885 -1.86637 0.310379 0
M  V30 5578 O 524.228 -1.69184 -0.715712 0
M  V30 5579 C 524.29 -2.42407 2.65479 0
M  V30 5580 C 523.954 -2.02886 4.09495 0
M  V30 5581 C 524.951 -1.56124 4.95904 0
M  V30 5582 C 522.636 -2.12131 4.55308 0
M  V30 5583 C 524.63 -1.19129 6.26169 0
M  V30 5584 C 522.317 -1.74747 5.85582 0
M  V30 5585 C 523.315 -1.28322 6.70837 0
M  V30 5586 O 523.003 -0.914491 7.98682 0
M  V30 5587 H 522.735 -0.388921 0.552916 0
M  V30 5588 H 525.289 -0.591288 1.96705 0
M  V30 5589 H 523.519 -3.12739 2.27445 0
M  V30 5590 H 525.208 -3.04409 2.68495 0
M  V30 5591 H 525.974 -1.48417 4.61733 0
M  V30 5592 H 521.853 -2.47217 3.89107 0
M  V30 5593 H 525.397 -0.828211 6.92666 0
M  V30 5594 H 521.294 -1.82109 6.19279 0
M  V30 5595 H 522.062 -1.04485 8.11804 0
M  V30 5596 N 524.725 -1.39134 -0.740242 0
M  V30 5597 C 525.673 -1.3757 -1.87556 0
M  V30 5598 C 526.667 -0.259593 -1.67399 0
M  V30 5599 O 527.873 -0.429349 -1.74804 0
M  V30 5600 H 524.248 -0.42947 -0.6173 0
M  V30 5601 H 526.219 -2.33345 -1.85991 0
M  V30 5602 C 524.968 -1.23087 -3.25184 0
M  V30 5603 H 524.291 -2.08237 -3.41288 0
M  V30 5604 H 525.731 -1.26049 -4.0483 0
M  V30 5605 C 524.19 0.0611471 -3.36845 0
M  V30 5606 O 524.72 1.03328 -3.88183 0
M  V30 5607 N 522.926 0.122454 -2.90342 0
M  V30 5608 H 522.473 -0.669329 -2.48752 0
M  V30 5609 H 522.431 0.986463 -2.98523 0
M  V30 5610 N 526.204 0.969867 -1.24223 0
M  V30 5611 C 527.452 1.70918 -1.0785 0
M  V30 5612 C 527.773 1.91186 0.383763 0
M  V30 5613 O 527.043 1.48806 1.27411 0
M  V30 5614 H 525.623 0.633334 -0.396103 0
M  V30 5615 H 528.285 1.16689 -1.56108 0
M  V30 5616 H 527.381 2.69455 -1.57482 0
M  V30 5617 N 527.682 1.05563 1.17022 0
M  V30 5618 C 528.959 0.68165 1.83338 0
M  V30 5619 C 529.339 -0.837665 1.93769 0
M  V30 5620 O 528.687 -1.74507 1.47511 0
M  V30 5621 C 528.897 1.375 3.20772 0
M  V30 5622 C 530.245 1.51545 3.96635 0
M  V30 5623 O 531.269 1.33431 3.30264 0
M  V30 5624 O 530.128 1.812 5.15586 0
M  V30 5625 H 527.222 0.240412 0.791285 0
M  V30 5626 H 529.768 1.15545 1.24288 0
M  V30 5627 H 528.54 2.41135 3.08171 0
M  V30 5628 H 528.163 0.890798 3.87493 0
M  V30 5629 N 529.16 -1.33526 0.837174 0
M  V30 5630 C 530.107 -2.29248 0.267169 0
M  V30 5631 C 531.077 -1.54252 -0.616071 0
M  V30 5632 O 532.262 -1.82559 -0.554699 0
M  V30 5633 C 529.402 -3.40638 -0.553152 0
M  V30 5634 C 528.515 -4.30548 0.353921 0
M  V30 5635 C 527.65 -5.29051 -0.477339 0
M  V30 5636 C 526.689 -6.106 0.42823 0
M  V30 5637 N 525.826 -7.01152 -0.364801 0
M  V30 5638 H 530.666 -2.77398 1.08877 0
M  V30 5639 H 528.203 -1.36496 0.54838 0
M  V30 5640 H 530.161 -4.03921 -1.04422 0
M  V30 5641 H 528.791 -2.93685 -1.33973 0
M  V30 5642 H 527.843 -3.68001 0.963289 0
M  V30 5643 H 529.155 -4.87631 1.04964 0
M  V30 5644 H 528.309 -5.97853 -1.0323 0
M  V30 5645 H 527.048 -4.72541 -1.2065 0
M  V30 5646 H 526.053 -5.40718 0.995219 0
M  V30 5647 H 527.278 -6.69193 1.15573 0
M  V30 5648 H 525.224 -6.47092 -1.07738 0
M  V30 5649 H 525.141 -7.5551 0.272238 0
M  V30 5650 H 526.409 -7.74263 -0.902054 0
M  V30 5651 N 530.638 -0.59345 -1.46 0
M  V30 5652 C 531.884 -0.0832754 -2.02629 0
M  V30 5653 C 532.217 1.27749 -1.46266 0
M  V30 5654 O 531.492 1.8395 -0.631866 0
M  V30 5655 C 531.775 -0.0290756 -3.60088 0
M  V30 5656 C 531.628 -1.41951 -4.26814 0
M  V30 5657 C 532.947 0.666055 -4.35031 0
M  V30 5658 H 530.066 -0.031736 -0.736316 0
M  V30 5659 H 532.708 -0.762711 -1.74019 0
M  V30 5660 H 530.858 0.549532 -3.84594 0
M  V30 5661 H 532.53 -2.04411 -4.13538 0
M  V30 5662 H 530.773 -1.98422 -3.8576 0
M  V30 5663 H 531.444 -1.33395 -5.3564 0
M  V30 5664 H 533.92 0.174401 -4.15734 0
M  V30 5665 H 532.796 0.673041 -5.44758 0
M  V30 5666 H 533.057 1.72946 -4.06869 0
M  V30 5667 N 532.116 1.54067 -0.331816 0
M  V30 5668 C 533.344 2.05131 0.269996 0
M  V30 5669 C 533.759 1.20749 1.45138 0
M  V30 5670 O 533.116 0.240069 1.80914 0
M  V30 5671 C 533.167 3.54728 0.696456 0
M  V30 5672 O 532.888 4.35906 -0.43794 0
M  V30 5673 C 534.389 4.21916 1.36021 0
M  V30 5674 H 531.609 0.668807 0.0542042 0
M  V30 5675 H 534.153 1.98777 -0.4804 0
M  V30 5676 H 532.308 3.61342 1.39681 0
M  V30 5677 H 532.722 5.24404 -0.100334 0
M  V30 5678 H 534.196 5.28015 1.60947 0
M  V30 5679 H 534.673 3.73538 2.31011 0
M  V30 5680 H 535.279 4.19463 0.702212 0
M  V30 5681 N 533.594 0.0601682 1.57485 0
M  V30 5682 C 534.824 -0.620037 1.97076 0
M  V30 5683 C 535.232 -1.64381 0.936784 0
M  V30 5684 O 534.575 -1.83497 -0.0863377 0
M  V30 5685 C 534.637 -1.35617 3.32939 0
M  V30 5686 C 534.301 -0.487208 4.54396 0
M  V30 5687 C 535.298 0.250428 5.19297 0
M  V30 5688 C 532.983 -0.415494 5.00579 0
M  V30 5689 C 534.977 1.04812 6.28723 0
M  V30 5690 C 532.664 0.385879 6.0988 0
M  V30 5691 C 533.662 1.11637 6.73815 0
M  V30 5692 O 533.35 1.90454 7.81014 0
M  V30 5693 H 533.082 -0.173664 0.653312 0
M  V30 5694 H 535.636 0.1256 2.05016 0
M  V30 5695 H 533.866 -2.14763 3.2158 0
M  V30 5696 H 535.555 -1.92749 3.57215 0
M  V30 5697 H 536.321 0.204546 4.84568 0
M  V30 5698 H 532.2 -0.973679 4.506 0
M  V30 5699 H 535.744 1.6188 6.78558 0
M  V30 5700 H 531.641 0.433366 6.44044 0
M  V30 5701 H 532.409 1.82762 7.97835 0
M  V30 5702 N 535.072 -1.5615 -0.213296 0
M  V30 5703 C 536.035 -1.92249 -1.24792 0
M  V30 5704 C 537.035 -0.801828 -1.39382 0
M  V30 5705 O 538.225 -1.06948 -1.37506 0
M  V30 5706 C 535.357 -2.18056 -2.62039 0
M  V30 5707 H 536.55 -2.84793 -0.939845 0
M  V30 5708 H 534.103 -1.49559 -0.454062 0
M  V30 5709 H 534.838 -1.2809 -2.97932 0
M  V30 5710 H 534.623 -2.99703 -2.52825 0
M  V30 5711 H 536.113 -2.47051 -3.36683 0
M  V30 5712 N 536.55 0.480323 -1.50102 0
M  V30 5713 C 537.79 1.24301 -1.62261 0
M  V30 5714 C 538.154 1.89452 -0.311758 0
M  V30 5715 O 539.355 2.67022 -0.308696 0
M  V30 5716 C 537.626 2.26588 -2.76392 0
M  V30 5717 S 539.185 3.11919 -3.08629 0
M  V30 5718 H 536.003 0.42215 -0.57211 0
M  V30 5719 H 538.605 0.541591 -1.87848 0
M  V30 5720 H 537.309 1.7729 -3.70131 0
M  V30 5721 H 536.84 3.01371 -2.52862 0
M  V30 5722 H 538.855 4.27598 -2.51742 0
M  V30 5723 N 538.028 1.39524 0.732853 0
M  V30 5724 C 538.975 1.38416 1.84688 0
M  V30 5725 C 539.945 0.243539 1.64305 0
M  V30 5726 O 541.13 0.438979 1.85681 0
M  V30 5727 C 538.27 1.23555 3.22224 0
M  V30 5728 C 537.383 2.47179 3.54298 0
M  V30 5729 C 536.518 2.2489 4.81246 0
M  V30 5730 C 535.557 3.44178 5.0617 0
M  V30 5731 N 534.694 3.21192 6.24323 0
M  V30 5732 H 539.534 2.33645 1.84971 0
M  V30 5733 H 537.071 1.16059 0.903804 0
M  V30 5734 H 539.029 1.12949 4.0162 0
M  V30 5735 H 537.659 0.31954 3.21215 0
M  V30 5736 H 536.711 2.68379 2.69587 0
M  V30 5737 H 538.023 3.36022 3.68633 0
M  V30 5738 H 537.177 2.11538 5.68627 0
M  V30 5739 H 535.916 1.33443 4.69089 0
M  V30 5740 H 534.921 3.58025 4.17251 0
M  V30 5741 H 536.146 4.36528 5.20212 0
M  V30 5742 H 534.092 2.32413 6.1345 0
M  V30 5743 H 534.009 4.03594 6.39256 0
M  V30 5744 H 535.277 3.1154 7.14537 0
M  V30 5745 N 539.506 -0.963266 1.24736 0
M  V30 5746 C 540.731 -1.74699 1.11781 0
M  V30 5747 C 541.156 -1.85267 -0.325258 0
M  V30 5748 O 540.514 -1.32681 -1.23553 0
M  V30 5749 C 540.562 -3.14322 1.76731 0
M  V30 5750 O 539.666 -3.99043 1.04109 0
M  V30 5751 H 539.007 -0.53684 0.390767 0
M  V30 5752 H 541.537 -1.20801 1.65131 0
M  V30 5753 H 541.547 -3.64824 1.82668 0
M  V30 5754 H 540.222 -3.05946 2.81726 0
M  V30 5755 H 538.799 -3.5752 1.05991 0
M  V30 5756 N 540.985 -1.06182 -1.16461 0
M  V30 5757 C 542.233 -0.776326 -1.86595 0
M  V30 5758 C 542.554 0.69921 -1.82033 0
M  V30 5759 O 541.824 1.50579 -1.2531 0
M  V30 5760 H 540.404 -0.284184 -0.690832 0
M  V30 5761 H 543.066 -1.34308 -1.41235 0
M  V30 5762 H 542.162 -1.10022 -2.92064 0
M  V30 5763 N 542.463 1.3308 -0.844243 0
M  V30 5764 C 543.693 2.01515 -0.455541 0
M  V30 5765 C 544.101 1.63655 0.949406 0
M  V30 5766 O 543.444 0.84848 1.62931 0
M  V30 5767 C 543.506 3.55967 -0.502801 0
M  V30 5768 C 543.17 4.17222 -1.86481 0
M  V30 5769 C 544.167 4.36205 -2.8288 0
M  V30 5770 C 541.852 4.53528 -2.15911 0
M  V30 5771 C 543.846 4.90649 -4.06869 0
M  V30 5772 C 541.533 5.07679 -3.40155 0
M  V30 5773 C 542.531 5.26186 -4.35451 0
M  V30 5774 O 542.219 5.79183 -5.57496 0
M  V30 5775 H 541.951 0.65199 -0.178565 0
M  V30 5776 H 544.505 1.70867 -1.1399 0
M  V30 5777 H 542.735 3.85965 0.23836 0
M  V30 5778 H 544.424 4.05688 -0.131169 0
M  V30 5779 H 545.19 4.085 -2.61444 0
M  V30 5780 H 541.069 4.38414 -1.42528 0
M  V30 5781 H 544.613 5.0501 -4.81259 0
M  V30 5782 H 540.51 5.34815 -3.61446 0
M  V30 5783 H 541.278 5.97591 -5.5931 0
M  V30 5784 N 543.941 0.601185 1.45683 0
M  V30 5785 C 544.871 -0.108824 2.33246 0
M  V30 5786 C 545.852 -0.865223 1.46451 0
M  V30 5787 O 547.037 -0.83704 1.75235 0
M  V30 5788 C 544.167 -1.11101 3.2905 0
M  V30 5789 C 543.121 -0.468244 4.25431 0
M  V30 5790 C 542.447 -1.57822 5.10878 0
M  V30 5791 C 543.747 0.606469 5.18767 0
M  V30 5792 H 545.441 0.622306 2.92861 0
M  V30 5793 H 542.987 0.300714 1.40825 0
M  V30 5794 H 544.94 -1.61622 3.89174 0
M  V30 5795 H 543.664 -1.87265 2.67581 0
M  V30 5796 H 542.323 0.0160484 3.66596 0
M  V30 5797 H 541.971 -2.32998 4.45781 0
M  V30 5798 H 541.671 -1.15369 5.76163 0
M  V30 5799 H 543.195 -2.08583 5.73869 0
M  V30 5800 H 544.609 0.185589 5.73 0
M  V30 5801 H 543.006 0.952381 5.92494 0
M  V30 5802 H 544.076 1.48559 4.61582 0
M  V30 5803 N 545.419 -1.53889 0.339982 0
M  V30 5804 C 546.349 -2.27843 -0.510856 0
M  V30 5805 C 547.33 -1.29267 -1.10563 0
M  V30 5806 O 548.515 -1.58104 -1.12768 0
M  V30 5807 C 545.645 -3.04857 -1.66372 0
M  V30 5808 C 544.599 -4.10907 -1.19746 0
M  V30 5809 C 543.925 -4.75855 -2.43857 0
M  V30 5810 C 545.225 -5.21435 -0.300501 0
M  V30 5811 H 546.919 -2.99212 0.106067 0
M  V30 5812 H 544.465 -1.43904 0.0524533 0
M  V30 5813 H 546.418 -3.5533 -2.26537 0
M  V30 5814 H 545.142 -2.31133 -2.30749 0
M  V30 5815 H 543.801 -3.61342 -0.618654 0
M  V30 5816 H 543.449 -3.9873 -3.06633 0
M  V30 5817 H 543.149 -5.47502 -2.13343 0
M  V30 5818 H 544.673 -5.2911 -3.04754 0
M  V30 5819 H 546.087 -5.67565 -0.80889 0
M  V30 5820 H 544.484 -6.00036 -0.0874076 0
M  V30 5821 H 545.554 -4.80328 0.664321 0
M  V30 5822 N 546.897 -0.0685191 -1.57451 0
M  V30 5823 C 547.847 0.909895 -2.09057 0
M  V30 5824 C 548.831 1.26088 -0.999528 0
M  V30 5825 O 550.023 1.24041 -1.26265 0
M  V30 5826 C 547.152 2.17863 -2.65312 0
M  V30 5827 C 546.238 1.85427 -3.81415 0
M  V30 5828 N 546.629 1.23426 -4.9051 0
M  V30 5829 C 544.927 2.15196 -3.90649 0
M  V30 5830 C 545.628 1.09008 -5.71395 0
M  V30 5831 N 544.604 1.59871 -5.1956 0
M  V30 5832 H 548.406 0.426145 -2.90794 0
M  V30 5833 H 545.92 0.135462 -1.61834 0
M  V30 5834 H 547.917 2.88872 -3.00597 0
M  V30 5835 H 546.577 2.66829 -1.85021 0
M  V30 5836 H 547.588 0.904305 -5.09944 0
M  V30 5837 H 544.265 2.66562 -3.21327 0
M  V30 5838 H 545.655 0.607305 -6.6915 0
M  V30 5839 N 548.375 1.56261 0.205012 0
M  V30 5840 C 549.623 1.79684 0.925096 0
M  V30 5841 C 549.944 0.63989 1.84202 0
M  V30 5842 O 549.214 -0.342345 1.92885 0
M  V30 5843 H 547.794 0.662774 0.344587 0
M  V30 5844 H 550.456 1.93734 0.212899 0
M  V30 5845 H 549.552 2.72467 1.52211 0
M  V30 5846 N 549.853 -0.472356 1.50355 0
M  V30 5847 C 551.078 -1.25251 1.65309 0
M  V30 5848 C 551.503 -1.85081 0.335643 0
M  V30 5849 O 550.861 -1.67227 -0.700335 0
M  V30 5850 C 550.909 -2.3379 2.74544 0
M  V30 5851 O 550.013 -3.38401 2.35709 0
M  V30 5852 H 549.354 -0.368539 0.552336 0
M  V30 5853 H 551.884 -0.562271 1.96722 0
M  V30 5854 H 551.894 -2.79121 2.97583 0
M  V30 5855 H 550.569 -1.89614 3.70161 0
M  V30 5856 H 549.146 -2.9879 2.23112 0
M  V30 5857 N 551.331 -1.39911 -0.725443 0
M  V30 5858 C 552.279 -1.39552 -1.86086 0
M  V30 5859 C 553.273 -0.277334 -1.67114 0
M  V30 5860 O 554.479 -0.447865 -1.74339 0
M  V30 5861 H 550.854 -0.435993 -0.612711 0
M  V30 5862 H 552.825 -2.35305 -1.83505 0
M  V30 5863 C 551.574 -1.26529 -3.2386 0
M  V30 5864 H 550.897 -2.11845 -3.3906 0
M  V30 5865 H 552.337 -1.30336 -4.03471 0
M  V30 5866 C 550.796 0.0254168 -3.3689 0
M  V30 5867 O 551.326 0.992048 -3.89257 0
M  V30 5868 N 549.532 0.0916528 -2.90455 0
M  V30 5869 H 549.079 -0.695675 -2.48028 0
M  V30 5870 H 549.037 0.954745 -2.99553 0
M  V30 5871 N 552.809 0.956637 -1.25245 0
M  V30 5872 C 553.719 2.0868 -1.0719 0
M  V30 5873 C 554.735 1.73997 -0.00959074 0
M  V30 5874 O 555.911 2.00301 -0.210104 0
M  V30 5875 C 552.976 3.39754 -0.690526 0
M  V30 5876 C 552.037 3.88316 -1.83055 0
M  V30 5877 C 551.27 5.13134 -1.46728 0
M  V30 5878 O 551.493 5.6925 -0.362029 0
M  V30 5879 O 550.427 5.56356 -2.29677 0
M  V30 5880 H 554.253 2.26813 -2.01965 0
M  V30 5881 H 551.838 1.07098 -1.04165 0
M  V30 5882 H 553.72 4.18543 -0.489871 0
M  V30 5883 H 552.395 3.22896 0.227981 0
M  V30 5884 H 551.302 3.1054 -2.08604 0
M  V30 5885 H 552.635 4.09669 -2.72822 0
M  V30 5886 N 554.287 1.06798 1.15896 0
M  V30 5887 C 555.536 0.782796 1.8589 0
M  V30 5888 C 555.849 -0.693498 1.82893 0
M  V30 5889 O 557.055 -1.09325 2.48516 0
M  V30 5890 C 555.511 1.3502 3.33613 0
M  V30 5891 C 555.119 2.8571 3.45071 0
M  V30 5892 C 556.863 1.14278 4.08829 0
M  V30 5893 C 554.77 3.35669 4.86909 0
M  V30 5894 H 553.7 0.289149 0.696354 0
M  V30 5895 H 556.351 1.28734 1.30766 0
M  V30 5896 H 554.733 0.773407 3.88374 0
M  V30 5897 H 555.907 3.49385 3.00445 0
M  V30 5898 H 554.222 3.05178 2.83294 0
M  V30 5899 H 556.819 1.49087 5.13495 0
M  V30 5900 H 557.162 0.0814575 4.1622 0
M  V30 5901 H 557.695 1.68563 3.60321 0
M  V30 5902 H 554.434 4.41302 4.84698 0
M  V30 5903 H 553.954 2.76745 5.32139 0
M  V30 5904 H 555.633 3.31296 5.55745 0
M  V30 5905 N 555.766 -1.3263 0.851289 0
M  V30 5906 C 556.994 -2.01563 0.466899 0
M  V30 5907 C 557.409 -1.63996 -0.935447 0
M  V30 5908 O 556.766 -0.85957 -1.6099 0
M  V30 5909 C 556.817 -3.56613 0.592433 0
M  V30 5910 O 556.538 -3.92828 1.93954 0
M  V30 5911 C 558.039 -4.42818 0.206612 0
M  V30 5912 H 555.259 -0.645307 0.183902 0
M  V30 5913 H 557.803 -1.69285 1.1473 0
M  V30 5914 H 555.958 -3.87379 -0.0401936 0
M  V30 5915 H 556.372 -4.87545 1.9339 0
M  V30 5916 H 557.846 -5.50918 0.345462 0
M  V30 5917 H 558.323 -4.30844 -0.85264 0
M  V30 5918 H 558.929 -4.17434 0.814176 0
M  V30 5919 N 557.244 -0.608902 -1.45362 0
M  V30 5920 C 558.484 -0.10763 -2.04116 0
M  V30 5921 C 558.848 1.23883 -1.46686 0
M  V30 5922 O 560.049 1.83091 -1.96803 0
M  V30 5923 C 558.32 -0.0703351 -3.57331 0
M  V30 5924 S 559.879 0.369554 -4.37241 0
M  V30 5925 H 556.697 -0.0502123 -0.709225 0
M  V30 5926 H 559.299 -0.8073 -1.78053 0
M  V30 5927 H 558.003 -1.05379 -3.9664 0
M  V30 5928 H 557.534 0.651287 -3.87971 0
M  V30 5929 H 559.549 1.61878 -4.69052 0
M  V30 5930 N 558.722 1.53707 -0.348139 0
M  V30 5931 C 559.67 2.26671 0.521808 0
M  V30 5932 C 560.664 1.28988 1.09811 0
M  V30 5933 O 561.87 1.4668 1.04332 0
M  V30 5934 H 558.245 0.728387 0.186968 0
M  V30 5935 H 560.216 2.98176 -0.115563 0
M  V30 5936 C 558.965 3.05591 1.6586 0
M  V30 5937 H 558.288 3.80589 1.22443 0
M  V30 5938 H 559.728 3.59851 2.24239 0
M  V30 5939 C 558.187 2.15366 2.59073 0
M  V30 5940 O 558.717 1.7528 3.61441 0
M  V30 5941 N 556.923 1.80352 2.27863 0
M  V30 5942 H 556.47 2.13149 1.44656 0
M  V30 5943 H 556.428 1.20268 2.90488 0
M  V30 5944 N 560.2 0.0768682 1.57412 0
M  V30 5945 C 561.616 -0.279772 1.57129 0
M  V30 5946 C 561.816 -1.69688 1.08666 0
M  V30 5947 O 560.872 -2.40953 0.754843 0
M  V30 5948 C 562.185 -0.0848055 3.0058 0
M  V30 5949 C 563.733 -0.153954 3.12621 0
M  V30 5950 C 564.208 0.0127946 4.57998 0
M  V30 5951 N 565.699 -0.0426435 4.6318 0
M  V30 5952 C 566.434 0.0618892 5.73367 0
M  V30 5953 N 565.93 0.220229 6.9245 0
M  V30 5954 N 567.723 0.00446072 5.621 0
M  V30 5955 H 559.874 1.00297 1.87228 0
M  V30 5956 H 562.137 0.391565 0.863354 0
M  V30 5957 H 561.843 0.89325 3.40168 0
M  V30 5958 H 561.717 -0.834961 3.67843 0
M  V30 5959 H 564.104 -1.1225 2.72917 0
M  V30 5960 H 564.185 0.627389 2.47987 0
M  V30 5961 H 563.829 0.978128 4.98392 0
M  V30 5962 H 563.759 -0.788016 5.20671 0
M  V30 5963 H 566.25 -0.163226 3.77547 0
M  V30 5964 H 566.563 0.291999 7.72248 0
M  V30 5965 H 564.908 0.255658 6.9453 0
M  V30 5966 H 568.099 -0.117979 4.67951 0
M  V30 5967 H 568.272 0.0893796 6.47938 0
M  V30 5968 N 561.678 -1.56367 -0.196722 0
M  V30 5969 C 562.926 -1.80172 -0.915554 0
M  V30 5970 C 563.247 -0.649649 -1.8386 0
M  V30 5971 O 562.517 0.332111 -1.93064 0
M  V30 5972 H 561.097 -0.664592 -0.341067 0
M  V30 5973 H 563.759 -1.93844 -0.202622 0
M  V30 5974 H 562.855 -2.7327 -1.50764 0
M  V30 5975 N 563.156 0.464375 -1.50603 0
M  V30 5976 C 564.103 1.56152 -1.69956 0
M  V30 5977 C 565.073 1.57046 -0.54091 0
M  V30 5978 O 566.258 1.74473 -0.772258 0
M  V30 5979 C 563.398 2.94079 -1.80586 0
M  V30 5980 C 562.511 3.02923 -3.07996 0
M  V30 5981 C 561.646 4.31806 -3.09382 0
M  V30 5982 C 560.685 4.34417 -4.31218 0
M  V30 5983 N 559.822 5.54782 -4.30304 0
M  V30 5984 H 564.662 1.38955 -2.6362 0
M  V30 5985 H 562.199 0.675482 -1.30674 0
M  V30 5986 H 564.157 3.74073 -1.8473 0
M  V30 5987 H 562.787 3.09896 -0.903556 0
M  V30 5988 H 561.839 2.1576 -3.13292 0
M  V30 5989 H 563.151 3.00712 -3.97962 0
M  V30 5990 H 562.305 5.20153 -3.12292 0
M  V30 5991 H 561.044 4.36636 -2.17257 0
M  V30 5992 H 560.049 3.44467 -4.28512 0
M  V30 5993 H 561.274 4.31273 -5.24576 0
M  V30 5994 H 559.22 5.60384 -3.41037 0
M  V30 5995 H 559.137 5.54339 -5.14047 0
M  V30 5996 H 560.405 6.45235 -4.3737 0
M  V30 5997 N 564.634 1.40294 0.718013 0
M  V30 5998 C 565.88 1.39648 1.47885 0
M  V30 5999 C 566.235 -0.0023879 1.924 0
M  V30 6000 O 565.528 -0.972304 1.65096 0
M  V30 6001 C 565.722 2.31814 2.72024 0
M  V30 6002 C 565.551 3.80523 2.3965 0
M  V30 6003 C 564.321 4.49351 2.3111 0
M  V30 6004 C 566.519 4.72077 2.04079 0
M  V30 6005 N 564.501 5.83305 1.91385 0
M  V30 6006 C 565.872 5.94809 1.74935 0
M  V30 6007 C 567.927 4.59935 1.90694 0
M  V30 6008 C 566.63 7.06755 1.33753 0
M  V30 6009 C 568.656 5.7182 1.50915 0
M  V30 6010 C 568.018 6.93637 1.22668 0
M  V30 6011 H 564.117 0.566263 0.539324 0
M  V30 6012 H 566.701 1.75986 0.832891 0
M  V30 6013 H 564.872 1.97607 3.34374 0
M  V30 6014 H 566.604 2.22042 3.38348 0
M  V30 6015 H 563.359 4.03002 2.4877 0
M  V30 6016 H 563.783 6.54239 1.74068 0
M  V30 6017 H 568.425 3.66274 2.11194 0
M  V30 6018 H 566.143 8.00302 1.11995 0
M  V30 6019 H 569.729 5.64421 1.4114 0
M  V30 6020 H 568.609 7.78743 0.923502 0
M  V30 6021 N 566.112 -0.949982 1.2575 0
M  V30 6022 C 567.34 -1.72972 1.13527 0
M  V30 6023 C 567.755 -1.8623 -0.310453 0
M  V30 6024 O 567.112 -1.36336 -1.2132 0
M  V30 6025 C 567.163 -3.14108 1.78936 0
M  V30 6026 O 566.884 -3.01493 3.17858 0
M  V30 6027 C 568.385 -4.08338 1.72554 0
M  V30 6028 H 565.605 -0.541864 0.395758 0
M  V30 6029 H 568.149 -1.19151 1.66202 0
M  V30 6030 H 566.304 -3.64858 1.30221 0
M  V30 6031 H 566.718 -3.90559 3.50092 0
M  V30 6032 H 568.192 -5.04963 2.22973 0
M  V30 6033 H 568.669 -4.33742 0.690251 0
M  V30 6034 H 569.275 -3.63506 2.2078 0
M  V30 6035 N 567.59 -1.07411 -1.15328 0
M  V30 6036 C 568.52 -0.716472 -2.22236 0
M  V30 6037 C 569.501 0.296373 -1.67498 0
M  V30 6038 O 570.686 0.168989 -1.93463 0
M  V30 6039 C 567.816 -0.114142 -3.47112 0
M  V30 6040 C 566.77 -1.05421 -4.14814 0
M  V30 6041 C 566.096 -0.314604 -5.33774 0
M  V30 6042 C 567.396 -2.38808 -4.64508 0
M  V30 6043 H 569.09 -1.61029 -2.52408 0
M  V30 6044 H 566.636 -0.775702 -1.21321 0
M  V30 6045 H 568.589 0.148001 -4.2114 0
M  V30 6046 H 567.313 0.814755 -3.16274 0
M  V30 6047 H 565.972 -1.30128 -3.42728 0
M  V30 6048 H 565.62 0.617772 -4.99192 0
M  V30 6049 H 565.32 -0.941209 -5.80013 0
M  V30 6050 H 566.844 -0.0602747 -6.1057 0
M  V30 6051 H 568.258 -2.18424 -5.3006 0
M  V30 6052 H 566.655 -2.97069 -5.21412 0
M  V30 6053 H 567.725 -3.01067 -3.80114 0
M  V30 6054 N 569.068 1.32177 -0.85831 0
M  V30 6055 C 570.479 1.79381 -0.517621 0
M  V30 6056 C 570.83 1.70841 0.964769 0
M  V30 6057 O 569.955 1.26917 1.75274 0
M  V30 6058 C 570.55 3.25706 -0.932801 0
M  V30 6059 C 569.109 3.70851 -0.643953 0
M  V30 6060 C 568.256 2.53208 -1.13054 0
M  V30 6061 H 571.207 1.19424 -1.04516 0
M  V30 6062 H 571.228 3.79673 -0.250674 0
M  V30 6063 H 570.74 3.31889 -2.01174 0
M  V30 6064 H 568.841 3.70178 0.424112 0
M  V30 6065 H 568.954 4.63495 -1.21281 0
M  V30 6066 H 567.318 2.48676 -0.550679 0
M  V30 6067 H 568.101 2.62143 -2.21666 0
M  V30 6068 N 570.547 0.616602 1.45037 0
M  V30 6069 C 571.958 0.199359 1.85633 0
M  V30 6070 C 572.309 -1.24588 1.51566 0
M  V30 6071 O 571.434 -1.94594 0.94668 0
M  V30 6072 C 572.029 0.355033 3.36935 0
M  V30 6073 C 570.588 -0.00758748 3.76399 0
M  V30 6074 C 569.735 0.675256 2.68953 0
M  V30 6075 H 572.686 0.822708 1.3571 0
M  V30 6076 H 572.707 -0.410201 3.78282 0
M  V30 6077 H 572.219 1.40699 3.61698 0
M  V30 6078 H 570.32 -1.05837 3.57252 0
M  V30 6079 H 570.433 0.392346 4.77491 0
M  V30 6080 H 568.797 0.111992 2.54454 0
M  V30 6081 H 569.58 1.72952 2.96551 0
M  V30 6082 N 572.025 -1.5352 0.356285 0
M  V30 6083 C 572.935 -2.29151 -0.502712 0
M  V30 6084 C 573.951 -1.34753 -1.1008 0
M  V30 6085 O 575.127 -1.67803 -1.11374 0
M  V30 6086 C 572.192 -3.05911 -1.63154 0
M  V30 6087 C 571.253 -4.15958 -1.06194 0
M  V30 6088 C 570.486 -4.8905 -2.13696 0
M  V30 6089 O 570.709 -4.61919 -3.34645 0
M  V30 6090 O 569.643 -5.75202 -1.77275 0
M  V30 6091 H 573.469 -3.03492 0.112466 0
M  V30 6092 H 571.054 -1.4891 0.120942 0
M  V30 6093 H 572.936 -3.53874 -2.28804 0
M  V30 6094 H 571.611 -2.34415 -2.23229 0
M  V30 6095 H 570.518 -3.7227 -0.369603 0
M  V30 6096 H 571.851 -4.89593 -0.505872 0
M  V30 6097 N 573.503 -0.0852151 -1.57369 0
M  V30 6098 C 574.743 0.584297 -1.95871 0
M  V30 6099 C 575.107 1.6596 -0.965473 0
M  V30 6100 O 576.308 2.38561 -1.23862 0
M  V30 6101 C 574.579 1.13411 -3.38929 0
M  V30 6102 S 576.138 1.81687 -3.99419 0
M  V30 6103 H 572.956 0.19095 -0.684879 0
M  V30 6104 H 575.558 -0.162267 -1.94825 0
M  V30 6105 H 574.262 0.339845 -4.0899 0
M  V30 6106 H 573.793 1.91672 -3.43548 0
M  V30 6107 H 575.808 3.10037 -3.87417 0
M  V30 6108 N 574.981 1.5647 0.188427 0
M  V30 6109 C 576.227 1.81281 0.909124 0
M  V30 6110 C 576.56 0.66034 1.82628 0
M  V30 6111 O 575.835 -0.338737 1.91528 0
M  V30 6112 C 576.118 3.16388 1.7196 0
M  V30 6113 C 575.971 4.42137 0.826714 0
M  V30 6114 C 577.29 3.48256 2.69083 0
M  V30 6115 H 574.409 0.659457 0.329068 0
M  V30 6116 H 577.051 1.89182 0.176156 0
M  V30 6117 H 575.201 3.09784 2.34448 0
M  V30 6118 H 576.873 4.60794 0.216025 0
M  V30 6119 H 575.116 4.33594 0.133792 0
M  V30 6120 H 575.787 5.33184 1.42893 0
M  V30 6121 H 578.263 3.55203 2.16726 0
M  V30 6122 H 577.139 4.43899 3.2287 0
M  V30 6123 H 577.4 2.72088 3.48455 0
M  V30 6124 N 576.459 -0.456382 1.50847 0
M  V30 6125 C 577.369 -1.57805 1.73594 0
M  V30 6126 C 578.385 -1.62599 0.619476 0
M  V30 6127 O 579.561 -1.80195 0.899532 0
M  V30 6128 C 576.626 -2.93926 1.8387 0
M  V30 6129 C 575.687 -2.99402 3.07663 0
M  V30 6130 C 574.92 -4.29031 3.1744 0
M  V30 6131 O 575.143 -5.20358 2.33631 0
M  V30 6132 O 574.077 -4.40401 4.10281 0
M  V30 6133 H 577.903 -1.41531 2.68705 0
M  V30 6134 H 575.488 -0.637422 1.3512 0
M  V30 6135 H 577.37 -3.74747 1.92725 0
M  V30 6136 H 576.045 -3.10368 0.91944 0
M  V30 6137 H 574.952 -2.17606 3.043 0
M  V30 6138 H 576.285 -2.87901 3.99216 0
M  V30 6139 N 577.937 -1.40673 -0.710563 0
M  V30 6140 C 578.885 -1.41517 -1.84596 0
M  V30 6141 C 579.879 -0.295043 -1.66811 0
M  V30 6142 O 581.085 -0.466331 -1.73854 0
M  V30 6143 H 577.46 -0.442467 -0.608052 0
M  V30 6144 H 579.431 -2.37238 -1.80999 0
M  V30 6145 C 578.18 -1.29957 -3.225 0
M  V30 6146 H 577.503 -2.15429 -3.36794 0
M  V30 6147 H 578.943 -1.34608 -4.02066 0
M  V30 6148 C 577.402 -0.0103164 -3.36898 0
M  V30 6149 O 577.932 0.950707 -3.90288 0
M  V30 6150 N 576.138 0.0608409 -2.90536 0
M  V30 6151 H 575.685 -0.721943 -2.47277 0
M  V30 6152 H 575.643 0.92292 -3.00549 0
M  V30 6153 N 579.415 0.9433 -1.26252 0
M  V30 6154 C 580.363 2.06302 -1.07434 0
M  V30 6155 C 581.357 1.694 -0.00189471 0
M  V30 6156 O 582.563 1.79302 -0.158408 0
M  V30 6157 H 578.938 0.675453 -0.330556 0
M  V30 6158 H 580.909 2.19326 -2.02333 0
M  V30 6159 C 579.658 3.40125 -0.721817 0
M  V30 6160 H 578.981 3.68996 -1.5389 0
M  V30 6161 H 580.421 4.19295 -0.629922 0
M  V30 6162 C 578.88 3.31993 0.572902 0
M  V30 6163 O 579.41 3.67945 1.61182 0
M  V30 6164 N 577.616 2.85099 0.562748 0
M  V30 6165 H 577.163 2.5604 -0.283092 0
M  V30 6166 H 577.121 2.80041 1.42915 0
M  V30 6167 N 580.893 1.08022 1.14757 0
M  V30 6168 C 581.803 0.718292 2.23333 0
M  V30 6169 C 582.819 -0.273477 1.71837 0
M  V30 6170 O 583.995 -0.118406 2.01052 0
M  V30 6171 C 581.06 0.128855 3.4646 0
M  V30 6172 C 580.121 1.17473 4.12915 0
M  V30 6173 C 579.354 0.61333 5.30164 0
M  V30 6174 O 579.577 -0.568458 5.6756 0
M  V30 6175 O 578.511 1.3615 5.86299 0
M  V30 6176 H 582.337 1.62394 2.56636 0
M  V30 6177 H 579.922 0.853628 1.22611 0
M  V30 6178 H 581.804 -0.197249 4.20938 0
M  V30 6179 H 580.479 -0.750014 3.14891 0
M  V30 6180 H 579.386 1.5533 3.40328 0
M  V30 6181 H 580.719 2.02574 4.48581 0
M  V30 6182 N 582.371 -1.3172 0.865308 0
M  V30 6183 C 583.319 -2.30569 0.306674 0
M  V30 6184 C 584.313 -1.59317 -0.575724 0
M  V30 6185 O 585.519 -1.73961 -0.462343 0
M  V30 6186 H 581.894 -0.747681 0.0804834 0
M  V30 6187 H 583.865 -2.75165 1.15441 0
M  V30 6188 C 582.614 -3.44358 -0.480952 0
M  V30 6189 H 581.937 -3.99354 0.18876 0
M  V30 6190 H 583.377 -4.15652 -0.837241 0
M  V30 6191 C 581.836 -2.92574 -1.67039 0
M  V30 6192 O 582.366 -2.90954 -2.76964 0
M  V30 6193 N 580.572 -2.48835 -1.50097 0
M  V30 6194 H 580.119 -2.50353 -0.606738 0
M  V30 6195 H 580.077 -2.14543 -2.29823 0
M  V30 6196 N 583.85 -0.624285 -1.44708 0
M  V30 6197 C 585.09 -0.129273 -2.03991 0
M  V30 6198 C 585.454 1.22321 -1.47992 0
M  V30 6199 O 586.654 1.80993 -1.98734 0
M  V30 6200 C 584.926 -0.108231 -3.57236 0
M  V30 6201 S 586.485 0.323158 -4.37608 0
M  V30 6202 H 583.303 -0.0577318 -0.708652 0
M  V30 6203 H 585.904 -0.826139 -1.77187 0
M  V30 6204 H 584.609 -1.0958 -3.955 0
M  V30 6205 H 584.139 0.610101 -3.8864 0
M  V30 6206 H 586.154 1.56894 -4.70743 0
M  V30 6207 N 585.328 1.53329 -0.364422 0
M  V30 6208 C 586.275 2.25698 0.482607 0
M  V30 6209 C 587.245 1.26325 1.07848 0
M  V30 6210 O 588.43 1.55104 1.11119 0
M  V30 6211 C 585.57 3.04873 1.61699 0
M  V30 6212 C 584.683 4.19135 1.0464 0
M  V30 6213 C 583.818 4.85754 2.14979 0
M  V30 6214 C 582.857 5.9205 1.5538 0
M  V30 6215 N 581.994 6.52365 2.59547 0
M  V30 6216 H 586.834 2.97666 -0.141032 0
M  V30 6217 H 584.371 1.46875 -0.0813692 0
M  V30 6218 H 586.329 3.49051 2.28516 0
M  V30 6219 H 584.959 2.35162 2.2113 0
M  V30 6220 H 584.011 3.79451 0.268553 0
M  V30 6221 H 585.323 4.95525 0.570653 0
M  V30 6222 H 584.477 5.3311 2.89619 0
M  V30 6223 H 583.216 4.08834 2.65906 0
M  V30 6224 H 582.221 5.44058 0.792549 0
M  V30 6225 H 583.446 6.7089 1.0528 0
M  V30 6226 H 581.392 5.78298 3.09689 0
M  V30 6227 H 581.309 7.2429 2.16655 0
M  V30 6228 H 582.577 7.0437 3.33892 0
M  V30 6229 N 586.806 0.0935595 1.57322 0
M  V30 6230 C 587.756 -0.876521 2.10478 0
M  V30 6231 C 588.74 -1.24482 1.01946 0
M  V30 6232 O 589.932 -1.22016 1.28223 0
M  V30 6233 C 587.061 -2.13615 2.68745 0
M  V30 6234 C 586.147 -1.79335 3.84317 0
M  V30 6235 N 586.538 -1.15606 4.92411 0
M  V30 6236 C 584.836 -2.08954 3.94023 0
M  V30 6237 C 585.537 -0.999036 5.73057 0
M  V30 6238 N 584.513 -1.51585 5.22037 0
M  V30 6239 H 588.315 -0.379829 2.91435 0
M  V30 6240 H 585.829 -0.109699 1.62029 0
M  V30 6241 H 587.826 -2.84053 3.05155 0
M  V30 6242 H 586.486 -2.63851 1.89242 0
M  V30 6243 H 587.497 -0.823063 5.11318 0
M  V30 6244 H 584.174 -2.61416 3.25527 0
M  V30 6245 H 585.564 -0.500772 6.70031 0
M  V30 6246 N 588.284 -1.56567 -0.180126 0
M  V30 6247 C 589.695 -1.7126 -0.743422 0
M  V30 6248 C 590.046 -0.70263 -1.83187 0
M  V30 6249 O 589.171 0.137856 -2.1596 0
M  V30 6250 C 589.766 -3.10512 -1.35528 0
M  V30 6251 C 588.325 -3.26919 -1.8655 0
M  V30 6252 C 587.472 -2.67213 -0.741099 0
M  V30 6253 H 590.423 -1.58636 0.0451543 0
M  V30 6254 H 590.444 -3.08673 -2.22489 0
M  V30 6255 H 589.956 -3.83997 -0.562862 0
M  V30 6256 H 588.057 -2.58376 -2.68464 0
M  V30 6257 H 588.17 -4.34574 -2.01699 0
M  V30 6258 H 586.534 -2.26788 -1.15927 0
M  V30 6259 H 587.317 -3.43277 0.0393291 0
M  V30 6260 N 589.762 0.448376 -1.51087 0
M  V30 6261 C 591.173 1.0286 -1.5581 0
M  V30 6262 C 591.524 1.92583 -0.374989 0
M  V30 6263 O 590.649 2.10316 0.509533 0
M  V30 6264 C 591.244 1.87223 -2.8237 0
M  V30 6265 C 589.803 2.40314 -2.897 0
M  V30 6266 C 588.95 1.19238 -2.50355 0
M  V30 6267 H 591.901 0.230075 -1.57023 0
M  V30 6268 H 591.922 2.72553 -2.6551 0
M  V30 6269 H 591.434 1.21894 -3.68461 0
M  V30 6270 H 589.535 3.09129 -2.08014 0
M  V30 6271 H 589.648 2.73866 -3.93108 0
M  V30 6272 H 588.012 1.53428 -2.03303 0
M  V30 6273 H 588.795 0.555367 -3.38778 0
M  V30 6274 N 591.24 1.41047 0.703093 0
M  V30 6275 C 592.486 1.40207 1.46526 0
M  V30 6276 C 592.819 0.00847763 1.94198 0
M  V30 6277 O 592.094 -0.962437 1.69019 0
M  V30 6278 C 592.377 2.40238 2.6825 0
M  V30 6279 C 592.23 3.88674 2.26391 0
M  V30 6280 C 593.549 2.37627 3.70434 0
M  V30 6281 H 590.668 0.510594 0.531472 0
M  V30 6282 H 593.31 1.72271 0.801422 0
M  V30 6283 H 591.46 2.13026 3.24888 0
M  V30 6284 H 593.132 4.2676 1.75138 0
M  V30 6285 H 591.375 4.03903 1.58255 0
M  V30 6286 H 592.046 4.542 3.13698 0
M  V30 6287 H 594.522 2.61759 3.23452 0
M  V30 6288 H 593.398 3.09645 4.53223 0
M  V30 6289 H 593.659 1.39223 4.19606 0
M  V30 6290 N 592.718 -0.936591 1.26751 0
M  V30 6291 C 593.964 -1.6858 1.12733 0
M  V30 6292 C 594.297 -1.91414 -0.327745 0
M  V30 6293 O 593.572 -1.49812 -1.24043 0
M  V30 6294 C 593.855 -3.05779 1.90187 0
M  V30 6295 C 593.708 -2.90242 3.43627 0
M  V30 6296 C 595.027 -4.0597 1.69931 0
M  V30 6297 H 592.146 -0.61182 0.410908 0
M  V30 6298 H 594.788 -1.08747 1.55801 0
M  V30 6299 H 592.938 -3.56853 1.53584 0
M  V30 6300 H 594.61 -2.46354 3.9001 0
M  V30 6301 H 592.853 -2.2577 3.70419 0
M  V30 6302 H 593.524 -3.87572 3.93055 0
M  V30 6303 H 596 -3.63874 2.0183 0
M  V30 6304 H 594.876 -4.99974 2.26534 0
M  V30 6305 H 595.137 -4.37369 0.64502 0
M  V30 6306 N 594.196 -1.08629 -1.14182 0
M  V30 6307 C 595.129 -0.662329 -2.18377 0
M  V30 6308 C 596.107 0.327054 -1.59277 0
M  V30 6309 O 597.291 0.230376 -1.87087 0
M  V30 6310 C 594.418 0.0254765 -3.3869 0
M  V30 6311 C 593.464 -0.924414 -4.16361 0
M  V30 6312 S 594.297 -2.43226 -4.77076 0
M  V30 6313 C 595.453 -1.75663 -6.00744 0
M  V30 6314 H 595.686 -1.54501 -2.54001 0
M  V30 6315 H 593.219 -0.901484 -1.2535 0
M  V30 6316 H 595.177 0.416032 -4.08386 0
M  V30 6317 H 593.838 0.884689 -3.01384 0
M  V30 6318 H 593.031 -0.390099 -5.02488 0
M  V30 6319 H 592.633 -1.25598 -3.5228 0
M  V30 6320 H 594.925 -1.07589 -6.68903 0
M  V30 6321 H 595.868 -2.59673 -6.58768 0
M  V30 6322 H 596.276 -1.22903 -5.50958 0
M  V30 6323 N 595.674 1.31259 -0.872281 0
M  V30 6324 C 596.622 2.30404 -0.318897 0
M  V30 6325 C 597.616 1.5962 0.567267 0
M  V30 6326 O 598.822 1.74204 0.453111 0
M  V30 6327 H 595.197 0.747243 -0.0844474 0
M  V30 6328 H 597.168 2.74549 -1.16899 0
M  V30 6329 C 595.917 3.44608 0.462683 0
M  V30 6330 H 595.24 3.99248 -0.209936 0
M  V30 6331 H 596.68 4.1609 0.815187 0
M  V30 6332 C 595.139 2.93456 1.65485 0
M  V30 6333 O 595.669 2.92418 2.75417 0
M  V30 6334 N 593.875 2.49628 1.48776 0
M  V30 6335 H 593.422 2.50671 0.593452 0
M  V30 6336 H 593.38 2.15759 2.28682 0
M  V30 6337 N 597.152 0.631951 1.44375 0
M  V30 6338 C 598.4 0.136497 2.01639 0
M  V30 6339 C 598.721 -1.24637 1.49969 0
M  V30 6340 O 597.991 -1.82827 0.70363 0
M  V30 6341 H 596.571 0.0474703 0.74549 0
M  V30 6342 H 599.233 0.818837 1.76865 0
M  V30 6343 H 598.329 0.104817 3.11924 0
M  V30 6344 N 598.631 -1.53133 0.372548 0
M  V30 6345 C 599.594 -2.24569 -0.458389 0
M  V30 6346 C 600.594 -1.25603 -1.00402 0
M  V30 6347 O 601.784 -1.49827 -0.888672 0
M  V30 6348 C 598.916 -2.98783 -1.6414 0
M  V30 6349 H 600.109 -2.99436 0.166799 0
M  V30 6350 H 597.662 -1.55805 0.124357 0
M  V30 6351 H 598.397 -2.28176 -2.30448 0
M  V30 6352 H 598.182 -3.71404 -1.25704 0
M  V30 6353 H 599.672 -3.53068 -2.23008 0
M  V30 6354 N 600.109 -0.101901 -1.5727 0
M  V30 6355 C 601.355 0.561027 -1.94885 0
M  V30 6356 C 601.688 1.6741 -0.984258 0
M  V30 6357 O 600.963 1.94491 -0.0184767 0
M  V30 6358 C 601.246 1.10982 -3.42571 0
M  V30 6359 C 601.099 0.00133418 -4.498 0
M  V30 6360 C 602.418 2.00608 -3.9172 0
M  V30 6361 H 599.537 0.202467 -0.708644 0
M  V30 6362 H 602.179 -0.173992 -1.89202 0
M  V30 6363 H 600.329 1.73621 -3.47546 0
M  V30 6364 H 602.001 -0.63322 -4.56933 0
M  V30 6365 H 600.244 -0.664143 -4.28686 0
M  V30 6366 H 600.915 0.426253 -5.50352 0
M  V30 6367 H 603.391 1.47864 -3.88941 0
M  V30 6368 H 602.267 2.3593 -4.95609 0
M  V30 6369 H 602.528 2.92608 -3.3141 0
M  V30 6370 N 601.587 1.56661 0.17182 0
M  V30 6371 C 602.55 1.9549 1.19651 0
M  V30 6372 C 603.55 0.838501 1.37207 0
M  V30 6373 O 604.74 1.10556 1.34622 0
M  V30 6374 C 601.872 2.24927 2.56166 0
M  V30 6375 H 603.065 2.87184 0.864007 0
M  V30 6376 H 600.618 1.50711 0.41425 0
M  V30 6377 H 601.353 1.35944 2.94431 0
M  V30 6378 H 601.138 3.06301 2.4479 0
M  V30 6379 H 602.628 2.55891 3.30014 0
M  V30 6380 N 603.065 -0.440357 1.51323 0
M  V30 6381 C 604.342 -1.20109 1.5438 0
M  V30 6382 C 604.722 -2.08866 0.306303 0
M  V30 6383 O 604.07 -2.1723 -0.708773 0
M  V30 6384 C 604.28 -2.00555 2.8562 0
M  V30 6385 C 605.628 -2.577 3.37455 0
M  V30 6386 O 606.652 -2.10769 2.8715 0
M  V30 6387 O 605.511 -3.43289 4.25224 0
M  V30 6388 H 602.605 -0.546668 0.620551 0
M  V30 6389 H 605.151 -0.449672 1.63634 0
M  V30 6390 H 603.923 -1.35346 3.67147 0
M  V30 6391 H 603.546 -2.82768 2.79514 0
M  V30 6392 N 604.543 -1.41418 -0.695603 0
M  V30 6393 C 605.791 -1.40496 -1.45277 0
M  V30 6394 C 606.112 -0.0149538 -1.94994 0
M  V30 6395 O 605.382 0.9432 -1.71699 0
M  V30 6396 H 603.962 -0.517147 -0.539044 0
M  V30 6397 H 606.624 -1.76656 -0.823321 0
M  V30 6398 H 605.72 -2.09214 -2.31595 0
M  V30 6399 N 606.021 0.929856 -1.27246 0
M  V30 6400 C 607.27 1.67182 -1.12842 0
M  V30 6401 C 607.583 1.9287 0.325666 0
M  V30 6402 O 608.789 2.64999 0.590572 0
M  V30 6403 C 607.245 3.01097 -1.97151 0
M  V30 6404 C 606.853 2.83115 -3.47203 0
M  V30 6405 C 608.597 3.78907 -1.91389 0
M  V30 6406 C 606.504 4.12573 -4.23719 0
M  V30 6407 H 605.434 0.627064 -0.418697 0
M  V30 6408 H 608.085 1.0332 -1.51649 0
M  V30 6409 H 606.467 3.66004 -1.51186 0
M  V30 6410 H 607.641 2.26989 -4.01015 0
M  V30 6411 H 605.956 2.18736 -3.54321 0
M  V30 6412 H 608.553 4.74837 -2.45834 0
M  V30 6413 H 608.896 4.0674 -0.887047 0
M  V30 6414 H 609.429 3.20794 -2.35237 0
M  V30 6415 H 606.168 3.8992 -5.26918 0
M  V30 6416 H 605.688 4.68371 -3.74685 0
M  V30 6417 H 607.367 4.8095 -4.32777 0
M  V30 6418 N 607.499 1.09233 1.13605 0
M  V30 6419 C 608.429 0.751738 2.21068 0
M  V30 6420 C 609.41 -0.269688 1.67948 0
M  V30 6421 O 610.595 -0.13819 1.93708 0
M  V30 6422 C 607.725 0.16935 3.46887 0
M  V30 6423 C 606.679 1.12007 4.13084 0
M  V30 6424 C 606.005 0.399483 5.33206 0
M  V30 6425 C 607.305 2.46168 4.6065 0
M  V30 6426 H 608.999 1.65024 2.49815 0
M  V30 6427 H 606.545 0.794905 1.20072 0
M  V30 6428 H 608.498 -0.0809824 4.21322 0
M  V30 6429 H 607.222 -0.764335 3.1753 0
M  V30 6430 H 605.881 1.35564 3.40614 0
M  V30 6431 H 605.529 -0.538277 5.00112 0
M  V30 6432 H 605.229 1.03337 5.78442 0
M  V30 6433 H 606.753 0.157403 6.10397 0
M  V30 6434 H 608.167 2.26829 5.26518 0
M  V30 6435 H 606.564 3.05326 5.1662 0
M  V30 6436 H 607.634 3.07076 3.75276 0
M  V30 6437 N 608.977 -1.30795 0.87923 0
M  V30 6438 C 609.94 -2.26563 0.346676 0
M  V30 6439 C 610.94 -1.52578 -0.507597 0
M  V30 6440 O 612.13 -1.71318 -0.315575 0
M  V30 6441 C 609.262 -3.37115 -0.506611 0
M  V30 6442 H 610.455 -2.75183 1.19223 0
M  V30 6443 H 608.008 -1.41886 0.655598 0
M  V30 6444 H 608.743 -2.93802 -1.37299 0
M  V30 6445 H 608.528 -3.91959 0.105218 0
M  V30 6446 H 610.018 -4.08412 -0.871192 0
M  V30 6447 N 610.455 -0.639598 -1.44038 0
M  V30 6448 C 611.68 -0.153117 -2.06834 0
M  V30 6449 C 612.105 1.16676 -1.47541 0
M  V30 6450 O 611.463 1.71769 -0.580093 0
M  V30 6451 C 611.511 -0.0609169 -3.60549 0
M  V30 6452 O 610.615 0.98071 -4.00569 0
M  V30 6453 H 609.956 -0.0886402 -0.658057 0
M  V30 6454 H 612.486 -0.878674 -1.84771 0
M  V30 6455 H 612.496 0.126892 -4.07803 0
M  V30 6456 H 611.171 -1.0245 -4.03084 0
M  V30 6457 H 609.748 0.766789 -3.64931 0
M  V30 6458 N 611.933 1.52934 -0.380664 0
M  V30 6459 C 613.163 2.05587 0.204302 0
M  V30 6460 C 613.571 1.25288 1.41773 0
M  V30 6461 O 612.914 0.290394 1.8139 0
M  V30 6462 C 612.976 3.53624 0.647324 0
M  V30 6463 C 612.64 4.54765 -0.451465 0
M  V30 6464 C 613.637 5.03226 -1.30614 0
M  V30 6465 C 611.322 4.98508 -0.616025 0
M  V30 6466 C 613.316 5.94046 -2.31058 0
M  V30 6467 C 611.003 5.89131 -1.62381 0
M  V30 6468 C 612.001 6.36792 -2.46952 0
M  V30 6469 O 611.689 7.25626 -3.46009 0
M  V30 6470 H 611.421 0.675013 0.0365198 0
M  V30 6471 H 613.975 1.98125 -0.541827 0
M  V30 6472 H 612.205 3.58676 1.44529 0
M  V30 6473 H 613.894 3.89061 1.15698 0
M  V30 6474 H 614.66 4.70167 -1.19027 0
M  V30 6475 H 610.539 4.60989 0.0324987 0
M  V30 6476 H 614.083 6.3117 -2.97104 0
M  V30 6477 H 609.98 6.21603 -1.7401 0
M  V30 6478 H 610.748 7.43664 -3.41916 0
M  V30 6479 N 613.412 0.11024 1.57214 0
M  V30 6480 C 614.375 -0.828808 2.1369 0
M  V30 6481 C 615.375 -1.20059 1.06969 0
M  V30 6482 O 616.565 -1.12754 1.32786 0
M  V30 6483 C 613.697 -2.11959 2.66994 0
M  V30 6484 H 614.89 -0.338146 2.97988 0
M  V30 6485 H 612.443 -0.138913 1.55681 0
M  V30 6486 H 613.178 -2.65476 1.8626 0
M  V30 6487 H 612.963 -1.86258 3.45037 0
M  V30 6488 H 614.453 -2.79105 3.10629 0
M  V30 6489 N 614.89 -1.56749 -0.16351 0
M  V30 6490 C 616.118 -1.86577 -0.894233 0
M  V30 6491 C 616.533 -0.696543 -1.75481 0
M  V30 6492 O 615.89 0.334161 -1.79415 0
M  V30 6493 C 615.941 -3.15508 -1.76456 0
M  V30 6494 O 615.662 -4.27926 -0.938685 0
M  V30 6495 C 617.163 -3.58737 -2.60428 0
M  V30 6496 H 614.383 -0.618829 -0.259405 0
M  V30 6497 H 616.927 -2.03863 -0.161259 0
M  V30 6498 H 615.082 -3.00025 -2.45079 0
M  V30 6499 H 615.496 -5.01546 -1.53465 0
M  V30 6500 H 616.97 -4.51832 -3.17099 0
M  V30 6501 H 617.447 -2.83229 -3.35675 0
M  V30 6502 H 618.053 -3.76858 -1.97125 0
M  V30 6503 N 616.368 0.432326 -1.51554 0
M  V30 6504 C 617.616 1.17901 -1.64146 0
M  V30 6505 C 617.937 1.91604 -0.362367 0
M  V30 6506 O 617.207 1.85764 0.621968 0
M  V30 6507 H 615.787 0.438206 -0.604966 0
M  V30 6508 H 618.449 0.495172 -1.88505 0
M  V30 6509 H 617.545 1.90584 -2.47152 0
M  V30 6510 N 617.846 1.41785 0.688094 0
M  V30 6511 C 619.071 1.45117 1.48175 0
M  V30 6512 C 619.496 0.060129 1.88004 0
M  V30 6513 O 618.854 -0.938385 1.55126 0
M  V30 6514 C 618.902 2.37224 2.71583 0
M  V30 6515 O 618.006 1.83443 3.69354 0
M  V30 6516 H 617.347 0.492208 0.445676 0
M  V30 6517 H 619.877 1.86329 0.845145 0
M  V30 6518 H 619.887 2.53353 3.19806 0
M  V30 6519 H 618.562 3.38293 2.41931 0
M  V30 6520 H 617.139 1.76802 3.28322 0
M  V30 6521 N 619.324 -0.923095 1.27737 0
M  V30 6522 C 620.549 -1.71054 1.17283 0
M  V30 6523 C 620.974 -1.86208 -0.266153 0
M  V30 6524 O 620.332 -1.36545 -1.1927 0
M  V30 6525 C 620.38 -3.0854 1.86642 0
M  V30 6526 O 619.484 -3.95528 1.16752 0
M  V30 6527 H 618.825 -0.524136 0.407649 0
M  V30 6528 H 621.355 -1.15487 1.6889 0
M  V30 6529 H 621.365 -3.58828 1.94182 0
M  V30 6530 H 620.04 -2.96828 2.91317 0
M  V30 6531 H 618.617 -3.53967 1.17312 0
M  V30 6532 N 620.802 -1.09834 -1.13024 0
M  V30 6533 C 622.048 -0.83819 -1.84668 0
M  V30 6534 C 622.381 0.634645 -1.83537 0
M  V30 6535 O 621.656 1.46753 -1.27647 0
M  V30 6536 C 621.939 -1.37933 -3.32636 0
M  V30 6537 C 621.792 -2.91857 -3.42257 0
M  V30 6538 C 623.111 -1.01654 -4.28199 0
M  V30 6539 H 620.23 -0.30595 -0.670495 0
M  V30 6540 H 622.872 -1.36044 -1.32635 0
M  V30 6541 H 621.022 -0.935111 -3.77078 0
M  V30 6542 H 622.694 -3.44759 -3.06495 0
M  V30 6543 H 620.937 -3.28776 -2.83 0
M  V30 6544 H 621.608 -3.24799 -4.46329 0
M  V30 6545 H 624.084 -1.39973 -3.9185 0
M  V30 6546 H 622.96 -1.42217 -5.30156 0
M  V30 6547 H 623.221 0.0747794 -4.42037 0
M  V30 6548 N 622.28 1.30327 -0.886154 0
M  V30 6549 C 623.19 2.31854 -0.357866 0
M  V30 6550 C 624.206 1.65392 0.540502 0
M  V30 6551 O 625.382 1.96683 0.433339 0
M  V30 6552 C 622.447 3.44171 0.417999 0
M  V30 6553 C 621.508 4.26257 -0.510263 0
M  V30 6554 C 620.741 5.3321 0.228669 0
M  V30 6555 O 620.964 5.51542 1.45458 0
M  V30 6556 O 619.898 6.0042 -0.421832 0
M  V30 6557 H 623.724 2.78995 -1.19982 0
M  V30 6558 H 621.309 1.34518 -0.650028 0
M  V30 6559 H 623.191 4.12588 0.857251 0
M  V30 6560 H 621.866 2.99164 1.23623 0
M  V30 6561 H 620.773 3.60533 -0.99835 0
M  V30 6562 H 622.106 4.74871 -1.29454 0
M  V30 6563 N 623.758 0.647228 1.43697 0
M  V30 6564 C 624.988 0.16551 2.05936 0
M  V30 6565 C 625.396 -1.17164 1.48557 0
M  V30 6566 O 624.739 -1.73307 0.60914 0
M  V30 6567 C 624.801 -0.00648082 3.59499 0
M  V30 6568 C 624.465 1.25503 4.39429 0
M  V30 6569 C 625.462 2.18241 4.71876 0
M  V30 6570 C 623.147 1.49494 4.79538 0
M  V30 6571 C 625.141 3.33268 5.43333 0
M  V30 6572 C 622.828 2.64815 5.50742 0
M  V30 6573 C 623.826 3.56528 5.82561 0
M  V30 6574 O 623.514 4.69836 6.52311 0
M  V30 6575 H 623.246 0.0844124 0.670709 0
M  V30 6576 H 625.8 0.88638 1.8529 0
M  V30 6577 H 624.03 -0.782661 3.78697 0
M  V30 6578 H 625.719 -0.444794 4.03456 0
M  V30 6579 H 626.485 2.00946 4.41413 0
M  V30 6580 H 622.364 0.789912 4.54182 0
M  V30 6581 H 625.908 4.04874 5.68087 0
M  V30 6582 H 621.805 2.82047 5.8062 0
M  V30 6583 H 622.573 4.69024 6.70789 0
M  V30 6584 N 625.236 -1.5273 0.388769 0
M  V30 6585 C 626.652 -1.59553 0.0387049 0
M  V30 6586 C 626.852 -1.40278 -1.44652 0
M  V30 6587 O 625.908 -1.21951 -2.21098 0
M  V30 6588 C 627.221 -2.9625 0.515409 0
M  V30 6589 C 628.769 -3.09426 0.471621 0
M  V30 6590 C 629.244 -4.48572 0.924505 0
M  V30 6591 N 630.735 -4.54754 0.880496 0
M  V30 6592 C 631.47 -5.60653 1.20234 0
M  V30 6593 N 630.966 -6.74198 1.59463 0
M  V30 6594 N 632.759 -5.50755 1.12363 0
M  V30 6595 H 624.91 -1.63508 1.35569 0
M  V30 6596 H 627.173 -0.768097 0.555636 0
M  V30 6597 H 626.879 -3.15569 1.5527 0
M  V30 6598 H 626.753 -3.77102 -0.085792 0
M  V30 6599 H 629.14 -2.89804 -0.556588 0
M  V30 6600 H 629.221 -2.30528 1.10862 0
M  V30 6601 H 628.865 -4.68936 1.95094 0
M  V30 6602 H 628.795 -5.25935 0.264524 0
M  V30 6603 H 631.286 -3.73237 0.591815 0
M  V30 6604 H 631.599 -7.5097 1.82385 0
M  V30 6605 H 629.944 -6.75531 1.63349 0
M  V30 6606 H 633.135 -4.6093 0.816169 0
M  V30 6607 H 633.308 -6.33184 1.37777 0
M  V30 6608 N 626.714 -0.118576 -1.57153 0
M  V30 6609 C 627.954 0.542618 -1.97066 0
M  V30 6610 C 628.318 1.63874 -1.00046 0
M  V30 6611 O 629.519 2.3588 -1.28895 0
M  V30 6612 C 627.79 1.06196 -3.41258 0
M  V30 6613 S 629.349 1.73174 -4.03183 0
M  V30 6614 H 626.167 0.17638 -0.688775 0
M  V30 6615 H 628.769 -0.203556 -1.94437 0
M  V30 6616 H 627.473 0.253016 -4.09619 0
M  V30 6617 H 627.004 1.84342 -3.47536 0
M  V30 6618 H 629.019 3.01749 -3.93906 0
M  V30 6619 N 628.193 1.56834 0.155195 0
M  V30 6620 C 629.141 1.98584 1.21107 0
M  V30 6621 C 630.135 0.876987 1.44932 0
M  V30 6622 O 631.341 1.06215 1.45322 0
M  V30 6623 H 627.716 0.632039 0.407469 0
M  V30 6624 H 629.687 2.86561 0.832195 0
M  V30 6625 C 628.436 2.37555 2.53895 0
M  V30 6626 H 627.759 3.22428 2.3639 0
M  V30 6627 H 629.199 2.70598 3.26424 0
M  V30 6628 C 627.658 1.22507 3.13837 0
M  V30 6629 O 628.188 0.521388 3.98302 0
M  V30 6630 N 626.394 0.991444 2.73164 0
M  V30 6631 H 625.941 1.56544 2.04577 0
M  V30 6632 H 625.899 0.223546 3.13604 0
M  V30 6633 N 629.671 -0.424282 1.51781 0
M  V30 6634 C 630.581 -1.54087 1.76902 0
M  V30 6635 C 631.597 -1.61249 0.653826 0
M  V30 6636 O 632.773 -1.78247 0.937552 0
M  V30 6637 C 629.838 -2.8996 1.90063 0
M  V30 6638 C 628.899 -2.92809 3.13945 0
M  V30 6639 C 628.132 -4.22201 3.26469 0
M  V30 6640 O 628.355 -5.15286 2.44616 0
M  V30 6641 O 627.289 -4.31599 4.1953 0
M  V30 6642 H 631.115 -1.358 2.71647 0
M  V30 6643 H 628.7 -0.608618 1.36441 0
M  V30 6644 H 630.582 -3.70575 2.0063 0
M  V30 6645 H 629.257 -3.08347 0.985067 0
M  V30 6646 H 628.164 -2.11102 3.08847 0
M  V30 6647 H 629.497 -2.79369 4.05233 0
M  V30 6648 N 631.149 -1.42148 -0.680565 0
M  V30 6649 C 632.379 -1.45485 -1.46689 0
M  V30 6650 C 632.787 -0.0629451 -1.89095 0
M  V30 6651 O 632.13 0.931397 -1.58337 0
M  V30 6652 C 632.192 -2.31397 -2.75129 0
M  V30 6653 C 631.856 -3.79353 -2.54834 0
M  V30 6654 C 632.853 -4.71148 -2.19808 0
M  V30 6655 C 630.538 -4.23557 -2.70008 0
M  V30 6656 C 632.532 -6.05139 -2.00215 0
M  V30 6657 C 630.219 -5.57609 -2.50031 0
M  V30 6658 C 631.217 -6.48216 -2.15187 0
M  V30 6659 O 630.905 -7.79792 -1.95397 0
M  V30 6660 H 630.637 -0.497139 -0.458071 0
M  V30 6661 H 633.191 -1.87252 -0.844139 0
M  V30 6662 H 631.421 -1.84468 -3.39865 0
M  V30 6663 H 633.11 -2.26257 -3.36991 0
M  V30 6664 H 633.876 -4.38282 -2.07686 0
M  V30 6665 H 629.755 -3.53327 -2.96109 0
M  V30 6666 H 633.299 -6.75823 -1.72941 0
M  V30 6667 H 629.196 -5.9005 -2.61748 0
M  V30 6668 H 629.964 -7.91091 -2.10042 0
M  V30 6669 N 632.627 0.916307 -1.28225 0
M  V30 6670 C 633.857 1.69654 -1.17902 0
M  V30 6671 C 634.265 1.87331 0.265268 0
M  V30 6672 O 633.608 1.39828 1.19137 0
M  V30 6673 C 633.67 3.11024 -1.80289 0
M  V30 6674 C 633.334 3.16643 -3.29525 0
M  V30 6675 C 634.331 2.98032 -4.25997 0
M  V30 6676 C 632.016 3.39238 -3.70436 0
M  V30 6677 C 634.01 3.01924 -5.61356 0
M  V30 6678 C 631.697 3.42762 -5.05922 0
M  V30 6679 C 632.695 3.24125 -6.01192 0
M  V30 6680 O 632.383 3.27406 -7.34208 0
M  V30 6681 H 632.115 0.537197 -0.41036 0
M  V30 6682 H 634.669 1.15547 -1.69817 0
M  V30 6683 H 632.899 3.66662 -1.22865 0
M  V30 6684 H 634.588 3.71063 -1.6452 0
M  V30 6685 H 635.354 2.80405 -3.95725 0
M  V30 6686 H 631.233 3.52791 -2.96749 0
M  V30 6687 H 634.777 2.87295 -6.35694 0
M  V30 6688 H 630.674 3.59916 -5.35846 0
M  V30 6689 H 631.442 3.43784 -7.42802 0
M  V30 6690 N 634.105 1.10431 1.1244 0
M  V30 6691 C 635.035 0.775143 2.20258 0
M  V30 6692 C 636.016 -0.25186 1.68225 0
M  V30 6693 O 637.201 -0.117637 1.93843 0
M  V30 6694 C 634.331 0.206133 3.46688 0
M  V30 6695 C 633.285 1.16382 4.11873 0
M  V30 6696 C 632.611 0.456014 5.32752 0
M  V30 6697 C 633.911 2.5104 4.58013 0
M  V30 6698 H 635.605 1.67665 2.4805 0
M  V30 6699 H 633.151 0.807595 1.19222 0
M  V30 6700 H 635.104 -0.036291 4.21384 0
M  V30 6701 H 633.828 -0.730614 3.18323 0
M  V30 6702 H 632.487 1.39169 3.39157 0
M  V30 6703 H 632.135 -0.485203 5.00654 0
M  V30 6704 H 631.835 1.09466 5.77314 0
M  V30 6705 H 633.359 0.222135 6.10196 0
M  V30 6706 H 634.773 2.32401 5.24083 0
M  V30 6707 H 633.17 3.10789 5.13352 0
M  V30 6708 H 634.24 3.11039 3.71998 0
M  V30 6709 N 635.583 -1.29855 0.893053 0
M  V30 6710 C 636.513 -2.3035 0.382249 0
M  V30 6711 C 637.494 -1.61328 -0.539203 0
M  V30 6712 O 638.679 -1.88882 -0.451342 0
M  V30 6713 C 635.809 -3.45024 -0.396983 0
M  V30 6714 C 634.763 -4.258 0.433437 0
M  V30 6715 C 634.089 -5.32605 -0.472889 0
M  V30 6716 C 635.389 -4.94549 1.67984 0
M  V30 6717 H 637.083 -2.73325 1.22205 0
M  V30 6718 H 634.629 -1.314 0.589073 0
M  V30 6719 H 636.582 -4.14398 -0.765024 0
M  V30 6720 H 635.306 -3.00875 -1.2705 0
M  V30 6721 H 633.965 -3.58125 0.783723 0
M  V30 6722 H 633.613 -4.84702 -1.34435 0
M  V30 6723 H 633.313 -5.87547 0.0789958 0
M  V30 6724 H 634.837 -6.04832 -0.837269 0
M  V30 6725 H 636.251 -5.56395 1.38192 0
M  V30 6726 H 634.648 -5.59393 2.17254 0
M  V30 6727 H 635.718 -4.20215 2.41965 0
M  V30 6728 N 637.061 -0.65484 -1.43351 0
M  V30 6729 C 638.477 -0.32255 -1.56307 0
M  V30 6730 C 638.677 1.17324 -1.63821 0
M  V30 6731 O 637.733 1.95813 -1.59417 0
M  V30 6732 C 639.046 -1.03533 -2.82314 0
M  V30 6733 C 640.594 -1.01574 -2.9606 0
M  V30 6734 C 641.069 -1.70945 -4.24902 0
M  V30 6735 N 642.56 -1.67716 -4.3177 0
M  V30 6736 C 643.295 -2.18265 -5.30234 0
M  V30 6737 N 642.791 -2.7711 -6.34966 0
M  V30 6738 N 644.584 -2.08756 -5.21898 0
M  V30 6739 H 636.735 -1.62549 -1.36717 0
M  V30 6740 H 638.998 -0.683676 -0.656727 0
M  V30 6741 H 638.704 -2.09045 -2.8283 0
M  V30 6742 H 638.578 -0.587913 -3.7259 0
M  V30 6743 H 640.965 0.0309834 -2.95084 0
M  V30 6744 H 641.046 -1.50186 -2.07069 0
M  V30 6745 H 640.69 -2.75574 -4.26639 0
M  V30 6746 H 640.62 -1.19797 -5.12793 0
M  V30 6747 H 643.111 -1.24777 -3.56706 0
M  V30 6748 H 643.424 -3.13353 -7.06421 0
M  V30 6749 H 641.769 -2.81171 -6.35585 0
M  V30 6750 H 644.96 -1.62488 -4.38994 0
M  V30 6751 H 645.133 -2.48459 -5.98475 0
M  V30 6752 N 638.539 1.52521 -0.396863 0
M  V30 6753 C 639.787 2.01274 0.182536 0
M  V30 6754 C 640.108 1.28485 1.46685 0
M  V30 6755 O 639.378 0.407134 1.91623 0
M  V30 6756 H 637.958 0.743671 0.0704442 0
M  V30 6757 H 640.62 1.87547 -0.530289 0
M  V30 6758 H 639.716 3.09687 0.387385 0
M  V30 6759 N 640.017 0.126909 1.57088 0
M  V30 6760 C 641.242 -0.53997 2.00248 0
M  V30 6761 C 641.667 -1.58927 1.00618 0
M  V30 6762 O 641.025 -1.81288 -0.0210131 0
M  V30 6763 C 641.073 -1.13565 3.4225 0
M  V30 6764 O 640.177 -2.25103 3.45547 0
M  V30 6765 H 639.518 -0.13412 0.650314 0
M  V30 6766 H 642.048 0.217718 2.03438 0
M  V30 6767 H 642.058 -1.46925 3.80627 0
M  V30 6768 H 640.733 -0.367122 4.14277 0
M  V30 6769 H 639.31 -1.93123 3.18995 0
M  V30 6770 N 641.495 -1.56914 -0.146875 0
M  V30 6771 C 642.442 -1.98275 -1.18134 0
M  V30 6772 C 643.412 -0.850367 -1.42681 0
M  V30 6773 O 644.597 -1.11244 -1.55014 0
M  V30 6774 C 641.737 -2.36861 -2.5098 0
M  V30 6775 C 640.85 -3.63391 -2.33605 0
M  V30 6776 C 639.985 -3.91079 -3.59486 0
M  V30 6777 C 639.024 -5.10879 -3.37149 0
M  V30 6778 N 638.161 -5.34577 -4.55161 0
M  V30 6779 H 643.001 -2.8645 -0.821622 0
M  V30 6780 H 640.538 -1.41718 -0.394248 0
M  V30 6781 H 642.496 -2.57262 -3.28439 0
M  V30 6782 H 641.126 -1.51766 -2.84898 0
M  V30 6783 H 640.178 -3.50766 -1.47199 0
M  V30 6784 H 641.49 -4.51007 -2.13059 0
M  V30 6785 H 640.644 -4.11979 -4.45374 0
M  V30 6786 H 639.383 -3.01885 -3.83036 0
M  V30 6787 H 638.388 -4.89853 -2.49649 0
M  V30 6788 H 639.613 -6.01626 -3.14997 0
M  V30 6789 H 637.559 -4.48337 -4.78884 0
M  V30 6790 H 637.476 -6.16463 -4.37618 0
M  V30 6791 H 638.744 -5.59975 -5.42263 0
M  V30 6792 N 642.974 0.416227 -1.52004 0
M  V30 6793 C 644.223 1.16088 -1.64944 0
M  V30 6794 C 644.536 1.91835 -0.381928 0
M  V30 6795 O 645.742 2.6867 -0.391013 0
M  V30 6796 C 644.198 2.1124 -2.91386 0
M  V30 6797 C 643.806 1.41042 -4.25219 0
M  V30 6798 C 645.55 2.86008 -3.13688 0
M  V30 6799 C 643.457 2.34801 -5.42791 0
M  V30 6800 H 642.387 0.437041 -0.61442 0
M  V30 6801 H 645.038 0.425971 -1.78487 0
M  V30 6802 H 643.42 2.88254 -2.71525 0
M  V30 6803 H 644.594 0.694416 -4.55538 0
M  V30 6804 H 642.909 0.78344 -4.08964 0
M  V30 6805 H 645.506 3.56286 -3.98703 0
M  V30 6806 H 645.849 3.48556 -2.27628 0
M  V30 6807 H 646.382 2.16095 -3.33988 0
M  V30 6808 H 643.121 1.7691 -6.31176 0
M  V30 6809 H 642.641 3.04395 -5.16821 0
M  V30 6810 H 644.32 2.9548 -5.75587 0
M  V30 6811 N 644.452 1.42507 0.673017 0
M  V30 6812 C 645.677 1.4668 1.46627 0
M  V30 6813 C 646.102 0.080066 1.8793 0
M  V30 6814 O 645.46 -0.921879 1.56112 0
M  V30 6815 C 645.508 2.40091 2.69051 0
M  V30 6816 O 644.612 1.8735 3.67387 0
M  V30 6817 H 643.953 0.496908 0.44043 0
M  V30 6818 H 646.483 1.87215 0.825334 0
M  V30 6819 H 646.493 2.56731 3.17101 0
M  V30 6820 H 645.168 3.4084 2.3833 0
M  V30 6821 H 643.745 1.80274 3.26429 0
M  V30 6822 N 645.93 -0.909495 1.28709 0
M  V30 6823 C 647.346 -1.18862 1.06508 0
M  V30 6824 C 647.546 -2.00604 -0.189864 0
M  V30 6825 O 646.602 -2.36281 -0.890355 0
M  V30 6826 C 647.915 -1.91908 2.31499 0
M  V30 6827 C 649.463 -2.04773 2.36721 0
M  V30 6828 C 649.938 -2.81228 3.6149 0
M  V30 6829 N 651.429 -2.88787 3.62155 0
M  V30 6830 C 652.164 -3.48455 4.55375 0
M  V30 6831 N 651.66 -4.09369 5.58918 0
M  V30 6832 N 653.453 -3.46035 4.42963 0
M  V30 6833 H 645.604 -0.363867 2.0926 0
M  V30 6834 H 647.867 -0.223649 0.921241 0
M  V30 6835 H 647.573 -1.39275 3.22948 0
M  V30 6836 H 647.447 -2.92436 2.38245 0
M  V30 6837 H 649.834 -2.56585 1.45767 0
M  V30 6838 H 649.915 -1.03408 2.33967 0
M  V30 6839 H 649.559 -2.30094 4.5279 0
M  V30 6840 H 649.489 -3.82917 3.61499 0
M  V30 6841 H 651.98 -2.45514 2.87283 0
M  V30 6842 H 652.293 -4.52891 6.26187 0
M  V30 6843 H 650.638 -4.0786 5.62739 0
M  V30 6844 H 653.829 -2.9766 3.6127 0
M  V30 6845 H 654.002 -3.92244 5.15799 0
M  V30 6846 N 647.408 -1.11026 -1.11852 0
M  V30 6847 C 648.648 -0.866348 -1.85132 0
M  V30 6848 C 649.012 0.597236 -1.82475 0
M  V30 6849 O 650.213 0.957744 -2.51159 0
M  V30 6850 C 648.484 -1.40721 -3.28531 0
M  V30 6851 S 650.043 -1.29964 -4.19112 0
M  V30 6852 H 646.861 -0.312899 -0.638447 0
M  V30 6853 H 649.463 -1.41691 -1.34699 0
M  V30 6854 H 648.167 -2.46631 -3.28027 0
M  V30 6855 H 647.698 -0.85349 -3.8403 0
M  V30 6856 H 649.713 -0.261333 -4.95511 0
M  V30 6857 N 648.886 1.2938 -0.899927 0
M  V30 6858 C 649.796 2.31462 -0.382437 0
M  V30 6859 C 650.812 1.65956 0.522929 0
M  V30 6860 O 651.988 1.97131 0.412454 0
M  V30 6861 C 649.053 3.44595 0.381472 0
M  V30 6862 C 648.114 4.25692 -0.555444 0
M  V30 6863 C 647.347 5.33422 0.172102 0
M  V30 6864 O 647.57 5.53053 1.396 0
M  V30 6865 O 646.504 5.99939 -0.485491 0
M  V30 6866 H 650.33 2.77706 -1.22934 0
M  V30 6867 H 647.915 1.33821 -0.664259 0
M  V30 6868 H 649.797 4.13474 0.813442 0
M  V30 6869 H 648.472 3.00458 1.20443 0
M  V30 6870 H 647.379 3.59453 -1.03653 0
M  V30 6871 H 648.712 4.73471 -1.34483 0
M  V30 6872 N 650.364 0.662433 1.43002 0
M  V30 6873 C 651.296 -0.062326 2.29115 0
M  V30 6874 C 652.309 -0.777926 1.43011 0
M  V30 6875 O 653.498 -0.634146 1.66856 0
M  V30 6876 C 650.598 -1.11163 3.2015 0
M  V30 6877 C 649.771 -0.472327 4.34842 0
M  V30 6878 C 648.83 -1.41974 5.06685 0
M  V30 6879 O 647.856 -0.924795 5.61637 0
M  V30 6880 N 649.058 -2.75345 5.11043 0
M  V30 6881 H 651.823 0.676838 2.91957 0
M  V30 6882 H 649.384 0.505907 1.53793 0
M  V30 6883 H 651.376 -1.74643 3.65078 0
M  V30 6884 H 649.946 -1.75266 2.58845 0
M  V30 6885 H 649.166 0.341751 3.92716 0
M  V30 6886 H 650.454 -0.0264381 5.08793 0
M  V30 6887 H 649.852 -3.18108 4.67786 0
M  V30 6888 H 648.409 -3.34105 5.59658 0
M  V30 6889 N 651.842 -1.52309 0.404946 0
M  V30 6890 C 653.09 -2.01368 -0.17186 0
M  V30 6891 C 653.411 -1.29261 -1.46002 0
M  V30 6892 O 652.681 -0.41729 -1.91404 0
M  V30 6893 H 651.261 -0.744034 -0.0664993 0
M  V30 6894 H 653.923 -1.87263 0.540228 0
M  V30 6895 H 653.019 -3.09888 -0.370957 0
M  V30 6896 N 653.32 -0.135238 -1.57019 0
M  V30 6897 C 654.267 0.808908 -2.1616 0
M  V30 6898 C 655.237 1.25234 -1.09113 0
M  V30 6899 O 656.422 1.32697 -1.37099 0
M  V30 6900 C 653.562 2.04729 -2.77813 0
M  V30 6901 C 652.675 1.65074 -3.99218 0
M  V30 6902 C 651.81 2.84002 -4.48906 0
M  V30 6903 C 650.849 2.40663 -5.62803 0
M  V30 6904 N 649.986 3.5256 -6.07162 0
M  V30 6905 H 654.826 0.297751 -2.96509 0
M  V30 6906 H 652.363 0.135264 -1.46477 0
M  V30 6907 H 654.321 2.7731 -3.11697 0
M  V30 6908 H 652.951 2.53275 -2.00128 0
M  V30 6909 H 652.003 0.823029 -3.7139 0
M  V30 6910 H 653.315 1.29236 -4.81767 0
M  V30 6911 H 652.469 3.64788 -4.84783 0
M  V30 6912 H 651.208 3.23076 -3.65339 0
M  V30 6913 H 650.213 1.58314 -5.26514 0
M  V30 6914 H 651.438 2.02687 -6.48147 0
M  V30 6915 H 649.384 3.91278 -5.26534 0
M  V30 6916 H 649.301 3.20699 -6.84608 0
M  V30 6917 H 650.569 4.33738 -6.47682 0
M  V30 6918 N 654.798 1.5699 0.138552 0
M  V30 6919 C 656.044 1.84966 0.846116 0
M  V30 6920 C 656.399 0.72038 1.78405 0
M  V30 6921 O 655.692 -0.281076 1.89527 0
M  V30 6922 C 655.886 3.17007 1.65049 0
M  V30 6923 C 655.715 4.42672 0.79194 0
M  V30 6924 C 654.485 5.03254 0.454293 0
M  V30 6925 C 656.683 5.14164 0.118419 0
M  V30 6926 N 654.665 6.12482 -0.416964 0
M  V30 6927 C 656.036 6.16966 -0.61263 0
M  V30 6928 C 658.091 4.97884 0.0399671 0
M  V30 6929 C 656.794 7.0525 -1.41473 0
M  V30 6930 C 658.82 5.86639 -0.748901 0
M  V30 6931 C 658.182 6.88929 -1.4682 0
M  V30 6932 H 654.281 0.727362 0.287172 0
M  V30 6933 H 656.865 1.94383 0.110972 0
M  V30 6934 H 655.036 3.08722 2.35681 0
M  V30 6935 H 656.768 3.3286 2.30187 0
M  V30 6936 H 653.523 4.6693 0.792038 0
M  V30 6937 H 653.947 6.7172 -0.843865 0
M  V30 6938 H 658.589 4.18779 0.581728 0
M  V30 6939 H 656.307 7.83777 -1.96772 0
M  V30 6940 H 659.893 5.7611 -0.811705 0
M  V30 6941 H 658.773 7.56419 -2.06882 0
M  V30 6942 N 656.276 -0.40816 1.52223 0
M  V30 6943 C 657.501 -1.18127 1.70472 0
M  V30 6944 C 657.926 -1.83491 0.41384 0
M  V30 6945 O 657.284 -1.70047 -0.628778 0
M  V30 6946 C 657.332 -2.21935 2.84213 0
M  V30 6947 O 656.436 -3.28099 2.4985 0
M  V30 6948 H 655.777 -0.344781 0.56747 0
M  V30 6949 H 658.307 -0.478328 1.9893 0
M  V30 6950 H 658.317 -2.66248 3.09153 0
M  V30 6951 H 656.992 -1.73744 3.7787 0
M  V30 6952 H 655.569 -2.89058 2.35584 0
M  V30 6953 N 657.755 -1.42862 -0.66545 0
M  V30 6954 C 658.98 -1.47456 -1.45848 0
M  V30 6955 C 659.405 -0.0900312 -1.87884 0
M  V30 6956 O 658.763 0.913587 -1.56599 0
M  V30 6957 C 658.811 -2.41514 -2.67774 0
M  V30 6958 O 657.915 -1.89296 -3.66389 0
M  V30 6959 H 657.256 -0.499236 -0.437789 0
M  V30 6960 H 659.786 -1.8765 -0.815394 0
M  V30 6961 H 659.796 -2.58409 -3.15735 0
M  V30 6962 H 658.471 -3.42099 -2.36519 0
M  V30 6963 H 657.048 -1.82003 -3.25468 0
M  V30 6964 N 659.233 0.902656 -1.29189 0
M  V30 6965 C 660.644 1.46809 -1.15343 0
M  V30 6966 C 660.995 1.94568 0.252517 0
M  V30 6967 O 660.12 1.83454 1.14777 0
M  V30 6968 C 660.715 2.66829 -2.08776 0
M  V30 6969 C 659.274 3.19518 -1.98961 0
M  V30 6970 C 658.421 1.92212 -1.99874 0
M  V30 6971 H 661.372 0.714282 -1.41717 0
M  V30 6972 H 661.393 3.42465 -1.65826 0
M  V30 6973 H 660.905 2.32039 -3.11094 0
M  V30 6974 H 659.006 3.59008 -0.99721 0
M  V30 6975 H 659.119 3.84016 -2.86477 0
M  V30 6976 H 657.483 2.0979 -1.44431 0
M  V30 6977 H 658.266 1.59702 -3.03891 0
M  V30 6978 N 660.711 1.11618 1.11262 0
M  V30 6979 C 662.122 0.881942 1.64556 0
M  V30 6980 C 662.473 -0.585442 1.87262 0
M  V30 6981 O 661.598 -1.44795 1.60821 0
M  V30 6982 C 662.193 1.59446 2.98935 0
M  V30 6983 C 660.752 1.40661 3.4913 0
M  V30 6984 C 659.899 1.63593 2.23903 0
M  V30 6985 H 662.85 1.27217 0.94877 0
M  V30 6986 H 662.871 1.04054 3.65996 0
M  V30 6987 H 662.383 2.66241 2.82378 0
M  V30 6988 H 660.484 0.360835 3.70849 0
M  V30 6989 H 660.597 2.15693 4.27801 0
M  V30 6990 H 658.961 1.05944 2.3162 0
M  V30 6991 H 659.744 2.71666 2.09886 0
M  V30 6992 N 662.189 -1.289 0.906776 0
M  V30 6993 C 663.435 -1.95558 0.53712 0
M  V30 6994 C 663.768 -1.71262 -0.915582 0
M  V30 6995 O 663.043 -1.02961 -1.65013 0
M  V30 6996 C 663.326 -3.50198 0.838645 0
M  V30 6997 C 663.179 -3.83923 2.34357 0
M  V30 6998 C 664.498 -4.38861 0.329988 0
M  V30 6999 H 661.617 -0.710289 0.196617 0
M  V30 7000 H 664.259 -1.52392 1.13475 0
M  V30 7001 H 662.409 -3.87096 0.330024 0
M  V30 7002 H 664.081 -3.56933 2.92227 0
M  V30 7003 H 662.324 -3.31215 2.80141 0
M  V30 7004 H 662.995 -4.91883 2.5051 0
M  V30 7005 H 665.471 -4.08996 0.765609 0
M  V30 7006 H 664.347 -5.45931 0.570105 0
M  V30 7007 H 664.608 -4.35352 -0.769511 0
M  V30 7008 N 663.667 -0.670007 -1.42649 0
M  V30 7009 C 664.907 -0.194106 -2.03476 0
M  V30 7010 C 665.271 1.1755 -1.51809 0
M  V30 7011 O 666.472 1.74579 -2.04391 0
M  V30 7012 C 664.743 -0.221828 -3.56711 0
M  V30 7013 S 666.302 0.183772 -4.38415 0
M  V30 7014 H 663.12 -0.0802478 -0.706457 0
M  V30 7015 H 665.722 -0.882092 -1.74469 0
M  V30 7016 H 664.426 -1.22107 -3.91814 0
M  V30 7017 H 663.957 0.486149 -3.90385 0
M  V30 7018 H 665.972 1.41839 -4.75496 0
M  V30 7019 N 665.145 1.52092 -0.413018 0
M  V30 7020 C 666.075 2.30021 0.401567 0
M  V30 7021 C 667.056 1.34395 1.04269 0
M  V30 7022 O 668.241 1.63304 1.05097 0
M  V30 7023 C 665.371 3.12447 1.51638 0
M  V30 7024 C 664.325 4.16153 1.00005 0
M  V30 7025 C 663.651 4.86948 2.20875 0
M  V30 7026 C 664.951 5.22275 0.0513757 0
M  V30 7027 H 666.645 2.98365 -0.248704 0
M  V30 7028 H 664.191 1.4349 -0.121052 0
M  V30 7029 H 666.144 3.65733 2.09326 0
M  V30 7030 H 664.868 2.41879 2.19458 0
M  V30 7031 H 663.527 3.63882 0.445549 0
M  V30 7032 H 663.175 4.12905 2.8726 0
M  V30 7033 H 662.875 5.57057 1.86978 0
M  V30 7034 H 664.399 5.43048 2.79162 0
M  V30 7035 H 665.813 5.70778 0.537176 0
M  V30 7036 H 664.21 5.9977 -0.198977 0
M  V30 7037 H 665.28 4.76611 -0.892736 0
M  V30 7038 N 666.623 0.143563 1.56945 0
M  V30 7039 C 667.533 -0.810562 2.20152 0
M  V30 7040 C 668.549 -1.27431 1.1848 0
M  V30 7041 O 669.725 -1.33221 1.51044 0
M  V30 7042 C 666.79 -2.03353 2.80799 0
M  V30 7043 C 665.851 -1.61936 3.97587 0
M  V30 7044 C 665.084 -2.78403 4.55332 0
M  V30 7045 O 665.307 -3.94521 4.11958 0
M  V30 7046 O 664.241 -2.54073 5.45647 0
M  V30 7047 H 668.067 -0.30253 3.02189 0
M  V30 7048 H 665.652 -0.0832925 1.49168 0
M  V30 7049 H 667.534 -2.74932 3.19359 0
M  V30 7050 H 666.209 -2.53116 2.01777 0
M  V30 7051 H 665.116 -0.873904 3.6375 0
M  V30 7052 H 666.449 -1.16892 4.78118 0
M  V30 7053 N 668.101 -1.57061 -0.130224 0
M  V30 7054 C 669.512 -1.73539 -0.68856 0
M  V30 7055 C 669.863 -0.760554 -1.80859 0
M  V30 7056 O 668.988 0.0690796 -2.1629 0
M  V30 7057 C 669.583 -3.14666 -1.25581 0
M  V30 7058 C 668.142 -3.32689 -1.76055 0
M  V30 7059 C 667.289 -2.69436 -0.655712 0
M  V30 7060 H 670.24 -1.58412 0.0956002 0
M  V30 7061 H 670.261 -3.15595 -2.12556 0
M  V30 7062 H 669.773 -3.85593 -0.440412 0
M  V30 7063 H 667.874 -2.66786 -2.60108 0
M  V30 7064 H 667.987 -4.4077 -1.87772 0
M  V30 7065 H 666.351 -2.30362 -1.08654 0
M  V30 7066 H 667.134 -3.42979 0.14852 0
M  V30 7067 N 669.579 0.400081 -1.52437 0
M  V30 7068 C 670.819 1.15526 -1.68622 0
M  V30 7069 C 671.183 1.87533 -0.411744 0
M  V30 7070 O 672.384 2.6501 -0.449804 0
M  V30 7071 C 670.655 2.11618 -2.88015 0
M  V30 7072 S 672.214 2.95121 -3.24729 0
M  V30 7073 H 669.032 0.39123 -0.593683 0
M  V30 7074 H 671.634 0.441255 -1.90455 0
M  V30 7075 H 670.338 1.5742 -3.79008 0
M  V30 7076 H 669.869 2.87544 -2.68481 0
M  V30 7077 H 671.884 4.13653 -2.74055 0
M  V30 7078 N 671.057 1.43213 0.657864 0
M  V30 7079 C 672.285 1.48015 1.44566 0
M  V30 7080 C 672.7 0.0965951 1.88553 0
M  V30 7081 O 672.057 -0.892221 1.59203 0
M  V30 7082 C 672.108 2.42199 2.68369 0
M  V30 7083 O 671.829 3.75173 2.26223 0
M  V30 7084 C 673.33 2.56195 3.61772 0
M  V30 7085 H 670.55 0.502861 0.444266 0
M  V30 7086 H 673.094 1.87907 0.806917 0
M  V30 7087 H 671.249 2.05514 3.28394 0
M  V30 7088 H 671.663 4.25776 3.06293 0
M  V30 7089 H 673.137 3.26182 4.4532 0
M  V30 7090 H 673.614 1.60534 4.0881 0
M  V30 7091 H 674.22 2.93671 3.07632 0
M  V30 7092 N 672.536 -0.895792 1.29666 0
M  V30 7093 C 673.782 -1.64908 1.18039 0
M  V30 7094 C 674.115 -1.9236 -0.266682 0
M  V30 7095 O 673.39 -1.53682 -1.19214 0
M  V30 7096 C 673.673 -2.99574 1.99819 0
M  V30 7097 C 673.526 -2.79163 3.52687 0
M  V30 7098 C 674.845 -4.00358 1.82761 0
M  V30 7099 H 671.964 -0.598437 0.430165 0
M  V30 7100 H 674.606 -1.03736 1.59182 0
M  V30 7101 H 672.756 -3.51786 1.64859 0
M  V30 7102 H 674.428 -2.33821 3.9765 0
M  V30 7103 H 672.671 -2.13871 3.77414 0
M  V30 7104 H 673.342 -3.74871 4.05186 0
M  V30 7105 H 675.818 -3.57268 2.13304 0
M  V30 7106 H 674.694 -4.92514 2.42325 0
M  V30 7107 H 674.955 -4.35096 0.783839 0
M  V30 7108 N 674.014 -1.12206 -1.10668 0
M  V30 7109 C 674.962 -0.782918 -2.19028 0
M  V30 7110 C 675.956 0.229175 -1.67843 0
M  V30 7111 O 677.162 0.0876295 -1.79787 0
M  V30 7112 H 673.537 -0.235339 -0.714227 0
M  V30 7113 H 675.508 -1.70527 -2.44874 0
M  V30 7114 C 674.257 -0.25116 -3.46792 0
M  V30 7115 H 673.58 -1.02123 -3.86537 0
M  V30 7116 H 675.02 -0.0521409 -4.23968 0
M  V30 7117 C 673.479 1.02037 -3.21076 0
M  V30 7118 O 674.009 2.09862 -3.42522 0
M  V30 7119 N 672.215 0.946348 -2.74759 0
M  V30 7120 H 671.762 0.068777 -2.57508 0
M  V30 7121 H 671.72 1.79775 -2.57931 0
M  V30 7122 N 675.492 1.28418 -0.913599 0
M  V30 7123 C 676.738 1.9527 -0.547484 0
M  V30 7124 C 677.071 1.71745 0.906486 0
M  V30 7125 O 676.346 1.03834 1.64465 0
M  V30 7126 C 676.629 3.49748 -0.857205 0
M  V30 7127 C 676.482 3.82675 -2.3639 0
M  V30 7128 C 677.801 4.3868 -0.353258 0
M  V30 7129 H 674.92 0.709236 -0.200381 0
M  V30 7130 H 677.562 1.51789 -1.14281 0
M  V30 7131 H 675.712 3.86915 -0.350548 0
M  V30 7132 H 677.384 3.55378 -2.94116 0
M  V30 7133 H 675.627 3.29724 -2.81894 0
M  V30 7134 H 676.298 4.90547 -2.53115 0
M  V30 7135 H 678.774 4.08584 -0.787288 0
M  V30 7136 H 677.65 5.45621 -0.599049 0
M  V30 7137 H 677.911 4.35753 0.746413 0
M  V30 7138 N 676.97 0.677563 1.42291 0
M  V30 7139 C 678.247 0.129803 1.95169 0
M  V30 7140 C 678.627 -1.35605 1.61786 0
M  V30 7141 O 677.975 -2.09361 0.915444 0
M  V30 7142 C 678.185 0.401889 3.46678 0
M  V30 7143 C 679.533 0.319889 4.23393 0
M  V30 7144 O 680.557 0.33579 3.54614 0
M  V30 7145 O 679.416 0.264459 5.4586 0
M  V30 7146 H 676.51 0.00447433 0.826988 0
M  V30 7147 H 679.056 0.752483 1.52105 0
M  V30 7148 H 677.828 1.43108 3.64192 0
M  V30 7149 H 677.451 -0.252662 3.96796 0
M  V30 7150 N 678.448 -1.51871 0.421078 0
M  V30 7151 C 679.678 -2.06057 -0.149723 0
M  V30 7152 C 680.086 -1.29002 -1.38402 0
M  V30 7153 O 679.429 -0.338385 -1.80556 0
M  V30 7154 C 679.491 -3.55216 -0.553339 0
M  V30 7155 C 679.155 -4.53408 0.571879 0
M  V30 7156 C 680.152 -4.99586 1.4391 0
M  V30 7157 C 677.837 -4.967 0.747979 0
M  V30 7158 C 679.831 -5.87711 2.46727 0
M  V30 7159 C 677.518 -5.84619 1.77944 0
M  V30 7160 C 678.516 -6.30021 2.63748 0
M  V30 7161 O 678.204 -7.16197 3.65126 0
M  V30 7162 H 677.936 -0.675744 -0.0186102 0
M  V30 7163 H 680.49 -1.96618 0.594166 0
M  V30 7164 H 678.72 -3.62381 -1.34969 0
M  V30 7165 H 680.409 -3.91992 -1.05342 0
M  V30 7166 H 681.175 -4.66846 1.31451 0
M  V30 7167 H 677.054 -4.60913 0.0897357 0
M  V30 7168 H 680.598 -6.2307 3.13734 0
M  V30 7169 H 676.495 -6.16771 1.90429 0
M  V30 7170 H 677.263 -7.34337 3.61512 0
M  V30 7171 N 679.926 -0.151884 -1.56866 0
M  V30 7172 C 680.859 0.824094 -2.128 0
M  V30 7173 C 681.837 1.2391 -1.05286 0
M  V30 7174 O 683.021 1.33433 -1.33146 0
M  V30 7175 C 680.148 2.1072 -2.65169 0
M  V30 7176 C 679.194 1.83774 -3.84876 0
M  V30 7177 S 680.027 1.02436 -5.25611 0
M  V30 7178 C 681.183 2.31855 -5.81373 0
M  V30 7179 H 681.416 0.348456 -2.95251 0
M  V30 7180 H 678.949 0.0624794 -1.54274 0
M  V30 7181 H 680.907 2.84428 -2.95992 0
M  V30 7182 H 679.568 2.55398 -1.8284 0
M  V30 7183 H 678.761 2.78929 -4.19779 0
M  V30 7184 H 678.363 1.18172 -3.5484 0
M  V30 7185 H 680.655 3.27469 -5.93102 0
M  V30 7186 H 681.598 2.01449 -6.7884 0
M  V30 7187 H 682.006 2.42727 -5.09651 0
M  V30 7188 N 681.404 1.57128 0.121893 0
M  V30 7189 C 682.352 2.01109 1.16868 0
M  V30 7190 C 683.346 0.907532 1.43039 0
M  V30 7191 O 684.552 1.09274 1.43036 0
M  V30 7192 H 680.927 0.640539 0.393971 0
M  V30 7193 H 682.898 2.88261 0.771224 0
M  V30 7194 C 681.647 2.42887 2.48799 0
M  V30 7195 H 680.97 3.2737 2.29498 0
M  V30 7196 H 682.41 2.77461 3.20611 0
M  V30 7197 C 680.869 1.29137 3.11168 0
M  V30 7198 O 681.399 0.605756 3.97106 0
M  V30 7199 N 679.605 1.04916 2.71 0
M  V30 7200 H 679.152 1.60848 2.01211 0
M  V30 7201 H 679.11 0.290016 3.1306 0
M  V30 7202 N 682.882 -0.391992 1.52647 0
M  V30 7203 C 684.298 -0.731848 1.41831 0
M  V30 7204 C 684.498 -1.9423 0.536361 0
M  V30 7205 O 683.554 -2.52499 0.00866571 0
M  V30 7206 C 684.867 -0.969743 2.84634 0
M  V30 7207 C 686.415 -1.0714 2.94092 0
M  V30 7208 C 686.89 -1.34195 4.37899 0
M  V30 7209 N 688.381 -1.41023 4.41211 0
M  V30 7210 C 689.116 -1.63616 5.49561 0
M  V30 7211 N 688.612 -1.83699 6.68002 0
M  V30 7212 N 690.405 -1.65771 5.371 0
M  V30 7213 H 682.556 0.404547 2.08512 0
M  V30 7214 H 684.819 0.11879 0.940528 0
M  V30 7215 H 684.525 -0.152465 3.51369 0
M  V30 7216 H 684.399 -1.88523 3.26709 0
M  V30 7217 H 686.786 -1.87925 2.27526 0
M  V30 7218 H 686.867 -0.133887 2.55449 0
M  V30 7219 H 686.511 -0.539207 5.0503 0
M  V30 7220 H 686.441 -2.29226 4.74092 0
M  V30 7221 H 688.932 -1.27223 3.55841 0
M  V30 7222 H 689.245 -2.00437 7.46354 0
M  V30 7223 H 687.59 -1.8093 6.71036 0
M  V30 7224 H 690.781 -1.4963 4.43541 0
M  V30 7225 H 690.954 -1.83038 6.21612 0
M  V30 7226 N 684.36 -1.4356 -0.65026 0
M  V30 7227 C 685.308 -1.49219 -1.78427 0
M  V30 7228 C 686.302 -0.365528 -1.65409 0
M  V30 7229 O 687.508 -0.539649 -1.7172 0
M  V30 7230 H 683.883 -0.467858 -0.588738 0
M  V30 7231 H 685.854 -2.44701 -1.70774 0
M  V30 7232 C 684.603 -1.43519 -3.16698 0
M  V30 7233 H 683.926 -2.2952 -3.27354 0
M  V30 7234 H 685.366 -1.5154 -3.95995 0
M  V30 7235 C 683.825 -0.153197 -3.36552 0
M  V30 7236 O 684.355 0.784317 -3.93969 0
M  V30 7237 N 682.561 -0.0624402 -2.90533 0
M  V30 7238 H 682.108 -0.826172 -2.43992 0
M  V30 7239 H 682.066 0.794616 -3.04193 0
M  V30 7240 N 685.838 0.888903 -1.30139 0
M  V30 7241 C 686.786 2.0156 -1.16088 0
M  V30 7242 C 687.78 1.69239 -0.0737413 0
M  V30 7243 O 688.986 1.78468 -0.234313 0
M  V30 7244 H 685.361 0.660825 -0.358907 0
M  V30 7245 H 687.332 2.10547 -2.11453 0
M  V30 7246 C 686.081 3.36758 -0.865426 0
M  V30 7247 H 685.404 3.62137 -1.69402 0
M  V30 7248 H 686.844 4.16246 -0.807192 0
M  V30 7249 C 685.303 3.34124 0.431577 0
M  V30 7250 O 685.833 3.7445 1.45431 0
M  V30 7251 N 684.039 2.87229 0.441321 0
M  V30 7252 H 683.586 2.54609 -0.391433 0
M  V30 7253 H 683.544 2.8585 1.30909 0
M  V30 7254 N 687.317 1.12792 1.10072 0
M  V30 7255 C 688.566 0.880232 1.81479 0
M  V30 7256 C 688.879 -0.595575 1.86312 0
M  V30 7257 O 690.085 -0.959979 2.53962 0
M  V30 7258 C 688.541 1.52514 3.25987 0
M  V30 7259 C 688.149 3.036 3.29441 0
M  V30 7260 C 689.893 1.35788 4.02196 0
M  V30 7261 C 687.8 3.61007 4.68431 0
M  V30 7262 H 686.73 0.325654 0.680048 0
M  V30 7263 H 689.381 1.35485 1.23758 0
M  V30 7264 H 687.763 0.978188 3.83728 0
M  V30 7265 H 688.937 3.64819 2.81502 0
M  V30 7266 H 687.252 3.19765 2.66719 0
M  V30 7267 H 689.849 1.76096 5.0487 0
M  V30 7268 H 690.192 0.301972 4.15203 0
M  V30 7269 H 690.725 1.87426 3.50879 0
M  V30 7270 H 687.464 4.66375 4.60625 0
M  V30 7271 H 686.984 3.04564 5.16721 0
M  V30 7272 H 688.663 3.60289 5.37402 0
M  V30 7273 N 688.795 -1.27931 0.920396 0
M  V30 7274 C 689.705 -2.30824 0.419212 0
M  V30 7275 C 690.721 -1.66767 -0.496461 0
M  V30 7276 O 691.897 -1.97763 -0.38104 0
M  V30 7277 C 688.962 -3.45158 -0.326601 0
M  V30 7278 C 688.023 -4.24754 0.623098 0
M  V30 7279 C 687.256 -5.33629 -0.0872172 0
M  V30 7280 O 687.479 -5.55204 -1.30784 0
M  V30 7281 O 686.413 -5.99091 0.580875 0
M  V30 7282 H 690.239 -2.75716 1.27337 0
M  V30 7283 H 687.824 -1.32747 0.685465 0
M  V30 7284 H 689.706 -4.14716 -0.747559 0
M  V30 7285 H 688.381 -3.02336 -1.15648 0
M  V30 7286 H 687.288 -3.57759 1.09359 0
M  V30 7287 H 688.621 -4.71272 1.41998 0
M  V30 7288 N 690.273 -0.685099 -1.4193 0
M  V30 7289 C 691.206 0.0371639 -2.2817 0
M  V30 7290 C 692.184 0.798436 -1.41647 0
M  V30 7291 O 693.368 0.791428 -1.71081 0
M  V30 7292 C 690.495 1.05993 -3.21688 0
M  V30 7293 C 689.541 0.393043 -4.24685 0
M  V30 7294 S 690.374 -0.856921 -5.28599 0
M  V30 7295 C 691.53 0.164508 -6.25684 0
M  V30 7296 H 691.763 -0.694305 -2.89079 0
M  V30 7297 H 689.296 -0.474999 -1.46912 0
M  V30 7298 H 691.254 1.64489 -3.76103 0
M  V30 7299 H 689.915 1.7639 -2.59895 0
M  V30 7300 H 689.108 1.16513 -4.90348 0
M  V30 7301 H 688.71 -0.118589 -3.73812 0
M  V30 7302 H 691.002 1.02106 -6.69762 0
M  V30 7303 H 691.945 -0.457917 -7.06618 0
M  V30 7304 H 692.353 0.514596 -5.6215 0
M  V30 7305 N 691.751 1.51645 -0.429126 0
M  V30 7306 C 692.698 2.27542 0.386446 0
M  V30 7307 C 693.668 1.30786 1.02393 0
M  V30 7308 O 694.853 1.59678 1.0444 0
M  V30 7309 C 691.993 3.11457 1.48623 0
M  V30 7310 C 691.106 4.23196 0.867691 0
M  V30 7311 C 690.241 4.94435 1.94183 0
M  V30 7312 C 689.28 5.98108 1.30129 0
M  V30 7313 N 688.417 6.62786 2.31644 0
M  V30 7314 H 693.257 2.968 -0.267155 0
M  V30 7315 H 690.794 1.46397 -0.143591 0
M  V30 7316 H 692.752 3.58429 2.13506 0
M  V30 7317 H 691.382 2.44329 2.10957 0
M  V30 7318 H 690.434 3.80248 0.107373 0
M  V30 7319 H 691.746 4.97499 0.35997 0
M  V30 7320 H 690.9 5.44914 2.66747 0
M  V30 7321 H 689.639 4.19744 2.48326 0
M  V30 7322 H 688.644 5.4693 0.561082 0
M  V30 7323 H 689.869 6.74751 0.767303 0
M  V30 7324 H 687.815 5.90913 2.84883 0
M  V30 7325 H 687.732 7.32828 1.85741 0
M  V30 7326 H 689 7.17897 3.03717 0
M  V30 7327 N 693.229 0.160201 1.56784 0
M  V30 7328 C 694.475 -0.481855 1.9761 0
M  V30 7329 C 694.83 -1.61605 1.04411 0
M  V30 7330 O 694.123 -1.91426 0.0816402 0
M  V30 7331 C 694.317 -1.02259 3.42459 0
M  V30 7332 C 694.146 0.0576781 4.49663 0
M  V30 7333 C 692.916 0.503585 5.02784 0
M  V30 7334 C 695.114 0.854013 5.0716 0
M  V30 7335 N 693.096 1.56532 5.93608 0
M  V30 7336 C 694.467 1.76593 5.94319 0
M  V30 7337 C 696.522 0.900333 4.89692 0
M  V30 7338 C 695.225 2.72023 6.6588 0
M  V30 7339 C 697.251 1.84252 5.61965 0
M  V30 7340 C 696.613 2.74194 6.48843 0
M  V30 7341 H 692.712 -0.144748 0.768487 0
M  V30 7342 H 695.296 0.257853 1.92985 0
M  V30 7343 H 693.467 -1.73186 3.47651 0
M  V30 7344 H 695.199 -1.63235 3.70319 0
M  V30 7345 H 691.954 0.103361 4.73487 0
M  V30 7346 H 692.378 2.09634 6.43726 0
M  V30 7347 H 697.02 0.219023 4.22232 0
M  V30 7348 H 694.738 3.41147 7.3256 0
M  V30 7349 H 698.324 1.88433 5.5044 0
M  V30 7350 H 697.204 3.45912 7.03786 0
M  V30 7351 N 694.707 -1.5719 -0.113559 0
M  V30 7352 C 695.654 -2.00736 -1.13901 0
M  V30 7353 C 696.624 -0.88044 -1.40846 0
M  V30 7354 O 697.809 -1.14507 -1.5262 0
M  V30 7355 C 694.949 -2.42132 -2.45899 0
M  V30 7356 C 694.062 -3.68264 -2.25844 0
M  V30 7357 C 693.197 -3.98617 -3.5111 0
M  V30 7358 C 692.236 -5.17915 -3.26236 0
M  V30 7359 N 691.373 -5.44111 -4.4372 0
M  V30 7360 H 696.213 -2.88128 -0.760677 0
M  V30 7361 H 693.75 -1.42523 -0.364099 0
M  V30 7362 H 695.708 -2.6417 -3.22908 0
M  V30 7363 H 694.338 -1.57775 -2.81615 0
M  V30 7364 H 693.39 -3.53809 -1.39726 0
M  V30 7365 H 694.702 -4.55425 -2.03444 0
M  V30 7366 H 693.856 -4.21333 -4.36536 0
M  V30 7367 H 692.595 -3.09942 -3.76546 0
M  V30 7368 H 691.6 -4.95038 -2.39202 0
M  V30 7369 H 692.825 -6.08172 -3.02165 0
M  V30 7370 H 690.771 -4.58394 -4.69266 0
M  V30 7371 H 690.688 -6.25606 -4.24444 0
M  V30 7372 H 691.956 -5.71351 -5.30263 0
M  V30 7373 N 696.185 0.383891 -1.52853 0
M  V30 7374 C 697.415 1.14783 -1.7178 0
M  V30 7375 C 697.823 1.84055 -0.438211 0
M  V30 7376 O 697.166 1.73713 0.597465 0
M  V30 7377 C 697.228 2.23543 -2.81547 0
M  V30 7378 C 696.892 1.74195 -4.22499 0
M  V30 7379 C 697.889 1.21591 -5.05481 0
M  V30 7380 C 695.574 1.80262 -4.6884 0
M  V30 7381 C 697.568 0.757104 -6.32888 0
M  V30 7382 C 695.255 1.33993 -5.96229 0
M  V30 7383 C 696.253 0.818049 -6.78083 0
M  V30 7384 O 695.941 0.362123 -8.03084 0
M  V30 7385 H 695.673 0.349908 -0.578395 0
M  V30 7386 H 698.227 0.454377 -2.00311 0
M  V30 7387 H 696.457 2.96328 -2.48449 0
M  V30 7388 H 698.146 2.8519 -2.88828 0
M  V30 7389 H 698.912 1.16257 -4.7086 0
M  V30 7390 H 694.791 2.19825 -4.05213 0
M  V30 7391 H 698.335 0.34908 -6.96726 0
M  V30 7392 H 694.232 1.39015 -6.30353 0
M  V30 7393 H 695 0.483134 -8.17073 0
M  V30 7394 N 697.663 1.43903 0.642637 0
M  V30 7395 C 698.573 1.52349 1.78401 0
M  V30 7396 C 699.589 0.409869 1.69104 0
M  V30 7397 O 700.765 0.665548 1.90085 0
M  V30 7398 C 697.83 1.45408 3.14734 0
M  V30 7399 C 696.891 2.67528 3.35749 0
M  V30 7400 C 696.124 2.60909 4.65577 0
M  V30 7401 O 696.347 1.6627 5.45628 0
M  V30 7402 O 695.281 3.5158 4.88544 0
M  V30 7403 H 699.107 2.48752 1.7423 0
M  V30 7404 H 696.692 1.26021 0.802439 0
M  V30 7405 H 698.574 1.44019 3.96026 0
M  V30 7406 H 697.249 0.521437 3.19473 0
M  V30 7407 H 696.156 2.74487 2.5418 0
M  V30 7408 H 697.489 3.598 3.35864 0
M  V30 7409 N 699.141 -0.881989 1.30609 0
M  V30 7410 C 700.389 -1.63082 1.19368 0
M  V30 7411 C 700.71 -1.93376 -0.251147 0
M  V30 7412 O 699.98 -1.5723 -1.16857 0
M  V30 7413 H 698.56 -0.604542 0.438791 0
M  V30 7414 H 701.222 -1.05658 1.63776 0
M  V30 7415 H 700.318 -2.57966 1.7567 0
M  V30 7416 N 700.619 -1.13374 -1.09472 0
M  V30 7417 C 701.566 -0.810682 -2.16094 0
M  V30 7418 C 702.536 0.227003 -1.64541 0
M  V30 7419 O 703.721 0.0993538 -1.90541 0
M  V30 7420 C 700.861 -0.282336 -3.43943 0
M  V30 7421 C 699.974 -1.37902 -4.09398 0
M  V30 7422 C 699.109 -0.809066 -5.25002 0
M  V30 7423 C 698.148 -1.88419 -5.82379 0
M  V30 7424 N 697.285 -1.33221 -6.89345 0
M  V30 7425 H 702.125 -1.72397 -2.43071 0
M  V30 7426 H 699.662 -0.860564 -1.19301 0
M  V30 7427 H 701.62 0.0421189 -4.17179 0
M  V30 7428 H 700.25 0.594083 -3.17286 0
M  V30 7429 H 699.302 -1.82008 -3.34032 0
M  V30 7430 H 700.614 -2.19161 -4.48074 0
M  V30 7431 H 699.768 -0.435867 -6.05132 0
M  V30 7432 H 698.507 0.0346058 -4.87688 0
M  V30 7433 H 697.512 -2.26646 -5.00911 0
M  V30 7434 H 698.737 -2.73125 -6.21755 0
M  V30 7435 H 696.683 -0.510535 -6.5401 0
M  V30 7436 H 696.6 -2.08129 -7.26786 0
M  V30 7437 H 697.868 -0.986565 -7.73232 0
M  V30 7438 N 702.098 1.27442 -0.927168 0
M  V30 7439 C 703.344 1.94679 -0.568164 0
M  V30 7440 C 703.677 1.72697 0.888219 0
M  V30 7441 O 702.952 1.05573 1.63354 0
M  V30 7442 C 703.235 3.4882 -0.894253 0
M  V30 7443 C 703.088 3.80146 -2.40435 0
M  V30 7444 C 704.407 4.38281 -0.399766 0
M  V30 7445 H 701.526 0.707071 -0.207892 0
M  V30 7446 H 704.168 1.50568 -1.15885 0
M  V30 7447 H 702.318 3.86522 -0.391566 0
M  V30 7448 H 703.99 3.52238 -2.97869 0
M  V30 7449 H 702.233 3.26716 -2.85375 0
M  V30 7450 H 702.904 4.87835 -2.58304 0
M  V30 7451 H 705.38 4.07726 -0.83058 0
M  V30 7452 H 704.256 5.44955 -0.656885 0
M  V30 7453 H 704.517 4.36521 0.700153 0
M  V30 7454 N 703.576 0.692616 1.41565 0
M  V30 7455 C 704.506 0.0397325 2.33466 0
M  V30 7456 C 705.487 -0.770334 1.51657 0
M  V30 7457 O 706.672 -0.723903 1.80203 0
M  V30 7458 C 703.802 -0.899495 3.3545 0
M  V30 7459 C 702.756 -0.196738 4.27548 0
M  V30 7460 C 702.082 -1.25012 5.19881 0
M  V30 7461 C 703.382 0.935158 5.1386 0
M  V30 7462 H 705.076 0.807296 2.88311 0
M  V30 7463 H 702.622 0.389665 1.38628 0
M  V30 7464 H 704.575 -1.36545 3.98665 0
M  V30 7465 H 703.299 -1.69869 2.78948 0
M  V30 7466 H 701.958 0.249158 3.65752 0
M  V30 7467 H 701.606 -2.04177 4.59696 0
M  V30 7468 H 701.306 -0.784931 5.82334 0
M  V30 7469 H 702.83 -1.71665 5.85972 0
M  V30 7470 H 704.244 0.549619 5.70659 0
M  V30 7471 H 702.641 1.32726 5.85238 0
M  V30 7472 H 703.711 1.77613 4.512 0
M  V30 7473 N 705.054 -1.51416 0.437162 0
M  V30 7474 C 706.004 -2.24599 -0.392311 0
M  V30 7475 C 706.988 -1.2682 -0.990221 0
M  V30 7476 O 708.18 -1.51912 -0.908391 0
M  V30 7477 C 705.309 -3.09134 -1.49301 0
M  V30 7478 C 704.395 -4.14342 -0.904503 0
M  V30 7479 N 704.786 -5.0578 -0.0451511 0
M  V30 7480 C 703.084 -4.30323 -1.1721 0
M  V30 7481 C 703.785 -5.81 0.285344 0
M  V30 7482 N 702.761 -5.42591 -0.330993 0
M  V30 7483 H 706.563 -2.92655 0.270221 0
M  V30 7484 H 704.077 -1.60476 0.249226 0
M  V30 7485 H 706.074 -3.6014 -2.10011 0
M  V30 7486 H 704.734 -2.42622 -2.15788 0
M  V30 7487 H 705.745 -5.16903 0.321271 0
M  V30 7488 H 702.422 -3.75037 -1.83448 0
M  V30 7489 H 703.812 -6.64646 0.984626 0
M  V30 7490 N 706.532 -0.168513 -1.56696 0
M  V30 7491 C 707.78 0.476216 -1.96409 0
M  V30 7492 C 708.101 1.63968 -1.05544 0
M  V30 7493 O 707.371 1.95525 -0.121235 0
M  V30 7494 H 705.951 0.178921 -0.725256 0
M  V30 7495 H 708.613 -0.249042 -1.93302 0
M  V30 7496 H 707.709 0.838094 -3.00637 0
M  V30 7497 N 708.01 1.57248 0.105221 0
M  V30 7498 C 709.287 1.76566 0.841647 0
M  V30 7499 C 709.667 0.747566 1.9742 0
M  V30 7500 O 709.015 -0.225886 2.27381 0
M  V30 7501 C 709.225 3.22016 1.3456 0
M  V30 7502 C 710.573 3.84911 1.79244 0
M  V30 7503 O 711.597 3.25703 1.44207 0
M  V30 7504 O 710.456 4.89008 2.43995 0
M  V30 7505 H 707.55 0.723443 0.400698 0
M  V30 7506 H 710.096 1.69472 0.0878893 0
M  V30 7507 H 708.868 3.87644 0.533685 0
M  V30 7508 H 708.491 3.33703 2.16167 0
M  V30 7509 N 709.488 -0.375779 1.53054 0
M  V30 7510 C 710.418 -1.46598 1.81745 0
M  V30 7511 C 711.399 -1.56337 0.670286 0
M  V30 7512 O 712.584 -1.71071 0.919158 0
M  V30 7513 C 709.714 -2.84058 1.99821 0
M  V30 7514 C 708.668 -2.8915 3.15557 0
M  V30 7515 C 707.994 -4.29187 3.18908 0
M  V30 7516 C 709.294 -2.57595 4.54359 0
M  V30 7517 H 710.988 -1.22837 2.73041 0
M  V30 7518 H 708.534 -0.589485 1.31381 0
M  V30 7519 H 710.487 -3.60342 2.18475 0
M  V30 7520 H 709.211 -3.09184 1.05226 0
M  V30 7521 H 707.87 -2.15316 2.96706 0
M  V30 7522 H 707.518 -4.51374 2.2197 0
M  V30 7523 H 707.218 -4.33512 3.96662 0
M  V30 7524 H 708.742 -5.07359 3.39734 0
M  V30 7525 H 710.156 -3.23595 4.73243 0
M  V30 7526 H 708.553 -2.73252 5.34279 0
M  V30 7527 H 709.623 -1.52882 4.60169 0
M  V30 7528 N 710.966 -1.44241 -0.634997 0
M  V30 7529 C 712.215 -1.46102 -1.39058 0
M  V30 7530 C 712.528 -0.0959909 -1.95364 0
M  V30 7531 O 713.734 0.00788751 -2.71499 0
M  V30 7532 C 712.19 -2.57195 -2.51751 0
M  V30 7533 C 711.798 -3.99888 -2.01974 0
M  V30 7534 C 713.542 -2.68272 -3.28984 0
M  V30 7535 C 711.449 -5.02412 -3.11987 0
M  V30 7536 H 710.379 -0.543556 -0.522554 0
M  V30 7537 H 713.03 -1.70294 -0.683538 0
M  V30 7538 H 711.412 -2.26237 -3.25012 0
M  V30 7539 H 712.586 -4.40396 -1.35604 0
M  V30 7540 H 710.901 -3.93019 -1.37568 0
M  V30 7541 H 713.498 -3.42042 -4.10988 0
M  V30 7542 H 713.841 -1.73957 -3.78212 0
M  V30 7543 H 714.374 -2.98622 -2.62812 0
M  V30 7544 H 711.113 -5.98342 -2.67707 0
M  V30 7545 H 710.633 -4.66501 -3.77011 0
M  V30 7546 H 712.312 -5.25939 -3.76825 0
M  V30 7547 N 712.444 0.87505 -1.31075 0
M  V30 7548 C 713.721 1.60976 -1.11113 0
M  V30 7549 C 714.101 2.08409 0.336006 0
M  V30 7550 O 713.449 1.85858 1.32924 0
M  V30 7551 C 713.659 2.77166 -2.12085 0
M  V30 7552 C 715.007 3.47254 -2.44335 0
M  V30 7553 O 716.031 2.87367 -2.10472 0
M  V30 7554 O 714.89 4.55276 -3.02301 0
M  V30 7555 H 711.984 0.707982 -0.427424 0
M  V30 7556 H 714.53 0.920957 -1.42536 0
M  V30 7557 H 713.302 2.39494 -3.09449 0
M  V30 7558 H 712.925 3.53737 -1.81538 0
M  V30 7559 N 713.922 1.13953 1.08869 0
M  V30 7560 C 715.169 0.90481 1.81161 0
M  V30 7561 C 715.497 -0.568824 1.85996 0
M  V30 7562 O 714.752 -1.43723 1.32823 0
M  V30 7563 C 715.051 1.44495 3.26888 0
M  V30 7564 C 714.717 2.93641 3.42178 0
M  V30 7565 C 713.379 3.34361 3.46059 0
M  V30 7566 C 715.731 3.89568 3.46246 0
M  V30 7567 C 713.059 4.69681 3.51592 0
M  V30 7568 C 715.411 5.2474 3.53314 0
M  V30 7569 C 714.075 5.64979 3.55465 0
M  V30 7570 H 713.345 0.331094 0.662916 0
M  V30 7571 H 715.992 1.42242 1.28217 0
M  V30 7572 H 714.297 0.848169 3.82509 0
M  V30 7573 H 715.994 1.23934 3.81368 0
M  V30 7574 H 712.584 2.61156 3.39846 0
M  V30 7575 H 716.768 3.59192 3.42483 0
M  V30 7576 H 712.024 5.00224 3.51547 0
M  V30 7577 H 716.198 5.98882 3.55406 0
M  V30 7578 H 713.825 6.69821 3.59505 0
M  V30 7579 N 715.4 -1.26948 0.933913 0
M  V30 7580 C 716.646 -1.94374 0.57848 0
M  V30 7581 C 716.979 -1.73166 -0.879048 0
M  V30 7582 O 716.254 -1.06438 -1.62792 0
M  V30 7583 C 716.537 -3.4834 0.912739 0
M  V30 7584 C 716.39 -3.78866 2.42448 0
M  V30 7585 C 717.709 -4.38062 0.423003 0
M  V30 7586 H 714.828 -0.705959 0.211639 0
M  V30 7587 H 717.47 -1.49951 1.16682 0
M  V30 7588 H 715.62 -3.86309 0.412058 0
M  V30 7589 H 717.292 -3.50654 2.99733 0
M  V30 7590 H 715.535 -3.25198 2.87104 0
M  V30 7591 H 716.206 -4.86458 2.60887 0
M  V30 7592 H 718.682 -4.0728 0.852191 0
M  V30 7593 H 717.558 -5.44599 0.685776 0
M  V30 7594 H 717.819 -4.36886 -0.676994 0
M  V30 7595 N 716.879 -0.700114 -1.41195 0
M  V30 7596 C 718.119 -0.237223 -2.03019 0
M  V30 7597 C 718.483 1.14304 -1.54268 0
M  V30 7598 O 719.684 1.70204 -2.08048 0
M  V30 7599 C 717.955 -0.297442 -3.5616 0
M  V30 7600 S 719.514 0.0907367 -4.38706 0
M  V30 7601 H 716.332 -0.0952147 -0.704596 0
M  V30 7602 H 718.934 -0.918901 -1.72559 0
M  V30 7603 H 717.638 -1.30391 -3.89135 0
M  V30 7604 H 717.169 0.403233 -3.91328 0
M  V30 7605 H 719.184 1.31721 -4.78397 0
M  V30 7606 N 718.357 1.51182 -0.445186 0
M  V30 7607 C 719.304 2.27939 0.362291 0
M  V30 7608 C 720.274 1.31864 1.01 0
M  V30 7609 O 721.459 1.60776 1.02741 0
M  V30 7610 C 718.599 3.13016 1.45311 0
M  V30 7611 C 717.712 4.24093 0.822757 0
M  V30 7612 C 716.847 4.96467 1.88928 0
M  V30 7613 C 715.886 5.99454 1.23778 0
M  V30 7614 N 715.023 6.65206 2.24602 0
M  V30 7615 H 719.863 2.965 -0.29862 0
M  V30 7616 H 717.4 1.46237 -0.15911 0
M  V30 7617 H 719.358 3.60673 2.09692 0
M  V30 7618 H 717.988 2.46553 2.08354 0
M  V30 7619 H 717.04 3.80341 0.0670364 0
M  V30 7620 H 718.352 4.97853 0.307184 0
M  V30 7621 H 717.506 5.47712 2.60953 0
M  V30 7622 H 716.245 4.22355 2.4386 0
M  V30 7623 H 715.25 5.47494 0.503042 0
M  V30 7624 H 716.475 6.75527 0.695694 0
M  V30 7625 H 714.421 5.93901 2.78599 0
M  V30 7626 H 714.338 7.34756 1.77958 0
M  V30 7627 H 715.606 7.21078 2.96085 0
M  V30 7628 N 719.835 0.176821 1.56605 0
M  V30 7629 C 720.767 -0.782836 2.15417 0
M  V30 7630 C 721.78 -1.18982 1.11117 0
M  V30 7631 O 722.969 -1.12872 1.38283 0
M  V30 7632 C 720.069 -2.06596 2.68647 0
M  V30 7633 C 719.242 -1.82167 3.9766 0
M  V30 7634 C 718.301 -2.94751 4.35899 0
M  V30 7635 O 717.327 -2.65148 5.03672 0
M  V30 7636 N 718.529 -4.2267 3.97907 0
M  V30 7637 H 721.294 -0.280012 2.98389 0
M  V30 7638 H 718.855 -0.00577529 1.61899 0
M  V30 7639 H 720.847 -2.81018 2.91223 0
M  V30 7640 H 719.417 -2.48054 1.90232 0
M  V30 7641 H 718.637 -0.916208 3.83405 0
M  V30 7642 H 719.925 -1.6322 4.81909 0
M  V30 7643 H 719.323 -4.4958 3.43357 0
M  V30 7644 H 717.88 -4.93778 4.25472 0
M  V30 7645 N 721.313 -1.57302 -0.09688 0
M  V30 7646 C 722.561 -1.8563 -0.799117 0
M  V30 7647 C 722.882 -0.765263 -1.79356 0
M  V30 7648 O 722.152 0.208657 -1.94786 0
M  V30 7649 H 720.732 -0.684937 -0.298111 0
M  V30 7650 H 723.394 -1.9474 -0.0789341 0
M  V30 7651 H 722.49 -2.82305 -1.3308 0
M  V30 7652 N 722.791 0.367657 -1.53252 0
M  V30 7653 C 724.021 1.12955 -1.72988 0
M  V30 7654 C 724.429 1.8358 -0.457708 0
M  V30 7655 O 723.772 1.74336 0.579006 0
M  V30 7656 C 723.834 2.20545 -2.83902 0
M  V30 7657 C 723.498 1.69704 -4.24323 0
M  V30 7658 C 724.495 1.16223 -5.06743 0
M  V30 7659 C 722.18 1.7528 -4.70725 0
M  V30 7660 C 724.174 0.689935 -6.33655 0
M  V30 7661 C 721.861 1.27662 -5.97617 0
M  V30 7662 C 722.859 0.746083 -6.78913 0
M  V30 7663 O 722.547 0.276925 -8.03423 0
M  V30 7664 H 722.279 0.343753 -0.582074 0
M  V30 7665 H 724.833 0.433106 -2.00782 0
M  V30 7666 H 723.063 2.93676 -2.51577 0
M  V30 7667 H 724.752 2.82111 -2.91836 0
M  V30 7668 H 725.518 1.11256 -4.72067 0
M  V30 7669 H 721.397 2.15515 -4.07522 0
M  V30 7670 H 724.941 0.275164 -6.97057 0
M  V30 7671 H 720.838 1.32322 -6.31792 0
M  V30 7672 H 721.606 0.396445 -8.17539 0
M  V30 7673 N 724.269 1.44576 0.627338 0
M  V30 7674 C 725.546 1.38033 1.38586 0
M  V30 7675 C 725.926 0.0409468 2.1106 0
M  V30 7676 O 725.274 -0.976582 2.0658 0
M  V30 7677 C 725.484 2.58102 2.34913 0
M  V30 7678 C 726.832 3.02332 2.98129 0
M  V30 7679 O 727.856 2.58334 2.45238 0
M  V30 7680 O 726.715 3.78628 3.94085 0
M  V30 7681 H 723.809 0.546801 0.620434 0
M  V30 7682 H 726.355 1.56672 0.652077 0
M  V30 7683 H 725.127 3.4719 1.80485 0
M  V30 7684 H 724.75 2.41696 3.15703 0
M  V30 7685 N 725.747 -0.868086 1.31537 0
M  V30 7686 C 726.677 -1.99131 1.21939 0
M  V30 7687 C 727.658 -1.69768 0.106166 0
M  V30 7688 O 728.843 -1.92006 0.291081 0
M  V30 7689 C 725.973 -3.34676 0.927879 0
M  V30 7690 C 724.927 -3.7835 2.00088 0
M  V30 7691 C 724.253 -5.11375 1.56203 0
M  V30 7692 C 725.553 -3.95256 3.41424 0
M  V30 7693 H 727.247 -2.07419 2.15911 0
M  V30 7694 H 724.793 -0.996569 1.03945 0
M  V30 7695 H 726.746 -4.12793 0.847327 0
M  V30 7696 H 725.47 -3.26565 -0.0475042 0
M  V30 7697 H 724.129 -3.02474 2.07135 0
M  V30 7698 H 723.777 -4.99709 0.57445 0
M  V30 7699 H 723.477 -5.41568 2.27985 0
M  V30 7700 H 725.001 -5.92001 1.49558 0
M  V30 7701 H 726.415 -4.63764 3.3704 0
M  V30 7702 H 724.812 -4.36849 4.1144 0
M  V30 7703 H 725.882 -2.98579 3.82072 0
M  V30 7704 N 727.225 -1.14528 -1.08264 0
M  V30 7705 C 728.45 -0.938381 -1.84957 0
M  V30 7706 C 728.875 0.508044 -1.81109 0
M  V30 7707 O 728.233 1.36146 -1.19724 0
M  V30 7708 C 728.281 -1.44568 -3.30352 0
M  V30 7709 O 727.385 -0.638745 -4.07423 0
M  V30 7710 H 726.726 -0.335394 -0.573068 0
M  V30 7711 H 729.256 -1.52287 -1.36637 0
M  V30 7712 H 729.266 -1.45449 -3.81194 0
M  V30 7713 H 727.941 -2.49876 -3.32468 0
M  V30 7714 H 726.518 -0.698801 -3.66294 0
M  V30 7715 N 728.703 1.26451 -0.940633 0
M  V30 7716 C 730.114 1.75726 -0.630653 0
M  V30 7717 C 730.465 1.76631 0.854167 0
M  V30 7718 O 729.59 1.37807 1.66848 0
M  V30 7719 C 730.185 3.19114 -1.13805 0
M  V30 7720 C 728.744 3.66005 -0.878497 0
M  V30 7721 C 727.891 2.45505 -1.28928 0
M  V30 7722 H 730.842 1.12535 -1.119 0
M  V30 7723 H 730.863 3.77311 -0.491625 0
M  V30 7724 H 730.375 3.18424 -2.21874 0
M  V30 7725 H 728.476 3.72126 0.187833 0
M  V30 7726 H 728.589 4.54844 -1.50512 0
M  V30 7727 H 726.953 2.4467 -0.707713 0
M  V30 7728 H 727.736 2.47516 -2.37888 0
M  V30 7729 N 730.181 0.707592 1.40822 0
M  V30 7730 C 731.111 0.0644925 2.33411 0
M  V30 7731 C 732.092 -0.754205 1.52466 0
M  V30 7732 O 733.277 -0.704749 1.80961 0
M  V30 7733 C 730.407 -0.863865 3.36385 0
M  V30 7734 C 729.361 -0.15138 4.27732 0
M  V30 7735 C 728.687 -1.19491 5.21177 0
M  V30 7736 C 729.987 0.989607 5.12839 0
M  V30 7737 H 731.681 0.837829 2.87438 0
M  V30 7738 H 729.227 0.404346 1.38207 0
M  V30 7739 H 731.18 -1.32309 4.0009 0
M  V30 7740 H 729.904 -1.66901 2.80734 0
M  V30 7741 H 728.563 0.287937 3.65467 0
M  V30 7742 H 728.211 -1.9929 4.61836 0
M  V30 7743 H 727.911 -0.723123 5.83134 0
M  V30 7744 H 729.435 -1.6544 5.8776 0
M  V30 7745 H 730.849 0.610114 5.70044 0
M  V30 7746 H 729.246 1.38926 5.83798 0
M  V30 7747 H 730.316 1.82389 4.49291 0
M  V30 7748 N 731.66 -1.50943 0.453197 0
M  V30 7749 C 732.888 -2.06628 -0.106135 0
M  V30 7750 C 733.303 -1.31901 -1.35084 0
M  V30 7751 O 732.66 -0.383074 -1.78434 0
M  V30 7752 C 732.711 -3.5914 -0.412368 0
M  V30 7753 O 732.432 -4.31047 0.782948 0
M  V30 7754 C 733.933 -4.31391 -1.02064 0
M  V30 7755 H 731.153 -0.670999 -0.000885896 0
M  V30 7756 H 733.697 -1.94331 0.63684 0
M  V30 7757 H 731.852 -3.71299 -1.10526 0
M  V30 7758 H 732.266 -5.21948 0.516736 0
M  V30 7759 H 733.74 -5.39135 -1.1848 0
M  V30 7760 H 734.217 -3.90714 -2.00598 0
M  V30 7761 H 734.823 -4.23716 -0.366664 0
M  V30 7762 N 733.138 -0.185124 -1.56509 0
M  V30 7763 C 734.549 0.329221 -1.83774 0
M  V30 7764 C 734.9 1.62093 -1.10545 0
M  V30 7765 O 734.025 2.13334 -0.36298 0
M  V30 7766 C 734.62 0.604099 -3.33371 0
M  V30 7767 C 733.179 1.06284 -3.61083 0
M  V30 7768 C 732.326 0.10608 -2.77097 0
M  V30 7769 H 735.277 -0.409116 -1.53336 0
M  V30 7770 H 735.298 1.45458 -3.51599 0
M  V30 7771 H 734.81 -0.336201 -3.86641 0
M  V30 7772 H 732.911 2.01777 -3.13236 0
M  V30 7773 H 733.024 0.962453 -4.69333 0
M  V30 7774 H 731.388 0.606082 -2.47384 0
M  V30 7775 H 732.171 -0.828486 -3.33153 0
M  V30 7776 N 734.616 1.57351 0.0885366 0
M  V30 7777 C 735.546 2.05561 1.10757 0
M  V30 7778 C 736.527 0.945789 1.41382 0
M  V30 7779 O 737.712 1.21747 1.51299 0
M  V30 7780 C 734.842 2.48554 2.42566 0
M  V30 7781 C 733.796 3.63259 2.26334 0
M  V30 7782 C 733.122 3.9225 3.63378 0
M  V30 7783 C 734.422 4.93913 1.69844 0
M  V30 7784 H 736.116 2.90946 0.706468 0
M  V30 7785 H 733.662 1.39968 0.338385 0
M  V30 7786 H 735.615 2.8089 3.14132 0
M  V30 7787 H 734.339 1.60176 2.84625 0
M  V30 7788 H 732.998 3.31179 1.57213 0
M  V30 7789 H 732.646 3.0103 4.02976 0
M  V30 7790 H 732.346 4.69478 3.53362 0
M  V30 7791 H 733.87 4.27067 4.36401 0
M  V30 7792 H 735.284 5.24588 2.31258 0
M  V30 7793 H 733.681 5.75349 1.70569 0
M  V30 7794 H 734.751 4.80409 0.65843 0
M  V30 7795 N 736.094 -0.359525 1.53444 0
M  V30 7796 C 737.319 -1.12644 1.74144 0
M  V30 7797 C 737.744 -1.82082 0.472007 0
M  V30 7798 O 737.102 -1.71962 -0.57436 0
M  V30 7799 C 737.15 -2.12781 2.9113 0
M  V30 7800 O 736.254 -3.19984 2.60162 0
M  V30 7801 H 735.595 -0.326553 0.578152 0
M  V30 7802 H 738.125 -0.414798 2.00351 0
M  V30 7803 H 738.135 -2.56278 3.17467 0
M  V30 7804 H 736.81 -1.61634 3.83207 0
M  V30 7805 H 735.387 -2.81417 2.44661 0
M  V30 7806 N 737.572 -1.44907 -0.619662 0
M  V30 7807 C 738.482 -1.55168 -1.75955 0
M  V30 7808 C 739.498 -0.43672 -1.6843 0
M  V30 7809 O 740.674 -0.695704 -1.89002 0
M  V30 7810 C 737.739 -1.50397 -3.12381 0
M  V30 7811 C 736.8 -2.72835 -3.31451 0
M  V30 7812 C 736.033 -2.68283 -4.61368 0
M  V30 7813 O 736.256 -1.74929 -5.42914 0
M  V30 7814 O 735.19 -3.59308 -4.82889 0
M  V30 7815 H 739.016 -2.51493 -1.7025 0
M  V30 7816 H 736.601 -1.27282 -0.782289 0
M  V30 7817 H 738.483 -1.50301 -3.93685 0
M  V30 7818 H 737.158 -0.572197 -3.18603 0
M  V30 7819 H 736.065 -2.78496 -2.49781 0
M  V30 7820 H 737.398 -3.65098 -3.30098 0
M  V30 7821 N 739.05 0.861098 -1.31996 0
M  V30 7822 C 739.98 1.98482 -1.22993 0
M  V30 7823 C 740.961 1.6971 -0.115168 0
M  V30 7824 O 742.146 1.91849 -0.30126 0
M  V30 7825 C 739.276 3.34179 -0.945615 0
M  V30 7826 C 738.23 3.77284 -2.02091 0
M  V30 7827 C 737.556 5.1054 -1.58912 0
M  V30 7828 C 738.856 3.93439 -3.43515 0
M  V30 7829 H 740.55 2.06271 -2.17008 0
M  V30 7830 H 738.096 0.991043 -1.04472 0
M  V30 7831 H 740.049 4.12338 -0.869206 0
M  V30 7832 H 738.773 3.26586 0.0301849 0
M  V30 7833 H 737.432 3.01371 -2.08737 0
M  V30 7834 H 737.08 4.99397 -0.600942 0
M  V30 7835 H 736.78 5.40352 -2.30854 0
M  V30 7836 H 738.304 5.91199 -1.52696 0
M  V30 7837 H 739.718 4.6197 -3.39495 0
M  V30 7838 H 738.115 4.34661 -4.13751 0
M  V30 7839 H 739.185 2.96548 -3.8365 0
M  V30 7840 N 740.528 1.15101 1.07655 0
M  V30 7841 C 741.753 0.948177 1.84457 0
M  V30 7842 C 742.178 -0.498432 1.81376 0
M  V30 7843 O 741.536 -1.35509 1.20445 0
M  V30 7844 C 741.584 1.46318 3.29581 0
M  V30 7845 O 740.688 0.660342 4.07079 0
M  V30 7846 H 740.029 0.338428 0.571281 0
M  V30 7847 H 742.559 1.5301 1.35828 0
M  V30 7848 H 742.569 1.47468 3.80417 0
M  V30 7849 H 741.244 2.51635 3.31138 0
M  V30 7850 H 739.821 0.718216 3.65918 0
M  V30 7851 N 742.006 -1.2595 0.947325 0
M  V30 7852 C 743.252 -1.9375 0.599064 0
M  V30 7853 C 743.585 -1.74088 -0.860632 0
M  V30 7854 O 742.86 -1.08158 -1.61654 0
M  V30 7855 C 743.143 -3.47353 0.949634 0
M  V30 7856 C 742.996 -3.76273 2.46452 0
M  V30 7857 C 744.315 -4.37589 0.469442 0
M  V30 7858 H 741.434 -0.703674 0.219115 0
M  V30 7859 H 744.076 -1.48705 1.18266 0
M  V30 7860 H 742.226 -3.8585 0.453008 0
M  V30 7861 H 743.898 -3.47455 3.03435 0
M  V30 7862 H 742.141 -3.22135 2.90537 0
M  V30 7863 H 742.812 -4.83664 2.66032 0
M  V30 7864 H 745.288 -4.06353 0.89534 0
M  V30 7865 H 744.164 -5.43841 0.7435 0
M  V30 7866 H 744.425 -4.37579 -0.630618 0
M  V30 7867 N 743.484 -0.715051 -1.40445 0
M  V30 7868 C 744.416 -0.0227516 -2.29189 0
M  V30 7869 C 745.429 0.724313 -1.458 0
M  V30 7870 O 746.618 0.571781 -1.69094 0
M  V30 7871 C 743.718 0.992038 -3.24055 0
M  V30 7872 C 742.891 0.310613 -4.36296 0
M  V30 7873 C 741.95 1.23071 -5.11605 0
M  V30 7874 O 740.976 0.71571 -5.64682 0
M  V30 7875 N 742.178 2.56188 -5.2091 0
M  V30 7876 H 744.943 -0.78473 -2.89244 0
M  V30 7877 H 742.504 -0.562637 -1.51809 0
M  V30 7878 H 744.496 1.60973 -3.71308 0
M  V30 7879 H 743.066 1.65538 -2.65171 0
M  V30 7880 H 742.286 -0.487269 -3.91177 0
M  V30 7881 H 743.574 -0.162415 -5.08541 0
M  V30 7882 H 742.972 3.00527 -4.7927 0
M  V30 7883 H 741.529 3.13103 -5.71673 0
M  V30 7884 N 744.962 1.50701 -0.461195 0
M  V30 7885 C 746.202 2.04174 0.0960673 0
M  V30 7886 C 746.566 1.33628 1.37868 0
M  V30 7887 O 747.767 1.77602 2.0177 0
M  V30 7888 C 746.038 3.56256 0.285676 0
M  V30 7889 S 747.597 4.31392 0.802917 0
M  V30 7890 H 744.415 0.710701 0.0206282 0
M  V30 7891 H 747.017 1.85204 -0.62607 0
M  V30 7892 H 745.721 4.05159 -0.653773 0
M  V30 7893 H 745.252 3.79562 1.03421 0
M  V30 7894 H 747.267 4.50611 2.07761 0
M  V30 7895 N 746.441 0.193421 1.56409 0
M  V30 7896 C 747.389 -0.744829 2.20352 0
M  V30 7897 C 748.383 -1.22104 1.17418 0
M  V30 7898 O 749.589 -1.18413 1.35567 0
M  V30 7899 H 745.964 -0.258538 0.70616 0
M  V30 7900 H 747.935 -0.181794 2.97846 0
M  V30 7901 C 746.684 -1.95453 2.87565 0
M  V30 7902 H 746.007 -1.59716 3.66512 0
M  V30 7903 H 747.447 -2.58942 3.35745 0
M  V30 7904 C 745.906 -2.79223 1.8851 0
M  V30 7905 O 746.436 -3.77093 1.38434 0
M  V30 7906 N 744.642 -2.44682 1.56777 0
M  V30 7907 H 744.189 -1.65153 1.97692 0
M  V30 7908 H 744.147 -3.01016 0.907573 0
M  V30 7909 N 747.919 -1.57396 -0.0801906 0
M  V30 7910 C 749.335 -1.53564 -0.434778 0
M  V30 7911 C 749.535 -0.912372 -1.79661 0
M  V30 7912 O 748.591 -0.511268 -2.4727 0
M  V30 7913 C 749.904 -2.98244 -0.383561 0
M  V30 7914 C 751.452 -3.09536 -0.46435 0
M  V30 7915 C 751.927 -4.55851 -0.443128 0
M  V30 7916 N 753.418 -4.60456 -0.503448 0
M  V30 7917 C 754.153 -5.71135 -0.509106 0
M  V30 7918 N 753.649 -6.91203 -0.47008 0
M  V30 7919 N 755.442 -5.59353 -0.555035 0
M  V30 7920 H 747.593 -1.96281 0.811635 0
M  V30 7921 H 749.856 -0.898041 0.303689 0
M  V30 7922 H 749.562 -3.47369 0.550236 0
M  V30 7923 H 749.436 -3.57705 -1.19694 0
M  V30 7924 H 751.823 -2.6039 -1.38857 0
M  V30 7925 H 751.904 -2.53 0.377445 0
M  V30 7926 H 751.548 -5.05653 0.477207 0
M  V30 7927 H 751.478 -5.10242 -1.30234 0
M  V30 7928 H 753.969 -3.74048 -0.538199 0
M  V30 7929 H 754.282 -7.7132 -0.478091 0
M  V30 7930 H 752.627 -6.93625 -0.436897 0
M  V30 7931 H 755.818 -4.64453 -0.583158 0
M  V30 7932 H 755.991 -6.4561 -0.555976 0
M  V30 7933 N 749.397 0.351382 -1.53633 0
M  V30 7934 C 750.645 1.09034 -1.70165 0
M  V30 7935 C 750.966 1.89413 -0.463422 0
M  V30 7936 O 750.236 1.888 0.522624 0
M  V30 7937 H 748.816 0.405522 -0.627344 0
M  V30 7938 H 751.478 0.394554 -1.90865 0
M  V30 7939 H 750.574 1.77215 -2.56907 0
M  V30 7940 N 750.875 1.45233 0.611969 0
M  V30 7941 C 751.785 1.56098 1.7513 0
M  V30 7942 C 752.801 0.445646 1.68196 0
M  V30 7943 O 753.977 0.705718 1.88631 0
M  V30 7944 C 751.042 1.52052 3.11579 0
M  V30 7945 C 750.103 2.74589 3.29999 0
M  V30 7946 C 749.336 2.70726 4.59938 0
M  V30 7947 O 749.559 1.77806 5.41979 0
M  V30 7948 O 748.493 3.61864 4.80976 0
M  V30 7949 H 752.319 2.52392 1.68914 0
M  V30 7950 H 749.904 1.27695 0.775528 0
M  V30 7951 H 751.786 1.52387 3.92882 0
M  V30 7952 H 750.461 0.589085 3.18295 0
M  V30 7953 H 749.368 2.79817 2.48301 0
M  V30 7954 H 750.701 3.66843 3.28157 0
M  V30 7955 N 752.353 -0.854086 1.3245 0
M  V30 7956 C 753.599 -1.61069 1.23225 0
M  V30 7957 C 753.932 -1.93111 -0.205349 0
M  V30 7958 O 753.207 -1.57397 -1.14265 0
M  V30 7959 C 753.49 -2.93065 2.09249 0
M  V30 7960 C 753.343 -2.67801 3.6139 0
M  V30 7961 C 754.662 -3.94341 1.95406 0
M  V30 7962 H 751.781 -0.584449 0.448986 0
M  V30 7963 H 754.423 -0.986189 1.62402 0
M  V30 7964 H 752.573 -3.46364 1.75967 0
M  V30 7965 H 754.245 -2.21052 4.04887 0
M  V30 7966 H 752.488 -2.01756 3.84027 0
M  V30 7967 H 753.159 -3.6179 4.16907 0
M  V30 7968 H 755.635 -3.50301 2.24562 0
M  V30 7969 H 754.511 -4.84555 2.57872 0
M  V30 7970 H 754.772 -4.32382 0.921865 0
M  V30 7971 N 753.831 -1.1567 -1.07043 0
M  V30 7972 C 754.778 -0.856336 -2.14326 0
M  V30 7973 C 755.748 0.192051 -1.64986 0
M  V30 7974 O 756.933 0.0589148 -1.90709 0
M  V30 7975 C 754.073 -0.355227 -3.43267 0
M  V30 7976 C 753.186 -1.46555 -4.06381 0
M  V30 7977 C 752.321 -0.920245 -5.23168 0
M  V30 7978 C 751.36 -2.00729 -5.78251 0
M  V30 7979 N 750.497 -1.47813 -6.86364 0
M  V30 7980 H 755.337 -1.77514 -2.39359 0
M  V30 7981 H 752.874 -0.885676 -1.17449 0
M  V30 7982 H 754.832 -0.0463804 -4.17174 0
M  V30 7983 H 753.462 0.526649 -3.18475 0
M  V30 7984 H 752.514 -1.89052 -3.30096 0
M  V30 7985 H 753.826 -2.28616 -4.43324 0
M  V30 7986 H 752.98 -0.564127 -6.04072 0
M  V30 7987 H 751.719 -0.0688477 -4.87651 0
M  V30 7988 H 750.724 -2.3722 -4.95991 0
M  V30 7989 H 751.949 -2.86252 -6.15822 0
M  V30 7990 H 749.895 -0.649145 -6.5278 0
M  V30 7991 H 749.812 -2.23498 -7.22208 0
M  V30 7992 H 751.08 -1.15036 -7.70965 0
M  V30 7993 N 755.309 1.25446 -0.953992 0
M  V30 7994 C 756.539 1.96929 -0.624688 0
M  V30 7995 C 756.947 1.71112 0.807292 0
M  V30 7996 O 756.29 0.983512 1.55154 0
M  V30 7997 C 756.352 3.50425 -0.802676 0
M  V30 7998 C 756.016 3.99916 -2.21169 0
M  V30 7999 C 757.013 4.10662 -3.18831 0
M  V30 8000 C 754.698 4.33598 -2.53571 0
M  V30 8001 C 756.692 4.54401 -4.46988 0
M  V30 8002 C 754.379 4.77024 -3.81958 0
M  V30 8003 C 755.377 4.87388 -4.78478 0
M  V30 8004 O 755.065 5.29851 -6.04577 0
M  V30 8005 H 754.797 0.634511 -0.233179 0
M  V30 8006 H 757.351 1.60591 -1.28061 0
M  V30 8007 H 755.581 3.86596 -0.0896044 0
M  V30 8008 H 757.27 4.03117 -0.47452 0
M  V30 8009 H 758.036 3.84872 -2.95124 0
M  V30 8010 H 753.915 4.24757 -1.79171 0
M  V30 8011 H 757.459 4.62406 -5.22328 0
M  V30 8012 H 753.356 5.02258 -4.05471 0
M  V30 8013 H 754.124 5.48039 -6.07944 0
M  V30 8014 N 756.787 0.722489 1.40064 0
M  V30 8015 C 758.198 0.336507 1.83642 0
M  V30 8016 C 758.549 -1.13002 1.6039 0
M  V30 8017 O 757.674 -1.87036 1.08842 0
M  V30 8018 C 758.269 0.603985 3.33373 0
M  V30 8019 C 756.828 0.271637 3.75419 0
M  V30 8020 C 755.975 0.872898 2.63203 0
M  V30 8021 H 758.926 0.921108 1.29233 0
M  V30 8022 H 758.947 -0.128471 3.80283 0
M  V30 8023 H 758.459 1.67141 3.50265 0
M  V30 8024 H 756.56 -0.790455 3.64119 0
M  V30 8025 H 756.673 0.745457 4.73265 0
M  V30 8026 H 755.037 0.300431 2.52922 0
M  V30 8027 H 755.82 1.94473 2.82905 0
M  V30 8028 N 758.265 -1.50454 0.469181 0
M  V30 8029 C 759.195 -2.31353 -0.31592 0
M  V30 8030 C 760.176 -1.38172 -0.992094 0
M  V30 8031 O 761.361 -1.67093 -0.989633 0
M  V30 8032 C 758.491 -3.1786 -1.39937 0
M  V30 8033 C 757.445 -4.19578 -0.844909 0
M  V30 8034 C 756.771 -4.9481 -2.0265 0
M  V30 8035 C 758.071 -5.22106 0.142499 0
M  V30 8036 H 759.765 -2.97237 0.359269 0
M  V30 8037 H 757.311 -1.42942 0.174224 0
M  V30 8038 H 759.264 -3.7325 -1.95607 0
M  V30 8039 H 757.988 -2.49858 -2.1033 0
M  V30 8040 H 756.647 -3.65285 -0.310189 0
M  V30 8041 H 756.295 -4.23282 -2.71737 0
M  V30 8042 H 755.995 -5.63613 -1.66174 0
M  V30 8043 H 757.519 -5.53035 -2.58815 0
M  V30 8044 H 758.933 -5.72378 -0.324966 0
M  V30 8045 H 757.33 -5.98618 0.421441 0
M  V30 8046 H 758.4 -4.7297 1.06901 0
M  V30 8047 N 759.743 -0.201713 -1.56304 0
M  V30 8048 C 760.983 0.437395 -1.99665 0
M  V30 8049 C 761.347 1.58341 -1.08592 0
M  V30 8050 O 762.548 2.28716 -1.41217 0
M  V30 8051 C 760.819 0.879572 -3.46408 0
M  V30 8052 S 762.378 1.51558 -4.11795 0
M  V30 8053 H 759.196 0.139621 -0.697156 0
M  V30 8054 H 761.798 -0.306337 -1.93085 0
M  V30 8055 H 760.502 0.0355295 -4.10385 0
M  V30 8056 H 760.033 1.65661 -3.56819 0
M  V30 8057 H 762.048 2.80445 -4.09347 0
M  V30 8058 N 761.222 1.57436 0.0718424 0
M  V30 8059 C 762.45 1.91474 0.783932 0
M  V30 8060 C 762.865 0.797669 1.71122 0
M  V30 8061 O 762.222 -0.228989 1.81058 0
M  V30 8062 C 762.273 3.25259 1.57761 0
M  V30 8063 O 761.994 4.3267 0.687596 0
M  V30 8064 C 763.495 3.7331 2.3907 0
M  V30 8065 H 760.715 0.632901 0.222885 0
M  V30 8066 H 763.259 2.04457 0.0421262 0
M  V30 8067 H 761.414 3.13804 2.27169 0
M  V30 8068 H 761.828 5.09641 1.23962 0
M  V30 8069 H 763.302 4.69551 2.90216 0
M  V30 8070 H 763.779 3.02318 3.18591 0
M  V30 8071 H 764.385 3.8771 1.74818 0
M  V30 8072 N 762.7 -0.34323 1.53817 0
M  V30 8073 C 764.116 -0.686355 1.44088 0
M  V30 8074 C 764.316 -1.92426 0.597882 0
M  V30 8075 O 763.372 -2.52343 0.0889918 0
M  V30 8076 C 764.685 -0.878698 2.87575 0
M  V30 8077 C 766.233 -0.977296 2.97352 0
M  V30 8078 C 766.708 -1.20195 4.41947 0
M  V30 8079 N 768.199 -1.26915 4.45474 0
M  V30 8080 C 768.934 -1.46049 5.54488 0
M  V30 8081 N 768.43 -1.62354 6.73508 0
M  V30 8082 N 770.223 -1.48599 5.42102 0
M  V30 8083 H 762.374 0.470679 2.07119 0
M  V30 8084 H 764.637 0.148652 0.936273 0
M  V30 8085 H 764.343 -0.040602 3.51677 0
M  V30 8086 H 764.217 -1.78034 3.32541 0
M  V30 8087 H 766.604 -1.80591 2.3339 0
M  V30 8088 H 766.685 -0.0525498 2.55746 0
M  V30 8089 H 766.329 -0.378262 5.06489 0
M  V30 8090 H 766.259 -2.14027 4.81145 0
M  V30 8091 H 768.75 -1.15837 3.59708 0
M  V30 8092 H 769.063 -1.76591 7.52353 0
M  V30 8093 H 767.408 -1.5949 6.76453 0
M  V30 8094 H 770.599 -1.35443 4.48077 0
M  V30 8095 H 770.772 -1.6317 6.2712 0
M  V30 8096 N 764.178 -1.45556 -0.604258 0
M  V30 8097 C 765.125 -1.54482 -1.71476 0
M  V30 8098 C 766.095 -0.390479 -1.61445 0
M  V30 8099 O 767.28 -0.604371 -1.80975 0
M  V30 8100 C 764.42 -1.52064 -3.09791 0
M  V30 8101 C 763.533 -2.78073 -3.30604 0
M  V30 8102 C 762.668 -2.67304 -4.59044 0
M  V30 8103 C 761.707 -3.88352 -4.73127 0
M  V30 8104 N 760.844 -3.76098 -5.9287 0
M  V30 8105 H 765.684 -2.49349 -1.63184 0
M  V30 8106 H 763.221 -1.23725 -0.795641 0
M  V30 8107 H 765.179 -1.48649 -3.89819 0
M  V30 8108 H 763.809 -0.607442 -3.17033 0
M  V30 8109 H 762.861 -2.91561 -2.44329 0
M  V30 8110 H 764.173 -3.67847 -3.36883 0
M  V30 8111 H 763.327 -2.61875 -5.47272 0
M  V30 8112 H 762.066 -1.75135 -4.55169 0
M  V30 8113 H 761.071 -3.94137 -3.83322 0
M  V30 8114 H 762.296 -4.81591 -4.78797 0
M  V30 8115 H 760.242 -2.867 -5.90033 0
M  V30 8116 H 760.159 -4.59509 -6.00323 0
M  V30 8117 H 761.427 -3.74607 -6.83586 0
M  V30 8118 N 765.656 0.84705 -1.32902 0
M  V30 8119 C 766.566 1.98845 -1.2449 0
M  V30 8120 C 767.582 1.7329 -0.15702 0
M  V30 8121 O 768.758 1.978 -0.379104 0
M  V30 8122 C 765.823 3.32679 -0.975985 0
M  V30 8123 C 764.884 3.71405 -2.15306 0
M  V30 8124 C 764.117 4.98853 -1.89688 0
M  V30 8125 O 764.34 5.64134 -0.843168 0
M  V30 8126 O 763.274 5.34889 -2.76002 0
M  V30 8127 H 767.1 2.0888 -2.2046 0
M  V30 8128 H 764.685 0.978852 -1.12867 0
M  V30 8129 H 766.567 4.12885 -0.842826 0
M  V30 8130 H 765.242 3.23667 -0.0464954 0
M  V30 8131 H 764.149 2.91743 -2.34172 0
M  V30 8132 H 765.482 3.85073 -3.06561 0
M  V30 8133 N 767.134 1.16236 1.06428 0
M  V30 8134 C 768.359 0.967688 1.83441 0
M  V30 8135 C 768.784 -0.479167 1.81894 0
M  V30 8136 O 768.142 -1.34224 1.21875 0
M  V30 8137 C 768.19 1.49806 3.2801 0
M  V30 8138 O 767.294 0.703481 4.06356 0
M  V30 8139 H 766.635 0.344468 0.56766 0
M  V30 8140 H 769.165 1.54442 1.34197 0
M  V30 8141 H 769.175 1.51495 3.78831 0
M  V30 8142 H 767.85 2.55133 3.2845 0
M  V30 8143 H 766.427 0.756986 3.65136 0
M  V30 8144 N 768.612 -1.24939 0.960631 0
M  V30 8145 C 769.559 -2.25658 0.484459 0
M  V30 8146 C 770.529 -1.59422 -0.466242 0
M  V30 8147 O 771.714 -1.87015 -0.378169 0
M  V30 8148 C 768.854 -3.44359 -0.225958 0
M  V30 8149 C 767.967 -4.25214 0.762682 0
M  V30 8150 C 767.102 -5.31192 0.0290931 0
M  V30 8151 C 766.141 -6.03739 1.00827 0
M  V30 8152 N 765.278 -7.01437 0.305155 0
M  V30 8153 H 770.118 -2.65758 1.34821 0
M  V30 8154 H 767.655 -1.30648 0.675983 0
M  V30 8155 H 769.613 -4.12035 -0.654472 0
M  V30 8156 H 768.243 -3.05118 -1.05371 0
M  V30 8157 H 767.295 -3.57144 1.30966 0
M  V30 8158 H 768.607 -4.75406 1.50964 0
M  V30 8159 H 767.761 -6.04971 -0.457763 0
M  V30 8160 H 766.5 -4.81889 -0.750614 0
M  V30 8161 H 765.505 -5.2877 1.50607 0
M  V30 8162 H 766.73 -6.55131 1.7883 0
M  V30 8163 H 764.676 -6.54415 -0.455704 0
M  V30 8164 H 764.593 -7.49475 0.991104 0
M  V30 8165 H 765.861 -7.79336 -0.159966 0
M  V30 8166 N 770.09 -0.729906 -1.39679 0
M  V30 8167 C 771.338 -0.275077 -2.00219 0
M  V30 8168 C 771.659 1.1401 -1.58199 0
M  V30 8169 O 770.929 1.77546 -0.827904 0
M  V30 8170 H 769.509 -0.0987127 -0.740449 0
M  V30 8171 H 772.171 -0.93873 -1.70804 0
M  V30 8172 H 771.267 -0.319446 -3.10461 0
M  V30 8173 N 771.568 1.50203 -0.477153 0
M  V30 8174 C 772.501 2.25343 0.359983 0
M  V30 8175 C 773.479 1.28909 0.991022 0
M  V30 8176 O 774.663 1.58146 1.02578 0
M  V30 8177 C 771.79 3.03431 1.5049 0
M  V30 8178 C 770.836 4.14836 0.99063 0
M  V30 8179 S 771.669 5.35407 -0.0995413 0
M  V30 8180 C 772.825 6.17045 1.04911 0
M  V30 8181 H 773.058 2.95999 -0.277836 0
M  V30 8182 H 770.591 1.52159 -0.262115 0
M  V30 8183 H 772.549 3.49012 2.16105 0
M  V30 8184 H 771.21 2.32289 2.11425 0
M  V30 8185 H 770.403 4.689 1.84794 0
M  V30 8186 H 770.005 3.71723 0.412097 0
M  V30 8187 H 772.297 6.48546 1.95946 0
M  V30 8188 H 773.24 7.05979 0.547596 0
M  V30 8189 H 773.648 5.49193 1.30567 0
M  V30 8190 N 773.046 0.209999 1.56195 0
M  V30 8191 C 774.286 -0.4268 1.99894 0
M  V30 8192 C 774.65 -1.57763 1.0943 0
M  V30 8193 O 775.851 -2.27964 1.42428 0
M  V30 8194 C 774.122 -0.861188 3.46869 0
M  V30 8195 S 775.681 -1.49372 4.12593 0
M  V30 8196 H 772.499 -0.135922 0.697887 0
M  V30 8197 H 775.101 0.316573 1.9292 0
M  V30 8198 H 773.805 -0.0137653 4.10398 0
M  V30 8199 H 773.336 -1.63766 3.57693 0
M  V30 8200 H 775.351 -2.7827 4.10829 0
M  V30 8201 N 774.524 -1.57472 -0.0634922 0
M  V30 8202 C 775.752 -1.91887 -0.773767 0
M  V30 8203 C 776.167 -0.806733 -1.70696 0
M  V30 8204 O 775.524 0.219383 -1.81177 0
M  V30 8205 C 775.575 -3.26092 -1.56034 0
M  V30 8206 O 775.296 -4.33029 -0.66464 0
M  V30 8207 C 776.797 -3.74573 -2.37087 0
M  V30 8208 H 774.017 -0.634074 -0.219525 0
M  V30 8209 H 776.561 -2.04476 -0.0312828 0
M  V30 8210 H 774.716 -3.15004 -2.25502 0
M  V30 8211 H 775.13 -5.10291 -1.21258 0
M  V30 8212 H 776.604 -4.71084 -2.87722 0
M  V30 8213 H 777.081 -3.04003 -3.16984 0
M  V30 8214 H 777.687 -3.88631 -1.72759 0
M  V30 8215 N 776.003 0.335068 -1.53997 0
M  V30 8216 C 777.228 1.09859 -1.75914 0
M  V30 8217 C 777.653 1.81308 -0.500915 0
M  V30 8218 O 777.011 1.72854 0.54693 0
M  V30 8219 C 777.059 2.08122 -2.94478 0
M  V30 8220 O 776.163 3.15805 -2.65219 0
M  V30 8221 H 775.504 0.317313 -0.583274 0
M  V30 8222 H 778.034 0.382872 -2.00986 0
M  V30 8223 H 778.044 2.51195 -3.21504 0
M  V30 8224 H 776.719 1.55517 -3.8573 0
M  V30 8225 H 775.296 2.77489 -2.49107 0
M  V30 8226 N 777.481 1.45874 0.596531 0
M  V30 8227 C 778.892 1.44798 1.17857 0
M  V30 8228 C 779.243 0.181443 1.95359 0
M  V30 8229 O 778.368 -0.716336 2.042 0
M  V30 8230 C 778.963 2.62333 2.14398 0
M  V30 8231 C 777.522 2.64342 2.67955 0
M  V30 8232 C 776.669 2.37244 1.43564 0
M  V30 8233 H 779.62 1.53954 0.385222 0
M  V30 8234 H 779.641 2.37063 2.97626 0
M  V30 8235 H 779.153 3.54499 1.57963 0
M  V30 8236 H 777.254 1.76213 3.28298 0
M  V30 8237 H 777.367 3.63897 3.11634 0
M  V30 8238 H 775.731 1.87022 1.72901 0
M  V30 8239 H 776.514 3.31568 0.889805 0
M  V30 8240 N 778.959 -0.83999 1.33349 0
M  V30 8241 C 780.37 -1.41139 1.22216 0
M  V30 8242 C 780.721 -1.95551 -0.159398 0
M  V30 8243 O 779.846 -1.88721 -1.05893 0
M  V30 8244 C 780.441 -2.56564 2.21269 0
M  V30 8245 C 779 -3.09661 2.13979 0
M  V30 8246 C 778.147 -1.82457 2.08818 0
M  V30 8247 H 781.098 -0.645853 1.44964 0
M  V30 8248 H 781.119 -3.34163 1.81976 0
M  V30 8249 H 780.631 -2.16932 3.21811 0
M  V30 8250 H 778.732 -3.53841 1.16736 0
M  V30 8251 H 778.845 -3.6991 3.04472 0
M  V30 8252 H 777.209 -2.0266 1.54276 0
M  V30 8253 H 777.992 -1.45022 3.11165 0
M  V30 8254 N 780.437 -1.16799 -1.0581 0
M  V30 8255 C 781.367 -0.902241 -2.15364 0
M  V30 8256 C 782.348 0.153351 -1.69407 0
M  V30 8257 O 783.533 0.00442032 -1.94199 0
M  V30 8258 C 780.663 -0.407911 -3.44896 0
M  V30 8259 C 779.617 -1.40197 -4.04387 0
M  V30 8260 C 778.943 -0.765848 -5.29187 0
M  V30 8261 C 780.243 -2.77316 -4.42598 0
M  V30 8262 H 781.937 -1.81841 -2.37853 0
M  V30 8263 H 779.483 -0.875731 -1.14311 0
M  V30 8264 H 781.436 -0.20945 -4.20879 0
M  V30 8265 H 780.16 0.54378 -3.22041 0
M  V30 8266 H 778.819 -1.58707 -3.30466 0
M  V30 8267 H 778.467 0.192482 -5.02632 0
M  V30 8268 H 778.167 -1.42939 -5.69949 0
M  V30 8269 H 779.691 -0.577519 -6.07863 0
M  V30 8270 H 781.105 -2.62561 -5.09642 0
M  V30 8271 H 779.502 -3.4019 -4.94359 0
M  V30 8272 H 780.572 -3.32199 -3.53231 0
M  V30 8273 N 781.915 1.24427 -0.967243 0
M  V30 8274 C 783.164 1.91789 -0.624478 0
M  V30 8275 C 783.477 1.76448 0.844129 0
M  V30 8276 O 784.683 2.38495 1.2974 0
M  V30 8277 C 783.139 3.43743 -1.06626 0
M  V30 8278 C 782.747 3.67771 -2.55829 0
M  V30 8279 C 784.491 4.16958 -0.79662 0
M  V30 8280 C 782.398 5.13293 -2.93742 0
M  V30 8281 H 781.328 0.71811 -0.229856 0
M  V30 8282 H 783.979 1.41081 -1.17339 0
M  V30 8283 H 782.361 3.93484 -0.445663 0
M  V30 8284 H 783.535 3.28631 -3.23015 0
M  V30 8285 H 781.85 3.07841 -2.80398 0
M  V30 8286 H 784.447 5.24171 -1.05589 0
M  V30 8287 H 784.79 4.15442 0.267163 0
M  V30 8288 H 785.323 3.73164 -1.37816 0
M  V30 8289 H 782.062 5.19931 -3.9919 0
M  V30 8290 H 781.582 5.53433 -2.3124 0
M  V30 8291 H 783.261 5.81521 -2.83623 0
M  V30 8292 N 783.393 0.737304 1.3929 0
M  V30 8293 C 784.34 0.0988364 2.30588 0
M  V30 8294 C 785.31 -0.727206 1.49335 0
M  V30 8295 O 786.495 -0.686694 1.78014 0
M  V30 8296 C 783.635 -0.800734 3.35682 0
M  V30 8297 C 782.748 0.0381731 4.31983 0
M  V30 8298 C 781.883 -0.862884 5.24145 0
M  V30 8299 C 780.922 -0.0193639 6.12097 0
M  V30 8300 N 780.059 -0.87648 6.96608 0
M  V30 8301 H 784.899 0.883031 2.84617 0
M  V30 8302 H 782.436 0.447111 1.4014 0
M  V30 8303 H 784.394 -1.33676 3.95205 0
M  V30 8304 H 783.024 -1.55088 2.83103 0
M  V30 8305 H 782.076 0.691641 3.74059 0
M  V30 8306 H 783.388 0.690294 4.94 0
M  V30 8307 H 782.542 -1.46667 5.88705 0
M  V30 8308 H 781.281 -1.54878 4.62454 0
M  V30 8309 H 780.286 0.597202 5.46547 0
M  V30 8310 H 781.511 0.663348 6.75852 0
M  V30 8311 H 779.457 -1.54762 6.37483 0
M  V30 8312 H 779.374 -0.280892 7.55478 0
M  V30 8313 H 780.642 -1.46575 7.65595 0
M  V30 8314 N 784.871 -1.49948 0.485112 0
M  V30 8315 C 785.821 -2.25734 -0.320658 0
M  V30 8316 C 786.805 -1.29907 -0.949373 0
M  V30 8317 O 787.997 -1.54725 -0.859601 0
M  V30 8318 C 785.126 -3.13728 -1.39391 0
M  V30 8319 C 784.212 -4.1701 -0.772225 0
M  V30 8320 N 784.603 -5.05667 0.115782 0
M  V30 8321 C 782.901 -4.33834 -1.03461 0
M  V30 8322 C 783.602 -5.79798 0.47004 0
M  V30 8323 N 782.578 -5.4337 -0.158204 0
M  V30 8324 H 786.38 -2.91647 0.36319 0
M  V30 8325 H 783.894 -1.59602 0.300154 0
M  V30 8326 H 785.891 -3.66639 -1.98447 0
M  V30 8327 H 784.551 -2.49365 -2.0796 0
M  V30 8328 H 785.562 -5.15619 0.485557 0
M  V30 8329 H 782.239 -3.80684 -1.71424 0
M  V30 8330 H 783.629 -6.61177 1.19558 0
M  V30 8331 N 786.349 -0.21828 -1.56081 0
M  V30 8332 C 787.597 0.413488 -1.97825 0
M  V30 8333 C 787.918 1.60527 -1.10707 0
M  V30 8334 O 787.188 1.9504 -0.183378 0
M  V30 8335 H 785.768 0.155757 -0.730581 0
M  V30 8336 H 788.43 -0.310413 -1.92412 0
M  V30 8337 H 787.526 0.742024 -3.03151 0
M  V30 8338 N 787.827 1.57504 0.0551401 0
M  V30 8339 C 789.073 1.88334 0.752216 0
M  V30 8340 C 789.406 0.812742 1.76375 0
M  V30 8341 O 788.681 -0.175198 1.93709 0
M  V30 8342 C 788.964 3.29824 1.44528 0
M  V30 8343 C 788.817 4.47553 0.449026 0
M  V30 8344 C 790.136 3.69808 2.38601 0
M  V30 8345 H 787.255 0.684973 0.271995 0
M  V30 8346 H 789.897 1.89994 0.0151895 0
M  V30 8347 H 788.047 3.28539 2.07351 0
M  V30 8348 H 789.719 4.60967 -0.175277 0
M  V30 8349 H 787.962 4.33168 -0.234162 0
M  V30 8350 H 788.633 5.43376 0.971917 0
M  V30 8351 H 791.109 3.72293 1.85842 0
M  V30 8352 H 789.985 4.69665 2.84088 0
M  V30 8353 H 790.246 3.00641 3.24141 0
M  V30 8354 N 789.305 -0.326896 1.54172 0
M  V30 8355 C 790.554 -1.06274 1.71431 0
M  V30 8356 C 790.867 -1.89282 0.493123 0
M  V30 8357 O 792.073 -2.65933 0.54699 0
M  V30 8358 C 790.529 -1.93892 3.03206 0
M  V30 8359 C 790.137 -1.16011 4.32719 0
M  V30 8360 C 791.881 -2.67232 3.29829 0
M  V30 8361 C 789.788 -2.02755 5.55558 0
M  V30 8362 H 788.718 -0.400475 0.638855 0
M  V30 8363 H 791.369 -0.321184 1.80667 0
M  V30 8364 H 789.751 -2.71933 2.87869 0
M  V30 8365 H 790.925 -0.427643 4.58811 0
M  V30 8366 H 789.24 -0.54367 4.12836 0
M  V30 8367 H 791.837 -3.32434 4.18798 0
M  V30 8368 H 792.18 -3.34692 2.47562 0
M  V30 8369 H 792.713 -1.96255 3.46018 0
M  V30 8370 H 789.452 -1.3981 6.40417 0
M  V30 8371 H 788.972 -2.73745 5.33689 0
M  V30 8372 H 790.651 -2.61419 5.91835 0
M  V30 8373 N 790.784 -1.46188 -0.588786 0
M  V30 8374 C 792.033 -1.50452 -1.34339 0
M  V30 8375 C 792.346 -0.158096 -1.9496 0
M  V30 8376 O 793.552 -0.0784918 -2.71387 0
M  V30 8377 C 792.008 -2.65074 -2.43441 0
M  V30 8378 C 791.616 -4.06111 -1.8915 0
M  V30 8379 C 793.36 -2.78603 -3.20282 0
M  V30 8380 C 791.267 -5.12084 -2.95845 0
M  V30 8381 H 790.197 -0.559905 -0.504997 0
M  V30 8382 H 792.848 -1.72382 -0.629014 0
M  V30 8383 H 791.23 -2.36462 -3.1765 0
M  V30 8384 H 792.404 -4.44487 -1.21524 0
M  V30 8385 H 790.719 -3.97197 -1.24995 0
M  V30 8386 H 793.316 -3.54944 -3.99898 0
M  V30 8387 H 793.659 -1.85902 -3.72486 0
M  V30 8388 H 794.192 -3.06832 -2.53178 0
M  V30 8389 H 790.931 -6.06556 -2.48535 0
M  V30 8390 H 790.451 -4.78259 -3.61979 0
M  V30 8391 H 792.13 -5.37661 -3.59902 0
M  V30 8392 N 792.262 0.832906 -1.33792 0
M  V30 8393 C 793.487 1.62568 -1.28788 0
M  V30 8394 C 793.912 1.87599 0.137246 0
M  V30 8395 O 793.27 1.44436 1.0958 0
M  V30 8396 C 793.318 2.9495 -2.07453 0
M  V30 8397 O 792.422 3.86546 -1.43722 0
M  V30 8398 H 791.763 0.494809 -0.442787 0
M  V30 8399 H 794.293 1.03578 -1.76445 0
M  V30 8400 H 794.303 3.44599 -2.1844 0
M  V30 8401 H 792.978 2.76055 -3.11073 0
M  V30 8402 H 791.555 3.45044 -1.41417 0
M  V30 8403 N 793.74 1.17359 1.05189 0
M  V30 8404 C 794.965 0.98709 1.82404 0
M  V30 8405 C 795.39 -0.459848 1.82392 0
M  V30 8406 O 794.748 -1.32924 1.23292 0
M  V30 8407 C 794.796 1.53276 3.26403 0
M  V30 8408 O 793.9 0.746541 4.05587 0
M  V30 8409 H 793.241 0.35047 0.563974 0
M  V30 8410 H 795.771 1.55856 1.32552 0
M  V30 8411 H 795.781 1.55504 3.77203 0
M  V30 8412 H 794.456 2.58603 3.25726 0
M  V30 8413 H 793.033 0.795671 3.64312 0
M  V30 8414 N 795.218 -1.23913 0.973828 0
M  V30 8415 C 796.446 -1.96195 0.656891 0
M  V30 8416 C 796.861 -1.72166 -0.774876 0
M  V30 8417 O 796.218 -1.0091 -1.52064 0
M  V30 8418 C 796.269 -3.49342 0.929638 0
M  V30 8419 O 795.99 -3.72553 2.30512 0
M  V30 8420 C 797.491 -4.38833 0.627739 0
M  V30 8421 H 794.711 -0.624841 0.244572 0
M  V30 8422 H 797.255 -1.57579 1.30343 0
M  V30 8423 H 795.41 -3.85999 0.329216 0
M  V30 8424 H 795.824 -4.66893 2.3898 0
M  V30 8425 H 797.298 -5.45117 0.868991 0
M  V30 8426 H 797.775 -4.37009 -0.438104 0
M  V30 8427 H 798.381 -4.07773 1.20834 0
M  V30 8428 N 796.696 -0.74468 -1.38897 0
M  V30 8429 C 797.942 -0.297324 -2.00609 0
M  V30 8430 C 798.275 1.11547 -1.58968 0
M  V30 8431 O 797.55 1.76227 -0.823057 0
M  V30 8432 C 797.833 -0.410125 -3.57757 0
M  V30 8433 C 797.686 -1.86338 -4.09387 0
M  V30 8434 C 799.005 0.20176 -4.39637 0
M  V30 8435 H 796.124 -0.109509 -0.728819 0
M  V30 8436 H 798.766 -0.942653 -1.64967 0
M  V30 8437 H 796.916 0.139287 -3.8825 0
M  V30 8438 H 798.588 -2.47042 -3.89574 0
M  V30 8439 H 796.831 -2.38146 -3.62586 0
M  V30 8440 H 797.502 -1.89352 -5.18507 0
M  V30 8441 H 799.978 -0.266703 -4.15244 0
M  V30 8442 H 798.854 0.0925415 -5.48822 0
M  V30 8443 H 799.115 1.289 -4.22891 0
M  V30 8444 N 798.174 1.49689 -0.493057 0
M  V30 8445 C 799.451 1.9525 0.116907 0
M  V30 8446 C 799.831 1.43429 1.54892 0
M  V30 8447 O 799.179 0.644621 2.19219 0
M  V30 8448 C 799.389 3.4898 0.037705 0
M  V30 8449 C 800.737 4.24052 0.215621 0
M  V30 8450 O 801.761 3.5602 0.113266 0
M  V30 8451 O 800.62 5.44847 0.42477 0
M  V30 8452 H 797.714 0.820973 0.099662 0
M  V30 8453 H 800.26 1.60367 -0.555029 0
M  V30 8454 H 799.032 3.79309 -0.961251 0
M  V30 8455 H 798.655 3.9046 0.750137 0
M  V30 8456 N 799.652 0.226554 1.55963 0
M  V30 8457 C 800.88 -0.408507 2.02827 0
M  V30 8458 C 801.295 -1.52994 1.10627 0
M  V30 8459 O 800.652 -1.82126 0.116809 0
M  V30 8460 C 800.703 -0.93545 3.49187 0
M  V30 8461 O 800.424 0.141273 4.37872 0
M  V30 8462 C 801.925 -1.64325 4.11719 0
M  V30 8463 H 799.145 -0.099442 0.66359 0
M  V30 8464 H 801.689 0.344471 2.01578 0
M  V30 8465 H 799.844 -1.63868 3.51036 0
M  V30 8466 H 800.258 -0.25558 5.23877 0
M  V30 8467 H 801.732 -1.9639 5.15883 0
M  V30 8468 H 802.209 -2.55815 3.57009 0
M  V30 8469 H 802.815 -0.9851 4.13734 0
M  V30 8470 N 801.13 -1.57531 -0.0467866 0
M  V30 8471 C 802.36 -1.92417 -0.752279 0
M  V30 8472 C 802.768 -0.823134 -1.70356 0
M  V30 8473 O 802.111 0.210598 -1.82489 0
M  V30 8474 C 802.173 -3.22974 -1.57887 0
M  V30 8475 C 801.837 -4.50045 -0.794285 0
M  V30 8476 C 802.834 -5.19799 -0.102368 0
M  V30 8477 C 800.519 -4.96608 -0.754061 0
M  V30 8478 C 802.513 -6.34385 0.619267 0
M  V30 8479 C 800.2 -6.11093 -0.0286682 0
M  V30 8480 C 801.198 -6.79835 0.656772 0
M  V30 8481 O 800.886 -7.92133 1.37042 0
M  V30 8482 H 800.618 -0.640029 -0.217576 0
M  V30 8483 H 803.172 -2.05395 -0.0137438 0
M  V30 8484 H 801.402 -3.06273 -2.3608 0
M  V30 8485 H 803.091 -3.43319 -2.16533 0
M  V30 8486 H 803.857 -4.8484 -0.124589 0
M  V30 8487 H 799.736 -4.42958 -1.27706 0
M  V30 8488 H 803.28 -6.87975 1.15483 0
M  V30 8489 H 799.177 -6.455 -0.00446214 0
M  V30 8490 H 799.945 -8.08394 1.28227 0
M  V30 8491 N 802.608 0.318715 -1.54344 0
M  V30 8492 C 803.518 1.41535 -1.87097 0
M  V30 8493 C 804.534 1.56361 -0.763353 0
M  V30 8494 O 805.71 1.71365 -1.05811 0
M  V30 8495 C 802.775 2.76178 -2.09587 0
M  V30 8496 C 801.836 2.70486 -3.3337 0
M  V30 8497 C 801.069 3.98708 -3.54778 0
M  V30 8498 O 801.292 4.9721 -2.79532 0
M  V30 8499 O 800.226 4.01674 -4.48266 0
M  V30 8500 H 804.052 1.16764 -2.80357 0
M  V30 8501 H 801.637 0.51318 -1.4031 0
M  V30 8502 H 803.519 3.55873 -2.25682 0
M  V30 8503 H 802.194 3.00829 -1.19514 0
M  V30 8504 H 801.101 1.89325 -3.22656 0
M  V30 8505 H 802.434 2.50789 -4.23516 0
M  V30 8506 N 804.086 1.46499 0.581025 0
M  V30 8507 C 805.034 1.57562 1.71105 0
M  V30 8508 C 806.028 0.44403 1.63477 0
M  V30 8509 O 807.234 0.620964 1.6895 0
M  V30 8510 H 803.609 0.495415 0.565746 0
M  V30 8511 H 805.58 2.5257 1.58905 0
M  V30 8512 C 804.329 1.58465 3.0949 0
M  V30 8513 H 803.652 2.44877 3.16031 0
M  V30 8514 H 805.092 1.70261 3.88313 0
M  V30 8515 C 803.551 0.313596 3.35437 0
M  V30 8516 O 804.081 -0.595456 3.97262 0
M  V30 8517 N 802.287 0.200986 2.89904 0
M  V30 8518 H 801.834 0.941643 2.39773 0
M  V30 8519 H 801.792 -0.648577 3.07638 0
M  V30 8520 N 805.565 -0.825799 1.34232 0
M  V30 8521 C 806.813 -1.57873 1.26177 0
M  V30 8522 C 807.134 -1.94267 -0.168904 0
M  V30 8523 O 806.404 -1.62045 -1.10084 0
M  V30 8524 H 804.984 -0.585388 0.464037 0
M  V30 8525 H 807.646 -0.986163 1.6811 0
M  V30 8526 H 806.742 -2.50283 1.86453 0
M  V30 8527 N 807.043 -1.17915 -1.04565 0
M  V30 8528 C 808.268 -0.996749 -1.81878 0
M  V30 8529 C 808.693 0.450169 -1.82634 0
M  V30 8530 O 808.051 1.32268 -1.23995 0
M  V30 8531 C 808.099 -1.55005 -3.25585 0
M  V30 8532 O 807.203 -0.76804 -4.05185 0
M  V30 8533 H 806.544 -0.353456 -0.562108 0
M  V30 8534 H 809.074 -1.56557 -1.31723 0
M  V30 8535 H 809.084 -1.57503 -3.76373 0
M  V30 8536 H 807.759 -2.60327 -3.2435 0
M  V30 8537 H 806.336 -0.81498 -3.63885 0
M  V30 8538 N 808.521 1.23394 -0.980386 0
M  V30 8539 C 809.746 1.96384 -0.666935 0
M  V30 8540 C 810.171 1.72087 0.759456 0
M  V30 8541 O 809.529 0.992328 1.51732 0
M  V30 8542 C 809.577 3.47499 -0.963177 0
M  V30 8543 O 808.681 4.12363 -0.0552051 0
M  V30 8544 H 808.022 0.614797 -0.250839 0
M  V30 8545 H 810.552 1.56831 -1.31398 0
M  V30 8546 H 810.562 3.97953 -0.899877 0
M  V30 8547 H 809.237 3.6451 -2.00264 0
M  V30 8548 H 807.814 3.72499 -0.172914 0
M  V30 8549 N 809.999 0.752036 1.385 0
M  V30 8550 C 811.245 0.307958 2.00448 0
M  V30 8551 C 811.578 -1.10702 1.59558 0
M  V30 8552 O 810.853 -1.75788 0.832391 0
M  V30 8553 C 811.136 0.429092 3.57534 0
M  V30 8554 C 810.989 1.88507 4.08393 0
M  V30 8555 C 812.308 -0.178442 4.39738 0
M  V30 8556 H 809.427 0.113373 0.728228 0
M  V30 8557 H 812.069 0.951389 1.64465 0
M  V30 8558 H 810.219 -0.118695 3.88319 0
M  V30 8559 H 811.891 2.49104 3.88259 0
M  V30 8560 H 810.134 2.40066 3.61318 0
M  V30 8561 H 810.805 1.92099 5.17496 0
M  V30 8562 H 813.281 0.28872 4.15097 0
M  V30 8563 H 812.157 -0.0634349 5.48863 0
M  V30 8564 H 812.418 -1.26655 4.23569 0
M  V30 8565 N 811.477 -1.49425 0.500989 0
M  V30 8566 C 812.387 -2.32899 -0.282011 0
M  V30 8567 C 813.403 -1.44632 -0.967346 0
M  V30 8568 O 814.579 -1.77654 -0.94873 0
M  V30 8569 C 811.644 -3.20069 -1.33253 0
M  V30 8570 C 810.705 -4.24186 -0.660636 0
M  V30 8571 C 809.938 -5.07191 -1.6611 0
M  V30 8572 O 810.161 -4.91712 -2.89094 0
M  V30 8573 O 809.095 -5.8948 -1.21643 0
M  V30 8574 H 812.921 -3.01038 0.401224 0
M  V30 8575 H 810.506 -1.47079 0.262323 0
M  V30 8576 H 812.388 -3.74071 -1.94033 0
M  V30 8577 H 811.063 -2.54625 -1.9987 0
M  V30 8578 H 809.97 -3.74098 -0.0130959 0
M  V30 8579 H 811.303 -4.92186 -0.0369179 0
M  V30 8580 N 812.955 -0.234822 -1.55841 0
M  V30 8581 C 814.185 0.397168 -2.02746 0
M  V30 8582 C 814.593 1.52951 -1.11367 0
M  V30 8583 O 813.936 1.8332 -0.118133 0
M  V30 8584 C 813.998 0.977748 -3.45948 0
M  V30 8585 C 813.662 -0.0208193 -4.56995 0
M  V30 8586 C 814.659 -0.826015 -5.13296 0
M  V30 8587 C 812.344 -0.143416 -5.02095 0
M  V30 8588 C 814.338 -1.74038 -6.1318 0
M  V30 8589 C 812.025 -1.0613 -6.01814 0
M  V30 8590 C 813.023 -1.85832 -6.57233 0
M  V30 8591 O 812.711 -2.76075 -7.55008 0
M  V30 8592 H 812.443 0.0999802 -0.668566 0
M  V30 8593 H 814.997 -0.352673 -2.0235 0
M  V30 8594 H 813.227 1.77693 -3.43456 0
M  V30 8595 H 814.916 1.51854 -3.76424 0
M  V30 8596 H 815.682 -0.741822 -4.79293 0
M  V30 8597 H 811.561 0.466857 -4.5863 0
M  V30 8598 H 815.105 -2.36291 -6.56363 0
M  V30 8599 H 811.002 -1.14646 -6.35237 0
M  V30 8600 H 811.77 -2.703 -7.7258 0
M  V30 8601 N 814.433 1.57553 0.0384317 0
M  V30 8602 C 815.849 1.54663 0.39391 0
M  V30 8603 C 816.049 0.959685 1.77179 0
M  V30 8604 O 815.105 0.576647 2.45827 0
M  V30 8605 C 816.418 2.99156 0.304352 0
M  V30 8606 C 817.966 3.10659 0.382119 0
M  V30 8607 C 818.441 4.56866 0.322111 0
M  V30 8608 N 819.932 4.61629 0.38119 0
M  V30 8609 C 820.667 5.72284 0.357501 0
M  V30 8610 N 820.163 6.92207 0.286654 0
M  V30 8611 N 821.956 5.60628 0.406538 0
M  V30 8612 H 814.107 1.9406 -0.86339 0
M  V30 8613 H 816.37 0.889673 -0.327392 0
M  V30 8614 H 816.076 3.45788 -0.642141 0
M  V30 8615 H 815.95 3.60753 1.10168 0
M  V30 8616 H 818.337 2.6398 1.31904 0
M  V30 8617 H 818.418 2.5191 -0.444391 0
M  V30 8618 H 818.062 5.0421 -0.611104 0
M  V30 8619 H 817.992 5.13515 1.1666 0
M  V30 8620 H 820.483 3.75343 0.438838 0
M  V30 8621 H 820.796 7.72316 0.273421 0
M  V30 8622 H 819.141 6.9454 0.252841 0
M  V30 8623 H 822.332 4.65836 0.459812 0
M  V30 8624 H 822.505 6.46858 0.384608 0
M  V30 8625 N 815.911 -0.310526 1.54511 0
M  V30 8626 C 817.151 -1.05498 1.7507 0
M  V30 8627 C 817.515 -1.84814 0.520381 0
M  V30 8628 O 818.716 -2.61937 0.603547 0
M  V30 8629 C 816.987 -1.94466 2.99863 0
M  V30 8630 S 818.546 -2.75686 3.41383 0
M  V30 8631 H 815.364 -0.355951 0.615483 0
M  V30 8632 H 817.966 -0.329464 1.92704 0
M  V30 8633 H 816.67 -1.35055 3.87541 0
M  V30 8634 H 816.201 -2.71401 2.84789 0
M  V30 8635 H 818.216 -3.96971 2.97706 0
M  V30 8636 N 817.389 -1.46805 -0.573248 0
M  V30 8637 C 818.636 -1.52604 -1.3311 0
M  V30 8638 C 818.964 -0.181633 -1.9365 0
M  V30 8639 O 818.219 0.823775 -1.77517 0
M  V30 8640 C 818.518 -2.58001 -2.47326 0
M  V30 8641 C 818.184 -4.01747 -2.04719 0
M  V30 8642 C 816.846 -4.40881 -1.92814 0
M  V30 8643 C 819.198 -4.92008 -1.71982 0
M  V30 8644 C 816.526 -5.68129 -1.46445 0
M  V30 8645 C 818.878 -6.19703 -1.27089 0
M  V30 8646 C 817.542 -6.57733 -1.13768 0
M  V30 8647 H 816.812 -0.558417 -0.487084 0
M  V30 8648 H 819.459 -1.80327 -0.644538 0
M  V30 8649 H 817.764 -2.23974 -3.2147 0
M  V30 8650 H 819.461 -2.59715 -3.05531 0
M  V30 8651 H 816.051 -3.70819 -2.14922 0
M  V30 8652 H 820.235 -4.62485 -1.8006 0
M  V30 8653 H 815.491 -5.96359 -1.34783 0
M  V30 8654 H 819.665 -6.89064 -1.00814 0
M  V30 8655 H 817.292 -7.56228 -0.776142 0
M  V30 8656 N 818.867 0.818669 -1.34668 0
M  V30 8657 C 820.144 1.56118 -1.17841 0
M  V30 8658 C 820.524 2.09646 0.24731 0
M  V30 8659 O 819.872 1.91329 1.24922 0
M  V30 8660 C 820.082 2.67922 -2.23649 0
M  V30 8661 C 821.43 3.36579 -2.58843 0
M  V30 8662 O 822.454 2.78182 -2.22471 0
M  V30 8663 O 821.313 4.42045 -3.21339 0
M  V30 8664 H 818.407 0.689216 -0.457067 0
M  V30 8665 H 820.953 0.859674 -1.46314 0
M  V30 8666 H 819.725 2.26153 -3.19328 0
M  V30 8667 H 819.348 3.45719 -1.96377 0
M  V30 8668 N 820.346 1.18468 1.03938 0
M  V30 8669 C 821.296 0.880799 2.103 0
M  V30 8670 C 822.28 -0.150008 1.60199 0
M  V30 8671 O 823.472 0.054213 1.76917 0
M  V30 8672 C 820.601 0.409723 3.40846 0
M  V30 8673 C 819.687 1.47267 3.9771 0
M  V30 8674 N 820.078 2.68945 4.28371 0
M  V30 8675 C 818.376 1.33349 4.25598 0
M  V30 8676 C 819.077 3.37341 4.73894 0
M  V30 8677 N 818.053 2.64725 4.74786 0
M  V30 8678 H 821.855 1.80574 2.31884 0
M  V30 8679 H 819.369 1.07527 1.21703 0
M  V30 8680 H 821.366 0.17352 4.16539 0
M  V30 8681 H 820.026 -0.508862 3.20688 0
M  V30 8682 H 821.037 3.05801 4.17978 0
M  V30 8683 H 817.714 0.477548 4.1476 0
M  V30 8684 H 819.104 4.41338 5.06627 0
M  V30 8685 N 821.824 -1.22873 0.986916 0
M  V30 8686 C 822.774 -2.2237 0.503547 0
M  V30 8687 C 823.758 -1.55186 -0.424998 0
M  V30 8688 O 824.95 -1.75186 -0.252791 0
M  V30 8689 C 822.079 -3.42794 -0.186355 0
M  V30 8690 C 821.165 -4.17196 0.762143 0
M  V30 8691 N 821.556 -4.68453 1.9075 0
M  V30 8692 C 819.854 -4.42255 0.576797 0
M  V30 8693 C 820.555 -5.25126 2.50235 0
M  V30 8694 N 819.531 -5.13437 1.7856 0
M  V30 8695 H 823.333 -2.59636 1.37718 0
M  V30 8696 H 820.847 -1.38476 0.848415 0
M  V30 8697 H 822.844 -4.13256 -0.549993 0
M  V30 8698 H 821.504 -3.07042 -1.05619 0
M  V30 8699 H 822.515 -4.64595 2.28848 0
M  V30 8700 H 819.192 -4.16766 -0.247474 0
M  V30 8701 H 820.582 -5.75363 3.46997 0
M  V30 8702 N 823.302 -0.75937 -1.38099 0
M  V30 8703 C 824.549 -0.318113 -1.99986 0
M  V30 8704 C 824.877 1.10184 -1.6028 0
M  V30 8705 O 824.132 1.77015 -0.834524 0
M  V30 8706 C 824.431 -0.394999 -3.55211 0
M  V30 8707 C 824.097 -1.77143 -4.14646 0
M  V30 8708 C 822.759 -2.14811 -4.30592 0
M  V30 8709 C 825.111 -2.67407 -4.47373 0
M  V30 8710 C 822.439 -3.42203 -4.76565 0
M  V30 8711 C 824.791 -3.94196 -4.94765 0
M  V30 8712 C 823.455 -4.31925 -5.08918 0
M  V30 8713 H 822.725 -0.116406 -0.7318 0
M  V30 8714 H 825.372 -0.97098 -1.65058 0
M  V30 8715 H 823.677 0.341426 -3.9031 0
M  V30 8716 H 825.374 -0.0350722 -4.00985 0
M  V30 8717 H 821.964 -1.46864 -4.02652 0
M  V30 8718 H 826.148 -2.39569 -4.3465 0
M  V30 8719 H 821.404 -3.71346 -4.85708 0
M  V30 8720 H 825.578 -4.64276 -5.19057 0
M  V30 8721 H 823.205 -5.30699 -5.443 0
M  V30 8722 N 824.78 1.49157 -0.508906 0
M  V30 8723 C 825.71 2.32109 0.254469 0
M  V30 8724 C 826.691 1.40754 0.955111 0
M  V30 8725 O 827.876 1.69658 0.944983 0
M  V30 8726 C 825.006 3.21458 1.3146 0
M  V30 8727 C 823.96 4.2167 0.733368 0
M  V30 8728 C 823.286 5.00009 1.8946 0
M  V30 8729 C 824.586 5.21544 -0.280875 0
M  V30 8730 H 826.28 2.9618 -0.43795 0
M  V30 8731 H 823.826 1.4243 -0.212062 0
M  V30 8732 H 825.779 3.78305 1.85643 0
M  V30 8733 H 824.503 2.55346 2.03632 0
M  V30 8734 H 823.162 3.65979 0.213231 0
M  V30 8735 H 822.81 4.30338 2.60419 0
M  V30 8736 H 822.51 5.67821 1.51173 0
M  V30 8737 H 824.034 5.59702 2.44061 0
M  V30 8738 H 825.448 5.73039 0.173095 0
M  V30 8739 H 823.845 5.97291 -0.580006 0
M  V30 8740 H 824.915 4.69969 -1.19404 0
M  V30 8741 N 826.258 0.243083 1.55714 0
M  V30 8742 C 827.168 -0.668913 2.24862 0
M  V30 8743 C 828.184 -1.19638 1.26344 0
M  V30 8744 O 829.36 -1.23345 1.5921 0
M  V30 8745 C 826.425 -1.85084 2.93163 0
M  V30 8746 C 825.486 -1.36323 4.07081 0
M  V30 8747 C 824.719 -2.48882 4.72116 0
M  V30 8748 O 824.942 -3.67523 4.36214 0
M  V30 8749 O 823.876 -2.18857 5.60701 0
M  V30 8750 H 827.702 -0.109737 3.03502 0
M  V30 8751 H 825.287 0.0117411 1.49395 0
M  V30 8752 H 827.169 -2.54065 3.36197 0
M  V30 8753 H 825.844 -2.39771 2.17466 0
M  V30 8754 H 824.751 -0.640804 3.68571 0
M  V30 8755 H 826.084 -0.86249 4.84584 0
M  V30 8756 N 827.736 -1.57571 -0.0300757 0
M  V30 8757 C 828.984 -1.88852 -0.719666 0
M  V30 8758 C 829.305 -0.840645 -1.75949 0
M  V30 8759 O 828.575 0.125854 -1.95495 0
M  V30 8760 H 827.155 -0.696965 -0.268792 0
M  V30 8761 H 829.817 -1.949 0.00373285 0
M  V30 8762 H 828.913 -2.87695 -1.20987 0
M  V30 8763 N 829.214 0.302327 -1.54673 0
M  V30 8764 C 830.439 1.06103 -1.78205 0
M  V30 8765 C 830.864 1.80204 -0.53926 0
M  V30 8766 O 830.222 1.73975 0.510142 0
M  V30 8767 C 830.27 2.01829 -2.98827 0
M  V30 8768 O 829.374 3.10108 -2.71858 0
M  V30 8769 H 828.715 0.30487 -0.589873 0
M  V30 8770 H 831.245 0.340153 -2.01753 0
M  V30 8771 H 831.255 2.44319 -3.2676 0
M  V30 8772 H 829.93 1.473 -3.88942 0
M  V30 8773 H 828.507 2.72142 -2.54937 0
M  V30 8774 N 830.692 1.47107 0.565454 0
M  V30 8775 C 832.108 1.32443 0.890566 0
M  V30 8776 C 832.308 0.308735 1.99121 0
M  V30 8777 O 831.364 -0.28265 2.50913 0
M  V30 8778 C 832.677 2.71548 1.2916 0
M  V30 8779 C 834.225 2.7977 1.40349 0
M  V30 8780 C 834.7 4.19497 1.83811 0
M  V30 8781 N 836.191 4.21998 1.90975 0
M  V30 8782 C 836.926 5.2702 2.25916 0
M  V30 8783 N 836.422 6.42353 2.59527 0
M  V30 8784 N 838.215 5.14393 2.26619 0
M  V30 8785 H 830.366 2.11786 -0.161328 0
M  V30 8786 H 832.629 0.947952 -0.00950631 0
M  V30 8787 H 832.335 3.47265 0.556753 0
M  V30 8788 H 832.209 3.02782 2.24951 0
M  V30 8789 H 834.596 2.0433 2.12916 0
M  V30 8790 H 834.677 2.522 0.427655 0
M  V30 8791 H 834.321 4.95439 1.11816 0
M  V30 8792 H 834.251 4.44486 2.82382 0
M  V30 8793 H 836.742 3.38791 1.6742 0
M  V30 8794 H 837.055 7.18252 2.85191 0
M  V30 8795 H 835.4 6.45687 2.57126 0
M  V30 8796 H 838.591 4.2332 1.99794 0
M  V30 8797 H 838.764 5.96349 2.5352 0
M  V30 8798 N 832.17 -0.811516 1.35101 0
M  V30 8799 C 833.08 -1.95475 1.29718 0
M  V30 8800 C 834.096 -1.72813 0.202909 0
M  V30 8801 O 835.272 -1.96725 0.431414 0
M  V30 8802 C 832.337 -3.29975 1.06385 0
M  V30 8803 C 831.398 -3.65566 2.25077 0
M  V30 8804 C 830.631 -4.93648 2.02848 0
M  V30 8805 O 830.854 -5.617 0.992442 0
M  V30 8806 O 829.788 -5.27384 2.90087 0
M  V30 8807 H 833.614 -2.02961 2.25921 0
M  V30 8808 H 831.199 -0.948583 1.15422 0
M  V30 8809 H 833.081 -4.10506 0.951999 0
M  V30 8810 H 831.756 -3.2343 0.132294 0
M  V30 8811 H 830.663 -2.85432 2.41825 0
M  V30 8812 H 831.996 -3.7681 3.16662 0
M  V30 8813 N 833.648 -1.19017 -1.03309 0
M  V30 8814 C 834.611 -0.926076 -2.09658 0
M  V30 8815 C 835.611 0.0917077 -1.60538 0
M  V30 8816 O 836.801 -0.142574 -1.73616 0
M  V30 8817 C 833.933 -0.390958 -3.38651 0
M  V30 8818 H 835.126 -1.86923 -2.3452 0
M  V30 8819 H 832.679 -1.00325 -1.19853 0
M  V30 8820 H 833.414 0.558446 -3.19456 0
M  V30 8821 H 833.199 -1.12474 -3.75622 0
M  V30 8822 H 834.689 -0.225131 -4.16993 0
M  V30 8823 N 835.127 1.22348 -0.993418 0
M  V30 8824 C 836.357 1.94842 -0.687023 0
M  V30 8825 C 836.765 1.73594 0.752445 0
M  V30 8826 O 836.108 1.03238 1.51946 0
M  V30 8827 C 836.17 3.47694 -0.913754 0
M  V30 8828 C 835.834 3.92678 -2.33781 0
M  V30 8829 C 836.831 4.0031 -3.31734 0
M  V30 8830 C 834.516 4.25311 -2.67237 0
M  V30 8831 C 836.51 4.39951 -4.61218 0
M  V30 8832 C 834.197 4.64631 -3.9694 0
M  V30 8833 C 835.195 4.71919 -4.93742 0
M  V30 8834 O 834.883 5.10349 -6.21127 0
M  V30 8835 H 834.615 0.626771 -0.253247 0
M  V30 8836 H 837.169 1.56436 -1.33105 0
M  V30 8837 H 835.399 3.86115 -0.212552 0
M  V30 8838 H 837.088 4.01403 -0.602528 0
M  V30 8839 H 837.854 3.75288 -3.07219 0
M  V30 8840 H 833.733 4.18842 -1.92594 0
M  V30 8841 H 837.277 4.45555 -5.36774 0
M  V30 8842 H 833.174 4.89104 -4.21245 0
M  V30 8843 H 833.942 5.2842 -6.25072 0
M  V30 8844 N 836.605 0.766683 1.37694 0
M  V30 8845 C 837.845 0.333815 2.01656 0
M  V30 8846 C 838.209 -1.06813 1.59546 0
M  V30 8847 O 839.41 -1.60084 2.15932 0
M  V30 8848 C 837.681 0.467032 3.54335 0
M  V30 8849 S 839.24 0.118679 4.38639 0
M  V30 8850 H 836.058 0.128723 0.699251 0
M  V30 8851 H 838.66 1.00018 1.67978 0
M  V30 8852 H 837.364 1.48808 3.82471 0
M  V30 8853 H 836.895 -0.216066 3.92806 0
M  V30 8854 H 838.91 -1.08746 4.84137 0
M  V30 8855 N 838.083 -1.48885 0.516809 0
M  V30 8856 C 839.013 -2.32241 -0.242157 0
M  V30 8857 C 839.994 -1.41258 -0.947633 0
M  V30 8858 O 841.179 -1.70156 -0.935973 0
M  V30 8859 C 838.309 -3.22151 -1.29754 0
M  V30 8860 C 837.263 -4.22053 -0.710995 0
M  V30 8861 C 836.589 -5.01007 -1.86806 0
M  V30 8862 C 837.889 -5.21388 0.30853 0
M  V30 8863 H 839.583 -2.95943 0.453651 0
M  V30 8864 H 837.129 -1.42316 0.219612 0
M  V30 8865 H 839.082 -3.79284 -1.83634 0
M  V30 8866 H 837.806 -2.56423 -2.02274 0
M  V30 8867 H 836.465 -3.66087 -0.193819 0
M  V30 8868 H 836.113 -4.31713 -2.58133 0
M  V30 8869 H 835.813 -5.68615 -1.48159 0
M  V30 8870 H 837.337 -5.60989 -2.4109 0
M  V30 8871 H 838.751 -5.73122 -0.142703 0
M  V30 8872 H 837.148 -5.96975 0.611673 0
M  V30 8873 H 838.218 -4.69329 1.21894 0
M  V30 8874 N 839.561 -0.251338 -1.55583 0
M  V30 8875 C 840.838 0.422729 -1.90977 0
M  V30 8876 C 841.218 1.75534 -1.17265 0
M  V30 8877 O 840.566 2.26632 -0.291588 0
M  V30 8878 C 840.776 0.586448 -3.44037 0
M  V30 8879 C 842.124 0.880294 -4.15375 0
M  V30 8880 O 843.148 0.672148 -3.49801 0
M  V30 8881 O 842.007 1.27694 -5.31372 0
M  V30 8882 H 839.101 0.227622 -0.795058 0
M  V30 8883 H 841.647 -0.295733 -1.67103 0
M  V30 8884 H 840.419 -0.352327 -3.89711 0
M  V30 8885 H 840.042 1.35528 -3.73789 0
M  V30 8886 N 841.039 1.57585 0.0217189 0
M  V30 8887 C 842.287 1.89231 0.709641 0
M  V30 8888 C 842.608 0.849964 1.75501 0
M  V30 8889 O 841.878 -0.115485 1.95559 0
M  V30 8890 H 840.458 0.69838 0.265092 0
M  V30 8891 H 843.12 1.94895 -0.0140688 0
M  V30 8892 H 842.216 2.88333 1.19459 0
M  V30 8893 N 842.517 -0.29412 1.54831 0
M  V30 8894 C 843.45 -1.38779 1.81151 0
M  V30 8895 C 844.428 -1.48464 0.663124 0
M  V30 8896 O 845.612 -1.65418 0.903835 0
M  V30 8897 C 842.739 -2.76627 1.95436 0
M  V30 8898 C 841.785 -2.84333 3.17895 0
M  V30 8899 S 842.618 -2.45726 4.75793 0
M  V30 8900 C 843.774 -3.85589 4.93023 0
M  V30 8901 H 844.007 -1.16246 2.73631 0
M  V30 8902 H 841.54 -0.492611 1.46331 0
M  V30 8903 H 843.498 -3.56021 2.04351 0
M  V30 8904 H 842.159 -2.96425 1.03881 0
M  V30 8905 H 841.352 -3.85457 3.24713 0
M  V30 8906 H 840.954 -2.1294 3.07461 0
M  V30 8907 H 843.246 -4.80656 4.77468 0
M  V30 8908 H 844.189 -3.83737 5.95107 0
M  V30 8909 H 844.597 -3.75911 4.21131 0
M  V30 8910 N 843.995 -1.47404 -0.557645 0
M  V30 8911 C 845.241 -1.55219 -1.31449 0
M  V30 8912 C 845.596 -0.211457 -1.91234 0
M  V30 8913 O 844.889 0.782795 -1.7488 0
M  V30 8914 C 845.083 -2.6061 -2.44575 0
M  V30 8915 C 844.912 -4.048 -1.95875 0
M  V30 8916 C 843.682 -4.72252 -1.79738 0
M  V30 8917 C 845.88 -4.91833 -1.50348 0
M  V30 8918 N 843.862 -6.00962 -1.25372 0
M  V30 8919 C 845.233 -6.10566 -1.07745 0
M  V30 8920 C 847.288 -4.78279 -1.38396 0
M  V30 8921 C 845.991 -7.17242 -0.543767 0
M  V30 8922 C 848.017 -5.8505 -0.864293 0
M  V30 8923 C 847.379 -7.02973 -0.44818 0
M  V30 8924 H 843.478 -0.622694 -0.47305 0
M  V30 8925 H 846.062 -1.84152 -0.632144 0
M  V30 8926 H 844.233 -2.33545 -3.10341 0
M  V30 8927 H 845.965 -2.5827 -3.11574 0
M  V30 8928 H 842.72 -4.28153 -2.0244 0
M  V30 8929 H 843.144 -6.69532 -1.00278 0
M  V30 8930 H 847.786 -3.87477 -1.69179 0
M  V30 8931 H 845.504 -8.07791 -0.223563 0
M  V30 8932 H 849.09 -5.7661 -0.775371 0
M  V30 8933 H 847.97 -7.84183 -0.0522964 0
M  V30 8934 N 845.473 0.80434 -1.35529 0
M  V30 8935 C 846.701 1.59283 -1.32048 0
M  V30 8936 C 847.116 1.88527 0.101556 0
M  V30 8937 O 846.473 1.48975 1.05417 0
M  V30 8938 C 846.524 2.92276 -2.12737 0
M  V30 8939 O 846.245 2.64299 -3.49396 0
M  V30 8940 C 847.746 3.86631 -2.16867 0
M  V30 8941 H 844.966 0.494523 -0.453528 0
M  V30 8942 H 847.51 0.999415 -1.78415 0
M  V30 8943 H 845.665 3.48125 -1.69964 0
M  V30 8944 H 846.079 3.4923 -3.91329 0
M  V30 8945 H 847.553 4.77053 -2.77712 0
M  V30 8946 H 848.03 4.23384 -1.16803 0
M  V30 8947 H 848.636 3.36717 -2.59811 0
M  V30 8948 N 846.951 1.19563 1.02676 0
M  V30 8949 C 848.179 1.02488 1.79732 0
M  V30 8950 C 848.594 -0.426302 1.83924 0
M  V30 8951 O 847.951 -1.29609 1.28483 0
M  V30 8952 C 848.002 1.58944 3.24683 0
M  V30 8953 O 847.723 2.98382 3.2078 0
M  V30 8954 C 849.224 1.46681 4.1833 0
M  V30 8955 H 846.444 0.361098 0.565552 0
M  V30 8956 H 848.988 1.58426 1.29311 0
M  V30 8957 H 847.143 1.0715 3.72287 0
M  V30 8958 H 847.557 3.24983 4.11687 0
M  V30 8959 H 849.031 1.90959 5.17918 0
M  V30 8960 H 849.508 0.417663 4.3721 0
M  V30 8961 H 850.114 1.97616 3.76601 0
M  V30 8962 N 848.429 -1.21819 0.999893 0
M  V30 8963 C 849.84 -1.72517 0.713775 0
M  V30 8964 C 850.191 -1.80505 -0.768922 0
M  V30 8965 O 849.316 -1.45611 -1.60083 0
M  V30 8966 C 849.911 -3.13321 1.28901 0
M  V30 8967 C 848.47 -3.61396 1.05212 0
M  V30 8968 C 847.617 -2.39074 1.40494 0
M  V30 8969 H 850.568 -1.07068 1.17141 0
M  V30 8970 H 850.589 -3.74535 0.671084 0
M  V30 8971 H 850.101 -3.07475 2.36814 0
M  V30 8972 H 848.202 -3.72599 -0.0100732 0
M  V30 8973 H 848.315 -4.47145 1.72042 0
M  V30 8974 H 846.679 -2.41015 0.823642 0
M  V30 8975 H 847.462 -2.35884 2.49427 0
M  V30 8976 N 849.908 -0.773975 -1.37286 0
M  V30 8977 C 851.319 -0.404433 -1.82267 0
M  V30 8978 C 851.67 1.06971 -1.64474 0
M  V30 8979 O 850.795 1.82867 -1.15708 0
M  V30 8980 C 851.39 -0.727298 -3.30902 0
M  V30 8981 C 849.949 -0.410784 -3.74152 0
M  V30 8982 C 849.096 -0.969983 -2.59782 0
M  V30 8983 H 852.047 -0.968437 -1.25726 0
M  V30 8984 H 852.068 -0.0127575 -3.80498 0
M  V30 8985 H 851.58 -1.80026 -3.4382 0
M  V30 8986 H 849.681 0.65477 -3.66802 0
M  V30 8987 H 849.794 -0.920592 -4.70172 0
M  V30 8988 H 848.158 -0.394094 -2.51633 0
M  V30 8989 H 848.941 -2.04839 -2.75492 0
M  V30 8990 N 851.386 1.48609 -0.524698 0
M  V30 8991 C 852.316 2.32366 0.229837 0
M  V30 8992 C 853.297 1.41759 0.940129 0
M  V30 8993 O 854.482 1.7065 0.926936 0
M  V30 8994 C 851.612 3.22835 1.28043 0
M  V30 8995 C 850.566 4.22424 0.688603 0
M  V30 8996 C 849.892 5.0199 1.84146 0
M  V30 8997 C 851.192 5.21217 -0.336176 0
M  V30 8998 H 852.886 2.95698 -0.469339 0
M  V30 8999 H 850.432 1.42197 -0.227156 0
M  V30 9000 H 852.385 3.80253 1.8162 0
M  V30 9001 H 851.109 2.57492 2.00912 0
M  V30 9002 H 849.768 3.66185 0.174402 0
M  V30 9003 H 849.416 4.33076 2.5584 0
M  V30 9004 H 849.116 5.69392 1.45142 0
M  V30 9005 H 850.64 5.62259 2.38111 0
M  V30 9006 H 852.054 5.7319 0.112307 0
M  V30 9007 H 850.451 5.96642 -0.643324 0
M  V30 9008 H 851.521 4.68676 -1.24381 0
M  V30 9009 N 852.864 0.259585 1.55447 0
M  V30 9010 C 854.104 -0.362989 2.01151 0
M  V30 9011 C 854.468 -1.54201 1.14394 0
M  V30 9012 O 855.669 -2.23318 1.49608 0
M  V30 9013 C 853.94 -0.750399 3.49434 0
M  V30 9014 S 855.499 -1.3617 4.17137 0
M  V30 9015 H 852.317 -0.11365 0.701858 0
M  V30 9016 H 854.919 0.377788 1.91815 0
M  V30 9017 H 853.623 0.116807 4.10234 0
M  V30 9018 H 853.154 -1.52303 3.62722 0
M  V30 9019 H 855.169 -2.65059 4.19474 0
M  V30 9020 N 854.342 -1.57594 -0.0133615 0
M  V30 9021 C 855.272 -2.10611 -1.00823 0
M  V30 9022 C 856.253 -1.01217 -1.36708 0
M  V30 9023 O 857.438 -1.28827 -1.45318 0
M  V30 9024 C 854.568 -2.59844 -2.30431 0
M  V30 9025 C 853.522 -3.73644 -2.08745 0
M  V30 9026 C 852.848 -4.09141 -3.4425 0
M  V30 9027 C 854.148 -5.01454 -1.46086 0
M  V30 9028 H 855.842 -2.93985 -0.566849 0
M  V30 9029 H 853.388 -1.41423 -0.271219 0
M  V30 9030 H 855.341 -2.95557 -3.00373 0
M  V30 9031 H 854.065 -1.73573 -2.76658 0
M  V30 9032 H 852.724 -3.38303 -1.41232 0
M  V30 9033 H 852.372 -3.19914 -3.88155 0
M  V30 9034 H 852.072 -4.85802 -3.3056 0
M  V30 9035 H 853.596 -4.47402 -4.15528 0
M  V30 9036 H 855.01 -5.35024 -2.05966 0
M  V30 9037 H 853.407 -5.82832 -1.42924 0
M  V30 9038 H 854.477 -4.83003 -0.428471 0
M  V30 9039 N 855.82 0.285905 -1.54985 0
M  V30 9040 C 856.73 1.37534 -1.90057 0
M  V30 9041 C 857.746 1.54707 -0.796348 0
M  V30 9042 O 858.922 1.69082 -1.09423 0
M  V30 9043 C 855.987 2.7167 -2.15398 0
M  V30 9044 C 855.048 2.63354 -3.39033 0
M  V30 9045 C 854.281 3.91093 -3.63155 0
M  V30 9046 O 854.504 4.91169 -2.90015 0
M  V30 9047 O 853.438 3.92075 -4.56685 0
M  V30 9048 H 857.264 1.10791 -2.8277 0
M  V30 9049 H 854.849 0.483303 -1.41367 0
M  V30 9050 H 856.731 3.51006 -2.33179 0
M  V30 9051 H 855.406 2.98226 -1.25868 0
M  V30 9052 H 854.313 1.82438 -3.26599 0
M  V30 9053 H 855.646 2.41749 -4.2874 0
M  V30 9054 N 857.298 1.47698 0.54982 0
M  V30 9055 C 858.709 1.48474 1.13191 0
M  V30 9056 C 859.06 0.243504 1.94683 0
M  V30 9057 O 858.185 -0.651009 2.06375 0
M  V30 9058 C 858.78 2.69022 2.05944 0
M  V30 9059 C 857.339 2.72733 2.5941 0
M  V30 9060 C 856.486 2.41691 1.35944 0
M  V30 9061 H 859.437 1.55101 0.336048 0
M  V30 9062 H 859.458 2.46412 2.89934 0
M  V30 9063 H 858.97 3.59345 1.46605 0
M  V30 9064 H 857.071 1.86568 3.22526 0
M  V30 9065 H 857.184 3.73628 2.99899 0
M  V30 9066 H 855.548 1.92428 1.66864 0
M  V30 9067 H 856.331 3.34231 0.783869 0
M  V30 9068 N 858.776 -0.797141 1.35954 0
M  V30 9069 C 860.016 -1.56795 1.31128 0
M  V30 9070 C 860.38 -1.91683 -0.110364 0
M  V30 9071 O 861.581 -2.67305 -0.283093 0
M  V30 9072 C 859.852 -2.81577 2.20111 0
M  V30 9073 S 861.411 -3.71895 2.32894 0
M  V30 9074 H 858.229 -0.53711 0.465869 0
M  V30 9075 H 860.831 -0.939522 1.71445 0
M  V30 9076 H 859.535 -2.53986 3.22365 0
M  V30 9077 H 859.066 -3.49399 1.80786 0
M  V30 9078 H 861.081 -4.72322 1.52073 0
M  V30 9079 N 860.254 -1.20106 -1.0204 0
M  V30 9080 C 861.482 -1.0344 -1.79186 0
M  V30 9081 C 861.897 0.416542 -1.84148 0
M  V30 9082 O 861.254 1.28925 -1.29168 0
M  V30 9083 C 861.305 -1.60663 -3.23836 0
M  V30 9084 O 861.026 -3.00079 -3.19193 0
M  V30 9085 C 862.527 -1.48897 -4.17546 0
M  V30 9086 H 859.747 -0.364093 -0.563629 0
M  V30 9087 H 862.291 -1.5911 -1.28469 0
M  V30 9088 H 860.446 -1.09122 -3.71714 0
M  V30 9089 H 860.86 -3.27162 -4.09958 0
M  V30 9090 H 862.334 -1.93703 -5.16898 0
M  V30 9091 H 862.811 -0.440843 -4.36982 0
M  V30 9092 H 863.417 -1.9961 -3.75547 0
M  V30 9093 N 861.732 1.21287 -1.00634 0
M  V30 9094 C 862.662 2.25973 -0.588089 0
M  V30 9095 C 863.643 1.65527 0.391764 0
M  V30 9096 O 864.828 1.92179 0.279452 0
M  V30 9097 C 861.958 3.47197 0.0847336 0
M  V30 9098 C 860.912 4.20168 -0.815039 0
M  V30 9099 C 860.238 5.34699 -0.00855393 0
M  V30 9100 C 861.538 4.77416 -2.11828 0
M  V30 9101 H 863.232 2.61212 -1.46317 0
M  V30 9102 H 860.778 1.25563 -0.704985 0
M  V30 9103 H 862.731 4.19602 0.388821 0
M  V30 9104 H 861.455 3.11092 0.994456 0
M  V30 9105 H 860.114 3.49614 -1.10297 0
M  V30 9106 H 859.762 4.94837 0.902499 0
M  V30 9107 H 859.462 5.84449 -0.607664 0
M  V30 9108 H 860.986 6.09914 0.289317 0
M  V30 9109 H 862.4 5.41694 -1.87725 0
M  V30 9110 H 860.797 5.37561 -2.66736 0
M  V30 9111 H 861.867 3.96724 -2.78816 0
M  V30 9112 N 863.21 0.781244 1.36873 0
M  V30 9113 C 864.435 0.360398 2.04245 0
M  V30 9114 C 864.86 -1.01242 1.58529 0
M  V30 9115 O 864.218 -1.65063 0.749936 0
M  V30 9116 C 864.266 0.42329 3.58107 0
M  V30 9117 O 863.37 -0.572796 4.08403 0
M  V30 9118 H 862.711 0.154386 0.645803 0
M  V30 9119 H 865.241 1.06008 1.74996 0
M  V30 9120 H 865.251 0.283967 4.07011 0
M  V30 9121 H 863.926 1.42477 3.90734 0
M  V30 9122 H 862.503 -0.395809 3.70793 0
M  V30 9123 N 864.689 -1.48329 0.532571 0
M  V30 9124 C 865.936 -2.025 -0.000582356 0
M  V30 9125 C 866.264 -1.40942 -1.34036 0
M  V30 9126 O 865.519 -0.545545 -1.87942 0
M  V30 9127 C 865.818 -3.57 -0.168943 0
M  V30 9128 C 865.484 -4.37357 1.0968 0
M  V30 9129 C 864.146 -4.59033 1.44369 0
M  V30 9130 C 866.498 -4.83882 1.93669 0
M  V30 9131 C 863.826 -5.24481 2.62939 0
M  V30 9132 C 866.178 -5.50637 3.11419 0
M  V30 9133 C 864.842 -5.70551 3.46451 0
M  V30 9134 H 864.112 -0.741 -0.000213099 0
M  V30 9135 H 866.759 -1.78282 0.699117 0
M  V30 9136 H 865.064 -3.80072 -0.951429 0
M  V30 9137 H 866.761 -3.9654 -0.596422 0
M  V30 9138 H 863.351 -4.20748 0.816655 0
M  V30 9139 H 867.535 -4.66936 1.6818 0
M  V30 9140 H 862.791 -5.38096 2.9028 0
M  V30 9141 H 866.965 -5.85655 3.76803 0
M  V30 9142 H 864.592 -6.21037 4.38425 0
M  V30 9143 N 866.167 -0.267825 -1.55308 0
M  V30 9144 C 867.395 0.354587 -2.03839 0
M  V30 9145 C 867.81 1.50007 -1.14644 0
M  V30 9146 O 867.167 1.81752 -0.165055 0
M  V30 9147 C 867.218 0.84254 -3.51544 0
M  V30 9148 O 866.939 -0.257318 -4.37344 0
M  V30 9149 C 868.44 1.53351 -4.15931 0
M  V30 9150 H 865.66 0.0818131 -0.665994 0
M  V30 9151 H 868.204 -0.397795 -2.00594 0
M  V30 9152 H 866.359 1.54503 -3.55257 0
M  V30 9153 H 866.773 0.116593 -5.2437 0
M  V30 9154 H 868.247 1.82643 -5.20908 0
M  V30 9155 H 868.724 2.4626 -3.63666 0
M  V30 9156 H 869.33 0.87506 -4.162 0
M  V30 9157 N 867.645 1.57599 0.00500368 0
M  V30 9158 C 868.555 2.11532 1.01446 0
M  V30 9159 C 869.571 1.05941 1.3803 0
M  V30 9160 O 870.747 1.37815 1.46864 0
M  V30 9161 C 867.812 2.60382 2.28915 0
M  V30 9162 C 866.873 3.80554 1.98689 0
M  V30 9163 C 866.106 4.27064 3.20081 0
M  V30 9164 O 866.329 3.72939 4.31593 0
M  V30 9165 O 865.263 5.1927 3.04371 0
M  V30 9166 H 869.089 2.97993 0.586011 0
M  V30 9167 H 866.674 1.47718 0.223519 0
M  V30 9168 H 868.556 2.92024 3.03809 0
M  V30 9169 H 867.231 1.77022 2.71007 0
M  V30 9170 H 866.138 3.53893 1.21286 0
M  V30 9171 H 867.471 4.64972 1.61437 0
M  V30 9172 N 869.123 -0.277682 1.55134 0
M  V30 9173 C 870.056 -1.3685 1.82612 0
M  V30 9174 C 871.034 -1.47752 0.678833 0
M  V30 9175 O 872.218 -1.6445 0.921329 0
M  V30 9176 C 869.345 -2.74539 1.98359 0
M  V30 9177 C 868.391 -2.80945 3.20893 0
M  V30 9178 S 869.224 -2.40666 4.78373 0
M  V30 9179 C 870.38 -3.80338 4.97085 0
M  V30 9180 H 870.613 -1.13338 2.74849 0
M  V30 9181 H 868.146 -0.477063 1.46845 0
M  V30 9182 H 870.104 -3.53834 2.08115 0
M  V30 9183 H 868.765 -2.95306 1.07019 0
M  V30 9184 H 867.958 -3.81992 3.28783 0
M  V30 9185 H 867.56 -2.09667 3.09703 0
M  V30 9186 H 869.852 -4.75565 4.8254 0
M  V30 9187 H 870.795 -3.77403 5.99143 0
M  V30 9188 H 871.203 -3.71424 4.25094 0
M  V30 9189 N 870.601 -1.47988 -0.541979 0
M  V30 9190 C 871.511 -1.64276 -1.67483 0
M  V30 9191 C 872.527 -0.525387 -1.65879 0
M  V30 9192 O 873.703 -0.794912 -1.85049 0
M  V30 9193 C 870.768 -1.66744 -3.03969 0
M  V30 9194 C 869.829 -2.90021 -3.16522 0
M  V30 9195 C 869.062 -2.92362 -4.46498 0
M  V30 9196 O 869.285 -2.03462 -5.32878 0
M  V30 9197 O 868.219 -3.84399 -4.63164 0
M  V30 9198 H 872.045 -2.60164 -1.5668 0
M  V30 9199 H 869.63 -1.31249 -0.71372 0
M  V30 9200 H 871.512 -1.70958 -3.85164 0
M  V30 9201 H 870.187 -0.740277 -3.15122 0
M  V30 9202 H 869.094 -2.91345 -2.34667 0
M  V30 9203 H 870.427 -3.82082 -3.10281 0
M  V30 9204 N 872.079 0.78992 -1.36375 0
M  V30 9205 C 873.026 1.90254 -1.3066 0
M  V30 9206 C 873.996 1.65171 -0.17539 0
M  V30 9207 O 875.181 1.87338 -0.361824 0
M  V30 9208 C 872.321 3.27057 -1.10125 0
M  V30 9209 C 871.434 3.64215 -2.32317 0
M  V30 9210 C 870.569 4.90134 -2.04798 0
M  V30 9211 C 869.608 5.19969 -3.22953 0
M  V30 9212 N 868.745 6.37071 -2.95102 0
M  V30 9213 H 873.585 1.94474 -2.25796 0
M  V30 9214 H 871.122 0.951022 -1.12223 0
M  V30 9215 H 873.08 4.05947 -0.962453 0
M  V30 9216 H 871.71 3.22261 -0.186444 0
M  V30 9217 H 870.762 2.80454 -2.57002 0
M  V30 9218 H 872.074 3.82212 -3.20492 0
M  V30 9219 H 871.228 5.76888 -1.87845 0
M  V30 9220 H 869.967 4.74205 -1.13932 0
M  V30 9221 H 868.972 4.31699 -3.40465 0
M  V30 9222 H 870.197 5.37817 -4.14644 0
M  V30 9223 H 868.143 6.22535 -2.06848 0
M  V30 9224 H 868.06 6.55398 -3.76815 0
M  V30 9225 H 869.328 7.26808 -2.81727 0
M  V30 9226 N 873.557 1.20646 1.01402 0
M  V30 9227 C 874.505 0.954493 2.12114 0
M  V30 9228 C 875.499 -0.0950737 1.69133 0
M  V30 9229 O 876.705 0.0555153 1.79914 0
M  V30 9230 H 873.08 0.29135 0.693267 0
M  V30 9231 H 875.051 1.89447 2.30548 0
M  V30 9232 C 873.8 0.525944 3.43699 0
M  V30 9233 H 873.123 1.32516 3.772 0
M  V30 9234 H 874.563 0.388883 4.22213 0
M  V30 9235 C 873.022 -0.761997 3.28169 0
M  V30 9236 O 873.552 -1.81979 3.58115 0
M  V30 9237 N 871.758 -0.725017 2.8141 0
M  V30 9238 H 871.305 0.13607 2.5724 0
M  V30 9239 H 871.263 -1.5871 2.71401 0
M  V30 9240 N 875.035 -1.20752 1.01276 0
M  V30 9241 C 875.983 -2.25432 0.572989 0
M  V30 9242 C 876.977 -1.64935 -0.386354 0
M  V30 9243 O 878.183 -1.7816 -0.256696 0
M  V30 9244 H 874.558 -0.733229 0.166972 0
M  V30 9245 H 876.529 -2.59856 1.46687 0
M  V30 9246 C 875.278 -3.47615 -0.0768249 0
M  V30 9247 H 874.601 -3.94442 0.652354 0
M  V30 9248 H 876.041 -4.22572 -0.3477 0
M  V30 9249 C 874.5 -3.1003 -1.31845 0
M  V30 9250 O 875.03 -3.21216 -2.41211 0
M  V30 9251 N 873.236 -2.64616 -1.20111 0
M  V30 9252 H 872.783 -2.55714 -0.311184 0
M  V30 9253 H 872.741 -2.39838 -2.03286 0
M  V30 9254 N 876.513 -0.788492 -1.36457 0
M  V30 9255 C 877.443 -0.200468 -2.32638 0
M  V30 9256 C 878.424 0.664031 -1.56603 0
M  V30 9257 O 879.609 0.598045 -1.84762 0
M  V30 9258 C 876.739 0.666274 -3.40849 0
M  V30 9259 C 875.693 -0.0982574 -4.27887 0
M  V30 9260 C 875.019 0.889018 -5.27258 0
M  V30 9261 C 876.319 -1.28692 -5.06197 0
M  V30 9262 H 878.013 -1.00399 -2.82065 0
M  V30 9263 H 875.559 -0.484237 -1.35614 0
M  V30 9264 H 877.512 1.08757 -4.07124 0
M  V30 9265 H 876.236 1.50249 -2.89987 0
M  V30 9266 H 874.895 -0.500525 -3.63167 0
M  V30 9267 H 874.543 1.72024 -4.7267 0
M  V30 9268 H 874.243 0.381909 -5.86358 0
M  V30 9269 H 875.767 1.30891 -5.96406 0
M  V30 9270 H 877.181 -0.941429 -5.65517 0
M  V30 9271 H 875.578 -1.72726 -5.74705 0
M  V30 9272 H 876.648 -2.08273 -4.37893 0
M  V30 9273 N 877.991 1.48044 -0.54043 0
M  V30 9274 C 878.921 2.32597 0.205178 0
M  V30 9275 C 879.902 1.42748 0.925041 0
M  V30 9276 O 881.087 1.71624 0.908784 0
M  V30 9277 C 878.217 3.24175 1.24612 0
M  V30 9278 C 877.171 4.23131 0.64376 0
M  V30 9279 C 876.497 5.03915 1.78812 0
M  V30 9280 C 877.797 5.20831 -0.39144 0
M  V30 9281 H 879.491 2.95184 -0.500676 0
M  V30 9282 H 877.037 1.41948 -0.242225 0
M  V30 9283 H 878.99 3.82158 1.77576 0
M  V30 9284 H 877.714 2.59608 1.98169 0
M  V30 9285 H 876.373 3.66349 0.135554 0
M  V30 9286 H 876.021 4.35765 2.51232 0
M  V30 9287 H 875.721 5.709 1.39094 0
M  V30 9288 H 877.245 5.64753 2.32134 0
M  V30 9289 H 878.659 5.73277 0.0515064 0
M  V30 9290 H 877.056 5.95926 -0.706569 0
M  V30 9291 H 878.126 4.6733 -1.29345 0
M  V30 9292 N 879.47 0.276058 1.55163 0
M  V30 9293 C 880.4 -0.604633 2.25536 0
M  V30 9294 C 881.381 -1.15813 1.24585 0
M  V30 9295 O 882.566 -1.1921 1.53306 0
M  V30 9296 C 879.696 -1.78836 2.97716 0
M  V30 9297 C 878.65 -1.36635 4.05604 0
M  V30 9298 C 877.976 -2.63325 4.65364 0
M  V30 9299 C 879.276 -0.515858 5.19746 0
M  V30 9300 H 880.97 -0.0177483 2.99395 0
M  V30 9301 H 878.516 -0.00709627 1.43998 0
M  V30 9302 H 880.469 -2.41036 3.45658 0
M  V30 9303 H 879.193 -2.40109 2.21394 0
M  V30 9304 H 877.852 -0.767541 3.58475 0
M  V30 9305 H 877.5 -3.22858 3.85709 0
M  V30 9306 H 877.2 -2.358 5.38212 0
M  V30 9307 H 878.724 -3.26372 5.16056 0
M  V30 9308 H 880.138 -1.04289 5.63735 0
M  V30 9309 H 878.535 -0.335449 5.99162 0
M  V30 9310 H 879.605 0.465137 4.82664 0
M  V30 9311 N 880.948 -1.576 0.00335426 0
M  V30 9312 C 881.895 -2.08632 -0.986975 0
M  V30 9313 C 882.865 -0.982491 -1.33927 0
M  V30 9314 O 884.05 -1.25513 -1.43705 0
M  V30 9315 C 881.19 -2.59705 -2.27261 0
M  V30 9316 C 880.303 -3.84002 -1.97905 0
M  V30 9317 C 879.438 -4.23563 -3.20574 0
M  V30 9318 C 878.477 -5.40688 -2.8692 0
M  V30 9319 N 877.614 -5.75526 -4.02136 0
M  V30 9320 H 882.454 -2.92977 -0.544855 0
M  V30 9321 H 879.991 -1.44831 -0.257376 0
M  V30 9322 H 881.949 -2.87395 -3.02423 0
M  V30 9323 H 880.579 -1.7823 -2.69136 0
M  V30 9324 H 879.631 -3.63199 -1.13096 0
M  V30 9325 H 880.943 -4.69261 -1.69102 0
M  V30 9326 H 880.097 -4.52554 -4.04079 0
M  V30 9327 H 878.836 -3.37019 -3.52518 0
M  V30 9328 H 877.841 -5.11417 -2.01822 0
M  V30 9329 H 879.066 -6.2891 -2.5622 0
M  V30 9330 H 877.012 -4.9194 -4.33971 0
M  V30 9331 H 876.929 -6.55367 -3.76869 0
M  V30 9332 H 878.197 -6.0911 -4.8642 0
M  V30 9333 N 882.426 0.269451 -1.5528 0
M  V30 9334 C 883.672 0.997946 -1.77236 0
M  V30 9335 C 884.027 1.83808 -0.568546 0
M  V30 9336 O 883.32 1.8651 0.438706 0
M  V30 9337 C 883.514 1.91 -3.02082 0
M  V30 9338 C 883.343 1.15963 -4.34491 0
M  V30 9339 C 882.113 0.873873 -4.97686 0
M  V30 9340 C 884.311 0.548307 -5.11369 0
M  V30 9341 N 882.293 0.0970863 -6.13823 0
M  V30 9342 C 883.664 -0.0941413 -6.19929 0
M  V30 9343 C 885.719 0.456507 -4.95803 0
M  V30 9344 C 884.422 -0.819547 -7.14616 0
M  V30 9345 C 886.448 -0.255315 -5.90849 0
M  V30 9346 C 885.81 -0.886488 -6.988 0
M  V30 9347 H 881.909 0.347038 -0.700777 0
M  V30 9348 H 884.493 0.273262 -1.92773 0
M  V30 9349 H 882.664 2.60691 -2.87915 0
M  V30 9350 H 884.396 2.57237 -3.12428 0
M  V30 9351 H 881.151 1.18003 -4.58663 0
M  V30 9352 H 881.575 -0.278741 -6.76426 0
M  V30 9353 H 886.217 0.930164 -4.12441 0
M  V30 9354 H 883.935 -1.30488 -7.97495 0
M  V30 9355 H 887.521 -0.32671 -5.80882 0
M  V30 9356 H 886.401 -1.42851 -7.71079 0
M  V30 9357 N 883.904 1.48273 0.534124 0
M  V30 9358 C 885.181 1.46567 1.29528 0
M  V30 9359 C 885.561 0.17509 2.10373 0
M  V30 9360 O 884.909 -0.843228 2.12372 0
M  V30 9361 C 885.119 2.72519 2.18023 0
M  V30 9362 C 886.467 3.2068 2.78298 0
M  V30 9363 O 887.491 2.73408 2.28313 0
M  V30 9364 O 886.35 4.02924 3.69208 0
M  V30 9365 H 883.444 0.585151 0.584403 0
M  V30 9366 H 885.99 1.60502 0.551119 0
M  V30 9367 H 884.762 3.57965 1.5804 0
M  V30 9368 H 884.385 2.61285 2.99693 0
M  V30 9369 N 885.382 -0.782676 1.36792 0
M  V30 9370 C 886.629 -1.54083 1.31395 0
M  V30 9371 C 886.957 -1.94217 -0.104797 0
M  V30 9372 O 886.212 -1.63491 -1.0756 0
M  V30 9373 C 886.511 -2.82542 2.18872 0
M  V30 9374 C 886.177 -2.61512 3.67317 0
M  V30 9375 C 884.839 -2.55486 4.07775 0
M  V30 9376 C 887.191 -2.42389 4.61407 0
M  V30 9377 C 884.519 -2.28311 5.40454 0
M  V30 9378 C 886.871 -2.1674 5.94312 0
M  V30 9379 C 885.535 -2.09151 6.33887 0
M  V30 9380 H 884.805 -0.563829 0.48081 0
M  V30 9381 H 887.452 -0.902436 1.68903 0
M  V30 9382 H 885.757 -3.50883 1.74323 0
M  V30 9383 H 887.454 -3.40367 2.12017 0
M  V30 9384 H 884.044 -2.67062 3.35225 0
M  V30 9385 H 888.228 -2.46043 4.31018 0
M  V30 9386 H 883.484 -2.20922 5.70091 0
M  V30 9387 H 887.658 -2.0094 6.6678 0
M  V30 9388 H 885.285 -1.87857 7.36623 0
M  V30 9389 N 886.86 -1.21182 -1.00761 0
M  V30 9390 C 888.137 -0.936297 -1.71735 0
M  V30 9391 C 888.517 0.552585 -2.03739 0
M  V30 9392 O 887.865 1.51672 -1.70903 0
M  V30 9393 C 888.075 -1.81867 -2.97868 0
M  V30 9394 C 889.423 -2.06594 -3.7095 0
M  V30 9395 O 890.447 -1.79194 -3.07844 0
M  V30 9396 O 889.306 -2.5292 -4.84452 0
M  V30 9397 H 886.4 -0.350867 -0.74888 0
M  V30 9398 H 888.946 -1.32098 -1.06527 0
M  V30 9399 H 887.718 -2.82643 -2.70607 0
M  V30 9400 H 887.341 -1.43463 -3.70815 0
M  V30 9401 N 888.338 1.20213 -1.01915 0
M  V30 9402 C 889.286 2.25125 -0.584936 0
M  V30 9403 C 890.28 1.65138 0.377602 0
M  V30 9404 O 891.486 1.78294 0.247245 0
M  V30 9405 H 887.861 0.732333 -0.170858 0
M  V30 9406 H 889.832 2.59075 -1.48063 0
M  V30 9407 C 888.581 3.47651 0.058389 0
M  V30 9408 H 887.904 3.9409 -0.673263 0
M  V30 9409 H 889.344 4.2275 0.325285 0
M  V30 9410 C 887.803 3.10725 1.30199 0
M  V30 9411 O 888.333 3.22491 2.39505 0
M  V30 9412 N 886.539 2.6525 1.18706 0
M  V30 9413 H 886.086 2.55875 0.297618 0
M  V30 9414 H 886.044 2.40913 2.02011 0
M  V30 9415 N 889.816 0.795718 1.36037 0
M  V30 9416 C 891.232 0.478145 1.52269 0
M  V30 9417 C 891.432 -1.0025 1.74792 0
M  V30 9418 O 890.488 -1.78783 1.78305 0
M  V30 9419 C 891.801 1.31406 2.70468 0
M  V30 9420 C 893.349 1.3084 2.84341 0
M  V30 9421 C 893.824 2.12819 4.05551 0
M  V30 9422 N 895.315 2.10298 4.12709 0
M  V30 9423 C 896.05 2.70495 5.05589 0
M  V30 9424 N 895.546 3.39576 6.03871 0
M  V30 9425 N 897.339 2.60195 4.98252 0
M  V30 9426 H 889.49 1.75477 1.19673 0
M  V30 9427 H 891.753 0.74627 0.584624 0
M  V30 9428 H 891.459 2.36435 2.60368 0
M  V30 9429 H 891.333 0.959726 3.64786 0
M  V30 9430 H 893.72 0.266003 2.93899 0
M  V30 9431 H 893.801 1.70254 1.90912 0
M  V30 9432 H 893.445 3.17093 3.96755 0
M  V30 9433 H 893.375 1.70772 4.98141 0
M  V30 9434 H 895.866 1.60026 3.42345 0
M  V30 9435 H 896.179 3.82823 6.71317 0
M  V30 9436 H 894.524 3.43679 6.04077 0
M  V30 9437 H 897.715 2.05823 4.20422 0
M  V30 9438 H 897.888 3.074 5.70447 0
M  V30 9439 N 891.294 -1.47756 0.548274 0
M  V30 9440 C 892.705 -1.8636 0.112547 0
M  V30 9441 C 893.056 -1.45589 -1.31523 0
M  V30 9442 O 892.181 -0.854874 -1.98799 0
M  V30 9443 C 892.776 -3.38224 0.197473 0
M  V30 9444 C 891.335 -3.75954 -0.183163 0
M  V30 9445 C 890.482 -2.7181 0.549059 0
M  V30 9446 H 893.433 -1.394 0.758506 0
M  V30 9447 H 893.454 -3.75957 -0.586217 0
M  V30 9448 H 892.966 -3.67868 1.23673 0
M  V30 9449 H 891.067 -3.51926 -1.22387 0
M  V30 9450 H 891.18 -4.78801 0.169178 0
M  V30 9451 H 889.544 -2.54699 -0.00682862 0
M  V30 9452 H 890.327 -3.04296 1.5893 0
M  V30 9453 N 892.772 -0.284283 -1.55015 0
M  V30 9454 C 893.722 0.613913 -2.19579 0
M  V30 9455 C 894.706 1.11153 -1.16335 0
M  V30 9456 O 895.898 1.05508 -1.42116 0
M  V30 9457 C 893.027 1.79329 -2.92739 0
M  V30 9458 C 892.113 1.31242 -4.03282 0
M  V30 9459 N 892.504 0.548344 -5.02819 0
M  V30 9460 C 890.802 1.5946 -4.1652 0
M  V30 9461 C 891.503 0.294358 -5.80955 0
M  V30 9462 N 890.479 0.869406 -5.36603 0
M  V30 9463 H 894.281 0.0224088 -2.93891 0
M  V30 9464 H 891.795 -0.0882619 -1.6216 0
M  V30 9465 H 893.792 2.44814 -3.37449 0
M  V30 9466 H 892.452 2.38865 -2.1994 0
M  V30 9467 H 893.463 0.194812 -5.17533 0
M  V30 9468 H 890.14 2.19866 -3.54916 0
M  V30 9469 H 891.53 -0.318195 -6.71146 0
M  V30 9470 N 894.251 1.57596 -0.0117121 0
M  V30 9471 C 895.5 1.9025 0.669921 0
M  V30 9472 C 895.813 0.887986 1.74282 0
M  V30 9473 O 897.019 1.10516 2.47989 0
M  V30 9474 C 895.475 3.37762 1.24277 0
M  V30 9475 C 895.083 4.47535 0.204076 0
M  V30 9476 C 896.827 3.79509 1.90192 0
M  V30 9477 C 894.734 5.86132 0.787577 0
M  V30 9478 H 893.664 0.709935 0.253984 0
M  V30 9479 H 896.315 1.8335 -0.0741718 0
M  V30 9480 H 894.697 3.39537 2.03791 0
M  V30 9481 H 895.871 4.57294 -0.56733 0
M  V30 9482 H 894.186 4.14881 -0.355305 0
M  V30 9483 H 896.783 4.80402 2.34773 0
M  V30 9484 H 897.126 3.13643 2.7374 0
M  V30 9485 H 897.659 3.80084 1.17394 0
M  V30 9486 H 894.398 6.55499 -0.00938418 0
M  V30 9487 H 893.918 5.80014 1.52787 0
M  V30 9488 H 895.597 6.34158 1.28265 0
M  V30 9489 N 895.729 -0.261212 1.5542 0
M  V30 9490 C 896.659 -1.32712 1.92119 0
M  V30 9491 C 897.64 -1.50934 0.784406 0
M  V30 9492 O 898.825 -1.63781 1.04352 0
M  V30 9493 C 895.955 -2.68453 2.20341 0
M  V30 9494 C 894.909 -2.64947 3.36136 0
M  V30 9495 C 894.235 -4.04349 3.49865 0
M  V30 9496 C 895.535 -2.23182 4.72215 0
M  V30 9497 H 897.229 -1.02245 2.81401 0
M  V30 9498 H 894.775 -0.490406 1.35392 0
M  V30 9499 H 896.728 -3.43144 2.44603 0
M  V30 9500 H 895.452 -3.00527 1.27871 0
M  V30 9501 H 894.111 -1.92714 3.11861 0
M  V30 9502 H 893.759 -4.33665 2.5484 0
M  V30 9503 H 893.459 -4.02895 4.27726 0
M  V30 9504 H 894.983 -4.80761 3.76432 0
M  V30 9505 H 896.397 -2.87599 4.95943 0
M  V30 9506 H 894.794 -2.32867 5.53076 0
M  V30 9507 H 895.864 -1.18327 4.70241 0
M  V30 9508 N 897.207 -1.48554 -0.526253 0
M  V30 9509 C 898.157 -1.59753 -1.62674 0
M  V30 9510 C 899.141 -0.454452 -1.54349 0
M  V30 9511 O 900.333 -0.706091 -1.62306 0
M  V30 9512 C 897.462 -1.64388 -3.01383 0
M  V30 9513 C 896.548 -2.84188 -3.14798 0
M  V30 9514 N 896.939 -4.08564 -2.98176 0
M  V30 9515 C 895.237 -2.81599 -3.45859 0
M  V30 9516 C 895.938 -4.88961 -3.15106 0
M  V30 9517 N 894.914 -4.21848 -3.42849 0
M  V30 9518 H 898.716 -2.5366 -1.48438 0
M  V30 9519 H 896.23 -1.44977 -0.731801 0
M  V30 9520 H 898.227 -1.70505 -3.80439 0
M  V30 9521 H 896.887 -0.716006 -3.16707 0
M  V30 9522 H 897.898 -4.38943 -2.74862 0
M  V30 9523 H 894.575 -1.98083 -3.67518 0
M  V30 9524 H 895.965 -5.97683 -3.0696 0
M  V30 9525 N 898.685 0.775411 -1.37205 0
M  V30 9526 C 899.933 1.53081 -1.3195 0
M  V30 9527 C 900.254 1.9476 0.0966864 0
M  V30 9528 O 899.524 1.66019 1.03993 0
M  V30 9529 H 898.104 0.567762 -0.485444 0
M  V30 9530 H 900.766 0.92309 -1.71654 0
M  V30 9531 H 899.862 2.4319 -1.95614 0
M  V30 9532 N 900.163 1.21714 1.00117 0
M  V30 9533 C 901.073 0.99597 2.12409 0
M  V30 9534 C 902.089 -0.0531431 1.73919 0
M  V30 9535 O 903.265 0.137757 2.00928 0
M  V30 9536 C 900.33 0.567593 3.42022 0
M  V30 9537 C 899.391 1.68936 3.94663 0
M  V30 9538 C 898.624 1.28133 5.1809 0
M  V30 9539 O 898.847 0.156574 5.70185 0
M  V30 9540 O 897.781 2.0947 5.64275 0
M  V30 9541 H 901.607 1.93657 2.33946 0
M  V30 9542 H 899.192 1.00236 1.10784 0
M  V30 9543 H 901.074 0.338664 4.20037 0
M  V30 9544 H 899.749 -0.34424 3.21864 0
M  V30 9545 H 898.656 1.97274 3.17858 0
M  V30 9546 H 899.989 2.57876 4.19238 0
M  V30 9547 N 901.641 -1.19671 1.02551 0
M  V30 9548 C 902.871 -1.92952 0.738441 0
M  V30 9549 C 903.279 -1.75528 -0.706155 0
M  V30 9550 O 902.622 -1.0723 -1.49156 0
M  V30 9551 C 902.684 -3.45149 1.00562 0
M  V30 9552 C 902.348 -3.86341 2.44109 0
M  V30 9553 C 903.345 -3.91374 3.42231 0
M  V30 9554 C 901.03 -4.18076 2.7842 0
M  V30 9555 C 903.024 -4.27568 4.7272 0
M  V30 9556 C 900.711 -4.53943 4.0912 0
M  V30 9557 C 901.709 -4.58663 5.06081 0
M  V30 9558 O 901.397 -4.93701 6.3444 0
M  V30 9559 H 901.129 -0.619836 0.269776 0
M  V30 9560 H 903.683 -1.52852 1.37206 0
M  V30 9561 H 901.913 -3.85416 0.314849 0
M  V30 9562 H 903.602 -3.99664 0.708742 0
M  V30 9563 H 904.368 -3.67011 3.17061 0
M  V30 9564 H 900.247 -4.13589 2.03631 0
M  V30 9565 H 903.791 -4.31166 5.48399 0
M  V30 9566 H 899.688 -4.77764 4.34064 0
M  V30 9567 H 900.456 -5.11662 6.38862 0
M  V30 9568 N 903.119 -0.802921 -1.35613 0
M  V30 9569 C 904.368 -0.378087 -1.98125 0
M  V30 9570 C 904.681 1.05953 -1.64418 0
M  V30 9571 O 905.887 1.58729 -2.20266 0
M  V30 9572 C 904.343 -0.625077 -3.5443 0
M  V30 9573 C 903.951 -2.07499 -3.97049 0
M  V30 9574 C 905.695 -0.265419 -4.23669 0
M  V30 9575 C 903.602 -2.26793 -5.46186 0
M  V30 9576 H 902.532 -0.137633 -0.741332 0
M  V30 9577 H 905.183 -0.986461 -1.54729 0
M  V30 9578 H 903.565 0.0531975 -3.95964 0
M  V30 9579 H 904.739 -2.79077 -3.66678 0
M  V30 9580 H 903.054 -2.39417 -3.40688 0
M  V30 9581 H 905.651 -0.387669 -5.33293 0
M  V30 9582 H 905.994 0.787994 -4.08774 0
M  V30 9583 H 906.527 -0.897464 -3.87544 0
M  V30 9584 H 903.266 -3.30566 -5.66045 0
M  V30 9585 H 902.786 -1.59735 -5.78139 0
M  V30 9586 H 904.465 -2.08165 -6.12598 0
M  V30 9587 N 904.597 1.47463 -0.556102 0
M  V30 9588 C 905.507 2.33785 0.195378 0
M  V30 9589 C 906.523 1.48123 0.913 0
M  V30 9590 O 907.699 1.81053 0.882141 0
M  V30 9591 C 904.764 3.24795 1.21282 0
M  V30 9592 C 903.825 4.26346 0.502747 0
M  V30 9593 C 903.058 5.13007 1.47172 0
M  V30 9594 O 903.281 5.02103 2.70646 0
M  V30 9595 O 902.215 5.93588 0.996814 0
M  V30 9596 H 906.041 2.99341 -0.512676 0
M  V30 9597 H 903.626 1.46004 -0.31673 0
M  V30 9598 H 905.508 3.81015 1.80016 0
M  V30 9599 H 904.183 2.61868 1.90282 0
M  V30 9600 H 903.09 3.73889 -0.125757 0
M  V30 9601 H 904.423 4.91984 -0.145779 0
M  V30 9602 N 906.075 0.2925 1.54862 0
M  V30 9603 C 907.322 -0.319263 1.99967 0
M  V30 9604 C 907.65 -1.54547 1.18092 0
M  V30 9605 O 906.905 -1.94186 0.242969 0
M  V30 9606 C 907.204 -0.728674 3.49893 0
M  V30 9607 C 906.87 0.394836 4.49168 0
M  V30 9608 C 905.532 0.703289 4.76033 0
M  V30 9609 C 907.884 1.15103 5.08331 0
M  V30 9610 C 905.212 1.77121 5.59325 0
M  V30 9611 C 907.564 2.20881 5.92785 0
M  V30 9612 C 906.228 2.52342 6.17964 0
M  V30 9613 H 905.498 -0.116827 0.731733 0
M  V30 9614 H 908.145 0.40983 1.87063 0
M  V30 9615 H 906.45 -1.53772 3.60363 0
M  V30 9616 H 908.147 -1.21305 3.82212 0
M  V30 9617 H 904.737 0.144319 4.28357 0
M  V30 9618 H 908.921 0.92599 4.87585 0
M  V30 9619 H 904.177 2.01978 5.77074 0
M  V30 9620 H 908.351 2.79939 6.37657 0
M  V30 9621 H 905.978 3.35225 6.82296 0
M  V30 9622 N 907.553 -1.57587 0.0200696 0
M  V30 9623 C 908.802 -1.90602 -0.659822 0
M  V30 9624 C 909.115 -0.897216 -1.73808 0
M  V30 9625 O 910.321 -1.11829 -2.47399 0
M  V30 9626 C 908.777 -3.38416 -1.22484 0
M  V30 9627 C 908.385 -4.47637 -0.180339 0
M  V30 9628 C 910.129 -3.80513 -1.88176 0
M  V30 9629 C 908.036 -5.86542 -0.756482 0
M  V30 9630 H 906.966 -0.711272 -0.250216 0
M  V30 9631 H 909.617 -1.83308 0.0838942 0
M  V30 9632 H 907.999 -3.40613 -2.01987 0
M  V30 9633 H 909.173 -4.56987 0.591573 0
M  V30 9634 H 907.488 -4.14687 0.377302 0
M  V30 9635 H 910.085 -4.8164 -2.32222 0
M  V30 9636 H 910.428 -3.15091 -2.72073 0
M  V30 9637 H 910.961 -3.80701 -1.15377 0
M  V30 9638 H 907.7 -6.55485 0.0441468 0
M  V30 9639 H 907.22 -5.80816 -1.49709 0
M  V30 9640 H 908.899 -6.3483 -1.249 0
M  V30 9641 N 909.032 0.252966 -1.55557 0
M  V30 9642 C 910.272 0.989276 -1.78865 0
M  V30 9643 C 910.636 1.82755 -0.588615 0
M  V30 9644 O 911.837 2.59516 -0.700347 0
M  V30 9645 C 910.108 1.83203 -3.06874 0
M  V30 9646 S 911.667 2.62826 -3.5138 0
M  V30 9647 H 908.485 0.332863 -0.62827 0
M  V30 9648 H 911.087 0.257716 -1.93794 0
M  V30 9649 H 909.791 1.20579 -3.92287 0
M  V30 9650 H 909.322 2.60644 -2.94666 0
M  V30 9651 H 911.337 3.85648 -3.12234 0
M  V30 9652 N 910.51 1.48831 0.518367 0
M  V30 9653 C 911.926 1.35209 0.847979 0
M  V30 9654 C 912.126 0.371927 1.98038 0
M  V30 9655 O 911.182 -0.202681 2.51685 0
M  V30 9656 C 912.495 2.7552 1.20455 0
M  V30 9657 C 914.043 2.84094 1.31377 0
M  V30 9658 C 914.518 4.25132 1.70372 0
M  V30 9659 N 916.009 4.27861 1.77453 0
M  V30 9660 C 916.744 5.3394 2.09035 0
M  V30 9661 N 916.24 6.50285 2.3896 0
M  V30 9662 N 918.033 5.21343 2.10139 0
M  V30 9663 H 910.184 2.11166 -0.228624 0
M  V30 9664 H 912.447 0.94717 -0.0396599 0
M  V30 9665 H 912.153 3.48861 0.445991 0
M  V30 9666 H 912.027 3.09785 2.15204 0
M  V30 9667 H 914.414 2.11001 2.06307 0
M  V30 9668 H 914.495 2.53433 0.347203 0
M  V30 9669 H 914.139 4.98745 0.959975 0
M  V30 9670 H 914.069 4.53245 2.68098 0
M  V30 9671 H 916.56 3.43945 1.56557 0
M  V30 9672 H 916.873 7.26961 2.62196 0
M  V30 9673 H 915.218 6.5354 2.36454 0
M  V30 9674 H 918.409 4.29462 1.86225 0
M  V30 9675 H 918.582 6.04112 2.34419 0
M  V30 9676 N 911.988 -0.768124 1.37614 0
M  V30 9677 C 913.236 -1.52379 1.3276 0
M  V30 9678 C 913.557 -1.94809 -0.0863564 0
M  V30 9679 O 912.827 -1.66568 -1.03112 0
M  V30 9680 H 911.407 -0.565179 0.488448 0
M  V30 9681 H 914.069 -0.913974 1.72141 0
M  V30 9682 H 913.165 -2.4215 1.96901 0
M  V30 9683 N 913.466 -1.22244 -0.994698 0
M  V30 9684 C 914.743 -0.954459 -1.70732 0
M  V30 9685 C 915.123 0.530945 -2.04314 0
M  V30 9686 O 914.471 1.49851 -1.72502 0
M  V30 9687 C 914.681 -1.85016 -2.95922 0
M  V30 9688 C 916.029 -2.10517 -3.68738 0
M  V30 9689 O 917.053 -1.82449 -3.05926 0
M  V30 9690 O 915.912 -2.58044 -4.81742 0
M  V30 9691 H 913.006 -0.35879 -0.745116 0
M  V30 9692 H 915.552 -1.33221 -1.0512 0
M  V30 9693 H 914.324 -2.85498 -2.67594 0
M  V30 9694 H 913.947 -1.47388 -3.69273 0
M  V30 9695 N 914.944 1.19125 -1.03184 0
M  V30 9696 C 916.172 1.92838 -0.74975 0
M  V30 9697 C 916.587 1.75667 0.691851 0
M  V30 9698 O 915.944 1.0805 1.47076 0
M  V30 9699 C 915.995 3.44509 -1.09525 0
M  V30 9700 O 915.716 3.6113 -2.48025 0
M  V30 9701 C 917.217 4.35338 -0.836397 0
M  V30 9702 H 914.437 0.61246 -0.274105 0
M  V30 9703 H 916.981 1.5118 -1.37712 0
M  V30 9704 H 915.136 3.83988 -0.513006 0
M  V30 9705 H 915.55 4.54959 -2.60984 0
M  V30 9706 H 917.024 5.4035 -1.12808 0
M  V30 9707 H 917.501 4.38602 0.229102 0
M  V30 9708 H 918.107 4.01544 -1.40152 0
M  V30 9709 N 916.422 0.810101 1.35185 0
M  V30 9710 C 917.652 0.404109 2.02609 0
M  V30 9711 C 918.06 -0.990748 1.61186 0
M  V30 9712 O 917.403 -1.65038 0.80674 0
M  V30 9713 C 917.465 0.412047 3.57131 0
M  V30 9714 C 917.129 1.75802 4.21832 0
M  V30 9715 C 918.126 2.71687 4.43263 0
M  V30 9716 C 915.811 2.04299 4.58876 0
M  V30 9717 C 917.805 3.9425 5.00845 0
M  V30 9718 C 915.492 3.27125 5.16171 0
M  V30 9719 C 916.49 4.21918 5.37098 0
M  V30 9720 O 916.178 5.42576 5.93184 0
M  V30 9721 H 915.91 0.161914 0.656323 0
M  V30 9722 H 918.464 1.09605 1.73712 0
M  V30 9723 H 916.694 -0.336509 3.85233 0
M  V30 9724 H 918.383 0.0278817 4.0589 0
M  V30 9725 H 919.149 2.50964 4.15021 0
M  V30 9726 H 915.028 1.31324 4.41899 0
M  V30 9727 H 918.572 4.68251 5.17094 0
M  V30 9728 H 914.469 3.47718 5.43841 0
M  V30 9729 H 915.237 5.43921 6.11631 0
M  V30 9730 N 917.9 -1.47166 0.563914 0
M  V30 9731 C 919.311 -1.86231 0.132307 0
M  V30 9732 C 919.662 -1.46976 -1.29971 0
M  V30 9733 O 918.787 -0.875911 -1.97881 0
M  V30 9734 C 919.382 -3.37996 0.233335 0
M  V30 9735 C 917.941 -3.76127 -0.143278 0
M  V30 9736 C 917.088 -2.71212 0.577857 0
M  V30 9737 H 920.039 -1.38588 0.773249 0
M  V30 9738 H 920.06 -3.76558 -0.546309 0
M  V30 9739 H 919.572 -3.66535 1.27568 0
M  V30 9740 H 917.673 -3.53205 -1.18648 0
M  V30 9741 H 917.786 -4.78595 0.219952 0
M  V30 9742 H 916.15 -2.54692 0.020186 0
M  V30 9743 H 916.933 -3.02593 1.62149 0
M  V30 9744 N 919.378 -0.300708 -1.54705 0
M  V30 9745 C 920.341 0.562648 -2.22187 0
M  V30 9746 C 921.341 1.06152 -1.20782 0
M  V30 9747 O 922.531 0.957596 -1.45519 0
M  V30 9748 C 919.663 1.77899 -2.908 0
M  V30 9749 H 920.856 -0.0269361 -2.99888 0
M  V30 9750 H 918.409 -0.0515412 -1.56215 0
M  V30 9751 H 919.144 2.40841 -2.17177 0
M  V30 9752 H 918.929 1.42892 -3.65136 0
M  V30 9753 H 920.419 2.39236 -3.42281 0
M  V30 9754 N 920.856 1.57574 -0.0284266 0
M  V30 9755 C 921.766 2.13637 0.96936 0
M  V30 9756 C 922.782 1.08845 1.35752 0
M  V30 9757 O 923.958 1.40899 1.43908 0
M  V30 9758 C 921.023 2.65179 2.2334 0
M  V30 9759 C 920.084 3.84683 1.90572 0
M  V30 9760 C 919.317 4.33758 3.1095 0
M  V30 9761 O 919.54 3.82009 4.23586 0
M  V30 9762 O 918.474 5.2561 2.93288 0
M  V30 9763 H 922.3 2.99169 0.52267 0
M  V30 9764 H 919.885 1.48159 0.192135 0
M  V30 9765 H 921.767 2.98402 2.97547 0
M  V30 9766 H 920.442 1.82731 2.67191 0
M  V30 9767 H 919.349 3.56386 1.13753 0
M  V30 9768 H 920.682 4.68292 1.51538 0
M  V30 9769 N 922.334 -0.244713 1.55689 0
M  V30 9770 C 923.264 -1.30667 1.93516 0
M  V30 9771 C 924.245 -1.50094 0.800371 0
M  V30 9772 O 925.43 -1.62665 1.06083 0
M  V30 9773 C 922.56 -2.66101 2.23176 0
M  V30 9774 C 921.514 -2.61366 3.38927 0
M  V30 9775 C 920.84 -4.00616 3.54134 0
M  V30 9776 C 922.14 -2.18161 4.74555 0
M  V30 9777 H 923.834 -0.992546 2.82469 0
M  V30 9778 H 921.38 -0.476018 1.35905 0
M  V30 9779 H 923.333 -3.4053 2.48228 0
M  V30 9780 H 922.057 -2.99154 1.31051 0
M  V30 9781 H 920.716 -1.89395 3.13887 0
M  V30 9782 H 920.364 -4.30938 2.59426 0
M  V30 9783 H 920.064 -3.98335 4.31975 0
M  V30 9784 H 921.588 -4.76741 3.8151 0
M  V30 9785 H 923.002 -2.82323 4.98965 0
M  V30 9786 H 921.399 -2.26988 5.55515 0
M  V30 9787 H 922.469 -1.13333 4.7147 0
M  V30 9788 N 923.813 -1.49104 -0.510467 0
M  V30 9789 C 925.043 -1.61571 -1.28757 0
M  V30 9790 C 925.451 -0.282638 -1.87077 0
M  V30 9791 O 924.794 0.740749 -1.68103 0
M  V30 9792 C 924.856 -2.61851 -2.46322 0
M  V30 9793 C 924.52 -4.06438 -2.08942 0
M  V30 9794 C 925.517 -4.93532 -1.63469 0
M  V30 9795 C 923.202 -4.52109 -2.18867 0
M  V30 9796 C 925.196 -6.24331 -1.28411 0
M  V30 9797 C 922.883 -5.82924 -1.83421 0
M  V30 9798 C 923.881 -6.68858 -1.38267 0
M  V30 9799 O 923.569 -7.97236 -1.03296 0
M  V30 9800 H 923.301 -0.547082 -0.397086 0
M  V30 9801 H 925.855 -1.95806 -0.620424 0
M  V30 9802 H 924.085 -2.22777 -3.16081 0
M  V30 9803 H 925.774 -2.63947 -3.08362 0
M  V30 9804 H 926.54 -4.59479 -1.55255 0
M  V30 9805 H 922.419 -3.85395 -2.52966 0
M  V30 9806 H 925.963 -6.9136 -0.930946 0
M  V30 9807 H 921.86 -6.16507 -1.91282 0
M  V30 9808 H 922.628 -8.10163 -1.16525 0
M  V30 9809 N 925.291 0.760815 -1.38019 0
M  V30 9810 C 926.54 1.51506 -1.3315 0
M  V30 9811 C 926.853 1.95444 0.0782124 0
M  V30 9812 O 928.059 2.70352 0.249418 0
M  V30 9813 C 926.515 2.73636 -2.33776 0
M  V30 9814 C 926.123 2.36753 -3.80332 0
M  V30 9815 C 927.867 3.51548 -2.37937 0
M  V30 9816 C 925.774 3.55451 -4.72661 0
M  V30 9817 H 924.704 0.568844 -0.494907 0
M  V30 9818 H 927.355 0.832343 -1.63537 0
M  V30 9819 H 925.737 3.43852 -1.96422 0
M  V30 9820 H 926.911 1.7425 -4.26584 0
M  V30 9821 H 925.226 1.71991 -3.7922 0
M  V30 9822 H 927.823 4.39791 -3.04119 0
M  V30 9823 H 928.166 3.9219 -1.39617 0
M  V30 9824 H 928.699 2.88339 -2.74054 0
M  V30 9825 H 925.438 3.19882 -5.7215 0
M  V30 9826 H 924.958 4.17022 -4.31107 0
M  V30 9827 H 926.637 4.22125 -4.90326 0
M  V30 9828 N 926.769 1.22769 0.988202 0
M  V30 9829 C 927.997 1.08155 1.76381 0
M  V30 9830 C 928.412 -0.367573 1.85187 0
M  V30 9831 O 927.769 -1.25455 1.32541 0
M  V30 9832 C 927.82 1.69193 3.19462 0
M  V30 9833 O 927.541 3.08437 3.11125 0
M  V30 9834 C 929.042 1.59915 4.13451 0
M  V30 9835 H 926.262 0.378908 0.553778 0
M  V30 9836 H 928.806 1.6246 1.24206 0
M  V30 9837 H 926.961 1.18939 3.6869 0
M  V30 9838 H 927.375 3.37916 4.0114 0
M  V30 9839 H 928.849 2.07339 5.1158 0
M  V30 9840 H 929.326 0.556546 4.3566 0
M  V30 9841 H 929.932 2.09497 3.70123 0
M  V30 9842 N 928.247 -1.18576 1.03814 0
M  V30 9843 C 929.495 -1.88121 0.738574 0
M  V30 9844 C 929.816 -1.80587 -0.735744 0
M  V30 9845 O 929.086 -1.22251 -1.53074 0
M  V30 9846 H 927.666 -0.696417 0.270208 0
M  V30 9847 H 930.328 -1.43912 1.31435 0
M  V30 9848 H 929.424 -2.94222 1.04115 0
M  V30 9849 N 929.725 -0.817259 -1.34754 0
M  V30 9850 C 930.95 -0.414423 -2.03217 0
M  V30 9851 C 931.375 0.970037 -1.61158 0
M  V30 9852 O 930.733 1.63016 -0.793436 0
M  V30 9853 C 930.781 -0.518087 -3.56859 0
M  V30 9854 O 929.885 0.464314 -4.09778 0
M  V30 9855 H 929.226 -0.171454 -0.641482 0
M  V30 9856 H 931.756 -1.10611 -1.72123 0
M  V30 9857 H 931.766 -0.391779 -4.06115 0
M  V30 9858 H 930.441 -1.52786 -3.86819 0
M  V30 9859 H 929.018 0.297361 -3.71712 0
M  V30 9860 N 931.203 1.46865 -0.571711 0
M  V30 9861 C 932.452 2.01636 -0.050881 0
M  V30 9862 C 932.765 1.45001 1.31279 0
M  V30 9863 O 933.971 1.91523 1.92435 0
M  V30 9864 C 932.427 3.59877 -0.0404114 0
M  V30 9865 C 932.035 4.25506 -1.40172 0
M  V30 9866 C 933.779 4.22346 0.42705 0
M  V30 9867 C 931.686 5.75795 -1.34958 0
M  V30 9868 H 930.616 0.753846 -0.0152514 0
M  V30 9869 H 933.267 1.68711 -0.721723 0
M  V30 9870 H 931.649 3.89829 0.696374 0
M  V30 9871 H 932.823 4.07178 -2.15737 0
M  V30 9872 H 931.138 3.75086 -1.8083 0
M  V30 9873 H 933.735 5.32499 0.484688 0
M  V30 9874 H 934.078 3.9052 1.44222 0
M  V30 9875 H 934.611 3.9698 -0.255326 0
M  V30 9876 H 931.35 6.12265 -2.3412 0
M  V30 9877 H 930.87 5.96419 -0.635962 0
M  V30 9878 H 932.549 6.38294 -1.05779 0
M  V30 9879 N 932.681 0.308908 1.54543 0
M  V30 9880 C 933.611 -0.556657 2.26768 0
M  V30 9881 C 934.592 -1.13145 1.27013 0
M  V30 9882 O 935.777 -1.15931 1.558 0
M  V30 9883 C 932.907 -1.72481 3.01443 0
M  V30 9884 C 931.861 -1.28001 4.08411 0
M  V30 9885 C 931.187 -2.53395 4.70845 0
M  V30 9886 C 932.487 -0.405497 5.20724 0
M  V30 9887 H 934.181 0.0457618 2.99365 0
M  V30 9888 H 931.727 0.0234495 1.43981 0
M  V30 9889 H 933.68 -2.3365 3.50693 0
M  V30 9890 H 932.404 -2.35359 2.26437 0
M  V30 9891 H 931.063 -0.69133 3.60022 0
M  V30 9892 H 930.711 -3.14604 3.92471 0
M  V30 9893 H 930.411 -2.2433 5.43093 0
M  V30 9894 H 931.935 -3.15352 5.22863 0
M  V30 9895 H 933.349 -0.923076 5.6582 0
M  V30 9896 H 931.746 -0.208282 5.99738 0
M  V30 9897 H 932.816 0.567412 4.81569 0
M  V30 9898 N 934.159 -1.57557 0.0367827 0
M  V30 9899 C 935.575 -1.56366 -0.31967 0
M  V30 9900 C 935.775 -1.04313 -1.72398 0
M  V30 9901 O 934.831 -0.693278 -2.42796 0
M  V30 9902 C 936.144 -3.00267 -0.161274 0
M  V30 9903 C 937.692 -3.12128 -0.233464 0
M  V30 9904 C 938.167 -4.57882 -0.103767 0
M  V30 9905 N 939.658 -4.62922 -0.160506 0
M  V30 9906 C 940.393 -5.73338 -0.0840493 0
M  V30 9907 N 939.889 -6.92786 0.043933 0
M  V30 9908 N 941.682 -5.61929 -0.138592 0
M  V30 9909 H 933.833 -1.8972 0.954996 0
M  V30 9910 H 936.096 -0.87304 0.369467 0
M  V30 9911 H 935.802 -3.42331 0.80639 0
M  V30 9912 H 935.676 -3.65599 -0.928304 0
M  V30 9913 H 938.063 -2.69972 -1.19159 0
M  V30 9914 H 938.144 -2.49503 0.564075 0
M  V30 9915 H 937.788 -5.0072 0.850973 0
M  V30 9916 H 937.718 -5.18496 -0.920268 0
M  V30 9917 H 940.209 -3.7701 -0.259257 0
M  V30 9918 H 940.522 -7.72741 0.095372 0
M  V30 9919 H 938.867 -6.94955 0.0788211 0
M  V30 9920 H 942.058 -4.67499 -0.237031 0
M  V30 9921 H 942.231 -6.47956 -0.075546 0
M  V30 9922 N 935.637 0.236453 -1.55816 0
M  V30 9923 C 936.57 1.3196 -1.86177 0
M  V30 9924 C 937.548 1.459 -0.717769 0
M  V30 9925 O 938.732 1.61949 -0.964606 0
M  V30 9926 C 935.859 2.69183 -2.05568 0
M  V30 9927 C 934.905 2.72338 -3.28229 0
M  V30 9928 S 935.738 2.27898 -4.84585 0
M  V30 9929 C 936.894 3.67025 -5.06994 0
M  V30 9930 H 937.127 1.06011 -2.77757 0
M  V30 9931 H 934.66 0.437961 -1.48058 0
M  V30 9932 H 936.618 3.48191 -2.17423 0
M  V30 9933 H 935.279 2.92365 -1.14811 0
M  V30 9934 H 934.472 3.7314 -3.38795 0
M  V30 9935 H 934.074 2.01382 -3.15153 0
M  V30 9936 H 936.366 4.62604 -4.94979 0
M  V30 9937 H 937.309 3.61385 -6.08939 0
M  V30 9938 H 937.717 3.60022 -4.34792 0
M  V30 9939 N 937.115 1.49373 0.502552 0
M  V30 9940 C 938.047 1.62045 1.62093 0
M  V30 9941 C 939.06 0.503221 1.54827 0
M  V30 9942 O 940.249 0.775208 1.60788 0
M  V30 9943 C 937.349 1.55971 3.00876 0
M  V30 9944 C 936.522 2.832 3.33341 0
M  V30 9945 C 935.581 2.702 4.51529 0
M  V30 9946 O 934.607 3.44132 4.53389 0
M  V30 9947 N 935.809 1.81642 5.5135 0
M  V30 9948 H 938.574 2.58501 1.51649 0
M  V30 9949 H 936.135 1.46442 0.690396 0
M  V30 9950 H 938.127 1.4493 3.77859 0
M  V30 9951 H 936.697 0.673795 3.05252 0
M  V30 9952 H 935.917 3.08604 2.4527 0
M  V30 9953 H 937.205 3.67551 3.51829 0
M  V30 9954 H 936.603 1.20829 5.52645 0
M  V30 9955 H 935.16 1.76524 6.27441 0
M  V30 9956 N 938.594 -0.753485 1.38421 0
M  V30 9957 C 939.834 -1.52544 1.3605 0
M  V30 9958 C 940.198 -1.91937 -0.0493257 0
M  V30 9959 O 941.399 -2.6807 -0.197908 0
M  V30 9960 C 939.67 -2.74432 2.28958 0
M  V30 9961 S 941.229 -3.64297 2.44607 0
M  V30 9962 H 938.047 -0.522017 0.48272 0
M  V30 9963 H 940.649 -0.884503 1.74347 0
M  V30 9964 H 939.353 -2.43602 3.30282 0
M  V30 9965 H 938.884 -3.43471 1.91811 0
M  V30 9966 H 940.899 -4.67245 1.67022 0
M  V30 9967 N 940.072 -1.23292 -0.981677 0
M  V30 9968 C 941.349 -0.972514 -1.6971 0
M  V30 9969 C 941.729 0.509244 -2.04866 0
M  V30 9970 O 941.077 1.48013 -1.74082 0
M  V30 9971 C 941.287 -1.88144 -2.93943 0
M  V30 9972 C 942.635 -2.14416 -3.66485 0
M  V30 9973 O 943.659 -1.85684 -3.03974 0
M  V30 9974 O 942.518 -2.63139 -4.78978 0
M  V30 9975 H 939.612 -0.366673 -0.741269 0
M  V30 9976 H 942.158 -1.34328 -1.03701 0
M  V30 9977 H 940.93 -2.8832 -2.64551 0
M  V30 9978 H 940.553 -1.51296 -3.67689 0
M  V30 9979 N 941.55 1.18024 -1.04442 0
M  V30 9980 C 942.966 1.40107 -0.76435 0
M  V30 9981 C 943.166 1.90914 0.644516 0
M  V30 9982 O 942.222 2.0959 1.40813 0
M  V30 9983 C 943.535 2.39851 -1.81361 0
M  V30 9984 C 945.083 2.53571 -1.83496 0
M  V30 9985 C 945.558 3.56583 -2.87424 0
M  V30 9986 N 947.049 3.64094 -2.86339 0
M  V30 9987 C 947.784 4.43537 -3.63405 0
M  V30 9988 N 947.28 5.26557 -4.50233 0
M  V30 9989 N 949.073 4.38336 -3.51877 0
M  V30 9990 H 941.224 0.833726 -1.95353 0
M  V30 9991 H 943.487 0.42881 -0.845474 0
M  V30 9992 H 943.193 2.09576 -2.82438 0
M  V30 9993 H 943.067 3.39251 -1.6489 0
M  V30 9994 H 945.454 2.83161 -0.830883 0
M  V30 9995 H 945.535 1.54272 -2.04044 0
M  V30 9996 H 945.179 3.27733 -3.88012 0
M  V30 9997 H 945.109 4.55569 -2.6413 0
M  V30 9998 H 947.6 3.04814 -2.23376 0
M  V30 9999 H 947.913 5.84336 -5.05738 0
M  V30 10000 H 946.258 5.25964 -4.54298 0
M  V30 10001 H 949.449 3.72528 -2.83444 0
M  V30 10002 H 949.622 5.00007 -4.12186 0
M  V30 10003 N 943.028 0.824394 1.34319 0
M  V30 10004 C 944.276 0.41235 1.97849 0
M  V30 10005 C 944.597 -1.02841 1.65677 0
M  V30 10006 O 943.867 -1.71421 0.948245 0
M  V30 10007 H 942.447 0.149486 0.73189 0
M  V30 10008 H 945.109 1.05416 1.63931 0
M  V30 10009 H 944.205 0.532557 3.07523 0
M  V30 10010 N 944.506 -1.46559 0.579492 0
M  V30 10011 C 945.438 -2.28383 -0.19337 0
M  V30 10012 C 946.451 -1.38324 -0.858511 0
M  V30 10013 O 947.64 -1.62952 -0.728615 0
M  V30 10014 C 944.74 -3.13262 -1.29306 0
M  V30 10015 C 943.913 -4.31426 -0.720459 0
M  V30 10016 C 942.972 -4.97728 -1.70744 0
M  V30 10017 O 941.998 -5.55423 -1.24476 0
M  V30 10018 N 943.2 -4.94445 -3.04146 0
M  V30 10019 H 945.965 -2.95353 0.508611 0
M  V30 10020 H 943.526 -1.56436 0.417046 0
M  V30 10021 H 945.518 -3.54483 -1.95254 0
M  V30 10022 H 944.088 -2.48388 -1.89795 0
M  V30 10023 H 943.308 -3.94028 0.116398 0
M  V30 10024 H 944.596 -5.07808 -0.31763 0
M  V30 10025 H 943.994 -4.4881 -3.44363 0
M  V30 10026 H 942.551 -5.39616 -3.65592 0
M  V30 10027 N 945.984 -0.3171 -1.54377 0
M  V30 10028 C 946.914 0.544623 -2.2706 0
M  V30 10029 C 947.895 1.12469 -1.27611 0
M  V30 10030 O 949.08 1.15103 -1.56413 0
M  V30 10031 C 946.21 1.70879 -3.02353 0
M  V30 10032 C 945.164 1.25833 -4.09084 0
M  V30 10033 C 944.49 2.50894 -4.72182 0
M  V30 10034 C 945.79 0.377876 -5.20931 0
M  V30 10035 H 947.484 -0.0616372 -2.99337 0
M  V30 10036 H 945.03 -0.0310848 -1.43966 0
M  V30 10037 H 946.983 2.31787 -3.51927 0
M  V30 10038 H 945.707 2.34155 -2.27682 0
M  V30 10039 H 944.366 0.672228 -3.60384 0
M  V30 10040 H 944.014 3.12518 -3.94134 0
M  V30 10041 H 943.714 2.21447 -5.44275 0
M  V30 10042 H 945.238 3.12575 -5.24528 0
M  V30 10043 H 946.652 0.893056 -5.66302 0
M  V30 10044 H 945.049 0.176474 -5.9984 0
M  V30 10045 H 946.119 -0.592943 -4.81261 0
M  V30 10046 N 947.462 1.57535 -0.0451378 0
M  V30 10047 C 948.409 2.11176 0.931313 0
M  V30 10048 C 949.379 1.01765 1.31275 0
M  V30 10049 O 950.564 1.29279 1.40327 0
M  V30 10050 C 947.704 2.65639 2.20295 0
M  V30 10051 C 946.817 3.89114 1.87654 0
M  V30 10052 C 945.952 4.31914 3.09232 0
M  V30 10053 C 944.991 5.48105 2.72484 0
M  V30 10054 N 944.128 5.85986 3.86736 0
M  V30 10055 H 948.968 2.94318 0.466986 0
M  V30 10056 H 946.505 1.45462 0.218886 0
M  V30 10057 H 948.463 2.95312 2.94697 0
M  V30 10058 H 947.093 1.85303 2.64316 0
M  V30 10059 H 946.145 3.6607 1.03427 0
M  V30 10060 H 947.457 4.7358 1.56601 0
M  V30 10061 H 946.611 4.63108 3.91939 0
M  V30 10062 H 945.35 3.46247 3.43459 0
M  V30 10063 H 944.355 5.16589 1.88192 0
M  V30 10064 H 945.58 6.35482 2.39455 0
M  V30 10065 H 943.526 5.03273 4.20775 0
M  V30 10066 H 943.443 6.65129 3.5936 0
M  V30 10067 H 944.711 6.21793 4.701 0
M  V30 10068 N 948.94 -0.228186 1.55939 0
M  V30 10069 C 950.17 -0.969211 1.82455 0
M  V30 10070 C 950.578 -1.78714 0.621133 0
M  V30 10071 O 949.921 -1.78841 -0.419694 0
M  V30 10072 C 949.983 -1.94088 3.02605 0
M  V30 10073 C 949.647 -1.30811 4.37878 0
M  V30 10074 C 950.644 -0.701275 5.15149 0
M  V30 10075 C 948.329 -1.32187 4.84595 0
M  V30 10076 C 950.323 -0.116631 6.37293 0
M  V30 10077 C 948.01 -0.733375 6.06683 0
M  V30 10078 C 949.008 -0.131804 6.82873 0
M  V30 10079 O 948.696 0.447549 8.02653 0
M  V30 10080 H 948.428 -0.289951 0.610659 0
M  V30 10081 H 950.982 -0.250576 2.03866 0
M  V30 10082 H 949.212 -2.69833 2.76996 0
M  V30 10083 H 950.901 -2.5469 3.1605 0
M  V30 10084 H 951.667 -0.683022 4.80166 0
M  V30 10085 H 947.546 -1.77949 4.25271 0
M  V30 10086 H 951.09 0.353539 6.96704 0
M  V30 10087 H 946.987 -0.749019 6.4114 0
M  V30 10088 H 947.755 0.341224 8.17788 0
M  V30 10089 N 950.418 -1.49637 -0.494624 0
M  V30 10090 C 951.829 -1.52573 -1.07603 0
M  V30 10091 C 952.18 -0.315591 -1.93645 0
M  V30 10092 O 951.305 0.573966 -2.08649 0
M  V30 10093 C 951.9 -2.7648 -1.95817 0
M  V30 10094 C 950.459 -2.82173 -2.49109 0
M  V30 10095 C 949.606 -2.4657 -1.2688 0
M  V30 10096 H 952.557 -1.56242 -0.278251 0
M  V30 10097 H 952.578 -2.57003 -2.80588 0
M  V30 10098 H 952.09 -3.64538 -1.33167 0
M  V30 10099 H 950.191 -1.9841 -3.15379 0
M  V30 10100 H 950.304 -3.84501 -2.85825 0
M  V30 10101 H 948.668 -1.98489 -1.59607 0
M  V30 10102 H 949.451 -3.3691 -0.659281 0
M  V30 10103 N 951.896 0.746133 -1.38819 0
M  V30 10104 C 953.312 1.0502 -1.20179 0
M  V30 10105 C 953.512 2.01423 -0.0556271 0
M  V30 10106 O 952.568 2.45359 0.59625 0
M  V30 10107 C 953.881 1.62315 -2.53129 0
M  V30 10108 C 955.429 1.74449 -2.59878 0
M  V30 10109 C 955.904 2.35155 -3.93022 0
M  V30 10110 N 957.395 2.42577 -3.94602 0
M  V30 10111 C 958.13 2.9046 -4.94389 0
M  V30 10112 N 957.626 3.38322 -6.04574 0
M  V30 10113 N 959.419 2.89568 -4.81775 0
M  V30 10114 H 951.57 0.106551 -2.12133 0
M  V30 10115 H 953.833 0.109897 -0.941609 0
M  V30 10116 H 953.539 0.98946 -3.37495 0
M  V30 10117 H 953.413 2.61276 -2.72057 0
M  V30 10118 H 955.8 2.36943 -1.75903 0
M  V30 10119 H 955.881 0.741721 -2.4481 0
M  V30 10120 H 955.525 1.73292 -4.77422 0
M  V30 10121 H 955.455 3.36088 -4.05404 0
M  V30 10122 H 957.946 2.08735 -3.15021 0
M  V30 10123 H 958.259 3.73336 -6.76639 0
M  V30 10124 H 956.604 3.3636 -6.08184 0
M  V30 10125 H 959.795 2.51492 -3.94803 0
M  V30 10126 H 959.968 3.26571 -5.59692 0
M  V30 10127 N 953.375 1.23811 0.975125 0
M  V30 10128 C 954.615 1.08517 1.73215 0
M  V30 10129 C 954.979 -0.370777 1.88386 0
M  V30 10130 O 956.18 -0.645036 2.60946 0
M  V30 10131 C 954.451 1.79649 3.08968 0
M  V30 10132 S 956.01 1.79993 4.00185 0
M  V30 10133 H 952.828 0.388256 0.595633 0
M  V30 10134 H 955.43 1.57028 1.16458 0
M  V30 10135 H 954.134 2.8471 2.95581 0
M  V30 10136 H 953.665 1.31441 3.70792 0
M  V30 10137 H 955.68 0.862294 4.8865 0
M  V30 10138 N 954.853 -1.17469 1.05066 0
M  V30 10139 C 956.102 -1.87032 0.755114 0
M  V30 10140 C 956.415 -1.81844 -0.720572 0
M  V30 10141 O 957.621 -2.46866 -1.13002 0
M  V30 10142 C 956.077 -3.35581 1.30052 0
M  V30 10143 C 955.685 -3.49274 2.80556 0
M  V30 10144 C 957.429 -4.1048 1.08196 0
M  V30 10145 C 955.336 -4.91838 3.28404 0
M  V30 10146 H 954.266 -0.70057 0.278779 0
M  V30 10147 H 956.917 -1.32663 1.26779 0
M  V30 10148 H 955.299 -3.89479 0.715667 0
M  V30 10149 H 956.473 -3.05598 3.44886 0
M  V30 10150 H 954.788 -2.87793 3.00939 0
M  V30 10151 H 957.385 -5.15652 1.41447 0
M  V30 10152 H 957.728 -4.16295 0.0196603 0
M  V30 10153 H 958.261 -3.62784 1.63195 0
M  V30 10154 H 955 -4.91196 4.34058 0
M  V30 10155 H 954.52 -5.36189 2.68815 0
M  V30 10156 H 956.199 -5.60602 3.23009 0
M  V30 10157 N 956.331 -0.831506 -1.3388 0
M  V30 10158 C 957.742 -0.481375 -1.80388 0
M  V30 10159 C 958.093 0.998993 -1.68863 0
M  V30 10160 O 957.218 1.77795 -1.2336 0
M  V30 10161 C 957.813 -0.86699 -3.27519 0
M  V30 10162 C 956.372 -0.569105 -3.72073 0
M  V30 10163 C 955.519 -1.07929 -2.55434 0
M  V30 10164 H 958.47 -1.02089 -1.21505 0
M  V30 10165 H 958.491 -0.174128 -3.80101 0
M  V30 10166 H 958.003 -1.94447 -3.35875 0
M  V30 10167 H 956.104 0.498607 -3.69249 0
M  V30 10168 H 956.217 -1.11918 -4.65845 0
M  V30 10169 H 954.581 -0.500465 -2.49735 0
M  V30 10170 H 955.364 -2.16339 -2.66556 0
M  V30 10171 N 957.809 1.4625 -0.587256 0
M  V30 10172 C 959.225 1.57641 -0.249284 0
M  V30 10173 C 959.425 1.58169 1.24839 0
M  V30 10174 O 958.481 1.50109 2.03036 0
M  V30 10175 C 959.794 2.86837 -0.902509 0
M  V30 10176 C 961.342 3.00476 -0.876524 0
M  V30 10177 C 961.817 4.32414 -1.50938 0
M  V30 10178 N 963.308 4.39124 -1.47392 0
M  V30 10179 C 964.043 5.39838 -1.93293 0
M  V30 10180 N 963.539 6.47202 -2.47188 0
M  V30 10181 N 965.332 5.31068 -1.84183 0
M  V30 10182 H 957.483 1.44151 -1.55994 0
M  V30 10183 H 959.746 0.687905 -0.652297 0
M  V30 10184 H 959.452 2.92274 -1.95624 0
M  V30 10185 H 959.326 3.74927 -0.413466 0
M  V30 10186 H 961.713 2.94618 0.168601 0
M  V30 10187 H 961.794 2.1385 -1.40363 0
M  V30 10188 H 961.438 4.3903 -2.55372 0
M  V30 10189 H 961.368 5.17823 -0.957455 0
M  V30 10190 H 963.859 3.62138 -1.08002 0
M  V30 10191 H 964.172 7.20269 -2.80058 0
M  V30 10192 H 962.517 6.48009 -2.51216 0
M  V30 10193 H 965.708 4.46095 -1.41833 0
M  V30 10194 H 965.881 6.09414 -2.2027 0
M  V30 10195 N 959.287 0.325282 1.54207 0
M  V30 10196 C 960.219 -0.57395 2.21897 0
M  V30 10197 C 961.232 -1.0785 1.21952 0
M  V30 10198 O 962.421 -0.991782 1.48411 0
M  V30 10199 C 959.521 -1.8005 2.87115 0
M  V30 10200 C 958.694 -1.43435 4.13213 0
M  V30 10201 C 957.753 -2.51862 4.62009 0
M  V30 10202 O 956.779 -2.15934 5.26651 0
M  V30 10203 N 957.981 -3.8282 4.36382 0
M  V30 10204 H 960.746 0.00566918 2.99699 0
M  V30 10205 H 958.307 0.148563 1.61217 0
M  V30 10206 H 960.299 -2.51981 3.16682 0
M  V30 10207 H 958.869 -2.28792 2.13009 0
M  V30 10208 H 958.089 -0.546598 3.90392 0
M  V30 10209 H 959.377 -1.16544 4.95273 0
M  V30 10210 H 958.775 -4.14807 3.84645 0
M  V30 10211 H 957.332 -4.50976 4.70599 0
M  V30 10212 N 960.765 -1.57509 0.0534917 0
M  V30 10213 C 961.99 -1.97511 -0.632794 0
M  V30 10214 C 962.415 -0.930947 -1.63447 0
M  V30 10215 O 961.773 0.105558 -1.80992 0
M  V30 10216 C 961.821 -3.3658 -1.29407 0
M  V30 10217 O 960.925 -3.3467 -2.40977 0
M  V30 10218 H 960.266 -0.643349 -0.16431 0
M  V30 10219 H 962.796 -2.04232 0.12258 0
M  V30 10220 H 962.806 -3.73359 -1.64521 0
M  V30 10221 H 961.481 -4.12113 -0.559976 0
M  V30 10222 H 960.058 -3.09639 -2.07793 0
M  V30 10223 N 962.243 0.219913 -1.56058 0
M  V30 10224 C 963.471 0.960915 -1.83232 0
M  V30 10225 C 963.886 1.77878 -0.632828 0
M  V30 10226 O 963.243 1.78093 0.398624 0
M  V30 10227 C 963.294 1.87716 -3.08942 0
M  V30 10228 O 963.015 1.09235 -4.24263 0
M  V30 10229 C 964.516 2.73192 -3.49115 0
M  V30 10230 H 961.736 0.281546 -0.609075 0
M  V30 10231 H 964.28 0.234648 -2.03149 0
M  V30 10232 H 962.435 2.55736 -2.90995 0
M  V30 10233 H 962.849 1.71446 -4.95688 0
M  V30 10234 H 964.323 3.33181 -4.40107 0
M  V30 10235 H 964.8 3.45668 -2.70943 0
M  V30 10236 H 965.406 2.10583 -3.69506 0
M  V30 10237 N 963.721 1.49897 0.486681 0
M  V30 10238 C 964.651 1.7054 1.59494 0
M  V30 10239 C 965.632 0.554184 1.60819 0
M  V30 10240 O 966.817 0.791617 1.77333 0
M  V30 10241 C 963.947 1.78517 2.97908 0
M  V30 10242 C 962.901 2.93571 3.11449 0
M  V30 10243 C 962.227 2.86674 4.51356 0
M  V30 10244 C 963.527 4.34308 2.90127 0
M  V30 10245 H 965.221 2.63329 1.42472 0
M  V30 10246 H 962.767 1.2672 0.683969 0
M  V30 10247 H 964.72 1.91544 3.75352 0
M  V30 10248 H 963.444 0.823381 3.16051 0
M  V30 10249 H 962.103 2.80169 2.36433 0
M  V30 10250 H 961.751 1.88373 4.66395 0
M  V30 10251 H 961.451 3.63903 4.61355 0
M  V30 10252 H 962.975 3.01728 5.30841 0
M  V30 10253 H 964.389 4.48317 3.57331 0
M  V30 10254 H 962.786 5.12869 3.11585 0
M  V30 10255 H 963.856 4.47759 1.86119 0
M  V30 10256 N 965.199 -0.738761 1.39212 0
M  V30 10257 C 966.424 -1.5331 1.39681 0
M  V30 10258 C 966.849 -1.88098 -0.00768715 0
M  V30 10259 O 966.207 -1.51642 -0.993699 0
M  V30 10260 C 966.255 -2.79958 2.27279 0
M  V30 10261 O 965.359 -3.75727 1.70008 0
M  V30 10262 H 964.7 -0.463131 0.475821 0
M  V30 10263 H 967.23 -0.911768 1.83161 0
M  V30 10264 H 967.24 -3.28732 2.41659 0
M  V30 10265 H 965.915 -2.5397 3.29351 0
M  V30 10266 H 964.492 -3.34483 1.64851 0
M  V30 10267 N 966.677 -1.24326 -0.968545 0
M  V30 10268 C 967.907 -1.10786 -1.74385 0
M  V30 10269 C 968.315 0.342503 -1.86074 0
M  V30 10270 O 967.658 1.24817 -1.34782 0
M  V30 10271 C 967.72 -1.67274 -3.18213 0
M  V30 10272 C 967.384 -3.1615 -3.29998 0
M  V30 10273 C 968.381 -4.13309 -3.15392 0
M  V30 10274 C 966.066 -3.56092 -3.54265 0
M  V30 10275 C 968.06 -5.48392 -3.24878 0
M  V30 10276 C 965.747 -4.91316 -3.63389 0
M  V30 10277 C 966.745 -5.87275 -3.48707 0
M  V30 10278 O 966.433 -7.20041 -3.57485 0
M  V30 10279 H 966.165 -0.387795 -0.553706 0
M  V30 10280 H 968.719 -1.64894 -1.22471 0
M  V30 10281 H 966.949 -1.07598 -3.71429 0
M  V30 10282 H 968.638 -1.49036 -3.77549 0
M  V30 10283 H 969.404 -3.83792 -2.96528 0
M  V30 10284 H 965.283 -2.81907 -3.6476 0
M  V30 10285 H 968.827 -6.23271 -3.13335 0
M  V30 10286 H 964.724 -5.20505 -3.81766 0
M  V30 10287 H 965.492 -7.27951 -3.74205 0
M  V30 10288 N 968.156 1.1691 -1.05688 0
M  V30 10289 C 969.088 2.20648 -0.620237 0
M  V30 10290 C 970.101 1.59652 0.318604 0
M  V30 10291 O 971.29 1.78157 0.110553 0
M  V30 10292 C 968.39 3.38716 0.111729 0
M  V30 10293 C 967.563 4.29277 -0.839062 0
M  V30 10294 C 966.622 5.25993 -0.147453 0
M  V30 10295 O 965.648 5.63787 -0.783151 0
M  V30 10296 N 966.85 5.69725 1.11327 0
M  V30 10297 H 969.615 2.58731 -1.51256 0
M  V30 10298 H 967.176 1.31858 -0.939412 0
M  V30 10299 H 969.168 4.00455 0.584657 0
M  V30 10300 H 967.738 2.99189 0.905784 0
M  V30 10301 H 966.958 3.64894 -1.4915 0
M  V30 10302 H 968.246 4.86669 -1.48428 0
M  V30 10303 H 967.644 5.41103 1.64999 0
M  V30 10304 H 966.201 6.33584 1.53018 0
M  V30 10305 N 969.634 0.838594 1.33437 0
M  V30 10306 C 970.544 0.274048 2.32994 0
M  V30 10307 C 971.56 -0.599776 1.63336 0
M  V30 10308 O 972.736 -0.503963 1.94993 0
M  V30 10309 C 969.801 -0.541804 3.4244 0
M  V30 10310 C 968.862 0.356262 4.27819 0
M  V30 10311 C 968.095 -0.420747 5.32039 0
M  V30 10312 O 968.318 -1.65247 5.45939 0
M  V30 10313 O 967.252 0.205101 6.0155 0
M  V30 10314 H 971.078 1.09846 2.83139 0
M  V30 10315 H 968.663 0.601111 1.36774 0
M  V30 10316 H 970.545 -1.00544 4.0923 0
M  V30 10317 H 969.22 -1.34328 2.94513 0
M  V30 10318 H 968.127 0.867726 3.63897 0
M  V30 10319 H 969.46 1.1225 4.79229 0
M  V30 10320 N 971.112 -1.45937 0.595003 0
M  V30 10321 C 972.523 -1.85908 0.171779 0
M  V30 10322 C 972.874 -1.497 -1.26824 0
M  V30 10323 O 971.999 -0.917688 -1.95978 0
M  V30 10324 C 972.594 -3.37425 0.304976 0
M  V30 10325 C 971.153 -3.76346 -0.0634635 0
M  V30 10326 C 970.3 -2.69926 0.635255 0
M  V30 10327 H 973.251 -1.36916 0.802471 0
M  V30 10328 H 973.272 -3.77632 -0.466313 0
M  V30 10329 H 972.784 -3.63747 1.35314 0
M  V30 10330 H 970.885 -3.55642 -1.11129 0
M  V30 10331 H 970.998 -4.78021 0.321419 0
M  V30 10332 H 969.362 -2.54592 0.0742054 0
M  V30 10333 H 970.145 -2.99086 1.68531 0
M  V30 10334 N 972.59 -0.333456 -1.54032 0
M  V30 10335 C 973.52 0.52051 -2.27625 0
M  V30 10336 C 974.501 1.1111 -1.28797 0
M  V30 10337 O 975.686 1.13438 -1.57625 0
M  V30 10338 C 972.816 1.67663 -3.04149 0
M  V30 10339 C 971.77 1.21487 -4.10396 0
M  V30 10340 C 971.096 2.45872 -4.74817 0
M  V30 10341 C 972.396 0.322603 -5.21303 0
M  V30 10342 H 974.09 -0.0933823 -2.99254 0
M  V30 10343 H 971.636 -0.0463526 -1.43925 0
M  V30 10344 H 973.589 2.28041 -3.54366 0
M  V30 10345 H 972.313 2.31727 -2.30153 0
M  V30 10346 H 970.972 0.633966 -3.61077 0
M  V30 10347 H 970.62 3.0832 -3.97426 0
M  V30 10348 H 970.32 2.15662 -5.46593 0
M  V30 10349 H 971.844 3.06994 -5.27814 0
M  V30 10350 H 973.258 0.832942 -5.67217 0
M  V30 10351 H 971.655 0.112843 -5.99994 0
M  V30 10352 H 972.725 -0.643954 -4.80605 0
M  V30 10353 N 974.068 1.57479 -0.061844 0
M  V30 10354 C 975.484 1.56855 0.294753 0
M  V30 10355 C 975.684 1.07042 1.70717 0
M  V30 10356 O 974.74 0.731817 2.41662 0
M  V30 10357 C 976.053 3.00486 0.113484 0
M  V30 10358 C 977.601 3.1246 0.183778 0
M  V30 10359 C 978.076 4.5799 0.0309092 0
M  V30 10360 N 979.567 4.63119 0.0868393 0
M  V30 10361 C 980.302 5.734 -0.00717446 0
M  V30 10362 N 979.798 6.92628 -0.154144 0
M  V30 10363 N 981.591 5.62078 0.0491763 0
M  V30 10364 H 973.742 1.88176 -0.985058 0
M  V30 10365 H 976.005 0.867051 -0.383309 0
M  V30 10366 H 975.711 3.41004 -0.86075 0
M  V30 10367 H 975.585 3.67029 0.870023 0
M  V30 10368 H 977.972 2.71834 1.14849 0
M  V30 10369 H 978.053 2.48574 -0.603697 0
M  V30 10370 H 977.697 4.99303 -0.930526 0
M  V30 10371 H 977.627 5.19895 0.837664 0
M  V30 10372 H 980.118 3.77374 0.199245 0
M  V30 10373 H 980.431 7.72492 -0.218296 0
M  V30 10374 H 978.776 6.94742 -0.189372 0
M  V30 10375 H 981.967 4.67817 0.162626 0
M  V30 10376 H 982.14 6.47994 -0.0275478 0
M  V30 10377 N 975.546 -0.211634 1.56173 0
M  V30 10378 C 976.774 -0.951184 1.83739 0
M  V30 10379 C 977.189 -1.7754 0.642252 0
M  V30 10380 O 976.546 -1.78302 -0.389174 0
M  V30 10381 C 976.597 -1.86075 3.09933 0
M  V30 10382 O 976.318 -1.06983 4.24837 0
M  V30 10383 C 977.819 -2.71337 3.50559 0
M  V30 10384 H 975.039 -0.278312 0.61056 0
M  V30 10385 H 977.583 -0.223871 2.03271 0
M  V30 10386 H 975.738 -2.54189 2.92347 0
M  V30 10387 H 976.152 -1.68815 4.9659 0
M  V30 10388 H 977.626 -3.30843 4.41868 0
M  V30 10389 H 978.103 -3.44226 2.72773 0
M  V30 10390 H 978.709 -2.0862 3.70618 0
M  V30 10391 O 977.063 -1.57505 -0.357004 0
M  V30 10392 H 977.754 -1.65447 -1.00731 0
M  V30 END ATOM
M  V30 BEGIN BOND
M  V30 END BOND
M  V30 END CTAB
M  END
$$$$
