drugbank_target|P05100 DNA-3-methyladenine glycosylase 1 (DB04104)
 OpenBabel12092119573D

  0  0  0     0  0            999 V3000
M  V30 BEGIN CTAB
M  V30 COUNTS 7547 8093 0 0 0
M  V30 BEGIN ATOM
M  V30 1 H -1.547 9.37743 -1.21644 0
M  V30 2 O -1.44 8.89599 -0.40059 0
M  V30 3 P 0 8.91 0 0
M  V30 4 O 0.22 10.1746 0.733838 0
M  V30 5 O 0.79 8.73346 -1.23964 0
M  V30 6 O 0.25 7.66872 0.971405 0
M  V30 7 C -0.69 7.42405 2.04668 0
M  V30 8 C 0.04 6.86059 3.24661 0
M  V30 9 O 0.25 5.42934 3.03695 0
M  V30 10 C 1.44 7.41287 3.50796 0
M  V30 11 O 1.83 7.27073 4.86816 0
M  V30 12 C 2.32 6.5273 2.63741 0
M  V30 13 C 1.61 5.1842 2.73198 0
M  V30 14 N 1.66 4.38762 1.4784 0
M  V30 15 H -1.178 8.36899 2.3252 0
M  V30 16 H -1.45 6.70391 1.71179 0
M  V30 17 H -0.582 7.03638 4.13219 0
M  V30 18 H 2.073 4.59931 3.54016 0
M  V30 19 H 2.353 6.88995 1.59871 0
M  V30 20 H 3.344 6.4684 3.0373 0
M  V30 21 H 1.51 8.47002 3.20749 0
M  V30 22 P 3.37998 7.20834 5.23717 0
M  V30 23 O 3.59998 7.79853 6.57286 0
M  V30 24 O 4.16998 7.79239 4.12957 0
M  V30 25 O 3.62998 5.63315 5.29344 0
M  V30 26 C 2.68998 4.80255 6.01876 0
M  V30 27 C 3.41998 3.64202 6.65911 0
M  V30 28 O 3.62998 2.60694 5.64732 0
M  V30 29 C 4.81998 3.93473 7.1943 0
M  V30 30 O 5.20998 3.02071 8.21205 0
M  V30 31 C 5.69998 3.73047 5.97036 0
M  V30 32 C 4.98998 2.58828 5.25741 0
M  V30 33 N 5.03998 2.68068 3.77503 0
M  V30 34 H 2.20098 5.40332 6.79951 0
M  V30 35 H 1.93098 4.41613 5.32378 0
M  V30 36 H 2.79798 3.26331 7.47797 0
M  V30 37 P 6.75996 2.75334 8.47391 0
M  V30 38 O 6.97996 2.44571 9.90142 0
M  V30 39 O 7.54996 3.87688 7.92115 0
M  V30 40 O 7.00996 1.4459 7.59357 0
M  V30 41 C 6.06996 0.347608 7.69215 0
M  V30 42 C 6.79996 -0.96767 7.52806 0
M  V30 43 O 7.00996 -1.21036 6.1011 0
M  V30 44 C 8.19996 -1.04544 8.13308 0
M  V30 45 O 8.58996 -2.38311 8.41922 0
M  V30 46 C 9.07996 -0.491279 7.02284 0
M  V30 47 C 8.36996 -0.996264 5.77469 0
M  V30 48 N 8.41996 -0.0501916 4.62973 0
M  V30 49 C 8.33996 1.32786 4.63244 0
M  V30 50 N 8.41996 1.86957 3.44545 0
M  V30 51 C 8.55996 0.780241 2.58481 0
M  V30 52 C 8.68996 0.738536 1.17757 0
M  V30 53 N 8.80996 -0.58337 0.711393 0
M  V30 54 C 8.80996 -1.70816 1.51017 0
M  V30 55 N 8.93996 -2.87826 0.880757 0
M  V30 56 N 8.67996 -1.67126 2.8339 0
M  V30 57 C 8.55996 -0.401421 3.30572 0
M  V30 58 H 5.58096 0.374722 8.67691 0
M  V30 59 H 5.31096 0.443485 6.90277 0
M  V30 60 H 6.17796 -1.75537 7.96793 0
M  V30 61 P 10.1399 -2.75334 8.47391 0
M  V30 62 O 10.3599 -3.84166 9.4489 0
M  V30 63 O 10.9299 -1.51964 8.6881 0
M  V30 64 O 10.3899 -3.29363 6.99321 0
M  V30 65 C 9.44994 -4.24011 6.4274 0
M  V30 66 C 10.1799 -5.20775 5.52155 0
M  V30 67 O 10.3899 -4.56534 4.22446 0
M  V30 68 C 11.5799 -5.62629 5.96531 0
M  V30 69 O 11.9699 -6.87667 5.41053 0
M  V30 70 C 12.4599 -4.52537 5.39283 0
M  V30 71 C 11.7499 -4.20027 4.08623 0
M  V30 72 N 11.7999 -2.7613 3.71522 0
M  V30 73 C 11.9499 -2.43702 2.37085 0
M  V30 74 O 12.0399 -3.3531 1.54039 0
M  V30 75 N 11.9999 -0.951103 2.10621 0
M  V30 76 C 11.8999 -0.165021 2.93537 0
M  V30 77 N 11.9499 1.09723 2.53253 0
M  V30 78 C 11.7499 -0.469576 4.32458 0
M  V30 79 C 11.6999 -1.78658 4.65921 0
M  V30 80 H 8.95994 -4.79645 7.23919 0
M  V30 81 H 8.69094 -3.69802 5.84429 0
M  V30 82 H 9.55794 -6.10431 5.41508 0
M  V30 83 H 12.2129 -4.78733 3.27967 0
M  V30 84 H 12.4919 -3.64957 6.05871 0
M  V30 85 H 13.4839 -4.8868 5.2125 0
M  V30 86 H 11.6499 -5.66726 7.06352 0
M  V30 87 H 11.5779 -2.06987 5.70299 0
M  V30 88 H 11.6799 0.314383 5.07728 0
M  V30 89 H 12.0679 1.31363 1.5319 0
M  V30 90 H 11.8709 1.85978 3.21943 0
M  V30 91 P 13.5199 -7.20834 5.23717 0
M  V30 92 O 13.7399 -8.66104 5.38572 0
M  V30 93 O 14.3099 -6.33544 6.1349 0
M  V30 94 O 13.7699 -6.7751 3.72168 0
M  V30 95 C 12.8299 -7.20825 2.7076 0
M  V30 96 C 13.5599 -7.45864 1.40599 0
M  V30 97 O 13.7699 -6.17651 0.734225 0
M  V30 98 C 14.9599 -8.05808 1.51899 0
M  V30 99 O 15.3499 -8.74358 0.335205 0
M  V30 100 C 15.8399 -6.83093 1.70294 0
M  V30 101 C 15.1299 -5.79992 0.836974 0
M  V30 102 N 15.1799 -4.41864 1.38293 0
M  V30 103 C 15.0999 -3.99538 2.69438 0
M  V30 104 N 15.1799 -2.69909 2.84277 0
M  V30 105 C 15.3199 -2.21719 1.5408 0
M  V30 106 C 15.4499 -0.891712 1.06628 0
M  V30 107 O 15.4699 0.161298 1.70137 0
M  V30 108 N 15.5699 -0.856846 -0.334985 0
M  V30 109 C 15.5699 -1.9641 -1.15789 0
M  V30 110 N 15.6999 -1.72708 -2.46522 0
M  V30 111 N 15.4399 -3.21165 -0.713741 0
M  V30 112 C 15.3199 -3.26797 0.639748 0
M  V30 113 H 12.3409 -8.13644 3.0377 0
M  V30 114 H 12.0709 -6.42788 2.55485 0
M  V30 115 H 12.9379 -8.12039 0.792769 0
M  V30 116 H 15.5929 -5.80061 -0.166416 0
M  V30 117 H 15.8719 -6.51287 2.75604 0
M  V30 118 H 16.8639 -7.01734 1.34462 0
M  V30 119 H 15.0299 -8.73674 2.38337 0
M  V30 120 H 14.9809 -4.68207 3.53221 0
M  V30 121 H 15.6629 0.0398818 -0.767965 0
M  V30 122 H 15.6999 -2.50995 -3.13503 0
M  V30 123 H 15.8009 -0.759148 -2.80716 0
M  V30 124 P 16.8999 -8.91 1.09116e-15 0
M  V30 125 O 17.1199 -10.1746 -0.733838 0
M  V30 126 O 17.6899 -8.73346 1.23964 0
M  V30 127 O 17.1499 -7.66872 -0.971405 0
M  V30 128 C 16.2099 -7.42405 -2.04668 0
M  V30 129 C 16.9399 -6.86059 -3.24661 0
M  V30 130 O 17.1499 -5.42934 -3.03695 0
M  V30 131 C 18.3399 -7.41287 -3.50796 0
M  V30 132 O 18.7299 -7.27073 -4.86816 0
M  V30 133 C 19.2199 -6.5273 -2.63741 0
M  V30 134 C 18.5099 -5.1842 -2.73198 0
M  V30 135 N 18.5599 -4.38762 -1.4784 0
M  V30 136 H 15.7219 -8.36899 -2.3252 0
M  V30 137 H 15.4499 -6.70391 -1.71179 0
M  V30 138 H 16.3179 -7.03638 -4.13219 0
M  V30 139 H 18.9729 -4.59931 -3.54016 0
M  V30 140 H 19.2529 -6.88995 -1.59871 0
M  V30 141 H 20.2439 -6.4684 -3.0373 0
M  V30 142 H 18.4099 -8.47002 -3.20749 0
M  V30 143 P 20.2799 -7.20834 -5.23717 0
M  V30 144 O 20.4999 -7.79853 -6.57286 0
M  V30 145 O 21.0699 -7.79239 -4.12957 0
M  V30 146 O 20.5299 -5.63315 -5.29344 0
M  V30 147 C 19.5899 -4.80255 -6.01876 0
M  V30 148 C 20.3199 -3.64202 -6.65911 0
M  V30 149 O 20.5299 -2.60694 -5.64732 0
M  V30 150 C 21.7199 -3.93473 -7.1943 0
M  V30 151 O 22.1099 -3.02071 -8.21205 0
M  V30 152 C 22.5999 -3.73047 -5.97036 0
M  V30 153 C 21.8899 -2.58828 -5.25741 0
M  V30 154 N 21.9399 -2.68068 -3.77503 0
M  V30 155 H 19.1009 -5.40332 -6.79951 0
M  V30 156 H 18.8309 -4.41613 -5.32378 0
M  V30 157 H 19.6979 -3.26331 -7.47797 0
M  V30 158 P 23.6599 -2.75334 -8.47391 0
M  V30 159 O 23.8799 -2.44571 -9.90142 0
M  V30 160 O 24.4499 -3.87688 -7.92115 0
M  V30 161 O 23.9099 -1.4459 -7.59357 0
M  V30 162 C 22.9699 -0.347608 -7.69215 0
M  V30 163 C 23.6999 0.96767 -7.52806 0
M  V30 164 O 23.9099 1.21036 -6.1011 0
M  V30 165 C 25.0999 1.04544 -8.13308 0
M  V30 166 O 25.4899 2.38311 -8.41922 0
M  V30 167 C 25.9799 0.491279 -7.02284 0
M  V30 168 C 25.2699 0.996264 -5.77469 0
M  V30 169 N 25.3199 0.0501916 -4.62973 0
M  V30 170 H 22.4809 -0.374722 -8.67691 0
M  V30 171 H 22.2109 -0.443485 -6.90277 0
M  V30 172 H 23.0779 1.75537 -7.96793 0
M  V30 173 P 27.0398 2.75334 -8.47391 0
M  V30 174 O 27.2598 3.84128 -9.44797 0
M  V30 175 O 27.8298 1.51947 -8.68712 0
M  V30 176 O 27.2898 3.29363 -6.99321 0
M  V30 177 C 26.3498 4.24011 -6.4274 0
M  V30 178 C 27.0798 5.20775 -5.52155 0
M  V30 179 O 27.2898 4.56534 -4.22446 0
M  V30 180 C 28.4798 5.62629 -5.96531 0
M  V30 181 O 28.8698 6.87667 -5.41053 0
M  V30 182 C 29.3598 4.52537 -5.39283 0
M  V30 183 C 28.6498 4.20027 -4.08623 0
M  V30 184 N 28.6998 2.76189 -3.71603 0
M  V30 185 H 25.8608 4.797 -7.24003 0
M  V30 186 H 25.5908 3.69856 -5.84513 0
M  V30 187 H 26.4578 6.10356 -5.41441 0
M  V30 188 P 30.4198 7.20834 -5.23717 0
M  V30 189 O 30.6398 8.66104 -5.38572 0
M  V30 190 O 31.2098 6.33544 -6.1349 0
M  V30 191 O 30.6698 6.7751 -3.72168 0
M  V30 192 C 29.7298 7.20825 -2.7076 0
M  V30 193 C 30.4598 7.45864 -1.40599 0
M  V30 194 O 30.6698 6.17651 -0.734225 0
M  V30 195 C 31.8598 8.05808 -1.51899 0
M  V30 196 O 32.2498 8.74358 -0.335205 0
M  V30 197 C 32.7398 6.83093 -1.70294 0
M  V30 198 C 32.0298 5.79992 -0.836974 0
M  V30 199 N 32.0798 4.41864 -1.38293 0
M  V30 200 H 29.2408 8.13644 -3.0377 0
M  V30 201 H 28.9708 6.42788 -2.55485 0
M  V30 202 H 29.8378 8.12039 -0.792769 0
M  V30 203 P 33.7998 8.91 -2.18232e-15 0
M  V30 204 O 34.0198 10.1726 0.733694 0
M  V30 205 O 34.5898 8.73148 -1.23936 0
M  V30 206 O 34.0498 7.66872 0.971405 0
M  V30 207 C 33.1098 7.42309 2.04641 0
M  V30 208 C 33.8398 6.86059 3.24661 0
M  V30 209 O 34.0498 5.42847 3.03646 0
M  V30 210 C 35.2398 7.41196 3.50753 0
M  V30 211 O 35.6298 7.27073 4.86816 0
M  V30 212 C 36.1198 6.5273 2.63741 0
M  V30 213 C 35.4098 5.1842 2.73198 0
M  V30 214 N 35.4598 4.38762 1.4784 0
M  V30 215 H 32.6208 8.36803 2.32493 0
M  V30 216 H 32.3508 6.70197 1.71129 0
M  V30 217 H 33.2178 7.03551 4.13168 0
M  V30 218 P 37.1798 7.20834 5.23717 0
M  V30 219 O 37.3998 7.79853 6.57286 0
M  V30 220 O 37.9698 7.79239 4.12957 0
M  V30 221 O 37.4298 5.63315 5.29344 0
M  V30 222 C 36.4898 4.80255 6.01876 0
M  V30 223 C 37.2198 3.64202 6.65911 0
M  V30 224 O 37.4298 2.60694 5.64732 0
M  V30 225 C 38.6198 3.93473 7.1943 0
M  V30 226 O 39.0098 3.02071 8.21205 0
M  V30 227 C 39.4998 3.73047 5.97036 0
M  V30 228 C 38.7898 2.58828 5.25741 0
M  V30 229 N 38.8398 2.68068 3.77503 0
M  V30 230 H 36.0008 5.40332 6.79951 0
M  V30 231 H 35.7308 4.41613 5.32378 0
M  V30 232 H 36.5978 3.26331 7.47797 0
M  V30 233 P 40.5598 2.75334 8.47391 0
M  V30 234 O 40.7798 2.44595 9.90239 0
M  V30 235 O 41.3498 3.87732 7.92204 0
M  V30 236 O 40.8098 1.4459 7.59357 0
M  V30 237 C 39.8698 0.347563 7.69115 0
M  V30 238 C 40.5998 -0.96767 7.52806 0
M  V30 239 O 40.8098 -1.21036 6.1011 0
M  V30 240 C 41.9998 -1.04544 8.13308 0
M  V30 241 O 42.3898 -2.38311 8.41922 0
M  V30 242 C 42.8798 -0.491279 7.02284 0
M  V30 243 C 42.1698 -0.996264 5.77469 0
M  V30 244 N 42.2198 -0.0501808 4.62873 0
M  V30 245 C 42.3698 -0.588177 3.36904 0
M  V30 246 O 42.4598 -1.78598 3.17173 0
M  V30 247 N 42.4098 0.329694 2.33686 0
M  V30 248 C 42.3198 1.6953 2.45079 0
M  V30 249 C 42.1698 2.16933 3.80505 0
M  V30 250 C 42.1198 1.30326 4.83752 0
M  V30 251 H 39.3798 0.374722 8.67691 0
M  V30 252 H 39.1108 0.443421 6.90177 0
M  V30 253 H 39.9778 -1.75537 7.96793 0
M  V30 254 H 42.6328 -1.94496 5.46629 0
M  V30 255 H 42.9118 0.608651 7.04676 0
M  V30 256 H 43.9038 -0.889672 7.08939 0
M  V30 257 H 42.0698 -0.43308 9.04564 0
M  V30 258 H 41.9988 1.68366 5.8516 0
M  V30 259 P 43.9397 -2.75334 8.47391 0
M  V30 260 O 44.1597 -3.84128 9.44797 0
M  V30 261 O 44.7297 -1.51947 8.68712 0
M  V30 262 O 44.1897 -3.29363 6.99321 0
M  V30 263 C 43.2497 -4.24011 6.4274 0
M  V30 264 C 43.9797 -5.20775 5.52155 0
M  V30 265 O 44.1897 -4.56534 4.22446 0
M  V30 266 C 45.3797 -5.62629 5.96531 0
M  V30 267 O 45.7697 -6.87667 5.41053 0
M  V30 268 C 46.2597 -4.52537 5.39283 0
M  V30 269 C 45.5497 -4.20027 4.08623 0
M  V30 270 N 45.5997 -2.76189 3.71603 0
M  V30 271 H 42.7607 -4.797 7.24003 0
M  V30 272 H 42.4907 -3.69856 5.84513 0
M  V30 273 H 43.3577 -6.10356 5.41441 0
M  V30 274 P 47.3197 -7.20834 5.23717 0
M  V30 275 O 47.5397 -8.66274 5.38678 0
M  V30 276 O 48.1097 -6.33687 6.13629 0
M  V30 277 O 47.5697 -6.7751 3.72168 0
M  V30 278 C 46.6297 -7.20919 2.70795 0
M  V30 279 C 47.3597 -7.45864 1.40599 0
M  V30 280 O 47.5697 -6.17751 0.734343 0
M  V30 281 C 48.7597 -8.05906 1.51917 0
M  V30 282 O 49.1497 -8.74358 0.335205 0
M  V30 283 C 49.6397 -6.83093 1.70294 0
M  V30 284 C 48.9297 -5.79992 0.836974 0
M  V30 285 N 48.9797 -4.41864 1.38293 0
M  V30 286 C 48.8997 -4.02089 2.69407 0
M  V30 287 N 48.9697 -2.73403 2.85089 0
M  V30 288 C 49.1197 -2.25086 1.5642 0
M  V30 289 C 49.2497 -0.942887 1.04836 0
M  V30 290 N 49.2597 0.150999 1.80369 0
M  V30 291 N 49.3697 -0.812565 -0.28167 0
M  V30 292 C 49.3597 -1.90572 -1.03784 0
M  V30 293 N 49.2397 -3.167 -0.683905 0
M  V30 294 C 49.1197 -3.26538 0.652815 0
M  V30 295 H 46.1417 -8.13738 3.03804 0
M  V30 296 H 45.8697 -6.42974 2.55559 0
M  V30 297 H 46.7377 -8.12139 0.792866 0
M  V30 298 H 49.3927 -5.80178 -0.160643 0
M  V30 299 H 49.6727 -6.51379 2.75643 0
M  V30 300 H 50.6637 -7.01832 1.3448 0
M  V30 301 H 48.8297 -8.73771 2.38364 0
M  V30 302 H 48.7887 -4.7189 3.52311 0
M  V30 303 H 49.1697 0.0721434 2.82608 0
M  V30 304 H 49.3587 1.0785 1.36544 0
M  V30 305 H 49.4667 -1.73207 -2.10241 0
M  V30 306 P 50.6997 -8.91 3.27348e-15 0
M  V30 307 O 50.9197 -10.1736 -0.733766 0
M  V30 308 O 51.4897 -8.73247 1.2395 0
M  V30 309 O 50.9497 -7.66872 -0.971405 0
M  V30 310 C 50.0097 -7.42212 -2.04614 0
M  V30 311 C 50.7397 -6.86059 -3.24661 0
M  V30 312 O 50.9497 -5.42847 -3.03646 0
M  V30 313 C 52.1397 -7.41196 -3.50753 0
M  V30 314 O 52.5297 -7.27073 -4.86816 0
M  V30 315 C 53.0197 -6.5273 -2.63741 0
M  V30 316 C 52.3097 -5.1842 -2.73198 0
M  V30 317 N 52.3597 -4.38668 -1.47808 0
M  V30 318 C 52.5097 -3.02239 -1.60048 0
M  V30 319 O 52.5997 -2.46459 -2.67869 0
M  V30 320 N 52.5497 -2.32436 -0.408571 0
M  V30 321 C 52.4597 -2.85471 0.854993 0
M  V30 322 C 52.3097 -4.28918 0.887335 0
M  V30 323 C 52.2597 -5.00349 -0.255399 0
M  V30 324 H 49.5197 -8.36803 -2.32493 0
M  V30 325 H 49.2507 -6.701 -1.71105 0
M  V30 326 H 50.1177 -7.03551 -4.13168 0
M  V30 327 H 52.7727 -4.59773 -3.53894 0
M  V30 328 H 53.0517 -6.88995 -1.59871 0
M  V30 329 H 54.0437 -6.46749 -3.03687 0
M  V30 330 H 52.2097 -8.46908 -3.20714 0
M  V30 331 H 52.1387 -6.08548 -0.206986 0
M  V30 332 P 54.0797 -7.20834 -5.23717 0
M  V30 333 O 54.2997 -7.80006 -6.57415 0
M  V30 334 O 54.8697 -7.79416 -4.13051 0
M  V30 335 O 54.3297 -5.63315 -5.29344 0
M  V30 336 C 53.3897 -4.80318 -6.01954 0
M  V30 337 C 54.1197 -3.64202 -6.65911 0
M  V30 338 O 54.3297 -2.60736 -5.64823 0
M  V30 339 C 55.5197 -3.93521 -7.19518 0
M  V30 340 O 55.9097 -3.02071 -8.21205 0
M  V30 341 C 56.3997 -3.73047 -5.97036 0
M  V30 342 C 55.6897 -2.58828 -5.25741 0
M  V30 343 N 55.7397 -2.68068 -3.77503 0
M  V30 344 H 52.9017 -5.40394 -6.8003 0
M  V30 345 H 52.6297 -4.41741 -5.32532 0
M  V30 346 H 53.4977 -3.26371 -7.47889 0
M  V30 347 H 56.1527 -1.64007 -5.56746 0
M  V30 348 H 56.4327 -4.63439 -5.3432 0
M  V30 349 H 57.4237 -3.44776 -6.25925 0
M  V30 350 H 55.5897 -4.96707 -7.57347 0
M  V30 351 P 57.4597 -2.75334 -8.47391 0
M  V30 352 O 57.6797 -2.44571 -9.90142 0
M  V30 353 O 58.2497 -3.87688 -7.92115 0
M  V30 354 O 57.7097 -1.4459 -7.59357 0
M  V30 355 C 56.7697 -0.347608 -7.69215 0
M  V30 356 C 57.4997 0.96767 -7.52806 0
M  V30 357 O 57.7097 1.21036 -6.1011 0
M  V30 358 C 58.8997 1.04544 -8.13308 0
M  V30 359 O 59.2897 2.38311 -8.41922 0
M  V30 360 C 59.7797 0.491279 -7.02284 0
M  V30 361 C 59.0697 0.996264 -5.77469 0
M  V30 362 N 59.1197 0.0501916 -4.62973 0
M  V30 363 H 56.2807 -0.374722 -8.67691 0
M  V30 364 H 56.0107 -0.443485 -6.90277 0
M  V30 365 H 56.8777 1.75537 -7.96793 0
M  V30 366 P 60.8396 2.75334 -8.47391 0
M  V30 367 O 61.0596 3.84128 -9.44797 0
M  V30 368 O 61.6296 1.51947 -8.68712 0
M  V30 369 O 61.0896 3.29363 -6.99321 0
M  V30 370 C 60.1496 4.24011 -6.4274 0
M  V30 371 C 60.8796 5.20775 -5.52155 0
M  V30 372 O 61.0896 4.56534 -4.22446 0
M  V30 373 C 62.2796 5.62629 -5.96531 0
M  V30 374 O 62.6696 6.87667 -5.41053 0
M  V30 375 C 63.1596 4.52537 -5.39283 0
M  V30 376 C 62.4496 4.20027 -4.08623 0
M  V30 377 N 62.4996 2.76189 -3.71603 0
M  V30 378 H 59.6606 4.797 -7.24003 0
M  V30 379 H 59.3906 3.69856 -5.84513 0
M  V30 380 H 60.2576 6.10356 -5.41441 0
M  V30 381 P 64.2196 7.20834 -5.23717 0
M  V30 382 O 64.4396 8.66104 -5.38572 0
M  V30 383 O 65.0096 6.33544 -6.1349 0
M  V30 384 O 64.4696 6.7751 -3.72168 0
M  V30 385 C 63.5296 7.20825 -2.7076 0
M  V30 386 C 64.2596 7.45864 -1.40599 0
M  V30 387 O 64.4696 6.17651 -0.734225 0
M  V30 388 C 65.6596 8.05808 -1.51899 0
M  V30 389 O 66.0496 8.74358 -0.335205 0
M  V30 390 C 66.5396 6.83093 -1.70294 0
M  V30 391 C 65.8296 5.79992 -0.836974 0
M  V30 392 N 65.8796 4.41864 -1.38293 0
M  V30 393 H 63.0406 8.13644 -3.0377 0
M  V30 394 H 62.7706 6.42788 -2.55485 0
M  V30 395 H 63.6376 8.12039 -0.792769 0
M  V30 396 P 67.5996 8.91 -4.36464e-15 0
M  V30 397 O 67.8196 10.1746 0.733838 0
M  V30 398 O 68.3896 8.73346 -1.23964 0
M  V30 399 O 67.8496 7.66872 0.971405 0
M  V30 400 C 66.9096 7.42405 2.04668 0
M  V30 401 C 67.6396 6.86059 3.24661 0
M  V30 402 O 67.8496 5.42934 3.03695 0
M  V30 403 C 69.0396 7.41287 3.50796 0
M  V30 404 O 69.4296 7.27073 4.86816 0
M  V30 405 C 69.9196 6.5273 2.63741 0
M  V30 406 C 69.2096 5.1842 2.73198 0
M  V30 407 N 69.2596 4.38762 1.4784 0
M  V30 408 H 66.4216 8.36899 2.3252 0
M  V30 409 H 66.1496 6.70391 1.71179 0
M  V30 410 H 67.0176 7.03638 4.13219 0
M  V30 411 H 69.6726 4.59931 3.54016 0
M  V30 412 H 69.9526 6.88995 1.59871 0
M  V30 413 H 70.9436 6.4684 3.0373 0
M  V30 414 H 69.1096 8.47002 3.20749 0
M  V30 415 P 70.9796 7.20834 5.23717 0
M  V30 416 O 71.1996 7.79853 6.57286 0
M  V30 417 O 71.7696 7.79239 4.12957 0
M  V30 418 O 71.2296 5.63315 5.29344 0
M  V30 419 C 70.2896 4.80255 6.01876 0
M  V30 420 C 71.0196 3.64202 6.65911 0
M  V30 421 O 71.2296 2.60694 5.64732 0
M  V30 422 C 72.4196 3.93473 7.1943 0
M  V30 423 O 72.8096 3.02071 8.21205 0
M  V30 424 C 73.2996 3.73047 5.97036 0
M  V30 425 C 72.5896 2.58828 5.25741 0
M  V30 426 N 72.6396 2.68068 3.77503 0
M  V30 427 C 72.5596 3.79715 2.96723 0
M  V30 428 N 72.6396 3.5377 1.68852 0
M  V30 429 C 72.7796 2.15054 1.63254 0
M  V30 430 C 72.9096 1.28964 0.518571 0
M  V30 431 O 72.9296 1.56826 -0.679156 0
M  V30 432 N 73.0296 -0.0538097 0.918425 0
M  V30 433 C 73.0296 -0.494275 2.22578 0
M  V30 434 N 73.1596 -1.81086 2.40434 0
M  V30 435 N 72.8996 0.313645 3.27502 0
M  V30 436 C 72.7796 1.61829 2.91033 0
M  V30 437 H 69.8006 5.40332 6.79951 0
M  V30 438 H 69.5306 4.41613 5.32378 0
M  V30 439 H 70.3976 3.26331 7.47797 0
M  V30 440 H 73.0526 1.63422 5.56814 0
M  V30 441 H 73.3316 4.63374 5.34244 0
M  V30 442 H 74.3236 3.44728 6.25838 0
M  V30 443 H 72.4896 4.96652 7.57263 0
M  V30 444 H 72.4406 4.80617 3.3614 0
M  V30 445 H 73.1226 -0.742702 0.199384 0
M  V30 446 H 73.1596 -2.20598 3.35588 0
M  V30 447 H 73.2606 -2.43518 1.58945 0
M  V30 448 P 74.3596 2.75334 8.47391 0
M  V30 449 O 74.5796 2.44571 9.90142 0
M  V30 450 O 75.1496 3.87688 7.92115 0
M  V30 451 O 74.6096 1.4459 7.59357 0
M  V30 452 C 73.6696 0.347608 7.69215 0
M  V30 453 C 74.3996 -0.96767 7.52806 0
M  V30 454 O 74.6096 -1.21036 6.1011 0
M  V30 455 C 75.7996 -1.04544 8.13308 0
M  V30 456 O 76.1896 -2.38311 8.41922 0
M  V30 457 C 76.6796 -0.491279 7.02284 0
M  V30 458 C 75.9696 -0.996264 5.77469 0
M  V30 459 N 76.0196 -0.0501916 4.62973 0
M  V30 460 H 73.1806 0.374722 8.67691 0
M  V30 461 H 72.9106 0.443485 6.90277 0
M  V30 462 H 73.7776 -1.75537 7.96793 0
M  V30 463 P 77.7395 -2.75334 8.47391 0
M  V30 464 O 77.9595 -3.84128 9.44797 0
M  V30 465 O 78.5295 -1.51947 8.68712 0
M  V30 466 O 77.9895 -3.29363 6.99321 0
M  V30 467 C 77.0495 -4.24011 6.4274 0
M  V30 468 C 77.7795 -5.20775 5.52155 0
M  V30 469 O 77.9895 -4.56534 4.22446 0
M  V30 470 C 79.1795 -5.62629 5.96531 0
M  V30 471 O 79.5695 -6.87667 5.41053 0
M  V30 472 C 80.0595 -4.52537 5.39283 0
M  V30 473 C 79.3495 -4.20027 4.08623 0
M  V30 474 N 79.3995 -2.76189 3.71603 0
M  V30 475 H 76.5605 -4.797 7.24003 0
M  V30 476 H 76.2905 -3.69856 5.84513 0
M  V30 477 H 77.1575 -6.10356 5.41441 0
M  V30 478 P 81.1195 -7.20834 5.23717 0
M  V30 479 O 81.3395 -8.66104 5.38572 0
M  V30 480 O 81.9095 -6.33544 6.1349 0
M  V30 481 O 81.3695 -6.7751 3.72168 0
M  V30 482 C 80.4295 -7.20825 2.7076 0
M  V30 483 C 81.1595 -7.45864 1.40599 0
M  V30 484 O 81.3695 -6.17651 0.734225 0
M  V30 485 C 82.5595 -8.05808 1.51899 0
M  V30 486 O 82.9495 -8.74358 0.335205 0
M  V30 487 C 83.4395 -6.83093 1.70294 0
M  V30 488 C 82.7295 -5.79992 0.836974 0
M  V30 489 N 82.7795 -4.41864 1.38293 0
M  V30 490 H 79.9405 -8.13644 3.0377 0
M  V30 491 H 79.6705 -6.42788 2.55485 0
M  V30 492 H 80.5375 -8.12039 0.792769 0
M  V30 493 P 84.4995 -8.91 5.4558e-15 0
M  V30 494 O 84.7195 -10.1736 -0.733766 0
M  V30 495 O 85.2895 -8.73247 1.2395 0
M  V30 496 O 84.7495 -7.66872 -0.971405 0
M  V30 497 C 83.8095 -7.42212 -2.04614 0
M  V30 498 C 84.5395 -6.86059 -3.24661 0
M  V30 499 O 84.7495 -5.42847 -3.03646 0
M  V30 500 C 85.9395 -7.41196 -3.50753 0
M  V30 501 O 86.3295 -7.27073 -4.86816 0
M  V30 502 C 86.8195 -6.5273 -2.63741 0
M  V30 503 C 86.1095 -5.1842 -2.73198 0
M  V30 504 N 86.1595 -4.38668 -1.47808 0
M  V30 505 C 86.3095 -3.02239 -1.60048 0
M  V30 506 O 86.3995 -2.46459 -2.67869 0
M  V30 507 N 86.3495 -2.32436 -0.408571 0
M  V30 508 C 86.2595 -2.85471 0.854993 0
M  V30 509 O 86.3095 -2.12566 1.8531 0
M  V30 510 C 86.1095 -4.28918 0.887335 0
M  V30 511 C 85.9995 -4.91066 2.24619 0
M  V30 512 C 86.0595 -5.00349 -0.255399 0
M  V30 513 H 83.3195 -8.36803 -2.32493 0
M  V30 514 H 83.0505 -6.701 -1.71105 0
M  V30 515 H 83.9175 -7.03551 -4.13168 0
M  V30 516 H 86.5725 -4.59773 -3.53894 0
M  V30 517 H 86.8515 -6.88995 -1.59871 0
M  V30 518 H 87.8435 -6.46749 -3.03687 0
M  V30 519 H 86.0095 -8.46908 -3.20714 0
M  V30 520 H 85.9385 -6.08548 -0.206986 0
M  V30 521 H 86.9685 -5.34836 2.53099 0
M  V30 522 H 85.2315 -5.69638 2.2291 0
M  V30 523 H 85.7195 -4.13971 2.98044 0
M  V30 524 H 86.4555 -1.33211 -0.474216 0
M  V30 525 P 87.8795 -7.20834 -5.23717 0
M  V30 526 O 88.0995 -7.79853 -6.57286 0
M  V30 527 O 88.6695 -7.79239 -4.12957 0
M  V30 528 O 88.1295 -5.63315 -5.29344 0
M  V30 529 C 87.1895 -4.80255 -6.01876 0
M  V30 530 C 87.9195 -3.64202 -6.65911 0
M  V30 531 O 88.1295 -2.60694 -5.64732 0
M  V30 532 C 89.3195 -3.93473 -7.1943 0
M  V30 533 O 89.7095 -3.02071 -8.21205 0
M  V30 534 C 90.1995 -3.73047 -5.97036 0
M  V30 535 C 89.4895 -2.58828 -5.25741 0
M  V30 536 N 89.5395 -2.68068 -3.77503 0
M  V30 537 H 86.7005 -5.40332 -6.79951 0
M  V30 538 H 86.4305 -4.41613 -5.32378 0
M  V30 539 H 87.2975 -3.26331 -7.47797 0
M  V30 540 P 91.2595 -2.75334 -8.47391 0
M  V30 541 O 91.4795 -2.44571 -9.90142 0
M  V30 542 O 92.0495 -3.87688 -7.92115 0
M  V30 543 O 91.5095 -1.4459 -7.59357 0
M  V30 544 C 90.5695 -0.347608 -7.69215 0
M  V30 545 C 91.2995 0.96767 -7.52806 0
M  V30 546 O 91.5095 1.21036 -6.1011 0
M  V30 547 C 92.6995 1.04544 -8.13308 0
M  V30 548 O 93.0895 2.38311 -8.41922 0
M  V30 549 C 93.5795 0.491279 -7.02284 0
M  V30 550 C 92.8695 0.996264 -5.77469 0
M  V30 551 N 92.9195 0.0501916 -4.62973 0
M  V30 552 H 90.0805 -0.374722 -8.67691 0
M  V30 553 H 89.8105 -0.443485 -6.90277 0
M  V30 554 H 90.6775 1.75537 -7.96793 0
M  V30 555 P 94.6394 2.75334 -8.47391 0
M  V30 556 O 94.8594 3.84128 -9.44797 0
M  V30 557 O 95.4294 1.51947 -8.68712 0
M  V30 558 O 94.8894 3.29363 -6.99321 0
M  V30 559 C 93.9494 4.24011 -6.4274 0
M  V30 560 C 94.6794 5.20775 -5.52155 0
M  V30 561 O 94.8894 4.56534 -4.22446 0
M  V30 562 C 96.0794 5.62629 -5.96531 0
M  V30 563 O 96.4694 6.87667 -5.41053 0
M  V30 564 C 96.9594 4.52537 -5.39283 0
M  V30 565 C 96.2494 4.20027 -4.08623 0
M  V30 566 N 96.2994 2.76189 -3.71603 0
M  V30 567 H 93.4604 4.797 -7.24003 0
M  V30 568 H 93.1904 3.69856 -5.84513 0
M  V30 569 H 94.0574 6.10356 -5.41441 0
M  V30 570 P 98.0194 7.20834 -5.23717 0
M  V30 571 O 98.2394 8.66104 -5.38572 0
M  V30 572 O 98.8094 6.33544 -6.1349 0
M  V30 573 O 98.2694 6.7751 -3.72168 0
M  V30 574 C 97.3294 7.20825 -2.7076 0
M  V30 575 C 98.0594 7.45864 -1.40599 0
M  V30 576 O 98.2694 6.17651 -0.734225 0
M  V30 577 C 99.4594 8.05808 -1.51899 0
M  V30 578 O 99.8494 8.74358 -0.335205 0
M  V30 579 C 100.339 6.83093 -1.70294 0
M  V30 580 C 99.6294 5.79992 -0.836974 0
M  V30 581 N 99.6794 4.41864 -1.38293 0
M  V30 582 H 96.8404 8.13644 -3.0377 0
M  V30 583 H 96.5704 6.42788 -2.55485 0
M  V30 584 H 97.4374 8.12039 -0.792769 0
M  V30 585 P 101.399 8.91 -6.54696e-15 0
M  V30 586 O 101.619 10.1726 0.733694 0
M  V30 587 O 102.189 8.73148 -1.23936 0
M  V30 588 O 101.649 7.66872 0.971405 0
M  V30 589 C 100.709 7.42309 2.04641 0
M  V30 590 C 101.439 6.86059 3.24661 0
M  V30 591 O 101.649 5.42847 3.03646 0
M  V30 592 C 102.839 7.41196 3.50753 0
M  V30 593 O 103.229 7.27073 4.86816 0
M  V30 594 C 103.719 6.5273 2.63741 0
M  V30 595 C 103.009 5.1842 2.73198 0
M  V30 596 N 103.059 4.38762 1.4784 0
M  V30 597 H 100.22 8.36803 2.32493 0
M  V30 598 H 99.9504 6.70197 1.71129 0
M  V30 599 H 100.817 7.03551 4.13168 0
M  V30 600 P 104.779 7.20834 5.23717 0
M  V30 601 O 104.999 7.79853 6.57286 0
M  V30 602 O 105.569 7.79239 4.12957 0
M  V30 603 O 105.029 5.63315 5.29344 0
M  V30 604 C 104.089 4.80255 6.01876 0
M  V30 605 C 104.819 3.64202 6.65911 0
M  V30 606 O 105.029 2.60694 5.64732 0
M  V30 607 C 106.219 3.93473 7.1943 0
M  V30 608 O 106.609 3.02071 8.21205 0
M  V30 609 C 107.099 3.73047 5.97036 0
M  V30 610 C 106.389 2.58828 5.25741 0
M  V30 611 N 106.439 2.68068 3.77503 0
M  V30 612 H 103.6 5.40332 6.79951 0
M  V30 613 H 103.33 4.41613 5.32378 0
M  V30 614 H 104.197 3.26331 7.47797 0
M  V30 615 P 108.159 2.75334 8.47391 0
M  V30 616 O 108.379 2.44571 9.90142 0
M  V30 617 O 108.949 3.87688 7.92115 0
M  V30 618 O 108.409 1.4459 7.59357 0
M  V30 619 C 107.469 0.347608 7.69215 0
M  V30 620 C 108.199 -0.96767 7.52806 0
M  V30 621 O 108.409 -1.21036 6.1011 0
M  V30 622 C 109.599 -1.04544 8.13308 0
M  V30 623 O 109.989 -2.38311 8.41922 0
M  V30 624 C 110.479 -0.491279 7.02284 0
M  V30 625 C 109.769 -0.996264 5.77469 0
M  V30 626 N 109.819 -0.0501916 4.62973 0
M  V30 627 H 106.98 0.374722 8.67691 0
M  V30 628 H 106.71 0.443485 6.90277 0
M  V30 629 H 107.577 -1.75537 7.96793 0
M  V30 630 P 111.539 -2.75334 8.47391 0
M  V30 631 O 111.759 -3.84204 9.44982 0
M  V30 632 O 112.329 -1.51982 8.68909 0
M  V30 633 O 111.789 -3.29363 6.99321 0
M  V30 634 C 110.849 -4.24066 6.42823 0
M  V30 635 C 111.579 -5.20775 5.52155 0
M  V30 636 O 111.789 -4.56607 4.22514 0
M  V30 637 C 112.979 -5.62697 5.96604 0
M  V30 638 O 113.369 -6.87667 5.41053 0
M  V30 639 C 113.859 -4.52537 5.39283 0
M  V30 640 C 113.149 -4.20027 4.08623 0
M  V30 641 N 113.199 -2.76189 3.71603 0
M  V30 642 H 110.361 -4.79756 7.24086 0
M  V30 643 H 110.089 -3.69963 5.84682 0
M  V30 644 H 110.957 -6.10431 5.41508 0
M  V30 645 H 113.612 -4.78816 3.28024 0
M  V30 646 H 113.892 -3.64957 6.05871 0
M  V30 647 H 114.883 -4.88748 5.21323 0
M  V30 648 H 113.049 -5.66789 7.0643 0
M  V30 649 P 114.919 -7.20834 5.23717 0
M  V30 650 O 115.139 -8.66104 5.38572 0
M  V30 651 O 115.709 -6.33544 6.1349 0
M  V30 652 O 115.169 -6.7751 3.72168 0
M  V30 653 C 114.229 -7.20825 2.7076 0
M  V30 654 C 114.959 -7.45864 1.40599 0
M  V30 655 O 115.169 -6.17651 0.734225 0
M  V30 656 C 116.359 -8.05808 1.51899 0
M  V30 657 O 116.749 -8.74358 0.335205 0
M  V30 658 C 117.239 -6.83093 1.70294 0
M  V30 659 C 116.529 -5.79992 0.836974 0
M  V30 660 N 116.579 -4.41864 1.38293 0
M  V30 661 H 113.74 -8.13644 3.0377 0
M  V30 662 H 113.47 -6.42788 2.55485 0
M  V30 663 H 114.337 -8.12039 0.792769 0
M  V30 664 P 118.299 -8.91 7.63812e-15 0
M  V30 665 O 118.519 -10.1736 -0.733766 0
M  V30 666 O 119.089 -8.73247 1.2395 0
M  V30 667 O 118.549 -7.66872 -0.971405 0
M  V30 668 C 117.609 -7.42309 -2.04641 0
M  V30 669 C 118.339 -6.86059 -3.24661 0
M  V30 670 O 118.549 -5.42847 -3.03646 0
M  V30 671 C 119.739 -7.41196 -3.50753 0
M  V30 672 O 120.129 -7.27073 -4.86816 0
M  V30 673 C 120.619 -6.5273 -2.63741 0
M  V30 674 C 119.909 -5.1842 -2.73198 0
M  V30 675 N 119.959 -4.38668 -1.47808 0
M  V30 676 C 120.109 -3.00789 -1.58511 0
M  V30 677 O 120.199 -2.50116 -2.71298 0
M  V30 678 N 120.159 -2.29703 -0.253698 0
M  V30 679 C 120.059 -2.84269 0.750133 0
M  V30 680 N 120.109 -2.06951 1.82612 0
M  V30 681 C 119.909 -4.25803 0.889776 0
M  V30 682 C 119.859 -4.98326 -0.259363 0
M  V30 683 H 117.119 -8.36707 -2.32466 0
M  V30 684 H 116.85 -6.701 -1.71105 0
M  V30 685 H 117.717 -7.03638 -4.13219 0
M  V30 686 H 120.372 -4.59852 -3.53955 0
M  V30 687 H 120.651 -6.88995 -1.59871 0
M  V30 688 H 121.643 -6.46749 -3.03687 0
M  V30 689 H 119.809 -8.46908 -3.20714 0
M  V30 690 H 119.737 -6.06349 -0.206238 0
M  V30 691 H 119.839 -4.73163 1.86796 0
M  V30 692 H 120.227 -1.05099 1.72271 0
M  V30 693 H 120.03 -2.48716 2.76361 0
M  V30 694 P 121.679 -7.20834 -5.23717 0
M  V30 695 O 121.899 -7.79853 -6.57286 0
M  V30 696 O 122.469 -7.79239 -4.12957 0
M  V30 697 O 121.929 -5.63315 -5.29344 0
M  V30 698 C 120.989 -4.80255 -6.01876 0
M  V30 699 C 121.719 -3.64202 -6.65911 0
M  V30 700 O 121.929 -2.60694 -5.64732 0
M  V30 701 C 123.119 -3.93473 -7.1943 0
M  V30 702 O 123.509 -3.02071 -8.21205 0
M  V30 703 C 123.999 -3.73047 -5.97036 0
M  V30 704 C 123.289 -2.58828 -5.25741 0
M  V30 705 N 123.339 -2.68068 -3.77503 0
M  V30 706 H 120.5 -5.40332 -6.79951 0
M  V30 707 H 120.23 -4.41613 -5.32378 0
M  V30 708 H 121.097 -3.26331 -7.47797 0
M  V30 709 P 125.059 -2.75334 -8.47391 0
M  V30 710 O 125.279 -2.44571 -9.90142 0
M  V30 711 O 125.849 -3.87688 -7.92115 0
M  V30 712 O 125.309 -1.4459 -7.59357 0
M  V30 713 C 124.369 -0.347608 -7.69215 0
M  V30 714 C 125.099 0.96767 -7.52806 0
M  V30 715 O 125.309 1.21036 -6.1011 0
M  V30 716 C 126.499 1.04544 -8.13308 0
M  V30 717 O 126.889 2.38311 -8.41922 0
M  V30 718 C 127.379 0.491279 -7.02284 0
M  V30 719 C 126.669 0.996264 -5.77469 0
M  V30 720 N 126.719 0.0501916 -4.62973 0
M  V30 721 H 123.88 -0.374722 -8.67691 0
M  V30 722 H 123.61 -0.443485 -6.90277 0
M  V30 723 H 124.477 1.75537 -7.96793 0
M  V30 724 P 128.439 2.75334 -8.47391 0
M  V30 725 O 128.659 3.84128 -9.44797 0
M  V30 726 O 129.229 1.51947 -8.68712 0
M  V30 727 O 128.689 3.29363 -6.99321 0
M  V30 728 C 127.749 4.24011 -6.4274 0
M  V30 729 C 128.479 5.20775 -5.52155 0
M  V30 730 O 128.689 4.56534 -4.22446 0
M  V30 731 C 129.879 5.62629 -5.96531 0
M  V30 732 O 130.269 6.87667 -5.41053 0
M  V30 733 C 130.759 4.52537 -5.39283 0
M  V30 734 C 130.049 4.20027 -4.08623 0
M  V30 735 N 130.099 2.76189 -3.71603 0
M  V30 736 C 130.019 1.64862 -4.52822 0
M  V30 737 N 130.099 0.512671 -3.88633 0
M  V30 738 C 130.239 0.888083 -2.54977 0
M  V30 739 C 130.369 0.094668 -1.38677 0
M  V30 740 O 130.389 -1.13053 -1.28163 0
M  V30 741 N 130.489 0.890102 -0.232633 0
M  V30 742 C 130.489 2.26958 -0.21772 0
M  V30 743 N 130.619 2.84626 0.97925 0
M  V30 744 N 130.359 3.0178 -1.31033 0
M  V30 745 C 130.239 2.26781 -2.43843 0
M  V30 746 H 127.26 4.797 -7.24003 0
M  V30 747 H 126.99 3.69856 -5.84513 0
M  V30 748 H 127.857 6.10356 -5.41441 0
M  V30 749 H 130.512 4.79061 -3.27488 0
M  V30 750 H 130.791 3.64906 -6.05785 0
M  V30 751 H 131.783 4.8868 -5.2125 0
M  V30 752 H 129.949 5.66726 -7.06352 0
M  V30 753 H 129.9 1.71169 -5.60966 0
M  V30 754 H 130.582 0.419134 0.644739 0
M  V30 755 H 130.619 3.87332 1.06098 0
M  V30 756 H 130.72 2.26417 1.82483 0
M  V30 757 P 131.819 7.20834 -5.23717 0
M  V30 758 O 132.039 8.66104 -5.38572 0
M  V30 759 O 132.609 6.33544 -6.1349 0
M  V30 760 O 132.069 6.7751 -3.72168 0
M  V30 761 C 131.129 7.20825 -2.7076 0
M  V30 762 C 131.859 7.45864 -1.40599 0
M  V30 763 O 132.069 6.17651 -0.734225 0
M  V30 764 C 133.259 8.05808 -1.51899 0
M  V30 765 O 133.649 8.74358 -0.335205 0
M  V30 766 C 134.139 6.83093 -1.70294 0
M  V30 767 C 133.429 5.79992 -0.836974 0
M  V30 768 N 133.479 4.41864 -1.38293 0
M  V30 769 H 130.64 8.13644 -3.0377 0
M  V30 770 H 130.37 6.42788 -2.55485 0
M  V30 771 H 131.237 8.12039 -0.792769 0
M  V30 772 P 135.199 8.91 -8.72928e-15 0
M  V30 773 O 135.419 10.1726 0.733694 0
M  V30 774 O 135.989 8.73148 -1.23936 0
M  V30 775 O 135.449 7.66872 0.971405 0
M  V30 776 C 134.509 7.42309 2.04641 0
M  V30 777 C 135.239 6.86059 3.24661 0
M  V30 778 O 135.449 5.42847 3.03646 0
M  V30 779 C 136.639 7.41196 3.50753 0
M  V30 780 O 137.029 7.27073 4.86816 0
M  V30 781 C 137.519 6.5273 2.63741 0
M  V30 782 C 136.809 5.1842 2.73198 0
M  V30 783 N 136.859 4.38762 1.4784 0
M  V30 784 H 134.02 8.36803 2.32493 0
M  V30 785 H 133.75 6.70197 1.71129 0
M  V30 786 H 134.617 7.03551 4.13168 0
M  V30 787 P 138.579 7.20834 5.23717 0
M  V30 788 O 138.799 7.80006 6.57415 0
M  V30 789 O 139.369 7.79416 4.13051 0
M  V30 790 O 138.829 5.63315 5.29344 0
M  V30 791 C 137.889 4.80318 6.01954 0
M  V30 792 C 138.619 3.64202 6.65911 0
M  V30 793 O 138.829 2.60736 5.64823 0
M  V30 794 C 140.019 3.93521 7.19518 0
M  V30 795 O 140.409 3.02071 8.21205 0
M  V30 796 C 140.899 3.73047 5.97036 0
M  V30 797 C 140.189 2.58828 5.25741 0
M  V30 798 N 140.239 2.68068 3.77503 0
M  V30 799 C 140.159 3.80474 2.99159 0
M  V30 800 N 140.229 3.55622 1.71925 0
M  V30 801 C 140.379 2.1832 1.65733 0
M  V30 802 C 140.509 1.28842 0.572777 0
M  V30 803 N 140.519 1.66875 -0.70098 0
M  V30 804 N 140.629 -0.016788 0.859836 0
M  V30 805 C 140.619 -0.398145 2.13316 0
M  V30 806 N 140.499 0.328224 3.22333 0
M  V30 807 C 140.379 1.62992 2.90383 0
M  V30 808 H 137.401 5.40394 6.8003 0
M  V30 809 H 137.129 4.41741 5.32532 0
M  V30 810 H 137.997 3.26371 7.47889 0
M  V30 811 H 140.652 1.64007 5.56746 0
M  V30 812 H 140.932 4.63439 5.3432 0
M  V30 813 H 141.923 3.44776 6.25925 0
M  V30 814 H 140.089 4.96707 7.57347 0
M  V30 815 H 140.048 4.8089 3.39924 0
M  V30 816 H 140.429 2.66547 -0.941919 0
M  V30 817 H 140.618 0.965341 -1.44766 0
M  V30 818 H 140.726 -1.46427 2.29697 0
M  V30 819 P 141.959 2.75334 8.47391 0
M  V30 820 O 142.179 2.44571 9.90142 0
M  V30 821 O 142.749 3.87688 7.92115 0
M  V30 822 O 142.209 1.4459 7.59357 0
M  V30 823 C 141.269 0.347608 7.69215 0
M  V30 824 C 141.999 -0.96767 7.52806 0
M  V30 825 O 142.209 -1.21036 6.1011 0
M  V30 826 C 143.399 -1.04544 8.13308 0
M  V30 827 O 143.789 -2.38311 8.41922 0
M  V30 828 C 144.279 -0.491279 7.02284 0
M  V30 829 C 143.569 -0.996264 5.77469 0
M  V30 830 N 143.619 -0.0501916 4.62973 0
M  V30 831 C 143.539 1.32786 4.63244 0
M  V30 832 N 143.619 1.86957 3.44545 0
M  V30 833 C 143.759 0.780241 2.58481 0
M  V30 834 C 143.889 0.738536 1.17757 0
M  V30 835 O 143.909 1.66794 0.372349 0
M  V30 836 N 144.009 -0.58337 0.711393 0
M  V30 837 C 144.009 -1.70816 1.51017 0
M  V30 838 N 144.139 -2.87826 0.880757 0
M  V30 839 N 143.879 -1.67126 2.8339 0
M  V30 840 C 143.759 -0.401421 3.30572 0
M  V30 841 H 140.78 0.374722 8.67691 0
M  V30 842 H 140.51 0.443485 6.90277 0
M  V30 843 H 141.377 -1.75537 7.96793 0
M  V30 844 H 144.032 -1.95076 5.46529 0
M  V30 845 H 144.311 0.608565 7.04577 0
M  V30 846 H 145.303 -0.889672 7.08939 0
M  V30 847 H 143.469 -0.43308 9.04564 0
M  V30 848 H 143.42 1.91249 5.54442 0
M  V30 849 H 144.102 -0.718054 -0.275244 0
M  V30 850 H 144.139 -3.75721 1.41832 0
M  V30 851 H 144.24 -2.90436 -0.145468 0
M  V30 852 P 145.339 -2.75334 8.47391 0
M  V30 853 O 145.559 -3.84128 9.44797 0
M  V30 854 O 146.129 -1.51947 8.68712 0
M  V30 855 O 145.589 -3.29363 6.99321 0
M  V30 856 C 144.649 -4.24011 6.4274 0
M  V30 857 C 145.379 -5.20775 5.52155 0
M  V30 858 O 145.589 -4.56534 4.22446 0
M  V30 859 C 146.779 -5.62629 5.96531 0
M  V30 860 O 147.169 -6.87667 5.41053 0
M  V30 861 C 147.659 -4.52537 5.39283 0
M  V30 862 C 146.949 -4.20027 4.08623 0
M  V30 863 N 146.999 -2.76189 3.71603 0
M  V30 864 H 144.16 -4.797 7.24003 0
M  V30 865 H 143.89 -3.69856 5.84513 0
M  V30 866 H 144.757 -6.10356 5.41441 0
M  V30 867 P 148.719 -7.20834 5.23717 0
M  V30 868 O 148.939 -8.66104 5.38572 0
M  V30 869 O 149.509 -6.33544 6.1349 0
M  V30 870 O 148.969 -6.7751 3.72168 0
M  V30 871 C 148.029 -7.20825 2.7076 0
M  V30 872 C 148.759 -7.45864 1.40599 0
M  V30 873 O 148.969 -6.17651 0.734225 0
M  V30 874 C 150.159 -8.05808 1.51899 0
M  V30 875 O 150.549 -8.74358 0.335205 0
M  V30 876 C 151.039 -6.83093 1.70294 0
M  V30 877 C 150.329 -5.79992 0.836974 0
M  V30 878 N 150.379 -4.41864 1.38293 0
M  V30 879 H 147.54 -8.13644 3.0377 0
M  V30 880 H 147.27 -6.42788 2.55485 0
M  V30 881 H 148.137 -8.12039 0.792769 0
M  V30 882 P 152.099 -8.91 9.82044e-15 0
M  V30 883 O 152.319 -10.1746 -0.733838 0
M  V30 884 O 152.889 -8.73346 1.23964 0
M  V30 885 O 152.349 -7.66872 -0.971405 0
M  V30 886 C 151.409 -7.42405 -2.04668 0
M  V30 887 C 152.139 -6.86059 -3.24661 0
M  V30 888 O 152.349 -5.42934 -3.03695 0
M  V30 889 C 153.539 -7.41287 -3.50796 0
M  V30 890 O 153.929 -7.27073 -4.86816 0
M  V30 891 C 154.419 -6.5273 -2.63741 0
M  V30 892 C 153.709 -5.1842 -2.73198 0
M  V30 893 N 153.759 -4.38762 -1.4784 0
M  V30 894 H 150.921 -8.36899 -2.3252 0
M  V30 895 H 150.649 -6.70391 -1.71179 0
M  V30 896 H 151.517 -7.03638 -4.13219 0
M  V30 897 H 154.172 -4.59931 -3.54016 0
M  V30 898 H 154.452 -6.88995 -1.59871 0
M  V30 899 H 155.443 -6.4684 -3.0373 0
M  V30 900 H 153.609 -8.47002 -3.20749 0
M  V30 901 P 155.479 -7.20834 -5.23717 0
M  V30 902 O 155.699 -7.79853 -6.57286 0
M  V30 903 O 156.269 -7.79239 -4.12957 0
M  V30 904 O 155.729 -5.63315 -5.29344 0
M  V30 905 C 154.789 -4.80255 -6.01876 0
M  V30 906 C 155.519 -3.64202 -6.65911 0
M  V30 907 O 155.729 -2.60694 -5.64732 0
M  V30 908 C 156.919 -3.93473 -7.1943 0
M  V30 909 O 157.309 -3.02071 -8.21205 0
M  V30 910 C 157.799 -3.73047 -5.97036 0
M  V30 911 C 157.089 -2.58828 -5.25741 0
M  V30 912 N 157.139 -2.68068 -3.77503 0
M  V30 913 H 154.3 -5.40332 -6.79951 0
M  V30 914 H 154.03 -4.41613 -5.32378 0
M  V30 915 H 154.897 -3.26331 -7.47797 0
M  V30 916 P 158.859 -2.75334 -8.47391 0
M  V30 917 O 159.079 -2.44595 -9.90239 0
M  V30 918 O 159.649 -3.87732 -7.92204 0
M  V30 919 O 159.109 -1.4459 -7.59357 0
M  V30 920 C 158.169 -0.347563 -7.69115 0
M  V30 921 C 158.899 0.96767 -7.52806 0
M  V30 922 O 159.109 1.21036 -6.1011 0
M  V30 923 C 160.299 1.04544 -8.13308 0
M  V30 924 O 160.689 2.38311 -8.41922 0
M  V30 925 C 161.179 0.491279 -7.02284 0
M  V30 926 C 160.469 0.996264 -5.77469 0
M  V30 927 N 160.519 0.0501808 -4.62873 0
M  V30 928 C 160.669 0.588177 -3.36904 0
M  V30 929 O 160.759 1.78598 -3.17173 0
M  V30 930 N 160.709 -0.329694 -2.33686 0
M  V30 931 C 160.619 -1.6953 -2.45079 0
M  V30 932 O 160.669 -2.41926 -1.44899 0
M  V30 933 C 160.469 -2.16933 -3.80505 0
M  V30 934 C 160.359 -3.65373 -3.97621 0
M  V30 935 C 160.419 -1.30326 -4.83752 0
M  V30 936 H 157.679 -0.374722 -8.67691 0
M  V30 937 H 157.41 -0.443421 -6.90177 0
M  V30 938 H 158.277 1.75537 -7.96793 0
M  V30 939 H 160.932 1.94496 -5.46629 0
M  V30 940 H 161.211 -0.608651 -7.04676 0
M  V30 941 H 162.203 0.889672 -7.08939 0
M  V30 942 H 160.369 0.43308 -9.04564 0
M  V30 943 H 160.298 -1.68366 -5.8516 0
M  V30 944 H 161.328 -4.05985 -4.30448 0
M  V30 945 H 159.591 -3.88028 -4.72875 0
M  V30 946 H 160.079 -4.11381 -3.01609 0
M  V30 947 H 160.815 0.0393617 -1.41345 0
M  V30 948 P 162.239 2.75334 -8.47391 0
M  V30 949 O 162.459 3.84128 -9.44797 0
M  V30 950 O 163.029 1.51947 -8.68712 0
M  V30 951 O 162.489 3.29363 -6.99321 0
M  V30 952 C 161.549 4.24011 -6.4274 0
M  V30 953 C 162.279 5.20775 -5.52155 0
M  V30 954 O 162.489 4.56534 -4.22446 0
M  V30 955 C 163.679 5.62629 -5.96531 0
M  V30 956 O 164.069 6.87667 -5.41053 0
M  V30 957 C 164.559 4.52537 -5.39283 0
M  V30 958 C 163.849 4.20027 -4.08623 0
M  V30 959 N 163.899 2.76189 -3.71603 0
M  V30 960 H 161.06 4.797 -7.24003 0
M  V30 961 H 160.79 3.69856 -5.84513 0
M  V30 962 H 161.657 6.10356 -5.41441 0
M  V30 963 P 165.619 7.20834 -5.23717 0
M  V30 964 O 165.839 8.66104 -5.38572 0
M  V30 965 O 166.409 6.33544 -6.1349 0
M  V30 966 O 165.869 6.7751 -3.72168 0
M  V30 967 C 164.929 7.20825 -2.7076 0
M  V30 968 C 165.659 7.45864 -1.40599 0
M  V30 969 O 165.869 6.17651 -0.734225 0
M  V30 970 C 167.059 8.05808 -1.51899 0
M  V30 971 O 167.449 8.74358 -0.335205 0
M  V30 972 C 167.939 6.83093 -1.70294 0
M  V30 973 C 167.229 5.79992 -0.836974 0
M  V30 974 N 167.279 4.41864 -1.38293 0
M  V30 975 H 164.44 8.13644 -3.0377 0
M  V30 976 H 164.17 6.42788 -2.55485 0
M  V30 977 H 165.037 8.12039 -0.792769 0
M  V30 978 P 168.999 8.91 -1.09116e-14 0
M  V30 979 O 169.219 10.1726 0.733694 0
M  V30 980 O 169.789 8.73148 -1.23936 0
M  V30 981 O 169.249 7.66872 0.971405 0
M  V30 982 C 168.309 7.42309 2.04641 0
M  V30 983 C 169.039 6.86059 3.24661 0
M  V30 984 O 169.249 5.42847 3.03646 0
M  V30 985 C 170.439 7.41196 3.50753 0
M  V30 986 O 170.829 7.27073 4.86816 0
M  V30 987 C 171.319 6.5273 2.63741 0
M  V30 988 C 170.609 5.1842 2.73198 0
M  V30 989 N 170.659 4.38762 1.4784 0
M  V30 990 H 167.82 8.36803 2.32493 0
M  V30 991 H 167.55 6.70197 1.71129 0
M  V30 992 H 168.417 7.03551 4.13168 0
M  V30 993 P 172.379 7.20834 5.23717 0
M  V30 994 O 172.599 7.79853 6.57286 0
M  V30 995 O 173.169 7.79239 4.12957 0
M  V30 996 O 172.629 5.63315 5.29344 0
M  V30 997 C 171.689 4.80255 6.01876 0
M  V30 998 C 172.419 3.64202 6.65911 0
M  V30 999 O 172.629 2.60694 5.64732 0
M  V30 1000 C 173.819 3.93473 7.1943 0
M  V30 1001 O 174.209 3.02071 8.21205 0
M  V30 1002 C 174.699 3.73047 5.97036 0
M  V30 1003 C 173.989 2.58828 5.25741 0
M  V30 1004 N 174.039 2.68068 3.77503 0
M  V30 1005 H 171.2 5.40332 6.79951 0
M  V30 1006 H 170.93 4.41613 5.32378 0
M  V30 1007 H 171.797 3.26331 7.47797 0
M  V30 1008 P 175.759 2.75334 8.47391 0
M  V30 1009 O 175.979 2.44571 9.90142 0
M  V30 1010 O 176.549 3.87688 7.92115 0
M  V30 1011 O 176.009 1.4459 7.59357 0
M  V30 1012 C 175.069 0.347608 7.69215 0
M  V30 1013 C 175.799 -0.96767 7.52806 0
M  V30 1014 O 176.009 -1.21036 6.1011 0
M  V30 1015 C 177.199 -1.04544 8.13308 0
M  V30 1016 O 177.589 -2.38311 8.41922 0
M  V30 1017 C 178.079 -0.491279 7.02284 0
M  V30 1018 C 177.369 -0.996264 5.77469 0
M  V30 1019 N 177.419 -0.0501916 4.62973 0
M  V30 1020 C 177.339 1.32786 4.63244 0
M  V30 1021 N 177.419 1.86957 3.44545 0
M  V30 1022 C 177.559 0.780241 2.58481 0
M  V30 1023 C 177.689 0.738536 1.17757 0
M  V30 1024 N 177.809 -0.58337 0.711393 0
M  V30 1025 C 177.809 -1.70816 1.51017 0
M  V30 1026 N 177.939 -2.87826 0.880757 0
M  V30 1027 N 177.679 -1.67126 2.8339 0
M  V30 1028 C 177.559 -0.401421 3.30572 0
M  V30 1029 H 174.58 0.374722 8.67691 0
M  V30 1030 H 174.31 0.443485 6.90277 0
M  V30 1031 H 175.177 -1.75537 7.96793 0
M  V30 1032 P 179.139 -2.75334 8.47391 0
M  V30 1033 O 179.359 -3.84128 9.44797 0
M  V30 1034 O 179.929 -1.51947 8.68712 0
M  V30 1035 O 179.389 -3.29363 6.99321 0
M  V30 1036 C 178.449 -4.24011 6.4274 0
M  V30 1037 C 179.179 -5.20775 5.52155 0
M  V30 1038 O 179.389 -4.56534 4.22446 0
M  V30 1039 C 180.579 -5.62629 5.96531 0
M  V30 1040 O 180.969 -6.87667 5.41053 0
M  V30 1041 C 181.459 -4.52537 5.39283 0
M  V30 1042 C 180.749 -4.20027 4.08623 0
M  V30 1043 N 180.799 -2.76189 3.71603 0
M  V30 1044 H 177.96 -4.797 7.24003 0
M  V30 1045 H 177.69 -3.69856 5.84513 0
M  V30 1046 H 178.557 -6.10356 5.41441 0
M  V30 1047 P 182.519 -7.20834 5.23717 0
M  V30 1048 O 182.739 -8.66104 5.38572 0
M  V30 1049 O 183.309 -6.33544 6.1349 0
M  V30 1050 O 182.769 -6.7751 3.72168 0
M  V30 1051 C 181.829 -7.20825 2.7076 0
M  V30 1052 C 182.559 -7.45864 1.40599 0
M  V30 1053 O 182.769 -6.17651 0.734225 0
M  V30 1054 C 183.959 -8.05808 1.51899 0
M  V30 1055 O 184.349 -8.74358 0.335205 0
M  V30 1056 C 184.839 -6.83093 1.70294 0
M  V30 1057 C 184.129 -5.79992 0.836974 0
M  V30 1058 N 184.179 -4.41864 1.38293 0
M  V30 1059 H 181.34 -8.13644 3.0377 0
M  V30 1060 H 181.07 -6.42788 2.55485 0
M  V30 1061 H 181.937 -8.12039 0.792769 0
M  V30 1062 P 185.899 -8.91 -8.29613e-14 0
M  V30 1063 O 186.119 -10.1736 -0.733766 0
M  V30 1064 O 186.689 -8.73247 1.2395 0
M  V30 1065 O 186.149 -7.66872 -0.971405 0
M  V30 1066 C 185.209 -7.42212 -2.04614 0
M  V30 1067 C 185.939 -6.86059 -3.24661 0
M  V30 1068 O 186.149 -5.42847 -3.03646 0
M  V30 1069 C 187.339 -7.41196 -3.50753 0
M  V30 1070 O 187.729 -7.27073 -4.86816 0
M  V30 1071 C 188.219 -6.5273 -2.63741 0
M  V30 1072 C 187.509 -5.1842 -2.73198 0
M  V30 1073 N 187.559 -4.38668 -1.47808 0
M  V30 1074 C 187.709 -3.02239 -1.60048 0
M  V30 1075 O 187.799 -2.46459 -2.67869 0
M  V30 1076 N 187.749 -2.32436 -0.408571 0
M  V30 1077 C 187.659 -2.85471 0.854993 0
M  V30 1078 C 187.509 -4.28918 0.887335 0
M  V30 1079 C 187.459 -5.00349 -0.255399 0
M  V30 1080 H 184.719 -8.36803 -2.32493 0
M  V30 1081 H 184.45 -6.701 -1.71105 0
M  V30 1082 H 185.317 -7.03551 -4.13168 0
M  V30 1083 H 187.972 -4.59773 -3.53894 0
M  V30 1084 H 188.251 -6.88995 -1.59871 0
M  V30 1085 H 189.243 -6.46749 -3.03687 0
M  V30 1086 H 187.409 -8.46908 -3.20714 0
M  V30 1087 H 187.338 -6.08548 -0.206986 0
M  V30 1088 P 189.279 -7.20834 -5.23717 0
M  V30 1089 O 189.499 -7.79853 -6.57286 0
M  V30 1090 O 190.069 -7.79239 -4.12957 0
M  V30 1091 O 189.529 -5.63315 -5.29344 0
M  V30 1092 C 188.589 -4.80255 -6.01876 0
M  V30 1093 C 189.319 -3.64202 -6.65911 0
M  V30 1094 O 189.529 -2.60694 -5.64732 0
M  V30 1095 C 190.719 -3.93473 -7.1943 0
M  V30 1096 O 191.109 -3.02071 -8.21205 0
M  V30 1097 C 191.599 -3.73047 -5.97036 0
M  V30 1098 C 190.889 -2.58828 -5.25741 0
M  V30 1099 N 190.939 -2.68068 -3.77503 0
M  V30 1100 C 190.859 -3.79715 -2.96723 0
M  V30 1101 N 190.939 -3.5377 -1.68852 0
M  V30 1102 C 191.079 -2.15054 -1.63254 0
M  V30 1103 C 191.209 -1.28964 -0.518571 0
M  V30 1104 N 191.329 0.0538097 -0.918425 0
M  V30 1105 C 191.329 0.494275 -2.22578 0
M  V30 1106 N 191.459 1.81086 -2.40434 0
M  V30 1107 N 191.199 -0.313645 -3.27502 0
M  V30 1108 C 191.079 -1.61829 -2.91033 0
M  V30 1109 H 188.1 -5.40332 -6.79951 0
M  V30 1110 H 187.83 -4.41613 -5.32378 0
M  V30 1111 H 188.697 -3.26331 -7.47797 0
M  V30 1112 P 192.659 -2.75334 -8.47391 0
M  V30 1113 O 192.879 -2.44619 -9.90336 0
M  V30 1114 O 193.449 -3.87776 -7.92294 0
M  V30 1115 O 192.909 -1.4459 -7.59357 0
M  V30 1116 C 191.969 -0.347653 -7.69315 0
M  V30 1117 C 192.699 0.96767 -7.52806 0
M  V30 1118 O 192.909 1.21055 -6.10208 0
M  V30 1119 C 194.099 1.04557 -8.13408 0
M  V30 1120 O 194.489 2.38311 -8.41922 0
M  V30 1121 C 194.979 0.491279 -7.02284 0
M  V30 1122 C 194.269 0.996264 -5.77469 0
M  V30 1123 N 194.319 0.0501916 -4.62973 0
M  V30 1124 C 194.239 -1.31969 -4.65661 0
M  V30 1125 N 194.309 -1.86649 -3.48119 0
M  V30 1126 C 194.459 -0.792089 -2.62406 0
M  V30 1127 C 194.589 -0.705684 -1.2207 0
M  V30 1128 N 194.599 -1.76207 -0.413762 0
M  V30 1129 N 194.709 0.518981 -0.685754 0
M  V30 1130 C 194.699 1.57595 -1.49174 0
M  V30 1131 N 194.579 1.62909 -2.80066 0
M  V30 1132 C 194.459 0.388195 -3.3073 0
M  V30 1133 H 191.481 -0.374765 -8.67791 0
M  V30 1134 H 191.209 -0.443613 -6.90476 0
M  V30 1135 H 192.077 1.75559 -7.96891 0
M  V30 1136 H 194.732 1.94563 -5.46818 0
M  V30 1137 H 195.012 -0.608651 -7.04676 0
M  V30 1138 H 196.003 0.889796 -7.09039 0
M  V30 1139 H 194.169 0.433128 -9.04664 0
M  V30 1140 H 194.128 -1.89246 -5.57664 0
M  V30 1141 H 194.509 -2.71005 -0.804694 0
M  V30 1142 H 194.698 -1.63189 0.603768 0
M  V30 1143 H 194.806 2.53475 -0.997614 0
M  V30 1144 P 196.039 2.75334 -8.47391 0
M  V30 1145 O 196.259 3.84166 -9.4489 0
M  V30 1146 O 196.829 1.51964 -8.6881 0
M  V30 1147 O 196.289 3.29363 -6.99321 0
M  V30 1148 C 195.349 4.24011 -6.4274 0
M  V30 1149 C 196.079 5.20775 -5.52155 0
M  V30 1150 O 196.289 4.56534 -4.22446 0
M  V30 1151 C 197.479 5.62629 -5.96531 0
M  V30 1152 O 197.869 6.87667 -5.41053 0
M  V30 1153 C 198.359 4.52537 -5.39283 0
M  V30 1154 C 197.649 4.20027 -4.08623 0
M  V30 1155 N 197.699 2.7613 -3.71522 0
M  V30 1156 C 197.849 2.43702 -2.37085 0
M  V30 1157 O 197.939 3.3531 -1.54039 0
M  V30 1158 N 197.899 0.951103 -2.10621 0
M  V30 1159 C 197.799 0.165021 -2.93537 0
M  V30 1160 N 197.849 -1.09723 -2.53253 0
M  V30 1161 C 197.649 0.469576 -4.32458 0
M  V30 1162 C 197.599 1.78658 -4.65921 0
M  V30 1163 H 194.859 4.79645 -7.23919 0
M  V30 1164 H 194.59 3.69802 -5.84429 0
M  V30 1165 H 195.457 6.10431 -5.41508 0
M  V30 1166 H 198.112 4.78733 -3.27967 0
M  V30 1167 H 198.391 3.64957 -6.05871 0
M  V30 1168 H 199.383 4.8868 -5.2125 0
M  V30 1169 H 197.549 5.66726 -7.06352 0
M  V30 1170 H 197.477 2.06987 -5.70299 0
M  V30 1171 H 197.579 -0.314383 -5.07728 0
M  V30 1172 H 197.967 -1.31363 -1.5319 0
M  V30 1173 H 197.77 -1.85978 -3.21943 0
M  V30 1174 P 199.419 7.20834 -5.23717 0
M  V30 1175 O 199.639 8.66104 -5.38572 0
M  V30 1176 O 200.209 6.33544 -6.1349 0
M  V30 1177 O 199.669 6.7751 -3.72168 0
M  V30 1178 C 198.729 7.20825 -2.7076 0
M  V30 1179 C 199.459 7.45864 -1.40599 0
M  V30 1180 O 199.669 6.17651 -0.734225 0
M  V30 1181 C 200.859 8.05808 -1.51899 0
M  V30 1182 O 201.249 8.74358 -0.335205 0
M  V30 1183 C 201.739 6.83093 -1.70294 0
M  V30 1184 C 201.029 5.79992 -0.836974 0
M  V30 1185 N 201.079 4.41864 -1.38293 0
M  V30 1186 H 198.24 8.13644 -3.0377 0
M  V30 1187 H 197.97 6.42788 -2.55485 0
M  V30 1188 H 198.837 8.12039 -0.792769 0
M  V30 1189 P 202.799 8.91 2.40144e-13 0
M  V30 1190 O 203.019 10.1746 0.733838 0
M  V30 1191 O 203.589 8.73346 -1.23964 0
M  V30 1192 O 203.049 7.66872 0.971405 0
M  V30 1193 C 202.109 7.42405 2.04668 0
M  V30 1194 C 202.839 6.86059 3.24661 0
M  V30 1195 O 203.049 5.42934 3.03695 0
M  V30 1196 C 204.239 7.41287 3.50796 0
M  V30 1197 O 204.629 7.27073 4.86816 0
M  V30 1198 C 205.119 6.5273 2.63741 0
M  V30 1199 C 204.409 5.1842 2.73198 0
M  V30 1200 N 204.459 4.38762 1.4784 0
M  V30 1201 H 201.621 8.36899 2.3252 0
M  V30 1202 H 201.349 6.70391 1.71179 0
M  V30 1203 H 202.217 7.03638 4.13219 0
M  V30 1204 H 204.872 4.59931 3.54016 0
M  V30 1205 H 205.152 6.88995 1.59871 0
M  V30 1206 H 206.143 6.4684 3.0373 0
M  V30 1207 H 204.309 8.47002 3.20749 0
M  V30 1208 P 206.179 7.20834 5.23717 0
M  V30 1209 O 206.399 7.79853 6.57286 0
M  V30 1210 O 206.969 7.79239 4.12957 0
M  V30 1211 O 206.429 5.63315 5.29344 0
M  V30 1212 C 205.489 4.80255 6.01876 0
M  V30 1213 C 206.219 3.64202 6.65911 0
M  V30 1214 O 206.429 2.60694 5.64732 0
M  V30 1215 C 207.619 3.93473 7.1943 0
M  V30 1216 O 208.009 3.02071 8.21205 0
M  V30 1217 C 208.499 3.73047 5.97036 0
M  V30 1218 C 207.789 2.58828 5.25741 0
M  V30 1219 N 207.839 2.68068 3.77503 0
M  V30 1220 H 205 5.40332 6.79951 0
M  V30 1221 H 204.73 4.41613 5.32378 0
M  V30 1222 H 205.597 3.26331 7.47797 0
M  V30 1223 P 209.559 2.75334 8.47391 0
M  V30 1224 O 209.779 2.44571 9.90142 0
M  V30 1225 O 210.349 3.87688 7.92115 0
M  V30 1226 O 209.809 1.4459 7.59357 0
M  V30 1227 C 208.869 0.347608 7.69215 0
M  V30 1228 C 209.599 -0.96767 7.52806 0
M  V30 1229 O 209.809 -1.21036 6.1011 0
M  V30 1230 C 210.999 -1.04544 8.13308 0
M  V30 1231 O 211.389 -2.38311 8.41922 0
M  V30 1232 C 211.879 -0.491279 7.02284 0
M  V30 1233 C 211.169 -0.996264 5.77469 0
M  V30 1234 N 211.219 -0.0501916 4.62973 0
M  V30 1235 H 208.38 0.374722 8.67691 0
M  V30 1236 H 208.11 0.443485 6.90277 0
M  V30 1237 H 208.977 -1.75537 7.96793 0
M  V30 1238 P 212.939 -2.75334 8.47391 0
M  V30 1239 O 213.159 -3.84128 9.44797 0
M  V30 1240 O 213.729 -1.51947 8.68712 0
M  V30 1241 O 213.189 -3.29363 6.99321 0
M  V30 1242 C 212.249 -4.24011 6.4274 0
M  V30 1243 C 212.979 -5.20775 5.52155 0
M  V30 1244 O 213.189 -4.56534 4.22446 0
M  V30 1245 C 214.379 -5.62629 5.96531 0
M  V30 1246 O 214.769 -6.87667 5.41053 0
M  V30 1247 C 215.259 -4.52537 5.39283 0
M  V30 1248 C 214.549 -4.20027 4.08623 0
M  V30 1249 N 214.599 -2.76189 3.71603 0
M  V30 1250 H 211.76 -4.797 7.24003 0
M  V30 1251 H 211.49 -3.69856 5.84513 0
M  V30 1252 H 212.357 -6.10356 5.41441 0
M  V30 1253 P 216.319 -7.20834 5.23717 0
M  V30 1254 O 216.539 -8.66104 5.38572 0
M  V30 1255 O 217.109 -6.33544 6.1349 0
M  V30 1256 O 216.569 -6.7751 3.72168 0
M  V30 1257 C 215.629 -7.20825 2.7076 0
M  V30 1258 C 216.359 -7.45864 1.40599 0
M  V30 1259 O 216.569 -6.17651 0.734225 0
M  V30 1260 C 217.759 -8.05808 1.51899 0
M  V30 1261 O 218.149 -8.74358 0.335205 0
M  V30 1262 C 218.639 -6.83093 1.70294 0
M  V30 1263 C 217.929 -5.79992 0.836974 0
M  V30 1264 N 217.979 -4.41864 1.38293 0
M  V30 1265 H 215.14 -8.13644 3.0377 0
M  V30 1266 H 214.87 -6.42788 2.55485 0
M  V30 1267 H 215.737 -8.12039 0.792769 0
M  V30 1268 P 219.699 -8.91 -3.97326e-13 0
M  V30 1269 O 219.919 -10.1726 -0.733694 0
M  V30 1270 O 220.489 -8.73148 1.23936 0
M  V30 1271 O 219.949 -7.66872 -0.971405 0
M  V30 1272 C 219.009 -7.42309 -2.04641 0
M  V30 1273 C 219.739 -6.86059 -3.24661 0
M  V30 1274 O 219.949 -5.42847 -3.03646 0
M  V30 1275 C 221.139 -7.41196 -3.50753 0
M  V30 1276 O 221.529 -7.27073 -4.86816 0
M  V30 1277 C 222.019 -6.5273 -2.63741 0
M  V30 1278 C 221.309 -5.1842 -2.73198 0
M  V30 1279 N 221.359 -4.38762 -1.4784 0
M  V30 1280 H 218.52 -8.36803 -2.32493 0
M  V30 1281 H 218.25 -6.70197 -1.71129 0
M  V30 1282 H 219.117 -7.03551 -4.13168 0
M  V30 1283 P 223.079 -7.20834 -5.23717 0
M  V30 1284 O 223.299 -7.79853 -6.57286 0
M  V30 1285 O 223.869 -7.79239 -4.12957 0
M  V30 1286 O 223.329 -5.63315 -5.29344 0
M  V30 1287 C 222.389 -4.80255 -6.01876 0
M  V30 1288 C 223.119 -3.64202 -6.65911 0
M  V30 1289 O 223.329 -2.60694 -5.64732 0
M  V30 1290 C 224.519 -3.93473 -7.1943 0
M  V30 1291 O 224.909 -3.02071 -8.21205 0
M  V30 1292 C 225.399 -3.73047 -5.97036 0
M  V30 1293 C 224.689 -2.58828 -5.25741 0
M  V30 1294 N 224.739 -2.68068 -3.77503 0
M  V30 1295 H 221.9 -5.40332 -6.79951 0
M  V30 1296 H 221.63 -4.41613 -5.32378 0
M  V30 1297 H 222.497 -3.26331 -7.47797 0
M  V30 1298 P 226.459 -2.75334 -8.47391 0
M  V30 1299 O 226.679 -2.44571 -9.90142 0
M  V30 1300 O 227.249 -3.87688 -7.92115 0
M  V30 1301 O 226.709 -1.4459 -7.59357 0
M  V30 1302 C 225.769 -0.347608 -7.69215 0
M  V30 1303 C 226.499 0.96767 -7.52806 0
M  V30 1304 O 226.709 1.21036 -6.1011 0
M  V30 1305 C 227.899 1.04544 -8.13308 0
M  V30 1306 O 228.289 2.38311 -8.41922 0
M  V30 1307 C 228.779 0.491279 -7.02284 0
M  V30 1308 C 228.069 0.996264 -5.77469 0
M  V30 1309 N 228.119 0.0501916 -4.62973 0
M  V30 1310 H 225.28 -0.374722 -8.67691 0
M  V30 1311 H 225.01 -0.443485 -6.90277 0
M  V30 1312 H 225.877 1.75537 -7.96793 0
M  V30 1313 P 229.839 2.75334 -8.47391 0
M  V30 1314 O 230.059 3.84204 -9.44982 0
M  V30 1315 O 230.629 1.51982 -8.68909 0
M  V30 1316 O 230.089 3.29363 -6.99321 0
M  V30 1317 C 229.149 4.24066 -6.42823 0
M  V30 1318 C 229.879 5.20775 -5.52155 0
M  V30 1319 O 230.089 4.56607 -4.22514 0
M  V30 1320 C 231.279 5.62697 -5.96604 0
M  V30 1321 O 231.669 6.87667 -5.41053 0
M  V30 1322 C 232.159 4.52537 -5.39283 0
M  V30 1323 C 231.449 4.20027 -4.08623 0
M  V30 1324 N 231.499 2.76189 -3.71603 0
M  V30 1325 C 231.419 1.66944 -4.54297 0
M  V30 1326 N 231.489 0.536169 -3.91344 0
M  V30 1327 C 231.639 0.901569 -2.58849 0
M  V30 1328 C 231.769 0.146599 -1.40236 0
M  V30 1329 N 231.779 -1.18234 -1.37046 0
M  V30 1330 N 231.889 0.822941 -0.249738 0
M  V30 1331 C 231.879 2.15179 -0.280525 0
M  V30 1332 N 231.759 2.96414 -1.30822 0
M  V30 1333 C 231.639 2.25804 -2.44748 0
M  V30 1334 H 228.661 4.79756 -7.24086 0
M  V30 1335 H 228.389 3.69963 -5.84682 0
M  V30 1336 H 229.257 6.10431 -5.41508 0
M  V30 1337 H 231.912 4.78816 -3.28024 0
M  V30 1338 H 232.192 3.64957 -6.05871 0
M  V30 1339 H 233.183 4.88748 -5.21323 0
M  V30 1340 H 231.349 5.66789 -7.0643 0
M  V30 1341 H 231.308 1.74684 -5.62396 0
M  V30 1342 H 231.689 -1.71949 -2.24394 0
M  V30 1343 H 231.878 -1.67511 -0.470742 0
M  V30 1344 H 231.986 2.63704 0.6828 0
M  V30 1345 P 233.219 7.20834 -5.23717 0
M  V30 1346 O 233.439 8.66274 -5.38678 0
M  V30 1347 O 234.009 6.33687 -6.13629 0
M  V30 1348 O 233.469 6.7751 -3.72168 0
M  V30 1349 C 232.529 7.20919 -2.70795 0
M  V30 1350 C 233.259 7.45864 -1.40599 0
M  V30 1351 O 233.469 6.17751 -0.734343 0
M  V30 1352 C 234.659 8.05906 -1.51917 0
M  V30 1353 O 235.049 8.74358 -0.335205 0
M  V30 1354 C 235.539 6.83093 -1.70294 0
M  V30 1355 C 234.829 5.79992 -0.836974 0
M  V30 1356 N 234.879 4.41864 -1.38293 0
M  V30 1357 C 234.799 4.02089 -2.69407 0
M  V30 1358 N 234.869 2.73403 -2.85089 0
M  V30 1359 C 235.019 2.25086 -1.5642 0
M  V30 1360 C 235.149 0.942887 -1.04836 0
M  V30 1361 N 235.159 -0.150999 -1.80369 0
M  V30 1362 N 235.269 0.812565 0.28167 0
M  V30 1363 C 235.259 1.90572 1.03784 0
M  V30 1364 N 235.139 3.167 0.683905 0
M  V30 1365 C 235.019 3.26538 -0.652815 0
M  V30 1366 H 232.041 8.13738 -3.03804 0
M  V30 1367 H 231.769 6.42974 -2.55559 0
M  V30 1368 H 232.637 8.12139 -0.792866 0
M  V30 1369 H 235.292 5.80178 0.160643 0
M  V30 1370 H 235.572 6.51379 -2.75643 0
M  V30 1371 H 236.563 7.01832 -1.3448 0
M  V30 1372 H 234.729 8.73771 -2.38364 0
M  V30 1373 H 234.688 4.7189 -3.52311 0
M  V30 1374 H 235.069 -0.0721434 -2.82608 0
M  V30 1375 H 235.258 -1.0785 -1.36544 0
M  V30 1376 H 235.366 1.73207 2.10241 0
M  V30 1377 P 236.599 8.91 5.54508e-13 0
M  V30 1378 O 236.819 10.1746 0.733838 0
M  V30 1379 O 237.389 8.73346 -1.23964 0
M  V30 1380 O 236.849 7.66872 0.971405 0
M  V30 1381 C 235.909 7.42405 2.04668 0
M  V30 1382 C 236.639 6.86059 3.24661 0
M  V30 1383 O 236.849 5.42934 3.03695 0
M  V30 1384 C 238.039 7.41287 3.50796 0
M  V30 1385 O 238.429 7.27073 4.86816 0
M  V30 1386 C 238.919 6.5273 2.63741 0
M  V30 1387 C 238.209 5.1842 2.73198 0
M  V30 1388 N 238.259 4.38762 1.4784 0
M  V30 1389 H 235.421 8.36899 2.3252 0
M  V30 1390 H 235.149 6.70391 1.71179 0
M  V30 1391 H 236.017 7.03638 4.13219 0
M  V30 1392 H 238.672 4.59931 3.54016 0
M  V30 1393 H 238.952 6.88995 1.59871 0
M  V30 1394 H 239.943 6.4684 3.0373 0
M  V30 1395 H 238.109 8.47002 3.20749 0
M  V30 1396 P 239.979 7.20834 5.23717 0
M  V30 1397 O 240.199 7.79853 6.57286 0
M  V30 1398 O 240.769 7.79239 4.12957 0
M  V30 1399 O 240.229 5.63315 5.29344 0
M  V30 1400 C 239.289 4.80255 6.01876 0
M  V30 1401 C 240.019 3.64202 6.65911 0
M  V30 1402 O 240.229 2.60694 5.64732 0
M  V30 1403 C 241.419 3.93473 7.1943 0
M  V30 1404 O 241.809 3.02071 8.21205 0
M  V30 1405 C 242.299 3.73047 5.97036 0
M  V30 1406 C 241.589 2.58828 5.25741 0
M  V30 1407 N 241.639 2.68068 3.77503 0
M  V30 1408 H 238.8 5.40332 6.79951 0
M  V30 1409 H 238.53 4.41613 5.32378 0
M  V30 1410 H 239.397 3.26331 7.47797 0
M  V30 1411 P 243.359 2.75334 8.47391 0
M  V30 1412 O 243.579 2.44571 9.90142 0
M  V30 1413 O 244.149 3.87688 7.92115 0
M  V30 1414 O 243.609 1.4459 7.59357 0
M  V30 1415 C 242.669 0.347608 7.69215 0
M  V30 1416 C 243.399 -0.96767 7.52806 0
M  V30 1417 O 243.609 -1.21036 6.1011 0
M  V30 1418 C 244.799 -1.04544 8.13308 0
M  V30 1419 O 245.189 -2.38311 8.41922 0
M  V30 1420 C 245.679 -0.491279 7.02284 0
M  V30 1421 C 244.969 -0.996264 5.77469 0
M  V30 1422 N 245.019 -0.0501916 4.62973 0
M  V30 1423 H 242.18 0.374722 8.67691 0
M  V30 1424 H 241.91 0.443485 6.90277 0
M  V30 1425 H 242.777 -1.75537 7.96793 0
M  V30 1426 P 246.739 -2.75334 8.47391 0
M  V30 1427 O 246.959 -3.84128 9.44797 0
M  V30 1428 O 247.529 -1.51947 8.68712 0
M  V30 1429 O 246.989 -3.29363 6.99321 0
M  V30 1430 C 246.049 -4.24011 6.4274 0
M  V30 1431 C 246.779 -5.20775 5.52155 0
M  V30 1432 O 246.989 -4.56534 4.22446 0
M  V30 1433 C 248.179 -5.62629 5.96531 0
M  V30 1434 O 248.569 -6.87667 5.41053 0
M  V30 1435 C 249.059 -4.52537 5.39283 0
M  V30 1436 C 248.349 -4.20027 4.08623 0
M  V30 1437 N 248.399 -2.76189 3.71603 0
M  V30 1438 H 245.56 -4.797 7.24003 0
M  V30 1439 H 245.29 -3.69856 5.84513 0
M  V30 1440 H 246.157 -6.10356 5.41441 0
M  V30 1441 P 250.119 -7.20834 5.23717 0
M  V30 1442 O 250.339 -8.66104 5.38572 0
M  V30 1443 O 250.909 -6.33544 6.1349 0
M  V30 1444 O 250.369 -6.7751 3.72168 0
M  V30 1445 C 249.429 -7.20825 2.7076 0
M  V30 1446 C 250.159 -7.45864 1.40599 0
M  V30 1447 O 250.369 -6.17651 0.734225 0
M  V30 1448 C 251.559 -8.05808 1.51899 0
M  V30 1449 O 251.949 -8.74358 0.335205 0
M  V30 1450 C 252.439 -6.83093 1.70294 0
M  V30 1451 C 251.729 -5.79992 0.836974 0
M  V30 1452 N 251.779 -4.41864 1.38293 0
M  V30 1453 H 248.94 -8.13644 3.0377 0
M  V30 1454 H 248.67 -6.42788 2.55485 0
M  V30 1455 H 249.537 -8.12039 0.792769 0
M  V30 1456 P 253.498 -8.91 -7.1169e-13 0
M  V30 1457 O 253.718 -10.1726 -0.733694 0
M  V30 1458 O 254.288 -8.73148 1.23936 0
M  V30 1459 O 253.748 -7.66872 -0.971405 0
M  V30 1460 C 252.808 -7.42309 -2.04641 0
M  V30 1461 C 253.538 -6.86059 -3.24661 0
M  V30 1462 O 253.748 -5.42847 -3.03646 0
M  V30 1463 C 254.938 -7.41196 -3.50753 0
M  V30 1464 O 255.328 -7.27073 -4.86816 0
M  V30 1465 C 255.818 -6.5273 -2.63741 0
M  V30 1466 C 255.108 -5.1842 -2.73198 0
M  V30 1467 N 255.158 -4.38762 -1.4784 0
M  V30 1468 H 252.319 -8.36803 -2.32493 0
M  V30 1469 H 252.049 -6.70197 -1.71129 0
M  V30 1470 H 252.916 -7.03551 -4.13168 0
M  V30 1471 P 256.878 -7.20834 -5.23717 0
M  V30 1472 O 257.098 -7.79853 -6.57286 0
M  V30 1473 O 257.668 -7.79239 -4.12957 0
M  V30 1474 O 257.128 -5.63315 -5.29344 0
M  V30 1475 C 256.188 -4.80255 -6.01876 0
M  V30 1476 C 256.918 -3.64202 -6.65911 0
M  V30 1477 O 257.128 -2.60694 -5.64732 0
M  V30 1478 C 258.318 -3.93473 -7.1943 0
M  V30 1479 O 258.708 -3.02071 -8.21205 0
M  V30 1480 C 259.198 -3.73047 -5.97036 0
M  V30 1481 C 258.488 -2.58828 -5.25741 0
M  V30 1482 N 258.538 -2.68068 -3.77503 0
M  V30 1483 H 255.699 -5.40332 -6.79951 0
M  V30 1484 H 255.429 -4.41613 -5.32378 0
M  V30 1485 H 256.296 -3.26331 -7.47797 0
M  V30 1486 P 260.258 -2.75334 -8.47391 0
M  V30 1487 O 260.478 -2.44571 -9.90142 0
M  V30 1488 O 261.048 -3.87688 -7.92115 0
M  V30 1489 O 260.508 -1.4459 -7.59357 0
M  V30 1490 C 259.568 -0.347608 -7.69215 0
M  V30 1491 C 260.298 0.96767 -7.52806 0
M  V30 1492 O 260.508 1.21036 -6.1011 0
M  V30 1493 C 261.698 1.04544 -8.13308 0
M  V30 1494 O 262.088 2.38311 -8.41922 0
M  V30 1495 C 262.578 0.491279 -7.02284 0
M  V30 1496 C 261.868 0.996264 -5.77469 0
M  V30 1497 N 261.918 0.0501916 -4.62973 0
M  V30 1498 C 261.838 -1.32786 -4.63244 0
M  V30 1499 N 261.918 -1.86957 -3.44545 0
M  V30 1500 C 262.058 -0.780241 -2.58481 0
M  V30 1501 C 262.188 -0.738536 -1.17757 0
M  V30 1502 N 262.308 0.58337 -0.711393 0
M  V30 1503 C 262.308 1.70816 -1.51017 0
M  V30 1504 N 262.438 2.87826 -0.880757 0
M  V30 1505 N 262.178 1.67126 -2.8339 0
M  V30 1506 C 262.058 0.401421 -3.30572 0
M  V30 1507 H 259.079 -0.374722 -8.67691 0
M  V30 1508 H 258.809 -0.443485 -6.90277 0
M  V30 1509 H 259.676 1.75537 -7.96793 0
M  V30 1510 P 263.638 2.75334 -8.47391 0
M  V30 1511 O 263.858 3.84128 -9.44797 0
M  V30 1512 O 264.428 1.51947 -8.68712 0
M  V30 1513 O 263.888 3.29363 -6.99321 0
M  V30 1514 C 262.948 4.24011 -6.4274 0
M  V30 1515 C 263.678 5.20775 -5.52155 0
M  V30 1516 O 263.888 4.56534 -4.22446 0
M  V30 1517 C 265.078 5.62629 -5.96531 0
M  V30 1518 O 265.468 6.87667 -5.41053 0
M  V30 1519 C 265.958 4.52537 -5.39283 0
M  V30 1520 C 265.248 4.20027 -4.08623 0
M  V30 1521 N 265.298 2.76189 -3.71603 0
M  V30 1522 H 262.459 4.797 -7.24003 0
M  V30 1523 H 262.189 3.69856 -5.84513 0
M  V30 1524 H 263.056 6.10356 -5.41441 0
M  V30 1525 P 267.018 7.20834 -5.23717 0
M  V30 1526 O 267.238 8.66104 -5.38572 0
M  V30 1527 O 267.808 6.33544 -6.1349 0
M  V30 1528 O 267.268 6.7751 -3.72168 0
M  V30 1529 C 266.328 7.20825 -2.7076 0
M  V30 1530 C 267.058 7.45864 -1.40599 0
M  V30 1531 O 267.268 6.17651 -0.734225 0
M  V30 1532 C 268.458 8.05808 -1.51899 0
M  V30 1533 O 268.848 8.74358 -0.335205 0
M  V30 1534 C 269.338 6.83093 -1.70294 0
M  V30 1535 C 268.628 5.79992 -0.836974 0
M  V30 1536 N 268.678 4.41864 -1.38293 0
M  V30 1537 H 265.839 8.13644 -3.0377 0
M  V30 1538 H 265.569 6.42788 -2.55485 0
M  V30 1539 H 266.436 8.12039 -0.792769 0
M  V30 1540 P 270.398 8.91 8.68872e-13 0
M  V30 1541 O 270.618 10.1726 0.733694 0
M  V30 1542 O 271.188 8.73148 -1.23936 0
M  V30 1543 O 270.648 7.66872 0.971405 0
M  V30 1544 C 269.708 7.42309 2.04641 0
M  V30 1545 C 270.438 6.86059 3.24661 0
M  V30 1546 O 270.648 5.42847 3.03646 0
M  V30 1547 C 271.838 7.41196 3.50753 0
M  V30 1548 O 272.228 7.27073 4.86816 0
M  V30 1549 C 272.718 6.5273 2.63741 0
M  V30 1550 C 272.008 5.1842 2.73198 0
M  V30 1551 N 272.058 4.38762 1.4784 0
M  V30 1552 H 269.219 8.36803 2.32493 0
M  V30 1553 H 268.949 6.70197 1.71129 0
M  V30 1554 H 269.816 7.03551 4.13168 0
M  V30 1555 P 273.778 7.20834 5.23717 0
M  V30 1556 O 273.998 7.79853 6.57286 0
M  V30 1557 O 274.568 7.79239 4.12957 0
M  V30 1558 O 274.028 5.63315 5.29344 0
M  V30 1559 C 273.088 4.80255 6.01876 0
M  V30 1560 C 273.818 3.64202 6.65911 0
M  V30 1561 O 274.028 2.60694 5.64732 0
M  V30 1562 C 275.218 3.93473 7.1943 0
M  V30 1563 O 275.608 3.02071 8.21205 0
M  V30 1564 C 276.098 3.73047 5.97036 0
M  V30 1565 C 275.388 2.58828 5.25741 0
M  V30 1566 N 275.438 2.68068 3.77503 0
M  V30 1567 H 272.599 5.40332 6.79951 0
M  V30 1568 H 272.329 4.41613 5.32378 0
M  V30 1569 H 273.196 3.26331 7.47797 0
M  V30 1570 P 277.158 2.75334 8.47391 0
M  V30 1571 O 277.378 2.44619 9.90336 0
M  V30 1572 O 277.948 3.87776 7.92294 0
M  V30 1573 O 277.408 1.4459 7.59357 0
M  V30 1574 C 276.468 0.347653 7.69315 0
M  V30 1575 C 277.198 -0.96767 7.52806 0
M  V30 1576 O 277.408 -1.21055 6.10208 0
M  V30 1577 C 278.598 -1.04557 8.13408 0
M  V30 1578 O 278.988 -2.38311 8.41922 0
M  V30 1579 C 279.478 -0.491279 7.02284 0
M  V30 1580 C 278.768 -0.996264 5.77469 0
M  V30 1581 N 278.818 -0.0501916 4.62973 0
M  V30 1582 C 278.738 1.31969 4.65661 0
M  V30 1583 N 278.808 1.86649 3.48119 0
M  V30 1584 C 278.958 0.792089 2.62406 0
M  V30 1585 C 279.088 0.705684 1.2207 0
M  V30 1586 N 279.098 1.76207 0.413762 0
M  V30 1587 N 279.208 -0.518981 0.685754 0
M  V30 1588 C 279.198 -1.57595 1.49174 0
M  V30 1589 N 279.078 -1.62909 2.80066 0
M  V30 1590 C 278.958 -0.388195 3.3073 0
M  V30 1591 H 275.98 0.374765 8.67791 0
M  V30 1592 H 275.708 0.443613 6.90476 0
M  V30 1593 H 276.576 -1.75559 7.96891 0
M  V30 1594 H 279.231 -1.94563 5.46818 0
M  V30 1595 H 279.511 0.608651 7.04676 0
M  V30 1596 H 280.502 -0.889796 7.09039 0
M  V30 1597 H 278.668 -0.433128 9.04664 0
M  V30 1598 H 278.627 1.89246 5.57664 0
M  V30 1599 H 279.008 2.71005 0.804694 0
M  V30 1600 H 279.197 1.63189 -0.603768 0
M  V30 1601 H 279.305 -2.53475 0.997614 0
M  V30 1602 P 280.538 -2.75334 8.47391 0
M  V30 1603 O 280.758 -3.84128 9.44797 0
M  V30 1604 O 281.328 -1.51947 8.68712 0
M  V30 1605 O 280.788 -3.29363 6.99321 0
M  V30 1606 C 279.848 -4.24011 6.4274 0
M  V30 1607 C 280.578 -5.20775 5.52155 0
M  V30 1608 O 280.788 -4.56534 4.22446 0
M  V30 1609 C 281.978 -5.62629 5.96531 0
M  V30 1610 O 282.368 -6.87667 5.41053 0
M  V30 1611 C 282.858 -4.52537 5.39283 0
M  V30 1612 C 282.148 -4.20027 4.08623 0
M  V30 1613 N 282.198 -2.76189 3.71603 0
M  V30 1614 C 282.118 -1.64862 4.52822 0
M  V30 1615 N 282.198 -0.512671 3.88633 0
M  V30 1616 C 282.338 -0.888083 2.54977 0
M  V30 1617 C 282.468 -0.094668 1.38677 0
M  V30 1618 O 282.488 1.13053 1.28163 0
M  V30 1619 N 282.588 -0.890102 0.232633 0
M  V30 1620 C 282.588 -2.26958 0.21772 0
M  V30 1621 N 282.718 -2.84626 -0.97925 0
M  V30 1622 N 282.458 -3.0178 1.31033 0
M  V30 1623 C 282.338 -2.26781 2.43843 0
M  V30 1624 H 279.359 -4.797 7.24003 0
M  V30 1625 H 279.089 -3.69856 5.84513 0
M  V30 1626 H 279.956 -6.10356 5.41441 0
M  V30 1627 H 282.611 -4.79061 3.27488 0
M  V30 1628 H 282.89 -3.64906 6.05785 0
M  V30 1629 H 283.882 -4.8868 5.2125 0
M  V30 1630 H 282.048 -5.66726 7.06352 0
M  V30 1631 H 281.999 -1.71169 5.60966 0
M  V30 1632 H 282.681 -0.419134 -0.644739 0
M  V30 1633 H 282.718 -3.87332 -1.06098 0
M  V30 1634 H 282.819 -2.26417 -1.82483 0
M  V30 1635 P 283.918 -7.20834 5.23717 0
M  V30 1636 O 284.138 -8.66104 5.38572 0
M  V30 1637 O 284.708 -6.33544 6.1349 0
M  V30 1638 O 284.168 -6.7751 3.72168 0
M  V30 1639 C 283.228 -7.20825 2.7076 0
M  V30 1640 C 283.958 -7.45864 1.40599 0
M  V30 1641 O 284.168 -6.17651 0.734225 0
M  V30 1642 C 285.358 -8.05808 1.51899 0
M  V30 1643 O 285.748 -8.74358 0.335205 0
M  V30 1644 C 286.238 -6.83093 1.70294 0
M  V30 1645 C 285.528 -5.79992 0.836974 0
M  V30 1646 N 285.578 -4.41864 1.38293 0
M  V30 1647 H 282.739 -8.13644 3.0377 0
M  V30 1648 H 282.469 -6.42788 2.55485 0
M  V30 1649 H 283.336 -8.12039 0.792769 0
M  V30 1650 P 287.298 -8.91 -1.02605e-12 0
M  V30 1651 O 287.518 -10.1726 -0.733694 0
M  V30 1652 O 288.088 -8.73148 1.23936 0
M  V30 1653 O 287.548 -7.66872 -0.971405 0
M  V30 1654 C 286.608 -7.42309 -2.04641 0
M  V30 1655 C 287.338 -6.86059 -3.24661 0
M  V30 1656 O 287.548 -5.42847 -3.03646 0
M  V30 1657 C 288.738 -7.41196 -3.50753 0
M  V30 1658 O 289.128 -7.27073 -4.86816 0
M  V30 1659 C 289.618 -6.5273 -2.63741 0
M  V30 1660 C 288.908 -5.1842 -2.73198 0
M  V30 1661 N 288.958 -4.38762 -1.4784 0
M  V30 1662 H 286.119 -8.36803 -2.32493 0
M  V30 1663 H 285.849 -6.70197 -1.71129 0
M  V30 1664 H 286.716 -7.03551 -4.13168 0
M  V30 1665 P 290.678 -7.20834 -5.23717 0
M  V30 1666 O 290.898 -7.79853 -6.57286 0
M  V30 1667 O 291.468 -7.79239 -4.12957 0
M  V30 1668 O 290.928 -5.63315 -5.29344 0
M  V30 1669 C 289.988 -4.80255 -6.01876 0
M  V30 1670 C 290.718 -3.64202 -6.65911 0
M  V30 1671 O 290.928 -2.60694 -5.64732 0
M  V30 1672 C 292.118 -3.93473 -7.1943 0
M  V30 1673 O 292.508 -3.02071 -8.21205 0
M  V30 1674 C 292.998 -3.73047 -5.97036 0
M  V30 1675 C 292.288 -2.58828 -5.25741 0
M  V30 1676 N 292.338 -2.68068 -3.77503 0
M  V30 1677 C 292.258 -3.79715 -2.96723 0
M  V30 1678 N 292.338 -3.5377 -1.68852 0
M  V30 1679 C 292.478 -2.15054 -1.63254 0
M  V30 1680 C 292.608 -1.28964 -0.518571 0
M  V30 1681 N 292.728 0.0538097 -0.918425 0
M  V30 1682 C 292.728 0.494275 -2.22578 0
M  V30 1683 N 292.858 1.81086 -2.40434 0
M  V30 1684 N 292.598 -0.313645 -3.27502 0
M  V30 1685 C 292.478 -1.61829 -2.91033 0
M  V30 1686 H 289.499 -5.40332 -6.79951 0
M  V30 1687 H 289.229 -4.41613 -5.32378 0
M  V30 1688 H 290.096 -3.26331 -7.47797 0
M  V30 1689 P 294.058 -2.75334 -8.47391 0
M  V30 1690 O 294.278 -2.44619 -9.90336 0
M  V30 1691 O 294.848 -3.87776 -7.92294 0
M  V30 1692 O 294.308 -1.4459 -7.59357 0
M  V30 1693 C 293.368 -0.347653 -7.69315 0
M  V30 1694 C 294.098 0.96767 -7.52806 0
M  V30 1695 O 294.308 1.21055 -6.10208 0
M  V30 1696 C 295.498 1.04557 -8.13408 0
M  V30 1697 O 295.888 2.38311 -8.41922 0
M  V30 1698 C 296.378 0.491279 -7.02284 0
M  V30 1699 C 295.668 0.996264 -5.77469 0
M  V30 1700 N 295.718 0.0501916 -4.62973 0
M  V30 1701 H 292.88 -0.374765 -8.67791 0
M  V30 1702 H 292.608 -0.443613 -6.90476 0
M  V30 1703 H 293.476 1.75559 -7.96891 0
M  V30 1704 H 296.131 1.94563 -5.46818 0
M  V30 1705 H 296.411 -0.608651 -7.04676 0
M  V30 1706 H 297.402 0.889796 -7.09039 0
M  V30 1707 H 295.568 0.433128 -9.04664 0
M  V30 1708 P 297.438 2.75334 -8.47391 0
M  V30 1709 O 297.658 3.84128 -9.44797 0
M  V30 1710 O 298.228 1.51947 -8.68712 0
M  V30 1711 O 297.688 3.29363 -6.99321 0
M  V30 1712 C 296.748 4.24011 -6.4274 0
M  V30 1713 C 297.478 5.20775 -5.52155 0
M  V30 1714 O 297.688 4.56534 -4.22446 0
M  V30 1715 C 298.878 5.62629 -5.96531 0
M  V30 1716 O 299.268 6.87667 -5.41053 0
M  V30 1717 C 299.758 4.52537 -5.39283 0
M  V30 1718 C 299.048 4.20027 -4.08623 0
M  V30 1719 N 299.098 2.76189 -3.71603 0
M  V30 1720 C 299.018 1.64862 -4.52822 0
M  V30 1721 N 299.098 0.512671 -3.88633 0
M  V30 1722 C 299.238 0.888083 -2.54977 0
M  V30 1723 C 299.368 0.094668 -1.38677 0
M  V30 1724 N 299.488 0.890102 -0.232633 0
M  V30 1725 C 299.488 2.26958 -0.21772 0
M  V30 1726 N 299.618 2.84626 0.97925 0
M  V30 1727 N 299.358 3.0178 -1.31033 0
M  V30 1728 C 299.238 2.26781 -2.43843 0
M  V30 1729 H 296.259 4.797 -7.24003 0
M  V30 1730 H 295.989 3.69856 -5.84513 0
M  V30 1731 H 296.856 6.10356 -5.41441 0
M  V30 1732 P 300.818 7.20834 -5.23717 0
M  V30 1733 O 301.038 8.66104 -5.38572 0
M  V30 1734 O 301.608 6.33544 -6.1349 0
M  V30 1735 O 301.068 6.7751 -3.72168 0
M  V30 1736 C 300.128 7.20825 -2.7076 0
M  V30 1737 C 300.858 7.45864 -1.40599 0
M  V30 1738 O 301.068 6.17651 -0.734225 0
M  V30 1739 C 302.258 8.05808 -1.51899 0
M  V30 1740 O 302.648 8.74358 -0.335205 0
M  V30 1741 C 303.138 6.83093 -1.70294 0
M  V30 1742 C 302.428 5.79992 -0.836974 0
M  V30 1743 N 302.478 4.41864 -1.38293 0
M  V30 1744 C 302.398 3.99538 -2.69438 0
M  V30 1745 N 302.478 2.69909 -2.84277 0
M  V30 1746 C 302.618 2.21719 -1.5408 0
M  V30 1747 C 302.748 0.891712 -1.06628 0
M  V30 1748 O 302.768 -0.161298 -1.70137 0
M  V30 1749 N 302.868 0.856846 0.334985 0
M  V30 1750 C 302.868 1.9641 1.15789 0
M  V30 1751 N 302.998 1.72708 2.46522 0
M  V30 1752 N 302.738 3.21165 0.713741 0
M  V30 1753 C 302.618 3.26797 -0.639748 0
M  V30 1754 H 299.639 8.13644 -3.0377 0
M  V30 1755 H 299.369 6.42788 -2.55485 0
M  V30 1756 H 300.236 8.12039 -0.792769 0
M  V30 1757 H 302.891 5.80061 0.166416 0
M  V30 1758 H 303.17 6.51287 -2.75604 0
M  V30 1759 H 304.162 7.01734 -1.34462 0
M  V30 1760 H 302.328 8.73674 -2.38337 0
M  V30 1761 H 302.279 4.68207 -3.53221 0
M  V30 1762 H 302.961 -0.0398818 0.767965 0
M  V30 1763 H 302.998 2.50995 3.13503 0
M  V30 1764 H 303.099 0.759148 2.80716 0
M  V30 1765 P 304.198 8.91 1.18324e-12 0
M  V30 1766 O 304.418 10.1726 0.733694 0
M  V30 1767 O 304.988 8.73148 -1.23936 0
M  V30 1768 O 304.448 7.66872 0.971405 0
M  V30 1769 C 303.508 7.42309 2.04641 0
M  V30 1770 C 304.238 6.86059 3.24661 0
M  V30 1771 O 304.448 5.42847 3.03646 0
M  V30 1772 C 305.638 7.41196 3.50753 0
M  V30 1773 O 306.028 7.27073 4.86816 0
M  V30 1774 C 306.518 6.5273 2.63741 0
M  V30 1775 C 305.808 5.1842 2.73198 0
M  V30 1776 N 305.858 4.38762 1.4784 0
M  V30 1777 H 303.019 8.36803 2.32493 0
M  V30 1778 H 302.749 6.70197 1.71129 0
M  V30 1779 H 303.616 7.03551 4.13168 0
M  V30 1780 P 307.578 7.20834 5.23717 0
M  V30 1781 O 307.798 7.79853 6.57286 0
M  V30 1782 O 308.368 7.79239 4.12957 0
M  V30 1783 O 307.828 5.63315 5.29344 0
M  V30 1784 C 306.888 4.80255 6.01876 0
M  V30 1785 C 307.618 3.64202 6.65911 0
M  V30 1786 O 307.828 2.60694 5.64732 0
M  V30 1787 C 309.018 3.93473 7.1943 0
M  V30 1788 O 309.408 3.02071 8.21205 0
M  V30 1789 C 309.898 3.73047 5.97036 0
M  V30 1790 C 309.188 2.58828 5.25741 0
M  V30 1791 N 309.238 2.68068 3.77503 0
M  V30 1792 H 306.399 5.40332 6.79951 0
M  V30 1793 H 306.129 4.41613 5.32378 0
M  V30 1794 H 306.996 3.26331 7.47797 0
M  V30 1795 P 310.958 2.75334 8.47391 0
M  V30 1796 O 311.178 2.44571 9.90142 0
M  V30 1797 O 311.748 3.87688 7.92115 0
M  V30 1798 O 311.208 1.4459 7.59357 0
M  V30 1799 C 310.268 0.347608 7.69215 0
M  V30 1800 C 310.998 -0.96767 7.52806 0
M  V30 1801 O 311.208 -1.21036 6.1011 0
M  V30 1802 C 312.398 -1.04544 8.13308 0
M  V30 1803 O 312.788 -2.38311 8.41922 0
M  V30 1804 C 313.278 -0.491279 7.02284 0
M  V30 1805 C 312.568 -0.996264 5.77469 0
M  V30 1806 N 312.618 -0.0501916 4.62973 0
M  V30 1807 H 309.779 0.374722 8.67691 0
M  V30 1808 H 309.509 0.443485 6.90277 0
M  V30 1809 H 310.376 -1.75537 7.96793 0
M  V30 1810 P 314.338 -2.75334 8.47391 0
M  V30 1811 O 314.558 -3.84204 9.44982 0
M  V30 1812 O 315.128 -1.51982 8.68909 0
M  V30 1813 O 314.588 -3.29363 6.99321 0
M  V30 1814 C 313.648 -4.24066 6.42823 0
M  V30 1815 C 314.378 -5.20775 5.52155 0
M  V30 1816 O 314.588 -4.56607 4.22514 0
M  V30 1817 C 315.778 -5.62697 5.96604 0
M  V30 1818 O 316.168 -6.87667 5.41053 0
M  V30 1819 C 316.658 -4.52537 5.39283 0
M  V30 1820 C 315.948 -4.20027 4.08623 0
M  V30 1821 N 315.998 -2.76189 3.71603 0
M  V30 1822 C 315.918 -1.66944 4.54297 0
M  V30 1823 N 315.988 -0.536169 3.91344 0
M  V30 1824 C 316.138 -0.901569 2.58849 0
M  V30 1825 C 316.268 -0.146599 1.40236 0
M  V30 1826 N 316.278 1.18234 1.37046 0
M  V30 1827 N 316.388 -0.822941 0.249738 0
M  V30 1828 C 316.378 -2.15179 0.280525 0
M  V30 1829 N 316.258 -2.96414 1.30822 0
M  V30 1830 C 316.138 -2.25804 2.44748 0
M  V30 1831 H 313.16 -4.79756 7.24086 0
M  V30 1832 H 312.888 -3.69963 5.84682 0
M  V30 1833 H 313.756 -6.10431 5.41508 0
M  V30 1834 H 316.411 -4.78816 3.28024 0
M  V30 1835 H 316.691 -3.64957 6.05871 0
M  V30 1836 H 317.682 -4.88748 5.21323 0
M  V30 1837 H 315.848 -5.66789 7.0643 0
M  V30 1838 H 315.807 -1.74684 5.62396 0
M  V30 1839 H 316.188 1.71949 2.24394 0
M  V30 1840 H 316.377 1.67511 0.470742 0
M  V30 1841 H 316.485 -2.63704 -0.6828 0
M  V30 1842 P 317.718 -7.20834 5.23717 0
M  V30 1843 O 317.938 -8.66104 5.38572 0
M  V30 1844 O 318.508 -6.33544 6.1349 0
M  V30 1845 O 317.968 -6.7751 3.72168 0
M  V30 1846 C 317.028 -7.20825 2.7076 0
M  V30 1847 C 317.758 -7.45864 1.40599 0
M  V30 1848 O 317.968 -6.17651 0.734225 0
M  V30 1849 C 319.158 -8.05808 1.51899 0
M  V30 1850 O 319.548 -8.74358 0.335205 0
M  V30 1851 C 320.038 -6.83093 1.70294 0
M  V30 1852 C 319.328 -5.79992 0.836974 0
M  V30 1853 N 319.378 -4.41864 1.38293 0
M  V30 1854 H 316.539 -8.13644 3.0377 0
M  V30 1855 H 316.269 -6.42788 2.55485 0
M  V30 1856 H 317.136 -8.12039 0.792769 0
M  V30 1857 P 321.098 -8.91 -1.34042e-12 0
M  V30 1858 O 321.318 -10.1726 -0.733694 0
M  V30 1859 O 321.888 -8.73148 1.23936 0
M  V30 1860 O 321.348 -7.66872 -0.971405 0
M  V30 1861 C 320.408 -7.42309 -2.04641 0
M  V30 1862 C 321.138 -6.86059 -3.24661 0
M  V30 1863 O 321.348 -5.42847 -3.03646 0
M  V30 1864 C 322.538 -7.41196 -3.50753 0
M  V30 1865 O 322.928 -7.27073 -4.86816 0
M  V30 1866 C 323.418 -6.5273 -2.63741 0
M  V30 1867 C 322.708 -5.1842 -2.73198 0
M  V30 1868 N 322.758 -4.38762 -1.4784 0
M  V30 1869 H 319.919 -8.36803 -2.32493 0
M  V30 1870 H 319.649 -6.70197 -1.71129 0
M  V30 1871 H 320.516 -7.03551 -4.13168 0
M  V30 1872 P 324.478 -7.20834 -5.23717 0
M  V30 1873 O 324.698 -7.79853 -6.57286 0
M  V30 1874 O 325.268 -7.79239 -4.12957 0
M  V30 1875 O 324.728 -5.63315 -5.29344 0
M  V30 1876 C 323.788 -4.80255 -6.01876 0
M  V30 1877 C 324.518 -3.64202 -6.65911 0
M  V30 1878 O 324.728 -2.60694 -5.64732 0
M  V30 1879 C 325.918 -3.93473 -7.1943 0
M  V30 1880 O 326.308 -3.02071 -8.21205 0
M  V30 1881 C 326.798 -3.73047 -5.97036 0
M  V30 1882 C 326.088 -2.58828 -5.25741 0
M  V30 1883 N 326.138 -2.68068 -3.77503 0
M  V30 1884 C 326.058 -3.79715 -2.96723 0
M  V30 1885 N 326.138 -3.5377 -1.68852 0
M  V30 1886 C 326.278 -2.15054 -1.63254 0
M  V30 1887 C 326.408 -1.28964 -0.518571 0
M  V30 1888 O 326.428 -1.56826 0.679156 0
M  V30 1889 N 326.528 0.0538097 -0.918425 0
M  V30 1890 C 326.528 0.494275 -2.22578 0
M  V30 1891 N 326.658 1.81086 -2.40434 0
M  V30 1892 N 326.398 -0.313645 -3.27502 0
M  V30 1893 C 326.278 -1.61829 -2.91033 0
M  V30 1894 H 323.299 -5.40332 -6.79951 0
M  V30 1895 H 323.029 -4.41613 -5.32378 0
M  V30 1896 H 323.896 -3.26331 -7.47797 0
M  V30 1897 H 326.551 -1.63422 -5.56814 0
M  V30 1898 H 326.83 -4.63374 -5.34244 0
M  V30 1899 H 327.822 -3.44728 -6.25838 0
M  V30 1900 H 325.988 -4.96652 -7.57263 0
M  V30 1901 H 325.939 -4.80617 -3.3614 0
M  V30 1902 H 326.621 0.742702 -0.199384 0
M  V30 1903 H 326.658 2.20598 -3.35588 0
M  V30 1904 H 326.759 2.43518 -1.58945 0
M  V30 1905 P 327.858 -2.75334 -8.47391 0
M  V30 1906 O 328.078 -2.44571 -9.90142 0
M  V30 1907 O 328.648 -3.87688 -7.92115 0
M  V30 1908 O 328.108 -1.4459 -7.59357 0
M  V30 1909 C 327.168 -0.347608 -7.69215 0
M  V30 1910 C 327.898 0.96767 -7.52806 0
M  V30 1911 O 328.108 1.21036 -6.1011 0
M  V30 1912 C 329.298 1.04544 -8.13308 0
M  V30 1913 O 329.688 2.38311 -8.41922 0
M  V30 1914 C 330.178 0.491279 -7.02284 0
M  V30 1915 C 329.468 0.996264 -5.77469 0
M  V30 1916 N 329.518 0.0501916 -4.62973 0
M  V30 1917 H 326.679 -0.374722 -8.67691 0
M  V30 1918 H 326.409 -0.443485 -6.90277 0
M  V30 1919 H 327.276 1.75537 -7.96793 0
M  V30 1920 P 331.238 2.75334 -8.47391 0
M  V30 1921 O 331.458 3.84204 -9.44982 0
M  V30 1922 O 332.028 1.51982 -8.68909 0
M  V30 1923 O 331.488 3.29363 -6.99321 0
M  V30 1924 C 330.548 4.24066 -6.42823 0
M  V30 1925 C 331.278 5.20775 -5.52155 0
M  V30 1926 O 331.488 4.56607 -4.22514 0
M  V30 1927 C 332.678 5.62697 -5.96604 0
M  V30 1928 O 333.068 6.87667 -5.41053 0
M  V30 1929 C 333.558 4.52537 -5.39283 0
M  V30 1930 C 332.848 4.20027 -4.08623 0
M  V30 1931 N 332.898 2.76189 -3.71603 0
M  V30 1932 C 332.818 1.66944 -4.54297 0
M  V30 1933 N 332.888 0.536169 -3.91344 0
M  V30 1934 C 333.038 0.901569 -2.58849 0
M  V30 1935 C 333.168 0.146599 -1.40236 0
M  V30 1936 N 333.178 -1.18234 -1.37046 0
M  V30 1937 N 333.288 0.822941 -0.249738 0
M  V30 1938 C 333.278 2.15179 -0.280525 0
M  V30 1939 N 333.158 2.96414 -1.30822 0
M  V30 1940 C 333.038 2.25804 -2.44748 0
M  V30 1941 H 330.06 4.79756 -7.24086 0
M  V30 1942 H 329.788 3.69963 -5.84682 0
M  V30 1943 H 330.656 6.10431 -5.41508 0
M  V30 1944 H 333.311 4.78816 -3.28024 0
M  V30 1945 H 333.591 3.64957 -6.05871 0
M  V30 1946 H 334.582 4.88748 -5.21323 0
M  V30 1947 H 332.748 5.66789 -7.0643 0
M  V30 1948 H 332.707 1.74684 -5.62396 0
M  V30 1949 H 333.088 -1.71949 -2.24394 0
M  V30 1950 H 333.277 -1.67511 -0.470742 0
M  V30 1951 H 333.385 2.63704 0.6828 0
M  V30 1952 P 334.618 7.20834 -5.23717 0
M  V30 1953 O 334.838 8.66104 -5.38572 0
M  V30 1954 O 335.408 6.33544 -6.1349 0
M  V30 1955 O 334.868 6.7751 -3.72168 0
M  V30 1956 C 333.928 7.20825 -2.7076 0
M  V30 1957 C 334.658 7.45864 -1.40599 0
M  V30 1958 O 334.868 6.17651 -0.734225 0
M  V30 1959 C 336.058 8.05808 -1.51899 0
M  V30 1960 O 336.448 8.74358 -0.335205 0
M  V30 1961 C 336.938 6.83093 -1.70294 0
M  V30 1962 C 336.228 5.79992 -0.836974 0
M  V30 1963 N 336.278 4.41864 -1.38293 0
M  V30 1964 C 336.198 3.99538 -2.69438 0
M  V30 1965 N 336.278 2.69909 -2.84277 0
M  V30 1966 C 336.418 2.21719 -1.5408 0
M  V30 1967 C 336.548 0.891712 -1.06628 0
M  V30 1968 N 336.668 0.856846 0.334985 0
M  V30 1969 C 336.668 1.9641 1.15789 0
M  V30 1970 N 336.798 1.72708 2.46522 0
M  V30 1971 N 336.538 3.21165 0.713741 0
M  V30 1972 C 336.418 3.26797 -0.639748 0
M  V30 1973 H 333.439 8.13644 -3.0377 0
M  V30 1974 H 333.169 6.42788 -2.55485 0
M  V30 1975 H 334.036 8.12039 -0.792769 0
M  V30 1976 P 337.998 8.91 1.4976e-12 0
M  V30 1977 O 338.218 10.1746 0.733838 0
M  V30 1978 O 338.788 8.73346 -1.23964 0
M  V30 1979 O 338.248 7.66872 0.971405 0
M  V30 1980 C 337.308 7.42405 2.04668 0
M  V30 1981 C 338.038 6.86059 3.24661 0
M  V30 1982 O 338.248 5.42934 3.03695 0
M  V30 1983 C 339.438 7.41287 3.50796 0
M  V30 1984 O 339.828 7.27073 4.86816 0
M  V30 1985 C 340.318 6.5273 2.63741 0
M  V30 1986 C 339.608 5.1842 2.73198 0
M  V30 1987 N 339.658 4.38762 1.4784 0
M  V30 1988 C 339.578 4.83651 0.183876 0
M  V30 1989 N 339.648 3.88759 -0.699393 0
M  V30 1990 C 339.798 2.7404 0.0575568 0
M  V30 1991 C 339.928 1.37902 -0.293928 0
M  V30 1992 N 339.938 0.938021 -1.54797 0
M  V30 1993 N 340.048 0.491817 0.70549 0
M  V30 1994 C 340.038 0.931735 1.95979 0
M  V30 1995 N 339.918 2.16017 2.41481 0
M  V30 1996 C 339.798 3.02547 1.39121 0
M  V30 1997 H 336.82 8.36899 2.3252 0
M  V30 1998 H 336.548 6.70391 1.71179 0
M  V30 1999 H 337.416 7.03638 4.13219 0
M  V30 2000 H 340.071 4.59931 3.54016 0
M  V30 2001 H 340.351 6.88995 1.59871 0
M  V30 2002 H 341.342 6.4684 3.0373 0
M  V30 2003 H 339.508 8.47002 3.20749 0
M  V30 2004 H 339.467 5.8885 -0.0765548 0
M  V30 2005 H 339.848 1.60276 -2.32875 0
M  V30 2006 H 340.037 -0.0699355 -1.73859 0
M  V30 2007 H 340.145 0.165507 2.71897 0
M  V30 2008 P 341.378 7.20834 5.23717 0
M  V30 2009 O 341.598 7.7993 6.57351 0
M  V30 2010 O 342.168 7.79328 4.13004 0
M  V30 2011 O 341.628 5.63315 5.29344 0
M  V30 2012 C 340.688 4.80193 6.01798 0
M  V30 2013 C 341.418 3.64202 6.65911 0
M  V30 2014 O 341.628 2.60694 5.64732 0
M  V30 2015 C 342.818 3.93473 7.1943 0
M  V30 2016 O 343.208 3.02071 8.21205 0
M  V30 2017 C 343.698 3.73047 5.97036 0
M  V30 2018 C 342.988 2.58828 5.25741 0
M  V30 2019 N 343.038 2.6801 3.77422 0
M  V30 2020 C 343.188 1.50443 3.07133 0
M  V30 2021 O 343.278 0.419406 3.61576 0
M  V30 2022 N 343.228 1.6403 1.69677 0
M  V30 2023 C 343.138 2.81206 0.986255 0
M  V30 2024 C 342.988 3.99158 1.80325 0
M  V30 2025 C 342.938 3.89779 3.1476 0
M  V30 2026 H 340.198 5.40332 6.79951 0
M  V30 2027 H 339.929 4.41549 5.32301 0
M  V30 2028 H 340.796 3.26331 7.47797 0
M  V30 2029 H 343.451 1.6395 5.56554 0
M  V30 2030 H 343.73 4.63439 5.3432 0
M  V30 2031 H 344.722 3.44728 6.25838 0
M  V30 2032 H 342.888 4.96652 7.57263 0
M  V30 2033 H 342.817 4.80159 3.74441 0
M  V30 2034 P 344.758 2.75334 8.47391 0
M  V30 2035 O 344.978 2.44571 9.90142 0
M  V30 2036 O 345.548 3.87688 7.92115 0
M  V30 2037 O 345.008 1.4459 7.59357 0
M  V30 2038 C 344.068 0.347608 7.69215 0
M  V30 2039 C 344.798 -0.96767 7.52806 0
M  V30 2040 O 345.008 -1.21036 6.1011 0
M  V30 2041 C 346.198 -1.04544 8.13308 0
M  V30 2042 O 346.588 -2.38311 8.41922 0
M  V30 2043 C 347.078 -0.491279 7.02284 0
M  V30 2044 C 346.368 -0.996264 5.77469 0
M  V30 2045 N 346.418 -0.0501916 4.62973 0
M  V30 2046 H 343.579 0.374722 8.67691 0
M  V30 2047 H 343.309 0.443485 6.90277 0
M  V30 2048 H 344.176 -1.75537 7.96793 0
M  V30 2049 P 348.138 -2.75334 8.47391 0
M  V30 2050 O 348.358 -3.84128 9.44797 0
M  V30 2051 O 348.928 -1.51947 8.68712 0
M  V30 2052 O 348.388 -3.29363 6.99321 0
M  V30 2053 C 347.448 -4.24011 6.4274 0
M  V30 2054 C 348.178 -5.20775 5.52155 0
M  V30 2055 O 348.388 -4.56534 4.22446 0
M  V30 2056 C 349.578 -5.62629 5.96531 0
M  V30 2057 O 349.968 -6.87667 5.41053 0
M  V30 2058 C 350.458 -4.52537 5.39283 0
M  V30 2059 C 349.748 -4.20027 4.08623 0
M  V30 2060 N 349.798 -2.76189 3.71603 0
M  V30 2061 H 346.959 -4.797 7.24003 0
M  V30 2062 H 346.689 -3.69856 5.84513 0
M  V30 2063 H 347.556 -6.10356 5.41441 0
M  V30 2064 P 351.518 -7.20834 5.23717 0
M  V30 2065 O 351.738 -8.66274 5.38678 0
M  V30 2066 O 352.308 -6.33687 6.13629 0
M  V30 2067 O 351.768 -6.7751 3.72168 0
M  V30 2068 C 350.828 -7.20919 2.70795 0
M  V30 2069 C 351.558 -7.45864 1.40599 0
M  V30 2070 O 351.768 -6.17751 0.734343 0
M  V30 2071 C 352.958 -8.05906 1.51917 0
M  V30 2072 O 353.348 -8.74358 0.335205 0
M  V30 2073 C 353.838 -6.83093 1.70294 0
M  V30 2074 C 353.128 -5.79992 0.836974 0
M  V30 2075 N 353.178 -4.41864 1.38293 0
M  V30 2076 H 350.34 -8.13738 3.03804 0
M  V30 2077 H 350.068 -6.42974 2.55559 0
M  V30 2078 H 350.936 -8.12139 0.792866 0
M  V30 2079 H 353.591 -5.80178 -0.160643 0
M  V30 2080 H 353.871 -6.51379 2.75643 0
M  V30 2081 H 354.862 -7.01832 1.3448 0
M  V30 2082 H 353.028 -8.73771 2.38364 0
M  V30 2083 P 354.898 -8.91 -1.65478e-12 0
M  V30 2084 O 355.118 -10.1726 -0.733694 0
M  V30 2085 O 355.688 -8.73148 1.23936 0
M  V30 2086 O 355.148 -7.66872 -0.971405 0
M  V30 2087 C 354.208 -7.42309 -2.04641 0
M  V30 2088 C 354.938 -6.86059 -3.24661 0
M  V30 2089 O 355.148 -5.42847 -3.03646 0
M  V30 2090 C 356.338 -7.41196 -3.50753 0
M  V30 2091 O 356.728 -7.27073 -4.86816 0
M  V30 2092 C 357.218 -6.5273 -2.63741 0
M  V30 2093 C 356.508 -5.1842 -2.73198 0
M  V30 2094 N 356.558 -4.38762 -1.4784 0
M  V30 2095 H 353.719 -8.36803 -2.32493 0
M  V30 2096 H 353.449 -6.70197 -1.71129 0
M  V30 2097 H 354.316 -7.03551 -4.13168 0
M  V30 2098 P 358.278 -7.20834 -5.23717 0
M  V30 2099 O 358.498 -7.79853 -6.57286 0
M  V30 2100 O 359.068 -7.79239 -4.12957 0
M  V30 2101 O 358.528 -5.63315 -5.29344 0
M  V30 2102 C 357.588 -4.80255 -6.01876 0
M  V30 2103 C 358.318 -3.64202 -6.65911 0
M  V30 2104 O 358.528 -2.60694 -5.64732 0
M  V30 2105 C 359.718 -3.93473 -7.1943 0
M  V30 2106 O 360.108 -3.02071 -8.21205 0
M  V30 2107 C 360.598 -3.73047 -5.97036 0
M  V30 2108 C 359.888 -2.58828 -5.25741 0
M  V30 2109 N 359.938 -2.68068 -3.77503 0
M  V30 2110 H 357.099 -5.40332 -6.79951 0
M  V30 2111 H 356.829 -4.41613 -5.32378 0
M  V30 2112 H 357.696 -3.26331 -7.47797 0
M  V30 2113 P 361.658 -2.75334 -8.47391 0
M  V30 2114 O 361.878 -2.44571 -9.90142 0
M  V30 2115 O 362.448 -3.87688 -7.92115 0
M  V30 2116 O 361.908 -1.4459 -7.59357 0
M  V30 2117 C 360.968 -0.347608 -7.69215 0
M  V30 2118 C 361.698 0.96767 -7.52806 0
M  V30 2119 O 361.908 1.21036 -6.1011 0
M  V30 2120 C 363.098 1.04544 -8.13308 0
M  V30 2121 O 363.488 2.38311 -8.41922 0
M  V30 2122 C 363.978 0.491279 -7.02284 0
M  V30 2123 C 363.268 0.996264 -5.77469 0
M  V30 2124 N 363.318 0.0501916 -4.62973 0
M  V30 2125 H 360.479 -0.374722 -8.67691 0
M  V30 2126 H 360.209 -0.443485 -6.90277 0
M  V30 2127 H 361.076 1.75537 -7.96793 0
M  V30 2128 P 365.038 2.75334 -8.47391 0
M  V30 2129 O 365.258 3.84128 -9.44797 0
M  V30 2130 O 365.828 1.51947 -8.68712 0
M  V30 2131 O 365.288 3.29363 -6.99321 0
M  V30 2132 C 364.348 4.24011 -6.4274 0
M  V30 2133 C 365.078 5.20775 -5.52155 0
M  V30 2134 O 365.288 4.56534 -4.22446 0
M  V30 2135 C 366.478 5.62629 -5.96531 0
M  V30 2136 O 366.868 6.87667 -5.41053 0
M  V30 2137 C 367.358 4.52537 -5.39283 0
M  V30 2138 C 366.648 4.20027 -4.08623 0
M  V30 2139 N 366.698 2.76189 -3.71603 0
M  V30 2140 C 366.618 1.64862 -4.52822 0
M  V30 2141 N 366.698 0.512671 -3.88633 0
M  V30 2142 C 366.838 0.888083 -2.54977 0
M  V30 2143 C 366.968 0.094668 -1.38677 0
M  V30 2144 O 366.988 -1.13053 -1.28163 0
M  V30 2145 N 367.088 0.890102 -0.232633 0
M  V30 2146 C 367.088 2.26958 -0.21772 0
M  V30 2147 N 367.218 2.84626 0.97925 0
M  V30 2148 N 366.958 3.0178 -1.31033 0
M  V30 2149 C 366.838 2.26781 -2.43843 0
M  V30 2150 H 363.859 4.797 -7.24003 0
M  V30 2151 H 363.589 3.69856 -5.84513 0
M  V30 2152 H 364.456 6.10356 -5.41441 0
M  V30 2153 H 367.111 4.79061 -3.27488 0
M  V30 2154 H 367.39 3.64906 -6.05785 0
M  V30 2155 H 368.382 4.8868 -5.2125 0
M  V30 2156 H 366.548 5.66726 -7.06352 0
M  V30 2157 H 366.499 1.71169 -5.60966 0
M  V30 2158 H 367.181 0.419134 0.644739 0
M  V30 2159 H 367.218 3.87332 1.06098 0
M  V30 2160 H 367.319 2.26417 1.82483 0
M  V30 2161 P 368.418 7.20834 -5.23717 0
M  V30 2162 O 368.638 8.66104 -5.38572 0
M  V30 2163 O 369.208 6.33544 -6.1349 0
M  V30 2164 O 368.668 6.7751 -3.72168 0
M  V30 2165 C 367.728 7.20825 -2.7076 0
M  V30 2166 C 368.458 7.45864 -1.40599 0
M  V30 2167 O 368.668 6.17651 -0.734225 0
M  V30 2168 C 369.858 8.05808 -1.51899 0
M  V30 2169 O 370.248 8.74358 -0.335205 0
M  V30 2170 C 370.738 6.83093 -1.70294 0
M  V30 2171 C 370.028 5.79992 -0.836974 0
M  V30 2172 N 370.078 4.41864 -1.38293 0
M  V30 2173 H 367.239 8.13644 -3.0377 0
M  V30 2174 H 366.969 6.42788 -2.55485 0
M  V30 2175 H 367.836 8.12039 -0.792769 0
M  V30 2176 P 371.798 8.91 1.81197e-12 0
M  V30 2177 O 372.018 10.1726 0.733694 0
M  V30 2178 O 372.588 8.73148 -1.23936 0
M  V30 2179 O 372.048 7.66872 0.971405 0
M  V30 2180 C 371.108 7.42309 2.04641 0
M  V30 2181 C 371.838 6.86059 3.24661 0
M  V30 2182 O 372.048 5.42847 3.03646 0
M  V30 2183 C 373.238 7.41196 3.50753 0
M  V30 2184 O 373.628 7.27073 4.86816 0
M  V30 2185 C 374.118 6.5273 2.63741 0
M  V30 2186 C 373.408 5.1842 2.73198 0
M  V30 2187 N 373.458 4.38762 1.4784 0
M  V30 2188 H 370.619 8.36803 2.32493 0
M  V30 2189 H 370.349 6.70197 1.71129 0
M  V30 2190 H 371.216 7.03551 4.13168 0
M  V30 2191 P 375.178 7.20834 5.23717 0
M  V30 2192 O 375.398 7.79853 6.57286 0
M  V30 2193 O 375.968 7.79239 4.12957 0
M  V30 2194 O 375.428 5.63315 5.29344 0
M  V30 2195 C 374.488 4.80255 6.01876 0
M  V30 2196 C 375.218 3.64202 6.65911 0
M  V30 2197 O 375.428 2.60694 5.64732 0
M  V30 2198 C 376.618 3.93473 7.1943 0
M  V30 2199 O 377.008 3.02071 8.21205 0
M  V30 2200 C 377.498 3.73047 5.97036 0
M  V30 2201 C 376.788 2.58828 5.25741 0
M  V30 2202 N 376.838 2.68068 3.77503 0
M  V30 2203 H 373.999 5.40332 6.79951 0
M  V30 2204 H 373.729 4.41613 5.32378 0
M  V30 2205 H 374.596 3.26331 7.47797 0
M  V30 2206 P 378.558 2.75334 8.47391 0
M  V30 2207 O 378.778 2.44571 9.90142 0
M  V30 2208 O 379.348 3.87688 7.92115 0
M  V30 2209 O 378.808 1.4459 7.59357 0
M  V30 2210 C 377.868 0.347608 7.69215 0
M  V30 2211 C 378.598 -0.96767 7.52806 0
M  V30 2212 O 378.808 -1.21036 6.1011 0
M  V30 2213 C 379.998 -1.04544 8.13308 0
M  V30 2214 O 380.388 -2.38311 8.41922 0
M  V30 2215 C 380.878 -0.491279 7.02284 0
M  V30 2216 C 380.168 -0.996264 5.77469 0
M  V30 2217 N 380.218 -0.0501916 4.62973 0
M  V30 2218 H 377.379 0.374722 8.67691 0
M  V30 2219 H 377.109 0.443485 6.90277 0
M  V30 2220 H 377.976 -1.75537 7.96793 0
M  V30 2221 P 381.938 -2.75334 8.47391 0
M  V30 2222 O 382.158 -3.84128 9.44797 0
M  V30 2223 O 382.728 -1.51947 8.68712 0
M  V30 2224 O 382.188 -3.29363 6.99321 0
M  V30 2225 C 381.248 -4.24011 6.4274 0
M  V30 2226 C 381.978 -5.20775 5.52155 0
M  V30 2227 O 382.188 -4.56534 4.22446 0
M  V30 2228 C 383.378 -5.62629 5.96531 0
M  V30 2229 O 383.768 -6.87667 5.41053 0
M  V30 2230 C 384.258 -4.52537 5.39283 0
M  V30 2231 C 383.548 -4.20027 4.08623 0
M  V30 2232 N 383.598 -2.76189 3.71603 0
M  V30 2233 H 380.759 -4.797 7.24003 0
M  V30 2234 H 380.489 -3.69856 5.84513 0
M  V30 2235 H 381.356 -6.10356 5.41441 0
M  V30 2236 P 385.318 -7.20834 5.23717 0
M  V30 2237 O 385.538 -8.66104 5.38572 0
M  V30 2238 O 386.108 -6.33544 6.1349 0
M  V30 2239 O 385.568 -6.7751 3.72168 0
M  V30 2240 C 384.628 -7.20825 2.7076 0
M  V30 2241 C 385.358 -7.45864 1.40599 0
M  V30 2242 O 385.568 -6.17651 0.734225 0
M  V30 2243 C 386.758 -8.05808 1.51899 0
M  V30 2244 O 387.148 -8.74358 0.335205 0
M  V30 2245 C 387.638 -6.83093 1.70294 0
M  V30 2246 C 386.928 -5.79992 0.836974 0
M  V30 2247 N 386.978 -4.41864 1.38293 0
M  V30 2248 H 384.139 -8.13644 3.0377 0
M  V30 2249 H 383.869 -6.42788 2.55485 0
M  V30 2250 H 384.736 -8.12039 0.792769 0
M  V30 2251 P 388.698 -8.91 -1.96915e-12 0
M  V30 2252 O 388.918 -10.1726 -0.733694 0
M  V30 2253 O 389.488 -8.73148 1.23936 0
M  V30 2254 O 388.948 -7.66872 -0.971405 0
M  V30 2255 C 388.008 -7.42309 -2.04641 0
M  V30 2256 C 388.738 -6.86059 -3.24661 0
M  V30 2257 O 388.948 -5.42847 -3.03646 0
M  V30 2258 C 390.138 -7.41196 -3.50753 0
M  V30 2259 O 390.528 -7.27073 -4.86816 0
M  V30 2260 C 391.018 -6.5273 -2.63741 0
M  V30 2261 C 390.308 -5.1842 -2.73198 0
M  V30 2262 N 390.358 -4.38762 -1.4784 0
M  V30 2263 H 387.519 -8.36803 -2.32493 0
M  V30 2264 H 387.249 -6.70197 -1.71129 0
M  V30 2265 H 388.116 -7.03551 -4.13168 0
M  V30 2266 P 392.078 -7.20834 -5.23717 0
M  V30 2267 O 392.298 -7.80006 -6.57415 0
M  V30 2268 O 392.868 -7.79416 -4.13051 0
M  V30 2269 O 392.328 -5.63315 -5.29344 0
M  V30 2270 C 391.388 -4.80318 -6.01954 0
M  V30 2271 C 392.118 -3.64202 -6.65911 0
M  V30 2272 O 392.328 -2.60736 -5.64823 0
M  V30 2273 C 393.518 -3.93521 -7.19518 0
M  V30 2274 O 393.908 -3.02071 -8.21205 0
M  V30 2275 C 394.398 -3.73047 -5.97036 0
M  V30 2276 C 393.688 -2.58828 -5.25741 0
M  V30 2277 N 393.738 -2.68068 -3.77503 0
M  V30 2278 H 390.9 -5.40394 -6.8003 0
M  V30 2279 H 390.628 -4.41741 -5.32532 0
M  V30 2280 H 391.496 -3.26371 -7.47889 0
M  V30 2281 H 394.151 -1.64007 -5.56746 0
M  V30 2282 H 394.431 -4.63439 -5.3432 0
M  V30 2283 H 395.422 -3.44776 -6.25925 0
M  V30 2284 H 393.588 -4.96707 -7.57347 0
M  V30 2285 P 395.458 -2.75334 -8.47391 0
M  V30 2286 O 395.678 -2.44571 -9.90142 0
M  V30 2287 O 396.248 -3.87688 -7.92115 0
M  V30 2288 O 395.708 -1.4459 -7.59357 0
M  V30 2289 C 394.768 -0.347608 -7.69215 0
M  V30 2290 C 395.498 0.96767 -7.52806 0
M  V30 2291 O 395.708 1.21036 -6.1011 0
M  V30 2292 C 396.898 1.04544 -8.13308 0
M  V30 2293 O 397.288 2.38311 -8.41922 0
M  V30 2294 C 397.778 0.491279 -7.02284 0
M  V30 2295 C 397.068 0.996264 -5.77469 0
M  V30 2296 N 397.118 0.0501916 -4.62973 0
M  V30 2297 H 394.279 -0.374722 -8.67691 0
M  V30 2298 H 394.009 -0.443485 -6.90277 0
M  V30 2299 H 394.876 1.75537 -7.96793 0
M  V30 2300 P 398.838 2.75334 -8.47391 0
M  V30 2301 O 399.058 3.84128 -9.44797 0
M  V30 2302 O 399.628 1.51947 -8.68712 0
M  V30 2303 O 399.088 3.29363 -6.99321 0
M  V30 2304 C 398.148 4.24011 -6.4274 0
M  V30 2305 C 398.878 5.20775 -5.52155 0
M  V30 2306 O 399.088 4.56534 -4.22446 0
M  V30 2307 C 400.278 5.62629 -5.96531 0
M  V30 2308 O 400.668 6.87667 -5.41053 0
M  V30 2309 C 401.158 4.52537 -5.39283 0
M  V30 2310 C 400.448 4.20027 -4.08623 0
M  V30 2311 N 400.498 2.76189 -3.71603 0
M  V30 2312 H 397.659 4.797 -7.24003 0
M  V30 2313 H 397.389 3.69856 -5.84513 0
M  V30 2314 H 398.256 6.10356 -5.41441 0
M  V30 2315 P 402.218 7.20834 -5.23717 0
M  V30 2316 O 402.438 8.66104 -5.38572 0
M  V30 2317 O 403.008 6.33544 -6.1349 0
M  V30 2318 O 402.468 6.7751 -3.72168 0
M  V30 2319 C 401.528 7.20825 -2.7076 0
M  V30 2320 C 402.258 7.45864 -1.40599 0
M  V30 2321 O 402.468 6.17651 -0.734225 0
M  V30 2322 C 403.658 8.05808 -1.51899 0
M  V30 2323 O 404.048 8.74358 -0.335205 0
M  V30 2324 C 404.538 6.83093 -1.70294 0
M  V30 2325 C 403.828 5.79992 -0.836974 0
M  V30 2326 N 403.878 4.41864 -1.38293 0
M  V30 2327 H 401.039 8.13644 -3.0377 0
M  V30 2328 H 400.769 6.42788 -2.55485 0
M  V30 2329 H 401.636 8.12039 -0.792769 0
M  V30 2330 P 405.598 8.91 2.12633e-12 0
M  V30 2331 O 405.818 10.1726 0.733694 0
M  V30 2332 O 406.388 8.73148 -1.23936 0
M  V30 2333 O 405.848 7.66872 0.971405 0
M  V30 2334 C 404.908 7.42309 2.04641 0
M  V30 2335 C 405.638 6.86059 3.24661 0
M  V30 2336 O 405.848 5.42847 3.03646 0
M  V30 2337 C 407.038 7.41196 3.50753 0
M  V30 2338 O 407.428 7.27073 4.86816 0
M  V30 2339 C 407.918 6.5273 2.63741 0
M  V30 2340 C 407.208 5.1842 2.73198 0
M  V30 2341 N 407.258 4.38762 1.4784 0
M  V30 2342 H 404.419 8.36803 2.32493 0
M  V30 2343 H 404.149 6.70197 1.71129 0
M  V30 2344 H 405.016 7.03551 4.13168 0
M  V30 2345 P 408.978 7.20834 5.23717 0
M  V30 2346 O 409.198 7.80006 6.57415 0
M  V30 2347 O 409.768 7.79416 4.13051 0
M  V30 2348 O 409.228 5.63315 5.29344 0
M  V30 2349 C 408.288 4.80318 6.01954 0
M  V30 2350 C 409.018 3.64202 6.65911 0
M  V30 2351 O 409.228 2.60736 5.64823 0
M  V30 2352 C 410.418 3.93521 7.19518 0
M  V30 2353 O 410.808 3.02071 8.21205 0
M  V30 2354 C 411.298 3.73047 5.97036 0
M  V30 2355 C 410.588 2.58828 5.25741 0
M  V30 2356 N 410.638 2.68068 3.77503 0
M  V30 2357 H 407.8 5.40394 6.8003 0
M  V30 2358 H 407.528 4.41741 5.32532 0
M  V30 2359 H 408.396 3.26371 7.47889 0
M  V30 2360 H 411.051 1.64007 5.56746 0
M  V30 2361 H 411.331 4.63439 5.3432 0
M  V30 2362 H 412.322 3.44776 6.25925 0
M  V30 2363 H 410.488 4.96707 7.57347 0
M  V30 2364 P 412.358 2.75334 8.47391 0
M  V30 2365 O 412.578 2.44571 9.90142 0
M  V30 2366 O 413.148 3.87688 7.92115 0
M  V30 2367 O 412.608 1.4459 7.59357 0
M  V30 2368 C 411.668 0.347608 7.69215 0
M  V30 2369 C 412.398 -0.96767 7.52806 0
M  V30 2370 O 412.608 -1.21036 6.1011 0
M  V30 2371 C 413.798 -1.04544 8.13308 0
M  V30 2372 O 414.188 -2.38311 8.41922 0
M  V30 2373 C 414.678 -0.491279 7.02284 0
M  V30 2374 C 413.968 -0.996264 5.77469 0
M  V30 2375 N 414.018 -0.0501916 4.62973 0
M  V30 2376 H 411.179 0.374722 8.67691 0
M  V30 2377 H 410.909 0.443485 6.90277 0
M  V30 2378 H 411.776 -1.75537 7.96793 0
M  V30 2379 P 415.738 -2.75334 8.47391 0
M  V30 2380 O 415.958 -3.84128 9.44797 0
M  V30 2381 O 416.528 -1.51947 8.68712 0
M  V30 2382 O 415.988 -3.29363 6.99321 0
M  V30 2383 C 415.048 -4.24011 6.4274 0
M  V30 2384 C 415.778 -5.20775 5.52155 0
M  V30 2385 O 415.988 -4.56534 4.22446 0
M  V30 2386 C 417.178 -5.62629 5.96531 0
M  V30 2387 O 417.568 -6.87667 5.41053 0
M  V30 2388 C 418.058 -4.52537 5.39283 0
M  V30 2389 C 417.348 -4.20027 4.08623 0
M  V30 2390 N 417.398 -2.76189 3.71603 0
M  V30 2391 H 414.559 -4.797 7.24003 0
M  V30 2392 H 414.289 -3.69856 5.84513 0
M  V30 2393 H 415.156 -6.10356 5.41441 0
M  V30 2394 P 419.118 -7.20834 5.23717 0
M  V30 2395 O 419.338 -8.66104 5.38572 0
M  V30 2396 O 419.908 -6.33544 6.1349 0
M  V30 2397 O 419.368 -6.7751 3.72168 0
M  V30 2398 C 418.428 -7.20825 2.7076 0
M  V30 2399 C 419.158 -7.45864 1.40599 0
M  V30 2400 O 419.368 -6.17651 0.734225 0
M  V30 2401 C 420.558 -8.05808 1.51899 0
M  V30 2402 O 420.948 -8.74358 0.335205 0
M  V30 2403 C 421.438 -6.83093 1.70294 0
M  V30 2404 C 420.728 -5.79992 0.836974 0
M  V30 2405 N 420.778 -4.41864 1.38293 0
M  V30 2406 H 417.939 -8.13644 3.0377 0
M  V30 2407 H 417.669 -6.42788 2.55485 0
M  V30 2408 H 418.536 -8.12039 0.792769 0
M  V30 2409 P 422.497 -8.91 -2.28351e-12 0
M  V30 2410 O 422.717 -10.1726 -0.733694 0
M  V30 2411 O 423.287 -8.73148 1.23936 0
M  V30 2412 O 422.747 -7.66872 -0.971405 0
M  V30 2413 C 421.807 -7.42309 -2.04641 0
M  V30 2414 C 422.537 -6.86059 -3.24661 0
M  V30 2415 O 422.747 -5.42847 -3.03646 0
M  V30 2416 C 423.937 -7.41196 -3.50753 0
M  V30 2417 O 424.327 -7.27073 -4.86816 0
M  V30 2418 C 424.817 -6.5273 -2.63741 0
M  V30 2419 C 424.107 -5.1842 -2.73198 0
M  V30 2420 N 424.157 -4.38762 -1.4784 0
M  V30 2421 H 421.318 -8.36803 -2.32493 0
M  V30 2422 H 421.048 -6.70197 -1.71129 0
M  V30 2423 H 421.915 -7.03551 -4.13168 0
M  V30 2424 P 425.877 -7.20834 -5.23717 0
M  V30 2425 O 426.097 -7.7993 -6.57351 0
M  V30 2426 O 426.667 -7.79328 -4.13004 0
M  V30 2427 O 426.127 -5.63315 -5.29344 0
M  V30 2428 C 425.187 -4.80193 -6.01798 0
M  V30 2429 C 425.917 -3.64202 -6.65911 0
M  V30 2430 O 426.127 -2.60694 -5.64732 0
M  V30 2431 C 427.317 -3.93473 -7.1943 0
M  V30 2432 O 427.707 -3.02071 -8.21205 0
M  V30 2433 C 428.197 -3.73047 -5.97036 0
M  V30 2434 C 427.487 -2.58828 -5.25741 0
M  V30 2435 N 427.537 -2.6801 -3.77422 0
M  V30 2436 C 427.687 -1.50443 -3.07133 0
M  V30 2437 O 427.777 -0.419406 -3.61576 0
M  V30 2438 N 427.727 -1.6403 -1.69677 0
M  V30 2439 C 427.637 -2.81206 -0.986255 0
M  V30 2440 O 427.687 -2.80892 0.249754 0
M  V30 2441 C 427.487 -3.99158 -1.80325 0
M  V30 2442 C 427.377 -5.29309 -1.06921 0
M  V30 2443 C 427.437 -3.89779 -3.1476 0
M  V30 2444 H 424.697 -5.40332 -6.79951 0
M  V30 2445 H 424.428 -4.41549 -5.32301 0
M  V30 2446 H 425.295 -3.26331 -7.47797 0
M  V30 2447 H 427.95 -1.6395 -5.56554 0
M  V30 2448 H 428.229 -4.63439 -5.3432 0
M  V30 2449 H 429.221 -3.44728 -6.25838 0
M  V30 2450 H 427.387 -4.96652 -7.57263 0
M  V30 2451 H 427.316 -4.80159 -3.74441 0
M  V30 2452 H 428.346 -5.81459 -1.09608 0
M  V30 2453 H 426.609 -5.9187 -1.54487 0
M  V30 2454 H 427.097 -5.10095 -0.0220288 0
M  V30 2455 H 427.833 -0.798962 -1.16664 0
M  V30 2456 P 429.257 -2.75334 -8.47391 0
M  V30 2457 O 429.477 -2.44571 -9.90142 0
M  V30 2458 O 430.047 -3.87688 -7.92115 0
M  V30 2459 O 429.507 -1.4459 -7.59357 0
M  V30 2460 C 428.567 -0.347608 -7.69215 0
M  V30 2461 C 429.297 0.96767 -7.52806 0
M  V30 2462 O 429.507 1.21036 -6.1011 0
M  V30 2463 C 430.697 1.04544 -8.13308 0
M  V30 2464 O 431.087 2.38311 -8.41922 0
M  V30 2465 C 431.577 0.491279 -7.02284 0
M  V30 2466 C 430.867 0.996264 -5.77469 0
M  V30 2467 N 430.917 0.0501916 -4.62973 0
M  V30 2468 H 428.078 -0.374722 -8.67691 0
M  V30 2469 H 427.808 -0.443485 -6.90277 0
M  V30 2470 H 428.675 1.75537 -7.96793 0
M  V30 2471 P 432.637 2.75334 -8.47391 0
M  V30 2472 O 432.857 3.84204 -9.44982 0
M  V30 2473 O 433.427 1.51982 -8.68909 0
M  V30 2474 O 432.887 3.29363 -6.99321 0
M  V30 2475 C 431.947 4.24066 -6.42823 0
M  V30 2476 C 432.677 5.20775 -5.52155 0
M  V30 2477 O 432.887 4.56607 -4.22514 0
M  V30 2478 C 434.077 5.62697 -5.96604 0
M  V30 2479 O 434.467 6.87667 -5.41053 0
M  V30 2480 C 434.957 4.52537 -5.39283 0
M  V30 2481 C 434.247 4.20027 -4.08623 0
M  V30 2482 N 434.297 2.76189 -3.71603 0
M  V30 2483 C 434.217 1.66944 -4.54297 0
M  V30 2484 N 434.287 0.536169 -3.91344 0
M  V30 2485 C 434.437 0.901569 -2.58849 0
M  V30 2486 C 434.567 0.146599 -1.40236 0
M  V30 2487 N 434.577 -1.18234 -1.37046 0
M  V30 2488 N 434.687 0.822941 -0.249738 0
M  V30 2489 C 434.677 2.15179 -0.280525 0
M  V30 2490 N 434.557 2.96414 -1.30822 0
M  V30 2491 C 434.437 2.25804 -2.44748 0
M  V30 2492 H 431.459 4.79756 -7.24086 0
M  V30 2493 H 431.187 3.69963 -5.84682 0
M  V30 2494 H 432.055 6.10431 -5.41508 0
M  V30 2495 H 434.71 4.78816 -3.28024 0
M  V30 2496 H 434.99 3.64957 -6.05871 0
M  V30 2497 H 435.981 4.88748 -5.21323 0
M  V30 2498 H 434.147 5.66789 -7.0643 0
M  V30 2499 H 434.106 1.74684 -5.62396 0
M  V30 2500 H 434.487 -1.71949 -2.24394 0
M  V30 2501 H 434.676 -1.67511 -0.470742 0
M  V30 2502 H 434.784 2.63704 0.6828 0
M  V30 2503 P 436.017 7.20834 -5.23717 0
M  V30 2504 O 436.237 8.66189 -5.38625 0
M  V30 2505 O 436.807 6.33615 -6.1356 0
M  V30 2506 O 436.267 6.7751 -3.72168 0
M  V30 2507 C 435.327 7.20732 -2.70725 0
M  V30 2508 C 436.057 7.45864 -1.40599 0
M  V30 2509 O 436.267 6.17651 -0.734225 0
M  V30 2510 C 437.457 8.05808 -1.51899 0
M  V30 2511 O 437.847 8.74358 -0.335205 0
M  V30 2512 C 438.337 6.83093 -1.70294 0
M  V30 2513 C 437.627 5.79992 -0.836974 0
M  V30 2514 N 437.677 4.41769 -1.38263 0
M  V30 2515 C 437.827 3.38591 -0.481702 0
M  V30 2516 O 437.917 3.56839 0.718452 0
M  V30 2517 N 437.867 2.1206 -1.03569 0
M  V30 2518 C 437.777 1.80696 -2.36966 0
M  V30 2519 O 437.827 0.630473 -2.74862 0
M  V30 2520 C 437.627 2.94845 -3.23898 0
M  V30 2521 C 437.517 2.65253 -4.70362 0
M  V30 2522 C 437.577 4.19803 -2.73435 0
M  V30 2523 H 434.837 8.13644 -3.0377 0
M  V30 2524 H 434.568 6.42695 -2.55448 0
M  V30 2525 H 435.435 8.12039 -0.792769 0
M  V30 2526 H 438.09 5.79978 0.160587 0
M  V30 2527 H 438.369 6.51379 -2.75643 0
M  V30 2528 H 439.361 7.01734 -1.34462 0
M  V30 2529 H 437.527 8.73674 -2.38337 0
M  V30 2530 H 437.456 5.04492 -3.4095 0
M  V30 2531 H 438.486 2.83924 -5.1913 0
M  V30 2532 H 436.749 3.29824 -5.15163 0
M  V30 2533 H 437.237 1.59723 -4.84449 0
M  V30 2534 H 437.973 1.35644 -0.399345 0
M  V30 2535 P 439.397 8.91 2.44069e-12 0
M  V30 2536 O 439.617 10.1736 0.733766 0
M  V30 2537 O 440.187 8.73247 -1.2395 0
M  V30 2538 O 439.647 7.66872 0.971405 0
M  V30 2539 C 438.707 7.42212 2.04614 0
M  V30 2540 C 439.437 6.86059 3.24661 0
M  V30 2541 O 439.647 5.42847 3.03646 0
M  V30 2542 C 440.837 7.41196 3.50753 0
M  V30 2543 O 441.227 7.27073 4.86816 0
M  V30 2544 C 441.717 6.5273 2.63741 0
M  V30 2545 C 441.007 5.1842 2.73198 0
M  V30 2546 N 441.057 4.38668 1.47808 0
M  V30 2547 C 441.207 3.02239 1.60048 0
M  V30 2548 O 441.297 2.46459 2.67869 0
M  V30 2549 N 441.247 2.32436 0.408571 0
M  V30 2550 C 441.157 2.85471 -0.854993 0
M  V30 2551 O 441.207 2.12566 -1.8531 0
M  V30 2552 C 441.007 4.28918 -0.887335 0
M  V30 2553 C 440.897 4.91066 -2.24619 0
M  V30 2554 C 440.957 5.00349 0.255399 0
M  V30 2555 H 438.217 8.36803 2.32493 0
M  V30 2556 H 437.948 6.701 1.71105 0
M  V30 2557 H 438.815 7.03551 4.13168 0
M  V30 2558 H 441.47 4.59773 3.53894 0
M  V30 2559 H 441.749 6.88995 1.59871 0
M  V30 2560 H 442.741 6.46749 3.03687 0
M  V30 2561 H 440.907 8.46908 3.20714 0
M  V30 2562 H 440.836 6.08548 0.206986 0
M  V30 2563 H 441.866 5.34836 -2.53099 0
M  V30 2564 H 440.129 5.69638 -2.2291 0
M  V30 2565 H 440.617 4.13971 -2.98044 0
M  V30 2566 H 441.353 1.33211 0.474216 0
M  V30 2567 P 442.777 7.20834 5.23717 0
M  V30 2568 O 442.997 7.79853 6.57286 0
M  V30 2569 O 443.567 7.79239 4.12957 0
M  V30 2570 O 443.027 5.63315 5.29344 0
M  V30 2571 C 442.087 4.80255 6.01876 0
M  V30 2572 C 442.817 3.64202 6.65911 0
M  V30 2573 O 443.027 2.60694 5.64732 0
M  V30 2574 C 444.217 3.93473 7.1943 0
M  V30 2575 O 444.607 3.02071 8.21205 0
M  V30 2576 C 445.097 3.73047 5.97036 0
M  V30 2577 C 444.387 2.58828 5.25741 0
M  V30 2578 N 444.437 2.68068 3.77503 0
M  V30 2579 H 441.598 5.40332 6.79951 0
M  V30 2580 H 441.328 4.41613 5.32378 0
M  V30 2581 H 442.195 3.26331 7.47797 0
M  V30 2582 P 446.157 2.75334 8.47391 0
M  V30 2583 O 446.377 2.44571 9.90142 0
M  V30 2584 O 446.947 3.87688 7.92115 0
M  V30 2585 O 446.407 1.4459 7.59357 0
M  V30 2586 C 445.467 0.347608 7.69215 0
M  V30 2587 C 446.197 -0.96767 7.52806 0
M  V30 2588 O 446.407 -1.21036 6.1011 0
M  V30 2589 C 447.597 -1.04544 8.13308 0
M  V30 2590 O 447.987 -2.38311 8.41922 0
M  V30 2591 C 448.477 -0.491279 7.02284 0
M  V30 2592 C 447.767 -0.996264 5.77469 0
M  V30 2593 N 447.817 -0.0501916 4.62973 0
M  V30 2594 H 444.978 0.374722 8.67691 0
M  V30 2595 H 444.708 0.443485 6.90277 0
M  V30 2596 H 445.575 -1.75537 7.96793 0
M  V30 2597 P 449.537 -2.75334 8.47391 0
M  V30 2598 O 449.757 -3.84128 9.44797 0
M  V30 2599 O 450.327 -1.51947 8.68712 0
M  V30 2600 O 449.787 -3.29363 6.99321 0
M  V30 2601 C 448.847 -4.24011 6.4274 0
M  V30 2602 C 449.577 -5.20775 5.52155 0
M  V30 2603 O 449.787 -4.56534 4.22446 0
M  V30 2604 C 450.977 -5.62629 5.96531 0
M  V30 2605 O 451.367 -6.87667 5.41053 0
M  V30 2606 C 451.857 -4.52537 5.39283 0
M  V30 2607 C 451.147 -4.20027 4.08623 0
M  V30 2608 N 451.197 -2.76189 3.71603 0
M  V30 2609 H 448.358 -4.797 7.24003 0
M  V30 2610 H 448.088 -3.69856 5.84513 0
M  V30 2611 H 448.955 -6.10356 5.41441 0
M  V30 2612 P 452.917 -7.20834 5.23717 0
M  V30 2613 O 453.137 -8.66104 5.38572 0
M  V30 2614 O 453.707 -6.33544 6.1349 0
M  V30 2615 O 453.167 -6.7751 3.72168 0
M  V30 2616 C 452.227 -7.20825 2.7076 0
M  V30 2617 C 452.957 -7.45864 1.40599 0
M  V30 2618 O 453.167 -6.17651 0.734225 0
M  V30 2619 C 454.357 -8.05808 1.51899 0
M  V30 2620 O 454.747 -8.74358 0.335205 0
M  V30 2621 C 455.237 -6.83093 1.70294 0
M  V30 2622 C 454.527 -5.79992 0.836974 0
M  V30 2623 N 454.577 -4.41864 1.38293 0
M  V30 2624 H 451.738 -8.13644 3.0377 0
M  V30 2625 H 451.468 -6.42788 2.55485 0
M  V30 2626 H 452.335 -8.12039 0.792769 0
M  V30 2627 P 456.297 -8.91 -2.59788e-12 0
M  V30 2628 O 456.517 -10.1726 -0.733694 0
M  V30 2629 O 457.087 -8.73148 1.23936 0
M  V30 2630 O 456.547 -7.66872 -0.971405 0
M  V30 2631 C 455.607 -7.42309 -2.04641 0
M  V30 2632 C 456.337 -6.86059 -3.24661 0
M  V30 2633 O 456.547 -5.42847 -3.03646 0
M  V30 2634 C 457.737 -7.41196 -3.50753 0
M  V30 2635 O 458.127 -7.27073 -4.86816 0
M  V30 2636 C 458.617 -6.5273 -2.63741 0
M  V30 2637 C 457.907 -5.1842 -2.73198 0
M  V30 2638 N 457.957 -4.38762 -1.4784 0
M  V30 2639 H 455.118 -8.36803 -2.32493 0
M  V30 2640 H 454.848 -6.70197 -1.71129 0
M  V30 2641 H 455.715 -7.03551 -4.13168 0
M  V30 2642 P 459.677 -7.20834 -5.23717 0
M  V30 2643 O 459.897 -7.7993 -6.57351 0
M  V30 2644 O 460.467 -7.79328 -4.13004 0
M  V30 2645 O 459.927 -5.63315 -5.29344 0
M  V30 2646 C 458.987 -4.80193 -6.01798 0
M  V30 2647 C 459.717 -3.64202 -6.65911 0
M  V30 2648 O 459.927 -2.60694 -5.64732 0
M  V30 2649 C 461.117 -3.93473 -7.1943 0
M  V30 2650 O 461.507 -3.02071 -8.21205 0
M  V30 2651 C 461.997 -3.73047 -5.97036 0
M  V30 2652 C 461.287 -2.58828 -5.25741 0
M  V30 2653 N 461.337 -2.6801 -3.77422 0
M  V30 2654 C 461.487 -1.50443 -3.07133 0
M  V30 2655 O 461.577 -0.419406 -3.61576 0
M  V30 2656 N 461.527 -1.6403 -1.69677 0
M  V30 2657 C 461.437 -2.81206 -0.986255 0
M  V30 2658 O 461.487 -2.80892 0.249754 0
M  V30 2659 C 461.287 -3.99158 -1.80325 0
M  V30 2660 C 461.177 -5.29309 -1.06921 0
M  V30 2661 C 461.237 -3.89779 -3.1476 0
M  V30 2662 H 458.497 -5.40332 -6.79951 0
M  V30 2663 H 458.228 -4.41549 -5.32301 0
M  V30 2664 H 459.095 -3.26331 -7.47797 0
M  V30 2665 H 461.75 -1.6395 -5.56554 0
M  V30 2666 H 462.029 -4.63439 -5.3432 0
M  V30 2667 H 463.021 -3.44728 -6.25838 0
M  V30 2668 H 461.187 -4.96652 -7.57263 0
M  V30 2669 H 461.116 -4.80159 -3.74441 0
M  V30 2670 H 462.146 -5.81459 -1.09608 0
M  V30 2671 H 460.409 -5.9187 -1.54487 0
M  V30 2672 H 460.897 -5.10095 -0.0220288 0
M  V30 2673 H 461.633 -0.798962 -1.16664 0
M  V30 2674 P 463.057 -2.75334 -8.47391 0
M  V30 2675 O 463.277 -2.44571 -9.90142 0
M  V30 2676 O 463.847 -3.87688 -7.92115 0
M  V30 2677 O 463.307 -1.4459 -7.59357 0
M  V30 2678 C 462.367 -0.347608 -7.69215 0
M  V30 2679 C 463.097 0.96767 -7.52806 0
M  V30 2680 O 463.307 1.21036 -6.1011 0
M  V30 2681 C 464.497 1.04544 -8.13308 0
M  V30 2682 O 464.887 2.38311 -8.41922 0
M  V30 2683 C 465.377 0.491279 -7.02284 0
M  V30 2684 C 464.667 0.996264 -5.77469 0
M  V30 2685 N 464.717 0.0501916 -4.62973 0
M  V30 2686 H 461.878 -0.374722 -8.67691 0
M  V30 2687 H 461.608 -0.443485 -6.90277 0
M  V30 2688 H 462.475 1.75537 -7.96793 0
M  V30 2689 P 466.437 2.75334 -8.47391 0
M  V30 2690 O 466.657 3.84166 -9.4489 0
M  V30 2691 O 467.227 1.51964 -8.6881 0
M  V30 2692 O 466.687 3.29363 -6.99321 0
M  V30 2693 C 465.747 4.23956 -6.42656 0
M  V30 2694 C 466.477 5.20775 -5.52155 0
M  V30 2695 O 466.687 4.56534 -4.22446 0
M  V30 2696 C 467.877 5.62629 -5.96531 0
M  V30 2697 O 468.267 6.87667 -5.41053 0
M  V30 2698 C 468.757 4.52537 -5.39283 0
M  V30 2699 C 468.047 4.20027 -4.08623 0
M  V30 2700 N 468.097 2.7613 -3.71522 0
M  V30 2701 C 468.247 2.45612 -2.37989 0
M  V30 2702 O 468.337 3.30919 -1.51621 0
M  V30 2703 N 468.287 1.10684 -2.08435 0
M  V30 2704 C 468.197 0.0690084 -2.9792 0
M  V30 2705 O 468.247 -1.10553 -2.59426 0
M  V30 2706 C 468.047 0.481522 -4.35345 0
M  V30 2707 C 467.937 -0.618778 -5.36443 0
M  V30 2708 C 467.997 1.78906 -4.67968 0
M  V30 2709 H 465.257 4.797 -7.24003 0
M  V30 2710 H 464.988 3.69802 -5.84429 0
M  V30 2711 H 465.855 6.10356 -5.41441 0
M  V30 2712 H 468.51 4.78651 -3.27911 0
M  V30 2713 H 468.789 3.64957 -6.05871 0
M  V30 2714 H 469.781 4.8868 -5.2125 0
M  V30 2715 H 467.947 5.66726 -7.06352 0
M  V30 2716 H 467.876 2.07737 -5.72367 0
M  V30 2717 H 468.906 -0.754375 -5.86871 0
M  V30 2718 H 467.169 -0.359721 -6.10641 0
M  V30 2719 H 467.657 -1.55533 -4.8581 0
M  V30 2720 H 468.393 0.862651 -1.12037 0
M  V30 2721 P 469.817 7.20834 -5.23717 0
M  V30 2722 O 470.037 8.66104 -5.38572 0
M  V30 2723 O 470.607 6.33544 -6.1349 0
M  V30 2724 O 470.067 6.7751 -3.72168 0
M  V30 2725 C 469.127 7.20825 -2.7076 0
M  V30 2726 C 469.857 7.45864 -1.40599 0
M  V30 2727 O 470.067 6.17651 -0.734225 0
M  V30 2728 C 471.257 8.05808 -1.51899 0
M  V30 2729 O 471.647 8.74358 -0.335205 0
M  V30 2730 C 472.137 6.83093 -1.70294 0
M  V30 2731 C 471.427 5.79992 -0.836974 0
M  V30 2732 N 471.477 4.41864 -1.38293 0
M  V30 2733 H 468.638 8.13644 -3.0377 0
M  V30 2734 H 468.368 6.42788 -2.55485 0
M  V30 2735 H 469.235 8.12039 -0.792769 0
M  V30 2736 P 473.197 8.91 2.75506e-12 0
M  V30 2737 O 473.417 10.1746 0.733838 0
M  V30 2738 O 473.987 8.73346 -1.23964 0
M  V30 2739 O 473.447 7.66872 0.971405 0
M  V30 2740 C 472.507 7.42405 2.04668 0
M  V30 2741 C 473.237 6.86059 3.24661 0
M  V30 2742 O 473.447 5.42934 3.03695 0
M  V30 2743 C 474.637 7.41287 3.50796 0
M  V30 2744 O 475.027 7.27073 4.86816 0
M  V30 2745 C 475.517 6.5273 2.63741 0
M  V30 2746 C 474.807 5.1842 2.73198 0
M  V30 2747 N 474.857 4.38762 1.4784 0
M  V30 2748 C 474.777 4.83651 0.183876 0
M  V30 2749 N 474.847 3.88759 -0.699393 0
M  V30 2750 C 474.997 2.7404 0.0575568 0
M  V30 2751 C 475.127 1.37902 -0.293928 0
M  V30 2752 N 475.137 0.938021 -1.54797 0
M  V30 2753 N 475.247 0.491817 0.70549 0
M  V30 2754 C 475.237 0.931735 1.95979 0
M  V30 2755 N 475.117 2.16017 2.41481 0
M  V30 2756 C 474.997 3.02547 1.39121 0
M  V30 2757 H 472.019 8.36899 2.3252 0
M  V30 2758 H 471.747 6.70391 1.71179 0
M  V30 2759 H 472.615 7.03638 4.13219 0
M  V30 2760 H 475.27 4.59931 3.54016 0
M  V30 2761 H 475.55 6.88995 1.59871 0
M  V30 2762 H 476.541 6.4684 3.0373 0
M  V30 2763 H 474.707 8.47002 3.20749 0
M  V30 2764 H 474.666 5.8885 -0.0765548 0
M  V30 2765 H 475.047 1.60276 -2.32875 0
M  V30 2766 H 475.236 -0.0699355 -1.73859 0
M  V30 2767 H 475.344 0.165507 2.71897 0
M  V30 2768 P 476.577 7.20834 5.23717 0
M  V30 2769 O 476.797 7.79853 6.57286 0
M  V30 2770 O 477.367 7.79239 4.12957 0
M  V30 2771 O 476.827 5.63315 5.29344 0
M  V30 2772 C 475.887 4.80255 6.01876 0
M  V30 2773 C 476.617 3.64202 6.65911 0
M  V30 2774 O 476.827 2.60694 5.64732 0
M  V30 2775 C 478.017 3.93473 7.1943 0
M  V30 2776 O 478.407 3.02071 8.21205 0
M  V30 2777 C 478.897 3.73047 5.97036 0
M  V30 2778 C 478.187 2.58828 5.25741 0
M  V30 2779 N 478.237 2.68068 3.77503 0
M  V30 2780 H 475.398 5.40332 6.79951 0
M  V30 2781 H 475.128 4.41613 5.32378 0
M  V30 2782 H 475.995 3.26331 7.47797 0
M  V30 2783 P 479.957 2.75334 8.47391 0
M  V30 2784 O 480.177 2.44571 9.90142 0
M  V30 2785 O 480.747 3.87688 7.92115 0
M  V30 2786 O 480.207 1.4459 7.59357 0
M  V30 2787 C 479.267 0.347608 7.69215 0
M  V30 2788 C 479.997 -0.96767 7.52806 0
M  V30 2789 O 480.207 -1.21036 6.1011 0
M  V30 2790 C 481.397 -1.04544 8.13308 0
M  V30 2791 O 481.787 -2.38311 8.41922 0
M  V30 2792 C 482.277 -0.491279 7.02284 0
M  V30 2793 C 481.567 -0.996264 5.77469 0
M  V30 2794 N 481.617 -0.0501916 4.62973 0
M  V30 2795 H 478.778 0.374722 8.67691 0
M  V30 2796 H 478.508 0.443485 6.90277 0
M  V30 2797 H 479.375 -1.75537 7.96793 0
M  V30 2798 P 483.337 -2.75334 8.47391 0
M  V30 2799 O 483.557 -3.84204 9.44982 0
M  V30 2800 O 484.127 -1.51982 8.68909 0
M  V30 2801 O 483.587 -3.29363 6.99321 0
M  V30 2802 C 482.647 -4.24066 6.42823 0
M  V30 2803 C 483.377 -5.20775 5.52155 0
M  V30 2804 O 483.587 -4.56607 4.22514 0
M  V30 2805 C 484.777 -5.62697 5.96604 0
M  V30 2806 O 485.167 -6.87667 5.41053 0
M  V30 2807 C 485.657 -4.52537 5.39283 0
M  V30 2808 C 484.947 -4.20027 4.08623 0
M  V30 2809 N 484.997 -2.76189 3.71603 0
M  V30 2810 C 484.917 -1.66944 4.54297 0
M  V30 2811 N 484.987 -0.536169 3.91344 0
M  V30 2812 C 485.137 -0.901569 2.58849 0
M  V30 2813 C 485.267 -0.146599 1.40236 0
M  V30 2814 N 485.277 1.18234 1.37046 0
M  V30 2815 N 485.387 -0.822941 0.249738 0
M  V30 2816 C 485.377 -2.15179 0.280525 0
M  V30 2817 N 485.257 -2.96414 1.30822 0
M  V30 2818 C 485.137 -2.25804 2.44748 0
M  V30 2819 H 482.159 -4.79756 7.24086 0
M  V30 2820 H 481.887 -3.69963 5.84682 0
M  V30 2821 H 482.755 -6.10431 5.41508 0
M  V30 2822 H 485.41 -4.78816 3.28024 0
M  V30 2823 H 485.69 -3.64957 6.05871 0
M  V30 2824 H 486.681 -4.88748 5.21323 0
M  V30 2825 H 484.847 -5.66789 7.0643 0
M  V30 2826 H 484.806 -1.74684 5.62396 0
M  V30 2827 H 485.187 1.71949 2.24394 0
M  V30 2828 H 485.376 1.67511 0.470742 0
M  V30 2829 H 485.484 -2.63704 -0.6828 0
M  V30 2830 P 486.717 -7.20834 5.23717 0
M  V30 2831 O 486.937 -8.66104 5.38572 0
M  V30 2832 O 487.507 -6.33544 6.1349 0
M  V30 2833 O 486.967 -6.7751 3.72168 0
M  V30 2834 C 486.027 -7.20825 2.7076 0
M  V30 2835 C 486.757 -7.45864 1.40599 0
M  V30 2836 O 486.967 -6.17651 0.734225 0
M  V30 2837 C 488.157 -8.05808 1.51899 0
M  V30 2838 O 488.547 -8.74358 0.335205 0
M  V30 2839 C 489.037 -6.83093 1.70294 0
M  V30 2840 C 488.327 -5.79992 0.836974 0
M  V30 2841 N 488.377 -4.41864 1.38293 0
M  V30 2842 H 485.538 -8.13644 3.0377 0
M  V30 2843 H 485.268 -6.42788 2.55485 0
M  V30 2844 H 486.135 -8.12039 0.792769 0
M  V30 2845 P 490.097 -8.91 -2.91224e-12 0
M  V30 2846 O 490.317 -10.1726 -0.733694 0
M  V30 2847 O 490.887 -8.73148 1.23936 0
M  V30 2848 O 490.347 -7.66872 -0.971405 0
M  V30 2849 C 489.407 -7.42309 -2.04641 0
M  V30 2850 C 490.137 -6.86059 -3.24661 0
M  V30 2851 O 490.347 -5.42847 -3.03646 0
M  V30 2852 C 491.537 -7.41196 -3.50753 0
M  V30 2853 O 491.927 -7.27073 -4.86816 0
M  V30 2854 C 492.417 -6.5273 -2.63741 0
M  V30 2855 C 491.707 -5.1842 -2.73198 0
M  V30 2856 N 491.757 -4.38762 -1.4784 0
M  V30 2857 H 488.918 -8.36803 -2.32493 0
M  V30 2858 H 488.648 -6.70197 -1.71129 0
M  V30 2859 H 489.515 -7.03551 -4.13168 0
M  V30 2860 P 493.477 -7.20834 -5.23717 0
M  V30 2861 O 493.697 -7.79853 -6.57286 0
M  V30 2862 O 494.267 -7.79239 -4.12957 0
M  V30 2863 O 493.727 -5.63315 -5.29344 0
M  V30 2864 C 492.787 -4.80255 -6.01876 0
M  V30 2865 C 493.517 -3.64202 -6.65911 0
M  V30 2866 O 493.727 -2.60694 -5.64732 0
M  V30 2867 C 494.917 -3.93473 -7.1943 0
M  V30 2868 O 495.307 -3.02071 -8.21205 0
M  V30 2869 C 495.797 -3.73047 -5.97036 0
M  V30 2870 C 495.087 -2.58828 -5.25741 0
M  V30 2871 N 495.137 -2.68068 -3.77503 0
M  V30 2872 H 492.298 -5.40332 -6.79951 0
M  V30 2873 H 492.028 -4.41613 -5.32378 0
M  V30 2874 H 492.895 -3.26331 -7.47797 0
M  V30 2875 P 496.857 -2.75334 -8.47391 0
M  V30 2876 O 497.077 -2.44619 -9.90336 0
M  V30 2877 O 497.647 -3.87776 -7.92294 0
M  V30 2878 O 497.107 -1.4459 -7.59357 0
M  V30 2879 C 496.167 -0.347653 -7.69315 0
M  V30 2880 C 496.897 0.96767 -7.52806 0
M  V30 2881 O 497.107 1.21055 -6.10208 0
M  V30 2882 C 498.297 1.04557 -8.13408 0
M  V30 2883 O 498.687 2.38311 -8.41922 0
M  V30 2884 C 499.177 0.491279 -7.02284 0
M  V30 2885 C 498.467 0.996264 -5.77469 0
M  V30 2886 N 498.517 0.0501916 -4.62973 0
M  V30 2887 C 498.437 -1.31969 -4.65661 0
M  V30 2888 N 498.507 -1.86649 -3.48119 0
M  V30 2889 C 498.657 -0.792089 -2.62406 0
M  V30 2890 C 498.787 -0.705684 -1.2207 0
M  V30 2891 N 498.797 -1.76207 -0.413762 0
M  V30 2892 N 498.907 0.518981 -0.685754 0
M  V30 2893 C 498.897 1.57595 -1.49174 0
M  V30 2894 N 498.777 1.62909 -2.80066 0
M  V30 2895 C 498.657 0.388195 -3.3073 0
M  V30 2896 H 495.679 -0.374765 -8.67791 0
M  V30 2897 H 495.407 -0.443613 -6.90476 0
M  V30 2898 H 496.275 1.75559 -7.96891 0
M  V30 2899 H 498.93 1.94563 -5.46818 0
M  V30 2900 H 499.21 -0.608651 -7.04676 0
M  V30 2901 H 500.201 0.889796 -7.09039 0
M  V30 2902 H 498.367 0.433128 -9.04664 0
M  V30 2903 H 498.326 -1.89246 -5.57664 0
M  V30 2904 H 498.707 -2.71005 -0.804694 0
M  V30 2905 H 498.896 -1.63189 0.603768 0
M  V30 2906 H 499.004 2.53475 -0.997614 0
M  V30 2907 P 500.237 2.75334 -8.47391 0
M  V30 2908 O 500.457 3.84128 -9.44797 0
M  V30 2909 O 501.027 1.51947 -8.68712 0
M  V30 2910 O 500.487 3.29363 -6.99321 0
M  V30 2911 C 499.547 4.24011 -6.4274 0
M  V30 2912 C 500.277 5.20775 -5.52155 0
M  V30 2913 O 500.487 4.56534 -4.22446 0
M  V30 2914 C 501.677 5.62629 -5.96531 0
M  V30 2915 O 502.067 6.87667 -5.41053 0
M  V30 2916 C 502.557 4.52537 -5.39283 0
M  V30 2917 C 501.847 4.20027 -4.08623 0
M  V30 2918 N 501.897 2.76189 -3.71603 0
M  V30 2919 H 499.058 4.797 -7.24003 0
M  V30 2920 H 498.788 3.69856 -5.84513 0
M  V30 2921 H 499.655 6.10356 -5.41441 0
M  V30 2922 P 503.617 7.20834 -5.23717 0
M  V30 2923 O 503.837 8.66104 -5.38572 0
M  V30 2924 O 504.407 6.33544 -6.1349 0
M  V30 2925 O 503.867 6.7751 -3.72168 0
M  V30 2926 C 502.927 7.20825 -2.7076 0
M  V30 2927 C 503.657 7.45864 -1.40599 0
M  V30 2928 O 503.867 6.17651 -0.734225 0
M  V30 2929 C 505.057 8.05808 -1.51899 0
M  V30 2930 O 505.447 8.74358 -0.335205 0
M  V30 2931 C 505.937 6.83093 -1.70294 0
M  V30 2932 C 505.227 5.79992 -0.836974 0
M  V30 2933 N 505.277 4.41864 -1.38293 0
M  V30 2934 H 502.438 8.13644 -3.0377 0
M  V30 2935 H 502.168 6.42788 -2.55485 0
M  V30 2936 H 503.035 8.12039 -0.792769 0
M  V30 2937 P 506.997 8.91 3.06942e-12 0
M  V30 2938 O 507.217 10.1726 0.733694 0
M  V30 2939 O 507.787 8.73148 -1.23936 0
M  V30 2940 O 507.247 7.66872 0.971405 0
M  V30 2941 C 506.307 7.42309 2.04641 0
M  V30 2942 C 507.037 6.86059 3.24661 0
M  V30 2943 O 507.247 5.42847 3.03646 0
M  V30 2944 C 508.437 7.41196 3.50753 0
M  V30 2945 O 508.827 7.27073 4.86816 0
M  V30 2946 C 509.317 6.5273 2.63741 0
M  V30 2947 C 508.607 5.1842 2.73198 0
M  V30 2948 N 508.657 4.38762 1.4784 0
M  V30 2949 H 505.818 8.36803 2.32493 0
M  V30 2950 H 505.548 6.70197 1.71129 0
M  V30 2951 H 506.415 7.03551 4.13168 0
M  V30 2952 P 510.377 7.20834 5.23717 0
M  V30 2953 O 510.597 7.79853 6.57286 0
M  V30 2954 O 511.167 7.79239 4.12957 0
M  V30 2955 O 510.627 5.63315 5.29344 0
M  V30 2956 C 509.687 4.80255 6.01876 0
M  V30 2957 C 510.417 3.64202 6.65911 0
M  V30 2958 O 510.627 2.60694 5.64732 0
M  V30 2959 C 511.817 3.93473 7.1943 0
M  V30 2960 O 512.207 3.02071 8.21205 0
M  V30 2961 C 512.697 3.73047 5.97036 0
M  V30 2962 C 511.987 2.58828 5.25741 0
M  V30 2963 N 512.037 2.68068 3.77503 0
M  V30 2964 C 511.957 3.79715 2.96723 0
M  V30 2965 N 512.037 3.5377 1.68852 0
M  V30 2966 C 512.177 2.15054 1.63254 0
M  V30 2967 C 512.307 1.28964 0.518571 0
M  V30 2968 N 512.427 -0.0538097 0.918425 0
M  V30 2969 C 512.427 -0.494275 2.22578 0
M  V30 2970 N 512.557 -1.81086 2.40434 0
M  V30 2971 N 512.297 0.313645 3.27502 0
M  V30 2972 C 512.177 1.61829 2.91033 0
M  V30 2973 H 509.198 5.40332 6.79951 0
M  V30 2974 H 508.928 4.41613 5.32378 0
M  V30 2975 H 509.795 3.26331 7.47797 0
M  V30 2976 P 513.757 2.75334 8.47391 0
M  V30 2977 O 513.977 2.44571 9.90142 0
M  V30 2978 O 514.547 3.87688 7.92115 0
M  V30 2979 O 514.007 1.4459 7.59357 0
M  V30 2980 C 513.067 0.347608 7.69215 0
M  V30 2981 C 513.797 -0.96767 7.52806 0
M  V30 2982 O 514.007 -1.21036 6.1011 0
M  V30 2983 C 515.197 -1.04544 8.13308 0
M  V30 2984 O 515.587 -2.38311 8.41922 0
M  V30 2985 C 516.077 -0.491279 7.02284 0
M  V30 2986 C 515.367 -0.996264 5.77469 0
M  V30 2987 N 515.417 -0.0501916 4.62973 0
M  V30 2988 C 515.337 1.32786 4.63244 0
M  V30 2989 N 515.417 1.86957 3.44545 0
M  V30 2990 C 515.557 0.780241 2.58481 0
M  V30 2991 C 515.687 0.738536 1.17757 0
M  V30 2992 O 515.707 1.66794 0.372349 0
M  V30 2993 N 515.807 -0.58337 0.711393 0
M  V30 2994 C 515.807 -1.70816 1.51017 0
M  V30 2995 N 515.937 -2.87826 0.880757 0
M  V30 2996 N 515.677 -1.67126 2.8339 0
M  V30 2997 C 515.557 -0.401421 3.30572 0
M  V30 2998 H 512.578 0.374722 8.67691 0
M  V30 2999 H 512.308 0.443485 6.90277 0
M  V30 3000 H 513.175 -1.75537 7.96793 0
M  V30 3001 H 515.83 -1.95076 5.46529 0
M  V30 3002 H 516.109 0.608565 7.04577 0
M  V30 3003 H 517.101 -0.889672 7.08939 0
M  V30 3004 H 515.267 -0.43308 9.04564 0
M  V30 3005 H 515.218 1.91249 5.54442 0
M  V30 3006 H 515.9 -0.718054 -0.275244 0
M  V30 3007 H 515.937 -3.75721 1.41832 0
M  V30 3008 H 516.038 -2.90436 -0.145468 0
M  V30 3009 P 517.137 -2.75334 8.47391 0
M  V30 3010 O 517.357 -3.84128 9.44797 0
M  V30 3011 O 517.927 -1.51947 8.68712 0
M  V30 3012 O 517.387 -3.29363 6.99321 0
M  V30 3013 C 516.447 -4.24011 6.4274 0
M  V30 3014 C 517.177 -5.20775 5.52155 0
M  V30 3015 O 517.387 -4.56534 4.22446 0
M  V30 3016 C 518.577 -5.62629 5.96531 0
M  V30 3017 O 518.967 -6.87667 5.41053 0
M  V30 3018 C 519.457 -4.52537 5.39283 0
M  V30 3019 C 518.747 -4.20027 4.08623 0
M  V30 3020 N 518.797 -2.76189 3.71603 0
M  V30 3021 H 515.958 -4.797 7.24003 0
M  V30 3022 H 515.688 -3.69856 5.84513 0
M  V30 3023 H 516.555 -6.10356 5.41441 0
M  V30 3024 P 520.517 -7.20834 5.23717 0
M  V30 3025 O 520.737 -8.66104 5.38572 0
M  V30 3026 O 521.307 -6.33544 6.1349 0
M  V30 3027 O 520.767 -6.7751 3.72168 0
M  V30 3028 C 519.827 -7.20825 2.7076 0
M  V30 3029 C 520.557 -7.45864 1.40599 0
M  V30 3030 O 520.767 -6.17651 0.734225 0
M  V30 3031 C 521.957 -8.05808 1.51899 0
M  V30 3032 O 522.347 -8.74358 0.335205 0
M  V30 3033 C 522.837 -6.83093 1.70294 0
M  V30 3034 C 522.127 -5.79992 0.836974 0
M  V30 3035 N 522.177 -4.41864 1.38293 0
M  V30 3036 H 519.338 -8.13644 3.0377 0
M  V30 3037 H 519.068 -6.42788 2.55485 0
M  V30 3038 H 519.935 -8.12039 0.792769 0
M  V30 3039 P 523.897 -8.91 -3.22661e-12 0
M  V30 3040 O 524.117 -10.1726 -0.733694 0
M  V30 3041 O 524.687 -8.73148 1.23936 0
M  V30 3042 O 524.147 -7.66872 -0.971405 0
M  V30 3043 C 523.207 -7.42309 -2.04641 0
M  V30 3044 C 523.937 -6.86059 -3.24661 0
M  V30 3045 O 524.147 -5.42847 -3.03646 0
M  V30 3046 C 525.337 -7.41196 -3.50753 0
M  V30 3047 O 525.727 -7.27073 -4.86816 0
M  V30 3048 C 526.217 -6.5273 -2.63741 0
M  V30 3049 C 525.507 -5.1842 -2.73198 0
M  V30 3050 N 525.557 -4.38762 -1.4784 0
M  V30 3051 H 522.718 -8.36803 -2.32493 0
M  V30 3052 H 522.448 -6.70197 -1.71129 0
M  V30 3053 H 523.315 -7.03551 -4.13168 0
M  V30 3054 P 527.277 -7.20834 -5.23717 0
M  V30 3055 O 527.497 -7.79853 -6.57286 0
M  V30 3056 O 528.067 -7.79239 -4.12957 0
M  V30 3057 O 527.527 -5.63315 -5.29344 0
M  V30 3058 C 526.587 -4.80255 -6.01876 0
M  V30 3059 C 527.317 -3.64202 -6.65911 0
M  V30 3060 O 527.527 -2.60694 -5.64732 0
M  V30 3061 C 528.717 -3.93473 -7.1943 0
M  V30 3062 O 529.107 -3.02071 -8.21205 0
M  V30 3063 C 529.597 -3.73047 -5.97036 0
M  V30 3064 C 528.887 -2.58828 -5.25741 0
M  V30 3065 N 528.937 -2.68068 -3.77503 0
M  V30 3066 H 526.098 -5.40332 -6.79951 0
M  V30 3067 H 525.828 -4.41613 -5.32378 0
M  V30 3068 H 526.695 -3.26331 -7.47797 0
M  V30 3069 P 530.657 -2.75334 -8.47391 0
M  V30 3070 O 530.877 -2.44571 -9.90142 0
M  V30 3071 O 531.447 -3.87688 -7.92115 0
M  V30 3072 O 530.907 -1.4459 -7.59357 0
M  V30 3073 C 529.967 -0.347608 -7.69215 0
M  V30 3074 C 530.697 0.96767 -7.52806 0
M  V30 3075 O 530.907 1.21036 -6.1011 0
M  V30 3076 C 532.097 1.04544 -8.13308 0
M  V30 3077 O 532.487 2.38311 -8.41922 0
M  V30 3078 C 532.977 0.491279 -7.02284 0
M  V30 3079 C 532.267 0.996264 -5.77469 0
M  V30 3080 N 532.317 0.0501916 -4.62973 0
M  V30 3081 C 532.237 -1.32786 -4.63244 0
M  V30 3082 N 532.317 -1.86957 -3.44545 0
M  V30 3083 C 532.457 -0.780241 -2.58481 0
M  V30 3084 C 532.587 -0.738536 -1.17757 0
M  V30 3085 O 532.607 -1.66794 -0.372349 0
M  V30 3086 N 532.707 0.58337 -0.711393 0
M  V30 3087 C 532.707 1.70816 -1.51017 0
M  V30 3088 N 532.837 2.87826 -0.880757 0
M  V30 3089 N 532.577 1.67126 -2.8339 0
M  V30 3090 C 532.457 0.401421 -3.30572 0
M  V30 3091 H 529.478 -0.374722 -8.67691 0
M  V30 3092 H 529.208 -0.443485 -6.90277 0
M  V30 3093 H 530.075 1.75537 -7.96793 0
M  V30 3094 H 532.73 1.95076 -5.46529 0
M  V30 3095 H 533.009 -0.608565 -7.04577 0
M  V30 3096 H 534.001 0.889672 -7.08939 0
M  V30 3097 H 532.167 0.43308 -9.04564 0
M  V30 3098 H 532.118 -1.91249 -5.54442 0
M  V30 3099 H 532.8 0.718054 0.275244 0
M  V30 3100 H 532.837 3.75721 -1.41832 0
M  V30 3101 H 532.938 2.90436 0.145468 0
M  V30 3102 P 534.037 2.75334 -8.47391 0
M  V30 3103 O 534.257 3.84166 -9.4489 0
M  V30 3104 O 534.827 1.51964 -8.6881 0
M  V30 3105 O 534.287 3.29363 -6.99321 0
M  V30 3106 C 533.347 4.23956 -6.42656 0
M  V30 3107 C 534.077 5.20775 -5.52155 0
M  V30 3108 O 534.287 4.56534 -4.22446 0
M  V30 3109 C 535.477 5.62629 -5.96531 0
M  V30 3110 O 535.867 6.87667 -5.41053 0
M  V30 3111 C 536.357 4.52537 -5.39283 0
M  V30 3112 C 535.647 4.20027 -4.08623 0
M  V30 3113 N 535.697 2.7613 -3.71522 0
M  V30 3114 C 535.847 2.45612 -2.37989 0
M  V30 3115 O 535.937 3.30919 -1.51621 0
M  V30 3116 N 535.887 1.10684 -2.08435 0
M  V30 3117 C 535.797 0.0690084 -2.9792 0
M  V30 3118 O 535.847 -1.10553 -2.59426 0
M  V30 3119 C 535.647 0.481522 -4.35345 0
M  V30 3120 C 535.537 -0.618778 -5.36443 0
M  V30 3121 C 535.597 1.78906 -4.67968 0
M  V30 3122 H 532.857 4.797 -7.24003 0
M  V30 3123 H 532.588 3.69802 -5.84429 0
M  V30 3124 H 533.455 6.10356 -5.41441 0
M  V30 3125 H 536.11 4.78651 -3.27911 0
M  V30 3126 H 536.389 3.64957 -6.05871 0
M  V30 3127 H 537.381 4.8868 -5.2125 0
M  V30 3128 H 535.547 5.66726 -7.06352 0
M  V30 3129 H 535.476 2.07737 -5.72367 0
M  V30 3130 H 536.506 -0.754375 -5.86871 0
M  V30 3131 H 534.769 -0.359721 -6.10641 0
M  V30 3132 H 535.257 -1.55533 -4.8581 0
M  V30 3133 H 535.993 0.862651 -1.12037 0
M  V30 3134 P 537.417 7.20834 -5.23717 0
M  V30 3135 O 537.637 8.66189 -5.38625 0
M  V30 3136 O 538.207 6.33615 -6.1356 0
M  V30 3137 O 537.667 6.7751 -3.72168 0
M  V30 3138 C 536.727 7.20732 -2.70725 0
M  V30 3139 C 537.457 7.45864 -1.40599 0
M  V30 3140 O 537.667 6.17651 -0.734225 0
M  V30 3141 C 538.857 8.05808 -1.51899 0
M  V30 3142 O 539.247 8.74358 -0.335205 0
M  V30 3143 C 539.737 6.83093 -1.70294 0
M  V30 3144 C 539.027 5.79992 -0.836974 0
M  V30 3145 N 539.077 4.41769 -1.38263 0
M  V30 3146 C 539.227 3.38591 -0.481702 0
M  V30 3147 O 539.317 3.56839 0.718452 0
M  V30 3148 N 539.267 2.1206 -1.03569 0
M  V30 3149 C 539.177 1.80696 -2.36966 0
M  V30 3150 O 539.227 0.630473 -2.74862 0
M  V30 3151 C 539.027 2.94845 -3.23898 0
M  V30 3152 C 538.917 2.65253 -4.70362 0
M  V30 3153 C 538.977 4.19803 -2.73435 0
M  V30 3154 H 536.237 8.13644 -3.0377 0
M  V30 3155 H 535.968 6.42695 -2.55448 0
M  V30 3156 H 536.835 8.12039 -0.792769 0
M  V30 3157 H 539.49 5.79978 0.160587 0
M  V30 3158 H 539.769 6.51379 -2.75643 0
M  V30 3159 H 540.761 7.01734 -1.34462 0
M  V30 3160 H 538.927 8.73674 -2.38337 0
M  V30 3161 H 538.856 5.04492 -3.4095 0
M  V30 3162 H 539.886 2.83924 -5.1913 0
M  V30 3163 H 538.149 3.29824 -5.15163 0
M  V30 3164 H 538.637 1.59723 -4.84449 0
M  V30 3165 H 539.373 1.35644 -0.399345 0
M  V30 3166 P 540.797 8.91 3.38379e-12 0
M  V30 3167 O 541.017 10.1726 0.733694 0
M  V30 3168 O 541.587 8.73148 -1.23936 0
M  V30 3169 O 541.047 7.66872 0.971405 0
M  V30 3170 C 540.107 7.42309 2.04641 0
M  V30 3171 C 540.837 6.86059 3.24661 0
M  V30 3172 O 541.047 5.42847 3.03646 0
M  V30 3173 C 542.237 7.41196 3.50753 0
M  V30 3174 O 542.627 7.27073 4.86816 0
M  V30 3175 C 543.117 6.5273 2.63741 0
M  V30 3176 C 542.407 5.1842 2.73198 0
M  V30 3177 N 542.457 4.38762 1.4784 0
M  V30 3178 H 539.618 8.36803 2.32493 0
M  V30 3179 H 539.348 6.70197 1.71129 0
M  V30 3180 H 540.215 7.03551 4.13168 0
M  V30 3181 P 544.177 7.20834 5.23717 0
M  V30 3182 O 544.397 7.7993 6.57351 0
M  V30 3183 O 544.967 7.79328 4.13004 0
M  V30 3184 O 544.427 5.63315 5.29344 0
M  V30 3185 C 543.487 4.80255 6.01876 0
M  V30 3186 C 544.217 3.64202 6.65911 0
M  V30 3187 O 544.427 2.60694 5.64732 0
M  V30 3188 C 545.617 3.93473 7.1943 0
M  V30 3189 O 546.007 3.02071 8.21205 0
M  V30 3190 C 546.497 3.73047 5.97036 0
M  V30 3191 C 545.787 2.58828 5.25741 0
M  V30 3192 N 545.837 2.6801 3.77422 0
M  V30 3193 C 545.987 1.50173 3.05038 0
M  V30 3194 O 546.077 0.428832 3.665 0
M  V30 3195 N 546.037 1.70922 1.55541 0
M  V30 3196 C 545.937 2.7407 1.06402 0
M  V30 3197 N 545.987 2.74764 -0.260931 0
M  V30 3198 C 545.787 3.96781 1.78296 0
M  V30 3199 C 545.737 3.87909 3.13891 0
M  V30 3200 H 542.997 5.4027 6.79873 0
M  V30 3201 H 542.728 4.41549 5.32301 0
M  V30 3202 H 543.595 3.26371 7.47889 0
M  V30 3203 H 546.25 1.63978 5.5665 0
M  V30 3204 H 546.529 4.63439 5.3432 0
M  V30 3205 H 547.521 3.44728 6.25838 0
M  V30 3206 H 545.687 4.96652 7.57263 0
M  V30 3207 H 545.615 4.78425 3.73088 0
M  V30 3208 H 545.717 4.92593 1.26997 0
M  V30 3209 H 546.105 1.86285 -0.77595 0
M  V30 3210 H 545.908 3.63657 -0.773896 0
M  V30 3211 P 547.557 2.75334 8.47391 0
M  V30 3212 O 547.777 2.44595 9.90239 0
M  V30 3213 O 548.347 3.87732 7.92204 0
M  V30 3214 O 547.807 1.4459 7.59357 0
M  V30 3215 C 546.867 0.347563 7.69115 0
M  V30 3216 C 547.597 -0.96767 7.52806 0
M  V30 3217 O 547.807 -1.21036 6.1011 0
M  V30 3218 C 548.997 -1.04544 8.13308 0
M  V30 3219 O 549.387 -2.38311 8.41922 0
M  V30 3220 C 549.877 -0.491279 7.02284 0
M  V30 3221 C 549.167 -0.996264 5.77469 0
M  V30 3222 N 549.217 -0.0501808 4.62873 0
M  V30 3223 C 549.367 -0.588177 3.36904 0
M  V30 3224 O 549.457 -1.78598 3.17173 0
M  V30 3225 N 549.407 0.329694 2.33686 0
M  V30 3226 C 549.317 1.6953 2.45079 0
M  V30 3227 C 549.167 2.16933 3.80505 0
M  V30 3228 C 549.117 1.30326 4.83752 0
M  V30 3229 H 546.377 0.374722 8.67691 0
M  V30 3230 H 546.108 0.443421 6.90177 0
M  V30 3231 H 546.975 -1.75537 7.96793 0
M  V30 3232 H 549.63 -1.94496 5.46629 0
M  V30 3233 H 549.909 0.608651 7.04676 0
M  V30 3234 H 550.901 -0.889672 7.08939 0
M  V30 3235 H 549.067 -0.43308 9.04564 0
M  V30 3236 H 548.996 1.68366 5.8516 0
M  V30 3237 P 550.937 -2.75334 8.47391 0
M  V30 3238 O 551.157 -3.84128 9.44797 0
M  V30 3239 O 551.727 -1.51947 8.68712 0
M  V30 3240 O 551.187 -3.29363 6.99321 0
M  V30 3241 C 550.247 -4.24011 6.4274 0
M  V30 3242 C 550.977 -5.20775 5.52155 0
M  V30 3243 O 551.187 -4.56534 4.22446 0
M  V30 3244 C 552.377 -5.62629 5.96531 0
M  V30 3245 O 552.767 -6.87667 5.41053 0
M  V30 3246 C 553.257 -4.52537 5.39283 0
M  V30 3247 C 552.547 -4.20027 4.08623 0
M  V30 3248 N 552.597 -2.76189 3.71603 0
M  V30 3249 H 549.758 -4.797 7.24003 0
M  V30 3250 H 549.488 -3.69856 5.84513 0
M  V30 3251 H 550.355 -6.10356 5.41441 0
M  V30 3252 P 554.317 -7.20834 5.23717 0
M  V30 3253 O 554.537 -8.66104 5.38572 0
M  V30 3254 O 555.107 -6.33544 6.1349 0
M  V30 3255 O 554.567 -6.7751 3.72168 0
M  V30 3256 C 553.627 -7.20825 2.7076 0
M  V30 3257 C 554.357 -7.45864 1.40599 0
M  V30 3258 O 554.567 -6.17651 0.734225 0
M  V30 3259 C 555.757 -8.05808 1.51899 0
M  V30 3260 O 556.147 -8.74358 0.335205 0
M  V30 3261 C 556.637 -6.83093 1.70294 0
M  V30 3262 C 555.927 -5.79992 0.836974 0
M  V30 3263 N 555.977 -4.41864 1.38293 0
M  V30 3264 H 553.138 -8.13644 3.0377 0
M  V30 3265 H 552.868 -6.42788 2.55485 0
M  V30 3266 H 553.735 -8.12039 0.792769 0
M  V30 3267 P 557.697 -8.91 -3.54097e-12 0
M  V30 3268 O 557.917 -10.1746 -0.733838 0
M  V30 3269 O 558.487 -8.73346 1.23964 0
M  V30 3270 O 557.947 -7.66872 -0.971405 0
M  V30 3271 C 557.007 -7.42405 -2.04668 0
M  V30 3272 C 557.737 -6.86059 -3.24661 0
M  V30 3273 O 557.947 -5.42934 -3.03695 0
M  V30 3274 C 559.137 -7.41287 -3.50796 0
M  V30 3275 O 559.527 -7.27073 -4.86816 0
M  V30 3276 C 560.017 -6.5273 -2.63741 0
M  V30 3277 C 559.307 -5.1842 -2.73198 0
M  V30 3278 N 559.357 -4.38762 -1.4784 0
M  V30 3279 H 556.519 -8.36899 -2.3252 0
M  V30 3280 H 556.247 -6.70391 -1.71179 0
M  V30 3281 H 557.115 -7.03638 -4.13219 0
M  V30 3282 H 559.77 -4.59931 -3.54016 0
M  V30 3283 H 560.05 -6.88995 -1.59871 0
M  V30 3284 H 561.041 -6.4684 -3.0373 0
M  V30 3285 H 559.207 -8.47002 -3.20749 0
M  V30 3286 P 561.077 -7.20834 -5.23717 0
M  V30 3287 O 561.297 -7.79853 -6.57286 0
M  V30 3288 O 561.867 -7.79239 -4.12957 0
M  V30 3289 O 561.327 -5.63315 -5.29344 0
M  V30 3290 C 560.387 -4.80255 -6.01876 0
M  V30 3291 C 561.117 -3.64202 -6.65911 0
M  V30 3292 O 561.327 -2.60694 -5.64732 0
M  V30 3293 C 562.517 -3.93473 -7.1943 0
M  V30 3294 O 562.907 -3.02071 -8.21205 0
M  V30 3295 C 563.397 -3.73047 -5.97036 0
M  V30 3296 C 562.687 -2.58828 -5.25741 0
M  V30 3297 N 562.737 -2.68068 -3.77503 0
M  V30 3298 H 559.898 -5.40332 -6.79951 0
M  V30 3299 H 559.628 -4.41613 -5.32378 0
M  V30 3300 H 560.495 -3.26331 -7.47797 0
M  V30 3301 P 564.457 -2.75334 -8.47391 0
M  V30 3302 O 564.677 -2.44619 -9.90336 0
M  V30 3303 O 565.247 -3.87776 -7.92294 0
M  V30 3304 O 564.707 -1.4459 -7.59357 0
M  V30 3305 C 563.767 -0.347653 -7.69315 0
M  V30 3306 C 564.497 0.96767 -7.52806 0
M  V30 3307 O 564.707 1.21055 -6.10208 0
M  V30 3308 C 565.897 1.04557 -8.13408 0
M  V30 3309 O 566.287 2.38311 -8.41922 0
M  V30 3310 C 566.777 0.491279 -7.02284 0
M  V30 3311 C 566.067 0.996264 -5.77469 0
M  V30 3312 N 566.117 0.0501916 -4.62973 0
M  V30 3313 C 566.037 -1.31969 -4.65661 0
M  V30 3314 N 566.107 -1.86649 -3.48119 0
M  V30 3315 C 566.257 -0.792089 -2.62406 0
M  V30 3316 C 566.387 -0.705684 -1.2207 0
M  V30 3317 N 566.397 -1.76207 -0.413762 0
M  V30 3318 N 566.507 0.518981 -0.685754 0
M  V30 3319 C 566.497 1.57595 -1.49174 0
M  V30 3320 N 566.377 1.62909 -2.80066 0
M  V30 3321 C 566.257 0.388195 -3.3073 0
M  V30 3322 H 563.279 -0.374765 -8.67791 0
M  V30 3323 H 563.007 -0.443613 -6.90476 0
M  V30 3324 H 563.875 1.75559 -7.96891 0
M  V30 3325 H 566.53 1.94563 -5.46818 0
M  V30 3326 H 566.81 -0.608651 -7.04676 0
M  V30 3327 H 567.801 0.889796 -7.09039 0
M  V30 3328 H 565.967 0.433128 -9.04664 0
M  V30 3329 H 565.926 -1.89246 -5.57664 0
M  V30 3330 H 566.307 -2.71005 -0.804694 0
M  V30 3331 H 566.496 -1.63189 0.603768 0
M  V30 3332 H 566.604 2.53475 -0.997614 0
M  V30 3333 P 567.837 2.75334 -8.47391 0
M  V30 3334 O 568.057 3.84166 -9.4489 0
M  V30 3335 O 568.627 1.51964 -8.6881 0
M  V30 3336 O 568.087 3.29363 -6.99321 0
M  V30 3337 C 567.147 4.24011 -6.4274 0
M  V30 3338 C 567.877 5.20775 -5.52155 0
M  V30 3339 O 568.087 4.56534 -4.22446 0
M  V30 3340 C 569.277 5.62629 -5.96531 0
M  V30 3341 O 569.667 6.87667 -5.41053 0
M  V30 3342 C 570.157 4.52537 -5.39283 0
M  V30 3343 C 569.447 4.20027 -4.08623 0
M  V30 3344 N 569.497 2.7613 -3.71522 0
M  V30 3345 C 569.647 2.43702 -2.37085 0
M  V30 3346 O 569.737 3.3531 -1.54039 0
M  V30 3347 N 569.697 0.951103 -2.10621 0
M  V30 3348 C 569.597 0.165021 -2.93537 0
M  V30 3349 N 569.647 -1.09723 -2.53253 0
M  V30 3350 C 569.447 0.469576 -4.32458 0
M  V30 3351 C 569.397 1.78658 -4.65921 0
M  V30 3352 H 566.657 4.79645 -7.23919 0
M  V30 3353 H 566.388 3.69802 -5.84429 0
M  V30 3354 H 567.255 6.10431 -5.41508 0
M  V30 3355 H 569.91 4.78733 -3.27967 0
M  V30 3356 H 570.189 3.64957 -6.05871 0
M  V30 3357 H 571.181 4.8868 -5.2125 0
M  V30 3358 H 569.347 5.66726 -7.06352 0
M  V30 3359 H 569.275 2.06987 -5.70299 0
M  V30 3360 H 569.377 -0.314383 -5.07728 0
M  V30 3361 H 569.765 -1.31363 -1.5319 0
M  V30 3362 H 569.568 -1.85978 -3.21943 0
M  V30 3363 P 571.217 7.20834 -5.23717 0
M  V30 3364 O 571.437 8.66104 -5.38572 0
M  V30 3365 O 572.007 6.33544 -6.1349 0
M  V30 3366 O 571.467 6.7751 -3.72168 0
M  V30 3367 C 570.527 7.20825 -2.7076 0
M  V30 3368 C 571.257 7.45864 -1.40599 0
M  V30 3369 O 571.467 6.17651 -0.734225 0
M  V30 3370 C 572.657 8.05808 -1.51899 0
M  V30 3371 O 573.047 8.74358 -0.335205 0
M  V30 3372 C 573.537 6.83093 -1.70294 0
M  V30 3373 C 572.827 5.79992 -0.836974 0
M  V30 3374 N 572.877 4.41864 -1.38293 0
M  V30 3375 C 572.797 3.99538 -2.69438 0
M  V30 3376 N 572.877 2.69909 -2.84277 0
M  V30 3377 C 573.017 2.21719 -1.5408 0
M  V30 3378 C 573.147 0.891712 -1.06628 0
M  V30 3379 O 573.167 -0.161298 -1.70137 0
M  V30 3380 N 573.267 0.856846 0.334985 0
M  V30 3381 C 573.267 1.9641 1.15789 0
M  V30 3382 N 573.397 1.72708 2.46522 0
M  V30 3383 N 573.137 3.21165 0.713741 0
M  V30 3384 C 573.017 3.26797 -0.639748 0
M  V30 3385 H 570.038 8.13644 -3.0377 0
M  V30 3386 H 569.768 6.42788 -2.55485 0
M  V30 3387 H 570.635 8.12039 -0.792769 0
M  V30 3388 H 573.29 5.80061 0.166416 0
M  V30 3389 H 573.569 6.51287 -2.75604 0
M  V30 3390 H 574.561 7.01734 -1.34462 0
M  V30 3391 H 572.727 8.73674 -2.38337 0
M  V30 3392 H 572.678 4.68207 -3.53221 0
M  V30 3393 H 573.36 -0.0398818 0.767965 0
M  V30 3394 H 573.397 2.50995 3.13503 0
M  V30 3395 H 573.498 0.759148 2.80716 0
M  V30 3396 P 574.597 8.91 3.69815e-12 0
M  V30 3397 O 574.817 10.1726 0.733694 0
M  V30 3398 O 575.387 8.73148 -1.23936 0
M  V30 3399 O 574.847 7.66872 0.971405 0
M  V30 3400 C 573.907 7.42309 2.04641 0
M  V30 3401 C 574.637 6.86059 3.24661 0
M  V30 3402 O 574.847 5.42847 3.03646 0
M  V30 3403 C 576.037 7.41196 3.50753 0
M  V30 3404 O 576.427 7.27073 4.86816 0
M  V30 3405 C 576.917 6.5273 2.63741 0
M  V30 3406 C 576.207 5.1842 2.73198 0
M  V30 3407 N 576.257 4.38762 1.4784 0
M  V30 3408 H 573.418 8.36803 2.32493 0
M  V30 3409 H 573.148 6.70197 1.71129 0
M  V30 3410 H 574.015 7.03551 4.13168 0
M  V30 3411 P 577.977 7.20834 5.23717 0
M  V30 3412 O 578.197 7.79853 6.57286 0
M  V30 3413 O 578.767 7.79239 4.12957 0
M  V30 3414 O 578.227 5.63315 5.29344 0
M  V30 3415 C 577.287 4.80255 6.01876 0
M  V30 3416 C 578.017 3.64202 6.65911 0
M  V30 3417 O 578.227 2.60694 5.64732 0
M  V30 3418 C 579.417 3.93473 7.1943 0
M  V30 3419 O 579.807 3.02071 8.21205 0
M  V30 3420 C 580.297 3.73047 5.97036 0
M  V30 3421 C 579.587 2.58828 5.25741 0
M  V30 3422 N 579.637 2.68068 3.77503 0
M  V30 3423 H 576.798 5.40332 6.79951 0
M  V30 3424 H 576.528 4.41613 5.32378 0
M  V30 3425 H 577.395 3.26331 7.47797 0
M  V30 3426 P 581.357 2.75334 8.47391 0
M  V30 3427 O 581.577 2.44571 9.90142 0
M  V30 3428 O 582.147 3.87688 7.92115 0
M  V30 3429 O 581.607 1.4459 7.59357 0
M  V30 3430 C 580.667 0.347608 7.69215 0
M  V30 3431 C 581.397 -0.96767 7.52806 0
M  V30 3432 O 581.607 -1.21036 6.1011 0
M  V30 3433 C 582.797 -1.04544 8.13308 0
M  V30 3434 O 583.187 -2.38311 8.41922 0
M  V30 3435 C 583.677 -0.491279 7.02284 0
M  V30 3436 C 582.967 -0.996264 5.77469 0
M  V30 3437 N 583.017 -0.0501916 4.62973 0
M  V30 3438 H 580.178 0.374722 8.67691 0
M  V30 3439 H 579.908 0.443485 6.90277 0
M  V30 3440 H 580.775 -1.75537 7.96793 0
M  V30 3441 P 584.737 -2.75334 8.47391 0
M  V30 3442 O 584.957 -3.84128 9.44797 0
M  V30 3443 O 585.527 -1.51947 8.68712 0
M  V30 3444 O 584.987 -3.29363 6.99321 0
M  V30 3445 C 584.047 -4.24011 6.4274 0
M  V30 3446 C 584.777 -5.20775 5.52155 0
M  V30 3447 O 584.987 -4.56534 4.22446 0
M  V30 3448 C 586.177 -5.62629 5.96531 0
M  V30 3449 O 586.567 -6.87667 5.41053 0
M  V30 3450 C 587.057 -4.52537 5.39283 0
M  V30 3451 C 586.347 -4.20027 4.08623 0
M  V30 3452 N 586.397 -2.76189 3.71603 0
M  V30 3453 H 583.558 -4.797 7.24003 0
M  V30 3454 H 583.288 -3.69856 5.84513 0
M  V30 3455 H 584.155 -6.10356 5.41441 0
M  V30 3456 P 588.117 -7.20834 5.23717 0
M  V30 3457 O 588.337 -8.66274 5.38678 0
M  V30 3458 O 588.907 -6.33687 6.13629 0
M  V30 3459 O 588.367 -6.7751 3.72168 0
M  V30 3460 C 587.427 -7.20919 2.70795 0
M  V30 3461 C 588.157 -7.45864 1.40599 0
M  V30 3462 O 588.367 -6.17751 0.734343 0
M  V30 3463 C 589.557 -8.05906 1.51917 0
M  V30 3464 O 589.947 -8.74358 0.335205 0
M  V30 3465 C 590.437 -6.83093 1.70294 0
M  V30 3466 C 589.727 -5.79992 0.836974 0
M  V30 3467 N 589.777 -4.41864 1.38293 0
M  V30 3468 H 586.939 -8.13738 3.03804 0
M  V30 3469 H 586.667 -6.42974 2.55559 0
M  V30 3470 H 587.535 -8.12139 0.792866 0
M  V30 3471 H 590.19 -5.80178 -0.160643 0
M  V30 3472 H 590.47 -6.51379 2.75643 0
M  V30 3473 H 591.461 -7.01832 1.3448 0
M  V30 3474 H 589.627 -8.73771 2.38364 0
M  V30 3475 P 591.496 -8.91 -3.85533e-12 0
M  V30 3476 O 591.716 -10.1726 -0.733694 0
M  V30 3477 O 592.286 -8.73148 1.23936 0
M  V30 3478 O 591.746 -7.66872 -0.971405 0
M  V30 3479 C 590.806 -7.42309 -2.04641 0
M  V30 3480 C 591.536 -6.86059 -3.24661 0
M  V30 3481 O 591.746 -5.42847 -3.03646 0
M  V30 3482 C 592.937 -7.41196 -3.50753 0
M  V30 3483 O 593.327 -7.27073 -4.86816 0
M  V30 3484 C 593.817 -6.5273 -2.63741 0
M  V30 3485 C 593.106 -5.1842 -2.73198 0
M  V30 3486 N 593.156 -4.38762 -1.4784 0
M  V30 3487 H 590.317 -8.36803 -2.32493 0
M  V30 3488 H 590.048 -6.70197 -1.71129 0
M  V30 3489 H 590.914 -7.03551 -4.13168 0
M  V30 3490 P 594.876 -7.20834 -5.23717 0
M  V30 3491 O 595.096 -7.79853 -6.57286 0
M  V30 3492 O 595.666 -7.79239 -4.12957 0
M  V30 3493 O 595.126 -5.63315 -5.29344 0
M  V30 3494 C 594.186 -4.80255 -6.01876 0
M  V30 3495 C 594.916 -3.64202 -6.65911 0
M  V30 3496 O 595.126 -2.60694 -5.64732 0
M  V30 3497 C 596.316 -3.93473 -7.1943 0
M  V30 3498 O 596.706 -3.02071 -8.21205 0
M  V30 3499 C 597.196 -3.73047 -5.97036 0
M  V30 3500 C 596.486 -2.58828 -5.25741 0
M  V30 3501 N 596.536 -2.68068 -3.77503 0
M  V30 3502 H 593.697 -5.40332 -6.79951 0
M  V30 3503 H 593.427 -4.41613 -5.32378 0
M  V30 3504 H 594.294 -3.26331 -7.47797 0
M  V30 3505 P 598.256 -2.75334 -8.47391 0
M  V30 3506 O 598.476 -2.44571 -9.90142 0
M  V30 3507 O 599.046 -3.87688 -7.92115 0
M  V30 3508 O 598.506 -1.4459 -7.59357 0
M  V30 3509 C 597.566 -0.347608 -7.69215 0
M  V30 3510 C 598.296 0.96767 -7.52806 0
M  V30 3511 O 598.506 1.21036 -6.1011 0
M  V30 3512 C 599.696 1.04544 -8.13308 0
M  V30 3513 O 600.086 2.38311 -8.41922 0
M  V30 3514 C 600.576 0.491279 -7.02284 0
M  V30 3515 C 599.866 0.996264 -5.77469 0
M  V30 3516 N 599.916 0.0501916 -4.62973 0
M  V30 3517 C 599.836 -1.32786 -4.63244 0
M  V30 3518 N 599.916 -1.86957 -3.44545 0
M  V30 3519 C 600.056 -0.780241 -2.58481 0
M  V30 3520 C 600.186 -0.738536 -1.17757 0
M  V30 3521 O 600.206 -1.66794 -0.372349 0
M  V30 3522 N 600.306 0.58337 -0.711393 0
M  V30 3523 C 600.306 1.70816 -1.51017 0
M  V30 3524 N 600.436 2.87826 -0.880757 0
M  V30 3525 N 600.176 1.67126 -2.8339 0
M  V30 3526 C 600.056 0.401421 -3.30572 0
M  V30 3527 H 597.077 -0.374722 -8.67691 0
M  V30 3528 H 596.807 -0.443485 -6.90277 0
M  V30 3529 H 597.674 1.75537 -7.96793 0
M  V30 3530 H 600.329 1.95076 -5.46529 0
M  V30 3531 H 600.608 -0.608565 -7.04577 0
M  V30 3532 H 601.6 0.889672 -7.08939 0
M  V30 3533 H 599.766 0.43308 -9.04564 0
M  V30 3534 H 599.717 -1.91249 -5.54442 0
M  V30 3535 H 600.399 0.718054 0.275244 0
M  V30 3536 H 600.436 3.75721 -1.41832 0
M  V30 3537 H 600.537 2.90436 0.145468 0
M  V30 3538 P 601.636 2.75334 -8.47391 0
M  V30 3539 O 601.856 3.84166 -9.4489 0
M  V30 3540 O 602.426 1.51964 -8.6881 0
M  V30 3541 O 601.886 3.29363 -6.99321 0
M  V30 3542 C 600.946 4.24011 -6.4274 0
M  V30 3543 C 601.676 5.20775 -5.52155 0
M  V30 3544 O 601.886 4.56534 -4.22446 0
M  V30 3545 C 603.076 5.62629 -5.96531 0
M  V30 3546 O 603.466 6.87667 -5.41053 0
M  V30 3547 C 603.956 4.52537 -5.39283 0
M  V30 3548 C 603.246 4.20027 -4.08623 0
M  V30 3549 N 603.296 2.7613 -3.71522 0
M  V30 3550 C 603.446 2.43702 -2.37085 0
M  V30 3551 O 603.536 3.3531 -1.54039 0
M  V30 3552 N 603.496 0.951103 -2.10621 0
M  V30 3553 C 603.396 0.165021 -2.93537 0
M  V30 3554 N 603.446 -1.09723 -2.53253 0
M  V30 3555 C 603.246 0.469576 -4.32458 0
M  V30 3556 C 603.196 1.78658 -4.65921 0
M  V30 3557 H 600.456 4.79645 -7.23919 0
M  V30 3558 H 600.187 3.69802 -5.84429 0
M  V30 3559 H 601.054 6.10431 -5.41508 0
M  V30 3560 H 603.709 4.78733 -3.27967 0
M  V30 3561 H 603.988 3.64957 -6.05871 0
M  V30 3562 H 604.98 4.8868 -5.2125 0
M  V30 3563 H 603.146 5.66726 -7.06352 0
M  V30 3564 H 603.074 2.06987 -5.70299 0
M  V30 3565 H 603.176 -0.314383 -5.07728 0
M  V30 3566 H 603.564 -1.31363 -1.5319 0
M  V30 3567 H 603.367 -1.85978 -3.21943 0
M  V30 3568 P 605.016 7.20834 -5.23717 0
M  V30 3569 O 605.236 8.66189 -5.38625 0
M  V30 3570 O 605.806 6.33615 -6.1356 0
M  V30 3571 O 605.266 6.7751 -3.72168 0
M  V30 3572 C 604.326 7.20825 -2.7076 0
M  V30 3573 C 605.056 7.45864 -1.40599 0
M  V30 3574 O 605.266 6.17651 -0.734225 0
M  V30 3575 C 606.456 8.05808 -1.51899 0
M  V30 3576 O 606.846 8.74358 -0.335205 0
M  V30 3577 C 607.336 6.83093 -1.70294 0
M  V30 3578 C 606.626 5.79992 -0.836974 0
M  V30 3579 N 606.676 4.41769 -1.38263 0
M  V30 3580 C 606.826 3.36514 -0.485617 0
M  V30 3581 O 606.916 3.61814 0.724703 0
M  V30 3582 N 606.876 2.00746 -1.14492 0
M  V30 3583 C 606.776 1.85887 -2.27776 0
M  V30 3584 N 606.826 0.600907 -2.69379 0
M  V30 3585 C 606.626 2.92182 -3.22265 0
M  V30 3586 C 606.576 4.18399 -2.71925 0
M  V30 3587 H 603.836 8.1355 -3.03735 0
M  V30 3588 H 603.567 6.42695 -2.55448 0
M  V30 3589 H 604.434 8.12139 -0.792866 0
M  V30 3590 H 607.089 5.80078 0.160615 0
M  V30 3591 H 607.368 6.51379 -2.75643 0
M  V30 3592 H 608.36 7.01734 -1.34462 0
M  V30 3593 H 606.526 8.73674 -2.38337 0
M  V30 3594 H 606.454 5.02669 -3.39718 0
M  V30 3595 H 606.556 2.73001 -4.29239 0
M  V30 3596 H 606.944 -0.162318 -2.01146 0
M  V30 3597 H 606.747 0.387742 -3.69773 0
M  V30 3598 P 608.396 8.91 4.01252e-12 0
M  V30 3599 O 608.616 10.1736 0.733766 0
M  V30 3600 O 609.186 8.73247 -1.2395 0
M  V30 3601 O 608.646 7.66872 0.971405 0
M  V30 3602 C 607.706 7.42309 2.04641 0
M  V30 3603 C 608.436 6.86059 3.24661 0
M  V30 3604 O 608.646 5.42847 3.03646 0
M  V30 3605 C 609.836 7.41196 3.50753 0
M  V30 3606 O 610.226 7.27073 4.86816 0
M  V30 3607 C 610.716 6.5273 2.63741 0
M  V30 3608 C 610.006 5.1842 2.73198 0
M  V30 3609 N 610.056 4.38668 1.47808 0
M  V30 3610 C 610.206 3.00789 1.58511 0
M  V30 3611 O 610.296 2.50116 2.71298 0
M  V30 3612 N 610.256 2.29703 0.253698 0
M  V30 3613 C 610.156 2.84269 -0.750133 0
M  V30 3614 N 610.206 2.06951 -1.82612 0
M  V30 3615 C 610.006 4.25803 -0.889776 0
M  V30 3616 C 609.956 4.98326 0.259363 0
M  V30 3617 H 607.216 8.36707 2.32466 0
M  V30 3618 H 606.947 6.701 1.71105 0
M  V30 3619 H 607.814 7.03638 4.13219 0
M  V30 3620 H 610.469 4.59852 3.53955 0
M  V30 3621 H 610.748 6.88995 1.59871 0
M  V30 3622 H 611.74 6.46749 3.03687 0
M  V30 3623 H 609.906 8.46908 3.20714 0
M  V30 3624 H 609.834 6.06349 0.206238 0
M  V30 3625 H 609.936 4.73163 -1.86796 0
M  V30 3626 H 610.324 1.05099 -1.72271 0
M  V30 3627 H 610.127 2.48716 -2.76361 0
M  V30 3628 P 611.776 7.20834 5.23717 0
M  V30 3629 O 611.996 7.7993 6.57351 0
M  V30 3630 O 612.566 7.79328 4.13004 0
M  V30 3631 O 612.026 5.63315 5.29344 0
M  V30 3632 C 611.086 4.80193 6.01798 0
M  V30 3633 C 611.816 3.64202 6.65911 0
M  V30 3634 O 612.026 2.60694 5.64732 0
M  V30 3635 C 613.216 3.93473 7.1943 0
M  V30 3636 O 613.606 3.02071 8.21205 0
M  V30 3637 C 614.096 3.73047 5.97036 0
M  V30 3638 C 613.386 2.58828 5.25741 0
M  V30 3639 N 613.436 2.6801 3.77422 0
M  V30 3640 C 613.586 1.50443 3.07133 0
M  V30 3641 O 613.676 0.419406 3.61576 0
M  V30 3642 N 613.626 1.6403 1.69677 0
M  V30 3643 C 613.536 2.81206 0.986255 0
M  V30 3644 C 613.386 3.99158 1.80325 0
M  V30 3645 C 613.336 3.89779 3.1476 0
M  V30 3646 H 610.596 5.40332 6.79951 0
M  V30 3647 H 610.327 4.41549 5.32301 0
M  V30 3648 H 611.194 3.26331 7.47797 0
M  V30 3649 H 613.849 1.6395 5.56554 0
M  V30 3650 H 614.128 4.63439 5.3432 0
M  V30 3651 H 615.12 3.44728 6.25838 0
M  V30 3652 H 613.286 4.96652 7.57263 0
M  V30 3653 H 613.215 4.80159 3.74441 0
M  V30 3654 P 615.156 2.75334 8.47391 0
M  V30 3655 O 615.376 2.44571 9.90142 0
M  V30 3656 O 615.946 3.87688 7.92115 0
M  V30 3657 O 615.406 1.4459 7.59357 0
M  V30 3658 C 614.466 0.347608 7.69215 0
M  V30 3659 C 615.196 -0.96767 7.52806 0
M  V30 3660 O 615.406 -1.21036 6.1011 0
M  V30 3661 C 616.596 -1.04544 8.13308 0
M  V30 3662 O 616.986 -2.38311 8.41922 0
M  V30 3663 C 617.476 -0.491279 7.02284 0
M  V30 3664 C 616.766 -0.996264 5.77469 0
M  V30 3665 N 616.816 -0.0501916 4.62973 0
M  V30 3666 H 613.977 0.374722 8.67691 0
M  V30 3667 H 613.707 0.443485 6.90277 0
M  V30 3668 H 614.574 -1.75537 7.96793 0
M  V30 3669 P 618.536 -2.75334 8.47391 0
M  V30 3670 O 618.756 -3.84128 9.44797 0
M  V30 3671 O 619.326 -1.51947 8.68712 0
M  V30 3672 O 618.786 -3.29363 6.99321 0
M  V30 3673 C 617.846 -4.24011 6.4274 0
M  V30 3674 C 618.576 -5.20775 5.52155 0
M  V30 3675 O 618.786 -4.56534 4.22446 0
M  V30 3676 C 619.976 -5.62629 5.96531 0
M  V30 3677 O 620.366 -6.87667 5.41053 0
M  V30 3678 C 620.856 -4.52537 5.39283 0
M  V30 3679 C 620.146 -4.20027 4.08623 0
M  V30 3680 N 620.196 -2.76189 3.71603 0
M  V30 3681 C 620.116 -1.64862 4.52822 0
M  V30 3682 N 620.196 -0.512671 3.88633 0
M  V30 3683 C 620.336 -0.888083 2.54977 0
M  V30 3684 C 620.466 -0.094668 1.38677 0
M  V30 3685 O 620.486 1.13053 1.28163 0
M  V30 3686 N 620.586 -0.890102 0.232633 0
M  V30 3687 C 620.586 -2.26958 0.21772 0
M  V30 3688 N 620.716 -2.84626 -0.97925 0
M  V30 3689 N 620.456 -3.0178 1.31033 0
M  V30 3690 C 620.336 -2.26781 2.43843 0
M  V30 3691 H 617.357 -4.797 7.24003 0
M  V30 3692 H 617.087 -3.69856 5.84513 0
M  V30 3693 H 617.954 -6.10356 5.41441 0
M  V30 3694 H 620.609 -4.79061 3.27488 0
M  V30 3695 H 620.888 -3.64906 6.05785 0
M  V30 3696 H 621.88 -4.8868 5.2125 0
M  V30 3697 H 620.046 -5.66726 7.06352 0
M  V30 3698 H 619.997 -1.71169 5.60966 0
M  V30 3699 H 620.679 -0.419134 -0.644739 0
M  V30 3700 H 620.716 -3.87332 -1.06098 0
M  V30 3701 H 620.817 -2.26417 -1.82483 0
M  V30 3702 P 621.916 -7.20834 5.23717 0
M  V30 3703 O 622.136 -8.66104 5.38572 0
M  V30 3704 O 622.706 -6.33544 6.1349 0
M  V30 3705 O 622.166 -6.7751 3.72168 0
M  V30 3706 C 621.226 -7.20825 2.7076 0
M  V30 3707 C 621.956 -7.45864 1.40599 0
M  V30 3708 O 622.166 -6.17651 0.734225 0
M  V30 3709 C 623.356 -8.05808 1.51899 0
M  V30 3710 O 623.746 -8.74358 0.335205 0
M  V30 3711 C 624.236 -6.83093 1.70294 0
M  V30 3712 C 623.526 -5.79992 0.836974 0
M  V30 3713 N 623.576 -4.41864 1.38293 0
M  V30 3714 H 620.737 -8.13644 3.0377 0
M  V30 3715 H 620.467 -6.42788 2.55485 0
M  V30 3716 H 621.334 -8.12039 0.792769 0
M  V30 3717 P 625.296 -8.91 -4.1697e-12 0
M  V30 3718 O 625.516 -10.1726 -0.733694 0
M  V30 3719 O 626.086 -8.73148 1.23936 0
M  V30 3720 O 625.546 -7.66872 -0.971405 0
M  V30 3721 C 624.606 -7.42309 -2.04641 0
M  V30 3722 C 625.336 -6.86059 -3.24661 0
M  V30 3723 O 625.546 -5.42847 -3.03646 0
M  V30 3724 C 626.736 -7.41196 -3.50753 0
M  V30 3725 O 627.126 -7.27073 -4.86816 0
M  V30 3726 C 627.616 -6.5273 -2.63741 0
M  V30 3727 C 626.906 -5.1842 -2.73198 0
M  V30 3728 N 626.956 -4.38762 -1.4784 0
M  V30 3729 H 624.117 -8.36803 -2.32493 0
M  V30 3730 H 623.847 -6.70197 -1.71129 0
M  V30 3731 H 624.714 -7.03551 -4.13168 0
M  V30 3732 P 628.676 -7.20834 -5.23717 0
M  V30 3733 O 628.896 -7.79853 -6.57286 0
M  V30 3734 O 629.466 -7.79239 -4.12957 0
M  V30 3735 O 628.926 -5.63315 -5.29344 0
M  V30 3736 C 627.986 -4.80255 -6.01876 0
M  V30 3737 C 628.716 -3.64202 -6.65911 0
M  V30 3738 O 628.926 -2.60694 -5.64732 0
M  V30 3739 C 630.116 -3.93473 -7.1943 0
M  V30 3740 O 630.506 -3.02071 -8.21205 0
M  V30 3741 C 630.996 -3.73047 -5.97036 0
M  V30 3742 C 630.286 -2.58828 -5.25741 0
M  V30 3743 N 630.336 -2.68068 -3.77503 0
M  V30 3744 H 627.497 -5.40332 -6.79951 0
M  V30 3745 H 627.227 -4.41613 -5.32378 0
M  V30 3746 H 628.094 -3.26331 -7.47797 0
M  V30 3747 H 630.375 -2.12276 -7.9008 0
M  V30 3748 H 634.397 5.66378 7.64073 0
M  V30 3749 O 634.277 5.84357 6.71818 0
M  V30 3750 P 632.836 6.144 6.45285 0
M  V30 3751 O 632.616 7.54673 6.86199 0
M  V30 3752 O 632.046 5.12391 7.179 0
M  V30 3753 O 632.586 5.99158 4.88404 0
M  V30 3754 C 633.526 6.60234 3.96415 0
M  V30 3755 C 632.796 7.08259 2.72856 0
M  V30 3756 O 632.586 5.9427 1.83651 0
M  V30 3757 C 631.396 7.64886 2.9555 0
M  V30 3758 O 631.006 8.53963 1.90717 0
M  V30 3759 C 630.516 6.4116 2.90739 0
M  V30 3760 C 631.226 5.55375 1.86963 0
M  V30 3761 N 631.176 4.09664 2.15742 0
M  V30 3762 H 634.015 7.45574 4.45629 0
M  V30 3763 H 634.287 5.86232 3.67314 0
M  V30 3764 H 633.419 7.84412 2.24479 0
M  V30 3765 P 629.456 8.7635 1.60911 0
M  V30 3766 O 629.236 10.1388 1.11561 0
M  V30 3767 O 628.666 8.36503 2.79617 0
M  V30 3768 O 629.206 7.71806 0.42951 0
M  V30 3769 C 630.146 7.67148 -0.673689 0
M  V30 3770 C 629.416 7.33374 -1.95559 0
M  V30 3771 O 629.206 5.88721 -2.00726 0
M  V30 3772 C 628.016 7.92526 -2.10483 0
M  V30 3773 O 627.626 8.02971 -3.47653 0
M  V30 3774 C 627.136 6.89602 -1.41652 0
M  V30 3775 C 627.846 5.59201 -1.75185 0
M  V30 3776 N 627.796 4.58301 -0.657969 0
M  V30 3777 H 630.635 8.65116 -0.777161 0
M  V30 3778 H 630.907 6.9022 -0.46725 0
M  V30 3779 H 630.039 7.66548 -2.79458 0
M  V30 3780 H 627.384 5.16165 -2.65183 0
M  V30 3781 H 627.104 7.06433 -0.329384 0
M  V30 3782 H 626.113 6.90926 -1.82021 0
M  V30 3783 H 627.947 8.90873 -1.62657 0
M  V30 3784 P 626.076 8.03563 -3.84925 0
M  V30 3785 O 625.856 8.85821 -5.0569 0
M  V30 3786 O 625.286 8.41101 -2.65469 0
M  V30 3787 O 625.826 6.4965 -4.18908 0
M  V30 3788 C 626.766 5.81037 -5.05421 0
M  V30 3789 C 626.036 4.78366 -5.89277 0
M  V30 3790 O 625.826 3.58302 -5.08433 0
M  V30 3791 C 624.636 5.17448 -6.36119 0
M  V30 3792 O 624.246 4.45271 -7.53232 0
M  V30 3793 C 623.756 4.74639 -5.19936 0
M  V30 3794 C 624.466 3.49432 -4.70418 0
M  V30 3795 N 624.416 3.31776 -3.22945 0
M  V30 3796 H 627.255 6.54213 -5.71376 0
M  V30 3797 H 627.527 5.30492 -4.44033 0
M  V30 3798 H 626.659 4.55889 -6.76652 0
M  V30 3799 P 622.696 4.23843 -7.83734 0
M  V30 3800 O 622.476 4.19407 -9.29784 0
M  V30 3801 O 621.906 5.24426 -7.09156 0
M  V30 3802 O 622.446 2.79386 -7.20852 0
M  V30 3803 C 623.386 1.7299 -7.50419 0
M  V30 3804 C 622.656 0.41401 -7.5797 0
M  V30 3805 O 622.446 -0.089787 -6.22035 0
M  V30 3806 C 621.256 0.447224 -8.1878 0
M  V30 3807 O 620.866 -0.825159 -8.71201 0
M  V30 3808 C 620.376 0.783801 -6.99623 0
M  V30 3809 C 621.086 0.0619192 -5.85967 0
M  V30 3810 N 621.036 0.7859 -4.56281 0
M  V30 3811 C 620.886 0.0359258 -3.39981 0
M  V30 3812 O 620.796 -1.19723 -3.49038 0
M  V30 3813 N 620.836 0.869151 -2.14025 0
M  V30 3814 C 620.936 2.01207 -2.14363 0
M  V30 3815 N 620.886 2.58978 -0.954287 0
M  V30 3816 C 621.086 2.80817 -3.32215 0
M  V30 3817 C 621.136 2.13785 -4.50884 0
M  V30 3818 H 623.876 1.93401 -8.46693 0
M  V30 3819 H 624.146 1.68181 -6.71046 0
M  V30 3820 H 623.279 -0.289076 -8.15488 0
M  V30 3821 H 620.624 -0.927166 -5.72947 0
M  V30 3822 H 620.344 1.87 -6.82132 0
M  V30 3823 H 619.353 0.404009 -7.13457 0
M  V30 3824 H 621.187 1.20599 -8.97534 0
M  V30 3825 H 621.259 2.70295 -5.43162 0
M  V30 3826 H 621.157 3.89465 -3.27406 0
M  V30 3827 H 620.769 2.01616 -0.107046 0
M  V30 3828 H 620.965 3.61403 -0.873101 0
M  V30 3829 P 619.316 -1.17771 -8.83182 0
M  V30 3830 O 619.096 -2.07206 -9.98732 0
M  V30 3831 O 618.526 0.0743816 -8.81969 0
M  V30 3832 O 619.066 -1.97652 -7.47304 0
M  V30 3833 C 620.006 -3.01133 -7.08783 0
M  V30 3834 C 619.276 -4.12613 -6.37049 0
M  V30 3835 O 619.066 -3.72827 -4.97879 0
M  V30 3836 C 617.876 -4.45085 -6.88694 0
M  V30 3837 O 617.486 -5.7877 -6.5624 0
M  V30 3838 C 616.996 -3.47817 -6.12078 0
M  V30 3839 C 617.706 -3.39414 -4.77697 0
M  V30 3840 N 617.656 -2.04615 -4.15333 0
M  V30 3841 H 620.495 -3.41248 -7.98759 0
M  V30 3842 H 620.767 -2.5837 -6.41742 0
M  V30 3843 H 619.899 -5.02657 -6.42673 0
M  V30 3844 P 615.936 -6.144 -6.45285 0
M  V30 3845 O 615.716 -7.54673 -6.86199 0
M  V30 3846 O 615.146 -5.12391 -7.179 0
M  V30 3847 O 615.686 -5.99158 -4.88404 0
M  V30 3848 C 616.626 -6.60234 -3.96415 0
M  V30 3849 C 615.896 -7.08259 -2.72856 0
M  V30 3850 O 615.686 -5.9427 -1.83651 0
M  V30 3851 C 614.496 -7.64886 -2.9555 0
M  V30 3852 O 614.106 -8.53963 -1.90717 0
M  V30 3853 C 613.616 -6.4116 -2.90739 0
M  V30 3854 C 614.326 -5.55375 -1.86963 0
M  V30 3855 N 614.276 -4.09664 -2.15742 0
M  V30 3856 C 614.356 -3.44381 -3.37233 0
M  V30 3857 N 614.276 -2.14131 -3.28347 0
M  V30 3858 C 614.136 -1.90247 -1.91588 0
M  V30 3859 C 614.006 -0.683992 -1.20892 0
M  V30 3860 N 613.886 -0.903396 0.173998 0
M  V30 3861 C 613.886 -2.14171 0.784879 0
M  V30 3862 N 613.756 -2.1435 2.11317 0
M  V30 3863 N 614.016 -3.28784 0.119316 0
M  V30 3864 C 614.136 -3.0977 -1.22194 0
M  V30 3865 H 617.115 -7.45574 -4.45629 0
M  V30 3866 H 617.387 -5.86232 -3.67314 0
M  V30 3867 H 616.519 -7.84412 -2.24479 0
M  V30 3868 P 612.556 -8.7635 -1.60911 0
M  V30 3869 O 612.336 -10.1388 -1.11561 0
M  V30 3870 O 611.766 -8.36503 -2.79617 0
M  V30 3871 O 612.306 -7.71806 -0.42951 0
M  V30 3872 C 613.246 -7.67148 0.673689 0
M  V30 3873 C 612.516 -7.33374 1.95559 0
M  V30 3874 O 612.306 -5.88721 2.00726 0
M  V30 3875 C 611.116 -7.92526 2.10483 0
M  V30 3876 O 610.726 -8.02971 3.47653 0
M  V30 3877 C 610.236 -6.89602 1.41652 0
M  V30 3878 C 610.946 -5.59201 1.75185 0
M  V30 3879 N 610.896 -4.58235 0.662552 0
M  V30 3880 C 610.976 -4.7683 -0.704049 0
M  V30 3881 N 610.896 -3.66233 -1.39775 0
M  V30 3882 C 610.756 -2.66526 -0.431739 0
M  V30 3883 C 610.626 -1.26394 -0.575992 0
M  V30 3884 O 610.606 -0.589894 -1.60503 0
M  V30 3885 N 610.506 -0.62859 0.67177 0
M  V30 3886 C 610.506 -1.27134 1.89385 0
M  V30 3887 N 610.376 -0.492035 2.96951 0
M  V30 3888 N 610.636 -2.58978 2.02907 0
M  V30 3889 C 610.756 -3.22433 0.832218 0
M  V30 3890 H 613.735 -8.65116 0.777161 0
M  V30 3891 H 614.007 -6.90173 0.474152 0
M  V30 3892 H 613.139 -7.66548 2.79458 0
M  V30 3893 H 610.484 -5.16254 2.65229 0
M  V30 3894 H 610.204 -7.06532 0.329431 0
M  V30 3895 H 609.213 -6.91023 1.82047 0
M  V30 3896 H 611.047 -8.90971 1.62675 0
M  V30 3897 H 611.096 -5.74954 -1.16305 0
M  V30 3898 H 610.414 0.366713 0.674793 0
M  V30 3899 H 610.377 -0.908532 3.91188 0
M  V30 3900 H 610.276 0.528253 2.85758 0
M  V30 3901 P 609.176 -8.03563 3.84925 0
M  V30 3902 O 608.956 -8.85821 5.0569 0
M  V30 3903 O 608.386 -8.41101 2.65469 0
M  V30 3904 O 608.926 -6.4965 4.18908 0
M  V30 3905 C 609.866 -5.81037 5.05421 0
M  V30 3906 C 609.136 -4.78366 5.89277 0
M  V30 3907 O 608.926 -3.58302 5.08433 0
M  V30 3908 C 607.736 -5.17448 6.36119 0
M  V30 3909 O 607.346 -4.45271 7.53232 0
M  V30 3910 C 606.856 -4.74639 5.19936 0
M  V30 3911 C 607.566 -3.49432 4.70418 0
M  V30 3912 N 607.516 -3.31776 3.22945 0
M  V30 3913 C 607.596 -4.27147 2.23315 0
M  V30 3914 N 607.516 -3.78447 1.02186 0
M  V30 3915 C 607.376 -2.41001 1.21732 0
M  V30 3916 C 607.246 -1.36111 0.27694 0
M  V30 3917 O 607.226 -1.42065 -0.951767 0
M  V30 3918 N 607.126 -0.113683 0.912949 0
M  V30 3919 C 607.126 0.0846396 2.27943 0
M  V30 3920 N 606.996 1.34737 2.6916 0
M  V30 3921 N 607.256 -0.902521 3.16379 0
M  V30 3922 C 607.376 -2.11937 2.56849 0
M  V30 3923 H 610.355 -6.54213 5.71376 0
M  V30 3924 H 610.627 -5.30492 4.44033 0
M  V30 3925 H 609.759 -4.55889 6.76652 0
M  V30 3926 H 607.104 -2.6176 5.18021 0
M  V30 3927 H 606.824 -5.52233 4.41941 0
M  V30 3928 H 605.833 -4.52045 5.53452 0
M  V30 3929 H 607.667 -6.25193 6.55307 0
M  V30 3930 H 607.716 -5.3351 2.43857 0
M  V30 3931 H 607.034 0.69331 0.330371 0
M  V30 3932 H 606.997 1.56433 3.6988 0
M  V30 3933 H 606.896 2.10701 2.00133 0
M  V30 3934 P 605.796 -4.23843 7.83734 0
M  V30 3935 O 605.576 -4.19407 9.29784 0
M  V30 3936 O 605.006 -5.24426 7.09156 0
M  V30 3937 O 605.546 -2.7935 7.20758 0
M  V30 3938 C 606.486 -1.7299 7.50419 0
M  V30 3939 C 605.756 -0.406376 7.57911 0
M  V30 3940 O 605.546 0.0897726 6.21935 0
M  V30 3941 C 604.356 -0.447224 8.1878 0
M  V30 3942 O 603.966 0.825065 8.71101 0
M  V30 3943 C 603.476 -0.783801 6.99623 0
M  V30 3944 C 604.186 -0.0619192 5.85967 0
M  V30 3945 N 604.136 -0.7859 4.56281 0
M  V30 3946 C 604.216 -2.14308 4.31736 0
M  V30 3947 N 604.136 -2.46106 3.05116 0
M  V30 3948 C 603.996 -1.23422 2.4014 0
M  V30 3949 C 603.866 -0.938381 1.02409 0
M  V30 3950 O 603.846 -1.70876 0.0650402 0
M  V30 3951 N 603.746 0.444647 0.805413 0
M  V30 3952 C 603.746 1.40829 1.79435 0
M  V30 3953 N 603.616 2.67213 1.38558 0
M  V30 3954 N 603.876 1.12947 3.09005 0
M  V30 3955 C 603.996 -0.204887 3.32369 0
M  V30 3956 H 606.975 -1.93423 8.4679 0
M  V30 3957 H 607.247 -1.68181 6.71046 0
M  V30 3958 H 606.379 0.289041 8.15388 0
M  V30 3959 H 603.724 0.927166 5.72947 0
M  V30 3960 H 603.444 -1.87 6.82132 0
M  V30 3961 H 602.453 -0.404009 7.13457 0
M  V30 3962 H 604.287 -1.20612 8.97633 0
M  V30 3963 H 604.336 -2.88284 5.10874 0
M  V30 3964 H 603.654 0.755087 -0.140242 0
M  V30 3965 H 603.617 3.43967 2.0729 0
M  V30 3966 H 603.516 2.88096 0.380644 0
M  V30 3967 P 602.416 1.17771 8.83182 0
M  V30 3968 O 602.196 2.07206 9.98732 0
M  V30 3969 O 601.626 -0.0743816 8.81969 0
M  V30 3970 O 602.166 1.97678 7.474 0
M  V30 3971 C 603.106 3.01133 7.08783 0
M  V30 3972 C 602.376 4.1203 6.37546 0
M  V30 3973 O 602.166 3.72887 4.9796 0
M  V30 3974 C 600.976 4.45085 6.88694 0
M  V30 3975 O 600.586 5.78836 6.56315 0
M  V30 3976 C 600.096 3.47817 6.12078 0
M  V30 3977 C 600.806 3.39414 4.77697 0
M  V30 3978 N 600.756 2.04615 4.15333 0
M  V30 3979 C 600.606 1.96929 2.77162 0
M  V30 3980 O 600.516 3.02017 2.12006 0
M  V30 3981 N 600.556 0.55485 2.24237 0
M  V30 3982 C 600.656 -0.367808 2.9169 0
M  V30 3983 N 600.606 -1.53426 2.29427 0
M  V30 3984 C 600.806 -0.319148 4.33828 0
M  V30 3985 C 600.856 0.920672 4.90433 0
M  V30 3986 H 603.596 3.41209 7.98667 0
M  V30 3987 H 603.866 2.5837 6.41742 0
M  V30 3988 H 602.999 5.02718 6.42752 0
M  V30 3989 H 600.344 4.11779 4.09026 0
M  V30 3990 H 600.064 2.49661 6.61772 0
M  V30 3991 H 599.073 3.86674 6.00946 0
M  V30 3992 H 600.907 4.29991 7.97006 0
M  V30 3993 H 600.979 1.00589 5.98303 0
M  V30 3994 H 600.877 -1.22639 4.93799 0
M  V30 3995 H 600.489 -1.56819 1.27167 0
M  V30 3996 H 600.685 -2.41062 2.83063 0
M  V30 3997 P 599.036 6.144 6.45285 0
M  V30 3998 O 598.816 7.54673 6.86199 0
M  V30 3999 O 598.246 5.12391 7.179 0
M  V30 4000 O 598.786 5.99158 4.88404 0
M  V30 4001 C 599.726 6.60234 3.96415 0
M  V30 4002 C 598.996 7.08259 2.72856 0
M  V30 4003 O 598.786 5.9427 1.83651 0
M  V30 4004 C 597.596 7.64886 2.9555 0
M  V30 4005 O 597.206 8.53963 1.90717 0
M  V30 4006 C 596.716 6.4116 2.90739 0
M  V30 4007 C 597.426 5.55375 1.86963 0
M  V30 4008 N 597.376 4.09664 2.15742 0
M  V30 4009 H 600.215 7.45574 4.45629 0
M  V30 4010 H 600.487 5.86232 3.67314 0
M  V30 4011 H 599.619 7.84412 2.24479 0
M  V30 4012 P 595.656 8.7635 1.60911 0
M  V30 4013 O 595.437 10.1388 1.11561 0
M  V30 4014 O 594.866 8.36503 2.79617 0
M  V30 4015 O 595.406 7.71806 0.42951 0
M  V30 4016 C 596.346 7.67148 -0.673689 0
M  V30 4017 C 595.616 7.33374 -1.95559 0
M  V30 4018 O 595.406 5.88721 -2.00726 0
M  V30 4019 C 594.216 7.92526 -2.10483 0
M  V30 4020 O 593.827 8.02971 -3.47653 0
M  V30 4021 C 593.337 6.89602 -1.41652 0
M  V30 4022 C 594.046 5.59201 -1.75185 0
M  V30 4023 N 593.996 4.58235 -0.662552 0
M  V30 4024 H 596.836 8.65116 -0.777161 0
M  V30 4025 H 597.107 6.90173 -0.474152 0
M  V30 4026 H 596.24 7.66548 -2.79458 0
M  V30 4027 P 592.277 8.03563 -3.84925 0
M  V30 4028 O 592.057 8.85821 -5.0569 0
M  V30 4029 O 591.487 8.41101 -2.65469 0
M  V30 4030 O 592.027 6.4965 -4.18908 0
M  V30 4031 C 592.967 5.81037 -5.05421 0
M  V30 4032 C 592.237 4.78366 -5.89277 0
M  V30 4033 O 592.027 3.58302 -5.08433 0
M  V30 4034 C 590.837 5.17448 -6.36119 0
M  V30 4035 O 590.447 4.45271 -7.53232 0
M  V30 4036 C 589.957 4.74639 -5.19936 0
M  V30 4037 C 590.667 3.49432 -4.70418 0
M  V30 4038 N 590.617 3.31776 -3.22945 0
M  V30 4039 H 593.456 6.54213 -5.71376 0
M  V30 4040 H 593.728 5.30492 -4.44033 0
M  V30 4041 H 592.86 4.55889 -6.76652 0
M  V30 4042 P 588.897 4.23843 -7.83734 0
M  V30 4043 O 588.677 4.19407 -9.29784 0
M  V30 4044 O 588.107 5.24426 -7.09156 0
M  V30 4045 O 588.647 2.7935 -7.20758 0
M  V30 4046 C 589.587 1.7299 -7.50419 0
M  V30 4047 C 588.857 0.406376 -7.57911 0
M  V30 4048 O 588.647 -0.0897726 -6.21935 0
M  V30 4049 C 587.457 0.447224 -8.1878 0
M  V30 4050 O 587.067 -0.825065 -8.71101 0
M  V30 4051 C 586.577 0.783801 -6.99623 0
M  V30 4052 C 587.287 0.0619192 -5.85967 0
M  V30 4053 N 587.237 0.790462 -4.56202 0
M  V30 4054 H 590.076 1.93423 -8.4679 0
M  V30 4055 H 590.348 1.68852 -6.70877 0
M  V30 4056 H 589.48 -0.289041 -8.15388 0
M  V30 4057 H 586.825 -0.927006 -5.72848 0
M  V30 4058 H 586.545 1.86973 -6.82036 0
M  V30 4059 H 585.554 0.403953 -7.13357 0
M  V30 4060 H 587.388 1.20599 -8.97534 0
M  V30 4061 P 585.517 -1.17771 -8.83182 0
M  V30 4062 O 585.297 -2.07206 -9.98732 0
M  V30 4063 O 584.727 0.0743816 -8.81969 0
M  V30 4064 O 585.267 -1.97652 -7.47304 0
M  V30 4065 C 586.207 -3.01133 -7.08783 0
M  V30 4066 C 585.477 -4.12613 -6.37049 0
M  V30 4067 O 585.267 -3.72827 -4.97879 0
M  V30 4068 C 584.077 -4.45085 -6.88694 0
M  V30 4069 O 583.687 -5.7877 -6.5624 0
M  V30 4070 C 583.197 -3.47817 -6.12078 0
M  V30 4071 C 583.907 -3.39414 -4.77697 0
M  V30 4072 N 583.857 -2.04615 -4.15333 0
M  V30 4073 H 586.696 -3.41248 -7.98759 0
M  V30 4074 H 586.968 -2.5837 -6.41742 0
M  V30 4075 H 586.1 -5.02657 -6.42673 0
M  V30 4076 P 582.137 -6.144 -6.45285 0
M  V30 4077 O 581.917 -7.54673 -6.86199 0
M  V30 4078 O 581.347 -5.12391 -7.179 0
M  V30 4079 O 581.887 -5.99158 -4.88404 0
M  V30 4080 C 582.827 -6.60234 -3.96415 0
M  V30 4081 C 582.097 -7.08259 -2.72856 0
M  V30 4082 O 581.887 -5.9427 -1.83651 0
M  V30 4083 C 580.697 -7.64886 -2.9555 0
M  V30 4084 O 580.307 -8.53963 -1.90717 0
M  V30 4085 C 579.817 -6.4116 -2.90739 0
M  V30 4086 C 580.527 -5.55375 -1.86963 0
M  V30 4087 N 580.477 -4.09664 -2.15742 0
M  V30 4088 H 583.316 -7.45574 -4.45629 0
M  V30 4089 H 583.588 -5.86232 -3.67314 0
M  V30 4090 H 582.72 -7.84412 -2.24479 0
M  V30 4091 P 578.757 -8.7635 -1.60911 0
M  V30 4092 O 578.537 -10.1388 -1.11561 0
M  V30 4093 O 577.967 -8.36503 -2.79617 0
M  V30 4094 O 578.507 -7.71806 -0.42951 0
M  V30 4095 C 579.447 -7.67148 0.673689 0
M  V30 4096 C 578.717 -7.33374 1.95559 0
M  V30 4097 O 578.507 -5.88721 2.00726 0
M  V30 4098 C 577.317 -7.92526 2.10483 0
M  V30 4099 O 576.927 -8.02971 3.47653 0
M  V30 4100 C 576.437 -6.89602 1.41652 0
M  V30 4101 C 577.147 -5.59201 1.75185 0
M  V30 4102 N 577.097 -4.58235 0.662552 0
M  V30 4103 H 579.936 -8.65116 0.777161 0
M  V30 4104 H 580.208 -6.90173 0.474152 0
M  V30 4105 H 579.34 -7.66548 2.79458 0
M  V30 4106 P 575.377 -8.03563 3.84925 0
M  V30 4107 O 575.157 -8.85821 5.0569 0
M  V30 4108 O 574.587 -8.41101 2.65469 0
M  V30 4109 O 575.127 -6.49734 4.18962 0
M  V30 4110 C 576.067 -5.81037 5.05421 0
M  V30 4111 C 575.337 -4.79018 5.88876 0
M  V30 4112 O 575.127 -3.58359 5.08515 0
M  V30 4113 C 573.937 -5.17448 6.36119 0
M  V30 4114 O 573.547 -4.45322 7.53318 0
M  V30 4115 C 573.057 -4.74639 5.19936 0
M  V30 4116 C 573.767 -3.49432 4.70418 0
M  V30 4117 N 573.717 -3.31776 3.22945 0
M  V30 4118 C 573.567 -2.02742 2.72939 0
M  V30 4119 O 573.477 -1.08301 3.52749 0
M  V30 4120 N 573.517 -1.96117 1.22063 0
M  V30 4121 C 573.617 -2.8878 0.551566 0
M  V30 4122 N 573.567 -2.65609 -0.750198 0
M  V30 4123 C 573.767 -4.22457 1.03707 0
M  V30 4124 C 573.817 -4.37979 2.39113 0
M  V30 4125 H 576.557 -6.54138 5.7131 0
M  V30 4126 H 576.827 -5.30492 4.44033 0
M  V30 4127 H 575.96 -4.55945 6.76735 0
M  V30 4128 H 573.305 -2.6176 5.18021 0
M  V30 4129 H 573.025 -5.52233 4.41941 0
M  V30 4130 H 572.034 -4.52045 5.53452 0
M  V30 4131 H 573.868 -6.25124 6.55234 0
M  V30 4132 H 573.94 -5.37936 2.80552 0
M  V30 4133 H 573.838 -5.07528 0.359553 0
M  V30 4134 H 573.45 -1.69403 -1.09847 0
M  V30 4135 H 573.646 -3.43701 -1.41792 0
M  V30 4136 P 571.997 -4.23843 7.83734 0
M  V30 4137 O 571.777 -4.19407 9.29784 0
M  V30 4138 O 571.207 -5.24426 7.09156 0
M  V30 4139 O 571.747 -2.7935 7.20758 0
M  V30 4140 C 572.687 -1.7299 7.50419 0
M  V30 4141 C 571.957 -0.406376 7.57911 0
M  V30 4142 O 571.747 0.0897726 6.21935 0
M  V30 4143 C 570.557 -0.447224 8.1878 0
M  V30 4144 O 570.167 0.825065 8.71101 0
M  V30 4145 C 569.677 -0.783801 6.99623 0
M  V30 4146 C 570.387 -0.0619192 5.85967 0
M  V30 4147 N 570.337 -0.7859 4.56281 0
M  V30 4148 C 570.417 -2.14308 4.31736 0
M  V30 4149 N 570.337 -2.46106 3.05116 0
M  V30 4150 C 570.197 -1.23422 2.4014 0
M  V30 4151 C 570.067 -0.938381 1.02409 0
M  V30 4152 O 570.047 -1.70876 0.0650402 0
M  V30 4153 N 569.947 0.444647 0.805413 0
M  V30 4154 C 569.947 1.40829 1.79435 0
M  V30 4155 N 569.817 2.67213 1.38558 0
M  V30 4156 N 570.077 1.12947 3.09005 0
M  V30 4157 C 570.197 -0.204887 3.32369 0
M  V30 4158 H 573.176 -1.93423 8.4679 0
M  V30 4159 H 573.448 -1.68181 6.71046 0
M  V30 4160 H 572.58 0.289041 8.15388 0
M  V30 4161 H 569.925 0.927166 5.72947 0
M  V30 4162 H 569.645 -1.87 6.82132 0
M  V30 4163 H 568.654 -0.404009 7.13457 0
M  V30 4164 H 570.488 -1.20612 8.97633 0
M  V30 4165 H 570.537 -2.88284 5.10874 0
M  V30 4166 H 569.855 0.755087 -0.140242 0
M  V30 4167 H 569.818 3.43967 2.0729 0
M  V30 4168 H 569.717 2.88096 0.380644 0
M  V30 4169 P 568.617 1.17771 8.83182 0
M  V30 4170 O 568.397 2.07206 9.98732 0
M  V30 4171 O 567.827 -0.0743816 8.81969 0
M  V30 4172 O 568.367 1.97652 7.47304 0
M  V30 4173 C 569.307 3.01055 7.08599 0
M  V30 4174 C 568.577 4.12613 6.37049 0
M  V30 4175 O 568.367 3.72827 4.97879 0
M  V30 4176 C 567.177 4.45719 6.88164 0
M  V30 4177 O 566.787 5.7877 6.5624 0
M  V30 4178 C 566.297 3.47768 6.11991 0
M  V30 4179 C 567.007 3.39356 4.77615 0
M  V30 4180 N 566.957 2.04571 4.15244 0
M  V30 4181 C 566.807 1.98587 2.78314 0
M  V30 4182 O 566.717 2.98134 2.08835 0
M  V30 4183 N 566.767 0.714467 2.24925 0
M  V30 4184 C 566.857 -0.470001 2.94169 0
M  V30 4185 O 566.807 -1.55587 2.35195 0
M  V30 4186 C 567.007 -0.312541 4.36783 0
M  V30 4187 C 567.117 -1.57711 5.16352 0
M  V30 4188 C 567.057 0.914512 4.92583 0
M  V30 4189 H 569.798 3.41169 7.98575 0
M  V30 4190 H 570.067 2.58295 6.41556 0
M  V30 4191 H 569.2 5.02657 6.42673 0
M  V30 4192 H 566.545 4.11637 4.08885 0
M  V30 4193 H 566.266 2.49626 6.61679 0
M  V30 4194 H 565.274 3.86566 6.00778 0
M  V30 4195 H 567.108 4.29943 7.96918 0
M  V30 4196 H 567.179 1.00937 6.00374 0
M  V30 4197 H 566.149 -1.80153 5.63503 0
M  V30 4198 H 567.886 -1.4566 5.94104 0
M  V30 4199 H 567.398 -2.40664 4.49645 0
M  V30 4200 H 566.662 0.647622 1.25697 0
M  V30 4201 P 565.237 6.144 6.45285 0
M  V30 4202 O 565.017 7.54673 6.86199 0
M  V30 4203 O 564.447 5.12391 7.179 0
M  V30 4204 O 564.987 5.99158 4.88404 0
M  V30 4205 C 565.927 6.60234 3.96415 0
M  V30 4206 C 565.197 7.08259 2.72856 0
M  V30 4207 O 564.987 5.9427 1.83651 0
M  V30 4208 C 563.797 7.64886 2.9555 0
M  V30 4209 O 563.407 8.53963 1.90717 0
M  V30 4210 C 562.917 6.4116 2.90739 0
M  V30 4211 C 563.627 5.55375 1.86963 0
M  V30 4212 N 563.577 4.09664 2.15742 0
M  V30 4213 H 566.416 7.45574 4.45629 0
M  V30 4214 H 566.688 5.86232 3.67314 0
M  V30 4215 H 565.82 7.84412 2.24479 0
M  V30 4216 P 561.857 8.7635 1.60911 0
M  V30 4217 O 561.637 10.1388 1.11561 0
M  V30 4218 O 561.067 8.36503 2.79617 0
M  V30 4219 O 561.607 7.71806 0.42951 0
M  V30 4220 C 562.547 7.67148 -0.673689 0
M  V30 4221 C 561.817 7.33374 -1.95559 0
M  V30 4222 O 561.607 5.88721 -2.00726 0
M  V30 4223 C 560.417 7.92526 -2.10483 0
M  V30 4224 O 560.027 8.02971 -3.47653 0
M  V30 4225 C 559.537 6.89602 -1.41652 0
M  V30 4226 C 560.247 5.59201 -1.75185 0
M  V30 4227 N 560.197 4.58235 -0.662552 0
M  V30 4228 H 563.036 8.65116 -0.777161 0
M  V30 4229 H 563.308 6.90173 -0.474152 0
M  V30 4230 H 562.44 7.66548 -2.79458 0
M  V30 4231 P 558.477 8.03563 -3.84925 0
M  V30 4232 O 558.257 8.85821 -5.0569 0
M  V30 4233 O 557.687 8.41101 -2.65469 0
M  V30 4234 O 558.227 6.4965 -4.18908 0
M  V30 4235 C 559.167 5.81037 -5.05421 0
M  V30 4236 C 558.437 4.78366 -5.89277 0
M  V30 4237 O 558.227 3.58302 -5.08433 0
M  V30 4238 C 557.037 5.17448 -6.36119 0
M  V30 4239 O 556.647 4.45271 -7.53232 0
M  V30 4240 C 556.157 4.74639 -5.19936 0
M  V30 4241 C 556.867 3.49432 -4.70418 0
M  V30 4242 N 556.817 3.31776 -3.22945 0
M  V30 4243 H 559.656 6.54213 -5.71376 0
M  V30 4244 H 559.928 5.30492 -4.44033 0
M  V30 4245 H 559.06 4.55889 -6.76652 0
M  V30 4246 P 555.097 4.23843 -7.83734 0
M  V30 4247 O 554.877 4.19407 -9.29784 0
M  V30 4248 O 554.307 5.24426 -7.09156 0
M  V30 4249 O 554.847 2.7935 -7.20758 0
M  V30 4250 C 555.787 1.7299 -7.50419 0
M  V30 4251 C 555.057 0.406376 -7.57911 0
M  V30 4252 O 554.847 -0.0897726 -6.21935 0
M  V30 4253 C 553.657 0.447224 -8.1878 0
M  V30 4254 O 553.267 -0.825065 -8.71101 0
M  V30 4255 C 552.777 0.783801 -6.99623 0
M  V30 4256 C 553.487 0.0619192 -5.85967 0
M  V30 4257 N 553.437 0.790462 -4.56202 0
M  V30 4258 H 556.276 1.93423 -8.4679 0
M  V30 4259 H 556.548 1.68852 -6.70877 0
M  V30 4260 H 555.68 -0.289041 -8.15388 0
M  V30 4261 H 553.025 -0.927006 -5.72848 0
M  V30 4262 H 552.745 1.86973 -6.82036 0
M  V30 4263 H 551.754 0.403953 -7.13357 0
M  V30 4264 H 553.588 1.20599 -8.97534 0
M  V30 4265 P 551.717 -1.17771 -8.83182 0
M  V30 4266 O 551.497 -2.07206 -9.98732 0
M  V30 4267 O 550.927 0.0743816 -8.81969 0
M  V30 4268 O 551.467 -1.97652 -7.47304 0
M  V30 4269 C 552.407 -3.01133 -7.08783 0
M  V30 4270 C 551.677 -4.12613 -6.37049 0
M  V30 4271 O 551.467 -3.72827 -4.97879 0
M  V30 4272 C 550.277 -4.45085 -6.88694 0
M  V30 4273 O 549.887 -5.7877 -6.5624 0
M  V30 4274 C 549.397 -3.47817 -6.12078 0
M  V30 4275 C 550.107 -3.39414 -4.77697 0
M  V30 4276 N 550.057 -2.04615 -4.15333 0
M  V30 4277 C 550.137 -0.803897 -4.75249 0
M  V30 4278 N 550.057 0.197615 -3.91502 0
M  V30 4279 C 549.917 -0.413002 -2.66823 0
M  V30 4280 C 549.787 0.157221 -1.38007 0
M  V30 4281 N 549.667 -0.833136 -0.390236 0
M  V30 4282 C 549.667 -2.19402 -0.623885 0
M  V30 4283 N 549.537 -2.97622 0.449677 0
M  V30 4284 N 549.797 -2.73005 -1.83601 0
M  V30 4285 C 549.917 -1.78786 -2.80935 0
M  V30 4286 H 552.896 -3.41248 -7.98759 0
M  V30 4287 H 553.168 -2.5837 -6.41742 0
M  V30 4288 H 552.3 -5.02657 -6.42673 0
M  V30 4289 P 548.337 -6.144 -6.45285 0
M  V30 4290 O 548.117 -7.54673 -6.86199 0
M  V30 4291 O 547.547 -5.12391 -7.179 0
M  V30 4292 O 548.087 -5.99158 -4.88404 0
M  V30 4293 C 549.027 -6.60234 -3.96415 0
M  V30 4294 C 548.297 -7.08259 -2.72856 0
M  V30 4295 O 548.087 -5.9427 -1.83651 0
M  V30 4296 C 546.897 -7.64886 -2.9555 0
M  V30 4297 O 546.507 -8.53963 -1.90717 0
M  V30 4298 C 546.017 -6.4116 -2.90739 0
M  V30 4299 C 546.727 -5.55375 -1.86963 0
M  V30 4300 N 546.677 -4.09664 -2.15742 0
M  V30 4301 C 546.757 -3.44381 -3.37233 0
M  V30 4302 N 546.677 -2.14131 -3.28347 0
M  V30 4303 C 546.537 -1.90247 -1.91588 0
M  V30 4304 C 546.407 -0.683992 -1.20892 0
M  V30 4305 O 546.387 0.46618 -1.64523 0
M  V30 4306 N 546.287 -0.903396 0.173998 0
M  V30 4307 C 546.287 -2.14171 0.784879 0
M  V30 4308 N 546.157 -2.1435 2.11317 0
M  V30 4309 N 546.417 -3.28784 0.119316 0
M  V30 4310 C 546.537 -3.0977 -1.22194 0
M  V30 4311 H 549.516 -7.45574 -4.45629 0
M  V30 4312 H 549.788 -5.86232 -3.67314 0
M  V30 4313 H 548.92 -7.84412 -2.24479 0
M  V30 4314 H 546.265 -5.73556 -0.888715 0
M  V30 4315 H 545.985 -5.9096 -3.88638 0
M  V30 4316 H 544.994 -6.66053 -2.58894 0
M  V30 4317 H 546.828 -8.16429 -3.92093 0
M  V30 4318 H 546.877 -3.96785 -4.32043 0
M  V30 4319 H 546.195 -0.0999567 0.761467 0
M  V30 4320 H 546.158 -3.03436 2.63076 0
M  V30 4321 H 546.057 -1.25228 2.62233 0
M  V30 4322 P 544.957 -8.7635 -1.60911 0
M  V30 4323 O 544.737 -10.1388 -1.11561 0
M  V30 4324 O 544.167 -8.36503 -2.79617 0
M  V30 4325 O 544.707 -7.71806 -0.42951 0
M  V30 4326 C 545.647 -7.67148 0.673689 0
M  V30 4327 C 544.917 -7.33374 1.95559 0
M  V30 4328 O 544.707 -5.88721 2.00726 0
M  V30 4329 C 543.517 -7.92526 2.10483 0
M  V30 4330 O 543.127 -8.02971 3.47653 0
M  V30 4331 C 542.637 -6.89602 1.41652 0
M  V30 4332 C 543.347 -5.59201 1.75185 0
M  V30 4333 N 543.297 -4.58235 0.662552 0
M  V30 4334 H 546.136 -8.65116 0.777161 0
M  V30 4335 H 546.408 -6.90173 0.474152 0
M  V30 4336 H 545.54 -7.66548 2.79458 0
M  V30 4337 P 541.577 -8.03563 3.84925 0
M  V30 4338 O 541.357 -8.85821 5.0569 0
M  V30 4339 O 540.787 -8.41101 2.65469 0
M  V30 4340 O 541.327 -6.4965 4.18908 0
M  V30 4341 C 542.267 -5.81037 5.05421 0
M  V30 4342 C 541.537 -4.78366 5.89277 0
M  V30 4343 O 541.327 -3.58302 5.08433 0
M  V30 4344 C 540.137 -5.17448 6.36119 0
M  V30 4345 O 539.747 -4.45271 7.53232 0
M  V30 4346 C 539.257 -4.74639 5.19936 0
M  V30 4347 C 539.967 -3.49432 4.70418 0
M  V30 4348 N 539.917 -3.32099 3.22613 0
M  V30 4349 C 539.997 -4.28245 2.25527 0
M  V30 4350 N 539.927 -3.80823 1.04874 0
M  V30 4351 C 539.777 -2.44571 1.23535 0
M  V30 4352 C 539.647 -1.37068 0.330675 0
M  V30 4353 N 539.637 -1.51472 -0.990824 0
M  V30 4354 N 539.527 -0.138614 0.848756 0
M  V30 4355 C 539.537 0.00675923 2.16999 0
M  V30 4356 N 539.657 -0.904372 3.11122 0
M  V30 4357 C 539.777 -2.12707 2.56212 0
M  V30 4358 H 542.756 -6.54213 5.71376 0
M  V30 4359 H 543.028 -5.30936 4.43503 0
M  V30 4360 H 542.16 -4.55889 6.76652 0
M  V30 4361 H 539.505 -2.61715 5.17932 0
M  V30 4362 H 539.225 -5.52155 4.41878 0
M  V30 4363 H 538.234 -4.51981 5.53374 0
M  V30 4364 H 540.068 -6.25124 6.55234 0
M  V30 4365 H 540.109 -5.34372 2.47488 0
M  V30 4366 H 539.728 -2.45153 -1.4078 0
M  V30 4367 H 539.539 -0.688422 -1.59911 0
M  V30 4368 H 539.431 1.02584 2.52346 0
M  V30 4369 P 538.197 -4.23843 7.83734 0
M  V30 4370 O 537.977 -4.19407 9.29784 0
M  V30 4371 O 537.407 -5.24426 7.09156 0
M  V30 4372 O 537.947 -2.7935 7.20758 0
M  V30 4373 C 538.887 -1.7299 7.50419 0
M  V30 4374 C 538.157 -0.406376 7.57911 0
M  V30 4375 O 537.947 0.0897726 6.21935 0
M  V30 4376 C 536.757 -0.447224 8.1878 0
M  V30 4377 O 536.367 0.825065 8.71101 0
M  V30 4378 C 535.877 -0.783801 6.99623 0
M  V30 4379 C 536.587 -0.0619192 5.85967 0
M  V30 4380 N 536.537 -0.790462 4.56202 0
M  V30 4381 C 536.617 -2.13895 4.34171 0
M  V30 4382 N 536.547 -2.46449 3.08687 0
M  V30 4383 C 536.397 -1.2525 2.43697 0
M  V30 4384 C 536.267 -0.914535 1.07318 0
M  V30 4385 N 536.257 -1.80782 0.0887348 0
M  V30 4386 N 536.147 0.386745 0.768133 0
M  V30 4387 C 536.157 1.28096 1.75159 0
M  V30 4388 N 536.277 1.09708 3.04861 0
M  V30 4389 C 536.397 -0.214857 3.32306 0
M  V30 4390 H 539.376 -1.93423 8.4679 0
M  V30 4391 H 539.648 -1.68852 6.70877 0
M  V30 4392 H 538.78 0.289041 8.15388 0
M  V30 4393 H 536.125 0.927006 5.72848 0
M  V30 4394 H 535.845 -1.86973 6.82036 0
M  V30 4395 H 534.854 -0.403953 7.13357 0
M  V30 4396 H 536.688 -1.20599 8.97534 0
M  V30 4397 H 536.729 -2.86846 5.14318 0
M  V30 4398 H 536.348 -2.81082 0.302037 0
M  V30 4399 H 536.159 -1.49688 -0.889064 0
M  V30 4400 H 536.051 2.31317 1.43855 0
M  V30 4401 P 534.817 1.17771 8.83182 0
M  V30 4402 O 534.597 2.07206 9.98732 0
M  V30 4403 O 534.027 -0.0743816 8.81969 0
M  V30 4404 O 534.567 1.97678 7.474 0
M  V30 4405 C 535.507 3.01133 7.08783 0
M  V30 4406 C 534.777 4.1203 6.37546 0
M  V30 4407 O 534.567 3.72887 4.9796 0
M  V30 4408 C 533.377 4.45085 6.88694 0
M  V30 4409 O 532.987 5.78836 6.56315 0
M  V30 4410 C 532.497 3.47817 6.12078 0
M  V30 4411 C 533.207 3.39414 4.77697 0
M  V30 4412 N 533.157 2.04615 4.15333 0
M  V30 4413 C 533.007 1.96929 2.77162 0
M  V30 4414 O 532.917 3.02017 2.12006 0
M  V30 4415 N 532.957 0.55485 2.24237 0
M  V30 4416 C 533.057 -0.367808 2.9169 0
M  V30 4417 N 533.007 -1.53426 2.29427 0
M  V30 4418 C 533.207 -0.319148 4.33828 0
M  V30 4419 C 533.257 0.920672 4.90433 0
M  V30 4420 H 535.997 3.41209 7.98667 0
M  V30 4421 H 536.267 2.5837 6.41742 0
M  V30 4422 H 535.4 5.02718 6.42752 0
M  V30 4423 H 532.745 4.11779 4.09026 0
M  V30 4424 H 532.465 2.49661 6.61772 0
M  V30 4425 H 531.474 3.86674 6.00946 0
M  V30 4426 H 533.308 4.29991 7.97006 0
M  V30 4427 H 533.38 1.00589 5.98303 0
M  V30 4428 H 533.278 -1.22639 4.93799 0
M  V30 4429 H 532.89 -1.56819 1.27167 0
M  V30 4430 H 533.086 -2.41062 2.83063 0
M  V30 4431 P 531.437 6.144 6.45285 0
M  V30 4432 O 531.217 7.54673 6.86199 0
M  V30 4433 O 530.647 5.12391 7.179 0
M  V30 4434 O 531.187 5.99158 4.88404 0
M  V30 4435 C 532.127 6.60234 3.96415 0
M  V30 4436 C 531.397 7.08259 2.72856 0
M  V30 4437 O 531.187 5.9427 1.83651 0
M  V30 4438 C 529.997 7.64886 2.9555 0
M  V30 4439 O 529.607 8.53963 1.90717 0
M  V30 4440 C 529.117 6.4116 2.90739 0
M  V30 4441 C 529.827 5.55375 1.86963 0
M  V30 4442 N 529.777 4.09664 2.15742 0
M  V30 4443 H 532.616 7.45574 4.45629 0
M  V30 4444 H 532.888 5.86232 3.67314 0
M  V30 4445 H 532.02 7.84412 2.24479 0
M  V30 4446 P 528.057 8.7635 1.60911 0
M  V30 4447 O 527.837 10.1388 1.11561 0
M  V30 4448 O 527.267 8.36503 2.79617 0
M  V30 4449 O 527.807 7.71806 0.42951 0
M  V30 4450 C 528.747 7.67148 -0.673689 0
M  V30 4451 C 528.017 7.33374 -1.95559 0
M  V30 4452 O 527.807 5.88721 -2.00726 0
M  V30 4453 C 526.617 7.92526 -2.10483 0
M  V30 4454 O 526.227 8.02971 -3.47653 0
M  V30 4455 C 525.737 6.89602 -1.41652 0
M  V30 4456 C 526.447 5.59201 -1.75185 0
M  V30 4457 N 526.397 4.58235 -0.662552 0
M  V30 4458 H 529.236 8.65116 -0.777161 0
M  V30 4459 H 529.508 6.90173 -0.474152 0
M  V30 4460 H 528.64 7.66548 -2.79458 0
M  V30 4461 P 524.677 8.03563 -3.84925 0
M  V30 4462 O 524.457 8.85821 -5.0569 0
M  V30 4463 O 523.887 8.41101 -2.65469 0
M  V30 4464 O 524.427 6.4965 -4.18908 0
M  V30 4465 C 525.367 5.81037 -5.05421 0
M  V30 4466 C 524.637 4.78366 -5.89277 0
M  V30 4467 O 524.427 3.58302 -5.08433 0
M  V30 4468 C 523.237 5.17448 -6.36119 0
M  V30 4469 O 522.847 4.45271 -7.53232 0
M  V30 4470 C 522.357 4.74639 -5.19936 0
M  V30 4471 C 523.067 3.49432 -4.70418 0
M  V30 4472 N 523.017 3.32099 -3.22613 0
M  V30 4473 H 525.856 6.54213 -5.71376 0
M  V30 4474 H 526.128 5.30936 -4.43503 0
M  V30 4475 H 525.26 4.55889 -6.76652 0
M  V30 4476 H 522.605 2.61715 -5.17932 0
M  V30 4477 H 522.325 5.52155 -4.41878 0
M  V30 4478 H 521.334 4.51981 -5.53374 0
M  V30 4479 H 523.168 6.25124 -6.55234 0
M  V30 4480 P 521.297 4.23843 -7.83734 0
M  V30 4481 O 521.077 4.19407 -9.29784 0
M  V30 4482 O 520.507 5.24426 -7.09156 0
M  V30 4483 O 521.047 2.7935 -7.20758 0
M  V30 4484 C 521.987 1.7299 -7.50419 0
M  V30 4485 C 521.257 0.406376 -7.57911 0
M  V30 4486 O 521.047 -0.0897726 -6.21935 0
M  V30 4487 C 519.857 0.447224 -8.1878 0
M  V30 4488 O 519.467 -0.825065 -8.71101 0
M  V30 4489 C 518.977 0.783801 -6.99623 0
M  V30 4490 C 519.687 0.0619192 -5.85967 0
M  V30 4491 N 519.637 0.7859 -4.56281 0
M  V30 4492 H 522.476 1.93423 -8.4679 0
M  V30 4493 H 522.748 1.68181 -6.71046 0
M  V30 4494 H 521.88 -0.289041 -8.15388 0
M  V30 4495 P 517.917 -1.17771 -8.83182 0
M  V30 4496 O 517.697 -2.07206 -9.98732 0
M  V30 4497 O 517.127 0.0743816 -8.81969 0
M  V30 4498 O 517.667 -1.97678 -7.474 0
M  V30 4499 C 518.607 -3.01133 -7.08783 0
M  V30 4500 C 517.877 -4.1203 -6.37546 0
M  V30 4501 O 517.667 -3.72887 -4.9796 0
M  V30 4502 C 516.477 -4.45085 -6.88694 0
M  V30 4503 O 516.087 -5.78836 -6.56315 0
M  V30 4504 C 515.597 -3.47817 -6.12078 0
M  V30 4505 C 516.307 -3.39414 -4.77697 0
M  V30 4506 N 516.257 -2.04615 -4.15333 0
M  V30 4507 C 516.107 -1.96929 -2.77162 0
M  V30 4508 O 516.017 -3.02017 -2.12006 0
M  V30 4509 N 516.057 -0.55485 -2.24237 0
M  V30 4510 C 516.157 0.367808 -2.9169 0
M  V30 4511 N 516.107 1.53426 -2.29427 0
M  V30 4512 C 516.307 0.319148 -4.33828 0
M  V30 4513 C 516.357 -0.920672 -4.90433 0
M  V30 4514 H 519.097 -3.41209 -7.98667 0
M  V30 4515 H 519.367 -2.5837 -6.41742 0
M  V30 4516 H 518.5 -5.02718 -6.42752 0
M  V30 4517 H 515.845 -4.11779 -4.09026 0
M  V30 4518 H 515.565 -2.49661 -6.61772 0
M  V30 4519 H 514.574 -3.86674 -6.00946 0
M  V30 4520 H 516.408 -4.29991 -7.97006 0
M  V30 4521 H 516.48 -1.00589 -5.98303 0
M  V30 4522 H 516.378 1.22639 -4.93799 0
M  V30 4523 H 515.99 1.56819 -1.27167 0
M  V30 4524 H 516.186 2.41062 -2.83063 0
M  V30 4525 P 514.537 -6.144 -6.45285 0
M  V30 4526 O 514.317 -7.54673 -6.86199 0
M  V30 4527 O 513.747 -5.12391 -7.179 0
M  V30 4528 O 514.287 -5.99158 -4.88404 0
M  V30 4529 C 515.227 -6.60062 -3.96313 0
M  V30 4530 C 514.497 -7.08259 -2.72856 0
M  V30 4531 O 514.287 -5.9427 -1.83651 0
M  V30 4532 C 513.097 -7.65087 -2.94749 0
M  V30 4533 O 512.707 -8.53963 -1.90717 0
M  V30 4534 C 512.217 -6.41069 -2.90698 0
M  V30 4535 C 512.927 -5.5528 -1.86931 0
M  V30 4536 N 512.877 -4.09575 -2.15696 0
M  V30 4537 C 512.727 -3.24249 -1.08435 0
M  V30 4538 O 512.637 -3.63946 0.0628747 0
M  V30 4539 N 512.687 -1.90009 -1.39973 0
M  V30 4540 C 512.777 -1.34884 -2.65614 0
M  V30 4541 C 512.927 -2.3145 -3.71736 0
M  V30 4542 C 512.977 -3.63518 -3.44754 0
M  V30 4543 H 515.718 -7.45402 -4.45526 0
M  V30 4544 H 515.987 -5.86062 -3.67208 0
M  V30 4545 H 515.12 -7.84412 -2.24479 0
M  V30 4546 H 512.465 -5.73358 -0.888409 0
M  V30 4547 H 512.186 -5.90877 -3.88583 0
M  V30 4548 H 511.194 -6.65867 -2.58821 0
M  V30 4549 H 513.028 -8.16248 -3.92006 0
M  V30 4550 H 513.099 -4.34551 -4.26383 0
M  V30 4551 P 511.157 -8.7635 -1.60911 0
M  V30 4552 O 510.937 -10.1388 -1.11561 0
M  V30 4553 O 510.367 -8.36503 -2.79617 0
M  V30 4554 O 510.907 -7.71806 -0.42951 0
M  V30 4555 C 511.847 -7.67148 0.673689 0
M  V30 4556 C 511.117 -7.33374 1.95559 0
M  V30 4557 O 510.907 -5.88721 2.00726 0
M  V30 4558 C 509.717 -7.92526 2.10483 0
M  V30 4559 O 509.327 -8.02971 3.47653 0
M  V30 4560 C 508.837 -6.89602 1.41652 0
M  V30 4561 C 509.547 -5.59201 1.75185 0
M  V30 4562 N 509.497 -4.58301 0.657969 0
M  V30 4563 H 512.336 -8.65116 0.777161 0
M  V30 4564 H 512.608 -6.9022 0.46725 0
M  V30 4565 H 511.74 -7.66548 2.79458 0
M  V30 4566 H 509.085 -5.16165 2.65183 0
M  V30 4567 H 508.805 -7.06433 0.329384 0
M  V30 4568 H 507.814 -6.90926 1.82021 0
M  V30 4569 H 509.648 -8.90873 1.62657 0
M  V30 4570 P 507.777 -8.03563 3.84925 0
M  V30 4571 O 507.557 -8.85821 5.0569 0
M  V30 4572 O 506.987 -8.41101 2.65469 0
M  V30 4573 O 507.527 -6.4965 4.18908 0
M  V30 4574 C 508.467 -5.81037 5.05421 0
M  V30 4575 C 507.737 -4.78366 5.89277 0
M  V30 4576 O 507.527 -3.58302 5.08433 0
M  V30 4577 C 506.337 -5.17448 6.36119 0
M  V30 4578 O 505.947 -4.45271 7.53232 0
M  V30 4579 C 505.457 -4.74639 5.19936 0
M  V30 4580 C 506.167 -3.49432 4.70418 0
M  V30 4581 N 506.117 -3.32099 3.22613 0
M  V30 4582 H 508.956 -6.54213 5.71376 0
M  V30 4583 H 509.228 -5.30936 4.43503 0
M  V30 4584 H 508.36 -4.55889 6.76652 0
M  V30 4585 H 505.705 -2.61715 5.17932 0
M  V30 4586 H 505.425 -5.52155 4.41878 0
M  V30 4587 H 504.434 -4.51981 5.53374 0
M  V30 4588 H 506.268 -6.25124 6.55234 0
M  V30 4589 P 504.397 -4.23843 7.83734 0
M  V30 4590 O 504.177 -4.19407 9.29784 0
M  V30 4591 O 503.607 -5.24426 7.09156 0
M  V30 4592 O 504.147 -2.7935 7.20758 0
M  V30 4593 C 505.087 -1.7299 7.50419 0
M  V30 4594 C 504.357 -0.406376 7.57911 0
M  V30 4595 O 504.147 0.0897726 6.21935 0
M  V30 4596 C 502.957 -0.447224 8.1878 0
M  V30 4597 O 502.567 0.825065 8.71101 0
M  V30 4598 C 502.077 -0.783801 6.99623 0
M  V30 4599 C 502.787 -0.0619192 5.85967 0
M  V30 4600 N 502.737 -0.7859 4.56281 0
M  V30 4601 H 505.576 -1.93423 8.4679 0
M  V30 4602 H 505.848 -1.68181 6.71046 0
M  V30 4603 H 504.98 0.289041 8.15388 0
M  V30 4604 P 501.017 1.17771 8.83182 0
M  V30 4605 O 500.797 2.07206 9.98732 0
M  V30 4606 O 500.227 -0.0743816 8.81969 0
M  V30 4607 O 500.767 1.97652 7.47304 0
M  V30 4608 C 501.707 3.01055 7.08599 0
M  V30 4609 C 500.977 4.12613 6.37049 0
M  V30 4610 O 500.767 3.72827 4.97879 0
M  V30 4611 C 499.577 4.45719 6.88164 0
M  V30 4612 O 499.187 5.7877 6.5624 0
M  V30 4613 C 498.697 3.47768 6.11991 0
M  V30 4614 C 499.407 3.39356 4.77615 0
M  V30 4615 N 499.357 2.04571 4.15244 0
M  V30 4616 C 499.207 1.98587 2.78314 0
M  V30 4617 O 499.117 2.98134 2.08835 0
M  V30 4618 N 499.167 0.714467 2.24925 0
M  V30 4619 C 499.257 -0.470001 2.94169 0
M  V30 4620 O 499.207 -1.55587 2.35195 0
M  V30 4621 C 499.407 -0.312541 4.36783 0
M  V30 4622 C 499.517 -1.57711 5.16352 0
M  V30 4623 C 499.457 0.914512 4.92583 0
M  V30 4624 H 502.198 3.41169 7.98575 0
M  V30 4625 H 502.467 2.58295 6.41556 0
M  V30 4626 H 501.6 5.02657 6.42673 0
M  V30 4627 H 498.945 4.11637 4.08885 0
M  V30 4628 H 498.666 2.49626 6.61679 0
M  V30 4629 H 497.674 3.86566 6.00778 0
M  V30 4630 H 499.508 4.29943 7.96918 0
M  V30 4631 H 499.579 1.00937 6.00374 0
M  V30 4632 H 498.549 -1.80153 5.63503 0
M  V30 4633 H 500.286 -1.4566 5.94104 0
M  V30 4634 H 499.798 -2.40664 4.49645 0
M  V30 4635 H 499.062 0.647622 1.25697 0
M  V30 4636 P 497.637 6.144 6.45285 0
M  V30 4637 O 497.417 7.54673 6.86199 0
M  V30 4638 O 496.847 5.12391 7.179 0
M  V30 4639 O 497.387 5.99158 4.88404 0
M  V30 4640 C 498.327 6.60234 3.96415 0
M  V30 4641 C 497.597 7.08259 2.72856 0
M  V30 4642 O 497.387 5.9427 1.83651 0
M  V30 4643 C 496.197 7.64886 2.9555 0
M  V30 4644 O 495.807 8.53963 1.90717 0
M  V30 4645 C 495.317 6.4116 2.90739 0
M  V30 4646 C 496.027 5.55375 1.86963 0
M  V30 4647 N 495.977 4.09448 2.16152 0
M  V30 4648 H 498.816 7.45574 4.45629 0
M  V30 4649 H 499.088 5.85864 3.679 0
M  V30 4650 H 498.22 7.84412 2.24479 0
M  V30 4651 H 495.565 5.73457 0.888562 0
M  V30 4652 H 495.285 5.90877 3.88583 0
M  V30 4653 H 494.294 6.6596 2.58858 0
M  V30 4654 H 496.128 8.16339 3.92049 0
M  V30 4655 P 494.257 8.7635 1.60911 0
M  V30 4656 O 494.037 10.1388 1.11561 0
M  V30 4657 O 493.467 8.36503 2.79617 0
M  V30 4658 O 494.007 7.71806 0.42951 0
M  V30 4659 C 494.947 7.67148 -0.673689 0
M  V30 4660 C 494.217 7.33374 -1.95559 0
M  V30 4661 O 494.007 5.88721 -2.00726 0
M  V30 4662 C 492.817 7.92526 -2.10483 0
M  V30 4663 O 492.427 8.02971 -3.47653 0
M  V30 4664 C 491.937 6.89602 -1.41652 0
M  V30 4665 C 492.647 5.59201 -1.75185 0
M  V30 4666 N 492.597 4.58301 -0.657969 0
M  V30 4667 H 495.436 8.65116 -0.777161 0
M  V30 4668 H 495.708 6.9022 -0.46725 0
M  V30 4669 H 494.84 7.66548 -2.79458 0
M  V30 4670 H 492.185 5.16165 -2.65183 0
M  V30 4671 H 491.905 7.06433 -0.329384 0
M  V30 4672 H 490.914 6.90926 -1.82021 0
M  V30 4673 H 492.748 8.90873 -1.62657 0
M  V30 4674 P 490.877 8.03563 -3.84925 0
M  V30 4675 O 490.657 8.85821 -5.0569 0
M  V30 4676 O 490.087 8.41101 -2.65469 0
M  V30 4677 O 490.627 6.4965 -4.18908 0
M  V30 4678 C 491.567 5.81037 -5.05421 0
M  V30 4679 C 490.837 4.78366 -5.89277 0
M  V30 4680 O 490.627 3.58302 -5.08433 0
M  V30 4681 C 489.437 5.17448 -6.36119 0
M  V30 4682 O 489.047 4.45271 -7.53232 0
M  V30 4683 C 488.557 4.74639 -5.19936 0
M  V30 4684 C 489.267 3.49432 -4.70418 0
M  V30 4685 N 489.217 3.31776 -3.22945 0
M  V30 4686 H 492.056 6.54213 -5.71376 0
M  V30 4687 H 492.328 5.30492 -4.44033 0
M  V30 4688 H 491.46 4.55889 -6.76652 0
M  V30 4689 P 487.497 4.23843 -7.83734 0
M  V30 4690 O 487.277 4.19407 -9.29784 0
M  V30 4691 O 486.707 5.24426 -7.09156 0
M  V30 4692 O 487.247 2.7935 -7.20758 0
M  V30 4693 C 488.187 1.72945 -7.50224 0
M  V30 4694 C 487.457 0.406376 -7.57911 0
M  V30 4695 O 487.247 -0.0897726 -6.21935 0
M  V30 4696 C 486.057 0.438983 -8.18724 0
M  V30 4697 O 485.667 -0.825065 -8.71101 0
M  V30 4698 C 485.177 0.783689 -6.99524 0
M  V30 4699 C 485.887 0.0619086 -5.85867 0
M  V30 4700 N 485.837 0.78573 -4.56183 0
M  V30 4701 C 485.687 0.0292889 -3.41887 0
M  V30 4702 O 485.597 -1.18445 -3.4419 0
M  V30 4703 N 485.647 0.744061 -2.23964 0
M  V30 4704 C 485.737 2.10932 -2.10362 0
M  V30 4705 O 485.687 2.64117 -0.98825 0
M  V30 4706 C 485.887 2.8202 -3.34994 0
M  V30 4707 C 485.997 4.31095 -3.25037 0
M  V30 4708 C 485.937 2.15547 -4.52261 0
M  V30 4709 H 488.678 1.93379 -8.46595 0
M  V30 4710 H 488.947 1.68132 -6.70852 0
M  V30 4711 H 488.08 -0.289041 -8.15388 0
M  V30 4712 H 485.425 -0.926847 -5.72749 0
M  V30 4713 H 485.146 1.86973 -6.82036 0
M  V30 4714 H 484.154 0.403896 -7.13257 0
M  V30 4715 H 485.988 1.20585 -8.97435 0
M  V30 4716 H 486.059 2.71231 -5.45042 0
M  V30 4717 H 485.029 4.76966 -3.49992 0
M  V30 4718 H 486.766 4.67047 -3.95024 0
M  V30 4719 H 486.278 4.58996 -2.22312 0
M  V30 4720 H 485.542 0.214893 -1.39758 0
M  V30 4721 P 484.117 -1.17771 -8.83182 0
M  V30 4722 O 483.897 -2.07206 -9.98732 0
M  V30 4723 O 483.327 0.0743816 -8.81969 0
M  V30 4724 O 483.867 -1.97652 -7.47304 0
M  V30 4725 C 484.807 -3.01133 -7.08783 0
M  V30 4726 C 484.077 -4.12613 -6.37049 0
M  V30 4727 O 483.867 -3.72827 -4.97879 0
M  V30 4728 C 482.677 -4.45085 -6.88694 0
M  V30 4729 O 482.287 -5.7877 -6.5624 0
M  V30 4730 C 481.797 -3.47817 -6.12078 0
M  V30 4731 C 482.507 -3.39414 -4.77697 0
M  V30 4732 N 482.457 -2.04199 -4.15538 0
M  V30 4733 H 485.296 -3.41248 -7.98759 0
M  V30 4734 H 485.568 -2.57728 -6.42 0
M  V30 4735 H 484.7 -5.02657 -6.42673 0
M  V30 4736 H 482.045 -4.11708 -4.08956 0
M  V30 4737 H 481.765 -2.49626 -6.61679 0
M  V30 4738 H 480.774 -3.8662 -6.00862 0
M  V30 4739 H 482.608 -4.29991 -7.97006 0
M  V30 4740 P 480.737 -6.144 -6.45285 0
M  V30 4741 O 480.517 -7.54673 -6.86199 0
M  V30 4742 O 479.947 -5.12391 -7.179 0
M  V30 4743 O 480.487 -5.99158 -4.88404 0
M  V30 4744 C 481.427 -6.60234 -3.96415 0
M  V30 4745 C 480.697 -7.08259 -2.72856 0
M  V30 4746 O 480.487 -5.9427 -1.83651 0
M  V30 4747 C 479.297 -7.64886 -2.9555 0
M  V30 4748 O 478.907 -8.53963 -1.90717 0
M  V30 4749 C 478.417 -6.4116 -2.90739 0
M  V30 4750 C 479.127 -5.55375 -1.86963 0
M  V30 4751 N 479.077 -4.09448 -2.16152 0
M  V30 4752 H 481.916 -7.45574 -4.45629 0
M  V30 4753 H 482.188 -5.85864 -3.679 0
M  V30 4754 H 481.32 -7.84412 -2.24479 0
M  V30 4755 H 478.665 -5.73457 -0.888562 0
M  V30 4756 H 478.385 -5.90877 -3.88583 0
M  V30 4757 H 477.394 -6.6596 -2.58858 0
M  V30 4758 H 479.228 -8.16339 -3.92049 0
M  V30 4759 P 477.357 -8.7635 -1.60911 0
M  V30 4760 O 477.137 -10.1388 -1.11561 0
M  V30 4761 O 476.567 -8.36503 -2.79617 0
M  V30 4762 O 477.107 -7.71806 -0.42951 0
M  V30 4763 C 478.047 -7.66948 0.673514 0
M  V30 4764 C 477.317 -7.33374 1.95559 0
M  V30 4765 O 477.107 -5.88721 2.00726 0
M  V30 4766 C 475.917 -7.92218 2.1125 0
M  V30 4767 O 475.527 -8.02971 3.47653 0
M  V30 4768 C 475.037 -6.89504 1.41631 0
M  V30 4769 C 475.747 -5.59106 1.75155 0
M  V30 4770 N 475.697 -4.58136 0.662409 0
M  V30 4771 C 475.547 -3.26059 1.02863 0
M  V30 4772 O 475.457 -2.90743 2.19009 0
M  V30 4773 N 475.507 -2.35995 -0.0155585 0
M  V30 4774 C 475.597 -2.65248 -1.35603 0
M  V30 4775 O 475.547 -1.75605 -2.20651 0
M  V30 4776 C 475.747 -4.05747 -1.64698 0
M  V30 4777 C 475.857 -4.42345 -3.09553 0
M  V30 4778 C 475.797 -4.96734 -0.652411 0
M  V30 4779 H 478.538 -8.64917 0.776982 0
M  V30 4780 H 478.807 -6.89974 0.474015 0
M  V30 4781 H 477.94 -7.66548 2.79458 0
M  V30 4782 H 475.285 -5.16076 2.65138 0
M  V30 4783 H 475.006 -7.06433 0.329384 0
M  V30 4784 H 474.014 -6.90829 1.81996 0
M  V30 4785 H 475.848 -8.90774 1.62639 0
M  V30 4786 H 475.919 -6.02181 -0.895285 0
M  V30 4787 H 474.889 -4.80252 -3.45468 0
M  V30 4788 H 476.626 -5.20015 -3.22119 0
M  V30 4789 H 476.138 -3.53269 -3.67833 0
M  V30 4790 H 475.402 -1.39558 0.227499 0
M  V30 4791 P 473.977 -8.03563 3.84925 0
M  V30 4792 O 473.757 -8.85821 5.0569 0
M  V30 4793 O 473.187 -8.41101 2.65469 0
M  V30 4794 O 473.727 -6.4965 4.18908 0
M  V30 4795 C 474.667 -5.81037 5.05421 0
M  V30 4796 C 473.937 -4.78366 5.89277 0
M  V30 4797 O 473.727 -3.58302 5.08433 0
M  V30 4798 C 472.537 -5.17448 6.36119 0
M  V30 4799 O 472.147 -4.45271 7.53232 0
M  V30 4800 C 471.657 -4.74639 5.19936 0
M  V30 4801 C 472.367 -3.49432 4.70418 0
M  V30 4802 N 472.317 -3.32099 3.22613 0
M  V30 4803 H 475.156 -6.54213 5.71376 0
M  V30 4804 H 475.428 -5.30936 4.43503 0
M  V30 4805 H 474.56 -4.55889 6.76652 0
M  V30 4806 H 471.905 -2.61715 5.17932 0
M  V30 4807 H 471.625 -5.52155 4.41878 0
M  V30 4808 H 470.634 -4.51981 5.53374 0
M  V30 4809 H 472.468 -6.25124 6.55234 0
M  V30 4810 P 470.597 -4.23843 7.83734 0
M  V30 4811 O 470.377 -4.19407 9.29784 0
M  V30 4812 O 469.807 -5.24426 7.09156 0
M  V30 4813 O 470.347 -2.7935 7.20758 0
M  V30 4814 C 471.287 -1.7299 7.50419 0
M  V30 4815 C 470.557 -0.406376 7.57911 0
M  V30 4816 O 470.347 0.0897726 6.21935 0
M  V30 4817 C 469.157 -0.447224 8.1878 0
M  V30 4818 O 468.767 0.825065 8.71101 0
M  V30 4819 C 468.277 -0.783801 6.99623 0
M  V30 4820 C 468.987 -0.0619192 5.85967 0
M  V30 4821 N 468.937 -0.790462 4.56202 0
M  V30 4822 C 469.017 -2.13895 4.34171 0
M  V30 4823 N 468.947 -2.46449 3.08687 0
M  V30 4824 C 468.797 -1.2525 2.43697 0
M  V30 4825 C 468.667 -0.914535 1.07318 0
M  V30 4826 N 468.657 -1.80782 0.0887348 0
M  V30 4827 N 468.547 0.386745 0.768133 0
M  V30 4828 C 468.557 1.28096 1.75159 0
M  V30 4829 N 468.677 1.09708 3.04861 0
M  V30 4830 C 468.797 -0.214857 3.32306 0
M  V30 4831 H 471.776 -1.93423 8.4679 0
M  V30 4832 H 472.048 -1.68852 6.70877 0
M  V30 4833 H 471.18 0.289041 8.15388 0
M  V30 4834 H 468.525 0.927006 5.72848 0
M  V30 4835 H 468.245 -1.86973 6.82036 0
M  V30 4836 H 467.254 -0.403953 7.13357 0
M  V30 4837 H 469.088 -1.20599 8.97534 0
M  V30 4838 H 469.129 -2.86846 5.14318 0
M  V30 4839 H 468.748 -2.81082 0.302037 0
M  V30 4840 H 468.559 -1.49688 -0.889064 0
M  V30 4841 H 468.451 2.31317 1.43855 0
M  V30 4842 P 467.217 1.17771 8.83182 0
M  V30 4843 O 466.997 2.07206 9.98732 0
M  V30 4844 O 466.427 -0.0743816 8.81969 0
M  V30 4845 O 466.967 1.97652 7.47304 0
M  V30 4846 C 467.907 3.01133 7.08783 0
M  V30 4847 C 467.177 4.12613 6.37049 0
M  V30 4848 O 466.967 3.72827 4.97879 0
M  V30 4849 C 465.777 4.45085 6.88694 0
M  V30 4850 O 465.387 5.7877 6.5624 0
M  V30 4851 C 464.897 3.47817 6.12078 0
M  V30 4852 C 465.607 3.39414 4.77697 0
M  V30 4853 N 465.557 2.04199 4.15538 0
M  V30 4854 H 468.396 3.41248 7.98759 0
M  V30 4855 H 468.668 2.57728 6.42 0
M  V30 4856 H 467.8 5.02657 6.42673 0
M  V30 4857 H 465.145 4.11708 4.08956 0
M  V30 4858 H 464.865 2.49626 6.61679 0
M  V30 4859 H 463.874 3.8662 6.00862 0
M  V30 4860 H 465.708 4.29991 7.97006 0
M  V30 4861 P 463.837 6.144 6.45285 0
M  V30 4862 O 463.617 7.54673 6.86199 0
M  V30 4863 O 463.047 5.12391 7.179 0
M  V30 4864 O 463.587 5.99158 4.88404 0
M  V30 4865 C 464.527 6.60234 3.96415 0
M  V30 4866 C 463.797 7.08259 2.72856 0
M  V30 4867 O 463.587 5.9427 1.83651 0
M  V30 4868 C 462.397 7.64886 2.9555 0
M  V30 4869 O 462.007 8.53963 1.90717 0
M  V30 4870 C 461.517 6.4116 2.90739 0
M  V30 4871 C 462.227 5.55375 1.86963 0
M  V30 4872 N 462.177 4.09448 2.16152 0
M  V30 4873 C 462.257 3.46824 3.37593 0
M  V30 4874 N 462.187 2.17422 3.29777 0
M  V30 4875 C 462.037 1.93065 1.94427 0
M  V30 4876 C 461.907 0.738053 1.20141 0
M  V30 4877 N 461.897 -0.474256 1.74676 0
M  V30 4878 N 461.787 0.850049 -0.13045 0
M  V30 4879 C 461.797 2.06169 -0.676992 0
M  V30 4880 N 461.917 3.23842 -0.101312 0
M  V30 4881 C 462.037 3.09402 1.23122 0
M  V30 4882 H 465.016 7.45574 4.45629 0
M  V30 4883 H 465.288 5.85864 3.679 0
M  V30 4884 H 464.42 7.84412 2.24479 0
M  V30 4885 H 461.765 5.73457 0.888562 0
M  V30 4886 H 461.485 5.90877 3.88583 0
M  V30 4887 H 460.494 6.6596 2.58858 0
M  V30 4888 H 462.328 8.16339 3.92049 0
M  V30 4889 H 462.369 4.00505 4.3174 0
M  V30 4890 H 461.988 -0.581337 2.76658 0
M  V30 4891 H 461.799 -1.30811 1.14888 0
M  V30 4892 H 461.691 2.08295 -1.75542 0
M  V30 4893 P 460.457 8.7635 1.60911 0
M  V30 4894 O 460.237 10.1388 1.11561 0
M  V30 4895 O 459.667 8.36503 2.79617 0
M  V30 4896 O 460.207 7.71806 0.42951 0
M  V30 4897 C 461.147 7.67148 -0.673689 0
M  V30 4898 C 460.417 7.33374 -1.95559 0
M  V30 4899 O 460.207 5.88721 -2.00726 0
M  V30 4900 C 459.017 7.92526 -2.10483 0
M  V30 4901 O 458.627 8.02971 -3.47653 0
M  V30 4902 C 458.137 6.89602 -1.41652 0
M  V30 4903 C 458.847 5.59201 -1.75185 0
M  V30 4904 N 458.797 4.58235 -0.662552 0
M  V30 4905 H 461.636 8.65116 -0.777161 0
M  V30 4906 H 461.908 6.90173 -0.474152 0
M  V30 4907 H 461.04 7.66548 -2.79458 0
M  V30 4908 P 457.077 8.03563 -3.84925 0
M  V30 4909 O 456.857 8.85821 -5.0569 0
M  V30 4910 O 456.287 8.41101 -2.65469 0
M  V30 4911 O 456.827 6.4965 -4.18908 0
M  V30 4912 C 457.767 5.81037 -5.05421 0
M  V30 4913 C 457.037 4.78366 -5.89277 0
M  V30 4914 O 456.827 3.58302 -5.08433 0
M  V30 4915 C 455.637 5.17448 -6.36119 0
M  V30 4916 O 455.247 4.45271 -7.53232 0
M  V30 4917 C 454.757 4.74639 -5.19936 0
M  V30 4918 C 455.467 3.49432 -4.70418 0
M  V30 4919 N 455.417 3.31776 -3.22945 0
M  V30 4920 H 458.256 6.54213 -5.71376 0
M  V30 4921 H 458.528 5.30492 -4.44033 0
M  V30 4922 H 457.66 4.55889 -6.76652 0
M  V30 4923 P 453.697 4.23843 -7.83734 0
M  V30 4924 O 453.477 4.19407 -9.29784 0
M  V30 4925 O 452.907 5.24426 -7.09156 0
M  V30 4926 O 453.447 2.7935 -7.20758 0
M  V30 4927 C 454.387 1.7299 -7.50419 0
M  V30 4928 C 453.657 0.406376 -7.57911 0
M  V30 4929 O 453.447 -0.0897726 -6.21935 0
M  V30 4930 C 452.257 0.447224 -8.1878 0
M  V30 4931 O 451.867 -0.825065 -8.71101 0
M  V30 4932 C 451.377 0.783801 -6.99623 0
M  V30 4933 C 452.087 0.0619192 -5.85967 0
M  V30 4934 N 452.037 0.7859 -4.56281 0
M  V30 4935 H 454.876 1.93423 -8.4679 0
M  V30 4936 H 455.148 1.68181 -6.71046 0
M  V30 4937 H 454.28 -0.289041 -8.15388 0
M  V30 4938 P 450.317 -1.17771 -8.83182 0
M  V30 4939 O 450.097 -2.07206 -9.98732 0
M  V30 4940 O 449.527 0.0743816 -8.81969 0
M  V30 4941 O 450.067 -1.97652 -7.47304 0
M  V30 4942 C 451.007 -3.01133 -7.08783 0
M  V30 4943 C 450.277 -4.12613 -6.37049 0
M  V30 4944 O 450.067 -3.72827 -4.97879 0
M  V30 4945 C 448.877 -4.45085 -6.88694 0
M  V30 4946 O 448.487 -5.7877 -6.5624 0
M  V30 4947 C 447.997 -3.47817 -6.12078 0
M  V30 4948 C 448.707 -3.39414 -4.77697 0
M  V30 4949 N 448.657 -2.04199 -4.15538 0
M  V30 4950 H 451.496 -3.41248 -7.98759 0
M  V30 4951 H 451.768 -2.57728 -6.42 0
M  V30 4952 H 450.9 -5.02657 -6.42673 0
M  V30 4953 H 448.245 -4.11708 -4.08956 0
M  V30 4954 H 447.965 -2.49626 -6.61679 0
M  V30 4955 H 446.974 -3.8662 -6.00862 0
M  V30 4956 H 448.808 -4.29991 -7.97006 0
M  V30 4957 P 446.937 -6.144 -6.45285 0
M  V30 4958 O 446.717 -7.54673 -6.86199 0
M  V30 4959 O 446.147 -5.12391 -7.179 0
M  V30 4960 O 446.687 -5.99158 -4.88404 0
M  V30 4961 C 447.627 -6.60234 -3.96415 0
M  V30 4962 C 446.897 -7.08259 -2.72856 0
M  V30 4963 O 446.687 -5.9427 -1.83651 0
M  V30 4964 C 445.497 -7.64886 -2.9555 0
M  V30 4965 O 445.107 -8.53963 -1.90717 0
M  V30 4966 C 444.617 -6.4116 -2.90739 0
M  V30 4967 C 445.327 -5.55375 -1.86963 0
M  V30 4968 N 445.277 -4.09664 -2.15742 0
M  V30 4969 H 448.116 -7.45574 -4.45629 0
M  V30 4970 H 448.388 -5.86232 -3.67314 0
M  V30 4971 H 447.52 -7.84412 -2.24479 0
M  V30 4972 P 443.557 -8.7635 -1.60911 0
M  V30 4973 O 443.337 -10.1388 -1.11561 0
M  V30 4974 O 442.767 -8.36503 -2.79617 0
M  V30 4975 O 443.307 -7.71806 -0.42951 0
M  V30 4976 C 444.247 -7.67148 0.673689 0
M  V30 4977 C 443.517 -7.33374 1.95559 0
M  V30 4978 O 443.307 -5.88721 2.00726 0
M  V30 4979 C 442.117 -7.92526 2.10483 0
M  V30 4980 O 441.727 -8.02971 3.47653 0
M  V30 4981 C 441.237 -6.89602 1.41652 0
M  V30 4982 C 441.947 -5.59201 1.75185 0
M  V30 4983 N 441.897 -4.58301 0.657969 0
M  V30 4984 C 441.977 -4.79019 -0.692603 0
M  V30 4985 N 441.907 -3.69736 -1.38998 0
M  V30 4986 C 441.757 -2.70474 -0.438135 0
M  V30 4987 C 441.627 -1.30327 -0.538142 0
M  V30 4988 N 441.617 -0.64304 -1.69192 0
M  V30 4989 N 441.507 -0.611027 0.605183 0
M  V30 4990 C 441.517 -1.27002 1.75953 0
M  V30 4991 N 441.637 -2.56038 1.98546 0
M  V30 4992 C 441.757 -3.22681 0.822541 0
M  V30 4993 H 444.736 -8.65116 0.777161 0
M  V30 4994 H 445.008 -6.9022 0.46725 0
M  V30 4995 H 444.14 -7.66548 2.79458 0
M  V30 4996 H 441.485 -5.16165 2.65183 0
M  V30 4997 H 441.205 -7.06433 0.329384 0
M  V30 4998 H 440.214 -6.90926 1.82021 0
M  V30 4999 H 442.048 -8.90873 1.62657 0
M  V30 5000 H 442.089 -5.77785 -1.13874 0
M  V30 5001 H 441.708 -1.15585 -2.57991 0
M  V30 5002 H 441.519 0.382989 -1.69835 0
M  V30 5003 H 441.411 -0.653331 2.64449 0
M  V30 5004 P 440.177 -8.03563 3.84925 0
M  V30 5005 O 439.957 -8.85821 5.0569 0
M  V30 5006 O 439.387 -8.41101 2.65469 0
M  V30 5007 O 439.927 -6.4965 4.18908 0
M  V30 5008 C 440.867 -5.81037 5.05421 0
M  V30 5009 C 440.137 -4.78366 5.89277 0
M  V30 5010 O 439.927 -3.58302 5.08433 0
M  V30 5011 C 438.737 -5.17448 6.36119 0
M  V30 5012 O 438.347 -4.45271 7.53232 0
M  V30 5013 C 437.857 -4.74639 5.19936 0
M  V30 5014 C 438.567 -3.49432 4.70418 0
M  V30 5015 N 438.517 -3.32099 3.22613 0
M  V30 5016 C 438.597 -4.28245 2.25527 0
M  V30 5017 N 438.527 -3.80823 1.04874 0
M  V30 5018 C 438.377 -2.44571 1.23535 0
M  V30 5019 C 438.247 -1.37068 0.330675 0
M  V30 5020 N 438.237 -1.51472 -0.990824 0
M  V30 5021 N 438.127 -0.138614 0.848756 0
M  V30 5022 C 438.137 0.00675923 2.16999 0
M  V30 5023 N 438.257 -0.904372 3.11122 0
M  V30 5024 C 438.377 -2.12707 2.56212 0
M  V30 5025 H 441.356 -6.54213 5.71376 0
M  V30 5026 H 441.628 -5.30936 4.43503 0
M  V30 5027 H 440.76 -4.55889 6.76652 0
M  V30 5028 H 438.105 -2.61715 5.17932 0
M  V30 5029 H 437.825 -5.52155 4.41878 0
M  V30 5030 H 436.834 -4.51981 5.53374 0
M  V30 5031 H 438.668 -6.25124 6.55234 0
M  V30 5032 H 438.709 -5.34372 2.47488 0
M  V30 5033 H 438.328 -2.45153 -1.4078 0
M  V30 5034 H 438.139 -0.688422 -1.59911 0
M  V30 5035 H 438.031 1.02584 2.52346 0
M  V30 5036 P 436.797 -4.23843 7.83734 0
M  V30 5037 O 436.577 -4.19407 9.29784 0
M  V30 5038 O 436.007 -5.24426 7.09156 0
M  V30 5039 O 436.547 -2.7935 7.20758 0
M  V30 5040 C 437.487 -1.72945 7.50224 0
M  V30 5041 C 436.757 -0.406376 7.57911 0
M  V30 5042 O 436.547 0.0897726 6.21935 0
M  V30 5043 C 435.357 -0.438983 8.18724 0
M  V30 5044 O 434.967 0.825065 8.71101 0
M  V30 5045 C 434.477 -0.783689 6.99524 0
M  V30 5046 C 435.187 -0.0619086 5.85867 0
M  V30 5047 N 435.137 -0.78573 4.56183 0
M  V30 5048 C 434.987 -0.0292889 3.41887 0
M  V30 5049 O 434.897 1.18445 3.4419 0
M  V30 5050 N 434.947 -0.744061 2.23964 0
M  V30 5051 C 435.037 -2.10932 2.10362 0
M  V30 5052 O 434.987 -2.64117 0.98825 0
M  V30 5053 C 435.187 -2.8202 3.34994 0
M  V30 5054 C 435.297 -4.31095 3.25037 0
M  V30 5055 C 435.237 -2.15547 4.52261 0
M  V30 5056 H 437.978 -1.93379 8.46595 0
M  V30 5057 H 438.247 -1.68132 6.70852 0
M  V30 5058 H 437.38 0.289041 8.15388 0
M  V30 5059 H 434.725 0.926847 5.72749 0
M  V30 5060 H 434.446 -1.86973 6.82036 0
M  V30 5061 H 433.454 -0.403896 7.13257 0
M  V30 5062 H 435.288 -1.20585 8.97435 0
M  V30 5063 H 435.359 -2.71231 5.45042 0
M  V30 5064 H 434.329 -4.76966 3.49992 0
M  V30 5065 H 436.066 -4.67047 3.95024 0
M  V30 5066 H 435.578 -4.58996 2.22312 0
M  V30 5067 H 434.842 -0.214893 1.39758 0
M  V30 5068 P 433.417 1.17771 8.83182 0
M  V30 5069 O 433.197 2.07206 9.98732 0
M  V30 5070 O 432.627 -0.0743816 8.81969 0
M  V30 5071 O 433.167 1.97652 7.47304 0
M  V30 5072 C 434.107 3.01133 7.08783 0
M  V30 5073 C 433.377 4.12613 6.37049 0
M  V30 5074 O 433.167 3.72827 4.97879 0
M  V30 5075 C 431.977 4.45085 6.88694 0
M  V30 5076 O 431.587 5.7877 6.5624 0
M  V30 5077 C 431.097 3.47817 6.12078 0
M  V30 5078 C 431.807 3.39414 4.77697 0
M  V30 5079 N 431.757 2.04615 4.15333 0
M  V30 5080 H 434.596 3.41248 7.98759 0
M  V30 5081 H 434.868 2.5837 6.41742 0
M  V30 5082 H 434 5.02657 6.42673 0
M  V30 5083 P 430.037 6.144 6.45285 0
M  V30 5084 O 429.817 7.54673 6.86199 0
M  V30 5085 O 429.247 5.12391 7.179 0
M  V30 5086 O 429.787 5.99158 4.88404 0
M  V30 5087 C 430.727 6.60234 3.96415 0
M  V30 5088 C 429.997 7.08259 2.72856 0
M  V30 5089 O 429.787 5.9427 1.83651 0
M  V30 5090 C 428.597 7.64886 2.9555 0
M  V30 5091 O 428.207 8.53963 1.90717 0
M  V30 5092 C 427.717 6.4116 2.90739 0
M  V30 5093 C 428.427 5.55375 1.86963 0
M  V30 5094 N 428.377 4.09448 2.16152 0
M  V30 5095 C 428.457 3.46824 3.37593 0
M  V30 5096 N 428.387 2.17422 3.29777 0
M  V30 5097 C 428.237 1.93065 1.94427 0
M  V30 5098 C 428.107 0.738053 1.20141 0
M  V30 5099 N 428.097 -0.474256 1.74676 0
M  V30 5100 N 427.987 0.850049 -0.13045 0
M  V30 5101 C 427.997 2.06169 -0.676992 0
M  V30 5102 N 428.117 3.23842 -0.101312 0
M  V30 5103 C 428.237 3.09402 1.23122 0
M  V30 5104 H 431.216 7.45574 4.45629 0
M  V30 5105 H 431.488 5.85864 3.679 0
M  V30 5106 H 430.62 7.84412 2.24479 0
M  V30 5107 H 427.965 5.73457 0.888562 0
M  V30 5108 H 427.685 5.90877 3.88583 0
M  V30 5109 H 426.694 6.6596 2.58858 0
M  V30 5110 H 428.528 8.16339 3.92049 0
M  V30 5111 H 428.569 4.00505 4.3174 0
M  V30 5112 H 428.188 -0.581337 2.76658 0
M  V30 5113 H 427.999 -1.30811 1.14888 0
M  V30 5114 H 427.891 2.08295 -1.75542 0
M  V30 5115 P 426.657 8.7635 1.60911 0
M  V30 5116 O 426.437 10.1388 1.11561 0
M  V30 5117 O 425.867 8.36503 2.79617 0
M  V30 5118 O 426.407 7.71806 0.42951 0
M  V30 5119 C 427.347 7.67148 -0.673689 0
M  V30 5120 C 426.617 7.33374 -1.95559 0
M  V30 5121 O 426.407 5.88721 -2.00726 0
M  V30 5122 C 425.217 7.92526 -2.10483 0
M  V30 5123 O 424.827 8.02971 -3.47653 0
M  V30 5124 C 424.337 6.89602 -1.41652 0
M  V30 5125 C 425.047 5.59201 -1.75185 0
M  V30 5126 N 424.997 4.58235 -0.662552 0
M  V30 5127 H 427.836 8.65116 -0.777161 0
M  V30 5128 H 428.108 6.90173 -0.474152 0
M  V30 5129 H 427.24 7.66548 -2.79458 0
M  V30 5130 P 423.278 8.03563 -3.84925 0
M  V30 5131 O 423.058 8.85821 -5.0569 0
M  V30 5132 O 422.488 8.41101 -2.65469 0
M  V30 5133 O 423.028 6.4965 -4.18908 0
M  V30 5134 C 423.968 5.81037 -5.05421 0
M  V30 5135 C 423.238 4.78366 -5.89277 0
M  V30 5136 O 423.028 3.58302 -5.08433 0
M  V30 5137 C 421.838 5.17448 -6.36119 0
M  V30 5138 O 421.448 4.45271 -7.53232 0
M  V30 5139 C 420.958 4.74639 -5.19936 0
M  V30 5140 C 421.668 3.49432 -4.70418 0
M  V30 5141 N 421.618 3.31776 -3.22945 0
M  V30 5142 H 424.457 6.54213 -5.71376 0
M  V30 5143 H 424.729 5.30492 -4.44033 0
M  V30 5144 H 423.861 4.55889 -6.76652 0
M  V30 5145 P 419.898 4.23843 -7.83734 0
M  V30 5146 O 419.678 4.19407 -9.29784 0
M  V30 5147 O 419.108 5.24426 -7.09156 0
M  V30 5148 O 419.648 2.7935 -7.20758 0
M  V30 5149 C 420.588 1.7299 -7.50419 0
M  V30 5150 C 419.858 0.406376 -7.57911 0
M  V30 5151 O 419.648 -0.0897726 -6.21935 0
M  V30 5152 C 418.458 0.447224 -8.1878 0
M  V30 5153 O 418.068 -0.825065 -8.71101 0
M  V30 5154 C 417.578 0.783801 -6.99623 0
M  V30 5155 C 418.288 0.0619192 -5.85967 0
M  V30 5156 N 418.238 0.7859 -4.56281 0
M  V30 5157 H 421.077 1.93423 -8.4679 0
M  V30 5158 H 421.349 1.68181 -6.71046 0
M  V30 5159 H 420.481 -0.289041 -8.15388 0
M  V30 5160 P 416.518 -1.17771 -8.83182 0
M  V30 5161 O 416.298 -2.07206 -9.98732 0
M  V30 5162 O 415.728 0.0743816 -8.81969 0
M  V30 5163 O 416.268 -1.97652 -7.47304 0
M  V30 5164 C 417.208 -3.01133 -7.08783 0
M  V30 5165 C 416.478 -4.12613 -6.37049 0
M  V30 5166 O 416.268 -3.72827 -4.97879 0
M  V30 5167 C 415.078 -4.45085 -6.88694 0
M  V30 5168 O 414.688 -5.7877 -6.5624 0
M  V30 5169 C 414.198 -3.47817 -6.12078 0
M  V30 5170 C 414.908 -3.39414 -4.77697 0
M  V30 5171 N 414.858 -2.04615 -4.15333 0
M  V30 5172 H 417.697 -3.41248 -7.98759 0
M  V30 5173 H 417.969 -2.5837 -6.41742 0
M  V30 5174 H 417.101 -5.02657 -6.42673 0
M  V30 5175 P 413.138 -6.144 -6.45285 0
M  V30 5176 O 412.918 -7.54673 -6.86199 0
M  V30 5177 O 412.348 -5.12391 -7.179 0
M  V30 5178 O 412.888 -5.99158 -4.88404 0
M  V30 5179 C 413.828 -6.60234 -3.96415 0
M  V30 5180 C 413.098 -7.08259 -2.72856 0
M  V30 5181 O 412.888 -5.9427 -1.83651 0
M  V30 5182 C 411.698 -7.64886 -2.9555 0
M  V30 5183 O 411.308 -8.53963 -1.90717 0
M  V30 5184 C 410.818 -6.4116 -2.90739 0
M  V30 5185 C 411.528 -5.55375 -1.86963 0
M  V30 5186 N 411.478 -4.09664 -2.15742 0
M  V30 5187 H 414.317 -7.45574 -4.45629 0
M  V30 5188 H 414.589 -5.86232 -3.67314 0
M  V30 5189 H 413.721 -7.84412 -2.24479 0
M  V30 5190 P 409.758 -8.7635 -1.60911 0
M  V30 5191 O 409.538 -10.1388 -1.11561 0
M  V30 5192 O 408.968 -8.36503 -2.79617 0
M  V30 5193 O 409.508 -7.71806 -0.42951 0
M  V30 5194 C 410.448 -7.67148 0.673689 0
M  V30 5195 C 409.718 -7.33374 1.95559 0
M  V30 5196 O 409.508 -5.88721 2.00726 0
M  V30 5197 C 408.318 -7.92526 2.10483 0
M  V30 5198 O 407.928 -8.02971 3.47653 0
M  V30 5199 C 407.438 -6.89602 1.41652 0
M  V30 5200 C 408.148 -5.59201 1.75185 0
M  V30 5201 N 408.098 -4.58235 0.662552 0
M  V30 5202 H 410.937 -8.65116 0.777161 0
M  V30 5203 H 411.209 -6.90173 0.474152 0
M  V30 5204 H 410.341 -7.66548 2.79458 0
M  V30 5205 P 406.378 -8.03563 3.84925 0
M  V30 5206 O 406.158 -8.85821 5.0569 0
M  V30 5207 O 405.588 -8.41101 2.65469 0
M  V30 5208 O 406.128 -6.4965 4.18908 0
M  V30 5209 C 407.068 -5.81037 5.05421 0
M  V30 5210 C 406.338 -4.78366 5.89277 0
M  V30 5211 O 406.128 -3.58302 5.08433 0
M  V30 5212 C 404.938 -5.17448 6.36119 0
M  V30 5213 O 404.548 -4.45271 7.53232 0
M  V30 5214 C 404.058 -4.74639 5.19936 0
M  V30 5215 C 404.768 -3.49432 4.70418 0
M  V30 5216 N 404.718 -3.31776 3.22945 0
M  V30 5217 H 407.557 -6.54213 5.71376 0
M  V30 5218 H 407.829 -5.30492 4.44033 0
M  V30 5219 H 406.961 -4.55889 6.76652 0
M  V30 5220 P 402.998 -4.23843 7.83734 0
M  V30 5221 O 402.778 -4.19407 9.29784 0
M  V30 5222 O 402.208 -5.24426 7.09156 0
M  V30 5223 O 402.748 -2.7935 7.20758 0
M  V30 5224 C 403.688 -1.7299 7.50419 0
M  V30 5225 C 402.958 -0.406376 7.57911 0
M  V30 5226 O 402.748 0.0897726 6.21935 0
M  V30 5227 C 401.558 -0.447224 8.1878 0
M  V30 5228 O 401.168 0.825065 8.71101 0
M  V30 5229 C 400.678 -0.783801 6.99623 0
M  V30 5230 C 401.388 -0.0619192 5.85967 0
M  V30 5231 N 401.338 -0.7859 4.56281 0
M  V30 5232 H 404.177 -1.93423 8.4679 0
M  V30 5233 H 404.449 -1.68181 6.71046 0
M  V30 5234 H 403.581 0.289041 8.15388 0
M  V30 5235 P 399.618 1.17771 8.83182 0
M  V30 5236 O 399.398 2.07206 9.98732 0
M  V30 5237 O 398.828 -0.0743816 8.81969 0
M  V30 5238 O 399.368 1.97652 7.47304 0
M  V30 5239 C 400.308 3.01133 7.08783 0
M  V30 5240 C 399.578 4.12613 6.37049 0
M  V30 5241 O 399.368 3.72827 4.97879 0
M  V30 5242 C 398.178 4.45085 6.88694 0
M  V30 5243 O 397.788 5.7877 6.5624 0
M  V30 5244 C 397.298 3.47817 6.12078 0
M  V30 5245 C 398.008 3.39414 4.77697 0
M  V30 5246 N 397.958 2.04199 4.15538 0
M  V30 5247 H 400.797 3.41248 7.98759 0
M  V30 5248 H 401.069 2.57728 6.42 0
M  V30 5249 H 400.201 5.02657 6.42673 0
M  V30 5250 H 397.546 4.11708 4.08956 0
M  V30 5251 H 397.266 2.49626 6.61679 0
M  V30 5252 H 396.275 3.8662 6.00862 0
M  V30 5253 H 398.109 4.29991 7.97006 0
M  V30 5254 P 396.238 6.144 6.45285 0
M  V30 5255 O 396.018 7.54673 6.86199 0
M  V30 5256 O 395.448 5.12391 7.179 0
M  V30 5257 O 395.988 5.99158 4.88404 0
M  V30 5258 C 396.928 6.60234 3.96415 0
M  V30 5259 C 396.198 7.08259 2.72856 0
M  V30 5260 O 395.988 5.9427 1.83651 0
M  V30 5261 C 394.798 7.64886 2.9555 0
M  V30 5262 O 394.408 8.53963 1.90717 0
M  V30 5263 C 393.918 6.4116 2.90739 0
M  V30 5264 C 394.628 5.55375 1.86963 0
M  V30 5265 N 394.578 4.09664 2.15742 0
M  V30 5266 H 397.417 7.45574 4.45629 0
M  V30 5267 H 397.689 5.86232 3.67314 0
M  V30 5268 H 396.821 7.84412 2.24479 0
M  V30 5269 P 392.858 8.7635 1.60911 0
M  V30 5270 O 392.638 10.1388 1.11561 0
M  V30 5271 O 392.068 8.36503 2.79617 0
M  V30 5272 O 392.608 7.71806 0.42951 0
M  V30 5273 C 393.548 7.67148 -0.673689 0
M  V30 5274 C 392.818 7.33374 -1.95559 0
M  V30 5275 O 392.608 5.88721 -2.00726 0
M  V30 5276 C 391.418 7.92526 -2.10483 0
M  V30 5277 O 391.028 8.02971 -3.47653 0
M  V30 5278 C 390.538 6.89602 -1.41652 0
M  V30 5279 C 391.248 5.59201 -1.75185 0
M  V30 5280 N 391.198 4.58235 -0.662552 0
M  V30 5281 H 394.037 8.65116 -0.777161 0
M  V30 5282 H 394.309 6.90173 -0.474152 0
M  V30 5283 H 393.441 7.66548 -2.79458 0
M  V30 5284 P 389.478 8.03563 -3.84925 0
M  V30 5285 O 389.258 8.85821 -5.0569 0
M  V30 5286 O 388.688 8.41101 -2.65469 0
M  V30 5287 O 389.228 6.4965 -4.18908 0
M  V30 5288 C 390.168 5.81037 -5.05421 0
M  V30 5289 C 389.438 4.78366 -5.89277 0
M  V30 5290 O 389.228 3.58302 -5.08433 0
M  V30 5291 C 388.038 5.17448 -6.36119 0
M  V30 5292 O 387.648 4.45271 -7.53232 0
M  V30 5293 C 387.158 4.74639 -5.19936 0
M  V30 5294 C 387.868 3.49432 -4.70418 0
M  V30 5295 N 387.818 3.31776 -3.22945 0
M  V30 5296 H 390.657 6.54213 -5.71376 0
M  V30 5297 H 390.929 5.30492 -4.44033 0
M  V30 5298 H 390.061 4.55889 -6.76652 0
M  V30 5299 P 386.098 4.23843 -7.83734 0
M  V30 5300 O 385.878 4.19407 -9.29784 0
M  V30 5301 O 385.308 5.24426 -7.09156 0
M  V30 5302 O 385.848 2.7935 -7.20758 0
M  V30 5303 C 386.788 1.7299 -7.50419 0
M  V30 5304 C 386.058 0.406376 -7.57911 0
M  V30 5305 O 385.848 -0.0897726 -6.21935 0
M  V30 5306 C 384.658 0.447224 -8.1878 0
M  V30 5307 O 384.268 -0.825065 -8.71101 0
M  V30 5308 C 383.778 0.783801 -6.99623 0
M  V30 5309 C 384.488 0.0619192 -5.85967 0
M  V30 5310 N 384.438 0.790462 -4.56202 0
M  V30 5311 H 387.277 1.93423 -8.4679 0
M  V30 5312 H 387.549 1.68852 -6.70877 0
M  V30 5313 H 386.681 -0.289041 -8.15388 0
M  V30 5314 H 384.026 -0.927006 -5.72848 0
M  V30 5315 H 383.746 1.86973 -6.82036 0
M  V30 5316 H 382.755 0.403953 -7.13357 0
M  V30 5317 H 384.589 1.20599 -8.97534 0
M  V30 5318 P 382.718 -1.17771 -8.83182 0
M  V30 5319 O 382.498 -2.07206 -9.98732 0
M  V30 5320 O 381.928 0.0743816 -8.81969 0
M  V30 5321 O 382.468 -1.97652 -7.47304 0
M  V30 5322 C 383.408 -3.01133 -7.08783 0
M  V30 5323 C 382.678 -4.12613 -6.37049 0
M  V30 5324 O 382.468 -3.72827 -4.97879 0
M  V30 5325 C 381.278 -4.45085 -6.88694 0
M  V30 5326 O 380.888 -5.7877 -6.5624 0
M  V30 5327 C 380.398 -3.47817 -6.12078 0
M  V30 5328 C 381.108 -3.39414 -4.77697 0
M  V30 5329 N 381.058 -2.04615 -4.15333 0
M  V30 5330 H 383.897 -3.41248 -7.98759 0
M  V30 5331 H 384.169 -2.5837 -6.41742 0
M  V30 5332 H 383.301 -5.02657 -6.42673 0
M  V30 5333 P 379.338 -6.144 -6.45285 0
M  V30 5334 O 379.118 -7.54673 -6.86199 0
M  V30 5335 O 378.548 -5.12391 -7.179 0
M  V30 5336 O 379.088 -5.99158 -4.88404 0
M  V30 5337 C 380.028 -6.60234 -3.96415 0
M  V30 5338 C 379.298 -7.08259 -2.72856 0
M  V30 5339 O 379.088 -5.9427 -1.83651 0
M  V30 5340 C 377.898 -7.64886 -2.9555 0
M  V30 5341 O 377.508 -8.53963 -1.90717 0
M  V30 5342 C 377.018 -6.4116 -2.90739 0
M  V30 5343 C 377.728 -5.55375 -1.86963 0
M  V30 5344 N 377.678 -4.09664 -2.15742 0
M  V30 5345 H 380.517 -7.45574 -4.45629 0
M  V30 5346 H 380.789 -5.86232 -3.67314 0
M  V30 5347 H 379.921 -7.84412 -2.24479 0
M  V30 5348 P 375.958 -8.7635 -1.60911 0
M  V30 5349 O 375.738 -10.1388 -1.11561 0
M  V30 5350 O 375.168 -8.36503 -2.79617 0
M  V30 5351 O 375.708 -7.71806 -0.42951 0
M  V30 5352 C 376.648 -7.67148 0.673689 0
M  V30 5353 C 375.918 -7.33374 1.95559 0
M  V30 5354 O 375.708 -5.88721 2.00726 0
M  V30 5355 C 374.518 -7.92526 2.10483 0
M  V30 5356 O 374.128 -8.02971 3.47653 0
M  V30 5357 C 373.638 -6.89602 1.41652 0
M  V30 5358 C 374.348 -5.59201 1.75185 0
M  V30 5359 N 374.298 -4.58235 0.662552 0
M  V30 5360 H 377.137 -8.65116 0.777161 0
M  V30 5361 H 377.409 -6.90173 0.474152 0
M  V30 5362 H 376.541 -7.66548 2.79458 0
M  V30 5363 P 372.578 -8.03563 3.84925 0
M  V30 5364 O 372.358 -8.85821 5.0569 0
M  V30 5365 O 371.788 -8.41101 2.65469 0
M  V30 5366 O 372.328 -6.4965 4.18908 0
M  V30 5367 C 373.268 -5.81037 5.05421 0
M  V30 5368 C 372.538 -4.78366 5.89277 0
M  V30 5369 O 372.328 -3.58302 5.08433 0
M  V30 5370 C 371.138 -5.17448 6.36119 0
M  V30 5371 O 370.748 -4.45271 7.53232 0
M  V30 5372 C 370.258 -4.74639 5.19936 0
M  V30 5373 C 370.968 -3.49432 4.70418 0
M  V30 5374 N 370.918 -3.31776 3.22945 0
M  V30 5375 H 373.757 -6.54213 5.71376 0
M  V30 5376 H 374.029 -5.30492 4.44033 0
M  V30 5377 H 373.161 -4.55889 6.76652 0
M  V30 5378 P 369.198 -4.23843 7.83734 0
M  V30 5379 O 368.978 -4.19407 9.29784 0
M  V30 5380 O 368.408 -5.24426 7.09156 0
M  V30 5381 O 368.948 -2.79386 7.20852 0
M  V30 5382 C 369.888 -1.7299 7.50419 0
M  V30 5383 C 369.158 -0.41401 7.5797 0
M  V30 5384 O 368.948 0.089787 6.22035 0
M  V30 5385 C 367.758 -0.447224 8.1878 0
M  V30 5386 O 367.368 0.825159 8.71201 0
M  V30 5387 C 366.878 -0.783801 6.99623 0
M  V30 5388 C 367.588 -0.0619192 5.85967 0
M  V30 5389 N 367.538 -0.7859 4.56281 0
M  V30 5390 C 367.388 -0.0359258 3.39981 0
M  V30 5391 O 367.298 1.19723 3.49038 0
M  V30 5392 N 367.338 -0.869151 2.14025 0
M  V30 5393 C 367.438 -2.01207 2.14363 0
M  V30 5394 N 367.388 -2.58978 0.954287 0
M  V30 5395 C 367.588 -2.80817 3.32215 0
M  V30 5396 C 367.638 -2.13785 4.50884 0
M  V30 5397 H 370.378 -1.93401 8.46693 0
M  V30 5398 H 370.648 -1.68181 6.71046 0
M  V30 5399 H 369.781 0.289076 8.15488 0
M  V30 5400 H 367.126 0.927166 5.72947 0
M  V30 5401 H 366.846 -1.87 6.82132 0
M  V30 5402 H 365.855 -0.404009 7.13457 0
M  V30 5403 H 367.689 -1.20599 8.97534 0
M  V30 5404 H 367.761 -2.70295 5.43162 0
M  V30 5405 H 367.659 -3.89465 3.27406 0
M  V30 5406 H 367.271 -2.01616 0.107046 0
M  V30 5407 H 367.467 -3.61403 0.873101 0
M  V30 5408 P 365.818 1.17771 8.83182 0
M  V30 5409 O 365.598 2.07206 9.98732 0
M  V30 5410 O 365.028 -0.0743816 8.81969 0
M  V30 5411 O 365.568 1.97652 7.47304 0
M  V30 5412 C 366.508 3.01133 7.08783 0
M  V30 5413 C 365.778 4.12613 6.37049 0
M  V30 5414 O 365.568 3.72827 4.97879 0
M  V30 5415 C 364.378 4.45085 6.88694 0
M  V30 5416 O 363.988 5.7877 6.5624 0
M  V30 5417 C 363.498 3.47817 6.12078 0
M  V30 5418 C 364.208 3.39414 4.77697 0
M  V30 5419 N 364.158 2.04615 4.15333 0
M  V30 5420 H 366.997 3.41248 7.98759 0
M  V30 5421 H 367.269 2.5837 6.41742 0
M  V30 5422 H 366.401 5.02657 6.42673 0
M  V30 5423 P 362.438 6.144 6.45285 0
M  V30 5424 O 362.218 7.54673 6.86199 0
M  V30 5425 O 361.648 5.12391 7.179 0
M  V30 5426 O 362.188 5.99158 4.88404 0
M  V30 5427 C 363.128 6.60234 3.96415 0
M  V30 5428 C 362.398 7.08259 2.72856 0
M  V30 5429 O 362.188 5.9427 1.83651 0
M  V30 5430 C 360.998 7.64886 2.9555 0
M  V30 5431 O 360.608 8.53963 1.90717 0
M  V30 5432 C 360.118 6.4116 2.90739 0
M  V30 5433 C 360.828 5.55375 1.86963 0
M  V30 5434 N 360.778 4.09664 2.15742 0
M  V30 5435 H 363.617 7.45574 4.45629 0
M  V30 5436 H 363.889 5.86232 3.67314 0
M  V30 5437 H 363.021 7.84412 2.24479 0
M  V30 5438 P 359.058 8.7635 1.60911 0
M  V30 5439 O 358.838 10.1388 1.11561 0
M  V30 5440 O 358.268 8.36503 2.79617 0
M  V30 5441 O 358.808 7.71806 0.42951 0
M  V30 5442 C 359.748 7.67148 -0.673689 0
M  V30 5443 C 359.018 7.33374 -1.95559 0
M  V30 5444 O 358.808 5.88721 -2.00726 0
M  V30 5445 C 357.618 7.92526 -2.10483 0
M  V30 5446 O 357.228 8.02971 -3.47653 0
M  V30 5447 C 356.738 6.89602 -1.41652 0
M  V30 5448 C 357.448 5.59201 -1.75185 0
M  V30 5449 N 357.398 4.58235 -0.662552 0
M  V30 5450 H 360.237 8.65116 -0.777161 0
M  V30 5451 H 360.509 6.90173 -0.474152 0
M  V30 5452 H 359.641 7.66548 -2.79458 0
M  V30 5453 P 355.678 8.03563 -3.84925 0
M  V30 5454 O 355.458 8.85821 -5.0569 0
M  V30 5455 O 354.888 8.41101 -2.65469 0
M  V30 5456 O 355.428 6.4965 -4.18908 0
M  V30 5457 C 356.368 5.81037 -5.05421 0
M  V30 5458 C 355.638 4.78366 -5.89277 0
M  V30 5459 O 355.428 3.58302 -5.08433 0
M  V30 5460 C 354.238 5.17448 -6.36119 0
M  V30 5461 O 353.848 4.45271 -7.53232 0
M  V30 5462 C 353.358 4.74639 -5.19936 0
M  V30 5463 C 354.068 3.49432 -4.70418 0
M  V30 5464 N 354.018 3.31776 -3.22945 0
M  V30 5465 H 356.857 6.54213 -5.71376 0
M  V30 5466 H 357.129 5.30492 -4.44033 0
M  V30 5467 H 356.261 4.55889 -6.76652 0
M  V30 5468 P 352.298 4.23843 -7.83734 0
M  V30 5469 O 352.078 4.19407 -9.29784 0
M  V30 5470 O 351.508 5.24426 -7.09156 0
M  V30 5471 O 352.048 2.7935 -7.20758 0
M  V30 5472 C 352.988 1.7299 -7.50419 0
M  V30 5473 C 352.258 0.406376 -7.57911 0
M  V30 5474 O 352.048 -0.0897726 -6.21935 0
M  V30 5475 C 350.858 0.447224 -8.1878 0
M  V30 5476 O 350.468 -0.825065 -8.71101 0
M  V30 5477 C 349.978 0.783801 -6.99623 0
M  V30 5478 C 350.688 0.0619192 -5.85967 0
M  V30 5479 N 350.638 0.7859 -4.56281 0
M  V30 5480 H 353.477 1.93423 -8.4679 0
M  V30 5481 H 353.749 1.68181 -6.71046 0
M  V30 5482 H 352.881 -0.289041 -8.15388 0
M  V30 5483 P 348.918 -1.17771 -8.83182 0
M  V30 5484 O 348.698 -2.07206 -9.98732 0
M  V30 5485 O 348.128 0.0743816 -8.81969 0
M  V30 5486 O 348.668 -1.97652 -7.47304 0
M  V30 5487 C 349.608 -3.01133 -7.08783 0
M  V30 5488 C 348.878 -4.12613 -6.37049 0
M  V30 5489 O 348.668 -3.72827 -4.97879 0
M  V30 5490 C 347.478 -4.45085 -6.88694 0
M  V30 5491 O 347.088 -5.7877 -6.5624 0
M  V30 5492 C 346.598 -3.47817 -6.12078 0
M  V30 5493 C 347.308 -3.39414 -4.77697 0
M  V30 5494 N 347.258 -2.04615 -4.15333 0
M  V30 5495 H 350.097 -3.41248 -7.98759 0
M  V30 5496 H 350.369 -2.5837 -6.41742 0
M  V30 5497 H 349.501 -5.02657 -6.42673 0
M  V30 5498 P 345.538 -6.144 -6.45285 0
M  V30 5499 O 345.318 -7.54673 -6.86199 0
M  V30 5500 O 344.748 -5.12391 -7.179 0
M  V30 5501 O 345.288 -5.99158 -4.88404 0
M  V30 5502 C 346.228 -6.60234 -3.96415 0
M  V30 5503 C 345.498 -7.08259 -2.72856 0
M  V30 5504 O 345.288 -5.9427 -1.83651 0
M  V30 5505 C 344.098 -7.64886 -2.9555 0
M  V30 5506 O 343.708 -8.53963 -1.90717 0
M  V30 5507 C 343.218 -6.4116 -2.90739 0
M  V30 5508 C 343.928 -5.55375 -1.86963 0
M  V30 5509 N 343.878 -4.09664 -2.15742 0
M  V30 5510 C 343.958 -3.44381 -3.37233 0
M  V30 5511 N 343.878 -2.14131 -3.28347 0
M  V30 5512 C 343.738 -1.90247 -1.91588 0
M  V30 5513 C 343.608 -0.683992 -1.20892 0
M  V30 5514 N 343.488 -0.903396 0.173998 0
M  V30 5515 C 343.488 -2.14171 0.784879 0
M  V30 5516 N 343.358 -2.1435 2.11317 0
M  V30 5517 N 343.618 -3.28784 0.119316 0
M  V30 5518 C 343.738 -3.0977 -1.22194 0
M  V30 5519 H 346.717 -7.45574 -4.45629 0
M  V30 5520 H 346.989 -5.86232 -3.67314 0
M  V30 5521 H 346.121 -7.84412 -2.24479 0
M  V30 5522 P 342.158 -8.7635 -1.60911 0
M  V30 5523 O 341.938 -10.1388 -1.11561 0
M  V30 5524 O 341.368 -8.36503 -2.79617 0
M  V30 5525 O 341.908 -7.71806 -0.42951 0
M  V30 5526 C 342.848 -7.66948 0.673514 0
M  V30 5527 C 342.118 -7.33374 1.95559 0
M  V30 5528 O 341.908 -5.88721 2.00726 0
M  V30 5529 C 340.718 -7.92218 2.1125 0
M  V30 5530 O 340.328 -8.02971 3.47653 0
M  V30 5531 C 339.838 -6.89504 1.41631 0
M  V30 5532 C 340.548 -5.59106 1.75155 0
M  V30 5533 N 340.498 -4.58136 0.662409 0
M  V30 5534 C 340.348 -3.26059 1.02863 0
M  V30 5535 O 340.258 -2.90743 2.19009 0
M  V30 5536 N 340.308 -2.35995 -0.0155585 0
M  V30 5537 C 340.398 -2.65248 -1.35603 0
M  V30 5538 O 340.348 -1.75605 -2.20651 0
M  V30 5539 C 340.548 -4.05747 -1.64698 0
M  V30 5540 C 340.658 -4.42345 -3.09553 0
M  V30 5541 C 340.598 -4.96734 -0.652411 0
M  V30 5542 H 343.339 -8.64917 0.776982 0
M  V30 5543 H 343.608 -6.89974 0.474015 0
M  V30 5544 H 342.741 -7.66548 2.79458 0
M  V30 5545 H 340.086 -5.16076 2.65138 0
M  V30 5546 H 339.807 -7.06433 0.329384 0
M  V30 5547 H 338.815 -6.90829 1.81996 0
M  V30 5548 H 340.649 -8.90774 1.62639 0
M  V30 5549 H 340.72 -6.02181 -0.895285 0
M  V30 5550 H 339.69 -4.80252 -3.45468 0
M  V30 5551 H 341.427 -5.20015 -3.22119 0
M  V30 5552 H 340.939 -3.53269 -3.67833 0
M  V30 5553 H 340.203 -1.39558 0.227499 0
M  V30 5554 P 338.778 -8.03563 3.84925 0
M  V30 5555 O 338.558 -8.85821 5.0569 0
M  V30 5556 O 337.988 -8.41101 2.65469 0
M  V30 5557 O 338.528 -6.4965 4.18908 0
M  V30 5558 C 339.468 -5.80886 5.05289 0
M  V30 5559 C 338.738 -4.78366 5.89277 0
M  V30 5560 O 338.528 -3.58302 5.08433 0
M  V30 5561 C 337.338 -5.16748 6.36559 0
M  V30 5562 O 336.948 -4.45271 7.53232 0
M  V30 5563 C 336.458 -4.74572 5.19863 0
M  V30 5564 C 337.168 -3.49373 4.70338 0
M  V30 5565 N 337.118 -3.31704 3.22876 0
M  V30 5566 C 336.968 -2.03326 2.74871 0
M  V30 5567 O 336.878 -1.06486 3.48076 0
M  V30 5568 N 336.928 -1.91838 1.37456 0
M  V30 5569 C 337.018 -2.94295 0.462035 0
M  V30 5570 C 337.168 -4.25064 1.05249 0
M  V30 5571 C 337.218 -4.40214 2.39192 0
M  V30 5572 H 339.959 -6.54063 5.71245 0
M  V30 5573 H 340.228 -5.30339 4.43905 0
M  V30 5574 H 339.361 -4.55889 6.76652 0
M  V30 5575 H 336.706 -2.6167 5.17842 0
M  V30 5576 H 336.427 -5.52155 4.41878 0
M  V30 5577 H 335.435 -4.51918 5.53297 0
M  V30 5578 H 337.269 -6.25055 6.55162 0
M  V30 5579 H 337.34 -5.39798 2.81523 0
M  V30 5580 P 335.398 -4.23843 7.83734 0
M  V30 5581 O 335.178 -4.19407 9.29784 0
M  V30 5582 O 334.608 -5.24426 7.09156 0
M  V30 5583 O 335.148 -2.7935 7.20758 0
M  V30 5584 C 336.088 -1.72945 7.50224 0
M  V30 5585 C 335.358 -0.406376 7.57911 0
M  V30 5586 O 335.148 0.0897726 6.21935 0
M  V30 5587 C 333.958 -0.438983 8.18724 0
M  V30 5588 O 333.568 0.825065 8.71101 0
M  V30 5589 C 333.078 -0.783689 6.99524 0
M  V30 5590 C 333.788 -0.0619086 5.85867 0
M  V30 5591 N 333.738 -0.78573 4.56183 0
M  V30 5592 C 333.588 -0.0292889 3.41887 0
M  V30 5593 O 333.498 1.18445 3.4419 0
M  V30 5594 N 333.548 -0.744061 2.23964 0
M  V30 5595 C 333.638 -2.10932 2.10362 0
M  V30 5596 O 333.588 -2.64117 0.98825 0
M  V30 5597 C 333.788 -2.8202 3.34994 0
M  V30 5598 C 333.898 -4.31095 3.25037 0
M  V30 5599 C 333.838 -2.15547 4.52261 0
M  V30 5600 H 336.579 -1.93379 8.46595 0
M  V30 5601 H 336.848 -1.68132 6.70852 0
M  V30 5602 H 335.981 0.289041 8.15388 0
M  V30 5603 H 333.326 0.926847 5.72749 0
M  V30 5604 H 333.047 -1.86973 6.82036 0
M  V30 5605 H 332.055 -0.403896 7.13257 0
M  V30 5606 H 333.889 -1.20585 8.97435 0
M  V30 5607 H 333.96 -2.71231 5.45042 0
M  V30 5608 H 332.93 -4.76966 3.49992 0
M  V30 5609 H 334.667 -4.67047 3.95024 0
M  V30 5610 H 334.179 -4.58996 2.22312 0
M  V30 5611 H 333.443 -0.214893 1.39758 0
M  V30 5612 P 332.018 1.17771 8.83182 0
M  V30 5613 O 331.798 2.07206 9.98732 0
M  V30 5614 O 331.228 -0.0743816 8.81969 0
M  V30 5615 O 331.768 1.97652 7.47304 0
M  V30 5616 C 332.708 3.01133 7.08783 0
M  V30 5617 C 331.978 4.12613 6.37049 0
M  V30 5618 O 331.768 3.72827 4.97879 0
M  V30 5619 C 330.578 4.45085 6.88694 0
M  V30 5620 O 330.188 5.7877 6.5624 0
M  V30 5621 C 329.698 3.47817 6.12078 0
M  V30 5622 C 330.408 3.39414 4.77697 0
M  V30 5623 N 330.358 2.04615 4.15333 0
M  V30 5624 H 333.197 3.41248 7.98759 0
M  V30 5625 H 333.469 2.5837 6.41742 0
M  V30 5626 H 332.601 5.02657 6.42673 0
M  V30 5627 P 328.638 6.144 6.45285 0
M  V30 5628 O 328.418 7.54673 6.86199 0
M  V30 5629 O 327.848 5.12391 7.179 0
M  V30 5630 O 328.388 5.99236 4.88467 0
M  V30 5631 C 329.328 6.60234 3.96415 0
M  V30 5632 C 328.598 7.08079 2.736 0
M  V30 5633 O 328.388 5.94365 1.8368 0
M  V30 5634 C 327.198 7.64886 2.9555 0
M  V30 5635 O 326.808 8.5406 1.90739 0
M  V30 5636 C 326.318 6.4116 2.90739 0
M  V30 5637 C 327.028 5.55375 1.86963 0
M  V30 5638 N 326.978 4.09664 2.15742 0
M  V30 5639 C 326.828 3.22231 1.08477 0
M  V30 5640 O 326.738 3.68951 -0.0600489 0
M  V30 5641 N 326.778 1.76692 1.48799 0
M  V30 5642 C 326.878 1.41695 2.57602 0
M  V30 5643 N 326.828 0.107296 2.75791 0
M  V30 5644 C 327.028 2.29178 3.69733 0
M  V30 5645 C 327.078 3.62753 3.42653 0
M  V30 5646 H 329.818 7.45488 4.45578 0
M  V30 5647 H 330.088 5.86232 3.67314 0
M  V30 5648 H 329.221 7.84508 2.24507 0
M  V30 5649 H 326.566 5.73556 0.888715 0
M  V30 5650 H 326.286 5.9096 3.88638 0
M  V30 5651 H 325.295 6.66053 2.58894 0
M  V30 5652 H 327.129 8.16339 3.92049 0
M  V30 5653 H 327.201 4.33052 4.24913 0
M  V30 5654 H 327.099 1.9103 4.71577 0
M  V30 5655 H 326.711 -0.521221 1.95056 0
M  V30 5656 H 326.907 -0.286429 3.70695 0
M  V30 5657 P 325.258 8.7635 1.60911 0
M  V30 5658 O 325.038 10.1388 1.11561 0
M  V30 5659 O 324.468 8.36503 2.79617 0
M  V30 5660 O 325.008 7.71806 0.42951 0
M  V30 5661 C 325.948 7.67148 -0.673689 0
M  V30 5662 C 325.218 7.33374 -1.95559 0
M  V30 5663 O 325.008 5.88721 -2.00726 0
M  V30 5664 C 323.818 7.92526 -2.10483 0
M  V30 5665 O 323.428 8.02971 -3.47653 0
M  V30 5666 C 322.938 6.89602 -1.41652 0
M  V30 5667 C 323.648 5.59201 -1.75185 0
M  V30 5668 N 323.598 4.58235 -0.662552 0
M  V30 5669 H 326.437 8.65116 -0.777161 0
M  V30 5670 H 326.709 6.90173 -0.474152 0
M  V30 5671 H 325.841 7.66548 -2.79458 0
M  V30 5672 P 321.878 8.03563 -3.84925 0
M  V30 5673 O 321.658 8.85821 -5.0569 0
M  V30 5674 O 321.088 8.41101 -2.65469 0
M  V30 5675 O 321.628 6.4965 -4.18908 0
M  V30 5676 C 322.568 5.81037 -5.05421 0
M  V30 5677 C 321.838 4.78366 -5.89277 0
M  V30 5678 O 321.628 3.58302 -5.08433 0
M  V30 5679 C 320.438 5.17448 -6.36119 0
M  V30 5680 O 320.048 4.45271 -7.53232 0
M  V30 5681 C 319.558 4.74639 -5.19936 0
M  V30 5682 C 320.268 3.49432 -4.70418 0
M  V30 5683 N 320.218 3.31776 -3.22945 0
M  V30 5684 H 323.057 6.54213 -5.71376 0
M  V30 5685 H 323.329 5.30492 -4.44033 0
M  V30 5686 H 322.461 4.55889 -6.76652 0
M  V30 5687 P 318.498 4.23843 -7.83734 0
M  V30 5688 O 318.278 4.19407 -9.29784 0
M  V30 5689 O 317.708 5.24426 -7.09156 0
M  V30 5690 O 318.248 2.7935 -7.20758 0
M  V30 5691 C 319.188 1.72945 -7.50224 0
M  V30 5692 C 318.458 0.406376 -7.57911 0
M  V30 5693 O 318.248 -0.0897726 -6.21935 0
M  V30 5694 C 317.058 0.438983 -8.18724 0
M  V30 5695 O 316.668 -0.825065 -8.71101 0
M  V30 5696 C 316.178 0.783689 -6.99524 0
M  V30 5697 C 316.888 0.0619086 -5.85867 0
M  V30 5698 N 316.838 0.78573 -4.56183 0
M  V30 5699 C 316.688 0.0292889 -3.41887 0
M  V30 5700 O 316.598 -1.18445 -3.4419 0
M  V30 5701 N 316.648 0.744061 -2.23964 0
M  V30 5702 C 316.738 2.10932 -2.10362 0
M  V30 5703 O 316.688 2.64117 -0.98825 0
M  V30 5704 C 316.888 2.8202 -3.34994 0
M  V30 5705 C 316.998 4.31095 -3.25037 0
M  V30 5706 C 316.938 2.15547 -4.52261 0
M  V30 5707 H 319.679 1.93379 -8.46595 0
M  V30 5708 H 319.948 1.68132 -6.70852 0
M  V30 5709 H 319.081 -0.289041 -8.15388 0
M  V30 5710 H 316.426 -0.926847 -5.72749 0
M  V30 5711 H 316.147 1.86973 -6.82036 0
M  V30 5712 H 315.155 0.403896 -7.13257 0
M  V30 5713 H 316.989 1.20585 -8.97435 0
M  V30 5714 H 317.06 2.71231 -5.45042 0
M  V30 5715 H 316.03 4.76966 -3.49992 0
M  V30 5716 H 317.767 4.67047 -3.95024 0
M  V30 5717 H 317.279 4.58996 -2.22312 0
M  V30 5718 H 316.543 0.214893 -1.39758 0
M  V30 5719 P 315.118 -1.17771 -8.83182 0
M  V30 5720 O 314.898 -2.07206 -9.98732 0
M  V30 5721 O 314.328 0.0743816 -8.81969 0
M  V30 5722 O 314.868 -1.97652 -7.47304 0
M  V30 5723 C 315.808 -3.01133 -7.08783 0
M  V30 5724 C 315.078 -4.12613 -6.37049 0
M  V30 5725 O 314.868 -3.72827 -4.97879 0
M  V30 5726 C 313.678 -4.45085 -6.88694 0
M  V30 5727 O 313.288 -5.7877 -6.5624 0
M  V30 5728 C 312.798 -3.47817 -6.12078 0
M  V30 5729 C 313.508 -3.39414 -4.77697 0
M  V30 5730 N 313.458 -2.04615 -4.15333 0
M  V30 5731 H 316.297 -3.41248 -7.98759 0
M  V30 5732 H 316.569 -2.5837 -6.41742 0
M  V30 5733 H 315.701 -5.02657 -6.42673 0
M  V30 5734 P 311.738 -6.144 -6.45285 0
M  V30 5735 O 311.518 -7.54673 -6.86199 0
M  V30 5736 O 310.948 -5.12391 -7.179 0
M  V30 5737 O 311.488 -5.99158 -4.88404 0
M  V30 5738 C 312.428 -6.60234 -3.96415 0
M  V30 5739 C 311.698 -7.08259 -2.72856 0
M  V30 5740 O 311.488 -5.9427 -1.83651 0
M  V30 5741 C 310.298 -7.64886 -2.9555 0
M  V30 5742 O 309.908 -8.53963 -1.90717 0
M  V30 5743 C 309.418 -6.4116 -2.90739 0
M  V30 5744 C 310.128 -5.55375 -1.86963 0
M  V30 5745 N 310.078 -4.09664 -2.15742 0
M  V30 5746 H 312.917 -7.45574 -4.45629 0
M  V30 5747 H 313.189 -5.86232 -3.67314 0
M  V30 5748 H 312.321 -7.84412 -2.24479 0
M  V30 5749 P 308.358 -8.7635 -1.60911 0
M  V30 5750 O 308.138 -10.1388 -1.11561 0
M  V30 5751 O 307.568 -8.36503 -2.79617 0
M  V30 5752 O 308.108 -7.71806 -0.42951 0
M  V30 5753 C 309.048 -7.67148 0.673689 0
M  V30 5754 C 308.318 -7.33374 1.95559 0
M  V30 5755 O 308.108 -5.88721 2.00726 0
M  V30 5756 C 306.918 -7.92526 2.10483 0
M  V30 5757 O 306.528 -8.02971 3.47653 0
M  V30 5758 C 306.038 -6.89602 1.41652 0
M  V30 5759 C 306.748 -5.59201 1.75185 0
M  V30 5760 N 306.698 -4.58301 0.657969 0
M  V30 5761 H 309.537 -8.65116 0.777161 0
M  V30 5762 H 309.809 -6.9022 0.46725 0
M  V30 5763 H 308.941 -7.66548 2.79458 0
M  V30 5764 H 306.286 -5.16165 2.65183 0
M  V30 5765 H 306.006 -7.06433 0.329384 0
M  V30 5766 H 305.015 -6.90926 1.82021 0
M  V30 5767 H 306.849 -8.90873 1.62657 0
M  V30 5768 P 304.978 -8.03563 3.84925 0
M  V30 5769 O 304.758 -8.85821 5.0569 0
M  V30 5770 O 304.188 -8.41101 2.65469 0
M  V30 5771 O 304.728 -6.49734 4.18962 0
M  V30 5772 C 305.668 -5.81037 5.05421 0
M  V30 5773 C 304.938 -4.79018 5.88876 0
M  V30 5774 O 304.728 -3.58359 5.08515 0
M  V30 5775 C 303.538 -5.17448 6.36119 0
M  V30 5776 O 303.148 -4.45322 7.53318 0
M  V30 5777 C 302.658 -4.74639 5.19936 0
M  V30 5778 C 303.368 -3.49432 4.70418 0
M  V30 5779 N 303.318 -3.31776 3.22945 0
M  V30 5780 C 303.168 -2.02742 2.72939 0
M  V30 5781 O 303.078 -1.08301 3.52749 0
M  V30 5782 N 303.118 -1.96117 1.22063 0
M  V30 5783 C 303.218 -2.8878 0.551566 0
M  V30 5784 N 303.168 -2.65609 -0.750198 0
M  V30 5785 C 303.368 -4.22457 1.03707 0
M  V30 5786 C 303.418 -4.37979 2.39113 0
M  V30 5787 H 306.158 -6.54138 5.7131 0
M  V30 5788 H 306.428 -5.30492 4.44033 0
M  V30 5789 H 305.561 -4.55945 6.76735 0
M  V30 5790 H 302.906 -2.6176 5.18021 0
M  V30 5791 H 302.626 -5.52233 4.41941 0
M  V30 5792 H 301.635 -4.52045 5.53452 0
M  V30 5793 H 303.469 -6.25124 6.55234 0
M  V30 5794 H 303.541 -5.37936 2.80552 0
M  V30 5795 H 303.439 -5.07528 0.359553 0
M  V30 5796 H 303.051 -1.69403 -1.09847 0
M  V30 5797 H 303.247 -3.43701 -1.41792 0
M  V30 5798 P 301.598 -4.23843 7.83734 0
M  V30 5799 O 301.378 -4.19407 9.29784 0
M  V30 5800 O 300.808 -5.24426 7.09156 0
M  V30 5801 O 301.348 -2.7935 7.20758 0
M  V30 5802 C 302.288 -1.72945 7.50224 0
M  V30 5803 C 301.558 -0.406376 7.57911 0
M  V30 5804 O 301.348 0.0897726 6.21935 0
M  V30 5805 C 300.158 -0.438983 8.18724 0
M  V30 5806 O 299.768 0.825065 8.71101 0
M  V30 5807 C 299.278 -0.783689 6.99524 0
M  V30 5808 C 299.988 -0.0619086 5.85867 0
M  V30 5809 N 299.938 -0.78573 4.56183 0
M  V30 5810 C 299.788 -0.0292889 3.41887 0
M  V30 5811 O 299.698 1.18445 3.4419 0
M  V30 5812 N 299.748 -0.744061 2.23964 0
M  V30 5813 C 299.838 -2.10932 2.10362 0
M  V30 5814 C 299.988 -2.8202 3.34994 0
M  V30 5815 C 300.038 -2.15547 4.52261 0
M  V30 5816 H 302.779 -1.93379 8.46595 0
M  V30 5817 H 303.048 -1.68132 6.70852 0
M  V30 5818 H 302.181 0.289041 8.15388 0
M  V30 5819 H 299.526 0.926847 5.72749 0
M  V30 5820 H 299.247 -1.86973 6.82036 0
M  V30 5821 H 298.255 -0.403896 7.13257 0
M  V30 5822 H 300.089 -1.20585 8.97435 0
M  V30 5823 H 300.16 -2.71231 5.45042 0
M  V30 5824 P 298.218 1.17771 8.83182 0
M  V30 5825 O 297.998 2.07206 9.98732 0
M  V30 5826 O 297.428 -0.0743816 8.81969 0
M  V30 5827 O 297.968 1.97652 7.47304 0
M  V30 5828 C 298.908 3.01133 7.08783 0
M  V30 5829 C 298.178 4.12613 6.37049 0
M  V30 5830 O 297.968 3.72827 4.97879 0
M  V30 5831 C 296.778 4.45085 6.88694 0
M  V30 5832 O 296.388 5.7877 6.5624 0
M  V30 5833 C 295.898 3.47817 6.12078 0
M  V30 5834 C 296.608 3.39414 4.77697 0
M  V30 5835 N 296.558 2.04615 4.15333 0
M  V30 5836 H 299.397 3.41248 7.98759 0
M  V30 5837 H 299.669 2.5837 6.41742 0
M  V30 5838 H 298.801 5.02657 6.42673 0
M  V30 5839 P 294.838 6.144 6.45285 0
M  V30 5840 O 294.618 7.54673 6.86199 0
M  V30 5841 O 294.048 5.12391 7.179 0
M  V30 5842 O 294.588 5.99158 4.88404 0
M  V30 5843 C 295.528 6.60062 3.96313 0
M  V30 5844 C 294.798 7.08259 2.72856 0
M  V30 5845 O 294.588 5.9427 1.83651 0
M  V30 5846 C 293.398 7.65087 2.94749 0
M  V30 5847 O 293.008 8.53963 1.90717 0
M  V30 5848 C 292.518 6.41069 2.90698 0
M  V30 5849 C 293.228 5.5528 1.86931 0
M  V30 5850 N 293.178 4.09575 2.15696 0
M  V30 5851 C 293.028 3.24249 1.08435 0
M  V30 5852 O 292.938 3.63946 -0.0628747 0
M  V30 5853 N 292.988 1.90009 1.39973 0
M  V30 5854 C 293.078 1.34884 2.65614 0
M  V30 5855 C 293.228 2.3145 3.71736 0
M  V30 5856 C 293.278 3.63518 3.44754 0
M  V30 5857 H 296.019 7.45402 4.45526 0
M  V30 5858 H 296.288 5.86062 3.67208 0
M  V30 5859 H 295.421 7.84412 2.24479 0
M  V30 5860 H 292.766 5.73358 0.888409 0
M  V30 5861 H 292.487 5.90877 3.88583 0
M  V30 5862 H 291.495 6.65867 2.58821 0
M  V30 5863 H 293.329 8.16248 3.92006 0
M  V30 5864 H 293.4 4.34551 4.26383 0
M  V30 5865 P 291.458 8.7635 1.60911 0
M  V30 5866 O 291.238 10.1388 1.11561 0
M  V30 5867 O 290.668 8.36503 2.79617 0
M  V30 5868 O 291.208 7.71806 0.42951 0
M  V30 5869 C 292.148 7.67148 -0.673689 0
M  V30 5870 C 291.418 7.33374 -1.95559 0
M  V30 5871 O 291.208 5.88721 -2.00726 0
M  V30 5872 C 290.018 7.92526 -2.10483 0
M  V30 5873 O 289.628 8.02971 -3.47653 0
M  V30 5874 C 289.138 6.89602 -1.41652 0
M  V30 5875 C 289.848 5.59201 -1.75185 0
M  V30 5876 N 289.798 4.58235 -0.662552 0
M  V30 5877 H 292.637 8.65116 -0.777161 0
M  V30 5878 H 292.909 6.90173 -0.474152 0
M  V30 5879 H 292.041 7.66548 -2.79458 0
M  V30 5880 P 288.078 8.03563 -3.84925 0
M  V30 5881 O 287.858 8.85821 -5.0569 0
M  V30 5882 O 287.288 8.41101 -2.65469 0
M  V30 5883 O 287.828 6.4965 -4.18908 0
M  V30 5884 C 288.768 5.81037 -5.05421 0
M  V30 5885 C 288.038 4.78366 -5.89277 0
M  V30 5886 O 287.828 3.58302 -5.08433 0
M  V30 5887 C 286.638 5.17448 -6.36119 0
M  V30 5888 O 286.248 4.45271 -7.53232 0
M  V30 5889 C 285.758 4.74639 -5.19936 0
M  V30 5890 C 286.468 3.49432 -4.70418 0
M  V30 5891 N 286.418 3.31776 -3.22945 0
M  V30 5892 H 289.257 6.54213 -5.71376 0
M  V30 5893 H 289.529 5.30492 -4.44033 0
M  V30 5894 H 288.661 4.55889 -6.76652 0
M  V30 5895 P 284.698 4.23843 -7.83734 0
M  V30 5896 O 284.478 4.19407 -9.29784 0
M  V30 5897 O 283.908 5.24426 -7.09156 0
M  V30 5898 O 284.448 2.79386 -7.20852 0
M  V30 5899 C 285.388 1.7299 -7.50419 0
M  V30 5900 C 284.658 0.41401 -7.5797 0
M  V30 5901 O 284.448 -0.089787 -6.22035 0
M  V30 5902 C 283.258 0.447224 -8.1878 0
M  V30 5903 O 282.868 -0.825159 -8.71201 0
M  V30 5904 C 282.378 0.783801 -6.99623 0
M  V30 5905 C 283.088 0.0619192 -5.85967 0
M  V30 5906 N 283.038 0.7859 -4.56281 0
M  V30 5907 C 282.888 0.0359258 -3.39981 0
M  V30 5908 O 282.798 -1.19723 -3.49038 0
M  V30 5909 N 282.838 0.869151 -2.14025 0
M  V30 5910 C 282.938 2.01207 -2.14363 0
M  V30 5911 N 282.888 2.58978 -0.954287 0
M  V30 5912 C 283.088 2.80817 -3.32215 0
M  V30 5913 C 283.138 2.13785 -4.50884 0
M  V30 5914 H 285.878 1.93401 -8.46693 0
M  V30 5915 H 286.148 1.68181 -6.71046 0
M  V30 5916 H 285.281 -0.289076 -8.15488 0
M  V30 5917 H 282.626 -0.927166 -5.72947 0
M  V30 5918 H 282.346 1.87 -6.82132 0
M  V30 5919 H 281.355 0.404009 -7.13457 0
M  V30 5920 H 283.189 1.20599 -8.97534 0
M  V30 5921 H 283.261 2.70295 -5.43162 0
M  V30 5922 H 283.159 3.89465 -3.27406 0
M  V30 5923 H 282.771 2.01616 -0.107046 0
M  V30 5924 H 282.967 3.61403 -0.873101 0
M  V30 5925 P 281.318 -1.17771 -8.83182 0
M  V30 5926 O 281.098 -2.07206 -9.98732 0
M  V30 5927 O 280.528 0.0743816 -8.81969 0
M  V30 5928 O 281.068 -1.97652 -7.47304 0
M  V30 5929 C 282.008 -3.01055 -7.08599 0
M  V30 5930 C 281.278 -4.12613 -6.37049 0
M  V30 5931 O 281.068 -3.72827 -4.97879 0
M  V30 5932 C 279.878 -4.45719 -6.88164 0
M  V30 5933 O 279.488 -5.7877 -6.5624 0
M  V30 5934 C 278.998 -3.47768 -6.11991 0
M  V30 5935 C 279.708 -3.39356 -4.77615 0
M  V30 5936 N 279.658 -2.04571 -4.15244 0
M  V30 5937 C 279.508 -1.98587 -2.78314 0
M  V30 5938 O 279.418 -2.98134 -2.08835 0
M  V30 5939 N 279.468 -0.714467 -2.24925 0
M  V30 5940 C 279.558 0.470001 -2.94169 0
M  V30 5941 O 279.508 1.55587 -2.35195 0
M  V30 5942 C 279.708 0.312541 -4.36783 0
M  V30 5943 C 279.818 1.57711 -5.16352 0
M  V30 5944 C 279.758 -0.914512 -4.92583 0
M  V30 5945 H 282.499 -3.41169 -7.98575 0
M  V30 5946 H 282.768 -2.58295 -6.41556 0
M  V30 5947 H 281.901 -5.02657 -6.42673 0
M  V30 5948 H 279.246 -4.11637 -4.08885 0
M  V30 5949 H 278.967 -2.49626 -6.61679 0
M  V30 5950 H 277.975 -3.86566 -6.00778 0
M  V30 5951 H 279.809 -4.29943 -7.96918 0
M  V30 5952 H 279.88 -1.00937 -6.00374 0
M  V30 5953 H 278.85 1.80153 -5.63503 0
M  V30 5954 H 280.587 1.4566 -5.94104 0
M  V30 5955 H 280.099 2.40664 -4.49645 0
M  V30 5956 H 279.363 -0.647622 -1.25697 0
M  V30 5957 P 277.938 -6.144 -6.45285 0
M  V30 5958 O 277.718 -7.54673 -6.86199 0
M  V30 5959 O 277.148 -5.12391 -7.179 0
M  V30 5960 O 277.688 -5.99158 -4.88404 0
M  V30 5961 C 278.628 -6.60234 -3.96415 0
M  V30 5962 C 277.898 -7.08259 -2.72856 0
M  V30 5963 O 277.688 -5.9427 -1.83651 0
M  V30 5964 C 276.498 -7.64886 -2.9555 0
M  V30 5965 O 276.108 -8.53963 -1.90717 0
M  V30 5966 C 275.618 -6.4116 -2.90739 0
M  V30 5967 C 276.328 -5.55375 -1.86963 0
M  V30 5968 N 276.278 -4.09448 -2.16152 0
M  V30 5969 H 279.117 -7.45574 -4.45629 0
M  V30 5970 H 279.389 -5.85864 -3.679 0
M  V30 5971 H 278.521 -7.84412 -2.24479 0
M  V30 5972 H 275.866 -5.73457 -0.888562 0
M  V30 5973 H 275.586 -5.90877 -3.88583 0
M  V30 5974 H 274.595 -6.6596 -2.58858 0
M  V30 5975 H 276.429 -8.16339 -3.92049 0
M  V30 5976 P 274.558 -8.7635 -1.60911 0
M  V30 5977 O 274.338 -10.1388 -1.11561 0
M  V30 5978 O 273.768 -8.36503 -2.79617 0
M  V30 5979 O 274.308 -7.71806 -0.42951 0
M  V30 5980 C 275.248 -7.67148 0.673689 0
M  V30 5981 C 274.518 -7.33374 1.95559 0
M  V30 5982 O 274.308 -5.88721 2.00726 0
M  V30 5983 C 273.118 -7.92526 2.10483 0
M  V30 5984 O 272.728 -8.02971 3.47653 0
M  V30 5985 C 272.238 -6.89602 1.41652 0
M  V30 5986 C 272.948 -5.59201 1.75185 0
M  V30 5987 N 272.898 -4.58235 0.662552 0
M  V30 5988 H 275.737 -8.65116 0.777161 0
M  V30 5989 H 276.009 -6.90173 0.474152 0
M  V30 5990 H 275.141 -7.66548 2.79458 0
M  V30 5991 P 271.178 -8.03563 3.84925 0
M  V30 5992 O 270.958 -8.85821 5.0569 0
M  V30 5993 O 270.388 -8.41101 2.65469 0
M  V30 5994 O 270.928 -6.4965 4.18908 0
M  V30 5995 C 271.868 -5.81037 5.05421 0
M  V30 5996 C 271.138 -4.78366 5.89277 0
M  V30 5997 O 270.928 -3.58302 5.08433 0
M  V30 5998 C 269.738 -5.17448 6.36119 0
M  V30 5999 O 269.348 -4.45271 7.53232 0
M  V30 6000 C 268.858 -4.74639 5.19936 0
M  V30 6001 C 269.568 -3.49432 4.70418 0
M  V30 6002 N 269.518 -3.31776 3.22945 0
M  V30 6003 H 272.357 -6.54213 5.71376 0
M  V30 6004 H 272.629 -5.30492 4.44033 0
M  V30 6005 H 271.761 -4.55889 6.76652 0
M  V30 6006 P 267.798 -4.23843 7.83734 0
M  V30 6007 O 267.578 -4.19407 9.29784 0
M  V30 6008 O 267.008 -5.24426 7.09156 0
M  V30 6009 O 267.548 -2.7935 7.20758 0
M  V30 6010 C 268.488 -1.7299 7.50419 0
M  V30 6011 C 267.758 -0.406376 7.57911 0
M  V30 6012 O 267.548 0.0897726 6.21935 0
M  V30 6013 C 266.358 -0.447224 8.1878 0
M  V30 6014 O 265.968 0.825065 8.71101 0
M  V30 6015 C 265.478 -0.783801 6.99623 0
M  V30 6016 C 266.188 -0.0619192 5.85967 0
M  V30 6017 N 266.138 -0.7859 4.56281 0
M  V30 6018 H 268.977 -1.93423 8.4679 0
M  V30 6019 H 269.249 -1.68181 6.71046 0
M  V30 6020 H 268.381 0.289041 8.15388 0
M  V30 6021 P 264.418 1.17771 8.83182 0
M  V30 6022 O 264.198 2.07206 9.98732 0
M  V30 6023 O 263.628 -0.0743816 8.81969 0
M  V30 6024 O 264.168 1.97652 7.47304 0
M  V30 6025 C 265.108 3.01055 7.08599 0
M  V30 6026 C 264.378 4.12613 6.37049 0
M  V30 6027 O 264.168 3.72827 4.97879 0
M  V30 6028 C 262.978 4.45719 6.88164 0
M  V30 6029 O 262.588 5.7877 6.5624 0
M  V30 6030 C 262.098 3.47768 6.11991 0
M  V30 6031 C 262.808 3.39356 4.77615 0
M  V30 6032 N 262.758 2.04571 4.15244 0
M  V30 6033 C 262.608 1.98587 2.78314 0
M  V30 6034 O 262.518 2.98134 2.08835 0
M  V30 6035 N 262.568 0.714467 2.24925 0
M  V30 6036 C 262.658 -0.470001 2.94169 0
M  V30 6037 C 262.808 -0.312541 4.36783 0
M  V30 6038 C 262.858 0.914512 4.92583 0
M  V30 6039 H 265.599 3.41169 7.98575 0
M  V30 6040 H 265.868 2.58295 6.41556 0
M  V30 6041 H 265.001 5.02657 6.42673 0
M  V30 6042 H 262.346 4.11637 4.08885 0
M  V30 6043 H 262.067 2.49626 6.61679 0
M  V30 6044 H 261.075 3.86566 6.00778 0
M  V30 6045 H 262.909 4.29943 7.96918 0
M  V30 6046 H 262.98 1.00937 6.00374 0
M  V30 6047 P 261.038 6.144 6.45285 0
M  V30 6048 O 260.818 7.54673 6.86199 0
M  V30 6049 O 260.248 5.12391 7.179 0
M  V30 6050 O 260.788 5.99158 4.88404 0
M  V30 6051 C 261.728 6.60234 3.96415 0
M  V30 6052 C 260.998 7.08259 2.72856 0
M  V30 6053 O 260.788 5.9427 1.83651 0
M  V30 6054 C 259.598 7.64886 2.9555 0
M  V30 6055 O 259.208 8.53963 1.90717 0
M  V30 6056 C 258.718 6.4116 2.90739 0
M  V30 6057 C 259.428 5.55375 1.86963 0
M  V30 6058 N 259.378 4.09664 2.15742 0
M  V30 6059 H 262.217 7.45574 4.45629 0
M  V30 6060 H 262.489 5.86232 3.67314 0
M  V30 6061 H 261.621 7.84412 2.24479 0
M  V30 6062 P 257.658 8.7635 1.60911 0
M  V30 6063 O 257.438 10.1388 1.11561 0
M  V30 6064 O 256.868 8.36503 2.79617 0
M  V30 6065 O 257.408 7.71806 0.42951 0
M  V30 6066 C 258.348 7.67148 -0.673689 0
M  V30 6067 C 257.618 7.33374 -1.95559 0
M  V30 6068 O 257.408 5.88721 -2.00726 0
M  V30 6069 C 256.218 7.92526 -2.10483 0
M  V30 6070 O 255.828 8.02971 -3.47653 0
M  V30 6071 C 255.338 6.89602 -1.41652 0
M  V30 6072 C 256.048 5.59201 -1.75185 0
M  V30 6073 N 255.998 4.58235 -0.662552 0
M  V30 6074 H 258.837 8.65116 -0.777161 0
M  V30 6075 H 259.109 6.90173 -0.474152 0
M  V30 6076 H 258.241 7.66548 -2.79458 0
M  V30 6077 P 254.279 8.03563 -3.84925 0
M  V30 6078 O 254.059 8.85821 -5.0569 0
M  V30 6079 O 253.489 8.41101 -2.65469 0
M  V30 6080 O 254.029 6.4965 -4.18908 0
M  V30 6081 C 254.969 5.81037 -5.05421 0
M  V30 6082 C 254.239 4.78366 -5.89277 0
M  V30 6083 O 254.029 3.58302 -5.08433 0
M  V30 6084 C 252.839 5.17448 -6.36119 0
M  V30 6085 O 252.449 4.45271 -7.53232 0
M  V30 6086 C 251.959 4.74639 -5.19936 0
M  V30 6087 C 252.669 3.49432 -4.70418 0
M  V30 6088 N 252.619 3.32099 -3.22613 0
M  V30 6089 H 255.458 6.54213 -5.71376 0
M  V30 6090 H 255.73 5.30936 -4.43503 0
M  V30 6091 H 254.862 4.55889 -6.76652 0
M  V30 6092 H 252.207 2.61715 -5.17932 0
M  V30 6093 H 251.927 5.52155 -4.41878 0
M  V30 6094 H 250.936 4.51981 -5.53374 0
M  V30 6095 H 252.77 6.25124 -6.55234 0
M  V30 6096 P 250.899 4.23843 -7.83734 0
M  V30 6097 O 250.679 4.19407 -9.29784 0
M  V30 6098 O 250.109 5.24426 -7.09156 0
M  V30 6099 O 250.649 2.7935 -7.20758 0
M  V30 6100 C 251.589 1.7299 -7.50419 0
M  V30 6101 C 250.859 0.406376 -7.57911 0
M  V30 6102 O 250.649 -0.0897726 -6.21935 0
M  V30 6103 C 249.459 0.447224 -8.1878 0
M  V30 6104 O 249.069 -0.825065 -8.71101 0
M  V30 6105 C 248.579 0.783801 -6.99623 0
M  V30 6106 C 249.289 0.0619192 -5.85967 0
M  V30 6107 N 249.239 0.7859 -4.56281 0
M  V30 6108 H 252.078 1.93423 -8.4679 0
M  V30 6109 H 252.35 1.68181 -6.71046 0
M  V30 6110 H 251.482 -0.289041 -8.15388 0
M  V30 6111 P 247.519 -1.17771 -8.83182 0
M  V30 6112 O 247.299 -2.07206 -9.98732 0
M  V30 6113 O 246.729 0.0743816 -8.81969 0
M  V30 6114 O 247.269 -1.97652 -7.47304 0
M  V30 6115 C 248.209 -3.01133 -7.08783 0
M  V30 6116 C 247.479 -4.12613 -6.37049 0
M  V30 6117 O 247.269 -3.72827 -4.97879 0
M  V30 6118 C 246.079 -4.45085 -6.88694 0
M  V30 6119 O 245.689 -5.7877 -6.5624 0
M  V30 6120 C 245.199 -3.47817 -6.12078 0
M  V30 6121 C 245.909 -3.39414 -4.77697 0
M  V30 6122 N 245.859 -2.04615 -4.15333 0
M  V30 6123 H 248.698 -3.41248 -7.98759 0
M  V30 6124 H 248.97 -2.5837 -6.41742 0
M  V30 6125 H 248.102 -5.02657 -6.42673 0
M  V30 6126 P 244.139 -6.144 -6.45285 0
M  V30 6127 O 243.919 -7.54673 -6.86199 0
M  V30 6128 O 243.349 -5.12391 -7.179 0
M  V30 6129 O 243.889 -5.99158 -4.88404 0
M  V30 6130 C 244.829 -6.60234 -3.96415 0
M  V30 6131 C 244.099 -7.08259 -2.72856 0
M  V30 6132 O 243.889 -5.9427 -1.83651 0
M  V30 6133 C 242.699 -7.64886 -2.9555 0
M  V30 6134 O 242.309 -8.53963 -1.90717 0
M  V30 6135 C 241.819 -6.4116 -2.90739 0
M  V30 6136 C 242.529 -5.55375 -1.86963 0
M  V30 6137 N 242.479 -4.09664 -2.15742 0
M  V30 6138 H 245.318 -7.45574 -4.45629 0
M  V30 6139 H 245.59 -5.86232 -3.67314 0
M  V30 6140 H 244.722 -7.84412 -2.24479 0
M  V30 6141 P 240.759 -8.7635 -1.60911 0
M  V30 6142 O 240.539 -10.1388 -1.11561 0
M  V30 6143 O 239.969 -8.36503 -2.79617 0
M  V30 6144 O 240.509 -7.71806 -0.42951 0
M  V30 6145 C 241.449 -7.67148 0.673689 0
M  V30 6146 C 240.719 -7.33374 1.95559 0
M  V30 6147 O 240.509 -5.88721 2.00726 0
M  V30 6148 C 239.319 -7.92526 2.10483 0
M  V30 6149 O 238.929 -8.02971 3.47653 0
M  V30 6150 C 238.439 -6.89602 1.41652 0
M  V30 6151 C 239.149 -5.59201 1.75185 0
M  V30 6152 N 239.099 -4.58235 0.662552 0
M  V30 6153 H 241.938 -8.65116 0.777161 0
M  V30 6154 H 242.21 -6.90173 0.474152 0
M  V30 6155 H 241.342 -7.66548 2.79458 0
M  V30 6156 P 237.379 -8.03563 3.84925 0
M  V30 6157 O 237.159 -8.85821 5.0569 0
M  V30 6158 O 236.589 -8.41101 2.65469 0
M  V30 6159 O 237.129 -6.4965 4.18908 0
M  V30 6160 C 238.069 -5.80886 5.05289 0
M  V30 6161 C 237.339 -4.78366 5.89277 0
M  V30 6162 O 237.129 -3.58302 5.08433 0
M  V30 6163 C 235.939 -5.16748 6.36559 0
M  V30 6164 O 235.549 -4.45271 7.53232 0
M  V30 6165 C 235.059 -4.74572 5.19863 0
M  V30 6166 C 235.769 -3.49373 4.70338 0
M  V30 6167 N 235.719 -3.31704 3.22876 0
M  V30 6168 C 235.569 -2.03326 2.74871 0
M  V30 6169 O 235.479 -1.06486 3.48076 0
M  V30 6170 N 235.529 -1.91838 1.37456 0
M  V30 6171 C 235.619 -2.94295 0.462035 0
M  V30 6172 O 235.569 -2.71763 -0.752928 0
M  V30 6173 C 235.769 -4.25064 1.05249 0
M  V30 6174 C 235.879 -5.39815 0.095697 0
M  V30 6175 C 235.819 -4.40214 2.39192 0
M  V30 6176 H 238.56 -6.54063 5.71245 0
M  V30 6177 H 238.829 -5.30339 4.43905 0
M  V30 6178 H 237.962 -4.55889 6.76652 0
M  V30 6179 H 235.307 -2.6167 5.17842 0
M  V30 6180 H 235.028 -5.52155 4.41878 0
M  V30 6181 H 234.036 -4.51918 5.53297 0
M  V30 6182 H 235.87 -6.25055 6.55162 0
M  V30 6183 H 235.941 -5.39798 2.81523 0
M  V30 6184 H 234.911 -5.91593 0.0279582 0
M  V30 6185 H 236.648 -6.10038 0.450573 0
M  V30 6186 H 236.16 -5.02007 -0.89937 0
M  V30 6187 H 235.424 -0.995326 1.00435 0
M  V30 6188 P 233.999 -4.23843 7.83734 0
M  V30 6189 O 233.779 -4.19407 9.29784 0
M  V30 6190 O 233.209 -5.24426 7.09156 0
M  V30 6191 O 233.749 -2.7935 7.20758 0
M  V30 6192 C 234.689 -1.72945 7.50224 0
M  V30 6193 C 233.959 -0.406376 7.57911 0
M  V30 6194 O 233.749 0.0897726 6.21935 0
M  V30 6195 C 232.559 -0.438983 8.18724 0
M  V30 6196 O 232.169 0.825065 8.71101 0
M  V30 6197 C 231.679 -0.783689 6.99524 0
M  V30 6198 C 232.389 -0.0619086 5.85867 0
M  V30 6199 N 232.339 -0.78573 4.56183 0
M  V30 6200 C 232.189 -0.0292889 3.41887 0
M  V30 6201 O 232.099 1.18445 3.4419 0
M  V30 6202 N 232.149 -0.744061 2.23964 0
M  V30 6203 C 232.239 -2.10932 2.10362 0
M  V30 6204 O 232.189 -2.64117 0.98825 0
M  V30 6205 C 232.389 -2.8202 3.34994 0
M  V30 6206 C 232.499 -4.31095 3.25037 0
M  V30 6207 C 232.439 -2.15547 4.52261 0
M  V30 6208 H 235.18 -1.93379 8.46595 0
M  V30 6209 H 235.449 -1.68132 6.70852 0
M  V30 6210 H 234.582 0.289041 8.15388 0
M  V30 6211 H 231.927 0.926847 5.72749 0
M  V30 6212 H 231.648 -1.86973 6.82036 0
M  V30 6213 H 230.656 -0.403896 7.13257 0
M  V30 6214 H 232.49 -1.20585 8.97435 0
M  V30 6215 H 232.561 -2.71231 5.45042 0
M  V30 6216 H 231.531 -4.76966 3.49992 0
M  V30 6217 H 233.268 -4.67047 3.95024 0
M  V30 6218 H 232.78 -4.58996 2.22312 0
M  V30 6219 H 232.044 -0.214893 1.39758 0
M  V30 6220 P 230.619 1.17771 8.83182 0
M  V30 6221 O 230.399 2.07206 9.98732 0
M  V30 6222 O 229.829 -0.0743816 8.81969 0
M  V30 6223 O 230.369 1.97652 7.47304 0
M  V30 6224 C 231.309 3.01133 7.08783 0
M  V30 6225 C 230.579 4.12613 6.37049 0
M  V30 6226 O 230.369 3.72827 4.97879 0
M  V30 6227 C 229.179 4.45085 6.88694 0
M  V30 6228 O 228.789 5.7877 6.5624 0
M  V30 6229 C 228.299 3.47817 6.12078 0
M  V30 6230 C 229.009 3.39414 4.77697 0
M  V30 6231 N 228.959 2.04615 4.15333 0
M  V30 6232 H 231.798 3.41248 7.98759 0
M  V30 6233 H 232.07 2.5837 6.41742 0
M  V30 6234 H 231.202 5.02657 6.42673 0
M  V30 6235 P 227.239 6.144 6.45285 0
M  V30 6236 O 227.019 7.54673 6.86199 0
M  V30 6237 O 226.449 5.12391 7.179 0
M  V30 6238 O 226.989 5.99158 4.88404 0
M  V30 6239 C 227.929 6.60234 3.96415 0
M  V30 6240 C 227.199 7.08259 2.72856 0
M  V30 6241 O 226.989 5.9427 1.83651 0
M  V30 6242 C 225.799 7.64886 2.9555 0
M  V30 6243 O 225.409 8.53963 1.90717 0
M  V30 6244 C 224.919 6.4116 2.90739 0
M  V30 6245 C 225.629 5.55375 1.86963 0
M  V30 6246 N 225.579 4.09448 2.16152 0
M  V30 6247 H 228.418 7.45574 4.45629 0
M  V30 6248 H 228.69 5.85864 3.679 0
M  V30 6249 H 227.822 7.84412 2.24479 0
M  V30 6250 H 225.167 5.73457 0.888562 0
M  V30 6251 H 224.887 5.90877 3.88583 0
M  V30 6252 H 223.896 6.6596 2.58858 0
M  V30 6253 H 225.73 8.16339 3.92049 0
M  V30 6254 P 223.859 8.7635 1.60911 0
M  V30 6255 O 223.639 10.1388 1.11561 0
M  V30 6256 O 223.069 8.36503 2.79617 0
M  V30 6257 O 223.609 7.71806 0.42951 0
M  V30 6258 C 224.549 7.67148 -0.673689 0
M  V30 6259 C 223.819 7.33374 -1.95559 0
M  V30 6260 O 223.609 5.88721 -2.00726 0
M  V30 6261 C 222.419 7.92526 -2.10483 0
M  V30 6262 O 222.029 8.02971 -3.47653 0
M  V30 6263 C 221.539 6.89602 -1.41652 0
M  V30 6264 C 222.249 5.59201 -1.75185 0
M  V30 6265 N 222.199 4.58235 -0.662552 0
M  V30 6266 H 225.038 8.65116 -0.777161 0
M  V30 6267 H 225.31 6.90173 -0.474152 0
M  V30 6268 H 224.442 7.66548 -2.79458 0
M  V30 6269 P 220.479 8.03563 -3.84925 0
M  V30 6270 O 220.259 8.85821 -5.0569 0
M  V30 6271 O 219.689 8.41101 -2.65469 0
M  V30 6272 O 220.229 6.4965 -4.18908 0
M  V30 6273 C 221.169 5.81037 -5.05421 0
M  V30 6274 C 220.439 4.78366 -5.89277 0
M  V30 6275 O 220.229 3.58302 -5.08433 0
M  V30 6276 C 219.039 5.17448 -6.36119 0
M  V30 6277 O 218.649 4.45271 -7.53232 0
M  V30 6278 C 218.159 4.74639 -5.19936 0
M  V30 6279 C 218.869 3.49432 -4.70418 0
M  V30 6280 N 218.819 3.31776 -3.22945 0
M  V30 6281 H 221.658 6.54213 -5.71376 0
M  V30 6282 H 221.93 5.30492 -4.44033 0
M  V30 6283 H 221.062 4.55889 -6.76652 0
M  V30 6284 P 217.099 4.23843 -7.83734 0
M  V30 6285 O 216.879 4.19407 -9.29784 0
M  V30 6286 O 216.309 5.24426 -7.09156 0
M  V30 6287 O 216.849 2.7935 -7.20758 0
M  V30 6288 C 217.789 1.7299 -7.50419 0
M  V30 6289 C 217.059 0.406376 -7.57911 0
M  V30 6290 O 216.849 -0.0897726 -6.21935 0
M  V30 6291 C 215.659 0.447224 -8.1878 0
M  V30 6292 O 215.269 -0.825065 -8.71101 0
M  V30 6293 C 214.779 0.783801 -6.99623 0
M  V30 6294 C 215.489 0.0619192 -5.85967 0
M  V30 6295 N 215.439 0.790462 -4.56202 0
M  V30 6296 H 218.278 1.93423 -8.4679 0
M  V30 6297 H 218.55 1.68852 -6.70877 0
M  V30 6298 H 217.682 -0.289041 -8.15388 0
M  V30 6299 H 215.027 -0.927006 -5.72848 0
M  V30 6300 H 214.747 1.86973 -6.82036 0
M  V30 6301 H 213.756 0.403953 -7.13357 0
M  V30 6302 H 215.59 1.20599 -8.97534 0
M  V30 6303 P 213.719 -1.17771 -8.83182 0
M  V30 6304 O 213.499 -2.07206 -9.98732 0
M  V30 6305 O 212.929 0.0743816 -8.81969 0
M  V30 6306 O 213.469 -1.97652 -7.47304 0
M  V30 6307 C 214.409 -3.01133 -7.08783 0
M  V30 6308 C 213.679 -4.12613 -6.37049 0
M  V30 6309 O 213.469 -3.72827 -4.97879 0
M  V30 6310 C 212.279 -4.45085 -6.88694 0
M  V30 6311 O 211.889 -5.7877 -6.5624 0
M  V30 6312 C 211.399 -3.47817 -6.12078 0
M  V30 6313 C 212.109 -3.39414 -4.77697 0
M  V30 6314 N 212.059 -2.04615 -4.15333 0
M  V30 6315 H 214.898 -3.41248 -7.98759 0
M  V30 6316 H 215.17 -2.5837 -6.41742 0
M  V30 6317 H 214.302 -5.02657 -6.42673 0
M  V30 6318 P 210.339 -6.144 -6.45285 0
M  V30 6319 O 210.119 -7.54673 -6.86199 0
M  V30 6320 O 209.549 -5.12391 -7.179 0
M  V30 6321 O 210.089 -5.99158 -4.88404 0
M  V30 6322 C 211.029 -6.60234 -3.96415 0
M  V30 6323 C 210.299 -7.08259 -2.72856 0
M  V30 6324 O 210.089 -5.9427 -1.83651 0
M  V30 6325 C 208.899 -7.64886 -2.9555 0
M  V30 6326 O 208.509 -8.53963 -1.90717 0
M  V30 6327 C 208.019 -6.4116 -2.90739 0
M  V30 6328 C 208.729 -5.55375 -1.86963 0
M  V30 6329 N 208.679 -4.09664 -2.15742 0
M  V30 6330 H 211.518 -7.45574 -4.45629 0
M  V30 6331 H 211.79 -5.86232 -3.67314 0
M  V30 6332 H 210.922 -7.84412 -2.24479 0
M  V30 6333 P 206.959 -8.7635 -1.60911 0
M  V30 6334 O 206.739 -10.1388 -1.11561 0
M  V30 6335 O 206.169 -8.36503 -2.79617 0
M  V30 6336 O 206.709 -7.71806 -0.42951 0
M  V30 6337 C 207.649 -7.67148 0.673689 0
M  V30 6338 C 206.919 -7.33374 1.95559 0
M  V30 6339 O 206.709 -5.88721 2.00726 0
M  V30 6340 C 205.519 -7.92526 2.10483 0
M  V30 6341 O 205.129 -8.02971 3.47653 0
M  V30 6342 C 204.639 -6.89602 1.41652 0
M  V30 6343 C 205.349 -5.59201 1.75185 0
M  V30 6344 N 205.299 -4.58235 0.662552 0
M  V30 6345 H 208.138 -8.65116 0.777161 0
M  V30 6346 H 208.41 -6.90173 0.474152 0
M  V30 6347 H 207.542 -7.66548 2.79458 0
M  V30 6348 P 203.579 -8.03563 3.84925 0
M  V30 6349 O 203.359 -8.85821 5.0569 0
M  V30 6350 O 202.789 -8.41101 2.65469 0
M  V30 6351 O 203.329 -6.4965 4.18908 0
M  V30 6352 C 204.269 -5.81037 5.05421 0
M  V30 6353 C 203.539 -4.78366 5.89277 0
M  V30 6354 O 203.329 -3.58302 5.08433 0
M  V30 6355 C 202.139 -5.17448 6.36119 0
M  V30 6356 O 201.749 -4.45271 7.53232 0
M  V30 6357 C 201.259 -4.74639 5.19936 0
M  V30 6358 C 201.969 -3.49432 4.70418 0
M  V30 6359 N 201.919 -3.31776 3.22945 0
M  V30 6360 H 204.758 -6.54213 5.71376 0
M  V30 6361 H 205.03 -5.30492 4.44033 0
M  V30 6362 H 204.162 -4.55889 6.76652 0
M  V30 6363 P 200.199 -4.23843 7.83734 0
M  V30 6364 O 199.979 -4.19407 9.29784 0
M  V30 6365 O 199.409 -5.24426 7.09156 0
M  V30 6366 O 199.949 -2.7935 7.20758 0
M  V30 6367 C 200.889 -1.7299 7.50419 0
M  V30 6368 C 200.159 -0.406376 7.57911 0
M  V30 6369 O 199.949 0.0897726 6.21935 0
M  V30 6370 C 198.759 -0.447224 8.1878 0
M  V30 6371 O 198.369 0.825065 8.71101 0
M  V30 6372 C 197.879 -0.783801 6.99623 0
M  V30 6373 C 198.589 -0.0619192 5.85967 0
M  V30 6374 N 198.539 -0.7859 4.56281 0
M  V30 6375 C 198.619 -2.14308 4.31736 0
M  V30 6376 N 198.539 -2.46106 3.05116 0
M  V30 6377 C 198.399 -1.23422 2.4014 0
M  V30 6378 C 198.269 -0.938381 1.02409 0
M  V30 6379 O 198.249 -1.70876 0.0650402 0
M  V30 6380 N 198.149 0.444647 0.805413 0
M  V30 6381 C 198.149 1.40829 1.79435 0
M  V30 6382 N 198.019 2.67213 1.38558 0
M  V30 6383 N 198.279 1.12947 3.09005 0
M  V30 6384 C 198.399 -0.204887 3.32369 0
M  V30 6385 H 201.378 -1.93423 8.4679 0
M  V30 6386 H 201.65 -1.68181 6.71046 0
M  V30 6387 H 200.782 0.289041 8.15388 0
M  V30 6388 H 198.127 0.927166 5.72947 0
M  V30 6389 H 197.847 -1.87 6.82132 0
M  V30 6390 H 196.856 -0.404009 7.13457 0
M  V30 6391 H 198.69 -1.20612 8.97633 0
M  V30 6392 H 198.739 -2.88284 5.10874 0
M  V30 6393 H 198.057 0.755087 -0.140242 0
M  V30 6394 H 198.02 3.43967 2.0729 0
M  V30 6395 H 197.919 2.88096 0.380644 0
M  V30 6396 P 196.819 1.17771 8.83182 0
M  V30 6397 O 196.599 2.07206 9.98732 0
M  V30 6398 O 196.029 -0.0743816 8.81969 0
M  V30 6399 O 196.569 1.97652 7.47304 0
M  V30 6400 C 197.509 3.01055 7.08599 0
M  V30 6401 C 196.779 4.12613 6.37049 0
M  V30 6402 O 196.569 3.72827 4.97879 0
M  V30 6403 C 195.379 4.45719 6.88164 0
M  V30 6404 O 194.989 5.7877 6.5624 0
M  V30 6405 C 194.499 3.47768 6.11991 0
M  V30 6406 C 195.209 3.39356 4.77615 0
M  V30 6407 N 195.159 2.04571 4.15244 0
M  V30 6408 C 195.009 1.98587 2.78314 0
M  V30 6409 O 194.919 2.98134 2.08835 0
M  V30 6410 N 194.969 0.714467 2.24925 0
M  V30 6411 C 195.059 -0.470001 2.94169 0
M  V30 6412 O 195.009 -1.55587 2.35195 0
M  V30 6413 C 195.209 -0.312541 4.36783 0
M  V30 6414 C 195.319 -1.57711 5.16352 0
M  V30 6415 C 195.259 0.914512 4.92583 0
M  V30 6416 H 198 3.41169 7.98575 0
M  V30 6417 H 198.269 2.58295 6.41556 0
M  V30 6418 H 197.402 5.02657 6.42673 0
M  V30 6419 H 194.747 4.11637 4.08885 0
M  V30 6420 H 194.468 2.49626 6.61679 0
M  V30 6421 H 193.476 3.86566 6.00778 0
M  V30 6422 H 195.31 4.29943 7.96918 0
M  V30 6423 H 195.381 1.00937 6.00374 0
M  V30 6424 H 194.351 -1.80153 5.63503 0
M  V30 6425 H 196.088 -1.4566 5.94104 0
M  V30 6426 H 195.6 -2.40664 4.49645 0
M  V30 6427 H 194.864 0.647622 1.25697 0
M  V30 6428 P 193.439 6.144 6.45285 0
M  V30 6429 O 193.219 7.54673 6.86199 0
M  V30 6430 O 192.649 5.12391 7.179 0
M  V30 6431 O 193.189 5.99158 4.88404 0
M  V30 6432 C 194.129 6.60062 3.96313 0
M  V30 6433 C 193.399 7.08259 2.72856 0
M  V30 6434 O 193.189 5.9427 1.83651 0
M  V30 6435 C 191.999 7.65087 2.94749 0
M  V30 6436 O 191.609 8.53963 1.90717 0
M  V30 6437 C 191.119 6.41069 2.90698 0
M  V30 6438 C 191.829 5.5528 1.86931 0
M  V30 6439 N 191.779 4.09575 2.15696 0
M  V30 6440 C 191.629 3.24249 1.08435 0
M  V30 6441 O 191.539 3.63946 -0.0628747 0
M  V30 6442 N 191.589 1.90009 1.39973 0
M  V30 6443 C 191.679 1.34884 2.65614 0
M  V30 6444 C 191.829 2.3145 3.71736 0
M  V30 6445 C 191.879 3.63518 3.44754 0
M  V30 6446 H 194.62 7.45402 4.45526 0
M  V30 6447 H 194.889 5.86062 3.67208 0
M  V30 6448 H 194.022 7.84412 2.24479 0
M  V30 6449 H 191.367 5.73358 0.888409 0
M  V30 6450 H 191.088 5.90877 3.88583 0
M  V30 6451 H 190.096 6.65867 2.58821 0
M  V30 6452 H 191.93 8.16248 3.92006 0
M  V30 6453 H 192.001 4.34551 4.26383 0
M  V30 6454 P 190.059 8.7635 1.60911 0
M  V30 6455 O 189.839 10.1388 1.11561 0
M  V30 6456 O 189.269 8.36503 2.79617 0
M  V30 6457 O 189.809 7.71806 0.42951 0
M  V30 6458 C 190.749 7.67148 -0.673689 0
M  V30 6459 C 190.019 7.33374 -1.95559 0
M  V30 6460 O 189.809 5.88721 -2.00726 0
M  V30 6461 C 188.619 7.92526 -2.10483 0
M  V30 6462 O 188.229 8.02971 -3.47653 0
M  V30 6463 C 187.739 6.89602 -1.41652 0
M  V30 6464 C 188.449 5.59201 -1.75185 0
M  V30 6465 N 188.399 4.58235 -0.662552 0
M  V30 6466 C 188.479 4.7683 0.704049 0
M  V30 6467 N 188.399 3.66233 1.39775 0
M  V30 6468 C 188.259 2.66526 0.431739 0
M  V30 6469 C 188.129 1.26394 0.575992 0
M  V30 6470 N 188.009 0.62859 -0.67177 0
M  V30 6471 C 188.009 1.27134 -1.89385 0
M  V30 6472 N 187.879 0.492035 -2.96951 0
M  V30 6473 N 188.139 2.58978 -2.02907 0
M  V30 6474 C 188.259 3.22433 -0.832218 0
M  V30 6475 H 191.238 8.65116 -0.777161 0
M  V30 6476 H 191.51 6.90173 -0.474152 0
M  V30 6477 H 190.642 7.66548 -2.79458 0
M  V30 6478 P 186.679 8.03563 -3.84925 0
M  V30 6479 O 186.459 8.85821 -5.0569 0
M  V30 6480 O 185.889 8.41101 -2.65469 0
M  V30 6481 O 186.429 6.4965 -4.18908 0
M  V30 6482 C 187.369 5.81037 -5.05421 0
M  V30 6483 C 186.639 4.78366 -5.89277 0
M  V30 6484 O 186.429 3.58302 -5.08433 0
M  V30 6485 C 185.239 5.17448 -6.36119 0
M  V30 6486 O 184.849 4.45271 -7.53232 0
M  V30 6487 C 184.359 4.74639 -5.19936 0
M  V30 6488 C 185.069 3.49432 -4.70418 0
M  V30 6489 N 185.019 3.31776 -3.22945 0
M  V30 6490 H 187.858 6.54213 -5.71376 0
M  V30 6491 H 188.13 5.30492 -4.44033 0
M  V30 6492 H 187.262 4.55889 -6.76652 0
M  V30 6493 P 183.299 4.23843 -7.83734 0
M  V30 6494 O 183.079 4.19407 -9.29784 0
M  V30 6495 O 182.509 5.24426 -7.09156 0
M  V30 6496 O 183.049 2.7935 -7.20758 0
M  V30 6497 C 183.989 1.7299 -7.50419 0
M  V30 6498 C 183.259 0.406376 -7.57911 0
M  V30 6499 O 183.049 -0.0897726 -6.21935 0
M  V30 6500 C 181.859 0.447224 -8.1878 0
M  V30 6501 O 181.469 -0.825065 -8.71101 0
M  V30 6502 C 180.979 0.783801 -6.99623 0
M  V30 6503 C 181.689 0.0619192 -5.85967 0
M  V30 6504 N 181.639 0.7859 -4.56281 0
M  V30 6505 H 184.478 1.93423 -8.4679 0
M  V30 6506 H 184.75 1.68181 -6.71046 0
M  V30 6507 H 183.882 -0.289041 -8.15388 0
M  V30 6508 P 179.919 -1.17771 -8.83182 0
M  V30 6509 O 179.699 -2.07206 -9.98732 0
M  V30 6510 O 179.129 0.0743816 -8.81969 0
M  V30 6511 O 179.669 -1.97652 -7.47304 0
M  V30 6512 C 180.609 -3.01055 -7.08599 0
M  V30 6513 C 179.879 -4.12613 -6.37049 0
M  V30 6514 O 179.669 -3.72827 -4.97879 0
M  V30 6515 C 178.479 -4.45719 -6.88164 0
M  V30 6516 O 178.089 -5.7877 -6.5624 0
M  V30 6517 C 177.599 -3.47768 -6.11991 0
M  V30 6518 C 178.309 -3.39356 -4.77615 0
M  V30 6519 N 178.259 -2.04571 -4.15244 0
M  V30 6520 C 178.109 -1.98587 -2.78314 0
M  V30 6521 O 178.019 -2.98134 -2.08835 0
M  V30 6522 N 178.069 -0.714467 -2.24925 0
M  V30 6523 C 178.159 0.470001 -2.94169 0
M  V30 6524 C 178.309 0.312541 -4.36783 0
M  V30 6525 C 178.359 -0.914512 -4.92583 0
M  V30 6526 H 181.1 -3.41169 -7.98575 0
M  V30 6527 H 181.369 -2.58295 -6.41556 0
M  V30 6528 H 180.502 -5.02657 -6.42673 0
M  V30 6529 H 177.847 -4.11637 -4.08885 0
M  V30 6530 H 177.568 -2.49626 -6.61679 0
M  V30 6531 H 176.576 -3.86566 -6.00778 0
M  V30 6532 H 178.41 -4.29943 -7.96918 0
M  V30 6533 H 178.481 -1.00937 -6.00374 0
M  V30 6534 P 176.539 -6.144 -6.45285 0
M  V30 6535 O 176.319 -7.54673 -6.86199 0
M  V30 6536 O 175.749 -5.12391 -7.179 0
M  V30 6537 O 176.289 -5.99158 -4.88404 0
M  V30 6538 C 177.229 -6.60234 -3.96415 0
M  V30 6539 C 176.499 -7.08259 -2.72856 0
M  V30 6540 O 176.289 -5.9427 -1.83651 0
M  V30 6541 C 175.099 -7.64886 -2.9555 0
M  V30 6542 O 174.709 -8.53963 -1.90717 0
M  V30 6543 C 174.219 -6.4116 -2.90739 0
M  V30 6544 C 174.929 -5.55375 -1.86963 0
M  V30 6545 N 174.879 -4.09448 -2.16152 0
M  V30 6546 H 177.718 -7.45574 -4.45629 0
M  V30 6547 H 177.99 -5.85864 -3.679 0
M  V30 6548 H 177.122 -7.84412 -2.24479 0
M  V30 6549 H 174.467 -5.73457 -0.888562 0
M  V30 6550 H 174.187 -5.90877 -3.88583 0
M  V30 6551 H 173.196 -6.6596 -2.58858 0
M  V30 6552 H 175.03 -8.16339 -3.92049 0
M  V30 6553 P 173.159 -8.7635 -1.60911 0
M  V30 6554 O 172.939 -10.1388 -1.11561 0
M  V30 6555 O 172.369 -8.36503 -2.79617 0
M  V30 6556 O 172.909 -7.71806 -0.42951 0
M  V30 6557 C 173.849 -7.67148 0.673689 0
M  V30 6558 C 173.119 -7.33374 1.95559 0
M  V30 6559 O 172.909 -5.88721 2.00726 0
M  V30 6560 C 171.719 -7.92526 2.10483 0
M  V30 6561 O 171.329 -8.02971 3.47653 0
M  V30 6562 C 170.839 -6.89602 1.41652 0
M  V30 6563 C 171.549 -5.59201 1.75185 0
M  V30 6564 N 171.499 -4.58301 0.657969 0
M  V30 6565 H 174.338 -8.65116 0.777161 0
M  V30 6566 H 174.61 -6.9022 0.46725 0
M  V30 6567 H 173.742 -7.66548 2.79458 0
M  V30 6568 H 171.087 -5.16165 2.65183 0
M  V30 6569 H 170.807 -7.06433 0.329384 0
M  V30 6570 H 169.816 -6.90926 1.82021 0
M  V30 6571 H 171.65 -8.90873 1.62657 0
M  V30 6572 P 169.779 -8.03563 3.84925 0
M  V30 6573 O 169.559 -8.85821 5.0569 0
M  V30 6574 O 168.989 -8.41101 2.65469 0
M  V30 6575 O 169.529 -6.4965 4.18908 0
M  V30 6576 C 170.469 -5.81037 5.05421 0
M  V30 6577 C 169.739 -4.78366 5.89277 0
M  V30 6578 O 169.529 -3.58302 5.08433 0
M  V30 6579 C 168.339 -5.17448 6.36119 0
M  V30 6580 O 167.949 -4.45271 7.53232 0
M  V30 6581 C 167.459 -4.74639 5.19936 0
M  V30 6582 C 168.169 -3.49432 4.70418 0
M  V30 6583 N 168.119 -3.31776 3.22945 0
M  V30 6584 H 170.958 -6.54213 5.71376 0
M  V30 6585 H 171.23 -5.30492 4.44033 0
M  V30 6586 H 170.362 -4.55889 6.76652 0
M  V30 6587 P 166.399 -4.23843 7.83734 0
M  V30 6588 O 166.179 -4.19407 9.29784 0
M  V30 6589 O 165.609 -5.24426 7.09156 0
M  V30 6590 O 166.149 -2.7935 7.20758 0
M  V30 6591 C 167.089 -1.7299 7.50419 0
M  V30 6592 C 166.359 -0.406376 7.57911 0
M  V30 6593 O 166.149 0.0897726 6.21935 0
M  V30 6594 C 164.959 -0.447224 8.1878 0
M  V30 6595 O 164.569 0.825065 8.71101 0
M  V30 6596 C 164.079 -0.783801 6.99623 0
M  V30 6597 C 164.789 -0.0619192 5.85967 0
M  V30 6598 N 164.739 -0.7859 4.56281 0
M  V30 6599 H 167.578 -1.93423 8.4679 0
M  V30 6600 H 167.85 -1.68181 6.71046 0
M  V30 6601 H 166.982 0.289041 8.15388 0
M  V30 6602 P 163.019 1.17771 8.83182 0
M  V30 6603 O 162.799 2.07206 9.98732 0
M  V30 6604 O 162.229 -0.0743816 8.81969 0
M  V30 6605 O 162.769 1.97652 7.47304 0
M  V30 6606 C 163.709 3.01133 7.08783 0
M  V30 6607 C 162.979 4.12613 6.37049 0
M  V30 6608 O 162.769 3.72827 4.97879 0
M  V30 6609 C 161.579 4.45085 6.88694 0
M  V30 6610 O 161.189 5.7877 6.5624 0
M  V30 6611 C 160.699 3.47817 6.12078 0
M  V30 6612 C 161.409 3.39414 4.77697 0
M  V30 6613 N 161.359 2.04199 4.15538 0
M  V30 6614 C 161.439 0.821545 4.76977 0
M  V30 6615 N 161.369 -0.1794 3.94592 0
M  V30 6616 C 161.219 0.419121 2.70776 0
M  V30 6617 C 161.089 -0.109072 1.40577 0
M  V30 6618 N 161.079 -1.4104 1.1344 0
M  V30 6619 N 160.969 0.764381 0.39411 0
M  V30 6620 C 160.979 2.06587 0.664135 0
M  V30 6621 N 161.099 2.67948 1.82153 0
M  V30 6622 C 161.219 1.77942 2.8147 0
M  V30 6623 H 164.198 3.41248 7.98759 0
M  V30 6624 H 164.47 2.57728 6.42 0
M  V30 6625 H 163.602 5.02657 6.42673 0
M  V30 6626 H 160.947 4.11708 4.08956 0
M  V30 6627 H 160.667 2.49626 6.61679 0
M  V30 6628 H 159.676 3.8662 6.00862 0
M  V30 6629 H 161.51 4.29991 7.97006 0
M  V30 6630 H 161.551 0.702451 5.84696 0
M  V30 6631 H 161.17 -2.09647 1.89651 0
M  V30 6632 H 160.981 -1.73358 0.160575 0
M  V30 6633 H 160.873 2.71695 -0.195838 0
M  V30 6634 P 159.639 6.144 6.45285 0
M  V30 6635 O 159.419 7.54673 6.86199 0
M  V30 6636 O 158.849 5.12391 7.179 0
M  V30 6637 O 159.389 5.99158 4.88404 0
M  V30 6638 C 160.329 6.60234 3.96415 0
M  V30 6639 C 159.599 7.08259 2.72856 0
M  V30 6640 O 159.389 5.9427 1.83651 0
M  V30 6641 C 158.199 7.64886 2.9555 0
M  V30 6642 O 157.809 8.53963 1.90717 0
M  V30 6643 C 157.319 6.4116 2.90739 0
M  V30 6644 C 158.029 5.55375 1.86963 0
M  V30 6645 N 157.979 4.09664 2.15742 0
M  V30 6646 H 160.818 7.45574 4.45629 0
M  V30 6647 H 161.09 5.86232 3.67314 0
M  V30 6648 H 160.222 7.84412 2.24479 0
M  V30 6649 P 156.259 8.7635 1.60911 0
M  V30 6650 O 156.039 10.1388 1.11561 0
M  V30 6651 O 155.469 8.36503 2.79617 0
M  V30 6652 O 156.009 7.71806 0.42951 0
M  V30 6653 C 156.949 7.67148 -0.673689 0
M  V30 6654 C 156.219 7.33374 -1.95559 0
M  V30 6655 O 156.009 5.88721 -2.00726 0
M  V30 6656 C 154.819 7.92526 -2.10483 0
M  V30 6657 O 154.429 8.02971 -3.47653 0
M  V30 6658 C 153.939 6.89602 -1.41652 0
M  V30 6659 C 154.649 5.59201 -1.75185 0
M  V30 6660 N 154.599 4.58235 -0.662552 0
M  V30 6661 H 157.438 8.65116 -0.777161 0
M  V30 6662 H 157.71 6.90173 -0.474152 0
M  V30 6663 H 156.842 7.66548 -2.79458 0
M  V30 6664 P 152.879 8.03563 -3.84925 0
M  V30 6665 O 152.659 8.85821 -5.0569 0
M  V30 6666 O 152.089 8.41101 -2.65469 0
M  V30 6667 O 152.629 6.4965 -4.18908 0
M  V30 6668 C 153.569 5.81037 -5.05421 0
M  V30 6669 C 152.839 4.78366 -5.89277 0
M  V30 6670 O 152.629 3.58302 -5.08433 0
M  V30 6671 C 151.439 5.17448 -6.36119 0
M  V30 6672 O 151.049 4.45271 -7.53232 0
M  V30 6673 C 150.559 4.74639 -5.19936 0
M  V30 6674 C 151.269 3.49432 -4.70418 0
M  V30 6675 N 151.219 3.32099 -3.22613 0
M  V30 6676 H 154.058 6.54213 -5.71376 0
M  V30 6677 H 154.33 5.30936 -4.43503 0
M  V30 6678 H 153.462 4.55889 -6.76652 0
M  V30 6679 H 150.807 2.61715 -5.17932 0
M  V30 6680 H 150.527 5.52155 -4.41878 0
M  V30 6681 H 149.536 4.51981 -5.53374 0
M  V30 6682 H 151.37 6.25124 -6.55234 0
M  V30 6683 P 149.499 4.23843 -7.83734 0
M  V30 6684 O 149.279 4.19407 -9.29784 0
M  V30 6685 O 148.709 5.24426 -7.09156 0
M  V30 6686 O 149.249 2.7935 -7.20758 0
M  V30 6687 C 150.189 1.7299 -7.50419 0
M  V30 6688 C 149.459 0.406376 -7.57911 0
M  V30 6689 O 149.249 -0.0897726 -6.21935 0
M  V30 6690 C 148.059 0.447224 -8.1878 0
M  V30 6691 O 147.669 -0.825065 -8.71101 0
M  V30 6692 C 147.179 0.783801 -6.99623 0
M  V30 6693 C 147.889 0.0619192 -5.85967 0
M  V30 6694 N 147.839 0.7859 -4.56281 0
M  V30 6695 H 150.678 1.93423 -8.4679 0
M  V30 6696 H 150.95 1.68181 -6.71046 0
M  V30 6697 H 150.082 -0.289041 -8.15388 0
M  V30 6698 P 146.119 -1.17771 -8.83182 0
M  V30 6699 O 145.899 -2.07206 -9.98732 0
M  V30 6700 O 145.329 0.0743816 -8.81969 0
M  V30 6701 O 145.869 -1.97678 -7.474 0
M  V30 6702 C 146.809 -3.01133 -7.08783 0
M  V30 6703 C 146.079 -4.1203 -6.37546 0
M  V30 6704 O 145.869 -3.72887 -4.9796 0
M  V30 6705 C 144.679 -4.45085 -6.88694 0
M  V30 6706 O 144.289 -5.78836 -6.56315 0
M  V30 6707 C 143.799 -3.47817 -6.12078 0
M  V30 6708 C 144.509 -3.39414 -4.77697 0
M  V30 6709 N 144.459 -2.04615 -4.15333 0
M  V30 6710 C 144.309 -1.96929 -2.77162 0
M  V30 6711 O 144.219 -3.02017 -2.12006 0
M  V30 6712 N 144.259 -0.55485 -2.24237 0
M  V30 6713 C 144.359 0.367808 -2.9169 0
M  V30 6714 N 144.309 1.53426 -2.29427 0
M  V30 6715 C 144.509 0.319148 -4.33828 0
M  V30 6716 C 144.559 -0.920672 -4.90433 0
M  V30 6717 H 147.299 -3.41209 -7.98667 0
M  V30 6718 H 147.569 -2.5837 -6.41742 0
M  V30 6719 H 146.702 -5.02718 -6.42752 0
M  V30 6720 H 144.047 -4.11779 -4.09026 0
M  V30 6721 H 143.767 -2.49661 -6.61772 0
M  V30 6722 H 142.776 -3.86674 -6.00946 0
M  V30 6723 H 144.61 -4.29991 -7.97006 0
M  V30 6724 H 144.682 -1.00589 -5.98303 0
M  V30 6725 H 144.58 1.22639 -4.93799 0
M  V30 6726 H 144.192 1.56819 -1.27167 0
M  V30 6727 H 144.388 2.41062 -2.83063 0
M  V30 6728 P 142.739 -6.144 -6.45285 0
M  V30 6729 O 142.519 -7.54673 -6.86199 0
M  V30 6730 O 141.949 -5.12391 -7.179 0
M  V30 6731 O 142.489 -5.99158 -4.88404 0
M  V30 6732 C 143.429 -6.60062 -3.96313 0
M  V30 6733 C 142.699 -7.08259 -2.72856 0
M  V30 6734 O 142.489 -5.9427 -1.83651 0
M  V30 6735 C 141.299 -7.65087 -2.94749 0
M  V30 6736 O 140.909 -8.53963 -1.90717 0
M  V30 6737 C 140.419 -6.41069 -2.90698 0
M  V30 6738 C 141.129 -5.5528 -1.86931 0
M  V30 6739 N 141.079 -4.09575 -2.15696 0
M  V30 6740 C 140.929 -3.24249 -1.08435 0
M  V30 6741 O 140.839 -3.63946 0.0628747 0
M  V30 6742 N 140.889 -1.90009 -1.39973 0
M  V30 6743 C 140.979 -1.34884 -2.65614 0
M  V30 6744 O 140.929 -0.123716 -2.81728 0
M  V30 6745 C 141.129 -2.3145 -3.71736 0
M  V30 6746 C 141.239 -1.75913 -5.10438 0
M  V30 6747 C 141.179 -3.63518 -3.44754 0
M  V30 6748 H 143.92 -7.45402 -4.45526 0
M  V30 6749 H 144.189 -5.86062 -3.67208 0
M  V30 6750 H 143.322 -7.84412 -2.24479 0
M  V30 6751 H 140.667 -5.73358 -0.888409 0
M  V30 6752 H 140.388 -5.90877 -3.88583 0
M  V30 6753 H 139.396 -6.65867 -2.58821 0
M  V30 6754 H 141.23 -8.16248 -3.92006 0
M  V30 6755 H 141.301 -4.34551 -4.26383 0
M  V30 6756 H 140.271 -1.85471 -5.61775 0
M  V30 6757 H 142.008 -2.31364 -5.66257 0
M  V30 6758 H 141.52 -0.695936 -5.05229 0
M  V30 6759 H 140.784 -1.26277 -0.63625 0
M  V30 6760 P 139.359 -8.7635 -1.60911 0
M  V30 6761 O 139.139 -10.1388 -1.11561 0
M  V30 6762 O 138.569 -8.36503 -2.79617 0
M  V30 6763 O 139.109 -7.71806 -0.42951 0
M  V30 6764 C 140.049 -7.67148 0.673689 0
M  V30 6765 C 139.319 -7.33374 1.95559 0
M  V30 6766 O 139.109 -5.88721 2.00726 0
M  V30 6767 C 137.919 -7.92526 2.10483 0
M  V30 6768 O 137.529 -8.02971 3.47653 0
M  V30 6769 C 137.039 -6.89602 1.41652 0
M  V30 6770 C 137.749 -5.59201 1.75185 0
M  V30 6771 N 137.699 -4.58235 0.662552 0
M  V30 6772 H 140.538 -8.65116 0.777161 0
M  V30 6773 H 140.81 -6.90173 0.474152 0
M  V30 6774 H 139.942 -7.66548 2.79458 0
M  V30 6775 P 135.979 -8.03563 3.84925 0
M  V30 6776 O 135.759 -8.85821 5.0569 0
M  V30 6777 O 135.189 -8.41101 2.65469 0
M  V30 6778 O 135.729 -6.4965 4.18908 0
M  V30 6779 C 136.669 -5.81037 5.05421 0
M  V30 6780 C 135.939 -4.78366 5.89277 0
M  V30 6781 O 135.729 -3.58302 5.08433 0
M  V30 6782 C 134.539 -5.17448 6.36119 0
M  V30 6783 O 134.149 -4.45271 7.53232 0
M  V30 6784 C 133.659 -4.74639 5.19936 0
M  V30 6785 C 134.369 -3.49432 4.70418 0
M  V30 6786 N 134.319 -3.31776 3.22945 0
M  V30 6787 H 137.158 -6.54213 5.71376 0
M  V30 6788 H 137.43 -5.30492 4.44033 0
M  V30 6789 H 136.562 -4.55889 6.76652 0
M  V30 6790 P 132.599 -4.23843 7.83734 0
M  V30 6791 O 132.379 -4.19407 9.29784 0
M  V30 6792 O 131.809 -5.24426 7.09156 0
M  V30 6793 O 132.349 -2.79386 7.20852 0
M  V30 6794 C 133.289 -1.7299 7.50419 0
M  V30 6795 C 132.559 -0.41401 7.5797 0
M  V30 6796 O 132.349 0.089787 6.22035 0
M  V30 6797 C 131.159 -0.447224 8.1878 0
M  V30 6798 O 130.769 0.825159 8.71201 0
M  V30 6799 C 130.279 -0.783801 6.99623 0
M  V30 6800 C 130.989 -0.0619192 5.85967 0
M  V30 6801 N 130.939 -0.7859 4.56281 0
M  V30 6802 C 130.789 -0.0359258 3.39981 0
M  V30 6803 O 130.699 1.19723 3.49038 0
M  V30 6804 N 130.739 -0.869151 2.14025 0
M  V30 6805 C 130.839 -2.01207 2.14363 0
M  V30 6806 N 130.789 -2.58978 0.954287 0
M  V30 6807 C 130.989 -2.80817 3.32215 0
M  V30 6808 C 131.039 -2.13785 4.50884 0
M  V30 6809 H 133.779 -1.93401 8.46693 0
M  V30 6810 H 134.049 -1.68181 6.71046 0
M  V30 6811 H 133.182 0.289076 8.15488 0
M  V30 6812 H 130.527 0.927166 5.72947 0
M  V30 6813 H 130.247 -1.87 6.82132 0
M  V30 6814 H 129.256 -0.404009 7.13457 0
M  V30 6815 H 131.09 -1.20599 8.97534 0
M  V30 6816 H 131.162 -2.70295 5.43162 0
M  V30 6817 H 131.06 -3.89465 3.27406 0
M  V30 6818 H 130.672 -2.01616 0.107046 0
M  V30 6819 H 130.868 -3.61403 0.873101 0
M  V30 6820 P 129.219 1.17771 8.83182 0
M  V30 6821 O 128.999 2.07206 9.98732 0
M  V30 6822 O 128.429 -0.0743816 8.81969 0
M  V30 6823 O 128.969 1.97652 7.47304 0
M  V30 6824 C 129.909 3.01133 7.08783 0
M  V30 6825 C 129.179 4.12613 6.37049 0
M  V30 6826 O 128.969 3.72827 4.97879 0
M  V30 6827 C 127.779 4.45085 6.88694 0
M  V30 6828 O 127.389 5.7877 6.5624 0
M  V30 6829 C 126.899 3.47817 6.12078 0
M  V30 6830 C 127.609 3.39414 4.77697 0
M  V30 6831 N 127.559 2.04615 4.15333 0
M  V30 6832 H 130.398 3.41248 7.98759 0
M  V30 6833 H 130.67 2.5837 6.41742 0
M  V30 6834 H 129.802 5.02657 6.42673 0
M  V30 6835 P 125.839 6.144 6.45285 0
M  V30 6836 O 125.619 7.54673 6.86199 0
M  V30 6837 O 125.049 5.12391 7.179 0
M  V30 6838 O 125.589 5.99158 4.88404 0
M  V30 6839 C 126.529 6.60234 3.96415 0
M  V30 6840 C 125.799 7.08259 2.72856 0
M  V30 6841 O 125.589 5.9427 1.83651 0
M  V30 6842 C 124.399 7.64886 2.9555 0
M  V30 6843 O 124.009 8.53963 1.90717 0
M  V30 6844 C 123.519 6.4116 2.90739 0
M  V30 6845 C 124.229 5.55375 1.86963 0
M  V30 6846 N 124.179 4.09664 2.15742 0
M  V30 6847 H 127.018 7.45574 4.45629 0
M  V30 6848 H 127.29 5.86232 3.67314 0
M  V30 6849 H 126.422 7.84412 2.24479 0
M  V30 6850 P 122.459 8.7635 1.60911 0
M  V30 6851 O 122.239 10.1388 1.11561 0
M  V30 6852 O 121.669 8.36503 2.79617 0
M  V30 6853 O 122.209 7.71806 0.42951 0
M  V30 6854 C 123.149 7.67148 -0.673689 0
M  V30 6855 C 122.419 7.33374 -1.95559 0
M  V30 6856 O 122.209 5.88721 -2.00726 0
M  V30 6857 C 121.019 7.92526 -2.10483 0
M  V30 6858 O 120.629 8.02971 -3.47653 0
M  V30 6859 C 120.139 6.89602 -1.41652 0
M  V30 6860 C 120.849 5.59201 -1.75185 0
M  V30 6861 N 120.799 4.58235 -0.662552 0
M  V30 6862 C 120.879 4.7683 0.704049 0
M  V30 6863 N 120.799 3.66233 1.39775 0
M  V30 6864 C 120.659 2.66526 0.431739 0
M  V30 6865 C 120.529 1.26394 0.575992 0
M  V30 6866 O 120.509 0.589894 1.60503 0
M  V30 6867 N 120.409 0.62859 -0.67177 0
M  V30 6868 C 120.409 1.27134 -1.89385 0
M  V30 6869 N 120.279 0.492035 -2.96951 0
M  V30 6870 N 120.539 2.58978 -2.02907 0
M  V30 6871 C 120.659 3.22433 -0.832218 0
M  V30 6872 H 123.638 8.65116 -0.777161 0
M  V30 6873 H 123.91 6.90173 -0.474152 0
M  V30 6874 H 123.042 7.66548 -2.79458 0
M  V30 6875 H 120.387 5.16254 -2.65229 0
M  V30 6876 H 120.107 7.06532 -0.329431 0
M  V30 6877 H 119.116 6.91023 -1.82047 0
M  V30 6878 H 120.95 8.90971 -1.62675 0
M  V30 6879 H 120.999 5.74954 1.16305 0
M  V30 6880 H 120.317 -0.366713 -0.674793 0
M  V30 6881 H 120.28 0.908532 -3.91188 0
M  V30 6882 H 120.179 -0.528253 -2.85758 0
M  V30 6883 P 119.079 8.03563 -3.84925 0
M  V30 6884 O 118.859 8.85821 -5.0569 0
M  V30 6885 O 118.289 8.41101 -2.65469 0
M  V30 6886 O 118.829 6.4965 -4.18908 0
M  V30 6887 C 119.769 5.81037 -5.05421 0
M  V30 6888 C 119.039 4.78366 -5.89277 0
M  V30 6889 O 118.829 3.58302 -5.08433 0
M  V30 6890 C 117.639 5.17448 -6.36119 0
M  V30 6891 O 117.249 4.45271 -7.53232 0
M  V30 6892 C 116.759 4.74639 -5.19936 0
M  V30 6893 C 117.469 3.49432 -4.70418 0
M  V30 6894 N 117.419 3.31776 -3.22945 0
M  V30 6895 H 120.258 6.54213 -5.71376 0
M  V30 6896 H 120.53 5.30492 -4.44033 0
M  V30 6897 H 119.662 4.55889 -6.76652 0
M  V30 6898 P 115.699 4.23843 -7.83734 0
M  V30 6899 O 115.479 4.19407 -9.29784 0
M  V30 6900 O 114.909 5.24426 -7.09156 0
M  V30 6901 O 115.449 2.7935 -7.20758 0
M  V30 6902 C 116.389 1.7299 -7.50419 0
M  V30 6903 C 115.659 0.406376 -7.57911 0
M  V30 6904 O 115.449 -0.0897726 -6.21935 0
M  V30 6905 C 114.259 0.447224 -8.1878 0
M  V30 6906 O 113.869 -0.825065 -8.71101 0
M  V30 6907 C 113.379 0.783801 -6.99623 0
M  V30 6908 C 114.089 0.0619192 -5.85967 0
M  V30 6909 N 114.039 0.7859 -4.56281 0
M  V30 6910 H 116.878 1.93423 -8.4679 0
M  V30 6911 H 117.15 1.68181 -6.71046 0
M  V30 6912 H 116.282 -0.289041 -8.15388 0
M  V30 6913 P 112.319 -1.17771 -8.83182 0
M  V30 6914 O 112.099 -2.07206 -9.98732 0
M  V30 6915 O 111.529 0.0743816 -8.81969 0
M  V30 6916 O 112.069 -1.97652 -7.47304 0
M  V30 6917 C 113.009 -3.01133 -7.08783 0
M  V30 6918 C 112.279 -4.12613 -6.37049 0
M  V30 6919 O 112.069 -3.72827 -4.97879 0
M  V30 6920 C 110.879 -4.45085 -6.88694 0
M  V30 6921 O 110.489 -5.7877 -6.5624 0
M  V30 6922 C 109.999 -3.47817 -6.12078 0
M  V30 6923 C 110.709 -3.39414 -4.77697 0
M  V30 6924 N 110.659 -2.04615 -4.15333 0
M  V30 6925 H 113.498 -3.41248 -7.98759 0
M  V30 6926 H 113.77 -2.5837 -6.41742 0
M  V30 6927 H 112.902 -5.02657 -6.42673 0
M  V30 6928 P 108.939 -6.144 -6.45285 0
M  V30 6929 O 108.719 -7.54673 -6.86199 0
M  V30 6930 O 108.149 -5.12391 -7.179 0
M  V30 6931 O 108.689 -5.99158 -4.88404 0
M  V30 6932 C 109.629 -6.60234 -3.96415 0
M  V30 6933 C 108.899 -7.08259 -2.72856 0
M  V30 6934 O 108.689 -5.9427 -1.83651 0
M  V30 6935 C 107.499 -7.64886 -2.9555 0
M  V30 6936 O 107.109 -8.53963 -1.90717 0
M  V30 6937 C 106.619 -6.4116 -2.90739 0
M  V30 6938 C 107.329 -5.55375 -1.86963 0
M  V30 6939 N 107.279 -4.09664 -2.15742 0
M  V30 6940 H 110.118 -7.45574 -4.45629 0
M  V30 6941 H 110.39 -5.86232 -3.67314 0
M  V30 6942 H 109.522 -7.84412 -2.24479 0
M  V30 6943 P 105.559 -8.7635 -1.60911 0
M  V30 6944 O 105.339 -10.1388 -1.11561 0
M  V30 6945 O 104.769 -8.36503 -2.79617 0
M  V30 6946 O 105.309 -7.71806 -0.42951 0
M  V30 6947 C 106.249 -7.67148 0.673689 0
M  V30 6948 C 105.519 -7.33374 1.95559 0
M  V30 6949 O 105.309 -5.88721 2.00726 0
M  V30 6950 C 104.119 -7.92526 2.10483 0
M  V30 6951 O 103.729 -8.02971 3.47653 0
M  V30 6952 C 103.239 -6.89602 1.41652 0
M  V30 6953 C 103.949 -5.59201 1.75185 0
M  V30 6954 N 103.899 -4.58235 0.662552 0
M  V30 6955 H 106.738 -8.65116 0.777161 0
M  V30 6956 H 107.01 -6.90173 0.474152 0
M  V30 6957 H 106.142 -7.66548 2.79458 0
M  V30 6958 P 102.179 -8.03563 3.84925 0
M  V30 6959 O 101.959 -8.85821 5.0569 0
M  V30 6960 O 101.389 -8.41101 2.65469 0
M  V30 6961 O 101.929 -6.4965 4.18908 0
M  V30 6962 C 102.869 -5.81037 5.05421 0
M  V30 6963 C 102.139 -4.78366 5.89277 0
M  V30 6964 O 101.929 -3.58302 5.08433 0
M  V30 6965 C 100.739 -5.17448 6.36119 0
M  V30 6966 O 100.349 -4.45271 7.53232 0
M  V30 6967 C 99.8594 -4.74639 5.19936 0
M  V30 6968 C 100.569 -3.49432 4.70418 0
M  V30 6969 N 100.519 -3.32099 3.22613 0
M  V30 6970 H 103.358 -6.54213 5.71376 0
M  V30 6971 H 103.63 -5.30936 4.43503 0
M  V30 6972 H 102.762 -4.55889 6.76652 0
M  V30 6973 H 100.107 -2.61715 5.17932 0
M  V30 6974 H 99.8274 -5.52155 4.41878 0
M  V30 6975 H 98.8364 -4.51981 5.53374 0
M  V30 6976 H 100.67 -6.25124 6.55234 0
M  V30 6977 P 98.7994 -4.23843 7.83734 0
M  V30 6978 O 98.5794 -4.19407 9.29784 0
M  V30 6979 O 98.0094 -5.24426 7.09156 0
M  V30 6980 O 98.5494 -2.7935 7.20758 0
M  V30 6981 C 99.4894 -1.7299 7.50419 0
M  V30 6982 C 98.7594 -0.406376 7.57911 0
M  V30 6983 O 98.5494 0.0897726 6.21935 0
M  V30 6984 C 97.3594 -0.447224 8.1878 0
M  V30 6985 O 96.9694 0.825065 8.71101 0
M  V30 6986 C 96.4794 -0.783801 6.99623 0
M  V30 6987 C 97.1894 -0.0619192 5.85967 0
M  V30 6988 N 97.1394 -0.790462 4.56202 0
M  V30 6989 H 99.9784 -1.93423 8.4679 0
M  V30 6990 H 100.25 -1.68852 6.70877 0
M  V30 6991 H 99.3824 0.289041 8.15388 0
M  V30 6992 H 96.7274 0.927006 5.72848 0
M  V30 6993 H 96.4474 -1.86973 6.82036 0
M  V30 6994 H 95.4564 -0.403953 7.13357 0
M  V30 6995 H 97.2904 -1.20599 8.97534 0
M  V30 6996 P 95.4195 1.17771 8.83182 0
M  V30 6997 O 95.1995 2.07206 9.98732 0
M  V30 6998 O 94.6295 -0.0743816 8.81969 0
M  V30 6999 O 95.1695 1.97652 7.47304 0
M  V30 7000 C 96.1095 3.01133 7.08783 0
M  V30 7001 C 95.3795 4.12613 6.37049 0
M  V30 7002 O 95.1695 3.72827 4.97879 0
M  V30 7003 C 93.9795 4.45085 6.88694 0
M  V30 7004 O 93.5895 5.7877 6.5624 0
M  V30 7005 C 93.0995 3.47817 6.12078 0
M  V30 7006 C 93.8095 3.39414 4.77697 0
M  V30 7007 N 93.7595 2.04199 4.15538 0
M  V30 7008 H 96.5985 3.41248 7.98759 0
M  V30 7009 H 96.8705 2.57728 6.42 0
M  V30 7010 H 96.0025 5.02657 6.42673 0
M  V30 7011 H 93.3475 4.11708 4.08956 0
M  V30 7012 H 93.0675 2.49626 6.61679 0
M  V30 7013 H 92.0765 3.8662 6.00862 0
M  V30 7014 H 93.9105 4.29991 7.97006 0
M  V30 7015 P 92.0395 6.144 6.45285 0
M  V30 7016 O 91.8195 7.54673 6.86199 0
M  V30 7017 O 91.2495 5.12391 7.179 0
M  V30 7018 O 91.7895 5.99158 4.88404 0
M  V30 7019 C 92.7295 6.60234 3.96415 0
M  V30 7020 C 91.9995 7.08259 2.72856 0
M  V30 7021 O 91.7895 5.9427 1.83651 0
M  V30 7022 C 90.5995 7.64886 2.9555 0
M  V30 7023 O 90.2095 8.53963 1.90717 0
M  V30 7024 C 89.7195 6.4116 2.90739 0
M  V30 7025 C 90.4295 5.55375 1.86963 0
M  V30 7026 N 90.3795 4.09448 2.16152 0
M  V30 7027 H 93.2185 7.45574 4.45629 0
M  V30 7028 H 93.4905 5.85864 3.679 0
M  V30 7029 H 92.6225 7.84412 2.24479 0
M  V30 7030 H 89.9675 5.73457 0.888562 0
M  V30 7031 H 89.6875 5.90877 3.88583 0
M  V30 7032 H 88.6965 6.6596 2.58858 0
M  V30 7033 H 90.5305 8.16339 3.92049 0
M  V30 7034 P 88.6595 8.7635 1.60911 0
M  V30 7035 O 88.4395 10.1388 1.11561 0
M  V30 7036 O 87.8695 8.36503 2.79617 0
M  V30 7037 O 88.4095 7.71806 0.42951 0
M  V30 7038 C 89.3495 7.67148 -0.673689 0
M  V30 7039 C 88.6195 7.33374 -1.95559 0
M  V30 7040 O 88.4095 5.88721 -2.00726 0
M  V30 7041 C 87.2195 7.92526 -2.10483 0
M  V30 7042 O 86.8295 8.02971 -3.47653 0
M  V30 7043 C 86.3395 6.89602 -1.41652 0
M  V30 7044 C 87.0495 5.59201 -1.75185 0
M  V30 7045 N 86.9995 4.58301 -0.657969 0
M  V30 7046 C 87.0795 4.79019 0.692603 0
M  V30 7047 N 87.0095 3.69736 1.38998 0
M  V30 7048 C 86.8595 2.70474 0.438135 0
M  V30 7049 C 86.7295 1.30327 0.538142 0
M  V30 7050 N 86.7195 0.64304 1.69192 0
M  V30 7051 N 86.6095 0.611027 -0.605183 0
M  V30 7052 C 86.6195 1.27002 -1.75953 0
M  V30 7053 N 86.7395 2.56038 -1.98546 0
M  V30 7054 C 86.8595 3.22681 -0.822541 0
M  V30 7055 H 89.8385 8.65116 -0.777161 0
M  V30 7056 H 90.1105 6.9022 -0.46725 0
M  V30 7057 H 89.2425 7.66548 -2.79458 0
M  V30 7058 H 86.5875 5.16165 -2.65183 0
M  V30 7059 H 86.3075 7.06433 -0.329384 0
M  V30 7060 H 85.3165 6.90926 -1.82021 0
M  V30 7061 H 87.1505 8.90873 -1.62657 0
M  V30 7062 H 87.1915 5.77785 1.13874 0
M  V30 7063 H 86.8105 1.15585 2.57991 0
M  V30 7064 H 86.6215 -0.382989 1.69835 0
M  V30 7065 H 86.5135 0.653331 -2.64449 0
M  V30 7066 P 85.2795 8.03563 -3.84925 0
M  V30 7067 O 85.0595 8.85821 -5.0569 0
M  V30 7068 O 84.4895 8.41101 -2.65469 0
M  V30 7069 O 85.0295 6.4965 -4.18908 0
M  V30 7070 C 85.9695 5.81037 -5.05421 0
M  V30 7071 C 85.2395 4.78366 -5.89277 0
M  V30 7072 O 85.0295 3.58302 -5.08433 0
M  V30 7073 C 83.8395 5.17448 -6.36119 0
M  V30 7074 O 83.4495 4.45271 -7.53232 0
M  V30 7075 C 82.9595 4.74639 -5.19936 0
M  V30 7076 C 83.6695 3.49432 -4.70418 0
M  V30 7077 N 83.6195 3.31776 -3.22945 0
M  V30 7078 H 86.4585 6.54213 -5.71376 0
M  V30 7079 H 86.7305 5.30492 -4.44033 0
M  V30 7080 H 85.8625 4.55889 -6.76652 0
M  V30 7081 P 81.8995 4.23843 -7.83734 0
M  V30 7082 O 81.6795 4.19407 -9.29784 0
M  V30 7083 O 81.1095 5.24426 -7.09156 0
M  V30 7084 O 81.6495 2.7935 -7.20758 0
M  V30 7085 C 82.5895 1.7299 -7.50419 0
M  V30 7086 C 81.8595 0.406376 -7.57911 0
M  V30 7087 O 81.6495 -0.0897726 -6.21935 0
M  V30 7088 C 80.4595 0.447224 -8.1878 0
M  V30 7089 O 80.0695 -0.825065 -8.71101 0
M  V30 7090 C 79.5795 0.783801 -6.99623 0
M  V30 7091 C 80.2895 0.0619192 -5.85967 0
M  V30 7092 N 80.2395 0.7859 -4.56281 0
M  V30 7093 H 83.0785 1.93423 -8.4679 0
M  V30 7094 H 83.3505 1.68181 -6.71046 0
M  V30 7095 H 82.4825 -0.289041 -8.15388 0
M  V30 7096 P 78.5196 -1.17771 -8.83182 0
M  V30 7097 O 78.2996 -2.07206 -9.98732 0
M  V30 7098 O 77.7296 0.0743816 -8.81969 0
M  V30 7099 O 78.2696 -1.97652 -7.47304 0
M  V30 7100 C 79.2096 -3.01133 -7.08783 0
M  V30 7101 C 78.4796 -4.12613 -6.37049 0
M  V30 7102 O 78.2696 -3.72827 -4.97879 0
M  V30 7103 C 77.0796 -4.45085 -6.88694 0
M  V30 7104 O 76.6896 -5.7877 -6.5624 0
M  V30 7105 C 76.1996 -3.47817 -6.12078 0
M  V30 7106 C 76.9096 -3.39414 -4.77697 0
M  V30 7107 N 76.8596 -2.04615 -4.15333 0
M  V30 7108 H 79.6986 -3.41248 -7.98759 0
M  V30 7109 H 79.9706 -2.5837 -6.41742 0
M  V30 7110 H 79.1026 -5.02657 -6.42673 0
M  V30 7111 P 75.1396 -6.144 -6.45285 0
M  V30 7112 O 74.9196 -7.54673 -6.86199 0
M  V30 7113 O 74.3496 -5.12391 -7.179 0
M  V30 7114 O 74.8896 -5.99236 -4.88467 0
M  V30 7115 C 75.8296 -6.60234 -3.96415 0
M  V30 7116 C 75.0996 -7.08079 -2.736 0
M  V30 7117 O 74.8896 -5.94365 -1.8368 0
M  V30 7118 C 73.6996 -7.64886 -2.9555 0
M  V30 7119 O 73.3096 -8.5406 -1.90739 0
M  V30 7120 C 72.8196 -6.4116 -2.90739 0
M  V30 7121 C 73.5296 -5.55375 -1.86963 0
M  V30 7122 N 73.4796 -4.09664 -2.15742 0
M  V30 7123 C 73.3296 -3.22231 -1.08477 0
M  V30 7124 O 73.2396 -3.68951 0.0600489 0
M  V30 7125 N 73.2796 -1.76692 -1.48799 0
M  V30 7126 C 73.3796 -1.41695 -2.57602 0
M  V30 7127 N 73.3296 -0.107296 -2.75791 0
M  V30 7128 C 73.5296 -2.29178 -3.69733 0
M  V30 7129 C 73.5796 -3.62753 -3.42653 0
M  V30 7130 H 76.3196 -7.45488 -4.45578 0
M  V30 7131 H 76.5896 -5.86232 -3.67314 0
M  V30 7132 H 75.7226 -7.84508 -2.24507 0
M  V30 7133 H 73.0676 -5.73556 -0.888715 0
M  V30 7134 H 72.7876 -5.9096 -3.88638 0
M  V30 7135 H 71.7966 -6.66053 -2.58894 0
M  V30 7136 H 73.6306 -8.16339 -3.92049 0
M  V30 7137 H 73.7026 -4.33052 -4.24913 0
M  V30 7138 H 73.6006 -1.9103 -4.71577 0
M  V30 7139 H 73.2126 0.521221 -1.95056 0
M  V30 7140 H 73.4086 0.286429 -3.70695 0
M  V30 7141 P 71.7596 -8.7635 -1.60911 0
M  V30 7142 O 71.5396 -10.1388 -1.11561 0
M  V30 7143 O 70.9696 -8.36503 -2.79617 0
M  V30 7144 O 71.5096 -7.71806 -0.42951 0
M  V30 7145 C 72.4496 -7.67148 0.673689 0
M  V30 7146 C 71.7196 -7.33374 1.95559 0
M  V30 7147 O 71.5096 -5.88721 2.00726 0
M  V30 7148 C 70.3196 -7.92526 2.10483 0
M  V30 7149 O 69.9296 -8.02971 3.47653 0
M  V30 7150 C 69.4396 -6.89602 1.41652 0
M  V30 7151 C 70.1496 -5.59201 1.75185 0
M  V30 7152 N 70.0996 -4.58235 0.662552 0
M  V30 7153 H 72.9386 -8.65116 0.777161 0
M  V30 7154 H 73.2106 -6.90173 0.474152 0
M  V30 7155 H 72.3426 -7.66548 2.79458 0
M  V30 7156 P 68.3796 -8.03563 3.84925 0
M  V30 7157 O 68.1596 -8.85821 5.0569 0
M  V30 7158 O 67.5896 -8.41101 2.65469 0
M  V30 7159 O 68.1296 -6.4965 4.18908 0
M  V30 7160 C 69.0696 -5.81037 5.05421 0
M  V30 7161 C 68.3396 -4.78366 5.89277 0
M  V30 7162 O 68.1296 -3.58302 5.08433 0
M  V30 7163 C 66.9396 -5.17448 6.36119 0
M  V30 7164 O 66.5496 -4.45271 7.53232 0
M  V30 7165 C 66.0596 -4.74639 5.19936 0
M  V30 7166 C 66.7696 -3.49432 4.70418 0
M  V30 7167 N 66.7196 -3.31776 3.22945 0
M  V30 7168 H 69.5586 -6.54213 5.71376 0
M  V30 7169 H 69.8306 -5.30492 4.44033 0
M  V30 7170 H 68.9626 -4.55889 6.76652 0
M  V30 7171 P 64.9996 -4.23843 7.83734 0
M  V30 7172 O 64.7796 -4.19407 9.29784 0
M  V30 7173 O 64.2096 -5.24426 7.09156 0
M  V30 7174 O 64.7496 -2.7935 7.20758 0
M  V30 7175 C 65.6896 -1.7299 7.50419 0
M  V30 7176 C 64.9596 -0.406376 7.57911 0
M  V30 7177 O 64.7496 0.0897726 6.21935 0
M  V30 7178 C 63.5596 -0.447224 8.1878 0
M  V30 7179 O 63.1696 0.825065 8.71101 0
M  V30 7180 C 62.6796 -0.783801 6.99623 0
M  V30 7181 C 63.3896 -0.0619192 5.85967 0
M  V30 7182 N 63.3396 -0.7859 4.56281 0
M  V30 7183 H 66.1786 -1.93423 8.4679 0
M  V30 7184 H 66.4506 -1.68181 6.71046 0
M  V30 7185 H 65.5826 0.289041 8.15388 0
M  V30 7186 P 61.6197 1.17771 8.83182 0
M  V30 7187 O 61.3997 2.07206 9.98732 0
M  V30 7188 O 60.8297 -0.0743816 8.81969 0
M  V30 7189 O 61.3697 1.97652 7.47304 0
M  V30 7190 C 62.3097 3.01133 7.08783 0
M  V30 7191 C 61.5797 4.12613 6.37049 0
M  V30 7192 O 61.3697 3.72827 4.97879 0
M  V30 7193 C 60.1797 4.45085 6.88694 0
M  V30 7194 O 59.7897 5.7877 6.5624 0
M  V30 7195 C 59.2997 3.47817 6.12078 0
M  V30 7196 C 60.0097 3.39414 4.77697 0
M  V30 7197 N 59.9597 2.04199 4.15538 0
M  V30 7198 H 62.7987 3.41248 7.98759 0
M  V30 7199 H 63.0707 2.57728 6.42 0
M  V30 7200 H 62.2027 5.02657 6.42673 0
M  V30 7201 H 59.5477 4.11708 4.08956 0
M  V30 7202 H 59.2677 2.49626 6.61679 0
M  V30 7203 H 58.2767 3.8662 6.00862 0
M  V30 7204 H 60.1107 4.29991 7.97006 0
M  V30 7205 P 58.2397 6.144 6.45285 0
M  V30 7206 O 58.0197 7.54673 6.86199 0
M  V30 7207 O 57.4497 5.12391 7.179 0
M  V30 7208 O 57.9897 5.99158 4.88404 0
M  V30 7209 C 58.9297 6.60234 3.96415 0
M  V30 7210 C 58.1997 7.08259 2.72856 0
M  V30 7211 O 57.9897 5.9427 1.83651 0
M  V30 7212 C 56.7997 7.64886 2.9555 0
M  V30 7213 O 56.4097 8.53963 1.90717 0
M  V30 7214 C 55.9197 6.4116 2.90739 0
M  V30 7215 C 56.6297 5.55375 1.86963 0
M  V30 7216 N 56.5797 4.09664 2.15742 0
M  V30 7217 H 59.4187 7.45574 4.45629 0
M  V30 7218 H 59.6907 5.86232 3.67314 0
M  V30 7219 H 58.8227 7.84412 2.24479 0
M  V30 7220 P 54.8597 8.7635 1.60911 0
M  V30 7221 O 54.6397 10.1388 1.11561 0
M  V30 7222 O 54.0697 8.36503 2.79617 0
M  V30 7223 O 54.6097 7.71806 0.42951 0
M  V30 7224 C 55.5497 7.67148 -0.673689 0
M  V30 7225 C 54.8197 7.33374 -1.95559 0
M  V30 7226 O 54.6097 5.88721 -2.00726 0
M  V30 7227 C 53.4197 7.92526 -2.10483 0
M  V30 7228 O 53.0297 8.02971 -3.47653 0
M  V30 7229 C 52.5397 6.89602 -1.41652 0
M  V30 7230 C 53.2497 5.59201 -1.75185 0
M  V30 7231 N 53.1997 4.58235 -0.662552 0
M  V30 7232 C 53.2797 4.7683 0.704049 0
M  V30 7233 N 53.1997 3.66233 1.39775 0
M  V30 7234 C 53.0597 2.66526 0.431739 0
M  V30 7235 C 52.9297 1.26394 0.575992 0
M  V30 7236 N 52.8097 0.62859 -0.67177 0
M  V30 7237 C 52.8097 1.27134 -1.89385 0
M  V30 7238 N 52.6797 0.492035 -2.96951 0
M  V30 7239 N 52.9397 2.58978 -2.02907 0
M  V30 7240 C 53.0597 3.22433 -0.832218 0
M  V30 7241 H 56.0387 8.65116 -0.777161 0
M  V30 7242 H 56.3107 6.90173 -0.474152 0
M  V30 7243 H 55.4427 7.66548 -2.79458 0
M  V30 7244 P 51.4797 8.03563 -3.84925 0
M  V30 7245 O 51.2597 8.85821 -5.0569 0
M  V30 7246 O 50.6897 8.41101 -2.65469 0
M  V30 7247 O 51.2297 6.4965 -4.18908 0
M  V30 7248 C 52.1697 5.80886 -5.05289 0
M  V30 7249 C 51.4397 4.78366 -5.89277 0
M  V30 7250 O 51.2297 3.58302 -5.08433 0
M  V30 7251 C 50.0397 5.16748 -6.36559 0
M  V30 7252 O 49.6497 4.45271 -7.53232 0
M  V30 7253 C 49.1597 4.74572 -5.19863 0
M  V30 7254 C 49.8697 3.49373 -4.70338 0
M  V30 7255 N 49.8197 3.31704 -3.22876 0
M  V30 7256 C 49.6697 2.03326 -2.74871 0
M  V30 7257 O 49.5797 1.06486 -3.48076 0
M  V30 7258 N 49.6297 1.91838 -1.37456 0
M  V30 7259 C 49.7197 2.94295 -0.462035 0
M  V30 7260 O 49.6697 2.71763 0.752928 0
M  V30 7261 C 49.8697 4.25064 -1.05249 0
M  V30 7262 C 49.9797 5.39815 -0.095697 0
M  V30 7263 C 49.9197 4.40214 -2.39192 0
M  V30 7264 H 52.6607 6.54063 -5.71245 0
M  V30 7265 H 52.9297 5.30339 -4.43905 0
M  V30 7266 H 52.0627 4.55889 -6.76652 0
M  V30 7267 H 49.4077 2.6167 -5.17842 0
M  V30 7268 H 49.1287 5.52155 -4.41878 0
M  V30 7269 H 48.1367 4.51918 -5.53297 0
M  V30 7270 H 49.9707 6.25055 -6.55162 0
M  V30 7271 H 50.0417 5.39798 -2.81523 0
M  V30 7272 H 49.0117 5.91593 -0.0279582 0
M  V30 7273 H 50.7487 6.10038 -0.450573 0
M  V30 7274 H 50.2607 5.02007 0.89937 0
M  V30 7275 H 49.5247 0.995326 -1.00435 0
M  V30 7276 P 48.0997 4.23843 -7.83734 0
M  V30 7277 O 47.8797 4.19407 -9.29784 0
M  V30 7278 O 47.3097 5.24426 -7.09156 0
M  V30 7279 O 47.8497 2.7935 -7.20758 0
M  V30 7280 C 48.7897 1.7299 -7.50419 0
M  V30 7281 C 48.0597 0.406376 -7.57911 0
M  V30 7282 O 47.8497 -0.0897726 -6.21935 0
M  V30 7283 C 46.6597 0.447224 -8.1878 0
M  V30 7284 O 46.2697 -0.825065 -8.71101 0
M  V30 7285 C 45.7797 0.783801 -6.99623 0
M  V30 7286 C 46.4897 0.0619192 -5.85967 0
M  V30 7287 N 46.4397 0.7859 -4.56281 0
M  V30 7288 H 49.2787 1.93423 -8.4679 0
M  V30 7289 H 49.5507 1.68181 -6.71046 0
M  V30 7290 H 48.6827 -0.289041 -8.15388 0
M  V30 7291 P 44.7198 -1.17771 -8.83182 0
M  V30 7292 O 44.4998 -2.07206 -9.98732 0
M  V30 7293 O 43.9298 0.0743816 -8.81969 0
M  V30 7294 O 44.4698 -1.97652 -7.47304 0
M  V30 7295 C 45.4098 -3.01133 -7.08783 0
M  V30 7296 C 44.6798 -4.12613 -6.37049 0
M  V30 7297 O 44.4698 -3.72827 -4.97879 0
M  V30 7298 C 43.2798 -4.45085 -6.88694 0
M  V30 7299 O 42.8898 -5.7877 -6.5624 0
M  V30 7300 C 42.3998 -3.47817 -6.12078 0
M  V30 7301 C 43.1098 -3.39414 -4.77697 0
M  V30 7302 N 43.0598 -2.04615 -4.15333 0
M  V30 7303 C 43.1398 -0.803897 -4.75249 0
M  V30 7304 N 43.0598 0.197615 -3.91502 0
M  V30 7305 C 42.9198 -0.413002 -2.66823 0
M  V30 7306 C 42.7898 0.157221 -1.38007 0
M  V30 7307 N 42.6698 -0.833136 -0.390236 0
M  V30 7308 C 42.6698 -2.19402 -0.623885 0
M  V30 7309 N 42.5398 -2.97622 0.449677 0
M  V30 7310 N 42.7998 -2.73005 -1.83601 0
M  V30 7311 C 42.9198 -1.78786 -2.80935 0
M  V30 7312 H 45.8988 -3.41248 -7.98759 0
M  V30 7313 H 46.1708 -2.5837 -6.41742 0
M  V30 7314 H 45.3028 -5.02657 -6.42673 0
M  V30 7315 P 41.3398 -6.144 -6.45285 0
M  V30 7316 O 41.1198 -7.54673 -6.86199 0
M  V30 7317 O 40.5498 -5.12391 -7.179 0
M  V30 7318 O 41.0898 -5.99158 -4.88404 0
M  V30 7319 C 42.0298 -6.60234 -3.96415 0
M  V30 7320 C 41.2998 -7.08259 -2.72856 0
M  V30 7321 O 41.0898 -5.9427 -1.83651 0
M  V30 7322 C 39.8998 -7.64886 -2.9555 0
M  V30 7323 O 39.5098 -8.53963 -1.90717 0
M  V30 7324 C 39.0198 -6.4116 -2.90739 0
M  V30 7325 C 39.7298 -5.55375 -1.86963 0
M  V30 7326 N 39.6798 -4.09664 -2.15742 0
M  V30 7327 H 42.5188 -7.45574 -4.45629 0
M  V30 7328 H 42.7908 -5.86232 -3.67314 0
M  V30 7329 H 41.9228 -7.84412 -2.24479 0
M  V30 7330 P 37.9598 -8.7635 -1.60911 0
M  V30 7331 O 37.7398 -10.1388 -1.11561 0
M  V30 7332 O 37.1698 -8.36503 -2.79617 0
M  V30 7333 O 37.7098 -7.71806 -0.42951 0
M  V30 7334 C 38.6498 -7.67148 0.673689 0
M  V30 7335 C 37.9198 -7.33374 1.95559 0
M  V30 7336 O 37.7098 -5.88721 2.00726 0
M  V30 7337 C 36.5198 -7.92526 2.10483 0
M  V30 7338 O 36.1298 -8.02971 3.47653 0
M  V30 7339 C 35.6398 -6.89602 1.41652 0
M  V30 7340 C 36.3498 -5.59201 1.75185 0
M  V30 7341 N 36.2998 -4.58235 0.662552 0
M  V30 7342 H 39.1388 -8.65116 0.777161 0
M  V30 7343 H 39.4108 -6.90173 0.474152 0
M  V30 7344 H 38.5428 -7.66548 2.79458 0
M  V30 7345 P 34.5798 -8.03563 3.84925 0
M  V30 7346 O 34.3598 -8.85821 5.0569 0
M  V30 7347 O 33.7898 -8.41101 2.65469 0
M  V30 7348 O 34.3298 -6.4965 4.18908 0
M  V30 7349 C 35.2698 -5.81037 5.05421 0
M  V30 7350 C 34.5398 -4.78366 5.89277 0
M  V30 7351 O 34.3298 -3.58302 5.08433 0
M  V30 7352 C 33.1398 -5.17448 6.36119 0
M  V30 7353 O 32.7498 -4.45271 7.53232 0
M  V30 7354 C 32.2598 -4.74639 5.19936 0
M  V30 7355 C 32.9698 -3.49432 4.70418 0
M  V30 7356 N 32.9198 -3.32099 3.22613 0
M  V30 7357 H 35.7588 -6.54213 5.71376 0
M  V30 7358 H 36.0308 -5.30936 4.43503 0
M  V30 7359 H 35.1628 -4.55889 6.76652 0
M  V30 7360 H 32.5078 -2.61715 5.17932 0
M  V30 7361 H 32.2278 -5.52155 4.41878 0
M  V30 7362 H 31.2368 -4.51981 5.53374 0
M  V30 7363 H 33.0708 -6.25124 6.55234 0
M  V30 7364 P 31.1998 -4.23843 7.83734 0
M  V30 7365 O 30.9798 -4.19407 9.29784 0
M  V30 7366 O 30.4098 -5.24426 7.09156 0
M  V30 7367 O 30.9498 -2.7935 7.20758 0
M  V30 7368 C 31.8898 -1.7299 7.50419 0
M  V30 7369 C 31.1598 -0.406376 7.57911 0
M  V30 7370 O 30.9498 0.0897726 6.21935 0
M  V30 7371 C 29.7598 -0.447224 8.1878 0
M  V30 7372 O 29.3698 0.825065 8.71101 0
M  V30 7373 C 28.8798 -0.783801 6.99623 0
M  V30 7374 C 29.5898 -0.0619192 5.85967 0
M  V30 7375 N 29.5398 -0.7859 4.56281 0
M  V30 7376 H 32.3788 -1.93423 8.4679 0
M  V30 7377 H 32.6508 -1.68181 6.71046 0
M  V30 7378 H 31.7828 0.289041 8.15388 0
M  V30 7379 P 27.8199 1.17771 8.83182 0
M  V30 7380 O 27.5999 2.07206 9.98732 0
M  V30 7381 O 27.0299 -0.0743816 8.81969 0
M  V30 7382 O 27.5699 1.97652 7.47304 0
M  V30 7383 C 28.5099 3.01133 7.08783 0
M  V30 7384 C 27.7799 4.12613 6.37049 0
M  V30 7385 O 27.5699 3.72827 4.97879 0
M  V30 7386 C 26.3799 4.45085 6.88694 0
M  V30 7387 O 25.9899 5.7877 6.5624 0
M  V30 7388 C 25.4999 3.47817 6.12078 0
M  V30 7389 C 26.2099 3.39414 4.77697 0
M  V30 7390 N 26.1599 2.04199 4.15538 0
M  V30 7391 H 28.9989 3.41248 7.98759 0
M  V30 7392 H 29.2709 2.57728 6.42 0
M  V30 7393 H 28.4029 5.02657 6.42673 0
M  V30 7394 H 25.7479 4.11708 4.08956 0
M  V30 7395 H 25.4679 2.49626 6.61679 0
M  V30 7396 H 24.4769 3.8662 6.00862 0
M  V30 7397 H 26.3109 4.29991 7.97006 0
M  V30 7398 P 24.4399 6.144 6.45285 0
M  V30 7399 O 24.2199 7.54673 6.86199 0
M  V30 7400 O 23.6499 5.12391 7.179 0
M  V30 7401 O 24.1899 5.99158 4.88404 0
M  V30 7402 C 25.1299 6.60234 3.96415 0
M  V30 7403 C 24.3999 7.08259 2.72856 0
M  V30 7404 O 24.1899 5.9427 1.83651 0
M  V30 7405 C 22.9999 7.64886 2.9555 0
M  V30 7406 O 22.6099 8.53963 1.90717 0
M  V30 7407 C 22.1199 6.4116 2.90739 0
M  V30 7408 C 22.8299 5.55375 1.86963 0
M  V30 7409 N 22.7799 4.09664 2.15742 0
M  V30 7410 H 25.6189 7.45574 4.45629 0
M  V30 7411 H 25.8909 5.86232 3.67314 0
M  V30 7412 H 25.0229 7.84412 2.24479 0
M  V30 7413 P 21.0599 8.7635 1.60911 0
M  V30 7414 O 20.8399 10.1388 1.11561 0
M  V30 7415 O 20.2699 8.36503 2.79617 0
M  V30 7416 O 20.8099 7.71806 0.42951 0
M  V30 7417 C 21.7499 7.67148 -0.673689 0
M  V30 7418 C 21.0199 7.33374 -1.95559 0
M  V30 7419 O 20.8099 5.88721 -2.00726 0
M  V30 7420 C 19.6199 7.92526 -2.10483 0
M  V30 7421 O 19.2299 8.02971 -3.47653 0
M  V30 7422 C 18.7399 6.89602 -1.41652 0
M  V30 7423 C 19.4499 5.59201 -1.75185 0
M  V30 7424 N 19.3999 4.58235 -0.662552 0
M  V30 7425 H 22.2389 8.65116 -0.777161 0
M  V30 7426 H 22.5109 6.90173 -0.474152 0
M  V30 7427 H 21.6429 7.66548 -2.79458 0
M  V30 7428 P 17.6799 8.03563 -3.84925 0
M  V30 7429 O 17.4599 8.85821 -5.0569 0
M  V30 7430 O 16.8899 8.41101 -2.65469 0
M  V30 7431 O 17.4299 6.49734 -4.18962 0
M  V30 7432 C 18.3699 5.81037 -5.05421 0
M  V30 7433 C 17.6399 4.79018 -5.88876 0
M  V30 7434 O 17.4299 3.58359 -5.08515 0
M  V30 7435 C 16.2399 5.17448 -6.36119 0
M  V30 7436 O 15.8499 4.45322 -7.53318 0
M  V30 7437 C 15.3599 4.74639 -5.19936 0
M  V30 7438 C 16.0699 3.49432 -4.70418 0
M  V30 7439 N 16.0199 3.31776 -3.22945 0
M  V30 7440 C 15.8699 2.02742 -2.72939 0
M  V30 7441 O 15.7799 1.08301 -3.52749 0
M  V30 7442 N 15.8199 1.96117 -1.22063 0
M  V30 7443 C 15.9199 2.8878 -0.551566 0
M  V30 7444 N 15.8699 2.65609 0.750198 0
M  V30 7445 C 16.0699 4.22457 -1.03707 0
M  V30 7446 C 16.1199 4.37979 -2.39113 0
M  V30 7447 H 18.8599 6.54138 -5.7131 0
M  V30 7448 H 19.1299 5.30492 -4.44033 0
M  V30 7449 H 18.2629 4.55945 -6.76735 0
M  V30 7450 H 15.6079 2.6176 -5.18021 0
M  V30 7451 H 15.3279 5.52233 -4.41941 0
M  V30 7452 H 14.3369 4.52045 -5.53452 0
M  V30 7453 H 16.1709 6.25124 -6.55234 0
M  V30 7454 H 16.2429 5.37936 -2.80552 0
M  V30 7455 H 16.1409 5.07528 -0.359553 0
M  V30 7456 H 15.7529 1.69403 1.09847 0
M  V30 7457 H 15.9489 3.43701 1.41792 0
M  V30 7458 P 14.2999 4.23843 -7.83734 0
M  V30 7459 O 14.0799 4.19407 -9.29784 0
M  V30 7460 O 13.5099 5.24426 -7.09156 0
M  V30 7461 O 14.0499 2.7935 -7.20758 0
M  V30 7462 C 14.9899 1.7299 -7.50419 0
M  V30 7463 C 14.2599 0.406376 -7.57911 0
M  V30 7464 O 14.0499 -0.0897726 -6.21935 0
M  V30 7465 C 12.8599 0.447224 -8.1878 0
M  V30 7466 O 12.4699 -0.825065 -8.71101 0
M  V30 7467 C 11.9799 0.783801 -6.99623 0
M  V30 7468 C 12.6899 0.0619192 -5.85967 0
M  V30 7469 N 12.6399 0.7859 -4.56281 0
M  V30 7470 C 12.7199 2.14308 -4.31736 0
M  V30 7471 N 12.6399 2.46106 -3.05116 0
M  V30 7472 C 12.4999 1.23422 -2.4014 0
M  V30 7473 C 12.3699 0.938381 -1.02409 0
M  V30 7474 O 12.3499 1.70876 -0.0650402 0
M  V30 7475 N 12.2499 -0.444647 -0.805413 0
M  V30 7476 C 12.2499 -1.40829 -1.79435 0
M  V30 7477 N 12.1199 -2.67213 -1.38558 0
M  V30 7478 N 12.3799 -1.12947 -3.09005 0
M  V30 7479 C 12.4999 0.204887 -3.32369 0
M  V30 7480 H 15.4789 1.93423 -8.4679 0
M  V30 7481 H 15.7509 1.68181 -6.71046 0
M  V30 7482 H 14.8829 -0.289041 -8.15388 0
M  V30 7483 H 12.2279 -0.927166 -5.72947 0
M  V30 7484 H 11.9479 1.87 -6.82132 0
M  V30 7485 H 10.9569 0.404009 -7.13457 0
M  V30 7486 H 12.7909 1.20612 -8.97633 0
M  V30 7487 H 12.8399 2.88284 -5.10874 0
M  V30 7488 H 12.1579 -0.755087 0.140242 0
M  V30 7489 H 12.1209 -3.43967 -2.0729 0
M  V30 7490 H 12.0199 -2.88096 -0.380644 0
M  V30 7491 P 10.92 -1.17771 -8.83182 0
M  V30 7492 O 10.7 -2.07206 -9.98732 0
M  V30 7493 O 10.13 0.0743816 -8.81969 0
M  V30 7494 O 10.67 -1.97652 -7.47304 0
M  V30 7495 C 11.61 -3.01055 -7.08599 0
M  V30 7496 C 10.88 -4.12613 -6.37049 0
M  V30 7497 O 10.67 -3.72827 -4.97879 0
M  V30 7498 C 9.47996 -4.45719 -6.88164 0
M  V30 7499 O 9.08996 -5.7877 -6.5624 0
M  V30 7500 C 8.59996 -3.47768 -6.11991 0
M  V30 7501 C 9.30996 -3.39356 -4.77615 0
M  V30 7502 N 9.25996 -2.04571 -4.15244 0
M  V30 7503 C 9.10996 -1.98587 -2.78314 0
M  V30 7504 O 9.01996 -2.98134 -2.08835 0
M  V30 7505 N 9.06996 -0.714467 -2.24925 0
M  V30 7506 C 9.15996 0.470001 -2.94169 0
M  V30 7507 C 9.30996 0.312541 -4.36783 0
M  V30 7508 C 9.35996 -0.914512 -4.92583 0
M  V30 7509 H 12.101 -3.41169 -7.98575 0
M  V30 7510 H 12.37 -2.58295 -6.41556 0
M  V30 7511 H 11.503 -5.02657 -6.42673 0
M  V30 7512 H 8.84796 -4.11637 -4.08885 0
M  V30 7513 H 8.56896 -2.49626 -6.61679 0
M  V30 7514 H 7.57696 -3.86566 -6.00778 0
M  V30 7515 H 9.41096 -4.29943 -7.96918 0
M  V30 7516 H 9.48196 -1.00937 -6.00374 0
M  V30 7517 P 7.53998 -6.144 -6.45285 0
M  V30 7518 O 7.31998 -7.54673 -6.86199 0
M  V30 7519 O 6.74998 -5.12391 -7.179 0
M  V30 7520 O 7.28998 -5.99158 -4.88404 0
M  V30 7521 C 8.22998 -6.60234 -3.96415 0
M  V30 7522 C 7.49998 -7.08259 -2.72856 0
M  V30 7523 O 7.28998 -5.9427 -1.83651 0
M  V30 7524 C 6.09998 -7.64886 -2.9555 0
M  V30 7525 O 5.70998 -8.53963 -1.90717 0
M  V30 7526 C 5.21998 -6.4116 -2.90739 0
M  V30 7527 C 5.92998 -5.55375 -1.86963 0
M  V30 7528 N 5.87998 -4.09664 -2.15742 0
M  V30 7529 H 8.71898 -7.45574 -4.45629 0
M  V30 7530 H 8.99098 -5.86232 -3.67314 0
M  V30 7531 H 8.12298 -7.84412 -2.24479 0
M  V30 7532 P 4.16 -8.7635 -1.60911 0
M  V30 7533 O 3.94 -10.1388 -1.11561 0
M  V30 7534 O 3.37 -8.36503 -2.79617 0
M  V30 7535 O 3.91 -7.71806 -0.42951 0
M  V30 7536 C 4.85 -7.67148 0.673689 0
M  V30 7537 C 4.12 -7.33374 1.95559 0
M  V30 7538 O 3.91 -5.88721 2.00726 0
M  V30 7539 C 2.72 -7.92526 2.10483 0
M  V30 7540 O 2.33 -8.02971 3.47653 0
M  V30 7541 C 1.84 -6.89602 1.41652 0
M  V30 7542 C 2.55 -5.59201 1.75185 0
M  V30 7543 N 2.5 -4.58235 0.662552 0
M  V30 7544 H 5.339 -8.65116 0.777161 0
M  V30 7545 H 5.611 -6.90173 0.474152 0
M  V30 7546 H 4.743 -7.66548 2.79458 0
M  V30 7547 H 1.613 -8.66322 3.55694 0
M  V30 END ATOM
M  V30 BEGIN BOND
M  V30 END BOND
M  V30 END CTAB
M  END
$$$$
