drugbank_target|P05120 Plasminogen activator inhibitor 2 (DB00013; DB00031; DB06245)
 OpenBabel12092119443D

  0  0  0     0  0            999 V3000
M  V30 BEGIN CTAB
M  V30 COUNTS 6496 6566 0 0 0
M  V30 BEGIN ATOM
M  V30 1 H -0.908 1.98254 -0.117106 0
M  V30 2 N 0 1.576 0 0
M  V30 3 C 0.933 2.03868 1.02534 0
M  V30 4 C 1.911 0.928543 1.3348 0
M  V30 5 O 3.095 1.19667 1.45644 0
M  V30 6 C 0.222 2.43627 2.35294 0
M  V30 7 C -0.732 3.65373 2.2001 0
M  V30 8 S 0.101 5.13292 1.52614 0
M  V30 9 C 1.257 5.56322 2.86805 0
M  V30 10 H 1.49 2.90518 0.631377 0
M  V30 11 H -0.977 1.52953 0.210867 0
M  V30 12 H 0.981 2.67203 3.11629 0
M  V30 13 H -0.358 1.57376 2.7183 0
M  V30 14 H -1.165 3.90944 3.18086 0
M  V30 15 H -1.563 3.418 1.51819 0
M  V30 16 H 0.729 5.58782 3.83104 0
M  V30 17 H 1.672 6.56266 2.65933 0
M  V30 18 H 2.08 4.83886 2.90714 0
M  V30 19 N 1.4781 -0.272755 1.55222 0
M  V30 20 C 2.3881 -1.35918 1.91216 0
M  V30 21 C 3.4041 -1.54026 0.809436 0
M  V30 22 O 4.5801 -1.68148 1.10852 0
M  V30 23 C 1.6451 -2.69834 2.17693 0
M  V30 24 C 0.7061 -2.6047 3.41253 0
M  V30 25 C -0.0609 -3.88 3.66458 0
M  V30 26 O 0.1621 -4.88693 2.94169 0
M  V30 27 O -0.9039 -3.88189 4.59992 0
M  V30 28 H 2.9221 -1.0839 2.83699 0
M  V30 29 H 0.5071 -0.471301 1.41771 0
M  V30 30 H 2.3891 -3.49017 2.36147 0
M  V30 31 H 1.0641 -2.97148 1.28392 0
M  V30 32 H -0.0289 -1.79663 3.28134 0
M  V30 33 H 1.3041 -2.38106 4.30774 0
M  V30 34 N 2.9562 -1.48159 -0.537278 0
M  V30 35 C 4.2332 -1.46291 -1.29839 0
M  V30 36 C 4.6132 -0.170613 -2.10409 0
M  V30 37 O 3.9612 0.847746 -2.12192 0
M  V30 38 C 4.1712 -2.72055 -2.18603 0
M  V30 39 C 5.5192 -3.20087 -2.7898 0
M  V30 40 O 6.5432 -2.72921 -2.28894 0
M  V30 41 O 5.4022 -4.02138 -3.70064 0
M  V30 42 H 2.4962 -0.583906 -0.585647 0
M  V30 43 H 5.0422 -1.60384 -0.554534 0
M  V30 44 H 3.8142 -3.57628 -1.58801 0
M  V30 45 H 3.4372 -2.60646 -3.00249 0
M  V30 46 N 4.4343 0.785586 -1.36625 0
M  V30 47 C 5.3643 1.91259 -1.33949 0
M  V30 48 C 6.3453 1.68795 -0.210325 0
M  V30 49 O 7.5303 1.89854 -0.408561 0
M  V30 50 C 4.6603 3.28339 -1.13186 0
M  V30 51 C 3.6143 3.65335 -2.22967 0
M  V30 52 C 2.9403 5.00806 -1.87342 0
M  V30 53 C 4.2403 3.7352 -3.65075 0
M  V30 54 H 5.9343 1.93755 -2.28253 0
M  V30 55 H 3.4803 0.930788 -1.09874 0
M  V30 56 H 5.4333 4.06804 -1.09948 0
M  V30 57 H 4.1573 3.2624 -0.153332 0
M  V30 58 H 2.8163 2.89169 -2.25337 0
M  V30 59 H 2.4643 4.95233 -0.880545 0
M  V30 60 H 2.1643 5.26529 -2.60846 0
M  V30 61 H 3.6883 5.81687 -1.85667 0
M  V30 62 H 5.1023 4.42168 -3.64911 0
M  V30 63 H 3.4993 4.10731 -4.37516 0
M  V30 64 H 4.5693 2.74527 -3.99703 0
M  V30 65 N 5.9124 1.20967 1.01018 0
M  V30 66 C 7.1524 1.03511 1.76252 0
M  V30 67 C 7.5164 -0.42458 1.87247 0
M  V30 68 O 8.7174 -0.719508 2.58991 0
M  V30 69 C 6.9884 1.70726 3.13986 0
M  V30 70 S 8.5474 1.68458 4.05176 0
M  V30 71 H 5.3654 0.371037 0.606508 0
M  V30 72 H 7.9674 1.53628 1.20908 0
M  V30 73 H 6.6714 2.76128 3.03614 0
M  V30 74 H 6.2024 1.20767 3.74405 0
M  V30 75 H 8.2174 0.721987 4.90919 0
M  V30 76 N 7.3905 -1.2043 1.01659 0
M  V30 77 C 8.6365 -1.90079 0.706963 0
M  V30 78 C 8.9695 -1.78648 -0.761474 0
M  V30 79 O 8.2445 -1.17069 -1.55323 0
M  V30 80 C 8.5275 -3.41469 1.14327 0
M  V30 81 C 8.3805 -3.61833 2.67201 0
M  V30 82 C 9.6995 -4.34261 0.714529 0
M  V30 83 H 6.8185 -0.690254 0.2583 0
M  V30 84 H 9.4605 -1.41826 1.26433 0
M  V30 85 H 7.6105 -3.82696 0.669056 0
M  V30 86 H 9.2825 -3.2986 3.22475 0
M  V30 87 H 7.5255 -3.05304 3.08175 0
M  V30 88 H 8.1965 -4.67955 2.92783 0
M  V30 89 H 10.6725 -4.00682 1.12221 0
M  V30 90 H 9.5485 -5.38806 1.04784 0
M  V30 91 H 9.8095 -4.40431 -0.383799 0
M  V30 92 N 8.8686 -0.792821 -1.36206 0
M  V30 93 C 9.8316 -0.199459 -2.2833 0
M  V30 94 C 10.8316 0.605189 -1.48977 0
M  V30 95 O 12.0216 0.425685 -1.68919 0
M  V30 96 C 9.1536 0.723523 -3.33134 0
M  V30 97 H 10.3466 -1.01181 -2.82316 0
M  V30 98 H 7.8996 -0.562485 -1.45828 0
M  V30 99 H 8.6346 1.56008 -2.84309 0
M  V30 100 H 8.4196 0.148436 -3.91819 0
M  V30 101 H 9.9096 1.13344 -4.01924 0
M  V30 102 N 10.3467 1.47872 -0.545128 0
M  V30 103 C 11.2947 2.31533 0.222512 0
M  V30 104 C 12.2887 1.42177 0.920985 0
M  V30 105 O 13.4947 1.59005 0.843645 0
M  V30 106 H 9.8697 0.746519 0.0906278 0
M  V30 107 H 11.8407 2.94139 -0.50246 0
M  V30 108 C 10.5897 3.2457 1.24699 0
M  V30 109 H 9.9127 3.93283 0.718944 0
M  V30 110 H 11.3527 3.85963 1.75523 0
M  V30 111 C 9.8117 2.47237 2.28856 0
M  V30 112 O 10.3417 2.20808 3.35569 0
M  V30 113 N 8.5477 2.08461 2.02466 0
M  V30 114 H 8.0947 2.30155 1.157 0
M  V30 115 H 8.0527 1.57033 2.72375 0
M  V30 116 N 11.8248 0.280983 1.55075 0
M  V30 117 C 13.0528 -0.337293 2.04132 0
M  V30 118 C 13.4678 -1.4903 1.15912 0
M  V30 119 O 12.8248 -1.81606 0.180459 0
M  V30 120 C 12.8758 -0.812706 3.52246 0
M  V30 121 O 12.5968 0.294387 4.3711 0
M  V30 122 C 14.0978 -1.4982 4.17216 0
M  V30 123 H 11.3178 -0.0761638 0.666663 0
M  V30 124 H 13.8618 0.414787 2.00249 0
M  V30 125 H 12.0168 -1.51486 3.56554 0
M  V30 126 H 12.4308 -0.0721325 5.2445 0
M  V30 127 H 13.9048 -1.7822 5.22438 0
M  V30 128 H 14.3818 -2.43168 3.65741 0
M  V30 129 H 14.9878 -0.839742 4.16927 0
M  V30 130 N 13.3029 -1.57598 0.00835791 0
M  V30 131 C 14.2329 -2.1198 -0.979113 0
M  V30 132 C 15.2139 -1.03091 -1.35301 0
M  V30 133 O 16.3989 -1.30818 -1.43528 0
M  V30 134 C 13.5289 -2.62995 -2.26828 0
M  V30 135 C 12.4829 -3.76485 -2.03576 0
M  V30 136 C 11.8089 -4.13846 -3.38579 0
M  V30 137 C 13.1089 -5.0342 -1.39161 0
M  V30 138 H 14.8029 -2.94738 -0.526281 0
M  V30 139 H 12.3489 -1.41783 -0.251704 0
M  V30 140 H 14.3019 -2.99669 -2.96271 0
M  V30 141 H 13.0259 -1.7737 -2.7424 0
M  V30 142 H 11.6849 -3.40217 -1.36557 0
M  V30 143 H 11.3329 -3.25232 -3.83709 0
M  V30 144 H 11.0329 -4.90312 -3.23834 0
M  V30 145 H 12.5569 -4.53086 -4.09323 0
M  V30 146 H 13.9709 -5.37812 -1.98573 0
M  V30 147 H 12.3679 -5.84746 -1.34878 0
M  V30 148 H 13.4379 -4.83548 -0.361868 0
M  V30 149 N 14.781 0.264519 -1.55364 0
M  V30 150 C 16.028 0.994986 -1.7637 0
M  V30 151 C 16.356 1.85976 -0.5695 0
M  V30 152 O 15.611 1.90509 0.44776 0
M  V30 153 C 15.91 1.9004 -3.02687 0
M  V30 154 C 15.576 1.19243 -4.34847 0
M  V30 155 C 14.238 0.996709 -4.70764 0
M  V30 156 C 16.59 0.689296 -5.16622 0
M  V30 157 C 13.918 0.285261 -5.86006 0
M  V30 158 C 16.27 -0.00860079 -6.32599 0
M  V30 159 C 14.934 -0.215963 -6.67151 0
M  V30 160 H 14.204 0.364091 -0.645383 0
M  V30 161 H 16.851 0.266543 -1.89636 0
M  V30 162 H 15.156 2.69533 -2.84357 0
M  V30 163 H 16.853 2.46695 -3.16137 0
M  V30 164 H 13.443 1.3549 -4.06621 0
M  V30 165 H 17.627 0.828108 -4.89342 0
M  V30 166 H 12.883 0.113961 -6.11294 0
M  V30 167 H 17.057 -0.406186 -6.95214 0
M  V30 168 H 14.684 -0.769217 -7.56298 0
M  V30 169 N 16.2591 1.48442 0.529413 0
M  V30 170 C 17.2221 1.62524 1.61612 0
M  V30 171 C 18.2221 0.498509 1.52877 0
M  V30 172 O 19.4121 0.76431 1.56537 0
M  V30 173 C 16.5441 1.59597 3.01233 0
M  V30 174 H 17.7371 2.59423 1.50465 0
M  V30 175 H 15.2901 1.37047 0.751514 0
M  V30 176 H 16.0251 0.641781 3.17886 0
M  V30 177 H 15.8101 2.41397 3.08982 0
M  V30 178 H 17.3001 1.72646 3.80241 0
M  V30 179 N 17.7372 -0.778329 1.37039 0
M  V30 180 C 18.6672 -1.90546 1.34962 0
M  V30 181 C 19.6482 -1.68681 0.219274 0
M  V30 182 O 20.8332 -1.89634 0.418624 0
M  V30 183 C 17.9632 -3.27734 1.14925 0
M  V30 184 C 16.9172 -3.64147 2.24902 0
M  V30 185 C 16.2432 -4.99806 1.89996 0
M  V30 186 C 17.5432 -3.71579 3.67051 0
M  V30 187 H 19.2372 -1.92541 2.29277 0
M  V30 188 H 16.7832 -0.924948 1.10366 0
M  V30 189 H 18.7362 -4.06215 1.12104 0
M  V30 190 H 17.4602 -3.26154 0.170631 0
M  V30 191 H 16.1192 -2.8797 2.26868 0
M  V30 192 H 15.7672 -4.94759 0.906796 0
M  V30 193 H 15.4672 -5.25139 2.63634 0
M  V30 194 H 16.9912 -5.80694 1.88749 0
M  V30 195 H 18.4052 -4.40227 3.67251 0
M  V30 196 H 16.8022 -4.08405 4.39688 0
M  V30 197 H 17.8722 -2.72404 4.01154 0
M  V30 198 N 19.2153 -1.21501 -1.00376 0
M  V30 199 C 20.1633 -0.972442 -2.11297 0
M  V30 200 C 21.1573 0.080731 -1.69208 0
M  V30 201 O 22.3633 -0.0707666 -1.79861 0
M  V30 202 H 18.7383 -0.297218 -0.690772 0
M  V30 203 H 20.7093 -1.91394 -2.28934 0
M  V30 204 C 19.4583 -0.555065 -3.43241 0
M  V30 205 H 18.7813 -1.35709 -3.76062 0
M  V30 206 H 20.2213 -0.424664 -4.21868 0
M  V30 207 C 18.6803 0.734147 -3.28804 0
M  V30 208 O 19.2103 1.78937 -3.59645 0
M  V30 209 N 17.4163 0.701133 -2.82015 0
M  V30 210 H 16.9633 -0.157874 -2.57116 0
M  V30 211 H 16.9213 1.56403 -2.72737 0
M  V30 212 N 20.6934 1.19889 -1.02296 0
M  V30 213 C 21.6234 2.25141 -0.619174 0
M  V30 214 C 22.6044 1.66051 0.368915 0
M  V30 215 O 23.7894 1.92546 0.252941 0
M  V30 216 C 20.9194 3.4728 0.0368783 0
M  V30 217 C 19.8734 4.19005 -0.872865 0
M  V30 218 C 19.1994 5.34637 -0.0822402 0
M  V30 219 C 20.4994 4.74452 -2.18387 0
M  V30 220 H 22.1934 2.59171 -1.49903 0
M  V30 221 H 19.7394 1.24579 -0.722222 0
M  V30 222 H 21.6924 4.20098 0.330958 0
M  V30 223 H 20.4164 3.12433 0.95149 0
M  V30 224 H 19.0754 3.48061 -1.15105 0
M  V30 225 H 18.7234 4.96034 0.83422 0
M  V30 226 H 18.4234 5.83557 -0.688149 0
M  V30 227 H 19.9474 6.10255 0.205238 0
M  V30 228 H 21.3614 5.39055 -1.95172 0
M  V30 229 H 19.7584 5.33834 -2.74119 0
M  V30 230 H 20.8284 3.92844 -2.84257 0
M  V30 231 N 22.1715 0.800033 1.35784 0
M  V30 232 C 23.4185 0.377342 1.98953 0
M  V30 233 C 23.7465 -1.05378 1.6348 0
M  V30 234 O 23.0015 -1.74459 0.886707 0
M  V30 235 C 23.3005 0.500276 3.53881 0
M  V30 236 C 22.9665 1.89375 4.09204 0
M  V30 237 C 21.6285 2.27499 4.24025 0
M  V30 238 C 23.9805 2.8057 4.39238 0
M  V30 239 C 21.3085 3.562 4.66195 0
M  V30 240 C 23.6605 4.0871 4.82844 0
M  V30 241 C 22.3245 4.46843 4.95871 0
M  V30 242 H 21.5945 0.138079 0.728021 0
M  V30 243 H 24.2415 1.01955 1.62103 0
M  V30 244 H 22.5465 -0.225405 3.91151 0
M  V30 245 H 24.2435 0.154097 4.00704 0
M  V30 246 H 20.8335 1.58753 3.98115 0
M  V30 247 H 25.0175 2.52367 4.27346 0
M  V30 248 H 20.2735 3.85602 4.74469 0
M  V30 249 H 24.4475 4.79481 5.05046 0
M  V30 250 H 22.0745 5.46623 5.28306 0
M  V30 251 N 23.6496 -1.47581 0.552962 0
M  V30 252 C 24.5966 -2.29957 -0.197108 0
M  V30 253 C 25.5666 -1.38799 -0.912359 0
M  V30 254 O 26.7516 -1.67761 -0.908888 0
M  V30 255 C 23.8916 -3.22672 -1.22379 0
M  V30 256 C 23.0046 -4.28919 -0.515038 0
M  V30 257 C 22.1396 -5.0879 -1.52664 0
M  V30 258 C 21.1786 -6.06815 -0.802631 0
M  V30 259 N 20.3156 -6.7966 -1.76086 0
M  V30 260 H 25.1556 -2.93578 0.511486 0
M  V30 261 H 22.6926 -1.4471 0.264067 0
M  V30 262 H 24.6506 -3.74845 -1.83159 0
M  V30 263 H 23.2806 -2.60925 -1.90047 0
M  V30 264 H 22.3326 -3.79835 0.207192 0
M  V30 265 H 23.6446 -4.98773 0.0523425 0
M  V30 266 H 22.7986 -5.65091 -2.20809 0
M  V30 267 H 21.5376 -4.38828 -2.12794 0
M  V30 268 H 20.5426 -5.49695 -0.107238 0
M  V30 269 H 21.7676 -6.78784 -0.207135 0
M  V30 270 H 19.7136 -6.12432 -2.35081 0
M  V30 271 H 19.6306 -7.45669 -1.24552 0
M  V30 272 H 20.8986 -7.40538 -2.43359 0
M  V30 273 N 25.1277 -0.289203 -1.54924 0
M  V30 274 C 26.0777 0.606939 -2.19773 0
M  V30 275 C 27.0617 1.10783 -1.16687 0
M  V30 276 O 28.2537 1.05057 -1.4245 0
M  V30 277 C 25.3827 1.78398 -2.93307 0
M  V30 278 C 24.4687 1.29961 -4.03697 0
M  V30 279 N 24.8597 0.532377 -5.0299 0
M  V30 280 C 23.1577 1.58136 -4.17024 0
M  V30 281 C 23.8587 0.275912 -5.81045 0
M  V30 282 N 22.8347 0.852365 -5.36876 0
M  V30 283 H 26.6367 0.0130779 -2.93897 0
M  V30 284 H 24.1507 -0.09341 -1.62131 0
M  V30 285 H 26.1477 2.43741 -3.38225 0
M  V30 286 H 24.8077 2.38166 -2.20697 0
M  V30 287 H 25.8187 0.17838 -5.17593 0
M  V30 288 H 22.4957 2.18738 -3.55612 0
M  V30 289 H 23.8857 -0.339502 -6.71042 0
M  V30 290 N 26.6058 1.57591 -0.0167156 0
M  V30 291 C 27.5358 2.12496 0.967858 0
M  V30 292 C 28.5168 1.03807 1.34752 0
M  V30 293 O 29.7018 1.31577 1.42833 0
M  V30 294 C 26.8318 2.64194 2.25431 0
M  V30 295 C 25.7858 3.77559 2.01576 0
M  V30 296 C 25.1118 4.15636 3.36379 0
M  V30 297 C 26.4118 5.04151 1.36489 0
M  V30 298 H 28.1058 2.95013 0.510643 0
M  V30 299 H 25.6518 1.41915 0.244181 0
M  V30 300 H 27.6048 3.01236 2.94678 0
M  V30 301 H 26.3288 1.78821 2.73296 0
M  V30 302 H 24.9878 3.40937 1.34751 0
M  V30 303 H 24.6358 3.27263 3.81979 0
M  V30 304 H 24.3358 4.92022 3.21229 0
M  V30 305 H 25.8598 4.5525 4.06915 0
M  V30 306 H 27.2738 5.38857 1.95718 0
M  V30 307 H 25.6708 5.85453 1.31776 0
M  V30 308 H 26.7408 4.83733 0.336219 0
M  V30 309 N 28.0839 -0.256276 1.55502 0
M  V30 310 C 29.0469 -1.30047 1.88734 0
M  V30 311 C 30.0469 -1.4154 0.763086 0
M  V30 312 O 31.2369 -1.40403 1.03115 0
M  V30 313 C 28.3689 -2.67953 2.10747 0
M  V30 314 H 29.5619 -1.01802 2.82093 0
M  V30 315 H 27.1149 -0.495134 1.4825 0
M  V30 316 H 27.8499 -3.01351 1.19825 0
M  V30 317 H 27.6349 -2.60993 2.92617 0
M  V30 318 H 29.1249 -3.43368 2.37673 0
M  V30 319 N 29.562 -1.4872 -0.521534 0
M  V30 320 C 30.509 -1.63871 -1.62527 0
M  V30 321 C 31.479 -0.480559 -1.58996 0
M  V30 322 O 32.664 -0.705085 -1.77294 0
M  V30 323 C 29.804 -1.69227 -3.00759 0
M  V30 324 C 28.917 -2.96207 -3.14461 0
M  V30 325 C 28.052 -2.92671 -4.43303 0
M  V30 326 C 27.091 -4.14318 -4.50563 0
M  V30 327 N 26.228 -4.0881 -5.70805 0
M  V30 328 H 31.068 -2.58123 -1.48918 0
M  V30 329 H 28.605 -1.28 -0.724878 0
M  V30 330 H 30.563 -1.70314 -3.80853 0
M  V30 331 H 29.193 -0.784586 -3.1312 0
M  V30 332 H 28.245 -3.04826 -2.27564 0
M  V30 333 H 29.557 -3.86192 -3.15686 0
M  V30 334 H 28.711 -2.92206 -5.31696 0
M  V30 335 H 27.45 -2.00429 -4.44612 0
M  V30 336 H 26.455 -4.15049 -3.60575 0
M  V30 337 H 27.68 -5.07729 -4.50986 0
M  V30 338 H 25.626 -3.19394 -5.72995 0
M  V30 339 H 25.543 -4.92509 -5.7356 0
M  V30 340 H 26.811 -4.12418 -6.61462 0
M  V30 341 N 31.0401 0.771051 -1.3745 0
M  V30 342 C 32.0031 1.86598 -1.33093 0
M  V30 343 C 33.0031 1.59076 -0.234845 0
M  V30 344 O 34.1931 1.67145 -0.490732 0
M  V30 345 C 31.3251 3.23747 -1.06773 0
M  V30 346 H 32.5181 1.91873 -2.30488 0
M  V30 347 H 30.0711 0.970876 -1.2249 0
M  V30 348 H 30.8061 3.24148 -0.099129 0
M  V30 349 H 30.5911 3.45115 -1.86112 0
M  V30 350 H 32.0811 4.03824 -1.06377 0
M  V30 351 N 32.5182 1.22032 0.997298 0
M  V30 352 C 33.7432 1.06921 1.77715 0
M  V30 353 C 34.1682 -0.376226 1.84299 0
M  V30 354 O 33.5262 -1.27165 1.29223 0
M  V30 355 C 33.5742 1.67996 3.19076 0
M  V30 356 O 32.6782 0.930653 4.01762 0
M  V30 357 H 32.0192 0.375814 0.547412 0
M  V30 358 H 34.5492 1.61737 1.25309 0
M  V30 359 H 34.5592 1.72538 3.69723 0
M  V30 360 H 33.2342 2.73182 3.13599 0
M  V30 361 H 31.8112 0.960917 3.60307 0
M  V30 362 N 33.9963 -1.19345 1.0293 0
M  V30 363 C 35.4073 -1.70725 0.755633 0
M  V30 364 C 35.7583 -1.82326 -0.724676 0
M  V30 365 O 34.8833 -1.49471 -1.56484 0
M  V30 366 C 35.4783 -3.10084 1.36503 0
M  V30 367 C 34.0373 -3.58723 1.13994 0
M  V30 368 C 33.1843 -2.35577 1.46283 0
M  V30 369 H 36.1353 -1.0418 1.19718 0
M  V30 370 H 36.1563 -3.72787 0.762217 0
M  V30 371 H 35.6683 -3.01609 2.44241 0
M  V30 372 H 33.7693 -3.72512 0.0807901 0
M  V30 373 H 33.8823 -4.42816 1.82894 0
M  V30 374 H 32.2463 -2.38935 0.88217 0
M  V30 375 H 33.0293 -2.29731 2.55105 0
M  V30 376 N 35.4744 -0.807222 -1.35358 0
M  V30 377 C 36.7024 -0.400377 -2.02989 0
M  V30 378 C 37.1174 0.988859 -1.60832 0
M  V30 379 O 36.4744 1.63729 -0.806175 0
M  V30 380 C 36.5254 -0.474867 -3.58368 0
M  V30 381 O 36.2464 -1.80933 -3.98992 0
M  V30 382 C 37.7474 -0.0609112 -4.43258 0
M  V30 383 H 34.9674 -0.162587 -0.651004 0
M  V30 384 H 37.5114 -1.09102 -1.72965 0
M  V30 385 H 35.6664 0.167534 -3.87038 0
M  V30 386 H 36.0804 -1.77256 -4.9364 0
M  V30 387 H 37.5544 -0.164145 -5.51756 0
M  V30 388 H 38.0314 0.993831 -4.27808 0
M  V30 389 H 38.6374 -0.676492 -4.19885 0
M  V30 390 N 36.9525 1.47285 -0.560781 0
M  V30 391 C 37.8845 2.28118 0.222438 0
M  V30 392 C 38.8975 1.37219 0.876056 0
M  V30 393 O 40.0865 1.62011 0.749307 0
M  V30 394 C 37.1865 3.1159 1.33285 0
M  V30 395 C 36.3595 4.30473 0.77534 0
M  V30 396 C 35.4185 4.95513 1.77069 0
M  V30 397 O 34.4445 5.53792 1.31539 0
M  V30 398 N 35.6465 4.90531 3.10418 0
M  V30 399 H 38.4115 2.95976 -0.470958 0
M  V30 400 H 35.9725 1.56955 -0.39709 0
M  V30 401 H 37.9645 3.51967 1.99752 0
M  V30 402 H 36.5345 2.45951 1.92943 0
M  V30 403 H 35.7545 3.94144 -0.0662113 0
M  V30 404 H 37.0425 5.07362 0.382272 0
M  V30 405 H 36.4405 4.44389 3.5005 0
M  V30 406 H 34.9975 5.34917 3.72434 0
M  V30 407 N 38.4306 0.297415 1.54768 0
M  V30 408 C 39.3786 -0.596051 2.24833 0
M  V30 409 C 40.3726 -1.13992 1.25308 0
M  V30 410 O 41.5786 -1.09098 1.4317 0
M  V30 411 H 37.9536 -0.210814 0.721846 0
M  V30 412 H 39.9246 0.0174667 2.98395 0
M  V30 413 C 38.6736 -1.75818 2.99972 0
M  V30 414 H 37.9966 -1.3489 3.76357 0
M  V30 415 H 39.4366 -2.35949 3.52284 0
M  V30 416 C 37.8956 -2.66014 2.06732 0
M  V30 417 O 38.4256 -3.67009 1.63302 0
M  V30 418 N 36.6316 -2.33669 1.72763 0
M  V30 419 H 36.1786 -1.51586 2.08277 0
M  V30 420 H 36.1366 -2.94285 1.10652 0
M  V30 421 N 39.9087 -1.5758 0.0250728 0
M  V30 422 C 40.8387 -2.13007 -0.956575 0
M  V30 423 C 41.8197 -1.0452 -1.342 0
M  V30 424 O 43.0047 -1.32332 -1.42133 0
M  V30 425 C 40.1347 -2.65386 -2.24026 0
M  V30 426 C 39.0887 -3.78623 -1.99571 0
M  V30 427 C 38.4147 -4.17414 -3.3417 0
M  V30 428 C 39.7147 -5.04867 -1.33814 0
M  V30 429 H 41.4087 -2.9528 -0.494991 0
M  V30 430 H 38.9547 -1.42042 -0.236651 0
M  V30 431 H 40.9077 -3.02794 -2.93076 0
M  V30 432 H 39.6317 -1.80268 -2.72343 0
M  V30 433 H 38.2907 -3.41646 -1.32941 0
M  V30 434 H 37.9387 -3.29284 -3.80238 0
M  V30 435 H 37.6387 -4.93719 -3.18615 0
M  V30 436 H 39.1627 -4.57402 -4.04495 0
M  V30 437 H 40.5767 -5.39888 -1.92857 0
M  V30 438 H 38.9737 -5.86144 -1.28669 0
M  V30 439 H 40.0437 -4.83904 -0.310561 0
M  V30 440 N 41.3868 0.248026 -1.55636 0
M  V30 441 C 42.6338 0.976224 -1.77415 0
M  V30 442 C 42.9618 1.85361 -0.589193 0
M  V30 443 O 42.2168 1.90973 0.427529 0
M  V30 444 C 42.5158 1.86819 -3.04686 0
M  V30 445 C 42.1818 1.14625 -4.36087 0
M  V30 446 C 40.8438 0.946723 -4.71795 0
M  V30 447 C 43.1958 0.634463 -5.17324 0
M  V30 448 C 40.5238 0.223091 -5.86276 0
M  V30 449 C 42.8758 -0.0756959 -6.32555 0
M  V30 450 C 41.5398 -0.286711 -6.66884 0
M  V30 451 H 40.8098 0.357226 -0.649208 0
M  V30 452 H 43.4568 0.246415 -1.89908 0
M  V30 453 H 41.7618 2.66502 -2.872 0
M  V30 454 H 43.4588 2.43329 -3.18735 0
M  V30 455 H 40.0488 1.3117 -4.08035 0
M  V30 456 H 44.2328 0.77616 -4.90193 0
M  V30 457 H 39.4888 0.0491185 -6.1138 0
M  V30 458 H 43.6628 -0.479899 -6.94745 0
M  V30 459 H 41.2898 -0.849389 -7.5544 0
M  V30 460 N 42.8649 1.48995 0.513639 0
M  V30 461 C 43.7949 1.67636 1.62544 0
M  V30 462 C 44.7759 0.525087 1.61793 0
M  V30 463 O 45.9609 0.759502 1.78732 0
M  V30 464 C 43.0909 1.73114 3.01079 0
M  V30 465 C 42.0449 2.87905 3.16693 0
M  V30 466 C 41.3709 2.78486 4.56453 0
M  V30 467 C 42.6709 4.29005 2.97913 0
M  V30 468 H 44.3649 2.60716 1.47198 0
M  V30 469 H 41.9109 1.25465 0.706714 0
M  V30 470 H 43.8639 1.84742 3.78746 0
M  V30 471 H 42.5879 0.766241 3.17484 0
M  V30 472 H 41.2469 2.75859 2.41448 0
M  V30 473 H 40.8949 1.7993 4.69717 0
M  V30 474 H 40.5949 3.55523 4.67843 0
M  V30 475 H 42.1189 2.92104 5.36197 0
M  V30 476 H 43.5329 4.41798 3.65359 0
M  V30 477 H 41.9299 5.07166 3.20785 0
M  V30 478 H 42.9999 4.44329 1.94165 0
M  V30 479 N 44.343 -0.763751 1.37857 0
M  V30 480 C 45.568 -1.55805 1.36893 0
M  V30 481 C 45.993 -1.88054 -0.0416135 0
M  V30 482 O 45.351 -1.49825 -1.02089 0
M  V30 483 C 45.399 -2.84012 2.22192 0
M  V30 484 O 44.503 -3.78732 1.63204 0
M  V30 485 H 43.844 -0.471638 0.46739 0
M  V30 486 H 46.374 -0.944657 1.81487 0
M  V30 487 H 46.384 -3.33037 2.35691 0
M  V30 488 H 45.059 -2.59869 3.24716 0
M  V30 489 H 43.636 -3.37402 1.58791 0
M  V30 490 N 45.8211 -1.22559 -0.990812 0
M  V30 491 C 47.2321 -1.04791 -1.54518 0
M  V30 492 C 47.5831 0.387998 -1.92325 0
M  V30 493 O 46.7081 1.27328 -1.74976 0
M  V30 494 C 47.3031 -1.896 -2.80779 0
M  V30 495 C 45.8621 -1.76124 -3.32652 0
M  V30 496 C 45.0091 -1.8594 -2.05722 0
M  V30 497 H 47.9601 -1.36374 -0.811662 0
M  V30 498 H 47.9811 -1.41464 -3.53225 0
M  V30 499 H 47.4931 -2.94101 -2.53231 0
M  V30 500 H 45.5941 -0.743643 -3.65104 0
M  V30 501 H 45.7071 -2.58913 -4.03114 0
M  V30 502 H 44.0711 -1.29403 -2.19379 0
M  V30 503 H 44.8541 -2.91976 -1.80568 0
M  V30 504 N 47.2992 1.18797 -1.03562 0
M  V30 505 C 48.5452 1.89192 -0.746867 0
M  V30 506 C 48.9002 1.78531 0.717245 0
M  V30 507 O 48.1932 1.17137 1.51622 0
M  V30 508 C 48.3872 3.38692 -1.14117 0
M  V30 509 C 48.2162 3.63902 -2.64207 0
M  V30 510 C 46.9862 3.81553 -3.31279 0
M  V30 511 C 49.1842 3.64903 -3.62423 0
M  V30 512 N 47.1662 3.94455 -4.70402 0
M  V30 513 C 48.5372 3.83458 -4.87196 0
M  V30 514 C 50.5922 3.47965 -3.56125 0
M  V30 515 C 49.2952 3.86829 -6.06429 0
M  V30 516 C 51.3212 3.52616 -4.7478 0
M  V30 517 C 50.6832 3.71663 -5.9837 0
M  V30 518 H 46.7822 0.711141 -0.325273 0
M  V30 519 H 49.3662 1.42727 -1.32428 0
M  V30 520 H 47.5372 3.83864 -0.591889 0
M  V30 521 H 49.2692 3.96634 -0.803966 0
M  V30 522 H 46.0242 3.80723 -2.81686 0
M  V30 523 H 46.4482 4.0474 -5.42692 0
M  V30 524 H 51.0902 3.32189 -2.61553 0
M  V30 525 H 48.8082 4.01395 -7.01362 0
M  V30 526 H 52.3942 3.40791 -4.71543 0
M  V30 527 H 51.2742 3.75145 -6.88648 0
M  V30 528 N 48.7773 0.814389 1.34928 0
M  V30 529 C 50.0023 0.410097 2.03305 0
M  V30 530 C 50.4273 -0.973464 1.60951 0
M  V30 531 O 49.7853 -1.63185 0.789964 0
M  V30 532 C 49.8333 0.51049 3.56968 0
M  V30 533 O 48.9373 -0.473035 4.09678 0
M  V30 534 H 48.2783 0.170088 0.641846 0
M  V30 535 H 50.8083 1.10244 1.72358 0
M  V30 536 H 50.8183 0.383135 4.06197 0
M  V30 537 H 49.4933 1.51963 3.87144 0
M  V30 538 H 48.0703 -0.305272 3.71648 0
M  V30 539 N 50.2554 -1.46986 0.568584 0
M  V30 540 C 51.5044 -2.01646 0.0465894 0
M  V30 541 C 51.8174 -1.44721 -1.31587 0
M  V30 542 O 53.0234 -1.91113 -1.92842 0
M  V30 543 C 51.4794 -3.59885 0.032752 0
M  V30 544 C 51.0874 -4.25804 1.39266 0
M  V30 545 C 52.8314 -4.22255 -0.436038 0
M  V30 546 C 50.7384 -5.76081 1.33732 0
M  V30 547 H 49.6684 -0.753876 0.013647 0
M  V30 548 H 52.3194 -1.68864 0.718131 0
M  V30 549 H 50.7014 -3.8968 -0.704669 0
M  V30 550 H 51.8754 -4.07637 2.1487 0
M  V30 551 H 50.1904 -3.7547 1.80032 0
M  V30 552 H 52.7874 -5.32394 -0.49602 0
M  V30 553 H 53.1304 -3.90212 -1.45053 0
M  V30 554 H 53.6634 -3.97033 0.246877 0
M  V30 555 H 50.4024 -6.12761 2.32817 0
M  V30 556 H 49.9224 -5.96553 0.623267 0
M  V30 557 H 51.6014 -6.38518 1.0442 0
M  V30 558 N 51.7335 -0.305618 -1.54608 0
M  V30 559 C 52.9585 0.307562 -2.05107 0
M  V30 560 C 53.3835 1.46385 -1.18123 0
M  V30 561 O 52.7415 1.8034 -0.186324 0
M  V30 562 C 52.7895 0.73704 -3.52987 0
M  V30 563 O 51.8935 1.84134 -3.6901 0
M  V30 564 H 51.2345 0.0589143 -0.661381 0
M  V30 565 H 53.7645 -0.448807 -1.99617 0
M  V30 566 H 53.7745 1.02459 -3.94925 0
M  V30 567 H 52.4495 -0.108773 -4.15758 0
M  V30 568 H 51.0265 1.55398 -3.38978 0
M  V30 569 N 53.2116 1.57565 -0.0334293 0
M  V30 570 C 54.4366 1.96689 0.657895 0
M  V30 571 C 54.8616 0.910057 1.64619 0
M  V30 572 O 54.2196 -0.128598 1.80843 0
M  V30 573 C 54.2676 3.34905 1.33683 0
M  V30 574 O 53.3716 3.31574 2.45219 0
M  V30 575 H 52.7126 0.641205 0.172489 0
M  V30 576 H 55.2426 2.04372 -0.0965621 0
M  V30 577 H 55.2526 3.71234 1.69262 0
M  V30 578 H 53.9276 4.11366 0.612411 0
M  V30 579 H 52.5046 3.06968 2.11719 0
M  V30 580 N 54.6897 -0.239769 1.55765 0
M  V30 581 C 55.9177 -0.98417 1.81994 0
M  V30 582 C 56.3327 -1.7867 0.610124 0
M  V30 583 O 55.6897 -1.77571 -0.421271 0
M  V30 584 C 55.7407 -1.91635 3.06526 0
M  V30 585 O 55.4617 -1.14629 4.22838 0
M  V30 586 C 56.9627 -2.77616 3.45607 0
M  V30 587 H 54.1827 -0.28928 0.605441 0
M  V30 588 H 56.7267 -0.260499 2.02834 0
M  V30 589 H 54.8817 -2.5942 2.87715 0
M  V30 590 H 55.2957 -1.77745 4.93464 0
M  V30 591 H 56.7697 -3.38759 4.35828 0
M  V30 592 H 57.2467 -3.4909 2.6652 0
M  V30 593 H 57.8527 -2.15271 3.66795 0
M  V30 594 N 56.1678 -1.49265 -0.50573 0
M  V30 595 C 57.1008 -1.60183 -1.62532 0
M  V30 596 C 58.0788 -0.451107 -1.56217 0
M  V30 597 O 59.2628 -0.666016 -1.76342 0
M  V30 598 C 56.3898 -1.55238 -3.01029 0
M  V30 599 C 55.4358 -2.7545 -3.25621 0
M  V30 600 S 56.2688 -4.37174 -3.09256 0
M  V30 601 C 57.4248 -4.34866 -4.50158 0
M  V30 602 H 57.6578 -2.54894 -1.53025 0
M  V30 603 H 55.1908 -1.38098 -0.690535 0
M  V30 604 H 57.1488 -1.53071 -3.80893 0
M  V30 605 H 55.8098 -0.618238 -3.07956 0
M  V30 606 H 55.0028 -2.68197 -4.26716 0
M  V30 607 H 54.6048 -2.75005 -2.53472 0
M  V30 608 H 56.8968 -4.06295 -5.42154 0
M  V30 609 H 57.8398 -5.36223 -4.62462 0
M  V30 610 H 58.2478 -3.65007 -4.30616 0
M  V30 611 N 57.6459 0.756429 -1.3826 0
M  V30 612 C 58.6089 1.85176 -1.35065 0
M  V30 613 C 59.6089 1.58818 -0.251703 0
M  V30 614 O 60.7989 1.66615 -0.508433 0
M  V30 615 C 57.9309 3.22596 -1.10201 0
M  V30 616 H 59.1239 1.89417 -2.3251 0
M  V30 617 H 56.6769 0.95783 -1.23512 0
M  V30 618 H 57.4119 3.24025 -0.133504 0
M  V30 619 H 57.1969 3.43122 -1.89762 0
M  V30 620 H 58.6869 4.02673 -1.10654 0
M  V30 621 N 59.124 1.23083 0.984299 0
M  V30 622 C 60.057 0.951786 2.07404 0
M  V30 623 C 61.035 -0.10848 1.62238 0
M  V30 624 O 62.219 0.0249467 1.88483 0
M  V30 625 C 59.346 0.433142 3.35919 0
M  V30 626 C 58.392 1.47941 4.0002 0
M  V30 627 S 59.225 3.05556 4.39768 0
M  V30 628 C 60.381 2.55351 5.71442 0
M  V30 629 H 60.614 1.87456 2.30754 0
M  V30 630 H 58.147 1.06284 1.11996 0
M  V30 631 H 60.105 0.140506 4.10259 0
M  V30 632 H 58.766 -0.468656 3.10584 0
M  V30 633 H 57.959 1.06658 4.92585 0
M  V30 634 H 57.561 1.7212 3.3204 0
M  V30 635 H 59.853 1.97128 6.48187 0
M  V30 636 H 60.796 3.46441 6.17563 0
M  V30 637 H 61.204 1.96339 5.29255 0
M  V30 638 N 60.6021 -1.18246 1.0419 0
M  V30 639 C 61.8481 -1.88536 0.747122 0
M  V30 640 C 62.1811 -1.80223 -0.723409 0
M  V30 641 O 61.4561 -1.20337 -1.52804 0
M  V30 642 C 61.7391 -3.38968 1.21544 0
M  V30 643 C 61.5921 -3.56084 2.74816 0
M  V30 644 C 62.9111 -4.32648 0.806482 0
M  V30 645 H 60.0301 -0.684619 0.272883 0
M  V30 646 H 62.6721 -1.39113 1.29413 0
M  V30 647 H 60.8221 -3.8119 0.750081 0
M  V30 648 H 62.4941 -3.22946 3.29399 0
M  V30 649 H 60.7371 -2.98699 3.14582 0
M  V30 650 H 61.4081 -4.61639 3.02644 0
M  V30 651 H 63.8841 -3.98211 1.20695 0
M  V30 652 H 62.7601 -5.36462 1.1619 0
M  V30 653 H 63.0211 -4.41146 -0.29029 0
M  V30 654 N 62.0802 -0.821533 -1.34494 0
M  V30 655 C 63.3102 -0.421272 -2.02259 0
M  V30 656 C 63.7182 0.977047 -1.6202 0
M  V30 657 O 63.0612 1.64348 -0.820703 0
M  V30 658 C 63.1232 -0.44231 -3.56769 0
M  V30 659 C 62.7872 -1.79372 -4.20327 0
M  V30 660 C 63.7842 -2.75435 -4.40944 0
M  V30 661 C 61.4692 -2.08182 -4.57127 0
M  V30 662 C 63.4632 -3.98482 -4.97484 0
M  V30 663 C 61.1502 -3.31489 -5.13379 0
M  V30 664 C 62.1482 -4.26457 -5.33501 0
M  V30 665 O 61.8362 -5.47585 -5.88562 0
M  V30 666 H 61.5682 -0.167473 -0.654927 0
M  V30 667 H 64.1222 -1.11073 -1.72777 0
M  V30 668 H 62.3522 0.303836 -3.85505 0
M  V30 669 H 64.0412 -0.0622925 -4.05852 0
M  V30 670 H 64.8072 -2.54473 -4.12878 0
M  V30 671 H 60.6862 -1.35066 -4.4077 0
M  V30 672 H 64.2302 -4.72618 -5.13106 0
M  V30 673 H 60.1272 -3.52316 -5.40873 0
M  V30 674 H 60.8952 -5.49086 -6.06998 0
M  V30 675 N 63.5583 1.46682 -0.576371 0
M  V30 676 C 64.4913 2.27243 0.208731 0
M  V30 677 C 65.4693 1.35238 0.902746 0
M  V30 678 O 66.6533 1.64641 0.917904 0
M  V30 679 C 63.7803 3.12802 1.29896 0
M  V30 680 C 62.8263 4.20524 0.711457 0
M  V30 681 S 63.6593 5.33548 -0.456781 0
M  V30 682 C 64.8153 6.22673 0.634798 0
M  V30 683 H 65.0483 2.93484 -0.474838 0
M  V30 684 H 62.5813 1.50069 -0.363118 0
M  V30 685 H 64.5393 3.62661 1.92321 0
M  V30 686 H 63.2003 2.45887 1.95444 0
M  V30 687 H 62.3933 4.80191 1.53076 0
M  V30 688 H 61.9953 3.73645 0.162999 0
M  V30 689 H 64.2873 6.60181 1.52209 0
M  V30 690 H 65.2303 7.0806 0.0750311 0
M  V30 691 H 65.6383 5.56684 0.936092 0
M  V30 692 N 65.0364 0.313813 1.54444 0
M  V30 693 C 66.2844 -0.291099 1.99993 0
M  V30 694 C 66.6054 -1.53418 1.20366 0
M  V30 695 O 65.8754 -1.93544 0.302927 0
M  V30 696 H 64.4554 -0.110552 0.738774 0
M  V30 697 H 67.1174 0.428106 1.9014 0
M  V30 698 H 66.2134 -0.554268 3.07139 0
M  V30 699 N 66.5145 -1.57545 0.0417849 0
M  V30 700 C 67.7395 -1.97035 -0.647455 0
M  V30 701 C 68.1645 -0.918775 -1.64135 0
M  V30 702 O 67.5225 0.119006 -1.80909 0
M  V30 703 C 67.5705 -3.35609 -1.31905 0
M  V30 704 O 66.6745 -3.3287 -2.43457 0
M  V30 705 H 66.0155 -0.64211 -0.169086 0
M  V30 706 H 68.5455 -2.04318 0.107399 0
M  V30 707 H 68.5555 -3.72126 -1.67291 0
M  V30 708 H 67.2305 -4.11685 -0.590586 0
M  V30 709 H 65.8075 -3.08087 -2.10088 0
M  V30 710 N 67.9926 0.231505 -1.5589 0
M  V30 711 C 69.4086 0.580748 -1.48659 0
M  V30 712 C 69.6086 1.87617 -0.73498 0
M  V30 713 O 68.6646 2.51046 -0.270586 0
M  V30 714 C 69.9776 0.669202 -2.93159 0
M  V30 715 C 71.5256 0.760499 -3.03621 0
M  V30 716 C 72.0006 0.880383 -4.49459 0
M  V30 717 N 73.4916 0.944861 -4.53461 0
M  V30 718 C 74.2266 1.05716 -5.63571 0
M  V30 719 N 73.7226 1.13403 -6.83456 0
M  V30 720 N 75.5156 1.09152 -5.514 0
M  V30 721 H 67.6666 -0.618695 -2.03189 0
M  V30 722 H 69.9296 -0.215728 -0.923128 0
M  V30 723 H 69.6356 -0.212904 -3.51055 0
M  V30 724 H 69.5096 1.5361 -3.44505 0
M  V30 725 H 71.8966 1.63305 -2.45796 0
M  V30 726 H 71.9776 -0.131864 -2.5546 0
M  V30 727 H 71.6216 0.0123284 -5.07899 0
M  V30 728 H 71.5516 1.78802 -4.95316 0
M  V30 729 H 74.0426 0.896176 -3.6712 0
M  V30 730 H 74.3556 1.21921 -7.63122 0
M  V30 731 H 72.7006 1.10333 -6.86186 0
M  V30 732 H 75.8916 1.02805 -4.56671 0
M  V30 733 H 76.0646 1.17558 -6.37247 0
M  V30 734 N 69.4707 1.49531 0.497807 0
M  V30 735 C 70.7187 1.58865 1.24926 0
M  V30 736 C 71.0397 0.278721 1.92998 0
M  V30 737 O 70.3097 -0.702144 1.82885 0
M  V30 738 H 68.8897 0.585343 0.464094 0
M  V30 739 H 71.5517 1.86174 0.57666 0
M  V30 740 H 70.6477 2.38633 2.01149 0
M  V30 741 N 70.9488 -0.749086 1.3866 0
M  V30 742 C 72.1738 -1.54344 1.38538 0
M  V30 743 C 72.5988 -1.88088 -0.0216655 0
M  V30 744 O 71.9568 -1.50899 -1.00494 0
M  V30 745 C 72.0048 -2.8164 2.25192 0
M  V30 746 O 71.1088 -3.7698 1.67212 0
M  V30 747 H 70.4498 -0.466654 0.472367 0
M  V30 748 H 72.9798 -0.925355 1.82478 0
M  V30 749 H 72.9898 -3.30519 2.3921 0
M  V30 750 H 71.6648 -2.56411 3.27454 0
M  V30 751 H 70.2418 -3.35699 1.6236 0
M  V30 752 N 72.4269 -1.23603 -0.977757 0
M  V30 753 C 73.6549 -1.09646 -1.75458 0
M  V30 754 C 74.0699 0.351859 -1.85492 0
M  V30 755 O 73.4269 1.24327 -1.336 0
M  V30 756 C 73.4779 -1.71895 -3.18016 0
M  V30 757 O 73.1989 -3.11063 -3.08498 0
M  V30 758 C 74.6999 -1.63415 -4.12081 0
M  V30 759 H 71.9199 -0.38359 -0.550545 0
M  V30 760 H 74.4639 -1.63507 -1.22824 0
M  V30 761 H 72.6189 -1.22061 -3.67668 0
M  V30 762 H 73.0329 -3.41305 -3.9826 0
M  V30 763 H 74.5069 -2.11669 -5.09804 0
M  V30 764 H 74.9839 -0.593462 -4.35172 0
M  V30 765 H 75.5899 -2.12628 -3.68334 0
M  V30 766 N 73.905 1.17692 -1.04816 0
M  V30 767 C 74.815 2.25229 -0.65643 0
M  V30 768 C 75.831 1.71018 0.320761 0
M  V30 769 O 77.007 2.00649 0.173805 0
M  V30 770 C 74.072 3.46684 -0.0332629 0
M  V30 771 C 73.133 4.15997 -1.06042 0
M  V30 772 C 72.366 5.31654 -0.466893 0
M  V30 773 O 72.589 5.65777 0.724758 0
M  V30 774 O 71.523 5.89831 -1.1993 0
M  V30 775 H 75.349 2.61016 -1.55255 0
M  V30 776 H 72.934 1.24919 -0.81949 0
M  V30 777 H 74.816 4.20234 0.313256 0
M  V30 778 H 73.491 3.12703 0.836566 0
M  V30 779 H 72.398 3.44482 -1.45886 0
M  V30 780 H 73.731 4.53996 -1.90127 0
M  V30 781 N 75.3831 0.828654 1.34056 0
M  V30 782 C 76.6601 0.341809 1.9259 0
M  V30 783 C 77.0401 -1.17158 1.75605 0
M  V30 784 O 76.3881 -1.98132 1.13824 0
M  V30 785 C 76.5981 0.777453 3.4023 0
M  V30 786 C 77.9461 0.779579 4.17382 0
M  V30 787 O 78.9701 0.7204 3.48839 0
M  V30 788 O 77.8291 0.857996 5.39723 0
M  V30 789 H 74.9231 0.0946085 0.821571 0
M  V30 790 H 77.4691 0.913827 1.42994 0
M  V30 791 H 76.2411 1.8196 3.46419 0
M  V30 792 H 75.8641 0.181444 3.97186 0
M  V30 793 N 76.8612 -1.46375 0.584142 0
M  V30 794 C 77.7932 -2.28443 -0.186119 0
M  V30 795 C 78.8062 -1.38596 -0.854115 0
M  V30 796 O 79.9952 -1.63183 -0.723438 0
M  V30 797 C 77.0952 -3.13671 -1.28311 0
M  V30 798 C 76.2682 -4.31652 -0.706758 0
M  V30 799 C 75.3272 -4.98267 -1.69163 0
M  V30 800 O 74.3532 -5.55815 -1.22712 0
M  V30 801 N 75.5552 -4.95408 -3.02575 0
M  V30 802 H 78.3202 -2.9519 0.517986 0
M  V30 803 H 75.8812 -1.56303 0.42201 0
M  V30 804 H 77.8732 -3.55101 -1.94128 0
M  V30 805 H 76.4432 -2.48989 -1.89005 0
M  V30 806 H 75.6632 -3.93989 0.128908 0
M  V30 807 H 76.9512 -5.07906 -0.301506 0
M  V30 808 H 76.3492 -4.49902 -3.42936 0
M  V30 809 H 74.9062 -5.40774 -3.63877 0
M  V30 810 N 78.3393 -0.321999 -1.54275 0
M  V30 811 C 79.2723 0.58718 -2.20516 0
M  V30 812 C 80.2503 1.11693 -1.18167 0
M  V30 813 O 81.4343 1.18122 -1.46899 0
M  V30 814 C 78.5613 1.80554 -2.86562 0
M  V30 815 C 77.6073 1.40718 -4.02617 0
M  V30 816 S 78.4403 0.445218 -5.33646 0
M  V30 817 C 79.5963 1.6709 -6.03185 0
M  V30 818 H 79.8293 0.0244875 -2.9729 0
M  V30 819 H 77.3623 -0.106087 -1.54035 0
M  V30 820 H 79.3203 2.50462 -3.25237 0
M  V30 821 H 77.9813 2.33942 -2.09595 0
M  V30 822 H 77.1743 2.31501 -4.47687 0
M  V30 823 H 76.7763 0.78782 -3.65608 0
M  V30 824 H 79.0683 2.60856 -6.25268 0
M  V30 825 H 80.0113 1.26239 -6.96756 0
M  V30 826 H 80.4193 1.85716 -5.33076 0
M  V30 827 N 79.8174 1.5752 -0.0501392 0
M  V30 828 C 80.7804 2.1037 0.909786 0
M  V30 829 C 81.7804 1.02308 1.24056 0
M  V30 830 O 82.9704 1.28385 1.17741 0
M  V30 831 C 80.1024 2.58708 2.21998 0
M  V30 832 H 81.2954 2.96479 0.451665 0
M  V30 833 H 78.8484 1.55038 0.198248 0
M  V30 834 H 79.5834 1.75989 2.72394 0
M  V30 835 H 79.3684 3.37675 1.99295 0
M  V30 836 H 80.8584 2.99747 2.9076 0
M  V30 837 N 81.2955 -0.223234 1.56011 0
M  V30 838 C 82.2425 -1.27664 1.92277 0
M  V30 839 C 83.2125 -1.46659 0.779763 0
M  V30 840 O 84.3975 -1.60256 1.03551 0
M  V30 841 C 81.5375 -2.62234 2.24338 0
M  V30 842 C 80.6505 -2.51051 3.51564 0
M  V30 843 C 79.7855 -3.78133 3.7308 0
M  V30 844 C 78.8245 -3.61665 4.93827 0
M  V30 845 N 77.9615 -4.80693 5.11741 0
M  V30 846 H 82.8015 -0.960358 2.82101 0
M  V30 847 H 80.3385 -0.462901 1.39627 0
M  V30 848 H 82.2965 -3.40596 2.40936 0
M  V30 849 H 80.9265 -2.91961 1.3769 0
M  V30 850 H 79.9785 -1.64132 3.43169 0
M  V30 851 H 81.2905 -2.34803 4.40079 0
M  V30 852 H 80.4445 -4.64938 3.89766 0
M  V30 853 H 79.1835 -3.97304 2.82844 0
M  V30 854 H 78.1885 -2.73244 4.77093 0
M  V30 855 H 79.4135 -3.43966 5.85546 0
M  V30 856 H 77.3595 -5.00181 4.24446 0
M  V30 857 H 77.2765 -4.67165 5.94384 0
M  V30 858 H 78.5445 -5.6893 5.3286 0
M  V30 859 N 82.7736 -1.49793 -0.48987 0
M  V30 860 C 84.0196 -1.60078 -1.24511 0
M  V30 861 C 84.3526 -0.291608 -1.91998 0
M  V30 862 O 83.6276 0.705647 -1.81248 0
M  V30 863 C 83.9106 -2.76791 -2.30345 0
M  V30 864 C 83.7636 -4.17535 -1.67286 0
M  V30 865 C 85.0826 -2.89111 -3.31817 0
M  V30 866 H 82.2016 -0.582645 -0.451324 0
M  V30 867 H 84.8436 -1.82117 -0.541612 0
M  V30 868 H 82.9936 -2.5813 -2.90346 0
M  V30 869 H 84.6656 -4.4774 -1.11026 0
M  V30 870 H 82.9086 -4.22665 -0.976577 0
M  V30 871 H 83.5796 -4.95094 -2.44103 0
M  V30 872 H 86.0556 -3.06133 -2.81819 0
M  V30 873 H 84.9316 -3.72433 -4.03219 0
M  V30 874 H 85.1926 -1.9893 -3.94815 0
M  V30 875 N 84.2517 0.741722 -1.39055 0
M  V30 876 C 85.1817 1.869 -1.39966 0
M  V30 877 C 86.1627 1.6804 -0.26392 0
M  V30 878 O 87.3477 1.88458 -0.468755 0
M  V30 879 C 84.4777 3.24572 -1.23574 0
M  V30 880 C 83.4317 3.58056 -2.34477 0
M  V30 881 C 82.7577 4.94593 -2.0318 0
M  V30 882 C 84.0577 3.61716 -3.76774 0
M  V30 883 H 85.7517 1.86395 -2.34302 0
M  V30 884 H 83.2977 0.895361 -1.1278 0
M  V30 885 H 85.2507 4.031 -1.22834 0
M  V30 886 H 83.9747 3.25587 -0.257045 0
M  V30 887 H 82.6337 2.81854 -2.34423 0
M  V30 888 H 82.2817 4.92181 -1.03765 0
M  V30 889 H 81.9817 5.17964 -2.77465 0
M  V30 890 H 83.5057 5.75486 -2.04079 0
M  V30 891 H 84.9197 4.30335 -3.78794 0
M  V30 892 H 83.3167 3.96603 -4.50362 0
M  V30 893 H 84.3867 2.61672 -4.08235 0
M  V30 894 N 85.7298 1.2412 0.971189 0
M  V30 895 C 86.6618 0.988349 2.06795 0
M  V30 896 C 87.6748 -0.0409541 1.62748 0
M  V30 897 O 88.8638 0.195673 1.77424 0
M  V30 898 C 85.9638 0.469023 3.35639 0
M  V30 899 C 85.1368 1.56065 4.08611 0
M  V30 900 C 84.1958 1.04458 5.15728 0
M  V30 901 O 83.2218 1.73553 5.42096 0
M  V30 902 N 84.4238 -0.122817 5.8037 0
M  V30 903 H 87.1888 1.93265 2.29061 0
M  V30 904 H 84.7498 1.15102 1.13856 0
M  V30 905 H 86.7418 0.108613 4.04554 0
M  V30 906 H 85.3118 -0.380919 3.1027 0
M  V30 907 H 84.5318 2.09341 3.34021 0
M  V30 908 H 85.8198 2.29449 4.54126 0
M  V30 909 H 85.2178 -0.700563 5.61345 0
M  V30 910 H 83.7748 -0.424404 6.50417 0
M  V30 911 N 87.2079 -1.17134 1.05439 0
M  V30 912 C 88.4549 -1.87456 0.765942 0
M  V30 913 C 88.7829 -1.81189 -0.707153 0
M  V30 914 O 88.0379 -1.21633 -1.5331 0
M  V30 915 C 88.3369 -3.36833 1.19491 0
M  V30 916 C 88.0029 -3.63301 2.67063 0
M  V30 917 C 86.6649 -3.70234 3.07376 0
M  V30 918 C 89.0169 -3.74575 3.62413 0
M  V30 919 C 86.3449 -3.85933 4.41896 0
M  V30 920 C 88.6969 -3.91793 4.9667 0
M  V30 921 C 87.3609 -3.96966 5.36633 0
M  V30 922 H 86.6309 -0.685948 0.280278 0
M  V30 923 H 89.2779 -1.38556 1.32192 0
M  V30 924 H 87.5829 -3.87807 0.557969 0
M  V30 925 H 89.2799 -3.89611 0.948893 0
M  V30 926 H 85.8699 -3.58532 2.34846 0
M  V30 927 H 90.0539 -3.68537 3.32406 0
M  V30 928 H 85.3099 -3.88187 4.72357 0
M  V30 929 H 89.4839 -3.99458 5.70444 0
M  V30 930 H 87.1109 -4.08883 6.40874 0
M  V30 931 N 88.686 -0.835752 -1.33615 0
M  V30 932 C 89.634 -0.255238 -2.31195 0
M  V30 933 C 90.628 0.61107 -1.57995 0
M  V30 934 O 91.834 0.500979 -1.72888 0
M  V30 935 H 88.209 -0.0638085 -0.749288 0
M  V30 936 H 90.18 -1.09283 -2.77669 0
M  V30 937 C 88.929 0.55754 -3.43201 0
M  V30 938 H 88.252 -0.0997553 -3.99676 0
M  V30 939 H 89.692 0.929622 -4.13683 0
M  V30 940 C 88.151 1.73515 -2.88781 0
M  V30 941 O 88.681 2.83376 -2.84712 0
M  V30 942 N 86.887 1.55603 -2.4543 0
M  V30 943 H 86.434 0.662354 -2.48939 0
M  V30 944 H 86.392 2.34545 -2.09371 0
M  V30 945 N 90.1641 1.46063 -0.591896 0
M  V30 946 C 91.0741 2.34192 0.13831 0
M  V30 947 C 92.0901 1.50305 0.876608 0
M  V30 948 O 93.2661 1.8315 0.837728 0
M  V30 949 C 90.3311 3.27656 1.13326 0
M  V30 950 C 89.3921 4.27445 0.39863 0
M  V30 951 C 88.6251 5.16443 1.34618 0
M  V30 952 O 88.8481 5.08553 2.58321 0
M  V30 953 O 87.7821 5.95843 0.851768 0
M  V30 954 H 91.6081 2.98002 -0.58552 0
M  V30 955 H 89.1931 1.45188 -0.352239 0
M  V30 956 H 91.0751 3.85291 1.70671 0
M  V30 957 H 89.7501 2.6643 1.83839 0
M  V30 958 H 88.6571 3.73471 -0.216895 0
M  V30 959 H 89.9901 4.91482 -0.265709 0
M  V30 960 N 91.6422 0.330177 1.54103 0
M  V30 961 C 92.8882 -0.270806 2.00984 0
M  V30 962 C 93.2212 -1.51265 1.21789 0
M  V30 963 O 92.4962 -1.92142 0.301927 0
M  V30 964 C 92.7792 -0.598339 3.55094 0
M  V30 965 C 92.6322 0.654674 4.4501 0
M  V30 966 C 93.9512 -1.41334 4.16789 0
M  V30 967 H 91.0702 -0.0969531 0.730595 0
M  V30 968 H 93.7122 0.448066 1.84641 0
M  V30 969 H 91.8622 -1.21078 3.69151 0
M  V30 970 H 93.5342 1.29285 4.42813 0
M  V30 971 H 91.7772 1.28224 4.14416 0
M  V30 972 H 92.4482 0.380944 5.50684 0
M  V30 973 H 94.9242 -0.895597 4.06347 0
M  V30 974 H 93.8002 -1.61127 5.24718 0
M  V30 975 H 94.0612 -2.41146 3.70541 0
M  V30 976 N 93.1203 -1.57491 0.0584922 0
M  V30 977 C 94.3683 -1.92597 -0.612436 0
M  V30 978 C 94.6893 -0.938162 -1.70949 0
M  V30 979 O 93.9593 0.0158301 -1.95894 0
M  V30 980 H 92.5393 -0.710964 -0.229214 0
M  V30 981 H 95.2013 -1.94571 0.113218 0
M  V30 982 H 94.2973 -2.94038 -1.04633 0
M  V30 983 N 94.5984 0.214957 -1.56127 0
M  V30 984 C 95.5614 1.24997 -1.92116 0
M  V30 985 C 96.5614 1.39467 -0.800344 0
M  V30 986 O 97.7514 1.37619 -1.06802 0
M  V30 987 C 94.8834 2.62271 -2.17777 0
M  V30 988 H 96.0764 0.942875 -2.84693 0
M  V30 989 H 93.6294 0.455654 -1.49511 0
M  V30 990 H 94.3644 2.98068 -1.27773 0
M  V30 991 H 94.1494 2.53143 -2.99434 0
M  V30 992 H 95.6394 3.36946 -2.46693 0
M  V30 993 N 96.0765 1.50051 0.48192 0
M  V30 994 C 97.0245 1.68635 1.60203 0
M  V30 995 C 98.0185 0.552184 1.60148 0
M  V30 996 O 99.2245 0.732377 1.64427 0
M  V30 997 H 95.5995 0.532081 0.531407 0
M  V30 998 H 97.5705 2.62616 1.41688 0
M  V30 999 C 96.3195 1.78775 2.9822 0
M  V30 1000 H 95.6425 2.6543 2.98976 0
M  V30 1001 H 97.0825 1.95806 3.7608 0
M  V30 1002 C 95.5415 0.536849 3.32595 0
M  V30 1003 O 96.0715 -0.328897 4.00351 0
M  V30 1004 N 94.2775 0.394091 2.87915 0
M  V30 1005 H 93.8245 1.09962 2.32951 0
M  V30 1006 H 93.7825 -0.441737 3.11281 0
M  V30 1007 N 97.5546 -0.734337 1.39446 0
M  V30 1008 C 98.5176 -1.83004 1.37994 0
M  V30 1009 C 99.5176 -1.58397 0.276938 0
M  V30 1010 O 100.708 -1.65785 0.534875 0
M  V30 1011 C 97.8396 -3.20802 1.1532 0
M  V30 1012 H 99.0326 -1.85694 2.35494 0
M  V30 1013 H 96.5856 -0.938059 1.25021 0
M  V30 1014 H 97.3206 -3.23772 0.185036 0
M  V30 1015 H 97.1056 -3.4006 1.95197 0
M  V30 1016 H 98.5956 -4.00862 1.17046 0
M  V30 1017 N 99.0327 -1.24633 -0.964593 0
M  V30 1018 C 100.279 -1.08949 -1.71049 0
M  V30 1019 C 100.612 0.370302 -1.90637 0
M  V30 1020 O 99.8867 1.27349 -1.47011 0
M  V30 1021 C 100.17 -1.83329 -3.0994 0
M  V30 1022 C 100.023 -3.37077 -2.97824 0
M  V30 1023 C 101.342 -1.60846 -4.09654 0
M  V30 1024 H 98.4607 -0.397178 -0.620821 0
M  V30 1025 H 101.103 -1.5334 -1.12191 0
M  V30 1026 H 99.2527 -1.45597 -3.60186 0
M  V30 1027 H 100.925 -3.84425 -2.5498 0
M  V30 1028 H 99.1677 -3.65298 -2.33965 0
M  V30 1029 H 99.8387 -3.84324 -3.96231 0
M  V30 1030 H 102.315 -1.93674 -3.68279 0
M  V30 1031 H 101.191 -2.1534 -5.04896 0
M  V30 1032 H 101.452 -0.547434 -4.38698 0
M  V30 1033 N 100.511 1.16574 -1.06058 0
M  V30 1034 C 101.739 1.90952 -0.796552 0
M  V30 1035 C 102.154 1.77302 0.648808 0
M  V30 1036 O 101.511 1.11605 1.44397 0
M  V30 1037 C 101.562 3.41736 -1.17894 0
M  V30 1038 O 101.283 3.54975 -2.56758 0
M  V30 1039 C 102.784 4.33169 -0.942308 0
M  V30 1040 H 100.004 0.605594 -0.288959 0
M  V30 1041 H 102.548 1.47777 -1.41358 0
M  V30 1042 H 100.703 3.82623 -0.606491 0
M  V30 1043 H 101.117 4.4846 -2.72 0
M  V30 1044 H 102.591 5.37439 -1.25952 0
M  V30 1045 H 103.068 4.3903 0.122078 0
M  V30 1046 H 103.674 3.98007 -1.49902 0
M  V30 1047 N 101.989 0.842826 1.3317 0
M  V30 1048 C 103.4 0.496651 1.79973 0
M  V30 1049 C 103.751 -0.984641 1.69703 0
M  V30 1050 O 102.876 -1.76743 1.24863 0
M  V30 1051 C 103.471 0.894727 3.26772 0
M  V30 1052 C 102.03 0.600629 3.71577 0
M  V30 1053 C 101.177 1.10091 2.5451 0
M  V30 1054 H 104.128 1.03116 1.20635 0
M  V30 1055 H 104.149 0.206347 3.7994 0
M  V30 1056 H 103.661 1.97287 3.34215 0
M  V30 1057 H 101.762 -0.467284 3.69658 0
M  V30 1058 H 101.875 1.15863 4.64879 0
M  V30 1059 H 100.239 0.52162 2.49301 0
M  V30 1060 H 101.022 2.18591 2.64713 0
M  V30 1061 N 103.467 -1.45747 0.599634 0
M  V30 1062 C 104.4 -2.27547 -0.172552 0
M  V30 1063 C 105.378 -1.36657 -0.881116 0
M  V30 1064 O 106.562 -1.66081 -0.891595 0
M  V30 1065 C 103.689 -3.14829 -1.24903 0
M  V30 1066 C 102.735 -4.21603 -0.644465 0
M  V30 1067 S 103.568 -5.32754 0.541606 0
M  V30 1068 C 104.724 -6.23604 -0.535656 0
M  V30 1069 H 104.957 -2.92691 0.521468 0
M  V30 1070 H 102.49 -1.49473 0.386947 0
M  V30 1071 H 104.448 -3.65675 -1.86527 0
M  V30 1072 H 103.109 -2.48965 -1.91508 0
M  V30 1073 H 102.302 -4.82566 -1.45417 0
M  V30 1074 H 101.904 -3.73857 -0.103534 0
M  V30 1075 H 104.196 -6.62519 -1.41686 0
M  V30 1076 H 105.139 -7.0809 0.0376246 0
M  V30 1077 H 105.547 -5.58103 -0.84741 0
M  V30 1078 N 104.945 -0.338344 -1.53925 0
M  V30 1079 C 106.173 0.261298 -2.05243 0
M  V30 1080 C 106.588 1.44625 -1.21363 0
M  V30 1081 O 105.945 1.80811 -0.247736 0
M  V30 1082 C 105.996 0.681412 -3.5502 0
M  V30 1083 O 105.717 -0.456414 -4.35716 0
M  V30 1084 C 107.218 1.34232 -4.22489 0
M  V30 1085 H 104.438 0.0513685 -0.669031 0
M  V30 1086 H 106.982 -0.488822 -1.98572 0
M  V30 1087 H 105.137 1.38148 -3.61931 0
M  V30 1088 H 105.551 -0.122564 -5.24357 0
M  V30 1089 H 107.025 1.58708 -5.28693 0
M  V30 1090 H 107.502 2.29426 -3.74514 0
M  V30 1091 H 108.108 0.684424 -4.19757 0
M  V30 1092 N 106.423 1.57458 -0.0668435 0
M  V30 1093 C 107.834 1.80776 0.466558 0
M  V30 1094 C 108.185 0.980361 1.69951 0
M  V30 1095 O 107.31 0.201441 2.1546 0
M  V30 1096 C 107.905 3.27881 0.85321 0
M  V30 1097 C 106.464 3.52062 1.3315 0
M  V30 1098 C 105.611 2.75513 0.314264 0
M  V30 1099 H 108.562 1.5598 -0.292588 0
M  V30 1100 H 108.583 3.39659 1.715 0
M  V30 1101 H 108.095 3.88075 -0.0443439 0
M  V30 1102 H 106.196 2.97167 2.24772 0
M  V30 1103 H 106.309 4.60762 1.31285 0
M  V30 1104 H 104.673 2.42123 0.790492 0
M  V30 1105 H 105.456 3.38442 -0.575477 0
M  V30 1106 N 107.901 -0.206675 1.56239 0
M  V30 1107 C 108.811 -1.27686 1.96808 0
M  V30 1108 C 109.827 -1.50455 0.874035 0
M  V30 1109 O 111.003 -1.63295 1.17884 0
M  V30 1110 C 108.068 -2.60358 2.28942 0
M  V30 1111 C 107.129 -2.45762 3.51994 0
M  V30 1112 C 106.362 -3.72108 3.82585 0
M  V30 1113 O 106.585 -4.75776 3.14631 0
M  V30 1114 O 105.519 -3.6833 4.76043 0
M  V30 1115 H 109.345 -0.962593 2.88041 0
M  V30 1116 H 106.93 -0.410746 1.43643 0
M  V30 1117 H 108.812 -3.38687 2.50737 0
M  V30 1118 H 107.487 -2.91435 1.4088 0
M  V30 1119 H 106.394 -1.65584 3.35459 0
M  V30 1120 H 107.727 -2.19621 4.40486 0
M  V30 1121 N 109.379 -1.50304 -0.473955 0
M  V30 1122 C 110.327 -1.69482 -1.59307 0
M  V30 1123 C 111.321 -0.560669 -1.59853 0
M  V30 1124 O 112.527 -0.741087 -1.64036 0
M  V30 1125 H 108.902 -0.534892 -0.528578 0
M  V30 1126 H 110.873 -2.63364 -1.40293 0
M  V30 1127 C 109.622 -1.80354 -2.97267 0
M  V30 1128 H 108.945 -2.67012 -2.97564 0
M  V30 1129 H 110.385 -1.97798 -3.75036 0
M  V30 1130 C 108.844 -0.55448 -3.32306 0
M  V30 1131 O 109.374 0.307661 -4.0052 0
M  V30 1132 N 107.58 -0.409354 -2.87702 0
M  V30 1133 H 107.127 -1.11196 -2.32364 0
M  V30 1134 H 107.085 0.425223 -3.11511 0
M  V30 1135 N 110.857 0.726932 -1.39834 0
M  V30 1136 C 112.104 1.48664 -1.37496 0
M  V30 1137 C 112.432 1.94482 0.0264678 0
M  V30 1138 O 111.687 1.67692 1.00886 0
M  V30 1139 C 111.986 2.73495 -2.30077 0
M  V30 1140 C 111.652 2.46502 -3.77555 0
M  V30 1141 C 110.314 2.3885 -4.17737 0
M  V30 1142 C 112.666 2.23604 -4.70798 0
M  V30 1143 C 109.994 2.06352 -5.49214 0
M  V30 1144 C 112.346 1.92622 -6.02561 0
M  V30 1145 C 111.01 1.83444 -6.41798 0
M  V30 1146 H 110.28 0.544001 -0.503135 0
M  V30 1147 H 112.927 0.833657 -1.72402 0
M  V30 1148 H 111.232 3.43575 -1.88317 0
M  V30 1149 H 112.929 3.31549 -2.25558 0
M  V30 1150 H 109.519 2.5334 -3.45712 0
M  V30 1151 H 113.703 2.28479 -4.40581 0
M  V30 1152 H 108.959 1.97776 -5.78528 0
M  V30 1153 H 113.133 1.73914 -6.74334 0
M  V30 1154 H 110.76 1.58029 -7.43593 0
M  V30 1155 N 112.336 1.25143 0.95797 0
M  V30 1156 C 113.564 1.12424 1.73691 0
M  V30 1157 C 113.979 -0.322304 1.86029 0
M  V30 1158 O 113.336 -1.22186 1.35561 0
M  V30 1159 C 113.387 1.76933 3.15241 0
M  V30 1160 O 113.108 3.15932 3.03511 0
M  V30 1161 C 114.609 1.6995 4.09429 0
M  V30 1162 H 111.829 0.3923 0.544373 0
M  V30 1163 H 114.373 1.6544 1.20207 0
M  V30 1164 H 112.528 1.27895 3.6568 0
M  V30 1165 H 112.942 3.47598 3.9278 0
M  V30 1166 H 114.416 2.19753 5.06372 0
M  V30 1167 H 114.893 0.662619 4.34173 0
M  V30 1168 H 115.499 2.18461 3.64904 0
M  V30 1169 N 113.814 -1.1601 1.06675 0
M  V30 1170 C 115.039 -1.91068 0.806706 0
M  V30 1171 C 115.464 -1.77112 -0.633485 0
M  V30 1172 O 114.822 -1.09908 -1.44187 0
M  V30 1173 C 114.87 -3.39655 1.21106 0
M  V30 1174 O 113.974 -4.10893 0.352189 0
M  V30 1175 H 113.315 -0.595125 0.294486 0
M  V30 1176 H 115.845 -1.46955 1.42356 0
M  V30 1177 H 115.855 -3.90434 1.18428 0
M  V30 1178 H 114.53 -3.49132 2.26008 0
M  V30 1179 H 113.107 -3.70285 0.440868 0
M  V30 1180 N 115.292 -0.849877 -1.32721 0
M  V30 1181 C 116.532 -0.457146 -1.99222 0
M  V30 1182 C 116.896 0.968038 -1.6581 0
M  V30 1183 O 118.097 1.46507 -2.25364 0
M  V30 1184 C 116.368 -0.683966 -3.50794 0
M  V30 1185 S 117.927 -0.388095 -4.3708 0
M  V30 1186 H 114.745 -0.171464 -0.690015 0
M  V30 1187 H 117.347 -1.10155 -1.61512 0
M  V30 1188 H 116.051 -1.72038 -3.726 0
M  V30 1189 H 115.582 -0.0258086 -3.93392 0
M  V30 1190 H 117.597 0.787791 -4.89906 0
M  V30 1191 N 116.77 1.45427 -0.607355 0
M  V30 1192 C 118.018 2.01841 -0.102253 0
M  V30 1193 C 118.339 1.47832 1.27164 0
M  V30 1194 O 117.609 0.672497 1.83995 0
M  V30 1195 H 116.189 0.746188 -0.0348101 0
M  V30 1196 H 118.851 1.78229 -0.7887 0
M  V30 1197 H 117.947 3.12057 -0.0518585 0
M  V30 1198 N 118.248 0.346503 1.53744 0
M  V30 1199 C 119.495 -0.249104 2.00962 0
M  V30 1200 C 119.823 -1.5032 1.23426 0
M  V30 1201 O 119.078 -1.93217 0.310761 0
M  V30 1202 C 119.377 -0.605809 3.52228 0
M  V30 1203 C 119.043 0.551747 4.47512 0
M  V30 1204 C 117.705 0.86941 4.73281 0
M  V30 1205 C 120.057 1.32818 5.03993 0
M  V30 1206 C 117.385 1.96582 5.52786 0
M  V30 1207 C 119.737 2.41486 5.84694 0
M  V30 1208 C 118.401 2.73808 6.08757 0
M  V30 1209 H 117.671 -0.0911538 0.735372 0
M  V30 1210 H 120.318 0.475027 1.85515 0
M  V30 1211 H 118.623 -1.4107 3.65522 0
M  V30 1212 H 120.32 -1.07858 3.86222 0
M  V30 1213 H 116.91 0.294102 4.2759 0
M  V30 1214 H 121.094 1.09602 4.84047 0
M  V30 1215 H 116.35 2.22045 5.69654 0
M  V30 1216 H 120.524 3.02078 6.27473 0
M  V30 1217 H 118.151 3.58892 6.7015 0
M  V30 1218 N 119.726 -1.57421 0.075193 0
M  V30 1219 C 120.659 -2.08528 -0.926904 0
M  V30 1220 C 121.637 -0.991171 -1.28898 0
M  V30 1221 O 122.821 -1.26479 -1.39769 0
M  V30 1222 C 119.948 -2.54576 -2.23402 0
M  V30 1223 C 118.994 -3.75454 -2.02327 0
M  V30 1224 S 119.827 -5.19989 -1.27951 0
M  V30 1225 C 120.983 -5.69372 -2.59935 0
M  V30 1226 H 121.216 -2.932 -0.492048 0
M  V30 1227 H 118.749 -1.53785 -0.137651 0
M  V30 1228 H 120.707 -2.81767 -2.98526 0
M  V30 1229 H 119.368 -1.70166 -2.64012 0
M  V30 1230 H 118.561 -4.05675 -2.99071 0
M  V30 1231 H 118.163 -3.48654 -1.35339 0
M  V30 1232 H 120.455 -5.76424 -3.56008 0
M  V30 1233 H 121.398 -6.68207 -2.34319 0
M  V30 1234 H 121.806 -4.97205 -2.67296 0
M  V30 1235 N 121.204 0.198386 -1.56346 0
M  V30 1236 C 122.136 1.26987 -1.90806 0
M  V30 1237 C 123.149 1.41877 -0.798419 0
M  V30 1238 O 124.338 1.42362 -1.07682 0
M  V30 1239 C 121.438 2.64246 -2.12196 0
M  V30 1240 C 120.611 2.71007 -3.43328 0
M  V30 1241 C 119.67 3.89439 -3.5387 0
M  V30 1242 O 118.696 3.76695 -4.26719 0
M  V30 1243 N 119.898 5.04752 -2.86715 0
M  V30 1244 H 122.663 0.977433 -2.83313 0
M  V30 1245 H 120.224 0.388322 -1.57174 0
M  V30 1246 H 122.216 3.41896 -2.1654 0
M  V30 1247 H 120.786 2.85992 -1.26204 0
M  V30 1248 H 120.006 1.79657 -3.50881 0
M  V30 1249 H 121.294 2.72512 -4.29668 0
M  V30 1250 H 120.692 5.18004 -2.2735 0
M  V30 1251 H 119.249 5.8036 -2.96691 0
M  V30 1252 N 122.682 1.50554 0.465978 0
M  V30 1253 C 123.614 1.65949 1.58093 0
M  V30 1254 C 124.627 0.540827 1.53554 0
M  V30 1255 O 125.816 0.814187 1.5885 0
M  V30 1256 C 122.916 1.63261 2.96983 0
M  V30 1257 C 122.089 2.91245 3.26336 0
M  V30 1258 C 121.148 2.8113 4.44806 0
M  V30 1259 O 120.174 3.55086 4.44862 0
M  V30 1260 N 121.376 1.95032 5.46756 0
M  V30 1261 H 124.141 2.62122 1.45301 0
M  V30 1262 H 121.702 1.48082 0.65448 0
M  V30 1263 H 123.694 1.54101 3.74212 0
M  V30 1264 H 122.264 0.748032 3.03518 0
M  V30 1265 H 121.484 3.14493 2.37672 0
M  V30 1266 H 122.772 3.76022 3.42761 0
M  V30 1267 H 122.17 1.3427 5.49534 0
M  V30 1268 H 120.727 1.91772 6.2295 0
M  V30 1269 N 124.16 -0.719506 1.40217 0
M  V30 1270 C 125.409 -1.47486 1.37589 0
M  V30 1271 C 125.722 -1.9559 -0.0201568 0
M  V30 1272 O 126.928 -2.70973 -0.169049 0
M  V30 1273 C 125.384 -2.66575 2.41796 0
M  V30 1274 C 124.992 -2.25358 3.87192 0
M  V30 1275 C 126.736 -3.4433 2.48269 0
M  V30 1276 C 124.643 -3.41262 4.83005 0
M  V30 1277 H 123.573 -0.553901 0.511576 0
M  V30 1278 H 126.224 -0.783427 1.65936 0
M  V30 1279 H 124.606 -3.3787 2.06543 0
M  V30 1280 H 125.78 -1.61509 4.31569 0
M  V30 1281 H 124.095 -1.60657 3.84159 0
M  V30 1282 H 126.692 -4.30569 3.17041 0
M  V30 1283 H 127.035 -3.87872 1.51198 0
M  V30 1284 H 127.568 -2.80076 2.82493 0
M  V30 1285 H 124.307 -3.02755 5.81394 0
M  V30 1286 H 123.827 -4.0404 4.43297 0
M  V30 1287 H 125.506 -4.07383 5.02641 0
M  V30 1288 N 125.638 -1.25649 -0.95132 0
M  V30 1289 C 126.57 -1.02112 -2.05197 0
M  V30 1290 C 127.583 0.0150571 -1.62793 0
M  V30 1291 O 128.772 -0.223874 -1.77091 0
M  V30 1292 C 125.872 -0.522361 -3.3485 0
M  V30 1293 C 125.045 -1.62546 -4.06076 0
M  V30 1294 C 124.104 -1.12649 -5.14001 0
M  V30 1295 O 123.13 -1.82156 -5.39266 0
M  V30 1296 N 124.332 0.03047 -5.80492 0
M  V30 1297 H 127.097 -1.96885 -2.25957 0
M  V30 1298 H 124.658 -1.16899 -1.1201 0
M  V30 1299 H 126.65 -0.172961 -4.0433 0
M  V30 1300 H 125.22 0.33151 -3.10837 0
M  V30 1301 H 124.44 -2.14628 -3.30649 0
M  V30 1302 H 125.728 -2.36644 -4.50419 0
M  V30 1303 H 125.126 0.611169 -5.62389 0
M  V30 1304 H 123.683 0.320875 -6.5101 0
M  V30 1305 N 127.117 1.15442 -1.07289 0
M  V30 1306 C 128.064 2.20161 -0.692653 0
M  V30 1307 C 129.034 1.63073 0.31564 0
M  V30 1308 O 130.219 1.89725 0.202235 0
M  V30 1309 C 127.359 3.44967 -0.0959509 0
M  V30 1310 C 126.472 4.16256 -1.15564 0
M  V30 1311 C 125.607 5.28609 -0.524011 0
M  V30 1312 C 124.646 5.91715 -1.56653 0
M  V30 1313 N 123.783 6.9554 -0.957531 0
M  V30 1314 H 128.623 2.52037 -1.59002 0
M  V30 1315 H 126.16 1.2378 -0.794798 0
M  V30 1316 H 128.118 4.16341 0.267628 0
M  V30 1317 H 126.748 3.1361 0.764772 0
M  V30 1318 H 125.8 3.43385 -1.6368 0
M  V30 1319 H 127.112 4.59268 -1.94613 0
M  V30 1320 H 126.266 6.06604 -0.108032 0
M  V30 1321 H 125.005 4.86787 0.29825 0
M  V30 1322 H 124.01 5.12433 -1.9923 0
M  V30 1323 H 125.235 6.35614 -2.39107 0
M  V30 1324 H 123.181 6.55814 -0.156162 0
M  V30 1325 H 123.098 7.36977 -1.68526 0
M  V30 1326 H 124.366 7.77435 -0.567032 0
M  V30 1327 N 128.595 0.856903 1.32268 0
M  V30 1328 C 129.843 0.460474 1.96784 0
M  V30 1329 C 130.164 -0.987701 1.68135 0
M  V30 1330 O 129.434 -1.69058 0.989765 0
M  V30 1331 H 128.014 0.167289 0.728027 0
M  V30 1332 H 130.676 1.09383 1.61312 0
M  V30 1333 H 129.772 0.60739 3.06133 0
M  V30 1334 N 130.073 -1.45103 0.615059 0
M  V30 1335 C 131.298 -2.07064 0.117988 0
M  V30 1336 C 131.723 -1.4554 -1.19163 0
M  V30 1337 O 131.081 -0.550855 -1.72729 0
M  V30 1338 C 131.129 -3.606 -0.000288387 0
M  V30 1339 O 130.233 -3.98847 -1.04856 0
M  V30 1340 H 129.574 -0.659467 0.0774581 0
M  V30 1341 H 132.104 -1.86236 0.847186 0
M  V30 1342 H 132.114 -4.07529 -0.196091 0
M  V30 1343 H 130.789 -4.04765 0.955932 0
M  V30 1344 H 129.366 -3.63577 -0.828619 0
M  V30 1345 N 131.551 -0.354651 -1.53558 0
M  V30 1346 C 132.781 0.239167 -2.05211 0
M  V30 1347 C 133.189 1.43879 -1.22863 0
M  V30 1348 O 132.532 1.81857 -0.259565 0
M  V30 1349 C 132.594 0.707251 -3.52474 0
M  V30 1350 C 132.258 -0.374212 -4.55465 0
M  V30 1351 C 133.255 -1.22054 -5.0537 0
M  V30 1352 C 130.94 -0.531323 -4.99482 0
M  V30 1353 C 132.934 -2.20942 -5.97882 0
M  V30 1354 C 130.621 -1.52358 -5.91802 0
M  V30 1355 C 131.619 -2.36108 -6.40892 0
M  V30 1356 O 131.307 -3.33643 -7.31394 0
M  V30 1357 H 131.039 0.0479716 -0.674296 0
M  V30 1358 H 133.593 -0.508121 -1.99016 0
M  V30 1359 H 131.823 1.50596 -3.56171 0
M  V30 1360 H 133.512 1.22285 -3.87042 0
M  V30 1361 H 134.278 -1.1103 -4.7212 0
M  V30 1362 H 130.157 0.110738 -4.60867 0
M  V30 1363 H 133.701 -2.86348 -6.36121 0
M  V30 1364 H 129.598 -1.63434 -6.24467 0
M  V30 1365 H 130.366 -3.29244 -7.4936 0
M  V30 1366 N 133.029 1.57378 -0.0835403 0
M  V30 1367 C 134.44 1.81261 0.447358 0
M  V30 1368 C 134.791 0.998331 1.68902 0
M  V30 1369 O 133.916 0.224282 2.15235 0
M  V30 1370 C 134.511 3.28767 0.818386 0
M  V30 1371 C 133.07 3.53455 1.29409 0
M  V30 1372 C 132.217 2.75831 0.285024 0
M  V30 1373 H 135.168 1.5566 -0.309115 0
M  V30 1374 H 135.189 3.41459 1.67887 0
M  V30 1375 H 134.701 3.88006 -0.0855019 0
M  V30 1376 H 132.802 2.99534 2.21608 0
M  V30 1377 H 132.915 4.62128 1.2639 0
M  V30 1378 H 131.279 2.42947 0.764767 0
M  V30 1379 H 132.062 3.37813 -0.611341 0
M  V30 1380 N 134.507 -0.190092 1.56449 0
M  V30 1381 C 135.784 -0.935886 1.71757 0
M  V30 1382 C 136.164 -2.01173 0.639726 0
M  V30 1383 O 135.512 -2.25827 -0.348502 0
M  V30 1384 C 135.722 -1.51775 3.1427 0
M  V30 1385 C 137.07 -1.99794 3.74656 0
M  V30 1386 O 138.094 -1.61607 3.1743 0
M  V30 1387 O 136.953 -2.70079 4.751 0
M  V30 1388 H 134.047 -0.439229 0.700719 0
M  V30 1389 H 136.593 -0.179395 1.68749 0
M  V30 1390 H 135.365 -0.742505 3.84191 0
M  V30 1391 H 134.988 -2.33894 3.21527 0
M  V30 1392 N 135.985 -1.50799 -0.457987 0
M  V30 1393 C 136.948 -1.7005 -1.53674 0
M  V30 1394 C 137.948 -0.570881 -1.50325 0
M  V30 1395 O 139.138 -0.838126 -1.52712 0
M  V30 1396 C 136.27 -1.73788 -2.93276 0
M  V30 1397 H 137.463 -2.66306 -1.37917 0
M  V30 1398 H 135.016 -1.40477 -0.685271 0
M  V30 1399 H 135.751 -0.792717 -3.14462 0
M  V30 1400 H 135.536 -2.55864 -2.97113 0
M  V30 1401 H 137.026 -1.90591 -3.71571 0
M  V30 1402 N 137.463 0.71206 -1.40597 0
M  V30 1403 C 138.712 1.46754 -1.38369 0
M  V30 1404 C 139.025 1.95598 0.0097839 0
M  V30 1405 O 140.231 2.71059 0.154677 0
M  V30 1406 C 138.687 2.65289 -2.43207 0
M  V30 1407 C 138.295 2.23301 -3.88382 0
M  V30 1408 C 140.039 3.43008 -2.50091 0
M  V30 1409 C 137.946 3.38696 -4.84808 0
M  V30 1410 H 136.876 0.55118 -0.514506 0
M  V30 1411 H 139.527 0.774616 -1.66349 0
M  V30 1412 H 137.909 3.36769 -2.08332 0
M  V30 1413 H 139.083 1.59218 -4.32419 0
M  V30 1414 H 137.398 1.58618 -3.85006 0
M  V30 1415 H 139.995 4.28881 -3.1932 0
M  V30 1416 H 140.338 3.87065 -1.53253 0
M  V30 1417 H 140.871 2.78574 -2.83974 0
M  V30 1418 H 137.61 2.99668 -5.82992 0
M  V30 1419 H 137.13 4.01683 -4.45433 0
M  V30 1420 H 138.809 4.04712 -5.04794 0
M  V30 1421 N 138.941 1.26152 0.944643 0
M  V30 1422 C 139.871 1.09902 2.06019 0
M  V30 1423 C 140.852 0.00519538 1.70099 0
M  V30 1424 O 142.037 0.176583 1.93396 0
M  V30 1425 C 139.167 0.727562 3.39594 0
M  V30 1426 C 138.121 1.77274 3.89561 0
M  V30 1427 C 137.447 1.25569 5.19747 0
M  V30 1428 C 138.747 3.17357 4.14827 0
M  V30 1429 H 140.441 2.03217 2.19871 0
M  V30 1430 H 137.987 0.978452 1.05652 0
M  V30 1431 H 139.94 0.600777 4.17095 0
M  V30 1432 H 138.664 -0.241287 3.25707 0
M  V30 1433 H 137.323 1.88814 3.14237 0
M  V30 1434 H 136.971 0.276783 5.02238 0
M  V30 1435 H 136.671 1.95433 5.54148 0
M  V30 1436 H 138.195 1.1415 5.99835 0
M  V30 1437 H 139.609 3.08914 4.82954 0
M  V30 1438 H 138.006 3.84781 4.60504 0
M  V30 1439 H 139.076 3.63673 3.20734 0
M  V30 1440 N 140.419 -1.14872 1.07899 0
M  V30 1441 C 141.351 -2.19425 0.662231 0
M  V30 1442 C 142.364 -1.60231 -0.288079 0
M  V30 1443 O 143.553 -1.78336 -0.076534 0
M  V30 1444 C 140.653 -3.38867 -0.0470695 0
M  V30 1445 C 139.826 -4.27597 0.920831 0
M  V30 1446 C 138.885 -5.25616 0.247805 0
M  V30 1447 O 137.911 -5.62189 0.890599 0
M  V30 1448 N 139.113 -5.71746 -1.00435 0
M  V30 1449 H 141.878 -2.55797 1.56166 0
M  V30 1450 H 139.439 -1.30042 0.964404 0
M  V30 1451 H 141.431 -4.01497 -0.50813 0
M  V30 1452 H 140.001 -3.00864 -0.848523 0
M  V30 1453 H 139.221 -3.61982 1.56087 0
M  V30 1454 H 140.509 -4.83748 1.57688 0
M  V30 1455 H 139.907 -5.44153 -1.54642 0
M  V30 1456 H 138.464 -6.36389 -1.40899 0
M  V30 1457 N 141.898 -0.863906 -1.31812 0
M  V30 1458 C 142.861 -0.320212 -2.26952 0
M  V30 1459 C 143.861 0.525369 -1.51975 0
M  V30 1460 O 145.051 0.335547 -1.70938 0
M  V30 1461 C 142.183 0.545919 -3.365 0
M  V30 1462 H 143.376 -1.16004 -2.76556 0
M  V30 1463 H 140.929 -0.638995 -1.42641 0
M  V30 1464 H 141.664 1.40718 -2.92179 0
M  V30 1465 H 141.449 -0.0594674 -3.92055 0
M  V30 1466 H 142.939 0.918796 -4.07367 0
M  V30 1467 N 143.376 1.44774 -0.622745 0
M  V30 1468 C 144.308 2.28856 0.125485 0
M  V30 1469 C 145.321 1.40811 0.817069 0
M  V30 1470 O 146.51 1.65044 0.679918 0
M  V30 1471 C 143.61 3.16963 1.19949 0
M  V30 1472 C 142.783 4.33374 0.592064 0
M  V30 1473 C 141.842 5.02577 1.55893 0
M  V30 1474 O 140.868 5.58873 1.07933 0
M  V30 1475 N 142.07 5.03256 2.89334 0
M  V30 1476 H 144.835 2.93713 -0.596068 0
M  V30 1477 H 142.396 1.55129 -0.463303 0
M  V30 1478 H 144.388 3.60123 1.84644 0
M  V30 1479 H 142.958 2.53913 1.82337 0
M  V30 1480 H 142.178 3.93509 -0.233322 0
M  V30 1481 H 143.466 5.08527 0.166738 0
M  V30 1482 H 142.864 4.58836 3.30887 0
M  V30 1483 H 141.421 5.50232 3.49412 0
M  V30 1484 N 144.854 0.36279 1.53368 0
M  V30 1485 C 145.817 -0.472679 2.24273 0
M  V30 1486 C 146.817 -1.012 1.24961 0
M  V30 1487 O 148.007 -0.898194 1.49259 0
M  V30 1488 C 145.139 -1.66039 2.97731 0
M  V30 1489 H 146.332 0.14773 2.99536 0
M  V30 1490 H 143.885 0.114434 1.55881 0
M  V30 1491 H 144.62 -2.31896 2.26704 0
M  V30 1492 H 144.405 -1.28066 3.70596 0
M  V30 1493 H 145.895 -2.25252 3.51641 0
M  V30 1494 N 146.332 -1.57332 0.0918853 0
M  V30 1495 C 147.295 -2.12708 -0.85369 0
M  V30 1496 C 148.295 -1.05561 -1.213 0
M  V30 1497 O 149.485 -1.31461 -1.14296 0
M  V30 1498 C 146.617 -2.64503 -2.15061 0
M  V30 1499 H 147.81 -2.97573 -0.3729 0
M  V30 1500 H 145.363 -1.55509 -0.157072 0
M  V30 1501 H 146.098 -1.83149 -2.67632 0
M  V30 1502 H 145.883 -3.4284 -1.90272 0
M  V30 1503 H 147.373 -3.07351 -2.82711 0
M  V30 1504 N 147.81 0.181792 -1.56548 0
M  V30 1505 C 149.087 0.926765 -1.72251 0
M  V30 1506 C 149.467 2.00831 -0.650386 0
M  V30 1507 O 148.815 2.26008 0.336521 0
M  V30 1508 C 149.025 1.50106 -3.1507 0
M  V30 1509 C 150.373 1.97805 -3.75711 0
M  V30 1510 O 151.397 1.59922 -3.18282 0
M  V30 1511 O 150.256 2.67555 -4.76525 0
M  V30 1512 H 147.35 0.435506 -0.703039 0
M  V30 1513 H 149.896 0.170443 -1.68842 0
M  V30 1514 H 148.668 0.72212 -3.84579 0
M  V30 1515 H 148.291 2.32186 -3.22763 0
M  V30 1516 N 149.288 1.51039 0.449983 0
M  V30 1517 C 150.235 1.71439 1.54523 0
M  V30 1518 C 151.205 0.555871 1.56522 0
M  V30 1519 O 152.39 0.788871 1.73728 0
M  V30 1520 C 149.53 1.83384 2.92343 0
M  V30 1521 C 148.643 3.10873 2.9997 0
M  V30 1522 C 147.778 3.13488 4.28834 0
M  V30 1523 C 146.817 4.35343 4.30282 0
M  V30 1524 N 145.954 4.35579 5.5065 0
M  V30 1525 H 150.794 2.64934 1.36433 0
M  V30 1526 H 148.331 1.31312 0.662982 0
M  V30 1527 H 150.289 1.88291 3.72293 0
M  V30 1528 H 148.919 0.933086 3.0902 0
M  V30 1529 H 147.971 3.15336 2.12761 0
M  V30 1530 H 149.283 4.00814 2.96901 0
M  V30 1531 H 148.437 3.17241 5.17149 0
M  V30 1532 H 147.176 2.21414 4.34543 0
M  V30 1533 H 146.181 4.3178 3.40362 0
M  V30 1534 H 147.406 5.28668 4.26248 0
M  V30 1535 H 145.352 3.46369 5.57104 0
M  V30 1536 H 145.269 5.19313 5.49409 0
M  V30 1537 H 146.537 4.43507 6.41032 0
M  V30 1538 N 150.766 -0.704594 1.40972 0
M  V30 1539 C 152.015 -1.46018 1.39146 0
M  V30 1540 C 152.328 -1.956 0.000589254 0
M  V30 1541 O 153.534 -2.71137 -0.1403 0
M  V30 1542 C 151.99 -2.63996 2.4461 0
M  V30 1543 C 151.598 -2.21238 3.89561 0
M  V30 1544 C 153.342 -3.41677 2.51907 0
M  V30 1545 C 151.249 -3.3612 4.86598 0
M  V30 1546 H 150.179 -0.548444 0.517422 0
M  V30 1547 H 152.83 -0.765784 1.66757 0
M  V30 1548 H 151.212 -3.3566 2.10115 0
M  V30 1549 H 152.386 -1.56923 4.33257 0
M  V30 1550 H 150.701 -1.56574 3.85841 0
M  V30 1551 H 153.298 -4.27182 3.2159 0
M  V30 1552 H 153.641 -3.86247 1.55303 0
M  V30 1553 H 154.174 -2.77064 2.85448 0
M  V30 1554 H 150.913 -2.96572 5.84573 0
M  V30 1555 H 150.433 -3.99315 4.47557 0
M  V30 1556 H 152.112 -4.02029 5.06934 0
M  V30 1557 N 152.244 -1.26651 -0.937939 0
M  V30 1558 C 153.194 -1.05156 -2.02302 0
M  V30 1559 C 154.178 0.0171233 -1.60891 0
M  V30 1560 O 155.37 -0.200213 -1.75864 0
M  V30 1561 C 152.499 -0.689962 -3.36295 0
M  V30 1562 C 151.585 -1.79626 -3.84181 0
M  V30 1563 N 151.976 -3.03422 -4.04684 0
M  V30 1564 C 150.274 -1.6806 -4.13124 0
M  V30 1565 C 150.975 -3.75345 -4.444 0
M  V30 1566 N 149.951 -3.03051 -4.51288 0
M  V30 1567 H 153.753 -1.99117 -2.1617 0
M  V30 1568 H 151.267 -1.17216 -1.12402 0
M  V30 1569 H 153.264 -0.517112 -4.13681 0
M  V30 1570 H 151.924 0.242139 -3.23796 0
M  V30 1571 H 152.935 -3.39293 -3.91281 0
M  V30 1572 H 149.612 -0.818629 -4.09396 0
M  V30 1573 H 151.002 -4.81691 -4.68427 0
M  V30 1574 N 153.722 1.14298 -1.08507 0
M  V30 1575 C 154.947 1.8976 -0.837001 0
M  V30 1576 C 155.372 1.78097 0.605228 0
M  V30 1577 O 154.73 1.12188 1.4242 0
M  V30 1578 C 154.778 3.37685 -1.26495 0
M  V30 1579 O 153.882 4.10281 -0.417514 0
M  V30 1580 H 153.223 0.590365 -0.303917 0
M  V30 1581 H 155.753 1.44672 -1.44676 0
M  V30 1582 H 155.763 3.88501 -1.24625 0
M  V30 1583 H 154.438 3.45492 -2.31534 0
M  V30 1584 H 153.015 3.69536 -0.499722 0
M  V30 1585 N 155.201 0.870884 1.31352 0
M  V30 1586 C 156.426 0.495957 2.01383 0
M  V30 1587 C 156.851 -0.904324 1.64935 0
M  V30 1588 O 156.209 -1.59687 0.858466 0
M  V30 1589 C 156.257 0.661433 3.54482 0
M  V30 1590 O 155.361 -0.298851 4.11316 0
M  V30 1591 H 154.702 0.197158 0.634054 0
M  V30 1592 H 157.232 1.17455 1.67527 0
M  V30 1593 H 157.242 0.555072 4.04207 0
M  V30 1594 H 155.917 1.68246 3.8035 0
M  V30 1595 H 154.494 -0.147368 3.72609 0
M  V30 1596 N 156.679 -1.44442 0.630414 0
M  V30 1597 C 157.926 -2.02052 0.134617 0
M  V30 1598 C 158.254 -1.49576 -1.24327 0
M  V30 1599 O 157.509 -0.669806 -1.83881 0
M  V30 1600 C 157.808 -3.57332 0.0697835 0
M  V30 1601 C 157.474 -4.29058 1.38635 0
M  V30 1602 C 156.136 -4.4837 1.74694 0
M  V30 1603 C 158.488 -4.69872 2.25543 0
M  V30 1604 C 155.816 -5.05756 2.97369 0
M  V30 1605 C 158.168 -5.28616 3.47487 0
M  V30 1606 C 156.832 -5.46147 3.8377 0
M  V30 1607 H 156.102 -0.739361 0.0492598 0
M  V30 1608 H 158.749 -1.73217 0.816586 0
M  V30 1609 H 157.054 -3.85577 -0.695553 0
M  V30 1610 H 158.751 -3.99637 -0.330344 0
M  V30 1611 H 155.341 -4.14357 1.09574 0
M  V30 1612 H 159.525 -4.54666 1.98979 0
M  V30 1613 H 154.781 -5.17515 3.25558 0
M  V30 1614 H 158.955 -5.59192 4.15063 0
M  V30 1615 H 156.582 -5.9038 4.7891 0
M  V30 1616 N 158.157 -0.370918 -1.53173 0
M  V30 1617 C 159.573 -0.0200818 -1.59587 0
M  V30 1618 C 159.773 1.46279 -1.38581 0
M  V30 1619 O 158.829 2.22506 -1.19363 0
M  V30 1620 C 160.142 -0.4808 -2.96831 0
M  V30 1621 C 161.69 -0.435477 -3.09956 0
M  V30 1622 C 162.165 -0.872092 -4.4962 0
M  V30 1623 N 163.656 -0.827364 -4.55751 0
M  V30 1624 C 164.391 -1.13683 -5.62018 0
M  V30 1625 N 163.887 -1.51584 -6.76014 0
M  V30 1626 N 165.68 -1.05927 -5.52029 0
M  V30 1627 H 157.831 -1.33652 -1.65079 0
M  V30 1628 H 160.094 -0.546634 -0.774529 0
M  V30 1629 H 159.8 -1.51577 -3.1736 0
M  V30 1630 H 159.674 0.129796 -3.76977 0
M  V30 1631 H 162.061 0.590371 -2.89134 0
M  V30 1632 H 162.142 -1.08164 -2.31806 0
M  V30 1633 H 161.786 -1.89608 -4.71181 0
M  V30 1634 H 161.716 -0.203127 -5.26208 0
M  V30 1635 H 164.207 -0.548216 -3.73902 0
M  V30 1636 H 164.52 -1.73609 -7.53047 0
M  V30 1637 H 162.865 -1.55454 -6.77391 0
M  V30 1638 H 166.056 -0.762321 -4.61851 0
M  V30 1639 H 166.229 -1.30378 -6.34749 0
M  V30 1640 N 159.635 1.57281 -0.100228 0
M  V30 1641 C 160.86 1.99302 0.573881 0
M  V30 1642 C 161.285 0.979059 1.60611 0
M  V30 1643 O 160.643 -0.0517803 1.81226 0
M  V30 1644 C 160.691 3.40274 1.19358 0
M  V30 1645 O 159.795 3.41676 2.30935 0
M  V30 1646 H 159.136 0.647944 0.145138 0
M  V30 1647 H 161.666 2.03779 -0.183156 0
M  V30 1648 H 161.676 3.78078 1.53365 0
M  V30 1649 H 160.351 4.13594 0.437385 0
M  V30 1650 H 158.928 3.15672 1.98509 0
M  V30 1651 N 161.113 -0.173488 1.56642 0
M  V30 1652 C 162.043 -1.2171 1.99271 0
M  V30 1653 C 163.024 -1.46289 0.867959 0
M  V30 1654 O 164.209 -1.5766 1.13388 0
M  V30 1655 C 161.339 -2.55651 2.35074 0
M  V30 1656 C 160.293 -2.45645 3.50489 0
M  V30 1657 C 159.619 -3.84056 3.72028 0
M  V30 1658 C 160.919 -1.96302 4.84007 0
M  V30 1659 H 162.613 -0.86275 2.867 0
M  V30 1660 H 160.159 -0.413571 1.37933 0
M  V30 1661 H 162.112 -3.2886 2.63494 0
M  V30 1662 H 160.836 -2.92869 1.44552 0
M  V30 1663 H 159.495 -1.7489 3.22194 0
M  V30 1664 H 159.143 -4.18664 2.788 0
M  V30 1665 H 158.843 -3.7823 4.49684 0
M  V30 1666 H 160.367 -4.58854 4.02846 0
M  V30 1667 H 161.781 -2.59284 5.11317 0
M  V30 1668 H 160.178 -2.01429 5.65284 0
M  V30 1669 H 161.248 -0.917226 4.76146 0
M  V30 1670 N 162.591 -1.51276 -0.441967 0
M  V30 1671 C 163.816 -1.67799 -1.21895 0
M  V30 1672 C 164.241 -0.372864 -1.84367 0
M  V30 1673 O 163.599 0.666501 -1.68604 0
M  V30 1674 C 163.647 -2.79199 -2.28211 0
M  V30 1675 O 162.751 -2.42479 -3.33583 0
M  V30 1676 H 162.092 -0.559649 -0.357336 0
M  V30 1677 H 164.622 -1.97815 -0.522522 0
M  V30 1678 H 164.632 -3.03146 -2.73069 0
M  V30 1679 H 163.307 -3.73906 -1.82118 0
M  V30 1680 H 161.884 -2.29087 -2.94234 0
M  V30 1681 N 164.069 0.697108 -1.41344 0
M  V30 1682 C 165.294 1.49096 -1.44171 0
M  V30 1683 C 165.719 1.88038 -0.0481568 0
M  V30 1684 O 165.077 1.54525 0.948243 0
M  V30 1685 C 165.125 2.73088 -2.3549 0
M  V30 1686 O 164.229 3.70514 -1.81088 0
M  V30 1687 H 163.57 0.448801 -0.489361 0
M  V30 1688 H 166.1 0.856992 -1.85787 0
M  V30 1689 H 166.11 3.21413 -2.51312 0
M  V30 1690 H 164.785 2.44081 -3.36745 0
M  V30 1691 H 163.362 3.29441 -1.74708 0
M  V30 1692 N 165.547 1.27147 0.931209 0
M  V30 1693 C 166.51 1.09615 2.01289 0
M  V30 1694 C 167.51 0.0412581 1.60747 0
M  V30 1695 O 168.7 0.285545 1.71844 0
M  V30 1696 C 165.832 0.669447 3.34262 0
M  V30 1697 H 167.025 2.05662 2.18273 0
M  V30 1698 H 164.578 1.09885 1.11153 0
M  V30 1699 H 165.313 -0.292572 3.22978 0
M  V30 1700 H 165.098 1.43127 3.65044 0
M  V30 1701 H 166.588 0.568921 4.13706 0
M  V30 1702 N 167.025 -1.13721 1.09112 0
M  V30 1703 C 168.274 -1.84275 0.82009 0
M  V30 1704 C 168.587 -1.84253 -0.656509 0
M  V30 1705 O 169.793 -2.50668 -1.04296 0
M  V30 1706 C 168.249 -3.30825 1.41714 0
M  V30 1707 C 167.857 -3.39244 2.92605 0
M  V30 1708 C 169.601 -4.06443 1.22492 0
M  V30 1709 C 167.508 -4.80047 3.45411 0
M  V30 1710 H 166.438 -0.690387 0.30312 0
M  V30 1711 H 169.089 -1.28146 1.31343 0
M  V30 1712 H 167.471 -3.86737 0.851498 0
M  V30 1713 H 168.645 -2.93344 3.55367 0
M  V30 1714 H 166.96 -2.77088 3.10823 0
M  V30 1715 H 169.557 -5.10387 1.59402 0
M  V30 1716 H 169.9 -4.15972 0.165299 0
M  V30 1717 H 170.433 -3.56852 1.75788 0
M  V30 1718 H 167.172 -4.75709 4.50978 0
M  V30 1719 H 166.692 -5.26455 2.87411 0
M  V30 1720 H 168.371 -5.48957 3.42425 0
M  V30 1721 N 168.503 -0.877838 -1.30888 0
M  V30 1722 C 169.451 -0.328662 -2.30266 0
M  V30 1723 C 170.445 0.560496 -1.59859 0
M  V30 1724 O 171.651 0.445722 -1.74394 0
M  V30 1725 H 168.026 -0.0876142 -0.746879 0
M  V30 1726 H 169.997 -1.18061 -2.74051 0
M  V30 1727 C 168.746 0.448071 -3.44801 0
M  V30 1728 H 168.069 -0.226859 -3.99156 0
M  V30 1729 H 169.509 0.797541 -4.16432 0
M  V30 1730 C 167.968 1.64239 -2.94155 0
M  V30 1731 O 168.498 2.74175 -2.93583 0
M  V30 1732 N 166.704 1.47716 -2.50256 0
M  V30 1733 H 166.251 0.582821 -2.5092 0
M  V30 1734 H 166.209 2.27765 -2.16727 0
M  V30 1735 N 169.982 1.44106 -0.638065 0
M  V30 1736 C 170.945 2.29138 0.0531013 0
M  V30 1737 C 171.945 1.41409 0.765506 0
M  V30 1738 O 173.135 1.63206 0.609046 0
M  V30 1739 C 170.267 3.23144 1.08584 0
M  V30 1740 H 171.46 2.91739 -0.694883 0
M  V30 1741 H 169.013 1.51134 -0.398538 0
M  V30 1742 H 169.748 2.65408 1.86357 0
M  V30 1743 H 169.533 3.87804 0.578852 0
M  V30 1744 H 171.023 3.87004 1.56899 0
M  V30 1745 N 171.46 0.379036 1.52974 0
M  V30 1746 C 172.685 -0.209353 2.06341 0
M  V30 1747 C 173.11 -1.40583 1.24972 0
M  V30 1748 O 172.468 -1.79246 0.272155 0
M  V30 1749 C 172.516 -0.567786 3.56102 0
M  V30 1750 O 171.62 -1.66318 3.77375 0
M  V30 1751 H 170.961 -0.0272919 0.663439 0
M  V30 1752 H 173.491 0.543536 1.97248 0
M  V30 1753 H 173.501 -0.835003 3.99364 0
M  V30 1754 H 172.176 0.307013 4.14765 0
M  V30 1755 H 170.753 -1.39048 3.46006 0
M  V30 1756 N 172.938 -1.57226 0.108567 0
M  V30 1757 C 174.166 -1.99179 -0.559954 0
M  V30 1758 C 174.581 -0.988022 -1.60884 0
M  V30 1759 O 173.938 0.0205512 -1.82488 0
M  V30 1760 C 173.989 -3.41159 -1.19552 0
M  V30 1761 O 173.71 -4.37694 -0.188577 0
M  V30 1762 C 175.211 -3.98188 -1.94837 0
M  V30 1763 H 172.431 -0.654228 -0.149088 0
M  V30 1764 H 174.975 -2.03598 0.19183 0
M  V30 1765 H 173.13 -3.37711 -1.89815 0
M  V30 1766 H 173.544 -5.20469 -0.649014 0
M  V30 1767 H 175.018 -4.99644 -2.34648 0
M  V30 1768 H 175.495 -3.3675 -2.81951 0
M  V30 1769 H 176.101 -4.0515 -1.2936 0
M  V30 1770 N 174.416 0.165178 -1.56732 0
M  V30 1771 C 175.664 0.879068 -1.8198 0
M  V30 1772 C 175.985 1.82514 -0.686561 0
M  V30 1773 O 175.255 1.93694 0.293146 0
M  V30 1774 H 173.835 0.327608 -0.671329 0
M  V30 1775 H 176.497 0.163526 -1.94213 0
M  V30 1776 H 175.593 1.45228 -2.76252 0
M  V30 1777 N 175.894 1.51508 0.433938 0
M  V30 1778 C 176.842 1.73646 1.54757 0
M  V30 1779 C 177.836 0.602854 1.5831 0
M  V30 1780 O 179.042 0.784318 1.62014 0
M  V30 1781 H 175.417 0.548718 0.51421 0
M  V30 1782 H 177.388 2.66991 1.33261 0
M  V30 1783 C 176.137 1.88172 2.92381 0
M  V30 1784 H 175.46 2.74808 2.90381 0
M  V30 1785 H 176.9 2.07672 3.6966 0
M  V30 1786 C 175.359 0.64239 3.30719 0
M  V30 1787 O 175.889 -0.201362 4.01195 0
M  V30 1788 N 174.095 0.485489 2.86516 0
M  V30 1789 H 173.642 1.17318 2.29334 0
M  V30 1790 H 173.6 -0.342482 3.12529 0
M  V30 1791 N 177.372 -0.689602 1.41712 0
M  V30 1792 C 178.602 -1.47613 1.44548 0
M  V30 1793 C 179.01 -1.89132 0.0509034 0
M  V30 1794 O 178.353 -1.57741 -0.94146 0
M  V30 1795 C 178.415 -2.76596 2.2964 0
M  V30 1796 C 178.079 -2.57245 3.77722 0
M  V30 1797 C 179.076 -2.22804 4.69739 0
M  V30 1798 C 176.761 -2.727 4.2183 0
M  V30 1799 C 178.755 -2.04064 6.03851 0
M  V30 1800 C 176.442 -2.53576 5.56006 0
M  V30 1801 C 177.44 -2.1931 6.46832 0
M  V30 1802 O 177.128 -2.00359 7.78532 0
M  V30 1803 H 176.86 -0.461227 0.494212 0
M  V30 1804 H 179.414 -0.856045 1.86711 0
M  V30 1805 H 177.644 -3.41033 1.82301 0
M  V30 1806 H 179.333 -3.38424 2.24107 0
M  V30 1807 H 180.099 -2.10473 4.36951 0
M  V30 1808 H 175.978 -2.98353 3.51435 0
M  V30 1809 H 179.522 -1.77241 6.74708 0
M  V30 1810 H 175.419 -2.65499 5.88371 0
M  V30 1811 H 176.187 -2.15075 7.89737 0
M  V30 1812 N 178.85 -1.27639 -0.924453 0
M  V30 1813 C 179.78 -1.13166 -2.04244 0
M  V30 1814 C 180.761 -0.032256 -1.70069 0
M  V30 1815 O 181.946 -0.207328 -1.9309 0
M  V30 1816 C 179.076 -0.781496 -3.38393 0
M  V30 1817 C 178.03 -1.83449 -3.86692 0
M  V30 1818 C 177.356 -1.33822 -5.17683 0
M  V30 1819 C 178.656 -3.23917 -4.09726 0
M  V30 1820 H 180.35 -2.06689 -2.1661 0
M  V30 1821 H 177.896 -0.995136 -1.04082 0
M  V30 1822 H 179.849 -0.667057 -4.16087 0
M  V30 1823 H 178.573 0.189439 -3.2605 0
M  V30 1824 H 177.232 -1.93789 -3.11193 0
M  V30 1825 H 176.88 -0.35665 -5.01734 0
M  V30 1826 H 176.58 -2.04224 -5.50968 0
M  V30 1827 H 178.104 -1.23679 -5.97943 0
M  V30 1828 H 179.518 -3.16559 -4.77978 0
M  V30 1829 H 177.915 -3.92059 -4.54324 0
M  V30 1830 H 178.985 -3.68729 -3.14908 0
M  V30 1831 N 180.328 1.1314 -1.09713 0
M  V30 1832 C 181.258 2.20748 -0.761102 0
M  V30 1833 C 182.239 1.68061 0.262566 0
M  V30 1834 O 183.424 1.93765 0.129977 0
M  V30 1835 C 180.554 3.46812 -0.184054 0
M  V30 1836 C 179.508 4.12606 -1.13757 0
M  V30 1837 C 178.834 5.33031 -0.422083 0
M  V30 1838 C 180.134 4.59603 -2.48118 0
M  V30 1839 H 181.828 2.49113 -1.66082 0
M  V30 1840 H 179.374 1.19734 -0.799987 0
M  V30 1841 H 181.327 4.21353 0.0631215 0
M  V30 1842 H 180.051 3.17851 0.750868 0
M  V30 1843 H 178.71 3.40036 -1.37007 0
M  V30 1844 H 178.358 5.00335 0.517072 0
M  V30 1845 H 178.058 5.77999 -1.05788 0
M  V30 1846 H 179.582 6.10325 -0.183277 0
M  V30 1847 H 180.996 5.25552 -2.29059 0
M  V30 1848 H 179.393 5.15321 -3.07514 0
M  V30 1849 H 180.463 3.73971 -3.08665 0
M  V30 1850 N 181.806 0.884767 1.30421 0
M  V30 1851 C 182.716 0.355398 2.31892 0
M  V30 1852 C 183.732 -0.542261 1.65335 0
M  V30 1853 O 184.908 -0.435432 1.96637 0
M  V30 1854 C 181.973 -0.421661 3.44126 0
M  V30 1855 C 181.034 0.505727 4.26311 0
M  V30 1856 C 180.267 -0.234343 5.33185 0
M  V30 1857 O 180.49 -1.46045 5.51386 0
M  V30 1858 O 179.424 0.415443 6.00465 0
M  V30 1859 H 183.25 1.19685 2.79122 0
M  V30 1860 H 180.835 0.648596 1.34587 0
M  V30 1861 H 182.717 -0.861641 4.12497 0
M  V30 1862 H 181.392 -1.23942 2.99032 0
M  V30 1863 H 180.299 0.994513 3.60639 0
M  V30 1864 H 181.632 1.28948 4.75009 0
M  V30 1865 N 183.284 -1.43765 0.645699 0
M  V30 1866 C 184.509 -2.06767 0.161883 0
M  V30 1867 C 184.934 -1.48034 -1.16049 0
M  V30 1868 O 184.292 -0.587369 -1.71522 0
M  V30 1869 C 184.34 -3.60519 0.0762003 0
M  V30 1870 O 183.444 -4.00982 -0.963721 0
M  V30 1871 H 182.785 -0.657675 0.091429 0
M  V30 1872 H 185.315 -1.84397 0.886499 0
M  V30 1873 H 185.325 -4.07853 -0.109604 0
M  V30 1874 H 184 -4.02646 1.04157 0
M  V30 1875 H 182.577 -3.65253 -0.751312 0
M  V30 1876 N 184.763 -0.387143 -1.52771 0
M  V30 1877 C 186.009 0.196025 -2.0185 0
M  V30 1878 C 186.342 1.46641 -1.27319 0
M  V30 1879 O 185.617 1.90889 -0.373032 0
M  V30 1880 C 185.9 0.466136 -3.5707 0
M  V30 1881 C 185.753 -0.819385 -4.42274 0
M  V30 1882 C 187.072 1.25768 -4.21747 0
M  V30 1883 H 184.191 0.0697708 -0.73369 0
M  V30 1884 H 186.833 -0.516286 -1.82851 0
M  V30 1885 H 184.983 1.07293 -3.7339 0
M  V30 1886 H 186.655 -1.4563 -4.37709 0
M  V30 1887 H 184.898 -1.43517 -4.09372 0
M  V30 1888 H 185.569 -0.585065 -5.48891 0
M  V30 1889 H 188.045 0.744167 -4.09391 0
M  V30 1890 H 186.921 1.41541 -5.30337 0
M  V30 1891 H 187.182 2.27228 -3.79236 0
M  V30 1892 N 186.241 1.57166 -0.116904 0
M  V30 1893 C 187.189 2.16457 0.851418 0
M  V30 1894 C 188.183 1.11323 1.27686 0
M  V30 1895 O 189.389 1.2963 1.24884 0
M  V30 1896 H 185.764 0.69271 0.292672 0
M  V30 1897 H 187.735 2.96605 0.32685 0
M  V30 1898 C 186.484 2.77689 2.09246 0
M  V30 1899 H 185.807 3.58285 1.77402 0
M  V30 1900 H 187.247 3.22716 2.7501 0
M  V30 1901 C 185.706 1.74667 2.88085 0
M  V30 1902 O 186.236 1.19877 3.83396 0
M  V30 1903 N 184.442 1.44656 2.52038 0
M  V30 1904 H 183.989 1.89402 1.74599 0
M  V30 1905 H 183.947 0.759675 3.05084 0
M  V30 1906 N 187.719 -0.156864 1.56817 0
M  V30 1907 C 188.666 -1.19394 1.97519 0
M  V30 1908 C 189.636 -1.4322 0.841265 0
M  V30 1909 O 190.821 -1.55719 1.10255 0
M  V30 1910 C 187.961 -2.52483 2.35258 0
M  V30 1911 C 187.074 -2.35914 3.61896 0
M  V30 1912 C 186.209 -3.61969 3.88782 0
M  V30 1913 C 185.248 -3.40395 5.08722 0
M  V30 1914 N 184.385 -4.58556 5.31668 0
M  V30 1915 H 189.225 -0.839845 2.85921 0
M  V30 1916 H 186.762 -0.403264 1.41464 0
M  V30 1917 H 188.72 -3.30071 2.55165 0
M  V30 1918 H 187.35 -2.85859 1.49949 0
M  V30 1919 H 186.402 -1.49429 3.49821 0
M  V30 1920 H 187.714 -2.15926 4.49641 0
M  V30 1921 H 186.868 -4.47989 4.09135 0
M  V30 1922 H 185.607 -3.84951 2.9944 0
M  V30 1923 H 184.612 -2.52763 4.88253 0
M  V30 1924 H 185.837 -3.18822 5.99608 0
M  V30 1925 H 183.783 -4.81729 4.45279 0
M  V30 1926 H 183.7 -4.41535 6.13664 0
M  V30 1927 H 184.968 -5.45817 5.5651 0
M  V30 1928 N 189.197 -1.51736 -0.425897 0
M  V30 1929 C 190.127 -1.76827 -1.52494 0
M  V30 1930 C 191.108 -0.618524 -1.58456 0
M  V30 1931 O 192.293 -0.862416 -1.74 0
M  V30 1932 C 189.423 -1.90374 -2.90474 0
M  V30 1933 C 188.377 -3.0588 -2.99369 0
M  V30 1934 C 187.703 -3.04625 -4.3944 0
M  V30 1935 C 189.003 -4.45644 -2.72394 0
M  V30 1936 H 190.697 -2.68855 -1.31748 0
M  V30 1937 H 188.243 -1.29372 -0.632362 0
M  V30 1938 H 190.196 -2.0651 -3.6733 0
M  V30 1939 H 188.92 -0.95004 -3.12477 0
M  V30 1940 H 187.579 -2.89467 -2.24954 0
M  V30 1941 H 187.227 -2.0701 -4.58428 0
M  V30 1942 H 186.927 -3.82195 -4.46319 0
M  V30 1943 H 188.451 -3.22869 -5.18255 0
M  V30 1944 H 189.865 -4.62348 -3.38979 0
M  V30 1945 H 188.262 -5.25006 -2.9067 0
M  V30 1946 H 189.332 -4.54893 -1.67929 0
M  V30 1947 N 190.675 0.682077 -1.42076 0
M  V30 1948 C 191.922 1.44215 -1.42156 0
M  V30 1949 C 192.25 1.94468 -0.0354186 0
M  V30 1950 O 191.505 1.70816 0.955002 0
M  V30 1951 C 191.804 2.66036 -2.38662 0
M  V30 1952 C 191.47 2.34366 -3.85206 0
M  V30 1953 C 190.132 2.25439 -4.25124 0
M  V30 1954 C 192.484 2.08513 -4.77673 0
M  V30 1955 C 189.812 1.88775 -5.55501 0
M  V30 1956 C 192.164 1.73354 -6.08384 0
M  V30 1957 C 190.828 1.62933 -6.47309 0
M  V30 1958 H 190.098 0.527718 -0.520187 0
M  V30 1959 H 192.745 0.778387 -1.74967 0
M  V30 1960 H 191.05 3.3741 -1.99152 0
M  V30 1961 H 192.747 3.24205 -2.35991 0
M  V30 1962 H 189.337 2.42213 -3.53597 0
M  V30 1963 H 193.521 2.14346 -4.47626 0
M  V30 1964 H 188.777 1.7927 -5.84527 0
M  V30 1965 H 192.951 1.52373 -6.79526 0
M  V30 1966 H 190.578 1.34292 -7.48244 0
M  V30 1967 N 192.153 1.28127 0.917671 0
M  V30 1968 C 193.401 1.14825 1.66312 0
M  V30 1969 C 193.722 -0.304379 1.9261 0
M  V30 1970 O 192.992 -1.21149 1.53947 0
M  V30 1971 H 191.572 0.421953 0.616413 0
M  V30 1972 H 194.234 1.608 1.10134 0
M  V30 1973 H 193.33 1.68489 2.62712 0
M  V30 1974 N 193.631 -1.12557 1.10312 0
M  V30 1975 C 194.541 -2.21841 0.763142 0
M  V30 1976 C 195.557 -1.72354 -0.238801 0
M  V30 1977 O 196.733 -2.01249 -0.0778746 0
M  V30 1978 C 193.798 -3.46131 0.198632 0
M  V30 1979 C 192.859 -4.10464 1.25769 0
M  V30 1980 C 192.092 -5.28821 0.72002 0
M  V30 1981 O 192.315 -5.6859 -0.453993 0
M  V30 1982 O 191.249 -5.83437 1.47935 0
M  V30 1983 H 195.075 -2.53312 1.67532 0
M  V30 1984 H 192.66 -1.20867 0.878157 0
M  V30 1985 H 194.542 -4.2125 -0.112401 0
M  V30 1986 H 193.217 -3.16338 -0.686419 0
M  V30 1987 H 192.124 -3.3713 1.62156 0
M  V30 1988 H 193.457 -4.44408 2.11571 0
M  V30 1989 N 195.109 -0.891671 -1.2995 0
M  V30 1990 C 196.056 -0.361736 -2.27948 0
M  V30 1991 C 197.026 0.551761 -1.56668 0
M  V30 1992 O 198.211 0.478736 -1.84696 0
M  V30 1993 C 195.351 0.411825 -3.42634 0
M  V30 1994 C 194.464 -0.531651 -4.28716 0
M  V30 1995 C 193.599 0.258167 -5.30572 0
M  V30 1996 C 192.638 -0.680349 -6.08307 0
M  V30 1997 N 191.775 0.0745613 -7.0206 0
M  V30 1998 H 196.615 -1.20254 -2.72659 0
M  V30 1999 H 194.152 -0.604352 -1.34112 0
M  V30 2000 H 196.11 0.876304 -4.07893 0
M  V30 2001 H 194.74 1.21715 -2.98974 0
M  V30 2002 H 193.792 -1.11463 -3.63703 0
M  V30 2003 H 195.104 -1.25038 -4.82874 0
M  V30 2004 H 194.258 0.784204 -6.0161 0
M  V30 2005 H 192.997 1.01008 -4.77126 0
M  V30 2006 H 192.002 -1.21796 -5.3614 0
M  V30 2007 H 193.227 -1.43145 -6.63842 0
M  V30 2008 H 191.173 0.808883 -6.50994 0
M  V30 2009 H 191.09 -0.584409 -7.53738 0
M  V30 2010 H 192.358 0.581123 -7.77331 0
M  V30 2011 N 196.587 1.43421 -0.653314 0
M  V30 2012 C 197.812 2.06678 -0.172846 0
M  V30 2013 C 198.237 1.48648 1.15262 0
M  V30 2014 O 197.595 0.596457 1.71208 0
M  V30 2015 C 197.643 3.60474 -0.0953184 0
M  V30 2016 O 196.747 4.01487 0.942442 0
M  V30 2017 H 196.088 0.657181 -0.0949155 0
M  V30 2018 H 198.618 1.83925 -0.896265 0
M  V30 2019 H 198.628 4.07905 0.0879728 0
M  V30 2020 H 197.303 4.02088 -1.06291 0
M  V30 2021 H 195.88 3.65646 0.731932 0
M  V30 2022 N 198.065 0.39524 1.52563 0
M  V30 2023 C 199.028 -0.425001 2.25225 0
M  V30 2024 C 200.028 -0.985266 1.27079 0
M  V30 2025 O 201.218 -0.866332 1.5113 0
M  V30 2026 C 198.35 -1.59686 3.01186 0
M  V30 2027 H 199.543 0.211233 2.99155 0
M  V30 2028 H 197.096 0.147472 1.55603 0
M  V30 2029 H 197.831 -2.27035 2.31572 0
M  V30 2030 H 197.616 -1.20176 3.73229 0
M  V30 2031 H 199.106 -2.17743 3.5634 0
M  V30 2032 N 199.544 -1.57102 0.125237 0
M  V30 2033 C 200.769 -2.0019 -0.542101 0
M  V30 2034 C 201.194 -1.00449 -1.59034 0
M  V30 2035 O 200.552 0.0229423 -1.81285 0
M  V30 2036 C 200.6 -3.42129 -1.13929 0
M  V30 2037 O 199.704 -3.45307 -2.2547 0
M  V30 2038 H 199.045 -0.650171 -0.134812 0
M  V30 2039 H 201.575 -2.03461 0.215553 0
M  V30 2040 H 201.585 -3.80471 -1.4733 0
M  V30 2041 H 200.26 -4.14237 -0.371531 0
M  V30 2042 H 198.837 -3.1879 -1.93462 0
M  V30 2043 N 201.022 0.148545 -1.56898 0
M  V30 2044 C 202.269 0.861418 -1.83264 0
M  V30 2045 C 202.597 1.81239 -0.705883 0
M  V30 2046 O 201.852 1.93305 0.305212 0
M  V30 2047 C 202.151 1.67064 -3.1595 0
M  V30 2048 C 201.817 0.866591 -4.42494 0
M  V30 2049 C 200.479 0.644762 -4.76861 0
M  V30 2050 C 202.831 0.30418 -5.20312 0
M  V30 2051 C 200.159 -0.15021 -5.86508 0
M  V30 2052 C 202.511 -0.477824 -6.30793 0
M  V30 2053 C 201.175 -0.710244 -6.63711 0
M  V30 2054 H 200.445 0.315215 -0.670612 0
M  V30 2055 H 203.092 0.125142 -1.91091 0
M  V30 2056 H 201.397 2.47698 -3.03567 0
M  V30 2057 H 203.094 2.22566 -3.33565 0
M  V30 2058 H 199.684 1.04955 -4.15551 0
M  V30 2059 H 203.868 0.462844 -4.94137 0
M  V30 2060 H 199.124 -0.339796 -6.10455 0
M  V30 2061 H 203.298 -0.92076 -6.90286 0
M  V30 2062 H 200.925 -1.3281 -7.48509 0
M  V30 2063 N 202.5 1.5196 0.417844 0
M  V30 2064 C 203.916 1.40569 0.755816 0
M  V30 2065 C 204.116 0.503316 1.95113 0
M  V30 2066 O 203.172 -0.0341925 2.52477 0
M  V30 2067 C 204.485 2.82947 1.01791 0
M  V30 2068 C 206.033 2.92231 1.12116 0
M  V30 2069 C 206.508 4.35559 1.41608 0
M  V30 2070 N 207.999 4.38753 1.48491 0
M  V30 2071 C 208.734 5.46705 1.7292 0
M  V30 2072 N 208.23 6.64788 1.95011 0
M  V30 2073 N 210.023 5.34209 1.74863 0
M  V30 2074 H 202.174 2.09168 -0.369098 0
M  V30 2075 H 204.437 0.942409 -0.102809 0
M  V30 2076 H 204.143 3.5106 0.212081 0
M  V30 2077 H 204.017 3.23462 1.94042 0
M  V30 2078 H 206.404 2.24304 1.9176 0
M  V30 2079 H 206.485 2.55185 0.177225 0
M  V30 2080 H 206.129 5.04042 0.624848 0
M  V30 2081 H 206.059 4.70133 2.37239 0
M  V30 2082 H 208.55 3.5363 1.33244 0
M  V30 2083 H 208.863 7.42845 2.13076 0
M  V30 2084 H 207.208 6.67869 1.92293 0
M  V30 2085 H 210.399 4.40937 1.57137 0
M  V30 2086 H 210.572 6.18415 1.93563 0
M  V30 2087 N 203.978 -0.674533 1.42435 0
M  V30 2088 C 204.888 -1.81751 1.48337 0
M  V30 2089 C 205.904 -1.69975 0.372099 0
M  V30 2090 O 207.08 -1.91521 0.62304 0
M  V30 2091 C 204.145 -3.17895 1.38361 0
M  V30 2092 C 203.206 -3.41625 2.59982 0
M  V30 2093 C 202.439 -4.71274 2.50473 0
M  V30 2094 O 202.662 -5.49197 1.54075 0
M  V30 2095 O 201.596 -4.96254 3.4061 0
M  V30 2096 H 205.422 -1.79728 2.44809 0
M  V30 2097 H 203.007 -0.830312 1.24202 0
M  V30 2098 H 204.889 -3.99136 1.35161 0
M  V30 2099 H 203.564 -3.20555 0.450144 0
M  V30 2100 H 202.471 -2.60231 2.68757 0
M  V30 2101 H 203.804 -3.43796 3.52229 0
M  V30 2102 N 205.456 -1.28612 -0.910864 0
M  V30 2103 C 206.366 -1.14643 -2.0468 0
M  V30 2104 C 207.382 -0.0723121 -1.7385 0
M  V30 2105 O 208.558 -0.282178 -1.99413 0
M  V30 2106 C 205.623 -0.812561 -3.37044 0
M  V30 2107 C 204.684 -1.96935 -3.81465 0
M  V30 2108 C 203.917 -1.65131 -5.07511 0
M  V30 2109 O 204.14 -0.567013 -5.67575 0
M  V30 2110 O 203.074 -2.49585 -5.47714 0
M  V30 2111 H 206.9 -2.1001 -2.19384 0
M  V30 2112 H 204.485 -1.07958 -1.03274 0
M  V30 2113 H 206.367 -0.640441 -4.16505 0
M  V30 2114 H 205.042 0.111426 -3.23508 0
M  V30 2115 H 203.949 -2.19664 -3.02818 0
M  V30 2116 H 205.282 -2.87414 -3.99567 0
M  V30 2117 N 206.934 1.1197 -1.10907 0
M  V30 2118 C 208.164 1.8713 -0.875553 0
M  V30 2119 C 208.572 1.8016 0.577843 0
M  V30 2120 O 207.915 1.17699 1.41042 0
M  V30 2121 C 207.977 3.37005 -1.2517 0
M  V30 2122 C 207.641 3.67748 -2.71313 0
M  V30 2123 C 208.638 3.65698 -3.69542 0
M  V30 2124 C 206.323 3.96928 -3.07821 0
M  V30 2125 C 208.317 3.92395 -5.023 0
M  V30 2126 C 206.004 4.23284 -4.40765 0
M  V30 2127 C 207.002 4.21005 -5.37814 0
M  V30 2128 O 206.69 4.46704 -6.68364 0
M  V30 2129 H 206.422 0.598786 -0.313737 0
M  V30 2130 H 208.976 1.42568 -1.47863 0
M  V30 2131 H 207.206 3.82146 -0.591741 0
M  V30 2132 H 208.895 3.93519 -0.994877 0
M  V30 2133 H 209.661 3.43211 -3.42682 0
M  V30 2134 H 205.54 3.97841 -2.32902 0
M  V30 2135 H 209.084 3.90531 -5.78041 0
M  V30 2136 H 204.981 4.45246 -4.67361 0
M  V30 2137 H 205.749 4.64299 -6.74069 0
M  V30 2138 N 208.412 0.89855 1.29475 0
M  V30 2139 C 209.661 0.519863 1.94885 0
M  V30 2140 C 209.974 -0.9383 1.71625 0
M  V30 2141 O 211.18 -1.42445 2.31131 0
M  V30 2142 C 209.636 0.878836 3.49005 0
M  V30 2143 C 209.244 2.35569 3.81066 0
M  V30 2144 C 210.988 0.570004 4.20656 0
M  V30 2145 C 208.895 2.65558 5.28425 0
M  V30 2146 H 207.825 0.190692 0.729488 0
M  V30 2147 H 210.476 1.09539 1.47219 0
M  V30 2148 H 208.858 0.232253 3.95318 0
M  V30 2149 H 210.032 3.04773 3.45616 0
M  V30 2150 H 208.347 2.63343 3.22552 0
M  V30 2151 H 210.944 0.770925 5.29113 0
M  V30 2152 H 211.287 -0.491404 4.1339 0
M  V30 2153 H 211.82 1.17438 3.8007 0
M  V30 2154 H 208.559 3.70493 5.40754 0
M  V30 2155 H 208.079 2.00977 5.65127 0
M  V30 2156 H 209.758 2.51765 5.96006 0
M  V30 2157 N 209.89 -1.43072 0.660911 0
M  V30 2158 C 211.306 -1.56169 0.329173 0
M  V30 2159 C 211.506 -1.64317 -1.16629 0
M  V30 2160 O 210.562 -1.60245 -1.95135 0
M  V30 2161 C 211.875 -2.81873 1.04729 0
M  V30 2162 C 213.423 -2.95627 1.02828 0
M  V30 2163 C 213.898 -4.24174 1.72744 0
M  V30 2164 N 215.389 -4.31055 1.69545 0
M  V30 2165 C 216.124 -5.29304 2.20511 0
M  V30 2166 N 215.62 -6.33786 2.79799 0
M  V30 2167 N 217.413 -5.21008 2.10966 0
M  V30 2168 H 209.564 -1.36027 1.63127 0
M  V30 2169 H 211.827 -0.653823 0.686454 0
M  V30 2170 H 211.533 -2.81942 2.10242 0
M  V30 2171 H 211.407 -3.72338 0.603702 0
M  V30 2172 H 213.794 -2.95094 -0.0184742 0
M  V30 2173 H 213.875 -2.06431 1.51063 0
M  V30 2174 H 213.519 -4.25467 2.7738 0
M  V30 2175 H 213.449 -5.1228 1.2197 0
M  V30 2176 H 215.94 -3.56174 1.26288 0
M  V30 2177 H 216.253 -7.05086 3.16344 0
M  V30 2178 H 214.598 -6.34387 2.83863 0
M  V30 2179 H 217.789 -4.38301 1.64347 0
M  V30 2180 H 217.962 -5.97416 2.50993 0
M  V30 2181 N 211.368 -0.403325 -1.52352 0
M  V30 2182 C 212.298 0.416205 -2.29761 0
M  V30 2183 C 213.279 1.05123 -1.33728 0
M  V30 2184 O 214.464 1.06134 -1.62632 0
M  V30 2185 C 211.594 1.53624 -3.11475 0
M  V30 2186 C 210.548 1.02653 -4.15507 0
M  V30 2187 C 209.874 2.23971 -4.85532 0
M  V30 2188 C 211.174 0.08463 -5.22231 0
M  V30 2189 H 212.868 -0.229701 -2.98518 0
M  V30 2190 H 210.414 -0.111913 -1.43564 0
M  V30 2191 H 212.367 2.1165 -3.64393 0
M  V30 2192 H 211.091 2.20994 -2.40477 0
M  V30 2193 H 209.75 0.46871 -3.63591 0
M  V30 2194 H 209.398 2.89883 -4.11068 0
M  V30 2195 H 209.098 1.90521 -5.55856 0
M  V30 2196 H 210.622 2.82614 -5.41259 0
M  V30 2197 H 212.036 0.573509 -5.70424 0
M  V30 2198 H 210.433 -0.160783 -5.99885 0
M  V30 2199 H 211.503 -0.86237 -4.7717 0
M  V30 2200 N 212.846 1.57033 -0.133567 0
M  V30 2201 C 214.086 1.97575 0.523789 0
M  V30 2202 C 214.45 1.01605 1.62912 0
M  V30 2203 O 215.651 1.3114 2.3464 0
M  V30 2204 C 213.922 3.42256 1.02935 0
M  V30 2205 S 215.481 4.04817 1.69319 0
M  V30 2206 H 212.299 0.690427 0.169799 0
M  V30 2207 H 214.901 1.94234 -0.222101 0
M  V30 2208 H 213.605 4.09842 0.213917 0
M  V30 2209 H 213.136 3.4928 1.81017 0
M  V30 2210 H 215.151 3.96767 2.97977 0
M  V30 2211 N 214.325 -0.140222 1.56975 0
M  V30 2212 C 215.257 -1.19818 1.95388 0
M  V30 2213 C 216.27 -1.38816 0.850525 0
M  V30 2214 O 217.459 -1.38267 1.12891 0
M  V30 2215 C 214.559 -2.56189 2.21857 0
M  V30 2216 C 213.732 -2.58077 3.5315 0
M  V30 2217 C 212.791 -3.76037 3.6808 0
M  V30 2218 O 211.817 -3.60598 4.40406 0
M  V30 2219 N 213.019 -4.93763 3.05251 0
M  V30 2220 H 215.784 -0.871609 2.86746 0
M  V30 2221 H 213.345 -0.32972 1.58507 0
M  V30 2222 H 215.337 -3.33623 2.2908 0
M  V30 2223 H 213.907 -2.81111 1.36731 0
M  V30 2224 H 213.127 -1.6651 3.57307 0
M  V30 2225 H 214.415 -2.56377 4.39486 0
M  V30 2226 H 213.813 -5.09209 2.46419 0
M  V30 2227 H 212.37 -5.68949 3.18026 0
M  V30 2228 N 215.803 -1.52179 -0.40978 0
M  V30 2229 C 216.75 -1.75475 -1.49924 0
M  V30 2230 C 217.72 -0.597175 -1.54994 0
M  V30 2231 O 218.905 -0.834655 -1.71575 0
M  V30 2232 C 216.045 -1.9107 -2.87378 0
M  V30 2233 C 215.158 -3.18717 -2.91622 0
M  V30 2234 C 214.293 -3.24747 -4.20372 0
M  V30 2235 C 213.332 -4.46598 -4.18588 0
M  V30 2236 N 212.469 -4.50025 -5.38908 0
M  V30 2237 H 217.309 -2.68458 -1.29361 0
M  V30 2238 H 214.846 -1.33024 -0.627934 0
M  V30 2239 H 216.804 -1.98096 -3.6717 0
M  V30 2240 H 215.434 -1.01469 -3.06437 0
M  V30 2241 H 214.486 -3.20866 -2.04326 0
M  V30 2242 H 215.798 -4.08544 -2.86169 0
M  V30 2243 H 214.952 -3.30841 -5.08556 0
M  V30 2244 H 213.691 -2.32857 -4.28519 0
M  V30 2245 H 212.696 -4.40652 -3.28794 0
M  V30 2246 H 213.921 -5.39783 -4.12081 0
M  V30 2247 H 211.867 -3.61017 -5.47725 0
M  V30 2248 H 211.784 -5.33697 -5.35447 0
M  V30 2249 H 213.052 -4.60347 -6.29048 0
M  V30 2250 N 217.281 0.66697 -1.42791 0
M  V30 2251 C 218.511 1.45294 -1.46878 0
M  V30 2252 C 218.919 1.89027 -0.0809861 0
M  V30 2253 O 218.262 1.59219 0.916246 0
M  V30 2254 C 218.324 2.72908 -2.34012 0
M  V30 2255 C 217.988 2.51203 -3.81767 0
M  V30 2256 C 218.985 2.15302 -4.73224 0
M  V30 2257 C 216.67 2.65954 -4.26115 0
M  V30 2258 C 218.664 1.94431 -6.07022 0
M  V30 2259 C 216.351 2.44699 -5.59969 0
M  V30 2260 C 217.349 2.08992 -6.5024 0
M  V30 2261 O 217.037 1.87948 -7.81621 0
M  V30 2262 H 216.769 0.453306 -0.501487 0
M  V30 2263 H 219.323 0.826232 -1.88049 0
M  V30 2264 H 217.553 3.38089 -1.87703 0
M  V30 2265 H 219.242 3.34816 -2.29462 0
M  V30 2266 H 220.008 2.03495 -4.40244 0
M  V30 2267 H 215.887 2.92724 -3.56137 0
M  V30 2268 H 219.431 1.66484 -6.77443 0
M  V30 2269 H 215.328 2.56105 -5.9252 0
M  V30 2270 H 216.096 2.02483 -7.93059 0
M  V30 2271 N 218.759 1.29093 0.90403 0
M  V30 2272 C 219.989 1.19516 1.68522 0
M  V30 2273 C 220.397 -0.24738 1.87576 0
M  V30 2274 O 219.74 -1.17798 1.40959 0
M  V30 2275 C 219.802 1.83249 3.0929 0
M  V30 2276 C 219.466 3.32531 3.13484 0
M  V30 2277 C 220.463 4.28821 2.93953 0
M  V30 2278 C 218.148 3.73656 3.35688 0
M  V30 2279 C 220.142 5.64212 2.96553 0
M  V30 2280 C 217.829 5.0917 3.37919 0
M  V30 2281 C 218.827 6.04258 3.18373 0
M  V30 2282 O 218.515 7.37298 3.20385 0
M  V30 2283 H 218.247 0.415467 0.533257 0
M  V30 2284 H 220.801 1.70912 1.13922 0
M  V30 2285 H 219.031 1.26358 3.65473 0
M  V30 2286 H 220.72 1.68054 3.69476 0
M  V30 2287 H 221.486 3.98382 2.76616 0
M  V30 2288 H 217.365 3.00101 3.49943 0
M  V30 2289 H 220.909 6.38407 2.81216 0
M  V30 2290 H 216.806 5.39256 3.54787 0
M  V30 2291 H 217.574 7.46048 3.36681 0
M  V30 2292 N 220.237 -1.11381 1.11499 0
M  V30 2293 C 221.462 -1.87475 0.887019 0
M  V30 2294 C 221.887 -1.79639 -0.557796 0
M  V30 2295 O 221.245 -1.15924 -1.39396 0
M  V30 2296 C 221.293 -3.34213 1.35403 0
M  V30 2297 O 220.397 -4.0903 0.526146 0
M  V30 2298 H 219.738 -0.582099 0.319463 0
M  V30 2299 H 222.268 -1.40785 1.48461 0
M  V30 2300 H 222.278 -3.8506 1.34881 0
M  V30 2301 H 220.953 -3.39232 2.40612 0
M  V30 2302 H 219.53 -3.68082 0.597522 0
M  V30 2303 N 221.715 -0.905404 -1.28997 0
M  V30 2304 C 222.94 -0.549175 -1.99997 0
M  V30 2305 C 223.365 0.860276 -1.67275 0
M  V30 2306 O 222.723 1.57355 -0.900502 0
M  V30 2307 C 222.771 -0.755185 -3.52604 0
M  V30 2308 O 221.875 0.189692 -4.11964 0
M  V30 2309 H 221.216 -0.213899 -0.628604 0
M  V30 2310 H 223.746 -1.21856 -1.64354 0
M  V30 2311 H 223.756 -0.662045 -4.02593 0
M  V30 2312 H 222.431 -1.78271 -3.75755 0
M  V30 2313 H 221.008 0.0485257 -3.72868 0
M  V30 2314 N 223.193 1.4272 -0.668489 0
M  V30 2315 C 224.103 2.34596 0.0139753 0
M  V30 2316 C 225.119 1.5474 0.795703 0
M  V30 2317 O 226.295 1.87334 0.739466 0
M  V30 2318 C 223.36 3.33202 0.957982 0
M  V30 2319 C 222.421 4.28957 0.17149 0
M  V30 2320 C 221.654 5.22853 1.07053 0
M  V30 2321 O 221.877 5.21531 2.31001 0
M  V30 2322 O 220.811 5.9952 0.534727 0
M  V30 2323 H 224.637 2.9448 -0.742661 0
M  V30 2324 H 222.222 1.43117 -0.428705 0
M  V30 2325 H 224.104 3.93796 1.50008 0
M  V30 2326 H 222.779 2.758 1.69458 0
M  V30 2327 H 221.686 3.71796 -0.414558 0
M  V30 2328 H 223.019 4.89383 -0.52586 0
M  V30 2329 N 224.671 0.411399 1.52136 0
M  V30 2330 C 226.082 -0.0576826 1.86611 0
M  V30 2331 C 226.433 -1.44238 1.33003 0
M  V30 2332 O 225.558 -2.05759 0.670228 0
M  V30 2333 C 226.153 -0.111448 3.38617 0
M  V30 2334 C 224.712 -0.52487 3.72723 0
M  V30 2335 C 223.859 0.299176 2.75681 0
M  V30 2336 H 226.81 0.628368 1.4573 0
M  V30 2337 H 226.831 -0.926252 3.69054 0
M  V30 2338 H 226.343 0.896488 3.77604 0
M  V30 2339 H 224.444 -1.53936 3.39315 0
M  V30 2340 H 224.557 -0.267681 4.78352 0
M  V30 2341 H 222.921 -0.238814 2.53578 0
M  V30 2342 H 223.704 1.3055 3.17508 0
M  V30 2343 N 226.149 -1.5696 0.141893 0
M  V30 2344 C 227.081 -2.13619 -0.830627 0
M  V30 2345 C 228.094 -1.08439 -1.21428 0
M  V30 2346 O 229.283 -1.35734 -1.15925 0
M  V30 2347 C 226.383 -2.63978 -2.12529 0
M  V30 2348 C 225.556 -3.93504 -1.9098 0
M  V30 2349 C 224.615 -4.29225 -3.04388 0
M  V30 2350 O 223.641 -4.97641 -2.76302 0
M  V30 2351 N 224.843 -3.88393 -4.31429 0
M  V30 2352 H 227.608 -2.97691 -0.34641 0
M  V30 2353 H 225.169 -1.61846 -0.0418375 0
M  V30 2354 H 227.161 -2.84891 -2.87436 0
M  V30 2355 H 225.731 -1.84659 -2.52229 0
M  V30 2356 H 224.951 -3.81269 -1.00139 0
M  V30 2357 H 226.239 -4.78154 -1.73914 0
M  V30 2358 H 225.637 -3.33257 -4.57117 0
M  V30 2359 H 224.194 -4.14368 -5.03133 0
M  V30 2360 N 227.627 0.131896 -1.57047 0
M  V30 2361 C 228.59 1.14638 -1.98471 0
M  V30 2362 C 229.59 1.35029 -0.873148 0
M  V30 2363 O 230.78 1.31764 -1.13946 0
M  V30 2364 C 227.912 2.50358 -2.31373 0
M  V30 2365 H 229.105 0.79064 -2.8929 0
M  V30 2366 H 226.658 0.375761 -1.51716 0
M  V30 2367 H 227.393 2.90876 -1.43393 0
M  V30 2368 H 227.178 2.36915 -3.12432 0
M  V30 2369 H 228.668 3.23395 -2.64207 0
M  V30 2370 N 229.106 1.52395 0.401703 0
M  V30 2371 C 230.352 1.67065 1.14966 0
M  V30 2372 C 230.685 0.403052 1.89971 0
M  V30 2373 O 229.96 -0.598774 1.85054 0
M  V30 2374 C 230.243 2.8975 2.13815 0
M  V30 2375 C 230.096 4.26578 1.42658 0
M  V30 2376 C 231.415 3.07965 3.14397 0
M  V30 2377 H 228.534 0.607968 0.416587 0
M  V30 2378 H 231.176 1.84965 0.434511 0
M  V30 2379 H 229.326 2.74619 2.74803 0
M  V30 2380 H 230.998 4.53451 0.847329 0
M  V30 2381 H 229.241 4.27639 0.72849 0
M  V30 2382 H 229.912 5.08483 2.14823 0
M  V30 2383 H 232.388 3.22043 2.63491 0
M  V30 2384 H 231.264 3.95308 3.80819 0
M  V30 2385 H 231.525 2.21611 3.82545 0
M  V30 2386 N 230.584 -0.659388 1.43143 0
M  V30 2387 C 231.861 -1.41627 1.34912 0
M  V30 2388 C 232.241 -2.11099 -0.00607785 0
M  V30 2389 O 231.589 -2.04353 -1.02236 0
M  V30 2390 C 231.799 -2.40604 2.52805 0
M  V30 2391 C 233.147 -3.04789 2.95616 0
M  V30 2392 O 234.171 -2.50932 2.52807 0
M  V30 2393 O 233.03 -4.02421 3.69756 0
M  V30 2394 H 230.124 -0.63246 0.532844 0
M  V30 2395 H 232.67 -0.686814 1.5518 0
M  V30 2396 H 231.442 -1.88174 3.43083 0
M  V30 2397 H 231.065 -3.21009 2.34604 0
M  V30 2398 N 232.062 -1.29571 -0.897171 0
M  V30 2399 C 233.309 -1.17689 -1.6479 0
M  V30 2400 C 233.637 0.27107 -1.92602 0
M  V30 2401 O 232.892 1.21193 -1.53658 0
M  V30 2402 C 233.191 -1.9382 -3.00281 0
M  V30 2403 C 232.857 -3.43522 -2.92068 0
M  V30 2404 C 231.519 -3.84348 -2.89535 0
M  V30 2405 C 233.871 -4.38906 -2.81089 0
M  V30 2406 C 231.199 -5.18869 -2.73846 0
M  V30 2407 C 233.551 -5.73521 -2.66939 0
M  V30 2408 C 232.215 -6.13601 -2.62774 0
M  V30 2409 H 231.485 -0.430654 -0.603008 0
M  V30 2410 H 234.132 -1.60536 -1.04404 0
M  V30 2411 H 232.437 -1.4357 -3.64547 0
M  V30 2412 H 234.134 -1.82028 -3.57305 0
M  V30 2413 H 230.724 -3.11072 -2.94842 0
M  V30 2414 H 234.908 -4.08315 -2.82121 0
M  V30 2415 H 230.164 -5.4903 -2.69027 0
M  V30 2416 H 234.338 -6.47078 -2.57416 0
M  V30 2417 H 231.965 -7.17786 -2.50375 0
M  V30 2418 N 233.54 1.10788 -1.12088 0
M  V30 2419 C 234.47 2.19083 -0.807755 0
M  V30 2420 C 235.451 1.6858 0.226859 0
M  V30 2421 O 236.636 1.93997 0.0888475 0
M  V30 2422 C 233.766 3.46344 -0.257576 0
M  V30 2423 C 232.72 4.101 -1.22483 0
M  V30 2424 C 232.046 5.32016 -0.535052 0
M  V30 2425 C 233.346 4.54236 -2.57811 0
M  V30 2426 H 235.04 2.45534 -1.71328 0
M  V30 2427 H 232.586 1.1801 -0.825205 0
M  V30 2428 H 234.539 4.21392 -0.0262679 0
M  V30 2429 H 233.263 3.19373 0.683278 0
M  V30 2430 H 231.922 3.37054 -1.44189 0
M  V30 2431 H 231.57 5.01319 0.410827 0
M  V30 2432 H 231.27 5.75625 -1.18024 0
M  V30 2433 H 232.794 6.09799 -0.312695 0
M  V30 2434 H 234.208 5.20575 -2.40155 0
M  V30 2435 H 232.605 5.08682 -3.18375 0
M  V30 2436 H 233.675 3.6734 -3.16528 0
M  V30 2437 N 235.018 0.912232 1.28515 0
M  V30 2438 C 235.928 0.404506 2.31086 0
M  V30 2439 C 236.944 -0.50707 1.66448 0
M  V30 2440 O 238.12 -0.393624 1.97516 0
M  V30 2441 C 235.185 -0.348572 3.44943 0
M  V30 2442 C 234.246 0.59604 4.25142 0
M  V30 2443 C 233.479 -0.121194 5.33562 0
M  V30 2444 O 233.702 -1.34317 5.5436 0
M  V30 2445 O 232.636 0.542716 5.99448 0
M  V30 2446 H 236.462 1.25579 2.76521 0
M  V30 2447 H 234.047 0.676998 1.33181 0
M  V30 2448 H 235.929 -0.77395 4.14232 0
M  V30 2449 H 234.604 -1.17571 3.01594 0
M  V30 2450 H 233.511 1.07079 3.58448 0
M  V30 2451 H 234.844 1.38995 4.72167 0
M  V30 2452 N 236.496 -1.42363 0.676048 0
M  V30 2453 C 237.736 -2.03392 0.20273 0
M  V30 2454 C 238.1 -1.52306 -1.16906 0
M  V30 2455 O 239.301 -2.05129 -1.73711 0
M  V30 2456 C 237.572 -3.56614 0.236947 0
M  V30 2457 S 239.131 -4.38489 -0.165186 0
M  V30 2458 H 235.949 -0.70611 0.0832418 0
M  V30 2459 H 238.551 -1.74093 0.88948 0
M  V30 2460 H 237.255 -3.91293 1.23767 0
M  V30 2461 H 236.786 -3.90587 -0.469596 0
M  V30 2462 H 238.801 -4.76093 -1.39822 0
M  V30 2463 N 237.974 -0.419461 -1.51915 0
M  V30 2464 C 238.937 0.389116 -2.25873 0
M  V30 2465 C 239.937 0.964924 -1.28631 0
M  V30 2466 O 241.127 0.842179 -1.52489 0
M  V30 2467 C 238.259 1.54874 -3.03689 0
M  V30 2468 H 239.452 -0.258799 -2.98781 0
M  V30 2469 H 237.005 -0.172209 -1.55348 0
M  V30 2470 H 237.74 2.23323 -2.35154 0
M  V30 2471 H 237.525 1.14223 -3.75094 0
M  V30 2472 H 239.015 2.12046 -3.59759 0
M  V30 2473 N 239.452 1.56882 -0.150215 0
M  V30 2474 C 240.362 2.20494 0.801222 0
M  V30 2475 C 241.378 1.19019 1.26927 0
M  V30 2476 O 242.554 1.51607 1.32579 0
M  V30 2477 C 239.619 2.81659 2.02161 0
M  V30 2478 C 238.68 3.9827 1.60249 0
M  V30 2479 C 237.913 4.56508 2.7647 0
M  V30 2480 O 238.136 4.13627 3.92771 0
M  V30 2481 O 237.07 5.46719 2.51757 0
M  V30 2482 H 240.896 3.02315 0.289717 0
M  V30 2483 H 238.481 1.49202 0.0769684 0
M  V30 2484 H 240.363 3.20522 2.73576 0
M  V30 2485 H 239.038 2.02849 2.52258 0
M  V30 2486 H 237.945 3.64117 0.858477 0
M  V30 2487 H 239.278 4.78609 1.14864 0
M  V30 2488 N 240.93 -0.123565 1.57115 0
M  V30 2489 C 241.84 -1.17074 2.033 0
M  V30 2490 C 242.856 -1.4561 0.952559 0
M  V30 2491 O 244.032 -1.56817 1.26374 0
M  V30 2492 C 241.097 -2.47857 2.42421 0
M  V30 2493 C 240.158 -2.26758 3.64526 0
M  V30 2494 C 239.391 -3.51305 4.01771 0
M  V30 2495 O 239.614 -4.5843 3.39409 0
M  V30 2496 O 238.548 -3.42578 4.94898 0
M  V30 2497 H 242.374 -0.808555 2.92739 0
M  V30 2498 H 239.959 -0.334027 1.45618 0
M  V30 2499 H 241.841 -3.2492 2.68338 0
M  V30 2500 H 240.516 -2.83558 1.5613 0
M  V30 2501 H 239.423 -1.47569 3.43765 0
M  V30 2502 H 240.756 -1.95963 4.51508 0
M  V30 2503 N 242.408 -1.52605 -0.393616 0
M  V30 2504 C 243.371 -1.76415 -1.46323 0
M  V30 2505 C 244.371 -0.634126 -1.47768 0
M  V30 2506 O 245.561 -0.902142 -1.4902 0
M  V30 2507 C 242.693 -1.8607 -2.85641 0
M  V30 2508 H 243.886 -2.71916 -1.26498 0
M  V30 2509 H 241.439 -1.43257 -0.625073 0
M  V30 2510 H 242.174 -0.925378 -3.10817 0
M  V30 2511 H 241.959 -2.68235 -2.85993 0
M  V30 2512 H 243.449 -2.06179 -3.63153 0
M  V30 2513 N 243.887 0.651787 -1.4349 0
M  V30 2514 C 245.303 0.96762 -1.26922 0
M  V30 2515 C 245.503 2.00602 -0.189982 0
M  V30 2516 O 244.559 2.48793 0.431107 0
M  V30 2517 C 245.872 1.45052 -2.63401 0
M  V30 2518 C 247.42 1.5671 -2.70945 0
M  V30 2519 C 247.895 2.0839 -4.07845 0
M  V30 2520 N 249.386 2.1569 -4.09917 0
M  V30 2521 C 250.121 2.56804 -5.12679 0
M  V30 2522 N 249.617 2.97203 -6.25813 0
M  V30 2523 N 251.41 2.56756 -5.00033 0
M  V30 2524 H 243.561 -0.0353158 -2.12371 0
M  V30 2525 H 245.824 0.0467858 -0.946845 0
M  V30 2526 H 245.53 0.761926 -3.43348 0
M  V30 2527 H 245.404 2.42529 -2.88894 0
M  V30 2528 H 247.791 2.2467 -1.9133 0
M  V30 2529 H 247.872 0.57662 -2.49216 0
M  V30 2530 H 247.516 1.41031 -4.87927 0
M  V30 2531 H 247.446 3.08271 -4.26938 0
M  V30 2532 H 249.937 1.87237 -3.28254 0
M  V30 2533 H 250.25 3.27328 -7.00055 0
M  V30 2534 H 248.595 2.95004 -6.29283 0
M  V30 2535 H 251.786 2.24572 -4.10713 0
M  V30 2536 H 251.959 2.88475 -5.80247 0
M  V30 2537 N 245.365 1.30045 0.890287 0
M  V30 2538 C 246.312 1.15976 1.99545 0
M  V30 2539 C 247.282 0.0506202 1.66023 0
M  V30 2540 O 248.467 0.219847 1.89529 0
M  V30 2541 C 245.607 0.852054 3.34416 0
M  V30 2542 C 244.72 2.04255 3.80662 0
M  V30 2543 C 243.855 1.6734 5.04154 0
M  V30 2544 C 242.894 2.82916 5.42794 0
M  V30 2545 N 242.031 2.46333 6.57468 0
M  V30 2546 H 246.871 2.10524 2.10911 0
M  V30 2547 H 244.408 1.04749 1.03276 0
M  V30 2548 H 246.366 0.654296 4.12037 0
M  V30 2549 H 244.996 -0.0565502 3.2275 0
M  V30 2550 H 244.048 2.35172 2.98995 0
M  V30 2551 H 245.36 2.90826 4.05242 0
M  V30 2552 H 244.514 1.43908 5.89386 0
M  V30 2553 H 243.253 0.779308 4.81433 0
M  V30 2554 H 242.258 3.0702 4.56091 0
M  V30 2555 H 243.483 3.73004 5.6749 0
M  V30 2556 H 241.429 1.59423 6.36334 0
M  V30 2557 H 241.346 3.26436 6.81891 0
M  V30 2558 H 242.614 2.26244 7.45945 0
M  V30 2559 N 246.843 -1.10192 1.12674 0
M  V30 2560 C 247.79 -2.16606 0.796906 0
M  V30 2561 C 248.76 -1.64394 -0.237476 0
M  V30 2562 O 249.945 -1.90474 -0.111484 0
M  V30 2563 C 247.085 -3.44116 0.26043 0
M  V30 2564 C 246.198 -4.10268 1.35293 0
M  V30 2565 C 245.333 -5.25507 0.775621 0
M  V30 2566 C 244.372 -5.83567 1.84706 0
M  V30 2567 N 243.509 -6.90179 1.28829 0
M  V30 2568 H 248.349 -2.44163 1.70846 0
M  V30 2569 H 245.886 -1.19846 0.85295 0
M  V30 2570 H 247.844 -4.17143 -0.0686814 0
M  V30 2571 H 246.474 -3.16901 -0.614274 0
M  V30 2572 H 245.526 -3.35184 1.79877 0
M  V30 2573 H 246.838 -4.4946 2.16303 0
M  V30 2574 H 245.992 -6.05398 0.397327 0
M  V30 2575 H 244.731 -4.87656 -0.0656581 0
M  V30 2576 H 243.736 -5.02344 2.23452 0
M  V30 2577 H 244.961 -6.23482 2.69161 0
M  V30 2578 H 242.907 -6.54322 0.468881 0
M  V30 2579 H 242.824 -7.28097 2.03497 0
M  V30 2580 H 244.092 -7.73844 0.937311 0
M  V30 2581 N 248.321 -0.919034 -1.28029 0
M  V30 2582 C 249.57 -0.550802 -1.94034 0
M  V30 2583 C 249.883 0.910877 -1.73096 0
M  V30 2584 O 251.089 1.3875 -2.33368 0
M  V30 2585 C 249.545 -0.934249 -3.47563 0
M  V30 2586 C 249.153 -2.41602 -3.7727 0
M  V30 2587 C 250.897 -0.636854 -4.19696 0
M  V30 2588 C 248.804 -2.73932 -5.24133 0
M  V30 2589 H 247.734 -0.202273 -0.726362 0
M  V30 2590 H 250.385 -1.11867 -1.45458 0
M  V30 2591 H 248.767 -0.295115 -3.94899 0
M  V30 2592 H 249.941 -3.10233 -3.40723 0
M  V30 2593 H 248.256 -2.68441 -3.18321 0
M  V30 2594 H 250.853 -0.855005 -5.2782 0
M  V30 2595 H 251.196 0.425575 -4.14119 0
M  V30 2596 H 251.729 -1.23469 -3.78154 0
M  V30 2597 H 248.468 -3.79049 -5.34792 0
M  V30 2598 H 247.988 -2.09942 -5.61858 0
M  V30 2599 H 249.667 -2.61215 -5.91925 0
M  V30 2600 N 249.799 1.42003 -0.683588 0
M  V30 2601 C 250.747 2.326 0.000815408 0
M  V30 2602 C 251.741 1.50308 0.781278 0
M  V30 2603 O 252.947 1.66322 0.688251 0
M  V30 2604 H 249.322 0.751758 0.0190616 0
M  V30 2605 H 251.293 2.88011 -0.780528 0
M  V30 2606 C 250.042 3.34978 0.93195 0
M  V30 2607 H 249.365 3.98345 0.340817 0
M  V30 2608 H 250.805 4.00936 1.37936 0
M  V30 2609 C 249.264 2.67925 2.04249 0
M  V30 2610 O 249.794 2.51788 3.12995 0
M  V30 2611 N 248 2.2681 1.81675 0
M  V30 2612 H 247.547 2.40135 0.932363 0
M  V30 2613 H 247.505 1.8228 2.56167 0
M  V30 2614 N 251.277 0.427512 1.51691 0
M  V30 2615 C 252.502 -0.143601 2.06902 0
M  V30 2616 C 252.927 -1.36536 1.29382 0
M  V30 2617 O 252.285 -1.78289 0.329043 0
M  V30 2618 C 252.333 -0.454207 3.57728 0
M  V30 2619 O 251.437 -1.54228 3.82475 0
M  V30 2620 H 250.778 -0.00617128 0.663971 0
M  V30 2621 H 253.308 0.606014 1.95419 0
M  V30 2622 H 253.318 -0.707525 4.01818 0
M  V30 2623 H 251.993 0.438812 4.13579 0
M  V30 2624 H 250.57 -1.2797 3.50254 0
M  V30 2625 N 252.755 -1.56801 0.158532 0
M  V30 2626 C 254.001 -1.97559 -0.483957 0
M  V30 2627 C 254.356 -1.04239 -1.61716 0
M  V30 2628 O 253.649 -0.079603 -1.91435 0
M  V30 2629 C 253.843 -3.4235 -1.02623 0
M  V30 2630 C 253.672 -4.49669 0.0528929 0
M  V30 2631 C 252.442 -5.02838 0.498234 0
M  V30 2632 C 254.64 -5.0725 0.848616 0
M  V30 2633 N 252.622 -5.93775 1.559 0
M  V30 2634 C 253.993 -5.94506 1.7596 0
M  V30 2635 C 256.048 -4.89788 0.895121 0
M  V30 2636 C 254.751 -6.66169 2.71314 0
M  V30 2637 C 256.777 -5.62161 1.83654 0
M  V30 2638 C 256.139 -6.49134 2.73503 0
M  V30 2639 H 252.238 -0.768332 -0.145566 0
M  V30 2640 H 254.822 -1.93012 0.255799 0
M  V30 2641 H 252.993 -3.47467 -1.73555 0
M  V30 2642 H 254.725 -3.70145 -1.63629 0
M  V30 2643 H 251.48 -4.73498 0.0983222 0
M  V30 2644 H 251.904 -6.43948 2.08949 0
M  V30 2645 H 256.546 -4.22255 0.21453 0
M  V30 2646 H 254.264 -7.32923 3.40367 0
M  V30 2647 H 257.85 -5.5064 1.87847 0
M  V30 2648 H 256.73 -7.04153 3.45163 0
M  V30 2649 N 254.233 0.115231 -1.57178 0
M  V30 2650 C 255.479 0.82357 -1.85325 0
M  V30 2651 C 255.812 1.79349 -0.744814 0
M  V30 2652 O 255.087 1.92899 0.249024 0
M  V30 2653 C 255.37 1.57014 -3.24066 0
M  V30 2654 C 255.223 0.619565 -4.45513 0
M  V30 2655 C 256.542 2.52545 -3.60429 0
M  V30 2656 H 253.661 0.297948 -0.674089 0
M  V30 2657 H 256.303 0.0877138 -1.89797 0
M  V30 2658 H 254.453 2.19742 -3.20383 0
M  V30 2659 H 256.125 0.000837639 -4.613 0
M  V30 2660 H 254.368 -0.0686174 -4.33746 0
M  V30 2661 H 255.039 1.17866 -5.3927 0
M  V30 2662 H 257.515 1.9992 -3.64926 0
M  V30 2663 H 256.391 3.01811 -4.58477 0
M  V30 2664 H 256.652 3.35383 -2.88047 0
M  V30 2665 N 255.711 1.52812 0.385517 0
M  V30 2666 C 256.658 1.77838 1.47113 0
M  V30 2667 C 257.628 0.621757 1.54024 0
M  V30 2668 O 258.813 0.861846 1.70226 0
M  V30 2669 C 255.953 1.95618 2.84302 0
M  V30 2670 C 255.066 3.23316 2.86515 0
M  V30 2671 C 254.201 3.31394 4.15152 0
M  V30 2672 C 253.24 4.53201 4.1143 0
M  V30 2673 N 252.377 4.58542 5.3168 0
M  V30 2674 H 257.217 2.70482 1.25073 0
M  V30 2675 H 254.754 1.34006 0.606692 0
M  V30 2676 H 256.712 2.03912 3.63972 0
M  V30 2677 H 255.342 1.06331 3.04784 0
M  V30 2678 H 254.394 3.24076 1.99195 0
M  V30 2679 H 255.706 4.13045 2.79634 0
M  V30 2680 H 254.86 3.3889 5.03228 0
M  V30 2681 H 253.599 2.39645 4.24761 0
M  V30 2682 H 252.604 4.45827 3.21742 0
M  V30 2683 H 253.829 5.46271 4.03442 0
M  V30 2684 H 251.775 3.69686 5.41912 0
M  V30 2685 H 251.692 5.42148 5.26889 0
M  V30 2686 H 252.96 4.70296 6.21644 0
M  V30 2687 N 257.189 -0.644168 1.43834 0
M  V30 2688 C 258.417 -1.43147 1.49387 0
M  V30 2689 C 258.832 -1.88452 0.114583 0
M  V30 2690 O 258.189 -1.60047 -0.876989 0
M  V30 2691 C 258.24 -2.66046 2.44748 0
M  V30 2692 O 257.961 -2.22633 3.77314 0
M  V30 2693 C 259.462 -3.59311 2.59635 0
M  V30 2694 H 256.682 -0.439447 0.507077 0
M  V30 2695 H 259.226 -0.78895 1.88669 0
M  V30 2696 H 257.381 -3.26418 2.08638 0
M  V30 2697 H 257.795 -3.02216 4.28679 0
M  V30 2698 H 259.269 -4.42187 3.30416 0
M  V30 2699 H 259.746 -4.07259 1.64427 0
M  V30 2700 H 260.352 -3.04816 2.96593 0
M  V30 2701 N 258.668 -1.30515 -0.883378 0
M  V30 2702 C 259.6 -1.12846 -1.99496 0
M  V30 2703 C 260.613 -0.0712571 -1.62644 0
M  V30 2704 O 261.802 -0.317432 -1.75655 0
M  V30 2705 C 258.902 -0.699123 -3.3161 0
M  V30 2706 C 258.075 -1.83842 -3.96889 0
M  V30 2707 C 257.134 -1.39737 -5.07307 0
M  V30 2708 O 256.16 -2.10485 -5.28852 0
M  V30 2709 N 257.362 -0.277279 -5.79837 0
M  V30 2710 H 260.127 -2.08585 -2.15203 0
M  V30 2711 H 257.688 -1.22672 -1.05656 0
M  V30 2712 H 259.68 -0.387044 -4.02845 0
M  V30 2713 H 258.25 0.166276 -3.12157 0
M  V30 2714 H 257.47 -2.31853 -3.18807 0
M  V30 2715 H 258.758 -2.60187 -4.37241 0
M  V30 2716 H 258.156 0.3122 -5.64838 0
M  V30 2717 H 256.713 -0.0246623 -6.51795 0
M  V30 2718 N 260.146 1.09593 -1.13257 0
M  V30 2719 C 261.374 1.855 -0.916378 0
M  V30 2720 C 261.789 1.81069 0.534738 0
M  V30 2721 O 261.146 1.20562 1.37007 0
M  V30 2722 C 261.197 3.33546 -1.39388 0
M  V30 2723 O 260.918 3.37927 -2.78813 0
M  V30 2724 C 262.419 4.26299 -1.21588 0
M  V30 2725 H 259.639 0.585991 -0.326887 0
M  V30 2726 H 262.183 1.38488 -1.5047 0
M  V30 2727 H 260.338 3.77992 -0.848597 0
M  V30 2728 H 260.752 4.30254 -2.9997 0
M  V30 2729 H 262.226 5.28341 -1.59876 0
M  V30 2730 H 262.703 4.38918 -0.157376 0
M  V30 2731 H 263.309 3.87668 -1.7491 0
M  V30 2732 N 261.624 0.925811 1.2754 0
M  V30 2733 C 262.571 0.422045 2.26908 0
M  V30 2734 C 263.541 -0.510029 1.58076 0
M  V30 2735 O 264.726 -0.429599 1.85901 0
M  V30 2736 C 261.866 -0.320837 3.43605 0
M  V30 2737 C 260.979 0.64513 4.27156 0
M  V30 2738 C 260.114 -0.117405 5.3107 0
M  V30 2739 C 259.153 0.841391 6.0629 0
M  V30 2740 N 258.29 0.111604 7.02011 0
M  V30 2741 H 263.13 1.27441 2.69375 0
M  V30 2742 H 260.667 0.639697 1.32462 0
M  V30 2743 H 262.625 -0.76785 4.10073 0
M  V30 2744 H 261.255 -1.13745 3.02096 0
M  V30 2745 H 260.307 1.21067 3.6062 0
M  V30 2746 H 261.619 1.37797 4.79389 0
M  V30 2747 H 260.773 -0.624422 6.03478 0
M  V30 2748 H 259.512 -0.883219 4.79636 0
M  V30 2749 H 258.517 1.35967 5.32722 0
M  V30 2750 H 259.742 1.60696 6.59813 0
M  V30 2751 H 257.688 -0.635999 6.5291 0
M  V30 2752 H 257.605 0.784044 7.51923 0
M  V30 2753 H 258.873 -0.374823 7.78598 0
M  V30 2754 N 263.102 -1.41638 0.69111 0
M  V30 2755 C 264.35 -2.00902 0.219758 0
M  V30 2756 C 264.671 -1.54994 -1.18329 0
M  V30 2757 O 263.941 -0.778628 -1.79762 0
M  V30 2758 H 262.521 -0.74289 0.0782558 0
M  V30 2759 H 265.183 -1.73327 0.891271 0
M  V30 2760 H 264.279 -3.11224 0.233708 0
M  V30 2761 N 264.58 -0.43555 -1.51462 0
M  V30 2762 C 265.527 0.376797 -2.27703 0
M  V30 2763 C 266.497 1.01838 -1.31219 0
M  V30 2764 O 267.682 1.03762 -1.60119 0
M  V30 2765 C 264.822 1.47301 -3.12084 0
M  V30 2766 C 263.935 0.849744 -4.2356 0
M  V30 2767 C 263.07 1.92086 -4.95254 0
M  V30 2768 C 262.109 1.27593 -5.98654 0
M  V30 2769 N 261.246 2.28833 -6.63762 0
M  V30 2770 H 266.086 -0.279734 -2.96684 0
M  V30 2771 H 263.623 -0.149795 -1.46335 0
M  V30 2772 H 265.581 2.11984 -3.59331 0
M  V30 2773 H 264.211 2.0992 -2.45221 0
M  V30 2774 H 263.263 0.0912529 -3.80291 0
M  V30 2775 H 264.575 0.338878 -4.97648 0
M  V30 2776 H 263.729 2.64435 -5.46039 0
M  V30 2777 H 262.468 2.46545 -4.20793 0
M  V30 2778 H 261.473 0.537893 -5.47162 0
M  V30 2779 H 262.698 0.738693 -6.7507 0
M  V30 2780 H 260.644 2.82375 -5.92115 0
M  V30 2781 H 260.561 1.82632 -7.33608 0
M  V30 2782 H 261.829 3.00671 -7.19178 0
M  V30 2783 N 266.058 1.56714 -0.166846 0
M  V30 2784 C 267.307 1.95922 0.479318 0
M  V30 2785 C 267.62 1.05529 1.6469 0
M  V30 2786 O 268.826 1.34399 2.35901 0
M  V30 2787 C 267.282 3.48359 0.90412 0
M  V30 2788 C 266.89 4.47369 -0.237621 0
M  V30 2789 C 268.634 3.96394 1.51896 0
M  V30 2790 C 266.541 5.91039 0.206561 0
M  V30 2791 H 265.471 0.731495 0.18284 0
M  V30 2792 H 268.122 1.81728 -0.254363 0
M  V30 2793 H 266.504 3.57955 1.69365 0
M  V30 2794 H 267.678 4.49485 -1.01489 0
M  V30 2795 H 265.993 4.09366 -0.762128 0
M  V30 2796 H 268.59 5.01186 1.86325 0
M  V30 2797 H 268.933 3.39075 2.41524 0
M  V30 2798 H 269.466 3.89796 0.79395 0
M  V30 2799 H 266.205 6.52221 -0.654834 0
M  V30 2800 H 265.725 5.9224 0.949282 0
M  V30 2801 H 267.404 6.43707 0.651939 0
M  V30 2802 N 267.536 -0.106894 1.57237 0
M  V30 2803 C 268.947 -0.662723 1.74542 0
M  V30 2804 C 269.298 -1.7971 0.787319 0
M  V30 2805 O 268.423 -2.16368 -0.0369636 0
M  V30 2806 C 269.018 -1.20896 3.16496 0
M  V30 2807 C 267.577 -1.71096 3.35266 0
M  V30 2808 C 266.724 -0.615642 2.7038 0
M  V30 2809 H 269.675 0.119106 1.58252 0
M  V30 2810 H 269.696 -2.07847 3.18716 0
M  V30 2811 H 269.208 -0.383122 3.86204 0
M  V30 2812 H 267.309 -2.56119 2.70618 0
M  V30 2813 H 267.422 -1.81208 4.43509 0
M  V30 2814 H 265.786 -1.05222 2.31949 0
M  V30 2815 H 266.569 0.199419 3.4272 0
M  V30 2816 N 269.014 -1.53014 -0.377408 0
M  V30 2817 C 269.962 -1.7927 -1.48206 0
M  V30 2818 C 270.956 -0.661195 -1.55963 0
M  V30 2819 O 272.162 -0.843908 -1.58991 0
M  V30 2820 H 268.537 -0.567425 -0.493491 0
M  V30 2821 H 270.508 -2.71753 -1.2326 0
M  V30 2822 C 269.257 -1.98894 -2.85196 0
M  V30 2823 H 268.58 -2.85395 -2.79981 0
M  V30 2824 H 270.02 -2.21249 -3.61698 0
M  V30 2825 C 268.479 -0.764691 -3.28107 0
M  V30 2826 O 269.009 0.0523226 -4.01666 0
M  V30 2827 N 267.215 -0.591493 -2.84517 0
M  V30 2828 H 266.762 -1.25749 -2.24822 0
M  V30 2829 H 266.72 0.226253 -3.13585 0
M  V30 2830 N 270.492 0.636531 -1.44174 0
M  V30 2831 C 271.422 1.76003 -1.53444 0
M  V30 2832 C 272.403 1.65619 -0.387841 0
M  V30 2833 O 273.588 1.84461 -0.607257 0
M  V30 2834 C 270.718 3.14511 -1.4731 0
M  V30 2835 C 269.672 3.39677 -2.60391 0
M  V30 2836 C 268.998 4.78159 -2.39308 0
M  V30 2837 C 270.298 3.32772 -4.02567 0
M  V30 2838 H 271.992 1.68501 -2.47483 0
M  V30 2839 H 269.538 0.809237 -1.19111 0
M  V30 2840 H 271.491 3.92878 -1.52397 0
M  V30 2841 H 270.215 3.22783 -0.49785 0
M  V30 2842 H 268.874 2.63688 -2.54684 0
M  V30 2843 H 268.522 4.83128 -1.39988 0
M  V30 2844 H 268.222 4.95956 -3.15122 0
M  V30 2845 H 269.746 5.58762 -2.46205 0
M  V30 2846 H 271.16 4.01051 -4.09672 0
M  V30 2847 H 269.557 3.62104 -4.7854 0
M  V30 2848 H 270.627 2.30669 -4.2652 0
M  V30 2849 N 271.97 1.30982 0.876444 0
M  V30 2850 C 272.9 1.20668 1.99903 0
M  V30 2851 C 273.881 0.095354 1.69833 0
M  V30 2852 O 275.066 0.27885 1.92188 0
M  V30 2853 C 272.196 0.90655 3.3526 0
M  V30 2854 C 271.15 1.97675 3.79617 0
M  V30 2855 C 270.476 1.52943 5.1236 0
M  V30 2856 C 271.776 3.389 3.97422 0
M  V30 2857 H 273.47 2.14586 2.0879 0
M  V30 2858 H 271.016 1.03308 1.00317 0
M  V30 2859 H 272.969 0.821025 4.13324 0
M  V30 2860 H 271.693 -0.0682969 3.26529 0
M  V30 2861 H 270.352 2.05205 3.03787 0
M  V30 2862 H 270 0.54262 5.00065 0
M  V30 2863 H 269.7 2.24532 5.43009 0
M  V30 2864 H 271.224 1.45786 5.92941 0
M  V30 2865 H 272.638 3.34081 4.659 0
M  V30 2866 H 271.035 4.0865 4.3946 0
M  V30 2867 H 272.105 3.80163 3.01006 0
M  V30 2868 N 273.449 -1.08991 1.13837 0
M  V30 2869 C 274.86 -1.62746 0.914917 0
M  V30 2870 C 275.211 -1.88403 -0.547594 0
M  V30 2871 O 274.336 -1.63706 -1.41525 0
M  V30 2872 C 274.931 -2.95662 1.65437 0
M  V30 2873 C 273.49 -3.46225 1.47666 0
M  V30 2874 C 272.637 -2.20562 1.6807 0
M  V30 2875 H 275.588 -0.922946 1.29102 0
M  V30 2876 H 275.609 -3.63825 1.11407 0
M  V30 2877 H 275.121 -2.76956 2.71877 0
M  V30 2878 H 273.222 -3.70046 0.435478 0
M  V30 2879 H 273.335 -4.23368 2.24268 0
M  V30 2880 H 271.699 -2.29439 1.10589 0
M  V30 2881 H 272.482 -2.0437 2.7584 0
M  V30 2882 N 274.927 -0.932562 -1.27047 0
M  V30 2883 C 275.837 -0.441219 -2.30414 0
M  V30 2884 C 276.853 0.480525 -1.67233 0
M  V30 2885 O 278.029 0.362151 -1.98117 0
M  V30 2886 C 275.094 0.293651 -3.45454 0
M  V30 2887 C 274.155 -0.663601 -4.2414 0
M  V30 2888 C 273.388 0.0362932 -5.33688 0
M  V30 2889 O 273.611 1.2548 -5.56427 0
M  V30 2890 O 272.545 -0.638015 -5.98509 0
M  V30 2891 H 276.371 -1.29962 -2.74488 0
M  V30 2892 H 273.956 -0.6981 -1.32087 0
M  V30 2893 H 275.838 0.707951 -4.15411 0
M  V30 2894 H 274.513 1.12758 -3.03426 0
M  V30 2895 H 273.42 -1.12768 -3.56699 0
M  V30 2896 H 274.753 -1.46489 -4.69896 0
M  V30 2897 N 276.405 1.4127 -0.698611 0
M  V30 2898 C 277.653 2.00782 -0.230409 0
M  V30 2899 C 277.974 1.5562 1.17505 0
M  V30 2900 O 277.244 0.78815 1.79346 0
M  V30 2901 H 275.824 0.742464 -0.0821944 0
M  V30 2902 H 278.486 1.72852 -0.90045 0
M  V30 2903 H 277.582 3.11095 -0.25021 0
M  V30 2904 N 277.883 0.443576 1.51229 0
M  V30 2905 C 279.108 -0.121648 2.07043 0
M  V30 2906 C 279.533 -1.35156 1.30823 0
M  V30 2907 O 278.891 -1.7793 0.347934 0
M  V30 2908 C 278.939 -0.41624 3.5819 0
M  V30 2909 O 278.043 -1.50163 3.8409 0
M  V30 2910 H 277.384 0.000871367 0.663999 0
M  V30 2911 H 279.914 0.626706 1.94765 0
M  V30 2912 H 279.924 -0.664867 4.02546 0
M  V30 2913 H 278.599 0.482653 4.1309 0
M  V30 2914 H 277.176 -1.24248 3.51592 0
M  V30 2915 N 279.361 -1.56624 0.175154 0
M  V30 2916 C 280.607 -1.9729 -0.469506 0
M  V30 2917 C 280.94 -1.06128 -1.62636 0
M  V30 2918 O 280.215 -0.109183 -1.94193 0
M  V30 2919 C 280.498 -3.47375 -0.948804 0
M  V30 2920 C 280.351 -4.49317 0.208491 0
M  V30 2921 C 281.67 -4.00652 -1.82116 0
M  V30 2922 H 278.789 -0.717317 -0.16919 0
M  V30 2923 H 281.431 -1.88184 0.262062 0
M  V30 2924 H 279.581 -3.55267 -1.57219 0
M  V30 2925 H 281.253 -4.53482 0.845682 0
M  V30 2926 H 279.496 -4.25121 0.863395 0
M  V30 2927 H 280.167 -5.51741 -0.169059 0
M  V30 2928 H 282.643 -3.95416 -1.2956 0
M  V30 2929 H 281.519 -5.06075 -2.12554 0
M  V30 2930 H 281.78 -3.44699 -2.7683 0
M  V30 2931 N 280.839 0.0985539 -1.57292 0
M  V30 2932 C 282.116 0.834155 -1.76921 0
M  V30 2933 C 282.496 1.97101 -0.755928 0
M  V30 2934 O 281.844 2.27474 0.216245 0
M  V30 2935 C 282.054 1.33194 -3.22584 0
M  V30 2936 C 283.402 1.77611 -3.85668 0
M  V30 2937 O 284.426 1.42825 -3.26312 0
M  V30 2938 O 283.285 2.4192 -4.90038 0
M  V30 2939 H 280.379 0.397628 -0.725135 0
M  V30 2940 H 282.925 0.0807044 -1.69508 0
M  V30 2941 H 281.697 0.517248 -3.87866 0
M  V30 2942 H 281.32 2.1475 -3.34616 0
M  V30 2943 N 282.317 1.53212 0.369288 0
M  V30 2944 C 283.565 1.68881 1.11012 0
M  V30 2945 C 283.886 0.441285 1.89941 0
M  V30 2946 O 283.156 -0.544623 1.88177 0
M  V30 2947 H 281.736 0.622569 0.412816 0
M  V30 2948 H 284.398 1.90391 0.416802 0
M  V30 2949 H 283.494 2.54822 1.80201 0
M  V30 2950 N 283.795 -0.628877 1.44509 0
M  V30 2951 C 285.072 -1.38733 1.37886 0
M  V30 2952 C 285.452 -2.11065 0.0387008 0
M  V30 2953 O 284.8 -2.06476 -0.97878 0
M  V30 2954 C 285.01 -2.35188 2.57852 0
M  V30 2955 C 286.358 -2.9845 3.02014 0
M  V30 2956 O 287.382 -2.45513 2.58073 0
M  V30 2957 O 286.241 -3.94487 3.78209 0
M  V30 2958 H 283.335 -0.621015 0.54614 0
M  V30 2959 H 285.881 -0.653744 1.56602 0
M  V30 2960 H 284.653 -1.80855 3.46998 0
M  V30 2961 H 284.276 -3.1596 2.4136 0
M  V30 2962 N 285.273 -1.31445 -0.869486 0
M  V30 2963 C 286.501 -1.24122 -1.65534 0
M  V30 2964 C 286.916 0.193387 -1.87807 0
M  V30 2965 O 286.273 1.12557 -1.43656 0
M  V30 2966 C 286.324 -1.98229 -3.02304 0
M  V30 2967 O 286.045 -3.3609 -2.81026 0
M  V30 2968 C 287.546 -1.97751 -3.96749 0
M  V30 2969 H 284.766 -0.428868 -0.516055 0
M  V30 2970 H 287.31 -1.73328 -1.08525 0
M  V30 2971 H 285.465 -1.52782 -3.56001 0
M  V30 2972 H 285.879 -3.7383 -3.67902 0
M  V30 2973 H 287.353 -2.54114 -4.90031 0
M  V30 2974 H 287.83 -0.960137 -4.28577 0
M  V30 2975 H 288.436 -2.43079 -3.48988 0
M  V30 2976 N 286.751 1.08385 -1.14413 0
M  V30 2977 C 288.167 1.32844 -0.884563 0
M  V30 2978 C 288.367 1.95841 0.474181 0
M  V30 2979 O 287.423 2.21158 1.21842 0
M  V30 2980 C 288.736 2.22978 -2.01745 0
M  V30 2981 C 290.284 2.36458 -2.05077 0
M  V30 2982 C 290.759 3.29934 -3.1766 0
M  V30 2983 N 292.25 3.37511 -3.17239 0
M  V30 2984 C 292.985 4.09871 -4.0099 0
M  V30 2985 N 292.481 4.84936 -4.94781 0
M  V30 2986 N 294.274 4.05704 -3.89051 0
M  V30 2987 H 286.425 0.658756 -2.01926 0
M  V30 2988 H 288.688 0.352821 -0.879899 0
M  V30 2989 H 288.394 1.83934 -2.99769 0
M  V30 2990 H 288.268 3.23441 -1.94077 0
M  V30 2991 H 290.655 2.7476 -1.0766 0
M  V30 2992 H 290.736 1.35736 -2.16816 0
M  V30 2993 H 290.38 2.92352 -4.15322 0
M  V30 2994 H 290.31 4.30584 -3.03158 0
M  V30 2995 H 292.801 2.83996 -2.49308 0
M  V30 2996 H 293.114 5.37612 -5.55151 0
M  V30 2997 H 291.459 4.83988 -4.98779 0
M  V30 2998 H 294.65 3.46167 -3.15097 0
M  V30 2999 H 294.823 4.61834 -4.54547 0
M  V30 3000 N 288.23 0.939286 1.26551 0
M  V30 3001 C 289.163 0.391702 2.24813 0
M  V30 3002 C 290.141 -0.518421 1.54114 0
M  V30 3003 O 291.325 -0.456299 1.82894 0
M  V30 3004 C 288.452 -0.437382 3.35864 0
M  V30 3005 C 287.498 0.410946 4.24516 0
M  V30 3006 S 288.331 1.83372 5.03125 0
M  V30 3007 C 289.487 1.01264 6.17654 0
M  V30 3008 H 289.72 1.22448 2.70913 0
M  V30 3009 H 287.253 0.742269 1.35387 0
M  V30 3010 H 289.211 -0.909837 4.0029 0
M  V30 3011 H 287.872 -1.24482 2.8838 0
M  V30 3012 H 287.065 -0.224191 5.03501 0
M  V30 3013 H 286.667 0.818014 3.64945 0
M  V30 3014 H 288.959 0.254023 6.77024 0
M  V30 3015 H 289.902 1.77589 6.85469 0
M  V30 3016 H 290.31 0.549532 5.61819 0
M  V30 3017 N 289.708 -1.40897 0.706093 0
M  V30 3018 C 290.954 -2.01352 0.241889 0
M  V30 3019 C 291.287 -1.55832 -1.15888 0
M  V30 3020 O 290.562 -0.774145 -1.7843 0
M  V30 3021 C 290.845 -3.58752 0.311311 0
M  V30 3022 C 290.698 -4.1437 1.74978 0
M  V30 3023 C 292.017 -4.38914 -0.322922 0
M  V30 3024 H 289.136 -0.731562 0.0893687 0
M  V30 3025 H 291.778 -1.67504 0.896802 0
M  V30 3026 H 289.928 -3.87718 -0.246302 0
M  V30 3027 H 291.6 -3.96239 2.36205 0
M  V30 3028 H 289.843 -3.69016 2.28057 0
M  V30 3029 H 290.514 -5.23532 1.74981 0
M  V30 3030 H 292.99 -4.15822 0.152089 0
M  V30 3031 H 291.866 -5.48358 -0.243855 0
M  V30 3032 H 292.127 -4.19176 -1.40513 0
M  V30 3033 N 291.186 -0.45159 -1.50991 0
M  V30 3034 C 292.116 0.342898 -2.30969 0
M  V30 3035 C 293.097 1.00815 -1.37005 0
M  V30 3036 O 294.282 1.00907 -1.65926 0
M  V30 3037 C 291.412 1.43637 -3.16205 0
M  V30 3038 C 290.366 0.893818 -4.18563 0
M  V30 3039 C 289.692 2.08411 -4.92411 0
M  V30 3040 C 290.992 -0.0815568 -5.22236 0
M  V30 3041 H 292.686 -0.324556 -2.97636 0
M  V30 3042 H 290.232 -0.157531 -1.43136 0
M  V30 3043 H 292.185 1.9995 -3.70942 0
M  V30 3044 H 290.909 2.13232 -2.47386 0
M  V30 3045 H 289.568 0.352798 -3.64898 0
M  V30 3046 H 289.216 2.76658 -4.20082 0
M  V30 3047 H 288.916 1.72741 -5.61636 0
M  V30 3048 H 290.44 2.65251 -5.49976 0
M  V30 3049 H 291.854 0.391742 -5.7196 0
M  V30 3050 H 290.251 -0.351551 -5.99069 0
M  V30 3051 H 291.321 -1.01374 -4.74185 0
M  V30 3052 N 292.664 1.56529 -0.183458 0
M  V30 3053 C 293.91 1.97537 0.459036 0
M  V30 3054 C 294.243 1.06989 1.62071 0
M  V30 3055 O 293.518 0.11948 1.94133 0
M  V30 3056 C 293.801 3.47874 0.930368 0
M  V30 3057 C 293.654 4.492 -0.232317 0
M  V30 3058 C 294.973 4.01612 1.79989 0
M  V30 3059 H 292.092 0.718204 0.165383 0
M  V30 3060 H 294.734 1.88042 -0.272038 0
M  V30 3061 H 292.884 3.56095 1.55333 0
M  V30 3062 H 294.556 4.53027 -0.86972 0
M  V30 3063 H 292.799 4.24657 -0.885928 0
M  V30 3064 H 293.47 5.51823 0.139796 0
M  V30 3065 H 295.946 3.96097 1.27461 0
M  V30 3066 H 294.822 5.07195 2.09867 0
M  V30 3067 H 295.083 3.46163 2.74998 0
M  V30 3068 N 294.142 -0.090211 1.57342 0
M  V30 3069 C 295.09 -1.12792 2.03422 0
M  V30 3070 C 296.084 -1.41182 0.936166 0
M  V30 3071 O 297.29 -1.40805 1.12133 0
M  V30 3072 H 293.665 -0.380986 0.648347 0
M  V30 3073 H 295.636 -0.71299 2.89757 0
M  V30 3074 C 294.385 -2.43855 2.47851 0
M  V30 3075 H 293.708 -2.22855 3.31927 0
M  V30 3076 H 295.148 -3.14955 2.83865 0
M  V30 3077 C 293.607 -3.08503 1.3538 0
M  V30 3078 O 294.137 -3.95805 0.685641 0
M  V30 3079 N 292.343 -2.68831 1.10355 0
M  V30 3080 H 291.89 -1.97929 1.64869 0
M  V30 3081 H 291.848 -3.12412 0.353031 0
M  V30 3082 N 295.62 -1.53406 -0.361157 0
M  V30 3083 C 296.583 -1.79479 -1.42548 0
M  V30 3084 C 297.583 -0.665327 -1.4639 0
M  V30 3085 O 298.773 -0.933549 -1.47073 0
M  V30 3086 C 295.905 -1.92087 -2.8163 0
M  V30 3087 H 297.098 -2.74538 -1.20701 0
M  V30 3088 H 294.651 -1.4455 -0.594546 0
M  V30 3089 H 295.386 -0.991099 -3.08784 0
M  V30 3090 H 295.171 -2.74241 -2.80239 0
M  V30 3091 H 296.661 -2.13836 -3.58697 0
M  V30 3092 N 297.098 0.621204 -1.44841 0
M  V30 3093 C 298.344 1.3826 -1.48365 0
M  V30 3094 C 298.677 1.93831 -0.119624 0
M  V30 3095 O 297.952 1.74251 0.864111 0
M  V30 3096 C 298.235 2.54058 -2.55199 0
M  V30 3097 C 298.088 2.03772 -4.00995 0
M  V30 3098 C 299.407 3.56225 -2.58442 0
M  V30 3099 H 296.526 0.501374 -0.540179 0
M  V30 3100 H 299.168 0.7015 -1.76576 0
M  V30 3101 H 297.318 3.12162 -2.31274 0
M  V30 3102 H 298.99 1.50423 -4.36086 0
M  V30 3103 H 297.233 1.34876 -4.12299 0
M  V30 3104 H 297.904 2.87185 -4.71411 0
M  V30 3105 H 300.38 3.07939 -2.79844 0
M  V30 3106 H 299.256 4.34756 -3.3508 0
M  V30 3107 H 299.517 4.10949 -1.63013 0
M  V30 3108 N 298.576 1.31904 0.862503 0
M  V30 3109 C 299.806 1.24817 1.64634 0
M  V30 3110 C 300.214 -0.187579 1.88268 0
M  V30 3111 O 299.557 -1.13253 1.44635 0
M  V30 3112 C 299.619 1.92996 3.03303 0
M  V30 3113 C 299.283 3.42336 3.02746 0
M  V30 3114 C 300.28 4.37956 2.80162 0
M  V30 3115 C 297.965 3.84147 3.2363 0
M  V30 3116 C 299.959 5.73361 2.78453 0
M  V30 3117 C 297.646 5.19663 3.21549 0
M  V30 3118 C 298.644 6.14081 2.98988 0
M  V30 3119 O 298.332 7.47118 2.96766 0
M  V30 3120 H 298.064 0.432222 0.519769 0
M  V30 3121 H 300.618 1.7445 1.08427 0
M  V30 3122 H 298.848 1.37922 3.61268 0
M  V30 3123 H 300.537 1.79723 3.63943 0
M  V30 3124 H 301.303 4.06981 2.63802 0
M  V30 3125 H 297.182 3.11083 3.40218 0
M  V30 3126 H 300.726 6.4703 2.60763 0
M  V30 3127 H 296.623 5.5027 3.37451 0
M  V30 3128 H 297.391 7.56382 3.12775 0
M  V30 3129 N 300.054 -1.07777 1.14986 0
M  V30 3130 C 301.301 -1.8029 0.922056 0
M  V30 3131 C 301.629 -1.86531 -0.55105 0
M  V30 3132 O 300.884 -1.34189 -1.42449 0
M  V30 3133 C 301.183 -3.25495 1.47608 0
M  V30 3134 C 300.849 -3.39361 2.96893 0
M  V30 3135 C 299.511 -3.42852 3.37647 0
M  V30 3136 C 301.863 -3.42512 3.92854 0
M  V30 3137 C 299.191 -3.47094 4.73015 0
M  V30 3138 C 301.543 -3.4829 5.28088 0
M  V30 3139 C 300.207 -3.50058 5.68345 0
M  V30 3140 H 299.477 -0.659727 0.337404 0
M  V30 3141 H 302.124 -1.26854 1.43459 0
M  V30 3142 H 300.429 -3.81683 0.88463 0
M  V30 3143 H 302.126 -3.80168 1.27568 0
M  V30 3144 H 298.716 -3.37339 2.64387 0
M  V30 3145 H 302.9 -3.3904 3.62444 0
M  V30 3146 H 298.156 -3.46758 5.03556 0
M  V30 3147 H 302.33 -3.49675 6.02246 0
M  V30 3148 H 299.957 -3.53097 6.73221 0
M  V30 3149 N 301.532 -0.945985 -1.26051 0
M  V30 3150 C 302.479 -0.45809 -2.26208 0
M  V30 3151 C 303.449 0.484816 -1.58867 0
M  V30 3152 O 304.634 0.399969 -1.86561 0
M  V30 3153 C 301.774 0.266131 -3.44072 0
M  V30 3154 C 300.887 -0.713005 -4.26075 0
M  V30 3155 C 300.022 0.0329013 -5.3119 0
M  V30 3156 C 299.061 -0.93774 -6.04874 0
M  V30 3157 N 298.198 -0.223274 -7.01745 0
M  V30 3158 H 303.038 -1.3171 -2.67313 0
M  V30 3159 H 300.575 -0.66069 -1.31428 0
M  V30 3160 H 302.533 0.702514 -4.11243 0
M  V30 3161 H 301.163 1.08925 -3.03867 0
M  V30 3162 H 300.215 -1.26789 -3.58648 0
M  V30 3163 H 301.527 -1.45406 -4.77136 0
M  V30 3164 H 300.681 0.528335 -6.04395 0
M  V30 3165 H 299.42 0.806801 -4.8098 0
M  V30 3166 H 298.425 -1.44425 -5.30492 0
M  V30 3167 H 299.65 -1.71172 -6.57173 0
M  V30 3168 H 297.596 0.532046 -6.53839 0
M  V30 3169 H 297.513 -0.90357 -7.50581 0
M  V30 3170 H 298.781 0.250907 -7.79096 0
M  V30 3171 N 303.011 1.40521 -0.713556 0
M  V30 3172 C 304.259 2.00527 -0.251692 0
M  V30 3173 C 304.58 1.56857 1.15848 0
M  V30 3174 O 303.85 0.807127 1.785 0
M  V30 3175 H 302.43 0.741551 -0.0900646 0
M  V30 3176 H 305.092 1.71887 -0.918733 0
M  V30 3177 H 304.188 3.10813 -0.283192 0
M  V30 3178 N 304.489 0.459591 1.5075 0
M  V30 3179 C 305.436 -0.340524 2.28274 0
M  V30 3180 C 306.406 -0.997371 1.32822 0
M  V30 3181 O 307.591 -1.01202 1.61749 0
M  V30 3182 C 304.731 -1.42317 3.14388 0
M  V30 3183 C 303.844 -0.782251 4.24859 0
M  V30 3184 C 302.979 -1.84182 4.98247 0
M  V30 3185 C 302.018 -1.18053 6.00608 0
M  V30 3186 N 301.155 -2.18244 6.67319 0
M  V30 3187 H 305.995 0.326899 2.96202 0
M  V30 3188 H 303.532 0.173057 1.46078 0
M  V30 3189 H 305.49 -2.06241 3.62658 0
M  V30 3190 H 304.12 -2.05992 2.4853 0
M  V30 3191 H 303.172 -0.0307404 3.80388 0
M  V30 3192 H 304.484 -0.259663 4.98124 0
M  V30 3193 H 303.638 -2.55714 5.50177 0
M  V30 3194 H 302.377 -2.39819 4.24662 0
M  V30 3195 H 301.382 -0.450776 5.47949 0
M  V30 3196 H 302.607 -0.631202 6.7616 0
M  V30 3197 H 300.553 -2.72919 5.96533 0
M  V30 3198 H 300.47 -1.70938 7.36421 0
M  V30 3199 H 301.738 -2.89191 7.23871 0
M  V30 3200 N 305.967 -1.56429 0.191757 0
M  V30 3201 C 307.213 -1.98541 -0.441943 0
M  V30 3202 C 307.568 -1.07646 -1.59468 0
M  V30 3203 O 306.861 -0.120191 -1.91223 0
M  V30 3204 C 307.055 -3.44449 -0.953384 0
M  V30 3205 C 306.884 -4.49456 0.148262 0
M  V30 3206 C 305.654 -5.01668 0.604781 0
M  V30 3207 C 307.852 -5.05336 0.95602 0
M  V30 3208 N 305.834 -5.90334 1.6846 0
M  V30 3209 C 307.205 -5.9064 1.88531 0
M  V30 3210 C 309.26 -4.87779 0.998811 0
M  V30 3211 C 307.963 -6.60264 2.85383 0
M  V30 3212 C 309.989 -5.58139 1.95537 0
M  V30 3213 C 309.351 -6.43187 2.8721 0
M  V30 3214 H 305.45 -0.771247 -0.129236 0
M  V30 3215 H 308.034 -1.92426 0.296682 0
M  V30 3216 H 306.205 -3.5107 -1.66146 0
M  V30 3217 H 307.937 -3.73533 -1.55741 0
M  V30 3218 H 304.692 -4.73183 0.198736 0
M  V30 3219 H 305.116 -6.39371 2.22561 0
M  V30 3220 H 309.758 -4.21705 0.304048 0
M  V30 3221 H 307.476 -7.25538 3.55837 0
M  V30 3222 H 311.062 -5.46532 1.99484 0
M  V30 3223 H 309.942 -6.96674 3.60022 0
M  V30 3224 N 307.445 0.0818655 -1.57387 0
M  V30 3225 C 308.392 1.09834 -2.0299 0
M  V30 3226 C 309.362 1.39043 -0.908639 0
M  V30 3227 O 310.547 1.50282 -1.17559 0
M  V30 3228 C 307.687 2.40971 -2.47037 0
M  V30 3229 C 306.8 2.18379 -3.7274 0
M  V30 3230 C 305.935 3.43008 -4.0561 0
M  V30 3231 C 304.974 3.15736 -5.24383 0
M  V30 3232 N 304.111 4.32667 -5.52941 0
M  V30 3233 H 308.951 0.702472 -2.89602 0
M  V30 3234 H 306.488 0.33531 -1.43227 0
M  V30 3235 H 308.446 3.1752 -2.70623 0
M  V30 3236 H 307.076 2.78379 -1.63417 0
M  V30 3237 H 306.128 1.32569 -3.56552 0
M  V30 3238 H 307.44 1.94227 -4.59431 0
M  V30 3239 H 306.594 4.27958 -4.30043 0
M  V30 3240 H 305.333 3.70225 -3.17466 0
M  V30 3241 H 304.338 2.2918 -4.99757 0
M  V30 3242 H 305.563 2.8985 -6.14136 0
M  V30 3243 H 303.509 4.59935 -4.67756 0
M  V30 3244 H 303.426 4.11753 -6.34031 0
M  V30 3245 H 304.694 5.18644 -5.81918 0
M  V30 3246 N 308.923 1.53595 0.353017 0
M  V30 3247 C 310.151 1.74311 1.1146 0
M  V30 3248 C 310.566 0.477854 1.82653 0
M  V30 3249 O 309.923 -0.549977 1.74016 0
M  V30 3250 C 309.974 2.91694 2.13534 0
M  V30 3251 O 309.695 4.13325 1.45238 0
M  V30 3252 C 311.196 3.24384 3.02142 0
M  V30 3253 H 308.416 0.582669 0.332773 0
M  V30 3254 H 310.96 2.00386 0.408107 0
M  V30 3255 H 309.115 2.67977 2.79763 0
M  V30 3256 H 309.529 4.79148 2.13349 0
M  V30 3257 H 311.003 4.09893 3.69718 0
M  V30 3258 H 311.48 2.40282 3.67643 0
M  V30 3259 H 312.086 3.50073 2.41514 0
M  V30 3260 N 310.401 -0.613514 1.45168 0
M  V30 3261 C 311.812 -1.19539 1.43413 0
M  V30 3262 C 312.163 -1.95558 0.158632 0
M  V30 3263 O 311.288 -2.0335 -0.740119 0
M  V30 3264 C 311.883 -2.17445 2.59813 0
M  V30 3265 C 310.442 -2.71022 2.61197 0
M  V30 3266 C 309.589 -1.46323 2.35552 0
M  V30 3267 H 312.54 -0.403163 1.53494 0
M  V30 3268 H 312.561 -3.00373 2.33574 0
M  V30 3269 H 312.073 -1.62089 3.52631 0
M  V30 3270 H 310.174 -3.30332 1.7237 0
M  V30 3271 H 310.287 -3.15859 3.60236 0
M  V30 3272 H 308.651 -1.75072 1.84992 0
M  V30 3273 H 309.434 -0.92844 3.30507 0
M  V30 3274 N 311.879 -1.3236 -0.855495 0
M  V30 3275 C 313.126 -1.22872 -1.60962 0
M  V30 3276 C 313.454 0.209658 -1.93367 0
M  V30 3277 O 312.709 1.16243 -1.57436 0
M  V30 3278 C 313.008 -2.03275 -2.93963 0
M  V30 3279 C 312.674 -3.5264 -2.80991 0
M  V30 3280 C 311.336 -3.93364 -2.7716 0
M  V30 3281 C 313.688 -4.47626 -2.66983 0
M  V30 3282 C 311.016 -5.27319 -2.572 0
M  V30 3283 C 313.368 -5.81723 -2.48558 0
M  V30 3284 C 312.032 -6.2165 -2.4312 0
M  V30 3285 H 311.302 -0.44962 -0.589001 0
M  V30 3286 H 313.949 -1.63777 -0.992442 0
M  V30 3287 H 312.254 -1.55095 -3.59795 0
M  V30 3288 H 313.951 -1.93303 -3.51333 0
M  V30 3289 H 310.541 -3.20295 -2.84797 0
M  V30 3290 H 314.725 -4.17084 -2.68988 0
M  V30 3291 H 309.981 -5.57311 -2.51424 0
M  V30 3292 H 314.155 -6.5494 -2.36699 0
M  V30 3293 H 311.782 -7.25388 -2.27412 0
M  V30 3294 N 313.357 1.07166 -1.15556 0
M  V30 3295 C 314.267 2.17947 -0.868116 0
M  V30 3296 C 315.283 1.73297 0.156297 0
M  V30 3297 O 316.459 2.01392 -0.0182327 0
M  V30 3298 C 313.524 3.44789 -0.36355 0
M  V30 3299 C 312.585 4.03996 -1.45209 0
M  V30 3300 C 311.818 5.24783 -0.971508 0
M  V30 3301 O 312.041 5.70109 0.182194 0
M  V30 3302 O 310.975 5.75715 -1.75603 0
M  V30 3303 H 314.801 2.4503 -1.79427 0
M  V30 3304 H 312.386 1.16539 -0.934824 0
M  V30 3305 H 314.268 4.21307 -0.0887113 0
M  V30 3306 H 312.943 3.19253 0.534708 0
M  V30 3307 H 311.85 3.29009 -1.78056 0
M  V30 3308 H 313.183 4.33808 -2.32533 0
M  V30 3309 N 314.835 0.952656 1.25548 0
M  V30 3310 C 315.782 0.47008 2.25962 0
M  V30 3311 C 316.752 -0.476384 1.59122 0
M  V30 3312 O 317.937 -0.39007 1.8677 0
M  V30 3313 C 315.077 -0.247881 3.44209 0
M  V30 3314 C 314.19 0.735591 4.25691 0
M  V30 3315 C 313.325 -0.0047306 5.312 0
M  V30 3316 C 312.364 0.969805 6.04368 0
M  V30 3317 N 311.501 0.260486 7.01617 0
M  V30 3318 H 316.341 1.33126 2.66611 0
M  V30 3319 H 313.878 0.66765 1.31076 0
M  V30 3320 H 315.836 -0.680695 4.1161 0
M  V30 3321 H 314.466 -1.07312 3.0444 0
M  V30 3322 H 313.518 1.28689 3.57971 0
M  V30 3323 H 314.83 1.47934 4.76358 0
M  V30 3324 H 313.984 -0.496275 6.04667 0
M  V30 3325 H 312.723 -0.781282 4.81401 0
M  V30 3326 H 311.728 1.47237 5.29718 0
M  V30 3327 H 312.953 1.74655 6.56256 0
M  V30 3328 H 310.899 -0.497364 6.54112 0
M  V30 3329 H 310.816 0.943362 7.50091 0
M  V30 3330 H 312.084 -0.209587 7.79218 0
M  V30 3331 N 316.313 -1.40141 0.720998 0
M  V30 3332 C 317.26 -2.30688 0.071919 0
M  V30 3333 C 318.23 -1.48476 -0.744584 0
M  V30 3334 O 319.415 -1.77201 -0.707423 0
M  V30 3335 C 316.555 -3.34724 -0.839855 0
M  V30 3336 C 315.668 -4.31998 -0.0122438 0
M  V30 3337 C 314.803 -5.23102 -0.923995 0
M  V30 3338 C 313.842 -6.12033 -0.0907969 0
M  V30 3339 N 312.979 -6.95537 -0.957718 0
M  V30 3340 H 317.819 -2.85628 0.849755 0
M  V30 3341 H 315.356 -1.40653 0.430726 0
M  V30 3342 H 317.314 -3.93618 -1.38279 0
M  V30 3343 H 315.944 -2.81274 -1.58381 0
M  V30 3344 H 314.996 -3.74841 0.64794 0
M  V30 3345 H 316.308 -4.94772 0.632595 0
M  V30 3346 H 315.462 -5.86953 -1.53527 0
M  V30 3347 H 314.201 -4.60615 -1.60264 0
M  V30 3348 H 313.206 -5.47207 0.533377 0
M  V30 3349 H 314.431 -6.76581 0.584428 0
M  V30 3350 H 312.377 -6.35633 -1.62192 0
M  V30 3351 H 312.294 -7.55099 -0.36904 0
M  V30 3352 H 313.562 -7.63832 -1.555 0
M  V30 3353 N 317.792 -0.46758 -1.50504 0
M  V30 3354 C 318.722 0.318381 -2.31319 0
M  V30 3355 C 319.703 0.993564 -1.38066 0
M  V30 3356 O 320.888 0.991411 -1.66987 0
M  V30 3357 C 318.018 1.40275 -3.17711 0
M  V30 3358 C 316.972 0.849373 -4.19487 0
M  V30 3359 C 316.298 2.03177 -4.94594 0
M  V30 3360 C 317.598 -0.136942 -5.2212 0
M  V30 3361 H 319.292 -0.356106 -2.97275 0
M  V30 3362 H 316.838 -0.172703 -1.42961 0
M  V30 3363 H 318.791 1.96004 -3.73042 0
M  V30 3364 H 317.515 2.10596 -2.49634 0
M  V30 3365 H 316.174 0.314076 -3.65252 0
M  V30 3366 H 315.822 2.72187 -4.22993 0
M  V30 3367 H 315.522 1.66774 -5.63436 0
M  V30 3368 H 317.046 2.59403 -5.52759 0
M  V30 3369 H 318.46 0.331056 -5.72343 0
M  V30 3370 H 316.857 -0.41507 -5.98663 0
M  V30 3371 H 317.927 -1.06398 -4.73083 0
M  V30 3372 N 319.27 1.56325 -0.20005 0
M  V30 3373 C 320.218 2.20666 0.735482 0
M  V30 3374 C 321.212 1.17934 1.21605 0
M  V30 3375 O 322.418 1.36068 1.17837 0
M  V30 3376 H 318.793 0.70725 0.255542 0
M  V30 3377 H 320.764 2.9792 0.169166 0
M  V30 3378 C 319.513 2.88391 1.94232 0
M  V30 3379 H 318.836 3.67185 1.58161 0
M  V30 3380 H 320.276 3.3684 2.57517 0
M  V30 3381 C 318.735 1.89692 2.78421 0
M  V30 3382 O 319.265 1.40032 3.76502 0
M  V30 3383 N 317.471 1.57813 2.44015 0
M  V30 3384 H 317.018 1.9839 1.64314 0
M  V30 3385 H 316.976 0.920325 3.00628 0
M  V30 3386 N 320.748 -0.0735177 1.57428 0
M  V30 3387 C 321.996 -0.771472 1.86796 0
M  V30 3388 C 322.317 -1.78201 0.791804 0
M  V30 3389 O 321.587 -1.95074 -0.179718 0
M  V30 3390 H 320.167 -0.28791 0.689287 0
M  V30 3391 H 322.829 -0.0500161 1.94836 0
M  V30 3392 H 321.925 -1.28874 2.8425 0
M  V30 3393 N 322.226 -1.5378 -0.344866 0
M  V30 3394 C 323.156 -1.84662 -1.42906 0
M  V30 3395 C 324.137 -0.701648 -1.54955 0
M  V30 3396 O 325.322 -0.953438 -1.69184 0
M  V30 3397 C 322.452 -2.05503 -2.79974 0
M  V30 3398 C 321.406 -3.21318 -2.82734 0
M  V30 3399 C 320.732 -3.2749 -4.22675 0
M  V30 3400 C 322.032 -4.59456 -2.48389 0
M  V30 3401 H 323.726 -2.75461 -1.17311 0
M  V30 3402 H 321.272 -1.32542 -0.562896 0
M  V30 3403 H 323.225 -2.25691 -3.55867 0
M  V30 3404 H 321.949 -1.11434 -3.07002 0
M  V30 3405 H 320.608 -3.00984 -2.09294 0
M  V30 3406 H 320.256 -2.31019 -4.4681 0
M  V30 3407 H 319.956 -4.05316 -4.25433 0
M  V30 3408 H 321.48 -3.49887 -5.00412 0
M  V30 3409 H 322.894 -4.79667 -3.13995 0
M  V30 3410 H 321.291 -5.39675 -2.62432 0
M  V30 3411 H 322.361 -4.63155 -1.4358 0
M  V30 3412 N 323.704 0.605807 -1.45491 0
M  V30 3413 C 324.934 1.38934 -1.52908 0
M  V30 3414 C 325.342 1.88513 -0.161086 0
M  V30 3415 O 324.685 1.62962 0.847891 0
M  V30 3416 C 324.747 2.62737 -2.45376 0
M  V30 3417 C 324.411 2.34785 -3.92078 0
M  V30 3418 C 325.408 1.95038 -4.8193 0
M  V30 3419 C 323.093 2.47642 -4.37011 0
M  V30 3420 C 325.087 1.68511 -6.14722 0
M  V30 3421 C 322.774 2.20728 -5.69844 0
M  V30 3422 C 323.772 1.81225 -6.58519 0
M  V30 3423 O 323.46 1.54627 -7.88889 0
M  V30 3424 H 323.192 0.431629 -0.520262 0
M  V30 3425 H 325.746 0.74573 -1.91384 0
M  V30 3426 H 323.976 3.29824 -2.01874 0
M  V30 3427 H 325.665 3.24783 -2.43456 0
M  V30 3428 H 326.431 1.84639 -4.48479 0
M  V30 3429 H 322.31 2.77356 -3.68232 0
M  V30 3430 H 325.854 1.37602 -6.83894 0
M  V30 3431 H 321.751 2.30744 -6.02849 0
M  V30 3432 H 322.519 1.68665 -8.00933 0
M  V30 3433 N 325.182 1.32811 0.848464 0
M  V30 3434 C 326.593 1.21315 1.41914 0
M  V30 3435 C 326.944 -0.171847 1.95446 0
M  V30 3436 O 326.069 -1.07093 1.88043 0
M  V30 3437 C 326.664 2.19631 2.57968 0
M  V30 3438 C 325.223 2.12003 3.11017 0
M  V30 3439 C 324.37 2.07651 1.83783 0
M  V30 3440 H 327.321 1.44549 0.655071 0
M  V30 3441 H 327.342 1.79845 3.35315 0
M  V30 3442 H 326.854 3.20423 2.18976 0
M  V30 3443 H 324.955 1.14481 3.54577 0
M  V30 3444 H 325.068 3.02111 3.71841 0
M  V30 3445 H 323.432 1.52983 2.03638 0
M  V30 3446 H 324.215 3.10235 1.47 0
M  V30 3447 N 326.66 -1.06551 1.16123 0
M  V30 3448 C 327.907 -1.79302 0.941126 0
M  V30 3449 C 328.235 -1.87105 -0.531235 0
M  V30 3450 O 327.49 -1.35692 -1.41018 0
M  V30 3451 C 327.789 -3.23911 1.51052 0
M  V30 3452 C 327.455 -3.36193 3.00475 0
M  V30 3453 C 326.117 -3.39252 3.41265 0
M  V30 3454 C 328.469 -3.38326 3.96465 0
M  V30 3455 C 325.797 -3.42057 4.76669 0
M  V30 3456 C 328.149 -3.4267 5.31752 0
M  V30 3457 C 326.813 -3.4401 5.72026 0
M  V30 3458 H 326.083 -0.656111 0.344382 0
M  V30 3459 H 328.73 -1.25325 1.44796 0
M  V30 3460 H 327.035 -3.80723 0.925063 0
M  V30 3461 H 328.732 -3.78793 1.31593 0
M  V30 3462 H 325.322 -3.34516 2.6795 0
M  V30 3463 H 329.506 -3.35176 3.6602 0
M  V30 3464 H 324.762 -3.41398 5.07206 0
M  V30 3465 H 328.936 -3.43268 6.05921 0
M  V30 3466 H 326.563 -3.45937 6.76928 0
M  V30 3467 N 328.138 -0.959301 -1.25041 0
M  V30 3468 C 329.554 -0.664474 -1.4511 0
M  V30 3469 C 329.754 0.776481 -1.85938 0
M  V30 3470 O 328.81 1.55128 -1.99227 0
M  V30 3471 C 330.123 -1.64139 -2.5195 0
M  V30 3472 C 331.671 -1.65309 -2.65786 0
M  V30 3473 C 332.146 -2.61777 -3.75815 0
M  V30 3474 N 333.637 -2.60169 -3.83231 0
M  V30 3475 C 334.372 -3.31489 -4.6787 0
M  V30 3476 N 333.868 -4.12298 -5.56761 0
M  V30 3477 N 335.661 -3.20354 -4.61876 0
M  V30 3478 H 327.812 -1.89043 -0.968332 0
M  V30 3479 H 330.075 -0.813408 -0.4869 0
M  V30 3480 H 329.781 -2.67086 -2.28819 0
M  V30 3481 H 329.655 -1.40756 -3.49954 0
M  V30 3482 H 332.042 -0.630778 -2.8828 0
M  V30 3483 H 332.123 -1.92753 -1.68167 0
M  V30 3484 H 331.767 -3.64137 -3.54071 0
M  V30 3485 H 331.697 -2.31616 -4.72929 0
M  V30 3486 H 334.188 -2.01507 -3.19692 0
M  V30 3487 H 334.501 -4.63625 -6.18281 0
M  V30 3488 H 332.846 -4.16395 -5.56454 0
M  V30 3489 H 336.037 -2.56692 -3.91442 0
M  V30 3490 H 336.21 -3.76201 -5.27614 0
M  V30 3491 N 329.616 1.39756 -0.72842 0
M  V30 3492 C 330.862 2.00942 -0.273892 0
M  V30 3493 C 331.195 1.57656 1.13394 0
M  V30 3494 O 330.47 0.802434 1.77176 0
M  V30 3495 C 330.753 3.58211 -0.368346 0
M  V30 3496 C 330.606 4.11534 -1.81548 0
M  V30 3497 C 331.925 4.39372 0.253054 0
M  V30 3498 H 329.044 0.730047 -0.100996 0
M  V30 3499 H 331.686 1.66056 -0.923337 0
M  V30 3500 H 329.836 3.88061 0.184588 0
M  V30 3501 H 331.508 3.92431 -2.42478 0
M  V30 3502 H 329.751 3.65341 -2.33898 0
M  V30 3503 H 330.422 5.20682 -1.83288 0
M  V30 3504 H 332.898 4.15527 -0.218224 0
M  V30 3505 H 331.774 5.48677 0.156585 0
M  V30 3506 H 332.035 4.21358 1.33826 0
M  V30 3507 N 331.094 0.475555 1.50254 0
M  V30 3508 C 332.042 -0.330276 2.30243 0
M  V30 3509 C 333.036 -0.986306 1.37726 0
M  V30 3510 O 334.242 -0.9169 1.54897 0
M  V30 3511 H 330.617 -0.125353 0.741479 0
M  V30 3512 H 332.588 0.364702 2.96163 0
M  V30 3513 C 331.337 -1.39704 3.18399 0
M  V30 3514 H 330.66 -0.901621 3.89501 0
M  V30 3515 H 332.1 -1.93336 3.77355 0
M  V30 3516 C 330.559 -2.4014 2.36293 0
M  V30 3517 O 331.089 -3.45504 2.04914 0
M  V30 3518 N 329.295 -2.1197 1.98789 0
M  V30 3519 H 328.842 -1.2631 2.24507 0
M  V30 3520 H 328.8 -2.79403 1.44157 0
M  V30 3521 N 332.573 -1.56217 0.208337 0
M  V30 3522 C 333.798 -2.02782 -0.435222 0
M  V30 3523 C 334.223 -1.08738 -1.53485 0
M  V30 3524 O 333.581 -0.0731855 -1.81152 0
M  V30 3525 C 333.629 -3.47687 -0.956335 0
M  V30 3526 O 332.733 -3.56773 -2.06849 0
M  V30 3527 H 332.074 -0.656403 -0.100158 0
M  V30 3528 H 334.604 -2.02033 0.3231 0
M  V30 3529 H 334.614 -3.87745 -1.26955 0
M  V30 3530 H 333.289 -4.15624 -0.15143 0
M  V30 3531 H 331.866 -3.28597 -1.76292 0
M  V30 3532 N 334.051 0.0651679 -1.57465 0
M  V30 3533 C 335.014 1.06117 -2.03155 0
M  V30 3534 C 336.014 1.31204 -0.929632 0
M  V30 3535 O 337.204 1.26813 -1.19432 0
M  V30 3536 C 334.336 2.4032 -2.41783 0
M  V30 3537 H 335.529 0.667231 -2.92383 0
M  V30 3538 H 333.082 0.311075 -1.53173 0
M  V30 3539 H 333.817 2.84532 -1.55601 0
M  V30 3540 H 333.602 2.23451 -3.22199 0
M  V30 3541 H 335.092 3.11898 -2.77685 0
M  V30 3542 N 335.529 1.53961 0.336706 0
M  V30 3543 C 336.461 1.78751 1.4346 0
M  V30 3544 C 337.474 0.669019 1.48418 0
M  V30 3545 O 338.663 0.945884 1.51378 0
M  V30 3546 C 335.763 1.87844 2.82078 0
M  V30 3547 C 334.936 3.17854 3.00479 0
M  V30 3548 C 333.995 3.17816 4.19379 0
M  V30 3549 O 333.021 3.91511 4.13168 0
M  V30 3550 N 334.223 2.40669 5.2826 0
M  V30 3551 H 336.988 2.73493 1.22563 0
M  V30 3552 H 334.549 1.53096 0.526625 0
M  V30 3553 H 336.541 1.85261 3.59806 0
M  V30 3554 H 335.111 1.00257 2.96086 0
M  V30 3555 H 334.331 3.33504 2.10163 0
M  V30 3556 H 335.619 4.03718 3.0966 0
M  V30 3557 H 335.017 1.8036 5.36178 0
M  V30 3558 H 333.574 2.43877 6.04456 0
M  V30 3559 N 337.007 -0.598083 1.45811 0
M  V30 3560 C 338.423 -0.919847 1.30426 0
M  V30 3561 C 338.623 -1.99759 0.264303 0
M  V30 3562 O 337.679 -2.50221 -0.338472 0
M  V30 3563 C 338.992 -1.35176 2.68603 0
M  V30 3564 C 340.54 -1.46546 2.76574 0
M  V30 3565 C 341.015 -1.9311 4.15298 0
M  V30 3566 N 342.506 -2.00328 4.1764 0
M  V30 3567 C 343.241 -2.37599 5.21856 0
M  V30 3568 N 342.737 -2.73771 6.36413 0
M  V30 3569 N 344.53 -2.38021 5.09218 0
M  V30 3570 H 336.681 0.114111 2.12093 0
M  V30 3571 H 338.944 -0.0116121 0.947929 0
M  V30 3572 H 338.65 -0.633969 3.45939 0
M  V30 3573 H 338.524 -2.3164 2.97696 0
M  V30 3574 H 340.911 -2.17415 1.99537 0
M  V30 3575 H 340.992 -0.483727 2.51185 0
M  V30 3576 H 340.636 -1.22824 4.92825 0
M  V30 3577 H 340.566 -2.92213 4.38086 0
M  V30 3578 H 343.057 -1.74925 3.34977 0
M  V30 3579 H 343.37 -3.0112 7.11721 0
M  V30 3580 H 341.715 -2.71445 6.39799 0
M  V30 3581 H 344.906 -2.09174 4.18765 0
M  V30 3582 H 345.079 -2.66741 5.90554 0
M  V30 3583 N 338.485 -1.33259 -0.841409 0
M  V30 3584 C 339.713 -1.27605 -1.62864 0
M  V30 3585 C 340.128 0.153507 -1.88175 0
M  V30 3586 O 339.485 1.09485 -1.46011 0
M  V30 3587 C 339.536 -2.04596 -2.98031 0
M  V30 3588 O 339.257 -3.41975 -2.73834 0
M  V30 3589 C 340.758 -2.06122 -3.92465 0
M  V30 3590 H 337.978 -0.439718 -0.506842 0
M  V30 3591 H 340.522 -1.75591 -1.04824 0
M  V30 3592 H 338.677 -1.60299 -3.5268 0
M  V30 3593 H 339.091 -3.81549 -3.59889 0
M  V30 3594 H 340.565 -2.64451 -4.84531 0
M  V30 3595 H 341.042 -1.05083 -4.26444 0
M  V30 3596 H 341.648 -2.50427 -3.43753 0
M  V30 3597 N 339.963 1.05934 -1.16686 0
M  V30 3598 C 341.374 1.60263 -0.957745 0
M  V30 3599 C 341.725 1.89789 0.49745 0
M  V30 3600 O 340.85 1.67401 1.37135 0
M  V30 3601 C 341.445 2.91172 -1.73218 0
M  V30 3602 C 340.004 3.42188 -1.56794 0
M  V30 3603 C 339.151 2.16028 -1.73859 0
M  V30 3604 H 342.102 0.888392 -1.31504 0
M  V30 3605 H 342.123 3.60744 -1.21014 0
M  V30 3606 H 341.635 2.6965 -2.79124 0
M  V30 3607 H 339.736 3.68762 -0.533437 0
M  V30 3608 H 339.849 4.17273 -2.35414 0
M  V30 3609 H 338.213 2.26426 -1.16633 0
M  V30 3610 H 338.996 1.96985 -2.81161 0
M  V30 3611 N 341.441 0.965919 1.2453 0
M  V30 3612 C 342.687 0.62776 1.92839 0
M  V30 3613 C 343.02 -0.834694 1.75347 0
M  V30 3614 O 342.295 -1.60031 1.10546 0
M  V30 3615 C 342.578 1.00109 3.45905 0
M  V30 3616 C 342.431 2.52011 3.72573 0
M  V30 3617 C 343.75 0.53435 4.36844 0
M  V30 3618 H 340.869 0.229537 0.700344 0
M  V30 3619 H 343.511 1.2046 1.46933 0
M  V30 3620 H 341.661 0.510238 3.85135 0
M  V30 3621 H 343.333 3.08559 3.42912 0
M  V30 3622 H 341.576 2.95287 3.17786 0
M  V30 3623 H 342.247 2.73183 4.79661 0
M  V30 3624 H 344.723 0.955565 4.04979 0
M  V30 3625 H 343.599 0.824152 5.42678 0
M  V30 3626 H 343.86 -0.565589 4.38467 0
M  V30 3627 N 342.919 -1.39368 0.735821 0
M  V30 3628 C 343.851 -2.2913 0.0567723 0
M  V30 3629 C 344.864 -1.46859 -0.702589 0
M  V30 3630 O 346.053 -1.69925 -0.546616 0
M  V30 3631 C 343.153 -3.25492 -0.943823 0
M  V30 3632 C 342.326 -4.36709 -0.24581 0
M  V30 3633 C 341.385 -5.13376 -1.15463 0
M  V30 3634 O 340.411 -5.65683 -0.631803 0
M  V30 3635 N 341.613 -5.24656 -2.48427 0
M  V30 3636 H 344.378 -2.88047 0.827582 0
M  V30 3637 H 341.939 -1.50957 0.585112 0
M  V30 3638 H 343.931 -3.73657 -1.55443 0
M  V30 3639 H 342.501 -2.676 -1.61583 0
M  V30 3640 H 341.721 -3.9041 0.545286 0
M  V30 3641 H 343.009 -5.08244 0.237891 0
M  V30 3642 H 342.407 -4.83679 -2.93379 0
M  V30 3643 H 340.964 -5.76258 -3.04582 0
M  V30 3644 N 344.397 -0.483516 -1.5 0
M  V30 3645 C 345.33 0.350427 -2.25493 0
M  V30 3646 C 346.308 0.985549 -1.29328 0
M  V30 3647 O 347.492 1.01906 -1.58579 0
M  V30 3648 C 344.619 1.49202 -3.04066 0
M  V30 3649 C 343.665 0.973036 -4.15252 0
M  V30 3650 S 344.498 -0.122237 -5.3536 0
M  V30 3651 C 345.654 1.02294 -6.17484 0
M  V30 3652 H 345.887 -0.290381 -2.95878 0
M  V30 3653 H 343.42 -0.268562 -1.52046 0
M  V30 3654 H 345.378 2.14623 -3.49925 0
M  V30 3655 H 344.039 2.10438 -2.33183 0
M  V30 3656 H 343.232 1.82804 -4.69679 0
M  V30 3657 H 342.834 0.396335 -3.71894 0
M  V30 3658 H 345.126 1.93195 -6.49371 0
M  V30 3659 H 346.069 0.517664 -7.06205 0
M  V30 3660 H 346.477 1.28238 -5.49741 0
M  V30 3661 N 345.875 1.56104 -0.216619 0
M  V30 3662 C 346.808 2.16026 0.735395 0
M  V30 3663 C 347.786 1.1032 1.1945 0
M  V30 3664 O 348.97 1.38549 1.27814 0
M  V30 3665 C 346.097 2.73656 1.99575 0
M  V30 3666 C 345.143 3.92146 1.67702 0
M  V30 3667 S 345.976 5.29397 0.806145 0
M  V30 3668 C 347.132 5.90463 2.07617 0
M  V30 3669 H 347.365 2.96439 0.226072 0
M  V30 3670 H 344.898 1.544 -0.00136639 0
M  V30 3671 H 346.856 3.075 2.71945 0
M  V30 3672 H 345.517 1.93245 2.47619 0
M  V30 3673 H 344.71 4.30954 2.61332 0
M  V30 3674 H 344.312 3.59423 1.03398 0
M  V30 3675 H 346.604 6.06136 3.02664 0
M  V30 3676 H 347.547 6.86589 1.73207 0
M  V30 3677 H 347.955 5.19252 2.21445 0
M  V30 3678 N 347.353 -0.0568162 1.57498 0
M  V30 3679 C 348.583 -0.764515 1.91934 0
M  V30 3680 C 348.991 -1.70877 0.81227 0
M  V30 3681 O 348.334 -1.82351 -0.222213 0
M  V30 3682 C 348.396 -1.5994 3.21962 0
M  V30 3683 C 348.06 -0.822925 4.4953 0
M  V30 3684 C 349.057 -0.135464 5.19723 0
M  V30 3685 C 346.742 -0.785666 4.96117 0
M  V30 3686 C 348.736 0.578861 6.34766 0
M  V30 3687 C 346.423 -0.0675784 6.11063 0
M  V30 3688 C 347.421 0.613471 6.80239 0
M  V30 3689 O 347.109 1.31996 7.92989 0
M  V30 3690 H 346.841 -0.221647 0.63863 0
M  V30 3691 H 349.395 -0.0268218 2.05382 0
M  V30 3692 H 347.625 -2.38026 3.04763 0
M  V30 3693 H 349.314 -2.18715 3.41934 0
M  V30 3694 H 350.08 -0.155458 4.84751 0
M  V30 3695 H 345.959 -1.30524 4.42136 0
M  V30 3696 H 349.503 1.111 6.88696 0
M  V30 3697 H 345.4 -0.0455636 6.45484 0
M  V30 3698 H 346.168 1.23077 8.09194 0
M  V30 3699 N 348.832 -1.54138 -0.328536 0
M  V30 3700 C 349.762 -1.86167 -1.40939 0
M  V30 3701 C 350.743 -0.718044 -1.54202 0
M  V30 3702 O 351.928 -0.971328 -1.68163 0
M  V30 3703 C 349.058 -2.08461 -2.77779 0
M  V30 3704 C 348.012 -3.24299 -2.7931 0
M  V30 3705 C 347.338 -3.31955 -4.19178 0
M  V30 3706 C 348.638 -4.62065 -2.43502 0
M  V30 3707 H 350.332 -2.76689 -1.14383 0
M  V30 3708 H 347.878 -1.33132 -0.548806 0
M  V30 3709 H 349.831 -2.29453 -3.53454 0
M  V30 3710 H 348.555 -1.14684 -3.05802 0
M  V30 3711 H 347.214 -3.03187 -2.0609 0
M  V30 3712 H 346.862 -2.35745 -4.44335 0
M  V30 3713 H 346.562 -4.09805 -4.2111 0
M  V30 3714 H 348.086 -3.55175 -4.96672 0
M  V30 3715 H 349.5 -4.8297 -3.08889 0
M  V30 3716 H 347.897 -5.42429 -2.56693 0
M  V30 3717 H 348.967 -4.64652 -1.38659 0
M  V30 3718 N 350.31 0.590341 -1.46126 0
M  V30 3719 C 351.726 0.912917 -1.30912 0
M  V30 3720 C 351.926 1.99616 -0.274893 0
M  V30 3721 O 350.982 2.50397 0.325197 0
M  V30 3722 C 352.295 1.3375 -2.69317 0
M  V30 3723 C 353.843 1.45077 -2.77348 0
M  V30 3724 C 354.318 1.90904 -4.16317 0
M  V30 3725 N 355.809 1.9811 -4.18696 0
M  V30 3726 C 356.544 2.34828 -5.23109 0
M  V30 3727 N 356.04 2.70393 -6.37856 0
M  V30 3728 N 357.833 2.35317 -5.10473 0
M  V30 3729 H 349.984 -0.125358 -2.1203 0
M  V30 3730 H 352.247 0.00658481 -0.947977 0
M  V30 3731 H 351.953 0.615614 -3.4627 0
M  V30 3732 H 351.827 2.30058 -2.9892 0
M  V30 3733 H 354.214 2.16353 -2.00687 0
M  V30 3734 H 354.295 0.4704 -2.51438 0
M  V30 3735 H 353.939 1.20209 -4.9347 0
M  V30 3736 H 353.869 2.89886 -4.39629 0
M  V30 3737 H 356.36 1.73146 -3.359 0
M  V30 3738 H 356.673 2.97341 -7.13308 0
M  V30 3739 H 355.018 2.68048 -6.41229 0
M  V30 3740 H 358.209 2.0695 -4.19868 0
M  V30 3741 H 358.382 2.63605 -5.9196 0
M  V30 3742 N 351.788 1.33704 0.83433 0
M  V30 3743 C 352.698 1.26382 1.97648 0
M  V30 3744 C 353.714 0.173548 1.73132 0
M  V30 3745 O 354.89 0.397962 1.97429 0
M  V30 3746 C 351.955 1.00769 3.31733 0
M  V30 3747 C 351.016 2.1884 3.69334 0
M  V30 3748 C 350.249 1.9444 4.9702 0
M  V30 3749 O 350.472 0.896961 5.63303 0
M  V30 3750 O 349.406 2.81093 5.32231 0
M  V30 3751 H 353.232 2.22444 2.06767 0
M  V30 3752 H 350.817 1.13795 0.968037 0
M  V30 3753 H 352.699 0.882186 4.12062 0
M  V30 3754 H 351.374 0.0773783 3.23608 0
M  V30 3755 H 350.281 2.36946 2.89495 0
M  V30 3756 H 351.614 3.10221 3.82131 0
M  V30 3757 N 353.266 -1.05314 1.17247 0
M  V30 3758 C 354.213 -2.13031 0.888058 0
M  V30 3759 C 355.183 -1.65253 -0.167537 0
M  V30 3760 O 356.368 -1.90775 -0.0305974 0
M  V30 3761 C 353.508 -3.42702 0.406147 0
M  V30 3762 C 352.621 -4.04161 1.52572 0
M  V30 3763 C 351.756 -5.21744 0.997808 0
M  V30 3764 C 350.795 -5.75207 2.09291 0
M  V30 3765 N 349.932 -6.84094 1.57986 0
M  V30 3766 H 354.772 -2.36698 1.81048 0
M  V30 3767 H 352.309 -1.16121 0.903013 0
M  V30 3768 H 354.267 -4.17059 0.108305 0
M  V30 3769 H 352.897 -3.19222 -0.479313 0
M  V30 3770 H 351.949 -3.27253 1.93931 0
M  V30 3771 H 353.261 -4.39881 2.35172 0
M  V30 3772 H 352.415 -6.03168 0.653739 0
M  V30 3773 H 351.154 -4.87495 0.141232 0
M  V30 3774 H 350.159 -4.92414 2.44557 0
M  V30 3775 H 351.384 -6.11505 2.95362 0
M  V30 3776 H 349.33 -6.51745 0.74598 0
M  V30 3777 H 349.247 -7.18811 2.34195 0
M  V30 3778 H 350.515 -7.69172 1.26468 0
M  V30 3779 N 354.744 -0.972509 -1.24016 0
M  V30 3780 C 355.674 -0.525548 -2.27509 0
M  V30 3781 C 356.655 0.437262 -1.64384 0
M  V30 3782 O 357.84 0.332343 -1.91335 0
M  V30 3783 C 354.97 0.180448 -3.46831 0
M  V30 3784 C 353.924 -0.698859 -4.22256 0
M  V30 3785 C 353.25 0.138903 -5.3452 0
M  V30 3786 C 354.55 -1.98582 -4.83076 0
M  V30 3787 H 356.244 -1.39058 -2.65148 0
M  V30 3788 H 353.79 -0.67009 -1.27459 0
M  V30 3789 H 355.743 0.504387 -4.18371 0
M  V30 3790 H 354.467 1.07987 -3.08231 0
M  V30 3791 H 353.126 -1.00614 -3.52523 0
M  V30 3792 H 352.774 1.03862 -4.9216 0
M  V30 3793 H 352.474 -0.446259 -5.85903 0
M  V30 3794 H 353.998 0.457404 -6.08884 0
M  V30 3795 H 355.412 -1.72715 -5.46665 0
M  V30 3796 H 353.809 -2.5181 -5.44713 0
M  V30 3797 H 354.879 -2.67769 -4.04262 0
M  V30 3798 N 356.222 1.38976 -0.743202 0
M  V30 3799 C 357.17 2.32394 -0.0978389 0
M  V30 3800 C 358.164 1.53486 0.716824 0
M  V30 3801 O 359.37 1.69092 0.617088 0
M  V30 3802 H 355.745 0.75189 -0.0128402 0
M  V30 3803 H 357.716 2.84441 -0.901981 0
M  V30 3804 C 356.465 3.38629 0.789036 0
M  V30 3805 H 355.788 3.99432 0.171559 0
M  V30 3806 H 357.228 4.06426 1.20807 0
M  V30 3807 C 355.687 2.76347 1.92702 0
M  V30 3808 O 356.217 2.64836 3.02034 0
M  V30 3809 N 354.423 2.34311 1.71891 0
M  V30 3810 H 353.97 2.43873 0.829675 0
M  V30 3811 H 353.928 1.9298 2.48205 0
M  V30 3812 N 357.7 0.491464 1.49741 0
M  V30 3813 C 358.949 -0.0582189 2.01616 0
M  V30 3814 C 359.262 -1.38927 1.3769 0
M  V30 3815 O 360.468 -2.02509 1.80838 0
M  V30 3816 C 358.924 -0.154235 3.59569 0
M  V30 3817 C 358.532 1.1696 4.32463 0
M  V30 3818 C 360.276 -0.65479 4.1942 0
M  V30 3819 C 358.183 1.03627 5.8225 0
M  V30 3820 H 357.113 -0.0255317 0.753568 0
M  V30 3821 H 359.764 0.629445 1.72367 0
M  V30 3822 H 358.146 -0.906138 3.85493 0
M  V30 3823 H 359.32 1.93405 4.18248 0
M  V30 3824 H 357.635 1.60285 3.84315 0
M  V30 3825 H 360.232 -0.771903 5.29099 0
M  V30 3826 H 360.575 -1.65127 3.8215 0
M  V30 3827 H 361.108 0.040304 3.9778 0
M  V30 3828 H 357.847 2.00672 6.24028 0
M  V30 3829 H 357.367 0.312546 5.98985 0
M  V30 3830 H 359.046 0.711114 6.4308 0
M  V30 3831 N 359.178 -1.55987 0.224894 0
M  V30 3832 C 360.426 -1.97998 -0.405099 0
M  V30 3833 C 360.747 -1.11387 -1.60056 0
M  V30 3834 O 360.017 -0.191645 -1.9496 0
M  V30 3835 H 358.597 -0.731235 -0.152658 0
M  V30 3836 H 361.259 -1.92279 0.318567 0
M  V30 3837 H 360.355 -3.03463 -0.729167 0
M  V30 3838 N 360.656 0.0484629 -1.57525 0
M  V30 3839 C 361.886 0.754326 -1.92337 0
M  V30 3840 C 362.294 1.70443 -0.82132 0
M  V30 3841 O 361.637 1.82466 0.21254 0
M  V30 3842 C 361.699 1.58231 -3.22805 0
M  V30 3843 C 361.363 0.799074 -4.4996 0
M  V30 3844 C 362.36 0.1079 -5.19788 0
M  V30 3845 C 360.045 0.759345 -4.96527 0
M  V30 3846 C 362.039 -0.612516 -6.3445 0
M  V30 3847 C 359.726 0.0351713 -6.1109 0
M  V30 3848 C 360.724 -0.649537 -6.79904 0
M  V30 3849 O 360.412 -1.36199 -7.92278 0
M  V30 3850 H 360.144 0.218257 -0.639797 0
M  V30 3851 H 362.698 0.0159295 -2.05394 0
M  V30 3852 H 360.928 2.36406 -3.06021 0
M  V30 3853 H 362.617 2.16898 -3.43089 0
M  V30 3854 H 363.383 0.129748 -4.84826 0
M  V30 3855 H 359.262 1.28177 -4.42822 0
M  V30 3856 H 362.806 -1.14751 -6.88097 0
M  V30 3857 H 358.703 0.0113314 -6.45499 0
M  V30 3858 H 359.471 -1.27366 -8.0853 0
M  V30 3859 N 362.134 1.5431 0.320358 0
M  V30 3860 C 363.383 1.7188 1.05546 0
M  V30 3861 C 363.696 0.501143 1.89071 0
M  V30 3862 O 364.902 0.558258 2.65699 0
M  V30 3863 C 363.358 3.04025 1.92605 0
M  V30 3864 C 362.966 4.33207 1.14176 0
M  V30 3865 C 364.71 3.30959 2.65832 0
M  V30 3866 C 362.617 5.56412 2.00399 0
M  V30 3867 H 361.547 0.640547 0.397763 0
M  V30 3868 H 364.198 1.80802 0.313522 0
M  V30 3869 H 362.58 2.89019 2.7071 0
M  V30 3870 H 363.754 4.58989 0.40819 0
M  V30 3871 H 362.069 4.13062 0.526165 0
M  V30 3872 H 364.666 4.20203 3.30656 0
M  V30 3873 H 365.009 2.48979 3.33639 0
M  V30 3874 H 365.542 3.46847 1.94787 0
M  V30 3875 H 362.281 6.41004 1.37094 0
M  V30 3876 H 361.801 5.34844 2.7148 0
M  V30 3877 H 363.48 5.92938 2.58908 0
M  V30 3878 N 363.613 -0.582584 1.46437 0
M  V30 3879 C 364.523 -1.71949 1.59595 0
M  V30 3880 C 365.539 -1.67264 0.479443 0
M  V30 3881 O 366.715 -1.87171 0.743579 0
M  V30 3882 C 363.78 -3.08452 1.58298 0
M  V30 3883 C 362.841 -3.244 2.81182 0
M  V30 3884 C 362.074 -4.54391 2.79937 0
M  V30 3885 O 362.297 -5.38287 1.8869 0
M  V30 3886 O 361.231 -4.73588 3.71481 0
M  V30 3887 H 365.057 -1.63795 2.55744 0
M  V30 3888 H 362.642 -0.749643 1.29231 0
M  V30 3889 H 364.524 -3.89732 1.60271 0
M  V30 3890 H 363.199 -3.17043 0.653094 0
M  V30 3891 H 362.106 -2.42613 2.84763 0
M  V30 3892 H 363.439 -3.20699 3.7338 0
M  V30 3893 N 365.091 -1.34144 -0.827227 0
M  V30 3894 C 366.368 -1.16844 -1.56865 0
M  V30 3895 C 366.748 0.260654 -2.09485 0
M  V30 3896 O 366.096 1.26138 -1.9053 0
M  V30 3897 C 366.306 -2.21939 -2.6934 0
M  V30 3898 C 367.654 -2.56695 -3.3822 0
M  V30 3899 O 368.678 -2.20695 -2.79593 0
M  V30 3900 O 367.537 -3.18518 -4.44082 0
M  V30 3901 H 364.631 -0.452669 -0.692112 0
M  V30 3902 H 367.177 -1.45763 -0.868973 0
M  V30 3903 H 365.949 -3.17882 -2.28182 0
M  V30 3904 H 365.572 -1.94172 -3.46962 0
M  V30 3905 N 366.569 1.04691 -1.17803 0
M  V30 3906 C 367.499 2.14494 -0.92275 0
M  V30 3907 C 368.48 1.69546 0.137179 0
M  V30 3908 O 369.665 1.94195 -0.0141108 0
M  V30 3909 C 366.795 3.44491 -0.440803 0
M  V30 3910 C 365.749 4.03031 -1.4405 0
M  V30 3911 C 365.075 5.28432 -0.81631 0
M  V30 3912 C 366.375 4.39932 -2.81527 0
M  V30 3913 H 368.069 2.36107 -1.84103 0
M  V30 3914 H 365.615 1.1347 -0.886599 0
M  V30 3915 H 367.568 4.2066 -0.249602 0
M  V30 3916 H 366.292 3.22546 0.513025 0
M  V30 3917 H 364.951 3.28937 -1.61853 0
M  V30 3918 H 364.599 5.02792 0.144511 0
M  V30 3919 H 364.299 5.68559 -1.48371 0
M  V30 3920 H 365.823 6.07284 -0.635496 0
M  V30 3921 H 367.237 5.07113 -2.67412 0
M  V30 3922 H 365.634 4.9109 -3.44892 0
M  V30 3923 H 366.704 3.50045 -3.35554 0
M  V30 3924 N 368.047 0.979072 1.23499 0
M  V30 3925 C 368.994 0.517904 2.24914 0
M  V30 3926 C 369.964 -0.442525 1.60097 0
M  V30 3927 O 371.149 -0.350365 1.87556 0
M  V30 3928 C 368.289 -0.174813 3.44657 0
M  V30 3929 C 367.402 0.825721 4.24035 0
M  V30 3930 C 366.537 0.107946 5.3109 0
M  V30 3931 C 365.576 1.09778 6.02175 0
M  V30 3932 N 364.713 0.40925 7.00906 0
M  V30 3933 H 369.553 1.38751 2.63727 0
M  V30 3934 H 367.09 0.695303 1.2963 0
M  V30 3935 H 369.048 -0.593233 4.12961 0
M  V30 3936 H 367.678 -1.0083 3.06648 0
M  V30 3937 H 366.73 1.36253 3.55161 0
M  V30 3938 H 368.042 1.58005 4.73113 0
M  V30 3939 H 367.196 -0.367904 6.05583 0
M  V30 3940 H 365.935 -0.678994 4.8295 0
M  V30 3941 H 364.94 1.5844 5.26476 0
M  V30 3942 H 366.165 1.88536 6.52404 0
M  V30 3943 H 364.111 -0.358506 6.5502 0
M  V30 3944 H 364.028 1.10226 7.47921 0
M  V30 3945 H 365.296 -0.0442557 7.79487 0
M  V30 3946 N 369.525 -1.3858 0.750561 0
M  V30 3947 C 370.488 -2.28836 0.129152 0
M  V30 3948 C 371.488 -1.47045 -0.650714 0
M  V30 3949 O 372.678 -1.6753 -0.477428 0
M  V30 3950 C 369.81 -3.30751 -0.825622 0
M  V30 3951 H 371.003 -2.85294 0.924516 0
M  V30 3952 H 368.556 -1.47489 0.517376 0
M  V30 3953 H 369.291 -2.79378 -1.64677 0
M  V30 3954 H 369.076 -3.91177 -0.268852 0
M  V30 3955 H 370.566 -3.98249 -1.2565 0
M  V30 3956 N 371.003 -0.499398 -1.49478 0
M  V30 3957 C 371.935 0.316575 -2.27003 0
M  V30 3958 C 372.948 0.932047 -1.33479 0
M  V30 3959 O 374.137 0.815658 -1.58774 0
M  V30 3960 C 371.237 1.46055 -3.05812 0
M  V30 3961 C 370.41 0.952679 -4.26899 0
M  V30 3962 C 369.469 1.97407 -4.87767 0
M  V30 3963 O 368.495 1.54326 -5.4788 0
M  V30 3964 N 369.697 3.30436 -4.77276 0
M  V30 3965 H 372.462 -0.348168 -2.97671 0
M  V30 3966 H 370.023 -0.33185 -1.58463 0
M  V30 3967 H 372.015 2.14135 -3.43407 0
M  V30 3968 H 370.585 2.02948 -2.37762 0
M  V30 3969 H 369.805 0.0968248 -3.94081 0
M  V30 3970 H 371.093 0.59174 -5.05347 0
M  V30 3971 H 370.491 3.68126 -4.29534 0
M  V30 3972 H 369.048 3.94235 -5.19059 0
M  V30 3973 N 372.481 1.55866 -0.233164 0
M  V30 3974 C 373.73 1.97779 0.39579 0
M  V30 3975 C 374.043 1.12419 1.60066 0
M  V30 3976 O 375.249 1.44283 2.29988 0
M  V30 3977 C 373.705 3.5188 0.755556 0
M  V30 3978 C 373.313 4.45959 -0.427152 0
M  V30 3979 C 375.057 4.02479 1.34946 0
M  V30 3980 C 372.964 5.91383 -0.0443043 0
M  V30 3981 H 371.894 0.738592 0.15165 0
M  V30 3982 H 374.545 1.80486 -0.331212 0
M  V30 3983 H 372.927 3.64816 1.5403 0
M  V30 3984 H 374.101 4.44776 -1.20462 0
M  V30 3985 H 372.416 4.05765 -0.935068 0
M  V30 3986 H 375.013 5.08637 1.649 0
M  V30 3987 H 375.356 3.49014 2.26925 0
M  V30 3988 H 375.889 3.92813 0.62791 0
M  V30 3989 H 372.628 6.48857 -0.930874 0
M  V30 3990 H 372.148 5.95734 0.697238 0
M  V30 3991 H 373.827 6.45893 0.378334 0
M  V30 3992 N 373.959 -0.0401083 1.57549 0
M  V30 3993 C 374.889 -1.04384 2.08869 0
M  V30 3994 C 375.87 -1.38407 0.988817 0
M  V30 3995 O 377.055 -1.47483 1.26342 0
M  V30 3996 C 374.185 -2.34808 2.55895 0
M  V30 3997 C 373.139 -2.15057 3.70047 0
M  V30 3998 C 372.465 -3.51145 4.03239 0
M  V30 3999 C 373.765 -1.54576 4.98902 0
M  V30 4000 H 375.459 -0.616666 2.92981 0
M  V30 4001 H 373.005 -0.295184 1.40942 0
M  V30 4002 H 374.958 -3.05346 2.90417 0
M  V30 4003 H 373.682 -2.79565 1.68853 0
M  V30 4004 H 372.341 -1.46954 3.35857 0
M  V30 4005 H 371.989 -3.93529 3.13279 0
M  V30 4006 H 371.689 -3.38758 4.80122 0
M  V30 4007 H 373.213 -4.23062 4.40285 0
M  V30 4008 H 374.627 -2.15017 5.31451 0
M  V30 4009 H 373.024 -1.52796 5.80322 0
M  V30 4010 H 374.094 -0.51039 4.82206 0
M  V30 4011 N 375.437 -1.54477 -0.31217 0
M  V30 4012 C 376.347 -1.87695 -1.4074 0
M  V30 4013 C 377.363 -0.769975 -1.56036 0
M  V30 4014 O 378.539 -1.06537 -1.70915 0
M  V30 4015 C 375.604 -2.10755 -2.75287 0
M  V30 4016 C 374.665 -3.34514 -2.69071 0
M  V30 4017 C 373.898 -3.56465 -3.97201 0
M  V30 4018 O 374.121 -2.81637 -4.96021 0
M  V30 4019 O 373.055 -4.49964 -3.9977 0
M  V30 4020 H 376.881 -2.80849 -1.15574 0
M  V30 4021 H 374.466 -1.40526 -0.507228 0
M  V30 4022 H 376.348 -2.27188 -3.54913 0
M  V30 4023 H 375.023 -1.20788 -3.0032 0
M  V30 4024 H 373.93 -3.23456 -1.87955 0
M  V30 4025 H 375.263 -4.24575 -2.48992 0
M  V30 4026 N 376.915 0.57481 -1.46744 0
M  V30 4027 C 377.845 1.69337 -1.60771 0
M  V30 4028 C 378.826 1.63825 -0.457736 0
M  V30 4029 O 380.011 1.8172 -0.684947 0
M  V30 4030 C 377.141 3.0798 -1.60517 0
M  V30 4031 C 376.095 3.28327 -2.74564 0
M  V30 4032 C 375.421 4.67578 -2.59373 0
M  V30 4033 C 376.721 3.15398 -4.16319 0
M  V30 4034 H 378.415 1.57853 -2.54407 0
M  V30 4035 H 375.961 0.75799 -1.22436 0
M  V30 4036 H 377.914 3.86061 -1.68923 0
M  V30 4037 H 376.638 3.20381 -0.634305 0
M  V30 4038 H 375.297 2.52649 -2.65639 0
M  V30 4039 H 374.945 4.76755 -1.60353 0
M  V30 4040 H 374.645 4.82144 -3.35873 0
M  V30 4041 H 376.169 5.47817 -2.69682 0
M  V30 4042 H 377.583 3.83315 -4.26313 0
M  V30 4043 H 375.98 3.41482 -4.93468 0
M  V30 4044 H 377.05 2.12372 -4.3592 0
M  V30 4045 N 378.394 1.34581 0.820102 0
M  V30 4046 C 379.805 1.24298 1.39309 0
M  V30 4047 C 380.156 -0.130351 1.95767 0
M  V30 4048 O 379.281 -1.0308 1.90272 0
M  V30 4049 C 379.876 2.25054 2.53251 0
M  V30 4050 C 378.435 2.18552 3.0645 0
M  V30 4051 C 377.582 2.11503 1.79337 0
M  V30 4052 H 380.533 1.45906 0.624262 0
M  V30 4053 H 380.554 1.86917 3.31425 0
M  V30 4054 H 380.066 3.24996 2.1213 0
M  V30 4055 H 378.167 1.21976 3.52069 0
M  V30 4056 H 378.28 3.0993 3.65349 0
M  V30 4057 H 376.644 1.57268 2.00347 0
M  V30 4058 H 377.427 3.13284 1.40386 0
M  V30 4059 N 379.872 -1.04064 1.18357 0
M  V30 4060 C 381.102 -1.80654 1.00238 0
M  V30 4061 C 381.51 -1.83713 -0.452362 0
M  V30 4062 O 380.853 -1.27135 -1.32599 0
M  V30 4063 C 380.915 -3.27582 1.48088 0
M  V30 4064 C 380.579 -3.48184 2.96002 0
M  V30 4065 C 381.576 -3.39372 3.93856 0
M  V30 4066 C 379.261 -3.7478 3.34433 0
M  V30 4067 C 381.255 -3.5686 5.28138 0
M  V30 4068 C 378.942 -3.91915 4.68877 0
M  V30 4069 C 379.94 -3.82956 5.65539 0
M  V30 4070 O 379.628 -3.996 6.97549 0
M  V30 4071 H 379.36 -0.575751 0.354241 0
M  V30 4072 H 381.914 -1.32044 1.57333 0
M  V30 4073 H 380.144 -3.77161 0.853588 0
M  V30 4074 H 381.833 -3.8573 1.2636 0
M  V30 4075 H 382.599 -3.18789 3.65511 0
M  V30 4076 H 378.478 -3.80852 2.59756 0
M  V30 4077 H 382.022 -3.49783 6.03571 0
M  V30 4078 H 377.919 -4.11992 4.96923 0
M  V30 4079 H 378.687 -4.1676 7.04452 0
M  V30 4080 N 381.35 -0.985608 -1.22978 0
M  V30 4081 C 382.313 -0.535071 -2.22867 0
M  V30 4082 C 383.313 0.378123 -1.56291 0
M  V30 4083 O 384.503 0.171092 -1.73358 0
M  V30 4084 C 381.635 0.222702 -3.40172 0
M  V30 4085 H 382.828 -1.41835 -2.6424 0
M  V30 4086 H 380.381 -0.772042 -1.35901 0
M  V30 4087 H 381.116 1.12229 -3.04262 0
M  V30 4088 H 380.901 -0.43288 -3.89703 0
M  V30 4089 H 382.391 0.526335 -4.1427 0
M  V30 4090 N 382.828 1.3818 -0.7579 0
M  V30 4091 C 384.076 1.99624 -0.315361 0
M  V30 4092 C 384.397 1.60464 1.10799 0
M  V30 4093 O 383.667 0.863507 1.75842 0
M  V30 4094 H 382.247 0.73831 -0.113611 0
M  V30 4095 H 384.909 1.68878 -0.972952 0
M  V30 4096 H 384.005 3.09754 -0.381931 0
M  V30 4097 N 384.306 0.507319 1.49211 0
M  V30 4098 C 385.583 -0.0982702 1.95353 0
M  V30 4099 C 385.963 -1.53516 1.449 0
M  V30 4100 O 385.311 -2.18594 0.66551 0
M  V30 4101 C 385.521 -0.00440283 3.49 0
M  V30 4102 C 386.869 -0.175147 4.24239 0
M  V30 4103 O 387.893 -0.0792891 3.56112 0
M  V30 4104 O 386.752 -0.37276 5.45227 0
M  V30 4105 H 383.846 -0.0918236 0.821887 0
M  V30 4106 H 386.392 0.570307 1.5983 0
M  V30 4107 H 385.164 0.997402 3.78375 0
M  V30 4108 H 384.787 -0.712845 3.91158 0
M  V30 4109 N 385.784 -1.5574 0.241426 0
M  V30 4110 C 387.03 -1.99104 -0.385406 0
M  V30 4111 C 387.363 -1.1293 -1.57988 0
M  V30 4112 O 386.638 -0.191449 -1.93555 0
M  V30 4113 C 386.921 -3.51087 -0.800616 0
M  V30 4114 C 386.774 -4.48028 0.398874 0
M  V30 4115 C 388.093 -4.08015 -1.64959 0
M  V30 4116 H 385.212 -0.723848 -0.138614 0
M  V30 4117 H 387.854 -1.86903 0.341642 0
M  V30 4118 H 386.004 -3.61615 -1.4201 0
M  V30 4119 H 387.676 -4.49487 1.03726 0
M  V30 4120 H 385.919 -4.21077 1.04293 0
M  V30 4121 H 386.59 -5.51962 0.0651056 0
M  V30 4122 H 389.066 -4.00555 -1.12672 0
M  V30 4123 H 387.942 -5.14635 -1.90898 0
M  V30 4124 H 388.203 -3.56131 -2.61961 0
M  V30 4125 N 387.262 0.0317525 -1.57568 0
M  V30 4126 C 388.487 0.738664 -1.938 0
M  V30 4127 C 388.912 1.68242 -0.841208 0
M  V30 4128 O 388.27 1.80157 0.203267 0
M  V30 4129 C 388.318 1.47417 -3.29091 0
M  V30 4130 O 387.422 2.5872 -3.2115 0
M  V30 4131 H 386.763 0.198856 -0.633524 0
M  V30 4132 H 389.293 -0.0119713 -2.04596 0
M  V30 4133 H 389.303 1.84468 -3.63917 0
M  V30 4134 H 387.978 0.781988 -4.08482 0
M  V30 4135 H 386.555 2.24231 -2.97951 0
M  V30 4136 N 388.74 1.54641 0.303973 0
M  V30 4137 C 389.673 1.80263 1.3993 0
M  V30 4138 C 390.651 0.653657 1.48883 0
M  V30 4139 O 391.835 0.893284 1.6599 0
M  V30 4140 C 388.962 1.9367 2.77866 0
M  V30 4141 C 388.008 3.16078 2.86351 0
M  V30 4142 S 388.841 4.74219 2.4875 0
M  V30 4143 C 389.997 4.90558 3.88721 0
M  V30 4144 H 390.23 2.72886 1.17986 0
M  V30 4145 H 387.763 1.46014 0.501918 0
M  V30 4146 H 389.721 2.0208 3.57315 0
M  V30 4147 H 388.382 1.01991 2.9708 0
M  V30 4148 H 387.575 3.22252 3.87517 0
M  V30 4149 H 387.177 3.06099 2.14893 0
M  V30 4150 H 389.469 4.74398 4.83687 0
M  V30 4151 H 390.412 5.92651 3.87518 0
M  V30 4152 H 390.82 4.18728 3.78585 0
M  V30 4153 N 390.218 -0.567019 1.47046 0
M  V30 4154 C 391.465 -1.32462 1.53167 0
M  V30 4155 C 391.793 -1.93571 0.189841 0
M  V30 4156 O 391.048 -1.77865 -0.816243 0
M  V30 4157 C 391.347 -2.4623 2.59047 0
M  V30 4158 C 391.013 -2.03014 4.02612 0
M  V30 4159 C 389.675 -1.90944 4.41694 0
M  V30 4160 C 392.027 -1.69895 4.92732 0
M  V30 4161 C 389.355 -1.44035 5.68745 0
M  V30 4162 C 391.707 -1.2446 6.20236 0
M  V30 4163 C 390.371 -1.10979 6.5821 0
M  V30 4164 H 389.641 -0.484713 0.560477 0
M  V30 4165 H 392.288 -0.636888 1.80599 0
M  V30 4166 H 390.593 -3.20517 2.25335 0
M  V30 4167 H 392.29 -3.04427 2.61008 0
M  V30 4168 H 388.88 -2.13348 3.71726 0
M  V30 4169 H 393.064 -1.78098 4.63244 0
M  V30 4170 H 388.32 -1.32254 5.96925 0
M  V30 4171 H 392.494 -0.978924 6.89485 0
M  V30 4172 H 390.121 -0.744078 7.5655 0
M  V30 4173 N 391.696 -1.35014 -0.812953 0
M  V30 4174 C 392.626 -1.30069 -1.93919 0
M  V30 4175 C 393.607 -0.176275 -1.69184 0
M  V30 4176 O 394.792 -0.370227 -1.90638 0
M  V30 4177 C 391.922 -1.06547 -3.30552 0
M  V30 4178 C 390.876 -2.15561 -3.69753 0
M  V30 4179 C 390.202 -1.77214 -5.04479 0
M  V30 4180 C 391.502 -3.57476 -3.808 0
M  V30 4181 H 393.196 -2.24303 -1.98314 0
M  V30 4182 H 390.742 -1.07977 -0.952736 0
M  V30 4183 H 392.695 -1.01729 -4.08937 0
M  V30 4184 H 391.419 -0.0875719 -3.26483 0
M  V30 4185 H 390.078 -2.19466 -2.9365 0
M  V30 4186 H 389.726 -0.780589 -4.96906 0
M  V30 4187 H 389.426 -2.50184 -5.31678 0
M  V30 4188 H 390.95 -1.7391 -5.8531 0
M  V30 4189 H 392.364 -3.55929 -4.4943 0
M  V30 4190 H 390.761 -4.29152 -4.19462 0
M  V30 4191 H 391.831 -3.94091 -2.82525 0
M  V30 4192 N 393.175 1.03435 -1.18907 0
M  V30 4193 C 394.105 2.13503 -0.945448 0
M  V30 4194 C 395.086 1.69682 0.119189 0
M  V30 4195 O 396.271 1.94169 -0.034707 0
M  V30 4196 C 393.401 3.44004 -0.477316 0
M  V30 4197 C 392.355 4.0148 -1.48316 0
M  V30 4198 C 391.681 5.27537 -0.872311 0
M  V30 4199 C 392.981 4.36921 -2.86177 0
M  V30 4200 H 394.675 2.34141 -1.86597 0
M  V30 4201 H 392.221 1.12523 -0.898584 0
M  V30 4202 H 394.174 4.20372 -0.294204 0
M  V30 4203 H 392.898 3.23072 0.478786 0
M  V30 4204 H 391.557 3.27201 -1.65332 0
M  V30 4205 H 391.205 5.02917 0.0911752 0
M  V30 4206 H 390.905 5.66954 -1.54393 0
M  V30 4207 H 392.429 6.06576 -0.699871 0
M  V30 4208 H 393.843 5.04248 -2.72776 0
M  V30 4209 H 392.24 4.87405 -3.50081 0
M  V30 4210 H 393.31 3.46466 -3.39248 0
M  V30 4211 N 394.653 0.992116 1.22453 0
M  V30 4212 C 395.583 0.561677 2.26644 0
M  V30 4213 C 396.564 -0.411055 1.65059 0
M  V30 4214 O 397.749 -0.301861 1.9184 0
M  V30 4215 C 394.879 -0.125247 3.47074 0
M  V30 4216 C 393.833 0.765948 4.21091 0
M  V30 4217 C 393.159 -0.0538484 5.34673 0
M  V30 4218 C 394.459 2.06242 4.79856 0
M  V30 4219 H 396.153 1.43259 2.62902 0
M  V30 4220 H 393.699 0.690283 1.26377 0
M  V30 4221 H 395.652 -0.437764 4.1912 0
M  V30 4222 H 394.376 -1.03069 3.0991 0
M  V30 4223 H 393.035 1.0621 3.50878 0
M  V30 4224 H 392.683 -0.960188 4.9375 0
M  V30 4225 H 392.383 0.539415 5.85119 0
M  V30 4226 H 393.907 -0.360477 6.09535 0
M  V30 4227 H 395.321 1.8139 5.43848 0
M  V30 4228 H 393.718 2.60444 5.40638 0
M  V30 4229 H 394.788 2.74167 3.99951 0
M  V30 4230 N 396.131 -1.37776 0.765217 0
M  V30 4231 C 397.542 -1.82521 0.392819 0
M  V30 4232 C 397.893 -1.63789 -1.08017 0
M  V30 4233 O 397.018 -1.14542 -1.83601 0
M  V30 4234 C 397.613 -3.31358 0.706214 0
M  V30 4235 C 396.172 -3.74406 0.386952 0
M  V30 4236 C 395.319 -2.60394 0.953422 0
M  V30 4237 H 398.27 -1.2634 0.960412 0
M  V30 4238 H 398.291 -3.80498 -0.0114706 0
M  V30 4239 H 397.803 -3.44959 1.77833 0
M  V30 4240 H 395.904 -3.66377 -0.678112 0
M  V30 4241 H 396.017 -4.70749 0.890636 0
M  V30 4242 H 394.381 -2.51878 0.378064 0
M  V30 4243 H 395.164 -2.76791 2.03081 0
M  V30 4244 N 397.609 -0.515225 -1.4894 0
M  V30 4245 C 398.886 0.0879088 -1.95402 0
M  V30 4246 C 399.266 1.52745 -1.45712 0
M  V30 4247 O 398.614 2.18238 -0.677093 0
M  V30 4248 C 398.824 -0.0141055 -3.48997 0
M  V30 4249 C 400.172 0.152646 -4.24326 0
M  V30 4250 O 401.196 0.0604025 -3.56149 0
M  V30 4251 O 400.055 0.34384 -5.45417 0
M  V30 4252 H 397.149 0.0874636 -0.822362 0
M  V30 4253 H 399.695 -0.578775 -1.59525 0
M  V30 4254 H 398.467 -1.01745 -3.77841 0
M  V30 4255 H 398.09 0.692091 -3.9153 0
M  V30 4256 N 399.087 1.5561 -0.249682 0
M  V30 4257 C 399.997 2.25143 0.659375 0
M  V30 4258 C 401.013 1.2685 1.19101 0
M  V30 4259 O 402.189 1.59732 1.22669 0
M  V30 4260 C 399.254 2.93945 1.8384 0
M  V30 4261 C 398.315 4.07655 1.34596 0
M  V30 4262 C 397.548 4.73167 2.46878 0
M  V30 4263 O 397.771 4.37768 3.65671 0
M  V30 4264 O 396.705 5.61623 2.16478 0
M  V30 4265 H 400.531 3.03545 0.0968698 0
M  V30 4266 H 398.116 1.49389 -0.018074 0
M  V30 4267 H 399.998 3.37271 2.52638 0
M  V30 4268 H 398.673 2.18481 2.38847 0
M  V30 4269 H 397.58 3.68839 0.625174 0
M  V30 4270 H 398.913 4.84946 0.841941 0
M  V30 4271 N 400.565 -0.0233959 1.57583 0
M  V30 4272 C 401.814 -0.712133 1.8871 0
M  V30 4273 C 402.127 -1.76217 0.848944 0
M  V30 4274 O 403.333 -2.50389 1.04964 0
M  V30 4275 C 401.789 -1.3177 3.3491 0
M  V30 4276 C 401.397 -0.303715 4.46969 0
M  V30 4277 C 403.141 -1.98598 3.75179 0
M  V30 4278 C 401.048 -0.917945 5.84233 0
M  V30 4279 H 399.978 -0.269735 0.704101 0
M  V30 4280 H 402.629 0.0333114 1.8347 0
M  V30 4281 H 401.011 -2.11304 3.34913 0
M  V30 4282 H 402.185 0.465325 4.58445 0
M  V30 4283 H 400.5 0.2628 4.1557 0
M  V30 4284 H 403.097 -2.45416 4.75053 0
M  V30 4285 H 403.44 -2.80659 3.07468 0
M  V30 4286 H 403.973 -1.25831 3.77374 0
M  V30 4287 H 400.712 -0.136633 6.55358 0
M  V30 4288 H 400.232 -1.65669 5.76467 0
M  V30 4289 H 401.911 -1.4236 6.31144 0
M  V30 4290 N 402.043 -1.548 -0.295768 0
M  V30 4291 C 403.006 -1.85363 -1.34808 0
M  V30 4292 C 404.006 -0.726817 -1.43436 0
M  V30 4293 O 405.196 -0.995088 -1.42981 0
M  V30 4294 C 402.328 -2.03859 -2.73229 0
M  V30 4295 H 403.521 -2.7941 -1.08949 0
M  V30 4296 H 401.074 -1.46942 -0.532702 0
M  V30 4297 H 401.809 -1.12117 -3.04303 0
M  V30 4298 H 401.594 -2.8588 -2.68356 0
M  V30 4299 H 403.084 -2.28857 -3.49305 0
M  V30 4300 N 403.521 0.559213 -1.47345 0
M  V30 4301 C 404.798 1.31997 -1.44348 0
M  V30 4302 C 405.178 2.1064 -0.139358 0
M  V30 4303 O 404.526 2.1091 0.879153 0
M  V30 4304 C 404.736 2.22618 -2.68779 0
M  V30 4305 C 406.084 2.83701 -3.1591 0
M  V30 4306 O 407.108 2.32921 -2.69493 0
M  V30 4307 O 405.967 3.75993 -3.966 0
M  V30 4308 H 403.061 0.594251 -0.575147 0
M  V30 4309 H 405.607 0.578282 -1.59543 0
M  V30 4310 H 404.379 1.64093 -3.55231 0
M  V30 4311 H 404.002 3.04085 -2.5616 0
M  V30 4312 N 404.999 1.35443 0.805782 0
M  V30 4313 C 406.245 1.28952 1.56522 0
M  V30 4314 C 406.578 -0.135597 1.93726 0
M  V30 4315 O 405.853 -1.08516 1.61414 0
M  V30 4316 C 406.136 2.19678 2.85331 0
M  V30 4317 C 405.989 3.7081 2.54598 0
M  V30 4318 C 407.308 2.09495 3.8704 0
M  V30 4319 H 404.427 0.469764 0.567883 0
M  V30 4320 H 407.069 1.65851 0.927001 0
M  V30 4321 H 405.219 1.8834 3.39795 0
M  V30 4322 H 406.891 4.12593 2.06312 0
M  V30 4323 H 405.134 3.91051 1.8778 0
M  V30 4324 H 405.805 4.29679 3.46525 0
M  V30 4325 H 408.281 2.37045 3.41978 0
M  V30 4326 H 407.157 2.75173 4.74943 0
M  V30 4327 H 407.418 1.07714 4.28777 0
M  V30 4328 N 406.477 -1.02803 1.19454 0
M  V30 4329 C 407.702 -1.80378 1.02364 0
M  V30 4330 C 408.127 -1.83282 -0.423007 0
M  V30 4331 O 407.485 -1.25945 -1.30413 0
M  V30 4332 C 407.533 -3.23248 1.59821 0
M  V30 4333 O 406.637 -4.04 0.828105 0
M  V30 4334 H 405.978 -0.556799 0.361761 0
M  V30 4335 H 408.508 -1.29385 1.58495 0
M  V30 4336 H 408.518 -3.73994 1.63073 0
M  V30 4337 H 407.193 -3.2045 2.65113 0
M  V30 4338 H 405.77 -3.62635 0.86891 0
M  V30 4339 N 407.956 -0.998596 -1.21925 0
M  V30 4340 C 409.184 -0.696286 -1.94832 0
M  V30 4341 C 409.599 0.740032 -1.73692 0
M  V30 4342 O 408.956 1.5 -1.03953 0
M  V30 4343 C 409.007 -0.999833 -3.47398 0
M  V30 4344 O 408.728 -2.37972 -3.67833 0
M  V30 4345 C 410.229 -0.716025 -4.37479 0
M  V30 4346 H 407.449 -0.257111 -0.619786 0
M  V30 4347 H 409.993 -1.33491 -1.54921 0
M  V30 4348 H 408.148 -0.406918 -3.85257 0
M  V30 4349 H 408.562 -2.48338 -4.61983 0
M  V30 4350 H 410.036 -0.978642 -5.43256 0
M  V30 4351 H 410.513 0.349968 -4.37803 0
M  V30 4352 H 411.119 -1.29025 -4.05256 0
M  V30 4353 N 409.434 1.37368 -0.772513 0
M  V30 4354 C 410.682 1.99279 -0.336516 0
M  V30 4355 C 411.003 1.6163 1.09091 0
M  V30 4356 O 410.273 0.882109 1.74916 0
M  V30 4357 H 408.853 0.737063 -0.121435 0
M  V30 4358 H 411.515 1.67836 -0.990809 0
M  V30 4359 H 410.611 3.09332 -0.414763 0
M  V30 4360 N 410.912 0.523116 1.48665 0
M  V30 4361 C 411.842 -0.23231 2.32342 0
M  V30 4362 C 412.823 -0.941637 1.41659 0
M  V30 4363 O 414.008 -0.928751 1.70552 0
M  V30 4364 C 411.138 -1.28387 3.22698 0
M  V30 4365 C 410.092 -0.693098 4.22351 0
M  V30 4366 C 409.418 -1.8468 5.01794 0
M  V30 4367 C 410.718 0.33063 5.21252 0
M  V30 4368 H 412.412 0.466192 2.95748 0
M  V30 4369 H 409.958 0.225643 1.42221 0
M  V30 4370 H 411.911 -1.82024 3.80059 0
M  V30 4371 H 410.635 -2.01186 2.57278 0
M  V30 4372 H 409.294 -0.178299 3.66166 0
M  V30 4373 H 408.942 -2.56301 4.32804 0
M  V30 4374 H 408.642 -1.45747 5.69238 0
M  V30 4375 H 410.166 -2.38709 5.62006 0
M  V30 4376 H 411.58 -0.118407 5.73178 0
M  V30 4377 H 409.977 0.636974 5.9671 0
M  V30 4378 H 411.047 1.23883 4.68808 0
M  V30 4379 N 412.39 -1.55475 0.257931 0
M  V30 4380 C 413.3 -2.2549 -0.647425 0
M  V30 4381 C 414.316 -1.2748 -1.18427 0
M  V30 4382 O 415.492 -1.6038 -1.2182 0
M  V30 4383 C 412.557 -2.94916 -1.82278 0
M  V30 4384 C 411.618 -4.08363 -1.32432 0
M  V30 4385 C 410.851 -4.74469 -2.44366 0
M  V30 4386 O 411.074 -4.39701 -3.63344 0
M  V30 4387 O 410.008 -5.62763 -2.13497 0
M  V30 4388 H 413.834 -3.03593 -0.0807707 0
M  V30 4389 H 411.419 -1.49377 0.0259962 0
M  V30 4390 H 413.301 -3.38606 -2.50846 0
M  V30 4391 H 411.976 -2.19744 -2.37685 0
M  V30 4392 H 410.883 -3.69166 -0.605605 0
M  V30 4393 H 412.216 -4.85385 -0.816211 0
M  V30 4394 N 413.868 0.0150385 -1.57593 0
M  V30 4395 C 414.798 1.01047 -2.10503 0
M  V30 4396 C 415.779 1.36816 -1.01071 0
M  V30 4397 O 416.964 1.45455 -1.28672 0
M  V30 4398 C 414.094 2.30708 -2.59598 0
M  V30 4399 C 413.048 2.09142 -3.73421 0
M  V30 4400 C 412.374 3.44685 -4.08774 0
M  V30 4401 C 413.674 1.46619 -5.01298 0
M  V30 4402 H 415.368 0.569978 -2.93925 0
M  V30 4403 H 412.914 0.272724 -1.41394 0
M  V30 4404 H 414.867 3.00687 -2.95238 0
M  V30 4405 H 413.591 2.76843 -1.73279 0
M  V30 4406 H 412.25 1.41592 -3.38153 0
M  V30 4407 H 411.898 3.88495 -3.195 0
M  V30 4408 H 411.598 3.31077 -4.8545 0
M  V30 4409 H 413.122 4.16004 -4.4696 0
M  V30 4410 H 414.536 2.06535 -5.34805 0
M  V30 4411 H 412.933 1.43544 -5.82679 0
M  V30 4412 H 414.003 0.433611 -4.82957 0
M  V30 4413 N 415.346 1.54954 0.287554 0
M  V30 4414 C 416.276 1.89839 1.35954 0
M  V30 4415 C 417.257 0.758675 1.52244 0
M  V30 4416 O 418.442 1.01557 1.65529 0
M  V30 4417 C 415.572 2.15753 2.72154 0
M  V30 4418 C 414.526 3.3159 2.70614 0
M  V30 4419 C 413.852 3.42952 4.10229 0
M  V30 4420 C 415.152 4.68359 2.31165 0
M  V30 4421 H 416.846 2.79625 1.07007 0
M  V30 4422 H 414.392 1.3454 0.513316 0
M  V30 4423 H 416.345 2.38743 3.47246 0
M  V30 4424 H 415.069 1.22752 3.02654 0
M  V30 4425 H 413.728 3.08545 1.97979 0
M  V30 4426 H 413.376 2.47443 4.37928 0
M  V30 4427 H 413.076 4.20826 4.10097 0
M  V30 4428 H 414.6 3.68218 4.87081 0
M  V30 4429 H 416.014 4.9099 2.95976 0
M  V30 4430 H 414.411 5.49044 2.42221 0
M  V30 4431 H 415.481 4.68165 1.26291 0
M  V30 4432 N 416.824 -0.551391 1.4764 0
M  V30 4433 C 417.734 -1.68525 1.63207 0
M  V30 4434 C 418.75 -1.6621 0.514815 0
M  V30 4435 O 419.926 -1.85551 0.783113 0
M  V30 4436 C 416.991 -3.05025 1.64805 0
M  V30 4437 C 416.052 -3.18362 2.88 0
M  V30 4438 C 415.285 -4.4835 2.89513 0
M  V30 4439 O 415.508 -5.34163 2.00065 0
M  V30 4440 O 414.442 -4.65602 3.81443 0
M  V30 4441 H 418.268 -1.58333 2.59161 0
M  V30 4442 H 415.853 -0.722063 1.30792 0
M  V30 4443 H 417.735 -3.86245 1.68502 0
M  V30 4444 H 416.41 -3.15587 0.720197 0
M  V30 4445 H 415.317 -2.36518 2.89845 0
M  V30 4446 H 416.65 -3.12707 3.80099 0
M  V30 4447 N 418.302 -1.35869 -0.798587 0
M  V30 4448 C 419.527 -1.32883 -1.59238 0
M  V30 4449 C 419.952 0.0894587 -1.87887 0
M  V30 4450 O 419.31 1.05869 -1.47178 0
M  V30 4451 C 419.358 -2.14892 -2.89575 0
M  V30 4452 O 418.462 -1.53512 -3.82763 0
M  V30 4453 H 417.803 -0.455236 -0.48338 0
M  V30 4454 H 420.333 -1.79024 -0.990539 0
M  V30 4455 H 420.343 -2.27139 -3.38928 0
M  V30 4456 H 419.018 -3.17998 -2.68049 0
M  V30 4457 H 417.595 -1.50153 -3.41334 0
M  V30 4458 N 419.78 1.02168 -1.19998 0
M  V30 4459 C 420.69 2.14069 -0.959774 0
M  V30 4460 C 421.706 1.73804 0.082655 0
M  V30 4461 O 422.882 2.01133 -0.103633 0
M  V30 4462 C 419.947 3.42936 -0.509459 0
M  V30 4463 C 419.008 3.97474 -1.62213 0
M  V30 4464 C 418.241 5.2019 -1.19321 0
M  V30 4465 O 418.464 5.70369 -0.0597726 0
M  V30 4466 O 417.398 5.67749 -1.99863 0
M  V30 4467 H 421.224 2.37199 -1.89658 0
M  V30 4468 H 418.809 1.12469 -0.983411 0
M  V30 4469 H 420.691 4.20551 -0.267322 0
M  V30 4470 H 419.366 3.21234 0.398821 0
M  V30 4471 H 418.273 3.21161 -1.9185 0
M  V30 4472 H 419.606 4.23555 -2.50723 0
M  V30 4473 N 421.258 1.00505 1.21394 0
M  V30 4474 C 422.507 0.683159 1.89778 0
M  V30 4475 C 422.82 -0.789471 1.7896 0
M  V30 4476 O 424.026 -1.22344 2.42372 0
M  V30 4477 C 422.482 1.17146 3.40301 0
M  V30 4478 C 422.09 2.67017 3.5973 0
M  V30 4479 C 423.834 0.924461 4.14311 0
M  V30 4480 C 421.741 3.09387 5.04017 0
M  V30 4481 H 420.671 0.25183 0.710702 0
M  V30 4482 H 423.322 1.21622 1.37406 0
M  V30 4483 H 421.704 0.566451 3.91928 0
M  V30 4484 H 422.878 3.32968 3.18542 0
M  V30 4485 H 421.193 2.89732 2.99073 0
M  V30 4486 H 423.79 1.21658 5.20676 0
M  V30 4487 H 424.133 -0.139286 4.16067 0
M  V30 4488 H 424.666 1.49226 3.6875 0
M  V30 4489 H 421.405 4.14989 5.07409 0
M  V30 4490 H 420.925 2.48149 5.46061 0
M  V30 4491 H 422.604 3.01371 5.72525 0
M  V30 4492 N 422.737 -1.36956 0.779787 0
M  V30 4493 C 423.965 -2.03755 0.359398 0
M  V30 4494 C 424.38 -1.58807 -1.02106 0
M  V30 4495 O 423.737 -0.773024 -1.6532 0
M  V30 4496 C 423.788 -3.59251 0.402568 0
M  V30 4497 O 423.509 -4.02557 1.72858 0
M  V30 4498 C 425.01 -4.43291 -0.0284068 0
M  V30 4499 H 422.23 -0.654148 0.149437 0
M  V30 4500 H 424.774 -1.75128 1.05595 0
M  V30 4501 H 422.929 -3.86621 -0.245478 0
M  V30 4502 H 423.343 -4.97111 1.67275 0
M  V30 4503 H 424.817 -5.51975 0.0529466 0
M  V30 4504 H 425.294 -4.25719 -1.07982 0
M  V30 4505 H 425.9 -4.21163 0.591758 0
M  V30 4506 N 424.215 -0.530993 -1.48385 0
M  V30 4507 C 425.445 -0.00133928 -2.066 0
M  V30 4508 C 425.853 1.28599 -1.38777 0
M  V30 4509 O 425.196 1.77599 -0.469495 0
M  V30 4510 C 425.258 0.292137 -3.58311 0
M  V30 4511 C 424.922 -0.901864 -4.48013 0
M  V30 4512 C 425.919 -1.80053 -4.87726 0
M  V30 4513 C 423.604 -1.10915 -4.89901 0
M  V30 4514 C 425.598 -2.89038 -5.68098 0
M  V30 4515 C 423.285 -2.20213 -5.70043 0
M  V30 4516 C 424.283 -3.09107 -6.0905 0
M  V30 4517 O 423.971 -4.16514 -6.87583 0
M  V30 4518 H 423.703 -0.0308475 -0.675296 0
M  V30 4519 H 426.257 -0.736335 -1.91748 0
M  V30 4520 H 424.487 1.08112 -3.7128 0
M  V30 4521 H 426.176 0.763994 -3.98645 0
M  V30 4522 H 426.942 -1.65234 -4.55986 0
M  V30 4523 H 422.821 -0.426498 -4.59023 0
M  V30 4524 H 426.365 -3.58451 -5.98464 0
M  V30 4525 H 422.262 -2.35016 -6.01197 0
M  V30 4526 H 423.03 -4.14237 -7.05939 0
M  V30 4527 N 425.693 1.55336 -0.266172 0
M  V30 4528 C 426.97 1.91372 0.404486 0
M  V30 4529 C 427.35 1.18935 1.74407 0
M  V30 4530 O 426.698 0.3132 2.26343 0
M  V30 4531 C 426.908 3.44581 0.553593 0
M  V30 4532 C 428.256 4.16196 0.840618 0
M  V30 4533 O 429.28 3.50426 0.638739 0
M  V30 4534 O 428.139 5.32567 1.22618 0
M  V30 4535 H 425.233 0.797194 0.220025 0
M  V30 4536 H 427.779 1.66813 -0.311664 0
M  V30 4537 H 426.551 3.89357 -0.389498 0
M  V30 4538 H 426.174 3.75065 1.31955 0
M  V30 4539 N 427.171 -0.0066808 1.57599 0
M  V30 4540 C 428.118 -1.00024 2.08 0
M  V30 4541 C 429.088 -1.34549 0.973943 0
M  V30 4542 O 430.273 -1.44502 1.24595 0
M  V30 4543 C 427.413 -2.2891 2.58252 0
M  V30 4544 C 426.526 -2.00346 3.82734 0
M  V30 4545 C 425.661 -3.23265 4.21513 0
M  V30 4546 C 424.7 -2.90357 5.3885 0
M  V30 4547 N 423.837 -4.05793 5.72954 0
M  V30 4548 H 428.677 -0.563499 2.92624 0
M  V30 4549 H 426.214 -0.266592 1.44664 0
M  V30 4550 H 428.172 -3.04247 2.85464 0
M  V30 4551 H 426.802 -2.70265 1.76512 0
M  V30 4552 H 425.854 -1.15406 3.62471 0
M  V30 4553 H 427.166 -1.72086 4.68175 0
M  V30 4554 H 426.32 -4.06953 4.49971 0
M  V30 4555 H 425.059 -3.54657 3.34768 0
M  V30 4556 H 424.064 -2.05075 5.10122 0
M  V30 4557 H 425.289 -2.60219 6.27266 0
M  V30 4558 H 423.235 -4.37094 4.89167 0
M  V30 4559 H 423.152 -3.81034 6.52954 0
M  V30 4560 H 424.42 -4.90289 6.06001 0
M  V30 4561 N 428.649 -1.55105 -0.279332 0
M  V30 4562 C 429.579 -1.90557 -1.34945 0
M  V30 4563 C 430.56 -0.766738 -1.51839 0
M  V30 4564 O 431.745 -1.02434 -1.64988 0
M  V30 4565 C 428.875 -2.17193 -2.71006 0
M  V30 4566 C 427.829 -3.33021 -2.68851 0
M  V30 4567 C 427.155 -3.45123 -4.08405 0
M  V30 4568 C 428.455 -4.69578 -2.28678 0
M  V30 4569 H 430.149 -2.80188 -1.05522 0
M  V30 4570 H 427.695 -1.34811 -0.506173 0
M  V30 4571 H 429.648 -2.40581 -3.45975 0
M  V30 4572 H 428.372 -1.24355 -3.01999 0
M  V30 4573 H 427.031 -3.0959 -1.9634 0
M  V30 4574 H 426.679 -2.49762 -4.3661 0
M  V30 4575 H 426.379 -4.22995 -4.07859 0
M  V30 4576 H 427.903 -3.70796 -4.85121 0
M  V30 4577 H 429.317 -4.92553 -2.93368 0
M  V30 4578 H 427.714 -5.5032 -2.39306 0
M  V30 4579 H 428.784 -4.68828 -1.23807 0
M  V30 4580 N 430.127 0.543554 -1.4793 0
M  V30 4581 C 431.075 1.67039 -1.61866 0
M  V30 4582 C 432.069 1.62294 -0.48549 0
M  V30 4583 O 433.275 1.67315 -0.66376 0
M  V30 4584 H 429.65 0.552954 -0.509652 0
M  V30 4585 H 431.621 1.52426 -2.56533 0
M  V30 4586 C 430.37 3.05357 -1.6629 0
M  V30 4587 H 429.693 3.09696 -2.5284 0
M  V30 4588 H 431.133 3.83855 -1.80088 0
M  V30 4589 C 429.592 3.34531 -0.398861 0
M  V30 4590 O 430.122 3.98649 0.494162 0
M  V30 4591 N 428.328 2.89299 -0.2747 0
M  V30 4592 H 427.875 2.37298 -1.00236 0
M  V30 4593 H 427.833 3.09188 0.570075 0
M  V30 4594 N 431.605 1.3629 0.791371 0
M  V30 4595 C 432.552 1.30458 1.90393 0
M  V30 4596 C 433.522 0.173632 1.6519 0
M  V30 4597 O 434.707 0.35983 1.87376 0
M  V30 4598 C 431.847 1.09777 3.27174 0
M  V30 4599 C 430.96 2.31929 3.64462 0
M  V30 4600 C 430.095 2.04276 4.90352 0
M  V30 4601 C 429.134 3.224 5.20312 0
M  V30 4602 N 428.271 2.94424 6.37385 0
M  V30 4603 H 433.111 2.25589 1.94714 0
M  V30 4604 H 430.648 1.12122 0.952216 0
M  V30 4605 H 432.606 0.958133 4.06049 0
M  V30 4606 H 431.236 0.183014 3.22281 0
M  V30 4607 H 430.288 2.56703 2.80727 0
M  V30 4608 H 431.6 3.20085 3.82553 0
M  V30 4609 H 430.754 1.87231 5.77087 0
M  V30 4610 H 429.493 1.13428 4.74326 0
M  V30 4611 H 428.498 3.40005 4.32061 0
M  V30 4612 H 429.723 4.14071 5.38258 0
M  V30 4613 H 427.669 2.06185 6.22755 0
M  V30 4614 H 427.586 3.76118 6.55798 0
M  V30 4615 H 428.854 2.80953 7.27108 0
M  V30 4616 N 433.083 -1.0153 1.20538 0
M  V30 4617 C 434.329 -1.75517 1.02787 0
M  V30 4618 C 434.684 -1.87411 -0.435289 0
M  V30 4619 O 433.977 -1.38982 -1.31889 0
M  V30 4620 C 434.171 -3.17213 1.64654 0
M  V30 4621 C 434 -3.19134 3.16834 0
M  V30 4622 C 432.77 -3.26301 3.85818 0
M  V30 4623 C 434.968 -3.05077 4.14044 0
M  V30 4624 N 432.95 -3.17739 5.25276 0
M  V30 4625 C 434.321 -3.04299 5.40187 0
M  V30 4626 C 436.376 -2.89303 4.05226 0
M  V30 4627 C 435.079 -2.89365 6.58529 0
M  V30 4628 C 437.105 -2.75723 5.23193 0
M  V30 4629 C 436.467 -2.75612 6.48242 0
M  V30 4630 H 432.566 -0.652919 0.430373 0
M  V30 4631 H 435.15 -1.20755 1.52729 0
M  V30 4632 H 433.321 -3.70266 1.17294 0
M  V30 4633 H 435.053 -3.79637 1.40208 0
M  V30 4634 H 431.808 -3.33078 3.36684 0
M  V30 4635 H 432.232 -3.16829 5.98288 0
M  V30 4636 H 436.874 -2.88201 3.09354 0
M  V30 4637 H 434.592 -2.89216 7.54573 0
M  V30 4638 H 438.178 -2.64533 5.18183 0
M  V30 4639 H 437.058 -2.65224 7.37988 0
M  V30 4640 N 434.561 -1.01147 -1.20859 0
M  V30 4641 C 435.789 -0.716911 -1.94082 0
M  V30 4642 C 436.204 0.721568 -1.74467 0
M  V30 4643 O 435.561 1.48889 -1.05539 0
M  V30 4644 C 435.612 -1.03662 -3.46318 0
M  V30 4645 O 435.333 -2.4186 -3.65288 0
M  V30 4646 C 436.834 -0.762386 -4.36695 0
M  V30 4647 H 434.054 -0.26367 -0.617024 0
M  V30 4648 H 436.598 -1.35127 -1.53496 0
M  V30 4649 H 434.753 -0.447757 -3.84804 0
M  V30 4650 H 435.167 -2.53224 -4.59323 0
M  V30 4651 H 436.641 -1.03621 -5.42187 0
M  V30 4652 H 437.118 0.303514 -4.3815 0
M  V30 4653 H 437.724 -1.33316 -4.03865 0
M  V30 4654 N 436.039 1.36541 -0.78704 0
M  V30 4655 C 437.264 2.0409 -0.369053 0
M  V30 4656 C 437.689 1.58957 1.00569 0
M  V30 4657 O 437.047 0.756926 1.64743 0
M  V30 4658 C 437.095 3.57924 -0.438466 0
M  V30 4659 O 436.199 4.08642 0.555479 0
M  V30 4660 H 435.54 0.645142 -0.157122 0
M  V30 4661 H 438.07 1.74545 -1.06749 0
M  V30 4662 H 438.08 4.06887 -0.301218 0
M  V30 4663 H 436.755 3.90127 -1.44132 0
M  V30 4664 H 435.332 3.70958 0.380088 0
M  V30 4665 N 437.518 0.538854 1.48102 0
M  V30 4666 C 438.465 -0.219042 2.29758 0
M  V30 4667 C 439.435 -0.925562 1.37922 0
M  V30 4668 O 440.62 -0.924855 1.66886 0
M  V30 4669 C 437.76 -1.25452 3.2149 0
M  V30 4670 C 436.873 -0.555943 4.28408 0
M  V30 4671 C 436.008 -1.57512 5.0731 0
M  V30 4672 C 435.047 -0.860498 6.06021 0
M  V30 4673 N 434.184 -1.82564 6.77949 0
M  V30 4674 H 439.024 0.483449 2.94052 0
M  V30 4675 H 436.561 0.250247 1.44956 0
M  V30 4676 H 438.519 -1.86727 3.7308 0
M  V30 4677 H 437.149 -1.92528 2.591 0
M  V30 4678 H 436.201 0.170938 3.80016 0
M  V30 4679 H 437.513 0.00474616 4.988 0
M  V30 4680 H 436.667 -2.26191 5.62959 0
M  V30 4681 H 435.406 -2.16972 4.36778 0
M  V30 4682 H 434.411 -0.159686 5.49568 0
M  V30 4683 H 435.636 -0.271897 6.78555 0
M  V30 4684 H 433.582 -2.40915 6.10161 0
M  V30 4685 H 433.499 -1.31662 7.44447 0
M  V30 4686 H 434.767 -2.50414 7.38182 0
M  V30 4687 N 438.996 -1.55193 0.274407 0
M  V30 4688 C 440.273 -1.91584 -0.394331 0
M  V30 4689 C 440.653 -1.19858 -1.73774 0
M  V30 4690 O 440.001 -0.3252 -2.26174 0
M  V30 4691 C 440.211 -3.4487 -0.535311 0
M  V30 4692 C 441.559 -4.16636 -0.818534 0
M  V30 4693 O 442.583 -3.5076 -0.620146 0
M  V30 4694 O 441.442 -5.33209 -1.19792 0
M  V30 4695 H 438.536 -0.798349 -0.215794 0
M  V30 4696 H 441.082 -1.66646 0.320507 0
M  V30 4697 H 439.854 -3.89145 0.410141 0
M  V30 4698 H 439.477 -3.75759 -1.29964 0
M  V30 4699 N 440.474 -0.00167713 -1.576 0
M  V30 4700 C 441.421 0.989195 -2.08527 0
M  V30 4701 C 442.391 1.34031 -0.981065 0
M  V30 4702 O 443.576 1.43839 -1.2536 0
M  V30 4703 C 440.716 2.27537 -2.59463 0
M  V30 4704 C 439.829 1.98314 -3.83791 0
M  V30 4705 C 438.964 3.21025 -4.23222 0
M  V30 4706 C 438.003 2.87495 -5.40382 0
M  V30 4707 N 437.14 4.02749 -5.75098 0
M  V30 4708 H 441.98 0.547973 -2.92919 0
M  V30 4709 H 439.517 0.258917 -1.44803 0
M  V30 4710 H 441.475 3.02729 -2.87073 0
M  V30 4711 H 440.105 2.69325 -1.77943 0
M  V30 4712 H 439.157 1.13482 -3.63078 0
M  V30 4713 H 440.469 1.69601 -4.69081 0
M  V30 4714 H 439.623 4.04561 -4.52123 0
M  V30 4715 H 438.362 3.52877 -3.36644 0
M  V30 4716 H 437.367 2.02367 -5.11202 0
M  V30 4717 H 438.592 2.56889 -6.28637 0
M  V30 4718 H 436.538 4.34494 -4.91478 0
M  V30 4719 H 436.455 3.77566 -6.54966 0
M  V30 4720 H 437.723 4.87068 -6.08592 0
M  V30 4721 N 441.952 1.55251 0.271103 0
M  V30 4722 C 442.885 1.83191 1.36075 0
M  V30 4723 C 443.863 0.685091 1.47463 0
M  V30 4724 O 445.047 0.928292 1.64058 0
M  V30 4725 C 442.174 1.99521 2.73696 0
M  V30 4726 C 441.22 3.22081 2.79582 0
M  V30 4727 S 442.053 4.79388 2.38636 0
M  V30 4728 C 443.209 4.98693 3.78228 0
M  V30 4729 H 443.442 2.75327 1.12171 0
M  V30 4730 H 440.975 1.47046 0.470833 0
M  V30 4731 H 442.933 2.09613 3.52948 0
M  V30 4732 H 441.594 1.0827 2.9485 0
M  V30 4733 H 440.787 3.304 3.80594 0
M  V30 4734 H 440.389 3.10589 2.08352 0
M  V30 4735 H 442.681 4.84551 4.73515 0
M  V30 4736 H 443.624 6.00738 3.7486 0
M  V30 4737 H 444.032 4.26665 3.69618 0
M  V30 4738 N 443.43 -0.535701 1.48216 0
M  V30 4739 C 444.393 -1.623 1.61838 0
M  V30 4740 C 445.393 -1.53087 0.492024 0
M  V30 4741 O 446.583 -1.5686 0.757668 0
M  V30 4742 C 443.715 -3.01907 1.58319 0
M  V30 4743 H 444.908 -1.51564 2.58783 0
M  V30 4744 H 442.461 -0.757317 1.36727 0
M  V30 4745 H 443.196 -3.18155 0.628299 0
M  V30 4746 H 442.981 -3.10003 2.40085 0
M  V30 4747 H 444.471 -3.80969 1.71033 0
M  V30 4748 N 444.908 -1.36708 -0.784132 0
M  V30 4749 C 445.818 -1.3363 -1.92822 0
M  V30 4750 C 446.834 -0.237686 -1.72369 0
M  V30 4751 O 448.01 -0.470962 -1.95816 0
M  V30 4752 C 445.075 -1.13011 -3.27764 0
M  V30 4753 C 444.136 -2.32397 -3.60957 0
M  V30 4754 C 443.369 -2.12752 -4.89461 0
M  V30 4755 O 443.592 -1.10541 -5.59586 0
M  V30 4756 O 442.526 -3.00653 -5.21432 0
M  V30 4757 H 446.352 -2.29964 -1.98369 0
M  V30 4758 H 443.937 -1.1731 -0.925136 0
M  V30 4759 H 445.819 -1.03451 -4.08504 0
M  V30 4760 H 444.494 -0.19743 -3.23097 0
M  V30 4761 H 443.401 -2.47527 -2.80502 0
M  V30 4762 H 444.734 -3.2419 -3.70354 0
M  V30 4763 N 446.386 1.0089 -1.21074 0
M  V30 4764 C 447.663 1.71834 -0.934469 0
M  V30 4765 C 448.043 2.0368 0.554753 0
M  V30 4766 O 447.391 1.70742 1.51854 0
M  V30 4767 C 447.601 2.98061 -1.8155 0
M  V30 4768 C 448.949 3.7117 -2.06199 0
M  V30 4769 O 449.973 3.08034 -1.78867 0
M  V30 4770 O 448.832 4.84721 -2.52404 0
M  V30 4771 H 445.926 0.749253 -0.35007 0
M  V30 4772 H 448.472 1.06668 -1.31985 0
M  V30 4773 H 447.244 2.70908 -2.82355 0
M  V30 4774 H 446.867 3.70968 -1.43068 0
M  V30 4775 N 447.864 1.01787 1.20321 0
M  V30 4776 C 448.774 0.598898 2.26827 0
M  V30 4777 C 449.79 -0.36418 1.70146 0
M  V30 4778 O 450.966 -0.224812 2.00141 0
M  V30 4779 C 448.031 -0.0549769 3.46656 0
M  V30 4780 C 447.092 0.954205 4.18561 0
M  V30 4781 C 446.325 0.331439 5.3267 0
M  V30 4782 O 446.548 -0.86851 5.63749 0
M  V30 4783 O 445.482 1.0488 5.92692 0
M  V30 4784 H 449.308 1.48562 2.64883 0
M  V30 4785 H 446.893 0.787434 1.26964 0
M  V30 4786 H 448.775 -0.420102 4.19301 0
M  V30 4787 H 447.45 -0.915876 3.10473 0
M  V30 4788 H 446.357 1.37072 3.48083 0
M  V30 4789 H 447.69 1.78511 4.58688 0
M  V30 4790 N 449.342 -1.36122 0.79427 0
M  V30 4791 C 450.588 -1.99406 0.369452 0
M  V30 4792 C 450.921 -1.62886 -1.05743 0
M  V30 4793 O 450.196 -0.886053 -1.73145 0
M  V30 4794 C 450.479 -3.56046 0.538833 0
M  V30 4795 C 450.332 -4.02404 2.00976 0
M  V30 4796 C 451.651 -4.40079 -0.0431359 0
M  V30 4797 H 448.77 -0.724397 0.135712 0
M  V30 4798 H 451.412 -1.61461 1.00151 0
M  V30 4799 H 449.562 -3.885 0.000771004 0
M  V30 4800 H 451.234 -3.80415 2.60926 0
M  V30 4801 H 449.477 -3.53765 2.51063 0
M  V30 4802 H 450.148 -5.11344 2.07922 0
M  V30 4803 H 452.624 -4.14013 0.416228 0
M  V30 4804 H 451.5 -5.48799 0.105374 0
M  V30 4805 H 451.761 -4.27264 -1.13571 0
M  V30 4806 N 450.82 -0.546701 -1.47814 0
M  V30 4807 C 451.73 0.21026 -2.33656 0
M  V30 4808 C 452.746 0.922413 -1.47538 0
M  V30 4809 O 453.922 0.893652 -1.80488 0
M  V30 4810 C 450.987 1.23348 -3.24016 0
M  V30 4811 C 450.048 0.529883 -4.26017 0
M  V30 4812 C 449.281 1.50435 -5.12059 0
M  V30 4813 O 449.504 2.73837 -5.00369 0
M  V30 4814 O 448.438 1.03459 -5.92942 0
M  V30 4815 H 452.264 -0.493605 -2.99662 0
M  V30 4816 H 449.849 -0.307427 -1.46203 0
M  V30 4817 H 451.731 1.82438 -3.79861 0
M  V30 4818 H 450.406 1.91945 -2.60651 0
M  V30 4819 H 449.313 -0.101948 -3.73961 0
M  V30 4820 H 450.646 -0.11445 -4.92067 0
M  V30 4821 N 452.299 1.55045 -0.282633 0
M  V30 4822 C 453.545 2.00056 0.332481 0
M  V30 4823 C 453.878 1.1708 1.54939 0
M  V30 4824 O 453.153 0.2427 1.9298 0
M  V30 4825 C 453.436 3.53086 0.70725 0
M  V30 4826 C 453.289 4.46813 -0.517521 0
M  V30 4827 C 454.608 4.12245 1.54084 0
M  V30 4828 H 451.727 0.727268 0.119373 0
M  V30 4829 H 454.369 1.85932 -0.391076 0
M  V30 4830 H 452.519 3.65253 1.32372 0
M  V30 4831 H 454.191 4.46579 -1.15607 0
M  V30 4832 H 452.434 4.18163 -1.1542 0
M  V30 4833 H 453.105 5.51595 -0.211426 0
M  V30 4834 H 455.581 4.03401 1.02013 0
M  V30 4835 H 454.457 5.19515 1.77186 0
M  V30 4836 H 454.718 3.62951 2.52427 0
M  V30 4837 N 453.777 0.010035 1.57597 0
M  V30 4838 C 455.007 -0.682422 1.95004 0
M  V30 4839 C 455.415 -1.67278 0.884014 0
M  V30 4840 O 454.758 -1.83129 -0.144672 0
M  V30 4841 C 454.82 -1.46141 3.28456 0
M  V30 4842 C 454.484 -0.631523 4.52615 0
M  V30 4843 C 455.481 0.0850905 5.1983 0
M  V30 4844 C 453.166 -0.574539 4.99003 0
M  V30 4845 C 455.16 0.847566 6.3174 0
M  V30 4846 C 452.847 0.191655 6.10799 0
M  V30 4847 C 453.845 0.901432 6.77025 0
M  V30 4848 O 453.533 1.65511 7.86677 0
M  V30 4849 H 453.265 -0.194361 0.647456 0
M  V30 4850 H 455.819 0.060312 2.05311 0
M  V30 4851 H 454.049 -2.24885 3.14585 0
M  V30 4852 H 455.738 -2.04016 3.50902 0
M  V30 4853 H 456.504 0.0502812 4.84974 0
M  V30 4854 H 452.383 -1.11654 4.47274 0
M  V30 4855 H 455.927 1.4021 6.83364 0
M  V30 4856 H 451.824 0.228249 6.45096 0
M  V30 4857 H 452.592 1.57287 8.03245 0
M  V30 4858 N 455.255 -1.55392 -0.262866 0
M  V30 4859 C 456.504 -1.75679 -0.990943 0
M  V30 4860 C 456.817 -0.57097 -1.87081 0
M  V30 4861 O 458.023 -0.656486 -2.63444 0
M  V30 4862 C 456.479 -3.10964 -1.81188 0
M  V30 4863 C 456.087 -4.37146 -0.980188 0
M  V30 4864 C 457.831 -3.40597 -2.53365 0
M  V30 4865 C 455.738 -5.63466 -1.7961 0
M  V30 4866 H 454.668 -0.654868 -0.373716 0
M  V30 4867 H 457.319 -1.81841 -0.246203 0
M  V30 4868 H 455.701 -2.98867 -2.59797 0
M  V30 4869 H 456.875 -4.60187 -0.237558 0
M  V30 4870 H 455.19 -4.14731 -0.372497 0
M  V30 4871 H 457.787 -4.32186 -3.14833 0
M  V30 4872 H 458.13 -2.6119 -3.24169 0
M  V30 4873 H 458.663 -3.53838 -1.81779 0
M  V30 4874 H 455.402 -6.4565 -1.13209 0
M  V30 4875 H 454.922 -5.44552 -2.51443 0
M  V30 4876 H 456.601 -6.02139 -2.36723 0
M  V30 4877 N 456.733 0.527833 -1.48498 0
M  V30 4878 C 458.144 1.10975 -1.50138 0
M  V30 4879 C 458.495 1.943 -0.272378 0
M  V30 4880 O 457.62 2.07319 0.620301 0
M  V30 4881 C 458.215 2.01927 -2.72049 0
M  V30 4882 C 456.774 2.55332 -2.76554 0
M  V30 4883 C 455.921 1.32341 -2.43683 0
M  V30 4884 H 458.872 0.312986 -1.55583 0
M  V30 4885 H 458.893 2.86244 -2.50689 0
M  V30 4886 H 458.405 1.41254 -3.61481 0
M  V30 4887 H 456.506 3.19721 -1.91336 0
M  V30 4888 H 456.619 2.94319 -3.78038 0
M  V30 4889 H 454.983 1.63989 -1.94884 0
M  V30 4890 H 455.766 0.734165 -3.35358 0
M  V30 4891 N 458.211 1.37122 0.776871 0
M  V30 4892 C 459.143 1.28342 1.89897 0
M  V30 4893 C 460.156 0.200277 1.61563 0
M  V30 4894 O 461.345 0.456012 1.72577 0
M  V30 4895 C 458.445 0.960427 3.25006 0
M  V30 4896 C 457.618 2.148 3.81025 0
M  V30 4897 C 456.677 1.79608 4.94598 0
M  V30 4898 O 455.703 2.51845 5.10454 0
M  V30 4899 N 456.905 0.737171 5.758 0
M  V30 4900 H 459.67 2.25027 1.97947 0
M  V30 4901 H 457.231 1.3068 0.955739 0
M  V30 4902 H 459.223 0.705942 3.98495 0
M  V30 4903 H 457.793 0.0823066 3.12492 0
M  V30 4904 H 457.013 2.56454 2.99374 0
M  V30 4905 H 458.301 2.9411 4.15183 0
M  V30 4906 H 457.699 0.137637 5.65533 0
M  V30 4907 H 456.256 0.542534 6.49538 0
M  V30 4908 N 459.689 -1.00246 1.21608 0
M  V30 4909 C 460.936 -1.74061 1.03485 0
M  V30 4910 C 461.264 -1.89658 -0.431308 0
M  V30 4911 O 460.519 -1.42976 -1.33627 0
M  V30 4912 C 460.818 -3.15448 1.68009 0
M  V30 4913 C 460.484 -3.19792 3.17874 0
M  V30 4914 C 459.146 -3.20685 3.58768 0
M  V30 4915 C 461.498 -3.16835 4.13842 0
M  V30 4916 C 458.826 -3.16309 4.94131 0
M  V30 4917 C 461.178 -3.14001 5.49169 0
M  V30 4918 C 459.842 -3.13204 5.89457 0
M  V30 4919 H 459.112 -0.636934 0.378677 0
M  V30 4920 H 461.759 -1.17473 1.51236 0
M  V30 4921 H 460.064 -3.75284 1.12557 0
M  V30 4922 H 461.761 -3.71285 1.51487 0
M  V30 4923 H 458.351 -3.19842 2.85305 0
M  V30 4924 H 462.535 -3.15303 3.83272 0
M  V30 4925 H 457.791 -3.14032 5.24589 0
M  V30 4926 H 461.965 -3.10667 6.23265 0
M  V30 4927 H 459.592 -3.09568 6.94314 0
M  V30 4928 N 461.167 -1.02423 -1.1978 0
M  V30 4929 C 462.114 -0.601023 -2.22837 0
M  V30 4930 C 463.084 0.382801 -1.61629 0
M  V30 4931 O 464.269 0.280514 -1.88727 0
M  V30 4932 C 461.409 0.0467755 -3.45068 0
M  V30 4933 C 460.522 -0.98253 -4.20678 0
M  V30 4934 C 459.657 -0.304982 -5.30324 0
M  V30 4935 C 458.696 -1.32052 -5.97686 0
M  V30 4936 N 457.833 -0.669105 -6.98904 0
M  V30 4937 H 462.673 -1.48444 -2.58396 0
M  V30 4938 H 460.21 -0.742936 -1.2696 0
M  V30 4939 H 462.168 0.439556 -4.14878 0
M  V30 4940 H 460.798 0.893796 -3.10179 0
M  V30 4941 H 459.85 -1.49341 -3.49859 0
M  V30 4942 H 461.162 -1.75455 -4.66923 0
M  V30 4943 H 460.316 0.142893 -6.06532 0
M  V30 4944 H 459.055 0.499283 -4.85138 0
M  V30 4945 H 458.06 -1.7787 -5.20233 0
M  V30 4946 H 459.285 -2.1262 -6.44957 0
M  V30 4947 H 457.231 0.115152 -6.55899 0
M  V30 4948 H 457.148 -1.37908 -7.43315 0
M  V30 4949 H 458.416 -0.245076 -7.79115 0
M  V30 4950 N 462.645 1.35699 -0.801477 0
M  V30 4951 C 463.575 2.32436 -0.222658 0
M  V30 4952 C 464.556 1.5723 0.649057 0
M  V30 4953 O 465.741 1.85324 0.580387 0
M  V30 4954 C 462.871 3.41469 0.633719 0
M  V30 4955 C 461.825 4.27774 -0.139083 0
M  V30 4956 C 461.151 5.28082 0.838666 0
M  V30 4957 C 462.451 5.04946 -1.33517 0
M  V30 4958 H 464.145 2.81094 -1.03086 0
M  V30 4959 H 461.691 1.35146 -0.497155 0
M  V30 4960 H 463.644 4.08143 1.04868 0
M  V30 4961 H 462.368 2.91408 1.47475 0
M  V30 4962 H 461.027 3.62673 -0.535156 0
M  V30 4963 H 460.675 4.7429 1.67506 0
M  V30 4964 H 460.375 5.86695 0.32594 0
M  V30 4965 H 461.899 5.97628 1.25194 0
M  V30 4966 H 463.313 5.64593 -0.995349 0
M  V30 4967 H 461.71 5.7303 -1.78202 0
M  V30 4968 H 462.78 4.35886 -2.12442 0
M  V30 4969 N 464.123 0.554532 1.47522 0
M  V30 4970 C 465.033 -0.197865 2.33764 0
M  V30 4971 C 466.049 -0.914576 1.48025 0
M  V30 4972 O 467.225 -0.884067 1.80959 0
M  V30 4973 C 464.29 -1.21628 3.24665 0
M  V30 4974 C 463.351 -0.507283 4.26292 0
M  V30 4975 C 462.584 -1.47718 5.1285 0
M  V30 4976 O 462.807 -2.7118 5.01814 0
M  V30 4977 O 461.741 -1.00313 5.93482 0
M  V30 4978 H 465.567 0.50949 2.99396 0
M  V30 4979 H 463.152 0.315176 1.46038 0
M  V30 4980 H 465.034 -1.80421 3.80823 0
M  V30 4981 H 463.709 -1.9056 2.61665 0
M  V30 4982 H 462.616 0.121778 3.73902 0
M  V30 4983 H 463.949 0.140544 4.91999 0
M  V30 4984 N 465.601 -1.54893 0.290851 0
M  V30 4985 C 466.511 -2.26812 -0.59945 0
M  V30 4986 C 467.527 -1.29963 -1.15696 0
M  V30 4987 O 468.703 -1.62928 -1.18391 0
M  V30 4988 C 465.768 -2.98716 -1.75982 0
M  V30 4989 C 464.829 -4.1108 -1.2374 0
M  V30 4990 C 464.062 -4.79546 -2.34246 0
M  V30 4991 O 464.285 -4.47309 -3.53936 0
M  V30 4992 O 463.219 -5.67165 -2.01512 0
M  V30 4993 H 467.045 -3.03696 -0.0163561 0
M  V30 4994 H 464.63 -1.49289 0.0576755 0
M  V30 4995 H 466.512 -3.43851 -2.43607 0
M  V30 4996 H 465.187 -2.24737 -2.3297 0
M  V30 4997 H 464.094 -3.70367 -0.527163 0
M  V30 4998 H 465.427 -4.87007 -0.71307 0
M  V30 4999 N 467.08 -0.0183926 -1.57589 0
M  V30 5000 C 468.03 0.975944 -2.06057 0
M  V30 5001 C 469.014 1.29204 -0.958908 0
M  V30 5002 O 470.206 1.27995 -1.22255 0
M  V30 5003 C 467.335 2.26194 -2.58247 0
M  V30 5004 C 466.421 1.97467 -3.75323 0
M  V30 5005 N 466.812 1.38968 -4.86335 0
M  V30 5006 C 465.11 2.27515 -3.83605 0
M  V30 5007 C 465.811 1.27131 -5.67638 0
M  V30 5008 N 464.787 1.76319 -5.14211 0
M  V30 5009 H 468.589 0.518444 -2.89291 0
M  V30 5010 H 466.103 0.18688 -1.61321 0
M  V30 5011 H 468.1 2.98289 -2.91255 0
M  V30 5012 H 466.76 2.7258 -1.76438 0
M  V30 5013 H 467.771 1.06608 -5.06809 0
M  V30 5014 H 464.448 2.76649 -3.12684 0
M  V30 5015 H 465.838 0.819882 -6.66879 0
M  V30 5016 N 468.558 1.5553 0.254621 0
M  V30 5017 C 469.788 1.80784 1.00004 0
M  V30 5018 C 470.196 0.59071 1.79742 0
M  V30 5019 O 469.539 -0.449988 1.78103 0
M  V30 5020 C 469.601 2.99268 1.99196 0
M  V30 5021 C 469.265 4.35595 1.38224 0
M  V30 5022 C 470.262 5.13884 0.788611 0
M  V30 5023 C 467.947 4.82281 1.40393 0
M  V30 5024 C 469.941 6.37004 0.224783 0
M  V30 5025 C 467.628 6.05351 0.836243 0
M  V30 5026 C 468.626 6.82551 0.24769 0
M  V30 5027 O 468.314 8.03297 -0.311249 0
M  V30 5028 H 468.046 0.60565 0.300274 0
M  V30 5029 H 470.6 2.03411 0.285143 0
M  V30 5030 H 468.83 2.72377 2.74496 0
M  V30 5031 H 470.519 3.11682 2.60018 0
M  V30 5032 H 471.285 4.78938 0.764423 0
M  V30 5033 H 467.164 4.22189 1.85142 0
M  V30 5034 H 470.708 6.97203 -0.235235 0
M  V30 5035 H 466.605 6.39776 0.857733 0
M  V30 5036 H 467.373 8.1825 -0.20237 0
M  V30 5037 N 470.036 -0.519951 1.48776 0
M  V30 5038 C 470.946 -1.65025 1.66745 0
M  V30 5039 C 471.962 -1.6508 0.549954 0
M  V30 5040 O 473.138 -1.83848 0.822295 0
M  V30 5041 C 470.203 -3.0146 1.71238 0
M  V30 5042 C 469.264 -3.12182 2.94688 0
M  V30 5043 C 468.497 -4.42109 2.98958 0
M  V30 5044 O 468.72 -5.29799 2.1135 0
M  V30 5045 O 467.654 -4.57406 3.91233 0
M  V30 5046 H 471.48 -1.52801 2.62461 0
M  V30 5047 H 469.065 -0.694157 1.32294 0
M  V30 5048 H 470.947 -3.82584 1.76657 0
M  V30 5049 H 469.622 -3.13988 0.786975 0
M  V30 5050 H 468.529 -2.30316 2.94797 0
M  V30 5051 H 469.862 -3.04574 3.86646 0
M  V30 5052 N 471.514 -1.37532 -0.769588 0
M  V30 5053 C 472.444 -1.36172 -1.89682 0
M  V30 5054 C 473.425 -0.23001 -1.68538 0
M  V30 5055 O 474.61 -0.43069 -1.89364 0
M  V30 5056 C 471.74 -1.1701 -3.26995 0
M  V30 5057 C 470.694 -2.27216 -3.62708 0
M  V30 5058 C 470.02 -1.93174 -4.98586 0
M  V30 5059 C 471.32 -3.6941 -3.69234 0
M  V30 5060 H 473.014 -2.30499 -1.91078 0
M  V30 5061 H 470.56 -1.10953 -0.917902 0
M  V30 5062 H 472.513 -1.14688 -4.05493 0
M  V30 5063 H 471.237 -0.191395 -3.26039 0
M  V30 5064 H 469.896 -2.28697 -2.86519 0
M  V30 5065 H 469.544 -0.938281 -4.94171 0
M  V30 5066 H 469.244 -2.66973 -5.23449 0
M  V30 5067 H 470.768 -1.92443 -5.79481 0
M  V30 5068 H 472.182 -3.70047 -4.37879 0
M  V30 5069 H 470.579 -4.4228 -4.05597 0
M  V30 5070 H 471.649 -4.0288 -2.69844 0
M  V30 5071 N 472.992 0.995999 -1.22138 0
M  V30 5072 C 474.408 1.25917 -0.980667 0
M  V30 5073 C 474.608 1.98819 0.327604 0
M  V30 5074 O 473.664 2.29587 1.05101 0
M  V30 5075 C 474.977 2.07399 -2.17729 0
M  V30 5076 C 476.525 2.20594 -2.22052 0
M  V30 5077 C 477 3.05462 -3.41258 0
M  V30 5078 N 478.491 3.13049 -3.41401 0
M  V30 5079 C 479.226 3.78997 -4.30289 0
M  V30 5080 N 478.722 4.46899 -5.2939 0
M  V30 5081 N 480.515 3.75728 -4.18073 0
M  V30 5082 H 472.666 0.507158 -2.06256 0
M  V30 5083 H 474.929 0.28658 -0.903646 0
M  V30 5084 H 474.635 1.61191 -3.12586 0
M  V30 5085 H 474.509 3.08154 -2.17534 0
M  V30 5086 H 476.896 2.66017 -1.27745 0
M  V30 5087 H 476.977 1.1928 -2.26287 0
M  V30 5088 H 476.621 2.60739 -4.35864 0
M  V30 5089 H 476.551 4.06911 -3.34262 0
M  V30 5090 H 479.042 2.64721 -2.69688 0
M  V30 5091 H 479.355 4.94952 -5.935 0
M  V30 5092 H 477.7 4.45657 -5.33306 0
M  V30 5093 H 480.891 3.2184 -3.39907 0
M  V30 5094 H 481.064 4.26845 -4.87553 0
M  V30 5095 N 474.47 1.03057 1.19235 0
M  V30 5096 C 475.695 0.74757 1.93458 0
M  V30 5097 C 476.12 -0.687648 1.7508 0
M  V30 5098 O 475.478 -1.47499 1.05422 0
M  V30 5099 C 475.526 1.10604 3.43219 0
M  V30 5100 O 474.63 0.225671 4.11782 0
M  V30 5101 H 473.971 0.276047 0.603899 0
M  V30 5102 H 476.501 1.3777 1.51263 0
M  V30 5103 H 476.511 1.06366 3.93891 0
M  V30 5104 H 475.186 2.15165 3.55917 0
M  V30 5105 H 473.763 0.326795 3.71465 0
M  V30 5106 N 475.948 -1.35272 0.808662 0
M  V30 5107 C 477.197 -1.97963 0.386483 0
M  V30 5108 C 477.51 -1.64866 -1.05255 0
M  V30 5109 O 478.716 -2.20937 -1.57794 0
M  V30 5110 C 477.172 -3.54162 0.640096 0
M  V30 5111 C 476.78 -3.96166 2.0918 0
M  V30 5112 C 478.524 -4.23553 0.283376 0
M  V30 5113 C 476.431 -5.4522 2.29106 0
M  V30 5114 H 475.361 -0.740742 0.140774 0
M  V30 5115 H 478.012 -1.5431 0.993012 0
M  V30 5116 H 476.394 -3.95983 -0.0364117 0
M  V30 5117 H 477.568 -3.65491 2.80629 0
M  V30 5118 H 475.883 -3.3967 2.40859 0
M  V30 5119 H 478.48 -5.33124 0.410273 0
M  V30 5120 H 478.823 -4.09105 -0.770659 0
M  V30 5121 H 479.356 -3.8716 0.913884 0
M  V30 5122 H 476.095 -5.64638 3.32962 0
M  V30 5123 H 475.615 -5.77457 1.62184 0
M  V30 5124 H 477.294 -6.1171 2.1076 0
M  V30 5125 N 477.426 -0.562348 -1.47226 0
M  V30 5126 C 478.356 0.170627 -2.32876 0
M  V30 5127 C 479.337 0.903748 -1.44106 0
M  V30 5128 O 480.522 0.883206 -1.72954 0
M  V30 5129 C 477.652 1.19786 -3.25989 0
M  V30 5130 C 476.606 0.580875 -4.2404 0
M  V30 5131 C 475.932 1.71311 -5.06514 0
M  V30 5132 C 477.232 -0.468714 -5.20193 0
M  V30 5133 H 478.926 -0.544441 -2.94408 0
M  V30 5134 H 476.472 -0.263271 -1.41573 0
M  V30 5135 H 478.425 1.71884 -3.84752 0
M  V30 5136 H 477.149 1.94294 -2.62521 0
M  V30 5137 H 475.808 0.0811538 -3.6651 0
M  V30 5138 H 475.456 2.44736 -4.39447 0
M  V30 5139 H 475.156 1.30604 -5.72902 0
M  V30 5140 H 476.68 2.23725 -5.68137 0
M  V30 5141 H 478.094 -0.0336028 -5.7329 0
M  V30 5142 H 476.491 -0.794957 -5.94811 0
M  V30 5143 H 477.561 -1.36269 -4.65359 0
M  V30 5144 N 478.904 1.54736 -0.299062 0
M  V30 5145 C 480.32 1.59507 0.0543849 0
M  V30 5146 C 480.52 1.31606 1.52585 0
M  V30 5147 O 479.576 1.08853 2.27832 0
M  V30 5148 C 480.889 2.98751 -0.34181 0
M  V30 5149 C 482.437 3.1165 -0.290414 0
M  V30 5150 C 482.912 4.53199 -0.661402 0
M  V30 5151 N 484.403 4.59114 -0.613863 0
M  V30 5152 C 485.138 5.66709 -0.873417 0
M  V30 5153 N 484.634 6.82349 -1.19884 0
M  V30 5154 N 486.427 5.56369 -0.800608 0
M  V30 5155 H 478.578 1.71133 -1.25806 0
M  V30 5156 H 480.841 0.799186 -0.509908 0
M  V30 5157 H 480.547 3.24085 -1.36608 0
M  V30 5158 H 480.421 3.75961 0.305508 0
M  V30 5159 H 482.808 2.86066 0.724605 0
M  V30 5160 H 482.889 2.366 -0.972327 0
M  V30 5161 H 482.533 4.79513 -1.67422 0
M  V30 5162 H 482.463 5.26583 0.0425612 0
M  V30 5163 H 484.954 3.76053 -0.3732 0
M  V30 5164 H 485.267 7.60326 -1.38291 0
M  V30 5165 H 483.612 6.83906 -1.23685 0
M  V30 5166 H 486.803 4.64904 -0.546045 0
M  V30 5167 H 486.976 6.40139 -1.00626 0
M  V30 5168 N 480.382 0.0267497 1.57577 0
M  V30 5169 C 481.607 -0.666227 1.96408 0
M  V30 5170 C 482.032 -1.65004 0.903071 0
M  V30 5171 O 481.39 -1.80787 -0.136263 0
M  V30 5172 C 481.438 -1.35101 3.34335 0
M  V30 5173 O 480.542 -2.46623 3.30531 0
M  V30 5174 H 479.883 -0.175206 0.640468 0
M  V30 5175 H 482.413 0.0878977 2.04411 0
M  V30 5176 H 482.423 -1.70834 3.70513 0
M  V30 5177 H 481.098 -0.629844 4.11103 0
M  V30 5178 H 479.675 -2.13019 3.06068 0
M  V30 5179 N 481.861 -1.55662 -0.24637 0
M  V30 5180 C 482.794 -1.85332 -1.33143 0
M  V30 5181 C 483.772 -0.708464 -1.46354 0
M  V30 5182 O 484.956 -0.954274 -1.6256 0
M  V30 5183 C 482.083 -2.0385 -2.70487 0
M  V30 5184 C 481.129 -3.26488 -2.74423 0
M  V30 5185 S 481.962 -4.83124 -2.30979 0
M  V30 5186 C 483.118 -5.04647 -3.70246 0
M  V30 5187 H 483.351 -2.77077 -1.07777 0
M  V30 5188 H 480.884 -1.47776 -0.44738 0
M  V30 5189 H 482.842 -2.15202 -3.49569 0
M  V30 5190 H 481.503 -1.12947 -2.9309 0
M  V30 5191 H 480.696 -3.36413 -3.7529 0
M  V30 5192 H 480.298 -3.13864 -2.03385 0
M  V30 5193 H 482.59 -4.92023 -4.65746 0
M  V30 5194 H 483.533 -6.06625 -3.65255 0
M  V30 5195 H 483.941 -4.32491 -3.62784 0
M  V30 5196 N 483.339 0.512053 -1.4905 0
M  V30 5197 C 484.587 1.26436 -1.57665 0
M  V30 5198 C 484.908 1.93255 -0.260293 0
M  V30 5199 O 484.178 1.82206 0.719564 0
M  V30 5200 H 482.758 0.469658 -0.580888 0
M  V30 5201 H 485.42 0.594398 -1.85615 0
M  V30 5202 H 484.516 2.03417 -2.36702 0
M  V30 5203 N 484.817 1.37938 0.762283 0
M  V30 5204 C 485.75 1.2884 1.88349 0
M  V30 5205 C 486.728 0.167084 1.61739 0
M  V30 5206 O 487.912 0.34292 1.85355 0
M  V30 5207 C 485.039 0.994257 3.23778 0
M  V30 5208 C 484.085 2.13376 3.69287 0
M  V30 5209 S 484.918 3.75439 3.81845 0
M  V30 5210 C 486.074 3.48195 5.20107 0
M  V30 5211 H 486.307 2.23736 1.95779 0
M  V30 5212 H 483.84 1.23672 0.924368 0
M  V30 5213 H 485.798 0.83138 4.01993 0
M  V30 5214 H 484.459 0.0626251 3.14038 0
M  V30 5215 H 483.652 1.88319 4.67495 0
M  V30 5216 H 483.254 2.25726 2.98201 0
M  V30 5217 H 485.546 3.0377 6.05583 0
M  V30 5218 H 486.489 4.45765 5.50181 0
M  V30 5219 H 486.897 2.82905 4.88493 0
M  V30 5220 N 486.295 -0.989507 1.22664 0
M  V30 5221 C 487.205 -2.11449 1.01619 0
M  V30 5222 C 488.221 -1.73962 -0.036545 0
M  V30 5223 O 489.397 -2.00788 0.156924 0
M  V30 5224 C 486.462 -3.41465 0.600204 0
M  V30 5225 C 485.523 -3.93033 1.72695 0
M  V30 5226 C 484.756 -5.16844 1.33071 0
M  V30 5227 O 484.979 -5.7001 0.210975 0
M  V30 5228 O 483.913 -5.6225 2.14845 0
M  V30 5229 H 487.739 -2.32088 1.9588 0
M  V30 5230 H 485.324 -1.09823 1.01289 0
M  V30 5231 H 487.206 -4.19695 0.37873 0
M  V30 5232 H 485.881 -3.22178 -0.313511 0
M  V30 5233 H 484.788 -3.15961 2.00298 0
M  V30 5234 H 486.121 -4.16758 2.61865 0
M  V30 5235 N 487.773 -1.03688 -1.18687 0
M  V30 5236 C 489.05 -0.652397 -1.84399 0
M  V30 5237 C 489.43 0.868386 -1.92412 0
M  V30 5238 O 488.778 1.76832 -1.44716 0
M  V30 5239 C 488.988 -1.3238 -3.22919 0
M  V30 5240 C 490.336 -1.45216 -3.98996 0
M  V30 5241 O 491.36 -1.2816 -3.32345 0
M  V30 5242 O 490.219 -1.72975 -5.18403 0
M  V30 5243 H 487.313 -0.227793 -0.795009 0
M  V30 5244 H 489.859 -1.13553 -1.2611 0
M  V30 5245 H 488.631 -2.36202 -3.11968 0
M  V30 5246 H 488.254 -0.829039 -3.88861 0
M  V30 5247 N 489.251 1.34841 -0.815825 0
M  V30 5248 C 490.214 2.27959 -0.238185 0
M  V30 5249 C 491.214 1.49983 0.579816 0
M  V30 5250 O 492.404 1.69617 0.396953 0
M  V30 5251 C 489.536 3.34314 0.666876 0
M  V30 5252 H 490.729 2.80558 -1.05958 0
M  V30 5253 H 488.282 1.44852 -0.587156 0
M  V30 5254 H 489.017 2.86916 1.5116 0
M  V30 5255 H 488.802 3.92014 0.0819106 0
M  V30 5256 H 490.292 4.0379 1.06506 0
M  V30 5257 N 490.729 0.570148 1.46925 0
M  V30 5258 C 491.976 0.0509529 2.02436 0
M  V30 5259 C 492.304 -1.30405 1.44308 0
M  V30 5260 O 491.559 -1.86493 0.593198 0
M  V30 5261 C 491.858 -0.0780336 3.57315 0
M  V30 5262 C 491.524 1.20775 4.34424 0
M  V30 5263 C 490.186 1.56004 4.5521 0
M  V30 5264 C 492.538 2.0592 4.78797 0
M  V30 5265 C 489.866 2.76201 5.17619 0
M  V30 5266 C 492.218 3.25332 5.42533 0
M  V30 5267 C 490.882 3.60859 5.61549 0
M  V30 5268 H 490.152 0.018645 0.740765 0
M  V30 5269 H 492.799 0.744262 1.76445 0
M  V30 5270 H 491.104 -0.854394 3.82371 0
M  V30 5271 H 492.801 -0.495312 3.97929 0
M  V30 5272 H 489.391 0.923469 4.18533 0
M  V30 5273 H 493.575 1.80008 4.62505 0
M  V30 5274 H 488.831 3.0388 5.30535 0
M  V30 5275 H 493.005 3.91586 5.75876 0
M  V30 5276 H 490.632 4.54088 6.09678 0
M  V30 5277 N 492.207 -1.54576 0.307264 0
M  V30 5278 C 493.155 -2.25208 -0.581723 0
M  V30 5279 C 494.149 -1.26031 -1.13192 0
M  V30 5280 O 495.355 -1.43862 -1.08184 0
M  V30 5281 H 491.73 -0.723173 -0.206214 0
M  V30 5282 H 493.701 -2.98378 0.0364663 0
M  V30 5283 C 492.45 -3.01086 -1.73904 0
M  V30 5284 H 491.773 -3.77208 -1.32491 0
M  V30 5285 H 493.213 -3.5378 -2.33701 0
M  V30 5286 C 491.672 -2.08422 -2.64692 0
M  V30 5287 O 492.202 -1.65636 -3.65961 0
M  V30 5288 N 490.408 -1.74247 -2.32564 0
M  V30 5289 H 489.955 -2.09238 -1.50257 0
M  V30 5290 H 489.913 -1.12524 -2.93574 0
M  V30 5291 N 493.685 -0.035106 -1.57561 0
M  V30 5292 C 494.632 0.94474 -2.10578 0
M  V30 5293 C 495.602 1.3192 -1.00927 0
M  V30 5294 O 496.787 1.41147 -1.28382 0
M  V30 5295 C 493.927 2.21982 -2.64231 0
M  V30 5296 C 493.04 1.90128 -3.87911 0
M  V30 5297 C 492.175 3.11975 -4.29936 0
M  V30 5298 C 491.214 2.75968 -5.46359 0
M  V30 5299 N 490.351 3.90459 -5.83512 0
M  V30 5300 H 495.191 0.485717 -2.94015 0
M  V30 5301 H 492.728 0.228143 -1.4532 0
M  V30 5302 H 494.686 2.96572 -2.9343 0
M  V30 5303 H 493.316 2.6549 -1.83616 0
M  V30 5304 H 492.368 1.05755 -3.65404 0
M  V30 5305 H 493.68 1.59613 -4.72573 0
M  V30 5306 H 492.834 3.9488 -4.60603 0
M  V30 5307 H 491.573 3.45657 -3.44053 0
M  V30 5308 H 490.578 1.91478 -5.1538 0
M  V30 5309 H 491.803 2.43497 -6.33945 0
M  V30 5310 H 489.749 4.23971 -5.00584 0
M  V30 5311 H 489.666 3.63588 -6.62827 0
M  V30 5312 H 490.934 4.7405 -6.18787 0
M  V30 5313 N 495.163 1.55791 0.238111 0
M  V30 5314 C 496.411 1.77681 0.963001 0
M  V30 5315 C 496.732 0.600674 1.85518 0
M  V30 5316 O 496.002 -0.383182 1.92116 0
M  V30 5317 H 494.582 0.655315 0.358568 0
M  V30 5318 H 497.244 1.93239 0.253945 0
M  V30 5319 H 496.34 2.69177 1.57956 0
M  V30 5320 N 496.642 -0.504142 1.49319 0
M  V30 5321 C 498.058 -0.835039 1.36012 0
M  V30 5322 C 498.258 -1.97674 0.390808 0
M  V30 5323 O 497.314 -2.51867 -0.178655 0
M  V30 5324 C 498.627 -1.17821 2.76656 0
M  V30 5325 C 500.175 -1.2866 2.85334 0
M  V30 5326 C 500.65 -1.66307 4.26739 0
M  V30 5327 N 502.141 -1.73362 4.29534 0
M  V30 5328 C 502.876 -2.0393 5.35911 0
M  V30 5329 N 502.372 -2.32744 6.52535 0
M  V30 5330 N 504.165 -2.05155 5.23324 0
M  V30 5331 H 496.316 0.248764 2.10938 0
M  V30 5332 H 498.579 0.0486962 0.946748 0
M  V30 5333 H 498.285 -0.412682 3.4927 0
M  V30 5334 H 498.159 -2.12239 3.11825 0
M  V30 5335 H 500.546 -2.04285 2.1296 0
M  V30 5336 H 500.627 -0.323004 2.53752 0
M  V30 5337 H 500.271 -0.91234 4.99639 0
M  V30 5338 H 500.201 -2.63761 4.55782 0
M  V30 5339 H 502.692 -1.53268 3.45424 0
M  V30 5340 H 503.005 -2.55248 7.2943 0
M  V30 5341 H 501.35 -2.30207 6.55767 0
M  V30 5342 H 504.541 -1.82119 4.3122 0
M  V30 5343 H 504.714 -2.28644 6.06322 0
M  V30 5344 N 498.12 -1.38341 -0.754957 0
M  V30 5345 C 499.083 -1.35262 -1.85032 0
M  V30 5346 C 500.083 -0.253393 -1.58791 0
M  V30 5347 O 501.273 -0.510205 -1.66561 0
M  V30 5348 C 498.405 -1.10544 -3.22479 0
M  V30 5349 H 499.598 -2.32712 -1.8917 0
M  V30 5350 H 497.151 -1.23614 -0.956515 0
M  V30 5351 H 497.886 -0.136952 -3.24011 0
M  V30 5352 H 497.671 -1.90127 -3.4292 0
M  V30 5353 H 499.161 -1.11082 -4.02555 0
M  V30 5354 N 499.598 0.982988 -1.23187 0
M  V30 5355 C 500.546 2.09616 -1.00817 0
M  V30 5356 C 501.54 1.6932 0.0519995 0
M  V30 5357 O 502.746 1.79715 -0.101284 0
M  V30 5358 H 499.121 0.685628 -0.308899 0
M  V30 5359 H 501.092 2.25652 -1.95253 0
M  V30 5360 C 499.841 3.42249 -0.613243 0
M  V30 5361 H 499.164 3.73705 -1.42073 0
M  V30 5362 H 500.604 4.21086 -0.496208 0
M  V30 5363 C 499.063 3.30002 0.678233 0
M  V30 5364 O 499.593 3.6263 1.72807 0
M  V30 5365 N 497.799 2.83164 0.653165 0
M  V30 5366 H 497.346 2.56811 -0.201492 0
M  V30 5367 H 497.304 2.75352 1.51752 0
M  V30 5368 N 501.076 1.04316 1.18135 0
M  V30 5369 C 502.323 0.74802 1.88178 0
M  V30 5370 C 502.651 -0.72441 1.80506 0
M  V30 5371 O 501.906 -1.54463 1.20165 0
M  V30 5372 C 502.205 1.16271 3.37958 0
M  V30 5373 C 501.871 2.63585 3.65833 0
M  V30 5374 C 500.533 3.03829 3.73151 0
M  V30 5375 C 502.885 3.58822 3.78016 0
M  V30 5376 C 500.213 4.38194 3.90132 0
M  V30 5377 C 502.565 4.92909 3.96514 0
M  V30 5378 C 501.229 5.3282 4.02068 0
M  V30 5379 H 500.499 0.27372 0.688592 0
M  V30 5380 H 503.146 1.30863 1.39811 0
M  V30 5381 H 501.451 0.520938 3.88321 0
M  V30 5382 H 503.148 0.911672 3.90499 0
M  V30 5383 H 499.738 2.31414 3.60757 0
M  V30 5384 H 503.922 3.28875 3.71692 0
M  V30 5385 H 499.178 4.68631 3.92677 0
M  V30 5386 H 503.352 5.66606 4.04883 0
M  V30 5387 H 500.979 6.36943 4.14979 0
M  V30 5388 N 502.554 -1.34406 0.822964 0
M  V30 5389 C 503.779 -2.0304 0.423034 0
M  V30 5390 C 504.204 -1.61568 -0.963196 0
M  V30 5391 O 503.562 -0.800339 -1.62678 0
M  V30 5392 C 503.61 -3.56636 0.53321 0
M  V30 5393 O 502.714 -4.09971 -0.446939 0
M  V30 5394 H 502.055 -0.64075 0.174171 0
M  V30 5395 H 504.585 -1.71653 1.11339 0
M  V30 5396 H 504.595 -4.05945 0.408991 0
M  V30 5397 H 503.27 -3.86168 1.54425 0
M  V30 5398 H 501.847 -3.71835 -0.281601 0
M  V30 5399 N 504.032 -0.577932 -1.46621 0
M  V30 5400 C 505.28 -0.061566 -2.02006 0
M  V30 5401 C 505.601 1.30117 -1.4524 0
M  V30 5402 O 504.871 1.85313 -0.63529 0
M  V30 5403 H 503.451 -0.0197692 -0.746738 0
M  V30 5404 H 506.113 -0.752631 -1.79782 0
M  V30 5405 H 505.209 0.0110238 -3.12098 0
M  V30 5406 N 505.51 1.54411 -0.315457 0
M  V30 5407 C 506.443 2.20265 0.596522 0
M  V30 5408 C 507.421 1.17693 1.12192 0
M  V30 5409 O 508.605 1.46397 1.18744 0
M  V30 5410 C 505.732 2.85794 1.81767 0
M  V30 5411 C 504.778 4.02017 1.42424 0
M  V30 5412 S 505.611 5.33452 0.467836 0
M  V30 5413 C 506.767 6.02471 1.69645 0
M  V30 5414 H 507 2.97277 0.0370896 0
M  V30 5415 H 504.533 1.54079 -0.0995562 0
M  V30 5416 H 506.491 3.24172 2.51839 0
M  V30 5417 H 505.152 2.08601 2.34828 0
M  V30 5418 H 504.345 4.46701 2.33396 0
M  V30 5419 H 503.947 3.65271 0.803311 0
M  V30 5420 H 506.239 6.24157 2.63504 0
M  V30 5421 H 507.182 6.96215 1.29192 0
M  V30 5422 H 507.59 5.32284 1.87974 0
M  V30 5423 N 506.988 0.0434614 1.5754 0
M  V30 5424 C 508.213 -0.645358 1.97104 0
M  V30 5425 C 508.638 -1.64037 0.920521 0
M  V30 5426 O 507.996 -1.80922 -0.11708 0
M  V30 5427 C 508.044 -1.31547 3.35749 0
M  V30 5428 O 507.148 -2.43103 3.33129 0
M  V30 5429 H 506.489 -0.168403 0.64229 0
M  V30 5430 H 509.019 0.109573 2.04306 0
M  V30 5431 H 509.029 -1.66895 3.72304 0
M  V30 5432 H 507.704 -0.586205 4.11748 0
M  V30 5433 H 506.281 -2.0976 3.0831 0
M  V30 5434 N 508.466 -1.55915 -0.229846 0
M  V30 5435 C 509.376 -1.94891 -1.30593 0
M  V30 5436 C 510.392 -0.851604 -1.51736 0
M  V30 5437 O 511.568 -1.15447 -1.65027 0
M  V30 5438 C 508.633 -2.25052 -2.63728 0
M  V30 5439 C 507.694 -3.48306 -2.5096 0
M  V30 5440 C 506.927 -3.77019 -3.77747 0
M  V30 5441 O 507.15 -3.07534 -4.80395 0
M  V30 5442 O 506.084 -4.70523 -3.75356 0
M  V30 5443 H 509.91 -2.86581 -1.00525 0
M  V30 5444 H 507.495 -1.43017 -0.432025 0
M  V30 5445 H 509.377 -2.45682 -3.42372 0
M  V30 5446 H 508.052 -1.36538 -2.93495 0
M  V30 5447 H 506.959 -3.32964 -1.70546 0
M  V30 5448 H 508.292 -4.37177 -2.26136 0
M  V30 5449 N 509.944 0.496216 -1.49584 0
M  V30 5450 C 511.36 0.827814 -1.36453 0
M  V30 5451 C 511.56 1.97464 -0.401285 0
M  V30 5452 O 510.616 2.51958 0.165296 0
M  V30 5453 C 511.929 1.16352 -2.77277 0
M  V30 5454 C 513.477 1.27145 -2.86013 0
M  V30 5455 C 513.952 1.64042 -4.27615 0
M  V30 5456 N 515.443 1.71082 -4.30448 0
M  V30 5457 C 516.178 2.01085 -5.36984 0
M  V30 5458 N 515.674 2.2928 -6.5376 0
M  V30 5459 N 517.467 2.02376 -5.24405 0
M  V30 5460 H 509.618 -0.259947 -2.10803 0
M  V30 5461 H 511.881 -0.0537163 -0.946477 0
M  V30 5462 H 511.587 0.394153 -3.49484 0
M  V30 5463 H 511.461 2.10582 -3.12946 0
M  V30 5464 H 513.848 2.03152 -2.1404 0
M  V30 5465 H 513.929 0.309542 -2.5392 0
M  V30 5466 H 513.573 0.88583 -5.00115 0
M  V30 5467 H 513.503 2.6134 -4.57175 0
M  V30 5468 H 515.994 1.51434 -3.46232 0
M  V30 5469 H 516.307 2.51376 -7.30774 0
M  V30 5470 H 514.652 2.26726 -6.56978 0
M  V30 5471 H 517.843 1.79829 -4.32179 0
M  V30 5472 H 518.016 2.25425 -6.07526 0
M  V30 5473 N 511.423 1.38739 0.74761 0
M  V30 5474 C 512.371 1.36573 1.88283 0
M  V30 5475 C 513.365 0.250712 1.67534 0
M  V30 5476 O 514.571 0.420073 1.7503 0
M  V30 5477 H 510.946 0.42619 0.619569 0
M  V30 5478 H 512.917 2.32356 1.87226 0
M  V30 5479 C 511.666 1.21361 3.25832 0
M  V30 5480 H 510.989 2.06424 3.42388 0
M  V30 5481 H 512.429 1.23901 4.05493 0
M  V30 5482 C 510.888 -0.0790099 3.36807 0
M  V30 5483 O 511.418 -1.05385 3.8763 0
M  V30 5484 N 509.624 -0.13785 2.90273 0
M  V30 5485 H 509.171 0.656128 2.49104 0
M  V30 5486 H 509.129 -1.00228 2.97996 0
M  V30 5487 N 512.901 -0.976442 1.23707 0
M  V30 5488 C 514.178 -1.69296 0.979699 0
M  V30 5489 C 514.558 -2.0508 -0.500555 0
M  V30 5490 O 513.906 -1.74708 -1.47273 0
M  V30 5491 C 514.116 -2.93143 1.89389 0
M  V30 5492 C 515.464 -3.65572 2.15968 0
M  V30 5493 O 516.488 -3.03184 1.86971 0
M  V30 5494 O 515.347 -4.77859 2.65167 0
M  V30 5495 H 512.441 -0.739708 0.369812 0
M  V30 5496 H 514.987 -1.03131 1.34767 0
M  V30 5497 H 513.759 -2.63327 2.89439 0
M  V30 5498 H 513.382 -3.67044 1.52854 0
M  V30 5499 N 514.379 -1.04941 -1.1758 0
M  V30 5500 C 515.309 -0.669172 -2.23706 0
M  V30 5501 C 516.29 0.331835 -1.66832 0
M  V30 5502 O 517.475 0.209988 -1.93061 0
M  V30 5503 C 514.605 -0.0404889 -3.47276 0
M  V30 5504 C 513.559 -0.965983 -4.16957 0
M  V30 5505 C 512.885 -0.201312 -5.34321 0
M  V30 5506 C 514.185 -2.28902 -4.69469 0
M  V30 5507 H 515.879 -1.55639 -2.55767 0
M  V30 5508 H 513.425 -0.749793 -1.22939 0
M  V30 5509 H 515.378 0.237298 -4.20731 0
M  V30 5510 H 514.102 0.881658 -3.14475 0
M  V30 5511 H 512.761 -1.22829 -3.45411 0
M  V30 5512 H 512.409 0.723519 -4.97769 0
M  V30 5513 H 512.109 -0.817968 -5.81879 0
M  V30 5514 H 513.633 0.0692499 -6.10561 0
M  V30 5515 H 515.047 -2.07132 -5.34574 0
M  V30 5516 H 513.444 -2.85942 -5.27596 0
M  V30 5517 H 514.514 -2.92937 -3.86414 0
M  V30 5518 N 515.857 1.33968 -0.830081 0
M  V30 5519 C 517.104 1.98063 -0.421566 0
M  V30 5520 C 517.432 1.65787 1.0171 0
M  V30 5521 O 516.687 0.925348 1.72441 0
M  V30 5522 C 516.986 3.52679 -0.57898 0
M  V30 5523 C 516.652 4.04884 -1.98443 0
M  V30 5524 C 515.314 4.18852 -2.36888 0
M  V30 5525 C 517.666 4.32879 -2.90285 0
M  V30 5526 C 514.994 4.58145 -3.66497 0
M  V30 5527 C 517.346 4.7362 -4.19364 0
M  V30 5528 C 516.01 4.85794 -4.57778 0
M  V30 5529 H 515.28 0.724765 -0.154262 0
M  V30 5530 H 517.927 1.59792 -1.05541 0
M  V30 5531 H 516.232 3.91556 0.138219 0
M  V30 5532 H 517.929 4.00261 -0.243317 0
M  V30 5533 H 514.519 3.9448 -1.67581 0
M  V30 5534 H 518.703 4.21619 -2.61823 0
M  V30 5535 H 513.959 4.65762 -3.96075 0
M  V30 5536 H 518.133 4.9424 -4.90612 0
M  V30 5537 H 515.76 5.15998 -5.58256 0
M  V30 5538 N 517.335 0.585699 1.46312 0
M  V30 5539 C 518.265 -0.133556 2.33118 0
M  V30 5540 C 519.246 -0.880707 1.45525 0
M  V30 5541 O 520.431 -0.855579 1.74337 0
M  V30 5542 C 517.561 -1.14585 3.27853 0
M  V30 5543 C 516.515 -0.513341 4.2491 0
M  V30 5544 C 515.841 -1.63231 5.09175 0
M  V30 5545 C 517.141 0.551413 5.19381 0
M  V30 5546 H 518.835 0.59121 2.93505 0
M  V30 5547 H 516.381 0.285761 1.41136 0
M  V30 5548 H 518.334 -1.65741 3.87438 0
M  V30 5549 H 517.058 -1.90093 2.65579 0
M  V30 5550 H 515.717 -0.0228349 3.66593 0
M  V30 5551 H 515.365 -2.37713 4.43285 0
M  V30 5552 H 515.065 -1.21473 5.74907 0
M  V30 5553 H 516.589 -2.14658 5.71624 0
M  V30 5554 H 518.003 0.124804 5.73164 0
M  V30 5555 H 516.4 0.889486 5.93471 0
M  V30 5556 H 517.47 1.43655 4.63132 0
M  V30 5557 N 518.813 -1.54241 0.323641 0
M  V30 5558 C 520.038 -2.05452 -0.283605 0
M  V30 5559 C 520.463 -1.19823 -1.44997 0
M  V30 5560 O 519.821 -0.207358 -1.8011 0
M  V30 5561 C 519.869 -3.53823 -0.695795 0
M  V30 5562 O 518.973 -3.71134 -1.79815 0
M  V30 5563 H 518.314 -0.662024 -0.0511917 0
M  V30 5564 H 520.844 -1.99079 0.472073 0
M  V30 5565 H 520.854 -3.96094 -0.978434 0
M  V30 5566 H 519.529 -4.15602 0.157287 0
M  V30 5567 H 518.106 -3.40768 -1.51431 0
M  V30 5568 N 520.291 -0.0518155 -1.57515 0
M  V30 5569 C 521.201 0.937539 -2.15052 0
M  V30 5570 C 522.217 1.34121 -1.10849 0
M  V30 5571 O 523.393 1.418 -1.4302 0
M  V30 5572 C 520.458 2.19379 -2.68466 0
M  V30 5573 C 519.519 1.84841 -3.87469 0
M  V30 5574 C 518.752 3.04477 -4.38326 0
M  V30 5575 O 518.975 4.17868 -3.88256 0
M  V30 5576 O 517.909 2.85453 -5.29906 0
M  V30 5577 H 521.735 0.478201 -2.99912 0
M  V30 5578 H 519.32 0.17012 -1.48428 0
M  V30 5579 H 521.202 2.93084 -3.02787 0
M  V30 5580 H 519.877 2.64449 -1.86677 0
M  V30 5581 H 518.784 1.08449 -3.58036 0
M  V30 5582 H 520.117 1.44569 -4.7049 0
M  V30 5583 N 521.769 1.56035 0.221574 0
M  V30 5584 C 523.015 1.79312 0.947372 0
M  V30 5585 C 523.348 0.621453 1.83988 0
M  V30 5586 O 522.623 -0.379287 1.90766 0
M  V30 5587 C 522.906 3.1267 1.78633 0
M  V30 5588 C 522.759 4.40284 0.920312 0
M  V30 5589 C 524.078 3.4247 2.7641 0
M  V30 5590 H 521.197 0.652328 0.342982 0
M  V30 5591 H 523.839 1.88765 0.216244 0
M  V30 5592 H 521.989 3.04741 2.40967 0
M  V30 5593 H 523.661 4.60232 0.313718 0
M  V30 5594 H 521.904 4.33212 0.225734 0
M  V30 5595 H 522.575 5.30033 1.54171 0
M  V30 5596 H 525.051 3.50526 2.24211 0
M  V30 5597 H 523.927 4.3695 3.32213 0
M  V30 5598 H 524.188 2.64635 3.54148 0
M  V30 5599 N 523.247 -0.488276 1.49845 0
M  V30 5600 C 524.494 -1.24157 1.59973 0
M  V30 5601 C 524.822 -1.92293 0.292182 0
M  V30 5602 O 524.077 -1.81942 -0.720813 0
M  V30 5603 C 524.376 -2.32152 2.71735 0
M  V30 5604 C 524.042 -1.81387 4.12807 0
M  V30 5605 C 522.704 -1.67262 4.51195 0
M  V30 5606 C 525.056 -1.43537 5.01045 0
M  V30 5607 C 522.384 -1.13685 5.7558 0
M  V30 5608 C 524.736 -0.914081 6.25961 0
M  V30 5609 C 523.4 -0.759327 6.63167 0
M  V30 5610 H 522.67 -0.454322 0.585383 0
M  V30 5611 H 525.317 -0.540261 1.83721 0
M  V30 5612 H 523.622 -3.08122 2.42008 0
M  V30 5613 H 525.319 -2.90164 2.76778 0
M  V30 5614 H 521.909 -1.93344 3.82513 0
M  V30 5615 H 526.093 -1.53292 4.72033 0
M  V30 5616 H 521.349 -1.00426 6.03096 0
M  V30 5617 H 525.523 -0.612066 6.93705 0
M  V30 5618 H 523.15 -0.342002 7.5943 0
M  V30 5619 N 524.725 -1.39134 -0.740242 0
M  V30 5620 C 525.675 -1.33928 -1.84519 0
M  V30 5621 C 526.659 -0.221097 -1.59374 0
M  V30 5622 O 527.851 -0.458195 -1.70967 0
M  V30 5623 C 524.98 -1.17991 -3.22387 0
M  V30 5624 C 524.066 -2.34488 -3.53378 0
M  V30 5625 N 524.457 -3.59954 -3.5534 0
M  V30 5626 C 522.755 -2.27331 -3.83714 0
M  V30 5627 C 523.456 -4.36962 -3.83978 0
M  V30 5628 N 522.432 -3.66482 -4.01487 0
M  V30 5629 H 526.234 -2.28907 -1.84333 0
M  V30 5630 H 523.748 -1.32555 -0.938237 0
M  V30 5631 H 525.745 -1.12345 -4.01478 0
M  V30 5632 H 524.405 -0.23957 -3.23815 0
M  V30 5633 H 525.416 -3.93448 -3.36778 0
M  V30 5634 H 522.093 -1.41531 -3.92779 0
M  V30 5635 H 523.483 -5.45692 -3.92008 0
M  V30 5636 N 526.204 0.969867 -1.24223 0
M  V30 5637 C 527.136 2.0669 -0.99055 0
M  V30 5638 C 528.149 1.62753 0.0392222 0
M  V30 5639 O 529.338 1.77403 -0.197561 0
M  V30 5640 C 526.438 3.35589 -0.472594 0
M  V30 5641 C 525.611 4.08444 -1.56499 0
M  V30 5642 C 524.67 5.15616 -1.05007 0
M  V30 5643 O 523.696 5.41911 -1.7413 0
M  V30 5644 N 524.898 5.80383 0.116641 0
M  V30 5645 H 527.663 2.28855 -1.93508 0
M  V30 5646 H 525.224 1.13733 -1.15223 0
M  V30 5647 H 527.216 4.04542 -0.112919 0
M  V30 5648 H 525.786 3.10311 0.377617 0
M  V30 5649 H 525.006 3.33798 -2.09696 0
M  V30 5650 H 526.294 4.53882 -2.29932 0
M  V30 5651 H 525.692 5.6142 0.694589 0
M  V30 5652 H 524.249 6.50462 0.417483 0
M  V30 5653 N 527.682 1.05563 1.17022 0
M  V30 5654 C 528.645 0.664098 2.19368 0
M  V30 5655 C 529.645 -0.286358 1.5823 0
M  V30 5656 O 530.835 -0.069728 1.7406 0
M  V30 5657 C 527.967 -0.0239932 3.40892 0
M  V30 5658 H 529.16 1.57 2.55521 0
M  V30 5659 H 526.713 0.849964 1.31169 0
M  V30 5660 H 527.448 -0.942988 3.10287 0
M  V30 5661 H 527.233 0.659351 3.86516 0
M  V30 5662 H 528.723 -0.283909 4.16634 0
M  V30 5663 N 529.16 -1.33526 0.837174 0
M  V30 5664 C 530.093 -2.27192 0.214233 0
M  V30 5665 C 531.071 -1.49575 -0.637657 0
M  V30 5666 O 532.255 -1.78753 -0.598291 0
M  V30 5667 C 529.382 -3.31401 -0.699367 0
M  V30 5668 C 528.428 -4.26431 0.0768429 0
M  V30 5669 S 529.261 -5.15954 1.4336 0
M  V30 5670 C 530.417 -6.23692 0.525251 0
M  V30 5671 H 530.65 -2.79679 1.00831 0
M  V30 5672 H 528.183 -1.4079 0.633834 0
M  V30 5673 H 530.141 -3.91924 -1.22088 0
M  V30 5674 H 528.802 -2.77732 -1.46709 0
M  V30 5675 H 527.995 -5.00193 -0.618268 0
M  V30 5676 H 527.597 -3.70235 0.529364 0
M  V30 5677 H 529.889 -6.76931 -0.277575 0
M  V30 5678 H 530.832 -6.97283 1.23299 0
M  V30 5679 H 531.24 -5.64398 0.107351 0
M  V30 5680 N 530.638 -0.59345 -1.46 0
M  V30 5681 C 531.884 -0.0832754 -2.02629 0
M  V30 5682 C 532.217 1.27749 -1.46266 0
M  V30 5683 O 531.492 1.8395 -0.631866 0
M  V30 5684 C 531.775 -0.0290756 -3.60088 0
M  V30 5685 C 531.628 -1.41951 -4.26814 0
M  V30 5686 C 532.947 0.666055 -4.35031 0
M  V30 5687 H 530.066 -0.031736 -0.736316 0
M  V30 5688 H 532.708 -0.762711 -1.74019 0
M  V30 5689 H 530.858 0.549532 -3.84594 0
M  V30 5690 H 532.53 -2.04411 -4.13538 0
M  V30 5691 H 530.773 -1.98422 -3.8576 0
M  V30 5692 H 531.444 -1.33395 -5.3564 0
M  V30 5693 H 533.92 0.174401 -4.15734 0
M  V30 5694 H 532.796 0.673041 -5.44758 0
M  V30 5695 H 533.057 1.72946 -4.06869 0
M  V30 5696 N 532.116 1.54067 -0.331816 0
M  V30 5697 C 533.393 1.92915 0.322955 0
M  V30 5698 C 533.773 1.26225 1.69205 0
M  V30 5699 O 533.121 0.408919 2.24811 0
M  V30 5700 C 533.331 3.46619 0.406946 0
M  V30 5701 C 534.679 4.19386 0.663339 0
M  V30 5702 O 535.703 3.5282 0.489536 0
M  V30 5703 O 534.562 5.37288 0.999193 0
M  V30 5704 H 531.656 0.805808 0.186016 0
M  V30 5705 H 534.202 1.65342 -0.382135 0
M  V30 5706 H 532.974 3.87354 -0.554287 0
M  V30 5707 H 532.597 3.80324 1.15929 0
M  V30 5708 N 533.594 0.0601682 1.57485 0
M  V30 5709 C 534.84 -0.612501 1.93329 0
M  V30 5710 C 535.173 -1.6996 0.939526 0
M  V30 5711 O 534.448 -1.94472 -0.0330957 0
M  V30 5712 C 534.731 -1.20025 3.39508 0
M  V30 5713 C 534.584 -0.12059 4.49638 0
M  V30 5714 C 535.903 -2.10923 3.86264 0
M  V30 5715 H 533.022 -0.221185 0.703027 0
M  V30 5716 H 535.664 0.123768 1.89596 0
M  V30 5717 H 533.814 -1.82774 3.42821 0
M  V30 5718 H 535.486 0.51185 4.58452 0
M  V30 5719 H 533.729 0.550251 4.30296 0
M  V30 5720 H 534.4 -0.572019 5.49028 0
M  V30 5721 H 536.876 -1.58124 3.84884 0
M  V30 5722 H 535.752 -2.48987 4.8918 0
M  V30 5723 H 536.013 -3.01292 3.23536 0
M  V30 5724 N 535.072 -1.5615 -0.213296 0
M  V30 5725 C 536.02 -1.93953 -1.28394 0
M  V30 5726 C 537.014 -0.822592 -1.48087 0
M  V30 5727 O 538.22 -1.00748 -1.49164 0
M  V30 5728 H 534.595 -0.61648 -0.430646 0
M  V30 5729 H 536.566 -2.83275 -0.937977 0
M  V30 5730 C 535.315 -2.27969 -2.62537 0
M  V30 5731 H 534.638 -3.13432 -2.48194 0
M  V30 5732 H 536.078 -2.58297 -3.36242 0
M  V30 5733 C 534.537 -1.10775 -3.18167 0
M  V30 5734 O 535.067 -0.373201 -3.99963 0
M  V30 5735 N 533.273 -0.889377 -2.76656 0
M  V30 5736 H 532.82 -1.48843 -2.10246 0
M  V30 5737 H 532.778 -0.107 -3.14218 0
M  V30 5738 N 536.55 0.480323 -1.50102 0
M  V30 5739 C 537.46 1.60547 -1.71061 0
M  V30 5740 C 538.476 1.63564 -0.593529 0
M  V30 5741 O 539.652 1.81604 -0.870751 0
M  V30 5742 C 536.717 2.96814 -1.79171 0
M  V30 5743 C 535.778 3.04259 -3.02861 0
M  V30 5744 C 535.011 4.34027 -3.10574 0
M  V30 5745 O 535.234 5.24009 -2.25323 0
M  V30 5746 O 534.168 4.46873 -4.03223 0
M  V30 5747 H 537.994 1.45788 -2.6642 0
M  V30 5748 H 535.579 0.658838 -1.34088 0
M  V30 5749 H 537.461 3.77765 -1.86738 0
M  V30 5750 H 536.136 3.11791 -0.869947 0
M  V30 5751 H 535.043 2.22419 -3.008 0
M  V30 5752 H 536.376 2.94216 -3.94586 0
M  V30 5753 N 538.028 1.39524 0.732853 0
M  V30 5754 C 538.938 1.40695 1.87729 0
M  V30 5755 C 539.954 0.301496 1.71368 0
M  V30 5756 O 541.13 0.543313 1.93933 0
M  V30 5757 C 538.195 1.25098 3.23344 0
M  V30 5758 C 537.256 2.45634 3.52083 0
M  V30 5759 C 536.489 2.30772 4.81228 0
M  V30 5760 O 536.712 1.31233 5.55098 0
M  V30 5761 O 535.646 3.19799 5.09914 0
M  V30 5762 H 539.472 2.37168 1.89697 0
M  V30 5763 H 537.057 1.20663 0.880959 0
M  V30 5764 H 538.939 1.18541 4.04383 0
M  V30 5765 H 537.614 0.317209 3.22142 0
M  V30 5766 H 536.521 2.57767 2.71122 0
M  V30 5767 H 537.854 3.37712 3.58066 0
M  V30 5768 N 539.506 -0.963266 1.24736 0
M  V30 5769 C 540.754 -1.70343 1.08755 0
M  V30 5770 C 541.075 -1.91387 -0.373619 0
M  V30 5771 O 540.345 -1.4948 -1.2662 0
M  V30 5772 H 538.925 -0.631224 0.399456 0
M  V30 5773 H 541.587 -1.15859 1.56725 0
M  V30 5774 H 540.683 -2.68616 1.58909 0
M  V30 5775 N 540.985 -1.06182 -1.16461 0
M  V30 5776 C 542.213 -0.798583 -1.90867 0
M  V30 5777 C 542.628 0.646921 -1.77371 0
M  V30 5778 O 541.985 1.44279 -1.11758 0
M  V30 5779 C 542.036 -1.18258 -3.4161 0
M  V30 5780 O 541.757 -2.57135 -3.54701 0
M  V30 5781 C 543.258 -0.946917 -4.33069 0
M  V30 5782 H 540.478 -0.289603 -0.605286 0
M  V30 5783 H 543.022 -1.41515 -1.47627 0
M  V30 5784 H 541.177 -0.610562 -3.82558 0
M  V30 5785 H 541.591 -2.72477 -4.4817 0
M  V30 5786 H 543.065 -1.26523 -5.37304 0
M  V30 5787 H 543.542 0.117406 -4.39043 0
M  V30 5788 H 544.148 -1.50326 -3.97847 0
M  V30 5789 N 542.463 1.3308 -0.844243 0
M  V30 5790 C 543.373 2.32876 -0.283922 0
M  V30 5791 C 544.389 1.63589 0.592846 0
M  V30 5792 O 545.565 1.95205 0.495693 0
M  V30 5793 C 542.63 3.42667 0.527283 0
M  V30 5794 C 541.691 4.27664 -0.374394 0
M  V30 5795 C 540.924 5.32212 0.39819 0
M  V30 5796 O 541.147 5.46635 1.62932 0
M  V30 5797 O 540.081 6.01458 -0.2306 0
M  V30 5798 H 543.907 2.82671 -1.11045 0
M  V30 5799 H 541.492 1.36518 -0.606903 0
M  V30 5800 H 543.374 4.09652 0.988078 0
M  V30 5801 H 542.049 2.95079 1.33078 0
M  V30 5802 H 540.956 3.63526 -0.883144 0
M  V30 5803 H 542.289 4.78749 -1.1428 0
M  V30 5804 N 543.941 0.601185 1.45683 0
M  V30 5805 C 544.904 -0.111398 2.28929 0
M  V30 5806 C 545.904 -0.801246 1.39416 0
M  V30 5807 O 547.094 -0.650383 1.61603 0
M  V30 5808 C 544.226 -1.16773 3.20276 0
M  V30 5809 H 545.419 0.620412 2.93413 0
M  V30 5810 H 542.972 0.359946 1.52099 0
M  V30 5811 H 543.707 -1.93051 2.60579 0
M  V30 5812 H 543.492 -0.677358 3.86205 0
M  V30 5813 H 544.982 -1.66698 3.82886 0
M  V30 5814 N 545.419 -1.53889 0.339982 0
M  V30 5815 C 546.382 -2.23547 -0.50592 0
M  V30 5816 C 547.382 -1.23445 -1.03044 0
M  V30 5817 O 548.572 -1.47909 -0.920253 0
M  V30 5818 C 545.704 -2.95234 -1.7044 0
M  V30 5819 H 546.897 -2.99722 0.103247 0
M  V30 5820 H 544.45 -1.56033 0.0912804 0
M  V30 5821 H 545.185 -2.23236 -2.35236 0
M  V30 5822 H 544.97 -3.68654 -1.33553 0
M  V30 5823 H 546.46 -3.48258 -2.30447 0
M  V30 5824 N 546.897 -0.0685191 -1.57451 0
M  V30 5825 C 547.86 0.885173 -2.11417 0
M  V30 5826 C 548.86 1.22853 -1.03748 0
M  V30 5827 O 550.05 1.16235 -1.2975 0
M  V30 5828 C 547.182 2.18964 -2.61281 0
M  V30 5829 H 548.375 0.417034 -2.96986 0
M  V30 5830 H 545.928 0.18014 -1.55258 0
M  V30 5831 H 546.663 2.70321 -1.79156 0
M  V30 5832 H 546.448 1.9534 -3.39977 0
M  V30 5833 H 547.938 2.87242 -3.0312 0
M  V30 5834 N 548.375 1.56261 0.205012 0
M  V30 5835 C 549.623 1.79684 0.925096 0
M  V30 5836 C 549.944 0.63989 1.84202 0
M  V30 5837 O 549.214 -0.342345 1.92885 0
M  V30 5838 H 547.794 0.662774 0.344587 0
M  V30 5839 H 550.456 1.93734 0.212899 0
M  V30 5840 H 549.552 2.72467 1.52211 0
M  V30 5841 N 549.853 -0.472356 1.50355 0
M  V30 5842 C 551.081 -1.24784 1.65035 0
M  V30 5843 C 551.496 -1.85837 0.333176 0
M  V30 5844 O 550.853 -1.69168 -0.68472 0
M  V30 5845 C 550.904 -2.35747 2.74054 0
M  V30 5846 O 550.625 -1.77197 4.00665 0
M  V30 5847 C 552.126 -3.26645 2.99696 0
M  V30 5848 H 549.346 -0.377432 0.554785 0
M  V30 5849 H 551.89 -0.563962 1.9657 0
M  V30 5850 H 550.045 -2.99912 2.45217 0
M  V30 5851 H 550.459 -2.5026 4.60945 0
M  V30 5852 H 551.933 -4.00718 3.79644 0
M  V30 5853 H 552.41 -3.8535 2.10718 0
M  V30 5854 H 553.016 -2.68218 3.3006 0
M  V30 5855 N 551.331 -1.39911 -0.725443 0
M  V30 5856 C 552.579 -1.37382 -1.48224 0
M  V30 5857 C 552.9 0.0264107 -1.94982 0
M  V30 5858 O 552.17 0.979408 -1.6966 0
M  V30 5859 H 550.75 -0.505596 -0.549892 0
M  V30 5860 H 553.412 -1.7487 -0.860608 0
M  V30 5861 H 552.508 -2.04254 -2.3598 0
M  V30 5862 N 552.809 0.956637 -1.25245 0
M  V30 5863 C 554.057 1.69764 -1.09657 0
M  V30 5864 C 554.378 1.91583 0.363464 0
M  V30 5865 O 553.648 1.50149 1.25825 0
M  V30 5866 H 552.228 0.629097 -0.402798 0
M  V30 5867 H 554.89 1.15026 -1.57337 0
M  V30 5868 H 553.986 2.67769 -1.60331 0
M  V30 5869 N 554.287 1.06798 1.15896 0
M  V30 5870 C 555.533 0.788934 1.86825 0
M  V30 5871 C 555.866 -0.683084 1.8179 0
M  V30 5872 O 555.141 -1.50086 1.23711 0
M  V30 5873 C 555.424 1.29065 3.36176 0
M  V30 5874 C 555.277 2.8268 3.49874 0
M  V30 5875 C 556.596 0.902655 4.30744 0
M  V30 5876 H 553.715 0.288066 0.678371 0
M  V30 5877 H 556.357 1.32479 1.36195 0
M  V30 5878 H 554.507 0.834806 3.79425 0
M  V30 5879 H 556.179 3.36511 3.15528 0
M  V30 5880 H 554.422 3.21157 2.91617 0
M  V30 5881 H 555.093 3.12852 4.54783 0
M  V30 5882 H 557.569 1.29535 3.95424 0
M  V30 5883 H 556.445 1.28111 5.3374 0
M  V30 5884 H 556.706 -0.191951 4.41683 0
M  V30 5885 N 555.766 -1.3263 0.851289 0
M  V30 5886 C 556.699 -2.26952 0.238318 0
M  V30 5887 C 557.677 -1.50243 -0.621757 0
M  V30 5888 O 558.861 -1.79378 -0.579298 0
M  V30 5889 C 555.988 -3.32124 -0.664178 0
M  V30 5890 C 555.034 -4.26325 0.122067 0
M  V30 5891 S 555.867 -5.14404 1.48824 0
M  V30 5892 C 557.023 -6.231 0.591372 0
M  V30 5893 H 557.256 -2.78594 1.03791 0
M  V30 5894 H 554.789 -1.4011 0.648731 0
M  V30 5895 H 556.747 -3.93197 -1.17924 0
M  V30 5896 H 555.408 -2.79273 -1.43755 0
M  V30 5897 H 554.601 -5.00821 -0.565181 0
M  V30 5898 H 554.203 -3.69652 0.568602 0
M  V30 5899 H 556.495 -6.77187 -0.205762 0
M  V30 5900 H 557.438 -6.95936 1.30687 0
M  V30 5901 H 557.846 -5.64252 0.167206 0
M  V30 5902 N 557.244 -0.608902 -1.45362 0
M  V30 5903 C 558.472 -0.111013 -2.06602 0
M  V30 5904 C 558.887 1.20516 -1.45332 0
M  V30 5905 O 558.244 1.73437 -0.567978 0
M  V30 5906 C 558.295 0.033688 -3.61484 0
M  V30 5907 O 558.016 -1.23041 -4.20467 0
M  V30 5908 C 559.517 0.562882 -4.39712 0
M  V30 5909 H 556.737 -0.0694453 -0.667397 0
M  V30 5910 H 559.281 -0.837008 -1.86586 0
M  V30 5911 H 557.436 0.710016 -3.80838 0
M  V30 5912 H 557.85 -1.06094 -5.13658 0
M  V30 5913 H 559.324 0.613213 -5.48583 0
M  V30 5914 H 559.801 1.58543 -4.09586 0
M  V30 5915 H 560.407 -0.0794454 -4.25226 0
M  V30 5916 N 558.722 1.53707 -0.348139 0
M  V30 5917 C 559.97 2.00591 0.246478 0
M  V30 5918 C 560.291 1.23753 1.50699 0
M  V30 5919 O 559.561 0.345964 1.92821 0
M  V30 5920 H 558.141 0.741053 0.0940679 0
M  V30 5921 H 560.803 1.89139 -0.470354 0
M  V30 5922 H 559.899 3.08297 0.485714 0
M  V30 5923 N 560.2 0.0768682 1.57412 0
M  V30 5924 C 561.616 -0.279772 1.57129 0
M  V30 5925 C 561.816 -1.69688 1.08666 0
M  V30 5926 O 560.872 -2.40953 0.754843 0
M  V30 5927 C 562.185 -0.0848055 3.0058 0
M  V30 5928 C 563.733 -0.153954 3.12621 0
M  V30 5929 C 564.208 0.0127946 4.57998 0
M  V30 5930 N 565.699 -0.0426435 4.6318 0
M  V30 5931 C 566.434 0.0618892 5.73367 0
M  V30 5932 N 565.93 0.220229 6.9245 0
M  V30 5933 N 567.723 0.00446072 5.621 0
M  V30 5934 H 559.874 1.00297 1.87228 0
M  V30 5935 H 562.137 0.391565 0.863354 0
M  V30 5936 H 561.843 0.89325 3.40168 0
M  V30 5937 H 561.717 -0.834961 3.67843 0
M  V30 5938 H 564.104 -1.1225 2.72917 0
M  V30 5939 H 564.185 0.627389 2.47987 0
M  V30 5940 H 563.829 0.978128 4.98392 0
M  V30 5941 H 563.759 -0.788016 5.20671 0
M  V30 5942 H 566.25 -0.163226 3.77547 0
M  V30 5943 H 566.563 0.291999 7.72248 0
M  V30 5944 H 564.908 0.255658 6.9453 0
M  V30 5945 H 568.099 -0.117979 4.67951 0
M  V30 5946 H 568.272 0.0893796 6.47938 0
M  V30 5947 N 561.678 -1.56367 -0.196722 0
M  V30 5948 C 562.906 -1.84639 -0.933608 0
M  V30 5949 C 563.321 -0.659164 -1.76919 0
M  V30 5950 O 562.678 0.372142 -1.78665 0
M  V30 5951 C 562.729 -3.11694 -1.83109 0
M  V30 5952 O 562.45 -4.25838 -1.02924 0
M  V30 5953 C 563.951 -3.53132 -2.67979 0
M  V30 5954 H 561.171 -0.613188 -0.272473 0
M  V30 5955 H 563.715 -2.03475 -0.204465 0
M  V30 5956 H 561.87 -2.94759 -2.51387 0
M  V30 5957 H 562.284 -4.98178 -1.64069 0
M  V30 5958 H 563.758 -4.45005 -3.26611 0
M  V30 5959 H 564.235 -2.76045 -3.41608 0
M  V30 5960 H 564.841 -3.72592 -2.05074 0
M  V30 5961 N 563.156 0.464375 -1.50603 0
M  V30 5962 C 564.404 1.21356 -1.61608 0
M  V30 5963 C 564.725 1.92329 -0.321643 0
M  V30 5964 O 563.995 1.84403 0.661232 0
M  V30 5965 H 562.575 0.45094 -0.595535 0
M  V30 5966 H 565.237 0.535046 -1.87412 0
M  V30 5967 H 564.333 1.95783 -2.43054 0
M  V30 5968 N 564.634 1.40294 0.718013 0
M  V30 5969 C 565.584 1.36847 1.82365 0
M  V30 5970 C 566.568 0.246424 1.59002 0
M  V30 5971 O 567.76 0.485336 1.70216 0
M  V30 5972 C 564.889 1.23105 3.20469 0
M  V30 5973 C 563.975 2.4008 3.49603 0
M  V30 5974 N 564.366 3.65562 3.49568 0
M  V30 5975 C 562.664 2.33407 3.80049 0
M  V30 5976 C 563.365 4.43015 3.76978 0
M  V30 5977 N 562.341 3.72823 3.95606 0
M  V30 5978 H 566.143 2.31811 1.80668 0
M  V30 5979 H 563.657 1.34031 0.91703 0
M  V30 5980 H 565.654 1.18718 3.9964 0
M  V30 5981 H 564.314 0.291056 3.23393 0
M  V30 5982 H 565.325 3.98756 3.30476 0
M  V30 5983 H 562.002 1.47762 3.90478 0
M  V30 5984 H 563.392 5.51859 3.83276 0
M  V30 5985 N 566.112 -0.949982 1.2575 0
M  V30 5986 C 567.36 -1.6918 1.10555 0
M  V30 5987 C 567.681 -1.91773 -0.353298 0
M  V30 5988 O 566.951 -1.50814 -1.25027 0
M  V30 5989 H 565.531 -0.626952 0.406129 0
M  V30 5990 H 568.193 -1.1419 1.57945 0
M  V30 5991 H 567.289 -2.66915 1.61749 0
M  V30 5992 N 567.59 -1.07411 -1.15328 0
M  V30 5993 C 568.838 -0.796073 -1.85761 0
M  V30 5994 C 569.159 0.679864 -1.82764 0
M  V30 5995 O 568.429 1.49242 -1.269 0
M  V30 5996 H 567.009 -0.291495 -0.687779 0
M  V30 5997 H 569.671 -1.35799 -1.39802 0
M  V30 5998 H 568.767 -1.13114 -2.90881 0
M  V30 5999 N 569.068 1.32177 -0.85831 0
M  V30 6000 C 570.479 1.79381 -0.517621 0
M  V30 6001 C 570.83 1.70841 0.964769 0
M  V30 6002 O 569.955 1.26917 1.75274 0
M  V30 6003 C 570.55 3.25706 -0.932801 0
M  V30 6004 C 569.109 3.70851 -0.643953 0
M  V30 6005 C 568.256 2.53208 -1.13054 0
M  V30 6006 H 571.207 1.19424 -1.04516 0
M  V30 6007 H 571.228 3.79673 -0.250674 0
M  V30 6008 H 570.74 3.31889 -2.01174 0
M  V30 6009 H 568.841 3.70178 0.424112 0
M  V30 6010 H 568.954 4.63495 -1.21281 0
M  V30 6011 H 567.318 2.48676 -0.550679 0
M  V30 6012 H 568.101 2.62143 -2.21666 0
M  V30 6013 N 570.547 0.616602 1.45037 0
M  V30 6014 C 571.479 -0.135186 2.28801 0
M  V30 6015 C 572.492 -0.82303 1.40464 0
M  V30 6016 O 573.681 -0.686909 1.64754 0
M  V30 6017 C 570.781 -1.21292 3.16451 0
M  V30 6018 C 569.954 -0.61043 4.3312 0
M  V30 6019 C 569.013 -1.58022 5.01912 0
M  V30 6020 O 568.039 -1.10301 5.58411 0
M  V30 6021 N 569.241 -2.91464 5.02025 0
M  V30 6022 H 572.006 0.583612 2.93963 0
M  V30 6023 H 569.567 0.456723 1.55324 0
M  V30 6024 H 571.559 -1.86169 3.59337 0
M  V30 6025 H 570.129 -1.83412 2.53138 0
M  V30 6026 H 569.349 0.216638 3.93604 0
M  V30 6027 H 570.637 -0.188293 5.08451 0
M  V30 6028 H 570.035 -3.32829 4.57429 0
M  V30 6029 H 568.592 -3.51741 5.48745 0
M  V30 6030 N 572.025 -1.5352 0.356285 0
M  V30 6031 C 573.272 -2.01117 -0.236303 0
M  V30 6032 C 573.6 -1.24381 -1.49531 0
M  V30 6033 O 572.855 -0.323057 -1.93015 0
M  V30 6034 C 573.154 -3.52607 -0.583369 0
M  V30 6035 C 572.82 -4.47151 0.58023 0
M  V30 6036 C 571.482 -4.72718 0.899528 0
M  V30 6037 C 573.834 -5.03137 1.36024 0
M  V30 6038 C 571.162 -5.51523 2.00098 0
M  V30 6039 C 573.514 -5.83145 2.45204 0
M  V30 6040 C 572.178 -6.07001 2.77679 0
M  V30 6041 H 571.448 -0.735938 -0.0864695 0
M  V30 6042 H 574.095 -1.85209 0.48683 0
M  V30 6043 H 572.4 -3.66413 -1.38739 0
M  V30 6044 H 574.097 -3.86901 -1.05397 0
M  V30 6045 H 570.687 -4.27394 0.321322 0
M  V30 6046 H 574.871 -4.83339 1.12682 0
M  V30 6047 H 570.127 -5.68229 2.25668 0
M  V30 6048 H 574.301 -6.25537 3.06067 0
M  V30 6049 H 571.928 -6.67851 3.63151 0
M  V30 6050 N 573.503 -0.0852151 -1.57369 0
M  V30 6051 C 574.749 0.581666 -1.94279 0
M  V30 6052 C 575.082 1.68444 -0.966446 0
M  V30 6053 O 574.357 1.945 0.00215277 0
M  V30 6054 C 574.64 1.14609 -3.41375 0
M  V30 6055 C 574.493 0.0490414 -4.49773 0
M  V30 6056 C 575.812 2.04751 -3.8957 0
M  V30 6057 H 572.931 0.209972 -0.706456 0
M  V30 6058 H 575.573 -0.153915 -1.89376 0
M  V30 6059 H 573.723 1.77297 -3.45685 0
M  V30 6060 H 575.395 -0.584721 -4.57579 0
M  V30 6061 H 573.638 -0.618638 -4.29366 0
M  V30 6062 H 574.309 0.484601 -5.49869 0
M  V30 6063 H 576.785 1.51981 -3.87351 0
M  V30 6064 H 575.661 2.41173 -4.93079 0
M  V30 6065 H 575.922 2.96107 -3.28288 0
M  V30 6066 N 574.981 1.5647 0.188427 0
M  V30 6067 C 575.944 1.9421 1.21718 0
M  V30 6068 C 576.944 0.823901 1.38089 0
M  V30 6069 O 578.134 1.09122 1.35787 0
M  V30 6070 C 575.266 2.22197 2.58537 0
M  V30 6071 H 576.459 2.86252 0.894418 0
M  V30 6072 H 574.012 1.50263 0.430211 0
M  V30 6073 H 574.747 1.32814 2.95856 0
M  V30 6074 H 574.532 3.03688 2.48025 0
M  V30 6075 H 576.022 2.52376 3.3271 0
M  V30 6076 N 576.459 -0.456382 1.50847 0
M  V30 6077 C 577.736 -1.21739 1.53098 0
M  V30 6078 C 578.116 -2.09179 0.284132 0
M  V30 6079 O 577.464 -2.16466 -0.731773 0
M  V30 6080 C 577.674 -2.03573 2.83477 0
M  V30 6081 C 579.022 -2.61264 3.34703 0
M  V30 6082 O 580.046 -2.13802 2.84898 0
M  V30 6083 O 578.905 -3.47779 4.21559 0
M  V30 6084 H 575.999 -0.553219 0.614718 0
M  V30 6085 H 578.545 -0.467003 1.63148 0
M  V30 6086 H 577.317 -1.39232 3.65691 0
M  V30 6087 H 576.94 -2.85716 2.76499 0
M  V30 6088 N 577.937 -1.40673 -0.710563 0
M  V30 6089 C 578.887 -1.37812 -1.81636 0
M  V30 6090 C 579.871 -0.254853 -1.58869 0
M  V30 6091 O 581.063 -0.494356 -1.69956 0
M  V30 6092 C 578.192 -1.24802 -3.19811 0
M  V30 6093 C 577.278 -2.41931 -3.48325 0
M  V30 6094 N 577.669 -3.67411 -3.47625 0
M  V30 6095 C 575.967 -2.35419 -3.78806 0
M  V30 6096 C 576.668 -4.45008 -3.74623 0
M  V30 6097 N 575.644 -3.74916 -3.93623 0
M  V30 6098 H 579.446 -2.32766 -1.79436 0
M  V30 6099 H 576.96 -1.34516 -0.909909 0
M  V30 6100 H 578.957 -1.20835 -3.99004 0
M  V30 6101 H 577.617 -0.308202 -3.23234 0
M  V30 6102 H 578.628 -4.00503 -3.28356 0
M  V30 6103 H 575.305 -1.4983 -3.89689 0
M  V30 6104 H 576.695 -5.53884 -3.80344 0
M  V30 6105 N 579.415 0.9433 -1.26252 0
M  V30 6106 C 580.826 1.50404 -1.10614 0
M  V30 6107 C 581.177 1.93666 0.31429 0
M  V30 6108 O 580.302 1.79709 1.20555 0
M  V30 6109 C 580.897 2.73336 -2.00182 0
M  V30 6110 C 579.456 3.25686 -1.88695 0
M  V30 6111 C 578.603 1.98474 -1.93658 0
M  V30 6112 H 581.554 0.759006 -1.39373 0
M  V30 6113 H 581.575 3.47567 -1.54847 0
M  V30 6114 H 581.087 2.41818 -3.03555 0
M  V30 6115 H 579.188 3.61998 -0.882489 0
M  V30 6116 H 579.301 3.92935 -2.74115 0
M  V30 6117 H 577.665 2.14278 -1.37684 0
M  V30 6118 H 578.448 1.6929 -2.98657 0
M  V30 6119 N 580.893 1.08022 1.14757 0
M  V30 6120 C 582.14 0.807509 1.85703 0
M  V30 6121 C 582.468 -0.666617 1.8272 0
M  V30 6122 O 581.723 -1.50562 1.25018 0
M  V30 6123 C 582.022 1.26964 3.34088 0
M  V30 6124 C 581.688 2.7509 3.57262 0
M  V30 6125 C 580.35 3.15547 3.63296 0
M  V30 6126 C 582.702 3.70667 3.66409 0
M  V30 6127 C 580.03 4.50384 3.75994 0
M  V30 6128 C 582.382 5.05274 3.80632 0
M  V30 6129 C 581.046 5.45342 3.84913 0
M  V30 6130 H 580.316 0.295488 0.679535 0
M  V30 6131 H 582.963 1.35245 1.35577 0
M  V30 6132 H 581.268 0.644216 3.86467 0
M  V30 6133 H 582.965 1.03544 3.87401 0
M  V30 6134 H 579.555 2.42775 3.53212 0
M  V30 6135 H 583.739 3.40533 3.61041 0
M  V30 6136 H 578.995 4.80886 3.77569 0
M  V30 6137 H 583.169 5.79201 3.86652 0
M  V30 6138 H 580.796 6.49823 3.94505 0
M  V30 6139 N 582.371 -1.3172 0.865308 0
M  V30 6140 C 583.301 -2.31109 0.333302 0
M  V30 6141 C 584.282 -1.60148 -0.573301 0
M  V30 6142 O 585.467 -1.87882 -0.491305 0
M  V30 6143 C 582.597 -3.44104 -0.470078 0
M  V30 6144 C 581.551 -4.26623 0.343021 0
M  V30 6145 C 580.877 -5.31482 -0.585756 0
M  V30 6146 C 582.177 -4.98001 1.57456 0
M  V30 6147 H 583.871 -2.75855 1.1638 0
M  V30 6148 H 581.417 -1.3262 0.561069 0
M  V30 6149 H 583.37 -4.12682 -0.852752 0
M  V30 6150 H 582.094 -2.98112 -1.33404 0
M  V30 6151 H 580.753 -3.59707 0.707583 0
M  V30 6152 H 580.401 -4.81741 -1.44686 0
M  V30 6153 H 580.101 -5.87582 -0.0456494 0
M  V30 6154 H 581.625 -6.0292 -0.965375 0
M  V30 6155 H 583.039 -5.59201 1.26359 0
M  V30 6156 H 581.436 -5.63876 2.05339 0
M  V30 6157 H 582.506 -4.25253 2.32997 0
M  V30 6158 N 583.85 -0.624285 -1.44708 0
M  V30 6159 C 585.096 -0.126051 -2.02107 0
M  V30 6160 C 585.425 1.2496 -1.49048 0
M  V30 6161 O 584.68 1.84163 -0.662005 0
M  V30 6162 C 584.979 -0.0546353 -3.57358 0
M  V30 6163 C 584.644 -1.36815 -4.29642 0
M  V30 6164 C 583.307 -1.72792 -4.49106 0
M  V30 6165 C 585.659 -2.23549 -4.70824 0
M  V30 6166 C 582.986 -2.95222 -5.07012 0
M  V30 6167 C 585.339 -3.45243 -5.30085 0
M  V30 6168 C 584.003 -3.81452 -5.47769 0
M  V30 6169 H 583.273 -0.0461252 -0.739563 0
M  V30 6170 H 585.92 -0.809236 -1.73562 0
M  V30 6171 H 584.225 0.711891 -3.85278 0
M  V30 6172 H 585.922 0.347282 -3.99493 0
M  V30 6173 H 582.512 -1.07817 -4.14817 0
M  V30 6174 H 586.696 -1.9705 -4.55505 0
M  V30 6175 H 581.952 -3.23361 -5.18891 0
M  V30 6176 H 586.125 -4.12689 -5.60946 0
M  V30 6177 H 583.753 -4.76403 -5.92405 0
M  V30 6178 N 585.328 1.53329 -0.364422 0
M  V30 6179 C 586.258 2.28627 0.474543 0
M  V30 6180 C 587.239 1.31009 1.08492 0
M  V30 6181 O 588.424 1.59878 1.10239 0
M  V30 6182 C 585.554 3.07465 1.61501 0
M  V30 6183 C 584.508 4.1276 1.13194 0
M  V30 6184 C 583.834 4.79674 2.36255 0
M  V30 6185 C 585.134 5.21847 0.217507 0
M  V30 6186 H 586.828 2.99005 -0.153656 0
M  V30 6187 H 584.374 1.43803 -0.0753406 0
M  V30 6188 H 586.327 3.58889 2.20855 0
M  V30 6189 H 585.051 2.34775 2.27042 0
M  V30 6190 H 583.71 3.62281 0.56109 0
M  V30 6191 H 583.358 4.03557 3.00251 0
M  V30 6192 H 583.058 5.50827 2.04606 0
M  V30 6193 H 584.582 5.33892 2.96297 0
M  V30 6194 H 585.996 5.6878 0.718493 0
M  V30 6195 H 584.393 6.00099 -0.00806408 0
M  V30 6196 H 585.463 4.7921 -0.740653 0
M  V30 6197 N 586.806 0.0935595 1.57322 0
M  V30 6198 C 588.055 -0.570191 1.93473 0
M  V30 6199 C 588.368 -1.69434 0.977318 0
M  V30 6200 O 589.574 -2.41914 1.23248 0
M  V30 6201 C 588.03 -1.06564 3.43762 0
M  V30 6202 C 587.638 0.0286723 4.47991 0
M  V30 6203 C 589.382 -1.70221 3.88877 0
M  V30 6204 C 587.289 -0.482046 5.89432 0
M  V30 6205 H 586.219 -0.216764 0.72217 0
M  V30 6206 H 588.87 0.169313 1.82717 0
M  V30 6207 H 587.252 -1.85878 3.49664 0
M  V30 6208 H 588.426 0.804106 4.5373 0
M  V30 6209 H 586.741 0.570336 4.12476 0
M  V30 6210 H 589.338 -2.09502 4.91948 0
M  V30 6211 H 589.681 -2.57078 3.27439 0
M  V30 6212 H 590.214 -0.974919 3.85668 0
M  V30 6213 H 586.953 0.349871 6.54566 0
M  V30 6214 H 586.473 -1.22452 5.87167 0
M  V30 6215 H 588.152 -0.951508 6.39965 0
M  V30 6216 N 588.284 -1.56567 -0.180126 0
M  V30 6217 C 589.217 -1.90813 -1.25163 0
M  V30 6218 C 590.195 -0.7699 -1.43218 0
M  V30 6219 O 591.379 -1.02236 -1.58367 0
M  V30 6220 C 588.506 -2.15138 -2.61597 0
M  V30 6221 C 587.552 -3.37834 -2.60328 0
M  V30 6222 S 588.385 -4.92486 -2.1028 0
M  V30 6223 C 589.541 -5.19896 -3.48509 0
M  V30 6224 H 589.774 -2.81398 -0.959283 0
M  V30 6225 H 587.307 -1.49541 -0.3843 0
M  V30 6226 H 589.265 -2.29835 -3.40127 0
M  V30 6227 H 587.926 -1.25276 -2.88036 0
M  V30 6228 H 587.119 -3.52027 -3.60684 0
M  V30 6229 H 586.721 -3.22208 -1.8989 0
M  V30 6230 H 589.013 -5.11334 -4.44459 0
M  V30 6231 H 589.956 -6.21571 -3.39198 0
M  V30 6232 H 590.364 -4.47489 -3.44114 0
M  V30 6233 N 589.762 0.448376 -1.51087 0
M  V30 6234 C 590.712 1.54156 -1.67988 0
M  V30 6235 C 591.696 1.5178 -0.534015 0
M  V30 6236 O 592.888 1.58419 -0.789448 0
M  V30 6237 C 590.017 2.92437 -1.79822 0
M  V30 6238 C 589.103 2.99611 -3.00157 0
M  V30 6239 N 589.494 2.7655 -4.23502 0
M  V30 6240 C 587.792 3.30764 -2.99184 0
M  V30 6241 C 588.493 2.89281 -5.0467 0
M  V30 6242 N 587.469 3.20473 -4.39088 0
M  V30 6243 H 591.271 1.35061 -2.61028 0
M  V30 6244 H 588.785 0.655504 -1.48583 0
M  V30 6245 H 590.782 3.71068 -1.90037 0
M  V30 6246 H 589.442 3.1256 -0.879554 0
M  V30 6247 H 590.453 2.5169 -4.52628 0
M  V30 6248 H 587.13 3.56732 -2.16907 0
M  V30 6249 H 588.52 2.75499 -6.12821 0
M  V30 6250 N 591.24 1.41047 0.703093 0
M  V30 6251 C 592.187 1.42302 1.81711 0
M  V30 6252 C 593.157 0.278336 1.63751 0
M  V30 6253 O 594.342 0.478266 1.84709 0
M  V30 6254 C 591.482 1.30362 3.19531 0
M  V30 6255 C 590.595 2.54638 3.48975 0
M  V30 6256 C 589.73 2.35047 4.76368 0
M  V30 6257 C 588.769 3.54837 4.98756 0
M  V30 6258 N 587.906 3.34363 6.1737 0
M  V30 6259 H 592.746 2.37516 1.79973 0
M  V30 6260 H 590.283 1.1795 0.878983 0
M  V30 6261 H 592.241 1.21443 3.99134 0
M  V30 6262 H 590.871 0.387602 3.20464 0
M  V30 6263 H 589.923 2.74037 2.63833 0
M  V30 6264 H 591.235 3.43766 3.61423 0
M  V30 6265 H 590.389 2.23552 5.64012 0
M  V30 6266 H 589.128 1.43363 4.66153 0
M  V30 6267 H 588.133 3.66795 4.09563 0
M  V30 6268 H 589.358 4.47464 5.10835 0
M  V30 6269 H 587.304 2.45373 6.08382 0
M  V30 6270 H 587.221 4.17063 6.30551 0
M  V30 6271 H 588.489 3.26626 7.07768 0
M  V30 6272 N 592.718 -0.936591 1.26751 0
M  V30 6273 C 593.967 -1.67778 1.11953 0
M  V30 6274 C 594.28 -1.92694 -0.33589 0
M  V30 6275 O 595.486 -2.64682 -0.604618 0
M  V30 6276 C 593.942 -3.02138 1.95551 0
M  V30 6277 C 593.55 -2.84953 3.45696 0
M  V30 6278 C 595.294 -3.79917 1.89377 0
M  V30 6279 C 593.201 -4.14814 4.21525 0
M  V30 6280 H 592.131 -0.629275 0.415366 0
M  V30 6281 H 594.782 -1.04122 1.51099 0
M  V30 6282 H 593.164 -3.668 1.49243 0
M  V30 6283 H 594.338 -2.29112 3.99805 0
M  V30 6284 H 592.653 -2.20612 3.53156 0
M  V30 6285 H 595.25 -4.76134 2.43312 0
M  V30 6286 H 595.593 -4.07204 0.865464 0
M  V30 6287 H 596.126 -3.22037 2.33532 0
M  V30 6288 H 592.865 -3.92709 5.24843 0
M  V30 6289 H 592.385 -4.70352 3.72195 0
M  V30 6290 H 594.064 -4.83239 4.3022 0
M  V30 6291 N 594.196 -1.08629 -1.14182 0
M  V30 6292 C 595.424 -0.838889 -1.8913 0
M  V30 6293 C 595.839 0.609153 -1.78703 0
M  V30 6294 O 595.196 1.41876 -1.14794 0
M  V30 6295 C 595.247 -1.25477 -3.39025 0
M  V30 6296 O 594.968 -2.64601 -3.49167 0
M  V30 6297 C 596.469 -1.03856 -4.30963 0
M  V30 6298 H 593.689 -0.302377 -0.599007 0
M  V30 6299 H 596.233 -1.44615 -1.44592 0
M  V30 6300 H 594.388 -0.691571 -3.81177 0
M  V30 6301 H 594.802 -2.81922 -4.42289 0
M  V30 6302 H 596.276 -1.37892 -5.345 0
M  V30 6303 H 596.753 0.0242522 -4.39193 0
M  V30 6304 H 597.359 -1.58731 -3.94569 0
M  V30 6305 N 595.674 1.31259 -0.872281 0
M  V30 6306 C 596.622 2.30404 -0.318897 0
M  V30 6307 C 597.616 1.5962 0.567267 0
M  V30 6308 O 598.822 1.74204 0.453111 0
M  V30 6309 H 595.197 0.747243 -0.0844474 0
M  V30 6310 H 597.168 2.74549 -1.16899 0
M  V30 6311 C 595.917 3.44608 0.462683 0
M  V30 6312 H 595.24 3.99248 -0.209936 0
M  V30 6313 H 596.68 4.1609 0.815187 0
M  V30 6314 C 595.139 2.93456 1.65485 0
M  V30 6315 O 595.669 2.92418 2.75417 0
M  V30 6316 N 593.875 2.49628 1.48776 0
M  V30 6317 H 593.422 2.50671 0.593452 0
M  V30 6318 H 593.38 2.15759 2.28682 0
M  V30 6319 N 597.152 0.631951 1.44375 0
M  V30 6320 C 598.392 0.14009 2.03919 0
M  V30 6321 C 598.756 -1.21534 1.48639 0
M  V30 6322 O 599.957 -1.79936 1.99691 0
M  V30 6323 C 598.228 0.127174 3.57174 0
M  V30 6324 S 599.787 -0.299946 4.37774 0
M  V30 6325 H 596.605 0.0614891 0.708336 0
M  V30 6326 H 599.207 0.835524 1.76746 0
M  V30 6327 H 597.911 1.11676 3.94913 0
M  V30 6328 H 597.442 -0.589482 3.88958 0
M  V30 6329 H 599.457 -1.54396 4.71568 0
M  V30 6330 N 598.631 -1.53133 0.372548 0
M  V30 6331 C 599.88 -2.00539 -0.216115 0
M  V30 6332 C 600.193 -1.26374 -1.49295 0
M  V30 6333 O 601.399 -1.64404 -2.16064 0
M  V30 6334 C 599.855 -3.57253 -0.435678 0
M  V30 6335 C 599.463 -4.40302 0.82693 0
M  V30 6336 C 601.207 -4.12995 -0.981618 0
M  V30 6337 C 599.114 -5.88583 0.576567 0
M  V30 6338 H 598.044 -0.749246 -0.084536 0
M  V30 6339 H 600.695 -1.76771 0.492364 0
M  V30 6340 H 599.077 -3.77202 -1.20559 0
M  V30 6341 H 600.251 -4.32124 1.60017 0
M  V30 6342 H 598.566 -3.95699 1.29659 0
M  V30 6343 H 601.163 -5.21418 -1.18436 0
M  V30 6344 H 601.506 -3.68027 -1.94581 0
M  V30 6345 H 602.039 -3.96871 -0.271696 0
M  V30 6346 H 598.778 -6.37841 1.51128 0
M  V30 6347 H 598.298 -5.99592 -0.158047 0
M  V30 6348 H 599.977 -6.46676 0.204722 0
M  V30 6349 N 600.109 -0.101901 -1.5727 0
M  V30 6350 C 601.039 0.851544 -2.17419 0
M  V30 6351 C 602.02 1.28942 -1.10941 0
M  V30 6352 O 603.205 1.35509 -1.39107 0
M  V30 6353 C 600.335 2.10816 -2.75996 0
M  V30 6354 C 599.289 1.80867 -3.87906 0
M  V30 6355 C 598.615 3.13413 -4.33216 0
M  V30 6356 C 599.915 1.0903 -5.10793 0
M  V30 6357 H 601.609 0.350381 -2.97343 0
M  V30 6358 H 599.155 0.16709 -1.43027 0
M  V30 6359 H 601.108 2.77959 -3.16729 0
M  V30 6360 H 599.832 2.63227 -1.93337 0
M  V30 6361 H 598.491 1.16119 -3.47724 0
M  V30 6362 H 598.139 3.63725 -3.47438 0
M  V30 6363 H 597.839 2.94155 -5.08671 0
M  V30 6364 H 599.363 3.81704 -4.76586 0
M  V30 6365 H 600.777 1.66295 -5.48652 0
M  V30 6366 H 599.174 0.99927 -5.91722 0
M  V30 6367 H 600.244 0.0741704 -4.84843 0
M  V30 6368 N 601.587 1.56661 0.17182 0
M  V30 6369 C 602.834 1.81965 0.888529 0
M  V30 6370 C 603.162 0.6789 1.82267 0
M  V30 6371 O 602.417 -0.333875 1.92831 0
M  V30 6372 C 602.716 3.13435 1.71736 0
M  V30 6373 C 602.382 4.41159 0.932184 0
M  V30 6374 C 601.044 4.75851 0.715481 0
M  V30 6375 C 603.396 5.19803 0.381387 0
M  V30 6376 C 600.724 5.86666 -0.063126 0
M  V30 6377 C 603.076 6.31433 -0.384129 0
M  V30 6378 C 601.74 6.64692 -0.611637 0
M  V30 6379 H 601.01 0.665859 0.325136 0
M  V30 6380 H 603.657 1.90884 0.153495 0
M  V30 6381 H 601.962 2.99857 2.52177 0
M  V30 6382 H 603.659 3.30224 2.27493 0
M  V30 6383 H 600.249 4.13947 1.11112 0
M  V30 6384 H 604.433 4.93396 0.536148 0
M  V30 6385 H 599.689 6.10892 -0.249136 0
M  V30 6386 H 603.863 6.91577 -0.818185 0
M  V30 6387 H 601.49 7.50398 -1.21684 0
M  V30 6388 N 603.065 -0.440357 1.51323 0
M  V30 6389 C 604.312 -1.19004 1.63842 0
M  V30 6390 C 604.64 -1.91266 0.35321 0
M  V30 6391 O 603.895 -1.84143 -0.662565 0
M  V30 6392 C 604.194 -2.2339 2.78984 0
M  V30 6393 C 603.86 -1.68162 4.18369 0
M  V30 6394 C 602.522 -1.52823 4.56288 0
M  V30 6395 C 604.874 -1.27524 5.05358 0
M  V30 6396 C 602.202 -0.953157 5.78906 0
M  V30 6397 C 604.554 -0.714474 6.28552 0
M  V30 6398 C 603.218 -0.547961 6.65247 0
M  V30 6399 H 602.488 -0.435468 0.59954 0
M  V30 6400 H 605.135 -0.481538 1.85347 0
M  V30 6401 H 603.44 -3.00267 2.51688 0
M  V30 6402 H 605.137 -2.81211 2.85869 0
M  V30 6403 H 601.727 -1.81077 3.8847 0
M  V30 6404 H 605.911 -1.38197 4.76671 0
M  V30 6405 H 601.167 -0.811882 6.05986 0
M  V30 6406 H 605.341 -0.391059 6.95301 0
M  V30 6407 H 602.968 -0.100222 7.60134 0
M  V30 6408 N 604.543 -1.41418 -0.695603 0
M  V30 6409 C 605.791 -1.40496 -1.45277 0
M  V30 6410 C 606.112 -0.0149538 -1.94994 0
M  V30 6411 O 605.382 0.9432 -1.71699 0
M  V30 6412 H 603.962 -0.517147 -0.539044 0
M  V30 6413 H 606.624 -1.76656 -0.823321 0
M  V30 6414 H 605.72 -2.09214 -2.31595 0
M  V30 6415 N 606.021 0.929856 -1.27246 0
M  V30 6416 C 607.437 1.20542 -1.04603 0
M  V30 6417 C 607.637 2.00276 0.221754 0
M  V30 6418 O 606.693 2.34835 0.927833 0
M  V30 6419 C 608.006 1.95566 -2.28417 0
M  V30 6420 C 609.554 2.08513 -2.33433 0
M  V30 6421 C 610.029 2.86943 -3.5697 0
M  V30 6422 N 611.52 2.94512 -3.57515 0
M  V30 6423 C 612.255 3.55656 -4.49774 0
M  V30 6424 N 611.751 4.18209 -5.52334 0
M  V30 6425 N 613.544 3.53038 -4.37402 0
M  V30 6426 H 605.695 0.397113 -2.08655 0
M  V30 6427 H 607.958 0.238277 -0.917566 0
M  V30 6428 H 607.664 1.44395 -3.20691 0
M  V30 6429 H 607.538 2.9619 -2.33563 0
M  V30 6430 H 609.925 2.58872 -1.41666 0
M  V30 6431 H 610.006 1.07117 -2.32292 0
M  V30 6432 H 609.65 2.37268 -4.49072 0
M  V30 6433 H 609.58 3.8862 -3.55362 0
M  V30 6434 H 612.071 2.50053 -2.83341 0
M  V30 6435 H 612.384 4.62796 -6.18902 0
M  V30 6436 H 610.729 4.16761 -5.56179 0
M  V30 6437 H 613.92 3.0337 -3.56489 0
M  V30 6438 H 614.093 4.004 -5.09493 0
M  V30 6439 N 607.499 1.09233 1.13605 0
M  V30 6440 C 608.746 0.827159 1.84836 0
M  V30 6441 C 609.074 -0.647199 1.83416 0
M  V30 6442 O 608.329 -1.49228 1.26608 0
M  V30 6443 C 608.628 1.305 3.32723 0
M  V30 6444 C 608.294 2.78864 3.54325 0
M  V30 6445 C 606.956 3.19382 3.59928 0
M  V30 6446 C 609.308 3.74532 3.62457 0
M  V30 6447 C 606.636 4.54346 3.71196 0
M  V30 6448 C 608.988 5.09283 3.75252 0
M  V30 6449 C 607.652 5.49394 3.79108 0
M  V30 6450 H 606.922 0.302679 0.676363 0
M  V30 6451 H 609.569 1.36676 1.34134 0
M  V30 6452 H 607.874 0.68517 3.85762 0
M  V30 6453 H 609.571 1.07648 3.86281 0
M  V30 6454 H 606.161 2.46507 3.50617 0
M  V30 6455 H 610.345 3.44343 3.57409 0
M  V30 6456 H 605.601 4.84864 3.72447 0
M  V30 6457 H 609.775 5.83269 3.80487 0
M  V30 6458 H 607.402 6.5397 3.87591 0
M  V30 6459 N 608.977 -1.30795 0.87923 0
M  V30 6460 C 610.202 -2.01063 0.508769 0
M  V30 6461 C 610.627 -1.65508 -0.893803 0
M  V30 6462 O 609.985 -0.868616 -1.59138 0
M  V30 6463 C 610.033 -3.54054 0.683991 0
M  V30 6464 O 609.137 -4.11498 -0.272654 0
M  V30 6465 H 608.478 -0.632786 0.201191 0
M  V30 6466 H 611.008 -1.66776 1.18519 0
M  V30 6467 H 611.018 -4.03845 0.580798 0
M  V30 6468 H 609.693 -3.79271 1.70665 0
M  V30 6469 H 608.27 -3.72695 -0.12364 0
M  V30 6470 N 610.455 -0.639598 -1.44038 0
M  V30 6471 C 611.68 -0.153117 -2.06834 0
M  V30 6472 C 612.105 1.16676 -1.47541 0
M  V30 6473 O 611.463 1.71769 -0.580093 0
M  V30 6474 C 611.511 -0.0609169 -3.60549 0
M  V30 6475 O 610.615 0.98071 -4.00569 0
M  V30 6476 H 609.956 -0.0886402 -0.658057 0
M  V30 6477 H 612.486 -0.878674 -1.84771 0
M  V30 6478 H 612.496 0.126892 -4.07803 0
M  V30 6479 H 611.171 -1.0245 -4.03084 0
M  V30 6480 H 609.748 0.766789 -3.64931 0
M  V30 6481 N 611.933 1.52934 -0.380664 0
M  V30 6482 C 613.344 1.86457 0.0952684 0
M  V30 6483 C 613.695 1.3007 1.46889 0
M  V30 6484 O 612.82 0.628636 2.07068 0
M  V30 6485 C 613.415 3.38323 0.179648 0
M  V30 6486 C 611.974 3.71589 0.599858 0
M  V30 6487 C 611.121 2.76228 -0.243572 0
M  V30 6488 H 614.072 1.46966 -0.59888 0
M  V30 6489 H 614.093 3.67113 1.00042 0
M  V30 6490 H 613.605 3.79333 -0.820228 0
M  V30 6491 H 611.706 3.36144 1.60742 0
M  V30 6492 H 611.819 4.77715 0.364003 0
M  V30 6493 H 610.183 2.53045 0.289855 0
M  V30 6494 H 610.966 3.20074 -1.24127 0
M  V30 6495 O 613.45 0.250515 1.59545 0
M  V30 6496 H 614.141 -0.324371 1.90965 0
M  V30 END ATOM
M  V30 BEGIN BOND
M  V30 END BOND
M  V30 END CTAB
M  END
$$$$
