drugbank_target|P05102 Modification methylase HhaI (DB01752)
 OpenBabel12092120223D

  0  0  0     0  0            999 V3000
M  V30 BEGIN CTAB
M  V30 COUNTS 5193 5248 0 0 0
M  V30 BEGIN ATOM
M  V30 1 H -0.908 1.98254 -0.117106 0
M  V30 2 N 0 1.576 0 0
M  V30 3 C 0.933 2.03868 1.02534 0
M  V30 4 C 1.911 0.928543 1.3348 0
M  V30 5 O 3.095 1.19667 1.45644 0
M  V30 6 C 0.222 2.43627 2.35294 0
M  V30 7 C -0.732 3.65373 2.2001 0
M  V30 8 S 0.101 5.13292 1.52614 0
M  V30 9 C 1.257 5.56322 2.86805 0
M  V30 10 H 1.49 2.90518 0.631377 0
M  V30 11 H -0.977 1.52953 0.210867 0
M  V30 12 H 0.981 2.67203 3.11629 0
M  V30 13 H -0.358 1.57376 2.7183 0
M  V30 14 H -1.165 3.90944 3.18086 0
M  V30 15 H -1.563 3.418 1.51819 0
M  V30 16 H 0.729 5.58782 3.83104 0
M  V30 17 H 1.672 6.56266 2.65933 0
M  V30 18 H 2.08 4.83886 2.90714 0
M  V30 19 N 1.4781 -0.272755 1.55222 0
M  V30 20 C 2.7271 -1.00211 1.75045 0
M  V30 21 C 3.0401 -1.87441 0.559046 0
M  V30 22 O 4.2461 -2.63856 0.639698 0
M  V30 23 C 2.7021 -1.83165 3.09804 0
M  V30 24 C 2.3101 -1.008 4.36513 0
M  V30 25 C 4.0541 -2.55529 3.38977 0
M  V30 26 C 1.9611 -1.83194 5.62311 0
M  V30 27 H 0.8911 -0.377878 0.652476 0
M  V30 28 H 3.5421 -0.257776 1.8168 0
M  V30 29 H 1.9241 -2.61694 2.97207 0
M  V30 30 H 3.0981 -0.266855 4.60027 0
M  V30 31 H 1.4131 -0.398897 4.14485 0
M  V30 32 H 4.0101 -3.17578 4.30172 0
M  V30 33 H 4.3531 -3.25825 2.59121 0
M  V30 34 H 4.8861 -1.84029 3.52673 0
M  V30 35 H 1.6251 -1.17318 6.44916 0
M  V30 36 H 1.1451 -2.54905 5.4294 0
M  V30 37 H 2.8241 -2.40552 6.00619 0
M  V30 38 N 2.9562 -1.48159 -0.537278 0
M  V30 39 C 3.8662 -1.64807 -1.6696 0
M  V30 40 C 4.8822 -0.530651 -1.65711 0
M  V30 41 O 6.0582 -0.800784 -1.84796 0
M  V30 42 C 3.1232 -1.67708 -3.03438 0
M  V30 43 C 2.1842 -2.91025 -3.156 0
M  V30 44 C 1.4172 -2.93778 -4.45567 0
M  V30 45 O 1.6402 -2.05153 -5.3223 0
M  V30 46 O 0.5742 -3.85868 -4.61941 0
M  V30 47 H 4.4002 -2.6066 -1.55853 0
M  V30 48 H 1.9852 -1.31475 -0.709549 0
M  V30 49 H 3.8672 -1.7218 -3.84619 0
M  V30 50 H 2.5422 -0.750278 -3.14885 0
M  V30 51 H 1.4492 -2.92089 -2.33741 0
M  V30 52 H 2.7822 -3.83065 -3.09066 0
M  V30 53 N 4.4343 0.785586 -1.36625 0
M  V30 54 C 5.6833 1.53883 -1.30396 0
M  V30 55 C 5.9963 1.95271 0.113452 0
M  V30 56 O 7.2023 2.69858 0.298142 0
M  V30 57 C 5.6583 2.77808 -2.28802 0
M  V30 58 C 5.2663 2.43574 -3.75999 0
M  V30 59 C 7.0103 3.55783 -2.31558 0
M  V30 60 C 4.9173 3.63919 -4.66173 0
M  V30 61 H 3.8473 0.577678 -0.484566 0
M  V30 62 H 6.4983 0.861705 -1.62009 0
M  V30 63 H 4.8803 3.47339 -1.90188 0
M  V30 64 H 6.0543 1.81916 -4.23371 0
M  V30 65 H 4.3693 1.78803 -3.76056 0
M  V30 66 H 6.9663 4.45205 -2.96137 0
M  V30 67 H 7.3093 3.94644 -1.3252 0
M  V30 68 H 7.8423 2.93235 -2.68809 0
M  V30 69 H 4.5813 3.3015 -5.66287 0
M  V30 70 H 4.1013 4.2473 -4.23515 0
M  V30 71 H 5.7803 4.30901 -4.82632 0
M  V30 72 N 5.9124 1.20967 1.01018 0
M  V30 73 C 6.8594 0.964281 2.09691 0
M  V30 74 C 7.8294 -0.107853 1.65749 0
M  V30 75 O 9.0144 0.0381987 1.90762 0
M  V30 76 C 6.1544 0.52943 3.41015 0
M  V30 77 C 5.2674 1.67043 3.98398 0
M  V30 78 C 4.4024 1.18525 5.17808 0
M  V30 79 C 3.4414 2.29892 5.67288 0
M  V30 80 N 2.5784 1.82546 6.77954 0
M  V30 81 H 7.4184 1.89463 2.30017 0
M  V30 82 H 4.9554 0.944289 1.1279 0
M  V30 83 H 6.9134 0.258588 4.16398 0
M  V30 84 H 5.5434 -0.363919 3.20742 0
M  V30 85 H 4.5954 2.05603 3.20049 0
M  V30 86 H 5.9074 2.50877 4.31117 0
M  V30 87 H 5.0614 0.870762 6.00419 0
M  V30 88 H 3.8004 0.316887 4.86669 0
M  V30 89 H 2.8054 2.6215 4.83278 0
M  V30 90 H 4.0304 3.17216 6.00459 0
M  V30 91 H 1.9764 0.980454 6.48632 0
M  V30 92 H 1.8934 2.59956 7.09901 0
M  V30 93 H 3.1614 1.54115 7.64113 0
M  V30 94 N 7.3905 -1.2043 1.01659 0
M  V30 95 C 8.6675 -1.8548 0.621004 0
M  V30 96 C 9.0475 -1.9091 -0.900919 0
M  V30 97 O 8.3955 -1.41694 -1.79263 0
M  V30 98 C 8.6055 -3.25119 1.2688 0
M  V30 99 C 9.9535 -4.01403 1.38423 0
M  V30 100 O 10.9775 -3.34473 1.22501 0
M  V30 101 O 9.8365 -5.21265 1.64151 0
M  V30 102 H 6.9305 -0.798761 0.214266 0
M  V30 103 H 9.4765 -1.28019 1.11396 0
M  V30 104 H 8.2485 -3.15932 2.30873 0
M  V30 105 H 7.8715 -3.90212 0.762917 0
M  V30 106 N 8.8686 -0.792821 -1.36206 0
M  V30 107 C 9.8156 -0.191653 -2.30003 0
M  V30 108 C 10.7856 0.666453 -1.52143 0
M  V30 109 O 11.9706 0.61442 -1.80636 0
M  V30 110 C 9.1106 0.664848 -3.38635 0
M  V30 111 C 8.2236 -0.212175 -4.31479 0
M  V30 112 C 7.3586 0.651022 -5.27196 0
M  V30 113 C 6.3976 -0.227247 -6.11678 0
M  V30 114 N 5.5346 0.595127 -6.99573 0
M  V30 115 H 10.3746 -0.996978 -2.80828 0
M  V30 116 H 7.9116 -0.503206 -1.38225 0
M  V30 117 H 9.8696 1.17645 -4.00269 0
M  V30 118 H 8.4996 1.43557 -2.89122 0
M  V30 119 H 7.5516 -0.841777 -3.70969 0
M  V30 120 H 8.8636 -0.888751 -4.90818 0
M  V30 121 H 8.0176 1.2283 -5.94136 0
M  V30 122 H 6.7566 1.36121 -4.68319 0
M  V30 123 H 5.7616 -0.816904 -5.43697 0
M  V30 124 H 6.9866 -0.93509 -6.72631 0
M  V30 125 H 4.9326 1.28955 -6.432 0
M  V30 126 H 4.8496 -0.0236952 -7.55996 0
M  V30 127 H 6.1176 1.15613 -7.70879 0
M  V30 128 N 10.3467 1.47872 -0.545128 0
M  V30 129 C 11.2787 2.27869 0.246621 0
M  V30 130 C 12.2917 1.36282 0.890561 0
M  V30 131 O 13.4807 1.61207 0.766449 0
M  V30 132 C 10.5807 3.10159 1.36582 0
M  V30 133 C 9.7537 4.29627 0.820954 0
M  V30 134 C 8.8127 4.93607 1.82314 0
M  V30 135 O 7.8387 5.52366 1.37406 0
M  V30 136 N 9.0407 4.87211 3.15603 0
M  V30 137 H 11.8057 2.96459 -0.439539 0
M  V30 138 H 9.3667 1.57367 -0.380421 0
M  V30 139 H 11.3587 3.49829 2.03474 0
M  V30 140 H 9.9287 2.43891 1.9554 0
M  V30 141 H 9.1487 3.94192 -0.0244032 0
M  V30 142 H 10.4367 5.06928 0.436063 0
M  V30 143 H 9.8347 4.40651 3.54744 0
M  V30 144 H 8.3917 5.30937 3.78087 0
M  V30 145 N 11.8248 0.280983 1.55075 0
M  V30 146 C 12.7548 -0.597469 2.25727 0
M  V30 147 C 13.7358 -1.15417 1.24952 0
M  V30 148 O 14.9208 -1.18722 1.53684 0
M  V30 149 C 12.0508 -1.7789 2.98283 0
M  V30 150 C 11.0048 -1.35347 4.06036 0
M  V30 151 C 10.3308 -2.61846 4.66198 0
M  V30 152 C 11.6308 -0.499354 5.19907 0
M  V30 153 H 13.3248 -0.00824265 2.99399 0
M  V30 154 H 10.8708 -0.0025244 1.44 0
M  V30 155 H 12.8238 -2.39937 3.46422 0
M  V30 156 H 11.5478 -2.39405 2.22155 0
M  V30 157 H 10.2068 -0.756156 3.58717 0
M  V30 158 H 9.8548 -3.21632 3.86732 0
M  V30 159 H 9.5548 -2.3409 5.38958 0
M  V30 160 H 11.0788 -3.24732 5.1709 0
M  V30 161 H 12.4928 -1.02498 5.64063 0
M  V30 162 H 10.8898 -0.316424 5.99265 0
M  V30 163 H 11.9598 0.480459 4.82514 0
M  V30 164 N 13.3029 -1.57598 0.00835791 0
M  V30 165 C 14.5309 -1.95214 -0.68549 0
M  V30 166 C 14.9459 -0.883706 -1.66841 0
M  V30 167 O 14.3029 0.136565 -1.81988 0
M  V30 168 C 14.3539 -3.32865 -1.41007 0
M  V30 169 O 14.0749 -4.35609 -0.466552 0
M  V30 170 C 15.5759 -3.84991 -2.19765 0
M  V30 171 H 12.7959 -0.643422 -0.190392 0
M  V30 172 H 15.3399 -2.04406 0.0619607 0
M  V30 173 H 13.4949 -3.24956 -2.10908 0
M  V30 174 H 13.9089 -5.15288 -0.978699 0
M  V30 175 H 15.3829 -4.8371 -2.65948 0
M  V30 176 H 15.8599 -3.18137 -3.02796 0
M  V30 177 H 16.4659 -3.96103 -1.54864 0
M  V30 178 N 14.781 0.264519 -1.55364 0
M  V30 179 C 16.029 0.993021 -1.76021 0
M  V30 180 C 16.35 1.86511 -0.569099 0
M  V30 181 O 15.62 1.91438 0.415735 0
M  V30 182 H 14.2 0.369639 -0.649135 0
M  V30 183 H 16.862 0.286707 -1.9278 0
M  V30 184 H 15.958 1.62502 -2.66457 0
M  V30 185 N 16.2591 1.48442 0.529413 0
M  V30 186 C 17.1891 1.65902 1.64313 0
M  V30 187 C 18.1701 0.507897 1.6234 0
M  V30 188 O 19.3551 0.740503 1.79528 0
M  V30 189 C 16.4851 1.69911 3.02898 0
M  V30 190 C 15.4391 2.8453 3.19729 0
M  V30 191 C 14.7651 2.73629 4.59381 0
M  V30 192 C 16.0651 4.25821 3.02447 0
M  V30 193 H 17.7591 2.5914 1.49955 0
M  V30 194 H 15.3051 1.24709 0.719982 0
M  V30 195 H 17.2581 1.80715 3.80684 0
M  V30 196 H 15.9821 0.732524 3.18279 0
M  V30 197 H 14.6411 2.73283 2.44361 0
M  V30 198 H 14.2891 1.74938 4.71599 0
M  V30 199 H 13.9891 3.50541 4.71588 0
M  V30 200 H 15.5131 2.86401 5.39265 0
M  V30 201 H 16.9271 4.37898 3.70024 0
M  V30 202 H 15.3241 5.03735 3.26146 0
M  V30 203 H 16.3941 4.42244 1.98867 0
M  V30 204 N 17.7372 -0.778329 1.37039 0
M  V30 205 C 19.1532 -1.07796 1.17695 0
M  V30 206 C 19.3532 -2.01498 0.00860115 0
M  V30 207 O 18.4092 -2.43901 -0.653352 0
M  V30 208 C 19.7222 -1.68178 2.49272 0
M  V30 209 C 21.2702 -1.80467 2.55735 0
M  V30 210 C 21.7452 -2.44263 3.87427 0
M  V30 211 N 23.2362 -2.51721 3.88833 0
M  V30 212 C 23.9712 -3.01919 4.87476 0
M  V30 213 N 23.4672 -3.5234 5.96513 0
M  V30 214 N 25.2602 -3.00733 4.74885 0
M  V30 215 H 17.4112 -0.156032 2.11826 0
M  V30 216 H 19.6742 -0.131844 0.938787 0
M  V30 217 H 19.3802 -1.06796 3.35093 0
M  V30 218 H 19.2542 -2.67554 2.65885 0
M  V30 219 H 21.6412 -2.40984 1.70325 0
M  V30 220 H 21.7222 -0.798656 2.43013 0
M  V30 221 H 21.3662 -1.84388 4.73248 0
M  V30 222 H 21.2962 -3.45458 3.9745 0
M  V30 223 H 23.7872 -2.1603 3.10063 0
M  V30 224 H 24.1002 -3.89027 6.67741 0
M  V30 225 H 22.4452 -3.50462 6.00168 0
M  V30 226 H 25.6362 -2.60638 3.88826 0
M  V30 227 H 25.8092 -3.39545 5.51918 0
M  V30 228 N 19.2153 -1.21501 -1.00376 0
M  V30 229 C 20.4623 -1.03299 -1.74171 0
M  V30 230 C 20.7903 0.433326 -1.89612 0
M  V30 231 O 20.0453 1.33779 -1.42834 0
M  V30 232 C 20.3443 -1.67673 -3.15627 0
M  V30 233 C 20.0103 -3.17533 -3.2013 0
M  V30 234 C 18.6723 -3.58427 -3.21067 0
M  V30 235 C 21.0243 -4.13504 -3.17275 0
M  V30 236 C 18.3523 -4.93794 -3.16835 0
M  V30 237 C 20.7043 -5.48834 -3.14585 0
M  V30 238 C 19.3683 -5.89123 -3.13831 0
M  V30 239 H 18.6383 -0.377999 -0.637336 0
M  V30 240 H 21.2853 -1.51111 -1.17634 0
M  V30 241 H 19.5903 -1.12158 -3.75404 0
M  V30 242 H 21.2873 -1.51091 -3.71446 0
M  V30 243 H 17.8773 -2.84965 -3.20145 0
M  V30 244 H 22.0613 -3.82936 -3.15711 0
M  V30 245 H 17.3173 -5.24255 -3.1459 0
M  V30 246 H 21.4913 -6.22934 -3.1133 0
M  V30 247 H 19.1183 -6.93984 -3.10307 0
M  V30 248 N 20.6934 1.19889 -1.02296 0
M  V30 249 C 21.9424 1.88743 -0.711257 0
M  V30 250 C 22.2554 1.80112 0.762817 0
M  V30 251 O 23.4614 2.44161 1.18733 0
M  V30 252 C 21.9174 3.38525 -1.22185 0
M  V30 253 C 21.5254 3.55727 -2.72328 0
M  V30 254 C 23.2694 4.12893 -0.985864 0
M  V30 255 C 21.1764 4.99369 -3.16835 0
M  V30 256 H 20.1064 0.706885 -0.262353 0
M  V30 257 H 22.7574 1.35586 -1.23648 0
M  V30 258 H 21.1394 3.91044 -0.624571 0
M  V30 259 H 22.3134 3.13564 -3.3766 0
M  V30 260 H 20.6284 2.94739 -2.9414 0
M  V30 261 H 23.2254 5.18813 -1.29374 0
M  V30 262 H 23.5684 4.16228 0.0775055 0
M  V30 263 H 24.1014 3.66494 -1.54684 0
M  V30 264 H 20.8404 5.01193 -4.22476 0
M  V30 265 H 20.3604 5.42317 -2.56228 0
M  V30 266 H 22.0394 5.67988 -3.09837 0
M  V30 267 N 22.1715 0.800033 1.35784 0
M  V30 268 C 23.4485 0.30088 1.93272 0
M  V30 269 C 23.8285 -1.20857 1.73081 0
M  V30 270 O 23.1765 -2.00502 1.09596 0
M  V30 271 C 23.3865 0.70511 3.41803 0
M  V30 272 C 24.7345 0.690871 4.18942 0
M  V30 273 O 25.7585 0.646244 3.50289 0
M  V30 274 O 24.6175 0.74332 5.41421 0
M  V30 275 H 21.7115 0.0771605 0.823393 0
M  V30 276 H 24.2575 0.88329 1.449 0
M  V30 277 H 23.0295 1.74571 3.50201 0
M  V30 278 H 22.6525 0.0971541 3.97481 0
M  V30 279 N 23.6496 -1.47581 0.552962 0
M  V30 280 C 24.5796 -2.32762 -0.185451 0
M  V30 281 C 25.5606 -1.43527 -0.912905 0
M  V30 282 O 26.7456 -1.72388 -0.894201 0
M  V30 283 C 23.8756 -3.25219 -1.21859 0
M  V30 284 C 22.8296 -4.23661 -0.607864 0
M  V30 285 C 22.1556 -5.05413 -1.74533 0
M  V30 286 C 23.4556 -5.20481 0.435582 0
M  V30 287 H 25.1496 -2.94749 0.525684 0
M  V30 288 H 22.6956 -1.41738 0.254251 0
M  V30 289 H 24.6486 -3.8365 -1.7433 0
M  V30 290 H 23.3726 -2.61279 -1.95961 0
M  V30 291 H 22.0316 -3.66451 -0.104489 0
M  V30 292 H 21.6796 -4.3788 -2.47529 0
M  V30 293 H 21.3796 -5.72059 -1.34249 0
M  V30 294 H 22.9036 -5.66701 -2.27338 0
M  V30 295 H 24.3176 -5.733 -0.00290157 0
M  V30 296 H 22.7146 -5.95305 0.757067 0
M  V30 297 H 23.7846 -4.66217 1.33303 0
M  V30 298 N 25.1277 -0.289203 -1.54924 0
M  V30 299 C 26.3747 0.323519 -1.99899 0
M  V30 300 C 26.7027 1.54797 -1.17762 0
M  V30 301 O 25.9577 1.94237 -0.238835 0
M  V30 302 C 26.2567 0.736119 -3.49737 0
M  V30 303 C 25.9227 -0.385276 -4.49251 0
M  V30 304 C 24.5847 -0.693156 -4.76181 0
M  V30 305 C 26.9367 -1.14021 -5.08575 0
M  V30 306 C 24.2647 -1.7593 -5.59701 0
M  V30 307 C 26.6167 -2.19619 -5.93254 0
M  V30 308 C 25.2807 -2.51026 -6.185 0
M  V30 309 H 24.5507 0.118384 -0.731482 0
M  V30 310 H 27.1977 -0.405847 -1.8715 0
M  V30 311 H 25.5027 1.54539 -3.60035 0
M  V30 312 H 27.1997 1.22118 -3.81953 0
M  V30 313 H 23.7897 -0.135202 -4.28387 0
M  V30 314 H 27.9737 -0.915611 -4.87781 0
M  V30 315 H 23.2297 -2.0075 -5.77503 0
M  V30 316 H 27.4037 -2.78581 -6.38252 0
M  V30 317 H 25.0307 -3.33772 -6.83008 0
M  V30 318 N 26.6058 1.57591 -0.0167156 0
M  V30 319 C 27.5688 2.08393 0.954204 0
M  V30 320 C 28.5688 0.996531 1.26198 0
M  V30 321 O 29.7588 1.25858 1.20438 0
M  V30 322 C 26.8908 2.5394 2.27436 0
M  V30 323 H 28.0838 2.95455 0.514451 0
M  V30 324 H 25.6368 1.54582 0.231089 0
M  V30 325 H 26.3718 1.70171 2.76066 0
M  V30 326 H 26.1568 3.33371 2.06412 0
M  V30 327 H 27.6468 2.93512 2.97053 0
M  V30 328 N 28.0839 -0.256276 1.55502 0
M  V30 329 C 29.3319 -0.983672 1.76545 0
M  V30 330 C 29.6529 -1.86206 0.578982 0
M  V30 331 O 28.9229 -1.91656 -0.405577 0
M  V30 332 H 27.5029 -0.366191 0.651086 0
M  V30 333 H 30.1649 -0.276479 1.92929 0
M  V30 334 H 29.2609 -1.61087 2.67315 0
M  V30 335 N 29.562 -1.4872 -0.521534 0
M  V30 336 C 30.492 -1.66771 -1.63431 0
M  V30 337 C 31.473 -0.516499 -1.62069 0
M  V30 338 O 32.658 -0.750013 -1.79132 0
M  V30 339 C 29.788 -1.71515 -3.01993 0
M  V30 340 C 28.742 -2.86222 -3.18216 0
M  V30 341 C 28.068 -2.76061 -4.57924 0
M  V30 342 C 29.368 -4.27419 -3.00184 0
M  V30 343 H 31.062 -2.59932 -1.48579 0
M  V30 344 H 28.608 -1.25089 -0.713358 0
M  V30 345 H 30.561 -1.82731 -3.7972 0
M  V30 346 H 29.285 -0.749393 -3.17886 0
M  V30 347 H 27.944 -2.74575 -2.42908 0
M  V30 348 H 27.592 -1.77437 -4.70665 0
M  V30 349 H 27.292 -3.53037 -4.69722 0
M  V30 350 H 28.816 -2.89256 -5.37739 0
M  V30 351 H 30.23 -4.39855 -3.67697 0
M  V30 352 H 28.627 -5.05458 -3.2347 0
M  V30 353 H 29.697 -4.43293 -1.96518 0
M  V30 354 N 31.0401 0.771051 -1.3745 0
M  V30 355 C 32.2881 1.52661 -1.32435 0
M  V30 356 C 32.6091 1.9479 0.0905024 0
M  V30 357 O 31.8791 1.66348 1.03466 0
M  V30 358 H 30.4591 0.566218 -0.487244 0
M  V30 359 H 33.1211 0.917636 -1.71946 0
M  V30 360 H 32.2171 2.42568 -1.96385 0
M  V30 361 N 32.5182 1.22032 0.997298 0
M  V30 362 C 33.7662 1.04016 1.73278 0
M  V30 363 C 34.0872 -0.426255 1.90284 0
M  V30 364 O 33.3572 -1.30694 1.45931 0
M  V30 365 H 31.9372 0.381897 0.642 0
M  V30 366 H 34.5992 1.5347 1.20137 0
M  V30 367 H 33.6952 1.51441 2.72896 0
M  V30 368 N 33.9963 -1.19345 1.0293 0
M  V30 369 C 35.2433 -1.89038 0.726008 0
M  V30 370 C 35.5713 -1.79649 -0.745427 0
M  V30 371 O 34.8263 -1.18354 -1.55855 0
M  V30 372 C 35.1253 -3.39292 1.12319 0
M  V30 373 C 34.7913 -3.68885 2.59297 0
M  V30 374 C 33.4533 -3.76671 2.99453 0
M  V30 375 C 35.8053 -3.82178 3.54386 0
M  V30 376 C 33.1333 -3.9522 4.33611 0
M  V30 377 C 35.4853 -4.0224 4.88248 0
M  V30 378 C 34.1493 -4.08259 5.28092 0
M  V30 379 H 33.4193 -0.691739 0.265665 0
M  V30 380 H 36.0663 -1.41328 1.29223 0
M  V30 381 H 34.3713 -3.88903 0.475584 0
M  V30 382 H 36.0683 -3.91536 0.866037 0
M  V30 383 H 32.6583 -3.63433 2.27189 0
M  V30 384 H 36.8423 -3.75505 3.24514 0
M  V30 385 H 32.0983 -3.98119 4.64016 0
M  V30 386 H 36.2723 -4.11468 5.61843 0
M  V30 387 H 33.8993 -4.22384 6.32057 0
M  V30 388 N 35.4744 -0.807222 -1.35358 0
M  V30 389 C 36.8904 -0.491038 -1.51858 0
M  V30 390 C 37.0904 0.987648 -1.75635 0
M  V30 391 O 36.1464 1.77265 -1.79815 0
M  V30 392 C 37.4594 -1.33695 -2.69344 0
M  V30 393 C 39.0074 -1.33246 -2.83222 0
M  V30 394 C 39.4824 -2.1625 -4.03733 0
M  V30 395 N 40.9734 -2.1379 -4.10911 0
M  V30 396 C 41.7084 -2.74772 -5.03277 0
M  V30 397 N 41.2044 -3.44684 -6.0097 0
M  V30 398 N 42.9974 -2.6441 -4.96028 0
M  V30 399 H 35.1484 -1.76485 -1.18181 0
M  V30 400 H 37.4114 -0.751199 -0.578276 0
M  V30 401 H 37.1174 -2.38634 -2.58354 0
M  V30 402 H 36.9914 -0.990618 -3.6396 0
M  V30 403 H 39.3784 -0.290911 -2.93663 0
M  V30 404 H 39.4594 -1.71866 -1.89461 0
M  V30 405 H 39.1034 -3.20445 -3.94052 0
M  V30 406 H 39.0334 -1.74989 -4.96675 0
M  V30 407 H 41.5244 -1.62923 -3.40976 0
M  V30 408 H 41.8374 -3.88501 -6.68047 0
M  V30 409 H 40.1824 -3.48788 -6.01142 0
M  V30 410 H 43.3734 -2.0938 -4.18662 0
M  V30 411 H 43.5464 -3.12225 -5.6782 0
M  V30 412 N 36.9525 1.47285 -0.560781 0
M  V30 413 C 37.8825 2.32857 0.173105 0
M  V30 414 C 38.8635 1.44009 0.905281 0
M  V30 415 O 40.0485 1.7286 0.885046 0
M  V30 416 C 37.1785 3.25861 1.20133 0
M  V30 417 C 36.1325 4.23978 0.585388 0
M  V30 418 C 35.4585 5.06332 1.7185 0
M  V30 419 C 36.7585 5.20242 -0.463178 0
M  V30 420 H 38.4525 2.94466 -0.541307 0
M  V30 421 H 35.9985 1.41601 -0.261764 0
M  V30 422 H 37.9515 3.84569 1.72293 0
M  V30 423 H 36.6755 2.62315 1.94573 0
M  V30 424 H 35.3345 3.66501 0.085054 0
M  V30 425 H 34.9825 4.39186 2.45203 0
M  V30 426 H 34.6825 5.72762 1.31213 0
M  V30 427 H 36.2065 5.67899 2.24329 0
M  V30 428 H 37.6205 5.73293 -0.027502 0
M  V30 429 H 36.0175 5.94896 -0.788627 0
M  V30 430 H 37.0875 4.65504 -1.35773 0
M  V30 431 N 38.4306 0.297415 1.54768 0
M  V30 432 C 39.3936 -0.567375 2.22066 0
M  V30 433 C 40.3936 -1.06409 1.20556 0
M  V30 434 O 41.5836 -0.960691 1.45315 0
M  V30 435 C 38.7156 -1.78517 2.90421 0
M  V30 436 H 39.9086 0.0205534 2.99893 0
M  V30 437 H 37.4616 0.0482163 1.56226 0
M  V30 438 H 38.1966 -2.41303 2.16664 0
M  V30 439 H 37.9816 -1.43669 3.64831 0
M  V30 440 H 39.4716 -2.39964 3.41771 0
M  V30 441 N 39.9087 -1.5758 0.0250728 0
M  V30 442 C 40.8387 -2.13007 -0.956575 0
M  V30 443 C 41.8197 -1.0452 -1.342 0
M  V30 444 O 43.0047 -1.32332 -1.42133 0
M  V30 445 C 40.1347 -2.65386 -2.24026 0
M  V30 446 C 39.0887 -3.78623 -1.99571 0
M  V30 447 C 38.4147 -4.17414 -3.3417 0
M  V30 448 C 39.7147 -5.04867 -1.33814 0
M  V30 449 H 41.4087 -2.9528 -0.494991 0
M  V30 450 H 38.9547 -1.42042 -0.236651 0
M  V30 451 H 40.9077 -3.02794 -2.93076 0
M  V30 452 H 39.6317 -1.80268 -2.72343 0
M  V30 453 H 38.2907 -3.41646 -1.32941 0
M  V30 454 H 37.9387 -3.29284 -3.80238 0
M  V30 455 H 37.6387 -4.93719 -3.18615 0
M  V30 456 H 39.1627 -4.57402 -4.04495 0
M  V30 457 H 40.5767 -5.39888 -1.92857 0
M  V30 458 H 38.9737 -5.86144 -1.28669 0
M  V30 459 H 40.0437 -4.83904 -0.310561 0
M  V30 460 N 41.3868 0.248026 -1.55636 0
M  V30 461 C 42.2968 1.32859 -1.93354 0
M  V30 462 C 43.3128 1.52719 -0.833838 0
M  V30 463 O 44.4888 1.66363 -1.13513 0
M  V30 464 C 41.5538 2.66337 -2.21958 0
M  V30 465 C 40.6148 2.55008 -3.45354 0
M  V30 466 C 39.8478 3.82121 -3.72584 0
M  V30 467 O 40.0708 4.83951 -3.01907 0
M  V30 468 O 39.0048 3.80822 -4.6611 0
M  V30 469 H 42.8308 1.03862 -2.85388 0
M  V30 470 H 40.4158 0.448686 -1.42503 0
M  V30 471 H 42.2978 3.45216 -2.4167 0
M  V30 472 H 40.9728 2.95068 -1.33103 0
M  V30 473 H 39.8798 1.7442 -3.30951 0
M  V30 474 H 41.2128 2.31222 -4.34508 0
M  V30 475 N 42.8649 1.48995 0.513639 0
M  V30 476 C 44.0899 1.61792 1.29762 0
M  V30 477 C 44.5149 0.284475 1.85936 0
M  V30 478 O 43.8729 -0.746185 1.65232 0
M  V30 479 C 43.9209 2.67993 2.41272 0
M  V30 480 O 43.0249 2.26287 3.44772 0
M  V30 481 H 42.3659 0.541963 0.38363 0
M  V30 482 H 44.8959 1.95097 0.616307 0
M  V30 483 H 44.9059 2.89772 2.87221 0
M  V30 484 H 43.5809 3.64791 1.9975 0
M  V30 485 H 42.1579 2.14788 3.04829 0
M  V30 486 N 44.343 -0.763751 1.37857 0
M  V30 487 C 45.583 -1.53551 1.34913 0
M  V30 488 C 45.947 -1.91895 -0.0635882 0
M  V30 489 O 47.148 -2.67916 -0.217825 0
M  V30 490 C 45.419 -2.76126 2.26912 0
M  V30 491 S 46.978 -3.66105 2.41893 0
M  V30 492 H 43.796 -0.52559 0.478828 0
M  V30 493 H 46.398 -0.897435 1.73685 0
M  V30 494 H 45.102 -2.4605 3.28463 0
M  V30 495 H 44.633 -3.44887 1.89253 0
M  V30 496 H 46.648 -4.68473 1.63545 0
M  V30 497 N 45.8211 -1.22559 -0.990812 0
M  V30 498 C 47.0691 -1.04933 -1.72724 0
M  V30 499 C 47.3901 0.416158 -1.90508 0
M  V30 500 O 46.6601 1.29918 -1.46622 0
M  V30 501 H 45.2401 -0.385296 -0.639965 0
M  V30 502 H 47.9021 -1.54105 -1.19322 0
M  V30 503 H 46.9981 -1.52886 -2.72089 0
M  V30 504 N 47.2992 1.18797 -1.03562 0
M  V30 505 C 48.2622 2.20464 -0.626769 0
M  V30 506 C 49.2622 1.57721 0.313173 0
M  V30 507 O 50.4522 1.73917 0.0992615 0
M  V30 508 C 47.5842 3.40802 0.0818498 0
M  V30 509 H 48.7772 2.58149 -1.5264 0
M  V30 510 H 46.3302 1.32593 -0.827578 0
M  V30 511 H 47.0652 3.08642 0.995518 0
M  V30 512 H 46.8502 3.8758 -0.593652 0
M  V30 513 H 48.3402 4.16092 0.354584 0
M  V30 514 N 48.7773 0.814389 1.34928 0
M  V30 515 C 49.6873 0.231978 2.3345 0
M  V30 516 C 50.7033 -0.629139 1.62228 0
M  V30 517 O 51.8793 -0.539052 1.94052 0
M  V30 518 C 48.9443 -0.603482 3.41407 0
M  V30 519 C 48.0053 0.279037 4.28392 0
M  V30 520 C 47.2383 -0.516643 5.31193 0
M  V30 521 O 47.4613 -1.75068 5.4287 0
M  V30 522 O 46.3953 0.0965652 6.01823 0
M  V30 523 H 50.2213 1.04721 2.85074 0
M  V30 524 H 47.8063 0.576343 1.37836 0
M  V30 525 H 49.6883 -1.07908 4.0735 0
M  V30 526 H 48.3633 -1.39618 2.92042 0
M  V30 527 H 47.2703 0.801948 3.65403 0
M  V30 528 H 48.6033 1.03588 4.81176 0
M  V30 529 N 50.2554 -1.46986 0.568584 0
M  V30 530 C 51.4954 -2.04336 0.0512999 0
M  V30 531 C 51.8594 -1.43214 -1.27881 0
M  V30 532 O 53.0604 -1.91679 -1.88448 0
M  V30 533 C 51.3314 -3.57389 -0.0282328 0
M  V30 534 S 52.8904 -4.36056 -0.489991 0
M  V30 535 H 49.7084 -0.71034 0.0306349 0
M  V30 536 H 52.3104 -1.80212 0.757891 0
M  V30 537 H 51.0144 -3.99395 0.944011 0
M  V30 538 H 50.5454 -3.86028 -0.75803 0
M  V30 539 H 52.5604 -4.6441 -1.74752 0
M  V30 540 N 51.7335 -0.305618 -1.54608 0
M  V30 541 C 52.9795 0.302746 -2.00528 0
M  V30 542 C 53.3125 1.53184 -1.19367 0
M  V30 543 O 52.5875 1.92598 -0.271321 0
M  V30 544 C 52.8705 0.654756 -3.54097 0
M  V30 545 C 52.7235 -0.583793 -4.45995 0
M  V30 546 C 54.0425 1.47947 -4.14487 0
M  V30 547 H 51.1615 0.108564 -0.72896 0
M  V30 548 H 53.8035 -0.418634 -1.85331 0
M  V30 549 H 51.9535 1.26935 -3.67178 0
M  V30 550 H 53.6255 -1.22224 -4.44814 0
M  V30 551 H 51.8685 -1.21615 -4.16404 0
M  V30 552 H 52.5395 -0.293287 -5.5122 0
M  V30 553 H 55.0155 0.96013 -4.04871 0
M  V30 554 H 53.8915 1.69454 -5.22088 0
M  V30 555 H 54.1525 2.47011 -3.66658 0
M  V30 556 N 53.2116 1.57565 -0.0334293 0
M  V30 557 C 54.4416 1.95996 0.653398 0
M  V30 558 C 54.8496 0.908749 1.65947 0
M  V30 559 O 54.1926 -0.117471 1.83324 0
M  V30 560 C 54.2546 3.30589 1.41249 0
M  V30 561 C 53.9186 4.53503 0.564263 0
M  V30 562 C 54.9156 5.19647 -0.16225 0
M  V30 563 C 52.6006 4.99801 0.500398 0
M  V30 564 C 54.5946 6.30412 -0.941255 0
M  V30 565 C 52.2816 6.10448 -0.282308 0
M  V30 566 C 53.2796 6.75612 -1.00184 0
M  V30 567 O 52.9676 7.84134 -1.77171 0
M  V30 568 H 52.6996 0.65027 0.184728 0
M  V30 569 H 55.2536 2.05199 -0.0907841 0
M  V30 570 H 53.4836 3.17888 2.20191 0
M  V30 571 H 55.1726 3.53892 1.98784 0
M  V30 572 H 55.9386 4.84846 -0.12227 0
M  V30 573 H 51.8176 4.48883 1.05002 0
M  V30 574 H 55.3616 6.81208 -1.50339 0
M  V30 575 H 51.2586 6.44686 -0.323989 0
M  V30 576 H 52.0266 8.00822 -1.69194 0
M  V30 577 N 54.6897 -0.239769 1.55765 0
M  V30 578 C 55.9147 -0.988373 1.82335 0
M  V30 579 C 56.3397 -1.77886 0.611421 0
M  V30 580 O 55.6977 -1.75889 -0.439639 0
M  V30 581 C 55.7457 -1.89627 3.06715 0
M  V30 582 O 54.8497 -2.98904 2.84131 0
M  V30 583 H 54.1907 -0.280858 0.601677 0
M  V30 584 H 56.7207 -0.258597 2.02959 0
M  V30 585 H 56.7307 -2.30957 3.36338 0
M  V30 586 H 55.4057 -1.31511 3.9456 0
M  V30 587 H 53.9827 -2.61651 2.65694 0
M  V30 588 N 56.1678 -1.49265 -0.50573 0
M  V30 589 C 57.1158 -1.66065 -1.62866 0
M  V30 590 C 58.1098 -0.526636 -1.61006 0
M  V30 591 O 59.3158 -0.706126 -1.65571 0
M  V30 592 H 55.6908 -0.52356 -0.539805 0
M  V30 593 H 57.6618 -2.60329 -1.45848 0
M  V30 594 C 56.4108 -1.74008 -3.01026 0
M  V30 595 H 55.7338 -2.6064 -3.03161 0
M  V30 596 H 57.1738 -1.89798 -3.79147 0
M  V30 597 C 55.6328 -0.483868 -3.33407 0
M  V30 598 O 56.1628 0.392548 -3.99777 0
M  V30 599 N 54.3688 -0.348236 -2.88506 0
M  V30 600 H 53.9158 -1.06242 -2.34671 0
M  V30 601 H 53.8738 0.491204 -3.10539 0
M  V30 602 N 57.6459 0.756429 -1.3826 0
M  V30 603 C 58.5559 1.9009 -1.37488 0
M  V30 604 C 59.5719 1.71855 -0.272366 0
M  V30 605 O 60.7479 1.94827 -0.510318 0
M  V30 606 C 57.8129 3.25421 -1.19592 0
M  V30 607 C 56.8739 3.56202 -2.39622 0
M  V30 608 C 56.1069 4.85075 -2.2257 0
M  V30 609 O 56.3299 5.57246 -1.21793 0
M  V30 610 O 55.2639 5.15269 -3.11098 0
M  V30 611 H 59.0899 1.93695 -2.33914 0
M  V30 612 H 56.6749 0.901313 -1.1915 0
M  V30 613 H 58.5569 4.06337 -1.11661 0
M  V30 614 H 57.2319 3.22634 -0.262486 0
M  V30 615 H 56.1389 2.75458 -2.53128 0
M  V30 616 H 57.4719 3.63747 -3.31586 0
M  V30 617 N 59.124 1.23083 0.984299 0
M  V30 618 C 60.37 1.07221 1.72845 0
M  V30 619 C 60.725 -0.387453 1.88458 0
M  V30 620 O 60.018 -1.28309 1.42293 0
M  V30 621 C 60.212 1.72673 3.1292 0
M  V30 622 C 60.041 3.24853 3.10967 0
M  V30 623 C 58.811 3.93998 3.16376 0
M  V30 624 C 61.009 4.21674 2.94441 0
M  V30 625 N 58.991 5.33192 3.04268 0
M  V30 626 C 60.362 5.47756 2.90453 0
M  V30 627 C 62.417 4.12457 2.78897 0
M  V30 628 C 61.12 6.6568 2.72512 0
M  V30 629 C 63.146 5.3004 2.62319 0
M  V30 630 C 62.508 6.55046 2.59026 0
M  V30 631 H 58.607 0.44685 0.641755 0
M  V30 632 H 61.191 1.55753 1.16829 0
M  V30 633 H 59.362 1.26679 3.67161 0
M  V30 634 H 61.094 1.49824 3.75945 0
M  V30 635 H 57.849 3.45052 3.24401 0
M  V30 636 H 58.273 6.06157 3.015 0
M  V30 637 H 62.915 3.16588 2.80235 0
M  V30 638 H 60.633 7.61689 2.69919 0
M  V30 639 H 64.219 5.24747 2.5126 0
M  V30 640 H 63.099 7.44498 2.46357 0
M  V30 641 N 60.6021 -1.18246 1.0419 0
M  V30 642 C 61.8791 -1.84121 0.660208 0
M  V30 643 C 62.2591 -1.92778 -0.860221 0
M  V30 644 O 61.6071 -1.45464 -1.76217 0
M  V30 645 C 61.8171 -3.22355 1.33747 0
M  V30 646 C 63.1651 -3.98376 1.46906 0
M  V30 647 O 64.1891 -3.31799 1.29568 0
M  V30 648 O 63.0481 -5.17665 1.75171 0
M  V30 649 H 60.1421 -0.794036 0.231161 0
M  V30 650 H 62.6881 -1.25628 1.14087 0
M  V30 651 H 61.4601 -3.10964 2.37522 0
M  V30 652 H 61.0831 -3.88506 0.845515 0
M  V30 653 N 62.0802 -0.821533 -1.34494 0
M  V30 654 C 63.0272 -0.240397 -2.29545 0
M  V30 655 C 63.9972 0.634031 -1.53523 0
M  V30 656 O 65.1822 0.575966 -1.81899 0
M  V30 657 C 62.3222 0.592869 -3.39969 0
M  V30 658 C 61.4352 -0.30365 -4.30932 0
M  V30 659 C 60.5702 0.539049 -5.28458 0
M  V30 660 C 59.6092 -0.356942 -6.11058 0
M  V30 661 N 58.7462 0.446603 -7.00678 0
M  V30 662 H 63.5862 -1.05632 -2.7865 0
M  V30 663 H 61.1232 -0.532413 -1.37127 0
M  V30 664 H 63.0812 1.09129 -4.02675 0
M  V30 665 H 61.7112 1.37392 -2.92102 0
M  V30 666 H 60.7632 -0.920276 -3.691 0
M  V30 667 H 62.0752 -0.992661 -4.88823 0
M  V30 668 H 61.2292 1.102 -5.96608 0
M  V30 669 H 59.9682 1.26157 -4.71101 0
M  V30 670 H 58.9732 -0.932047 -5.41842 0
M  V30 671 H 60.1982 -1.07755 -6.70497 0
M  V30 672 H 58.1442 1.15282 -6.45791 0
M  V30 673 H 58.0612 -0.184048 -7.55776 0
M  V30 674 H 59.3292 0.992352 -7.73158 0
M  V30 675 N 63.5583 1.46682 -0.576371 0
M  V30 676 C 64.7883 2.06498 -0.0648694 0
M  V30 677 C 65.1963 1.42665 1.24271 0
M  V30 678 O 64.5393 0.523886 1.76071 0
M  V30 679 C 64.6013 3.5904 0.181816 0
M  V30 680 C 64.2653 4.45028 -1.0392 0
M  V30 681 C 65.2623 4.81959 -1.94966 0
M  V30 682 C 62.9473 4.86259 -1.25927 0
M  V30 683 C 64.9413 5.58942 -3.06371 0
M  V30 684 C 62.6283 5.63002 -2.37638 0
M  V30 685 C 63.6263 5.99257 -3.2769 0
M  V30 686 O 63.3143 6.7445 -4.37461 0
M  V30 687 H 63.0463 0.674028 -0.0515987 0
M  V30 688 H 65.6003 1.89393 -0.794951 0
M  V30 689 H 63.8303 3.74429 0.966436 0
M  V30 690 H 65.5193 4.00806 0.641047 0
M  V30 691 H 66.2853 4.50689 -1.79177 0
M  V30 692 H 62.1643 4.57494 -0.567448 0
M  V30 693 H 65.7083 5.87158 -3.76684 0
M  V30 694 H 61.6053 5.93686 -2.53392 0
M  V30 695 H 62.3733 6.92867 -4.35749 0
M  V30 696 N 65.0364 0.313813 1.54444 0
M  V30 697 C 65.9994 -0.54379 2.22656 0
M  V30 698 C 66.9994 -1.05124 1.21678 0
M  V30 699 O 68.1894 -0.945225 1.46325 0
M  V30 700 C 65.3214 -1.75427 2.92298 0
M  V30 701 H 66.5144 0.0523599 2.99854 0
M  V30 702 H 64.0674 0.0647834 1.56166 0
M  V30 703 H 64.8024 -2.38991 2.19211 0
M  V30 704 H 64.5874 -1.39791 3.66334 0
M  V30 705 H 66.0774 -2.36325 3.44297 0
M  V30 706 N 66.5145 -1.57545 0.0417849 0
M  V30 707 C 67.4465 -2.07904 -0.964799 0
M  V30 708 C 68.4595 -1.00497 -1.28079 0
M  V30 709 O 69.6485 -1.28087 -1.24322 0
M  V30 710 C 66.7485 -2.49928 -2.28887 0
M  V30 711 C 65.9215 -3.80562 -2.15619 0
M  V30 712 C 64.9805 -4.08999 -3.31069 0
M  V30 713 O 64.0065 -4.79061 -3.0739 0
M  V30 714 N 65.2085 -3.6017 -4.55256 0
M  V30 715 H 67.9735 -2.94886 -0.535029 0
M  V30 716 H 65.5345 -1.61252 -0.144681 0
M  V30 717 H 67.5265 -2.66034 -3.04972 0
M  V30 718 H 66.0965 -1.68245 -2.63463 0
M  V30 719 H 65.3165 -3.74129 -1.24183 0
M  V30 720 H 66.6045 -4.66126 -2.03971 0
M  V30 721 H 66.0025 -3.03512 -4.77386 0
M  V30 722 H 64.5595 -3.81532 -5.28466 0
M  V30 723 N 67.9926 0.231505 -1.5589 0
M  V30 724 C 68.9026 1.308 -1.94752 0
M  V30 725 C 69.9186 1.51826 -0.849989 0
M  V30 726 O 71.0946 1.6515 -1.15271 0
M  V30 727 C 68.1596 2.63968 -2.24771 0
M  V30 728 C 67.2206 2.51331 -3.48039 0
M  V30 729 C 66.4536 3.78148 -3.76616 0
M  V30 730 O 66.6766 4.80722 -3.07022 0
M  V30 731 O 65.6106 3.75857 -4.70123 0
M  V30 732 H 69.4366 1.0083 -2.86474 0
M  V30 733 H 67.0216 0.433547 -1.42971 0
M  V30 734 H 68.9036 3.42633 -2.45318 0
M  V30 735 H 67.5786 2.9364 -1.36225 0
M  V30 736 H 66.4856 1.709 -3.32782 0
M  V30 737 H 67.8186 2.26601 -4.36936 0
M  V30 738 N 69.4707 1.49531 0.497807 0
M  V30 739 C 70.7167 1.59415 1.25358 0
M  V30 740 C 71.0497 0.281422 1.9215 0
M  V30 741 O 70.3247 -0.715249 1.80871 0
M  V30 742 C 70.6077 2.75566 2.3181 0
M  V30 743 C 70.4607 4.16642 1.69498 0
M  V30 744 C 71.7797 2.87347 3.33346 0
M  V30 745 H 68.8987 0.580244 0.454408 0
M  V30 746 H 71.5407 1.81827 0.551262 0
M  V30 747 H 69.6907 2.56587 2.91711 0
M  V30 748 H 71.3627 4.47145 1.13399 0
M  V30 749 H 69.6057 4.22141 0.998978 0
M  V30 750 H 70.2767 4.93792 2.46725 0
M  V30 751 H 72.7527 3.04634 2.83438 0
M  V30 752 H 71.6287 3.70289 4.05188 0
M  V30 753 H 71.8897 1.96834 3.95865 0
M  V30 754 N 70.9488 -0.749086 1.3866 0
M  V30 755 C 72.1788 -1.53611 1.38157 0
M  V30 756 C 72.5868 -1.89177 -0.0293595 0
M  V30 757 O 71.9298 -1.53606 -1.00752 0
M  V30 758 C 71.9918 -2.86087 2.17702 0
M  V30 759 C 71.6558 -2.73034 3.66472 0
M  V30 760 C 72.6528 -2.42526 4.59866 0
M  V30 761 C 70.3378 -2.90345 4.09884 0
M  V30 762 C 72.3318 -2.29492 5.94653 0
M  V30 763 C 70.0188 -2.7693 5.4475 0
M  V30 764 C 71.0168 -2.46547 6.36949 0
M  V30 765 O 70.7048 -2.33199 7.69333 0
M  V30 766 H 70.4368 -0.481773 0.474205 0
M  V30 767 H 72.9908 -0.934465 1.82912 0
M  V30 768 H 71.2208 -3.48458 1.67672 0
M  V30 769 H 72.9098 -3.47625 2.09551 0
M  V30 770 H 73.6758 -2.28816 4.27631 0
M  V30 771 H 69.5548 -3.1299 3.38464 0
M  V30 772 H 73.0988 -2.05698 6.66584 0
M  V30 773 H 68.9958 -2.90215 5.76581 0
M  V30 774 H 69.7638 -2.48376 7.79905 0
M  V30 775 N 72.4269 -1.23603 -0.977757 0
M  V30 776 C 73.3369 -1.03632 -2.1047 0
M  V30 777 C 74.3529 0.0199435 -1.73989 0
M  V30 778 O 75.5289 -0.176076 -2.00629 0
M  V30 779 C 72.5939 -0.63276 -3.40877 0
M  V30 780 C 71.6549 -1.76437 -3.91367 0
M  V30 781 C 70.8879 -1.37997 -5.15551 0
M  V30 782 O 71.1109 -0.265357 -5.69782 0
M  V30 783 O 70.0449 -2.20201 -5.60174 0
M  V30 784 H 73.8709 -1.98086 -2.30208 0
M  V30 785 H 71.4559 -1.02332 -1.08851 0
M  V30 786 H 73.3379 -0.418761 -4.19314 0
M  V30 787 H 72.0129 0.282754 -3.22463 0
M  V30 788 H 70.9199 -2.03304 -3.14036 0
M  V30 789 H 72.2529 -2.6583 -4.14241 0
M  V30 790 N 73.905 1.17692 -1.04816 0
M  V30 791 C 74.838 2.20436 -0.590173 0
M  V30 792 C 75.816 1.58115 0.379244 0
M  V30 793 O 77 1.86228 0.291762 0
M  V30 794 C 74.127 3.38424 0.136817 0
M  V30 795 C 73.173 4.19176 -0.787023 0
M  V30 796 S 74.006 4.84815 -2.27409 0
M  V30 797 C 75.162 6.06195 -1.55817 0
M  V30 798 H 75.395 2.58944 -1.46067 0
M  V30 799 H 72.928 1.28246 -0.859784 0
M  V30 800 H 74.886 4.06798 0.550076 0
M  V30 801 H 73.547 2.98312 0.983299 0
M  V30 802 H 72.74 5.03499 -0.224681 0
M  V30 803 H 72.342 3.56219 -1.13947 0
M  V30 804 H 74.634 6.72078 -0.855387 0
M  V30 805 H 75.577 6.6695 -2.37873 0
M  V30 806 H 75.985 5.54701 -1.04722 0
M  V30 807 N 75.3831 0.828654 1.34056 0
M  V30 808 C 76.3311 0.242973 2.31327 0
M  V30 809 C 77.3251 -0.61944 1.57668 0
M  V30 810 O 78.5311 -0.51014 1.7262 0
M  V30 811 H 74.9061 0.059834 0.749616 0
M  V30 812 H 76.8771 1.07809 2.78244 0
M  V30 813 C 75.6261 -0.575733 3.429 0
M  V30 814 H 74.9491 0.0785582 3.99723 0
M  V30 815 H 76.3891 -0.951547 4.13185 0
M  V30 816 C 74.8481 -1.75044 2.87856 0
M  V30 817 O 75.3781 -2.84882 2.83205 0
M  V30 818 N 73.5841 -1.56903 2.44602 0
M  V30 819 H 73.1311 -0.675547 2.48584 0
M  V30 820 H 73.0891 -2.35652 2.08124 0
M  V30 821 N 76.8612 -1.46375 0.584142 0
M  V30 822 C 78.1082 -2.02378 0.0702675 0
M  V30 823 C 78.4362 -1.45545 -1.29023 0
M  V30 824 O 77.6912 -0.610967 -1.85918 0
M  V30 825 C 77.9902 -3.57373 -0.0439342 0
M  V30 826 C 77.6562 -4.33252 1.24915 0
M  V30 827 C 76.3182 -4.53701 1.60341 0
M  V30 828 C 78.6702 -4.7681 2.1048 0
M  V30 829 C 75.9982 -5.1496 2.81128 0
M  V30 830 C 78.3502 -5.39404 3.30494 0
M  V30 831 C 77.0142 -5.5808 3.66201 0
M  V30 832 H 76.2842 -0.740554 0.0257127 0
M  V30 833 H 78.9312 -1.75727 0.761065 0
M  V30 834 H 77.2362 -3.83169 -0.817869 0
M  V30 835 H 78.9332 -3.98384 -0.457318 0
M  V30 836 H 75.5232 -4.17633 0.963364 0
M  V30 837 H 79.7072 -4.60766 1.84414 0
M  V30 838 H 74.9632 -5.27611 3.08928 0
M  V30 839 H 79.1372 -5.72114 3.97063 0
M  V30 840 H 76.7642 -6.05318 4.59885 0
M  V30 841 N 78.3393 -0.321999 -1.54275 0
M  V30 842 C 79.5873 0.280489 -2.00144 0
M  V30 843 C 79.9083 1.52777 -1.21178 0
M  V30 844 O 79.1783 1.9338 -0.313187 0
M  V30 845 H 77.7583 0.106632 -0.73935 0
M  V30 846 H 80.4203 -0.438184 -1.8991 0
M  V30 847 H 79.5163 0.537972 -3.07428 0
M  V30 848 N 79.8174 1.5752 -0.0501392 0
M  V30 849 C 80.7274 2.14952 0.939827 0
M  V30 850 C 81.7434 1.10706 1.34239 0
M  V30 851 O 82.9194 1.42869 1.41952 0
M  V30 852 C 79.9844 2.68232 2.19665 0
M  V30 853 C 79.0454 3.87272 1.85253 0
M  V30 854 C 78.2784 4.38002 3.04943 0
M  V30 855 O 78.5014 3.87811 4.18281 0
M  V30 856 O 77.4354 5.29602 2.86017 0
M  V30 857 H 81.2614 2.9986 0.481392 0
M  V30 858 H 78.8464 1.4841 0.171699 0
M  V30 859 H 80.7284 3.02475 2.93406 0
M  V30 860 H 79.4034 1.86395 2.64648 0
M  V30 861 H 78.3104 3.5792 1.0883 0
M  V30 862 H 79.6434 4.70336 1.4507 0
M  V30 863 N 81.2955 -0.223234 1.56011 0
M  V30 864 C 82.2425 -1.27664 1.92277 0
M  V30 865 C 83.2125 -1.46659 0.779763 0
M  V30 866 O 84.3975 -1.60256 1.03551 0
M  V30 867 C 81.5375 -2.62234 2.24338 0
M  V30 868 C 80.6505 -2.51051 3.51564 0
M  V30 869 C 79.7855 -3.78133 3.7308 0
M  V30 870 C 78.8245 -3.61665 4.93827 0
M  V30 871 N 77.9615 -4.80693 5.11741 0
M  V30 872 H 82.8015 -0.960358 2.82101 0
M  V30 873 H 80.3385 -0.462901 1.39627 0
M  V30 874 H 82.2965 -3.40596 2.40936 0
M  V30 875 H 80.9265 -2.91961 1.3769 0
M  V30 876 H 79.9785 -1.64132 3.43169 0
M  V30 877 H 81.2905 -2.34803 4.40079 0
M  V30 878 H 80.4445 -4.64938 3.89766 0
M  V30 879 H 79.1835 -3.97304 2.82844 0
M  V30 880 H 78.1885 -2.73244 4.77093 0
M  V30 881 H 79.4135 -3.43966 5.85546 0
M  V30 882 H 77.3595 -5.00181 4.24446 0
M  V30 883 H 77.2765 -4.67165 5.94384 0
M  V30 884 H 78.5445 -5.6893 5.3286 0
M  V30 885 N 82.7736 -1.49793 -0.48987 0
M  V30 886 C 84.1846 -1.52914 -1.07118 0
M  V30 887 C 84.5356 -0.321738 -1.93544 0
M  V30 888 O 83.6606 0.567338 -2.08831 0
M  V30 889 C 84.2556 -2.771 -1.94938 0
M  V30 890 C 82.8146 -2.82963 -2.48212 0
M  V30 891 C 81.9616 -2.46972 -1.26096 0
M  V30 892 H 84.9126 -1.56329 -0.273289 0
M  V30 893 H 84.9336 -2.57892 -2.79771 0
M  V30 894 H 84.4456 -3.64959 -1.32009 0
M  V30 895 H 82.5466 -1.99411 -3.14748 0
M  V30 896 H 82.6596 -3.85406 -2.84603 0
M  V30 897 H 81.0236 -1.98994 -1.58976 0
M  V30 898 H 81.8066 -3.37118 -0.648581 0
M  V30 899 N 84.2517 0.741722 -1.39055 0
M  V30 900 C 85.1617 1.88621 -1.39496 0
M  V30 901 C 86.1777 1.71557 -0.290578 0
M  V30 902 O 87.3537 1.94275 -0.530954 0
M  V30 903 C 84.4187 3.24134 -1.23037 0
M  V30 904 C 83.4797 3.5364 -2.43387 0
M  V30 905 C 82.7127 4.82687 -2.27703 0
M  V30 906 O 82.9357 5.55922 -1.27696 0
M  V30 907 O 81.8697 5.1194 -3.16545 0
M  V30 908 H 85.6957 1.91203 -2.35956 0
M  V30 909 H 83.2807 0.888625 -1.20099 0
M  V30 910 H 85.1627 4.0513 -1.15964 0
M  V30 911 H 83.8377 3.22337 -0.296691 0
M  V30 912 H 82.7447 2.72758 -2.56035 0
M  V30 913 H 84.0777 3.60209 -3.35425 0
M  V30 914 N 85.7298 1.2412 0.971189 0
M  V30 915 C 86.9778 1.07668 1.71032 0
M  V30 916 C 87.2988 -0.385797 1.91146 0
M  V30 917 O 86.5688 -1.27569 1.4867 0
M  V30 918 H 85.1488 0.395429 0.633755 0
M  V30 919 H 87.8108 1.55984 1.16855 0
M  V30 920 H 86.9068 1.57195 2.69622 0
M  V30 921 N 87.2079 -1.17134 1.05439 0
M  V30 922 C 88.4849 -1.83411 0.679699 0
M  V30 923 C 88.8649 -1.9368 -0.839726 0
M  V30 924 O 88.2129 -1.47325 -1.74664 0
M  V30 925 C 88.4229 -3.20918 1.37159 0
M  V30 926 C 89.7709 -3.96796 1.51123 0
M  V30 927 O 90.7949 -3.30406 1.3308 0
M  V30 928 O 89.6539 -5.15778 1.80651 0
M  V30 929 H 86.7479 -0.79154 0.239569 0
M  V30 930 H 89.2939 -1.24411 1.15413 0
M  V30 931 H 88.0659 -3.08428 2.40807 0
M  V30 932 H 87.6889 -3.87587 0.886674 0
M  V30 933 N 88.686 -0.835752 -1.33615 0
M  V30 934 C 89.935 -0.426289 -1.97144 0
M  V30 935 C 90.248 1.01912 -1.66953 0
M  V30 936 O 91.454 1.53311 -2.24072 0
M  V30 937 C 89.91 -0.711321 -3.52801 0
M  V30 938 C 89.518 -2.1712 -3.91871 0
M  V30 939 C 91.262 -0.368654 -4.22896 0
M  V30 940 C 89.169 -2.40044 -5.40493 0
M  V30 941 H 88.099 -0.15567 -0.737755 0
M  V30 942 H 90.75 -1.0239 -1.52278 0
M  V30 943 H 89.132 -0.0433766 -3.95976 0
M  V30 944 H 90.306 -2.87936 -3.59763 0
M  V30 945 H 88.621 -2.47654 -3.34749 0
M  V30 946 H 91.218 -0.517601 -5.32189 0
M  V30 947 H 91.561 0.688078 -4.10574 0
M  V30 948 H 92.094 -0.991702 -3.8524 0
M  V30 949 H 88.833 -3.44271 -5.57815 0
M  V30 950 H 88.353 -1.73785 -5.74072 0
M  V30 951 H 90.032 -2.23042 -6.0734 0
M  V30 952 N 90.1641 1.46063 -0.591896 0
M  V30 953 C 91.3921 2.06717 -0.0868936 0
M  V30 954 C 91.8071 1.43916 1.22203 0
M  V30 955 O 91.1641 0.547698 1.74088 0
M  V30 956 C 91.2151 3.6142 0.0758725 0
M  V30 957 O 90.9361 4.21874 -1.18126 0
M  V30 958 C 92.4371 4.39025 0.61416 0
M  V30 959 H 89.6571 0.668162 -0.0616518 0
M  V30 960 H 92.2011 1.8755 -0.815175 0
M  V30 961 H 90.3561 3.79983 0.754413 0
M  V30 962 H 90.7701 5.14861 -1.00092 0
M  V30 963 H 92.2441 5.4783 0.677193 0
M  V30 964 H 92.7211 4.07708 1.63312 0
M  V30 965 H 93.3271 4.2529 -0.0298142 0
M  V30 966 N 91.6422 0.330177 1.54103 0
M  V30 967 C 92.5742 -0.566902 2.22079 0
M  V30 968 C 93.5872 -1.07462 1.22294 0
M  V30 969 O 94.7762 -0.987065 1.48726 0
M  V30 970 C 91.8762 -1.79138 2.87685 0
M  V30 971 C 91.0492 -1.42123 4.13666 0
M  V30 972 C 90.1082 -2.50394 4.62806 0
M  V30 973 O 89.1342 -2.14261 5.27334 0
M  V30 974 N 90.3362 -3.81433 4.37595 0
M  V30 975 H 93.1012 0.0151844 2.99696 0
M  V30 976 H 90.6622 0.153681 1.61169 0
M  V30 977 H 92.6542 -2.50975 3.1748 0
M  V30 978 H 91.2242 -2.28115 2.13734 0
M  V30 979 H 90.4442 -0.534201 3.90564 0
M  V30 980 H 91.7322 -1.14971 4.9564 0
M  V30 981 H 91.1302 -4.13584 3.8596 0
M  V30 982 H 89.6872 -4.4948 4.72029 0
M  V30 983 N 93.1203 -1.57491 0.0584922 0
M  V30 984 C 94.3663 -1.93264 -0.614558 0
M  V30 985 C 94.6993 -0.937717 -1.7006 0
M  V30 986 O 93.9743 0.0351652 -1.94468 0
M  V30 987 C 94.2573 -3.3938 -1.20386 0
M  V30 988 C 94.1103 -4.49625 -0.125375 0
M  V30 989 C 95.4293 -3.86039 -2.11334 0
M  V30 990 H 92.5483 -0.702791 -0.221933 0
M  V30 991 H 95.1903 -1.8961 0.12175 0
M  V30 992 H 93.3403 -3.42626 -1.83139 0
M  V30 993 H 95.0123 -4.58506 0.506971 0
M  V30 994 H 93.2553 -4.30354 0.545672 0
M  V30 995 H 93.9263 -5.48967 -0.577861 0
M  V30 996 H 96.4023 -3.84716 -1.58534 0
M  V30 997 H 95.2783 -4.88914 -2.49507 0
M  V30 998 H 95.5393 -3.23215 -3.01636 0
M  V30 999 N 94.5984 0.214957 -1.56127 0
M  V30 1000 C 95.5464 1.28601 -1.93816 0
M  V30 1001 C 96.5404 1.48175 -0.821016 0
M  V30 1002 O 97.7464 1.49271 -1.0059 0
M  V30 1003 H 94.1214 0.431302 -0.616022 0
M  V30 1004 H 96.0924 0.940991 -2.83175 0
M  V30 1005 C 94.8414 2.62779 -2.27689 0
M  V30 1006 H 94.1644 2.48527 -3.13168 0
M  V30 1007 H 95.6044 3.36517 -2.57939 0
M  V30 1008 C 94.0634 3.18285 -1.10436 0
M  V30 1009 O 94.5934 4.00002 -0.368945 0
M  V30 1010 N 92.7994 2.7675 -0.886433 0
M  V30 1011 H 92.3464 2.10404 -1.48619 0
M  V30 1012 H 92.3044 3.14229 -0.103656 0
M  V30 1013 N 96.0765 1.50051 0.48192 0
M  V30 1014 C 96.9865 1.7089 1.60728 0
M  V30 1015 C 98.0025 0.591788 1.63627 0
M  V30 1016 O 99.1785 0.868817 1.81696 0
M  V30 1017 C 96.2435 1.78855 2.97005 0
M  V30 1018 C 95.3045 3.02537 3.04581 0
M  V30 1019 C 94.5375 3.10112 4.34357 0
M  V30 1020 O 94.7605 2.24765 5.24249 0
M  V30 1021 O 93.6945 4.02747 4.47301 0
M  V30 1022 H 97.5205 2.66264 1.46072 0
M  V30 1023 H 95.1055 1.34018 0.660264 0
M  V30 1024 H 96.9875 1.86336 3.77964 0
M  V30 1025 H 95.6625 0.866628 3.11883 0
M  V30 1026 H 94.5695 3.00563 2.22739 0
M  V30 1027 H 95.9025 3.94272 2.94636 0
M  V30 1028 N 97.5546 -0.734337 1.39446 0
M  V30 1029 C 98.5016 -1.84835 1.38219 0
M  V30 1030 C 99.4716 -1.64331 0.24179 0
M  V30 1031 O 100.657 -1.85728 0.437002 0
M  V30 1032 C 97.7966 -3.22355 1.23212 0
M  V30 1033 C 96.9096 -3.5456 2.46801 0
M  V30 1034 C 96.0446 -4.81485 2.24377 0
M  V30 1035 C 95.0836 -5.06536 3.43639 0
M  V30 1036 N 94.2206 -6.24665 3.20528 0
M  V30 1037 H 99.0606 -1.85219 2.33448 0
M  V30 1038 H 96.5976 -0.905039 1.15963 0
M  V30 1039 H 98.5556 -4.0174 1.12522 0
M  V30 1040 H 97.1856 -3.21248 0.316121 0
M  V30 1041 H 96.2376 -2.69872 2.68092 0
M  V30 1042 H 97.5496 -3.6899 3.3563 0
M  V30 1043 H 96.7036 -5.68852 2.10933 0
M  V30 1044 H 95.4426 -4.6923 1.32944 0
M  V30 1045 H 94.4476 -4.17632 3.5758 0
M  V30 1046 H 95.6726 -5.20676 4.35974 0
M  V30 1047 H 93.6186 -6.13696 2.3176 0
M  V30 1048 H 93.5356 -6.39685 4.02913 0
M  V30 1049 H 94.8036 -7.14868 3.10779 0
M  V30 1050 N 99.0327 -1.24633 -0.964593 0
M  V30 1051 C 100.261 -1.11501 -1.74285 0
M  V30 1052 C 100.676 0.332165 -1.85855 0
M  V30 1053 O 100.033 1.22903 -1.34911 0
M  V30 1054 C 100.084 -1.75258 -3.16175 0
M  V30 1055 O 99.8047 -3.14318 -3.05182 0
M  V30 1056 C 101.306 -1.67776 -4.10324 0
M  V30 1057 H 98.5257 -0.389407 -0.546446 0
M  V30 1058 H 101.07 -1.64801 -1.21083 0
M  V30 1059 H 99.2247 -1.25954 -3.66353 0
M  V30 1060 H 99.6387 -3.4551 -3.94618 0
M  V30 1061 H 101.113 -2.17064 -5.0753 0
M  V30 1062 H 101.59 -0.639584 -4.34518 0
M  V30 1063 H 102.196 -2.16522 -3.66058 0
M  V30 1064 N 100.511 1.16574 -1.06058 0
M  V30 1065 C 101.76 1.86385 -0.770944 0
M  V30 1066 C 102.073 1.82448 0.705129 0
M  V30 1067 O 103.279 2.47815 1.10905 0
M  V30 1068 C 101.735 3.34466 -1.32893 0
M  V30 1069 C 101.343 3.46883 -2.83507 0
M  V30 1070 C 103.087 4.09548 -1.11672 0
M  V30 1071 C 100.994 4.89036 -3.32562 0
M  V30 1072 H 99.9238 0.698181 -0.284709 0
M  V30 1073 H 102.575 1.31583 -1.27899 0
M  V30 1074 H 100.957 3.88859 -0.748662 0
M  V30 1075 H 102.131 3.02663 -3.47465 0
M  V30 1076 H 100.446 2.85232 -3.03368 0
M  V30 1077 H 103.043 5.14434 -1.45814 0
M  V30 1078 H 103.386 4.16264 -0.0549535 0
M  V30 1079 H 103.919 3.61387 -1.66265 0
M  V30 1080 H 100.658 4.87499 -4.38207 0
M  V30 1081 H 100.178 5.3389 -2.73351 0
M  V30 1082 H 101.857 5.57843 -3.2775 0
M  V30 1083 N 101.989 0.842826 1.3317 0
M  V30 1084 C 103.4 0.496651 1.79973 0
M  V30 1085 C 103.751 -0.984641 1.69703 0
M  V30 1086 O 102.876 -1.76743 1.24863 0
M  V30 1087 C 103.471 0.894727 3.26772 0
M  V30 1088 C 102.03 0.600629 3.71577 0
M  V30 1089 C 101.177 1.10091 2.5451 0
M  V30 1090 H 104.128 1.03116 1.20635 0
M  V30 1091 H 104.149 0.206347 3.7994 0
M  V30 1092 H 103.661 1.97287 3.34215 0
M  V30 1093 H 101.762 -0.467284 3.69658 0
M  V30 1094 H 101.875 1.15863 4.64879 0
M  V30 1095 H 100.239 0.52162 2.49301 0
M  V30 1096 H 101.022 2.18591 2.64713 0
M  V30 1097 N 103.467 -1.45747 0.599634 0
M  V30 1098 C 104.744 -1.95585 0.0240846 0
M  V30 1099 C 105.124 -1.54217 -1.44154 0
M  V30 1100 O 104.472 -0.800903 -2.14004 0
M  V30 1101 C 104.682 -3.48344 0.21385 0
M  V30 1102 C 106.03 -4.24504 0.0904902 0
M  V30 1103 O 107.054 -3.55911 0.143558 0
M  V30 1104 O 105.913 -5.46491 -0.0310766 0
M  V30 1105 H 103.007 -0.82602 -0.0402478 0
M  V30 1106 H 105.553 -1.55951 0.669139 0
M  V30 1107 H 104.325 -3.71397 1.23206 0
M  V30 1108 H 103.948 -3.9485 -0.466842 0
M  V30 1109 N 104.945 -0.338344 -1.53925 0
M  V30 1110 C 105.895 0.536712 -2.21593 0
M  V30 1111 C 106.879 1.07015 -1.20153 0
M  V30 1112 O 108.071 1.00471 -1.45721 0
M  V30 1113 C 105.2 1.68977 -2.98834 0
M  V30 1114 C 104.286 1.17052 -4.07627 0
M  V30 1115 N 104.677 0.372085 -5.0443 0
M  V30 1116 C 102.975 1.44789 -4.21844 0
M  V30 1117 C 103.676 0.0909171 -5.81629 0
M  V30 1118 N 102.652 0.681131 -5.39316 0
M  V30 1119 H 106.454 -0.0804298 -2.9379 0
M  V30 1120 H 103.968 -0.144943 -1.61752 0
M  V30 1121 H 105.965 2.32857 -3.45808 0
M  V30 1122 H 104.625 2.31024 -2.28162 0
M  V30 1123 H 105.636 0.0136217 -5.17898 0
M  V30 1124 H 102.313 2.07313 -3.62391 0
M  V30 1125 H 103.703 -0.552817 -6.69622 0
M  V30 1126 N 106.423 1.57458 -0.0668435 0
M  V30 1127 C 107.7 1.8469 0.644132 0
M  V30 1128 C 108.08 0.958343 1.88093 0
M  V30 1129 O 107.428 0.0233579 2.28488 0
M  V30 1130 C 107.638 3.34767 0.986509 0
M  V30 1131 C 108.986 4.02159 1.36212 0
M  V30 1132 O 110.01 3.39484 1.07839 0
M  V30 1133 O 108.869 5.12694 1.89227 0
M  V30 1134 H 105.963 0.762816 0.319437 0
M  V30 1135 H 108.509 1.6942 -0.0973986 0
M  V30 1136 H 107.281 3.91151 0.107883 0
M  V30 1137 H 106.904 3.55281 1.78497 0
M  V30 1138 N 107.901 -0.206675 1.56239 0
M  V30 1139 C 109.15 -0.926964 1.79138 0
M  V30 1140 C 109.463 -1.84901 0.638043 0
M  V30 1141 O 110.669 -2.60906 0.751033 0
M  V30 1142 C 109.125 -1.6986 3.17294 0
M  V30 1143 C 108.733 -0.821956 4.40395 0
M  V30 1144 C 110.477 -2.40922 3.4951 0
M  V30 1145 C 108.384 -1.59179 5.69575 0
M  V30 1146 H 107.314 -0.349864 0.667915 0
M  V30 1147 H 109.965 -0.180487 1.8261 0
M  V30 1148 H 108.347 -2.48853 3.08039 0
M  V30 1149 H 109.521 -0.0715019 4.60745 0
M  V30 1150 H 107.836 -0.222741 4.15804 0
M  V30 1151 H 110.433 -2.99047 4.43255 0
M  V30 1152 H 110.776 -3.14542 2.72707 0
M  V30 1153 H 111.309 -1.68905 3.60161 0
M  V30 1154 H 108.048 -0.898589 6.49312 0
M  V30 1155 H 107.568 -2.31648 5.53262 0
M  V30 1156 H 109.247 -2.14862 6.10281 0
M  V30 1157 N 109.379 -1.50304 -0.473955 0
M  V30 1158 C 110.309 -1.71886 -1.58042 0
M  V30 1159 C 111.29 -0.567799 -1.60344 0
M  V30 1160 O 112.475 -0.806623 -1.76656 0
M  V30 1161 C 109.605 -1.81036 -2.96384 0
M  V30 1162 C 108.559 -2.962 -3.08949 0
M  V30 1163 C 107.885 -2.9049 -4.48909 0
M  V30 1164 C 109.185 -4.36752 -2.86434 0
M  V30 1165 H 110.879 -2.64527 -1.40234 0
M  V30 1166 H 108.425 -1.27295 -0.673201 0
M  V30 1167 H 110.378 -1.94719 -3.73714 0
M  V30 1168 H 109.102 -0.850147 -3.15341 0
M  V30 1169 H 107.761 -2.82164 -2.3405 0
M  V30 1170 H 107.409 -1.92321 -4.64781 0
M  V30 1171 H 107.109 -3.67802 -4.58253 0
M  V30 1172 H 108.633 -3.06218 -5.28264 0
M  V30 1173 H 110.047 -4.5133 -3.53517 0
M  V30 1174 H 108.444 -5.15493 -3.07225 0
M  V30 1175 H 109.514 -4.49321 -1.82316 0
M  V30 1176 N 110.857 0.726932 -1.39834 0
M  V30 1177 C 112.097 1.4992 -1.38936 0
M  V30 1178 C 112.461 1.91996 0.0126883 0
M  V30 1179 O 113.662 2.68399 0.146715 0
M  V30 1180 C 111.933 2.70013 -2.34153 0
M  V30 1181 S 113.492 3.59563 -2.51515 0
M  V30 1182 H 110.31 0.51271 -0.492595 0
M  V30 1183 H 112.912 0.85107 -1.76003 0
M  V30 1184 H 111.616 2.37254 -3.34871 0
M  V30 1185 H 111.147 3.39748 -1.98331 0
M  V30 1186 H 113.162 4.63973 -1.75909 0
M  V30 1187 N 112.336 1.25143 0.95797 0
M  V30 1188 C 113.299 1.05321 2.03569 0
M  V30 1189 C 114.299 0.007152 1.60798 0
M  V30 1190 O 115.489 0.24903 1.72411 0
M  V30 1191 C 112.621 0.598394 3.35607 0
M  V30 1192 H 113.814 2.00986 2.22586 0
M  V30 1193 H 111.367 1.07502 1.13459 0
M  V30 1194 H 112.102 -0.361014 3.22284 0
M  V30 1195 H 111.887 1.35351 3.67998 0
M  V30 1196 H 113.377 0.48104 4.1482 0
M  V30 1197 N 113.814 -1.1601 1.06675 0
M  V30 1198 C 115.062 -1.86264 0.784229 0
M  V30 1199 C 115.383 -1.82328 -0.691488 0
M  V30 1200 O 114.653 -1.25947 -1.50047 0
M  V30 1201 H 113.233 -0.689621 0.28711 0
M  V30 1202 H 115.895 -1.40664 1.34906 0
M  V30 1203 H 114.991 -2.91595 1.11259 0
M  V30 1204 N 115.292 -0.849877 -1.32721 0
M  V30 1205 C 116.539 -0.450923 -1.97416 0
M  V30 1206 C 116.867 0.992376 -1.67279 0
M  V30 1207 O 116.122 1.71048 -0.950845 0
M  V30 1208 C 116.421 -0.631272 -3.51781 0
M  V30 1209 C 116.087 -2.04432 -4.01894 0
M  V30 1210 C 114.749 -2.4308 -4.1529 0
M  V30 1211 C 117.101 -2.96679 -4.28522 0
M  V30 1212 C 114.429 -3.73257 -4.52654 0
M  V30 1213 C 116.781 -4.26349 -4.67343 0
M  V30 1214 C 115.445 -4.64939 -4.78945 0
M  V30 1215 H 114.715 -0.165004 -0.722395 0
M  V30 1216 H 117.362 -1.07901 -1.58207 0
M  V30 1217 H 115.667 0.0800767 -3.91718 0
M  V30 1218 H 117.364 -0.302709 -3.99856 0
M  V30 1219 H 113.954 -1.73419 -3.91949 0
M  V30 1220 H 118.138 -2.68054 -4.17685 0
M  V30 1221 H 113.394 -4.02946 -4.59831 0
M  V30 1222 H 117.568 -4.97895 -4.86902 0
M  V30 1223 H 115.195 -5.65855 -5.07654 0
M  V30 1224 N 116.77 1.45427 -0.607355 0
M  V30 1225 C 118.181 1.85756 -0.187535 0
M  V30 1226 C 118.532 1.5077 1.25551 0
M  V30 1227 O 117.657 0.93427 1.95193 0
M  V30 1228 C 118.252 3.37154 -0.333572 0
M  V30 1229 C 116.811 3.76387 0.0315542 0
M  V30 1230 C 115.958 2.69377 -0.658117 0
M  V30 1231 H 118.909 1.36231 -0.81405 0
M  V30 1232 H 118.93 3.78014 0.43428 0
M  V30 1233 H 118.442 3.62586 -1.38393 0
M  V30 1234 H 116.543 3.56571 1.0811 0
M  V30 1235 H 116.656 4.77731 -0.361935 0
M  V30 1236 H 115.02 2.5452 -0.0957873 0
M  V30 1237 H 115.803 2.97646 -1.7106 0
M  V30 1238 N 118.248 0.346503 1.53744 0
M  V30 1239 C 119.488 -0.249413 2.02873 0
M  V30 1240 C 119.852 -1.47532 1.22876 0
M  V30 1241 O 121.053 -2.1456 1.61918 0
M  V30 1242 C 119.324 -0.552909 3.53097 0
M  V30 1243 S 120.883 -1.12521 4.24128 0
M  V30 1244 H 117.701 -0.074042 0.707134 0
M  V30 1245 H 120.303 0.48495 1.8939 0
M  V30 1246 H 119.007 0.347083 4.0893 0
M  V30 1247 H 118.538 -1.31686 3.70705 0
M  V30 1248 H 120.553 -2.41075 4.33702 0
M  V30 1249 N 119.726 -1.57421 0.075193 0
M  V30 1250 C 120.658 -2.09904 -0.920483 0
M  V30 1251 C 121.671 -1.03191 -1.25918 0
M  V30 1252 O 122.86 -1.30695 -1.21577 0
M  V30 1253 C 119.96 -2.54726 -2.23534 0
M  V30 1254 C 119.133 -3.8505 -2.07498 0
M  V30 1255 C 118.192 -4.15929 -3.22319 0
M  V30 1256 O 117.218 -4.85474 -2.9716 0
M  V30 1257 N 118.42 -3.69745 -4.47514 0
M  V30 1258 H 121.185 -2.95954 -0.472359 0
M  V30 1259 H 118.746 -1.61523 -0.110444 0
M  V30 1260 H 120.738 -2.72443 -2.9926 0
M  V30 1261 H 119.308 -1.73795 -2.59835 0
M  V30 1262 H 118.528 -3.76679 -1.16219 0
M  V30 1263 H 119.816 -4.70348 -1.94038 0
M  V30 1264 H 119.214 -3.13569 -4.7084 0
M  V30 1265 H 117.771 -3.92655 -5.20255 0
M  V30 1266 N 121.204 0.198386 -1.56346 0
M  V30 1267 C 122.167 1.22952 -1.93431 0
M  V30 1268 C 123.167 1.38611 -0.815092 0
M  V30 1269 O 124.357 1.36479 -1.08255 0
M  V30 1270 C 121.489 2.59946 -2.20546 0
M  V30 1271 H 122.682 0.912626 -2.85677 0
M  V30 1272 H 120.235 0.43977 -1.49986 0
M  V30 1273 H 120.97 2.96696 -1.30927 0
M  V30 1274 H 120.755 2.49953 -3.02102 0
M  V30 1275 H 122.245 3.3431 -2.50253 0
M  V30 1276 N 122.682 1.50554 0.465978 0
M  V30 1277 C 123.929 1.61798 1.21768 0
M  V30 1278 C 124.257 0.320696 1.91838 0
M  V30 1279 O 123.512 -0.693724 1.82992 0
M  V30 1280 C 123.811 2.75152 2.28093 0
M  V30 1281 C 123.477 4.15454 1.75239 0
M  V30 1282 C 122.139 4.53628 1.60546 0
M  V30 1283 C 124.491 5.03121 1.36083 0
M  V30 1284 C 121.819 5.77204 1.05128 0
M  V30 1285 C 124.171 6.27249 0.821056 0
M  V30 1286 C 122.835 6.64221 0.660795 0
M  V30 1287 H 122.105 0.592063 0.445582 0
M  V30 1288 H 124.752 1.84503 0.512927 0
M  V30 1289 H 123.057 2.46556 3.04496 0
M  V30 1290 H 124.754 2.81055 2.86023 0
M  V30 1291 H 121.344 3.85341 1.87644 0
M  V30 1292 H 125.528 4.74257 1.46267 0
M  V30 1293 H 120.784 6.0452 0.91462 0
M  V30 1294 H 124.958 6.94537 0.509018 0
M  V30 1295 H 122.585 7.59854 0.229226 0
M  V30 1296 N 124.16 -0.719506 1.40217 0
M  V30 1297 C 125.385 -1.51371 1.4178 0
M  V30 1298 C 125.81 -1.88091 0.0182355 0
M  V30 1299 O 125.168 -1.52997 -0.972707 0
M  V30 1300 C 125.216 -2.768 2.31115 0
M  V30 1301 O 124.32 -3.73349 1.7517 0
M  V30 1302 H 123.661 -0.456529 0.482159 0
M  V30 1303 H 126.191 -0.88644 1.844 0
M  V30 1304 H 126.201 -3.25371 2.46167 0
M  V30 1305 H 124.876 -2.49407 3.3282 0
M  V30 1306 H 123.453 -3.32179 1.69444 0
M  V30 1307 N 125.638 -1.25649 -0.95132 0
M  V30 1308 C 126.887 -1.09988 -1.69073 0
M  V30 1309 C 127.2 0.358355 -1.92289 0
M  V30 1310 O 128.406 0.635466 -2.63958 0
M  V30 1311 C 126.862 -1.92012 -3.044 0
M  V30 1312 C 126.47 -3.42347 -2.88968 0
M  V30 1313 C 128.214 -1.8493 -3.82101 0
M  V30 1314 C 126.121 -4.16655 -4.19705 0
M  V30 1315 H 125.051 -0.407993 -0.63408 0
M  V30 1316 H 127.702 -1.49873 -1.05879 0
M  V30 1317 H 126.084 -1.44952 -3.68517 0
M  V30 1318 H 127.258 -3.97104 -2.33762 0
M  V30 1319 H 125.573 -3.50557 -2.24719 0
M  V30 1320 H 128.17 -2.37739 -4.78941 0
M  V30 1321 H 128.513 -0.817883 -4.08187 0
M  V30 1322 H 129.046 -2.29758 -3.2474 0
M  V30 1323 H 125.785 -5.20224 -3.98807 0
M  V30 1324 H 125.305 -3.66681 -4.74663 0
M  V30 1325 H 126.984 -4.24551 -4.88227 0
M  V30 1326 N 127.117 1.15442 -1.07289 0
M  V30 1327 C 128.342 1.90638 -0.816828 0
M  V30 1328 C 128.767 1.77445 0.624083 0
M  V30 1329 O 128.125 1.10671 1.43602 0
M  V30 1330 C 128.173 3.39008 -1.22906 0
M  V30 1331 O 127.277 4.10701 -0.373975 0
M  V30 1332 H 126.618 0.593555 -0.297638 0
M  V30 1333 H 129.148 1.46198 -1.43134 0
M  V30 1334 H 129.158 3.89801 -1.20497 0
M  V30 1335 H 127.833 3.47929 -2.27856 0
M  V30 1336 H 126.41 3.70046 -0.460499 0
M  V30 1337 N 128.595 0.856903 1.32268 0
M  V30 1338 C 129.843 0.460474 1.96784 0
M  V30 1339 C 130.164 -0.987701 1.68135 0
M  V30 1340 O 129.434 -1.69058 0.989765 0
M  V30 1341 H 128.014 0.167289 0.728027 0
M  V30 1342 H 130.676 1.09383 1.61312 0
M  V30 1343 H 129.772 0.60739 3.06133 0
M  V30 1344 N 130.073 -1.45103 0.615059 0
M  V30 1345 C 131.02 -2.30586 -0.0993978 0
M  V30 1346 C 131.99 -1.42544 -0.852669 0
M  V30 1347 O 133.175 -1.71465 -0.836917 0
M  V30 1348 C 130.315 -3.27572 -1.08583 0
M  V30 1349 C 129.428 -4.30717 -0.332656 0
M  V30 1350 C 128.563 -5.14807 -1.30947 0
M  V30 1351 C 127.602 -6.09673 -0.544538 0
M  V30 1352 N 126.739 -6.86517 -1.47101 0
M  V30 1353 H 131.579 -2.91144 0.635542 0
M  V30 1354 H 129.116 -1.4346 0.325206 0
M  V30 1355 H 131.074 -3.82276 -1.67095 0
M  V30 1356 H 129.704 -2.68751 -1.78809 0
M  V30 1357 H 128.756 -3.78615 0.368107 0
M  V30 1358 H 130.068 -4.98102 0.263842 0
M  V30 1359 H 129.222 -5.73948 -1.96643 0
M  V30 1360 H 127.961 -4.47458 -1.9399 0
M  V30 1361 H 126.966 -5.49656 0.126003 0
M  V30 1362 H 128.191 -6.79052 0.080947 0
M  V30 1363 H 126.137 -6.21851 -2.08895 0
M  V30 1364 H 126.054 -7.50281 -0.928137 0
M  V30 1365 H 127.322 -7.50194 -2.11731 0
M  V30 1366 N 131.551 -0.354651 -1.53558 0
M  V30 1367 C 132.483 0.5315 -2.22952 0
M  V30 1368 C 133.496 1.05503 -1.23988 0
M  V30 1369 O 134.685 0.963279 -1.50277 0
M  V30 1370 C 131.785 1.74538 -2.90499 0
M  V30 1371 C 130.958 1.35524 -4.15875 0
M  V30 1372 C 130.017 2.42999 -4.66731 0
M  V30 1373 O 129.043 2.05844 -5.30676 0
M  V30 1374 N 130.245 3.74423 -4.43608 0
M  V30 1375 H 133.01 -0.0628615 -2.99634 0
M  V30 1376 H 130.571 -0.179302 -1.60904 0
M  V30 1377 H 132.563 2.45892 -3.21433 0
M  V30 1378 H 131.133 2.24686 -2.17336 0
M  V30 1379 H 130.353 0.471998 -3.91364 0
M  V30 1380 H 131.641 1.07071 -4.97406 0
M  V30 1381 H 131.039 4.07391 -3.92491 0
M  V30 1382 H 129.596 4.41913 -4.7912 0
M  V30 1383 N 133.029 1.57378 -0.0835403 0
M  V30 1384 C 133.976 2.13384 0.879539 0
M  V30 1385 C 134.946 1.04936 1.28754 0
M  V30 1386 O 136.131 1.32662 1.37133 0
M  V30 1387 C 133.271 2.70932 2.13752 0
M  V30 1388 C 132.384 3.93575 1.7811 0
M  V30 1389 C 131.519 4.39326 2.98607 0
M  V30 1390 C 130.558 5.54587 2.59037 0
M  V30 1391 N 129.695 5.95243 3.72331 0
M  V30 1392 H 134.535 2.9537 0.395076 0
M  V30 1393 H 132.072 1.45953 0.183349 0
M  V30 1394 H 134.03 3.02411 2.87408 0
M  V30 1395 H 132.66 1.91693 2.59718 0
M  V30 1396 H 131.712 3.68483 0.94469 0
M  V30 1397 H 133.024 4.77258 1.45005 0
M  V30 1398 H 132.178 4.72528 3.80529 0
M  V30 1399 H 130.917 3.5452 3.34913 0
M  V30 1400 H 129.922 5.21024 1.75539 0
M  V30 1401 H 131.147 6.41133 2.23887 0
M  V30 1402 H 129.093 5.13385 4.08378 0
M  V30 1403 H 129.01 6.73694 3.43034 0
M  V30 1404 H 130.278 6.33072 4.54797 0
M  V30 1405 N 134.507 -0.190092 1.56449 0
M  V30 1406 C 135.755 -0.907908 1.80559 0
M  V30 1407 C 136.076 -1.83583 0.657438 0
M  V30 1408 O 135.346 -1.93203 -0.323924 0
M  V30 1409 H 133.926 -0.338247 0.666032 0
M  V30 1410 H 136.588 -0.194403 1.93928 0
M  V30 1411 H 135.684 -1.49604 2.73907 0
M  V30 1412 N 135.985 -1.50799 -0.457987 0
M  V30 1413 C 137.232 -1.62442 -1.20908 0
M  V30 1414 C 137.56 -0.330865 -1.91665 0
M  V30 1415 O 136.815 0.68401 -1.83357 0
M  V30 1416 C 137.114 -2.76358 -2.2663 0
M  V30 1417 C 136.78 -4.16378 -1.73033 0
M  V30 1418 C 135.442 -4.54473 -1.58138 0
M  V30 1419 C 137.794 -5.03836 -1.33413 0
M  V30 1420 C 135.122 -5.77754 -1.02065 0
M  V30 1421 C 137.474 -6.27676 -0.78778 0
M  V30 1422 C 136.138 -6.64562 -0.625561 0
M  V30 1423 H 135.408 -0.594417 -0.442435 0
M  V30 1424 H 138.055 -1.84772 -0.503136 0
M  V30 1425 H 136.36 -2.48167 -3.03184 0
M  V30 1426 H 138.057 -2.82568 -2.84528 0
M  V30 1427 H 134.647 -3.86331 -1.85598 0
M  V30 1428 H 138.831 -4.75026 -1.4375 0
M  V30 1429 H 134.087 -6.04997 -0.882547 0
M  V30 1430 H 138.261 -6.94797 -0.472177 0
M  V30 1431 H 135.888 -7.59965 -0.188926 0
M  V30 1432 N 137.463 0.71206 -1.40597 0
M  V30 1433 C 138.373 1.8562 -1.43466 0
M  V30 1434 C 139.389 1.70902 -0.326902 0
M  V30 1435 O 140.565 1.93105 -0.572043 0
M  V30 1436 C 137.63 3.21451 -1.29884 0
M  V30 1437 C 136.691 3.48398 -2.50833 0
M  V30 1438 C 135.924 4.77749 -2.3789 0
M  V30 1439 O 136.147 5.53089 -1.39459 0
M  V30 1440 O 135.081 5.05111 -3.27333 0
M  V30 1441 H 138.907 1.86155 -2.39958 0
M  V30 1442 H 136.492 0.86295 -1.21957 0
M  V30 1443 H 138.374 4.02579 -1.24531 0
M  V30 1444 H 137.049 3.21636 -0.364997 0
M  V30 1445 H 135.956 2.67265 -2.61763 0
M  V30 1446 H 137.289 3.53014 -3.4299 0
M  V30 1447 N 138.941 1.26152 0.944643 0
M  V30 1448 C 140.218 1.02247 1.66748 0
M  V30 1449 C 140.598 -0.448202 2.06287 0
M  V30 1450 O 139.946 -1.42779 1.78399 0
M  V30 1451 C 140.156 1.96788 2.88228 0
M  V30 1452 C 141.504 2.25201 3.59958 0
M  V30 1453 O 142.528 1.94626 2.98327 0
M  V30 1454 O 141.387 2.77242 4.70956 0
M  V30 1455 H 138.481 0.388517 0.730057 0
M  V30 1456 H 141.027 1.37348 0.99668 0
M  V30 1457 H 139.799 2.96047 2.55875 0
M  V30 1458 H 139.422 1.62145 3.63035 0
M  V30 1459 N 140.419 -1.14872 1.07899 0
M  V30 1460 C 141.644 -1.90202 0.826926 0
M  V30 1461 C 142.069 -1.77774 -0.614664 0
M  V30 1462 O 141.427 -1.11431 -1.43013 0
M  V30 1463 C 141.475 -3.38352 1.24702 0
M  V30 1464 O 140.579 -4.10497 0.39575 0
M  V30 1465 H 139.92 -0.591968 0.300782 0
M  V30 1466 H 142.45 -1.45437 1.43907 0
M  V30 1467 H 142.46 -3.89156 1.22563 0
M  V30 1468 H 141.135 -3.46715 2.29698 0
M  V30 1469 H 139.712 -3.69796 0.480117 0
M  V30 1470 N 141.898 -0.863906 -1.31812 0
M  V30 1471 C 143.314 -0.555004 -1.49639 0
M  V30 1472 C 143.514 0.912266 -1.79666 0
M  V30 1473 O 142.57 1.69479 -1.87171 0
M  V30 1474 C 143.883 -1.44998 -2.63431 0
M  V30 1475 C 145.431 -1.45138 -2.77316 0
M  V30 1476 C 145.906 -2.33179 -3.94197 0
M  V30 1477 N 147.397 -2.31025 -4.01474 0
M  V30 1478 C 148.132 -2.95871 -4.9117 0
M  V30 1479 N 147.628 -3.69863 -5.8581 0
M  V30 1480 N 149.421 -2.85211 -4.84367 0
M  V30 1481 H 141.572 -1.81339 -1.10589 0
M  V30 1482 H 143.835 -0.77505 -0.545895 0
M  V30 1483 H 143.541 -2.49377 -2.48 0
M  V30 1484 H 143.415 -1.14409 -3.59431 0
M  V30 1485 H 145.802 -0.415201 -2.92164 0
M  V30 1486 H 145.883 -1.79747 -1.82001 0
M  V30 1487 H 145.527 -3.3687 -3.80107 0
M  V30 1488 H 145.457 -1.95897 -4.88807 0
M  V30 1489 H 147.948 -1.77238 -3.33759 0
M  V30 1490 H 148.261 -4.16486 -6.50968 0
M  V30 1491 H 146.606 -3.73971 -5.85808 0
M  V30 1492 H 149.797 -2.26948 -4.09405 0
M  V30 1493 H 149.97 -3.36027 -5.54066 0
M  V30 1494 N 143.376 1.44774 -0.622745 0
M  V30 1495 C 144.624 2.01721 -0.123655 0
M  V30 1496 C 144.945 1.49172 1.25589 0
M  V30 1497 O 144.215 0.691974 1.83272 0
M  V30 1498 H 142.795 0.745777 -0.0427225 0
M  V30 1499 H 145.457 1.77382 -0.807559 0
M  V30 1500 H 144.553 3.11984 -0.0849534 0
M  V30 1501 N 144.854 0.36279 1.53368 0
M  V30 1502 C 146.082 -0.228613 2.05633 0
M  V30 1503 C 146.497 -1.42676 1.23649 0
M  V30 1504 O 145.854 -1.80394 0.27647 0
M  V30 1505 C 145.905 -0.624845 3.56059 0
M  V30 1506 O 145.626 0.525675 4.34935 0
M  V30 1507 C 147.127 -1.27493 4.24571 0
M  V30 1508 H 144.347 -0.0407183 0.669763 0
M  V30 1509 H 146.891 0.520352 1.97769 0
M  V30 1510 H 145.046 -1.32373 3.64083 0
M  V30 1511 H 145.46 0.205969 5.24095 0
M  V30 1512 H 146.934 -1.50277 5.31151 0
M  V30 1513 H 147.411 -2.23439 3.78116 0
M  V30 1514 H 148.017 -0.617558 4.20792 0
M  V30 1515 N 146.332 -1.57332 0.0918853 0
M  V30 1516 C 147.262 -2.16872 -0.865371 0
M  V30 1517 C 148.243 -1.10118 -1.29646 0
M  V30 1518 O 149.428 -1.38242 -1.36392 0
M  V30 1519 C 146.558 -2.74649 -2.12569 0
M  V30 1520 C 145.512 -3.86747 -1.83333 0
M  V30 1521 C 144.838 -4.31212 -3.16166 0
M  V30 1522 C 146.138 -5.10089 -1.1228 0
M  V30 1523 H 147.832 -2.97114 -0.369307 0
M  V30 1524 H 145.378 -1.42918 -0.176194 0
M  V30 1525 H 147.331 -3.14952 -2.7997 0
M  V30 1526 H 146.055 -1.91657 -2.64452 0
M  V30 1527 H 144.714 -3.46978 -1.18331 0
M  V30 1528 H 144.362 -3.45115 -3.6593 0
M  V30 1529 H 144.062 -5.06788 -2.97388 0
M  V30 1530 H 145.586 -4.74146 -3.84731 0
M  V30 1531 H 147 -5.47582 -1.69785 0
M  V30 1532 H 145.397 -5.91073 -1.03693 0
M  V30 1533 H 146.467 -4.84786 -0.105041 0
M  V30 1534 N 147.81 0.181792 -1.56548 0
M  V30 1535 C 149.057 0.900097 -1.81396 0
M  V30 1536 C 149.385 1.82695 -0.667281 0
M  V30 1537 O 148.64 1.92614 0.346146 0
M  V30 1538 C 148.939 1.73728 -3.12335 0
M  V30 1539 C 148.605 0.960255 -4.40556 0
M  V30 1540 C 147.267 0.745766 -4.75386 0
M  V30 1541 C 149.619 0.414477 -5.19549 0
M  V30 1542 C 146.947 -0.0257694 -5.86694 0
M  V30 1543 C 149.299 -0.343916 -6.31664 0
M  V30 1544 C 147.963 -0.569301 -6.65068 0
M  V30 1545 H 147.233 0.329369 -0.663775 0
M  V30 1546 H 149.88 0.165647 -1.90782 0
M  V30 1547 H 148.185 2.54081 -2.98245 0
M  V30 1548 H 149.882 2.29591 -3.28769 0
M  V30 1549 H 146.472 1.13746 -4.13231 0
M  V30 1550 H 150.656 0.567554 -4.93044 0
M  V30 1551 H 145.912 -0.210233 -6.11038 0
M  V30 1552 H 150.086 -0.774133 -6.92084 0
M  V30 1553 H 147.713 -1.16903 -7.51158 0
M  V30 1554 N 149.288 1.51039 0.449983 0
M  V30 1555 C 150.535 1.63081 1.20045 0
M  V30 1556 C 150.863 0.341024 1.91487 0
M  V30 1557 O 150.118 -0.674276 1.83717 0
M  V30 1558 C 150.417 2.77556 2.25161 0
M  V30 1559 C 150.083 4.17289 1.70823 0
M  V30 1560 C 148.745 4.55305 1.55725 0
M  V30 1561 C 151.097 5.04536 1.3074 0
M  V30 1562 C 148.425 5.78287 0.989999 0
M  V30 1563 C 150.777 6.28085 0.754482 0
M  V30 1564 C 149.441 6.64885 0.590308 0
M  V30 1565 H 148.711 0.596755 0.439277 0
M  V30 1566 H 151.358 1.85037 0.49333 0
M  V30 1567 H 149.663 2.49771 3.01863 0
M  V30 1568 H 151.36 2.84073 2.83026 0
M  V30 1569 H 147.95 3.8731 1.83546 0
M  V30 1570 H 152.134 4.75782 1.41229 0
M  V30 1571 H 147.39 6.05456 0.850451 0
M  V30 1572 H 151.564 6.95038 0.435324 0
M  V30 1573 H 149.191 7.60055 0.14862 0
M  V30 1574 N 150.766 -0.704594 1.40972 0
M  V30 1575 C 152.043 -1.45847 1.30338 0
M  V30 1576 C 152.423 -2.10973 -0.0732344 0
M  V30 1577 O 151.771 -2.00997 -1.08685 0
M  V30 1578 C 151.981 -2.48525 2.45023 0
M  V30 1579 C 153.329 -3.1404 2.8577 0
M  V30 1580 O 154.353 -2.58848 2.44696 0
M  V30 1581 O 153.212 -4.13981 3.56766 0
M  V30 1582 H 150.306 -0.649092 0.512454 0
M  V30 1583 H 152.852 -0.735836 1.52917 0
M  V30 1584 H 151.624 -1.98994 3.36923 0
M  V30 1585 H 151.247 -3.2831 2.24272 0
M  V30 1586 N 152.244 -1.26651 -0.937939 0
M  V30 1587 C 153.493 -1.11775 -1.67897 0
M  V30 1588 C 153.806 0.33794 -1.92659 0
M  V30 1589 O 155.012 0.607434 -2.64618 0
M  V30 1590 C 153.468 -1.9523 -3.02346 0
M  V30 1591 C 153.076 -3.45393 -2.8532 0
M  V30 1592 C 154.82 -1.88972 -3.80118 0
M  V30 1593 C 152.727 -4.21083 -4.15263 0
M  V30 1594 H 151.657 -0.414696 -0.629717 0
M  V30 1595 H 154.308 -1.50988 -1.04283 0
M  V30 1596 H 152.69 -1.48853 -3.66959 0
M  V30 1597 H 153.864 -3.99561 -2.29537 0
M  V30 1598 H 152.179 -3.52921 -2.20988 0
M  V30 1599 H 154.776 -2.42805 -4.76392 0
M  V30 1600 H 155.119 -0.86113 -4.07296 0
M  V30 1601 H 155.652 -2.33189 -3.22285 0
M  V30 1602 H 152.391 -5.24425 -3.93267 0
M  V30 1603 H 151.911 -3.71695 -4.70747 0
M  V30 1604 H 153.59 -4.29706 -4.83696 0
M  V30 1605 N 153.722 1.14298 -1.08507 0
M  V30 1606 C 154.685 2.17607 -0.719711 0
M  V30 1607 C 155.685 1.58907 0.245997 0
M  V30 1608 O 156.875 1.74181 0.0254081 0
M  V30 1609 C 154.007 3.40842 -0.0627695 0
M  V30 1610 H 155.2 2.51443 -1.63452 0
M  V30 1611 H 152.753 1.28963 -0.88307 0
M  V30 1612 H 153.488 3.12587 0.863716 0
M  V30 1613 H 153.273 3.84713 -0.757504 0
M  V30 1614 H 154.763 4.17221 0.177786 0
M  V30 1615 N 155.201 0.870884 1.31352 0
M  V30 1616 C 156.617 0.562932 1.49343 0
M  V30 1617 C 156.817 -0.902725 1.80148 0
M  V30 1618 O 155.873 -1.68484 1.88067 0
M  V30 1619 C 157.186 1.46393 2.62659 0
M  V30 1620 C 158.734 1.46607 2.76542 0
M  V30 1621 C 159.209 2.35266 3.92955 0
M  V30 1622 N 160.7 2.33151 4.00243 0
M  V30 1623 C 161.435 2.98471 4.89594 0
M  V30 1624 N 160.931 3.72964 5.8384 0
M  V30 1625 N 162.724 2.87775 4.82848 0
M  V30 1626 H 154.875 1.81923 1.09626 0
M  V30 1627 H 157.138 0.777934 0.541777 0
M  V30 1628 H 156.844 2.50689 2.46674 0
M  V30 1629 H 156.718 1.16314 3.58819 0
M  V30 1630 H 159.105 0.43069 2.9194 0
M  V30 1631 H 159.186 1.8071 1.81046 0
M  V30 1632 H 158.83 3.38881 3.78315 0
M  V30 1633 H 158.76 1.98487 4.87761 0
M  V30 1634 H 161.251 1.79006 3.32814 0
M  V30 1635 H 161.564 4.19932 6.4875 0
M  V30 1636 H 159.909 3.77073 5.83816 0
M  V30 1637 H 163.1 2.29116 4.08195 0
M  V30 1638 H 163.273 3.38961 5.52277 0
M  V30 1639 N 156.679 -1.44442 0.630414 0
M  V30 1640 C 157.928 -2.01267 0.132073 0
M  V30 1641 C 158.241 -1.50172 -1.25331 0
M  V30 1642 O 159.447 -1.9912 -1.84562 0
M  V30 1643 C 157.903 -3.59422 0.185362 0
M  V30 1644 C 157.511 -4.19514 1.57201 0
M  V30 1645 C 159.255 -4.23724 -0.256553 0
M  V30 1646 C 157.162 -5.69891 1.58045 0
M  V30 1647 H 156.092 -0.752619 0.0456092 0
M  V30 1648 H 158.743 -1.65666 0.789106 0
M  V30 1649 H 157.125 -3.92318 -0.538759 0
M  V30 1650 H 158.299 -3.98156 2.31966 0
M  V30 1651 H 156.614 -3.67496 1.95795 0
M  V30 1652 H 159.211 -5.34019 -0.269767 0
M  V30 1653 H 159.554 -3.96013 -1.28372 0
M  V30 1654 H 160.087 -3.95629 0.41505 0
M  V30 1655 H 156.826 -6.02336 2.58597 0
M  V30 1656 H 156.346 -5.93373 0.875725 0
M  V30 1657 H 158.025 -6.33515 1.31408 0
M  V30 1658 N 158.157 -0.370918 -1.53173 0
M  V30 1659 C 159.403 0.217423 -2.01631 0
M  V30 1660 C 159.736 1.47983 -1.25756 0
M  V30 1661 O 159.011 1.91274 -0.352764 0
M  V30 1662 C 159.294 0.503982 -3.56556 0
M  V30 1663 C 159.147 -0.77243 -4.43118 0
M  V30 1664 C 160.466 1.30234 -4.20389 0
M  V30 1665 H 157.585 0.0775486 -0.732909 0
M  V30 1666 H 160.227 -0.496863 -1.83388 0
M  V30 1667 H 158.377 1.11248 -3.72231 0
M  V30 1668 H 160.049 -1.4098 -4.39229 0
M  V30 1669 H 158.292 -1.39167 -4.10871 0
M  V30 1670 H 158.963 -0.526815 -5.4948 0
M  V30 1671 H 161.439 0.787546 -4.08579 0
M  V30 1672 H 160.315 1.47158 -5.28806 0
M  V30 1673 H 160.576 2.31237 -3.76805 0
M  V30 1674 N 159.635 1.57281 -0.100228 0
M  V30 1675 C 161.051 1.57527 0.256416 0
M  V30 1676 C 161.251 1.11173 1.68056 0
M  V30 1677 O 160.307 0.79053 2.39806 0
M  V30 1678 C 161.62 3.00673 0.0401747 0
M  V30 1679 C 163.168 3.12815 0.107528 0
M  V30 1680 C 163.643 4.57929 -0.0807834 0
M  V30 1681 N 165.134 4.63193 -0.0261207 0
M  V30 1682 C 165.869 5.73212 -0.146999 0
M  V30 1683 N 165.365 6.92047 -0.322999 0
M  V30 1684 N 167.158 5.62031 -0.0879044 0
M  V30 1685 H 159.309 1.85718 -1.03065 0
M  V30 1686 H 161.572 0.857446 -0.404339 0
M  V30 1687 H 161.278 3.38804 -0.943649 0
M  V30 1688 H 161.152 3.69042 0.780262 0
M  V30 1689 H 163.539 2.74554 1.08186 0
M  V30 1690 H 163.62 2.47028 -0.664134 0
M  V30 1691 H 163.264 4.96886 -1.05201 0
M  V30 1692 H 163.194 5.21783 0.710635 0
M  V30 1693 H 165.685 3.77748 0.107161 0
M  V30 1694 H 165.998 7.7173 -0.406608 0
M  V30 1695 H 164.343 6.94074 -0.358733 0
M  V30 1696 H 167.534 4.68075 0.048498 0
M  V30 1697 H 167.707 6.47734 -0.185557 0
M  V30 1698 N 161.113 -0.173488 1.56642 0
M  V30 1699 C 162.023 -1.23482 1.99473 0
M  V30 1700 C 163.039 -1.48567 0.905752 0
M  V30 1701 O 164.215 -1.60758 1.21321 0
M  V30 1702 C 161.28 -2.55444 2.34413 0
M  V30 1703 C 160.341 -2.38241 3.57127 0
M  V30 1704 C 159.574 -3.63909 3.90392 0
M  V30 1705 O 159.797 -4.68996 3.24653 0
M  V30 1706 O 158.731 -3.58149 4.83749 0
M  V30 1707 H 162.557 -0.901279 2.90018 0
M  V30 1708 H 160.142 -0.380185 1.44482 0
M  V30 1709 H 162.024 -3.33292 2.57865 0
M  V30 1710 H 160.699 -2.88382 1.4703 0
M  V30 1711 H 159.606 -1.58431 3.38896 0
M  V30 1712 H 160.939 -2.10228 4.45045 0
M  V30 1713 N 162.591 -1.51276 -0.441967 0
M  V30 1714 C 163.538 -1.72256 -1.53612 0
M  V30 1715 C 164.508 -0.564164 -1.56225 0
M  V30 1716 O 165.693 -0.798074 -1.73307 0
M  V30 1717 C 162.833 -1.84932 -2.91366 0
M  V30 1718 C 161.946 -3.12459 -2.98317 0
M  V30 1719 C 161.081 -3.15758 -4.27166 0
M  V30 1720 C 160.12 -4.37619 -4.27967 0
M  V30 1721 N 159.257 -4.38493 -5.48333 0
M  V30 1722 H 164.097 -2.65654 -1.35026 0
M  V30 1723 H 161.634 -1.31662 -0.656009 0
M  V30 1724 H 163.592 -1.90263 -3.7129 0
M  V30 1725 H 162.222 -0.949461 -3.08521 0
M  V30 1726 H 161.274 -3.1646 -2.11086 0
M  V30 1727 H 162.586 -4.02382 -2.94771 0
M  V30 1728 H 161.74 -3.19979 -5.15459 0
M  V30 1729 H 160.479 -2.23715 -4.33362 0
M  V30 1730 H 159.484 -4.33579 -3.38067 0
M  V30 1731 H 160.709 -5.30921 -4.23438 0
M  V30 1732 H 158.655 -3.49318 -5.55259 0
M  V30 1733 H 158.572 -5.22219 -5.46647 0
M  V30 1734 H 159.84 -4.469 -6.38671 0
M  V30 1735 N 164.069 0.697108 -1.41344 0
M  V30 1736 C 165.016 1.81106 -1.43071 0
M  V30 1737 C 165.986 1.63632 -0.285275 0
M  V30 1738 O 167.171 1.84504 -0.486091 0
M  V30 1739 C 164.311 3.18975 -1.31715 0
M  V30 1740 C 163.424 3.47892 -2.56115 0
M  V30 1741 C 162.559 4.75367 -2.37064 0
M  V30 1742 C 161.598 4.97247 -3.56948 0
M  V30 1743 N 160.735 6.15947 -3.36977 0
M  V30 1744 H 165.575 1.78965 -2.38276 0
M  V30 1745 H 163.112 0.873975 -1.18322 0
M  V30 1746 H 165.07 3.98615 -1.23133 0
M  V30 1747 H 163.7 3.20297 -0.401183 0
M  V30 1748 H 162.752 2.62669 -2.75153 0
M  V30 1749 H 164.064 3.59962 -3.45295 0
M  V30 1750 H 163.218 5.63059 -2.25941 0
M  V30 1751 H 161.957 4.65541 -1.45338 0
M  V30 1752 H 160.962 4.08004 -3.68527 0
M  V30 1753 H 162.187 5.08934 -4.49626 0
M  V30 1754 H 160.133 6.07336 -2.47949 0
M  V30 1755 H 160.05 6.28777 -4.19732 0
M  V30 1756 H 161.318 7.06377 -3.29623 0
M  V30 1757 N 165.547 1.27147 0.931209 0
M  V30 1758 C 166.958 1.12044 1.49342 0
M  V30 1759 C 167.309 -0.295795 1.93957 0
M  V30 1760 O 166.434 -1.18835 1.80852 0
M  V30 1761 C 167.029 2.02781 2.71414 0
M  V30 1762 C 165.588 1.91794 3.2387 0
M  V30 1763 C 164.735 1.95543 1.96617 0
M  V30 1764 H 167.686 1.40091 0.745672 0
M  V30 1765 H 167.707 1.58156 3.46074 0
M  V30 1766 H 167.219 3.05848 2.38911 0
M  V30 1767 H 165.32 0.916992 3.6114 0
M  V30 1768 H 165.433 2.77852 3.90302 0
M  V30 1769 H 163.797 1.39722 2.12955 0
M  V30 1770 H 164.58 3.00259 1.66432 0
M  V30 1771 N 167.025 -1.13721 1.09112 0
M  V30 1772 C 167.972 -2.19031 0.727591 0
M  V30 1773 C 168.942 -1.63555 -0.289656 0
M  V30 1774 O 170.127 -1.90023 -0.172026 0
M  V30 1775 C 167.267 -3.4477 0.15082 0
M  V30 1776 C 166.38 -4.14365 1.22172 0
M  V30 1777 C 165.515 -5.27709 0.608042 0
M  V30 1778 C 164.554 -5.89147 1.66047 0
M  V30 1779 N 163.691 -6.93929 1.06806 0
M  V30 1780 H 168.531 -2.49475 1.62991 0
M  V30 1781 H 166.068 -1.22499 0.81439 0
M  V30 1782 H 168.026 -4.16714 -0.201358 0
M  V30 1783 H 166.656 -3.14787 -0.714783 0
M  V30 1784 H 165.708 -3.40737 1.69122 0
M  V30 1785 H 167.02 -4.56114 2.01895 0
M  V30 1786 H 166.174 -6.06355 0.204523 0
M  V30 1787 H 164.913 -4.872 -0.220769 0
M  V30 1788 H 163.918 -5.09198 2.07357 0
M  V30 1789 H 165.143 -6.31729 2.49189 0
M  V30 1790 H 163.089 -6.55483 0.260476 0
M  V30 1791 H 163.006 -7.34202 1.8023 0
M  V30 1792 H 164.274 -7.76434 0.690644 0
M  V30 1793 N 168.503 -0.877838 -1.30888 0
M  V30 1794 C 169.749 -0.493426 -1.96706 0
M  V30 1795 C 170.082 0.953504 -1.6918 0
M  V30 1796 O 169.357 1.67266 -0.992594 0
M  V30 1797 C 169.64 -0.760429 -3.51979 0
M  V30 1798 C 169.493 -2.25747 -3.89048 0
M  V30 1799 C 170.812 -0.232148 -4.39487 0
M  V30 1800 H 167.931 -0.180746 -0.714493 0
M  V30 1801 H 170.573 -1.10052 -1.54882 0
M  V30 1802 H 168.723 -0.243715 -3.87735 0
M  V30 1803 H 170.395 -2.84204 -3.63354 0
M  V30 1804 H 168.638 -2.72694 -3.37373 0
M  V30 1805 H 169.309 -2.39491 -4.97341 0
M  V30 1806 H 171.785 -0.674314 -4.106 0
M  V30 1807 H 170.661 -0.448355 -5.47066 0
M  V30 1808 H 170.922 0.866297 -4.33529 0
M  V30 1809 N 169.982 1.44106 -0.638065 0
M  V30 1810 C 171.228 2.02277 -0.145546 0
M  V30 1811 C 171.561 1.50125 1.23191 0
M  V30 1812 O 170.836 0.688133 1.8192 0
M  V30 1813 C 171.119 3.59829 -0.139791 0
M  V30 1814 C 170.972 4.22247 -1.55008 0
M  V30 1815 C 172.291 4.36873 0.531966 0
M  V30 1816 H 169.41 0.734992 -0.0543632 0
M  V30 1817 H 172.052 1.71592 -0.815863 0
M  V30 1818 H 170.202 3.86102 0.431007 0
M  V30 1819 H 171.874 4.07057 -2.1703 0
M  V30 1820 H 170.117 3.79476 -2.10191 0
M  V30 1821 H 170.788 5.31284 -1.49804 0
M  V30 1822 H 173.264 4.16074 0.0464781 0
M  V30 1823 H 172.14 5.4657 0.505206 0
M  V30 1824 H 172.401 4.11995 1.60352 0
M  V30 1825 N 171.46 0.379036 1.52974 0
M  V30 1826 C 172.707 -0.206421 2.01445 0
M  V30 1827 C 173.035 -1.47668 1.26587 0
M  V30 1828 O 172.29 -1.92514 0.351675 0
M  V30 1829 C 172.589 -0.53096 3.53434 0
M  V30 1830 C 172.255 0.646546 4.46241 0
M  V30 1831 C 170.917 0.969604 4.7133 0
M  V30 1832 C 173.269 1.43479 5.01062 0
M  V30 1833 C 170.597 2.08263 5.48492 0
M  V30 1834 C 172.949 2.53834 5.7944 0
M  V30 1835 C 171.613 2.86659 6.02812 0
M  V30 1836 H 170.883 -0.0755349 0.73714 0
M  V30 1837 H 173.53 0.514271 1.84465 0
M  V30 1838 H 171.835 -1.33285 3.68432 0
M  V30 1839 H 173.532 -0.996417 3.88423 0
M  V30 1840 H 170.122 0.384734 4.2687 0
M  V30 1841 H 174.306 1.19844 4.81613 0
M  V30 1842 H 169.562 2.34078 5.64816 0
M  V30 1843 H 173.736 3.15319 6.20924 0
M  V30 1844 H 171.363 3.73026 6.62387 0
M  V30 1845 N 172.938 -1.57226 0.108567 0
M  V30 1846 C 173.871 -2.10447 -0.882464 0
M  V30 1847 C 174.849 -1.01829 -1.26766 0
M  V30 1848 O 176.033 -1.29415 -1.37054 0
M  V30 1849 C 173.16 -2.59258 -2.17952 0
M  V30 1850 C 172.206 -3.79662 -1.94318 0
M  V30 1851 S 173.039 -5.22586 -1.16892 0
M  V30 1852 C 174.195 -5.74758 -2.47799 0
M  V30 1853 H 174.428 -2.94178 -0.429745 0
M  V30 1854 H 171.961 -1.54043 -0.105 0
M  V30 1855 H 173.919 -2.88036 -2.92482 0
M  V30 1856 H 172.58 -1.75728 -2.60343 0
M  V30 1857 H 171.773 -4.11928 -2.90399 0
M  V30 1858 H 171.375 -3.51446 -1.27913 0
M  V30 1859 H 173.667 -5.83846 -3.43701 0
M  V30 1860 H 174.61 -6.73027 -2.20093 0
M  V30 1861 H 175.018 -5.02763 -2.56689 0
M  V30 1862 N 174.416 0.165178 -1.56732 0
M  V30 1863 C 175.326 1.22423 -2.00125 0
M  V30 1864 C 176.342 1.48084 -0.913619 0
M  V30 1865 O 177.518 1.60112 -1.22172 0
M  V30 1866 C 174.583 2.54197 -2.35764 0
M  V30 1867 C 173.644 2.36343 -3.58386 0
M  V30 1868 C 172.877 3.61834 -3.92316 0
M  V30 1869 O 173.1 4.67267 -3.27135 0
M  V30 1870 O 172.034 3.55579 -4.85641 0
M  V30 1871 H 175.86 0.885886 -2.90492 0
M  V30 1872 H 173.445 0.372518 -1.44681 0
M  V30 1873 H 175.327 3.3192 -2.59629 0
M  V30 1874 H 174.002 2.87598 -1.48557 0
M  V30 1875 H 172.909 1.56632 -3.39731 0
M  V30 1876 H 174.242 2.07865 -4.46154 0
M  V30 1877 N 175.894 1.51508 0.433938 0
M  V30 1878 C 176.842 1.73646 1.54757 0
M  V30 1879 C 177.836 0.602854 1.5831 0
M  V30 1880 O 179.042 0.784318 1.62014 0
M  V30 1881 H 175.417 0.548718 0.51421 0
M  V30 1882 H 177.388 2.66991 1.33261 0
M  V30 1883 C 176.137 1.88172 2.92381 0
M  V30 1884 H 175.46 2.74808 2.90381 0
M  V30 1885 H 176.9 2.07672 3.6966 0
M  V30 1886 C 175.359 0.64239 3.30719 0
M  V30 1887 O 175.889 -0.201362 4.01195 0
M  V30 1888 N 174.095 0.485489 2.86516 0
M  V30 1889 H 173.642 1.17318 2.29334 0
M  V30 1890 H 173.6 -0.342482 3.12529 0
M  V30 1891 N 177.372 -0.689602 1.41712 0
M  V30 1892 C 178.618 -1.45181 1.41599 0
M  V30 1893 C 178.951 -1.94181 0.0270081 0
M  V30 1894 O 178.226 -1.6993 -0.946265 0
M  V30 1895 C 178.509 -2.65945 2.42787 0
M  V30 1896 C 178.362 -2.22672 3.90816 0
M  V30 1897 C 179.681 -3.68149 2.41151 0
M  V30 1898 H 176.8 -0.526576 0.515642 0
M  V30 1899 H 179.442 -0.784947 1.73028 0
M  V30 1900 H 177.592 -3.2284 2.16116 0
M  V30 1901 H 179.264 -1.71058 4.28412 0
M  V30 1902 H 177.507 -1.54394 4.05395 0
M  V30 1903 H 178.178 -3.0935 4.57172 0
M  V30 1904 H 180.654 -3.2094 2.64834 0
M  V30 1905 H 179.53 -4.50248 3.13955 0
M  V30 1906 H 179.791 -4.18259 1.43221 0
M  V30 1907 N 178.85 -1.27639 -0.924453 0
M  V30 1908 C 179.797 -1.10644 -2.0255 0
M  V30 1909 C 180.767 -0.00658438 -1.66099 0
M  V30 1910 O 181.952 -0.16952 -1.90045 0
M  V30 1911 C 179.092 -0.76309 -3.36557 0
M  V30 1912 C 178.205 -1.94091 -3.85944 0
M  V30 1913 C 177.34 -1.53914 -5.08413 0
M  V30 1914 C 176.379 -2.68425 -5.50104 0
M  V30 1915 N 175.516 -2.28815 -6.63768 0
M  V30 1916 H 180.356 -2.04858 -2.16419 0
M  V30 1917 H 177.893 -1.01974 -1.06017 0
M  V30 1918 H 179.851 -0.544822 -4.13627 0
M  V30 1919 H 178.481 0.142102 -3.22487 0
M  V30 1920 H 177.533 -2.27162 -3.05125 0
M  V30 1921 H 178.845 -2.7998 -4.12811 0
M  V30 1922 H 177.999 -1.28231 -5.92994 0
M  V30 1923 H 176.738 -0.651391 -4.8333 0
M  V30 1924 H 175.743 -2.94819 -4.64071 0
M  V30 1925 H 176.968 -3.57826 -5.7718 0
M  V30 1926 H 174.914 -1.42495 -6.40337 0
M  V30 1927 H 174.831 -3.08242 -6.90306 0
M  V30 1928 H 176.099 -2.06387 -7.51681 0
M  V30 1929 N 180.328 1.1314 -1.09713 0
M  V30 1930 C 181.276 2.20717 -0.733934 0
M  V30 1931 C 182.27 1.6729 0.266506 0
M  V30 1932 O 183.476 1.79547 0.127656 0
M  V30 1933 H 179.851 0.719292 -0.21937 0
M  V30 1934 H 181.822 2.48611 -1.6503 0
M  V30 1935 C 180.571 3.47265 -0.173849 0
M  V30 1936 H 179.894 3.88716 -0.934873 0
M  V30 1937 H 181.334 4.23979 0.0423126 0
M  V30 1938 C 179.793 3.18724 1.09164 0
M  V30 1939 O 180.323 3.37762 2.17439 0
M  V30 1940 N 178.529 2.72583 1.00732 0
M  V30 1941 H 178.076 2.57291 0.126121 0
M  V30 1942 H 178.034 2.53862 1.85476 0
M  V30 1943 N 181.806 0.884767 1.30421 0
M  V30 1944 C 183.053 0.503105 1.96151 0
M  V30 1945 C 183.381 -0.947676 1.69851 0
M  V30 1946 O 182.636 -1.68467 0.995861 0
M  V30 1947 C 182.935 0.724318 3.49983 0
M  V30 1948 C 182.601 2.15015 3.96332 0
M  V30 1949 C 181.263 2.54005 4.08699 0
M  V30 1950 C 183.615 3.07936 4.20505 0
M  V30 1951 C 180.943 3.85128 4.42599 0
M  V30 1952 C 183.295 4.3859 4.55874 0
M  V30 1953 C 181.959 4.77474 4.66449 0
M  V30 1954 H 181.229 0.184099 0.717766 0
M  V30 1955 H 183.876 1.12058 1.55291 0
M  V30 1956 H 182.181 0.0238086 3.91793 0
M  V30 1957 H 183.878 0.408617 3.98913 0
M  V30 1958 H 180.468 1.8375 3.87213 0
M  V30 1959 H 184.652 2.79033 4.10431 0
M  V30 1960 H 179.908 4.14996 4.48986 0
M  V30 1961 H 184.082 5.10629 4.7353 0
M  V30 1962 H 181.709 5.79115 4.92473 0
M  V30 1963 N 183.284 -1.43765 0.645699 0
M  V30 1964 C 184.247 -2.29163 -0.0409488 0
M  V30 1965 C 185.247 -1.41813 -0.757996 0
M  V30 1966 O 186.437 -1.63527 -0.600382 0
M  V30 1967 C 183.569 -3.23716 -1.06869 0
M  V30 1968 H 184.762 -2.91366 0.710345 0
M  V30 1969 H 182.315 -1.5092 0.406547 0
M  V30 1970 H 183.05 -2.66393 -1.84947 0
M  V30 1971 H 182.835 -3.88105 -0.558277 0
M  V30 1972 H 184.325 -3.87831 -1.54845 0
M  V30 1973 N 184.763 -0.387143 -1.52771 0
M  V30 1974 C 185.988 0.198407 -2.06449 0
M  V30 1975 C 186.413 1.39918 -1.25716 0
M  V30 1976 O 185.771 1.79099 -0.281657 0
M  V30 1977 C 185.819 0.548893 -3.56398 0
M  V30 1978 O 184.923 1.64315 -3.78252 0
M  V30 1979 H 184.264 0.0237731 -0.663574 0
M  V30 1980 H 186.794 -0.553989 -1.96957 0
M  V30 1981 H 186.804 0.813812 -3.99801 0
M  V30 1982 H 185.479 -0.329005 -4.14597 0
M  V30 1983 H 184.056 1.37211 -3.46738 0
M  V30 1984 N 186.241 1.57166 -0.116904 0
M  V30 1985 C 187.191 2.11756 0.845178 0
M  V30 1986 C 188.175 1.03783 1.22955 0
M  V30 1987 O 189.367 1.3002 1.20099 0
M  V30 1988 C 186.496 2.71886 2.09602 0
M  V30 1989 C 185.582 3.86937 1.7361 0
M  V30 1990 N 185.973 4.94073 1.08284 0
M  V30 1991 C 184.271 3.97082 2.03082 0
M  V30 1992 C 184.972 5.74477 0.913855 0
M  V30 1993 N 183.948 5.2423 1.43818 0
M  V30 1994 H 187.75 2.91967 0.336523 0
M  V30 1995 H 185.264 1.62174 0.0856332 0
M  V30 1996 H 187.261 3.09338 2.79492 0
M  V30 1997 H 185.921 1.93138 2.61013 0
M  V30 1998 H 186.932 5.12483 0.747067 0
M  V30 1999 H 183.609 3.29372 2.56554 0
M  V30 2000 H 184.999 6.70701 0.40125 0
M  V30 2001 N 187.719 -0.156864 1.56817 0
M  V30 2002 C 188.996 -0.899244 1.73704 0
M  V30 2003 C 189.376 -1.99771 0.682254 0
M  V30 2004 O 188.724 -2.26515 -0.300522 0
M  V30 2005 C 188.934 -1.45075 3.17418 0
M  V30 2006 C 190.282 -1.91802 3.7881 0
M  V30 2007 O 191.306 -1.54838 3.20786 0
M  V30 2008 O 190.165 -2.5994 4.80722 0
M  V30 2009 H 187.259 -0.424267 0.709878 0
M  V30 2010 H 189.805 -0.143561 1.69092 0
M  V30 2011 H 188.577 -0.660846 3.85679 0
M  V30 2012 H 188.2 -2.27021 3.26416 0
M  V30 2013 N 189.197 -1.51736 -0.425897 0
M  V30 2014 C 190.145 -1.74464 -1.53834 0
M  V30 2015 C 191.139 -0.611241 -1.57988 0
M  V30 2016 O 192.345 -0.792899 -1.61596 0
M  V30 2017 H 188.72 -0.551437 -0.511293 0
M  V30 2018 H 190.691 -2.67694 -1.31843 0
M  V30 2019 C 189.44 -1.8972 -2.91379 0
M  V30 2020 H 188.763 -2.76344 -2.88919 0
M  V30 2021 H 190.203 -2.09629 -3.68553 0
M  V30 2022 C 188.662 -0.65992 -3.30374 0
M  V30 2023 O 189.192 0.180083 -4.01296 0
M  V30 2024 N 187.398 -0.500677 -2.86254 0
M  V30 2025 H 186.945 -1.18532 -2.28709 0
M  V30 2026 H 186.903 0.325903 -3.12706 0
M  V30 2027 N 190.675 0.682077 -1.42076 0
M  V30 2028 C 191.923 1.4393 -1.41876 0
M  V30 2029 C 192.244 1.94971 -0.0335599 0
M  V30 2030 O 191.514 1.72591 0.926773 0
M  V30 2031 H 190.094 0.534085 -0.522267 0
M  V30 2032 H 192.756 0.806427 -1.77434 0
M  V30 2033 H 191.852 2.29588 -2.11414 0
M  V30 2034 N 192.153 1.28127 0.917671 0
M  V30 2035 C 193.101 1.11569 2.04096 0
M  V30 2036 C 194.095 0.0360242 1.69362 0
M  V30 2037 O 195.301 0.194501 1.78946 0
M  V30 2038 H 191.676 0.344097 0.668656 0
M  V30 2039 H 193.647 2.06711 2.15205 0
M  V30 2040 C 192.396 0.790197 3.38602 0
M  V30 2041 H 191.719 1.61293 3.6582 0
M  V30 2042 H 193.159 0.714271 4.1794 0
M  V30 2043 C 191.618 -0.505897 3.3308 0
M  V30 2044 O 192.148 -1.53736 3.71117 0
M  V30 2045 N 190.354 -0.505193 2.86175 0
M  V30 2046 H 189.901 0.334621 2.55417 0
M  V30 2047 H 189.859 -1.37243 2.82863 0
M  V30 2048 N 193.631 -1.12557 1.10312 0
M  V30 2049 C 194.859 -1.87864 0.866873 0
M  V30 2050 C 195.274 -1.79588 -0.582557 0
M  V30 2051 O 194.631 -1.16887 -1.40156 0
M  V30 2052 C 194.682 -3.37125 1.30496 0
M  V30 2053 O 194.403 -3.45201 2.69755 0
M  V30 2054 C 195.904 -4.29373 1.10243 0
M  V30 2055 H 193.124 -0.594452 0.311236 0
M  V30 2056 H 195.668 -1.42429 1.46745 0
M  V30 2057 H 193.823 -3.80109 0.748081 0
M  V30 2058 H 194.237 -4.38056 2.88457 0
M  V30 2059 H 195.711 -5.32394 1.45811 0
M  V30 2060 H 196.188 -4.39181 0.0409492 0
M  V30 2061 H 196.794 -3.92169 1.64571 0
M  V30 2062 N 195.109 -0.891671 -1.2995 0
M  V30 2063 C 196.039 -0.379797 -2.30391 0
M  V30 2064 C 197.02 0.540919 -1.6127 0
M  V30 2065 O 198.205 0.453352 -1.88834 0
M  V30 2066 C 195.335 0.400654 -3.44981 0
M  V30 2067 C 194.289 -0.428905 -4.25846 0
M  V30 2068 C 193.615 0.478557 -5.32554 0
M  V30 2069 C 194.915 -1.67458 -4.94727 0
M  V30 2070 H 196.609 -1.21914 -2.73454 0
M  V30 2071 H 194.155 -0.587675 -1.31462 0
M  V30 2072 H 196.108 0.769434 -4.14316 0
M  V30 2073 H 194.832 1.27371 -3.0074 0
M  V30 2074 H 193.491 -0.779911 -3.58208 0
M  V30 2075 H 193.139 1.34951 -4.84559 0
M  V30 2076 H 192.839 -0.0727433 -5.87555 0
M  V30 2077 H 194.363 0.843705 -6.04743 0
M  V30 2078 H 195.777 -1.376 -5.56542 0
M  V30 2079 H 194.174 -2.16659 -5.59624 0
M  V30 2080 H 195.244 -2.41518 -4.20473 0
M  V30 2081 N 196.587 1.43421 -0.653314 0
M  V30 2082 C 197.497 2.34568 0.0388565 0
M  V30 2083 C 198.513 1.53888 0.81207 0
M  V30 2084 O 199.689 1.86539 0.759294 0
M  V30 2085 C 196.754 3.32167 0.993269 0
M  V30 2086 C 195.815 4.28751 0.216977 0
M  V30 2087 C 195.048 5.21688 1.12593 0
M  V30 2088 O 195.271 5.19052 2.36519 0
M  V30 2089 O 194.205 5.98919 0.598284 0
M  V30 2090 H 198.031 2.95251 -0.711386 0
M  V30 2091 H 195.616 1.43564 -0.413502 0
M  V30 2092 H 197.498 3.92183 1.54176 0
M  V30 2093 H 196.173 2.73987 1.72374 0
M  V30 2094 H 195.08 3.72215 -0.375101 0
M  V30 2095 H 196.413 4.89913 -0.473924 0
M  V30 2096 N 198.065 0.39524 1.52563 0
M  V30 2097 C 199.311 -0.185318 2.01952 0
M  V30 2098 C 199.644 -1.45964 1.28095 0
M  V30 2099 O 198.919 -1.90689 0.38315 0
M  V30 2100 C 199.202 -0.447193 3.57312 0
M  V30 2101 C 199.055 0.842828 4.41833 0
M  V30 2102 C 200.374 -1.23529 4.22408 0
M  V30 2103 H 197.493 -0.0658788 0.73405 0
M  V30 2104 H 200.135 0.525975 1.82575 0
M  V30 2105 H 198.285 -1.05312 3.73954 0
M  V30 2106 H 199.957 1.4795 4.36931 0
M  V30 2107 H 198.2 1.45686 4.08605 0
M  V30 2108 H 198.871 0.614165 5.48573 0
M  V30 2109 H 201.347 -0.722445 4.0978 0
M  V30 2110 H 200.223 -1.38727 5.3108 0
M  V30 2111 H 200.484 -2.25213 3.80436 0
M  V30 2112 N 199.544 -1.57102 0.125237 0
M  V30 2113 C 200.79 -1.95697 -0.532035 0
M  V30 2114 C 201.123 -1.009 -1.6593 0
M  V30 2115 O 200.398 -0.047347 -1.94442 0
M  V30 2116 C 200.681 -3.44181 -1.05884 0
M  V30 2117 C 200.534 -4.49752 0.0654392 0
M  V30 2118 C 201.853 -3.94655 -1.9477 0
M  V30 2119 H 198.972 -0.711571 -0.191925 0
M  V30 2120 H 201.614 -1.88923 0.20206 0
M  V30 2121 H 199.764 -3.50085 -1.68442 0
M  V30 2122 H 201.436 -4.55943 0.700982 0
M  V30 2123 H 199.679 -4.27653 0.727709 0
M  V30 2124 H 200.35 -5.50924 -0.344505 0
M  V30 2125 H 202.826 -3.91094 -1.42074 0
M  V30 2126 H 201.702 -4.99057 -2.28546 0
M  V30 2127 H 201.963 -3.35718 -2.87656 0
M  V30 2128 N 201.022 0.148545 -1.56898 0
M  V30 2129 C 201.969 1.18345 -1.98149 0
M  V30 2130 C 202.939 1.42772 -0.848848 0
M  V30 2131 O 204.124 1.55132 -1.11079 0
M  V30 2132 C 201.264 2.51231 -2.36594 0
M  V30 2133 C 200.377 2.33991 -3.63142 0
M  V30 2134 C 199.512 3.59902 -3.90697 0
M  V30 2135 C 198.551 3.37692 -5.1052 0
M  V30 2136 N 197.688 4.5573 -5.34092 0
M  V30 2137 H 202.528 0.82467 -2.86362 0
M  V30 2138 H 200.065 0.395756 -1.41676 0
M  V30 2139 H 202.023 3.28713 -2.56912 0
M  V30 2140 H 200.653 2.85059 -1.51463 0
M  V30 2141 H 199.705 1.47572 -3.50609 0
M  V30 2142 H 201.017 2.13539 -4.5078 0
M  V30 2143 H 200.171 4.45813 -4.11505 0
M  V30 2144 H 198.91 3.83357 -3.01477 0
M  V30 2145 H 197.915 2.5017 -4.89587 0
M  V30 2146 H 199.14 3.15637 -6.0129 0
M  V30 2147 H 197.086 4.79361 -4.47827 0
M  V30 2148 H 197.003 4.38274 -6.15996 0
M  V30 2149 H 198.271 5.42858 -5.59397 0
M  V30 2150 N 202.5 1.5196 0.417844 0
M  V30 2151 C 203.448 1.75278 1.52907 0
M  V30 2152 C 204.442 0.619611 1.57662 0
M  V30 2153 O 205.648 0.801457 1.61173 0
M  V30 2154 H 202.023 0.554141 0.508362 0
M  V30 2155 H 203.994 2.68389 1.30422 0
M  V30 2156 C 202.743 1.91262 2.90369 0
M  V30 2157 H 202.066 2.77872 2.8745 0
M  V30 2158 H 203.506 2.11581 3.67436 0
M  V30 2159 C 201.965 0.677431 3.30019 0
M  V30 2160 O 202.495 -0.158799 4.01386 0
M  V30 2161 N 200.701 0.515851 2.85985 0
M  V30 2162 H 200.248 1.19744 2.28077 0
M  V30 2163 H 200.206 -0.309315 3.12875 0
M  V30 2164 N 203.978 -0.674533 1.42435 0
M  V30 2165 C 205.206 -1.46283 1.46317 0
M  V30 2166 C 205.621 -1.88653 0.0745836 0
M  V30 2167 O 204.978 -1.58151 -0.91074 0
M  V30 2168 C 205.029 -2.71178 2.3905 0
M  V30 2169 O 204.75 -2.30586 3.72507 0
M  V30 2170 C 206.251 -3.64738 2.51955 0
M  V30 2171 H 203.471 -0.450104 0.497642 0
M  V30 2172 H 206.015 -0.828792 1.86953 0
M  V30 2173 H 204.17 -3.3077 2.01667 0
M  V30 2174 H 204.584 -3.11241 4.22172 0
M  V30 2175 H 206.058 -4.49096 3.20962 0
M  V30 2176 H 206.535 -4.10656 1.55752 0
M  V30 2177 H 207.141 -3.11038 2.90061 0
M  V30 2178 N 205.456 -1.28612 -0.910864 0
M  V30 2179 C 206.389 -1.07109 -2.01502 0
M  V30 2180 C 207.367 0.013706 -1.62594 0
M  V30 2181 O 208.551 -0.134796 -1.88017 0
M  V30 2182 C 205.678 -0.628255 -3.32822 0
M  V30 2183 C 204.724 -1.71012 -3.90714 0
M  V30 2184 S 205.557 -3.30676 -4.21205 0
M  V30 2185 C 206.713 -2.88234 -5.55583 0
M  V30 2186 H 206.946 -2.00591 -2.19432 0
M  V30 2187 H 204.479 -1.12633 -1.05609 0
M  V30 2188 H 206.437 -0.37946 -4.08742 0
M  V30 2189 H 205.098 0.28678 -3.12788 0
M  V30 2190 H 204.291 -1.35195 -4.85529 0
M  V30 2191 H 203.893 -1.91186 -3.21441 0
M  V30 2192 H 206.185 -2.34584 -6.35591 0
M  V30 2193 H 207.128 -3.81857 -5.96314 0
M  V30 2194 H 207.536 -2.26862 -5.16908 0
M  V30 2195 N 206.934 1.1197 -1.10907 0
M  V30 2196 C 207.882 2.19927 -0.757303 0
M  V30 2197 C 208.876 1.67564 0.248747 0
M  V30 2198 O 210.082 1.79672 0.108605 0
M  V30 2199 H 206.457 0.716925 -0.226987 0
M  V30 2200 H 208.428 2.46847 -1.67658 0
M  V30 2201 C 207.177 3.47061 -0.210671 0
M  V30 2202 H 206.5 3.87703 -0.976049 0
M  V30 2203 H 207.94 4.24 -0.0026584 0
M  V30 2204 C 206.399 3.19864 1.05777 0
M  V30 2205 O 206.929 3.40049 2.13845 0
M  V30 2206 N 205.135 2.73636 0.978349 0
M  V30 2207 H 204.682 2.5741 0.0988246 0
M  V30 2208 H 204.64 2.55815 1.82773 0
M  V30 2209 N 208.412 0.89855 1.29475 0
M  V30 2210 C 209.322 0.379974 2.31502 0
M  V30 2211 C 210.338 -0.524695 1.659 0
M  V30 2212 O 211.514 -0.414551 1.97087 0
M  V30 2213 C 208.579 -0.385138 3.44554 0
M  V30 2214 C 207.64 0.550914 4.2575 0
M  V30 2215 C 206.873 -0.177778 5.33404 0
M  V30 2216 O 207.096 -1.40189 5.52904 0
M  V30 2217 O 206.03 0.479106 5.9999 0
M  V30 2218 H 209.856 1.22639 2.77837 0
M  V30 2219 H 207.441 0.662834 1.33891 0
M  V30 2220 H 209.323 -0.817841 4.13388 0
M  V30 2221 H 207.998 -1.20763 3.0033 0
M  V30 2222 H 206.905 1.03271 3.59564 0
M  V30 2223 H 208.238 1.33979 4.73614 0
M  V30 2224 N 209.89 -1.43072 0.660911 0
M  V30 2225 C 210.82 -2.33497 -0.0122829 0
M  V30 2226 C 211.801 -1.49903 -0.803925 0
M  V30 2227 O 212.986 -1.78546 -0.763864 0
M  V30 2228 C 210.116 -3.33363 -0.973994 0
M  V30 2229 C 209.07 -4.27003 -0.291928 0
M  V30 2230 C 208.396 -5.16967 -1.36562 0
M  V30 2231 C 209.696 -5.15816 0.820462 0
M  V30 2232 H 211.39 -2.90038 0.742873 0
M  V30 2233 H 208.936 -1.39461 0.358688 0
M  V30 2234 H 210.889 -3.95524 -1.45392 0
M  V30 2235 H 209.613 -2.75095 -1.7604 0
M  V30 2236 H 208.272 -3.66217 0.167623 0
M  V30 2237 H 207.92 -4.55034 -2.14366 0
M  V30 2238 H 207.62 -5.80441 -0.914454 0
M  V30 2239 H 209.144 -5.82003 -1.84675 0
M  V30 2240 H 210.558 -5.71742 0.422366 0
M  V30 2241 H 208.955 -5.8805 1.19656 0
M  V30 2242 H 210.025 -4.55045 1.67518 0
M  V30 2243 N 211.368 -0.403325 -1.52352 0
M  V30 2244 C 212.645 0.232611 -1.94212 0
M  V30 2245 C 213.025 1.63133 -1.33981 0
M  V30 2246 O 212.373 2.22659 -0.513344 0
M  V30 2247 C 212.583 0.244811 -3.4814 0
M  V30 2248 C 213.931 0.46698 -4.22024 0
M  V30 2249 O 214.955 0.324419 -3.5472 0
M  V30 2250 O 213.814 0.74747 -5.41364 0
M  V30 2251 H 210.908 0.148223 -0.813609 0
M  V30 2252 H 213.454 -0.458848 -1.63379 0
M  V30 2253 H 212.226 -0.734378 -3.84347 0
M  V30 2254 H 211.849 0.980611 -3.85318 0
M  V30 2255 N 212.846 1.57033 -0.133567 0
M  V30 2256 C 214.076 1.99754 0.527429 0
M  V30 2257 C 214.484 1.01245 1.59832 0
M  V30 2258 O 213.827 -0.000645496 1.837 0
M  V30 2259 C 213.889 3.38903 1.19939 0
M  V30 2260 C 213.553 4.56174 0.274709 0
M  V30 2261 C 214.55 5.17563 -0.492398 0
M  V30 2262 C 212.235 5.01972 0.18153 0
M  V30 2263 C 214.229 6.2315 -1.34027 0
M  V30 2264 C 211.916 6.07416 -0.669958 0
M  V30 2265 C 212.914 6.67874 -1.42947 0
M  V30 2266 O 212.602 7.71279 -2.2668 0
M  V30 2267 H 212.334 0.660702 0.142999 0
M  V30 2268 H 214.888 2.04207 -0.221099 0
M  V30 2269 H 213.118 3.31248 1.99528 0
M  V30 2270 H 214.807 3.65818 1.75875 0
M  V30 2271 H 215.573 4.83087 -0.430367 0
M  V30 2272 H 211.452 4.54652 0.762422 0
M  V30 2273 H 214.996 6.70268 -1.93357 0
M  V30 2274 H 210.893 6.41321 -0.73333 0
M  V30 2275 H 211.661 7.88441 -2.1978 0
M  V30 2276 N 214.325 -0.140222 1.56975 0
M  V30 2277 C 215.55 -0.870414 1.88251 0
M  V30 2278 C 215.975 -1.73637 0.723312 0
M  V30 2279 O 215.333 -1.78329 -0.32689 0
M  V30 2280 C 215.381 -1.69737 3.18154 0
M  V30 2281 O 214.485 -2.80229 3.02565 0
M  V30 2282 H 213.826 -0.242025 0.61832 0
M  V30 2283 H 216.356 -0.128999 2.04193 0
M  V30 2284 H 216.366 -2.09099 3.50345 0
M  V30 2285 H 215.041 -1.06152 4.02125 0
M  V30 2286 H 213.618 -2.44224 2.81796 0
M  V30 2287 N 215.803 -1.52179 -0.40978 0
M  V30 2288 C 217.05 -1.66206 -1.15679 0
M  V30 2289 C 217.378 -0.391674 -1.90516 0
M  V30 2290 O 216.633 0.62533 -1.8544 0
M  V30 2291 C 216.932 -2.83428 -2.17723 0
M  V30 2292 C 216.598 -4.21672 -1.59699 0
M  V30 2293 C 215.26 -4.59274 -1.43599 0
M  V30 2294 C 217.612 -5.07825 -1.17317 0
M  V30 2295 C 214.94 -5.80709 -0.836328 0
M  V30 2296 C 217.292 -6.29864 -0.587691 0
M  V30 2297 C 215.956 -6.66216 -0.413818 0
M  V30 2298 H 215.226 -0.608192 -0.423301 0
M  V30 2299 H 217.873 -1.86279 -0.444097 0
M  V30 2300 H 216.178 -2.57687 -2.95135 0
M  V30 2301 H 217.875 -2.91477 -2.75394 0
M  V30 2302 H 214.465 -3.9204 -1.73213 0
M  V30 2303 H 218.649 -4.79359 -1.28565 0
M  V30 2304 H 213.905 -6.07498 -0.689626 0
M  V30 2305 H 218.079 -6.95948 -0.250894 0
M  V30 2306 H 215.706 -7.60182 0.0529471 0
M  V30 2307 N 217.281 0.66697 -1.42791 0
M  V30 2308 C 218.231 1.77313 -1.43332 0
M  V30 2309 C 219.215 1.5801 -0.303586 0
M  V30 2310 O 220.407 1.68356 -0.546385 0
M  V30 2311 C 217.536 3.15822 -1.34578 0
M  V30 2312 C 216.622 3.40721 -2.52528 0
M  V30 2313 N 217.013 3.36162 -3.77927 0
M  V30 2314 C 215.311 3.71387 -2.46956 0
M  V30 2315 C 216.012 3.60762 -4.56318 0
M  V30 2316 N 214.988 3.81908 -3.86843 0
M  V30 2317 H 218.79 1.72193 -2.38174 0
M  V30 2318 H 216.304 0.868114 -1.3725 0
M  V30 2319 H 218.301 3.951 -1.33048 0
M  V30 2320 H 216.961 3.22133 -0.407453 0
M  V30 2321 H 217.972 3.15885 -4.10411 0
M  V30 2322 H 214.649 3.84897 -1.61743 0
M  V30 2323 H 216.039 3.63132 -5.65318 0
M  V30 2324 N 218.759 1.29093 0.90403 0
M  V30 2325 C 219.722 1.1386 1.98919 0
M  V30 2326 C 220.722 0.0753457 1.60623 0
M  V30 2327 O 221.912 0.321931 1.71199 0
M  V30 2328 C 219.044 0.740198 3.32767 0
M  V30 2329 H 220.237 2.10246 2.13861 0
M  V30 2330 H 217.79 1.12218 1.08797 0
M  V30 2331 H 218.525 -0.223997 3.23525 0
M  V30 2332 H 218.31 1.50838 3.61926 0
M  V30 2333 H 219.8 0.656546 4.12407 0
M  V30 2334 N 220.237 -1.11381 1.11499 0
M  V30 2335 C 221.184 -2.17439 0.773887 0
M  V30 2336 C 222.154 -1.64132 -0.254899 0
M  V30 2337 O 223.339 -1.90345 -0.13168 0
M  V30 2338 C 220.479 -3.44373 0.223917 0
M  V30 2339 C 219.592 -4.1168 1.30934 0
M  V30 2340 C 218.727 -5.263 0.71984 0
M  V30 2341 C 217.766 -5.85493 1.78507 0
M  V30 2342 N 216.903 -6.91507 1.21502 0
M  V30 2343 H 221.743 -2.45962 1.68246 0
M  V30 2344 H 219.28 -1.20744 0.840191 0
M  V30 2345 H 221.238 -4.17047 -0.112921 0
M  V30 2346 H 219.868 -3.16232 -0.647851 0
M  V30 2347 H 218.92 -3.37073 1.76312 0
M  V30 2348 H 220.232 -4.51729 2.11524 0
M  V30 2349 H 219.386 -6.05785 0.333094 0
M  V30 2350 H 218.125 -4.87559 -0.117377 0
M  V30 2351 H 217.13 -5.04686 2.18111 0
M  V30 2352 H 218.355 -6.26301 2.62533 0
M  V30 2353 H 216.301 -6.54783 0.399455 0
M  V30 2354 H 216.218 -7.30214 1.95763 0
M  V30 2355 H 217.486 -7.74795 0.855181 0
M  V30 2356 N 221.715 -0.905404 -1.28997 0
M  V30 2357 C 222.961 -0.535039 -1.95615 0
M  V30 2358 C 223.294 0.917404 -1.71165 0
M  V30 2359 O 222.569 1.65123 -1.02785 0
M  V30 2360 C 222.852 -0.834918 -3.50287 0
M  V30 2361 C 222.705 -2.33948 -3.84172 0
M  V30 2362 C 224.024 -0.325318 -4.38896 0
M  V30 2363 H 221.143 -0.195861 -0.710498 0
M  V30 2364 H 223.785 -1.13313 -1.52513 0
M  V30 2365 H 221.935 -0.325904 -3.87131 0
M  V30 2366 H 223.607 -2.91847 -3.57243 0
M  V30 2367 H 221.85 -2.79789 -3.31513 0
M  V30 2368 H 222.521 -2.49987 -4.92149 0
M  V30 2369 H 224.997 -0.761256 -4.09077 0
M  V30 2370 H 223.873 -0.564295 -5.45992 0
M  V30 2371 H 224.134 0.774144 -4.35269 0
M  V30 2372 N 223.193 1.4272 -0.668489 0
M  V30 2373 C 224.123 2.335 -0.000100175 0
M  V30 2374 C 225.104 1.50328 0.795964 0
M  V30 2375 O 226.289 1.78949 0.754385 0
M  V30 2376 C 223.419 3.33874 0.956302 0
M  V30 2377 C 222.373 4.27152 0.269278 0
M  V30 2378 C 221.699 5.17684 1.33818 0
M  V30 2379 C 222.999 5.15373 -0.847805 0
M  V30 2380 H 224.693 2.89639 -0.758244 0
M  V30 2381 H 222.239 1.39269 -0.366079 0
M  V30 2382 H 224.192 3.9629 1.43292 0
M  V30 2383 H 222.916 2.76025 1.74579 0
M  V30 2384 H 221.575 3.66123 -0.187042 0
M  V30 2385 H 221.223 4.56165 2.1195 0
M  V30 2386 H 220.923 5.80918 0.883659 0
M  V30 2387 H 222.447 5.82974 1.81586 0
M  V30 2388 H 223.861 5.7151 -0.452681 0
M  V30 2389 H 222.258 5.87407 -1.22773 0
M  V30 2390 H 223.328 4.5415 -1.69929 0
M  V30 2391 N 224.671 0.411399 1.52136 0
M  V30 2392 C 225.619 -0.427633 2.28635 0
M  V30 2393 C 226.613 -1.04383 1.33419 0
M  V30 2394 O 227.819 -0.981772 1.50868 0
M  V30 2395 H 224.194 -0.156689 0.735495 0
M  V30 2396 H 226.165 0.238761 2.97443 0
M  V30 2397 C 224.914 -1.53082 3.12188 0
M  V30 2398 H 224.237 -1.06601 3.85326 0
M  V30 2399 H 225.677 -2.09167 3.68816 0
M  V30 2400 C 224.136 -2.49946 2.25895 0
M  V30 2401 O 224.666 -3.53884 1.90076 0
M  V30 2402 N 222.872 -2.2021 1.8962 0
M  V30 2403 H 222.419 -1.35719 2.18948 0
M  V30 2404 H 222.377 -2.85266 1.32176 0
M  V30 2405 N 226.149 -1.5696 0.141893 0
M  V30 2406 C 227.112 -2.15316 -0.785587 0
M  V30 2407 C 228.112 -1.09366 -1.1788 0
M  V30 2408 O 229.302 -1.35031 -1.10056 0
M  V30 2409 C 226.434 -2.71211 -2.06537 0
M  V30 2410 H 227.627 -2.98608 -0.278041 0
M  V30 2411 H 225.18 -1.5593 -0.107519 0
M  V30 2412 H 225.915 -1.91571 -2.6167 0
M  V30 2413 H 225.7 -3.4872 -1.79268 0
M  V30 2414 H 227.19 -3.16189 -2.72789 0
M  V30 2415 N 227.627 0.131896 -1.57047 0
M  V30 2416 C 228.557 1.16384 -2.02428 0
M  V30 2417 C 229.538 1.43936 -0.90644 0
M  V30 2418 O 230.723 1.54599 -1.17528 0
M  V30 2419 C 227.853 2.49328 -2.4177 0
M  V30 2420 C 226.807 2.36266 -3.56879 0
M  V30 2421 C 226.133 3.74057 -3.8208 0
M  V30 2422 C 227.433 1.834 -4.89042 0
M  V30 2423 H 229.127 0.786433 -2.88887 0
M  V30 2424 H 226.673 0.376855 -1.38981 0
M  V30 2425 H 228.626 3.21759 -2.7212 0
M  V30 2426 H 227.35 2.88934 -1.52266 0
M  V30 2427 H 226.009 1.66286 -3.26718 0
M  V30 2428 H 225.657 4.11125 -2.89803 0
M  V30 2429 H 225.357 3.66174 -4.59554 0
M  V30 2430 H 226.881 4.48012 -4.1487 0
M  V30 2431 H 228.295 2.45636 -5.18011 0
M  V30 2432 H 226.692 1.8637 -5.70426 0
M  V30 2433 H 227.762 0.790662 -4.7841 0
M  V30 2434 N 229.106 1.52395 0.401703 0
M  V30 2435 C 230.383 1.57387 1.16141 0
M  V30 2436 C 230.763 0.359359 2.08019 0
M  V30 2437 O 230.111 -0.65326 2.18963 0
M  V30 2438 C 230.321 2.90631 1.93221 0
M  V30 2439 C 231.669 3.43904 2.49028 0
M  V30 2440 O 232.693 2.92421 2.03393 0
M  V30 2441 O 231.552 4.33823 3.32356 0
M  V30 2442 H 228.646 0.634262 0.530698 0
M  V30 2443 H 231.192 1.64725 0.407883 0
M  V30 2444 H 229.964 3.70473 1.25958 0
M  V30 2445 H 229.587 2.8662 2.75563 0
M  V30 2446 N 230.584 -0.659388 1.43143 0
M  V30 2447 C 231.814 -1.44513 1.47646 0
M  V30 2448 C 232.222 -1.88981 0.0910095 0
M  V30 2449 O 231.565 -1.59702 -0.907789 0
M  V30 2450 C 231.627 -2.71663 2.35456 0
M  V30 2451 C 231.291 -2.49175 3.83094 0
M  V30 2452 C 232.288 -2.1279 4.74359 0
M  V30 2453 C 229.973 -2.63691 4.27519 0
M  V30 2454 C 231.967 -1.9121 6.08044 0
M  V30 2455 C 229.654 -2.41726 5.61259 0
M  V30 2456 C 230.652 -2.0554 6.51339 0
M  V30 2457 O 230.34 -1.838 7.82606 0
M  V30 2458 H 230.072 -0.45064 0.503884 0
M  V30 2459 H 232.626 -0.816248 1.88485 0
M  V30 2460 H 230.856 -3.37089 1.89493 0
M  V30 2461 H 232.545 -3.33595 2.31235 0
M  V30 2462 H 233.311 -2.01157 4.41317 0
M  V30 2463 H 229.19 -2.90832 3.57684 0
M  V30 2464 H 232.734 -1.62889 6.78316 0
M  V30 2465 H 228.631 -2.52959 5.9387 0
M  V30 2466 H 229.399 -1.98275 7.94122 0
M  V30 2467 N 232.062 -1.29571 -0.897171 0
M  V30 2468 C 233.31 -1.17456 -1.64464 0
M  V30 2469 C 233.631 0.273698 -1.9307 0
M  V30 2470 O 232.901 1.18684 -1.55855 0
M  V30 2471 H 231.481 -0.431706 -0.609622 0
M  V30 2472 H 234.143 -1.62531 -1.07562 0
M  V30 2473 H 233.239 -1.72648 -2.59998 0
M  V30 2474 N 233.54 1.10788 -1.12088 0
M  V30 2475 C 234.789 1.82036 -0.868659 0
M  V30 2476 C 235.102 1.85929 0.607426 0
M  V30 2477 O 236.308 2.53346 0.97613 0
M  V30 2478 C 234.764 3.26951 -1.50435 0
M  V30 2479 C 234.372 3.31367 -3.01496 0
M  V30 2480 C 236.116 4.03053 -1.33225 0
M  V30 2481 C 234.023 4.7072 -3.58017 0
M  V30 2482 H 232.953 0.682108 -0.321318 0
M  V30 2483 H 235.604 1.24618 -1.34694 0
M  V30 2484 H 233.986 3.84343 -0.953735 0
M  V30 2485 H 235.16 2.83819 -3.6302 0
M  V30 2486 H 233.475 2.6875 -3.18061 0
M  V30 2487 H 236.072 5.05981 -1.72878 0
M  V30 2488 H 236.415 4.15387 -0.275529 0
M  V30 2489 H 236.948 3.52066 -1.85188 0
M  V30 2490 H 233.687 4.63585 -4.63432 0
M  V30 2491 H 233.207 5.1865 -3.01268 0
M  V30 2492 H 234.886 5.39685 -3.56859 0
M  V30 2493 N 235.018 0.912232 1.28515 0
M  V30 2494 C 236.429 0.591352 1.77087 0
M  V30 2495 C 236.78 -0.8933 1.74684 0
M  V30 2496 O 235.905 -1.69876 1.34056 0
M  V30 2497 C 236.5 1.06668 3.2157 0
M  V30 2498 C 235.059 0.79675 3.67871 0
M  V30 2499 C 234.206 1.23427 2.48316 0
M  V30 2500 H 237.157 1.09365 1.15 0
M  V30 2501 H 237.178 0.407455 3.78312 0
M  V30 2502 H 236.69 2.14726 3.23287 0
M  V30 2503 H 234.791 -0.270679 3.71616 0
M  V30 2504 H 234.904 1.40343 4.58084 0
M  V30 2505 H 233.268 0.653036 2.46186 0
M  V30 2506 H 234.051 2.32316 2.52753 0
M  V30 2507 N 236.496 -1.42363 0.676048 0
M  V30 2508 C 237.428 -2.29164 -0.0404605 0
M  V30 2509 C 238.441 -1.43747 -0.764245 0
M  V30 2510 O 239.63 -1.67453 -0.618195 0
M  V30 2511 C 236.73 -3.21196 -1.08103 0
M  V30 2512 C 235.903 -4.35273 -0.430812 0
M  V30 2513 C 234.962 -5.08017 -1.37133 0
M  V30 2514 O 233.988 -5.62494 -0.87116 0
M  V30 2515 N 235.19 -5.13647 -2.70456 0
M  V30 2516 H 237.955 -2.91298 0.704667 0
M  V30 2517 H 235.516 -1.53303 0.520559 0
M  V30 2518 H 237.508 -3.66728 -1.71152 0
M  V30 2519 H 236.078 -2.60505 -1.72788 0
M  V30 2520 H 235.298 -3.92372 0.379209 0
M  V30 2521 H 236.586 -5.08795 0.0221132 0
M  V30 2522 H 235.984 -4.708 -3.1363 0
M  V30 2523 H 234.541 -5.62821 -3.28749 0
M  V30 2524 N 237.974 -0.419461 -1.51915 0
M  V30 2525 C 238.921 0.400927 -2.27291 0
M  V30 2526 C 239.891 1.03224 -1.30131 0
M  V30 2527 O 241.076 1.05455 -1.59009 0
M  V30 2528 C 238.216 1.50603 -3.10504 0
M  V30 2529 C 237.329 0.89462 -4.22635 0
M  V30 2530 C 236.464 1.97328 -4.93189 0
M  V30 2531 C 235.503 1.33935 -5.97267 0
M  V30 2532 N 234.64 2.3586 -6.61298 0
M  V30 2533 H 239.48 -0.248251 -2.96964 0
M  V30 2534 H 237.017 -0.134266 -1.46486 0
M  V30 2535 H 238.975 2.15783 -3.57062 0
M  V30 2536 H 237.605 2.12509 -2.42981 0
M  V30 2537 H 236.657 0.131583 -3.80172 0
M  V30 2538 H 237.969 0.391641 -4.9726 0
M  V30 2539 H 237.123 2.70211 -5.43204 0
M  V30 2540 H 235.862 2.50994 -4.18155 0
M  V30 2541 H 234.867 0.595896 -5.46561 0
M  V30 2542 H 236.092 0.810252 -6.74249 0
M  V30 2543 H 234.038 2.88639 -5.89087 0
M  V30 2544 H 233.955 1.90403 -7.3163 0
M  V30 2545 H 235.223 3.08282 -7.15949 0
M  V30 2546 N 239.452 1.56882 -0.150215 0
M  V30 2547 C 240.868 1.58263 0.20617 0
M  V30 2548 C 241.068 1.16464 1.64434 0
M  V30 2549 O 240.124 0.866422 2.3717 0
M  V30 2550 C 241.437 3.00649 -0.0555025 0
M  V30 2551 C 242.985 3.12999 0.00795388 0
M  V30 2552 C 243.46 4.5744 -0.226429 0
M  V30 2553 N 244.951 4.62875 -0.173469 0
M  V30 2554 C 245.686 5.72454 -0.329288 0
M  V30 2555 N 245.182 6.90669 -0.543005 0
M  V30 2556 N 246.975 5.61467 -0.266666 0
M  V30 2557 H 239.126 1.82345 -1.08922 0
M  V30 2558 H 241.389 0.844149 -0.431413 0
M  V30 2559 H 241.095 3.3563 -1.05096 0
M  V30 2560 H 240.969 3.71337 0.66246 0
M  V30 2561 H 243.356 2.77857 0.993966 0
M  V30 2562 H 243.437 2.4479 -0.742388 0
M  V30 2563 H 243.081 4.93287 -1.20956 0
M  V30 2564 H 243.011 5.2378 0.544274 0
M  V30 2565 H 245.502 3.77898 -0.0130709 0
M  V30 2566 H 245.815 7.70045 -0.651922 0
M  V30 2567 H 244.16 6.92581 -0.579366 0
M  V30 2568 H 247.351 4.67992 -0.100441 0
M  V30 2569 H 247.524 6.46816 -0.391535 0
M  V30 2570 N 240.93 -0.123565 1.57115 0
M  V30 2571 C 241.84 -1.17074 2.033 0
M  V30 2572 C 242.856 -1.4561 0.952559 0
M  V30 2573 O 244.032 -1.56817 1.26374 0
M  V30 2574 C 241.097 -2.47857 2.42421 0
M  V30 2575 C 240.158 -2.26758 3.64526 0
M  V30 2576 C 239.391 -3.51305 4.01771 0
M  V30 2577 O 239.614 -4.5843 3.39409 0
M  V30 2578 O 238.548 -3.42578 4.94898 0
M  V30 2579 H 242.374 -0.808555 2.92739 0
M  V30 2580 H 239.959 -0.334027 1.45618 0
M  V30 2581 H 241.841 -3.2492 2.68338 0
M  V30 2582 H 240.516 -2.83558 1.5613 0
M  V30 2583 H 239.423 -1.47569 3.43765 0
M  V30 2584 H 240.756 -1.95963 4.51508 0
M  V30 2585 N 242.408 -1.52605 -0.393616 0
M  V30 2586 C 243.824 -1.41753 -0.733357 0
M  V30 2587 C 244.024 -0.534293 -1.94287 0
M  V30 2588 O 243.08 -0.0059787 -2.52499 0
M  V30 2589 C 244.393 -2.84531 -0.972772 0
M  V30 2590 C 245.941 -2.93978 -1.07453 0
M  V30 2591 C 246.416 -4.37756 -1.3466 0
M  V30 2592 N 247.907 -4.4106 -1.41492 0
M  V30 2593 C 248.642 -5.49387 -1.642 0
M  V30 2594 N 248.138 -6.67806 -1.8441 0
M  V30 2595 N 249.931 -5.36923 -1.66342 0
M  V30 2596 H 242.082 -2.08555 0.402328 0
M  V30 2597 H 244.345 -0.940654 0.117789 0
M  V30 2598 H 244.051 -3.51353 -0.156204 0
M  V30 2599 H 243.925 -3.26508 -1.88871 0
M  V30 2600 H 246.312 -2.27326 -1.88167 0
M  V30 2601 H 246.393 -2.55435 -0.136605 0
M  V30 2602 H 246.037 -5.04972 -0.544581 0
M  V30 2603 H 245.967 -4.73848 -2.2973 0
M  V30 2604 H 248.458 -3.55705 -1.27601 0
M  V30 2605 H 248.771 -7.46141 -2.01231 0
M  V30 2606 H 247.116 -6.70843 -1.81644 0
M  V30 2607 H 250.307 -4.43381 -1.50102 0
M  V30 2608 H 250.48 -6.21416 -1.837 0
M  V30 2609 N 243.887 0.651787 -1.4349 0
M  V30 2610 C 245.136 1.40754 -1.44469 0
M  V30 2611 C 245.449 1.95463 -0.0731845 0
M  V30 2612 O 246.655 2.71471 0.0395721 0
M  V30 2613 C 245.111 2.54735 -2.5424 0
M  V30 2614 C 244.719 2.06628 -3.97504 0
M  V30 2615 C 246.463 3.32092 -2.64414 0
M  V30 2616 C 244.37 3.17829 -4.98737 0
M  V30 2617 H 243.3 0.528862 -0.53742 0
M  V30 2618 H 245.951 0.703365 -1.69485 0
M  V30 2619 H 244.333 3.2763 -2.22428 0
M  V30 2620 H 245.507 1.40734 -4.38783 0
M  V30 2621 H 243.822 1.42146 -3.91387 0
M  V30 2622 H 246.419 4.14952 -3.37223 0
M  V30 2623 H 246.762 3.80217 -1.69532 0
M  V30 2624 H 247.295 2.66279 -2.95534 0
M  V30 2625 H 244.034 2.74671 -5.95177 0
M  V30 2626 H 243.554 3.82429 -4.62069 0
M  V30 2627 H 245.233 3.82937 -5.21505 0
M  V30 2628 N 245.365 1.30045 0.890287 0
M  V30 2629 C 246.595 1.21296 1.67245 0
M  V30 2630 C 247.003 -0.227471 1.87828 0
M  V30 2631 O 246.346 -1.16296 1.422 0
M  V30 2632 C 246.408 1.86519 3.07329 0
M  V30 2633 C 246.072 3.35837 3.09939 0
M  V30 2634 C 247.069 4.31915 2.89389 0
M  V30 2635 C 244.754 3.77196 3.31706 0
M  V30 2636 C 246.748 5.67325 2.90552 0
M  V30 2637 C 244.435 5.12725 3.32499 0
M  V30 2638 C 245.433 6.076 3.11947 0
M  V30 2639 O 245.121 7.40655 3.12547 0
M  V30 2640 H 244.853 0.4211 0.528821 0
M  V30 2641 H 247.407 1.72111 1.12103 0
M  V30 2642 H 245.637 1.30228 3.64112 0
M  V30 2643 H 247.326 1.71963 3.67673 0
M  V30 2644 H 248.092 4.01294 2.72375 0
M  V30 2645 H 243.971 3.03796 3.4674 0
M  V30 2646 H 247.515 6.41354 2.74429 0
M  V30 2647 H 243.412 5.42988 3.49047 0
M  V30 2648 H 244.18 7.49577 3.28749 0
M  V30 2649 N 246.843 -1.10192 1.12674 0
M  V30 2650 C 247.776 -2.15847 0.740625 0
M  V30 2651 C 248.754 -1.60352 -0.269421 0
M  V30 2652 O 249.938 -1.87796 -0.16278 0
M  V30 2653 C 247.065 -3.38562 0.096641 0
M  V30 2654 C 246.111 -4.12758 1.07391 0
M  V30 2655 S 246.944 -4.67997 2.60267 0
M  V30 2656 C 248.1 -5.94021 1.97206 0
M  V30 2657 H 248.333 -2.48266 1.63558 0
M  V30 2658 H 245.866 -1.22019 0.946087 0
M  V30 2659 H 247.824 -4.09621 -0.268535 0
M  V30 2660 H 246.485 -3.04377 -0.775462 0
M  V30 2661 H 245.678 -5.00755 0.570997 0
M  V30 2662 H 245.28 -3.47523 1.38216 0
M  V30 2663 H 247.572 -6.64589 1.31634 0
M  V30 2664 H 248.515 -6.48979 2.83253 0
M  V30 2665 H 248.923 -5.46169 1.42686 0
M  V30 2666 N 248.321 -0.919034 -1.28029 0
M  V30 2667 C 249.57 -0.550802 -1.94034 0
M  V30 2668 C 249.883 0.910877 -1.73096 0
M  V30 2669 O 251.089 1.3875 -2.33368 0
M  V30 2670 C 249.545 -0.934249 -3.47563 0
M  V30 2671 C 249.153 -2.41602 -3.7727 0
M  V30 2672 C 250.897 -0.636854 -4.19696 0
M  V30 2673 C 248.804 -2.73932 -5.24133 0
M  V30 2674 H 247.734 -0.202273 -0.726362 0
M  V30 2675 H 250.385 -1.11867 -1.45458 0
M  V30 2676 H 248.767 -0.295115 -3.94899 0
M  V30 2677 H 249.941 -3.10233 -3.40723 0
M  V30 2678 H 248.256 -2.68441 -3.18321 0
M  V30 2679 H 250.853 -0.855005 -5.2782 0
M  V30 2680 H 251.196 0.425575 -4.14119 0
M  V30 2681 H 251.729 -1.23469 -3.78154 0
M  V30 2682 H 248.468 -3.79049 -5.34792 0
M  V30 2683 H 247.988 -2.09942 -5.61858 0
M  V30 2684 H 249.667 -2.61215 -5.91925 0
M  V30 2685 N 249.799 1.42003 -0.683588 0
M  V30 2686 C 251.039 2.03282 -0.213513 0
M  V30 2687 C 251.403 1.52924 1.16097 0
M  V30 2688 O 252.604 2.06048 1.7262 0
M  V30 2689 C 250.875 3.56483 -0.255856 0
M  V30 2690 S 252.434 4.3857 0.14193 0
M  V30 2691 H 249.252 0.705659 -0.0869853 0
M  V30 2692 H 251.854 1.73619 -0.8987 0
M  V30 2693 H 250.558 3.90631 -1.25841 0
M  V30 2694 H 250.089 3.90831 0.448875 0
M  V30 2695 H 252.104 4.76828 1.37295 0
M  V30 2696 N 251.277 0.427512 1.51691 0
M  V30 2697 C 252.524 -0.142229 2.02 0
M  V30 2698 C 252.852 -1.43566 1.31221 0
M  V30 2699 O 252.107 -1.91298 0.412744 0
M  V30 2700 C 252.406 -0.418249 3.54944 0
M  V30 2701 C 252.072 0.788187 4.43958 0
M  V30 2702 C 250.734 1.11906 4.68007 0
M  V30 2703 C 253.086 1.59347 4.96244 0
M  V30 2704 C 250.414 2.25608 5.41588 0
M  V30 2705 C 252.766 2.7214 5.71072 0
M  V30 2706 C 251.43 3.05692 5.93387 0
M  V30 2707 H 250.7 -0.0520451 0.73917 0
M  V30 2708 H 253.347 0.572697 1.82736 0
M  V30 2709 H 251.652 -1.21496 3.72486 0
M  V30 2710 H 253.349 -0.872339 3.91397 0
M  V30 2711 H 249.939 0.520344 4.2543 0
M  V30 2712 H 254.123 1.35106 4.77556 0
M  V30 2713 H 249.379 2.51929 5.57083 0
M  V30 2714 H 253.553 3.34914 6.10578 0
M  V30 2715 H 251.18 3.9391 6.50184 0
M  V30 2716 N 252.755 -1.56801 0.158532 0
M  V30 2717 C 254.171 -1.5837 -0.197774 0
M  V30 2718 C 254.371 -1.17334 -1.63814 0
M  V30 2719 O 253.427 -0.878988 -2.36707 0
M  V30 2720 C 254.74 -3.00615 0.0714459 0
M  V30 2721 C 256.288 -3.12999 0.00864533 0
M  V30 2722 C 256.763 -4.57313 0.250685 0
M  V30 2723 N 258.254 -4.62777 0.198014 0
M  V30 2724 C 258.989 -5.72271 0.359642 0
M  V30 2725 N 258.485 -6.90371 0.579625 0
M  V30 2726 N 260.278 -5.61318 0.296438 0
M  V30 2727 H 252.429 -1.81765 1.09887 0
M  V30 2728 H 254.692 -0.841849 0.435884 0
M  V30 2729 H 254.398 -3.35068 1.06874 0
M  V30 2730 H 254.272 -3.71683 -0.642757 0
M  V30 2731 H 256.659 -2.7838 -0.979217 0
M  V30 2732 H 256.74 -2.44393 0.755359 0
M  V30 2733 H 256.384 -4.92639 1.2357 0
M  V30 2734 H 256.314 -5.24061 -0.516489 0
M  V30 2735 H 258.805 -3.77885 0.0331115 0
M  V30 2736 H 259.118 -7.69689 0.69275 0
M  V30 2737 H 257.463 -6.92264 0.616087 0
M  V30 2738 H 260.654 -4.67932 0.125258 0
M  V30 2739 H 260.827 -6.46599 0.425831 0
M  V30 2740 N 254.233 0.115231 -1.57178 0
M  V30 2741 C 255.181 1.16014 -2.01602 0
M  V30 2742 C 256.175 1.42653 -0.913587 0
M  V30 2743 O 257.381 1.42571 -1.09879 0
M  V30 2744 H 253.756 0.391252 -0.642204 0
M  V30 2745 H 255.727 0.758998 -2.88586 0
M  V30 2746 C 254.476 2.47767 -2.4394 0
M  V30 2747 H 253.799 2.28108 -3.28339 0
M  V30 2748 H 255.239 3.19432 -2.78818 0
M  V30 2749 C 253.698 3.10617 -1.30455 0
M  V30 2750 O 254.228 3.96846 -0.622585 0
M  V30 2751 N 252.434 2.70553 -1.06064 0
M  V30 2752 H 251.981 2.00527 -1.61699 0
M  V30 2753 H 251.939 3.12934 -0.303284 0
M  V30 2754 N 255.711 1.52812 0.385517 0
M  V30 2755 C 256.988 1.5861 1.14465 0
M  V30 2756 C 257.368 0.381402 2.07626 0
M  V30 2757 O 256.716 -0.629999 2.19643 0
M  V30 2758 C 256.926 2.92664 1.90128 0
M  V30 2759 C 258.274 3.46526 2.45367 0
M  V30 2760 O 259.298 2.94562 2.0028 0
M  V30 2761 O 258.157 4.37323 3.27736 0
M  V30 2762 H 255.251 0.639855 0.523941 0
M  V30 2763 H 257.797 1.65149 0.390389 0
M  V30 2764 H 256.569 3.71788 1.22022 0
M  V30 2765 H 256.192 2.89527 2.72507 0
M  V30 2766 N 257.189 -0.644168 1.43834 0
M  V30 2767 C 258.119 -1.76814 1.52509 0
M  V30 2768 C 259.1 -1.65823 0.379052 0
M  V30 2769 O 260.285 -1.84781 0.597466 0
M  V30 2770 C 257.415 -3.15288 1.4564 0
M  V30 2771 C 256.369 -3.41053 2.58586 0
M  V30 2772 C 255.695 -4.79421 2.36769 0
M  V30 2773 C 256.995 -3.34902 4.00797 0
M  V30 2774 H 258.689 -1.69812 2.46586 0
M  V30 2775 H 256.235 -0.815542 1.1868 0
M  V30 2776 H 258.188 -3.93681 1.50311 0
M  V30 2777 H 256.912 -3.23043 0.480725 0
M  V30 2778 H 255.571 -2.65035 2.53282 0
M  V30 2779 H 255.219 -4.83863 1.37424 0
M  V30 2780 H 254.919 -4.9762 3.12487 0
M  V30 2781 H 256.443 -5.6006 2.43238 0
M  V30 2782 H 257.857 -4.03218 4.07539 0
M  V30 2783 H 256.254 -3.64637 4.76613 0
M  V30 2784 H 257.324 -2.32928 4.25291 0
M  V30 2785 N 258.668 -1.30515 -0.883378 0
M  V30 2786 C 259.616 -1.16941 -2.01066 0
M  V30 2787 C 260.61 -0.0809148 -1.69207 0
M  V30 2788 O 261.816 -0.241877 -1.78367 0
M  V30 2789 H 258.191 -0.361705 -0.659298 0
M  V30 2790 H 260.162 -2.12344 -2.09649 0
M  V30 2791 C 258.911 -0.879694 -3.36388 0
M  V30 2792 H 258.234 -1.70936 -3.61415 0
M  V30 2793 H 259.674 -0.82483 -4.159 0
M  V30 2794 C 258.133 0.417409 -3.34304 0
M  V30 2795 O 258.663 1.43843 -3.75063 0
M  V30 2796 N 256.869 0.429141 -2.87414 0
M  V30 2797 H 256.416 -0.402222 -2.5444 0
M  V30 2798 H 256.374 1.29696 -2.86403 0
M  V30 2799 N 260.146 1.09593 -1.13257 0
M  V30 2800 C 261.395 1.81105 -0.887917 0
M  V30 2801 C 261.708 1.86563 0.587672 0
M  V30 2802 O 262.914 2.54367 0.949204 0
M  V30 2803 C 261.37 3.25338 -1.53895 0
M  V30 2804 C 260.978 3.28151 -3.04994 0
M  V30 2805 C 262.722 4.01617 -1.37492 0
M  V30 2806 C 260.629 4.66897 -3.6299 0
M  V30 2807 H 259.559 0.678661 -0.328534 0
M  V30 2808 H 262.21 1.23183 -1.36008 0
M  V30 2809 H 260.592 3.8331 -0.994446 0
M  V30 2810 H 261.766 2.79953 -3.66009 0
M  V30 2811 H 260.081 2.65361 -3.20893 0
M  V30 2812 H 262.678 5.04119 -1.78235 0
M  V30 2813 H 263.021 4.15072 -0.31957 0
M  V30 2814 H 263.554 3.50082 -1.88912 0
M  V30 2815 H 260.293 4.58643 -4.68323 0
M  V30 2816 H 259.813 5.15426 -3.06752 0
M  V30 2817 H 261.492 5.3587 -3.62563 0
M  V30 2818 N 261.624 0.925811 1.2754 0
M  V30 2819 C 262.556 0.380753 2.26015 0
M  V30 2820 C 263.569 -0.487485 1.5533 0
M  V30 2821 O 264.758 -0.300413 1.75954 0
M  V30 2822 C 261.858 -0.473259 3.35579 0
M  V30 2823 C 261.031 0.375249 4.35787 0
M  V30 2824 C 260.09 -0.415809 5.24555 0
M  V30 2825 O 259.116 0.175834 5.68928 0
M  V30 2826 N 260.318 -1.71607 5.54555 0
M  V30 2827 H 263.083 1.22725 2.73421 0
M  V30 2828 H 260.644 0.793037 1.41147 0
M  V30 2829 H 262.636 -1.00949 3.91907 0
M  V30 2830 H 261.206 -1.2205 2.87789 0
M  V30 2831 H 260.426 1.09279 3.7875 0
M  V30 2832 H 261.714 0.955399 4.99749 0
M  V30 2833 H 261.112 -2.2191 5.20358 0
M  V30 2834 H 259.669 -2.19887 6.1359 0
M  V30 2835 N 263.102 -1.41638 0.69111 0
M  V30 2836 C 264.05 -2.32597 0.0115199 0
M  V30 2837 C 265.044 -1.5072 -0.773296 0
M  V30 2838 O 266.25 -1.66685 -0.67942 0
M  V30 2839 H 262.625 -0.751849 -0.0150746 0
M  V30 2840 H 264.596 -2.87593 0.795791 0
M  V30 2841 C 263.345 -3.35467 -0.914172 0
M  V30 2842 H 262.668 -3.9852 -0.319687 0
M  V30 2843 H 264.108 -4.01662 -1.35808 0
M  V30 2844 C 262.567 -2.69004 -2.02826 0
M  V30 2845 O 263.097 -2.53444 -3.11655 0
M  V30 2846 N 261.303 -2.2777 -1.80469 0
M  V30 2847 H 260.85 -2.40626 -0.919615 0
M  V30 2848 H 260.808 -1.83635 -2.55197 0
M  V30 2849 N 264.58 -0.43555 -1.51462 0
M  V30 2850 C 265.827 0.131514 -2.02072 0
M  V30 2851 C 266.155 1.42868 -1.31981 0
M  V30 2852 O 265.41 1.91076 -0.422883 0
M  V30 2853 C 265.709 0.39942 -3.55161 0
M  V30 2854 C 265.375 -0.81172 -4.43533 0
M  V30 2855 C 264.037 -1.14387 -4.67407 0
M  V30 2856 C 266.389 -1.61976 -4.95392 0
M  V30 2857 C 263.717 -2.28477 -5.40384 0
M  V30 2858 C 266.069 -2.75164 -5.6962 0
M  V30 2859 C 264.733 -3.08835 -5.91758 0
M  V30 2860 H 264.003 0.0481244 -0.739436 0
M  V30 2861 H 266.65 -0.58238 -1.8243 0
M  V30 2862 H 264.955 1.19519 -3.73125 0
M  V30 2863 H 266.652 0.85157 -3.91854 0
M  V30 2864 H 263.242 -0.542898 -4.25148 0
M  V30 2865 H 267.426 -1.37637 -4.76833 0
M  V30 2866 H 262.682 -2.5488 -5.55739 0
M  V30 2867 H 266.856 -3.38147 -6.08793 0
M  V30 2868 H 264.483 -3.97353 -6.48086 0
M  V30 2869 N 266.058 1.56714 -0.166846 0
M  V30 2870 C 266.99 2.14914 0.796537 0
M  V30 2871 C 268.003 1.10357 1.19688 0
M  V30 2872 O 269.192 1.37561 1.13751 0
M  V30 2873 C 266.292 2.67326 2.08303 0
M  V30 2874 C 265.465 3.96493 1.84696 0
M  V30 2875 C 264.524 4.34014 2.97521 0
M  V30 2876 O 263.55 5.01973 2.6835 0
M  V30 2877 N 264.752 3.95208 4.25196 0
M  V30 2878 H 267.517 2.98205 0.299006 0
M  V30 2879 H 265.078 1.61892 0.0160839 0
M  V30 2880 H 267.07 2.89428 2.82867 0
M  V30 2881 H 265.64 1.88649 2.4926 0
M  V30 2882 H 264.86 3.82814 0.940602 0
M  V30 2883 H 266.148 4.8086 1.66285 0
M  V30 2884 H 265.546 3.40487 4.51758 0
M  V30 2885 H 264.103 4.2232 4.96477 0
M  V30 2886 N 267.536 -0.106894 1.57237 0
M  V30 2887 C 268.783 -0.812526 1.85484 0
M  V30 2888 C 269.111 -1.79304 0.753687 0
M  V30 2889 O 268.366 -1.94047 -0.253853 0
M  V30 2890 C 268.665 -1.58628 3.20268 0
M  V30 2891 C 268.331 -0.748967 4.44636 0
M  V30 2892 C 266.993 -0.518104 4.78403 0
M  V30 2893 C 269.345 -0.166122 5.20935 0
M  V30 2894 C 266.673 0.305659 5.85903 0
M  V30 2895 C 269.025 0.644899 6.29304 0
M  V30 2896 C 267.689 0.885965 6.61594 0
M  V30 2897 H 266.959 -0.297324 0.678734 0
M  V30 2898 H 269.606 -0.0744332 1.91355 0
M  V30 2899 H 267.911 -2.39562 3.10028 0
M  V30 2900 H 269.608 -2.13643 3.39349 0
M  V30 2901 H 266.198 -0.939006 4.18187 0
M  V30 2902 H 270.382 -0.33167 4.95191 0
M  V30 2903 H 265.638 0.501528 6.0934 0
M  V30 2904 H 269.812 1.10345 6.87602 0
M  V30 2905 H 267.439 1.52609 7.44725 0
M  V30 2906 N 269.014 -1.53014 -0.377408 0
M  V30 2907 C 270.425 -1.60438 -0.954798 0
M  V30 2908 C 270.776 -0.464418 -1.90624 0
M  V30 2909 O 269.901 0.41087 -2.12464 0
M  V30 2910 C 270.496 -2.90797 -1.73847 0
M  V30 2911 C 269.055 -3.00595 -2.26538 0
M  V30 2912 C 268.202 -2.55645 -1.07429 0
M  V30 2913 H 271.153 -1.57926 -0.156575 0
M  V30 2914 H 271.174 -2.77935 -2.5987 0
M  V30 2915 H 270.686 -3.73746 -1.04574 0
M  V30 2916 H 268.787 -2.22208 -2.99089 0
M  V30 2917 H 268.9 -4.05456 -2.5523 0
M  V30 2918 H 267.264 -2.10239 -1.43777 0
M  V30 2919 H 268.047 -3.41 -0.396728 0
M  V30 2920 N 270.492 0.636531 -1.44174 0
M  V30 2921 C 271.439 1.74875 -1.50624 0
M  V30 2922 C 272.409 1.62275 -0.35442 0
M  V30 2923 O 273.594 1.82276 -0.563908 0
M  V30 2924 C 270.734 3.13102 -1.45125 0
M  V30 2925 C 269.847 3.36717 -2.7064 0
M  V30 2926 C 268.982 4.64885 -2.57013 0
M  V30 2927 C 268.021 4.8166 -3.77717 0
M  V30 2928 N 267.158 6.01101 -3.62798 0
M  V30 2929 H 271.998 1.68697 -2.45653 0
M  V30 2930 H 269.535 0.823004 -1.21922 0
M  V30 2931 H 271.493 3.93034 -1.39929 0
M  V30 2932 H 270.123 3.18308 -0.536671 0
M  V30 2933 H 269.175 2.50763 -2.86046 0
M  V30 2934 H 270.487 3.44993 -3.60252 0
M  V30 2935 H 269.641 5.52969 -2.49619 0
M  V30 2936 H 268.38 4.58957 -1.64953 0
M  V30 2937 H 267.385 3.92007 -3.85501 0
M  V30 2938 H 268.61 4.89406 -4.70807 0
M  V30 2939 H 266.556 5.96273 -2.73486 0
M  V30 2940 H 266.473 6.10409 -4.46023 0
M  V30 2941 H 267.741 6.91761 -3.59286 0
M  V30 2942 N 271.97 1.30982 0.876444 0
M  V30 2943 C 273.381 1.18277 1.44456 0
M  V30 2944 C 273.732 -0.213265 1.95037 0
M  V30 2945 O 272.857 -1.11057 1.85729 0
M  V30 2946 C 273.452 2.1411 2.62569 0
M  V30 2947 C 272.011 2.05358 3.15444 0
M  V30 2948 C 271.158 2.03706 1.88146 0
M  V30 2949 H 274.109 1.43127 0.685584 0
M  V30 2950 H 274.13 1.72692 3.39054 0
M  V30 2951 H 273.642 3.15706 2.25724 0
M  V30 2952 H 271.743 1.06934 3.56926 0
M  V30 2953 H 271.856 2.94156 3.78166 0
M  V30 2954 H 270.22 1.48629 2.06837 0
M  V30 2955 H 271.003 3.07047 1.53547 0
M  V30 2956 N 273.449 -1.08991 1.13837 0
M  V30 2957 C 274.696 -1.81258 0.902882 0
M  V30 2958 C 275.024 -1.85936 -0.570803 0
M  V30 2959 O 274.279 -1.3267 -1.43865 0
M  V30 2960 C 274.578 -3.27042 1.44147 0
M  V30 2961 C 274.244 -3.4249 2.93276 0
M  V30 2962 C 272.906 -3.46414 3.33992 0
M  V30 2963 C 275.258 -3.4666 3.892 0
M  V30 2964 C 272.586 -3.52091 4.69307 0
M  V30 2965 C 274.938 -3.53872 5.24364 0
M  V30 2966 C 273.602 -3.56066 5.646 0
M  V30 2967 H 272.872 -0.663268 0.330388 0
M  V30 2968 H 275.519 -1.28368 1.42105 0
M  V30 2969 H 273.824 -3.82599 0.844097 0
M  V30 2970 H 275.521 -3.81499 1.23528 0
M  V30 2971 H 272.111 -3.40124 2.60794 0
M  V30 2972 H 276.295 -3.42865 3.58828 0
M  V30 2973 H 271.551 -3.52079 4.9985 0
M  V30 2974 H 275.725 -3.56043 5.98503 0
M  V30 2975 H 273.352 -3.60218 6.69438 0
M  V30 2976 N 274.927 -0.932562 -1.27047 0
M  V30 2977 C 275.837 -0.441219 -2.30414 0
M  V30 2978 C 276.853 0.480525 -1.67233 0
M  V30 2979 O 278.029 0.362151 -1.98117 0
M  V30 2980 C 275.094 0.293651 -3.45454 0
M  V30 2981 C 274.155 -0.663601 -4.2414 0
M  V30 2982 C 273.388 0.0362932 -5.33688 0
M  V30 2983 O 273.611 1.2548 -5.56427 0
M  V30 2984 O 272.545 -0.638015 -5.98509 0
M  V30 2985 H 276.371 -1.29962 -2.74488 0
M  V30 2986 H 273.956 -0.6981 -1.32087 0
M  V30 2987 H 275.838 0.707951 -4.15411 0
M  V30 2988 H 274.513 1.12758 -3.03426 0
M  V30 2989 H 273.42 -1.12768 -3.56699 0
M  V30 2990 H 274.753 -1.46489 -4.69896 0
M  V30 2991 N 276.405 1.4127 -0.698611 0
M  V30 2992 C 277.335 2.33447 -0.049629 0
M  V30 2993 C 278.316 1.51982 0.763898 0
M  V30 2994 O 279.501 1.80509 0.716257 0
M  V30 2995 C 276.631 3.35828 0.885267 0
M  V30 2996 C 275.585 4.27627 0.178613 0
M  V30 2997 C 274.911 5.20406 1.22807 0
M  V30 2998 C 276.211 5.13459 -0.956933 0
M  V30 2999 H 277.905 2.87966 -0.81951 0
M  V30 3000 H 275.451 1.38461 -0.395538 0
M  V30 3001 H 277.404 3.9924 1.34854 0
M  V30 3002 H 276.128 2.79666 1.68685 0
M  V30 3003 H 274.787 3.65643 -0.26466 0
M  V30 3004 H 274.435 4.60558 2.02226 0
M  V30 3005 H 274.135 5.82661 0.760239 0
M  V30 3006 H 275.659 5.86695 1.69179 0
M  V30 3007 H 277.073 5.70421 -0.573805 0
M  V30 3008 H 275.47 5.8467 -1.35205 0
M  V30 3009 H 276.54 4.50443 -1.79524 0
M  V30 3010 N 277.883 0.443576 1.51229 0
M  V30 3011 C 278.831 -0.37904 2.29491 0
M  V30 3012 C 279.825 -1.0153 1.35603 0
M  V30 3013 O 281.031 -0.94955 1.52917 0
M  V30 3014 H 277.406 -0.141053 0.738653 0
M  V30 3015 H 279.377 0.301799 2.9687 0
M  V30 3016 C 278.126 -1.46426 3.15364 0
M  V30 3017 H 277.449 -0.984037 3.87501 0
M  V30 3018 H 278.889 -2.01297 3.7317 0
M  V30 3019 C 277.348 -2.45099 2.31146 0
M  V30 3020 O 277.878 -3.49773 1.9754 0
M  V30 3021 N 276.084 -2.16139 1.94249 0
M  V30 3022 H 275.631 -1.31044 2.21777 0
M  V30 3023 H 275.589 -2.82398 1.38198 0
M  V30 3024 N 279.361 -1.56624 0.175154 0
M  V30 3025 C 280.589 -2.01374 -0.474971 0
M  V30 3026 C 281.004 -1.05537 -1.56548 0
M  V30 3027 O 280.361 -0.0568668 -1.82411 0
M  V30 3028 C 280.412 -3.45923 -1.04975 0
M  V30 3029 O 280.133 -4.381 -0.00276605 0
M  V30 3030 C 281.634 -4.06093 -1.77773 0
M  V30 3031 H 278.854 -0.659962 -0.121206 0
M  V30 3032 H 281.398 -2.02601 0.27801 0
M  V30 3033 H 279.553 -3.45458 -1.75321 0
M  V30 3034 H 279.967 -5.22753 -0.427681 0
M  V30 3035 H 281.441 -5.09147 -2.13245 0
M  V30 3036 H 281.918 -3.48405 -2.67414 0
M  V30 3037 H 282.524 -4.10272 -1.12059 0
M  V30 3038 N 280.839 0.0985539 -1.57292 0
M  V30 3039 C 282.086 0.802678 -1.85912 0
M  V30 3040 C 282.414 1.78901 -0.763186 0
M  V30 3041 O 281.669 1.94178 0.243559 0
M  V30 3042 C 281.968 1.56927 -3.21105 0
M  V30 3043 C 281.634 0.725376 -4.45027 0
M  V30 3044 C 280.296 0.492726 -4.78671 0
M  V30 3045 C 282.648 0.138493 -5.21016 0
M  V30 3046 C 279.976 -0.336727 -5.85733 0
M  V30 3047 C 282.328 -0.678264 -6.28953 0
M  V30 3048 C 280.992 -0.921039 -6.61115 0
M  V30 3049 H 280.262 0.293721 -0.680301 0
M  V30 3050 H 282.909 0.0642841 -1.91392 0
M  V30 3051 H 281.214 2.37914 -3.11294 0
M  V30 3052 H 282.911 2.11841 -3.40477 0
M  V30 3053 H 279.501 0.916815 -4.18679 0
M  V30 3054 H 283.685 0.305404 -4.95359 0
M  V30 3055 H 278.941 -0.533836 -6.09065 0
M  V30 3056 H 283.115 -1.1399 -6.87007 0
M  V30 3057 H 280.742 -1.56556 -7.43905 0
M  V30 3058 N 282.317 1.53212 0.369288 0
M  V30 3059 C 283.563 1.69466 1.11397 0
M  V30 3060 C 283.896 0.443257 1.89074 0
M  V30 3061 O 283.171 -0.559386 1.86282 0
M  V30 3062 C 283.454 2.9422 2.07621 0
M  V30 3063 C 283.307 4.29508 1.33577 0
M  V30 3064 C 284.626 3.14565 3.07794 0
M  V30 3065 H 281.745 0.616667 0.403597 0
M  V30 3066 H 284.387 1.85845 0.395179 0
M  V30 3067 H 282.537 2.80387 2.68916 0
M  V30 3068 H 284.209 4.55147 0.750955 0
M  V30 3069 H 282.452 4.29088 0.637618 0
M  V30 3070 H 283.123 5.12926 2.03989 0
M  V30 3071 H 285.599 3.2756 2.56601 0
M  V30 3072 H 284.475 4.03297 3.72348 0
M  V30 3073 H 284.736 2.29675 3.77759 0
M  V30 3074 N 283.795 -0.628877 1.44509 0
M  V30 3075 C 284.742 -1.74074 1.51549 0
M  V30 3076 C 285.712 -1.62084 0.363021 0
M  V30 3077 O 286.897 -1.81975 0.573567 0
M  V30 3078 C 284.037 -3.12328 1.46784 0
M  V30 3079 C 283.15 -3.35277 2.72422 0
M  V30 3080 C 282.285 -4.63515 2.59475 0
M  V30 3081 C 281.324 -4.7965 3.80266 0
M  V30 3082 N 280.461 -5.99168 3.65981 0
M  V30 3083 H 285.301 -1.67392 2.46544 0
M  V30 3084 H 282.838 -0.816527 1.22357 0
M  V30 3085 H 284.796 -3.92286 1.42012 0
M  V30 3086 H 283.426 -3.18018 0.553544 0
M  V30 3087 H 282.478 -2.49242 2.87372 0
M  V30 3088 H 283.79 -3.43078 3.62076 0
M  V30 3089 H 282.944 -5.51638 2.52548 0
M  V30 3090 H 281.683 -4.58076 1.67384 0
M  V30 3091 H 280.688 -3.89957 3.87574 0
M  V30 3092 H 281.913 -4.86902 4.73395 0
M  V30 3093 H 279.859 -5.94814 2.76644 0
M  V30 3094 H 279.776 -6.08035 4.49254 0
M  V30 3095 H 281.044 -6.89846 3.6295 0
M  V30 3096 N 285.273 -1.31445 -0.869486 0
M  V30 3097 C 286.55 -1.11795 -1.60503 0
M  V30 3098 C 286.93 0.327168 -2.08549 0
M  V30 3099 O 286.278 1.32135 -1.8642 0
M  V30 3100 C 286.488 -2.13258 -2.76265 0
M  V30 3101 C 287.836 -2.45805 -3.46215 0
M  V30 3102 O 288.86 -2.11688 -2.86473 0
M  V30 3103 O 287.719 -3.04228 -4.5399 0
M  V30 3104 H 284.813 -0.430421 -0.706163 0
M  V30 3105 H 287.359 -1.42925 -0.914907 0
M  V30 3106 H 286.131 -3.10461 -2.3818 0
M  V30 3107 H 285.754 -1.83035 -3.52964 0
M  V30 3108 N 286.751 1.08385 -1.14413 0
M  V30 3109 C 287.681 2.17321 -0.854044 0
M  V30 3110 C 288.662 1.69024 0.191049 0
M  V30 3111 O 289.847 1.94141 0.0476779 0
M  V30 3112 C 286.977 3.45719 -0.330983 0
M  V30 3113 C 285.931 4.07409 -1.31155 0
M  V30 3114 C 285.257 5.30762 -0.64778 0
M  V30 3115 C 286.557 4.48665 -2.67388 0
M  V30 3116 H 288.251 2.41845 -1.76498 0
M  V30 3117 H 285.797 1.16233 -0.850051 0
M  V30 3118 H 287.75 4.21241 -0.115645 0
M  V30 3119 H 286.474 3.2075 0.615381 0
M  V30 3120 H 285.133 3.33919 -1.51306 0
M  V30 3121 H 284.781 5.02078 0.304398 0
M  V30 3122 H 284.481 5.72992 -1.30207 0
M  V30 3123 H 286.005 6.08998 -0.441972 0
M  V30 3124 H 287.419 5.15364 -2.51143 0
M  V30 3125 H 285.816 5.01814 -3.29093 0
M  V30 3126 H 286.886 3.60543 -3.24248 0
M  V30 3127 N 288.23 0.939286 1.26551 0
M  V30 3128 C 289.16 0.465044 2.28822 0
M  V30 3129 C 290.141 -0.480692 1.63167 0
M  V30 3130 O 291.326 -0.382955 1.90387 0
M  V30 3131 C 288.456 -0.27234 3.46231 0
M  V30 3132 C 287.41 0.58666 4.2396 0
M  V30 3133 C 286.736 -0.280573 5.33963 0
M  V30 3134 C 288.036 1.85704 4.88171 0
M  V30 3135 H 289.73 1.31979 2.68741 0
M  V30 3136 H 287.276 0.636061 1.29191 0
M  V30 3137 H 289.229 -0.615133 4.16886 0
M  V30 3138 H 287.953 -1.16121 3.0526 0
M  V30 3139 H 286.612 0.91232 3.55067 0
M  V30 3140 H 286.26 -1.16874 4.89234 0
M  V30 3141 H 285.96 0.29076 5.8688 0
M  V30 3142 H 287.484 -0.618678 6.07458 0
M  V30 3143 H 288.898 1.58161 5.51052 0
M  V30 3144 H 287.295 2.37279 5.51197 0
M  V30 3145 H 288.365 2.56957 4.11219 0
M  V30 3146 N 289.708 -1.40897 0.706093 0
M  V30 3147 C 290.638 -2.33418 0.0620085 0
M  V30 3148 C 291.619 -1.52385 -0.755827 0
M  V30 3149 O 292.804 -1.80886 -0.706674 0
M  V30 3150 C 289.934 -3.36293 -0.867445 0
M  V30 3151 C 288.888 -4.27716 -0.155932 0
M  V30 3152 C 288.214 -5.2105 -1.20046 0
M  V30 3153 C 289.514 -5.12944 0.984149 0
M  V30 3154 H 291.208 -2.87527 0.83477 0
M  V30 3155 H 288.754 -1.38249 0.402875 0
M  V30 3156 H 290.707 -3.99949 -1.32735 0
M  V30 3157 H 289.431 -2.80556 -1.67199 0
M  V30 3158 H 288.09 -3.65498 0.284047 0
M  V30 3159 H 287.738 -4.61624 -1.99781 0
M  V30 3160 H 287.438 -5.83056 -0.729328 0
M  V30 3161 H 288.962 -5.87584 -1.66066 0
M  V30 3162 H 290.376 -5.70109 0.604048 0
M  V30 3163 H 288.773 -5.83945 1.38304 0
M  V30 3164 H 289.843 -4.49485 1.81911 0
M  V30 3165 N 291.186 -0.45159 -1.50991 0
M  V30 3166 C 292.597 0.00818571 -1.86698 0
M  V30 3167 C 292.948 1.40661 -1.3678 0
M  V30 3168 O 292.073 2.0391 -0.724546 0
M  V30 3169 C 292.668 0.0216303 -3.38793 0
M  V30 3170 C 291.227 0.425865 -3.73983 0
M  V30 3171 C 290.374 -0.372163 -2.74791 0
M  V30 3172 H 293.325 -0.666785 -1.44013 0
M  V30 3173 H 293.346 0.828078 -3.7138 0
M  V30 3174 H 292.858 -0.996288 -3.75094 0
M  V30 3175 H 290.959 1.44886 -3.43277 0
M  V30 3176 H 291.072 0.140761 -4.78893 0
M  V30 3177 H 289.436 0.171498 -2.54122 0
M  V30 3178 H 290.219 -1.38922 -3.13935 0
M  V30 3179 N 292.664 1.56529 -0.183458 0
M  V30 3180 C 293.941 1.88959 0.50536 0
M  V30 3181 C 294.321 1.09523 1.80466 0
M  V30 3182 O 293.669 0.19278 2.27685 0
M  V30 3183 C 293.879 3.41162 0.73547 0
M  V30 3184 C 295.227 4.11155 1.06005 0
M  V30 3185 O 296.251 3.46548 0.823594 0
M  V30 3186 O 295.11 5.25318 1.50675 0
M  V30 3187 H 292.204 0.78441 0.261973 0
M  V30 3188 H 294.75 1.68231 -0.222802 0
M  V30 3189 H 293.522 3.90874 -0.182561 0
M  V30 3190 H 293.145 3.67543 1.51651 0
M  V30 3191 N 294.142 -0.090211 1.57342 0
M  V30 3192 C 295.367 -0.810082 1.90925 0
M  V30 3193 C 295.792 -1.71248 0.778187 0
M  V30 3194 O 295.15 -1.79278 -0.269991 0
M  V30 3195 C 295.198 -1.59529 3.23393 0
M  V30 3196 O 294.302 -2.70461 3.11327 0
M  V30 3197 H 293.643 -0.222231 0.625707 0
M  V30 3198 H 296.173 -0.0639716 2.045 0
M  V30 3199 H 296.183 -1.97847 3.5682 0
M  V30 3200 H 294.858 -0.933055 4.05299 0
M  V30 3201 H 293.435 -2.35135 2.89423 0
M  V30 3202 N 295.62 -1.53406 -0.361157 0
M  V30 3203 C 296.53 -1.83122 -1.4664 0
M  V30 3204 C 297.546 -0.719943 -1.58407 0
M  V30 3205 O 298.722 -1.01046 -1.74218 0
M  V30 3206 C 295.787 -2.01891 -2.81853 0
M  V30 3207 C 294.848 -3.25784 -2.79577 0
M  V30 3208 C 294.081 -3.43648 -4.0834 0
M  V30 3209 O 294.304 -2.65714 -5.0473 0
M  V30 3210 O 293.238 -4.37018 -4.13883 0
M  V30 3211 H 297.064 -2.7703 -1.24451 0
M  V30 3212 H 294.649 -1.38841 -0.551678 0
M  V30 3213 H 296.531 -2.15782 -3.61962 0
M  V30 3214 H 295.206 -1.11173 -3.0401 0
M  V30 3215 H 294.113 -3.17312 -1.98151 0
M  V30 3216 H 295.446 -4.16439 -2.62373 0
M  V30 3217 N 297.098 0.621204 -1.44841 0
M  V30 3218 C 298.344 1.3826 -1.48365 0
M  V30 3219 C 298.677 1.93831 -0.119624 0
M  V30 3220 O 297.952 1.74251 0.864111 0
M  V30 3221 C 298.235 2.54058 -2.55199 0
M  V30 3222 C 298.088 2.03772 -4.00995 0
M  V30 3223 C 299.407 3.56225 -2.58442 0
M  V30 3224 H 296.526 0.501374 -0.540179 0
M  V30 3225 H 299.168 0.7015 -1.76576 0
M  V30 3226 H 297.318 3.12162 -2.31274 0
M  V30 3227 H 298.99 1.50423 -4.36086 0
M  V30 3228 H 297.233 1.34876 -4.12299 0
M  V30 3229 H 297.904 2.87185 -4.71411 0
M  V30 3230 H 300.38 3.07939 -2.79844 0
M  V30 3231 H 299.256 4.34756 -3.3508 0
M  V30 3232 H 299.517 4.10949 -1.63013 0
M  V30 3233 N 298.576 1.31904 0.862503 0
M  V30 3234 C 299.486 1.22161 2.00285 0
M  V30 3235 C 300.502 0.136785 1.73462 0
M  V30 3236 O 301.678 0.355994 1.98229 0
M  V30 3237 C 298.743 0.937093 3.33796 0
M  V30 3238 C 297.804 2.10957 3.73893 0
M  V30 3239 C 297.037 1.83853 5.01033 0
M  V30 3240 O 297.26 0.777274 5.65079 0
M  V30 3241 O 296.194 2.69741 5.38074 0
M  V30 3242 H 300.02 2.18008 2.11439 0
M  V30 3243 H 297.605 1.11716 0.991957 0
M  V30 3244 H 299.487 0.794583 4.13841 0
M  V30 3245 H 298.162 0.00871894 3.23699 0
M  V30 3246 H 297.069 2.30752 2.94456 0
M  V30 3247 H 298.402 3.02046 3.88625 0
M  V30 3248 N 300.054 -1.07777 1.14986 0
M  V30 3249 C 301.004 -2.13082 0.811181 0
M  V30 3250 C 301.988 -1.59619 -0.202597 0
M  V30 3251 O 303.18 -1.77 -0.00398275 0
M  V30 3252 C 300.309 -3.42009 0.297439 0
M  V30 3253 C 299.395 -4.02337 1.34112 0
M  V30 3254 N 299.786 -4.36982 2.54716 0
M  V30 3255 C 298.084 -4.29752 1.19285 0
M  V30 3256 C 298.785 -4.84729 3.21578 0
M  V30 3257 N 297.761 -4.83233 2.48972 0
M  V30 3258 H 301.563 -2.37696 1.72853 0
M  V30 3259 H 299.077 -1.25173 1.03468 0
M  V30 3260 H 301.074 -4.16884 0.0364777 0
M  V30 3261 H 299.734 -3.18841 -0.614022 0
M  V30 3262 H 300.745 -4.27807 2.91894 0
M  V30 3263 H 297.422 -4.16106 0.340926 0
M  V30 3264 H 298.812 -5.20863 4.24442 0
M  V30 3265 N 301.532 -0.945985 -1.26051 0
M  V30 3266 C 302.462 -0.477172 -2.28572 0
M  V30 3267 C 303.443 0.472032 -1.63419 0
M  V30 3268 O 304.628 0.372853 -1.90587 0
M  V30 3269 C 301.758 0.253975 -3.4637 0
M  V30 3270 C 300.712 -0.609135 -4.23643 0
M  V30 3271 C 300.038 0.252252 -5.34105 0
M  V30 3272 C 301.338 -1.8829 -4.8718 0
M  V30 3273 H 303.032 -1.33402 -2.68038 0
M  V30 3274 H 300.578 -0.642904 -1.28852 0
M  V30 3275 H 302.531 0.593016 -4.17207 0
M  V30 3276 H 301.255 1.145 -3.05871 0
M  V30 3277 H 299.914 -0.931138 -3.54578 0
M  V30 3278 H 299.562 1.14278 -4.89846 0
M  V30 3279 H 299.262 -0.32188 -5.86718 0
M  V30 3280 H 300.786 0.586454 -6.07777 0
M  V30 3281 H 302.2 -1.61081 -5.50205 0
M  V30 3282 H 300.597 -2.40199 -5.49931 0
M  V30 3283 H 301.667 -2.59134 -4.09851 0
M  V30 3284 N 303.011 1.40521 -0.713556 0
M  V30 3285 C 304.257 2.01221 -0.252564 0
M  V30 3286 C 304.59 1.56444 1.1506 0
M  V30 3287 O 303.865 0.783597 1.78017 0
M  V30 3288 C 304.148 3.58582 -0.330332 0
M  V30 3289 C 304.001 4.13437 -1.77173 0
M  V30 3290 C 305.32 4.39079 0.299641 0
M  V30 3291 H 302.439 0.731077 -0.0932471 0
M  V30 3292 H 305.081 1.67026 -0.905673 0
M  V30 3293 H 303.231 3.87844 0.225737 0
M  V30 3294 H 304.903 3.9498 -2.38303 0
M  V30 3295 H 303.146 3.67801 -2.3001 0
M  V30 3296 H 303.817 5.22597 -1.77755 0
M  V30 3297 H 306.293 4.15735 -0.174139 0
M  V30 3298 H 305.169 5.4848 0.214771 0
M  V30 3299 H 305.43 4.19915 1.38288 0
M  V30 3300 N 304.489 0.459591 1.5075 0
M  V30 3301 C 305.738 -0.100971 2.01447 0
M  V30 3302 C 306.051 -1.41816 1.34713 0
M  V30 3303 O 307.257 -2.06299 1.76502 0
M  V30 3304 C 305.713 -0.23047 3.59161 0
M  V30 3305 C 305.321 1.0776 4.34847 0
M  V30 3306 C 307.065 -0.743608 4.17936 0
M  V30 3307 C 304.972 0.91253 5.84317 0
M  V30 3308 H 303.902 -0.0415102 0.752856 0
M  V30 3309 H 306.553 0.592742 1.73663 0
M  V30 3310 H 304.935 -0.987703 3.83485 0
M  V30 3311 H 306.109 1.8449 4.22256 0
M  V30 3312 H 304.424 1.52097 3.87628 0
M  V30 3313 H 307.021 -0.883959 5.27343 0
M  V30 3314 H 307.364 -1.73196 3.78562 0
M  V30 3315 H 307.897 -0.04408 3.97776 0
M  V30 3316 H 304.636 1.87391 6.28144 0
M  V30 3317 H 304.156 0.185422 5.99513 0
M  V30 3318 H 305.835 0.574547 6.44444 0
M  V30 3319 N 305.967 -1.56429 0.191757 0
M  V30 3320 C 307.244 -1.89224 -0.495332 0
M  V30 3321 C 307.624 -1.10478 -1.79883 0
M  V30 3322 O 306.972 -0.204852 -2.2758 0
M  V30 3323 C 307.182 -3.41548 -0.717367 0
M  V30 3324 C 308.53 -4.11711 -1.03823 0
M  V30 3325 O 309.554 -3.4698 -0.805204 0
M  V30 3326 O 308.413 -5.2611 -1.47887 0
M  V30 3327 H 305.507 -0.785788 -0.25781 0
M  V30 3328 H 308.053 -1.68111 0.231721 0
M  V30 3329 H 306.825 -3.90772 0.203287 0
M  V30 3330 H 306.448 -3.68342 -1.497 0
M  V30 3331 N 307.445 0.0818655 -1.57387 0
M  V30 3332 C 308.861 0.436412 -1.53517 0
M  V30 3333 C 309.061 1.79758 -0.910459 0
M  V30 3334 O 308.117 2.47324 -0.508636 0
M  V30 3335 C 309.43 0.386734 -2.98203 0
M  V30 3336 C 310.978 0.467644 -3.09487 0
M  V30 3337 C 311.453 0.447978 -4.55804 0
M  V30 3338 N 312.944 0.508348 -4.60402 0
M  V30 3339 C 313.679 0.515184 -5.71081 0
M  V30 3340 N 313.175 0.477435 -6.91153 0
M  V30 3341 N 314.968 0.560988 -5.59294 0
M  V30 3342 H 307.119 -0.809546 -1.96367 0
M  V30 3343 H 309.382 -0.302733 -0.898363 0
M  V30 3344 H 309.088 -0.546539 -3.47427 0
M  V30 3345 H 308.962 1.20075 -3.57578 0
M  V30 3346 H 311.349 1.39134 -2.60242 0
M  V30 3347 H 311.43 -0.374753 -2.5304 0
M  V30 3348 H 311.074 -0.471826 -5.05704 0
M  V30 3349 H 311.004 1.30777 -5.10103 0
M  V30 3350 H 313.495 0.54218 -3.7399 0
M  V30 3351 H 313.808 0.486299 -7.71268 0
M  V30 3352 H 312.153 0.444278 -6.93579 0
M  V30 3353 H 315.344 0.5881 -4.64391 0
M  V30 3354 H 315.517 0.562846 -6.45551 0
M  V30 3355 N 308.923 1.53595 0.353017 0
M  V30 3356 C 309.87 1.80919 1.43308 0
M  V30 3357 C 310.84 0.654288 1.5267 0
M  V30 3358 O 312.025 0.897759 1.6836 0
M  V30 3359 C 309.165 2.01605 2.80089 0
M  V30 3360 C 308.278 3.29321 2.79593 0
M  V30 3361 C 307.413 3.40125 4.0803 0
M  V30 3362 C 306.452 4.61826 4.01725 0
M  V30 3363 N 305.589 4.69716 5.21834 0
M  V30 3364 H 310.429 2.73074 1.19308 0
M  V30 3365 H 307.966 1.35263 0.578131 0
M  V30 3366 H 309.924 2.11586 3.59565 0
M  V30 3367 H 308.554 1.12772 3.0246 0
M  V30 3368 H 307.606 3.28229 1.92276 0
M  V30 3369 H 308.918 4.18884 2.70809 0
M  V30 3370 H 308.072 3.49488 4.95927 0
M  V30 3371 H 306.811 2.48601 4.19582 0
M  V30 3372 H 305.816 4.52552 3.12213 0
M  V30 3373 H 307.041 5.54705 3.91764 0
M  V30 3374 H 304.987 3.81097 5.33948 0
M  V30 3375 H 304.904 5.53202 5.1527 0
M  V30 3376 H 306.172 4.83376 6.11529 0
M  V30 3377 N 310.401 -0.613514 1.45168 0
M  V30 3378 C 311.678 -1.37263 1.39349 0
M  V30 3379 C 312.058 -2.11012 0.0610848 0
M  V30 3380 O 311.406 -2.07502 -0.956825 0
M  V30 3381 C 311.616 -2.3244 2.60332 0
M  V30 3382 C 312.964 -2.9523 3.05163 0
M  V30 3383 O 313.988 -2.42762 2.60663 0
M  V30 3384 O 312.847 -3.90454 3.82372 0
M  V30 3385 H 309.941 -0.615188 0.552696 0
M  V30 3386 H 312.487 -0.637097 1.57287 0
M  V30 3387 H 311.259 -1.77164 3.48896 0
M  V30 3388 H 310.882 -3.13383 2.44698 0
M  V30 3389 N 311.879 -1.3236 -0.855495 0
M  V30 3390 C 312.809 -1.23833 -1.97958 0
M  V30 3391 C 313.79 -0.122361 -1.69659 0
M  V30 3392 O 314.975 -0.30939 -1.9172 0
M  V30 3393 C 312.105 -0.959772 -3.33775 0
M  V30 3394 C 311.059 -2.03689 -3.76424 0
M  V30 3395 C 310.385 -1.61075 -5.09862 0
M  V30 3396 C 311.685 -3.4518 -3.9198 0
M  V30 3397 H 313.379 -2.1788 -2.0535 0
M  V30 3398 H 310.925 -1.04891 -0.986605 0
M  V30 3399 H 312.878 -0.886678 -4.11966 0
M  V30 3400 H 311.602 0.0163404 -3.26596 0
M  V30 3401 H 310.261 -2.10012 -3.00484 0
M  V30 3402 H 309.909 -0.622107 -4.99138 0
M  V30 3403 H 309.609 -2.33143 -5.39368 0
M  V30 3404 H 311.133 -1.55201 -5.90546 0
M  V30 3405 H 312.547 -3.4145 -4.60526 0
M  V30 3406 H 310.944 -4.1559 -4.32903 0
M  V30 3407 H 312.014 -3.84903 -2.94919 0
M  V30 3408 N 313.357 1.07166 -1.15556 0
M  V30 3409 C 314.603 1.80065 -0.932984 0
M  V30 3410 C 314.936 1.86586 0.53845 0
M  V30 3411 O 314.211 1.35098 1.39924 0
M  V30 3412 C 314.494 3.25022 -1.55025 0
M  V30 3413 C 314.347 3.26634 -3.09242 0
M  V30 3414 C 315.666 4.22341 -1.2376 0
M  V30 3415 H 312.785 0.653697 -0.340366 0
M  V30 3416 H 315.427 1.25389 -1.4275 0
M  V30 3417 H 313.577 3.71712 -1.12972 0
M  V30 3418 H 315.249 2.88173 -3.60214 0
M  V30 3419 H 313.492 2.65539 -3.43033 0
M  V30 3420 H 314.163 4.28854 -3.47546 0
M  V30 3421 H 316.639 3.8405 -1.60139 0
M  V30 3422 H 315.515 5.22053 -1.69564 0
M  V30 3423 H 315.776 4.41828 -0.154938 0
M  V30 3424 N 314.835 0.952656 1.25548 0
M  V30 3425 C 315.768 0.415525 2.24385 0
M  V30 3426 C 316.746 -0.502046 1.54655 0
M  V30 3427 O 317.93 -0.436875 1.83368 0
M  V30 3428 C 315.057 -0.401734 3.36309 0
M  V30 3429 C 314.103 0.455949 4.24056 0
M  V30 3430 S 314.936 1.88698 5.01152 0
M  V30 3431 C 316.092 1.07809 6.16545 0
M  V30 3432 H 316.325 1.25315 2.69599 0
M  V30 3433 H 313.858 0.756587 1.34592 0
M  V30 3434 H 315.816 -0.867329 4.01233 0
M  V30 3435 H 314.477 -1.21416 2.89684 0
M  V30 3436 H 313.67 -0.170776 5.03711 0
M  V30 3437 H 313.272 0.856675 3.64056 0
M  V30 3438 H 315.564 0.325816 6.76716 0
M  V30 3439 H 316.507 1.84849 6.83547 0
M  V30 3440 H 316.915 0.60909 5.61204 0
M  V30 3441 N 316.313 -1.40141 0.720998 0
M  V30 3442 C 317.541 -2.05096 0.272656 0
M  V30 3443 C 317.956 -1.54334 -1.0875 0
M  V30 3444 O 317.313 -0.702211 -1.6845 0
M  V30 3445 C 317.364 -3.60636 0.249835 0
M  V30 3446 O 317.085 -4.09526 1.55629 0
M  V30 3447 C 318.586 -4.42772 -0.216396 0
M  V30 3448 H 315.806 -0.659897 0.121558 0
M  V30 3449 H 318.35 -1.79449 0.980723 0
M  V30 3450 H 316.505 -3.85232 -0.409237 0
M  V30 3451 H 316.919 -5.03758 1.4604 0
M  V30 3452 H 318.393 -5.51702 -0.181212 0
M  V30 3453 H 318.87 -4.20756 -1.25941 0
M  V30 3454 H 319.476 -4.23294 0.412596 0
M  V30 3455 N 317.792 -0.46758 -1.50504 0
M  V30 3456 C 318.74 0.342482 -2.30065 0
M  V30 3457 C 319.734 0.993596 -1.37201 0
M  V30 3458 O 320.94 0.925102 -1.54408 0
M  V30 3459 H 317.315 0.129283 -0.740803 0
M  V30 3460 H 319.286 -0.34899 -2.96352 0
M  V30 3461 C 318.035 1.4139 -3.17654 0
M  V30 3462 H 317.358 0.922264 -3.89017 0
M  V30 3463 H 318.798 1.95335 -3.76325 0
M  V30 3464 C 317.257 2.4139 -2.35016 0
M  V30 3465 O 317.787 3.46586 -2.03079 0
M  V30 3466 N 315.993 2.13021 -1.97662 0
M  V30 3467 H 315.54 1.27499 -2.23834 0
M  V30 3468 H 315.498 2.80164 -1.42673 0
M  V30 3469 N 319.27 1.56325 -0.20005 0
M  V30 3470 C 320.202 2.16555 0.750771 0
M  V30 3471 C 321.215 1.12871 1.1732 0
M  V30 3472 O 322.404 1.39943 1.10807 0
M  V30 3473 C 319.504 2.71684 2.02586 0
M  V30 3474 C 318.677 4.00321 1.76244 0
M  V30 3475 C 317.736 4.40227 2.88248 0
M  V30 3476 O 316.762 5.07552 2.57642 0
M  V30 3477 N 317.964 4.04138 4.16717 0
M  V30 3478 H 320.729 2.98772 0.235685 0
M  V30 3479 H 318.29 1.6189 -0.0182594 0
M  V30 3480 H 320.282 2.95363 2.76664 0
M  V30 3481 H 318.852 1.93893 2.45202 0
M  V30 3482 H 318.072 3.84723 0.85919 0
M  V30 3483 H 319.36 4.84279 1.56048 0
M  V30 3484 H 318.758 3.49993 4.44434 0
M  V30 3485 H 317.315 4.32756 4.87407 0
M  V30 3486 N 320.748 -0.0735177 1.57428 0
M  V30 3487 C 321.658 -1.10547 2.06922 0
M  V30 3488 C 322.674 -1.42506 0.998402 0
M  V30 3489 O 323.85 -1.52717 1.31299 0
M  V30 3490 C 320.915 -2.40019 2.50184 0
M  V30 3491 C 319.976 -2.15046 3.71556 0
M  V30 3492 C 319.209 -3.38345 4.12745 0
M  V30 3493 O 319.432 -4.47399 3.53822 0
M  V30 3494 O 318.366 -3.2666 5.05546 0
M  V30 3495 H 322.192 -0.715013 2.95163 0
M  V30 3496 H 319.777 -0.287531 1.46607 0
M  V30 3497 H 321.659 -3.16218 2.78539 0
M  V30 3498 H 320.334 -2.78447 1.65072 0
M  V30 3499 H 319.241 -1.36558 3.48285 0
M  V30 3500 H 320.574 -1.81499 4.57514 0
M  V30 3501 N 322.226 -1.5378 -0.344866 0
M  V30 3502 C 323.475 -1.7018 -1.08267 0
M  V30 3503 C 323.788 -0.471 -1.89845 0
M  V30 3504 O 324.994 -0.515917 -2.66553 0
M  V30 3505 C 323.45 -3.00923 -1.97417 0
M  V30 3506 C 323.058 -4.31335 -1.21053 0
M  V30 3507 C 324.802 -3.26688 -2.71063 0
M  V30 3508 C 322.709 -5.53153 -2.09225 0
M  V30 3509 H 321.639 -0.634138 -0.407903 0
M  V30 3510 H 324.29 -1.8028 -0.342246 0
M  V30 3511 H 322.672 -2.84676 -2.75274 0
M  V30 3512 H 323.846 -4.58281 -0.481159 0
M  V30 3513 H 322.161 -4.12173 -0.591813 0
M  V30 3514 H 324.758 -4.1489 -3.37299 0
M  V30 3515 H 325.101 -2.43639 -3.37558 0
M  V30 3516 H 325.634 -3.43705 -2.0028 0
M  V30 3517 H 322.373 -6.38741 -1.47274 0
M  V30 3518 H 321.893 -5.30458 -2.79955 0
M  V30 3519 H 323.572 -5.88744 -2.68308 0
M  V30 3520 N 323.704 0.605807 -1.45491 0
M  V30 3521 C 324.614 1.74466 -1.56839 0
M  V30 3522 C 325.63 1.68006 -0.452772 0
M  V30 3523 O 326.806 1.8833 -0.713708 0
M  V30 3524 C 323.871 3.10931 -1.53371 0
M  V30 3525 C 322.932 3.28832 -2.75986 0
M  V30 3526 C 322.165 4.58787 -2.72673 0
M  V30 3527 O 322.388 5.4122 -1.80102 0
M  V30 3528 O 321.322 4.79438 -3.63899 0
M  V30 3529 H 325.148 1.67843 -2.53106 0
M  V30 3530 H 322.733 0.770108 -1.28022 0
M  V30 3531 H 324.615 3.92233 -1.54051 0
M  V30 3532 H 323.29 3.18042 -0.602572 0
M  V30 3533 H 322.197 2.47112 -2.80867 0
M  V30 3534 H 323.53 3.26599 -3.68231 0
M  V30 3535 N 325.182 1.32811 0.848464 0
M  V30 3536 C 326.114 1.18095 1.96433 0
M  V30 3537 C 327.127 0.114354 1.62398 0
M  V30 3538 O 328.316 0.363892 1.74751 0
M  V30 3539 C 325.416 0.786798 3.2964 0
M  V30 3540 C 324.589 1.943 3.91875 0
M  V30 3541 C 323.648 1.53138 5.03423 0
M  V30 3542 O 322.674 2.24432 5.23086 0
M  V30 3543 N 323.876 0.430915 5.78898 0
M  V30 3544 H 326.641 2.14218 2.09597 0
M  V30 3545 H 324.202 1.2543 1.02367 0
M  V30 3546 H 326.194 0.493715 4.01677 0
M  V30 3547 H 324.764 -0.0834541 3.12489 0
M  V30 3548 H 323.984 2.40224 3.12547 0
M  V30 3549 H 325.272 2.71689 4.30189 0
M  V30 3550 H 324.67 -0.162333 5.65467 0
M  V30 3551 H 323.227 0.197466 6.51501 0
M  V30 3552 N 326.66 -1.06551 1.16123 0
M  V30 3553 C 327.888 -1.83005 0.965237 0
M  V30 3554 C 328.303 -1.82423 -0.486542 0
M  V30 3555 O 327.66 -1.24152 -1.33763 0
M  V30 3556 C 327.711 -3.29733 1.48183 0
M  V30 3557 O 327.432 -3.30416 2.87674 0
M  V30 3558 C 328.933 -4.22926 1.32848 0
M  V30 3559 H 326.153 -0.577118 0.342309 0
M  V30 3560 H 328.697 -1.3445 1.54089 0
M  V30 3561 H 326.852 -3.75609 0.948517 0
M  V30 3562 H 327.266 -4.22149 3.11272 0
M  V30 3563 H 328.74 -5.23916 1.73827 0
M  V30 3564 H 329.217 -4.38346 0.273692 0
M  V30 3565 H 329.823 -3.82894 1.85127 0
M  V30 3566 N 328.138 -0.959301 -1.25041 0
M  V30 3567 C 329.366 -0.633949 -1.96948 0
M  V30 3568 C 329.781 0.794916 -1.7125 0
M  V30 3569 O 329.138 1.53231 -0.991287 0
M  V30 3570 C 329.189 -0.888805 -3.50403 0
M  V30 3571 O 328.91 -2.26149 -3.75218 0
M  V30 3572 C 330.411 -0.576482 -4.39536 0
M  V30 3573 H 327.631 -0.237263 -0.627652 0
M  V30 3574 H 330.175 -1.28495 -1.59089 0
M  V30 3575 H 328.33 -0.284145 -3.86357 0
M  V30 3576 H 328.744 -2.33514 -4.6965 0
M  V30 3577 H 330.218 -0.805314 -5.46094 0
M  V30 3578 H 330.695 0.489075 -4.36468 0
M  V30 3579 H 331.301 -1.16067 -4.09156 0
M  V30 3580 N 329.616 1.39756 -0.72842 0
M  V30 3581 C 331.027 1.83498 -0.344289 0
M  V30 3582 C 331.378 1.60868 1.12321 0
M  V30 3583 O 330.503 1.09634 1.86573 0
M  V30 3584 C 331.098 3.33114 -0.618112 0
M  V30 3585 C 329.657 3.753 -0.287549 0
M  V30 3586 C 328.804 2.62831 -0.884048 0
M  V30 3587 H 331.755 1.28842 -0.926578 0
M  V30 3588 H 331.776 3.80334 0.112349 0
M  V30 3589 H 331.288 3.49553 -1.68625 0
M  V30 3590 H 329.389 3.64451 0.775012 0
M  V30 3591 H 329.502 4.72945 -0.765512 0
M  V30 3592 H 327.866 2.52792 -0.311149 0
M  V30 3593 H 328.649 2.82078 -1.95671 0
M  V30 3594 N 331.094 0.475555 1.50254 0
M  V30 3595 C 332.041 -0.316293 2.28622 0
M  V30 3596 C 333.011 -0.983227 1.33873 0
M  V30 3597 O 334.196 -0.994805 1.62814 0
M  V30 3598 C 331.336 -1.38975 3.1588 0
M  V30 3599 C 330.449 -0.737146 4.25664 0
M  V30 3600 C 329.584 -1.78887 5.00173 0
M  V30 3601 C 328.623 -1.11676 6.01826 0
M  V30 3602 N 327.76 -2.11154 6.69596 0
M  V30 3603 H 332.6 0.358297 2.95838 0
M  V30 3604 H 330.137 0.188541 1.45887 0
M  V30 3605 H 332.095 -2.02383 3.64825 0
M  V30 3606 H 330.725 -2.03344 2.50701 0
M  V30 3607 H 329.777 0.0096065 3.80399 0
M  V30 3608 H 331.089 -0.206816 4.98371 0
M  V30 3609 H 330.243 -2.49865 5.52859 0
M  V30 3610 H 328.982 -2.35302 4.27182 0
M  V30 3611 H 327.987 -0.392633 5.48396 0
M  V30 3612 H 329.212 -0.55945 6.76792 0
M  V30 3613 H 327.158 -2.66577 5.99394 0
M  V30 3614 H 327.075 -1.63118 7.38193 0
M  V30 3615 H 328.343 -2.81497 7.26897 0
M  V30 3616 N 332.573 -1.56217 0.208337 0
M  V30 3617 C 333.801 -2.02337 -0.43215 0
M  V30 3618 C 334.216 -1.08834 -1.54275 0
M  V30 3619 O 333.573 -0.0955462 -1.8225 0
M  V30 3620 C 333.624 -3.48072 -0.976138 0
M  V30 3621 O 333.345 -4.38007 0.0901621 0
M  V30 3622 C 334.846 -4.09773 -1.69119 0
M  V30 3623 H 332.066 -0.662385 -0.10718 0
M  V30 3624 H 334.61 -2.01966 0.320923 0
M  V30 3625 H 332.765 -3.49099 -1.67954 0
M  V30 3626 H 333.179 -5.23543 -0.316701 0
M  V30 3627 H 334.653 -5.13556 -2.02397 0
M  V30 3628 H 335.13 -3.53999 -2.59964 0
M  V30 3629 H 335.736 -4.12556 -1.03332 0
M  V30 3630 N 334.051 0.0651679 -1.57465 0
M  V30 3631 C 335.297 0.764193 -1.87851 0
M  V30 3632 C 335.63 1.76889 -0.801495 0
M  V30 3633 O 334.905 1.93594 0.187528 0
M  V30 3634 C 335.188 1.46625 -3.28897 0
M  V30 3635 C 335.041 0.477515 -4.47258 0
M  V30 3636 C 336.36 2.4095 -3.68281 0
M  V30 3637 H 333.479 0.276351 -0.683227 0
M  V30 3638 H 336.121 0.0272868 -1.8998 0
M  V30 3639 H 334.271 2.09438 -3.27212 0
M  V30 3640 H 335.943 -0.145922 -4.61069 0
M  V30 3641 H 334.186 -0.206576 -4.33308 0
M  V30 3642 H 334.857 1.0065 -5.42746 0
M  V30 3643 H 337.333 1.88209 -3.71102 0
M  V30 3644 H 336.209 2.87072 -4.67847 0
M  V30 3645 H 336.47 3.26049 -2.98571 0
M  V30 3646 N 335.529 1.53961 0.336706 0
M  V30 3647 C 336.945 1.44378 0.680241 0
M  V30 3648 C 337.145 0.606034 1.9217 0
M  V30 3649 O 336.201 0.099688 2.52303 0
M  V30 3650 C 337.514 2.87945 0.8665 0
M  V30 3651 C 339.062 2.97763 0.964682 0
M  V30 3652 C 339.537 4.42453 1.18321 0
M  V30 3653 N 341.028 4.46008 1.25025 0
M  V30 3654 C 341.763 5.55102 1.43697 0
M  V30 3655 N 341.259 6.7419 1.59498 0
M  V30 3656 N 343.052 5.42727 1.463 0
M  V30 3657 H 335.203 2.06918 -0.479455 0
M  V30 3658 H 337.466 0.935634 -0.152619 0
M  V30 3659 H 337.172 3.51691 0.0256937 0
M  V30 3660 H 337.046 3.33293 1.76623 0
M  V30 3661 H 339.433 2.34153 1.796 0
M  V30 3662 H 339.514 2.55766 0.041708 0
M  V30 3663 H 339.158 5.06645 0.356788 0
M  V30 3664 H 339.088 4.82048 2.11985 0
M  V30 3665 H 341.579 3.60196 1.14312 0
M  V30 3666 H 341.892 7.53095 1.734 0
M  V30 3667 H 340.237 6.77123 1.56621 0
M  V30 3668 H 343.428 4.48647 1.33543 0
M  V30 3669 H 343.601 6.27806 1.6051 0
M  V30 3670 N 337.007 -0.598083 1.45811 0
M  V30 3671 C 337.937 -1.71873 1.58057 0
M  V30 3672 C 338.918 -1.64533 0.431615 0
M  V30 3673 O 340.103 -1.82787 0.65595 0
M  V30 3674 C 337.233 -3.10495 1.55597 0
M  V30 3675 C 336.187 -3.32654 2.69305 0
M  V30 3676 C 335.513 -4.71646 2.51902 0
M  V30 3677 C 336.813 -3.21981 4.11248 0
M  V30 3678 H 338.507 -1.61881 2.51863 0
M  V30 3679 H 336.053 -0.777372 1.21214 0
M  V30 3680 H 338.006 -3.88699 1.6276 0
M  V30 3681 H 336.73 -3.2135 0.583255 0
M  V30 3682 H 335.389 -2.56843 2.61586 0
M  V30 3683 H 335.037 -4.79246 1.52748 0
M  V30 3684 H 334.737 -4.87426 3.2816 0
M  V30 3685 H 336.261 -5.52038 2.60933 0
M  V30 3686 H 337.675 -3.90049 4.20161 0
M  V30 3687 H 336.072 -3.49289 4.87972 0
M  V30 3688 H 337.142 -2.1928 4.32486 0
M  V30 3689 N 338.485 -1.33259 -0.841409 0
M  V30 3690 C 339.733 -1.24326 -1.59334 0
M  V30 3691 C 340.054 0.191564 -1.94057 0
M  V30 3692 O 339.324 1.11967 -1.60749 0
M  V30 3693 H 337.904 -0.457174 -0.590763 0
M  V30 3694 H 340.566 -1.66947 -1.00571 0
M  V30 3695 H 339.662 -1.8352 -2.52442 0
M  V30 3696 N 339.963 1.05934 -1.16686 0
M  V30 3697 C 341.212 1.78188 -0.945085 0
M  V30 3698 C 341.525 1.88338 0.528021 0
M  V30 3699 O 342.731 2.57258 0.867799 0
M  V30 3700 C 341.187 3.20277 -1.64167 0
M  V30 3701 C 340.795 3.18281 -3.15279 0
M  V30 3702 C 342.539 3.97039 -1.502 0
M  V30 3703 C 340.446 4.55112 -3.7766 0
M  V30 3704 H 339.376 0.667866 -0.349959 0
M  V30 3705 H 342.027 1.18794 -1.39858 0
M  V30 3706 H 340.409 3.79952 -1.11589 0
M  V30 3707 H 341.583 2.68167 -3.74731 0
M  V30 3708 H 339.898 2.55018 -3.29173 0
M  V30 3709 H 342.495 4.98194 -1.94183 0
M  V30 3710 H 342.838 4.13845 -0.451461 0
M  V30 3711 H 343.371 3.43894 -1.99954 0
M  V30 3712 H 340.11 4.43512 -4.82677 0
M  V30 3713 H 339.63 5.05406 -3.22994 0
M  V30 3714 H 341.309 5.24064 -3.79428 0
M  V30 3715 N 341.441 0.965919 1.2453 0
M  V30 3716 C 342.687 0.62776 1.92839 0
M  V30 3717 C 343.02 -0.834694 1.75347 0
M  V30 3718 O 342.295 -1.60031 1.10546 0
M  V30 3719 C 342.578 1.00109 3.45905 0
M  V30 3720 C 342.431 2.52011 3.72573 0
M  V30 3721 C 343.75 0.53435 4.36844 0
M  V30 3722 H 340.869 0.229537 0.700344 0
M  V30 3723 H 343.511 1.2046 1.46933 0
M  V30 3724 H 341.661 0.510238 3.85135 0
M  V30 3725 H 343.333 3.08559 3.42912 0
M  V30 3726 H 341.576 2.95287 3.17786 0
M  V30 3727 H 342.247 2.73183 4.79661 0
M  V30 3728 H 344.723 0.955565 4.04979 0
M  V30 3729 H 343.599 0.824152 5.42678 0
M  V30 3730 H 343.86 -0.565589 4.38467 0
M  V30 3731 N 342.919 -1.39368 0.735821 0
M  V30 3732 C 344.167 -2.00101 0.283562 0
M  V30 3733 C 344.488 -1.5868 -1.13338 0
M  V30 3734 O 343.758 -0.835423 -1.77193 0
M  V30 3735 H 342.338 -0.740024 0.101851 0
M  V30 3736 H 345 -1.70404 0.945962 0
M  V30 3737 H 344.096 -3.10323 0.332604 0
M  V30 3738 N 344.397 -0.483516 -1.5 0
M  V30 3739 C 345.344 0.304164 -2.28787 0
M  V30 3740 C 346.314 0.976114 -1.34392 0
M  V30 3741 O 347.499 0.986156 -1.63339 0
M  V30 3742 C 344.639 1.37298 -3.16612 0
M  V30 3743 C 343.752 0.714561 -4.26049 0
M  V30 3744 C 342.887 1.76232 -5.01114 0
M  V30 3745 C 341.926 1.08483 -6.0241 0
M  V30 3746 N 341.063 2.076 -6.70706 0
M  V30 3747 H 345.903 -0.373981 -2.95644 0
M  V30 3748 H 343.44 -0.196275 -1.45785 0
M  V30 3749 H 345.398 2.00445 -3.65893 0
M  V30 3750 H 344.028 2.02012 -2.51776 0
M  V30 3751 H 343.08 -0.0297798 -3.80388 0
M  V30 3752 H 344.392 0.180383 -4.98474 0
M  V30 3753 H 343.546 2.46929 -5.54176 0
M  V30 3754 H 342.285 2.33033 -4.28424 0
M  V30 3755 H 341.29 0.363545 -5.48597 0
M  V30 3756 H 342.515 0.523551 -6.77079 0
M  V30 3757 H 340.461 2.63394 -6.00799 0
M  V30 3758 H 340.378 1.59201 -7.39047 0
M  V30 3759 H 341.646 2.77639 -7.2838 0
M  V30 3760 N 345.875 1.56104 -0.216619 0
M  V30 3761 C 347.123 1.97781 0.415593 0
M  V30 3762 C 347.444 1.10536 1.60645 0
M  V30 3763 O 346.714 0.181303 1.95059 0
M  V30 3764 H 345.294 0.730415 0.156534 0
M  V30 3765 H 347.956 1.92445 -0.308366 0
M  V30 3766 H 347.052 3.03072 0.74525 0
M  V30 3767 N 347.353 -0.0568162 1.57498 0
M  V30 3768 C 348.601 -0.751617 1.87604 0
M  V30 3769 C 348.922 -1.77351 0.81066 0
M  V30 3770 O 348.192 -1.95254 -0.159018 0
M  V30 3771 H 346.772 -0.280583 0.692302 0
M  V30 3772 H 349.434 -0.0293483 1.94878 0
M  V30 3773 H 348.53 -1.25852 2.856 0
M  V30 3774 N 348.832 -1.54138 -0.328536 0
M  V30 3775 C 349.764 -1.79509 -1.4251 0
M  V30 3776 C 350.777 -0.67688 -1.48061 0
M  V30 3777 O 351.966 -0.953898 -1.50874 0
M  V30 3778 C 349.066 -1.89337 -2.81078 0
M  V30 3779 C 348.239 -3.19443 -2.98789 0
M  V30 3780 C 347.298 -3.20036 -4.17688 0
M  V30 3781 O 346.324 -3.93697 -4.11086 0
M  V30 3782 N 347.526 -2.43467 -5.26976 0
M  V30 3783 H 350.291 -2.74139 -1.21111 0
M  V30 3784 H 347.852 -1.53373 -0.518499 0
M  V30 3785 H 349.844 -1.87167 -3.58818 0
M  V30 3786 H 348.414 -1.01826 -2.95551 0
M  V30 3787 H 347.634 -3.34614 -2.08391 0
M  V30 3788 H 348.922 -4.05354 -3.07515 0
M  V30 3789 H 348.32 -1.83201 -5.35214 0
M  V30 3790 H 346.877 -2.4708 -6.03154 0
M  V30 3791 N 350.31 0.590341 -1.46126 0
M  V30 3792 C 351.558 1.34616 -1.50742 0
M  V30 3793 C 351.879 1.94363 -0.157486 0
M  V30 3794 O 351.149 1.78136 0.815136 0
M  V30 3795 H 349.729 0.499789 -0.555175 0
M  V30 3796 H 352.391 0.691953 -1.82203 0
M  V30 3797 H 351.487 2.15678 -2.25587 0
M  V30 3798 N 351.788 1.33704 0.83433 0
M  V30 3799 C 352.698 1.26382 1.97648 0
M  V30 3800 C 353.714 0.173548 1.73132 0
M  V30 3801 O 354.89 0.397962 1.97429 0
M  V30 3802 C 351.955 1.00769 3.31733 0
M  V30 3803 C 351.016 2.1884 3.69334 0
M  V30 3804 C 350.249 1.9444 4.9702 0
M  V30 3805 O 350.472 0.896961 5.63303 0
M  V30 3806 O 349.406 2.81093 5.32231 0
M  V30 3807 H 353.232 2.22444 2.06767 0
M  V30 3808 H 350.817 1.13795 0.968037 0
M  V30 3809 H 352.699 0.882186 4.12062 0
M  V30 3810 H 351.374 0.0773783 3.23608 0
M  V30 3811 H 350.281 2.36946 2.89495 0
M  V30 3812 H 351.614 3.10221 3.82131 0
M  V30 3813 N 353.266 -1.05314 1.17247 0
M  V30 3814 C 354.682 -1.30452 0.919473 0
M  V30 3815 C 354.882 -1.9703 -0.42209 0
M  V30 3816 O 353.938 -2.24311 -1.15935 0
M  V30 3817 C 355.251 -2.17551 2.07586 0
M  V30 3818 C 356.799 -2.30937 2.11275 0
M  V30 3819 C 357.274 -3.21396 3.26296 0
M  V30 3820 N 358.765 -3.28981 3.26076 0
M  V30 3821 C 359.5 -3.99095 4.11716 0
M  V30 3822 N 358.996 -4.71648 5.07465 0
M  V30 3823 N 360.789 -3.95247 3.9967 0
M  V30 3824 H 352.94 -0.604988 2.03602 0
M  V30 3825 H 355.203 -0.329368 0.888944 0
M  V30 3826 H 354.909 -1.75921 3.0454 0
M  V30 3827 H 354.783 -3.18182 2.02584 0
M  V30 3828 H 357.17 -2.71809 1.14907 0
M  V30 3829 H 357.251 -1.2994 2.20339 0
M  V30 3830 H 356.895 -2.81238 4.22927 0
M  V30 3831 H 356.825 -4.22395 3.14467 0
M  V30 3832 H 359.316 -2.77286 2.5675 0
M  V30 3833 H 359.629 -5.22705 5.6921 0
M  V30 3834 H 357.974 -4.70594 5.11435 0
M  V30 3835 H 361.165 -3.37691 3.24164 0
M  V30 3836 H 361.338 -4.4962 4.66632 0
M  V30 3837 N 354.744 -0.972509 -1.24016 0
M  V30 3838 C 355.993 -0.632603 -1.91523 0
M  V30 3839 C 356.306 0.836641 -1.76804 0
M  V30 3840 O 357.512 1.28728 -2.39043 0
M  V30 3841 C 355.968 -1.08082 -3.43287 0
M  V30 3842 C 355.576 -2.57386 -3.66683 0
M  V30 3843 C 357.32 -0.814288 -4.16617 0
M  V30 3844 C 355.227 -2.95915 -5.12043 0
M  V30 3845 H 354.157 -0.232898 -0.717129 0
M  V30 3846 H 356.808 -1.17936 -1.40582 0
M  V30 3847 H 355.19 -0.462339 -3.93292 0
M  V30 3848 H 356.364 -3.24405 -3.27258 0
M  V30 3849 H 354.679 -2.81701 -3.06649 0
M  V30 3850 H 357.276 -1.0781 -5.23718 0
M  V30 3851 H 357.619 0.24955 -4.15551 0
M  V30 3852 H 358.152 -1.39397 -3.72577 0
M  V30 3853 H 354.891 -4.0139 -5.18234 0
M  V30 3854 H 354.411 -2.33584 -5.52448 0
M  V30 3855 H 356.09 -2.86086 -5.80314 0
M  V30 3856 N 356.222 1.38976 -0.743202 0
M  V30 3857 C 357.452 2.04339 -0.304807 0
M  V30 3858 C 357.86 1.56162 1.06819 0
M  V30 3859 O 357.203 0.725284 1.68776 0
M  V30 3860 C 357.265 3.58716 -0.237369 0
M  V30 3861 C 356.929 4.29905 -1.55018 0
M  V30 3862 C 357.926 4.55987 -2.49744 0
M  V30 3863 C 355.611 4.68294 -1.81675 0
M  V30 3864 C 357.605 5.19478 -3.69353 0
M  V30 3865 C 355.292 5.31512 -3.0156 0
M  V30 3866 C 356.29 5.57037 -3.9522 0
M  V30 3867 O 355.978 6.18941 -5.12998 0
M  V30 3868 H 355.71 0.663439 -0.12971 0
M  V30 3869 H 358.264 1.78852 -1.01001 0
M  V30 3870 H 356.494 3.83133 0.524003 0
M  V30 3871 H 358.183 4.05543 0.170121 0
M  V30 3872 H 358.949 4.26767 -2.30423 0
M  V30 3873 H 354.828 4.47779 -1.09615 0
M  V30 3874 H 358.372 5.39318 -4.42473 0
M  V30 3875 H 354.269 5.60153 -3.20778 0
M  V30 3876 H 355.037 6.37433 -5.13441 0
M  V30 3877 N 357.7 0.491464 1.49741 0
M  V30 3878 C 358.925 -0.0557177 2.07325 0
M  V30 3879 C 359.35 -1.30925 1.35056 0
M  V30 3880 O 358.708 -1.76733 0.404365 0
M  V30 3881 C 358.756 -0.302074 3.59333 0
M  V30 3882 O 357.86 -1.37868 3.88672 0
M  V30 3883 H 357.201 0.0219956 0.663636 0
M  V30 3884 H 359.731 0.688352 1.92673 0
M  V30 3885 H 359.741 -0.536464 4.04458 0
M  V30 3886 H 358.416 0.61383 4.11345 0
M  V30 3887 H 356.993 -1.12999 3.55367 0
M  V30 3888 N 359.178 -1.55987 0.224894 0
M  V30 3889 C 360.406 -2.02784 -0.410665 0
M  V30 3890 C 360.821 -1.10464 -1.53112 0
M  V30 3891 O 360.178 -0.114871 -1.82138 0
M  V30 3892 C 360.229 -3.49087 -0.939165 0
M  V30 3893 O 359.95 -4.37887 0.136614 0
M  V30 3894 C 361.451 -4.11543 -1.64763 0
M  V30 3895 H 358.671 -0.663484 -0.100148 0
M  V30 3896 H 361.215 -2.01614 0.342326 0
M  V30 3897 H 359.37 -3.50861 -1.64242 0
M  V30 3898 H 359.784 -5.23849 -0.261155 0
M  V30 3899 H 361.258 -5.15673 -1.96939 0
M  V30 3900 H 361.735 -3.56736 -2.56195 0
M  V30 3901 H 362.341 -4.13629 -0.989503 0
M  V30 3902 N 360.656 0.0484629 -1.57525 0
M  V30 3903 C 362.072 0.40375 -1.54409 0
M  V30 3904 C 362.272 1.77786 -0.948384 0
M  V30 3905 O 361.328 2.46189 -0.560983 0
M  V30 3906 C 362.641 0.323394 -2.98956 0
M  V30 3907 C 364.189 0.401892 -3.10409 0
M  V30 3908 C 364.664 0.351195 -4.56652 0
M  V30 3909 N 366.155 0.410576 -4.61377 0
M  V30 3910 C 366.89 0.393933 -5.72045 0
M  V30 3911 N 366.386 0.330724 -6.9201 0
M  V30 3912 N 368.179 0.442227 -5.60358 0
M  V30 3913 H 360.33 -0.851016 -1.94606 0
M  V30 3914 H 362.593 -0.321721 -0.89174 0
M  V30 3915 H 362.299 -0.62011 -3.4619 0
M  V30 3916 H 362.173 1.12463 -3.60044 0
M  V30 3917 H 364.56 1.33582 -2.63134 0
M  V30 3918 H 364.641 -0.428342 -2.52188 0
M  V30 3919 H 364.285 -0.578987 -5.04589 0
M  V30 3920 H 364.215 1.19928 -5.12762 0
M  V30 3921 H 366.706 0.462729 -3.75056 0
M  V30 3922 H 367.019 0.322592 -7.72126 0
M  V30 3923 H 365.364 0.29706 -6.94365 0
M  V30 3924 H 368.555 0.489464 -4.65534 0
M  V30 3925 H 368.728 0.425788 -6.466 0
M  V30 3926 N 362.134 1.5431 0.320358 0
M  V30 3927 C 363.382 1.72327 1.05583 0
M  V30 3928 C 363.703 0.50149 1.88441 0
M  V30 3929 O 362.973 -0.48448 1.89815 0
M  V30 3930 H 361.553 0.635387 0.3928 0
M  V30 3931 H 364.215 1.91621 0.356019 0
M  V30 3932 H 363.311 2.60426 1.72003 0
M  V30 3933 N 363.613 -0.582584 1.46437 0
M  V30 3934 C 364.862 -1.337 1.5102 0
M  V30 3935 C 365.175 -1.94891 0.166359 0
M  V30 3936 O 366.381 -2.71351 0.0899954 0
M  V30 3937 C 364.837 -2.42315 2.66104 0
M  V30 3938 C 364.445 -1.87427 4.06909 0
M  V30 3939 C 366.189 -3.19099 2.79958 0
M  V30 3940 C 364.096 -2.93672 5.13333 0
M  V30 3941 H 363.026 -0.502619 0.562041 0
M  V30 3942 H 365.677 -0.621701 1.72647 0
M  V30 3943 H 364.059 -3.16645 2.37807 0
M  V30 3944 H 365.233 -1.19639 4.44998 0
M  V30 3945 H 363.548 -1.2331 3.97723 0
M  V30 3946 H 366.145 -3.9839 3.56636 0
M  V30 3947 H 366.488 -3.71695 1.87479 0
M  V30 3948 H 367.021 -2.51875 3.07902 0
M  V30 3949 H 363.76 -2.45962 6.07604 0
M  V30 3950 H 363.28 -3.59948 4.79789 0
M  V30 3951 H 364.959 -3.5762 5.39182 0
M  V30 3952 N 365.091 -1.34144 -0.827227 0
M  V30 3953 C 366.054 -1.25264 -1.91942 0
M  V30 3954 C 367.054 -0.168866 -1.59911 0
M  V30 3955 O 368.244 -0.421198 -1.69031 0
M  V30 3956 C 365.376 -0.932952 -3.27885 0
M  V30 3957 H 366.569 -2.22357 -2.0124 0
M  V30 3958 H 364.122 -1.1837 -1.0207 0
M  V30 3959 H 364.857 0.0349917 -3.24281 0
M  V30 3960 H 364.642 -1.71682 -3.52516 0
M  V30 3961 H 366.132 -0.895874 -4.07877 0
M  V30 3962 N 366.569 1.04691 -1.17803 0
M  V30 3963 C 367.818 1.77176 -0.963931 0
M  V30 3964 C 368.131 1.88888 0.508015 0
M  V30 3965 O 369.337 2.58164 0.840465 0
M  V30 3966 C 367.793 3.18518 -1.67555 0
M  V30 3967 C 367.401 3.14919 -3.18637 0
M  V30 3968 C 369.145 3.95424 -1.54402 0
M  V30 3969 C 367.052 4.51081 -3.82466 0
M  V30 3970 H 365.982 0.664116 -0.357023 0
M  V30 3971 H 368.633 1.17303 -1.4111 0
M  V30 3972 H 367.015 3.78748 -1.15613 0
M  V30 3973 H 368.189 2.64178 -3.77554 0
M  V30 3974 H 366.504 2.51512 -3.31859 0
M  V30 3975 H 369.101 4.96106 -1.99456 0
M  V30 3976 H 369.444 4.13343 -0.495329 0
M  V30 3977 H 369.977 3.41754 -2.0359 0
M  V30 3978 H 366.716 4.38368 -4.87354 0
M  V30 3979 H 366.236 5.01951 -3.28337 0
M  V30 3980 H 367.915 5.2001 -3.84965 0
M  V30 3981 N 368.047 0.979072 1.23499 0
M  V30 3982 C 369.275 0.665202 1.95915 0
M  V30 3983 C 369.69 -0.767571 1.72493 0
M  V30 3984 O 369.047 -1.51635 1.01554 0
M  V30 3985 C 369.098 0.944438 3.48945 0
M  V30 3986 O 368.819 2.3209 3.71572 0
M  V30 3987 C 370.32 0.646336 4.38563 0
M  V30 3988 H 367.54 0.247218 0.623798 0
M  V30 3989 H 370.084 1.31009 1.57025 0
M  V30 3990 H 368.239 0.345575 3.85856 0
M  V30 3991 H 368.653 2.40957 4.65876 0
M  V30 3992 H 370.127 0.892091 5.44744 0
M  V30 3993 H 370.604 -0.419575 4.37191 0
M  V30 3994 H 371.21 1.22562 4.07258 0
M  V30 3995 N 369.525 -1.3858 0.750561 0
M  V30 3996 C 370.455 -2.33102 0.136237 0
M  V30 3997 C 371.436 -1.54713 -0.706965 0
M  V30 3998 O 372.621 -1.83043 -0.648769 0
M  V30 3999 C 369.751 -3.38882 -0.760017 0
M  V30 4000 C 368.705 -4.27995 -0.0197785 0
M  V30 4001 C 368.031 -5.24605 -1.03408 0
M  V30 4002 C 369.331 -5.09554 1.14684 0
M  V30 4003 H 371.025 -2.84726 0.925822 0
M  V30 4004 H 368.571 -1.36898 0.446654 0
M  V30 4005 H 370.524 -4.0397 -1.19943 0
M  V30 4006 H 369.248 -2.85734 -1.58189 0
M  V30 4007 H 367.907 -3.64409 0.400184 0
M  V30 4008 H 367.555 -4.67746 -1.84994 0
M  V30 4009 H 367.255 -5.85081 -0.543464 0
M  V30 4010 H 368.779 -5.9257 -1.47288 0
M  V30 4011 H 370.193 -5.67899 0.785118 0
M  V30 4012 H 368.59 -5.7925 1.56812 0
M  V30 4013 H 369.66 -4.4347 1.96118 0
M  V30 4014 N 371.003 -0.499398 -1.49478 0
M  V30 4015 C 372.228 0.044722 -2.07352 0
M  V30 4016 C 372.653 1.30207 -1.35749 0
M  V30 4017 O 372.011 1.76516 -0.413732 0
M  V30 4018 C 372.059 0.283013 -3.59488 0
M  V30 4019 O 371.163 1.35804 -3.89398 0
M  V30 4020 H 370.504 -0.0255147 -0.66351 0
M  V30 4021 H 373.034 -0.698561 -1.92305 0
M  V30 4022 H 373.044 0.515007 -4.04737 0
M  V30 4023 H 371.719 -0.635636 -4.11014 0
M  V30 4024 H 370.296 1.11113 -3.55961 0
M  V30 4025 N 372.481 1.55866 -0.233164 0
M  V30 4026 C 373.444 2.1953 0.658715 0
M  V30 4027 C 374.444 1.16053 1.11303 0
M  V30 4028 O 375.634 1.41218 1.01996 0
M  V30 4029 C 372.766 2.82791 1.90373 0
M  V30 4030 H 373.959 2.99721 0.10347 0
M  V30 4031 H 371.512 1.56291 0.0164245 0
M  V30 4032 H 372.247 2.06501 2.50056 0
M  V30 4033 H 372.032 3.58578 1.58632 0
M  V30 4034 H 373.522 3.31556 2.53891 0
M  V30 4035 N 373.959 -0.0401083 1.57549 0
M  V30 4036 C 375.189 -0.744115 1.92734 0
M  V30 4037 C 375.597 -1.70005 0.830348 0
M  V30 4038 O 374.94 -1.82576 -0.20286 0
M  V30 4039 C 375.002 -1.56516 3.2364 0
M  V30 4040 C 374.666 -0.7752 4.50377 0
M  V30 4041 C 375.663 -0.0803326 5.19838 0
M  V30 4042 C 373.348 -0.733002 4.96923 0
M  V30 4043 C 375.342 0.646154 6.34116 0
M  V30 4044 C 373.029 -0.00276321 6.111 0
M  V30 4045 C 374.027 0.685585 6.7955 0
M  V30 4046 O 373.715 1.40399 7.91545 0
M  V30 4047 H 373.447 -0.214861 0.640945 0
M  V30 4048 H 376.001 -0.00503675 2.05399 0
M  V30 4049 H 374.231 -2.3478 3.07271 0
M  V30 4050 H 375.92 -2.15076 3.44234 0
M  V30 4051 H 376.686 -0.104035 4.84888 0
M  V30 4052 H 372.565 -1.25827 4.43496 0
M  V30 4053 H 376.109 1.18398 6.87479 0
M  V30 4054 H 372.006 0.0229012 6.45496 0
M  V30 4055 H 372.774 1.31653 8.07843 0
M  V30 4056 N 375.437 -1.54477 -0.31217 0
M  V30 4057 C 376.685 -1.72884 -1.04668 0
M  V30 4058 C 377.006 -0.511477 -1.88173 0
M  V30 4059 O 376.276 0.474407 -1.90069 0
M  V30 4060 H 374.856 -0.637461 -0.389425 0
M  V30 4061 H 377.518 -1.91807 -0.345852 0
M  V30 4062 H 376.614 -2.61334 -1.70619 0
M  V30 4063 N 376.915 0.57481 -1.46744 0
M  V30 4064 C 378.163 1.33009 -1.52161 0
M  V30 4065 C 378.484 1.94185 -0.178092 0
M  V30 4066 O 377.754 1.7899 0.796196 0
M  V30 4067 H 376.334 0.493873 -0.560445 0
M  V30 4068 H 378.996 0.672589 -1.82927 0
M  V30 4069 H 378.092 2.13273 -2.27862 0
M  V30 4070 N 378.394 1.34581 0.820102 0
M  V30 4071 C 379.642 1.26845 1.57336 0
M  V30 4072 C 379.963 -0.160667 1.94337 0
M  V30 4073 O 379.233 -1.09396 1.6251 0
M  V30 4074 H 377.813 0.466514 0.583415 0
M  V30 4075 H 380.475 1.68526 0.979027 0
M  V30 4076 H 379.571 1.87513 2.4949 0
M  V30 4077 N 379.872 -1.04064 1.18357 0
M  V30 4078 C 381.121 -1.76662 0.973313 0
M  V30 4079 C 381.434 -1.89154 -0.497991 0
M  V30 4080 O 382.64 -2.58606 -0.826762 0
M  V30 4081 C 381.096 -3.17624 1.69242 0
M  V30 4082 C 380.704 -3.13225 3.20303 0
M  V30 4083 C 382.448 -3.946 1.56497 0
M  V30 4084 C 380.355 -4.49046 3.84853 0
M  V30 4085 H 379.285 -0.662214 0.36054 0
M  V30 4086 H 381.936 -1.16553 1.41731 0
M  V30 4087 H 380.318 -3.78129 1.1762 0
M  V30 4088 H 381.492 -2.62172 3.78949 0
M  V30 4089 H 379.807 -2.49749 3.33189 0
M  V30 4090 H 382.404 -4.95042 2.02084 0
M  V30 4091 H 382.747 -4.13074 0.517243 0
M  V30 4092 H 383.28 -3.4067 2.05399 0
M  V30 4093 H 380.019 -4.35777 4.89672 0
M  V30 4094 H 379.539 -5.00203 3.30994 0
M  V30 4095 H 381.218 -5.17961 3.87718 0
M  V30 4096 N 381.35 -0.985608 -1.22978 0
M  V30 4097 C 382.597 -0.657386 -1.91532 0
M  V30 4098 C 382.925 0.809707 -1.76845 0
M  V30 4099 O 382.18 1.60021 -1.12658 0
M  V30 4100 C 382.479 -1.00014 -3.43121 0
M  V30 4101 C 382.145 -2.4583 -3.77993 0
M  V30 4102 C 380.807 -2.85679 -3.87222 0
M  V30 4103 C 383.159 -3.40378 -3.94705 0
M  V30 4104 C 380.487 -4.19081 -4.10595 0
M  V30 4105 C 382.839 -4.73429 -4.1958 0
M  V30 4106 C 381.503 -5.1303 -4.27032 0
M  V30 4107 H 380.773 -0.240555 -0.700867 0
M  V30 4108 H 383.42 -1.24044 -1.45895 0
M  V30 4109 H 381.725 -0.335072 -3.90365 0
M  V30 4110 H 383.422 -0.724322 -3.94404 0
M  V30 4111 H 380.012 -2.13939 -3.71387 0
M  V30 4112 H 384.196 -3.10766 -3.8696 0
M  V30 4113 H 379.452 -4.49362 -4.14589 0
M  V30 4114 H 383.626 -5.46644 -4.31455 0
M  V30 4115 H 381.253 -6.16418 -4.44896 0
M  V30 4116 N 382.828 1.3818 -0.7579 0
M  V30 4117 C 383.791 2.28764 -0.141286 0
M  V30 4118 C 384.791 1.47388 0.642907 0
M  V30 4119 O 385.981 1.67781 0.468536 0
M  V30 4120 C 383.113 3.31184 0.808069 0
M  V30 4121 H 384.306 2.848 -0.939633 0
M  V30 4122 H 381.859 1.47212 -0.525191 0
M  V30 4123 H 382.594 2.80247 1.63193 0
M  V30 4124 H 382.379 3.91314 0.248104 0
M  V30 4125 H 383.869 3.98909 1.23536 0
M  V30 4126 N 384.306 0.507319 1.49211 0
M  V30 4127 C 385.253 -0.267728 2.29242 0
M  V30 4128 C 386.223 -0.954609 1.35928 0
M  V30 4129 O 387.408 -0.960046 1.64887 0
M  V30 4130 C 384.548 -1.32243 3.18756 0
M  V30 4131 C 383.661 -0.64669 4.27132 0
M  V30 4132 C 382.796 -1.68238 5.03855 0
M  V30 4133 C 381.835 -0.98885 6.0406 0
M  V30 4134 N 380.972 -1.96903 6.73924 0
M  V30 4135 H 385.812 0.420968 2.95012 0
M  V30 4136 H 383.349 0.219443 1.45454 0
M  V30 4137 H 385.307 -1.94599 3.69036 0
M  V30 4138 H 383.937 -1.97981 2.54958 0
M  V30 4139 H 382.989 0.0902926 3.80293 0
M  V30 4140 H 384.301 -0.101058 4.98698 0
M  V30 4141 H 383.455 -2.38081 5.58034 0
M  V30 4142 H 382.194 -2.26187 4.32077 0
M  V30 4143 H 381.199 -0.276222 5.49106 0
M  V30 4144 H 382.424 -0.415767 6.77826 0
M  V30 4145 H 380.37 -2.53803 6.04913 0
M  V30 4146 H 380.287 -1.47423 7.41487 0
M  V30 4147 H 381.555 -2.66015 7.32705 0
M  V30 4148 N 385.784 -1.5574 0.241426 0
M  V30 4149 C 387.012 -2.03208 -0.389134 0
M  V30 4150 C 387.427 -1.12082 -1.51931 0
M  V30 4151 O 386.784 -0.134183 -1.82006 0
M  V30 4152 C 386.835 -3.50064 -0.902087 0
M  V30 4153 O 386.556 -4.37717 0.18305 0
M  V30 4154 C 388.057 -4.13268 -1.60389 0
M  V30 4155 H 385.277 -0.664509 -0.0931053 0
M  V30 4156 H 387.821 -2.0124 0.36369 0
M  V30 4157 H 385.976 -3.52583 -1.60511 0
M  V30 4158 H 386.39 -5.24097 -0.205579 0
M  V30 4159 H 387.864 -5.17733 -1.91458 0
M  V30 4160 H 388.341 -3.59434 -2.52397 0
M  V30 4161 H 388.947 -4.14655 -0.945576 0
M  V30 4162 N 387.262 0.0317525 -1.57568 0
M  V30 4163 C 388.51 0.721676 -1.88776 0
M  V30 4164 C 388.831 1.76039 -0.838772 0
M  V30 4165 O 388.101 1.95482 0.127935 0
M  V30 4166 H 386.681 0.269534 -0.696678 0
M  V30 4167 H 389.343 -0.00165879 -1.949 0
M  V30 4168 H 388.439 1.21293 -2.87566 0
M  V30 4169 N 388.74 1.54641 0.303973 0
M  V30 4170 C 389.988 1.73437 1.0375 0
M  V30 4171 C 390.309 0.521449 1.87899 0
M  V30 4172 O 389.579 -0.46432 1.90318 0
M  V30 4173 H 388.159 0.639518 0.386039 0
M  V30 4174 H 390.821 1.91988 0.335675 0
M  V30 4175 H 389.917 2.62235 1.69231 0
M  V30 4176 N 390.218 -0.567019 1.47046 0
M  V30 4177 C 391.448 -1.34831 1.56538 0
M  V30 4178 C 391.856 -1.8802 0.21101 0
M  V30 4179 O 391.199 -1.65152 -0.804387 0
M  V30 4180 C 391.261 -2.56139 2.52256 0
M  V30 4181 C 390.925 -2.24307 3.98165 0
M  V30 4182 C 391.922 -1.82192 4.86931 0
M  V30 4183 C 389.607 -2.35968 4.43423 0
M  V30 4184 C 391.601 -1.52153 6.18973 0
M  V30 4185 C 389.288 -2.05542 5.75496 0
M  V30 4186 C 390.286 -1.63701 6.63092 0
M  V30 4187 O 389.974 -1.33657 7.92711 0
M  V30 4188 H 389.706 -0.417683 0.531523 0
M  V30 4189 H 392.26 -0.694726 1.93294 0
M  V30 4190 H 390.49 -3.24356 2.10548 0
M  V30 4191 H 392.179 -3.18214 2.51982 0
M  V30 4192 H 392.945 -1.72684 4.53217 0
M  V30 4193 H 388.824 -2.67495 3.75456 0
M  V30 4194 H 392.368 -1.19421 6.87302 0
M  V30 4195 H 388.265 -2.14679 6.08755 0
M  V30 4196 H 389.033 -1.4737 8.05124 0
M  V30 4197 N 391.696 -1.35014 -0.812953 0
M  V30 4198 C 392.626 -1.30069 -1.93919 0
M  V30 4199 C 393.607 -0.176275 -1.69184 0
M  V30 4200 O 394.792 -0.370227 -1.90638 0
M  V30 4201 C 391.922 -1.06547 -3.30552 0
M  V30 4202 C 390.876 -2.15561 -3.69753 0
M  V30 4203 C 390.202 -1.77214 -5.04479 0
M  V30 4204 C 391.502 -3.57476 -3.808 0
M  V30 4205 H 393.196 -2.24303 -1.98314 0
M  V30 4206 H 390.742 -1.07977 -0.952736 0
M  V30 4207 H 392.695 -1.01729 -4.08937 0
M  V30 4208 H 391.419 -0.0875719 -3.26483 0
M  V30 4209 H 390.078 -2.19466 -2.9365 0
M  V30 4210 H 389.726 -0.780589 -4.96906 0
M  V30 4211 H 389.426 -2.50184 -5.31678 0
M  V30 4212 H 390.95 -1.7391 -5.8531 0
M  V30 4213 H 392.364 -3.55929 -4.4943 0
M  V30 4214 H 390.761 -4.29152 -4.19462 0
M  V30 4215 H 391.831 -3.94091 -2.82525 0
M  V30 4216 N 393.175 1.03435 -1.18907 0
M  V30 4217 C 394.421 1.77005 -0.989798 0
M  V30 4218 C 394.754 1.88205 0.478816 0
M  V30 4219 O 394.029 1.39481 1.35556 0
M  V30 4220 C 394.312 3.19925 -1.65287 0
M  V30 4221 C 394.165 3.1663 -3.19477 0
M  V30 4222 C 395.484 4.18189 -1.37134 0
M  V30 4223 H 392.603 0.642538 -0.360991 0
M  V30 4224 H 395.245 1.20784 -1.46667 0
M  V30 4225 H 393.395 3.67929 -1.24741 0
M  V30 4226 H 395.067 2.76567 -3.692 0
M  V30 4227 H 393.31 2.54491 -3.51307 0
M  V30 4228 H 393.981 4.1758 -3.61013 0
M  V30 4229 H 396.457 3.78761 -1.72276 0
M  V30 4230 H 395.333 5.16394 -1.86087 0
M  V30 4231 H 395.594 4.41112 -0.295424 0
M  V30 4232 N 394.653 0.992116 1.22453 0
M  V30 4233 C 395.601 0.534644 2.26372 0
M  V30 4234 C 396.595 -0.414293 1.64256 0
M  V30 4235 O 397.801 -0.286899 1.77699 0
M  V30 4236 H 394.176 0.154502 0.735957 0
M  V30 4237 H 396.147 1.42256 2.62309 0
M  V30 4238 C 394.896 -0.135815 3.47435 0
M  V30 4239 H 394.219 0.585311 3.95492 0
M  V30 4240 H 395.659 -0.419374 4.21921 0
M  V30 4241 C 394.118 -1.37089 3.07747 0
M  V30 4242 O 394.648 -2.46629 3.17076 0
M  V30 4243 N 392.854 -1.24585 2.62539 0
M  V30 4244 H 392.401 -0.354542 2.55149 0
M  V30 4245 H 392.359 -2.07327 2.36353 0
M  V30 4246 N 396.131 -1.37776 0.765217 0
M  V30 4247 C 397.379 -1.99454 0.325943 0
M  V30 4248 C 397.7 -1.61049 -1.09947 0
M  V30 4249 O 396.97 -0.872821 -1.75381 0
M  V30 4250 H 395.55 -0.737697 0.117525 0
M  V30 4251 H 398.212 -1.68359 0.981895 0
M  V30 4252 H 397.308 -3.09547 0.398353 0
M  V30 4253 N 397.609 -0.515225 -1.4894 0
M  V30 4254 C 398.556 0.255567 -2.29381 0
M  V30 4255 C 399.526 0.947387 -1.36432 0
M  V30 4256 O 400.711 0.951288 -1.65394 0
M  V30 4257 C 397.851 1.30551 -3.19453 0
M  V30 4258 C 396.964 0.624029 -4.27469 0
M  V30 4259 C 396.099 1.65563 -5.0474 0
M  V30 4260 C 395.138 0.956802 -6.04576 0
M  V30 4261 N 394.275 1.93326 -6.74959 0
M  V30 4262 H 399.115 -0.436607 -2.94784 0
M  V30 4263 H 396.652 -0.227154 -1.45336 0
M  V30 4264 H 398.61 1.92639 -3.70062 0
M  V30 4265 H 397.24 1.96626 -2.56004 0
M  V30 4266 H 396.292 -0.110459 -3.8024 0
M  V30 4267 H 397.604 0.0746092 -4.98744 0
M  V30 4268 H 396.758 2.35119 -5.59289 0
M  V30 4269 H 395.497 2.23893 -4.3327 0
M  V30 4270 H 394.502 0.247097 -5.49244 0
M  V30 4271 H 395.727 0.379814 -6.78037 0
M  V30 4272 H 393.673 2.50591 -6.06251 0
M  V30 4273 H 393.59 1.43489 -7.42258 0
M  V30 4274 H 394.858 2.62126 -7.34105 0
M  V30 4275 N 399.087 1.5561 -0.249682 0
M  V30 4276 C 400.315 2.03411 0.378352 0
M  V30 4277 C 400.73 1.12886 1.51335 0
M  V30 4278 O 400.087 0.143833 1.81932 0
M  V30 4279 C 400.138 3.50537 0.88351 0
M  V30 4280 O 399.859 4.37614 -0.20626 0
M  V30 4281 C 401.36 4.14113 1.58195 0
M  V30 4282 H 398.58 0.664994 0.08958 0
M  V30 4283 H 401.124 2.01044 -0.374357 0
M  V30 4284 H 399.279 3.5343 1.58639 0
M  V30 4285 H 399.693 5.24199 0.177782 0
M  V30 4286 H 401.167 5.18741 1.8871 0
M  V30 4287 H 401.644 3.60767 2.50487 0
M  V30 4288 H 402.25 4.15151 0.923573 0
M  V30 4289 N 400.565 -0.0233959 1.57583 0
M  V30 4290 C 401.981 -0.379134 1.55031 0
M  V30 4291 C 402.181 -1.76255 0.976548 0
M  V30 4292 O 401.237 -2.45266 0.600078 0
M  V30 4293 C 402.55 -0.275792 2.99433 0
M  V30 4294 C 404.098 -0.352458 3.11009 0
M  V30 4295 C 404.573 -0.278501 4.57152 0
M  V30 4296 N 406.064 -0.337123 4.61972 0
M  V30 4297 C 406.799 -0.302876 5.726 0
M  V30 4298 N 406.295 -0.220589 6.92449 0
M  V30 4299 N 408.088 -0.353023 5.6099 0
M  V30 4300 H 400.239 0.881869 1.93227 0
M  V30 4301 H 402.502 0.335867 0.886509 0
M  V30 4302 H 402.208 0.675108 3.4516 0
M  V30 4303 H 402.082 -1.06721 3.61788 0
M  V30 4304 H 404.469 -1.29379 2.65226 0
M  V30 4305 H 404.55 0.468409 2.51475 0
M  V30 4306 H 404.194 0.659189 5.03604 0
M  V30 4307 H 404.124 -1.11755 5.14605 0
M  V30 4308 H 406.615 -0.403002 3.75745 0
M  V30 4309 H 406.928 -0.199713 7.72542 0
M  V30 4310 H 405.273 -0.186555 6.9475 0
M  V30 4311 H 408.464 -0.415339 4.66254 0
M  V30 4312 H 408.637 -0.322866 6.47195 0
M  V30 4313 N 402.043 -1.548 -0.295768 0
M  V30 4314 C 402.99 -1.86113 -1.36494 0
M  V30 4315 C 403.96 -0.7105 -1.50137 0
M  V30 4316 O 405.145 -0.959626 -1.64912 0
M  V30 4317 C 402.285 -2.11861 -2.72413 0
M  V30 4318 C 401.398 -3.39471 -2.67177 0
M  V30 4319 C 400.533 -3.55035 -3.95125 0
M  V30 4320 C 399.572 -4.76418 -3.84308 0
M  V30 4321 N 398.709 -4.8876 -5.04042 0
M  V30 4322 H 403.549 -2.77314 -1.09091 0
M  V30 4323 H 401.086 -1.37315 -0.52753 0
M  V30 4324 H 403.044 -2.24786 -3.51464 0
M  V30 4325 H 401.674 -1.2392 -2.98066 0
M  V30 4326 H 400.726 -3.35139 -1.79962 0
M  V30 4327 H 402.038 -4.28646 -2.55076 0
M  V30 4328 H 401.192 -3.67653 -4.82614 0
M  V30 4329 H 399.931 -2.64002 -4.10066 0
M  V30 4330 H 398.936 -4.63827 -2.95202 0
M  V30 4331 H 400.161 -5.68863 -3.70906 0
M  V30 4332 H 398.107 -4.00652 -5.19436 0
M  V30 4333 H 398.024 -5.71945 -4.94384 0
M  V30 4334 H 399.292 -5.0574 -5.93167 0
M  V30 4335 N 403.521 0.559213 -1.47345 0
M  V30 4336 C 404.451 1.67622 -1.62558 0
M  V30 4337 C 405.432 1.63331 -0.475087 0
M  V30 4338 O 406.617 1.80983 -0.704182 0
M  V30 4339 C 403.747 3.0626 -1.63774 0
M  V30 4340 C 402.701 3.25397 -2.7803 0
M  V30 4341 C 402.027 4.64801 -2.64318 0
M  V30 4342 C 403.327 3.10965 -4.19641 0
M  V30 4343 H 405.021 1.55146 -2.56067 0
M  V30 4344 H 402.567 0.744961 -1.23233 0
M  V30 4345 H 404.52 3.84247 -1.73008 0
M  V30 4346 H 403.244 3.1969 -0.66825 0
M  V30 4347 H 401.903 2.49817 -2.68304 0
M  V30 4348 H 401.551 4.75028 -1.65401 0
M  V30 4349 H 401.251 4.78555 -3.40968 0
M  V30 4350 H 402.775 5.44926 -2.75478 0
M  V30 4351 H 404.189 3.78772 -4.30354 0
M  V30 4352 H 402.586 3.36229 -4.97062 0
M  V30 4353 H 403.656 2.07736 -4.38148 0
M  V30 4354 N 404.999 1.35443 0.805782 0
M  V30 4355 C 405.949 1.24972 1.90699 0
M  V30 4356 C 406.933 0.144806 1.60247 0
M  V30 4357 O 408.125 0.376102 1.72958 0
M  V30 4358 C 405.254 1.02475 3.27649 0
M  V30 4359 C 404.34 2.17361 3.64164 0
M  V30 4360 N 404.731 3.42591 3.72109 0
M  V30 4361 C 403.029 2.08765 3.94123 0
M  V30 4362 C 403.73 4.18144 4.04389 0
M  V30 4363 N 402.706 3.4691 4.18515 0
M  V30 4364 H 406.508 2.19852 1.95044 0
M  V30 4365 H 404.022 1.27928 1.00041 0
M  V30 4366 H 406.019 0.930617 4.06381 0
M  V30 4367 H 404.679 0.0848009 3.24589 0
M  V30 4368 H 405.69 3.76932 3.55166 0
M  V30 4369 H 402.367 1.22629 3.99084 0
M  V30 4370 H 403.757 5.26367 4.17597 0
M  V30 4371 N 406.477 -1.02803 1.19454 0
M  V30 4372 C 407.888 -1.57667 0.999899 0
M  V30 4373 C 408.239 -1.91041 -0.446956 0
M  V30 4374 O 407.364 -1.70978 -1.32648 0
M  V30 4375 C 407.959 -2.86477 1.80877 0
M  V30 4376 C 406.518 -3.37911 1.65811 0
M  V30 4377 C 405.665 -2.11343 1.79526 0
M  V30 4378 H 408.616 -0.853214 1.33813 0
M  V30 4379 H 408.637 -3.57408 1.30536 0
M  V30 4380 H 408.149 -2.62155 2.86175 0
M  V30 4381 H 406.25 -3.67218 0.63102 0
M  V30 4382 H 406.363 -4.10885 2.46395 0
M  V30 4383 H 404.727 -2.23254 1.22596 0
M  V30 4384 H 405.51 -1.89461 2.86285 0
M  V30 4385 N 407.956 -0.998596 -1.21925 0
M  V30 4386 C 409.372 -0.710303 -1.42923 0
M  V30 4387 C 409.572 0.716933 -1.88314 0
M  V30 4388 O 408.628 1.48712 -2.04062 0
M  V30 4389 C 409.941 -1.72072 -2.466 0
M  V30 4390 C 411.489 -1.73681 -2.60392 0
M  V30 4391 C 411.964 -2.73601 -3.67296 0
M  V30 4392 N 413.455 -2.7223 -3.7476 0
M  V30 4393 C 414.19 -3.46206 -4.57087 0
M  V30 4394 N 413.686 -4.29802 -5.43362 0
M  V30 4395 N 415.479 -3.34886 -4.51451 0
M  V30 4396 H 407.63 -1.92028 -0.9077 0
M  V30 4397 H 409.893 -0.828487 -0.460775 0
M  V30 4398 H 409.599 -2.74231 -2.20206 0
M  V30 4399 H 409.473 -1.51818 -3.45299 0
M  V30 4400 H 411.86 -0.722173 -2.86127 0
M  V30 4401 H 411.941 -1.98005 -1.61949 0
M  V30 4402 H 411.585 -3.75217 -3.42307 0
M  V30 4403 H 411.515 -2.46545 -4.65321 0
M  V30 4404 H 414.006 -2.11576 -3.1312 0
M  V30 4405 H 414.319 -4.83061 -6.03218 0
M  V30 4406 H 412.664 -4.33887 -5.42925 0
M  V30 4407 H 415.855 -2.69015 -3.83078 0
M  V30 4408 H 416.028 -3.92796 -5.15379 0
M  V30 4409 N 409.434 1.37368 -0.772513 0
M  V30 4410 C 410.344 2.34053 -0.160081 0
M  V30 4411 C 411.36 1.60216 0.678728 0
M  V30 4412 O 412.536 1.92303 0.59847 0
M  V30 4413 C 409.601 3.3939 0.708182 0
M  V30 4414 C 408.662 4.29048 -0.147172 0
M  V30 4415 C 407.895 5.29354 0.679744 0
M  V30 4416 O 408.118 5.3723 1.91678 0
M  V30 4417 O 407.052 6.01835 0.0885444 0
M  V30 4418 H 410.878 2.88159 -0.959053 0
M  V30 4419 H 408.463 1.39543 -0.533685 0
M  V30 4420 H 410.345 4.03839 1.20384 0
M  V30 4421 H 409.02 2.8761 1.48533 0
M  V30 4422 H 407.927 3.67697 -0.689205 0
M  V30 4423 H 409.26 4.84134 -0.887423 0
M  V30 4424 N 410.912 0.523116 1.48665 0
M  V30 4425 C 412.152 -0.0115588 2.04397 0
M  V30 4426 C 412.516 -1.32225 1.39214 0
M  V30 4427 O 413.717 -1.94253 1.85793 0
M  V30 4428 C 411.988 -0.138119 3.57133 0
M  V30 4429 S 413.547 -0.623849 4.34343 0
M  V30 4430 H 410.365 0.00877706 0.710946 0
M  V30 4431 H 412.967 0.702116 1.82457 0
M  V30 4432 H 411.671 0.820748 4.02109 0
M  V30 4433 H 411.202 -0.876377 3.83514 0
M  V30 4434 H 413.217 -1.8895 4.58816 0
M  V30 4435 N 412.39 -1.55475 0.257931 0
M  V30 4436 C 413.353 -2.20551 -0.623706 0
M  V30 4437 C 414.353 -1.17809 -1.09443 0
M  V30 4438 O 415.543 -1.42823 -0.997362 0
M  V30 4439 C 412.675 -2.85784 -1.8585 0
M  V30 4440 H 413.868 -2.99848 -0.0557743 0
M  V30 4441 H 411.421 -1.56298 0.0084422 0
M  V30 4442 H 412.156 -2.10453 -2.46739 0
M  V30 4443 H 411.941 -3.61057 -1.52907 0
M  V30 4444 H 413.431 -3.35553 -2.48584 0
M  V30 4445 N 413.868 0.0150385 -1.57593 0
M  V30 4446 C 415.284 0.370907 -1.5523 0
M  V30 4447 C 415.484 1.75735 -0.985882 0
M  V30 4448 O 414.54 2.44944 -0.613077 0
M  V30 4449 C 415.853 0.259908 -2.99575 0
M  V30 4450 C 417.401 0.335959 -3.11192 0
M  V30 4451 C 417.876 0.254253 -4.57294 0
M  V30 4452 N 419.367 0.312618 -4.62144 0
M  V30 4453 C 420.102 0.272505 -5.72752 0
M  V30 4454 N 419.598 0.183864 -6.92556 0
M  V30 4455 N 421.391 0.323267 -5.6117 0
M  V30 4456 H 413.542 -0.892104 -1.92757 0
M  V30 4457 H 415.805 -0.340563 -0.884715 0
M  V30 4458 H 415.511 -0.693403 -3.44797 0
M  V30 4459 H 415.385 1.048 -3.62349 0
M  V30 4460 H 417.772 1.27971 -2.65909 0
M  V30 4461 H 417.853 -0.481739 -2.51223 0
M  V30 4462 H 417.497 -0.685887 -5.03247 0
M  V30 4463 H 417.427 1.09024 -5.15191 0
M  V30 4464 H 419.918 0.38307 -3.75953 0
M  V30 4465 H 420.231 0.15874 -7.72637 0
M  V30 4466 H 418.576 0.149708 -6.94839 0
M  V30 4467 H 421.767 0.390607 -4.66467 0
M  V30 4468 H 421.94 0.288539 -6.47357 0
M  V30 4469 N 415.346 1.54954 0.287554 0
M  V30 4470 C 416.592 1.75132 1.02257 0
M  V30 4471 C 416.925 0.542858 1.86458 0
M  V30 4472 O 416.2 -0.459856 1.88986 0
M  V30 4473 C 416.483 3.04812 1.91733 0
M  V30 4474 C 416.336 4.35985 1.10622 0
M  V30 4475 C 417.655 3.30438 2.90687 0
M  V30 4476 H 414.774 0.637194 0.370341 0
M  V30 4477 H 417.416 1.87678 0.296111 0
M  V30 4478 H 415.566 2.94247 2.53675 0
M  V30 4479 H 417.238 4.58487 0.508636 0
M  V30 4480 H 415.481 4.31865 0.409271 0
M  V30 4481 H 416.152 5.23017 1.76513 0
M  V30 4482 H 418.628 3.40701 2.38877 0
M  V30 4483 H 417.504 4.22467 3.50447 0
M  V30 4484 H 417.765 2.49377 3.65053 0
M  V30 4485 N 416.824 -0.551391 1.4764 0
M  V30 4486 C 417.757 -1.6738 1.5511 0
M  V30 4487 C 418.735 -1.5753 0.402856 0
M  V30 4488 O 419.919 -1.78307 0.611475 0
M  V30 4489 C 417.046 -3.05661 1.45908 0
M  V30 4490 C 416.092 -3.33938 2.65307 0
M  V30 4491 S 416.925 -3.22553 4.27457 0
M  V30 4492 C 418.081 -4.63317 4.20818 0
M  V30 4493 H 418.314 -1.6079 2.50068 0
M  V30 4494 H 415.847 -0.732674 1.35909 0
M  V30 4495 H 417.805 -3.8542 1.41286 0
M  V30 4496 H 416.466 -3.09711 0.523248 0
M  V30 4497 H 415.659 -4.34761 2.54948 0
M  V30 4498 H 415.261 -2.61809 2.67081 0
M  V30 4499 H 417.553 -5.54391 3.89431 0
M  V30 4500 H 418.496 -4.78732 5.21748 0
M  V30 4501 H 418.904 -4.41636 3.51593 0
M  V30 4502 N 418.302 -1.35869 -0.798587 0
M  V30 4503 C 419.55 -1.29332 -1.55298 0
M  V30 4504 C 419.871 0.129729 -1.94568 0
M  V30 4505 O 419.141 1.06796 -1.6423 0
M  V30 4506 H 417.721 -0.475737 -0.57592 0
M  V30 4507 H 420.383 -1.70062 -0.952093 0
M  V30 4508 H 419.479 -1.91458 -2.46476 0
M  V30 4509 N 419.78 1.02168 -1.19998 0
M  V30 4510 C 421.01 1.79036 -1.031 0
M  V30 4511 C 421.418 1.84409 0.423078 0
M  V30 4512 O 420.761 1.29228 1.30559 0
M  V30 4513 C 420.823 3.25185 -1.53281 0
M  V30 4514 C 420.487 3.43431 -3.01503 0
M  V30 4515 C 421.484 3.33063 -3.99206 0
M  V30 4516 C 419.169 3.69412 -3.40353 0
M  V30 4517 C 421.163 3.48413 -5.33748 0
M  V30 4518 C 418.85 3.84406 -4.75053 0
M  V30 4519 C 419.848 3.7391 -5.71559 0
M  V30 4520 O 419.536 3.88452 -7.03818 0
M  V30 4521 H 419.268 0.570043 -0.363355 0
M  V30 4522 H 421.822 1.29524 -1.59414 0
M  V30 4523 H 420.052 3.75756 -0.913483 0
M  V30 4524 H 421.741 3.83671 -1.32481 0
M  V30 4525 H 422.507 3.12934 -3.70537 0
M  V30 4526 H 418.386 3.76671 -2.65782 0
M  V30 4527 H 421.93 3.40137 -6.09059 0
M  V30 4528 H 417.827 4.04035 -5.03415 0
M  V30 4529 H 418.595 4.055 -7.10993 0
M  V30 4530 N 421.258 1.00505 1.21394 0
M  V30 4531 C 422.669 0.721082 1.72213 0
M  V30 4532 C 423.02 -0.761263 1.80829 0
M  V30 4533 O 422.145 -1.59464 1.46288 0
M  V30 4534 C 422.74 1.30228 3.12772 0
M  V30 4535 C 421.299 1.06743 3.60947 0
M  V30 4536 C 420.446 1.41507 2.38477 0
M  V30 4537 H 423.397 1.17594 1.06571 0
M  V30 4538 H 423.418 0.686955 3.74247 0
M  V30 4539 H 422.93 2.38115 3.06468 0
M  V30 4540 H 421.031 0.00572162 3.726 0
M  V30 4541 H 421.144 1.73936 4.46411 0
M  V30 4542 H 419.508 0.833852 2.40664 0
M  V30 4543 H 420.291 2.50424 2.34824 0
M  V30 4544 N 422.737 -1.36956 0.779787 0
M  V30 4545 C 424.014 -1.93697 0.272156 0
M  V30 4546 C 424.394 -1.71267 -1.23413 0
M  V30 4547 O 423.742 -1.06607 -2.02107 0
M  V30 4548 C 423.952 -3.42812 0.654291 0
M  V30 4549 C 425.3 -4.19921 0.628602 0
M  V30 4550 O 426.324 -3.51209 0.594172 0
M  V30 4551 O 425.183 -5.42465 0.662864 0
M  V30 4552 H 422.277 -0.824447 0.0649286 0
M  V30 4553 H 424.823 -1.46196 0.861682 0
M  V30 4554 H 423.595 -3.52754 1.69353 0
M  V30 4555 H 423.218 -3.97582 0.0381369 0
M  V30 4556 N 424.215 -0.530993 -1.48385 0
M  V30 4557 C 425.44 0.000729535 -2.074 0
M  V30 4558 C 425.865 1.27298 -1.3848 0
M  V30 4559 O 425.223 1.75599 -0.451081 0
M  V30 4560 C 425.271 0.206697 -3.60007 0
M  V30 4561 O 424.375 1.27514 -3.92191 0
M  V30 4562 H 423.716 -0.039583 -0.662819 0
M  V30 4563 H 426.246 -0.739194 -1.9078 0
M  V30 4564 H 426.256 0.42904 -4.05738 0
M  V30 4565 H 424.931 -0.722675 -4.09573 0
M  V30 4566 H 423.508 1.03537 -3.58238 0
M  V30 4567 N 425.693 1.55336 -0.266172 0
M  V30 4568 C 426.923 2.03506 0.356239 0
M  V30 4569 C 427.331 1.14426 1.50676 0
M  V30 4570 O 426.674 0.155043 1.83045 0
M  V30 4571 C 426.736 3.47848 0.90785 0
M  V30 4572 C 426.4 4.56861 -0.112888 0
M  V30 4573 C 427.397 5.11528 -0.929264 0
M  V30 4574 C 425.082 5.01704 -0.244546 0
M  V30 4575 C 427.076 6.09549 -1.86357 0
M  V30 4576 C 424.763 5.99553 -1.18234 0
M  V30 4577 C 425.761 6.53356 -1.99036 0
M  V30 4578 O 425.449 7.49293 -2.91231 0
M  V30 4579 H 425.181 0.670444 0.08649 0
M  V30 4580 H 427.735 2.01598 -0.39337 0
M  V30 4581 H 425.965 3.46967 1.70737 0
M  V30 4582 H 427.654 3.79407 1.44239 0
M  V30 4583 H 428.42 4.77701 -0.838237 0
M  V30 4584 H 424.299 4.59477 0.374359 0
M  V30 4585 H 427.843 6.51469 -2.49467 0
M  V30 4586 H 423.74 6.32799 -1.27421 0
M  V30 4587 H 424.508 7.66978 -2.8581 0
M  V30 4588 N 427.171 -0.0066808 1.57599 0
M  V30 4589 C 428.118 -1.00024 2.08 0
M  V30 4590 C 429.088 -1.34549 0.973943 0
M  V30 4591 O 430.273 -1.44502 1.24595 0
M  V30 4592 C 427.413 -2.2891 2.58252 0
M  V30 4593 C 426.526 -2.00346 3.82734 0
M  V30 4594 C 425.661 -3.23265 4.21513 0
M  V30 4595 C 424.7 -2.90357 5.3885 0
M  V30 4596 N 423.837 -4.05793 5.72954 0
M  V30 4597 H 428.677 -0.563499 2.92624 0
M  V30 4598 H 426.214 -0.266592 1.44664 0
M  V30 4599 H 428.172 -3.04247 2.85464 0
M  V30 4600 H 426.802 -2.70265 1.76512 0
M  V30 4601 H 425.854 -1.15406 3.62471 0
M  V30 4602 H 427.166 -1.72086 4.68175 0
M  V30 4603 H 426.32 -4.06953 4.49971 0
M  V30 4604 H 425.059 -3.54657 3.34768 0
M  V30 4605 H 424.064 -2.05075 5.10122 0
M  V30 4606 H 425.289 -2.60219 6.27266 0
M  V30 4607 H 423.235 -4.37094 4.89167 0
M  V30 4608 H 423.152 -3.81034 6.52954 0
M  V30 4609 H 424.42 -4.90289 6.06001 0
M  V30 4610 N 428.649 -1.55105 -0.279332 0
M  V30 4611 C 429.895 -1.75672 -1.01327 0
M  V30 4612 C 430.228 -0.552739 -1.86168 0
M  V30 4613 O 429.503 0.449827 -1.89227 0
M  V30 4614 C 429.786 -3.05825 -1.90114 0
M  V30 4615 C 429.639 -4.36565 -1.08309 0
M  V30 4616 C 430.958 -3.31975 -2.8893 0
M  V30 4617 H 428.077 -0.639149 -0.366957 0
M  V30 4618 H 430.719 -1.87833 -0.286154 0
M  V30 4619 H 428.869 -2.95588 -2.52111 0
M  V30 4620 H 430.541 -4.58751 -0.484314 0
M  V30 4621 H 428.784 -4.32076 -0.386362 0
M  V30 4622 H 429.455 -5.23946 -1.73737 0
M  V30 4623 H 431.931 -3.41963 -2.37067 0
M  V30 4624 H 430.807 -4.2432 -3.48201 0
M  V30 4625 H 431.068 -2.51309 -3.63725 0
M  V30 4626 N 430.127 0.543554 -1.4793 0
M  V30 4627 C 431.077 1.64527 -1.57844 0
M  V30 4628 C 432.061 1.54869 -0.436408 0
M  V30 4629 O 433.253 1.63119 -0.687101 0
M  V30 4630 C 430.382 3.03281 -1.6086 0
M  V30 4631 C 429.468 3.18093 -2.80495 0
M  V30 4632 N 429.859 3.02923 -4.05057 0
M  V30 4633 C 428.157 3.49121 -2.77543 0
M  V30 4634 C 428.858 3.20791 -4.85251 0
M  V30 4635 N 427.834 3.47749 -4.17818 0
M  V30 4636 H 431.636 1.51388 -2.5191 0
M  V30 4637 H 429.15 0.748671 -1.44113 0
M  V30 4638 H 431.147 3.82403 -1.66054 0
M  V30 4639 H 429.807 3.17521 -0.678996 0
M  V30 4640 H 430.818 2.79966 -4.35705 0
M  V30 4641 H 427.495 3.69804 -1.93781 0
M  V30 4642 H 428.885 3.13915 -5.9406 0
M  V30 4643 N 431.605 1.3629 0.791371 0
M  V30 4644 C 433.016 1.27225 1.36641 0
M  V30 4645 C 433.367 -0.0887968 1.95999 0
M  V30 4646 O 432.492 -0.990207 1.92416 0
M  V30 4647 C 433.087 2.30375 2.48421 0
M  V30 4648 C 431.646 2.25004 3.01746 0
M  V30 4649 C 430.793 2.15259 1.7481 0
M  V30 4650 H 433.744 1.47198 0.593173 0
M  V30 4651 H 433.765 1.93905 3.27385 0
M  V30 4652 H 433.277 3.29422 2.05189 0
M  V30 4653 H 431.378 1.29417 3.49403 0
M  V30 4654 H 431.491 3.1761 3.58693 0
M  V30 4655 H 429.855 1.61482 1.96966 0
M  V30 4656 H 430.638 3.16191 1.33709 0
M  V30 4657 N 433.083 -1.0153 1.20538 0
M  V30 4658 C 434.308 -1.79283 1.04271 0
M  V30 4659 C 434.733 -1.8372 -0.403544 0
M  V30 4660 O 434.091 -1.27321 -1.2907 0
M  V30 4661 C 434.139 -3.21535 1.63241 0
M  V30 4662 O 433.243 -4.03099 0.870908 0
M  V30 4663 H 432.584 -0.55293 0.367647 0
M  V30 4664 H 435.114 -1.27696 1.59859 0
M  V30 4665 H 435.124 -3.72243 1.6703 0
M  V30 4666 H 433.799 -3.1762 2.68497 0
M  V30 4667 H 432.376 -3.61693 0.907323 0
M  V30 4668 N 434.561 -1.01147 -1.20859 0
M  V30 4669 C 435.789 -0.716911 -1.94082 0
M  V30 4670 C 436.204 0.721568 -1.74467 0
M  V30 4671 O 435.561 1.48889 -1.05539 0
M  V30 4672 C 435.612 -1.03662 -3.46318 0
M  V30 4673 O 435.333 -2.4186 -3.65288 0
M  V30 4674 C 436.834 -0.762386 -4.36695 0
M  V30 4675 H 434.054 -0.26367 -0.617024 0
M  V30 4676 H 436.598 -1.35127 -1.53496 0
M  V30 4677 H 434.753 -0.447757 -3.84804 0
M  V30 4678 H 435.167 -2.53224 -4.59323 0
M  V30 4679 H 436.641 -1.03621 -5.42187 0
M  V30 4680 H 437.118 0.303514 -4.3815 0
M  V30 4681 H 437.724 -1.33316 -4.03865 0
M  V30 4682 N 436.039 1.36541 -0.78704 0
M  V30 4683 C 437.264 2.0409 -0.369053 0
M  V30 4684 C 437.689 1.58957 1.00569 0
M  V30 4685 O 437.047 0.756926 1.64743 0
M  V30 4686 C 437.095 3.57924 -0.438466 0
M  V30 4687 O 436.199 4.08642 0.555479 0
M  V30 4688 H 435.54 0.645142 -0.157122 0
M  V30 4689 H 438.07 1.74545 -1.06749 0
M  V30 4690 H 438.08 4.06887 -0.301218 0
M  V30 4691 H 436.755 3.90127 -1.44132 0
M  V30 4692 H 435.332 3.70958 0.380088 0
M  V30 4693 N 437.518 0.538854 1.48102 0
M  V30 4694 C 438.45 -0.256278 2.27763 0
M  V30 4695 C 439.463 -0.89633 1.35904 0
M  V30 4696 O 440.652 -0.773275 1.60881 0
M  V30 4697 C 437.752 -1.37896 3.09577 0
M  V30 4698 C 436.925 -0.839159 4.29275 0
M  V30 4699 C 435.984 -1.84405 4.9283 0
M  V30 4700 O 435.01 -1.39746 5.51779 0
M  V30 4701 N 436.212 -3.17666 4.85869 0
M  V30 4702 H 438.977 0.426968 2.96643 0
M  V30 4703 H 436.538 0.373747 1.57527 0
M  V30 4704 H 438.53 -2.04955 3.48963 0
M  V30 4705 H 437.1 -1.96572 2.4306 0
M  V30 4706 H 436.32 0.00769287 3.94199 0
M  V30 4707 H 437.608 -0.457548 5.06739 0
M  V30 4708 H 437.006 -3.56609 4.39143 0
M  V30 4709 H 435.563 -3.80334 5.29329 0
M  V30 4710 N 438.996 -1.55193 0.274407 0
M  V30 4711 C 439.959 -2.212 -0.600279 0
M  V30 4712 C 440.959 -1.18963 -1.08187 0
M  V30 4713 O 442.149 -1.43873 -0.982158 0
M  V30 4714 C 439.281 -2.87739 -1.82809 0
M  V30 4715 H 440.474 -2.9989 -0.0239682 0
M  V30 4716 H 438.027 -1.5628 0.0250192 0
M  V30 4717 H 438.762 -2.13058 -2.44493 0
M  V30 4718 H 438.547 -3.62658 -1.49069 0
M  V30 4719 H 440.037 -3.38171 -2.45011 0
M  V30 4720 N 440.474 -0.00167713 -1.576 0
M  V30 4721 C 441.704 0.692754 -1.94639 0
M  V30 4722 C 442.112 1.67744 -0.87513 0
M  V30 4723 O 441.455 1.8305 0.154382 0
M  V30 4724 C 441.517 1.47881 -3.27676 0
M  V30 4725 C 441.181 0.655518 -4.52274 0
M  V30 4726 C 442.178 -0.0575214 -5.19868 0
M  V30 4727 C 439.863 0.600994 -4.98692 0
M  V30 4728 C 441.857 -0.814052 -6.3218 0
M  V30 4729 C 439.544 -0.15926 -6.10892 0
M  V30 4730 C 440.542 -0.865515 -6.77494 0
M  V30 4731 O 440.23 -1.61336 -7.87544 0
M  V30 4732 H 439.962 0.197792 -0.646417 0
M  V30 4733 H 442.516 -0.049423 -2.05341 0
M  V30 4734 H 440.746 2.2655 -3.13388 0
M  V30 4735 H 442.435 2.05874 -3.49816 0
M  V30 4736 H 443.201 -0.0245611 -4.84994 0
M  V30 4737 H 439.08 1.14025 -4.46676 0
M  V30 4738 H 442.624 -1.36584 -6.84098 0
M  V30 4739 H 438.521 -0.194035 -6.45208 0
M  V30 4740 H 439.289 -1.53025 -8.04068 0
M  V30 4741 N 441.952 1.55251 0.271103 0
M  V30 4742 C 442.899 1.88261 1.33516 0
M  V30 4743 C 443.869 0.734296 1.48988 0
M  V30 4744 O 445.054 0.985741 1.63364 0
M  V30 4745 C 442.194 2.16168 2.69008 0
M  V30 4746 C 441.307 3.43678 2.61743 0
M  V30 4747 C 440.442 3.61276 3.89427 0
M  V30 4748 C 439.481 4.82472 3.7668 0
M  V30 4749 N 438.618 4.96717 4.96202 0
M  V30 4750 H 443.458 2.79015 1.04665 0
M  V30 4751 H 440.995 1.38137 0.505618 0
M  V30 4752 H 442.953 2.30349 3.47844 0
M  V30 4753 H 441.583 1.28646 2.96057 0
M  V30 4754 H 440.635 3.37959 1.74607 0
M  V30 4755 H 441.947 4.3265 2.48224 0
M  V30 4756 H 441.101 3.75284 4.76704 0
M  V30 4757 H 439.84 2.70492 4.05814 0
M  V30 4758 H 438.845 4.68465 2.87786 0
M  V30 4759 H 440.07 5.74692 3.61809 0
M  V30 4760 H 438.016 4.08865 5.12997 0
M  V30 4761 H 437.933 5.79738 4.85222 0
M  V30 4762 H 439.201 5.15113 5.85046 0
M  V30 4763 N 443.43 -0.535701 1.48216 0
M  V30 4764 C 444.362 -1.65662 1.58394 0
M  V30 4765 C 445.375 -1.5591 0.468607 0
M  V30 4766 O 446.564 -1.62475 0.7392 0
M  V30 4767 C 443.664 -3.04276 1.4923 0
M  V30 4768 C 442.837 -3.39567 2.75705 0
M  V30 4769 C 441.896 -4.57436 2.60075 0
M  V30 4770 O 440.922 -4.60942 3.33948 0
M  V30 4771 N 442.124 -5.55259 1.69315 0
M  V30 4772 H 444.889 -1.5737 2.55058 0
M  V30 4773 H 442.45 -0.722845 1.44867 0
M  V30 4774 H 444.442 -3.80994 1.36477 0
M  V30 4775 H 443.012 -3.06677 0.605632 0
M  V30 4776 H 442.232 -2.52083 3.03064 0
M  V30 4777 H 443.52 -3.59929 3.59623 0
M  V30 4778 H 442.918 -5.552 1.08489 0
M  V30 4779 H 441.475 -6.31218 1.62504 0
M  V30 4780 N 444.908 -1.36708 -0.784132 0
M  V30 4781 C 446.155 -1.31231 -1.54222 0
M  V30 4782 C 446.483 0.106864 -1.94206 0
M  V30 4783 O 445.738 1.07734 -1.63376 0
M  V30 4784 C 446.037 -2.18571 -2.82774 0
M  V30 4785 C 445.703 -3.67039 -2.61903 0
M  V30 4786 C 444.365 -4.07503 -2.55919 0
M  V30 4787 C 446.717 -4.61149 -2.4288 0
M  V30 4788 C 444.045 -5.40211 -2.28886 0
M  V30 4789 C 446.397 -5.94081 -2.17373 0
M  V30 4790 C 445.061 -6.33664 -2.09825 0
M  V30 4791 H 444.331 -0.48021 -0.56434 0
M  V30 4792 H 446.978 -1.68807 -0.904233 0
M  V30 4793 H 445.283 -1.73949 -3.51068 0
M  V30 4794 H 446.98 -2.11655 -3.40592 0
M  V30 4795 H 443.57 -3.34941 -2.67418 0
M  V30 4796 H 447.754 -4.30756 -2.46501 0
M  V30 4797 H 443.01 -5.69855 -2.21529 0
M  V30 4798 H 447.184 -6.66566 -2.01649 0
M  V30 4799 H 444.811 -7.36423 -1.88641 0
M  V30 4800 N 446.386 1.0089 -1.21074 0
M  V30 4801 C 447.634 1.74262 -1.02358 0
M  V30 4802 C 447.955 1.89869 0.444393 0
M  V30 4803 O 447.225 1.44677 1.32081 0
M  V30 4804 H 445.805 0.645615 -0.375754 0
M  V30 4805 H 448.467 1.21596 -1.52317 0
M  V30 4806 H 447.563 2.74328 -1.4883 0
M  V30 4807 N 447.864 1.01787 1.20321 0
M  V30 4808 C 448.812 0.58254 2.25187 0
M  V30 4809 C 449.806 -0.379359 1.65098 0
M  V30 4810 O 451.012 -0.249142 1.78267 0
M  V30 4811 H 447.387 0.170078 0.732514 0
M  V30 4812 H 449.358 1.47788 2.59232 0
M  V30 4813 C 448.107 -0.0620885 3.47645 0
M  V30 4814 H 447.43 0.669069 3.94162 0
M  V30 4815 H 448.87 -0.329784 4.22716 0
M  V30 4816 C 447.329 -1.3053 3.10586 0
M  V30 4817 O 447.859 -2.39848 3.22236 0
M  V30 4818 N 446.065 -1.18988 2.65123 0
M  V30 4819 H 445.612 -0.300341 2.55843 0
M  V30 4820 H 445.57 -2.02267 2.40698 0
M  V30 4821 N 449.342 -1.36122 0.79427 0
M  V30 4822 C 450.567 -2.03891 0.379871 0
M  V30 4823 C 450.992 -1.59488 -0.997251 0
M  V30 4824 O 450.35 -0.765652 -1.64339 0
M  V30 4825 C 450.398 -3.57687 0.457442 0
M  V30 4826 O 449.502 -4.08931 -0.5338 0
M  V30 4827 H 448.843 -0.6443 0.160541 0
M  V30 4828 H 451.373 -1.73976 1.07673 0
M  V30 4829 H 451.383 -4.06721 0.322792 0
M  V30 4830 H 450.058 -3.89357 1.46199 0
M  V30 4831 H 448.635 -3.71154 -0.360409 0
M  V30 4832 N 450.82 -0.546701 -1.47814 0
M  V30 4833 C 452.066 -0.0187684 -2.02791 0
M  V30 4834 C 452.399 1.32338 -1.42128 0
M  V30 4835 O 451.674 1.85867 -0.573023 0
M  V30 4836 C 451.957 0.0854985 -3.59998 0
M  V30 4837 C 451.81 -1.283 -4.31114 0
M  V30 4838 C 453.129 0.80412 -4.32691 0
M  V30 4839 H 450.248 -0.0082946 -0.736953 0
M  V30 4840 H 452.89 -0.706962 -1.76358 0
M  V30 4841 H 451.04 0.671609 -3.82651 0
M  V30 4842 H 452.712 -1.91151 -4.19832 0
M  V30 4843 H 450.955 -1.86049 -3.91878 0
M  V30 4844 H 451.626 -1.16287 -5.39612 0
M  V30 4845 H 454.102 0.306576 -4.14969 0
M  V30 4846 H 452.978 0.846011 -5.42341 0
M  V30 4847 H 453.239 1.85802 -4.01161 0
M  V30 4848 N 452.299 1.55045 -0.282633 0
M  V30 4849 C 453.545 2.00056 0.332481 0
M  V30 4850 C 453.878 1.1708 1.54939 0
M  V30 4851 O 453.153 0.2427 1.9298 0
M  V30 4852 C 453.436 3.53086 0.70725 0
M  V30 4853 C 453.289 4.46813 -0.517521 0
M  V30 4854 C 454.608 4.12245 1.54084 0
M  V30 4855 H 451.727 0.727268 0.119373 0
M  V30 4856 H 454.369 1.85932 -0.391076 0
M  V30 4857 H 452.519 3.65253 1.32372 0
M  V30 4858 H 454.191 4.46579 -1.15607 0
M  V30 4859 H 452.434 4.18163 -1.1542 0
M  V30 4860 H 453.105 5.51595 -0.211426 0
M  V30 4861 H 455.581 4.03401 1.02013 0
M  V30 4862 H 454.457 5.19515 1.77186 0
M  V30 4863 H 454.718 3.62951 2.52427 0
M  V30 4864 N 453.777 0.010035 1.57597 0
M  V30 4865 C 455.026 -0.671945 1.90178 0
M  V30 4866 C 455.339 -1.74376 0.886131 0
M  V30 4867 O 456.545 -2.48107 1.10252 0
M  V30 4868 C 455.001 -1.24636 3.3763 0
M  V30 4869 C 454.609 -0.208838 4.47513 0
M  V30 4870 C 456.353 -1.90595 3.79307 0
M  V30 4871 C 454.26 -0.793814 5.86048 0
M  V30 4872 H 453.19 -0.25474 0.709665 0
M  V30 4873 H 455.841 0.0722206 1.83358 0
M  V30 4874 H 454.223 -2.04152 3.3932 0
M  V30 4875 H 455.397 0.562463 4.57354 0
M  V30 4876 H 453.712 0.350889 4.14919 0
M  V30 4877 H 456.309 -2.35284 4.80151 0
M  V30 4878 H 456.652 -2.74074 3.13352 0
M  V30 4879 H 457.185 -1.17798 3.79958 0
M  V30 4880 H 453.924 0.00240855 6.555 0
M  V30 4881 H 453.444 -1.53404 5.79851 0
M  V30 4882 H 455.123 -1.2894 6.34022 0
M  V30 4883 N 455.255 -1.55392 -0.262866 0
M  V30 4884 C 456.203 -1.8977 -1.345 0
M  V30 4885 C 457.197 -0.775063 -1.50629 0
M  V30 4886 O 458.403 -0.959519 -1.52293 0
M  V30 4887 H 454.778 -0.602467 -0.450041 0
M  V30 4888 H 456.749 -2.80147 -1.02762 0
M  V30 4889 C 455.498 -2.19501 -2.69657 0
M  V30 4890 H 454.821 -3.05378 -2.5804 0
M  V30 4891 H 456.261 -2.47469 -3.44289 0
M  V30 4892 C 454.72 -1.00597 -3.21531 0
M  V30 4893 O 455.25 -0.245768 -4.00947 0
M  V30 4894 N 453.456 -0.800911 -2.79345 0
M  V30 4895 H 453.003 -1.42079 -2.14875 0
M  V30 4896 H 452.961 -0.00697996 -3.14399 0
M  V30 4897 N 456.733 0.527833 -1.48498 0
M  V30 4898 C 457.979 1.28545 -1.56857 0
M  V30 4899 C 458.312 1.92678 -0.242651 0
M  V30 4900 O 457.587 1.79394 0.751545 0
M  V30 4901 C 457.87 2.37314 -2.70839 0
M  V30 4902 C 457.723 1.77858 -4.13142 0
M  V30 4903 C 459.042 3.39068 -2.80573 0
M  V30 4904 H 456.161 0.466006 -0.570971 0
M  V30 4905 H 458.803 0.587784 -1.8068 0
M  V30 4906 H 456.953 2.96821 -2.50658 0
M  V30 4907 H 458.625 1.22385 -4.44769 0
M  V30 4908 H 456.868 1.08383 -4.20042 0
M  V30 4909 H 457.539 2.56624 -4.88721 0
M  V30 4910 H 460.015 2.89518 -2.98862 0
M  V30 4911 H 458.891 4.12566 -3.6205 0
M  V30 4912 H 459.152 3.9975 -1.88818 0
M  V30 4913 N 458.211 1.37122 0.776871 0
M  V30 4914 C 459.141 1.35164 1.90402 0
M  V30 4915 C 460.122 0.221069 1.68657 0
M  V30 4916 O 461.307 0.420642 1.8959 0
M  V30 4917 C 458.437 1.15274 3.27611 0
M  V30 4918 C 457.391 2.25289 3.63908 0
M  V30 4919 C 456.717 1.90527 4.99603 0
M  V30 4920 C 458.017 3.67446 3.71188 0
M  V30 4921 H 459.711 2.29482 1.92297 0
M  V30 4922 H 457.257 1.10465 0.923773 0
M  V30 4923 H 459.21 1.12536 4.06096 0
M  V30 4924 H 457.934 0.174102 3.26136 0
M  V30 4925 H 456.593 2.27174 2.87728 0
M  V30 4926 H 456.241 0.91206 4.94662 0
M  V30 4927 H 455.941 2.64193 5.24858 0
M  V30 4928 H 457.465 1.89367 5.80493 0
M  V30 4929 H 458.879 3.67719 4.39836 0
M  V30 4930 H 457.276 4.40123 4.07936 0
M  V30 4931 H 458.346 4.01443 2.71977 0
M  V30 4932 N 459.689 -1.00246 1.21608 0
M  V30 4933 C 460.621 -2.09244 0.935401 0
M  V30 4934 C 461.634 -1.62592 -0.0823594 0
M  V30 4935 O 462.823 -1.77865 0.150456 0
M  V30 4936 C 459.923 -3.36724 0.383453 0
M  V30 4937 C 459.096 -4.1245 1.45615 0
M  V30 4938 C 458.155 -5.18219 0.912991 0
M  V30 4939 O 457.181 -5.46337 1.59701 0
M  V30 4940 N 458.383 -5.7987 -0.270478 0
M  V30 4941 H 461.148 -2.33905 1.87373 0
M  V30 4942 H 458.709 -1.16748 1.12167 0
M  V30 4943 H 460.701 -4.047 0.00562157 0
M  V30 4944 H 459.271 -3.09201 -0.459758 0
M  V30 4945 H 458.491 -3.39241 2.00772 0
M  V30 4946 H 459.779 -4.59819 2.17817 0
M  V30 4947 H 459.177 -5.59381 -0.843195 0
M  V30 4948 H 457.734 -6.49126 -0.589794 0
M  V30 4949 N 461.167 -1.02423 -1.1978 0
M  V30 4950 C 462.397 -0.736387 -1.93031 0
M  V30 4951 C 462.805 0.708023 -1.75453 0
M  V30 4952 O 462.148 1.4927 -1.07071 0
M  V30 4953 C 462.21 -1.00194 -3.45255 0
M  V30 4954 C 461.874 -2.43698 -3.86601 0
M  V30 4955 C 462.871 -3.41814 -3.91738 0
M  V30 4956 C 460.556 -2.77975 -4.18372 0
M  V30 4957 C 462.55 -4.72265 -4.28071 0
M  V30 4958 C 460.237 -4.08636 -4.54378 0
M  V30 4959 C 461.235 -5.05592 -4.59201 0
M  V30 4960 O 460.923 -6.33914 -4.94376 0
M  V30 4961 H 460.655 -0.269116 -0.620123 0
M  V30 4962 H 463.209 -1.37043 -1.52998 0
M  V30 4963 H 461.439 -0.310747 -3.85449 0
M  V30 4964 H 463.128 -0.704488 -3.9974 0
M  V30 4965 H 463.894 -3.16671 -3.67348 0
M  V30 4966 H 459.773 -2.0319 -4.13805 0
M  V30 4967 H 463.317 -5.4794 -4.3175 0
M  V30 4968 H 459.214 -4.33556 -4.78226 0
M  V30 4969 H 459.982 -6.38317 -5.12341 0
M  V30 4970 N 462.645 1.35699 -0.801477 0
M  V30 4971 C 463.894 1.98165 -0.375979 0
M  V30 4972 C 464.207 1.64306 1.06127 0
M  V30 4973 O 465.413 2.20097 1.58964 0
M  V30 4974 C 463.869 3.54497 -0.621305 0
M  V30 4975 C 463.477 3.9727 -2.07076 0
M  V30 4976 C 465.221 4.23697 -0.26091 0
M  V30 4977 C 463.128 5.46427 -2.26211 0
M  V30 4978 H 462.058 0.741478 -0.136844 0
M  V30 4979 H 464.709 1.54834 -0.984814 0
M  V30 4980 H 463.091 3.95958 0.0574112 0
M  V30 4981 H 464.265 3.66974 -2.78687 0
M  V30 4982 H 462.58 3.40943 -2.39054 0
M  V30 4983 H 465.177 5.33334 -0.381994 0
M  V30 4984 H 465.52 4.0869 0.792344 0
M  V30 4985 H 466.053 3.87639 -0.893339 0
M  V30 4986 H 462.792 5.66396 -3.29963 0
M  V30 4987 H 462.312 5.78309 -1.59119 0
M  V30 4988 H 463.991 6.12819 -2.07513 0
M  V30 4989 N 464.123 0.554532 1.47522 0
M  V30 4990 C 465.086 -0.184174 2.28459 0
M  V30 4991 C 466.086 -0.845195 1.36796 0
M  V30 4992 O 467.276 -0.701467 1.59452 0
M  V30 4993 C 464.408 -1.26903 3.16399 0
M  V30 4994 H 465.601 0.526751 2.95238 0
M  V30 4995 H 463.154 0.311375 1.53167 0
M  V30 4996 H 463.889 -2.01244 2.54306 0
M  V30 4997 H 463.674 -0.799883 3.83854 0
M  V30 4998 H 465.164 -1.78794 3.77389 0
M  V30 4999 N 465.601 -1.54893 0.290851 0
M  V30 5000 C 466.831 -2.04047 -0.323818 0
M  V30 5001 C 467.239 -1.16809 -1.48837 0
M  V30 5002 O 466.582 -0.184145 -1.82775 0
M  V30 5003 C 466.644 -3.49248 -0.852395 0
M  V30 5004 C 466.308 -4.56623 0.185557 0
M  V30 5005 C 467.305 -5.09985 1.01053 0
M  V30 5006 C 464.99 -5.01252 0.324332 0
M  V30 5007 C 466.984 -6.06507 1.96031 0
M  V30 5008 C 464.671 -5.97596 1.27757 0
M  V30 5009 C 465.669 -6.50107 2.09405 0
M  V30 5010 O 465.357 -7.44565 3.03114 0
M  V30 5011 H 465.089 -0.671735 -0.0758129 0
M  V30 5012 H 467.643 -2.00947 0.425393 0
M  V30 5013 H 465.873 -3.49639 -1.65195 0
M  V30 5014 H 467.562 -3.81654 -1.38185 0
M  V30 5015 H 468.328 -4.76307 0.914129 0
M  V30 5016 H 464.207 -4.60015 -0.301213 0
M  V30 5017 H 467.751 -6.47418 2.598 0
M  V30 5018 H 463.648 -6.30691 1.37473 0
M  V30 5019 H 464.416 -7.62334 2.97976 0
M  V30 5020 N 467.08 -0.0183926 -1.57589 0
M  V30 5021 C 468.028 0.985111 -2.10709 0
M  V30 5022 C 469.022 1.34397 -1.0312 0
M  V30 5023 O 470.228 1.32746 -1.21567 0
M  V30 5024 H 466.603 0.335418 -0.673052 0
M  V30 5025 H 468.574 0.511689 -2.9398 0
M  V30 5026 C 467.323 2.26202 -2.64061 0
M  V30 5027 H 466.646 1.9946 -3.4649 0
M  V30 5028 H 468.086 2.94652 -3.04887 0
M  V30 5029 C 466.545 2.98444 -1.5631 0
M  V30 5030 O 467.075 3.90142 -0.956674 0
M  V30 5031 N 465.281 2.6059 -1.28612 0
M  V30 5032 H 464.828 1.86101 -1.78112 0
M  V30 5033 H 464.786 3.09238 -0.567406 0
M  V30 5034 N 468.558 1.5553 0.254621 0
M  V30 5035 C 469.807 1.76202 0.981612 0
M  V30 5036 C 470.12 0.580883 1.86776 0
M  V30 5037 O 471.326 0.670448 2.63092 0
M  V30 5038 C 469.782 3.11921 1.79537 0
M  V30 5039 C 469.39 4.37659 0.956991 0
M  V30 5040 C 471.134 3.41936 2.51555 0
M  V30 5041 C 469.041 5.64411 1.76619 0
M  V30 5042 H 467.971 0.656841 0.370237 0
M  V30 5043 H 470.622 1.81969 0.236556 0
M  V30 5044 H 469.004 3.00241 2.58208 0
M  V30 5045 H 470.178 4.60307 0.21315 0
M  V30 5046 H 468.493 4.14922 0.350497 0
M  V30 5047 H 471.09 4.33849 3.12536 0
M  V30 5048 H 471.433 2.62905 3.22779 0
M  V30 5049 H 471.966 3.54797 1.799 0
M  V30 5050 H 468.705 6.46241 1.09783 0
M  V30 5051 H 468.225 5.45877 2.48551 0
M  V30 5052 H 469.904 6.03386 2.33527 0
M  V30 5053 N 470.036 -0.519951 1.48776 0
M  V30 5054 C 471.284 -1.2727 1.56993 0
M  V30 5055 C 471.605 -1.9339 0.25004 0
M  V30 5056 O 470.875 -1.81822 -0.729216 0
M  V30 5057 H 469.455 -0.472732 0.578389 0
M  V30 5058 H 472.117 -0.604234 1.85297 0
M  V30 5059 H 471.213 -2.04669 2.3562 0
M  V30 5060 N 471.514 -1.37532 -0.769588 0
M  V30 5061 C 472.739 -1.36231 -1.56384 0
M  V30 5062 C 473.164 0.0495849 -1.88035 0
M  V30 5063 O 472.522 1.02723 -1.49391 0
M  V30 5064 C 472.57 -2.20986 -2.84952 0
M  V30 5065 O 471.674 -1.61597 -3.79421 0
M  V30 5066 H 471.015 -0.465387 -0.473615 0
M  V30 5067 H 473.545 -1.81085 -0.952342 0
M  V30 5068 H 473.555 -2.34277 -3.34034 0
M  V30 5069 H 472.23 -3.23612 -2.61243 0
M  V30 5070 H 470.807 -1.57359 -3.38072 0
M  V30 5071 N 472.992 0.995999 -1.22138 0
M  V30 5072 C 474.217 1.77601 -1.0711 0
M  V30 5073 C 474.642 1.84339 0.374264 0
M  V30 5074 O 474 1.29359 1.27028 0
M  V30 5075 C 474.048 3.18897 -1.68336 0
M  V30 5076 O 473.152 4.01663 -0.934928 0
M  V30 5077 H 472.493 0.547011 -0.376397 0
M  V30 5078 H 475.023 1.25137 -1.6187 0
M  V30 5079 H 475.033 3.69539 -1.72931 0
M  V30 5080 H 473.708 3.13308 -2.73516 0
M  V30 5081 H 472.285 3.60204 -0.964751 0
M  V30 5082 N 474.47 1.03057 1.19235 0
M  V30 5083 C 475.4 0.633497 2.24742 0
M  V30 5084 C 476.381 -0.358335 1.66283 0
M  V30 5085 O 477.566 -0.240676 1.92703 0
M  V30 5086 C 474.696 -0.0147648 3.47297 0
M  V30 5087 C 473.65 0.899527 4.18441 0
M  V30 5088 C 472.976 0.116281 5.34574 0
M  V30 5089 C 474.276 2.21404 4.73051 0
M  V30 5090 H 475.97 1.5155 2.58211 0
M  V30 5091 H 473.516 0.73014 1.24117 0
M  V30 5092 H 475.469 -0.304202 4.20301 0
M  V30 5093 H 474.193 -0.931577 3.13032 0
M  V30 5094 H 472.852 1.17319 3.47321 0
M  V30 5095 H 472.5 -0.802619 4.96555 0
M  V30 5096 H 472.2 0.725293 5.83107 0
M  V30 5097 H 473.724 -0.166376 6.10373 0
M  V30 5098 H 475.138 1.98601 5.37802 0
M  V30 5099 H 473.535 2.77512 5.32078 0
M  V30 5100 H 474.605 2.86752 3.91026 0
M  V30 5101 N 475.948 -1.35272 0.808662 0
M  V30 5102 C 476.896 -2.31663 0.208606 0
M  V30 5103 C 477.89 -1.56731 -0.642778 0
M  V30 5104 O 479.096 -1.71843 -0.53571 0
M  V30 5105 H 475.471 -0.750421 0.0486993 0
M  V30 5106 H 477.442 -2.79814 1.03666 0
M  V30 5107 C 476.191 -3.42008 -0.626573 0
M  V30 5108 H 475.514 -3.99795 0.0192103 0
M  V30 5109 H 476.954 -4.11727 -1.01278 0
M  V30 5110 C 475.413 -2.85226 -1.79298 0
M  V30 5111 O 475.943 -2.78945 -2.89055 0
M  V30 5112 N 474.149 -2.42245 -1.60516 0
M  V30 5113 H 473.696 -2.47554 -0.712375 0
M  V30 5114 H 473.654 -2.04603 -2.38715 0
M  V30 5115 N 477.426 -0.562348 -1.47226 0
M  V30 5116 C 478.673 -0.0402165 -2.0246 0
M  V30 5117 C 479.001 1.31169 -1.43614 0
M  V30 5118 O 478.256 1.86805 -0.5833 0
M  V30 5119 C 478.555 0.0969817 -3.57268 0
M  V30 5120 C 478.221 -1.1847 -4.35058 0
M  V30 5121 C 476.883 -1.53588 -4.56031 0
M  V30 5122 C 479.235 -2.03378 -4.79882 0
M  V30 5123 C 476.563 -2.73452 -5.19077 0
M  V30 5124 C 478.915 -3.2245 -5.44251 0
M  V30 5125 C 477.579 -3.57876 -5.63455 0
M  V30 5126 H 476.849 -0.0147163 -0.740854 0
M  V30 5127 H 479.496 -0.734895 -1.76838 0
M  V30 5128 H 477.801 0.87466 -3.81912 0
M  V30 5129 H 479.498 0.516408 -3.97661 0
M  V30 5130 H 476.088 -0.90126 -4.19017 0
M  V30 5131 H 480.272 -1.77553 -4.63453 0
M  V30 5132 H 475.528 -3.01062 -5.32139 0
M  V30 5133 H 479.702 -3.88526 -5.77945 0
M  V30 5134 H 477.329 -4.50849 -6.12078 0
M  V30 5135 N 478.904 1.54736 -0.299062 0
M  V30 5136 C 479.851 2.23448 0.577899 0
M  V30 5137 C 480.821 1.21637 1.13109 0
M  V30 5138 O 482.006 1.50252 1.17597 0
M  V30 5139 C 479.146 2.9774 1.74484 0
M  V30 5140 C 478.259 4.1432 1.22323 0
M  V30 5141 C 477.394 4.76199 2.35388 0
M  V30 5142 C 476.433 5.84927 1.80351 0
M  V30 5143 N 475.57 6.4077 2.86982 0
M  V30 5144 H 480.41 2.97996 -0.0146545 0
M  V30 5145 H 477.947 1.47088 -0.0190013 0
M  V30 5146 H 479.905 3.39045 2.43114 0
M  V30 5147 H 478.535 2.25572 2.30905 0
M  V30 5148 H 477.587 3.7797 0.429249 0
M  V30 5149 H 478.899 4.92659 0.780309 0
M  V30 5150 H 478.053 5.20346 3.11969 0
M  V30 5151 H 476.792 3.97188 2.83006 0
M  V30 5152 H 475.797 5.40207 1.02259 0
M  V30 5153 H 477.022 6.65821 1.3364 0
M  V30 5154 H 474.968 5.64643 3.33938 0
M  V30 5155 H 474.885 7.1445 2.4718 0
M  V30 5156 H 476.153 6.89574 3.63466 0
M  V30 5157 N 480.382 0.0267497 1.57577 0
M  V30 5158 C 481.793 -0.512413 1.79531 0
M  V30 5159 C 482.144 -1.72391 0.936791 0
M  V30 5160 O 481.269 -2.15903 0.146543 0
M  V30 5161 C 481.864 -0.936378 3.25603 0
M  V30 5162 C 480.423 -1.42067 3.4856 0
M  V30 5163 C 479.57 -0.384278 2.74624 0
M  V30 5164 H 482.521 0.252797 1.56674 0
M  V30 5165 H 482.542 -1.80088 3.35184 0
M  V30 5166 H 482.054 -0.0544332 3.88062 0
M  V30 5167 H 480.155 -2.32262 2.9135 0
M  V30 5168 H 480.268 -1.42968 4.57271 0
M  V30 5169 H 478.632 -0.851855 2.40032 0
M  V30 5170 H 479.415 0.489159 3.39797 0
M  V30 5171 N 481.861 -1.55662 -0.24637 0
M  V30 5172 C 483.091 -1.81312 -0.990438 0
M  V30 5173 C 483.499 -0.600234 -1.79426 0
M  V30 5174 O 482.842 0.440537 -1.78339 0
M  V30 5175 C 482.904 -3.0032 -1.97607 0
M  V30 5176 C 482.568 -4.36322 -1.35912 0
M  V30 5177 C 483.565 -5.14295 -0.761348 0
M  V30 5178 C 481.25 -4.83019 -1.37833 0
M  V30 5179 C 483.244 -6.37114 -0.190998 0
M  V30 5180 C 480.931 -6.05786 -0.804128 0
M  V30 5181 C 481.929 -6.82672 -0.211489 0
M  V30 5182 O 481.617 -8.03121 0.353845 0
M  V30 5183 H 481.349 -0.607233 -0.297058 0
M  V30 5184 H 483.903 -2.0356 -0.274351 0
M  V30 5185 H 482.133 -2.73829 -2.73047 0
M  V30 5186 H 483.822 -3.13057 -2.58361 0
M  V30 5187 H 484.588 -4.79337 -0.739013 0
M  V30 5188 H 480.467 -4.23165 -1.829 0
M  V30 5189 H 484.011 -6.97069 0.272206 0
M  V30 5190 H 479.908 -6.40222 -0.823792 0
M  V30 5191 H 480.676 -8.18131 0.245761 0
M  V30 5192 O 483.378 0.392 -1.5667 0
M  V30 5193 H 484.069 1.04392 -1.63163 0
M  V30 END ATOM
M  V30 BEGIN BOND
M  V30 END BOND
M  V30 END CTAB
M  END
$$$$
