drugbank_target|P05112 Interleukin-4 (DB06560)
 OpenBabel12092120333D

  0  0  0     0  0            999 V3000
M  V30 BEGIN CTAB
M  V30 COUNTS 2477 2498 0 0 0
M  V30 BEGIN ATOM
M  V30 1 H -0.908 1.98254 -0.117106 0
M  V30 2 N 0 1.576 0 0
M  V30 3 C 0.933 2.03868 1.02534 0
M  V30 4 C 1.911 0.928543 1.3348 0
M  V30 5 O 3.095 1.19667 1.45644 0
M  V30 6 C 0.222 2.43627 2.35294 0
M  V30 7 C -0.732 3.65373 2.2001 0
M  V30 8 S 0.101 5.13292 1.52614 0
M  V30 9 C 1.257 5.56322 2.86805 0
M  V30 10 H 1.49 2.90518 0.631377 0
M  V30 11 H -0.977 1.52953 0.210867 0
M  V30 12 H 0.981 2.67203 3.11629 0
M  V30 13 H -0.358 1.57376 2.7183 0
M  V30 14 H -1.165 3.90944 3.18086 0
M  V30 15 H -1.563 3.418 1.51819 0
M  V30 16 H 0.729 5.58782 3.83104 0
M  V30 17 H 1.672 6.56266 2.65933 0
M  V30 18 H 2.08 4.83886 2.90714 0
M  V30 19 N 1.4781 -0.272755 1.55222 0
M  V30 20 C 2.7261 -1.00234 1.75492 0
M  V30 21 C 3.0471 -1.8681 0.5592 0
M  V30 22 O 2.3171 -1.91215 -0.425882 0
M  V30 23 H 0.8971 -0.373076 0.647166 0
M  V30 24 H 3.5591 -0.296926 1.92625 0
M  V30 25 H 2.6551 -1.63913 2.65592 0
M  V30 26 N 2.9562 -1.48159 -0.537278 0
M  V30 27 C 3.8862 -1.65029 -1.6519 0
M  V30 28 C 4.8672 -0.499281 -1.62607 0
M  V30 29 O 6.0522 -0.730972 -1.79918 0
M  V30 30 C 3.1822 -1.68303 -3.03795 0
M  V30 31 C 2.1362 -2.8283 -3.21234 0
M  V30 32 C 1.4622 -2.71189 -4.60826 0
M  V30 33 C 2.7622 -4.24211 -3.04701 0
M  V30 34 H 4.4562 -2.58341 -1.51328 0
M  V30 35 H 2.0022 -1.24325 -0.726585 0
M  V30 36 H 3.9552 -1.78693 -3.81637 0
M  V30 37 H 2.6792 -0.715635 -3.18663 0
M  V30 38 H 1.3382 -2.71983 -2.45807 0
M  V30 39 H 0.9862 -1.72435 -4.7252 0
M  V30 40 H 0.6862 -3.48035 -4.7344 0
M  V30 41 H 2.2102 -2.83537 -5.40777 0
M  V30 42 H 3.6242 -4.3593 -3.72341 0
M  V30 43 H 2.0212 -5.01998 -3.28813 0
M  V30 44 H 3.0912 -4.41184 -2.01209 0
M  V30 45 N 4.4343 0.785586 -1.36625 0
M  V30 46 C 5.6623 1.57448 -1.3423 0
M  V30 47 C 6.0773 1.88649 0.0755653 0
M  V30 48 O 5.4343 1.50414 1.03354 0
M  V30 49 C 5.4853 2.89316 -2.16745 0
M  V30 50 O 5.2063 2.59459 -3.53005 0
M  V30 51 C 6.7073 3.83606 -2.22174 0
M  V30 52 H 3.9273 0.488226 -0.4603 0
M  V30 53 H 6.4713 0.974733 -1.79775 0
M  V30 54 H 4.6263 3.4575 -1.74745 0
M  V30 55 H 5.0403 3.43804 -3.96105 0
M  V30 56 H 6.5143 4.73181 -2.8426 0
M  V30 57 H 6.9913 4.21734 -1.22627 0
M  V30 58 H 7.5973 3.33104 -2.64427 0
M  V30 59 N 5.9124 1.20967 1.01018 0
M  V30 60 C 7.1374 1.0503 1.78839 0
M  V30 61 C 7.5624 -0.395752 1.8389 0
M  V30 62 O 6.9204 -1.28529 1.27867 0
M  V30 63 C 6.9684 1.64602 3.2084 0
M  V30 64 O 6.0724 0.887988 4.02726 0
M  V30 65 H 5.4134 0.369987 0.551367 0
M  V30 66 H 7.9434 1.60399 1.27018 0
M  V30 67 H 7.9534 1.68607 3.71532 0
M  V30 68 H 6.6284 2.69841 3.16479 0
M  V30 69 H 5.2054 0.922648 3.61305 0
M  V30 70 N 7.3905 -1.2043 1.01659 0
M  V30 71 C 8.3225 -2.22626 0.544988 0
M  V30 72 C 9.3355 -1.58479 -0.372609 0
M  V30 73 O 10.5245 -1.77679 -0.170958 0
M  V30 74 C 7.6245 -3.38141 -0.22663 0
M  V30 75 C 6.7975 -4.31877 0.692876 0
M  V30 76 C 5.8565 -5.26191 -0.0311616 0
M  V30 77 O 4.8825 -5.6612 0.591343 0
M  V30 78 N 6.0845 -5.65618 -1.30601 0
M  V30 79 H 8.8495 -2.63716 1.42388 0
M  V30 80 H 6.4105 -1.34971 0.894116 0
M  V30 81 H 8.4025 -3.98239 -0.72024 0
M  V30 82 H 6.9725 -2.95943 -1.00681 0
M  V30 83 H 6.1925 -3.69746 1.36679 0
M  V30 84 H 7.4805 -4.91426 1.31824 0
M  V30 85 H 6.8785 -5.3519 -1.83269 0
M  V30 86 H 5.4355 -6.28025 -1.74435 0
M  V30 87 N 8.8686 -0.792821 -1.36206 0
M  V30 88 C 9.7986 -0.207853 -2.32573 0
M  V30 89 C 10.7796 0.659055 -1.56813 0
M  V30 90 O 11.9646 0.592176 -1.84951 0
M  V30 91 C 9.0946 0.655449 -3.41059 0
M  V30 92 C 8.0486 -0.111842 -4.27854 0
M  V30 93 C 7.3746 0.872274 -5.27537 0
M  V30 94 C 8.6746 -1.30299 -5.05786 0
M  V30 95 H 10.3686 -1.01294 -2.81744 0
M  V30 96 H 7.9146 -0.48854 -1.3546 0
M  V30 97 H 9.8676 1.07464 -4.07467 0
M  V30 98 H 8.5916 1.49328 -2.90463 0
M  V30 99 H 7.2506 -0.512053 -3.63006 0
M  V30 100 H 6.8986 1.70523 -4.73214 0
M  V30 101 H 6.5986 0.363291 -5.86476 0
M  V30 102 H 8.1226 1.28996 -5.96818 0
M  V30 103 H 9.5366 -0.959379 -5.65216 0
M  V30 104 H 7.9336 -1.7455 -5.74154 0
M  V30 105 H 9.0036 -2.09663 -4.37229 0
M  V30 106 N 10.3467 1.47872 -0.545128 0
M  V30 107 C 11.2767 2.32661 0.197793 0
M  V30 108 C 12.2577 1.43041 0.920504 0
M  V30 109 O 13.4427 1.71912 0.90333 0
M  V30 110 C 10.5727 3.24569 1.23582 0
M  V30 111 C 9.5267 4.23333 0.630323 0
M  V30 112 C 8.8527 5.0448 1.77211 0
M  V30 113 C 10.1527 5.20704 -0.407974 0
M  V30 114 H 11.8467 2.95024 -0.510045 0
M  V30 115 H 9.3927 1.4187 -0.246731 0
M  V30 116 H 11.3457 3.8272 1.76362 0
M  V30 117 H 10.0697 2.60236 1.97344 0
M  V30 118 H 8.7287 3.6639 0.123922 0
M  V30 119 H 8.3767 4.36561 2.49847 0
M  V30 120 H 8.0767 5.71339 1.37281 0
M  V30 121 H 9.6007 5.65487 2.3034 0
M  V30 122 H 11.0147 5.7329 0.033305 0
M  V30 123 H 9.4117 5.95699 -0.725486 0
M  V30 124 H 10.4817 4.66917 -1.30828 0
M  V30 125 N 11.8248 0.280983 1.55075 0
M  V30 126 C 13.2358 -0.215629 1.85451 0
M  V30 127 C 13.5868 -1.54991 1.203 0
M  V30 128 O 12.7118 -2.10699 0.493435 0
M  V30 129 C 13.3068 -0.398026 3.36454 0
M  V30 130 C 11.8658 -0.838866 3.66933 0
M  V30 131 C 11.0128 0.064458 2.77225 0
M  V30 132 H 13.9638 0.502601 1.50531 0
M  V30 133 H 13.9848 -1.23569 3.59876 0
M  V30 134 H 13.4968 0.573241 3.83843 0
M  V30 135 H 11.5978 -1.8214 3.25048 0
M  V30 136 H 11.7108 -0.672123 4.74362 0
M  V30 137 H 10.0748 -0.452863 2.50642 0
M  V30 138 H 10.8578 1.03172 3.2743 0
M  V30 139 N 13.3029 -1.57598 0.00835791 0
M  V30 140 C 14.7139 -1.7892 -0.53333 0
M  V30 141 C 15.0649 -0.916609 -1.73473 0
M  V30 142 O 14.1899 -0.121336 -2.1606 0
M  V30 143 C 14.7849 -3.24488 -0.974313 0
M  V30 144 C 13.3439 -3.46878 -1.46125 0
M  V30 145 C 12.4909 -2.74157 -0.416302 0
M  V30 146 H 15.4419 -1.56958 0.234495 0
M  V30 147 H 15.4629 -3.3306 -1.83988 0
M  V30 148 H 14.9749 -3.87972 -0.099718 0
M  V30 149 H 13.0759 -2.8862 -2.35646 0
M  V30 150 H 13.1889 -4.55572 -1.48295 0
M  V30 151 H 11.5529 -2.39022 -0.87981 0
M  V30 152 H 12.3359 -3.40345 0.44947 0
M  V30 153 N 14.781 0.264519 -1.55364 0
M  V30 154 C 15.711 1.33121 -1.91836 0
M  V30 155 C 16.692 1.51101 -0.781192 0
M  V30 156 O 17.877 1.64003 -1.04003 0
M  V30 157 C 15.007 2.68921 -2.19769 0
M  V30 158 C 13.961 2.65661 -3.35571 0
M  V30 159 C 13.287 4.05093 -3.49004 0
M  V30 160 C 14.587 2.24187 -4.71739 0
M  V30 161 H 16.281 1.02844 -2.81182 0
M  V30 162 H 13.827 0.493286 -1.35287 0
M  V30 163 H 15.78 3.43663 -2.43872 0
M  V30 164 H 14.504 3.00799 -1.27231 0
M  V30 165 H 13.163 1.93377 -3.1145 0
M  V30 166 H 12.811 4.34206 -2.53917 0
M  V30 167 H 12.511 4.03804 -4.26868 0
M  V30 168 H 14.035 4.81561 -3.75408 0
M  V30 169 H 15.449 2.88654 -4.9533 0
M  V30 170 H 13.846 2.34044 -5.52579 0
M  V30 171 H 14.916 1.19327 -4.69988 0
M  V30 172 N 16.2591 1.48442 0.529413 0
M  V30 173 C 17.5061 1.56488 1.28521 0
M  V30 174 C 17.8341 0.239042 1.93025 0
M  V30 175 O 17.0891 -0.770713 1.79885 0
M  V30 176 C 17.3881 2.6523 2.39558 0
M  V30 177 C 17.0541 4.07648 1.92702 0
M  V30 178 C 15.7161 4.46411 1.79641 0
M  V30 179 C 18.0681 4.96896 1.573 0
M  V30 180 C 15.3961 5.72226 1.29514 0
M  V30 181 C 17.7481 6.23202 1.08636 0
M  V30 182 C 16.4121 6.60821 0.941919 0
M  V30 183 H 15.6821 0.572631 0.470292 0
M  V30 184 H 18.3291 1.82161 0.59072 0
M  V30 185 H 16.6341 2.33419 3.14679 0
M  V30 186 H 18.3311 2.68671 2.97686 0
M  V30 187 H 14.9211 3.77036 2.03819 0
M  V30 188 H 19.1051 4.67626 1.66251 0
M  V30 189 H 14.3611 6.00097 1.17019 0
M  V30 190 H 18.5351 6.91753 0.803136 0
M  V30 191 H 16.1621 7.58198 0.5513 0
M  V30 192 N 17.7372 -0.778329 1.37039 0
M  V30 193 C 18.9842 -1.53665 1.31884 0
M  V30 194 C 19.3122 -1.9425 -0.0986303 0
M  V30 195 O 18.5672 -1.63832 -1.07041 0
M  V30 196 C 18.8662 -2.81845 2.19768 0
M  V30 197 C 18.5322 -2.60345 3.68146 0
M  V30 198 C 17.1942 -2.5419 4.08584 0
M  V30 199 C 19.5462 -2.40923 4.62175 0
M  V30 200 C 16.8742 -2.26594 5.41177 0
M  V30 201 C 19.2262 -2.14852 5.94997 0
M  V30 202 C 17.8902 -2.07137 6.34547 0
M  V30 203 H 17.1602 -0.562299 0.482598 0
M  V30 204 H 19.8072 -0.897069 1.69189 0
M  V30 205 H 18.1122 -3.50328 1.75436 0
M  V30 206 H 19.8092 -3.39692 2.13097 0
M  V30 207 H 16.3992 -2.65996 3.36072 0
M  V30 208 H 20.5832 -2.44673 4.31797 0
M  V30 209 H 15.8392 -2.19111 5.70789 0
M  V30 210 H 20.0132 -1.98822 6.67415 0
M  V30 211 H 17.6402 -1.85518 7.37216 0
M  V30 212 N 19.2153 -1.21501 -1.00376 0
M  V30 213 C 20.1453 -0.999478 -2.11028 0
M  V30 214 C 21.1263 0.0759671 -1.6993 0
M  V30 215 O 22.3113 -0.0841106 -1.94018 0
M  V30 216 C 19.4413 -0.564709 -3.42678 0
M  V30 217 C 18.3953 -1.58486 -3.97576 0
M  V30 218 C 17.7213 -1.00628 -5.25146 0
M  V30 219 C 19.0213 -2.97204 -4.29496 0
M  V30 220 H 20.7153 -1.92495 -2.29317 0
M  V30 221 H 18.2613 -0.92693 -1.102 0
M  V30 222 H 20.2143 -0.401091 -4.19487 0
M  V30 223 H 18.9383 0.396411 -3.24185 0
M  V30 224 H 17.5973 -1.73606 -3.22888 0
M  V30 225 H 17.2453 -0.0368439 -5.02987 0
M  V30 226 H 16.9453 -1.68771 -5.62841 0
M  V30 227 H 18.4693 -0.854015 -6.04598 0
M  V30 228 H 19.8833 -2.8552 -4.97143 0
M  V30 229 H 18.2803 -3.62372 -4.78338 0
M  V30 230 H 19.3503 -3.47956 -3.3772 0
M  V30 231 N 20.6934 1.19889 -1.02296 0
M  V30 232 C 21.6234 2.25141 -0.619174 0
M  V30 233 C 22.6044 1.66051 0.368915 0
M  V30 234 O 23.7894 1.92546 0.252941 0
M  V30 235 C 20.9194 3.4728 0.0368783 0
M  V30 236 C 19.8734 4.19005 -0.872865 0
M  V30 237 C 19.1994 5.34637 -0.0822402 0
M  V30 238 C 20.4994 4.74452 -2.18387 0
M  V30 239 H 22.1934 2.59171 -1.49903 0
M  V30 240 H 19.7394 1.24579 -0.722222 0
M  V30 241 H 21.6924 4.20098 0.330958 0
M  V30 242 H 20.4164 3.12433 0.95149 0
M  V30 243 H 19.0754 3.48061 -1.15105 0
M  V30 244 H 18.7234 4.96034 0.83422 0
M  V30 245 H 18.4234 5.83557 -0.688149 0
M  V30 246 H 19.9474 6.10255 0.205238 0
M  V30 247 H 21.3614 5.39055 -1.95172 0
M  V30 248 H 19.7584 5.33834 -2.74119 0
M  V30 249 H 20.8284 3.92844 -2.84257 0
M  V30 250 N 22.1715 0.800033 1.35784 0
M  V30 251 C 23.1345 0.211565 2.28221 0
M  V30 252 C 24.1345 -0.59728 1.49296 0
M  V30 253 O 25.3245 -0.416721 1.69142 0
M  V30 254 C 22.4565 -0.705846 3.33513 0
M  V30 255 H 23.6495 1.02677 2.81776 0
M  V30 256 H 21.2025 0.570211 1.45528 0
M  V30 257 H 21.9375 -1.54498 2.85133 0
M  V30 258 H 21.7225 -0.127655 3.91892 0
M  V30 259 H 23.2125 -1.11211 4.02519 0
M  V30 260 N 23.6496 -1.47581 0.552962 0
M  V30 261 C 24.8896 -2.04379 0.0296245 0
M  V30 262 C 25.2536 -1.4185 -1.29393 0
M  V30 263 O 26.4546 -1.89669 -1.90471 0
M  V30 264 C 24.7256 -3.57339 -0.0661371 0
M  V30 265 S 26.2846 -4.35511 -0.536213 0
M  V30 266 H 23.1026 -0.710625 0.0230991 0
M  V30 267 H 25.7046 -1.81005 0.738734 0
M  V30 268 H 24.4086 -4.00374 0.901596 0
M  V30 269 H 23.9396 -3.85202 -0.798931 0
M  V30 270 H 25.9546 -4.6253 -1.79668 0
M  V30 271 N 25.1277 -0.289203 -1.54924 0
M  V30 272 C 26.0907 0.579144 -2.21762 0
M  V30 273 C 27.0907 1.07047 -1.1999 0
M  V30 274 O 28.2807 0.968384 -1.44803 0
M  V30 275 C 25.4127 1.80055 -2.8947 0
M  V30 276 H 26.6057 -0.00464908 -2.999 0
M  V30 277 H 24.1587 -0.0399306 -1.56249 0
M  V30 278 H 24.8937 2.42449 -2.15381 0
M  V30 279 H 24.6787 1.45602 -3.64064 0
M  V30 280 H 26.1687 2.41773 -3.40493 0
M  V30 281 N 26.6058 1.57591 -0.0167156 0
M  V30 282 C 27.8538 1.90906 0.663285 0
M  V30 283 C 28.1748 0.892509 1.73376 0
M  V30 284 O 27.4448 -0.0677623 1.95783 0
M  V30 285 H 26.0248 0.704637 0.247983 0
M  V30 286 H 28.6868 1.94803 -0.0615909 0
M  V30 287 H 27.7828 2.9116 1.12393 0
M  V30 288 N 28.0839 -0.256276 1.55502 0
M  V30 289 C 29.0319 -1.33694 1.90338 0
M  V30 290 C 30.0259 -1.50299 0.781441 0
M  V30 291 O 31.2319 -1.51885 0.965966 0
M  V30 292 H 27.6069 -0.447483 0.60437 0
M  V30 293 H 29.5779 -1.01574 2.8058 0
M  V30 294 C 28.3269 -2.68724 2.20642 0
M  V30 295 H 27.6499 -2.56743 3.06469 0
M  V30 296 H 29.0899 -3.43237 2.48926 0
M  V30 297 C 27.5489 -3.21101 1.01959 0
M  V30 298 O 28.0789 -4.0084 0.262762 0
M  V30 299 N 26.2849 -2.79003 0.812746 0
M  V30 300 H 25.8319 -2.14271 1.42989 0
M  V30 301 H 25.7899 -3.14393 0.0203076 0
M  V30 302 N 29.562 -1.4872 -0.521534 0
M  V30 303 C 30.809 -1.57168 -1.27689 0
M  V30 304 C 31.137 -0.249275 -1.92896 0
M  V30 305 O 30.392 0.761162 -1.80291 0
M  V30 306 C 30.691 -2.66497 -2.38148 0
M  V30 307 C 30.357 -4.08664 -1.90538 0
M  V30 308 C 29.019 -4.47357 -1.77271 0
M  V30 309 C 31.371 -4.97724 -1.54663 0
M  V30 310 C 28.699 -5.72905 -1.26478 0
M  V30 311 C 31.051 -6.2377 -1.05329 0
M  V30 312 C 29.715 -6.61311 -0.906861 0
M  V30 313 H 28.985 -0.575117 -0.467249 0
M  V30 314 H 31.632 -1.82472 -0.581051 0
M  V30 315 H 29.937 -2.35085 -3.13437 0
M  V30 316 H 31.634 -2.70246 -2.96257 0
M  V30 317 H 28.224 -3.78111 -2.01816 0
M  V30 318 H 32.408 -4.68501 -1.63768 0
M  V30 319 H 27.664 -6.00709 -1.13835 0
M  V30 320 H 31.838 -6.9217 -0.76644 0
M  V30 321 H 29.465 -7.5848 -0.511083 0
M  V30 322 N 31.0401 0.771051 -1.3745 0
M  V30 323 C 32.2861 1.5319 -1.32894 0
M  V30 324 C 32.6191 1.94008 0.0862511 0
M  V30 325 O 31.8941 1.64124 1.04373 0
M  V30 326 C 32.1771 2.79648 -2.26868 0
M  V30 327 C 32.0301 2.45079 -3.77169 0
M  V30 328 C 33.3491 3.81583 -2.19277 0
M  V30 329 H 30.4681 0.555744 -0.484064 0
M  V30 330 H 33.1101 0.884492 -1.68157 0
M  V30 331 H 31.2601 3.34891 -1.96926 0
M  V30 332 H 32.9321 1.95745 -4.1771 0
M  V30 333 H 31.1751 1.77767 -3.95704 0
M  V30 334 H 31.8461 3.35478 -4.38359 0
M  V30 335 H 34.3221 3.35835 -2.45671 0
M  V30 336 H 33.1981 4.67787 -2.87171 0
M  V30 337 H 33.4591 4.25897 -1.18592 0
M  V30 338 N 32.5182 1.22032 0.997298 0
M  V30 339 C 33.4682 0.953838 2.07089 0
M  V30 340 C 34.4522 -0.0938669 1.60626 0
M  V30 341 O 35.6442 0.116078 1.76619 0
M  V30 342 C 32.7732 0.528726 3.39204 0
M  V30 343 C 31.8592 1.61092 3.92314 0
M  V30 344 N 32.2502 2.83768 4.18699 0
M  V30 345 C 30.5482 1.48158 4.20672 0
M  V30 346 C 31.2492 3.53715 4.61802 0
M  V30 347 N 30.2252 2.81174 4.65233 0
M  V30 348 H 34.0272 1.88577 2.25424 0
M  V30 349 H 31.5412 1.11719 1.17867 0
M  V30 350 H 33.5382 0.31915 4.15677 0
M  V30 351 H 32.1982 -0.39635 3.22272 0
M  V30 352 H 33.2092 3.20238 4.07023 0
M  V30 353 H 29.8862 0.622369 4.12835 0
M  V30 354 H 31.2762 4.58793 4.90875 0
M  V30 355 N 33.9963 -1.19345 1.0293 0
M  V30 356 C 35.2443 -1.88665 0.724574 0
M  V30 357 C 35.5653 -1.80036 -0.749144 0
M  V30 358 O 34.8353 -1.2111 -1.53978 0
M  V30 359 H 33.4153 -0.698406 0.265025 0
M  V30 360 H 36.0773 -1.44885 1.30362 0
M  V30 361 H 35.1733 -2.94987 1.01926 0
M  V30 362 N 35.4744 -0.807222 -1.35358 0
M  V30 363 C 36.4244 -0.190706 -2.27201 0
M  V30 364 C 37.4084 0.635838 -1.47804 0
M  V30 365 O 38.6004 0.492991 -1.69996 0
M  V30 366 C 35.7294 0.659337 -3.36909 0
M  V30 367 C 34.8154 -0.176971 -4.23731 0
M  V30 368 N 35.2064 -1.24029 -4.90357 0
M  V30 369 C 33.5044 0.0412953 -4.45981 0
M  V30 370 C 34.2054 -1.75092 -5.54723 0
M  V30 371 N 33.1814 -1.05727 -5.33219 0
M  V30 372 H 36.9834 -1.0043 -2.76208 0
M  V30 373 H 34.4974 -0.648445 -1.48892 0
M  V30 374 H 36.4944 1.11706 -4.01656 0
M  V30 375 H 35.1544 1.47127 -2.89454 0
M  V30 376 H 36.1654 -1.62295 -4.91814 0
M  V30 377 H 32.8424 0.82232 -4.09322 0
M  V30 378 H 34.2324 -2.63963 -6.17878 0
M  V30 379 N 36.9525 1.47285 -0.560781 0
M  V30 380 C 37.8995 2.30058 0.18491 0
M  V30 381 C 38.8695 1.39281 0.904986 0
M  V30 382 O 40.0545 1.68241 0.899979 0
M  V30 383 C 37.1945 3.23317 1.20666 0
M  V30 384 C 36.3075 4.29186 0.492285 0
M  V30 385 C 35.4425 5.09592 1.49964 0
M  V30 386 C 34.4815 6.07232 0.770439 0
M  V30 387 N 33.6185 6.80584 1.72479 0
M  V30 388 H 38.4585 2.93302 -0.527048 0
M  V30 389 H 35.9955 1.44568 -0.271738 0
M  V30 390 H 37.9535 3.75811 1.81168 0
M  V30 391 H 36.5835 2.61929 1.88661 0
M  V30 392 H 35.6355 3.7972 -0.227333 0
M  V30 393 H 36.9475 4.98738 -0.0787929 0
M  V30 394 H 36.1015 5.66254 2.17809 0
M  V30 395 H 34.8405 4.3995 2.10464 0
M  V30 396 H 33.8455 5.49745 0.0780846 0
M  V30 397 H 35.0705 6.78884 0.171134 0
M  V30 398 H 33.0165 6.1367 2.3183 0
M  V30 399 H 32.9335 7.46319 1.20596 0
M  V30 400 H 34.2015 7.41818 2.39428 0
M  V30 401 N 38.4306 0.297415 1.54768 0
M  V30 402 C 39.6706 -0.313829 2.01976 0
M  V30 403 C 40.0346 -1.51366 1.1812 0
M  V30 404 O 41.2356 -2.19603 1.5501 0
M  V30 405 C 39.5066 -0.664964 3.51159 0
M  V30 406 S 41.0656 -1.25958 4.20333 0
M  V30 407 H 37.8836 -0.0965014 0.704421 0
M  V30 408 H 40.4856 0.424451 1.90837 0
M  V30 409 H 39.1896 0.21681 4.09827 0
M  V30 410 H 38.7206 -1.43413 3.66328 0
M  V30 411 H 40.7356 -2.54751 4.25813 0
M  V30 412 N 39.9087 -1.5758 0.0250728 0
M  V30 413 C 41.1857 -1.82917 -0.692873 0
M  V30 414 C 41.5657 -0.908137 -1.90568 0
M  V30 415 O 40.9137 0.0372298 -2.2847 0
M  V30 416 C 41.1237 -3.32034 -1.07492 0
M  V30 417 C 42.4717 -3.98406 -1.46826 0
M  V30 418 O 43.4957 -3.36505 -1.16801 0
M  V30 419 O 42.3547 -5.07497 -2.02754 0
M  V30 420 H 39.4487 -0.754079 -0.33955 0
M  V30 421 H 41.9947 -1.69619 0.0524456 0
M  V30 422 H 40.7667 -3.90728 -0.211552 0
M  V30 423 H 40.3897 -3.50424 -1.87854 0
M  V30 424 N 41.3868 0.248026 -1.55636 0
M  V30 425 C 42.6358 0.974134 -1.76617 0
M  V30 426 C 42.9488 1.86528 -0.588796 0
M  V30 427 O 44.1548 2.62805 -0.681594 0
M  V30 428 C 42.6108 1.78213 -3.12679 0
M  V30 429 C 42.2188 0.93843 -4.38061 0
M  V30 430 C 43.9628 2.50104 -3.42999 0
M  V30 431 C 41.8698 1.74225 -5.65155 0
M  V30 432 H 40.7998 0.36745 -0.658405 0
M  V30 433 H 43.4508 0.22884 -1.82067 0
M  V30 434 H 41.8328 2.56933 -3.01333 0
M  V30 435 H 43.0068 0.193635 -4.60393 0
M  V30 436 H 41.3218 0.332905 -4.15067 0
M  V30 437 H 43.9188 3.10694 -4.3517 0
M  V30 438 H 44.2618 3.21662 -2.64271 0
M  V30 439 H 44.7948 1.78395 -3.55556 0
M  V30 440 H 41.5338 1.07043 -6.46701 0
M  V30 441 H 41.0538 2.46235 -5.46926 0
M  V30 442 H 42.7328 2.30967 -6.0437 0
M  V30 443 N 42.8649 1.48995 0.513639 0
M  V30 444 C 44.0929 1.61531 1.29288 0
M  V30 445 C 44.5079 0.281801 1.86685 0
M  V30 446 O 43.8649 -0.731111 1.67215 0
M  V30 447 C 43.9159 2.67449 2.43215 0
M  V30 448 O 43.6369 3.95626 1.88179 0
M  V30 449 C 45.1379 2.90575 3.34785 0
M  V30 450 H 42.3579 0.544165 0.392588 0
M  V30 451 H 44.9019 1.9494 0.617956 0
M  V30 452 H 43.0569 2.36853 3.0656 0
M  V30 453 H 43.4709 4.53868 2.62876 0
M  V30 454 H 44.9449 3.68449 4.11035 0
M  V30 455 H 45.4219 2.00011 3.91015 0
M  V30 456 H 46.0279 3.22538 2.77218 0
M  V30 457 N 44.343 -0.763751 1.37857 0
M  V30 458 C 45.273 -1.89103 1.36975 0
M  V30 459 C 46.254 -1.68439 0.237152 0
M  V30 460 O 47.439 -1.8918 0.438713 0
M  V30 461 C 44.569 -3.26496 1.18395 0
M  V30 462 C 43.523 -3.61741 2.28751 0
M  V30 463 C 42.849 -4.97762 1.95286 0
M  V30 464 C 44.149 -3.67665 3.70972 0
M  V30 465 H 45.843 -1.90099 2.31307 0
M  V30 466 H 43.389 -0.91319 1.11341 0
M  V30 467 H 45.342 -4.05003 1.16406 0
M  V30 468 H 44.066 -3.25955 0.205215 0
M  V30 469 H 42.725 -2.85547 2.29909 0
M  V30 470 H 42.373 -4.93769 0.959221 0
M  V30 471 H 42.073 -5.22313 2.69189 0
M  V30 472 H 43.597 -5.7866 1.94898 0
M  V30 473 H 45.011 -4.36307 3.719 0
M  V30 474 H 43.408 -4.03718 4.43995 0
M  V30 475 H 44.478 -2.68134 4.0402 0
M  V30 476 N 45.8211 -1.22559 -0.990812 0
M  V30 477 C 46.7531 -0.955325 -2.08342 0
M  V30 478 C 47.7661 0.0668408 -1.62663 0
M  V30 479 O 48.9551 -0.167421 -1.77713 0
M  V30 480 C 46.0551 -0.415566 -3.36342 0
M  V30 481 C 45.2281 -1.49544 -4.11042 0
M  V30 482 C 44.2871 -0.962399 -5.17324 0
M  V30 483 O 43.3131 -1.64907 -5.44788 0
M  V30 484 N 44.5151 0.215134 -5.80101 0
M  V30 485 H 47.2801 -1.89596 -2.32106 0
M  V30 486 H 44.8411 -1.13276 -1.15673 0
M  V30 487 H 46.8331 -0.0442386 -4.04676 0
M  V30 488 H 45.4031 0.430232 -3.09625 0
M  V30 489 H 44.6231 -2.04 -3.37309 0
M  V30 490 H 45.9111 -2.22195 -4.57719 0
M  V30 491 H 45.3091 0.789779 -5.6016 0
M  V30 492 H 43.8661 0.527826 -6.49659 0
M  V30 493 N 47.2992 1.18797 -1.03562 0
M  V30 494 C 48.2092 2.25913 -0.632505 0
M  V30 495 C 49.2252 1.70668 0.338882 0
M  V30 496 O 50.4012 2.00453 0.195076 0
M  V30 497 C 47.4662 3.467 0.00350942 0
M  V30 498 C 46.5272 4.17098 -1.01624 0
M  V30 499 C 45.7602 5.32119 -0.410478 0
M  V30 500 O 45.9832 5.64976 0.784725 0
M  V30 501 O 44.9172 5.9107 -1.13667 0
M  V30 502 H 48.7432 2.62648 -1.52478 0
M  V30 503 H 46.3282 1.25781 -0.806195 0
M  V30 504 H 48.2102 4.19878 0.35781 0
M  V30 505 H 46.8852 3.11798 0.869686 0
M  V30 506 H 45.7922 3.4601 -1.42224 0
M  V30 507 H 47.1252 4.55987 -1.85301 0
M  V30 508 N 48.7773 0.814389 1.34928 0
M  V30 509 C 50.0263 0.394871 1.97797 0
M  V30 510 C 50.3393 -1.04555 1.65311 0
M  V30 511 O 51.5453 -1.56856 2.21604 0
M  V30 512 C 50.0013 0.655103 3.53888 0
M  V30 513 C 49.6093 2.10858 3.95276 0
M  V30 514 C 51.3533 0.301329 4.23429 0
M  V30 515 C 49.2603 2.31415 5.44244 0
M  V30 516 H 48.1903 0.143913 0.740139 0
M  V30 517 H 50.8413 0.999544 1.53888 0
M  V30 518 H 49.2233 -0.0196253 3.95995 0
M  V30 519 H 50.3973 2.82176 3.64298 0
M  V30 520 H 48.7123 2.42297 3.38646 0
M  V30 521 H 51.3093 0.432869 5.32945 0
M  V30 522 H 51.6523 -0.75331 4.09428 0
M  V30 523 H 52.1853 0.930288 3.86769 0
M  V30 524 H 48.9243 3.35353 5.63222 0
M  V30 525 H 48.4443 1.6463 5.76764 0
M  V30 526 H 50.1233 2.13352 6.10811 0
M  V30 527 N 50.2554 -1.46986 0.568584 0
M  V30 528 C 51.5044 -2.01646 0.0465894 0
M  V30 529 C 51.8174 -1.44721 -1.31587 0
M  V30 530 O 53.0234 -1.91113 -1.92842 0
M  V30 531 C 51.4794 -3.59885 0.032752 0
M  V30 532 C 51.0874 -4.25804 1.39266 0
M  V30 533 C 52.8314 -4.22255 -0.436038 0
M  V30 534 C 50.7384 -5.76081 1.33732 0
M  V30 535 H 49.6684 -0.753876 0.013647 0
M  V30 536 H 52.3194 -1.68864 0.718131 0
M  V30 537 H 50.7014 -3.8968 -0.704669 0
M  V30 538 H 51.8754 -4.07637 2.1487 0
M  V30 539 H 50.1904 -3.7547 1.80032 0
M  V30 540 H 52.7874 -5.32394 -0.49602 0
M  V30 541 H 53.1304 -3.90212 -1.45053 0
M  V30 542 H 53.6634 -3.97033 0.246877 0
M  V30 543 H 50.4024 -6.12761 2.32817 0
M  V30 544 H 49.9224 -5.96553 0.623267 0
M  V30 545 H 51.6014 -6.38518 1.0442 0
M  V30 546 N 51.7335 -0.305618 -1.54608 0
M  V30 547 C 52.6805 0.568421 -2.23691 0
M  V30 548 C 53.6505 1.12592 -1.22116 0
M  V30 549 O 54.8355 1.16959 -1.50749 0
M  V30 550 C 51.9755 1.7322 -2.98477 0
M  V30 551 C 51.0885 1.20566 -4.14835 0
M  V30 552 C 50.2235 2.33368 -4.77193 0
M  V30 553 C 49.2625 1.7787 -5.85686 0
M  V30 554 N 48.3995 2.84263 -6.4198 0
M  V30 555 H 53.2395 -0.0272867 -2.97988 0
M  V30 556 H 50.7765 -0.0252363 -1.47078 0
M  V30 557 H 52.7345 2.41675 -3.40072 0
M  V30 558 H 51.3645 2.29947 -2.26548 0
M  V30 559 H 50.4165 0.413223 -3.78149 0
M  V30 560 H 51.7285 0.759417 -4.92985 0
M  V30 561 H 50.8825 3.09761 -5.21664 0
M  V30 562 H 49.6215 2.8132 -3.98385 0
M  V30 563 H 48.6265 0.99968 -5.40635 0
M  V30 564 H 49.8515 1.30816 -6.66381 0
M  V30 565 H 47.7975 3.31541 -5.66053 0
M  V30 566 H 47.7145 2.44149 -7.15491 0
M  V30 567 H 48.9825 3.6054 -6.91109 0
M  V30 568 N 53.2116 1.57565 -0.0334293 0
M  V30 569 C 54.4396 1.9628 0.654347 0
M  V30 570 C 54.8546 0.910138 1.65414 0
M  V30 571 O 54.2116 -0.107595 1.82183 0
M  V30 572 C 54.2626 3.35067 1.35693 0
M  V30 573 O 53.9836 4.36296 0.397191 0
M  V30 574 C 55.4846 3.88439 2.13613 0
M  V30 575 H 52.7046 0.646369 0.180132 0
M  V30 576 H 55.2486 2.04282 -0.0944721 0
M  V30 577 H 53.4036 3.2827 2.05712 0
M  V30 578 H 53.8176 5.1678 0.896597 0
M  V30 579 H 55.2916 4.8788 2.58219 0
M  V30 580 H 55.7686 3.22914 2.97696 0
M  V30 581 H 56.3746 3.98516 1.48543 0
M  V30 582 N 54.6897 -0.239769 1.55765 0
M  V30 583 C 55.6197 -1.30052 1.9393 0
M  V30 584 C 56.6007 -1.49839 0.805132 0
M  V30 585 O 57.7857 -1.62328 1.06599 0
M  V30 586 C 54.9157 -2.65391 2.2402 0
M  V30 587 C 53.8697 -2.60289 3.39755 0
M  V30 588 C 53.1957 -3.99489 3.55405 0
M  V30 589 C 54.4957 -2.16654 4.75246 0
M  V30 590 H 56.1897 -0.983573 2.82783 0
M  V30 591 H 53.7357 -0.471701 1.36055 0
M  V30 592 H 55.6887 -3.3974 2.49308 0
M  V30 593 H 54.4127 -2.98736 1.32 0
M  V30 594 H 53.0717 -1.88398 3.14487 0
M  V30 595 H 52.7197 -4.30112 2.60793 0
M  V30 596 H 52.4197 -3.96962 4.33238 0
M  V30 597 H 53.9437 -4.75528 3.83022 0
M  V30 598 H 55.3577 -2.80737 4.99859 0
M  V30 599 H 53.7547 -2.25223 5.56232 0
M  V30 600 H 54.8247 -1.11835 4.71827 0
M  V30 601 N 56.1678 -1.49265 -0.50573 0
M  V30 602 C 57.1158 -1.66065 -1.62866 0
M  V30 603 C 58.1098 -0.526636 -1.61006 0
M  V30 604 O 59.3158 -0.706126 -1.65571 0
M  V30 605 H 55.6908 -0.52356 -0.539805 0
M  V30 606 H 57.6618 -2.60329 -1.45848 0
M  V30 607 C 56.4108 -1.74008 -3.01026 0
M  V30 608 H 55.7338 -2.6064 -3.03161 0
M  V30 609 H 57.1738 -1.89798 -3.79147 0
M  V30 610 C 55.6328 -0.483868 -3.33407 0
M  V30 611 O 56.1628 0.392548 -3.99777 0
M  V30 612 N 54.3688 -0.348236 -2.88506 0
M  V30 613 H 53.9158 -1.06242 -2.34671 0
M  V30 614 H 53.8738 0.491204 -3.10539 0
M  V30 615 N 57.6459 0.756429 -1.3826 0
M  V30 616 C 58.8709 1.55077 -1.37717 0
M  V30 617 C 59.2959 1.88073 0.03164 0
M  V30 618 O 58.6539 1.50364 1.01293 0
M  V30 619 C 58.7019 2.8283 -2.23695 0
M  V30 620 O 57.8059 3.77862 -1.6521 0
M  V30 621 H 57.1469 0.469152 -0.469885 0
M  V30 622 H 59.6769 0.935019 -1.81985 0
M  V30 623 H 59.6869 3.31783 -2.37453 0
M  V30 624 H 58.3619 2.58144 -3.2609 0
M  V30 625 H 56.9389 3.36555 -1.60578 0
M  V30 626 N 59.124 1.23083 0.984299 0
M  V30 627 C 60.054 1.03292 2.09411 0
M  V30 628 C 61.035 -0.048923 1.7003 0
M  V30 629 O 62.22 0.114967 1.93859 0
M  V30 630 C 59.35 0.619155 3.41736 0
M  V30 631 C 58.304 1.64791 3.95004 0
M  V30 632 C 57.63 1.0897 5.23478 0
M  V30 633 C 58.93 3.03999 4.24714 0
M  V30 634 H 60.624 1.96119 2.26225 0
M  V30 635 H 58.17 0.944344 1.08711 0
M  V30 636 H 60.123 0.467777 4.18796 0
M  V30 637 H 58.847 -0.344786 3.24775 0
M  V30 638 H 57.506 1.78721 3.20085 0
M  V30 639 H 57.154 0.11686 5.02864 0
M  V30 640 H 56.854 1.77704 5.60085 0
M  V30 641 H 58.378 0.950093 6.03163 0
M  V30 642 H 59.792 2.93393 4.92538 0
M  V30 643 H 58.189 3.69936 4.72512 0
M  V30 644 H 59.259 3.53285 3.32142 0
M  V30 645 N 60.6021 -1.18246 1.0419 0
M  V30 646 C 61.8301 -1.92195 0.766072 0
M  V30 647 C 62.2451 -1.76247 -0.676933 0
M  V30 648 O 61.6021 -1.09293 -1.46155 0
M  V30 649 C 61.6531 -3.43568 1.12442 0
M  V30 650 O 61.3741 -3.59015 2.51078 0
M  V30 651 C 62.8751 -4.34613 0.873275 0
M  V30 652 H 60.0951 -0.610114 0.279288 0
M  V30 653 H 62.6391 -1.50007 1.38989 0
M  V30 654 H 60.7941 -3.8354 0.545542 0
M  V30 655 H 61.2081 -4.5273 2.64831 0
M  V30 656 H 62.6821 -5.39374 1.17385 0
M  V30 657 H 63.1591 -4.38781 -0.191909 0
M  V30 658 H 63.7651 -4.00341 1.43551 0
M  V30 659 N 62.0802 -0.821533 -1.34494 0
M  V30 660 C 62.9902 -0.244355 -2.33324 0
M  V30 661 C 64.0062 0.620527 -1.62559 0
M  V30 662 O 65.1822 0.528754 -1.94335 0
M  V30 663 C 62.2472 0.585368 -3.41723 0
M  V30 664 C 61.3082 -0.301752 -4.28238 0
M  V30 665 C 60.5412 0.488466 -5.3146 0
M  V30 666 O 60.7642 1.72186 -5.4379 0
M  V30 667 O 59.6982 -0.12848 -6.01763 0
M  V30 668 H 63.5242 -1.06231 -2.84515 0
M  V30 669 H 61.1092 -0.583645 -1.37528 0
M  V30 670 H 62.9912 1.05747 -4.07916 0
M  V30 671 H 61.6662 1.38068 -2.92778 0
M  V30 672 H 60.5732 -0.821315 -3.64973 0
M  V30 673 H 61.9062 -1.06138 -4.8062 0
M  V30 674 N 63.5583 1.46682 -0.576371 0
M  V30 675 C 64.4903 2.28341 0.198231 0
M  V30 676 C 65.5033 1.38141 0.861453 0
M  V30 677 O 66.6923 1.62797 0.732082 0
M  V30 678 C 63.7923 3.12986 1.29972 0
M  V30 679 C 62.9653 4.31271 0.729639 0
M  V30 680 C 62.0243 4.97363 1.71803 0
M  V30 681 O 61.0503 5.55156 1.25658 0
M  V30 682 N 62.2523 4.93796 3.05198 0
M  V30 683 H 65.0173 2.9546 -0.502324 0
M  V30 684 H 62.5783 1.56525 -0.413715 0
M  V30 685 H 64.5703 3.54066 1.96008 0
M  V30 686 H 63.1403 2.47984 1.90323 0
M  V30 687 H 62.3603 3.94052 -0.108012 0
M  V30 688 H 63.6483 5.07739 0.328438 0
M  V30 689 H 63.0463 4.48077 3.45317 0
M  V30 690 H 61.6033 5.38837 3.6674 0
M  V30 691 N 65.0364 0.313813 1.54444 0
M  V30 692 C 65.9834 -0.55655 2.23989 0
M  V30 693 C 66.9534 -1.11943 1.22711 0
M  V30 694 O 68.1384 -1.16158 1.51367 0
M  V30 695 C 65.2784 -1.71635 2.99392 0
M  V30 696 C 64.3914 -1.18364 4.15468 0
M  V30 697 C 63.5264 -2.30834 4.78424 0
M  V30 698 C 62.5654 -1.74762 5.86622 0
M  V30 699 N 61.7024 -2.80855 6.43479 0
M  V30 700 H 66.5424 0.0430893 2.97969 0
M  V30 701 H 64.0794 0.0330359 1.47063 0
M  V30 702 H 66.0374 -2.39868 3.41349 0
M  V30 703 H 64.6674 -2.28742 2.27765 0
M  V30 704 H 63.7194 -0.393163 3.78363 0
M  V30 705 H 65.0314 -0.733262 4.93381 0
M  V30 706 H 64.1854 -3.0699 5.23299 0
M  V30 707 H 62.9244 -2.79204 3.99871 0
M  V30 708 H 61.9294 -0.970995 5.41158 0
M  V30 709 H 63.1544 -1.2728 6.67066 0
M  V30 710 H 61.1004 -3.28535 5.67804 0
M  V30 711 H 61.0174 -2.40351 7.16776 0
M  V30 712 H 62.2854 -3.5687 6.93011 0
M  V30 713 N 66.5145 -1.57545 0.0417849 0
M  V30 714 C 67.7425 -1.96624 -0.643928 0
M  V30 715 C 68.1575 -0.918897 -1.64929 0
M  V30 716 O 67.5145 0.0979323 -1.82237 0
M  V30 717 C 67.5655 -3.35781 -1.33914 0
M  V30 718 O 67.2865 -4.365 -0.374048 0
M  V30 719 C 68.7875 -3.89566 -2.1155 0
M  V30 720 H 66.0075 -0.647316 -0.176702 0
M  V30 721 H 68.5515 -2.04229 0.105304 0
M  V30 722 H 66.7065 -3.29357 -2.03968 0
M  V30 723 H 67.1205 -5.17248 -0.869179 0
M  V30 724 H 68.5945 -4.89242 -2.55628 0
M  V30 725 H 69.0715 -3.24488 -2.9598 0
M  V30 726 H 69.6775 -3.99298 -1.46427 0
M  V30 727 N 67.9926 0.231505 -1.5589 0
M  V30 728 C 68.9226 1.29022 -1.94617 0
M  V30 729 C 69.9036 1.4941 -0.813067 0
M  V30 730 O 71.0886 1.6176 -1.07459 0
M  V30 731 C 68.2186 2.64199 -2.25424 0
M  V30 732 C 67.1726 2.58484 -3.41131 0
M  V30 733 C 66.4986 3.97599 -3.57518 0
M  V30 734 C 67.7986 2.1413 -4.76388 0
M  V30 735 H 69.4926 0.968563 -2.83301 0
M  V30 736 H 67.0386 0.464479 -1.36303 0
M  V30 737 H 68.9916 3.38413 -2.51107 0
M  V30 738 H 67.7156 2.98032 -1.33583 0
M  V30 739 H 66.3746 1.86727 -3.15481 0
M  V30 740 H 66.0226 4.28723 -2.6307 0
M  V30 741 H 65.7226 3.94659 -4.35337 0
M  V30 742 H 67.2466 4.7349 -3.85538 0
M  V30 743 H 68.6606 2.78083 -5.01341 0
M  V30 744 H 67.0576 2.2227 -5.57419 0
M  V30 745 H 68.1276 1.09331 -4.72414 0
M  V30 746 N 69.4707 1.49531 0.497807 0
M  V30 747 C 70.7107 1.60799 1.26187 0
M  V30 748 C 71.0747 0.289627 1.89803 0
M  V30 749 O 72.2757 0.277512 2.67364 0
M  V30 750 C 70.5467 2.73729 2.29798 0
M  V30 751 S 72.1057 3.04968 3.155 0
M  V30 752 H 68.9237 0.567145 0.428798 0
M  V30 753 H 71.5257 1.87204 0.563477 0
M  V30 754 H 70.2297 3.68036 1.81597 0
M  V30 755 H 69.7607 2.49328 3.04301 0
M  V30 756 H 71.7757 2.46735 4.30507 0
M  V30 757 N 70.9488 -0.749086 1.3866 0
M  V30 758 C 72.1768 -1.53834 1.38358 0
M  V30 759 C 72.5918 -1.88783 -0.0255219 0
M  V30 760 O 71.9488 -1.53101 -0.993292 0
M  V30 761 C 71.9998 -2.83468 2.2434 0
M  V30 762 O 71.7208 -2.50008 3.5976 0
M  V30 763 C 73.2218 -3.7758 2.32267 0
M  V30 764 H 70.4418 -0.47585 0.473083 0
M  V30 765 H 72.9858 -0.926726 1.82297 0
M  V30 766 H 71.1408 -3.40995 1.83851 0
M  V30 767 H 71.5548 -3.33182 4.05081 0
M  V30 768 H 73.0288 -4.65478 2.96706 0
M  V30 769 H 73.5058 -4.18334 1.33765 0
M  V30 770 H 74.1118 -3.25976 2.73166 0
M  V30 771 N 72.4269 -1.23603 -0.977757 0
M  V30 772 C 73.3369 -1.03632 -2.1047 0
M  V30 773 C 74.3529 0.0199435 -1.73989 0
M  V30 774 O 75.5289 -0.176076 -2.00629 0
M  V30 775 C 72.5939 -0.63276 -3.40877 0
M  V30 776 C 71.6549 -1.76437 -3.91367 0
M  V30 777 C 70.8879 -1.37997 -5.15551 0
M  V30 778 O 71.1109 -0.265357 -5.69782 0
M  V30 779 O 70.0449 -2.20201 -5.60174 0
M  V30 780 H 73.8709 -1.98086 -2.30208 0
M  V30 781 H 71.4559 -1.02332 -1.08851 0
M  V30 782 H 73.3379 -0.418761 -4.19314 0
M  V30 783 H 72.0129 0.282754 -3.22463 0
M  V30 784 H 70.9199 -2.03304 -3.14036 0
M  V30 785 H 72.2529 -2.6583 -4.14241 0
M  V30 786 N 73.905 1.17692 -1.04816 0
M  V30 787 C 74.835 2.23777 -0.666791 0
M  V30 788 C 75.816 1.66796 0.33361 0
M  V30 789 O 77.001 1.93039 0.212042 0
M  V30 790 C 74.131 3.47281 -0.0367933 0
M  V30 791 C 73.085 4.17059 -0.961546 0
M  V30 792 C 72.411 5.34342 -0.195626 0
M  V30 793 C 73.711 4.69713 -2.28402 0
M  V30 794 H 75.405 2.55933 -1.55367 0
M  V30 795 H 72.951 1.23019 -0.748484 0
M  V30 796 H 74.904 4.20706 0.241775 0
M  V30 797 H 73.628 3.14381 0.885004 0
M  V30 798 H 72.287 3.45541 -1.22462 0
M  V30 799 H 71.935 4.97692 0.728816 0
M  V30 800 H 71.635 5.81966 -0.811775 0
M  V30 801 H 73.159 6.10553 0.0757473 0
M  V30 802 H 74.573 5.34794 -2.06563 0
M  V30 803 H 72.97 5.279 -2.8538 0
M  V30 804 H 74.04 3.86726 -2.92525 0
M  V30 805 N 75.3831 0.828654 1.34056 0
M  V30 806 C 76.6111 0.43262 2.02326 0
M  V30 807 C 77.0261 -0.963147 1.62385 0
M  V30 808 O 76.3831 -1.62425 0.832121 0
M  V30 809 C 76.4341 0.53182 3.57567 0
M  V30 810 O 76.1551 1.87258 3.96063 0
M  V30 811 C 77.6561 0.131422 4.43105 0
M  V30 812 H 74.8761 0.172923 0.648335 0
M  V30 813 H 77.4201 1.1184 1.71208 0
M  V30 814 H 75.5751 -0.105938 3.87255 0
M  V30 815 H 75.9891 1.85087 4.90758 0
M  V30 816 H 77.4631 0.251904 5.51425 0
M  V30 817 H 77.9401 -0.925645 4.29335 0
M  V30 818 H 78.5461 0.743207 4.18756 0
M  V30 819 N 76.8612 -1.46375 0.584142 0
M  V30 820 C 78.1072 -2.02678 0.0703716 0
M  V30 821 C 78.4402 -1.4545 -1.28678 0
M  V30 822 O 77.7152 -0.62014 -1.84349 0
M  V30 823 C 77.9982 -3.60099 0.00614674 0
M  V30 824 C 77.8512 -4.27709 1.3923 0
M  V30 825 C 79.1702 -4.34598 -0.693742 0
M  V30 826 H 76.2892 -0.736504 0.027047 0
M  V30 827 H 78.9312 -1.74501 0.751615 0
M  V30 828 H 77.0812 -3.84236 -0.574009 0
M  V30 829 H 78.7532 -4.14832 2.01773 0
M  V30 830 H 76.9962 -3.87016 1.95962 0
M  V30 831 H 77.6672 -5.36478 1.29982 0
M  V30 832 H 80.1432 -4.15615 -0.200869 0
M  V30 833 H 79.0192 -5.44318 -0.707714 0
M  V30 834 H 79.2802 -4.05759 -1.75533 0
M  V30 835 N 78.3393 -0.321999 -1.54275 0
M  V30 836 C 79.5673 0.283052 -2.04955 0
M  V30 837 C 79.9823 1.45904 -1.19823 0
M  V30 838 O 79.3393 1.81063 -0.228545 0
M  V30 839 C 79.3903 0.719028 -3.54277 0
M  V30 840 O 79.1113 -0.410175 -4.36176 0
M  V30 841 C 80.6123 1.38705 -4.21041 0
M  V30 842 H 77.8323 0.0584616 -0.668448 0
M  V30 843 H 80.3763 -0.467734 -1.99079 0
M  V30 844 H 78.5313 1.41979 -3.60445 0
M  V30 845 H 78.9453 -0.0669416 -5.24457 0
M  V30 846 H 80.4193 1.64306 -5.2698 0
M  V30 847 H 80.8963 2.33385 -3.72059 0
M  V30 848 H 81.5023 0.728906 -4.19007 0
M  V30 849 N 79.8174 1.5752 -0.0501392 0
M  V30 850 C 81.0944 1.83996 0.663685 0
M  V30 851 C 81.4744 0.938339 1.89099 0
M  V30 852 O 80.8224 -0.00087759 2.285 0
M  V30 853 C 81.0324 3.33702 1.02196 0
M  V30 854 C 82.3804 4.00691 1.40469 0
M  V30 855 O 83.4044 3.38321 1.11433 0
M  V30 856 O 82.2634 5.10658 1.94654 0
M  V30 857 H 79.3574 0.759385 0.32751 0
M  V30 858 H 81.9034 1.69514 -0.0794238 0
M  V30 859 H 80.6754 3.91015 0.149364 0
M  V30 860 H 80.2984 3.53368 1.82255 0
M  V30 861 N 81.2955 -0.223234 1.56011 0
M  V30 862 C 82.5445 -0.945912 1.78144 0
M  V30 863 C 82.8575 -1.85567 0.618396 0
M  V30 864 O 84.0635 -2.61688 0.723318 0
M  V30 865 C 82.5195 -1.73216 3.15475 0
M  V30 866 C 82.1275 -0.868619 4.39499 0
M  V30 867 C 83.8715 -2.44615 3.46935 0
M  V30 868 C 81.7785 -1.65212 5.67855 0
M  V30 869 H 80.7085 -0.356929 0.664167 0
M  V30 870 H 83.3595 -0.199845 1.82409 0
M  V30 871 H 81.7415 -2.52107 3.05382 0
M  V30 872 H 82.9155 -0.120366 4.60643 0
M  V30 873 H 81.2305 -0.26683 4.15544 0
M  V30 874 H 83.8275 -3.03732 4.40058 0
M  V30 875 H 84.1705 -3.17417 2.69355 0
M  V30 876 H 84.7035 -1.72715 3.58349 0
M  V30 877 H 81.4425 -0.967407 6.48322 0
M  V30 878 H 80.9625 -2.37503 5.50774 0
M  V30 879 H 82.6415 -2.21322 6.07968 0
M  V30 880 N 82.7736 -1.49793 -0.48987 0
M  V30 881 C 84.0206 -1.59841 -1.24327 0
M  V30 882 C 84.3486 -0.290135 -1.92324 0
M  V30 883 O 83.6036 0.722749 -1.81865 0
M  V30 884 C 83.9026 -2.71488 -2.32441 0
M  V30 885 C 83.5686 -4.12614 -1.81826 0
M  V30 886 C 82.2306 -4.51017 -1.67742 0
M  V30 887 C 84.5826 -5.00892 -1.4407 0
M  V30 888 C 81.9106 -5.75459 -1.14297 0
M  V30 889 C 84.2626 -6.25863 -0.920742 0
M  V30 890 C 82.9266 -6.63086 -0.766383 0
M  V30 891 H 82.1966 -0.584899 -0.454944 0
M  V30 892 H 84.8436 -1.83663 -0.542215 0
M  V30 893 H 83.1486 -2.4168 -3.0838 0
M  V30 894 H 84.8456 -2.76469 -2.90458 0
M  V30 895 H 81.4356 -3.82307 -1.93751 0
M  V30 896 H 85.6196 -4.7187 -1.53794 0
M  V30 897 H 80.8756 -6.02989 -1.01068 0
M  V30 898 H 85.0496 -6.9364 -0.619448 0
M  V30 899 H 82.6766 -7.59393 -0.350083 0
M  V30 900 N 84.2517 0.741722 -1.39055 0
M  V30 901 C 85.2147 1.83733 -1.37021 0
M  V30 902 C 86.2147 1.58542 -0.268534 0
M  V30 903 O 87.4047 1.66067 -0.526076 0
M  V30 904 C 84.5367 3.2141 -1.13617 0
M  V30 905 H 85.7297 1.86941 -2.34506 0
M  V30 906 H 83.2827 0.944676 -1.24521 0
M  V30 907 H 84.0177 3.23865 -0.167863 0
M  V30 908 H 83.8027 3.4109 -1.93391 0
M  V30 909 H 85.2927 4.01477 -1.14918 0
M  V30 910 N 85.7298 1.2412 0.971189 0
M  V30 911 C 86.6928 1.03156 2.04674 0
M  V30 912 C 87.6928 -0.00990322 1.60797 0
M  V30 913 O 88.8828 0.230729 1.72665 0
M  V30 914 C 86.0148 0.562765 3.36223 0
M  V30 915 H 87.2078 1.98614 2.24705 0
M  V30 916 H 84.7608 1.06293 1.14593 0
M  V30 917 H 85.4958 -0.395176 3.21883 0
M  V30 918 H 85.2808 1.31441 3.69413 0
M  V30 919 H 86.7708 0.437015 4.15307 0
M  V30 920 N 87.2079 -1.17134 1.05439 0
M  V30 921 C 88.4329 -1.91913 0.786396 0
M  V30 922 C 88.8579 -1.7643 -0.652234 0
M  V30 923 O 88.2159 -1.08372 -1.45345 0
M  V30 924 C 88.2639 -3.40921 1.17497 0
M  V30 925 O 87.3679 -4.11244 0.308589 0
M  V30 926 H 86.7089 -0.598215 0.288158 0
M  V30 927 H 89.2389 -1.48457 1.4079 0
M  V30 928 H 89.2489 -3.91668 1.14281 0
M  V30 929 H 87.9239 -3.5151 2.22292 0
M  V30 930 H 86.5009 -3.70731 0.40157 0
M  V30 931 N 88.686 -0.835752 -1.33615 0
M  V30 932 C 89.633 -0.26473 -2.29277 0
M  V30 933 C 90.603 0.617712 -1.54187 0
M  V30 934 O 91.788 0.556641 -1.825 0
M  V30 935 C 88.928 0.556777 -3.40579 0
M  V30 936 C 88.041 -0.349339 -4.30585 0
M  V30 937 C 87.176 0.482969 -5.29 0
M  V30 938 C 86.215 -0.421732 -6.10645 0
M  V30 939 N 85.352 0.372262 -7.01112 0
M  V30 940 H 90.192 -1.08582 -2.77514 0
M  V30 941 H 87.729 -0.546927 -1.36554 0
M  V30 942 H 89.687 1.04852 -4.03809 0
M  V30 943 H 88.317 1.34286 -2.93542 0
M  V30 944 H 87.369 -0.959372 -3.68104 0
M  V30 945 H 88.681 -1.04445 -4.87742 0
M  V30 946 H 87.835 1.03866 -5.97743 0
M  V30 947 H 86.574 1.21153 -4.72412 0
M  V30 948 H 85.579 -0.989464 -5.40823 0
M  V30 949 H 86.804 -1.14861 -6.69316 0
M  V30 950 H 84.75 1.08426 -6.46977 0
M  V30 951 H 84.667 -0.264198 -7.55538 0
M  V30 952 H 85.935 0.910293 -7.74167 0
M  V30 953 N 90.1641 1.46063 -0.591896 0
M  V30 954 C 91.1121 2.32124 0.148739 0
M  V30 955 C 92.1061 1.45035 0.875286 0
M  V30 956 O 93.3121 1.61609 0.792632 0
M  V30 957 H 89.6871 0.749024 0.066832 0
M  V30 958 H 91.6581 2.92392 -0.595783 0
M  V30 959 C 90.4071 3.28373 1.1431 0
M  V30 960 H 89.7301 3.95371 0.59346 0
M  V30 961 H 91.1701 3.91352 1.63155 0
M  V30 962 C 89.6291 2.54393 2.20875 0
M  V30 963 O 90.1591 2.31373 3.28374 0
M  V30 964 N 88.3651 2.14797 1.95731 0
M  V30 965 H 87.9121 2.33719 1.08319 0
M  V30 966 H 87.8701 1.65619 2.67241 0
M  V30 967 N 91.6422 0.330177 1.54103 0
M  V30 968 C 92.8702 -0.272179 2.05102 0
M  V30 969 C 93.2852 -1.45267 1.20595 0
M  V30 970 O 92.6422 -1.8094 0.238144 0
M  V30 971 C 92.6932 -0.70023 3.54653 0
M  V30 972 O 92.4142 0.433301 4.35952 0
M  V30 973 C 93.9152 -1.3647 4.21771 0
M  V30 974 H 91.1352 -0.0549159 0.668749 0
M  V30 975 H 93.6792 0.478285 1.98828 0
M  V30 976 H 91.8342 -1.40066 3.61193 0
M  V30 977 H 92.2482 0.0947539 5.24414 0
M  V30 978 H 93.7222 -1.61509 5.27843 0
M  V30 979 H 94.1992 -2.31409 3.73292 0
M  V30 980 H 94.8052 -0.706675 4.19388 0
M  V30 981 N 93.1203 -1.57491 0.0584922 0
M  V30 982 C 94.3483 -1.97296 -0.623037 0
M  V30 983 C 94.7633 -0.936338 -1.63946 0
M  V30 984 O 94.1203 0.0785981 -1.82331 0
M  V30 985 C 94.1713 -3.37183 -1.30345 0
M  V30 986 O 93.8923 -4.36872 -0.32773 0
M  V30 987 C 95.3933 -3.91788 -2.07406 0
M  V30 988 H 92.6133 -0.649153 -0.169826 0
M  V30 989 H 95.1573 -2.04106 0.12696 0
M  V30 990 H 93.3123 -3.31502 -2.00463 0
M  V30 991 H 93.7263 -5.18141 -0.814269 0
M  V30 992 H 95.2003 -4.91926 -2.50425 0
M  V30 993 H 95.6773 -3.27609 -2.92521 0
M  V30 994 H 96.2833 -4.00829 -1.42184 0
M  V30 995 N 94.5984 0.214957 -1.56127 0
M  V30 996 C 95.5084 1.28727 -1.96129 0
M  V30 997 C 96.5244 1.50916 -0.866044 0
M  V30 998 O 97.7004 1.63918 -1.17016 0
M  V30 999 C 94.7654 2.61569 -2.27558 0
M  V30 1000 C 93.8264 2.47625 -3.50685 0
M  V30 1001 C 93.0594 3.74132 -3.80606 0
M  V30 1002 O 93.2824 4.77438 -3.12104 0
M  V30 1003 O 92.2164 3.70849 -4.74083 0
M  V30 1004 H 96.0424 0.977855 -2.87527 0
M  V30 1005 H 93.6274 0.418358 -1.43423 0
M  V30 1006 H 95.5094 3.40012 -2.48938 0
M  V30 1007 H 94.1844 2.92178 -1.39332 0
M  V30 1008 H 93.0914 1.67361 -3.34576 0
M  V30 1009 H 94.4244 2.21954 -4.39315 0
M  V30 1010 N 96.0765 1.50051 0.48192 0
M  V30 1011 C 97.0235 1.68122 1.58125 0
M  V30 1012 C 97.9935 0.522545 1.57666 0
M  V30 1013 O 99.1785 0.751844 1.75362 0
M  V30 1014 C 96.3185 1.77142 2.96167 0
M  V30 1015 C 95.4315 3.0444 3.06497 0
M  V30 1016 C 94.5665 3.04321 4.35387 0
M  V30 1017 C 93.6055 4.26118 4.3942 0
M  V30 1018 N 92.7425 4.238 5.59766 0
M  V30 1019 H 97.5825 2.6198 1.42022 0
M  V30 1020 H 95.1195 1.29877 0.690687 0
M  V30 1021 H 97.0775 1.80352 3.76203 0
M  V30 1022 H 95.7075 0.867329 3.1093 0
M  V30 1023 H 94.7595 3.10752 2.19402 0
M  V30 1024 H 96.0715 3.94426 3.05336 0
M  V30 1025 H 95.2255 3.062 5.23762 0
M  V30 1026 H 93.9645 2.12147 4.39141 0
M  V30 1027 H 92.9695 4.24463 3.49444 0
M  V30 1028 H 94.1945 5.19507 4.37366 0
M  V30 1029 H 92.1405 3.34474 5.64326 0
M  V30 1030 H 92.0575 5.07542 5.60301 0
M  V30 1031 H 93.3255 4.2981 6.50295 0
M  V30 1032 N 97.5546 -0.734337 1.39446 0
M  V30 1033 C 98.4646 -1.87879 1.40495 0
M  V30 1034 C 99.4806 -1.714 0.299672 0
M  V30 1035 O 100.657 -1.93991 0.541249 0
M  V30 1036 C 97.7216 -3.23477 1.24754 0
M  V30 1037 C 96.7826 -3.52344 2.45259 0
M  V30 1038 C 96.0156 -4.81473 2.30259 0
M  V30 1039 O 96.2386 -5.55237 1.30643 0
M  V30 1040 O 95.1726 -5.10254 3.19256 0
M  V30 1041 H 98.9986 -1.89949 2.36966 0
M  V30 1042 H 96.5836 -0.882243 1.20569 0
M  V30 1043 H 98.4656 -4.04509 1.18111 0
M  V30 1044 H 97.1406 -3.22176 0.313781 0
M  V30 1045 H 96.0476 -2.71396 2.57478 0
M  V30 1046 H 97.3806 -3.58426 3.37331 0
M  V30 1047 N 99.0327 -1.24633 -0.964593 0
M  V30 1048 C 100.261 -1.11501 -1.74285 0
M  V30 1049 C 100.676 0.332165 -1.85855 0
M  V30 1050 O 100.033 1.22903 -1.34911 0
M  V30 1051 C 100.084 -1.75258 -3.16175 0
M  V30 1052 O 99.8047 -3.14318 -3.05182 0
M  V30 1053 C 101.306 -1.67776 -4.10324 0
M  V30 1054 H 98.5257 -0.389407 -0.546446 0
M  V30 1055 H 101.07 -1.64801 -1.21083 0
M  V30 1056 H 99.2247 -1.25954 -3.66353 0
M  V30 1057 H 99.6387 -3.4551 -3.94618 0
M  V30 1058 H 101.113 -2.17064 -5.0753 0
M  V30 1059 H 101.59 -0.639584 -4.34518 0
M  V30 1060 H 102.196 -2.16522 -3.66058 0
M  V30 1061 N 100.511 1.16574 -1.06058 0
M  V30 1062 C 101.758 1.87047 -0.775873 0
M  V30 1063 C 102.086 1.81562 0.697534 0
M  V30 1064 O 101.341 1.22445 1.52662 0
M  V30 1065 C 101.64 3.36195 -1.21275 0
M  V30 1066 C 101.306 3.6188 -2.68986 0
M  V30 1067 C 99.9678 3.68599 -3.09335 0
M  V30 1068 C 102.32 3.72648 -3.64394 0
M  V30 1069 C 99.6478 3.83584 -4.43937 0
M  V30 1070 C 102 3.89154 -4.98741 0
M  V30 1071 C 100.664 3.94114 -5.3873 0
M  V30 1072 H 99.9338 0.684452 -0.283912 0
M  V30 1073 H 102.581 1.37853 -1.32925 0
M  V30 1074 H 100.886 3.87505 -0.578528 0
M  V30 1075 H 102.583 3.89103 -0.969542 0
M  V30 1076 H 99.1728 3.57281 -2.36744 0
M  V30 1077 H 103.357 3.66769 -3.34356 0
M  V30 1078 H 98.6128 3.85677 -4.74409 0
M  V30 1079 H 102.787 3.96427 -5.72554 0
M  V30 1080 H 100.414 4.05478 -6.43033 0
M  V30 1081 N 101.989 0.842826 1.3317 0
M  V30 1082 C 103.229 0.446574 1.99462 0
M  V30 1083 C 103.593 -0.976818 1.65295 0
M  V30 1084 O 104.794 -1.477 2.24584 0
M  V30 1085 C 103.065 0.665353 3.51152 0
M  V30 1086 S 104.624 0.364911 4.3728 0
M  V30 1087 H 101.442 0.167803 0.690915 0
M  V30 1088 H 104.044 1.09297 1.62094 0
M  V30 1089 H 102.748 1.7006 3.73507 0
M  V30 1090 H 102.279 0.00494568 3.934 0
M  V30 1091 H 104.294 -0.813761 4.89482 0
M  V30 1092 N 103.467 -1.45747 0.599634 0
M  V30 1093 C 104.883 -1.57424 0.26264 0
M  V30 1094 C 105.083 -1.59222 -1.23493 0
M  V30 1095 O 104.139 -1.51825 -2.01756 0
M  V30 1096 C 105.452 -2.86061 0.926795 0
M  V30 1097 C 107 -2.99722 0.901967 0
M  V30 1098 C 107.475 -4.31119 1.54598 0
M  V30 1099 N 108.966 -4.37858 1.5111 0
M  V30 1100 C 109.701 -5.3818 1.97863 0
M  V30 1101 N 109.197 -6.45083 2.52666 0
M  V30 1102 N 110.99 -5.29487 1.88679 0
M  V30 1103 H 103.141 -1.42823 1.57211 0
M  V30 1104 H 105.404 -0.68235 0.658105 0
M  V30 1105 H 105.11 -2.90605 1.98095 0
M  V30 1106 H 104.984 -3.74563 0.445238 0
M  V30 1107 H 107.371 -2.9475 -0.143617 0
M  V30 1108 H 107.452 -2.12652 1.42171 0
M  V30 1109 H 107.096 -4.36849 2.59085 0
M  V30 1110 H 107.026 -5.16992 1.00132 0
M  V30 1111 H 109.517 -3.61209 1.11068 0
M  V30 1112 H 109.83 -7.17869 2.86155 0
M  V30 1113 H 108.175 -6.45856 2.56701 0
M  V30 1114 H 111.366 -4.44877 1.4561 0
M  V30 1115 H 111.539 -6.07524 2.25429 0
M  V30 1116 N 104.945 -0.338344 -1.53925 0
M  V30 1117 C 105.908 0.508299 -2.23493 0
M  V30 1118 C 106.908 1.03175 -1.23335 0
M  V30 1119 O 108.098 0.921826 -1.47811 0
M  V30 1120 C 105.23 1.70754 -2.95052 0
M  V30 1121 H 106.423 -0.100058 -2.99733 0
M  V30 1122 H 103.976 -0.0896198 -1.56043 0
M  V30 1123 H 104.711 2.35474 -2.22986 0
M  V30 1124 H 104.496 1.33946 -3.68512 0
M  V30 1125 H 105.986 2.30818 -3.48013 0
M  V30 1126 N 106.423 1.57458 -0.0668435 0
M  V30 1127 C 107.386 2.11323 0.887422 0
M  V30 1128 C 108.386 1.03618 1.22964 0
M  V30 1129 O 109.576 1.29626 1.16373 0
M  V30 1130 C 106.708 2.61048 2.19242 0
M  V30 1131 H 107.901 2.96942 0.420194 0
M  V30 1132 H 105.454 1.55239 0.181793 0
M  V30 1133 H 106.189 1.78868 2.70512 0
M  V30 1134 H 105.974 3.39769 1.95702 0
M  V30 1135 H 107.464 3.02814 2.87565 0
M  V30 1136 N 107.901 -0.206675 1.56239 0
M  V30 1137 C 109.129 -0.945345 1.8404 0
M  V30 1138 C 109.544 -1.77336 0.647885 0
M  V30 1139 O 108.901 -1.78425 -0.383511 0
M  V30 1140 C 108.952 -1.8509 3.10522 0
M  V30 1141 O 108.673 -1.05634 4.25174 0
M  V30 1142 C 110.174 -2.70222 3.51418 0
M  V30 1143 H 107.394 -0.276372 0.61144 0
M  V30 1144 H 109.938 -0.217417 2.03341 0
M  V30 1145 H 108.093 -2.53259 2.93153 0
M  V30 1146 H 108.507 -1.67238 4.97124 0
M  V30 1147 H 109.981 -3.29438 4.42916 0
M  V30 1148 H 110.458 -3.43358 2.73864 0
M  V30 1149 H 111.064 -2.07443 3.71278 0
M  V30 1150 N 109.379 -1.50304 -0.473955 0
M  V30 1151 C 110.625 -1.61389 -1.22806 0
M  V30 1152 C 110.958 -0.311955 -1.91678 0
M  V30 1153 O 110.233 0.686384 -1.81986 0
M  V30 1154 C 110.516 -2.79219 -2.27396 0
M  V30 1155 C 110.369 -4.19286 -1.62848 0
M  V30 1156 C 111.688 -2.92614 -3.28732 0
M  V30 1157 H 108.807 -0.587399 -0.445119 0
M  V30 1158 H 111.449 -1.82681 -0.522265 0
M  V30 1159 H 109.599 -2.61195 -2.87592 0
M  V30 1160 H 111.271 -4.48892 -1.06271 0
M  V30 1161 H 109.514 -4.23677 -0.931693 0
M  V30 1162 H 110.185 -4.97655 -2.38838 0
M  V30 1163 H 112.661 -3.09105 -2.78556 0
M  V30 1164 H 111.537 -3.76688 -3.99246 0
M  V30 1165 H 111.798 -2.03107 -3.92683 0
M  V30 1166 N 110.857 0.726932 -1.39834 0
M  V30 1167 C 111.787 1.85405 -1.41941 0
M  V30 1168 C 112.768 1.67751 -0.281728 0
M  V30 1169 O 113.953 1.8795 -0.488717 0
M  V30 1170 C 111.083 3.23243 -1.2701 0
M  V30 1171 C 110.037 3.55549 -2.38262 0
M  V30 1172 C 109.363 4.9241 -2.08415 0
M  V30 1173 C 110.663 3.577 -3.80589 0
M  V30 1174 H 112.357 1.83899 -2.36266 0
M  V30 1175 H 109.903 0.883349 -1.13723 0
M  V30 1176 H 111.856 4.01775 -1.27103 0
M  V30 1177 H 110.58 3.25296 -0.291564 0
M  V30 1178 H 109.239 2.79351 -2.37399 0
M  V30 1179 H 108.887 4.91052 -1.0898 0
M  V30 1180 H 108.587 5.14992 -2.82943 0
M  V30 1181 H 110.111 5.73289 -2.10171 0
M  V30 1182 H 111.525 4.26293 -3.83337 0
M  V30 1183 H 109.922 3.91804 -4.54543 0
M  V30 1184 H 110.992 2.57328 -4.10987 0
M  V30 1185 N 112.336 1.25143 0.95797 0
M  V30 1186 C 113.752 1.01892 1.22842 0
M  V30 1187 C 113.952 -0.266311 1.99732 0
M  V30 1188 O 113.008 -0.979913 2.3271 0
M  V30 1189 C 114.321 2.24004 2.00606 0
M  V30 1190 C 115.869 2.28731 2.13662 0
M  V30 1191 C 116.344 3.5049 2.94823 0
M  V30 1192 N 117.835 3.50866 3.02403 0
M  V30 1193 C 118.57 4.4174 3.65586 0
M  V30 1194 N 118.066 5.42882 4.30408 0
M  V30 1195 N 119.859 4.29429 3.62694 0
M  V30 1196 H 112.01 2.07718 0.443493 0
M  V30 1197 H 114.273 0.912031 0.258657 0
M  V30 1198 H 113.979 3.17395 1.51503 0
M  V30 1199 H 113.853 2.26907 3.01319 0
M  V30 1200 H 116.24 1.35865 2.61963 0
M  V30 1201 H 116.321 2.29848 1.12265 0
M  V30 1202 H 115.965 4.43676 2.47213 0
M  V30 1203 H 115.895 3.46617 3.96439 0
M  V30 1204 H 118.386 2.777 2.56302 0
M  V30 1205 H 118.699 6.0844 4.76467 0
M  V30 1206 H 117.044 5.46758 4.29047 0
M  V30 1207 H 120.235 3.49643 3.11236 0
M  V30 1208 H 120.408 5.00448 4.1165 0
M  V30 1209 N 113.814 -1.1601 1.06675 0
M  V30 1210 C 114.746 -2.20115 0.638921 0
M  V30 1211 C 115.759 -1.59916 -0.305057 0
M  V30 1212 O 116.948 -1.78245 -0.0954446 0
M  V30 1213 C 114.048 -3.38798 -0.0830083 0
M  V30 1214 C 113.221 -4.2855 0.875426 0
M  V30 1215 C 112.28 -5.25849 0.192042 0
M  V30 1216 O 111.306 -5.63102 0.830921 0
M  V30 1217 N 112.508 -5.70648 -1.06493 0
M  V30 1218 H 115.273 -2.57439 1.53444 0
M  V30 1219 H 112.834 -1.31057 0.950557 0
M  V30 1220 H 114.826 -4.00936 -0.550685 0
M  V30 1221 H 113.396 -2.99947 -0.880386 0
M  V30 1222 H 112.616 -3.63617 1.52238 0
M  V30 1223 H 113.904 -4.85393 1.52548 0
M  V30 1224 H 113.302 -5.42482 -1.60405 0
M  V30 1225 H 111.859 -6.34859 -1.47641 0
M  V30 1226 N 115.292 -0.849877 -1.32721 0
M  V30 1227 C 116.539 -0.450923 -1.97416 0
M  V30 1228 C 116.867 0.992376 -1.67279 0
M  V30 1229 O 116.122 1.71048 -0.950845 0
M  V30 1230 C 116.421 -0.631272 -3.51781 0
M  V30 1231 C 116.087 -2.04432 -4.01894 0
M  V30 1232 C 114.749 -2.4308 -4.1529 0
M  V30 1233 C 117.101 -2.96679 -4.28522 0
M  V30 1234 C 114.429 -3.73257 -4.52654 0
M  V30 1235 C 116.781 -4.26349 -4.67343 0
M  V30 1236 C 115.445 -4.64939 -4.78945 0
M  V30 1237 H 114.715 -0.165004 -0.722395 0
M  V30 1238 H 117.362 -1.07901 -1.58207 0
M  V30 1239 H 115.667 0.0800767 -3.91718 0
M  V30 1240 H 117.364 -0.302709 -3.99856 0
M  V30 1241 H 113.954 -1.73419 -3.91949 0
M  V30 1242 H 118.138 -2.68054 -4.17685 0
M  V30 1243 H 113.394 -4.02946 -4.59831 0
M  V30 1244 H 117.568 -4.97895 -4.86902 0
M  V30 1245 H 115.195 -5.65855 -5.07654 0
M  V30 1246 N 116.77 1.45427 -0.607355 0
M  V30 1247 C 118 2.06314 -0.108656 0
M  V30 1248 C 118.408 1.45269 1.21217 0
M  V30 1249 O 117.751 0.561115 1.74921 0
M  V30 1250 C 117.813 3.59345 0.105618 0
M  V30 1251 C 117.477 4.42723 -1.13337 0
M  V30 1252 C 118.474 4.77715 -2.05145 0
M  V30 1253 C 116.159 4.83478 -1.36213 0
M  V30 1254 C 118.153 5.52317 -3.18158 0
M  V30 1255 C 115.84 5.57835 -2.49527 0
M  V30 1256 C 116.838 5.92171 -3.40327 0
M  V30 1257 O 116.526 6.65019 -4.51669 0
M  V30 1258 H 116.258 0.672782 -0.0658842 0
M  V30 1259 H 118.812 1.87664 -0.834945 0
M  V30 1260 H 117.042 3.76394 0.886796 0
M  V30 1261 H 118.731 4.02076 0.555886 0
M  V30 1262 H 119.497 4.46787 -1.88697 0
M  V30 1263 H 115.376 4.56188 -0.664362 0
M  V30 1264 H 118.92 5.79036 -3.89054 0
M  V30 1265 H 114.817 5.88177 -2.65928 0
M  V30 1266 H 115.585 6.83469 -4.50348 0
M  V30 1267 N 118.248 0.346503 1.53744 0
M  V30 1268 C 119.473 -0.253074 2.0585 0
M  V30 1269 C 119.898 -1.43202 1.21962 0
M  V30 1270 O 119.256 -1.79783 0.234073 0
M  V30 1271 C 119.304 -0.643193 3.54817 0
M  V30 1272 O 118.408 -1.74286 3.73762 0
M  V30 1273 H 117.749 -0.0413583 0.662711 0
M  V30 1274 H 120.279 0.501574 1.98357 0
M  V30 1275 H 120.289 -0.919526 3.97503 0
M  V30 1276 H 118.964 0.218966 4.15323 0
M  V30 1277 H 117.541 -1.46356 3.42979 0
M  V30 1278 N 119.726 -1.57421 0.075193 0
M  V30 1279 C 120.676 -2.09441 -0.901025 0
M  V30 1280 C 121.66 -1.00486 -1.25663 0
M  V30 1281 O 122.852 -1.2679 -1.23504 0
M  V30 1282 C 119.981 -2.66233 -2.16737 0
M  V30 1283 C 119.067 -3.82198 -1.83808 0
M  V30 1284 N 119.458 -4.91028 -1.21345 0
M  V30 1285 C 117.756 -3.91558 -2.13538 0
M  V30 1286 C 118.457 -5.71852 -1.06585 0
M  V30 1287 N 117.433 -5.20233 -1.57667 0
M  V30 1288 H 121.235 -2.90972 -0.413815 0
M  V30 1289 H 118.749 -1.6189 -0.128601 0
M  V30 1290 H 120.746 -3.01819 -2.87595 0
M  V30 1291 H 119.406 -1.8615 -2.66042 0
M  V30 1292 H 120.417 -5.10323 -0.88268 0
M  V30 1293 H 117.094 -3.22454 -2.65197 0
M  V30 1294 H 118.484 -6.69401 -0.578933 0
M  V30 1295 N 121.204 0.198386 -1.56346 0
M  V30 1296 C 122.154 1.2499 -1.90687 0
M  V30 1297 C 123.138 1.41158 -0.772217 0
M  V30 1298 O 124.33 1.43584 -1.03502 0
M  V30 1299 C 121.459 2.59542 -2.24706 0
M  V30 1300 C 120.545 2.47181 -3.44619 0
M  V30 1301 N 120.936 2.04495 -4.62618 0
M  V30 1302 C 119.234 2.78082 -3.48692 0
M  V30 1303 C 119.935 2.03945 -5.44776 0
M  V30 1304 N 118.911 2.45323 -4.85095 0
M  V30 1305 H 122.713 0.911149 -2.7942 0
M  V30 1306 H 120.227 0.40684 -1.57221 0
M  V30 1307 H 122.224 3.3549 -2.47491 0
M  V30 1308 H 120.884 2.94244 -1.37298 0
M  V30 1309 H 121.895 1.75256 -4.87345 0
M  V30 1310 H 118.572 3.17002 -2.71691 0
M  V30 1311 H 119.962 1.72872 -6.4928 0
M  V30 1312 N 122.682 1.50554 0.465978 0
M  V30 1313 C 123.592 1.72585 1.58907 0
M  V30 1314 C 124.608 0.60911 1.6299 0
M  V30 1315 O 125.784 0.88804 1.80765 0
M  V30 1316 C 122.849 1.81995 2.95091 0
M  V30 1317 C 121.91 3.05751 3.01355 0
M  V30 1318 C 121.143 3.14702 4.31043 0
M  V30 1319 O 121.366 2.30313 5.21835 0
M  V30 1320 O 120.3 4.07468 4.43005 0
M  V30 1321 H 124.126 2.67799 1.43239 0
M  V30 1322 H 121.711 1.34711 0.646013 0
M  V30 1323 H 123.593 1.90335 3.75966 0
M  V30 1324 H 122.268 0.899659 3.10947 0
M  V30 1325 H 121.175 3.02908 2.19539 0
M  V30 1326 H 122.508 3.97375 2.90437 0
M  V30 1327 N 124.16 -0.719506 1.40217 0
M  V30 1328 C 125.107 -1.83359 1.40172 0
M  V30 1329 C 126.077 -1.64065 0.259206 0
M  V30 1330 O 127.262 -1.85254 0.456677 0
M  V30 1331 C 124.402 -3.2103 1.26624 0
M  V30 1332 C 123.515 -3.51923 2.50548 0
M  V30 1333 C 122.65 -4.79079 2.29471 0
M  V30 1334 C 121.689 -5.02863 3.48992 0
M  V30 1335 N 120.826 -6.2123 3.27135 0
M  V30 1336 H 125.666 -1.82733 2.35399 0
M  V30 1337 H 123.203 -0.892688 1.16917 0
M  V30 1338 H 125.161 -4.00524 1.16776 0
M  V30 1339 H 123.791 -3.20895 0.350176 0
M  V30 1340 H 122.843 -2.67014 2.70939 0
M  V30 1341 H 124.155 -3.6541 3.39525 0
M  V30 1342 H 123.309 -5.66582 2.16955 0
M  V30 1343 H 122.048 -4.67794 1.37913 0
M  V30 1344 H 121.053 -4.13816 3.6199 0
M  V30 1345 H 122.278 -5.16023 4.41472 0
M  V30 1346 H 120.224 -6.11204 2.38256 0
M  V30 1347 H 120.141 -6.35375 4.09675 0
M  V30 1348 H 121.409 -7.11532 3.18344 0
M  V30 1349 N 125.638 -1.25649 -0.95132 0
M  V30 1350 C 126.915 -1.01361 -1.67288 0
M  V30 1351 C 127.295 0.459135 -2.06046 0
M  V30 1352 O 126.643 1.43723 -1.7764 0
M  V30 1353 C 126.853 -1.95256 -2.89268 0
M  V30 1354 C 128.201 -2.23289 -3.61147 0
M  V30 1355 O 129.225 -1.93041 -2.99355 0
M  V30 1356 O 128.084 -2.74741 -4.72419 0
M  V30 1357 H 125.178 -0.38464 -0.732107 0
M  V30 1358 H 127.724 -1.36817 -1.00395 0
M  V30 1359 H 126.496 -2.94685 -2.57442 0
M  V30 1360 H 126.119 -1.60218 -3.6389 0
M  V30 1361 N 127.117 1.15442 -1.07289 0
M  V30 1362 C 128.345 1.90096 -0.81676 0
M  V30 1363 C 128.76 1.7798 0.629966 0
M  V30 1364 O 128.117 1.1313 1.43206 0
M  V30 1365 C 128.168 3.40466 -1.21512 0
M  V30 1366 O 127.889 3.52232 -2.60508 0
M  V30 1367 C 129.39 4.32145 -0.988198 0
M  V30 1368 H 126.61 0.602495 -0.295366 0
M  V30 1369 H 129.154 1.4627 -1.42918 0
M  V30 1370 H 127.309 3.81958 -0.647039 0
M  V30 1371 H 127.723 4.45549 -2.76742 0
M  V30 1372 H 129.197 5.36072 -1.31645 0
M  V30 1373 H 129.674 4.39135 0.0755063 0
M  V30 1374 H 130.28 3.96395 -1.54115 0
M  V30 1375 N 128.595 0.856903 1.32268 0
M  V30 1376 C 130.011 0.547061 1.49931 0
M  V30 1377 C 130.211 -0.921781 1.7918 0
M  V30 1378 O 129.267 -1.70469 1.8627 0
M  V30 1379 C 130.58 1.43599 2.64196 0
M  V30 1380 C 132.128 1.43665 2.78081 0
M  V30 1381 C 132.603 2.31085 3.95428 0
M  V30 1382 N 134.094 2.28893 4.02694 0
M  V30 1383 C 134.829 2.93262 4.92732 0
M  V30 1384 N 134.325 3.66751 5.87763 0
M  V30 1385 N 136.118 2.82638 4.85873 0
M  V30 1386 H 128.269 1.8075 1.11549 0
M  V30 1387 H 130.532 0.772144 0.549997 0
M  V30 1388 H 130.238 2.48058 2.49319 0
M  V30 1389 H 130.112 1.12502 3.60032 0
M  V30 1390 H 132.499 0.399701 2.92381 0
M  V30 1391 H 132.58 1.7878 1.82952 0
M  V30 1392 H 132.224 3.34849 3.81888 0
M  V30 1393 H 132.154 1.93302 4.89839 0
M  V30 1394 H 134.645 1.75466 3.34694 0
M  V30 1395 H 134.958 4.13027 6.53168 0
M  V30 1396 H 133.303 3.70859 5.87783 0
M  V30 1397 H 136.494 2.24774 4.10602 0
M  V30 1398 H 136.667 3.33084 5.55841 0
M  V30 1399 N 130.073 -1.45103 0.615059 0
M  V30 1400 C 131.313 -2.04069 0.116282 0
M  V30 1401 C 131.677 -1.4721 -1.2326 0
M  V30 1402 O 132.878 -1.97577 -1.82255 0
M  V30 1403 C 131.149 -3.57298 0.085482 0
M  V30 1404 S 132.708 -4.37394 -0.351015 0
M  V30 1405 H 129.526 -0.709006 0.0532183 0
M  V30 1406 H 132.128 -1.77709 0.81484 0
M  V30 1407 H 130.832 -3.9619 1.0706 0
M  V30 1408 H 130.363 -3.88244 -0.634835 0
M  V30 1409 H 132.378 -4.69734 -1.59889 0
M  V30 1410 N 131.551 -0.354651 -1.53558 0
M  V30 1411 C 132.481 0.489091 -2.2832 0
M  V30 1412 C 133.462 1.09324 -1.30316 0
M  V30 1413 O 134.647 1.11255 -1.59173 0
M  V30 1414 C 131.777 1.63456 -3.0643 0
M  V30 1415 C 130.731 1.1582 -4.12031 0
M  V30 1416 C 130.057 2.39305 -4.7816 0
M  V30 1417 C 131.357 0.250731 -5.21698 0
M  V30 1418 H 133.051 -0.134614 -2.99097 0
M  V30 1419 H 130.597 -0.0661826 -1.43848 0
M  V30 1420 H 132.55 2.23136 -3.57475 0
M  V30 1421 H 131.274 2.28533 -2.33325 0
M  V30 1422 H 129.933 0.584146 -3.61916 0
M  V30 1423 H 129.581 3.02814 -4.01637 0
M  V30 1424 H 129.281 2.08109 -5.49513 0
M  V30 1425 H 130.805 2.99691 -5.31994 0
M  V30 1426 H 132.219 0.754695 -5.68311 0
M  V30 1427 H 130.616 0.0301468 -6.00092 0
M  V30 1428 H 131.686 -0.710125 -4.79672 0
M  V30 1429 N 133.029 1.57378 -0.0835403 0
M  V30 1430 C 134.277 1.93547 0.581718 0
M  V30 1431 C 134.598 0.96524 1.69435 0
M  V30 1432 O 133.868 0.0153369 1.95894 0
M  V30 1433 H 132.448 0.714521 0.217874 0
M  V30 1434 H 135.11 1.94366 -0.144158 0
M  V30 1435 H 134.206 2.95665 0.999423 0
M  V30 1436 N 134.507 -0.190092 1.56449 0
M  V30 1437 C 135.47 -1.21925 1.9408 0
M  V30 1438 C 136.47 -1.38176 0.822431 0
M  V30 1439 O 137.66 -1.35903 1.08977 0
M  V30 1440 C 134.792 -2.58773 2.21922 0
M  V30 1441 H 135.985 -0.897464 2.86157 0
M  V30 1442 H 133.538 -0.43181 1.50217 0
M  V30 1443 H 134.273 -2.95998 1.32499 0
M  V30 1444 H 134.058 -2.48348 3.03424 0
M  V30 1445 H 135.548 -3.32978 2.52022 0
M  V30 1446 N 135.985 -1.50799 -0.457987 0
M  V30 1447 C 137.213 -1.66218 -1.23203 0
M  V30 1448 C 137.628 -0.350894 -1.85511 0
M  V30 1449 O 136.985 0.668546 -1.69814 0
M  V30 1450 C 137.036 -2.76291 -2.33121 0
M  V30 1451 O 136.757 -4.02338 -1.73366 0
M  V30 1452 C 138.258 -3.028 -3.2377 0
M  V30 1453 H 135.478 -0.558361 -0.372121 0
M  V30 1454 H 138.022 -1.97099 -0.545179 0
M  V30 1455 H 136.177 -2.48068 -2.97558 0
M  V30 1456 H 136.591 -4.63312 -2.4585 0
M  V30 1457 H 138.065 -3.8345 -3.97077 0
M  V30 1458 H 138.542 -2.14385 -3.83322 0
M  V30 1459 H 139.148 -3.32604 -2.65056 0
M  V30 1460 N 137.463 0.71206 -1.40597 0
M  V30 1461 C 138.426 1.80785 -1.40888 0
M  V30 1462 C 139.426 1.57937 -0.302103 0
M  V30 1463 O 140.616 1.64913 -0.561182 0
M  V30 1464 C 137.748 3.18927 -1.20409 0
M  V30 1465 H 138.941 1.81924 -2.38419 0
M  V30 1466 H 136.494 0.91805 -1.26497 0
M  V30 1467 H 137.229 3.23436 -0.236522 0
M  V30 1468 H 137.014 3.36911 -2.00582 0
M  V30 1469 H 138.504 3.98949 -1.23408 0
M  V30 1470 N 138.941 1.26152 0.944643 0
M  V30 1471 C 139.873 1.03199 2.04652 0
M  V30 1472 C 140.886 -0.00642356 1.62799 0
M  V30 1473 O 142.075 0.233263 1.76969 0
M  V30 1474 C 139.175 0.540111 3.34568 0
M  V30 1475 C 138.348 1.64697 4.05208 0
M  V30 1476 C 137.407 1.15374 5.13396 0
M  V30 1477 O 136.433 1.85013 5.38293 0
M  V30 1478 N 137.635 0.00031529 5.805 0
M  V30 1479 H 140.4 1.9808 2.2491 0
M  V30 1480 H 137.961 1.17491 1.11389 0
M  V30 1481 H 139.953 0.194401 4.04233 0
M  V30 1482 H 138.523 -0.315021 3.11009 0
M  V30 1483 H 137.743 2.16379 3.29506 0
M  V30 1484 H 139.031 2.3903 4.49157 0
M  V30 1485 H 138.429 -0.581336 5.62705 0
M  V30 1486 H 136.986 -0.286346 6.51171 0
M  V30 1487 N 140.419 -1.14872 1.07899 0
M  V30 1488 C 141.351 -2.19425 0.662231 0
M  V30 1489 C 142.364 -1.60231 -0.288079 0
M  V30 1490 O 143.553 -1.78336 -0.076534 0
M  V30 1491 C 140.653 -3.38867 -0.0470695 0
M  V30 1492 C 139.826 -4.27597 0.920831 0
M  V30 1493 C 138.885 -5.25616 0.247805 0
M  V30 1494 O 137.911 -5.62189 0.890599 0
M  V30 1495 N 139.113 -5.71746 -1.00435 0
M  V30 1496 H 141.878 -2.55797 1.56166 0
M  V30 1497 H 139.439 -1.30042 0.964404 0
M  V30 1498 H 141.431 -4.01497 -0.50813 0
M  V30 1499 H 140.001 -3.00864 -0.848523 0
M  V30 1500 H 139.221 -3.61982 1.56087 0
M  V30 1501 H 140.509 -4.83748 1.57688 0
M  V30 1502 H 139.907 -5.44153 -1.54642 0
M  V30 1503 H 138.464 -6.36389 -1.40899 0
M  V30 1504 N 141.898 -0.863906 -1.31812 0
M  V30 1505 C 143.145 -0.471836 -1.96926 0
M  V30 1506 C 143.473 0.974578 -1.68322 0
M  V30 1507 O 142.728 1.7003 -0.968933 0
M  V30 1508 C 143.027 -0.668547 -3.51091 0
M  V30 1509 C 142.693 -2.08683 -3.99703 0
M  V30 1510 C 141.355 -2.47471 -4.12688 0
M  V30 1511 C 143.707 -3.01207 -4.25351 0
M  V30 1512 C 141.035 -3.78037 -4.4867 0
M  V30 1513 C 143.387 -4.31282 -4.62794 0
M  V30 1514 C 142.051 -4.69992 -4.73987 0
M  V30 1515 H 141.321 -0.172657 -0.720604 0
M  V30 1516 H 143.968 -1.09573 -1.57054 0
M  V30 1517 H 142.273 0.0385252 -3.91781 0
M  V30 1518 H 143.97 -0.345102 -3.99512 0
M  V30 1519 H 140.56 -1.77566 -3.90087 0
M  V30 1520 H 144.744 -2.72469 -4.14819 0
M  V30 1521 H 140 -4.078 -4.55532 0
M  V30 1522 H 144.174 -5.03031 -4.81594 0
M  V30 1523 H 141.801 -5.71207 -5.01624 0
M  V30 1524 N 143.376 1.44774 -0.622745 0
M  V30 1525 C 144.326 2.2774 0.108889 0
M  V30 1526 C 145.31 1.38189 0.824175 0
M  V30 1527 O 146.502 1.62063 0.711664 0
M  V30 1528 C 143.631 3.25353 1.09546 0
M  V30 1529 C 142.717 4.22392 0.380232 0
M  V30 1530 N 143.108 5.02388 -0.586535 0
M  V30 1531 C 141.406 4.41588 0.625792 0
M  V30 1532 C 142.107 5.72894 -1.00834 0
M  V30 1533 N 141.083 5.42479 -0.348878 0
M  V30 1534 H 144.885 2.86993 -0.63341 0
M  V30 1535 H 142.399 1.5611 -0.447589 0
M  V30 1536 H 144.396 3.83538 1.63414 0
M  V30 1537 H 143.056 2.6766 1.83815 0
M  V30 1538 H 144.067 5.0885 -0.963975 0
M  V30 1539 H 140.744 3.95003 1.352 0
M  V30 1540 H 142.134 6.47158 -1.80656 0
M  V30 1541 N 144.854 0.36279 1.53368 0
M  V30 1542 C 146.27 0.0116182 1.59596 0
M  V30 1543 C 146.47 -1.47012 1.37803 0
M  V30 1544 O 145.526 -2.23136 1.18181 0
M  V30 1545 C 146.839 0.465052 2.97082 0
M  V30 1546 C 148.387 0.419033 3.10182 0
M  V30 1547 C 148.862 0.848235 4.50077 0
M  V30 1548 N 150.353 0.803183 4.56183 0
M  V30 1549 C 151.088 1.107 5.62613 0
M  V30 1550 N 150.584 1.47996 6.76808 0
M  V30 1551 N 152.377 1.02998 5.52583 0
M  V30 1552 H 144.528 1.32775 1.65785 0
M  V30 1553 H 146.791 0.542518 0.777417 0
M  V30 1554 H 146.497 1.49892 3.18159 0
M  V30 1555 H 146.371 -0.149786 3.76902 0
M  V30 1556 H 148.758 -0.605696 2.88817 0
M  V30 1557 H 148.839 1.06933 2.32377 0
M  V30 1558 H 148.483 1.87107 4.7218 0
M  V30 1559 H 148.413 0.175218 5.26308 0
M  V30 1560 H 150.904 0.52838 3.74188 0
M  V30 1561 H 151.217 1.69613 7.53957 0
M  V30 1562 H 149.562 1.51859 6.78206 0
M  V30 1563 H 152.753 0.737817 4.62249 0
M  V30 1564 H 152.926 1.2701 6.35431 0
M  V30 1565 N 146.332 -1.57332 0.0918853 0
M  V30 1566 C 147.282 -2.10385 -0.87876 0
M  V30 1567 C 148.266 -1.01814 -1.24591 0
M  V30 1568 O 149.458 -1.28093 -1.22152 0
M  V30 1569 C 146.587 -2.68517 -2.13901 0
M  V30 1570 C 145.673 -3.84126 -1.79744 0
M  V30 1571 N 146.064 -4.92288 -1.1613 0
M  V30 1572 C 144.362 -3.93801 -2.09373 0
M  V30 1573 C 145.063 -5.7295 -1.00513 0
M  V30 1574 N 144.039 -5.21876 -1.5214 0
M  V30 1575 H 147.841 -2.91395 -0.38293 0
M  V30 1576 H 145.355 -1.62017 -0.111423 0
M  V30 1577 H 147.352 -3.04852 -2.84378 0
M  V30 1578 H 146.012 -1.88961 -2.64053 0
M  V30 1579 H 147.023 -5.1123 -0.828504 0
M  V30 1580 H 143.7 -3.25249 -2.61762 0
M  V30 1581 H 145.09 -6.69978 -0.507902 0
M  V30 1582 N 147.81 0.181792 -1.56548 0
M  V30 1583 C 148.757 1.22521 -1.95595 0
M  V30 1584 C 149.727 1.4454 -0.818373 0
M  V30 1585 O 150.912 1.57454 -1.07763 0
M  V30 1586 C 148.052 2.56193 -2.31212 0
M  V30 1587 C 147.165 2.41641 -3.58097 0
M  V30 1588 C 146.3 3.68108 -3.82975 0
M  V30 1589 C 145.339 3.48445 -5.03242 0
M  V30 1590 N 144.476 4.66956 -5.24306 0
M  V30 1591 H 149.316 0.885226 -2.84548 0
M  V30 1592 H 146.853 0.425718 -1.40805 0
M  V30 1593 H 148.811 3.34088 -2.49882 0
M  V30 1594 H 147.441 2.88208 -1.45382 0
M  V30 1595 H 146.493 1.54976 -3.474 0
M  V30 1596 H 147.805 2.23052 -4.46149 0
M  V30 1597 H 146.959 4.54441 -4.01956 0
M  V30 1598 H 145.698 3.89666 -2.93278 0
M  V30 1599 H 144.703 2.60499 -4.8417 0
M  V30 1600 H 145.928 3.2832 -5.9446 0
M  V30 1601 H 143.874 4.88752 -4.37559 0
M  V30 1602 H 143.791 4.51242 -6.06561 0
M  V30 1603 H 145.059 5.54602 -5.47756 0
M  V30 1604 N 149.288 1.51039 0.449983 0
M  V30 1605 C 150.22 1.67617 1.56324 0
M  V30 1606 C 151.233 0.557083 1.52972 0
M  V30 1607 O 152.422 0.830989 1.57977 0
M  V30 1608 C 149.522 1.66402 2.95235 0
M  V30 1609 C 148.695 2.9469 3.23229 0
M  V30 1610 C 147.754 2.85832 4.41799 0
M  V30 1611 O 146.78 3.59785 4.41071 0
M  V30 1612 N 147.982 2.00821 5.44657 0
M  V30 1613 H 150.747 2.63648 1.42512 0
M  V30 1614 H 148.308 1.48767 0.638737 0
M  V30 1615 H 150.3 1.58062 3.72557 0
M  V30 1616 H 148.87 0.780182 3.02708 0
M  V30 1617 H 148.09 3.16996 2.34323 0
M  V30 1618 H 149.378 3.79636 3.38754 0
M  V30 1619 H 148.776 1.40091 5.48079 0
M  V30 1620 H 147.333 1.98368 6.20881 0
M  V30 1621 N 150.766 -0.704594 1.40972 0
M  V30 1622 C 151.696 -1.83124 1.44872 0
M  V30 1623 C 152.677 -1.67281 0.30838 0
M  V30 1624 O 153.862 -1.87149 0.518556 0
M  V30 1625 C 150.992 -3.21181 1.32136 0
M  V30 1626 C 149.946 -3.51714 2.43888 0
M  V30 1627 C 149.272 -4.89032 2.16222 0
M  V30 1628 C 150.572 -3.516 3.86232 0
M  V30 1629 H 152.266 -1.80117 2.39161 0
M  V30 1630 H 149.812 -0.865145 1.15114 0
M  V30 1631 H 151.765 -3.99702 1.33479 0
M  V30 1632 H 150.489 -3.24791 0.343279 0
M  V30 1633 H 149.148 -2.75539 2.41813 0
M  V30 1634 H 148.796 -4.89256 1.16778 0
M  V30 1635 H 148.496 -5.10426 2.911 0
M  V30 1636 H 150.02 -5.69873 2.19265 0
M  V30 1637 H 151.434 -4.2014 3.9007 0
M  V30 1638 H 149.831 -3.84523 4.60719 0
M  V30 1639 H 150.901 -2.50757 4.15029 0
M  V30 1640 N 152.244 -1.26651 -0.937939 0
M  V30 1641 C 153.493 -1.11775 -1.67897 0
M  V30 1642 C 153.806 0.33794 -1.92659 0
M  V30 1643 O 155.012 0.607434 -2.64618 0
M  V30 1644 C 153.468 -1.9523 -3.02346 0
M  V30 1645 C 153.076 -3.45393 -2.8532 0
M  V30 1646 C 154.82 -1.88972 -3.80118 0
M  V30 1647 C 152.727 -4.21083 -4.15263 0
M  V30 1648 H 151.657 -0.414696 -0.629717 0
M  V30 1649 H 154.308 -1.50988 -1.04283 0
M  V30 1650 H 152.69 -1.48853 -3.66959 0
M  V30 1651 H 153.864 -3.99561 -2.29537 0
M  V30 1652 H 152.179 -3.52921 -2.20988 0
M  V30 1653 H 154.776 -2.42805 -4.76392 0
M  V30 1654 H 155.119 -0.86113 -4.07296 0
M  V30 1655 H 155.652 -2.33189 -3.22285 0
M  V30 1656 H 152.391 -5.24425 -3.93267 0
M  V30 1657 H 151.911 -3.71695 -4.70747 0
M  V30 1658 H 153.59 -4.29706 -4.83696 0
M  V30 1659 N 153.722 1.14298 -1.08507 0
M  V30 1660 C 155.138 1.37347 -0.812901 0
M  V30 1661 C 155.338 1.93052 0.577325 0
M  V30 1662 O 154.394 2.14389 1.33393 0
M  V30 1663 C 155.707 2.33359 -1.89642 0
M  V30 1664 C 157.255 2.46996 -1.92255 0
M  V30 1665 C 157.73 3.46309 -2.99724 0
M  V30 1666 N 159.221 3.53853 -2.98902 0
M  V30 1667 C 159.956 4.3055 -3.787 0
M  V30 1668 N 159.452 5.10482 -4.6838 0
M  V30 1669 N 161.245 4.25757 -3.66998 0
M  V30 1670 H 153.396 0.764867 -1.9815 0
M  V30 1671 H 155.659 0.398966 -0.859959 0
M  V30 1672 H 155.365 1.99565 -2.89597 0
M  V30 1673 H 155.239 3.33274 -1.76659 0
M  V30 1674 H 157.626 2.80081 -0.929445 0
M  V30 1675 H 157.707 1.47039 -2.09316 0
M  V30 1676 H 157.351 3.13957 -3.99241 0
M  V30 1677 H 157.281 4.46049 -2.79907 0
M  V30 1678 H 159.772 2.96812 -2.33904 0
M  V30 1679 H 160.085 5.66284 -5.25873 0
M  V30 1680 H 158.43 5.09747 -4.72422 0
M  V30 1681 H 161.621 3.62383 -2.96304 0
M  V30 1682 H 161.794 4.85279 -4.29427 0
M  V30 1683 N 155.201 0.870884 1.31352 0
M  V30 1684 C 156.448 0.482273 1.96673 0
M  V30 1685 C 156.776 -0.965638 1.68836 0
M  V30 1686 O 156.031 -1.69514 0.977937 0
M  V30 1687 C 156.33 0.687157 3.50732 0
M  V30 1688 C 155.996 2.108 3.9859 0
M  V30 1689 C 154.658 2.49656 4.1137 0
M  V30 1690 C 157.01 3.03459 4.23748 0
M  V30 1691 C 154.338 3.80412 4.46659 0
M  V30 1692 C 156.69 4.3373 4.60501 0
M  V30 1693 C 155.354 4.725 4.71487 0
M  V30 1694 H 154.624 0.176476 0.719679 0
M  V30 1695 H 157.271 1.10405 1.56471 0
M  V30 1696 H 155.576 -0.0177476 3.91796 0
M  V30 1697 H 157.273 0.366284 3.99324 0
M  V30 1698 H 153.863 1.79633 3.8914 0
M  V30 1699 H 158.047 2.74665 4.13368 0
M  V30 1700 H 153.303 4.1021 4.53362 0
M  V30 1701 H 157.477 5.05578 4.78919 0
M  V30 1702 H 155.104 5.73859 4.98588 0
M  V30 1703 N 156.679 -1.44442 0.630414 0
M  V30 1704 C 157.609 -2.33418 -0.0618083 0
M  V30 1705 C 158.59 -1.48165 -0.835541 0
M  V30 1706 O 159.775 -1.76886 -0.801564 0
M  V30 1707 C 156.905 -3.31222 -1.04449 0
M  V30 1708 C 155.859 -4.26288 -0.382436 0
M  V30 1709 C 155.185 -5.13954 -1.47497 0
M  V30 1710 C 156.485 -5.1744 0.710865 0
M  V30 1711 H 158.179 -2.91548 0.681184 0
M  V30 1712 H 155.725 -1.40191 0.329026 0
M  V30 1713 H 157.678 -3.92351 -1.53748 0
M  V30 1714 H 156.402 -2.71299 -1.81836 0
M  V30 1715 H 155.061 -3.6649 0.0899054 0
M  V30 1716 H 154.709 -4.50385 -2.2397 0
M  V30 1717 H 154.409 -5.7837 -1.03737 0
M  V30 1718 H 155.933 -5.77955 -1.96979 0
M  V30 1719 H 157.347 -5.72509 0.300996 0
M  V30 1720 H 155.744 -5.90455 1.07156 0
M  V30 1721 H 156.814 -4.58496 1.57829 0
M  V30 1722 N 158.157 -0.370918 -1.53173 0
M  V30 1723 C 159.104 0.473035 -2.259 0
M  V30 1724 C 160.074 1.07311 -1.26781 0
M  V30 1725 O 161.259 1.1046 -1.55574 0
M  V30 1726 C 158.399 1.60405 -3.05556 0
M  V30 1727 C 157.512 1.02863 -4.19575 0
M  V30 1728 C 156.647 2.12918 -4.86661 0
M  V30 1729 C 155.686 1.52869 -5.92704 0
M  V30 1730 N 154.823 2.56779 -6.53459 0
M  V30 1731 H 159.663 -0.153649 -2.97604 0
M  V30 1732 H 157.2 -0.0875946 -1.46839 0
M  V30 1733 H 159.158 2.27034 -3.50016 0
M  V30 1734 H 157.788 2.20131 -2.36097 0
M  V30 1735 H 156.84 0.252465 -3.79561 0
M  V30 1736 H 158.152 0.549642 -4.95762 0
M  V30 1737 H 157.306 2.87356 -5.34333 0
M  V30 1738 H 156.045 2.6417 -4.09958 0
M  V30 1739 H 155.05 0.769479 -5.44389 0
M  V30 1740 H 156.275 1.02435 -6.7133 0
M  V30 1741 H 154.221 3.07235 -5.79606 0
M  V30 1742 H 154.138 2.13583 -7.25202 0
M  V30 1743 H 155.406 3.30903 -7.05779 0
M  V30 1744 N 159.635 1.57281 -0.100228 0
M  V30 1745 C 161.051 1.57527 0.256416 0
M  V30 1746 C 161.251 1.11173 1.68056 0
M  V30 1747 O 160.307 0.79053 2.39806 0
M  V30 1748 C 161.62 3.00673 0.0401747 0
M  V30 1749 C 163.168 3.12815 0.107528 0
M  V30 1750 C 163.643 4.57929 -0.0807834 0
M  V30 1751 N 165.134 4.63193 -0.0261207 0
M  V30 1752 C 165.869 5.73212 -0.146999 0
M  V30 1753 N 165.365 6.92047 -0.322999 0
M  V30 1754 N 167.158 5.62031 -0.0879044 0
M  V30 1755 H 159.309 1.85718 -1.03065 0
M  V30 1756 H 161.572 0.857446 -0.404339 0
M  V30 1757 H 161.278 3.38804 -0.943649 0
M  V30 1758 H 161.152 3.69042 0.780262 0
M  V30 1759 H 163.539 2.74554 1.08186 0
M  V30 1760 H 163.62 2.47028 -0.664134 0
M  V30 1761 H 163.264 4.96886 -1.05201 0
M  V30 1762 H 163.194 5.21783 0.710635 0
M  V30 1763 H 165.685 3.77748 0.107161 0
M  V30 1764 H 165.998 7.7173 -0.406608 0
M  V30 1765 H 164.343 6.94074 -0.358733 0
M  V30 1766 H 167.534 4.68075 0.048498 0
M  V30 1767 H 167.707 6.47734 -0.185557 0
M  V30 1768 N 161.113 -0.173488 1.56642 0
M  V30 1769 C 162.043 -1.2171 1.99271 0
M  V30 1770 C 163.024 -1.46289 0.867959 0
M  V30 1771 O 164.209 -1.5766 1.13388 0
M  V30 1772 C 161.339 -2.55651 2.35074 0
M  V30 1773 C 160.293 -2.45645 3.50489 0
M  V30 1774 C 159.619 -3.84056 3.72028 0
M  V30 1775 C 160.919 -1.96302 4.84007 0
M  V30 1776 H 162.613 -0.86275 2.867 0
M  V30 1777 H 160.159 -0.413571 1.37933 0
M  V30 1778 H 162.112 -3.2886 2.63494 0
M  V30 1779 H 160.836 -2.92869 1.44552 0
M  V30 1780 H 159.495 -1.7489 3.22194 0
M  V30 1781 H 159.143 -4.18664 2.788 0
M  V30 1782 H 158.843 -3.7823 4.49684 0
M  V30 1783 H 160.367 -4.58854 4.02846 0
M  V30 1784 H 161.781 -2.59284 5.11317 0
M  V30 1785 H 160.178 -2.01429 5.65284 0
M  V30 1786 H 161.248 -0.917226 4.76146 0
M  V30 1787 N 162.591 -1.51276 -0.441967 0
M  V30 1788 C 163.868 -1.54252 -1.20273 0
M  V30 1789 C 164.248 -0.30408 -2.08898 0
M  V30 1790 O 163.596 0.711084 -2.17154 0
M  V30 1791 C 163.806 -2.85406 -2.00859 0
M  V30 1792 C 165.154 -3.37181 -2.58059 0
M  V30 1793 O 166.178 -2.86925 -2.11074 0
M  V30 1794 O 165.037 -4.24858 -3.43741 0
M  V30 1795 H 162.131 -0.619969 -0.547328 0
M  V30 1796 H 164.677 -1.63586 -0.451413 0
M  V30 1797 H 163.449 -3.67003 -1.35736 0
M  V30 1798 H 163.072 -2.79213 -2.83065 0
M  V30 1799 N 164.069 0.697108 -1.41344 0
M  V30 1800 C 165.485 1.00751 -1.2378 0
M  V30 1801 C 165.685 2.01105 -0.126066 0
M  V30 1802 O 164.741 2.47295 0.51004 0
M  V30 1803 C 166.054 1.53359 -2.58653 0
M  V30 1804 C 167.602 1.6525 -2.65822 0
M  V30 1805 C 168.077 2.2126 -4.01009 0
M  V30 1806 N 169.568 2.28622 -4.02847 0
M  V30 1807 C 170.303 2.72984 -5.04249 0
M  V30 1808 N 169.799 3.16962 -6.16041 0
M  V30 1809 N 171.592 2.72534 -4.91611 0
M  V30 1810 H 163.743 0.0322662 -2.12375 0
M  V30 1811 H 166.006 0.0768853 -0.944877 0
M  V30 1812 H 165.712 0.870773 -3.4075 0
M  V30 1813 H 165.586 2.51597 -2.81032 0
M  V30 1814 H 167.973 2.30644 -1.84086 0
M  V30 1815 H 168.054 0.655614 -2.47256 0
M  V30 1816 H 167.698 1.56482 -4.83193 0
M  V30 1817 H 167.628 3.21698 -4.16915 0
M  V30 1818 H 170.119 1.97585 -3.22131 0
M  V30 1819 H 170.432 3.49434 -6.89287 0
M  V30 1820 H 168.777 3.14875 -6.1958 0
M  V30 1821 H 171.968 2.37525 -4.0336 0
M  V30 1822 H 172.141 3.06789 -5.70775 0
M  V30 1823 N 165.547 1.27147 0.931209 0
M  V30 1824 C 166.495 1.09398 2.05268 0
M  V30 1825 C 167.489 0.0180591 1.6939 0
M  V30 1826 O 168.695 0.17551 1.79142 0
M  V30 1827 H 165.07 0.336986 0.672268 0
M  V30 1828 H 167.041 2.04416 2.17386 0
M  V30 1829 C 165.79 0.75424 3.39421 0
M  V30 1830 H 165.113 1.57404 3.67511 0
M  V30 1831 H 166.553 0.669903 4.18674 0
M  V30 1832 C 165.012 -0.541197 3.32525 0
M  V30 1833 O 165.542 -1.57664 3.69466 0
M  V30 1834 N 163.748 -0.535517 2.85623 0
M  V30 1835 H 163.295 0.307511 2.55758 0
M  V30 1836 H 163.253 -1.40236 2.81392 0
M  V30 1837 N 167.025 -1.13721 1.09112 0
M  V30 1838 C 167.955 -2.21148 0.749385 0
M  V30 1839 C 168.936 -1.6792 -0.271475 0
M  V30 1840 O 170.121 -1.93693 -0.140251 0
M  V30 1841 C 167.251 -3.46905 0.165659 0
M  V30 1842 C 166.205 -4.13203 1.11567 0
M  V30 1843 C 165.531 -5.33248 0.393809 0
M  V30 1844 C 166.831 -4.60912 2.45678 0
M  V30 1845 H 168.525 -2.4999 1.64758 0
M  V30 1846 H 166.071 -1.20156 0.793626 0
M  V30 1847 H 168.024 -4.21313 -0.085466 0
M  V30 1848 H 166.748 -3.17449 -0.767714 0
M  V30 1849 H 165.407 -3.40758 1.35202 0
M  V30 1850 H 165.055 -5.00054 -0.543599 0
M  V30 1851 H 164.755 -5.78552 1.02721 0
M  V30 1852 H 166.279 -6.10413 0.150908 0
M  V30 1853 H 167.693 -5.26759 2.26269 0
M  V30 1854 H 166.09 -5.16944 3.04776 0
M  V30 1855 H 167.16 -3.75603 3.06677 0
M  V30 1856 N 168.503 -0.877838 -1.30888 0
M  V30 1857 C 169.749 -0.502773 -1.97088 0
M  V30 1858 C 170.104 0.936274 -1.68082 0
M  V30 1859 O 169.397 1.65162 -0.971196 0
M  V30 1860 C 169.591 -0.705748 -3.50363 0
M  V30 1861 C 169.42 -2.16297 -3.94266 0
M  V30 1862 C 168.19 -2.80614 -4.20219 0
M  V30 1863 C 170.388 -3.13606 -4.07622 0
M  V30 1864 N 168.37 -4.17007 -4.50532 0
M  V30 1865 C 169.741 -4.35051 -4.41736 0
M  V30 1866 C 171.796 -3.09491 -3.90026 0
M  V30 1867 C 170.499 -5.52911 -4.60089 0
M  V30 1868 C 172.525 -4.26616 -4.09576 0
M  V30 1869 C 171.887 -5.46825 -4.44029 0
M  V30 1870 H 167.986 -0.233168 -0.746429 0
M  V30 1871 H 170.57 -1.13408 -1.58261 0
M  V30 1872 H 168.741 -0.103976 -3.88261 0
M  V30 1873 H 170.473 -0.298291 -4.03599 0
M  V30 1874 H 167.228 -2.3152 -4.13153 0
M  V30 1875 H 167.652 -4.87426 -4.69834 0
M  V30 1876 H 172.294 -2.17657 -3.62471 0
M  V30 1877 H 170.012 -6.45255 -4.86489 0
M  V30 1878 H 173.598 -4.24894 -3.97438 0
M  V30 1879 H 172.478 -6.35947 -4.58848 0
M  V30 1880 N 169.982 1.44106 -0.638065 0
M  V30 1881 C 171.23 2.01579 -0.145043 0
M  V30 1882 C 171.551 1.50496 1.24 0
M  V30 1883 O 170.821 0.711374 1.82527 0
M  V30 1884 H 169.401 0.745282 -0.05063 0
M  V30 1885 H 172.063 1.76516 -0.826327 0
M  V30 1886 H 171.159 3.11877 -0.118039 0
M  V30 1887 N 171.46 0.379036 1.52974 0
M  V30 1888 C 172.39 -0.452706 2.29069 0
M  V30 1889 C 173.371 -1.07237 1.32039 0
M  V30 1890 O 174.556 -1.08708 1.60923 0
M  V30 1891 C 171.686 -1.5856 3.08992 0
M  V30 1892 C 170.64 -1.0925 4.13822 0
M  V30 1893 C 169.966 -2.31668 4.81907 0
M  V30 1894 C 171.266 -0.167702 5.22031 0
M  V30 1895 H 172.96 0.182181 2.98845 0
M  V30 1896 H 170.506 0.0890592 1.43724 0
M  V30 1897 H 172.459 -2.1742 3.6098 0
M  V30 1898 H 171.183 -2.24792 2.36931 0
M  V30 1899 H 169.842 -0.526494 3.628 0
M  V30 1900 H 169.49 -2.96386 4.06404 0
M  V30 1901 H 169.19 -1.9934 5.52754 0
M  V30 1902 H 170.714 -2.91189 5.36695 0
M  V30 1903 H 172.128 -0.664186 5.6944 0
M  V30 1904 H 170.525 0.0653265 6.00064 0
M  V30 1905 H 171.595 0.786347 4.78482 0
M  V30 1906 N 172.938 -1.57226 0.108567 0
M  V30 1907 C 173.901 -2.13602 -0.831082 0
M  V30 1908 C 174.901 -1.06841 -1.20173 0
M  V30 1909 O 176.091 -1.32666 -1.12895 0
M  V30 1910 C 173.223 -2.66769 -2.12243 0
M  V30 1911 H 174.416 -2.97951 -0.341317 0
M  V30 1912 H 171.969 -1.55667 -0.14057 0
M  V30 1913 H 172.704 -1.85977 -2.65675 0
M  V30 1914 H 172.489 -3.44839 -1.86625 0
M  V30 1915 H 173.979 -3.10332 -2.79435 0
M  V30 1916 N 174.416 0.165178 -1.56732 0
M  V30 1917 C 175.664 0.879068 -1.8198 0
M  V30 1918 C 175.985 1.82514 -0.686561 0
M  V30 1919 O 175.255 1.93694 0.293146 0
M  V30 1920 H 173.835 0.327608 -0.671329 0
M  V30 1921 H 176.497 0.163526 -1.94213 0
M  V30 1922 H 175.593 1.45228 -2.76252 0
M  V30 1923 N 175.894 1.51508 0.433938 0
M  V30 1924 C 176.824 1.76016 1.53429 0
M  V30 1925 C 177.805 0.610112 1.58782 0
M  V30 1926 O 178.99 0.853177 1.74455 0
M  V30 1927 C 176.12 1.88831 2.9148 0
M  V30 1928 C 175.074 3.04288 3.00987 0
M  V30 1929 C 174.4 3.0229 4.4105 0
M  V30 1930 C 175.7 4.44193 2.74754 0
M  V30 1931 H 177.394 2.68152 1.33171 0
M  V30 1932 H 174.94 1.29035 0.639214 0
M  V30 1933 H 176.893 2.04559 3.6842 0
M  V30 1934 H 175.617 0.933455 3.12976 0
M  V30 1935 H 174.276 2.8827 2.26486 0
M  V30 1936 H 173.924 2.04576 4.59519 0
M  V30 1937 H 173.624 3.79822 4.4834 0
M  V30 1938 H 175.148 3.20116 5.1996 0
M  V30 1939 H 176.562 4.60544 3.41426 0
M  V30 1940 H 174.959 5.23457 2.9345 0
M  V30 1941 H 176.029 4.53996 1.70339 0
M  V30 1942 N 177.372 -0.689602 1.41712 0
M  V30 1943 C 178.32 -1.82475 1.44242 0
M  V30 1944 C 179.314 -1.66354 0.319774 0
M  V30 1945 O 180.52 -1.73143 0.492089 0
M  V30 1946 H 176.895 -0.601416 0.451445 0
M  V30 1947 H 178.866 -1.77458 2.39899 0
M  V30 1948 C 177.615 -3.20535 1.3473 0
M  V30 1949 H 176.938 -3.33559 2.20405 0
M  V30 1950 H 178.378 -4.00023 1.40562 0
M  V30 1951 C 176.837 -3.36846 0.0603281 0
M  V30 1952 O 177.367 -3.91656 -0.892663 0
M  V30 1953 N 175.573 -2.90595 -0.0177039 0
M  V30 1954 H 175.12 -2.46178 0.758572 0
M  V30 1955 H 175.078 -3.01886 -0.878201 0
M  V30 1956 N 178.85 -1.27639 -0.924453 0
M  V30 1957 C 180.075 -1.17101 -1.71179 0
M  V30 1958 C 180.5 0.268134 -1.86179 0
M  V30 1959 O 179.858 1.19415 -1.36418 0
M  V30 1960 C 179.906 -1.86313 -3.08739 0
M  V30 1961 O 179.01 -1.16331 -3.95652 0
M  V30 1962 H 178.351 -0.407091 -0.524569 0
M  V30 1963 H 180.881 -1.68767 -1.15666 0
M  V30 1964 H 180.891 -1.938 -3.59034 0
M  V30 1965 H 179.566 -2.91001 -2.97138 0
M  V30 1966 H 178.143 -1.16935 -3.54091 0
M  V30 1967 N 180.328 1.1314 -1.09713 0
M  V30 1968 C 181.568 1.8613 -0.844683 0
M  V30 1969 C 181.932 1.81765 0.618491 0
M  V30 1970 O 183.133 2.50024 0.98699 0
M  V30 1971 C 181.404 3.30151 -1.36877 0
M  V30 1972 S 182.963 4.206 -1.25064 0
M  V30 1973 H 179.781 0.642056 -0.305427 0
M  V30 1974 H 182.383 1.36343 -1.4011 0
M  V30 1975 H 181.087 3.30883 -2.42786 0
M  V30 1976 H 180.618 3.85 -0.808614 0
M  V30 1977 H 182.633 4.95783 -0.203486 0
M  V30 1978 N 181.806 0.884767 1.30421 0
M  V30 1979 C 183.217 0.553656 1.78302 0
M  V30 1980 C 183.568 -0.930153 1.7275 0
M  V30 1981 O 182.693 -1.72681 1.30423 0
M  V30 1982 C 183.288 0.998234 3.2376 0
M  V30 1983 C 181.847 0.71854 3.69478 0
M  V30 1984 C 180.994 1.18132 2.50879 0
M  V30 1985 H 183.945 1.06901 1.17294 0
M  V30 1986 H 183.966 0.327118 3.79091 0
M  V30 1987 H 183.478 2.0782 3.27769 0
M  V30 1988 H 181.579 -0.349444 3.70958 0
M  V30 1989 H 181.692 1.30595 4.60958 0
M  V30 1990 H 180.056 0.600669 2.47516 0
M  V30 1991 H 180.839 2.26902 2.57624 0
M  V30 1992 N 183.284 -1.43765 0.645699 0
M  V30 1993 C 184.53 -2.02197 0.156271 0
M  V30 1994 C 184.863 -1.50776 -1.22393 0
M  V30 1995 O 184.138 -0.697771 -1.81553 0
M  V30 1996 C 184.421 -3.59749 0.158872 0
M  V30 1997 C 184.274 -4.21419 1.57245 0
M  V30 1998 C 185.593 -4.37149 -0.50879 0
M  V30 1999 H 182.712 -0.734694 0.0582602 0
M  V30 2000 H 185.354 -1.71157 0.824951 0
M  V30 2001 H 183.504 -3.86325 -0.410525 0
M  V30 2002 H 185.176 -4.059 2.19186 0
M  V30 2003 H 183.419 -3.78356 2.122 0
M  V30 2004 H 184.09 -5.30482 1.52619 0
M  V30 2005 H 186.566 -4.16093 -0.024412 0
M  V30 2006 H 185.442 -5.4683 -0.476213 0
M  V30 2007 H 185.703 -4.12839 -1.58165 0
M  V30 2008 N 184.763 -0.387143 -1.52771 0
M  V30 2009 C 185.71 0.449048 -2.26389 0
M  V30 2010 C 186.68 1.05961 -1.27912 0
M  V30 2011 O 187.865 1.08804 -1.56737 0
M  V30 2012 C 185.005 1.57155 -3.0724 0
M  V30 2013 C 184.118 0.984066 -4.20643 0
M  V30 2014 C 183.253 2.07745 -4.88892 0
M  V30 2015 C 182.292 1.46574 -5.94292 0
M  V30 2016 N 181.429 2.49834 -6.56146 0
M  V30 2017 H 186.269 -0.185205 -2.97424 0
M  V30 2018 H 183.806 -0.103164 -1.46738 0
M  V30 2019 H 185.764 2.23309 -3.52405 0
M  V30 2020 H 184.394 2.17615 -2.38419 0
M  V30 2021 H 183.446 0.212193 -3.79808 0
M  V30 2022 H 184.758 0.497029 -4.96318 0
M  V30 2023 H 183.912 2.81673 -5.3735 0
M  V30 2024 H 182.651 2.59807 -4.12737 0
M  V30 2025 H 181.656 0.711696 -5.45174 0
M  V30 2026 H 182.881 0.953088 -6.72379 0
M  V30 2027 H 180.827 3.0107 -5.82832 0
M  V30 2028 H 180.744 2.05879 -7.27427 0
M  V30 2029 H 182.012 3.23399 -7.09249 0
M  V30 2030 N 186.241 1.57166 -0.116904 0
M  V30 2031 C 187.151 2.18745 0.847812 0
M  V30 2032 C 188.167 1.163 1.29423 0
M  V30 2033 O 189.343 1.48761 1.35765 0
M  V30 2034 C 186.408 2.77307 2.0809 0
M  V30 2035 C 185.469 3.94781 1.68661 0
M  V30 2036 C 184.702 4.50541 2.86091 0
M  V30 2037 O 184.925 4.05202 4.01456 0
M  V30 2038 O 183.859 5.41256 2.63298 0
M  V30 2039 H 187.685 3.01632 0.353778 0
M  V30 2040 H 185.27 1.49005 0.108599 0
M  V30 2041 H 187.152 3.14647 2.80313 0
M  V30 2042 H 185.827 1.97452 2.56504 0
M  V30 2043 H 184.734 3.62214 0.935518 0
M  V30 2044 H 186.067 4.76065 1.24991 0
M  V30 2045 N 187.719 -0.156864 1.56817 0
M  V30 2046 C 188.682 -1.17781 1.96622 0
M  V30 2047 C 189.682 -1.36401 0.851555 0
M  V30 2048 O 190.872 -1.33561 1.11836 0
M  V30 2049 C 188.004 -2.54008 2.27361 0
M  V30 2050 H 189.197 -0.836564 2.87996 0
M  V30 2051 H 186.75 -0.39985 1.51099 0
M  V30 2052 H 187.485 -2.9312 1.38748 0
M  V30 2053 H 187.27 -2.41856 3.08623 0
M  V30 2054 H 188.76 -3.27558 2.59029 0
M  V30 2055 N 189.197 -1.51736 -0.425897 0
M  V30 2056 C 190.145 -1.74464 -1.53834 0
M  V30 2057 C 191.139 -0.611241 -1.57988 0
M  V30 2058 O 192.345 -0.792899 -1.61596 0
M  V30 2059 H 188.72 -0.551437 -0.511293 0
M  V30 2060 H 190.691 -2.67694 -1.31843 0
M  V30 2061 C 189.44 -1.8972 -2.91379 0
M  V30 2062 H 188.763 -2.76344 -2.88919 0
M  V30 2063 H 190.203 -2.09629 -3.68553 0
M  V30 2064 C 188.662 -0.65992 -3.30374 0
M  V30 2065 O 189.192 0.180083 -4.01296 0
M  V30 2066 N 187.398 -0.500677 -2.86254 0
M  V30 2067 H 186.945 -1.18532 -2.28709 0
M  V30 2068 H 186.903 0.325903 -3.12706 0
M  V30 2069 N 190.675 0.682077 -1.42076 0
M  V30 2070 C 191.607 1.80755 -1.40926 0
M  V30 2071 C 192.62 1.59833 -0.309398 0
M  V30 2072 O 193.809 1.69087 -0.572014 0
M  V30 2073 C 190.909 3.17744 -1.17865 0
M  V30 2074 C 190.082 3.65578 -2.40149 0
M  V30 2075 C 189.141 4.81277 -2.12742 0
M  V30 2076 O 188.167 4.92197 -2.85887 0
M  V30 2077 N 189.369 5.69474 -1.12602 0
M  V30 2078 H 192.134 1.82229 -2.37935 0
M  V30 2079 H 189.695 0.864903 -1.36861 0
M  V30 2080 H 191.687 3.9279 -0.9746 0
M  V30 2081 H 190.257 3.11214 -0.294068 0
M  V30 2082 H 189.477 2.81291 -2.76169 0
M  V30 2083 H 190.765 3.94278 -3.21593 0
M  V30 2084 H 190.163 5.63297 -0.520899 0
M  V30 2085 H 188.72 6.44363 -0.981842 0
M  V30 2086 N 192.153 1.28127 0.917671 0
M  V30 2087 C 193.378 1.18007 1.70555 0
M  V30 2088 C 193.803 -0.258257 1.86319 0
M  V30 2089 O 193.161 -1.1869 1.37049 0
M  V30 2090 C 193.209 1.87948 3.07746 0
M  V30 2091 O 192.313 1.18427 3.9503 0
M  V30 2092 H 191.654 0.409867 0.522403 0
M  V30 2093 H 194.184 1.69379 1.1477 0
M  V30 2094 H 194.194 1.95701 3.58001 0
M  V30 2095 H 192.869 2.92573 2.95591 0
M  V30 2096 H 191.446 1.18811 3.53466 0
M  V30 2097 N 193.631 -1.12557 1.10312 0
M  V30 2098 C 194.859 -1.87864 0.866873 0
M  V30 2099 C 195.274 -1.79588 -0.582557 0
M  V30 2100 O 194.631 -1.16887 -1.40156 0
M  V30 2101 C 194.682 -3.37125 1.30496 0
M  V30 2102 O 194.403 -3.45201 2.69755 0
M  V30 2103 C 195.904 -4.29373 1.10243 0
M  V30 2104 H 193.124 -0.594452 0.311236 0
M  V30 2105 H 195.668 -1.42429 1.46745 0
M  V30 2106 H 193.823 -3.80109 0.748081 0
M  V30 2107 H 194.237 -4.38056 2.88457 0
M  V30 2108 H 195.711 -5.32394 1.45811 0
M  V30 2109 H 196.188 -4.39181 0.0409492 0
M  V30 2110 H 196.794 -3.92169 1.64571 0
M  V30 2111 N 195.109 -0.891671 -1.2995 0
M  V30 2112 C 196.039 -0.379797 -2.30391 0
M  V30 2113 C 197.02 0.540919 -1.6127 0
M  V30 2114 O 198.205 0.453352 -1.88834 0
M  V30 2115 C 195.335 0.400654 -3.44981 0
M  V30 2116 C 194.289 -0.428905 -4.25846 0
M  V30 2117 C 193.615 0.478557 -5.32554 0
M  V30 2118 C 194.915 -1.67458 -4.94727 0
M  V30 2119 H 196.609 -1.21914 -2.73454 0
M  V30 2120 H 194.155 -0.587675 -1.31462 0
M  V30 2121 H 196.108 0.769434 -4.14316 0
M  V30 2122 H 194.832 1.27371 -3.0074 0
M  V30 2123 H 193.491 -0.779911 -3.58208 0
M  V30 2124 H 193.139 1.34951 -4.84559 0
M  V30 2125 H 192.839 -0.0727433 -5.87555 0
M  V30 2126 H 194.363 0.843705 -6.04743 0
M  V30 2127 H 195.777 -1.376 -5.56542 0
M  V30 2128 H 194.174 -2.16659 -5.59624 0
M  V30 2129 H 195.244 -2.41518 -4.20473 0
M  V30 2130 N 196.587 1.43421 -0.653314 0
M  V30 2131 C 197.497 2.34568 0.0388565 0
M  V30 2132 C 198.513 1.53888 0.81207 0
M  V30 2133 O 199.689 1.86539 0.759294 0
M  V30 2134 C 196.754 3.32167 0.993269 0
M  V30 2135 C 195.815 4.28751 0.216977 0
M  V30 2136 C 195.048 5.21688 1.12593 0
M  V30 2137 O 195.271 5.19052 2.36519 0
M  V30 2138 O 194.205 5.98919 0.598284 0
M  V30 2139 H 198.031 2.95251 -0.711386 0
M  V30 2140 H 195.616 1.43564 -0.413502 0
M  V30 2141 H 197.498 3.92183 1.54176 0
M  V30 2142 H 196.173 2.73987 1.72374 0
M  V30 2143 H 195.08 3.72215 -0.375101 0
M  V30 2144 H 196.413 4.89913 -0.473924 0
M  V30 2145 N 198.065 0.39524 1.52563 0
M  V30 2146 C 199.013 -0.451859 2.28169 0
M  V30 2147 C 200.007 -1.05792 1.32304 0
M  V30 2148 O 201.213 -0.997718 1.49818 0
M  V30 2149 H 197.588 -0.164481 0.733792 0
M  V30 2150 H 199.559 0.207199 2.9768 0
M  V30 2151 C 198.308 -1.56385 3.10546 0
M  V30 2152 H 197.631 -1.10682 3.84174 0
M  V30 2153 H 199.071 -2.13067 3.66577 0
M  V30 2154 C 197.53 -2.52328 2.23231 0
M  V30 2155 O 198.06 -3.5588 1.86312 0
M  V30 2156 N 196.266 -2.22209 1.87274 0
M  V30 2157 H 195.813 -1.38033 2.17496 0
M  V30 2158 H 195.771 -2.86652 1.29143 0
M  V30 2159 N 199.544 -1.57102 0.125237 0
M  V30 2160 C 200.791 -1.95407 -0.531248 0
M  V30 2161 C 201.119 -1.0089 -1.66287 0
M  V30 2162 O 200.374 -0.0339431 -1.95671 0
M  V30 2163 C 200.673 -3.40096 -1.09862 0
M  V30 2164 C 200.339 -4.50815 -0.0876989 0
M  V30 2165 C 199.001 -4.80824 0.19026 0
M  V30 2166 C 201.353 -5.17724 0.600902 0
M  V30 2167 C 198.681 -5.75058 1.163 0
M  V30 2168 C 201.033 -6.13005 1.56231 0
M  V30 2169 C 199.697 -6.41403 1.8482 0
M  V30 2170 H 198.967 -0.715046 -0.194397 0
M  V30 2171 H 201.614 -1.90373 0.207463 0
M  V30 2172 H 199.919 -3.41855 -1.91422 0
M  V30 2173 H 201.616 -3.6705 -1.61478 0
M  V30 2174 H 198.206 -4.27444 -0.314528 0
M  V30 2175 H 202.39 -4.94691 0.399333 0
M  V30 2176 H 197.646 -5.95362 1.39117 0
M  V30 2177 H 201.82 -6.63934 2.10153 0
M  V30 2178 H 199.447 -7.14229 2.60349 0
M  V30 2179 N 201.022 0.148545 -1.56898 0
M  V30 2180 C 201.952 1.18524 -2.01182 0
M  V30 2181 C 202.933 1.4489 -0.891123 0
M  V30 2182 O 204.118 1.55836 -1.15882 0
M  V30 2183 C 201.248 2.51879 -2.39112 0
M  V30 2184 C 200.202 2.40038 -3.54353 0
M  V30 2185 C 199.528 3.78089 -3.78091 0
M  V30 2186 C 200.828 1.88577 -4.87069 0
M  V30 2187 H 202.522 0.817029 -2.88036 0
M  V30 2188 H 200.068 0.391575 -1.38574 0
M  V30 2189 H 202.021 3.24627 -2.68692 0
M  V30 2190 H 200.745 2.90532 -1.49193 0
M  V30 2191 H 199.404 1.69742 -3.24936 0
M  V30 2192 H 199.052 4.14175 -2.85426 0
M  V30 2193 H 198.752 3.71028 -4.55645 0
M  V30 2194 H 200.276 4.52387 -4.10095 0
M  V30 2195 H 201.69 2.51117 -5.15377 0
M  V30 2196 H 200.087 1.9241 -5.68417 0
M  V30 2197 H 201.157 0.84136 -4.77545 0
M  V30 2198 N 202.5 1.5196 0.417844 0
M  V30 2199 C 203.41 1.77554 1.53336 0
M  V30 2200 C 204.426 0.660655 1.6097 0
M  V30 2201 O 205.602 0.945099 1.77848 0
M  V30 2202 C 202.667 1.91291 2.89152 0
M  V30 2203 C 201.728 3.15183 2.91475 0
M  V30 2204 C 200.961 3.28256 4.20813 0
M  V30 2205 O 201.184 2.46798 5.14244 0
M  V30 2206 O 200.118 4.21356 4.29817 0
M  V30 2207 H 203.944 2.7222 1.34647 0
M  V30 2208 H 201.529 1.36698 0.602828 0
M  V30 2209 H 203.411 2.02199 3.69721 0
M  V30 2210 H 202.086 0.998129 3.07927 0
M  V30 2211 H 200.993 3.09739 2.09791 0
M  V30 2212 H 202.326 4.06414 2.77648 0
M  V30 2213 N 203.978 -0.674533 1.42435 0
M  V30 2214 C 205.394 -0.98769 1.25367 0
M  V30 2215 C 205.594 -2.00879 0.158044 0
M  V30 2216 O 204.65 -2.48075 -0.470633 0
M  V30 2217 C 205.963 -1.49224 2.6106 0
M  V30 2218 C 207.511 -1.61 2.68417 0
M  V30 2219 C 207.986 -2.14852 4.04478 0
M  V30 2220 N 209.477 -2.22185 4.06434 0
M  V30 2221 C 210.212 -2.64928 5.08528 0
M  V30 2222 N 209.708 -3.07121 6.21006 0
M  V30 2223 N 211.501 -2.64679 4.95885 0
M  V30 2224 H 203.652 0.00152503 2.124 0
M  V30 2225 H 205.915 -0.0618434 0.945981 0
M  V30 2226 H 205.621 -0.816453 3.42092 0
M  V30 2227 H 205.495 -2.47094 2.84999 0
M  V30 2228 H 207.882 -2.27686 1.87732 0
M  V30 2229 H 207.963 -0.616195 2.48267 0
M  V30 2230 H 207.607 -1.48775 4.85622 0
M  V30 2231 H 207.537 -3.15024 4.2198 0
M  V30 2232 H 210.028 -1.92435 3.25234 0
M  V30 2233 H 210.341 -3.38423 6.94759 0
M  V30 2234 H 208.686 -3.04978 6.24511 0
M  V30 2235 H 211.877 -2.31078 4.07088 0
M  V30 2236 H 212.05 -2.9767 5.75584 0
M  V30 2237 N 205.456 -1.28612 -0.910864 0
M  V30 2238 C 206.386 -1.15326 -2.03032 0
M  V30 2239 C 207.367 -0.0502924 -1.70026 0
M  V30 2240 O 208.552 -0.227797 -1.92859 0
M  V30 2241 C 205.682 -0.817343 -3.37545 0
M  V30 2242 C 204.636 -1.8754 -3.84724 0
M  V30 2243 C 203.962 -1.39305 -5.16235 0
M  V30 2244 C 205.262 -3.28244 -4.06267 0
M  V30 2245 H 206.956 -2.08975 -2.14406 0
M  V30 2246 H 204.502 -1.00612 -1.03021 0
M  V30 2247 H 206.455 -0.711151 -4.15356 0
M  V30 2248 H 205.179 0.154846 -3.26233 0
M  V30 2249 H 203.838 -1.97079 -3.09121 0
M  V30 2250 H 203.486 -0.409846 -5.01328 0
M  V30 2251 H 203.186 -2.10057 -5.48771 0
M  V30 2252 H 204.71 -1.30014 -5.96598 0
M  V30 2253 H 206.124 -3.21611 -4.74594 0
M  V30 2254 H 204.521 -3.96855 -4.5014 0
M  V30 2255 H 205.591 -3.72048 -3.10979 0
M  V30 2256 N 206.934 1.1197 -1.10907 0
M  V30 2257 C 207.881 2.17846 -0.762345 0
M  V30 2258 C 208.851 1.63995 0.263599 0
M  V30 2259 O 210.036 1.90273 0.141773 0
M  V30 2260 C 207.176 3.44487 -0.205651 0
M  V30 2261 C 206.289 4.12369 -1.28748 0
M  V30 2262 C 205.424 5.26674 -0.691919 0
M  V30 2263 C 204.463 5.86431 -1.75399 0
M  V30 2264 N 203.6 6.92142 -1.17833 0
M  V30 2265 H 208.44 2.46851 -1.6694 0
M  V30 2266 H 205.977 1.21188 -0.833776 0
M  V30 2267 H 207.935 4.16981 0.135037 0
M  V30 2268 H 206.565 3.15884 0.664613 0
M  V30 2269 H 205.617 3.38003 -1.74522 0
M  V30 2270 H 206.929 4.52844 -2.09125 0
M  V30 2271 H 206.083 6.05953 -0.300963 0
M  V30 2272 H 204.822 4.8749 0.143232 0
M  V30 2273 H 203.827 5.05835 -2.15432 0
M  V30 2274 H 205.052 6.27685 -2.59208 0
M  V30 2275 H 202.998 6.54985 -0.364725 0
M  V30 2276 H 202.915 7.31242 -1.91887 0
M  V30 2277 H 204.183 7.75237 -0.81408 0
M  V30 2278 N 208.412 0.89855 1.29475 0
M  V30 2279 C 209.64 0.539261 1.99749 0
M  V30 2280 C 210.055 -0.875716 1.67262 0
M  V30 2281 O 209.412 -1.57786 0.917049 0
M  V30 2282 C 209.463 0.72061 3.54245 0
M  V30 2283 O 209.184 2.07989 3.8558 0
M  V30 2284 C 210.685 0.366118 4.41786 0
M  V30 2285 H 207.905 0.207047 0.638258 0
M  V30 2286 H 210.449 1.20758 1.65039 0
M  V30 2287 H 208.604 0.0994862 3.87272 0
M  V30 2288 H 209.018 2.10841 4.80257 0
M  V30 2289 H 210.492 0.543848 5.49314 0
M  V30 2290 H 210.969 -0.696763 4.33638 0
M  V30 2291 H 211.575 0.964135 4.14228 0
M  V30 2292 N 209.89 -1.43072 0.660911 0
M  V30 2293 C 211.139 -2.00942 0.174735 0
M  V30 2294 C 211.452 -1.52797 -1.22117 0
M  V30 2295 O 212.658 -2.02991 -1.80297 0
M  V30 2296 C 211.114 -3.58948 0.261559 0
M  V30 2297 C 210.722 -4.16085 1.66064 0
M  V30 2298 C 212.466 -4.24173 -0.166617 0
M  V30 2299 C 210.373 -5.6641 1.70098 0
M  V30 2300 H 209.303 -0.751483 0.0615631 0
M  V30 2301 H 211.954 -1.63955 0.824069 0
M  V30 2302 H 210.336 -3.93372 -0.455421 0
M  V30 2303 H 211.51 -3.93147 2.40359 0
M  V30 2304 H 209.825 -3.6326 2.03546 0
M  V30 2305 H 212.422 -5.34471 -0.156433 0
M  V30 2306 H 212.765 -3.98647 -1.19943 0
M  V30 2307 H 213.298 -3.94659 0.498875 0
M  V30 2308 H 210.037 -5.96715 2.71315 0
M  V30 2309 H 209.557 -5.91382 1.00139 0
M  V30 2310 H 211.236 -6.30585 1.44816 0
M  V30 2311 N 211.368 -0.403325 -1.52352 0
M  V30 2312 C 212.301 0.469463 -2.23319 0
M  V30 2313 C 213.279 1.05272 -1.23922 0
M  V30 2314 O 214.463 1.10169 -1.52954 0
M  V30 2315 C 211.59 1.6511 -2.9573 0
M  V30 2316 C 210.636 1.19178 -4.0951 0
M  V30 2317 S 211.469 0.161718 -5.35256 0
M  V30 2318 C 212.625 1.34882 -6.11194 0
M  V30 2319 H 212.858 -0.133134 -2.97002 0
M  V30 2320 H 210.391 -0.187588 -1.53256 0
M  V30 2321 H 212.349 2.3287 -3.38056 0
M  V30 2322 H 211.01 2.22503 -2.21701 0
M  V30 2323 H 210.203 2.07444 -4.59329 0
M  V30 2324 H 209.805 0.592911 -3.6927 0
M  V30 2325 H 212.097 2.27345 -6.38217 0
M  V30 2326 H 213.04 0.89128 -7.02468 0
M  V30 2327 H 213.448 1.57198 -5.42171 0
M  V30 2328 N 212.846 1.57033 -0.133567 0
M  V30 2329 C 214.262 1.58035 0.222944 0
M  V30 2330 C 214.462 1.14713 1.6566 0
M  V30 2331 O 213.518 0.841218 2.38075 0
M  V30 2332 C 214.831 3.00691 -0.0236116 0
M  V30 2333 C 216.379 3.12973 0.0411512 0
M  V30 2334 C 216.854 4.57654 -0.177899 0
M  V30 2335 N 218.345 4.63033 -0.124365 0
M  V30 2336 C 219.08 5.72771 -0.268553 0
M  V30 2337 N 218.576 6.91206 -0.46972 0
M  V30 2338 N 220.369 5.61718 -0.2071 0
M  V30 2339 H 212.52 1.8349 -1.06981 0
M  V30 2340 H 214.783 0.848677 -0.422436 0
M  V30 2341 H 214.489 3.36726 -1.0153 0
M  V30 2342 H 214.363 3.70614 0.701808 0
M  V30 2343 H 216.75 2.76787 1.02338 0
M  V30 2344 H 216.831 2.45564 -0.716383 0
M  V30 2345 H 216.475 4.94542 -1.15717 0
M  V30 2346 H 216.405 5.23173 0.599797 0
M  V30 2347 H 218.896 3.7789 0.027011 0
M  V30 2348 H 219.209 7.70693 -0.570212 0
M  V30 2349 H 217.554 6.93156 -0.505876 0
M  V30 2350 H 220.745 4.68072 -0.0507986 0
M  V30 2351 H 220.918 6.47195 -0.322909 0
M  V30 2352 N 214.325 -0.140222 1.56975 0
M  V30 2353 C 215.235 -1.19223 2.02047 0
M  V30 2354 C 216.251 -1.46612 0.937062 0
M  V30 2355 O 217.427 -1.58148 1.24704 0
M  V30 2356 C 214.492 -2.50414 2.39778 0
M  V30 2357 C 213.553 -2.30612 3.621 0
M  V30 2358 C 212.786 -3.55547 3.98023 0
M  V30 2359 O 213.009 -4.62004 3.34528 0
M  V30 2360 O 211.943 -3.47808 4.91237 0
M  V30 2361 H 215.769 -0.839559 2.91865 0
M  V30 2362 H 213.354 -0.349453 1.45256 0
M  V30 2363 H 215.236 -3.27747 2.64877 0
M  V30 2364 H 213.911 -2.85198 1.53114 0
M  V30 2365 H 212.818 -1.51207 3.4218 0
M  V30 2366 H 214.151 -2.00741 4.49404 0
M  V30 2367 N 215.803 -1.52179 -0.40978 0
M  V30 2368 C 216.75 -1.75475 -1.49924 0
M  V30 2369 C 217.72 -0.597175 -1.54994 0
M  V30 2370 O 218.905 -0.834655 -1.71575 0
M  V30 2371 C 216.045 -1.9107 -2.87378 0
M  V30 2372 C 215.158 -3.18717 -2.91622 0
M  V30 2373 C 214.293 -3.24747 -4.20372 0
M  V30 2374 C 213.332 -4.46598 -4.18588 0
M  V30 2375 N 212.469 -4.50025 -5.38908 0
M  V30 2376 H 217.309 -2.68458 -1.29361 0
M  V30 2377 H 214.846 -1.33024 -0.627934 0
M  V30 2378 H 216.804 -1.98096 -3.6717 0
M  V30 2379 H 215.434 -1.01469 -3.06437 0
M  V30 2380 H 214.486 -3.20866 -2.04326 0
M  V30 2381 H 215.798 -4.08544 -2.86169 0
M  V30 2382 H 214.952 -3.30841 -5.08556 0
M  V30 2383 H 213.691 -2.32857 -4.28519 0
M  V30 2384 H 212.696 -4.40652 -3.28794 0
M  V30 2385 H 213.921 -5.39783 -4.12081 0
M  V30 2386 H 211.867 -3.61017 -5.47725 0
M  V30 2387 H 211.784 -5.33697 -5.35447 0
M  V30 2388 H 213.052 -4.60347 -6.29048 0
M  V30 2389 N 217.281 0.66697 -1.42791 0
M  V30 2390 C 218.511 1.45294 -1.46878 0
M  V30 2391 C 218.919 1.89027 -0.0809861 0
M  V30 2392 O 218.262 1.59219 0.916246 0
M  V30 2393 C 218.324 2.72908 -2.34012 0
M  V30 2394 C 217.988 2.51203 -3.81767 0
M  V30 2395 C 218.985 2.15302 -4.73224 0
M  V30 2396 C 216.67 2.65954 -4.26115 0
M  V30 2397 C 218.664 1.94431 -6.07022 0
M  V30 2398 C 216.351 2.44699 -5.59969 0
M  V30 2399 C 217.349 2.08992 -6.5024 0
M  V30 2400 O 217.037 1.87948 -7.81621 0
M  V30 2401 H 216.769 0.453306 -0.501487 0
M  V30 2402 H 219.323 0.826232 -1.88049 0
M  V30 2403 H 217.553 3.38089 -1.87703 0
M  V30 2404 H 219.242 3.34816 -2.29462 0
M  V30 2405 H 220.008 2.03495 -4.40244 0
M  V30 2406 H 215.887 2.92724 -3.56137 0
M  V30 2407 H 219.431 1.66484 -6.77443 0
M  V30 2408 H 215.328 2.56105 -5.9252 0
M  V30 2409 H 216.096 2.02483 -7.93059 0
M  V30 2410 N 218.759 1.29093 0.90403 0
M  V30 2411 C 219.984 1.19809 1.69294 0
M  V30 2412 C 220.409 -0.238481 1.86582 0
M  V30 2413 O 219.767 -1.1723 1.383 0
M  V30 2414 C 219.815 1.91202 3.05736 0
M  V30 2415 O 218.919 1.22611 3.93752 0
M  V30 2416 H 218.26 0.415385 0.518027 0
M  V30 2417 H 220.79 1.70586 1.12967 0
M  V30 2418 H 220.8 1.99487 3.55906 0
M  V30 2419 H 219.475 2.95692 2.92471 0
M  V30 2420 H 218.052 1.22554 3.52186 0
M  V30 2421 N 220.237 -1.11381 1.11499 0
M  V30 2422 C 221.184 -2.17439 0.773887 0
M  V30 2423 C 222.154 -1.64132 -0.254899 0
M  V30 2424 O 223.339 -1.90345 -0.13168 0
M  V30 2425 C 220.479 -3.44373 0.223917 0
M  V30 2426 C 219.592 -4.1168 1.30934 0
M  V30 2427 C 218.727 -5.263 0.71984 0
M  V30 2428 C 217.766 -5.85493 1.78507 0
M  V30 2429 N 216.903 -6.91507 1.21502 0
M  V30 2430 H 221.743 -2.45962 1.68246 0
M  V30 2431 H 219.28 -1.20744 0.840191 0
M  V30 2432 H 221.238 -4.17047 -0.112921 0
M  V30 2433 H 219.868 -3.16232 -0.647851 0
M  V30 2434 H 218.92 -3.37073 1.76312 0
M  V30 2435 H 220.232 -4.51729 2.11524 0
M  V30 2436 H 219.386 -6.05785 0.333094 0
M  V30 2437 H 218.125 -4.87559 -0.117377 0
M  V30 2438 H 217.13 -5.04686 2.18111 0
M  V30 2439 H 218.355 -6.26301 2.62533 0
M  V30 2440 H 216.301 -6.54783 0.399455 0
M  V30 2441 H 216.218 -7.30214 1.95763 0
M  V30 2442 H 217.486 -7.74795 0.855181 0
M  V30 2443 N 221.715 -0.905404 -1.28997 0
M  V30 2444 C 222.955 -0.541232 -1.97104 0
M  V30 2445 C 223.319 0.896841 -1.69767 0
M  V30 2446 O 224.52 1.36817 -2.31375 0
M  V30 2447 C 222.791 -0.832134 -3.47578 0
M  V30 2448 S 224.35 -0.573127 -4.35041 0
M  V30 2449 H 221.168 -0.200576 -0.682122 0
M  V30 2450 H 223.77 -1.16906 -1.56694 0
M  V30 2451 H 222.474 -1.87687 -3.64968 0
M  V30 2452 H 222.005 -0.192636 -3.92928 0
M  V30 2453 H 224.02 0.579297 -4.92807 0
M  V30 2454 N 223.193 1.4272 -0.668489 0
M  V30 2455 C 224.418 2.06484 -0.194758 0
M  V30 2456 C 224.843 1.49862 1.13679 0
M  V30 2457 O 224.201 0.614582 1.70565 0
M  V30 2458 C 224.249 3.60353 -0.133546 0
M  V30 2459 O 223.353 4.02464 0.899806 0
M  V30 2460 H 222.694 0.656137 -0.10188 0
M  V30 2461 H 225.224 1.82964 -0.915722 0
M  V30 2462 H 225.234 4.07976 0.0447041 0
M  V30 2463 H 223.909 4.00938 -1.1055 0
M  V30 2464 H 222.486 3.66402 0.693109 0
M  V30 2465 N 224.671 0.411399 1.52136 0
M  V30 2466 C 225.896 -0.165538 2.06738 0
M  V30 2467 C 226.321 -1.379 1.27926 0
M  V30 2468 O 225.679 -1.78628 0.310114 0
M  V30 2469 C 225.727 -0.492124 3.57226 0
M  V30 2470 O 224.831 -1.58276 3.80818 0
M  V30 2471 H 224.172 -0.0132132 0.663869 0
M  V30 2472 H 226.702 0.585253 1.96051 0
M  V30 2473 H 226.712 -0.750104 4.01045 0
M  V30 2474 H 225.387 0.394922 4.14021 0
M  V30 2475 H 223.964 -1.31677 3.48877 0
M  V30 2476 O 226.188 -1.59008 0.282609 0
M  V30 2477 H 226.879 -1.91579 -0.285831 0
M  V30 END ATOM
M  V30 BEGIN BOND
M  V30 END BOND
M  V30 END CTAB
M  END
$$$$
