drugbank_target|P05362 Intercellular adhesion molecule 1 (DB00108; DB08818; DB12598)
 OpenBabel12092119473D

  0  0  0     0  0            999 V3000
M  V30 BEGIN CTAB
M  V30 COUNTS 8185 8271 0 0 0
M  V30 BEGIN ATOM
M  V30 1 H -0.908 1.98254 -0.117106 0
M  V30 2 N 0 1.576 0 0
M  V30 3 C 0.933 2.03868 1.02534 0
M  V30 4 C 1.911 0.928543 1.3348 0
M  V30 5 O 3.095 1.19667 1.45644 0
M  V30 6 C 0.222 2.43627 2.35294 0
M  V30 7 C -0.732 3.65373 2.2001 0
M  V30 8 S 0.101 5.13292 1.52614 0
M  V30 9 C 1.257 5.56322 2.86805 0
M  V30 10 H 1.49 2.90518 0.631377 0
M  V30 11 H -0.977 1.52953 0.210867 0
M  V30 12 H 0.981 2.67203 3.11629 0
M  V30 13 H -0.358 1.57376 2.7183 0
M  V30 14 H -1.165 3.90944 3.18086 0
M  V30 15 H -1.563 3.418 1.51819 0
M  V30 16 H 0.729 5.58782 3.83104 0
M  V30 17 H 1.672 6.56266 2.65933 0
M  V30 18 H 2.08 4.83886 2.90714 0
M  V30 19 N 1.4781 -0.272755 1.55222 0
M  V30 20 C 2.4411 -1.32041 1.87344 0
M  V30 21 C 3.4411 -1.42342 0.74803 0
M  V30 22 O 4.6311 -1.41488 1.0162 0
M  V30 23 C 1.7631 -2.70173 2.07893 0
M  V30 24 H 2.9561 -1.04789 2.80997 0
M  V30 25 H 0.5091 -0.51083 1.47717 0
M  V30 26 H 1.2441 -3.02605 1.16622 0
M  V30 27 H 1.0291 -2.64082 2.89833 0
M  V30 28 H 2.5191 -3.45869 2.34017 0
M  V30 29 N 2.9562 -1.48159 -0.537278 0
M  V30 30 C 4.3672 -1.49429 -1.11928 0
M  V30 31 C 4.7182 -0.26 -1.9447 0
M  V30 32 O 3.8432 0.633489 -2.0692 0
M  V30 33 C 4.4382 -2.70758 -2.03656 0
M  V30 34 C 2.9972 -2.74923 -2.57088 0
M  V30 35 C 2.1442 -2.42835 -1.3389 0
M  V30 36 H 5.0952 -1.55381 -0.322886 0
M  V30 37 H 5.1162 -2.48861 -2.87834 0
M  V30 38 H 4.6282 -3.60575 -1.43553 0
M  V30 39 H 2.7292 -1.89296 -3.20933 0
M  V30 40 H 2.8422 -3.76157 -2.9672 0
M  V30 41 H 1.2062 -1.93836 -1.65226 0
M  V30 42 H 1.9892 -3.34884 -0.755504 0
M  V30 43 N 4.4343 0.785586 -1.36625 0
M  V30 44 C 5.6593 1.57963 -1.34397 0
M  V30 45 C 6.0843 1.87964 0.071526 0
M  V30 46 O 5.4423 1.48182 1.0446 0
M  V30 47 C 5.4903 2.87511 -2.17646 0
M  V30 48 O 4.5943 3.81281 -1.57158 0
M  V30 49 H 3.9353 0.479014 -0.459828 0
M  V30 50 H 6.4653 0.973411 -1.79961 0
M  V30 51 H 6.4753 3.36745 -2.30362 0
M  V30 52 H 5.1503 2.65002 -3.20541 0
M  V30 53 H 3.7273 3.39885 -1.53403 0
M  V30 54 N 5.9124 1.20967 1.01018 0
M  V30 55 C 7.1374 1.0503 1.78839 0
M  V30 56 C 7.5624 -0.395752 1.8389 0
M  V30 57 O 6.9204 -1.28529 1.27867 0
M  V30 58 C 6.9684 1.64602 3.2084 0
M  V30 59 O 6.0724 0.887988 4.02726 0
M  V30 60 H 5.4134 0.369987 0.551367 0
M  V30 61 H 7.9434 1.60399 1.27018 0
M  V30 62 H 7.9534 1.68607 3.71532 0
M  V30 63 H 6.6284 2.69841 3.16479 0
M  V30 64 H 5.2054 0.922648 3.61305 0
M  V30 65 N 7.3905 -1.2043 1.01659 0
M  V30 66 C 8.8015 -1.71517 0.737482 0
M  V30 67 C 9.1525 -1.81547 -0.743973 0
M  V30 68 O 8.2775 -1.47803 -1.58061 0
M  V30 69 C 8.8725 -3.11515 1.33206 0
M  V30 70 C 7.4315 -3.59912 1.10183 0
M  V30 71 C 6.5785 -2.37116 1.43776 0
M  V30 72 H 9.5295 -1.05444 1.18606 0
M  V30 73 H 9.5505 -3.73575 0.722636 0
M  V30 74 H 9.0625 -3.04182 2.41028 0
M  V30 75 H 7.1635 -3.72577 0.0412756 0
M  V30 76 H 7.2765 -4.44731 1.78188 0
M  V30 77 H 5.6405 -2.39857 0.856778 0
M  V30 78 H 6.4235 -2.32424 2.52654 0
M  V30 79 N 8.8686 -0.792821 -1.36206 0
M  V30 80 C 10.2846 -0.474903 -1.52371 0
M  V30 81 C 10.4846 1.00622 -1.74578 0
M  V30 82 O 9.5406 1.79162 -1.77924 0
M  V30 83 C 10.8536 -1.3083 -2.70747 0
M  V30 84 C 12.4016 -1.30234 -2.84619 0
M  V30 85 C 12.8766 -2.11956 -4.06004 0
M  V30 86 N 14.3676 -2.09419 -4.13156 0
M  V30 87 C 15.1026 -2.69419 -5.06163 0
M  V30 88 N 14.5986 -3.3829 -6.04592 0
M  V30 89 N 16.3916 -2.59134 -4.98804 0
M  V30 90 H 8.5426 -1.75222 -1.20046 0
M  V30 91 H 10.8056 -0.745024 -0.586211 0
M  V30 92 H 10.5116 -2.35881 -2.6087 0
M  V30 93 H 10.3856 -0.95196 -3.6499 0
M  V30 94 H 12.7726 -0.259748 -2.93955 0
M  V30 95 H 12.8536 -1.69847 -1.91274 0
M  V30 96 H 12.4976 -3.16248 -3.97429 0
M  V30 97 H 12.4276 -1.69711 -4.98503 0
M  V30 98 H 14.9186 -1.59297 -3.42685 0
M  V30 99 H 15.2316 -3.81394 -6.7213 0
M  V30 100 H 13.5766 -3.42393 -6.04807 0
M  V30 101 H 16.7676 -2.04927 -4.20859 0
M  V30 102 H 16.9406 -3.06185 -5.711 0
M  V30 103 N 10.3467 1.47872 -0.545128 0
M  V30 104 C 11.7577 1.86384 -0.108581 0
M  V30 105 C 12.1087 1.45309 1.31832 0
M  V30 106 O 11.2337 0.850641 1.9898 0
M  V30 107 C 11.8287 3.38265 -0.190274 0
M  V30 108 C 10.3877 3.75914 0.191164 0
M  V30 109 C 9.5347 2.71926 -0.543273 0
M  V30 110 H 12.4857 1.39561 -0.755537 0
M  V30 111 H 12.5067 3.75831 0.594217 0
M  V30 112 H 12.0187 3.6813 -1.2289 0
M  V30 113 H 10.1197 3.51665 1.23136 0
M  V30 114 H 10.2327 4.78836 -0.158987 0
M  V30 115 H 8.5967 2.54697 0.0122495 0
M  V30 116 H 9.3797 3.04634 -1.58282 0
M  V30 117 N 11.8248 0.280983 1.55075 0
M  V30 118 C 12.7878 -0.590896 2.21452 0
M  V30 119 C 13.7878 -1.07682 1.19421 0
M  V30 120 O 14.9778 -0.97605 1.44288 0
M  V30 121 C 12.1098 -1.81587 2.88511 0
M  V30 122 H 13.3028 -0.0112554 2.99898 0
M  V30 123 H 10.8558 0.0316438 1.56268 0
M  V30 124 H 11.5908 -2.43587 2.14093 0
M  V30 125 H 11.3758 -1.4753 3.63287 0
M  V30 126 H 12.8658 -2.43575 3.39206 0
M  V30 127 N 13.3029 -1.57598 0.00835791 0
M  V30 128 C 14.2329 -2.1198 -0.979113 0
M  V30 129 C 15.2139 -1.03091 -1.35301 0
M  V30 130 O 16.3989 -1.30818 -1.43528 0
M  V30 131 C 13.5289 -2.62995 -2.26828 0
M  V30 132 C 12.4829 -3.76485 -2.03576 0
M  V30 133 C 11.8089 -4.13846 -3.38579 0
M  V30 134 C 13.1089 -5.0342 -1.39161 0
M  V30 135 H 14.8029 -2.94738 -0.526281 0
M  V30 136 H 12.3489 -1.41783 -0.251704 0
M  V30 137 H 14.3019 -2.99669 -2.96271 0
M  V30 138 H 13.0259 -1.7737 -2.7424 0
M  V30 139 H 11.6849 -3.40217 -1.36557 0
M  V30 140 H 11.3329 -3.25232 -3.83709 0
M  V30 141 H 11.0329 -4.90312 -3.23834 0
M  V30 142 H 12.5569 -4.53086 -4.09323 0
M  V30 143 H 13.9709 -5.37812 -1.98573 0
M  V30 144 H 12.3679 -5.84746 -1.34878 0
M  V30 145 H 13.4379 -4.83548 -0.361868 0
M  V30 146 N 14.781 0.264519 -1.55364 0
M  V30 147 C 16.192 0.834936 -1.6699 0
M  V30 148 C 16.543 1.86718 -0.602552 0
M  V30 149 O 15.668 2.14899 0.254425 0
M  V30 150 C 16.263 1.5212 -3.02729 0
M  V30 151 C 14.822 2.03954 -3.16354 0
M  V30 152 C 13.969 0.884498 -2.62815 0
M  V30 153 H 16.92 0.0406869 -1.58648 0
M  V30 154 H 16.941 2.38853 -2.96191 0
M  V30 155 H 16.453 0.769668 -3.80392 0
M  V30 156 H 14.554 2.82041 -2.43482 0
M  V30 157 H 14.667 2.24902 -4.23032 0
M  V30 158 H 13.031 1.2802 -2.20188 0
M  V30 159 H 13.814 0.14634 -3.42988 0
M  V30 160 N 16.2591 1.48442 0.529413 0
M  V30 161 C 17.2221 1.62524 1.61612 0
M  V30 162 C 18.2221 0.498509 1.52877 0
M  V30 163 O 19.4121 0.76431 1.56537 0
M  V30 164 C 16.5441 1.59597 3.01233 0
M  V30 165 H 17.7371 2.59423 1.50465 0
M  V30 166 H 15.2901 1.37047 0.751514 0
M  V30 167 H 16.0251 0.641781 3.17886 0
M  V30 168 H 15.8101 2.41397 3.08982 0
M  V30 169 H 17.3001 1.72646 3.80241 0
M  V30 170 N 17.7372 -0.778329 1.37039 0
M  V30 171 C 18.6672 -1.90546 1.34962 0
M  V30 172 C 19.6482 -1.68681 0.219274 0
M  V30 173 O 20.8332 -1.89634 0.418624 0
M  V30 174 C 17.9632 -3.27734 1.14925 0
M  V30 175 C 16.9172 -3.64147 2.24902 0
M  V30 176 C 16.2432 -4.99806 1.89996 0
M  V30 177 C 17.5432 -3.71579 3.67051 0
M  V30 178 H 19.2372 -1.92541 2.29277 0
M  V30 179 H 16.7832 -0.924948 1.10366 0
M  V30 180 H 18.7362 -4.06215 1.12104 0
M  V30 181 H 17.4602 -3.26154 0.170631 0
M  V30 182 H 16.1192 -2.8797 2.26868 0
M  V30 183 H 15.7672 -4.94759 0.906796 0
M  V30 184 H 15.4672 -5.25139 2.63634 0
M  V30 185 H 16.9912 -5.80694 1.88749 0
M  V30 186 H 18.4052 -4.40227 3.67251 0
M  V30 187 H 16.8022 -4.08405 4.39688 0
M  V30 188 H 17.8722 -2.72404 4.01154 0
M  V30 189 N 19.2153 -1.21501 -1.00376 0
M  V30 190 C 20.1453 -0.999478 -2.11028 0
M  V30 191 C 21.1263 0.0759671 -1.6993 0
M  V30 192 O 22.3113 -0.0841106 -1.94018 0
M  V30 193 C 19.4413 -0.564709 -3.42678 0
M  V30 194 C 18.3953 -1.58486 -3.97576 0
M  V30 195 C 17.7213 -1.00628 -5.25146 0
M  V30 196 C 19.0213 -2.97204 -4.29496 0
M  V30 197 H 20.7153 -1.92495 -2.29317 0
M  V30 198 H 18.2613 -0.92693 -1.102 0
M  V30 199 H 20.2143 -0.401091 -4.19487 0
M  V30 200 H 18.9383 0.396411 -3.24185 0
M  V30 201 H 17.5973 -1.73606 -3.22888 0
M  V30 202 H 17.2453 -0.0368439 -5.02987 0
M  V30 203 H 16.9453 -1.68771 -5.62841 0
M  V30 204 H 18.4693 -0.854015 -6.04598 0
M  V30 205 H 19.8833 -2.8552 -4.97143 0
M  V30 206 H 18.2803 -3.62372 -4.78338 0
M  V30 207 H 19.3503 -3.47956 -3.3772 0
M  V30 208 N 20.6934 1.19889 -1.02296 0
M  V30 209 C 21.9394 1.89701 -0.717033 0
M  V30 210 C 22.2724 1.7905 0.751989 0
M  V30 211 O 21.5474 1.17891 1.547 0
M  V30 212 C 21.8304 3.40858 -1.16136 0
M  V30 213 C 21.6834 3.60411 -2.69117 0
M  V30 214 C 23.0024 4.33876 -0.737549 0
M  V30 215 H 20.1214 0.688874 -0.261957 0
M  V30 216 H 22.7634 1.41154 -1.27183 0
M  V30 217 H 20.9134 3.82335 -0.689342 0
M  V30 218 H 22.5854 3.28145 -3.2422 0
M  V30 219 H 20.8284 3.03665 -3.0979 0
M  V30 220 H 21.4994 4.66396 -2.95261 0
M  V30 221 H 23.9754 4.00081 -1.14344 0
M  V30 222 H 22.8514 5.38242 -1.0764 0
M  V30 223 H 23.1124 4.40628 0.360436 0
M  V30 224 N 22.1715 0.800033 1.35784 0
M  V30 225 C 23.1015 0.220184 2.3246 0
M  V30 226 C 24.0825 -0.65073 1.57161 0
M  V30 227 O 25.2675 -0.582359 1.85263 0
M  V30 228 C 22.3975 -0.637353 3.41402 0
M  V30 229 C 21.3515 0.134531 4.27789 0
M  V30 230 C 20.6775 -0.844285 5.27992 0
M  V30 231 C 21.9775 1.32979 5.05088 0
M  V30 232 H 23.6715 1.02787 2.81203 0
M  V30 233 H 21.2175 0.495717 1.35199 0
M  V30 234 H 23.1705 -1.05302 4.08031 0
M  V30 235 H 21.8945 -1.47785 2.91251 0
M  V30 236 H 20.5535 0.531296 3.6273 0
M  V30 237 H 20.2015 -1.68011 4.74111 0
M  V30 238 H 19.9015 -0.332184 5.8666 0
M  V30 239 H 21.4255 -1.2583 5.97494 0
M  V30 240 H 22.8395 0.98934 5.64699 0
M  V30 241 H 21.2365 1.77593 5.7322 0
M  V30 242 H 22.3065 2.11978 4.36111 0
M  V30 243 N 23.6496 -1.47581 0.552962 0
M  V30 244 C 24.5796 -2.32762 -0.185451 0
M  V30 245 C 25.5606 -1.43527 -0.912905 0
M  V30 246 O 26.7456 -1.72388 -0.894201 0
M  V30 247 C 23.8756 -3.25219 -1.21859 0
M  V30 248 C 22.8296 -4.23661 -0.607864 0
M  V30 249 C 22.1556 -5.05413 -1.74533 0
M  V30 250 C 23.4556 -5.20481 0.435582 0
M  V30 251 H 25.1496 -2.94749 0.525684 0
M  V30 252 H 22.6956 -1.41738 0.254251 0
M  V30 253 H 24.6486 -3.8365 -1.7433 0
M  V30 254 H 23.3726 -2.61279 -1.95961 0
M  V30 255 H 22.0316 -3.66451 -0.104489 0
M  V30 256 H 21.6796 -4.3788 -2.47529 0
M  V30 257 H 21.3796 -5.72059 -1.34249 0
M  V30 258 H 22.9036 -5.66701 -2.27338 0
M  V30 259 H 24.3176 -5.733 -0.00290157 0
M  V30 260 H 22.7146 -5.95305 0.757067 0
M  V30 261 H 23.7846 -4.66217 1.33303 0
M  V30 262 N 25.1277 -0.289203 -1.54924 0
M  V30 263 C 26.3757 0.322879 -1.99504 0
M  V30 264 C 26.6967 1.55313 -1.1791 0
M  V30 265 O 25.9667 1.94001 -0.272097 0
M  V30 266 H 24.5467 0.122291 -0.736922 0
M  V30 267 H 27.2087 -0.397802 -1.90797 0
M  V30 268 H 26.3047 0.603061 -3.06218 0
M  V30 269 N 26.6058 1.57591 -0.0167156 0
M  V30 270 C 27.5688 2.08393 0.954204 0
M  V30 271 C 28.5688 0.996531 1.26198 0
M  V30 272 O 29.7588 1.25858 1.20438 0
M  V30 273 C 26.8908 2.5394 2.27436 0
M  V30 274 H 28.0838 2.95455 0.514451 0
M  V30 275 H 25.6368 1.54582 0.231089 0
M  V30 276 H 26.3718 1.70171 2.76066 0
M  V30 277 H 26.1568 3.33371 2.06412 0
M  V30 278 H 27.6468 2.93512 2.97053 0
M  V30 279 N 28.0839 -0.256276 1.55502 0
M  V30 280 C 29.0139 -1.32102 1.92539 0
M  V30 281 C 29.9949 -1.50684 0.789194 0
M  V30 282 O 31.1799 -1.63449 1.04872 0
M  V30 283 C 28.3099 -2.67752 2.21192 0
M  V30 284 C 27.2639 -2.63878 3.36975 0
M  V30 285 C 26.5899 -4.03236 3.51147 0
M  V30 286 C 27.8899 -2.21682 4.72921 0
M  V30 287 H 29.5839 -1.01351 2.81724 0
M  V30 288 H 27.1299 -0.486105 1.35547 0
M  V30 289 H 29.0829 -3.42365 2.45691 0
M  V30 290 H 27.8069 -3.0012 1.28824 0
M  V30 291 H 26.4659 -1.91722 3.12471 0
M  V30 292 H 26.1139 -4.32854 2.56216 0
M  V30 293 H 25.8139 -4.01535 4.29003 0
M  V30 294 H 27.3379 -4.79563 3.77957 0
M  V30 295 H 28.7519 -2.86023 4.96854 0
M  V30 296 H 27.1489 -2.3111 5.53812 0
M  V30 297 H 28.2189 -1.16833 4.70615 0
M  V30 298 N 29.562 -1.4872 -0.521534 0
M  V30 299 C 30.809 -1.57168 -1.27689 0
M  V30 300 C 31.137 -0.249275 -1.92896 0
M  V30 301 O 30.392 0.761162 -1.80291 0
M  V30 302 C 30.691 -2.66497 -2.38148 0
M  V30 303 C 30.357 -4.08664 -1.90538 0
M  V30 304 C 29.019 -4.47357 -1.77271 0
M  V30 305 C 31.371 -4.97724 -1.54663 0
M  V30 306 C 28.699 -5.72905 -1.26478 0
M  V30 307 C 31.051 -6.2377 -1.05329 0
M  V30 308 C 29.715 -6.61311 -0.906861 0
M  V30 309 H 28.985 -0.575117 -0.467249 0
M  V30 310 H 31.632 -1.82472 -0.581051 0
M  V30 311 H 29.937 -2.35085 -3.13437 0
M  V30 312 H 31.634 -2.70246 -2.96257 0
M  V30 313 H 28.224 -3.78111 -2.01816 0
M  V30 314 H 32.408 -4.68501 -1.63768 0
M  V30 315 H 27.664 -6.00709 -1.13835 0
M  V30 316 H 31.838 -6.9217 -0.76644 0
M  V30 317 H 29.465 -7.5848 -0.511083 0
M  V30 318 N 31.0401 0.771051 -1.3745 0
M  V30 319 C 32.4511 1.34737 -1.29239 0
M  V30 320 C 32.8021 1.96109 0.0596908 0
M  V30 321 O 31.9271 1.93865 0.961534 0
M  V30 322 C 32.5221 2.44973 -2.34037 0
M  V30 323 C 31.0811 2.98372 -2.29458 0
M  V30 324 C 30.2281 1.71595 -2.17831 0
M  V30 325 H 33.1791 0.571256 -1.48062 0
M  V30 326 H 33.2001 3.24471 -1.98744 0
M  V30 327 H 32.7121 2.00276 -3.32432 0
M  V30 328 H 30.8131 3.47443 -1.34589 0
M  V30 329 H 30.9261 3.53939 -3.229 0
M  V30 330 H 29.2901 1.94547 -1.64388 0
M  V30 331 H 30.0731 1.29001 -3.18141 0
M  V30 332 N 32.5182 1.22032 0.997298 0
M  V30 333 C 33.7662 1.04016 1.73278 0
M  V30 334 C 34.0872 -0.426255 1.90284 0
M  V30 335 O 33.3572 -1.30694 1.45931 0
M  V30 336 H 31.9372 0.381897 0.642 0
M  V30 337 H 34.5992 1.5347 1.20137 0
M  V30 338 H 33.6952 1.51441 2.72896 0
M  V30 339 N 33.9963 -1.19345 1.0293 0
M  V30 340 C 35.4073 -1.70725 0.755633 0
M  V30 341 C 35.7583 -1.82326 -0.724676 0
M  V30 342 O 34.8833 -1.49471 -1.56484 0
M  V30 343 C 35.4783 -3.10084 1.36503 0
M  V30 344 C 34.0373 -3.58723 1.13994 0
M  V30 345 C 33.1843 -2.35577 1.46283 0
M  V30 346 H 36.1353 -1.0418 1.19718 0
M  V30 347 H 36.1563 -3.72787 0.762217 0
M  V30 348 H 35.6683 -3.01609 2.44241 0
M  V30 349 H 33.7693 -3.72512 0.0807901 0
M  V30 350 H 33.8823 -4.42816 1.82894 0
M  V30 351 H 32.2463 -2.38935 0.88217 0
M  V30 352 H 33.0293 -2.29731 2.55105 0
M  V30 353 N 35.4744 -0.807222 -1.35358 0
M  V30 354 C 36.7224 -0.387122 -1.98358 0
M  V30 355 C 37.0434 1.04942 -1.64354 0
M  V30 356 O 36.3134 1.72615 -0.926339 0
M  V30 357 H 34.8934 -0.140154 -0.733734 0
M  V30 358 H 37.5554 -1.0332 -1.6526 0
M  V30 359 H 36.6514 -0.493352 -3.08176 0
M  V30 360 N 36.9525 1.47285 -0.560781 0
M  V30 361 C 37.9005 2.31756 0.197942 0
M  V30 362 C 38.8945 1.43146 0.905854 0
M  V30 363 O 40.1005 1.59891 0.826733 0
M  V30 364 H 36.4755 0.747438 0.0827049 0
M  V30 365 H 38.4465 2.9359 -0.533629 0
M  V30 366 C 37.1955 3.25874 1.21249 0
M  V30 367 H 36.5185 3.94023 0.67719 0
M  V30 368 H 37.9585 3.87803 1.71419 0
M  V30 369 C 36.4175 2.49651 2.26221 0
M  V30 370 O 36.9475 2.24355 3.33208 0
M  V30 371 N 35.1535 2.10597 2.00243 0
M  V30 372 H 34.7005 2.31369 1.13252 0
M  V30 373 H 34.6585 1.59913 2.70694 0
M  V30 374 N 38.4306 0.297415 1.54768 0
M  V30 375 C 39.3936 -0.567375 2.22066 0
M  V30 376 C 40.3936 -1.06409 1.20556 0
M  V30 377 O 41.5836 -0.960691 1.45315 0
M  V30 378 C 38.7156 -1.78517 2.90421 0
M  V30 379 H 39.9086 0.0205534 2.99893 0
M  V30 380 H 37.4616 0.0482163 1.56226 0
M  V30 381 H 38.1966 -2.41303 2.16664 0
M  V30 382 H 37.9816 -1.43669 3.64831 0
M  V30 383 H 39.4716 -2.39964 3.41771 0
M  V30 384 N 39.9087 -1.5758 0.0250728 0
M  V30 385 C 40.8407 -2.06869 -0.986796 0
M  V30 386 C 41.8537 -0.991332 -1.29137 0
M  V30 387 O 43.0427 -1.26761 -1.25674 0
M  V30 388 C 40.1427 -2.47486 -2.31525 0
M  V30 389 C 39.3157 -3.78253 -2.19643 0
M  V30 390 C 38.3747 -4.05464 -3.35388 0
M  V30 391 O 37.4007 -4.75774 -3.12454 0
M  V30 392 N 38.6027 -3.55321 -4.59051 0
M  V30 393 H 41.3677 -2.94302 -0.566276 0
M  V30 394 H 38.9287 -1.6109 -0.161776 0
M  V30 395 H 40.9207 -2.62785 -3.07776 0
M  V30 396 H 39.4907 -1.65441 -2.65232 0
M  V30 397 H 38.7107 -3.7279 -1.28144 0
M  V30 398 H 39.9987 -4.63936 -2.08903 0
M  V30 399 H 39.3967 -2.98431 -4.80578 0
M  V30 400 H 37.9537 -3.75905 -5.32483 0
M  V30 401 N 41.3868 0.248026 -1.55636 0
M  V30 402 C 42.6148 0.993808 -1.81469 0
M  V30 403 C 43.0298 1.78991 -0.60064 0
M  V30 404 O 42.3868 1.77345 0.430682 0
M  V30 405 C 42.4378 1.93258 -3.05506 0
M  V30 406 O 42.1588 1.16869 -4.22224 0
M  V30 407 C 43.6598 2.79444 -3.4413 0
M  V30 408 H 40.8798 0.292486 -0.603898 0
M  V30 409 H 43.4238 0.271253 -2.02693 0
M  V30 410 H 41.5788 2.60943 -2.86335 0
M  V30 411 H 41.9928 1.80359 -4.92515 0
M  V30 412 H 43.4668 3.41066 -4.34026 0
M  V30 413 H 43.9438 3.50499 -2.64665 0
M  V30 414 H 44.5498 2.17214 -3.65648 0
M  V30 415 N 42.8649 1.48995 0.513639 0
M  V30 416 C 44.0899 1.61792 1.29762 0
M  V30 417 C 44.5149 0.284475 1.85936 0
M  V30 418 O 43.8729 -0.746185 1.65232 0
M  V30 419 C 43.9209 2.67993 2.41272 0
M  V30 420 O 43.0249 2.26287 3.44772 0
M  V30 421 H 42.3659 0.541963 0.38363 0
M  V30 422 H 44.8959 1.95097 0.616307 0
M  V30 423 H 44.9059 2.89772 2.87221 0
M  V30 424 H 43.5809 3.64791 1.9975 0
M  V30 425 H 42.1579 2.14788 3.04829 0
M  V30 426 N 44.343 -0.763751 1.37857 0
M  V30 427 C 45.589 -1.52483 1.33704 0
M  V30 428 C 45.922 -1.94051 -0.0759612 0
M  V30 429 O 45.197 -1.64675 -1.03501 0
M  V30 430 C 45.48 -2.78441 2.28348 0
M  V30 431 C 45.333 -2.43075 3.78463 0
M  V30 432 C 46.652 -3.80415 2.21298 0
M  V30 433 H 43.771 -0.553169 0.487005 0
M  V30 434 H 46.413 -0.875562 1.68624 0
M  V30 435 H 44.563 -3.33842 1.987 0
M  V30 436 H 46.235 -1.93527 4.18742 0
M  V30 437 H 44.478 -1.75666 3.96641 0
M  V30 438 H 45.149 -3.33149 4.40132 0
M  V30 439 H 47.625 -3.34527 2.47449 0
M  V30 440 H 46.501 -4.66257 2.89647 0
M  V30 441 H 46.762 -4.25262 1.20849 0
M  V30 442 N 45.8211 -1.22559 -0.990812 0
M  V30 443 C 47.0461 -1.07862 -1.77145 0
M  V30 444 C 47.4711 0.366447 -1.84496 0
M  V30 445 O 46.8291 1.26478 -1.29896 0
M  V30 446 C 46.8771 -1.69686 -3.18181 0
M  V30 447 O 45.9811 -0.951946 -4.01263 0
M  V30 448 H 45.3221 -0.378712 -0.545411 0
M  V30 449 H 47.8521 -1.62399 -1.2445 0
M  V30 450 H 47.8621 -1.74496 -3.68802 0
M  V30 451 H 46.5371 -2.74841 -3.12146 0
M  V30 452 H 45.1141 -0.980011 -3.59792 0
M  V30 453 N 47.2992 1.18797 -1.03562 0
M  V30 454 C 48.7102 1.70322 -0.764676 0
M  V30 455 C 49.0612 1.82708 0.714996 0
M  V30 456 O 48.1862 1.50299 1.55689 0
M  V30 457 C 48.7812 3.09356 -1.38145 0
M  V30 458 C 47.3402 3.58114 -1.15895 0
M  V30 459 C 46.4872 2.34798 -1.4753 0
M  V30 460 H 49.4382 1.03543 -1.20268 0
M  V30 461 H 49.4592 3.72378 -0.781977 0
M  V30 462 H 48.9712 3.00309 -2.45837 0
M  V30 463 H 47.0722 3.72464 -0.100544 0
M  V30 464 H 47.1852 4.4184 -1.8524 0
M  V30 465 H 45.5492 2.38464 -0.894829 0
M  V30 466 H 46.3322 2.28375 -2.56319 0
M  V30 467 N 48.7773 0.814389 1.34928 0
M  V30 468 C 50.0023 0.410097 2.03305 0
M  V30 469 C 50.4273 -0.973464 1.60951 0
M  V30 470 O 49.7853 -1.63185 0.789964 0
M  V30 471 C 49.8333 0.51049 3.56968 0
M  V30 472 O 48.9373 -0.473035 4.09678 0
M  V30 473 H 48.2783 0.170088 0.641846 0
M  V30 474 H 50.8083 1.10244 1.72358 0
M  V30 475 H 50.8183 0.383135 4.06197 0
M  V30 476 H 49.4933 1.51963 3.87144 0
M  V30 477 H 48.0703 -0.305272 3.71648 0
M  V30 478 N 50.2554 -1.46986 0.568584 0
M  V30 479 C 51.2024 -2.30153 -0.172707 0
M  V30 480 C 52.1724 -1.39759 -0.897586 0
M  V30 481 O 53.3574 -1.68716 -0.891044 0
M  V30 482 C 50.4974 -3.23952 -1.1895 0
M  V30 483 C 49.6104 -4.29441 -0.469517 0
M  V30 484 C 48.7454 -5.1038 -1.47259 0
M  V30 485 C 47.7844 -6.07632 -0.738225 0
M  V30 486 N 46.9214 -6.8149 -1.68868 0
M  V30 487 H 51.7614 -2.93019 0.542596 0
M  V30 488 H 49.2984 -1.44422 0.279401 0
M  V30 489 H 51.2564 -3.76767 -1.79173 0
M  V30 490 H 49.8864 -2.62926 -1.87269 0
M  V30 491 H 48.9384 -3.79594 0.247467 0
M  V30 492 H 50.2504 -4.98689 0.105241 0
M  V30 493 H 49.4044 -5.67402 -2.14803 0
M  V30 494 H 48.1434 -4.4106 -2.08128 0
M  V30 495 H 47.1484 -5.49778 -0.0489293 0
M  V30 496 H 48.3734 -6.78966 -0.135129 0
M  V30 497 H 46.3194 -6.14891 -2.28573 0
M  V30 498 H 46.2364 -7.46948 -1.16636 0
M  V30 499 H 47.5044 -7.43078 -2.3549 0
M  V30 500 N 51.7335 -0.305618 -1.54608 0
M  V30 501 C 52.9795 0.302746 -2.00528 0
M  V30 502 C 53.3125 1.53184 -1.19367 0
M  V30 503 O 52.5875 1.92598 -0.271321 0
M  V30 504 C 52.8705 0.654756 -3.54097 0
M  V30 505 C 52.7235 -0.583793 -4.45995 0
M  V30 506 C 54.0425 1.47947 -4.14487 0
M  V30 507 H 51.1615 0.108564 -0.72896 0
M  V30 508 H 53.8035 -0.418634 -1.85331 0
M  V30 509 H 51.9535 1.26935 -3.67178 0
M  V30 510 H 53.6255 -1.22224 -4.44814 0
M  V30 511 H 51.8685 -1.21615 -4.16404 0
M  V30 512 H 52.5395 -0.293287 -5.5122 0
M  V30 513 H 55.0155 0.96013 -4.04871 0
M  V30 514 H 53.8915 1.69454 -5.22088 0
M  V30 515 H 54.1525 2.47011 -3.66658 0
M  V30 516 N 53.2116 1.57565 -0.0334293 0
M  V30 517 C 54.4606 1.91155 0.643639 0
M  V30 518 C 54.7736 0.91192 1.73042 0
M  V30 519 O 55.9796 1.13923 2.46442 0
M  V30 520 C 54.4356 3.39443 1.1961 0
M  V30 521 C 54.0436 4.47774 0.142381 0
M  V30 522 C 55.7876 3.82094 1.84944 0
M  V30 523 C 53.6946 5.87162 0.706727 0
M  V30 524 H 52.6246 0.713368 0.244176 0
M  V30 525 H 55.2756 1.8323 -0.0994323 0
M  V30 526 H 53.6576 3.42313 1.99092 0
M  V30 527 H 54.8316 4.56469 -0.630296 0
M  V30 528 H 53.1466 4.14352 -0.412446 0
M  V30 529 H 55.7436 4.83591 2.2813 0
M  V30 530 H 56.0866 3.17386 2.69392 0
M  V30 531 H 56.6196 3.81665 1.12145 0
M  V30 532 H 53.3586 6.55424 -0.0997178 0
M  V30 533 H 52.8786 5.82064 1.44779 0
M  V30 534 H 54.5576 6.35866 1.19514 0
M  V30 535 N 54.6897 -0.239769 1.55765 0
M  V30 536 C 55.6197 -1.30052 1.9393 0
M  V30 537 C 56.6007 -1.49839 0.805132 0
M  V30 538 O 57.7857 -1.62328 1.06599 0
M  V30 539 C 54.9157 -2.65391 2.2402 0
M  V30 540 C 53.8697 -2.60289 3.39755 0
M  V30 541 C 53.1957 -3.99489 3.55405 0
M  V30 542 C 54.4957 -2.16654 4.75246 0
M  V30 543 H 56.1897 -0.983573 2.82783 0
M  V30 544 H 53.7357 -0.471701 1.36055 0
M  V30 545 H 55.6887 -3.3974 2.49308 0
M  V30 546 H 54.4127 -2.98736 1.32 0
M  V30 547 H 53.0717 -1.88398 3.14487 0
M  V30 548 H 52.7197 -4.30112 2.60793 0
M  V30 549 H 52.4197 -3.96962 4.33238 0
M  V30 550 H 53.9437 -4.75528 3.83022 0
M  V30 551 H 55.3577 -2.80737 4.99859 0
M  V30 552 H 53.7547 -2.25223 5.56232 0
M  V30 553 H 54.8247 -1.11835 4.71827 0
M  V30 554 N 56.1678 -1.49265 -0.50573 0
M  V30 555 C 57.5788 -1.51769 -1.08734 0
M  V30 556 C 57.9298 -0.301192 -1.93874 0
M  V30 557 O 57.0548 0.589456 -2.08217 0
M  V30 558 C 57.6498 -2.75017 -1.97867 0
M  V30 559 C 56.2088 -2.80314 -2.51199 0
M  V30 560 C 55.3558 -2.4562 -1.28709 0
M  V30 561 H 58.3068 -1.56031 -0.289855 0
M  V30 562 H 58.3278 -2.5491 -2.82491 0
M  V30 563 H 57.8398 -3.63539 -1.35873 0
M  V30 564 H 55.9408 -1.96061 -3.16845 0
M  V30 565 H 56.0538 -3.82366 -2.88675 0
M  V30 566 H 54.4178 -1.97297 -1.61078 0
M  V30 567 H 55.2008 -3.36411 -0.6843 0
M  V30 568 N 57.6459 0.756429 -1.3826 0
M  V30 569 C 59.0619 1.0591 -1.19395 0
M  V30 570 C 59.2619 2.01459 -0.0406567 0
M  V30 571 O 58.3179 2.44909 0.614467 0
M  V30 572 C 59.6309 1.64191 -2.51916 0
M  V30 573 C 61.1789 1.76376 -2.58574 0
M  V30 574 C 61.6539 2.38069 -3.91264 0
M  V30 575 N 63.1449 2.45503 -3.92788 0
M  V30 576 C 63.8799 2.94126 -4.92217 0
M  V30 577 N 63.3759 3.42805 -6.02043 0
M  V30 578 N 65.1689 2.9314 -4.7961 0
M  V30 579 H 57.3199 0.122313 -2.12048 0
M  V30 580 H 59.5829 0.116892 -0.940766 0
M  V30 581 H 59.2889 1.01451 -3.3675 0
M  V30 582 H 59.1629 2.6329 -2.70108 0
M  V30 583 H 61.5499 2.38244 -1.74137 0
M  V30 584 H 61.6309 0.759894 -2.44252 0
M  V30 585 H 61.2749 1.76835 -4.76121 0
M  V30 586 H 61.2049 3.39091 -4.02895 0
M  V30 587 H 63.6959 2.1107 -3.13461 0
M  V30 588 H 64.0089 3.78354 -6.73846 0
M  V30 589 H 62.3539 3.4087 -6.05667 0
M  V30 590 H 65.5449 2.54419 -3.92923 0
M  V30 591 H 65.7179 3.30721 -5.5725 0
M  V30 592 N 59.124 1.23083 0.984299 0
M  V30 593 C 60.372 1.05848 1.72165 0
M  V30 594 C 60.693 -0.406049 1.90726 0
M  V30 595 O 59.963 -1.29139 1.47309 0
M  V30 596 H 58.543 0.388685 0.637913 0
M  V30 597 H 61.205 1.54736 1.18503 0
M  V30 598 H 60.301 1.54327 2.71274 0
M  V30 599 N 60.6021 -1.18246 1.0419 0
M  V30 600 C 61.8501 -1.87886 0.744543 0
M  V30 601 C 62.1711 -1.8082 -0.730006 0
M  V30 602 O 61.4411 -1.22736 -1.52685 0
M  V30 603 H 60.0211 -0.695556 0.272417 0
M  V30 604 H 62.6831 -1.43494 1.31892 0
M  V30 605 H 61.7791 -2.9389 1.05049 0
M  V30 606 N 62.0802 -0.821533 -1.34494 0
M  V30 607 C 63.3052 -0.420873 -2.03085 0
M  V30 608 C 63.7302 0.964915 -1.61465 0
M  V30 609 O 63.0882 1.62763 -0.798607 0
M  V30 610 C 63.1362 -0.529414 -3.56693 0
M  V30 611 O 62.2402 0.451302 -4.09923 0
M  V30 612 H 61.5812 -0.173489 -0.640935 0
M  V30 613 H 64.1112 -1.11157 -1.71771 0
M  V30 614 H 64.1212 -0.404671 -4.05988 0
M  V30 615 H 62.7962 -1.54014 -3.86332 0
M  V30 616 H 61.3732 0.285558 -3.71805 0
M  V30 617 N 63.5583 1.46682 -0.576371 0
M  V30 618 C 64.8043 2.02712 -0.0596221 0
M  V30 619 C 65.1373 1.44765 1.29448 0
M  V30 620 O 64.4123 0.610355 1.84675 0
M  V30 621 C 64.6953 3.60098 0.0129503 0
M  V30 622 C 64.5483 4.28441 -1.3696 0
M  V30 623 C 65.8673 4.34224 0.71678 0
M  V30 624 H 62.9863 0.736637 -0.0231407 0
M  V30 625 H 65.6283 1.74898 -0.742351 0
M  V30 626 H 63.7783 3.83926 0.594378 0
M  V30 627 H 65.4503 4.15896 -1.9957 0
M  V30 628 H 63.6933 3.8805 -1.93907 0
M  V30 629 H 64.3643 5.3716 -1.27135 0
M  V30 630 H 66.8403 4.15503 0.222908 0
M  V30 631 H 65.7163 5.43936 0.73657 0
M  V30 632 H 65.9773 4.04823 1.77682 0
M  V30 633 N 65.0364 0.313813 1.54444 0
M  V30 634 C 65.9664 -0.549454 2.26943 0
M  V30 635 C 66.9474 -1.12741 1.27372 0
M  V30 636 O 68.1324 -1.15436 1.56167 0
M  V30 637 C 65.2624 -1.71523 3.01989 0
M  V30 638 C 64.2164 -1.26703 4.08816 0
M  V30 639 C 63.5424 -2.51898 4.71647 0
M  V30 640 C 64.8424 -0.388962 5.2085 0
M  V30 641 H 66.5364 0.0552661 2.99349 0
M  V30 642 H 64.0824 0.0280207 1.43973 0
M  V30 643 H 66.0354 -2.32535 3.51433 0
M  V30 644 H 64.7594 -2.34639 2.27183 0
M  V30 645 H 63.4184 -0.679896 3.6024 0
M  V30 646 H 63.0664 -3.13356 3.93468 0
M  V30 647 H 62.7664 -2.22605 5.43802 0
M  V30 648 H 64.2904 -3.1369 5.23861 0
M  V30 649 H 65.7044 -0.905107 5.6611 0
M  V30 650 H 64.1014 -0.18924 5.99802 0
M  V30 651 H 65.1714 0.582699 4.81386 0
M  V30 652 N 66.5145 -1.57545 0.0417849 0
M  V30 653 C 67.7605 -1.92601 -0.635021 0
M  V30 654 C 68.0935 -0.919627 -1.71045 0
M  V30 655 O 67.3685 0.0557892 -1.9442 0
M  V30 656 C 67.6515 -3.38085 -1.23979 0
M  V30 657 C 67.5045 -4.49467 -0.173057 0
M  V30 658 C 68.8235 -3.83776 -2.15416 0
M  V30 659 H 65.9425 -0.700397 -0.229374 0
M  V30 660 H 68.5845 -1.89728 0.101633 0
M  V30 661 H 66.7345 -3.40664 -1.86762 0
M  V30 662 H 68.4065 -4.59018 0.458312 0
M  V30 663 H 66.6495 -4.30909 0.499996 0
M  V30 664 H 67.3205 -5.48323 -0.636054 0
M  V30 665 H 69.7965 -3.83013 -1.62605 0
M  V30 666 H 68.6725 -4.8624 -2.54679 0
M  V30 667 H 68.9335 -3.19998 -3.05047 0
M  V30 668 N 67.9926 0.231505 -1.5589 0
M  V30 669 C 69.2206 0.974505 -1.82513 0
M  V30 670 C 69.6356 1.78344 -0.619591 0
M  V30 671 O 68.9926 1.77792 0.411848 0
M  V30 672 C 69.0436 1.90007 -3.07538 0
M  V30 673 O 68.7646 1.12385 -4.2344 0
M  V30 674 C 70.2656 2.75779 -3.47075 0
M  V30 675 H 67.4856 0.286065 -0.606966 0
M  V30 676 H 70.0296 0.249739 -2.02969 0
M  V30 677 H 68.1846 2.57891 -2.89086 0
M  V30 678 H 68.5986 1.75125 -4.944 0
M  V30 679 H 70.0726 3.36443 -4.37619 0
M  V30 680 H 70.5496 3.47672 -2.68367 0
M  V30 681 H 71.1556 2.13323 -3.67931 0
M  V30 682 N 69.4707 1.49531 0.497807 0
M  V30 683 C 70.7107 1.60799 1.26187 0
M  V30 684 C 71.0747 0.289627 1.89803 0
M  V30 685 O 72.2757 0.277512 2.67364 0
M  V30 686 C 70.5467 2.73729 2.29798 0
M  V30 687 S 72.1057 3.04968 3.155 0
M  V30 688 H 68.9237 0.567145 0.428798 0
M  V30 689 H 71.5257 1.87204 0.563477 0
M  V30 690 H 70.2297 3.68036 1.81597 0
M  V30 691 H 69.7607 2.49328 3.04301 0
M  V30 692 H 71.7757 2.46735 4.30507 0
M  V30 693 N 70.9488 -0.749086 1.3866 0
M  V30 694 C 72.1738 -1.54344 1.38538 0
M  V30 695 C 72.5988 -1.88088 -0.0216655 0
M  V30 696 O 71.9568 -1.50899 -1.00494 0
M  V30 697 C 72.0048 -2.8164 2.25192 0
M  V30 698 O 71.1088 -3.7698 1.67212 0
M  V30 699 H 70.4498 -0.466654 0.472367 0
M  V30 700 H 72.9798 -0.925355 1.82478 0
M  V30 701 H 72.9898 -3.30519 2.3921 0
M  V30 702 H 71.6648 -2.56411 3.27454 0
M  V30 703 H 70.2418 -3.35699 1.6236 0
M  V30 704 N 72.4269 -1.23603 -0.977757 0
M  V30 705 C 73.6549 -1.09646 -1.75458 0
M  V30 706 C 74.0699 0.351859 -1.85492 0
M  V30 707 O 73.4269 1.24327 -1.336 0
M  V30 708 C 73.4779 -1.71895 -3.18016 0
M  V30 709 O 73.1989 -3.11063 -3.08498 0
M  V30 710 C 74.6999 -1.63415 -4.12081 0
M  V30 711 H 71.9199 -0.38359 -0.550545 0
M  V30 712 H 74.4639 -1.63507 -1.22824 0
M  V30 713 H 72.6189 -1.22061 -3.67668 0
M  V30 714 H 73.0329 -3.41305 -3.9826 0
M  V30 715 H 74.5069 -2.11669 -5.09804 0
M  V30 716 H 74.9839 -0.593462 -4.35172 0
M  V30 717 H 75.5899 -2.12628 -3.68334 0
M  V30 718 N 73.905 1.17692 -1.04816 0
M  V30 719 C 75.13 1.92327 -0.776207 0
M  V30 720 C 75.555 1.76082 0.661581 0
M  V30 721 O 74.913 1.076 1.45917 0
M  V30 722 C 74.961 3.41539 -1.15687 0
M  V30 723 O 74.065 4.11402 -0.286775 0
M  V30 724 H 73.406 0.599735 -0.284981 0
M  V30 725 H 75.936 1.49201 -1.4 0
M  V30 726 H 75.946 3.92269 -1.12202 0
M  V30 727 H 74.621 3.52684 -2.20425 0
M  V30 728 H 73.198 3.70939 -0.381903 0
M  V30 729 N 75.3831 0.828654 1.34056 0
M  V30 730 C 76.6231 0.425394 1.99924 0
M  V30 731 C 76.9871 -0.994294 1.64249 0
M  V30 732 O 78.1881 -1.50074 2.23005 0
M  V30 733 C 76.4591 0.628071 3.51838 0
M  V30 734 S 78.0181 0.318511 4.37642 0
M  V30 735 H 74.8361 0.160465 0.692656 0
M  V30 736 H 77.4381 1.07572 1.63244 0
M  V30 737 H 76.1421 1.66089 3.7529 0
M  V30 738 H 75.6731 -0.0367799 3.93383 0
M  V30 739 H 77.6881 -0.865632 4.88591 0
M  V30 740 N 76.8612 -1.46375 0.584142 0
M  V30 741 C 78.1382 -1.956 0.0033388 0
M  V30 742 C 78.5182 -1.52679 -1.45782 0
M  V30 743 O 77.8662 -0.77816 -2.14842 0
M  V30 744 C 78.0762 -3.48551 0.176891 0
M  V30 745 C 79.4242 -4.24576 0.0454609 0
M  V30 746 O 80.4482 -3.56043 0.105801 0
M  V30 747 O 79.3072 -5.46427 -0.0890376 0
M  V30 748 H 76.4012 -0.825547 -0.0490066 0
M  V30 749 H 78.9472 -1.56652 0.65256 0
M  V30 750 H 77.7192 -3.72683 1.1926 0
M  V30 751 H 77.3422 -3.94332 -0.508695 0
M  V30 752 N 78.3393 -0.321999 -1.54275 0
M  V30 753 C 79.2713 0.578671 -2.21775 0
M  V30 754 C 80.2843 1.08109 -1.21722 0
M  V30 755 O 81.4733 0.994938 -1.482 0
M  V30 756 C 78.5733 1.80661 -2.86731 0
M  V30 757 C 77.7463 1.44314 -4.12907 0
M  V30 758 C 76.8053 2.52845 -4.61472 0
M  V30 759 O 75.8313 2.17054 -5.2619 0
M  V30 760 N 77.0333 3.83748 -4.35566 0
M  V30 761 H 79.7983 0.000709447 -2.997 0
M  V30 762 H 77.3593 -0.145132 -1.61248 0
M  V30 763 H 79.3513 2.52655 -3.16145 0
M  V30 764 H 77.9213 2.29245 -2.12521 0
M  V30 765 H 77.1413 0.554906 -3.90275 0
M  V30 766 H 78.4293 1.17598 -4.95023 0
M  V30 767 H 77.8273 4.15625 -3.83761 0
M  V30 768 H 76.3843 4.51977 -4.69638 0
M  V30 769 N 79.8174 1.5752 -0.0501392 0
M  V30 770 C 81.2284 1.80271 0.485705 0
M  V30 771 C 81.5794 0.96228 1.70981 0
M  V30 772 O 80.7044 0.178578 2.15662 0
M  V30 773 C 81.2994 3.26957 0.887938 0
M  V30 774 C 79.8584 3.5063 1.36877 0
M  V30 775 C 79.0054 2.75165 0.343468 0
M  V30 776 H 81.9564 1.56281 -0.276028 0
M  V30 777 H 81.9774 3.37821 1.75093 0
M  V30 778 H 81.4894 3.881 -0.0031809 0
M  V30 779 H 79.5904 2.94766 2.27911 0
M  V30 780 H 79.7034 4.59343 1.36164 0
M  V30 781 H 78.0674 2.4127 0.816128 0
M  V30 782 H 78.8504 3.39034 -0.539548 0
M  V30 783 N 81.2955 -0.223234 1.56011 0
M  V30 784 C 82.2425 -1.27664 1.92277 0
M  V30 785 C 83.2125 -1.46659 0.779763 0
M  V30 786 O 84.3975 -1.60256 1.03551 0
M  V30 787 C 81.5375 -2.62234 2.24338 0
M  V30 788 C 80.6505 -2.51051 3.51564 0
M  V30 789 C 79.7855 -3.78133 3.7308 0
M  V30 790 C 78.8245 -3.61665 4.93827 0
M  V30 791 N 77.9615 -4.80693 5.11741 0
M  V30 792 H 82.8015 -0.960358 2.82101 0
M  V30 793 H 80.3385 -0.462901 1.39627 0
M  V30 794 H 82.2965 -3.40596 2.40936 0
M  V30 795 H 80.9265 -2.91961 1.3769 0
M  V30 796 H 79.9785 -1.64132 3.43169 0
M  V30 797 H 81.2905 -2.34803 4.40079 0
M  V30 798 H 80.4445 -4.64938 3.89766 0
M  V30 799 H 79.1835 -3.97304 2.82844 0
M  V30 800 H 78.1885 -2.73244 4.77093 0
M  V30 801 H 79.4135 -3.43966 5.85546 0
M  V30 802 H 77.3595 -5.00181 4.24446 0
M  V30 803 H 77.2765 -4.67165 5.94384 0
M  V30 804 H 78.5445 -5.6893 5.3286 0
M  V30 805 N 82.7736 -1.49793 -0.48987 0
M  V30 806 C 83.7036 -1.70201 -1.59856 0
M  V30 807 C 84.6846 -0.55076 -1.60937 0
M  V30 808 O 85.8696 -0.787841 -1.77501 0
M  V30 809 C 82.9996 -1.77882 -2.98287 0
M  V30 810 C 81.9536 -2.92907 -3.12073 0
M  V30 811 C 81.2796 -2.85712 -4.51965 0
M  V30 812 C 82.5796 -4.3369 -2.91051 0
M  V30 813 H 84.2736 -2.63025 -1.43032 0
M  V30 814 H 81.8196 -1.26574 -0.686664 0
M  V30 815 H 83.7726 -1.90744 -3.75759 0
M  V30 816 H 82.4966 -0.816653 -3.16225 0
M  V30 817 H 81.1556 -2.79665 -2.37029 0
M  V30 818 H 80.8036 -1.8738 -4.66795 0
M  V30 819 H 80.5036 -3.62921 -4.62128 0
M  V30 820 H 82.0276 -3.00598 -5.31482 0
M  V30 821 H 83.4416 -4.47555 -3.58284 0
M  V30 822 H 81.8386 -5.12205 -3.12675 0
M  V30 823 H 82.9086 -4.47362 -1.87071 0
M  V30 824 N 84.2517 0.741722 -1.39055 0
M  V30 825 C 85.1817 1.869 -1.39966 0
M  V30 826 C 86.1627 1.6804 -0.26392 0
M  V30 827 O 87.3477 1.88458 -0.468755 0
M  V30 828 C 84.4777 3.24572 -1.23574 0
M  V30 829 C 83.4317 3.58056 -2.34477 0
M  V30 830 C 82.7577 4.94593 -2.0318 0
M  V30 831 C 84.0577 3.61716 -3.76774 0
M  V30 832 H 85.7517 1.86395 -2.34302 0
M  V30 833 H 83.2977 0.895361 -1.1278 0
M  V30 834 H 85.2507 4.031 -1.22834 0
M  V30 835 H 83.9747 3.25587 -0.257045 0
M  V30 836 H 82.6337 2.81854 -2.34423 0
M  V30 837 H 82.2817 4.92181 -1.03765 0
M  V30 838 H 81.9817 5.17964 -2.77465 0
M  V30 839 H 83.5057 5.75486 -2.04079 0
M  V30 840 H 84.9197 4.30335 -3.78794 0
M  V30 841 H 83.3167 3.96603 -4.50362 0
M  V30 842 H 84.3867 2.61672 -4.08235 0
M  V30 843 N 85.7298 1.2412 0.971189 0
M  V30 844 C 86.9778 1.07668 1.71032 0
M  V30 845 C 87.2988 -0.385797 1.91146 0
M  V30 846 O 86.5688 -1.27569 1.4867 0
M  V30 847 H 85.1488 0.395429 0.633755 0
M  V30 848 H 87.8108 1.55984 1.16855 0
M  V30 849 H 86.9068 1.57195 2.69622 0
M  V30 850 N 87.2079 -1.17134 1.05439 0
M  V30 851 C 88.4569 -1.86791 0.761049 0
M  V30 852 C 88.7699 -1.82072 -0.714795 0
M  V30 853 O 89.9759 -2.47223 -1.12218 0
M  V30 854 C 88.4319 -3.35166 1.31117 0
M  V30 855 C 88.0399 -3.48381 2.81664 0
M  V30 856 C 89.7839 -4.10134 1.09499 0
M  V30 857 C 87.6909 -4.90793 3.29964 0
M  V30 858 H 86.6209 -0.699681 0.281002 0
M  V30 859 H 89.2719 -1.3226 1.27199 0
M  V30 860 H 87.6539 -3.8925 0.72803 0
M  V30 861 H 88.8279 -3.04502 3.45855 0
M  V30 862 H 87.1429 -2.86836 3.01851 0
M  V30 863 H 89.7399 -5.152 1.43084 0
M  V30 864 H 90.0829 -4.16287 0.0328772 0
M  V30 865 H 90.6159 -3.62264 1.64346 0
M  V30 866 H 87.3549 -4.89816 4.35616 0
M  V30 867 H 86.8749 -5.35333 2.70516 0
M  V30 868 H 88.5539 -5.59573 3.24787 0
M  V30 869 N 88.686 -0.835752 -1.33615 0
M  V30 870 C 89.596 -0.269088 -2.33052 0
M  V30 871 C 90.612 0.603251 -1.63208 0
M  V30 872 O 91.788 0.508112 -1.94885 0
M  V30 873 C 88.853 0.549091 -3.42324 0
M  V30 874 C 87.914 -0.347156 -4.27894 0
M  V30 875 C 87.147 0.43207 -5.31948 0
M  V30 876 O 87.37 1.66409 -5.45586 0
M  V30 877 O 86.304 -0.192298 -6.01593 0
M  V30 878 H 90.13 -1.09243 -2.83372 0
M  V30 879 H 87.715 -0.598198 -1.36901 0
M  V30 880 H 89.597 1.01414 -4.09015 0
M  V30 881 H 88.272 1.34955 -2.94226 0
M  V30 882 H 87.179 -0.859979 -3.64081 0
M  V30 883 H 88.512 -1.1123 -4.79467 0
M  V30 884 N 90.1641 1.46063 -0.591896 0
M  V30 885 C 91.3921 2.06717 -0.0868936 0
M  V30 886 C 91.8071 1.43916 1.22203 0
M  V30 887 O 91.1641 0.547698 1.74088 0
M  V30 888 C 91.2151 3.6142 0.0758725 0
M  V30 889 O 90.9361 4.21874 -1.18126 0
M  V30 890 C 92.4371 4.39025 0.61416 0
M  V30 891 H 89.6571 0.668162 -0.0616518 0
M  V30 892 H 92.2011 1.8755 -0.815175 0
M  V30 893 H 90.3561 3.79983 0.754413 0
M  V30 894 H 90.7701 5.14861 -1.00092 0
M  V30 895 H 92.2441 5.4783 0.677193 0
M  V30 896 H 92.7211 4.07708 1.63312 0
M  V30 897 H 93.3271 4.2529 -0.0298142 0
M  V30 898 N 91.6422 0.330177 1.54103 0
M  V30 899 C 93.0532 -0.15652 1.86043 0
M  V30 900 C 93.4042 -1.51086 1.2517 0
M  V30 901 O 92.5292 -2.09023 0.560217 0
M  V30 902 C 93.1242 -0.290784 3.3755 0
M  V30 903 C 91.6832 -0.721705 3.69416 0
M  V30 904 C 90.8302 0.152622 2.7688 0
M  V30 905 H 93.7812 0.550237 1.48856 0
M  V30 906 H 93.8022 -1.12058 3.63625 0
M  V30 907 H 93.3142 0.695068 3.81825 0
M  V30 908 H 91.4152 -1.71706 3.30678 0
M  V30 909 H 91.5282 -0.520869 4.7626 0
M  V30 910 H 89.8922 -0.372894 2.51956 0
M  V30 911 H 90.6752 1.13536 3.23982 0
M  V30 912 N 93.1203 -1.57491 0.0584922 0
M  V30 913 C 94.0503 -2.14988 -0.911178 0
M  V30 914 C 95.0313 -1.07343 -1.31952 0
M  V30 915 O 96.2163 -1.35318 -1.39294 0
M  V30 916 C 93.3463 -2.70078 -2.18347 0
M  V30 917 C 92.3003 -3.82771 -1.91495 0
M  V30 918 C 91.6263 -4.24408 -3.25241 0
M  V30 919 C 92.9263 -5.07592 -1.23075 0
M  V30 920 H 94.6203 -2.96263 -0.432246 0
M  V30 921 H 92.1663 -1.42512 -0.206469 0
M  V30 922 H 94.1193 -3.08943 -2.86587 0
M  V30 923 H 92.8433 -1.86005 -2.68458 0
M  V30 924 H 91.5023 -3.44389 -1.25664 0
M  V30 925 H 91.1503 -3.37275 -3.73168 0
M  V30 926 H 90.8503 -5.00366 -3.08071 0
M  V30 927 H 92.3743 -4.65879 -3.94701 0
M  V30 928 H 93.7883 -5.43857 -1.81362 0
M  V30 929 H 92.1853 -5.88741 -1.16207 0
M  V30 930 H 93.2553 -4.84454 -0.207847 0
M  V30 931 N 94.5984 0.214957 -1.56127 0
M  V30 932 C 96.0094 0.781386 -1.69562 0
M  V30 933 C 96.3604 1.84707 -0.66165 0
M  V30 934 O 95.4854 2.156 0.185927 0
M  V30 935 C 96.0804 1.42411 -3.07416 0
M  V30 936 C 94.6394 1.93786 -3.22683 0
M  V30 937 C 93.7864 0.800438 -2.65496 0
M  V30 938 H 96.7374 -0.00980633 -1.58697 0
M  V30 939 H 96.7584 2.29309 -3.0364 0
M  V30 940 H 96.2704 0.64826 -3.82648 0
M  V30 941 H 94.3714 2.74152 -2.52332 0
M  V30 942 H 94.4844 2.1133 -4.29973 0
M  V30 943 H 92.8484 1.2095 -2.2415 0
M  V30 944 H 93.6314 0.0371471 -3.4328 0
M  V30 945 N 96.0765 1.50051 0.48192 0
M  V30 946 C 97.0235 1.68122 1.58125 0
M  V30 947 C 97.9935 0.522545 1.57666 0
M  V30 948 O 99.1785 0.751844 1.75362 0
M  V30 949 C 96.3185 1.77142 2.96167 0
M  V30 950 C 95.4315 3.0444 3.06497 0
M  V30 951 C 94.5665 3.04321 4.35387 0
M  V30 952 C 93.6055 4.26118 4.3942 0
M  V30 953 N 92.7425 4.238 5.59766 0
M  V30 954 H 97.5825 2.6198 1.42022 0
M  V30 955 H 95.1195 1.29877 0.690687 0
M  V30 956 H 97.0775 1.80352 3.76203 0
M  V30 957 H 95.7075 0.867329 3.1093 0
M  V30 958 H 94.7595 3.10752 2.19402 0
M  V30 959 H 96.0715 3.94426 3.05336 0
M  V30 960 H 95.2255 3.062 5.23762 0
M  V30 961 H 93.9645 2.12147 4.39141 0
M  V30 962 H 92.9695 4.24463 3.49444 0
M  V30 963 H 94.1945 5.19507 4.37366 0
M  V30 964 H 92.1405 3.34474 5.64326 0
M  V30 965 H 92.0575 5.07542 5.60301 0
M  V30 966 H 93.3255 4.2981 6.50295 0
M  V30 967 N 97.5546 -0.734337 1.39446 0
M  V30 968 C 98.5016 -1.84835 1.38219 0
M  V30 969 C 99.4716 -1.64331 0.24179 0
M  V30 970 O 100.657 -1.85728 0.437002 0
M  V30 971 C 97.7966 -3.22355 1.23212 0
M  V30 972 C 96.9096 -3.5456 2.46801 0
M  V30 973 C 96.0446 -4.81485 2.24377 0
M  V30 974 C 95.0836 -5.06536 3.43639 0
M  V30 975 N 94.2206 -6.24665 3.20528 0
M  V30 976 H 99.0606 -1.85219 2.33448 0
M  V30 977 H 96.5976 -0.905039 1.15963 0
M  V30 978 H 98.5556 -4.0174 1.12522 0
M  V30 979 H 97.1856 -3.21248 0.316121 0
M  V30 980 H 96.2376 -2.69872 2.68092 0
M  V30 981 H 97.5496 -3.6899 3.3563 0
M  V30 982 H 96.7036 -5.68852 2.10933 0
M  V30 983 H 95.4426 -4.6923 1.32944 0
M  V30 984 H 94.4476 -4.17632 3.5758 0
M  V30 985 H 95.6726 -5.20676 4.35974 0
M  V30 986 H 93.6186 -6.13696 2.3176 0
M  V30 987 H 93.5356 -6.39685 4.02913 0
M  V30 988 H 94.8036 -7.14868 3.10779 0
M  V30 989 N 99.0327 -1.24633 -0.964593 0
M  V30 990 C 99.9427 -1.05859 -2.09359 0
M  V30 991 C 100.959 0.00148855 -1.74 0
M  V30 992 O 102.135 -0.197346 -2.00431 0
M  V30 993 C 99.1997 -0.668879 -3.40187 0
M  V30 994 C 98.2607 -1.80578 -3.89474 0
M  V30 995 C 97.4937 -1.43457 -5.14058 0
M  V30 996 O 97.7167 -0.325775 -5.69469 0
M  V30 997 O 96.6507 -2.2613 -5.57807 0
M  V30 998 H 100.477 -2.00516 -2.28094 0
M  V30 999 H 98.0617 -1.03481 -1.0776 0
M  V30 1000 H 99.9437 -0.463211 -4.18846 0
M  V30 1001 H 98.6187 0.248536 -3.22744 0
M  V30 1002 H 97.5257 -2.06623 -3.11862 0
M  V30 1003 H 98.8587 -2.70208 -4.11398 0
M  V30 1004 N 100.511 1.16574 -1.06058 0
M  V30 1005 C 101.441 2.23057 -0.690488 0
M  V30 1006 C 102.422 1.67141 0.315901 0
M  V30 1007 O 103.607 1.93253 0.191556 0
M  V30 1008 C 100.737 3.47222 -0.073625 0
M  V30 1009 C 99.6908 4.16016 -1.00573 0
M  V30 1010 C 99.0168 5.34104 -0.252289 0
M  V30 1011 C 100.317 4.67264 -2.33371 0
M  V30 1012 H 102.011 2.54271 -1.58072 0
M  V30 1013 H 99.5568 1.22218 -0.76149 0
M  V30 1014 H 101.51 4.20939 0.19714 0
M  V30 1015 H 100.234 3.15302 0.85161 0
M  V30 1016 H 98.8928 3.44223 -1.2612 0
M  V30 1017 H 98.5408 4.98437 0.675988 0
M  V30 1018 H 98.2408 5.81072 -0.873455 0
M  V30 1019 H 99.7648 6.10599 0.0109857 0
M  V30 1020 H 101.179 5.32573 -2.12223 0
M  V30 1021 H 99.5758 5.24843 -2.90963 0
M  V30 1022 H 100.646 3.83602 -2.96611 0
M  V30 1023 N 101.989 0.842826 1.3317 0
M  V30 1024 C 102.919 0.294028 2.31641 0
M  V30 1025 C 103.9 -0.600401 1.59151 0
M  V30 1026 O 105.085 -0.523124 1.87022 0
M  V30 1027 C 102.215 -0.528416 3.43257 0
M  V30 1028 C 101.169 0.27056 4.27144 0
M  V30 1029 C 100.495 -0.675881 5.30411 0
M  V30 1030 C 101.795 1.48981 5.00602 0
M  V30 1031 H 103.489 1.11681 2.77791 0
M  V30 1032 H 101.035 0.538478 1.33553 0
M  V30 1033 H 102.988 -0.922674 4.11175 0
M  V30 1034 H 101.712 -1.38445 2.95805 0
M  V30 1035 H 100.371 0.646427 3.60856 0
M  V30 1036 H 100.019 -1.52842 4.79216 0
M  V30 1037 H 99.7189 -0.145374 5.8742 0
M  V30 1038 H 101.243 -1.06757 6.01195 0
M  V30 1039 H 102.657 1.16849 5.61266 0
M  V30 1040 H 101.054 1.95739 5.6728 0
M  V30 1041 H 102.124 2.25746 4.29147 0
M  V30 1042 N 103.467 -1.45747 0.599634 0
M  V30 1043 C 104.397 -2.33235 -0.111306 0
M  V30 1044 C 105.378 -1.46359 -0.866781 0
M  V30 1045 O 106.563 -1.75146 -0.838904 0
M  V30 1046 C 103.693 -3.28932 -1.11451 0
M  V30 1047 C 102.647 -4.25381 -0.472772 0
M  V30 1048 C 101.973 -5.1071 -1.58365 0
M  V30 1049 C 103.273 -5.18831 0.600948 0
M  V30 1050 H 104.967 -2.92927 0.61919 0
M  V30 1051 H 102.513 -1.40857 0.299215 0
M  V30 1052 H 104.466 -3.89002 -1.62036 0
M  V30 1053 H 103.19 -2.67381 -1.8755 0
M  V30 1054 H 101.849 -3.66598 0.0121472 0
M  V30 1055 H 101.497 -4.45533 -2.33473 0
M  V30 1056 H 101.197 -5.7604 -1.15982 0
M  V30 1057 H 102.721 -5.73647 -2.09194 0
M  V30 1058 H 104.135 -5.73019 0.179491 0
M  V30 1059 H 102.532 -5.92595 0.946076 0
M  V30 1060 H 103.602 -4.6174 1.48068 0
M  V30 1061 N 104.945 -0.338344 -1.53925 0
M  V30 1062 C 106.356 0.146651 -1.86123 0
M  V30 1063 C 106.707 1.5042 -1.2597 0
M  V30 1064 O 105.832 2.08723 -0.571294 0
M  V30 1065 C 106.427 0.272879 -3.37699 0
M  V30 1066 C 104.986 0.702103 -3.69794 0
M  V30 1067 C 104.133 -0.167304 -2.76795 0
M  V30 1068 H 107.084 -0.558123 -1.48562 0
M  V30 1069 H 107.105 1.10128 -3.64214 0
M  V30 1070 H 106.617 -0.715307 -3.81451 0
M  V30 1071 H 104.718 1.6995 -3.31584 0
M  V30 1072 H 104.831 0.495604 -4.7653 0
M  V30 1073 H 103.195 0.359527 -2.5215 0
M  V30 1074 H 103.978 -1.15253 -3.23375 0
M  V30 1075 N 106.423 1.57458 -0.0668435 0
M  V30 1076 C 107.671 1.92919 0.602214 0
M  V30 1077 C 107.992 0.947215 1.70449 0
M  V30 1078 O 107.262 -0.00544117 1.95899 0
M  V30 1079 H 105.842 0.71217 0.22544 0
M  V30 1080 H 108.504 1.94508 -0.123535 0
M  V30 1081 H 107.6 2.94589 1.03073 0
M  V30 1082 N 107.901 -0.206675 1.56239 0
M  V30 1083 C 108.849 -1.27571 1.94495 0
M  V30 1084 C 109.843 -1.47737 0.828862 0
M  V30 1085 O 111.049 -1.48735 1.0138 0
M  V30 1086 H 107.424 -0.428029 0.6183 0
M  V30 1087 H 109.395 -0.925961 2.8367 0
M  V30 1088 C 108.144 -2.61568 2.29079 0
M  V30 1089 H 107.467 -2.46863 3.14482 0
M  V30 1090 H 108.907 -3.35144 2.5972 0
M  V30 1091 C 107.366 -3.17695 1.12123 0
M  V30 1092 O 107.896 -3.99801 0.390153 0
M  V30 1093 N 106.102 -2.76276 0.901097 0
M  V30 1094 H 105.649 -2.09613 1.49733 0
M  V30 1095 H 105.607 -3.1417 0.120319 0
M  V30 1096 N 109.379 -1.50304 -0.473955 0
M  V30 1097 C 110.327 -1.69482 -1.59307 0
M  V30 1098 C 111.321 -0.560669 -1.59853 0
M  V30 1099 O 112.527 -0.741087 -1.64036 0
M  V30 1100 H 108.902 -0.534892 -0.528578 0
M  V30 1101 H 110.873 -2.63364 -1.40293 0
M  V30 1102 C 109.622 -1.80354 -2.97267 0
M  V30 1103 H 108.945 -2.67012 -2.97564 0
M  V30 1104 H 110.385 -1.97798 -3.75036 0
M  V30 1105 C 108.844 -0.55448 -3.32306 0
M  V30 1106 O 109.374 0.307661 -4.0052 0
M  V30 1107 N 107.58 -0.409354 -2.87702 0
M  V30 1108 H 107.127 -1.11196 -2.32364 0
M  V30 1109 H 107.085 0.425223 -3.11511 0
M  V30 1110 N 110.857 0.726932 -1.39834 0
M  V30 1111 C 112.273 1.03354 -1.21615 0
M  V30 1112 C 112.473 2.01327 -0.08338 0
M  V30 1113 O 111.529 2.46158 0.56238 0
M  V30 1114 C 112.842 1.58811 -2.55342 0
M  V30 1115 C 114.39 1.70851 -2.62257 0
M  V30 1116 C 114.865 2.29716 -3.96225 0
M  V30 1117 N 116.356 2.37116 -3.97907 0
M  V30 1118 C 117.091 2.83619 -4.98345 0
M  V30 1119 N 116.587 3.29958 -6.09179 0
M  V30 1120 N 118.38 2.82901 -4.8572 0
M  V30 1121 H 110.531 0.0773069 -2.12259 0
M  V30 1122 H 112.794 0.0969102 -0.943034 0
M  V30 1123 H 112.5 0.942855 -3.38826 0
M  V30 1124 H 112.374 2.57502 -2.75632 0
M  V30 1125 H 114.761 2.34497 -1.79152 0
M  V30 1126 H 114.842 0.707913 -2.45809 0
M  V30 1127 H 114.486 1.66696 -4.79765 0
M  V30 1128 H 114.416 3.30469 -4.09997 0
M  V30 1129 H 116.907 2.04374 -3.17868 0
M  V30 1130 H 117.22 3.63976 -6.8172 0
M  V30 1131 H 115.565 3.27946 -6.12761 0
M  V30 1132 H 118.756 2.46027 -3.98231 0
M  V30 1133 H 118.929 3.18827 -5.6414 0
M  V30 1134 N 112.336 1.25143 0.95797 0
M  V30 1135 C 113.283 1.05235 2.05412 0
M  V30 1136 C 114.253 -0.0374561 1.66058 0
M  V30 1137 O 115.438 0.119073 1.90428 0
M  V30 1138 C 112.578 0.673589 3.38462 0
M  V30 1139 C 111.691 1.8379 3.90954 0
M  V30 1140 C 110.826 1.40381 5.12315 0
M  V30 1141 C 109.865 2.53746 5.57027 0
M  V30 1142 N 109.002 2.11136 6.69601 0
M  V30 1143 H 113.842 1.99048 2.21774 0
M  V30 1144 H 111.379 0.991277 1.08683 0
M  V30 1145 H 113.337 0.434964 4.14926 0
M  V30 1146 H 111.967 -0.227554 3.21997 0
M  V30 1147 H 111.019 2.18992 3.11041 0
M  V30 1148 H 112.331 2.68937 4.20089 0
M  V30 1149 H 111.485 1.12464 5.96185 0
M  V30 1150 H 110.224 0.523015 4.84887 0
M  V30 1151 H 109.229 2.82412 4.71724 0
M  V30 1152 H 110.454 3.42398 5.86464 0
M  V30 1153 H 108.4 1.25468 6.4389 0
M  V30 1154 H 108.317 2.89832 6.98236 0
M  V30 1155 H 109.585 1.86385 7.56889 0
M  V30 1156 N 113.814 -1.1601 1.06675 0
M  V30 1157 C 115.06 -1.86909 0.786945 0
M  V30 1158 C 115.393 -1.81717 -0.685018 0
M  V30 1159 O 114.668 -1.23551 -1.50218 0
M  V30 1160 C 114.951 -3.36313 1.28707 0
M  V30 1161 C 114.804 -3.50175 2.82308 0
M  V30 1162 C 116.123 -4.3084 0.898071 0
M  V30 1163 H 113.242 -0.678677 0.287343 0
M  V30 1164 H 115.884 -1.36336 1.32334 0
M  V30 1165 H 114.034 -3.79513 0.830768 0
M  V30 1166 H 115.706 -3.15886 3.36175 0
M  V30 1167 H 113.949 -2.91959 3.20847 0
M  V30 1168 H 114.62 -4.55116 3.12368 0
M  V30 1169 H 117.096 -3.95561 1.29114 0
M  V30 1170 H 115.972 -5.33876 1.27543 0
M  V30 1171 H 116.233 -4.41662 -0.196651 0
M  V30 1172 N 115.292 -0.849877 -1.32721 0
M  V30 1173 C 116.522 -0.46408 -2.0132 0
M  V30 1174 C 116.93 0.94246 -1.64056 0
M  V30 1175 O 116.273 1.6257 -0.855379 0
M  V30 1176 C 116.335 -0.517887 -3.5575 0
M  V30 1177 C 115.999 -1.88248 -4.16427 0
M  V30 1178 C 116.996 -2.84726 -4.35002 0
M  V30 1179 C 114.681 -2.17832 -4.52609 0
M  V30 1180 C 116.675 -4.08945 -4.8892 0
M  V30 1181 C 114.362 -3.42304 -5.06232 0
M  V30 1182 C 115.36 -4.37677 -5.24335 0
M  V30 1183 O 115.048 -5.59946 -5.76815 0
M  V30 1184 H 114.78 -0.181327 -0.651227 0
M  V30 1185 H 117.334 -1.14713 -1.70382 0
M  V30 1186 H 115.564 0.221997 -3.86062 0
M  V30 1187 H 117.253 -0.148366 -4.05629 0
M  V30 1188 H 118.019 -2.63174 -4.07388 0
M  V30 1189 H 113.898 -1.44385 -4.37806 0
M  V30 1190 H 117.442 -4.83396 -5.02966 0
M  V30 1191 H 113.339 -3.63709 -5.33278 0
M  V30 1192 H 114.107 -5.61838 -5.95214 0
M  V30 1193 N 116.77 1.45427 -0.607355 0
M  V30 1194 C 117.68 2.34325 0.113463 0
M  V30 1195 C 118.696 1.51226 0.860617 0
M  V30 1196 O 119.872 1.84029 0.818255 0
M  V30 1197 C 116.937 3.28839 1.09844 0
M  V30 1198 C 115.998 4.27844 0.353271 0
M  V30 1199 C 115.231 5.17842 1.29133 0
M  V30 1200 O 115.454 5.11264 2.52913 0
M  V30 1201 O 114.388 5.96713 0.788523 0
M  V30 1202 H 118.214 2.97364 -0.617094 0
M  V30 1203 H 115.799 1.44807 -0.367619 0
M  V30 1204 H 117.681 3.8708 1.66575 0
M  V30 1205 H 116.356 2.68365 1.81003 0
M  V30 1206 H 115.263 3.7322 -0.256494 0
M  V30 1207 H 116.596 4.91173 -0.317822 0
M  V30 1208 N 118.248 0.346503 1.53744 0
M  V30 1209 C 119.178 -0.501193 2.28058 0
M  V30 1210 C 120.159 -1.10014 1.29734 0
M  V30 1211 O 121.344 -1.12097 1.58581 0
M  V30 1212 C 118.474 -1.65078 3.05559 0
M  V30 1213 C 117.428 -1.18003 4.11411 0
M  V30 1214 C 116.754 -2.41837 4.76884 0
M  V30 1215 C 118.054 -0.278394 5.21558 0
M  V30 1216 H 119.748 0.11875 2.99164 0
M  V30 1217 H 117.294 0.0585531 1.43881 0
M  V30 1218 H 119.247 -2.25028 3.56287 0
M  V30 1219 H 117.971 -2.29767 2.32109 0
M  V30 1220 H 116.63 -0.603331 3.61601 0
M  V30 1221 H 116.278 -3.0494 4.00026 0
M  V30 1222 H 115.978 -2.1102 5.48402 0
M  V30 1223 H 117.502 -3.02508 5.30397 0
M  V30 1224 H 118.916 -0.784823 5.67903 0
M  V30 1225 H 117.313 -0.0619707 6.00068 0
M  V30 1226 H 118.383 0.684677 4.80042 0
M  V30 1227 N 119.726 -1.57421 0.075193 0
M  V30 1228 C 120.951 -1.98364 -0.605515 0
M  V30 1229 C 121.376 -0.953383 -1.62149 0
M  V30 1230 O 120.734 0.0806053 -1.81121 0
M  V30 1231 C 120.782 -3.38332 -1.24756 0
M  V30 1232 O 119.886 -3.37959 -2.36342 0
M  V30 1233 H 119.227 -0.645553 -0.155428 0
M  V30 1234 H 121.757 -2.04044 0.150714 0
M  V30 1235 H 121.767 -3.75591 -1.5936 0
M  V30 1236 H 120.442 -4.12846 -0.503129 0
M  V30 1237 H 119.019 -3.12474 -2.03506 0
M  V30 1238 N 121.204 0.198386 -1.56346 0
M  V30 1239 C 122.152 1.26538 -1.95169 0
M  V30 1240 C 123.146 1.47295 -0.836685 0
M  V30 1241 O 124.352 1.48195 -1.02167 0
M  V30 1242 H 120.727 0.424744 -0.620561 0
M  V30 1243 H 122.698 0.910904 -2.84157 0
M  V30 1244 C 121.447 2.6035 -2.30463 0
M  V30 1245 H 120.77 2.45192 -3.15786 0
M  V30 1246 H 122.21 3.33762 -2.61494 0
M  V30 1247 C 120.669 3.17096 -1.13806 0
M  V30 1248 O 121.199 3.99588 -0.41135 0
M  V30 1249 N 119.405 2.75795 -0.915736 0
M  V30 1250 H 118.952 2.08816 -1.50843 0
M  V30 1251 H 118.91 3.14101 -0.136979 0
M  V30 1252 N 122.682 1.50554 0.465978 0
M  V30 1253 C 123.928 1.62038 1.21949 0
M  V30 1254 C 124.261 0.322116 1.9151 0
M  V30 1255 O 123.536 -0.676723 1.82348 0
M  V30 1256 C 123.819 2.80421 2.25912 0
M  V30 1257 C 123.672 4.20144 1.60622 0
M  V30 1258 C 124.991 2.94354 3.27176 0
M  V30 1259 H 122.11 0.589752 0.441998 0
M  V30 1260 H 124.752 1.82956 0.51257 0
M  V30 1261 H 122.902 2.62717 2.86203 0
M  V30 1262 H 124.574 4.49449 1.03889 0
M  V30 1263 H 122.817 4.24165 0.909211 0
M  V30 1264 H 123.488 4.98914 2.36196 0
M  V30 1265 H 125.964 3.10578 2.76913 0
M  V30 1266 H 124.84 3.788 3.97242 0
M  V30 1267 H 125.101 2.05186 3.916 0
M  V30 1268 N 124.16 -0.719506 1.40217 0
M  V30 1269 C 125.092 -1.84428 1.36084 0
M  V30 1270 C 126.105 -1.60597 0.266913 0
M  V30 1271 O 127.294 -1.70544 0.526983 0
M  V30 1272 C 124.394 -3.20757 1.094 0
M  V30 1273 C 123.567 -3.71817 2.30372 0
M  V30 1274 C 122.626 -4.86748 1.99907 0
M  V30 1275 O 121.652 -4.99603 2.72737 0
M  V30 1276 N 122.854 -5.7226 0.974635 0
M  V30 1277 H 125.619 -1.88473 2.33019 0
M  V30 1278 H 123.18 -0.900885 1.3452 0
M  V30 1279 H 125.172 -3.95235 0.870116 0
M  V30 1280 H 123.742 -3.11884 0.211452 0
M  V30 1281 H 122.962 -2.88514 2.68614 0
M  V30 1282 H 124.25 -4.02666 3.11026 0
M  V30 1283 H 123.648 -5.6448 0.371368 0
M  V30 1284 H 122.205 -6.46739 0.810656 0
M  V30 1285 N 125.638 -1.25649 -0.95132 0
M  V30 1286 C 126.548 -1.08073 -2.08224 0
M  V30 1287 C 127.564 -0.0169666 -1.73992 0
M  V30 1288 O 128.74 -0.218593 -2.0021 0
M  V30 1289 C 125.805 -0.704922 -3.39458 0
M  V30 1290 C 124.866 -1.84699 -3.87537 0
M  V30 1291 C 124.099 -1.48902 -5.12508 0
M  V30 1292 O 124.322 -0.386156 -5.69091 0
M  V30 1293 O 123.256 -2.32033 -5.55378 0
M  V30 1294 H 127.082 -2.02924 -2.25954 0
M  V30 1295 H 124.667 -1.04618 -1.06656 0
M  V30 1296 H 126.549 -0.507609 -4.18332 0
M  V30 1297 H 125.224 0.214291 -3.2299 0
M  V30 1298 H 124.131 -2.09919 -3.09653 0
M  V30 1299 H 125.464 -2.74557 -4.08509 0
M  V30 1300 N 127.117 1.15442 -1.07289 0
M  V30 1301 C 128.394 1.82306 -0.708792 0
M  V30 1302 C 128.774 1.94991 0.808807 0
M  V30 1303 O 128.122 1.50085 1.72298 0
M  V30 1304 C 128.332 3.18695 -1.42247 0
M  V30 1305 C 129.68 3.94341 -1.57417 0
M  V30 1306 O 130.704 3.28247 -1.38319 0
M  V30 1307 O 129.563 5.12839 -1.88834 0
M  V30 1308 H 126.657 0.787628 -0.252132 0
M  V30 1309 H 129.203 1.22559 -1.17377 0
M  V30 1310 H 127.975 3.04557 -2.45684 0
M  V30 1311 H 127.598 3.86128 -0.948223 0
M  V30 1312 N 128.595 0.856903 1.32268 0
M  V30 1313 C 129.82 0.474569 2.01897 0
M  V30 1314 C 130.245 -0.921766 1.63967 0
M  V30 1315 O 129.603 -1.60589 0.84148 0
M  V30 1316 C 129.651 0.623799 3.55164 0
M  V30 1317 O 128.755 -0.342459 4.10976 0
M  V30 1318 H 128.096 0.190422 0.63611 0
M  V30 1319 H 130.626 1.15672 1.68764 0
M  V30 1320 H 130.636 0.512169 4.04773 0
M  V30 1321 H 129.311 1.64202 3.82113 0
M  V30 1322 H 127.888 -0.18688 3.72431 0
M  V30 1323 N 130.073 -1.45103 0.615059 0
M  V30 1324 C 131.005 -2.28786 -0.13762 0
M  V30 1325 C 132.018 -1.40376 -0.824525 0
M  V30 1326 O 133.207 -1.64681 -0.688662 0
M  V30 1327 C 130.307 -3.16322 -1.21628 0
M  V30 1328 C 129.48 -4.33054 -0.615039 0
M  V30 1329 C 128.539 -5.01743 -1.58556 0
M  V30 1330 O 127.565 -5.58293 -1.10895 0
M  V30 1331 N 128.767 -5.01714 -2.91998 0
M  V30 1332 H 131.532 -2.94025 0.580483 0
M  V30 1333 H 129.093 -1.55373 0.45507 0
M  V30 1334 H 131.085 -3.59139 -1.86552 0
M  V30 1335 H 129.655 -2.52943 -1.83681 0
M  V30 1336 H 128.875 -3.93627 0.21245 0
M  V30 1337 H 130.163 -5.08431 -0.193704 0
M  V30 1338 H 129.561 -4.57075 -3.33316 0
M  V30 1339 H 128.118 -5.48371 -3.52325 0
M  V30 1340 N 131.551 -0.354651 -1.53558 0
M  V30 1341 C 132.962 0.126902 -1.86268 0
M  V30 1342 C 133.313 1.49075 -1.27558 0
M  V30 1343 O 132.438 2.08105 -0.5934 0
M  V30 1344 C 133.033 0.237046 -3.3797 0
M  V30 1345 C 131.592 0.662842 -3.70518 0
M  V30 1346 C 130.739 -0.196652 -2.76602 0
M  V30 1347 H 133.69 -0.573849 -1.47962 0
M  V30 1348 H 133.711 1.06259 -3.65362 0
M  V30 1349 H 133.223 -0.755725 -3.80671 0
M  V30 1350 H 131.324 1.66424 -3.33367 0
M  V30 1351 H 131.437 0.445034 -4.77029 0
M  V30 1352 H 129.801 0.332763 -2.52517 0
M  V30 1353 H 130.584 -1.18676 -3.22135 0
M  V30 1354 N 133.029 1.57378 -0.0835403 0
M  V30 1355 C 133.962 2.09016 0.915833 0
M  V30 1356 C 134.94 0.997993 1.2837 0
M  V30 1357 O 136.124 1.27219 1.39096 0
M  V30 1358 C 133.251 2.55757 2.22049 0
M  V30 1359 C 132.297 3.76522 2.00333 0
M  V30 1360 S 133.13 5.20661 1.25191 0
M  V30 1361 C 134.286 5.70743 2.56912 0
M  V30 1362 H 134.519 2.93457 0.476492 0
M  V30 1363 H 132.052 1.53856 0.129493 0
M  V30 1364 H 134.01 2.83346 2.97027 0
M  V30 1365 H 132.671 1.71564 2.63106 0
M  V30 1366 H 131.864 4.07256 2.96916 0
M  V30 1367 H 131.466 3.49367 1.33488 0
M  V30 1368 H 133.758 5.78304 3.52946 0
M  V30 1369 H 134.701 6.6944 2.30772 0
M  V30 1370 H 135.109 4.98616 2.64655 0
M  V30 1371 N 134.507 -0.190092 1.56449 0
M  V30 1372 C 135.747 -0.916414 1.82705 0
M  V30 1373 C 136.111 -1.80235 0.661763 0
M  V30 1374 O 137.312 -2.56484 0.80433 0
M  V30 1375 C 135.583 -1.70691 3.14005 0
M  V30 1376 S 137.142 -2.48457 3.61683 0
M  V30 1377 H 133.96 -0.307281 0.64117 0
M  V30 1378 H 136.562 -0.179433 1.94675 0
M  V30 1379 H 135.266 -1.04677 3.96826 0
M  V30 1380 H 134.797 -2.48562 3.04927 0
M  V30 1381 H 136.812 -3.72756 3.27517 0
M  V30 1382 N 135.985 -1.50799 -0.457987 0
M  V30 1383 C 137.215 -1.65977 -1.23025 0
M  V30 1384 C 137.623 -0.347918 -1.85974 0
M  V30 1385 O 136.966 0.68148 -1.70592 0
M  V30 1386 C 137.028 -2.70309 -2.3701 0
M  V30 1387 C 136.692 -4.135 -1.94594 0
M  V30 1388 C 137.689 -4.98949 -1.46101 0
M  V30 1389 C 135.374 -4.5949 -2.02915 0
M  V30 1390 C 137.368 -6.28442 -1.06489 0
M  V30 1391 C 135.055 -5.88984 -1.62914 0
M  V30 1392 C 136.053 -6.73286 -1.1478 0
M  V30 1393 O 135.741 -8.00362 -0.75339 0
M  V30 1394 H 135.473 -0.56064 -0.377702 0
M  V30 1395 H 138.027 -1.97857 -0.551537 0
M  V30 1396 H 136.257 -2.337 -3.08093 0
M  V30 1397 H 137.946 -2.74574 -2.98938 0
M  V30 1398 H 138.712 -4.6463 -1.39084 0
M  V30 1399 H 134.591 -3.94009 -2.39328 0
M  V30 1400 H 138.135 -6.94194 -0.688488 0
M  V30 1401 H 134.032 -6.22822 -1.69595 0
M  V30 1402 H 134.8 -8.13744 -0.88108 0
M  V30 1403 N 137.463 0.71206 -1.40597 0
M  V30 1404 C 138.688 1.50617 -1.42581 0
M  V30 1405 C 139.113 1.88079 -0.0282102 0
M  V30 1406 O 138.471 1.53511 0.964579 0
M  V30 1407 C 138.519 2.7557 -2.3258 0
M  V30 1408 O 137.623 3.72414 -1.77148 0
M  V30 1409 H 136.964 0.453966 -0.484573 0
M  V30 1410 H 139.494 0.876649 -1.84868 0
M  V30 1411 H 139.504 3.2406 -2.47889 0
M  V30 1412 H 138.179 2.47639 -3.34138 0
M  V30 1413 H 136.756 3.31276 -1.71204 0
M  V30 1414 N 138.941 1.26152 0.944643 0
M  V30 1415 C 139.889 1.07215 2.06417 0
M  V30 1416 C 140.883 9.2007e-05 1.694 0
M  V30 1417 O 142.089 0.1565 1.79318 0
M  V30 1418 H 138.464 0.329837 0.675805 0
M  V30 1419 H 140.435 2.02099 2.19541 0
M  V30 1420 C 139.184 0.718197 3.40202 0
M  V30 1421 H 138.507 1.53497 3.69159 0
M  V30 1422 H 139.947 0.625459 4.19361 0
M  V30 1423 C 138.406 -0.576435 3.31932 0
M  V30 1424 O 138.936 -1.61574 3.67773 0
M  V30 1425 N 137.142 -0.565781 2.85039 0
M  V30 1426 H 136.689 0.280367 2.5607 0
M  V30 1427 H 136.647 -1.43213 2.79888 0
M  V30 1428 N 140.419 -1.14872 1.07899 0
M  V30 1429 C 141.659 -1.8745 0.814965 0
M  V30 1430 C 142.023 -1.80758 -0.64733 0
M  V30 1431 O 143.224 -2.48422 -1.02664 0
M  V30 1432 C 141.495 -3.32286 1.31607 0
M  V30 1433 S 143.054 -4.22537 1.18357 0
M  V30 1434 H 139.872 -0.646833 0.295174 0
M  V30 1435 H 142.474 -1.38555 1.37923 0
M  V30 1436 H 141.178 -3.34703 2.37491 0
M  V30 1437 H 140.709 -3.86238 0.747261 0
M  V30 1438 H 142.724 -4.96044 0.124586 0
M  V30 1439 N 141.898 -0.863906 -1.31812 0
M  V30 1440 C 143.309 -0.52522 -1.7916 0
M  V30 1441 C 143.66 0.957518 -1.71248 0
M  V30 1442 O 142.785 1.74734 -1.27659 0
M  V30 1443 C 143.38 -0.9466 -3.25307 0
M  V30 1444 C 141.939 -0.659668 -3.70574 0
M  V30 1445 C 141.086 -1.14126 -2.52726 0
M  V30 1446 H 144.037 -1.05022 -1.1898 0
M  V30 1447 H 144.058 -0.266766 -3.79564 0
M  V30 1448 H 143.57 -2.02579 -3.31034 0
M  V30 1449 H 141.671 0.408416 -3.70355 0
M  V30 1450 H 141.784 -1.23245 -4.62977 0
M  V30 1451 H 140.148 -0.561216 -2.4844 0
M  V30 1452 H 140.931 -2.22775 -2.61201 0
M  V30 1453 N 143.376 1.44774 -0.622745 0
M  V30 1454 C 144.653 1.95522 -0.0551974 0
M  V30 1455 C 145.033 1.5649 1.41683 0
M  V30 1456 O 144.381 0.834848 2.12703 0
M  V30 1457 C 144.591 3.4796 -0.269242 0
M  V30 1458 C 145.939 4.24306 -0.158014 0
M  V30 1459 O 146.963 3.55637 -0.200162 0
M  V30 1460 O 145.822 5.46471 -0.0558693 0
M  V30 1461 H 142.916 0.826556 0.0271015 0
M  V30 1462 H 145.462 1.54866 -0.693864 0
M  V30 1463 H 144.234 3.6939 -1.29099 0
M  V30 1464 H 143.857 3.95543 0.403966 0
M  V30 1465 N 144.854 0.36279 1.53368 0
M  V30 1466 C 146.102 -0.227326 2.00817 0
M  V30 1467 C 146.423 -1.49511 1.25186 0
M  V30 1468 O 145.693 -1.92482 0.364348 0
M  V30 1469 H 144.273 -0.0869923 0.741917 0
M  V30 1470 H 146.935 0.488381 1.88682 0
M  V30 1471 H 146.031 -0.456273 3.08747 0
M  V30 1472 N 146.332 -1.57332 0.0918853 0
M  V30 1473 C 147.264 -2.10869 -0.898168 0
M  V30 1474 C 148.277 -1.04521 -1.24817 0
M  V30 1475 O 149.466 -1.31977 -1.20184 0
M  V30 1476 C 146.566 -2.57083 -2.2082 0
M  V30 1477 C 145.739 -3.87229 -2.03402 0
M  V30 1478 C 144.798 -4.19324 -3.17889 0
M  V30 1479 O 143.824 -4.88598 -2.91994 0
M  V30 1480 N 145.026 -3.74471 -4.43567 0
M  V30 1481 H 147.791 -2.96439 -0.440943 0
M  V30 1482 H 145.352 -1.61631 -0.0933064 0
M  V30 1483 H 147.344 -2.75602 -2.96354 0
M  V30 1484 H 145.914 -1.76541 -2.57977 0
M  V30 1485 H 145.134 -3.7789 -1.12218 0
M  V30 1486 H 146.422 -4.72379 -1.89038 0
M  V30 1487 H 145.82 -3.18546 -4.67488 0
M  V30 1488 H 144.377 -3.98151 -5.16061 0
M  V30 1489 N 147.81 0.181792 -1.56548 0
M  V30 1490 C 149.035 0.920019 -1.85877 0
M  V30 1491 C 149.46 1.75494 -0.677021 0
M  V30 1492 O 148.818 1.77399 0.374056 0
M  V30 1493 C 148.866 1.78112 -3.13542 0
M  V30 1494 O 147.97 2.88152 -2.95029 0
M  V30 1495 H 147.311 0.258334 -0.611686 0
M  V30 1496 H 149.841 0.183092 -2.03779 0
M  V30 1497 H 149.851 2.18314 -3.44678 0
M  V30 1498 H 148.526 1.16777 -3.99169 0
M  V30 1499 H 147.103 2.51609 -2.75222 0
M  V30 1500 N 149.288 1.51039 0.449983 0
M  V30 1501 C 150.516 1.66869 1.2232 0
M  V30 1502 C 150.931 0.360727 1.85322 0
M  V30 1503 O 150.288 -0.659531 1.70166 0
M  V30 1504 C 150.339 2.77524 2.31652 0
M  V30 1505 O 150.06 4.03252 1.7123 0
M  V30 1506 C 151.561 3.04512 3.2216 0
M  V30 1507 H 148.781 0.560326 0.369155 0
M  V30 1508 H 151.325 1.97385 0.534719 0
M  V30 1509 H 149.48 2.49642 2.96239 0
M  V30 1510 H 149.894 4.64609 2.43389 0
M  V30 1511 H 151.368 3.85551 3.95038 0
M  V30 1512 H 151.845 2.16415 3.8218 0
M  V30 1513 H 152.451 3.34005 2.63288 0
M  V30 1514 N 150.766 -0.704594 1.40972 0
M  V30 1515 C 151.729 -1.80035 1.41845 0
M  V30 1516 C 152.729 -1.57774 0.310474 0
M  V30 1517 O 153.919 -1.64613 0.56992 0
M  V30 1518 C 151.051 -3.18284 1.22098 0
M  V30 1519 H 152.244 -1.80658 2.3938 0
M  V30 1520 H 149.797 -0.911329 1.26982 0
M  V30 1521 H 150.532 -3.23306 0.253672 0
M  V30 1522 H 150.317 -3.35843 2.02366 0
M  V30 1523 H 151.807 -3.98289 1.25522 0
M  V30 1524 N 152.244 -1.26651 -0.937939 0
M  V30 1525 C 153.191 -1.0849 -2.03712 0
M  V30 1526 C 154.161 0.011033 -1.66096 0
M  V30 1527 O 155.346 -0.149353 -1.90215 0
M  V30 1528 C 152.486 -0.72735 -3.37348 0
M  V30 1529 C 151.599 -1.89986 -3.87981 0
M  V30 1530 C 150.734 -1.48513 -5.10017 0
M  V30 1531 C 149.773 -2.62575 -5.5292 0
M  V30 1532 N 148.91 -2.21762 -6.66158 0
M  V30 1533 H 153.75 -2.02551 -2.18579 0
M  V30 1534 H 151.287 -1.00844 -1.07093 0
M  V30 1535 H 153.245 -0.50092 -4.14182 0
M  V30 1536 H 151.875 0.176298 -3.22318 0
M  V30 1537 H 150.927 -2.23913 -3.07518 0
M  V30 1538 H 152.239 -2.75586 -4.15757 0
M  V30 1539 H 151.393 -1.21934 -5.94321 0
M  V30 1540 H 150.132 -0.60009 -4.83994 0
M  V30 1541 H 149.137 -2.8988 -4.67172 0
M  V30 1542 H 150.362 -3.51685 -5.80943 0
M  V30 1543 H 148.308 -1.35696 -6.41812 0
M  V30 1544 H 148.225 -3.00903 -6.93537 0
M  V30 1545 H 149.493 -1.98403 -7.53828 0
M  V30 1546 N 153.722 1.14298 -1.08507 0
M  V30 1547 C 154.95 1.89219 -0.836876 0
M  V30 1548 C 155.365 1.78638 0.611054 0
M  V30 1549 O 154.722 1.14643 1.41998 0
M  V30 1550 C 154.773 3.39158 -1.25116 0
M  V30 1551 O 154.494 3.49449 -2.64229 0
M  V30 1552 C 155.995 4.31073 -1.03398 0
M  V30 1553 H 153.215 0.599328 -0.301739 0
M  V30 1554 H 155.759 1.44746 -1.44461 0
M  V30 1555 H 153.914 3.81251 -0.687514 0
M  V30 1556 H 154.328 4.42589 -2.81452 0
M  V30 1557 H 155.802 5.34646 -1.37323 0
M  V30 1558 H 156.279 4.3919 0.0289259 0
M  V30 1559 H 156.885 3.94738 -1.58311 0
M  V30 1560 N 155.201 0.870884 1.31352 0
M  V30 1561 C 156.448 0.482273 1.96673 0
M  V30 1562 C 156.776 -0.965638 1.68836 0
M  V30 1563 O 156.031 -1.69514 0.977937 0
M  V30 1564 C 156.33 0.687157 3.50732 0
M  V30 1565 C 155.996 2.108 3.9859 0
M  V30 1566 C 154.658 2.49656 4.1137 0
M  V30 1567 C 157.01 3.03459 4.23748 0
M  V30 1568 C 154.338 3.80412 4.46659 0
M  V30 1569 C 156.69 4.3373 4.60501 0
M  V30 1570 C 155.354 4.725 4.71487 0
M  V30 1571 H 154.624 0.176476 0.719679 0
M  V30 1572 H 157.271 1.10405 1.56471 0
M  V30 1573 H 155.576 -0.0177476 3.91796 0
M  V30 1574 H 157.273 0.366284 3.99324 0
M  V30 1575 H 153.863 1.79633 3.8914 0
M  V30 1576 H 158.047 2.74665 4.13368 0
M  V30 1577 H 153.303 4.1021 4.53362 0
M  V30 1578 H 157.477 5.05578 4.78919 0
M  V30 1579 H 155.104 5.73859 4.98588 0
M  V30 1580 N 156.679 -1.44442 0.630414 0
M  V30 1581 C 157.609 -2.33418 -0.0618083 0
M  V30 1582 C 158.59 -1.48165 -0.835541 0
M  V30 1583 O 159.775 -1.76886 -0.801564 0
M  V30 1584 C 156.905 -3.31222 -1.04449 0
M  V30 1585 C 155.859 -4.26288 -0.382436 0
M  V30 1586 C 155.185 -5.13954 -1.47497 0
M  V30 1587 C 156.485 -5.1744 0.710865 0
M  V30 1588 H 158.179 -2.91548 0.681184 0
M  V30 1589 H 155.725 -1.40191 0.329026 0
M  V30 1590 H 157.678 -3.92351 -1.53748 0
M  V30 1591 H 156.402 -2.71299 -1.81836 0
M  V30 1592 H 155.061 -3.6649 0.0899054 0
M  V30 1593 H 154.709 -4.50385 -2.2397 0
M  V30 1594 H 154.409 -5.7837 -1.03737 0
M  V30 1595 H 155.933 -5.77955 -1.96979 0
M  V30 1596 H 157.347 -5.72509 0.300996 0
M  V30 1597 H 155.744 -5.90455 1.07156 0
M  V30 1598 H 156.814 -4.58496 1.57829 0
M  V30 1599 N 158.157 -0.370918 -1.53173 0
M  V30 1600 C 159.385 0.217704 -2.05751 0
M  V30 1601 C 159.8 1.42018 -1.24404 0
M  V30 1602 O 159.157 1.80245 -0.286033 0
M  V30 1603 C 159.208 0.605954 -3.56385 0
M  V30 1604 O 158.929 -0.548734 -4.3465 0
M  V30 1605 C 160.43 1.2524 -4.25241 0
M  V30 1606 H 157.65 0.0371659 -0.66997 0
M  V30 1607 H 160.194 -0.530832 -1.9749 0
M  V30 1608 H 158.349 1.3044 -3.6478 0
M  V30 1609 H 158.763 -0.23376 -5.23979 0
M  V30 1610 H 160.237 1.47458 -5.3194 0
M  V30 1611 H 160.714 2.2143 -3.79296 0
M  V30 1612 H 161.32 0.595233 -4.21114 0
M  V30 1613 N 159.635 1.57281 -0.100228 0
M  V30 1614 C 160.881 1.94826 0.563101 0
M  V30 1615 C 161.214 0.982475 1.67514 0
M  V30 1616 O 160.489 0.0164069 1.94493 0
M  V30 1617 C 160.772 3.42453 1.11346 0
M  V30 1618 C 160.625 4.498 0.00612081 0
M  V30 1619 C 161.944 3.91506 2.01024 0
M  V30 1620 H 159.063 0.708428 0.203221 0
M  V30 1621 H 161.705 1.8922 -0.171979 0
M  V30 1622 H 159.855 3.47361 1.7399 0
M  V30 1623 H 161.527 4.57 -0.628357 0
M  V30 1624 H 159.77 4.28756 -0.659581 0
M  V30 1625 H 160.441 5.50306 0.432109 0
M  V30 1626 H 162.917 3.88784 1.48278 0
M  V30 1627 H 161.793 4.95358 2.36457 0
M  V30 1628 H 162.054 3.31099 2.92961 0
M  V30 1629 N 161.113 -0.173488 1.56642 0
M  V30 1630 C 162.343 -0.904781 1.85734 0
M  V30 1631 C 162.751 -1.76431 0.68328 0
M  V30 1632 O 162.094 -1.802 -0.356865 0
M  V30 1633 C 162.156 -1.83382 3.09211 0
M  V30 1634 C 161.82 -1.15411 4.42187 0
M  V30 1635 C 162.817 -0.520609 5.17287 0
M  V30 1636 C 160.502 -1.15151 4.88923 0
M  V30 1637 C 162.496 0.106412 6.37311 0
M  V30 1638 C 160.183 -0.520664 6.08878 0
M  V30 1639 C 161.181 0.107196 6.82916 0
M  V30 1640 O 160.869 0.728102 8.00596 0
M  V30 1641 H 160.601 -0.268408 0.62043 0
M  V30 1642 H 163.155 -0.179096 2.04618 0
M  V30 1643 H 161.385 -2.59976 2.86268 0
M  V30 1644 H 163.074 -2.43476 3.24768 0
M  V30 1645 H 163.84 -0.514606 4.82262 0
M  V30 1646 H 159.719 -1.62961 4.31236 0
M  V30 1647 H 163.263 0.597081 6.9504 0
M  V30 1648 H 159.16 -0.524242 6.43368 0
M  V30 1649 H 159.928 0.627138 8.16094 0
M  V30 1650 N 162.591 -1.51276 -0.441967 0
M  V30 1651 C 163.837 -1.6492 -1.1905 0
M  V30 1652 C 164.192 -0.358731 -1.89026 0
M  V30 1653 O 163.485 0.645193 -1.8041 0
M  V30 1654 C 163.679 -2.78746 -2.23686 0
M  V30 1655 C 163.508 -4.18737 -1.63979 0
M  V30 1656 C 162.278 -4.84739 -1.42674 0
M  V30 1657 C 164.476 -5.01988 -1.11858 0
M  V30 1658 N 162.458 -6.08858 -0.785159 0
M  V30 1659 C 163.829 -6.17071 -0.601989 0
M  V30 1660 C 165.884 -4.87551 -1.0099 0
M  V30 1661 C 164.587 -7.19299 0.0126012 0
M  V30 1662 C 166.613 -5.89983 -0.409206 0
M  V30 1663 C 165.975 -7.04333 0.0968651 0
M  V30 1664 H 162.074 -0.657416 -0.423471 0
M  V30 1665 H 164.658 -1.8849 -0.48782 0
M  V30 1666 H 162.829 -2.56848 -2.91348 0
M  V30 1667 H 164.561 -2.81595 -2.90666 0
M  V30 1668 H 161.316 -4.42528 -1.68719 0
M  V30 1669 H 161.74 -6.75282 -0.481942 0
M  V30 1670 H 166.382 -3.99401 -1.38703 0
M  V30 1671 H 164.1 -8.071 0.401879 0
M  V30 1672 H 167.686 -5.8088 -0.327079 0
M  V30 1673 H 166.566 -7.82238 0.554373 0
M  V30 1674 N 164.069 0.697108 -1.41344 0
M  V30 1675 C 165.297 1.48593 -1.43972 0
M  V30 1676 C 165.712 1.88747 -0.0445612 0
M  V30 1677 O 165.069 1.56682 0.935785 0
M  V30 1678 C 165.12 2.74946 -2.34706 0
M  V30 1679 O 164.841 2.36484 -3.68791 0
M  V30 1680 C 166.342 3.687 -2.46121 0
M  V30 1681 H 163.562 0.457964 -0.490418 0
M  V30 1682 H 166.106 0.858429 -1.8561 0
M  V30 1683 H 164.261 3.33937 -1.9638 0
M  V30 1684 H 164.675 3.17918 -4.17167 0
M  V30 1685 H 166.149 4.54145 -3.13777 0
M  V30 1686 H 166.626 4.13081 -1.49199 0
M  V30 1687 H 167.232 3.15613 -2.85076 0
M  V30 1688 N 165.547 1.27147 0.931209 0
M  V30 1689 C 166.958 1.12044 1.49342 0
M  V30 1690 C 167.309 -0.295795 1.93957 0
M  V30 1691 O 166.434 -1.18835 1.80852 0
M  V30 1692 C 167.029 2.02781 2.71414 0
M  V30 1693 C 165.588 1.91794 3.2387 0
M  V30 1694 C 164.735 1.95543 1.96617 0
M  V30 1695 H 167.686 1.40091 0.745672 0
M  V30 1696 H 167.707 1.58156 3.46074 0
M  V30 1697 H 167.219 3.05848 2.38911 0
M  V30 1698 H 165.32 0.916992 3.6114 0
M  V30 1699 H 165.433 2.77852 3.90302 0
M  V30 1700 H 163.797 1.39722 2.12955 0
M  V30 1701 H 164.58 3.00259 1.66432 0
M  V30 1702 N 167.025 -1.13721 1.09112 0
M  V30 1703 C 167.935 -2.22638 0.73957 0
M  V30 1704 C 168.951 -1.72091 -0.257068 0
M  V30 1705 O 170.127 -2.01155 -0.0992154 0
M  V30 1706 C 167.192 -3.46322 0.16191 0
M  V30 1707 C 166.253 -4.11775 1.21408 0
M  V30 1708 C 165.486 -5.29555 0.663891 0
M  V30 1709 O 165.709 -5.68077 -0.514274 0
M  V30 1710 O 164.643 -5.84973 1.41738 0
M  V30 1711 H 168.469 -2.55074 1.64836 0
M  V30 1712 H 166.054 -1.21791 0.865289 0
M  V30 1713 H 167.936 -4.21107 -0.157073 0
M  V30 1714 H 166.611 -3.15593 -0.719932 0
M  V30 1715 H 165.518 -3.3883 1.58571 0
M  V30 1716 H 166.851 -4.46627 2.06845 0
M  V30 1717 N 168.503 -0.877838 -1.30888 0
M  V30 1718 C 169.919 -0.570844 -1.49042 0
M  V30 1719 C 170.119 0.893159 -1.80624 0
M  V30 1720 O 169.175 1.67485 -1.88958 0
M  V30 1721 C 170.488 -1.47784 -2.61878 0
M  V30 1722 C 172.036 -1.48071 -2.75761 0
M  V30 1723 C 172.511 -2.37347 -3.91702 0
M  V30 1724 N 174.002 -2.35271 -3.99001 0
M  V30 1725 C 174.737 -3.01063 -4.88004 0
M  V30 1726 N 174.233 -3.76055 -5.81854 0
M  V30 1727 N 176.026 -2.90332 -4.81315 0
M  V30 1728 H 168.177 -1.82502 -1.0866 0
M  V30 1729 H 170.44 -0.780797 -0.537644 0
M  V30 1730 H 170.146 -2.51993 -2.45341 0
M  V30 1731 H 170.02 -1.18215 -3.58197 0
M  V30 1732 H 172.407 -0.446166 -2.91708 0
M  V30 1733 H 172.488 -1.81668 -1.80085 0
M  V30 1734 H 172.132 -3.40883 -3.76512 0
M  V30 1735 H 172.062 -2.01071 -4.86701 0
M  V30 1736 H 174.553 -1.80768 -3.3186 0
M  V30 1737 H 174.866 -4.23366 -6.46514 0
M  V30 1738 H 173.211 -3.80163 -5.81808 0
M  V30 1739 H 176.402 -2.31278 -4.06974 0
M  V30 1740 H 176.575 -3.41885 -5.50471 0
M  V30 1741 N 169.982 1.44106 -0.638065 0
M  V30 1742 C 171.228 2.02277 -0.145546 0
M  V30 1743 C 171.561 1.50125 1.23191 0
M  V30 1744 O 170.836 0.688133 1.8192 0
M  V30 1745 C 171.119 3.59829 -0.139791 0
M  V30 1746 C 170.972 4.22247 -1.55008 0
M  V30 1747 C 172.291 4.36873 0.531966 0
M  V30 1748 H 169.41 0.734992 -0.0543632 0
M  V30 1749 H 172.052 1.71592 -0.815863 0
M  V30 1750 H 170.202 3.86102 0.431007 0
M  V30 1751 H 171.874 4.07057 -2.1703 0
M  V30 1752 H 170.117 3.79476 -2.10191 0
M  V30 1753 H 170.788 5.31284 -1.49804 0
M  V30 1754 H 173.264 4.16074 0.0464781 0
M  V30 1755 H 172.14 5.4657 0.505206 0
M  V30 1756 H 172.401 4.11995 1.60352 0
M  V30 1757 N 171.46 0.379036 1.52974 0
M  V30 1758 C 172.37 -0.468639 2.29872 0
M  V30 1759 C 173.386 -1.08067 1.36373 0
M  V30 1760 O 174.562 -1.08871 1.69438 0
M  V30 1761 C 171.627 -1.58594 3.083 0
M  V30 1762 C 170.688 -1.00007 4.17489 0
M  V30 1763 C 169.921 -2.06413 4.92168 0
M  V30 1764 O 170.144 -3.27751 4.66835 0
M  V30 1765 O 169.078 -1.68717 5.7777 0
M  V30 1766 H 172.904 0.157508 3.03291 0
M  V30 1767 H 170.489 0.143035 1.48714 0
M  V30 1768 H 172.371 -2.23525 3.57232 0
M  V30 1769 H 171.046 -2.19724 2.37703 0
M  V30 1770 H 169.953 -0.314299 3.72777 0
M  V30 1771 H 171.286 -0.433135 4.90291 0
M  V30 1772 N 172.938 -1.57226 0.108567 0
M  V30 1773 C 173.868 -2.17778 -0.84232 0
M  V30 1774 C 174.849 -1.11487 -1.2847 0
M  V30 1775 O 176.034 -1.39681 -1.34918 0
M  V30 1776 C 173.164 -2.76888 -2.09644 0
M  V30 1777 C 172.118 -3.88669 -1.79221 0
M  V30 1778 C 171.444 -4.34541 -3.11574 0
M  V30 1779 C 172.744 -5.11251 -1.06864 0
M  V30 1780 H 174.438 -2.97489 -0.337774 0
M  V30 1781 H 171.984 -1.43097 -0.161025 0
M  V30 1782 H 173.937 -3.17904 -2.76614 0
M  V30 1783 H 172.661 -1.94451 -2.62405 0
M  V30 1784 H 171.32 -3.48213 -1.14644 0
M  V30 1785 H 170.968 -3.48977 -3.62249 0
M  V30 1786 H 170.668 -5.09914 -2.91996 0
M  V30 1787 H 172.192 -4.782 -3.7968 0
M  V30 1788 H 173.606 -5.49352 -1.63968 0
M  V30 1789 H 172.003 -5.9214 -0.974178 0
M  V30 1790 H 173.073 -4.8487 -0.0536168 0
M  V30 1791 N 174.416 0.165178 -1.56732 0
M  V30 1792 C 175.379 1.18822 -1.95995 0
M  V30 1793 C 176.379 1.3685 -0.84431 0
M  V30 1794 O 177.569 1.34152 -1.11126 0
M  V30 1795 C 174.701 2.5521 -2.26011 0
M  V30 1796 H 175.894 0.851825 -2.87548 0
M  V30 1797 H 173.447 0.407857 -1.50885 0
M  V30 1798 H 174.182 2.93852 -1.37191 0
M  V30 1799 H 173.967 2.43489 -3.07336 0
M  V30 1800 H 175.457 3.28927 -2.57288 0
M  V30 1801 N 175.894 1.51508 0.433938 0
M  V30 1802 C 177.305 1.56784 1.01369 0
M  V30 1803 C 177.656 0.393349 1.92217 0
M  V30 1804 O 176.781 -0.489441 2.10792 0
M  V30 1805 C 177.376 2.84144 1.8452 0
M  V30 1806 C 175.935 2.9198 2.37539 0
M  V30 1807 C 175.082 2.51482 1.16843 0
M  V30 1808 H 178.033 1.57236 0.215081 0
M  V30 1809 H 178.054 2.68098 2.70007 0
M  V30 1810 H 177.566 3.69607 1.18373 0
M  V30 1811 H 175.667 2.10955 3.0713 0
M  V30 1812 H 175.78 3.95704 2.70103 0
M  V30 1813 H 174.144 2.04758 1.51481 0
M  V30 1814 H 174.927 3.39293 0.523015 0
M  V30 1815 N 177.372 -0.689602 1.41712 0
M  V30 1816 C 178.302 -1.81577 1.46806 0
M  V30 1817 C 179.283 -1.66945 0.326105 0
M  V30 1818 O 180.468 -1.86588 0.538377 0
M  V30 1819 C 177.598 -3.19762 1.35535 0
M  V30 1820 C 176.552 -3.49107 2.47605 0
M  V30 1821 C 175.878 -4.86711 2.21397 0
M  V30 1822 C 177.178 -3.47483 3.89939 0
M  V30 1823 H 178.872 -1.7757 2.41058 0
M  V30 1824 H 176.418 -0.852887 1.16025 0
M  V30 1825 H 178.371 -3.98263 1.3771 0
M  V30 1826 H 177.095 -3.24409 0.377708 0
M  V30 1827 H 175.754 -2.72959 2.44722 0
M  V30 1828 H 175.402 -4.8799 1.21961 0
M  V30 1829 H 175.102 -5.0731 2.96497 0
M  V30 1830 H 176.626 -5.67515 2.25297 0
M  V30 1831 H 178.04 -4.1598 3.94505 0
M  V30 1832 H 176.437 -3.79615 4.64771 0
M  V30 1833 H 177.507 -2.46341 4.17665 0
M  V30 1834 N 178.85 -1.27639 -0.924453 0
M  V30 1835 C 180.261 -1.12834 -1.48746 0
M  V30 1836 C 180.612 0.285505 -1.94112 0
M  V30 1837 O 179.737 1.17874 -1.81479 0
M  V30 1838 C 180.332 -2.04217 -2.70334 0
M  V30 1839 C 178.891 -1.93509 -3.22848 0
M  V30 1840 C 178.038 -1.96583 -1.95577 0
M  V30 1841 H 180.989 -1.40484 -0.738233 0
M  V30 1842 H 181.01 -1.59989 -3.4523 0
M  V30 1843 H 180.522 -3.07111 -2.37285 0
M  V30 1844 H 178.623 -0.936131 -3.60649 0
M  V30 1845 H 178.736 -2.79917 -3.88823 0
M  V30 1846 H 177.1 -1.4085 -2.12211 0
M  V30 1847 H 177.883 -3.01137 -1.64837 0
M  V30 1848 N 180.328 1.1314 -1.09713 0
M  V30 1849 C 181.553 1.88862 -0.857081 0
M  V30 1850 C 181.978 1.78729 0.586304 0
M  V30 1851 O 181.336 1.13692 1.41222 0
M  V30 1852 C 181.384 3.36325 -1.30069 0
M  V30 1853 O 180.488 4.09815 -0.461007 0
M  V30 1854 H 179.829 0.587108 -0.310162 0
M  V30 1855 H 182.359 1.43129 -1.46203 0
M  V30 1856 H 182.369 3.87157 -1.28738 0
M  V30 1857 H 181.044 3.43017 -2.35185 0
M  V30 1858 H 179.621 3.68986 -0.538888 0
M  V30 1859 N 181.806 0.884767 1.30421 0
M  V30 1860 C 183.052 0.513218 1.96819 0
M  V30 1861 C 183.407 -0.927347 1.68577 0
M  V30 1862 O 182.7 -1.64644 0.979941 0
M  V30 1863 C 182.894 0.724318 3.49983 0
M  V30 1864 C 182.723 2.18385 3.93113 0
M  V30 1865 C 181.493 2.82839 4.18725 0
M  V30 1866 C 183.691 3.15763 4.05953 0
M  V30 1867 N 181.673 4.1939 4.48314 0
M  V30 1868 C 183.044 4.37387 4.39423 0
M  V30 1869 C 185.099 3.11555 3.88379 0
M  V30 1870 C 183.802 5.55343 4.5715 0
M  V30 1871 C 185.828 4.28782 4.07308 0
M  V30 1872 C 185.19 5.49172 4.41123 0
M  V30 1873 H 181.289 0.237123 0.745182 0
M  V30 1874 H 183.873 1.14246 1.57658 0
M  V30 1875 H 182.044 0.124565 3.882 0
M  V30 1876 H 183.776 0.31969 4.03435 0
M  V30 1877 H 180.531 2.33708 4.11919 0
M  V30 1878 H 180.955 4.89911 4.67243 0
M  V30 1879 H 185.597 2.19576 3.61312 0
M  V30 1880 H 183.315 6.47826 4.8306 0
M  V30 1881 H 186.901 4.26995 3.95179 0
M  V30 1882 H 185.781 6.38371 4.55469 0
M  V30 1883 N 183.284 -1.43765 0.645699 0
M  V30 1884 C 184.216 -2.29027 -0.0890605 0
M  V30 1885 C 185.229 -1.42093 -0.794563 0
M  V30 1886 O 186.418 -1.66104 -0.653575 0
M  V30 1887 C 183.518 -3.18831 -1.14891 0
M  V30 1888 C 182.691 -4.34261 -0.523043 0
M  V30 1889 C 181.75 -5.04994 -1.47878 0
M  V30 1890 O 180.776 -5.6052 -0.990277 0
M  V30 1891 N 181.978 -5.07795 -2.81291 0
M  V30 1892 H 184.743 -2.92727 0.64272 0
M  V30 1893 H 182.304 -1.54373 0.487924 0
M  V30 1894 H 184.296 -3.63015 -1.78892 0
M  V30 1895 H 182.866 -2.56782 -1.78275 0
M  V30 1896 H 182.086 -3.93088 0.295896 0
M  V30 1897 H 183.374 -5.08728 -0.0858147 0
M  V30 1898 H 182.772 -4.64042 -3.23546 0
M  V30 1899 H 181.329 -5.55721 -3.40614 0
M  V30 1900 N 184.763 -0.387143 -1.52771 0
M  V30 1901 C 186.174 0.0873634 -1.86495 0
M  V30 1902 C 186.525 1.46336 -1.30691 0
M  V30 1903 O 185.65 2.068 -0.637409 0
M  V30 1904 C 186.245 0.165305 -3.38396 0
M  V30 1905 C 184.804 0.584101 -3.7184 0
M  V30 1906 C 183.951 -0.255279 -2.76122 0
M  V30 1907 H 186.902 -0.605104 -1.46711 0
M  V30 1908 H 186.923 0.984848 -3.67534 0
M  V30 1909 H 186.435 -0.836301 -3.78982 0
M  V30 1910 H 184.536 1.59315 -3.36823 0
M  V30 1911 H 184.649 0.343749 -4.77865 0
M  V30 1912 H 183.013 0.279126 -2.53166 0
M  V30 1913 H 183.796 -1.25482 -3.19545 0
M  V30 1914 N 186.241 1.57166 -0.116904 0
M  V30 1915 C 187.487 1.95412 0.542405 0
M  V30 1916 C 187.82 1.00019 1.66463 0
M  V30 1917 O 187.095 0.0370346 1.94465 0
M  V30 1918 C 187.378 3.43615 1.07708 0
M  V30 1919 C 187.231 4.49781 -0.0415868 0
M  V30 1920 C 188.55 3.93616 1.96861 0
M  V30 1921 H 185.669 0.710543 0.195696 0
M  V30 1922 H 188.311 1.89027 -0.192038 0
M  V30 1923 H 186.461 3.49187 1.70296 0
M  V30 1924 H 188.133 4.56308 -0.676793 0
M  V30 1925 H 186.376 4.28033 -0.705019 0
M  V30 1926 H 187.047 5.50733 0.373717 0
M  V30 1927 H 189.523 3.90335 1.44146 0
M  V30 1928 H 188.399 4.97838 2.3119 0
M  V30 1929 H 188.66 3.34188 2.89432 0
M  V30 1930 N 187.719 -0.156864 1.56817 0
M  V30 1931 C 188.967 -0.869404 1.82444 0
M  V30 1932 C 189.288 -1.82147 0.69623 0
M  V30 1933 O 188.558 -1.93847 -0.28287 0
M  V30 1934 H 187.138 -0.324043 0.673056 0
M  V30 1935 H 189.8 -0.153224 1.94297 0
M  V30 1936 H 188.896 -1.43761 2.77019 0
M  V30 1937 N 189.197 -1.51736 -0.425897 0
M  V30 1938 C 190.144 -1.73875 -1.51776 0
M  V30 1939 C 191.114 -0.580702 -1.55618 0
M  V30 1940 O 192.299 -0.81641 -1.72451 0
M  V30 1941 C 189.439 -1.88012 -2.89388 0
M  V30 1942 C 188.552 -3.15606 -2.94986 0
M  V30 1943 C 187.687 -3.20271 -4.23793 0
M  V30 1944 C 186.726 -4.42134 -4.23302 0
M  V30 1945 N 185.863 -4.44284 -5.43651 0
M  V30 1946 H 190.703 -2.67071 -1.32201 0
M  V30 1947 H 188.24 -1.32351 -0.642008 0
M  V30 1948 H 190.198 -1.9419 -3.69251 0
M  V30 1949 H 188.828 -0.98213 -3.07496 0
M  V30 1950 H 187.88 -3.18681 -2.07717 0
M  V30 1951 H 189.192 -4.05486 -2.90486 0
M  V30 1952 H 188.346 -3.25428 -5.12036 0
M  V30 1953 H 187.085 -2.28299 -4.30965 0
M  V30 1954 H 186.09 -4.3714 -3.3345 0
M  V30 1955 H 187.315 -5.35382 -4.17783 0
M  V30 1956 H 185.261 -3.55188 -5.51523 0
M  V30 1957 H 185.178 -5.27988 -5.41078 0
M  V30 1958 H 186.446 -4.53649 -6.33895 0
M  V30 1959 N 190.675 0.682077 -1.42076 0
M  V30 1960 C 191.623 1.81707 -1.45208 0
M  V30 1961 C 192.617 1.66183 -0.328591 0
M  V30 1962 O 193.823 1.7288 -0.501264 0
M  V30 1963 H 190.198 0.599014 -0.454628 0
M  V30 1964 H 192.169 1.76183 -2.40836 0
M  V30 1965 C 190.918 3.19816 -1.36428 0
M  V30 1966 H 190.241 3.32385 -2.22171 0
M  V30 1967 H 191.681 3.99272 -1.42681 0
M  V30 1968 C 190.14 3.36809 -0.078191 0
M  V30 1969 O 190.67 3.92124 0.87188 0
M  V30 1970 N 188.876 2.906 0.00229266 0
M  V30 1971 H 188.423 2.45772 -0.771616 0
M  V30 1972 H 188.381 3.02347 0.862179 0
M  V30 1973 N 192.153 1.28127 0.917671 0
M  V30 1974 C 193.083 1.14248 2.03641 0
M  V30 1975 C 194.064 0.0412748 1.7005 0
M  V30 1976 O 195.249 0.217566 1.92977 0
M  V30 1977 C 192.379 0.799431 3.37974 0
M  V30 1978 C 191.333 1.85497 3.85713 0
M  V30 1979 C 190.659 1.36565 5.16966 0
M  V30 1980 C 191.959 3.26085 4.08002 0
M  V30 1981 H 193.653 2.07835 2.15511 0
M  V30 1982 H 191.199 1.00064 1.03553 0
M  V30 1983 H 193.152 0.689114 4.15727 0
M  V30 1984 H 191.876 -0.172145 3.26146 0
M  V30 1985 H 190.535 1.95437 3.10161 0
M  V30 1986 H 190.183 0.383253 5.01538 0
M  V30 1987 H 189.883 2.07143 5.49878 0
M  V30 1988 H 191.407 1.26848 5.97279 0
M  V30 1989 H 192.821 3.19089 4.76293 0
M  V30 1990 H 191.218 3.94462 4.52238 0
M  V30 1991 H 192.288 3.70394 3.12948 0
M  V30 1992 N 193.631 -1.12557 1.10312 0
M  V30 1993 C 194.859 -1.87864 0.866873 0
M  V30 1994 C 195.274 -1.79588 -0.582557 0
M  V30 1995 O 194.631 -1.16887 -1.40156 0
M  V30 1996 C 194.682 -3.37125 1.30496 0
M  V30 1997 O 194.403 -3.45201 2.69755 0
M  V30 1998 C 195.904 -4.29373 1.10243 0
M  V30 1999 H 193.124 -0.594452 0.311236 0
M  V30 2000 H 195.668 -1.42429 1.46745 0
M  V30 2001 H 193.823 -3.80109 0.748081 0
M  V30 2002 H 194.237 -4.38056 2.88457 0
M  V30 2003 H 195.711 -5.32394 1.45811 0
M  V30 2004 H 196.188 -4.39181 0.0409492 0
M  V30 2005 H 196.794 -3.92169 1.64571 0
M  V30 2006 N 195.109 -0.891671 -1.2995 0
M  V30 2007 C 196.039 -0.379797 -2.30391 0
M  V30 2008 C 197.02 0.540919 -1.6127 0
M  V30 2009 O 198.205 0.453352 -1.88834 0
M  V30 2010 C 195.335 0.400654 -3.44981 0
M  V30 2011 C 194.289 -0.428905 -4.25846 0
M  V30 2012 C 193.615 0.478557 -5.32554 0
M  V30 2013 C 194.915 -1.67458 -4.94727 0
M  V30 2014 H 196.609 -1.21914 -2.73454 0
M  V30 2015 H 194.155 -0.587675 -1.31462 0
M  V30 2016 H 196.108 0.769434 -4.14316 0
M  V30 2017 H 194.832 1.27371 -3.0074 0
M  V30 2018 H 193.491 -0.779911 -3.58208 0
M  V30 2019 H 193.139 1.34951 -4.84559 0
M  V30 2020 H 192.839 -0.0727433 -5.87555 0
M  V30 2021 H 194.363 0.843705 -6.04743 0
M  V30 2022 H 195.777 -1.376 -5.56542 0
M  V30 2023 H 194.174 -2.16659 -5.59624 0
M  V30 2024 H 195.244 -2.41518 -4.20473 0
M  V30 2025 N 196.587 1.43421 -0.653314 0
M  V30 2026 C 198.003 1.56341 -0.320886 0
M  V30 2027 C 198.203 1.63696 1.17499 0
M  V30 2028 O 197.259 1.59208 1.95982 0
M  V30 2029 C 198.572 2.82424 -1.03233 0
M  V30 2030 C 200.12 2.96168 -1.01259 0
M  V30 2031 C 200.595 4.25084 -1.70492 0
M  V30 2032 N 202.086 4.31948 -1.67257 0
M  V30 2033 C 202.821 5.30466 -2.17701 0
M  V30 2034 N 202.317 6.35261 -2.76434 0
M  V30 2035 N 204.11 5.2212 -2.082 0
M  V30 2036 H 196.261 1.3689 -1.62403 0
M  V30 2037 H 198.524 0.657455 -0.682977 0
M  V30 2038 H 198.23 2.83053 -2.08744 0
M  V30 2039 H 198.104 3.72653 -0.583948 0
M  V30 2040 H 200.491 2.9508 0.0341235 0
M  V30 2041 H 200.572 2.07229 -1.49966 0
M  V30 2042 H 200.216 4.26932 -2.7512 0
M  V30 2043 H 200.146 5.1292 -1.19251 0
M  V30 2044 H 202.637 3.56838 -1.24398 0
M  V30 2045 H 202.95 7.06754 -3.12601 0
M  V30 2046 H 201.295 6.35884 -2.80495 0
M  V30 2047 H 204.486 4.39166 -1.62021 0
M  V30 2048 H 204.659 5.98739 -2.47822 0
M  V30 2049 N 198.065 0.39524 1.52563 0
M  V30 2050 C 199.305 -0.184744 2.03563 0
M  V30 2051 C 199.669 -1.43548 1.27507 0
M  V30 2052 O 200.87 -2.093 1.68662 0
M  V30 2053 C 199.141 -0.440294 3.54678 0
M  V30 2054 S 200.7 -0.989712 4.27493 0
M  V30 2055 H 197.518 -0.0515075 0.709132 0
M  V30 2056 H 200.12 0.544957 1.87751 0
M  V30 2057 H 198.824 0.477005 4.07618 0
M  V30 2058 H 198.355 -1.19825 3.74707 0
M  V30 2059 H 200.37 -2.27155 4.41152 0
M  V30 2060 N 199.544 -1.57102 0.125237 0
M  V30 2061 C 200.476 -2.12726 -0.853237 0
M  V30 2062 C 201.489 -1.07145 -1.22571 0
M  V30 2063 O 202.678 -1.34497 -1.17358 0
M  V30 2064 C 199.778 -2.61709 -2.15317 0
M  V30 2065 C 198.951 -3.91456 -1.95143 0
M  V30 2066 C 198.01 -4.25973 -3.08923 0
M  V30 2067 O 197.036 -4.94682 -2.81564 0
M  V30 2068 N 198.238 -3.83795 -4.35524 0
M  V30 2069 H 201.003 -2.97307 -0.377964 0
M  V30 2070 H 198.564 -1.61792 -0.0590011 0
M  V30 2071 H 200.556 -2.81826 -2.90441 0
M  V30 2072 H 199.126 -1.81974 -2.54174 0
M  V30 2073 H 198.346 -3.80185 -1.04177 0
M  V30 2074 H 199.634 -4.76283 -1.78976 0
M  V30 2075 H 199.032 -3.2839 -4.60626 0
M  V30 2076 H 197.589 -4.09008 -5.07499 0
M  V30 2077 N 201.022 0.148545 -1.56898 0
M  V30 2078 C 202.268 0.862694 -1.83536 0
M  V30 2079 C 202.601 1.80889 -0.706604 0
M  V30 2080 O 201.876 1.92328 0.289885 0
M  V30 2081 C 202.159 1.63853 -3.20662 0
M  V30 2082 C 202.012 0.713925 -4.44098 0
M  V30 2083 C 203.331 2.60133 -3.54991 0
M  V30 2084 H 200.45 0.312179 -0.667618 0
M  V30 2085 H 203.092 0.127953 -1.89569 0
M  V30 2086 H 201.242 2.26489 -3.1565 0
M  V30 2087 H 202.914 0.098686 -4.61194 0
M  V30 2088 H 201.157 0.0234019 -4.33794 0
M  V30 2089 H 201.828 1.29278 -5.36648 0
M  V30 2090 H 204.304 2.07616 -3.60603 0
M  V30 2091 H 203.18 3.11468 -4.51972 0
M  V30 2092 H 203.441 3.41417 -2.80868 0
M  V30 2093 N 202.5 1.5196 0.417844 0
M  V30 2094 C 203.41 1.77554 1.53336 0
M  V30 2095 C 204.426 0.660655 1.6097 0
M  V30 2096 O 205.602 0.945099 1.77848 0
M  V30 2097 C 202.667 1.91291 2.89152 0
M  V30 2098 C 201.728 3.15183 2.91475 0
M  V30 2099 C 200.961 3.28256 4.20813 0
M  V30 2100 O 201.184 2.46798 5.14244 0
M  V30 2101 O 200.118 4.21356 4.29817 0
M  V30 2102 H 203.944 2.7222 1.34647 0
M  V30 2103 H 201.529 1.36698 0.602828 0
M  V30 2104 H 203.411 2.02199 3.69721 0
M  V30 2105 H 202.086 0.998129 3.07927 0
M  V30 2106 H 200.993 3.09739 2.09791 0
M  V30 2107 H 202.326 4.06414 2.77648 0
M  V30 2108 N 203.978 -0.674533 1.42435 0
M  V30 2109 C 205.226 -1.43175 1.42637 0
M  V30 2110 C 205.547 -1.94951 0.0438992 0
M  V30 2111 O 204.817 -1.7308 -0.917607 0
M  V30 2112 H 203.397 -0.531307 0.525092 0
M  V30 2113 H 206.059 -0.797006 1.77859 0
M  V30 2114 H 205.155 -2.28463 2.12629 0
M  V30 2115 N 205.456 -1.28612 -0.910864 0
M  V30 2116 C 206.704 -1.15705 -1.65701 0
M  V30 2117 C 207.025 0.29416 -1.92769 0
M  V30 2118 O 206.295 1.20331 -1.54588 0
M  V30 2119 H 204.875 -0.425216 -0.614167 0
M  V30 2120 H 207.537 -1.61381 -1.0928 0
M  V30 2121 H 206.633 -1.6988 -2.61815 0
M  V30 2122 N 206.934 1.1197 -1.10907 0
M  V30 2123 C 207.897 2.16031 -0.765707 0
M  V30 2124 C 208.897 1.59393 0.212235 0
M  V30 2125 O 210.087 1.74196 -0.0115441 0
M  V30 2126 C 207.219 3.40632 -0.135053 0
M  V30 2127 H 208.412 2.47919 -1.68748 0
M  V30 2128 H 205.965 1.27061 -0.910226 0
M  V30 2129 H 206.7 3.14348 0.797218 0
M  V30 2130 H 206.485 3.8302 -0.838937 0
M  V30 2131 H 207.975 4.17505 0.0892469 0
M  V30 2132 N 208.412 0.89855 1.29475 0
M  V30 2133 C 209.823 0.572537 1.77705 0
M  V30 2134 C 210.174 -0.911778 1.73727 0
M  V30 2135 O 209.299 -1.71288 1.32247 0
M  V30 2136 C 209.894 1.03252 3.22683 0
M  V30 2137 C 208.453 0.757687 3.68695 0
M  V30 2138 C 207.6 1.20787 2.49612 0
M  V30 2139 H 210.551 1.08139 1.16153 0
M  V30 2140 H 210.572 0.367307 3.78723 0
M  V30 2141 H 210.084 2.11285 3.25546 0
M  V30 2142 H 208.185 -0.310079 3.71308 0
M  V30 2143 H 208.298 1.35476 4.59547 0
M  V30 2144 H 206.662 0.626888 2.46865 0
M  V30 2145 H 207.445 2.29622 2.55203 0
M  V30 2146 N 209.89 -1.43072 0.660911 0
M  V30 2147 C 211.306 -1.56169 0.329173 0
M  V30 2148 C 211.506 -1.64317 -1.16629 0
M  V30 2149 O 210.562 -1.60245 -1.95135 0
M  V30 2150 C 211.875 -2.81873 1.04729 0
M  V30 2151 C 213.423 -2.95627 1.02828 0
M  V30 2152 C 213.898 -4.24174 1.72744 0
M  V30 2153 N 215.389 -4.31055 1.69545 0
M  V30 2154 C 216.124 -5.29304 2.20511 0
M  V30 2155 N 215.62 -6.33786 2.79799 0
M  V30 2156 N 217.413 -5.21008 2.10966 0
M  V30 2157 H 209.564 -1.36027 1.63127 0
M  V30 2158 H 211.827 -0.653823 0.686454 0
M  V30 2159 H 211.533 -2.81942 2.10242 0
M  V30 2160 H 211.407 -3.72338 0.603702 0
M  V30 2161 H 213.794 -2.95094 -0.0184742 0
M  V30 2162 H 213.875 -2.06431 1.51063 0
M  V30 2163 H 213.519 -4.25467 2.7738 0
M  V30 2164 H 213.449 -5.1228 1.2197 0
M  V30 2165 H 215.94 -3.56174 1.26288 0
M  V30 2166 H 216.253 -7.05086 3.16344 0
M  V30 2167 H 214.598 -6.34387 2.83863 0
M  V30 2168 H 217.789 -4.38301 1.64347 0
M  V30 2169 H 217.962 -5.97416 2.50993 0
M  V30 2170 N 211.368 -0.403325 -1.52352 0
M  V30 2171 C 212.331 0.413051 -2.25447 0
M  V30 2172 C 213.331 0.978513 -1.276 0
M  V30 2173 O 214.521 0.858305 -1.51587 0
M  V30 2174 C 211.653 1.58087 -3.02029 0
M  V30 2175 H 212.846 -0.227094 -2.99039 0
M  V30 2176 H 210.399 -0.155722 -1.55522 0
M  V30 2177 H 211.134 2.25804 -2.32772 0
M  V30 2178 H 210.919 1.18195 -3.73861 0
M  V30 2179 H 212.409 2.1585 -3.57489 0
M  V30 2180 N 212.846 1.57033 -0.133567 0
M  V30 2181 C 213.794 2.17348 0.828412 0
M  V30 2182 C 214.788 1.12671 1.26498 0
M  V30 2183 O 215.994 1.30947 1.23502 0
M  V30 2184 H 212.369 0.695775 0.285309 0
M  V30 2185 H 214.34 2.96935 0.295372 0
M  V30 2186 C 213.089 2.79893 2.06289 0
M  V30 2187 H 212.412 3.60147 1.73592 0
M  V30 2188 H 213.852 3.25615 2.71572 0
M  V30 2189 C 212.311 1.77713 2.86216 0
M  V30 2190 O 212.841 1.23937 3.82103 0
M  V30 2191 N 211.047 1.47321 2.50489 0
M  V30 2192 H 210.594 1.91243 1.7258 0
M  V30 2193 H 210.552 0.79199 3.04261 0
M  V30 2194 N 214.325 -0.140222 1.56975 0
M  V30 2195 C 215.255 -1.17456 2.01808 0
M  V30 2196 C 216.236 -1.44415 0.898794 0
M  V30 2197 O 217.421 -1.5522 1.16707 0
M  V30 2198 C 214.551 -2.50607 2.40444 0
M  V30 2199 C 213.505 -2.38155 3.55621 0
M  V30 2200 C 212.831 -3.76078 3.80091 0
M  V30 2201 C 214.131 -1.85991 4.88062 0
M  V30 2202 H 215.825 -0.801743 2.88466 0
M  V30 2203 H 213.371 -0.38422 1.38779 0
M  V30 2204 H 215.324 -3.23197 2.7041 0
M  V30 2205 H 214.048 -2.89737 1.50732 0
M  V30 2206 H 212.707 -1.68016 3.25832 0
M  V30 2207 H 212.355 -4.12656 2.87618 0
M  V30 2208 H 212.055 -3.68606 4.57606 0
M  V30 2209 H 213.579 -4.50206 4.12488 0
M  V30 2210 H 214.993 -2.4838 5.16701 0
M  V30 2211 H 213.39 -1.89393 5.6943 0
M  V30 2212 H 214.46 -0.816023 4.77984 0
M  V30 2213 N 215.803 -1.52179 -0.40978 0
M  V30 2214 C 217.031 -1.70054 -1.17853 0
M  V30 2215 C 217.446 -0.409735 -1.843 0
M  V30 2216 O 216.803 0.614183 -1.71855 0
M  V30 2217 C 216.854 -2.83568 -2.24213 0
M  V30 2218 O 216.575 -4.0765 -1.60478 0
M  V30 2219 C 218.076 -3.12947 -3.13973 0
M  V30 2220 H 215.296 -0.569917 -0.354169 0
M  V30 2221 H 217.84 -1.98734 -0.482198 0
M  V30 2222 H 215.995 -2.57409 -2.89516 0
M  V30 2223 H 216.409 -4.70899 -2.30986 0
M  V30 2224 H 217.883 -3.95889 -3.84677 0
M  V30 2225 H 218.36 -2.26472 -3.76307 0
M  V30 2226 H 218.966 -3.40868 -2.5434 0
M  V30 2227 N 217.281 0.66697 -1.42791 0
M  V30 2228 C 218.527 1.4291 -1.43891 0
M  V30 2229 C 218.86 1.94114 -0.0578972 0
M  V30 2230 O 218.135 1.71414 0.91911 0
M  V30 2231 C 218.418 2.62049 -2.46987 0
M  V30 2232 C 218.271 2.16426 -3.94309 0
M  V30 2233 C 219.59 3.64266 -2.46978 0
M  V30 2234 H 216.709 0.518306 -0.523954 0
M  V30 2235 H 219.351 0.757321 -1.74255 0
M  V30 2236 H 217.501 3.19361 -2.21225 0
M  V30 2237 H 219.173 1.64221 -4.31079 0
M  V30 2238 H 217.416 1.47925 -4.078 0
M  V30 2239 H 218.087 3.02038 -4.62036 0
M  V30 2240 H 220.563 3.16686 -2.69906 0
M  V30 2241 H 219.439 4.45196 -3.21079 0
M  V30 2242 H 219.7 4.15927 -1.49857 0
M  V30 2243 N 218.759 1.29093 0.90403 0
M  V30 2244 C 220.005 1.16986 1.65656 0
M  V30 2245 C 220.338 -0.278925 1.92186 0
M  V30 2246 O 219.613 -1.2019 1.5292 0
M  V30 2247 C 219.896 1.97908 3.0084 0
M  V30 2248 C 219.749 3.50903 2.81403 0
M  V30 2249 C 221.068 1.80208 4.01513 0
M  V30 2250 H 218.187 0.426346 0.601164 0
M  V30 2251 H 220.829 1.58518 1.04747 0
M  V30 2252 H 218.979 1.62616 3.52829 0
M  V30 2253 H 220.651 3.96153 2.36348 0
M  V30 2254 H 218.894 3.76045 2.1627 0
M  V30 2255 H 219.565 4.02791 3.77443 0
M  V30 2256 H 222.041 2.11025 3.58619 0
M  V30 2257 H 220.917 2.39184 4.94047 0
M  V30 2258 H 221.178 0.756119 4.35586 0
M  V30 2259 N 220.237 -1.11381 1.11499 0
M  V30 2260 C 221.167 -2.19509 0.796125 0
M  V30 2261 C 222.148 -1.68458 -0.235796 0
M  V30 2262 O 223.333 -1.93947 -0.0991344 0
M  V30 2263 C 220.463 -3.46475 0.239205 0
M  V30 2264 C 219.417 -4.10744 1.20307 0
M  V30 2265 C 218.743 -5.32293 0.50683 0
M  V30 2266 C 220.043 -4.55597 2.55399 0
M  V30 2267 H 221.737 -2.46439 1.70024 0
M  V30 2268 H 219.283 -1.18446 0.818935 0
M  V30 2269 H 221.236 -4.214 0.00392006 0
M  V30 2270 H 219.96 -3.19006 -0.700206 0
M  V30 2271 H 218.619 -3.37813 1.42399 0
M  V30 2272 H 218.267 -5.01095 -0.437408 0
M  V30 2273 H 217.967 -5.76243 1.1497 0
M  V30 2274 H 219.491 -6.09956 0.280351 0
M  V30 2275 H 220.905 -5.21841 2.37391 0
M  V30 2276 H 219.302 -5.10363 3.15673 0
M  V30 2277 H 220.372 -3.69013 3.14575 0
M  V30 2278 N 221.715 -0.905404 -1.28997 0
M  V30 2279 C 222.645 -0.404212 -2.29975 0
M  V30 2280 C 223.626 0.523784 -1.61835 0
M  V30 2281 O 224.811 0.433298 -1.89304 0
M  V30 2282 C 221.941 0.364042 -3.45387 0
M  V30 2283 C 220.895 -0.474048 -4.25367 0
M  V30 2284 C 220.221 0.422045 -5.33032 0
M  V30 2285 C 221.521 -1.72696 -4.92923 0
M  V30 2286 H 223.215 -1.24807 -2.72146 0
M  V30 2287 H 220.761 -0.601585 -1.30832 0
M  V30 2288 H 222.714 0.725447 -4.15109 0
M  V30 2289 H 221.438 1.24174 -3.02074 0
M  V30 2290 H 220.097 -0.81786 -3.57361 0
M  V30 2291 H 219.745 1.29804 -4.85963 0
M  V30 2292 H 219.445 -0.135057 -5.87445 0
M  V30 2293 H 220.969 0.779517 -6.05604 0
M  V30 2294 H 222.383 -1.43495 -5.55051 0
M  V30 2295 H 220.78 -2.22582 -5.57295 0
M  V30 2296 H 221.85 -2.45964 -4.17887 0
M  V30 2297 N 223.193 1.4272 -0.668489 0
M  V30 2298 C 224.609 1.55992 -0.33745 0
M  V30 2299 C 224.809 1.64933 1.15756 0
M  V30 2300 O 223.865 1.61278 1.94282 0
M  V30 2301 C 225.178 2.81314 -1.06222 0
M  V30 2302 C 226.726 2.95078 -1.04394 0
M  V30 2303 C 227.201 4.23252 -1.74991 0
M  V30 2304 N 228.692 4.3015 -1.71829 0
M  V30 2305 C 229.427 5.28127 -2.23315 0
M  V30 2306 N 228.923 6.32293 -2.83156 0
M  V30 2307 N 230.716 5.19882 -2.13726 0
M  V30 2308 H 222.867 1.3516 -1.63846 0
M  V30 2309 H 225.13 0.650174 -0.689912 0
M  V30 2310 H 224.836 2.80823 -2.11734 0
M  V30 2311 H 224.71 3.72012 -0.62344 0
M  V30 2312 H 227.097 2.951 0.0028244 0
M  V30 2313 H 227.178 2.05627 -1.52155 0
M  V30 2314 H 226.822 4.2399 -2.79633 0
M  V30 2315 H 226.752 5.11626 -1.24685 0
M  V30 2316 H 229.243 3.55499 -1.28175 0
M  V30 2317 H 229.556 7.03398 -3.20079 0
M  V30 2318 H 227.901 6.32873 -2.87223 0
M  V30 2319 H 231.092 4.37423 -1.66669 0
M  V30 2320 H 231.265 5.96077 -2.54158 0
M  V30 2321 N 224.671 0.411399 1.52136 0
M  V30 2322 C 225.919 -0.163322 2.01439 0
M  V30 2323 C 226.24 -1.45453 1.29879 0
M  V30 2324 O 225.51 -1.91225 0.4254 0
M  V30 2325 H 224.09 -0.0633447 0.744309 0
M  V30 2326 H 226.752 0.548161 1.87033 0
M  V30 2327 H 225.848 -0.357817 3.10042 0
M  V30 2328 N 226.149 -1.5696 0.141893 0
M  V30 2329 C 227.059 -2.20066 -0.812905 0
M  V30 2330 C 228.075 -1.18344 -1.27557 0
M  V30 2331 O 229.251 -1.50902 -1.33381 0
M  V30 2332 C 226.316 -2.80583 -2.03652 0
M  V30 2333 C 225.377 -3.97414 -1.62359 0
M  V30 2334 C 224.61 -4.55036 -2.78887 0
M  V30 2335 O 224.833 -4.11538 -3.94959 0
M  V30 2336 O 223.767 -5.45376 -2.54653 0
M  V30 2337 H 227.593 -3.02157 -0.305746 0
M  V30 2338 H 225.178 -1.49159 -0.0848799 0
M  V30 2339 H 227.06 -3.19067 -2.75272 0
M  V30 2340 H 225.735 -2.01508 -2.5333 0
M  V30 2341 H 224.642 -3.63656 -0.877775 0
M  V30 2342 H 225.975 -4.77994 -1.17401 0
M  V30 2343 N 227.627 0.131896 -1.57047 0
M  V30 2344 C 228.574 1.16236 -1.99393 0
M  V30 2345 C 229.544 1.41863 -0.863943 0
M  V30 2346 O 230.729 1.53946 -1.12718 0
M  V30 2347 C 227.869 2.48708 -2.39245 0
M  V30 2348 C 226.982 2.30127 -3.65603 0
M  V30 2349 C 226.117 3.55738 -3.94492 0
M  V30 2350 C 225.156 3.32259 -5.14073 0
M  V30 2351 N 224.293 4.50039 -5.38896 0
M  V30 2352 H 229.133 0.794251 -2.87221 0
M  V30 2353 H 226.67 0.380707 -1.42088 0
M  V30 2354 H 228.628 3.25969 -2.60384 0
M  V30 2355 H 227.258 2.83437 -1.54478 0
M  V30 2356 H 226.31 1.43845 -3.52154 0
M  V30 2357 H 227.622 2.08746 -4.5302 0
M  V30 2358 H 226.776 4.41423 -4.1621 0
M  V30 2359 H 225.515 3.80138 -3.05526 0
M  V30 2360 H 224.52 2.44963 -4.92212 0
M  V30 2361 H 225.745 3.09242 -6.04604 0
M  V30 2362 H 223.691 4.74584 -4.52886 0
M  V30 2363 H 223.608 4.31716 -6.2061 0
M  V30 2364 H 224.876 5.36895 -5.65123 0
M  V30 2365 N 229.106 1.52395 0.401703 0
M  V30 2366 C 230.016 1.7917 1.51444 0
M  V30 2367 C 231.032 0.677691 1.6026 0
M  V30 2368 O 232.208 0.963909 1.76835 0
M  V30 2369 C 229.273 1.94347 2.87107 0
M  V30 2370 C 228.334 3.18257 2.88116 0
M  V30 2371 C 227.567 3.32701 4.17308 0
M  V30 2372 O 227.79 2.52238 5.11598 0
M  V30 2373 O 226.724 4.25891 4.25324 0
M  V30 2374 H 230.55 2.73633 1.31752 0
M  V30 2375 H 228.135 1.3733 0.588296 0
M  V30 2376 H 230.017 2.06109 3.67555 0
M  V30 2377 H 228.692 1.03073 3.06851 0
M  V30 2378 H 227.599 3.11947 2.06494 0
M  V30 2379 H 228.932 4.09336 2.73322 0
M  V30 2380 N 230.584 -0.659388 1.43143 0
M  V30 2381 C 231.514 -1.78422 1.50625 0
M  V30 2382 C 232.495 -1.66216 0.361443 0
M  V30 2383 O 233.68 -1.85404 0.577834 0
M  V30 2384 C 230.81 -3.16815 1.42287 0
M  V30 2385 C 229.764 -3.43777 2.54954 0
M  V30 2386 C 229.09 -4.81905 2.31671 0
M  V30 2387 C 230.39 -3.39134 3.97222 0
M  V30 2388 H 232.084 -1.72417 2.44771 0
M  V30 2389 H 229.63 -0.828084 1.17808 0
M  V30 2390 H 231.583 -3.95253 1.46127 0
M  V30 2391 H 230.307 -3.23534 0.446435 0
M  V30 2392 H 228.966 -2.67707 2.50457 0
M  V30 2393 H 228.614 -4.85294 1.32284 0
M  V30 2394 H 228.314 -5.00906 3.07192 0
M  V30 2395 H 229.838 -5.62609 2.37284 0
M  V30 2396 H 231.252 -4.07518 4.03239 0
M  V30 2397 H 229.649 -3.69671 4.72719 0
M  V30 2398 H 230.719 -2.37426 4.22797 0
M  V30 2399 N 232.062 -1.29571 -0.897171 0
M  V30 2400 C 233.009 -1.14916 -2.00158 0
M  V30 2401 C 233.979 -0.0418149 -1.66047 0
M  V30 2402 O 235.164 -0.209793 -1.89643 0
M  V30 2403 C 232.304 -0.834307 -3.34863 0
M  V30 2404 C 231.417 -2.02234 -3.8174 0
M  V30 2405 C 230.552 -1.64664 -5.05034 0
M  V30 2406 C 229.591 -2.80033 -5.44286 0
M  V30 2407 N 228.728 -2.42843 -6.58765 0
M  V30 2408 H 233.568 -2.09403 -2.12025 0
M  V30 2409 H 231.105 -1.042 -1.0383 0
M  V30 2410 H 233.063 -0.632436 -4.12379 0
M  V30 2411 H 231.693 0.0736656 -3.22716 0
M  V30 2412 H 230.745 -2.33583 -3.00238 0
M  V30 2413 H 232.057 -2.88673 -4.06779 0
M  V30 2414 H 231.211 -1.4078 -5.9014 0
M  V30 2415 H 229.95 -0.753766 -4.8184 0
M  V30 2416 H 228.955 -3.04596 -4.57713 0
M  V30 2417 H 230.18 -3.69989 -5.6946 0
M  V30 2418 H 228.126 -1.56046 -6.3717 0
M  V30 2419 H 228.043 -3.22815 -6.83613 0
M  V30 2420 H 229.311 -2.22285 -7.47134 0
M  V30 2421 N 233.54 1.10788 -1.12088 0
M  V30 2422 C 234.956 1.34691 -0.856186 0
M  V30 2423 C 235.156 1.94791 0.515615 0
M  V30 2424 O 234.212 2.18524 1.26505 0
M  V30 2425 C 235.525 2.27208 -1.9697 0
M  V30 2426 C 237.073 2.40755 -2.00016 0
M  V30 2427 C 237.548 3.36598 -3.1059 0
M  V30 2428 N 239.039 3.44164 -3.10008 0
M  V30 2429 C 239.774 4.18284 -3.92206 0
M  V30 2430 N 239.27 4.95322 -4.84384 0
M  V30 2431 N 241.063 4.13865 -3.80357 0
M  V30 2432 H 233.214 0.70144 -2.00483 0
M  V30 2433 H 235.477 0.371405 -0.872217 0
M  V30 2434 H 235.183 1.90251 -2.958 0
M  V30 2435 H 235.057 3.27485 -1.87172 0
M  V30 2436 H 237.444 2.76982 -1.01808 0
M  V30 2437 H 237.525 1.40305 -2.13888 0
M  V30 2438 H 237.169 3.01096 -4.09028 0
M  V30 2439 H 237.099 4.36918 -2.93956 0
M  V30 2440 H 239.59 2.8922 -2.43228 0
M  V30 2441 H 239.903 5.49267 -5.43623 0
M  V30 2442 H 238.248 4.94459 -4.884 0
M  V30 2443 H 241.439 3.52773 -3.07683 0
M  V30 2444 H 241.612 4.71372 -4.44649 0
M  V30 2445 N 235.018 0.912232 1.28515 0
M  V30 2446 C 235.928 0.404506 2.31086 0
M  V30 2447 C 236.944 -0.50707 1.66448 0
M  V30 2448 O 238.12 -0.393624 1.97516 0
M  V30 2449 C 235.185 -0.348572 3.44943 0
M  V30 2450 C 234.246 0.59604 4.25142 0
M  V30 2451 C 233.479 -0.121194 5.33562 0
M  V30 2452 O 233.702 -1.34317 5.5436 0
M  V30 2453 O 232.636 0.542716 5.99448 0
M  V30 2454 H 236.462 1.25579 2.76521 0
M  V30 2455 H 234.047 0.676998 1.33181 0
M  V30 2456 H 235.929 -0.77395 4.14232 0
M  V30 2457 H 234.604 -1.17571 3.01594 0
M  V30 2458 H 233.511 1.07079 3.58448 0
M  V30 2459 H 234.844 1.38995 4.72167 0
M  V30 2460 N 236.496 -1.42363 0.676048 0
M  V30 2461 C 237.907 -1.84649 0.275948 0
M  V30 2462 C 238.258 -1.56588 -1.18214 0
M  V30 2463 O 237.383 -1.02634 -1.90513 0
M  V30 2464 C 237.978 -3.35178 0.494053 0
M  V30 2465 C 236.537 -3.76109 0.148061 0
M  V30 2466 C 235.684 -2.65931 0.785891 0
M  V30 2467 H 238.635 -1.32192 0.878121 0
M  V30 2468 H 238.656 -3.79655 -0.25343 0
M  V30 2469 H 238.168 -3.55571 1.55535 0
M  V30 2470 H 236.269 -3.61323 -0.909742 0
M  V30 2471 H 236.382 -4.7546 0.589454 0
M  V30 2472 H 234.746 -2.53773 0.217113 0
M  V30 2473 H 235.529 -2.89146 1.85067 0
M  V30 2474 N 237.974 -0.419461 -1.51915 0
M  V30 2475 C 238.937 0.389116 -2.25873 0
M  V30 2476 C 239.937 0.964924 -1.28631 0
M  V30 2477 O 241.127 0.842179 -1.52489 0
M  V30 2478 C 238.259 1.54874 -3.03689 0
M  V30 2479 H 239.452 -0.258799 -2.98781 0
M  V30 2480 H 237.005 -0.172209 -1.55348 0
M  V30 2481 H 237.74 2.23323 -2.35154 0
M  V30 2482 H 237.525 1.14223 -3.75094 0
M  V30 2483 H 239.015 2.12046 -3.59759 0
M  V30 2484 N 239.452 1.56882 -0.150215 0
M  V30 2485 C 240.698 1.96518 0.500834 0
M  V30 2486 C 241.031 1.03527 1.64304 0
M  V30 2487 O 240.306 0.0782751 1.94342 0
M  V30 2488 C 240.589 3.45822 1.00395 0
M  V30 2489 C 240.442 4.49591 -0.136983 0
M  V30 2490 C 241.761 3.97704 1.88467 0
M  V30 2491 H 238.88 0.714535 0.18058 0
M  V30 2492 H 241.522 1.88577 -0.232091 0
M  V30 2493 H 239.672 3.5272 1.62851 0
M  V30 2494 H 241.344 4.5477 -0.77343 0
M  V30 2495 H 239.587 4.26441 -0.795652 0
M  V30 2496 H 240.258 5.51402 0.256815 0
M  V30 2497 H 242.734 3.93304 1.35834 0
M  V30 2498 H 241.61 5.0263 2.20578 0
M  V30 2499 H 241.871 3.40252 2.82279 0
M  V30 2500 N 240.93 -0.123565 1.57115 0
M  V30 2501 C 242.178 -0.83051 1.84247 0
M  V30 2502 C 242.499 -1.80629 0.73471 0
M  V30 2503 O 241.769 -1.94403 -0.241688 0
M  V30 2504 H 240.349 -0.309694 0.679778 0
M  V30 2505 H 243.011 -0.111976 1.94578 0
M  V30 2506 H 242.107 -1.37852 2.80006 0
M  V30 2507 N 242.408 -1.52605 -0.393616 0
M  V30 2508 C 243.318 -1.79971 -1.50492 0
M  V30 2509 C 244.334 -0.686181 -1.59899 0
M  V30 2510 O 245.51 -0.973274 -1.76322 0
M  V30 2511 C 242.575 -1.95867 -2.86072 0
M  V30 2512 C 241.636 -3.19781 -2.86424 0
M  V30 2513 C 240.869 -3.34909 -4.15538 0
M  V30 2514 O 241.092 -2.54948 -5.10253 0
M  V30 2515 O 240.026 -4.28141 -4.23059 0
M  V30 2516 H 243.852 -2.74328 -1.30299 0
M  V30 2517 H 241.437 -1.3764 -0.581005 0
M  V30 2518 H 243.319 -2.08056 -3.66457 0
M  V30 2519 H 241.994 -1.04699 -3.063 0
M  V30 2520 H 240.901 -3.13038 -2.04837 0
M  V30 2521 H 242.234 -4.1078 -2.71147 0
M  V30 2522 N 243.887 0.651787 -1.4349 0
M  V30 2523 C 245.298 1.233 -1.40193 0
M  V30 2524 C 245.649 1.9591 -0.106727 0
M  V30 2525 O 244.774 2.01316 0.793773 0
M  V30 2526 C 245.369 2.24257 -2.53957 0
M  V30 2527 C 243.928 2.77852 -2.5392 0
M  V30 2528 C 243.075 1.52517 -2.3159 0
M  V30 2529 H 246.026 0.443717 -1.52371 0
M  V30 2530 H 246.047 3.0646 -2.25528 0
M  V30 2531 H 245.559 1.71382 -3.4821 0
M  V30 2532 H 243.66 3.34786 -1.63551 0
M  V30 2533 H 243.773 3.25299 -3.51735 0
M  V30 2534 H 242.137 1.79915 -1.80285 0
M  V30 2535 H 242.92 1.01574 -3.27929 0
M  V30 2536 N 245.365 1.30045 0.890287 0
M  V30 2537 C 246.328 1.15963 1.977 0
M  V30 2538 C 247.328 0.0923777 1.60534 0
M  V30 2539 O 248.518 0.340071 1.70848 0
M  V30 2540 C 245.65 0.775451 3.31963 0
M  V30 2541 H 246.843 2.12502 2.11619 0
M  V30 2542 H 244.396 1.13366 1.07601 0
M  V30 2543 H 245.131 -0.189671 3.23745 0
M  V30 2544 H 244.916 1.54668 3.60306 0
M  V30 2545 H 246.406 0.700251 4.11687 0
M  V30 2546 N 246.843 -1.10192 1.12674 0
M  V30 2547 C 247.753 -2.20172 0.810026 0
M  V30 2548 C 248.769 -1.72821 -0.202188 0
M  V30 2549 O 249.945 -2.01369 -0.0351691 0
M  V30 2550 C 247.01 -3.45631 0.272007 0
M  V30 2551 C 246.071 -4.07704 1.34447 0
M  V30 2552 C 245.304 -5.27175 0.832029 0
M  V30 2553 O 245.527 -5.69425 -0.333284 0
M  V30 2554 O 244.461 -5.80168 1.60277 0
M  V30 2555 H 248.287 -2.49701 1.72867 0
M  V30 2556 H 245.872 -1.18977 0.903597 0
M  V30 2557 H 247.754 -4.21394 -0.0230219 0
M  V30 2558 H 246.429 -3.17723 -0.619164 0
M  V30 2559 H 245.336 -3.33614 1.6927 0
M  V30 2560 H 246.669 -4.3982 2.2095 0
M  V30 2561 N 248.321 -0.919034 -1.28029 0
M  V30 2562 C 249.567 -0.555757 -1.95036 0
M  V30 2563 C 249.9 0.899198 -1.72128 0
M  V30 2564 O 249.175 1.64023 -1.04531 0
M  V30 2565 C 249.458 -0.872024 -3.49382 0
M  V30 2566 C 249.311 -2.3801 -3.81669 0
M  V30 2567 C 250.63 -0.37185 -4.38526 0
M  V30 2568 H 247.749 -0.203386 -0.708381 0
M  V30 2569 H 250.391 -1.14924 -1.51303 0
M  V30 2570 H 248.541 -0.366946 -3.86763 0
M  V30 2571 H 250.213 -2.9562 -3.54128 0
M  V30 2572 H 248.456 -2.83289 -3.28526 0
M  V30 2573 H 249.127 -2.55192 -4.8947 0
M  V30 2574 H 251.603 -0.804602 -4.08247 0
M  V30 2575 H 250.479 -0.622173 -5.45362 0
M  V30 2576 H 250.74 0.727934 -4.36066 0
M  V30 2577 N 249.799 1.42003 -0.683588 0
M  V30 2578 C 251.027 2.05746 -0.218182 0
M  V30 2579 C 251.442 1.51396 1.12804 0
M  V30 2580 O 250.799 0.657303 1.70252 0
M  V30 2581 C 250.85 3.61171 -0.154131 0
M  V30 2582 O 250.571 4.13508 -1.44716 0
M  V30 2583 C 252.072 4.42042 0.333713 0
M  V30 2584 H 249.292 0.662888 -0.10402 0
M  V30 2585 H 251.836 1.81987 -0.9328 0
M  V30 2586 H 249.991 3.84012 0.511231 0
M  V30 2587 H 250.405 5.07453 -1.32632 0
M  V30 2588 H 251.879 5.51028 0.327423 0
M  V30 2589 H 252.356 4.17269 1.37053 0
M  V30 2590 H 252.962 4.24239 -0.300222 0
M  V30 2591 N 251.277 0.427512 1.51691 0
M  V30 2592 C 252.505 -0.141191 2.06418 0
M  V30 2593 C 252.92 -1.37303 1.29589 0
M  V30 2594 O 252.277 -1.79059 0.352732 0
M  V30 2595 C 252.328 -0.473266 3.58389 0
M  V30 2596 O 252.049 0.709673 4.32314 0
M  V30 2597 C 253.55 -1.09371 4.29596 0
M  V30 2598 H 250.77 -0.0122747 0.670888 0
M  V30 2599 H 253.314 0.603764 1.95384 0
M  V30 2600 H 251.469 -1.16812 3.69369 0
M  V30 2601 H 251.883 0.42807 5.2275 0
M  V30 2602 H 253.357 -1.27613 5.37046 0
M  V30 2603 H 253.834 -2.072 3.87253 0
M  V30 2604 H 254.44 -0.43853 4.23033 0
M  V30 2605 N 252.755 -1.56801 0.158532 0
M  V30 2606 C 253.983 -2.00859 -0.496303 0
M  V30 2607 C 254.398 -1.03871 -1.57659 0
M  V30 2608 O 253.755 -0.0375165 -1.82461 0
M  V30 2609 C 253.806 -3.4479 -1.08638 0
M  V30 2610 O 253.527 -4.38072 -0.0492322 0
M  V30 2611 C 255.028 -4.04185 -1.8207 0
M  V30 2612 H 252.248 -0.65864 -0.128199 0
M  V30 2613 H 254.792 -2.02885 0.256506 0
M  V30 2614 H 252.947 -3.43579 -1.78975 0
M  V30 2615 H 253.361 -5.2227 -0.483102 0
M  V30 2616 H 254.835 -5.06857 -2.18633 0
M  V30 2617 H 255.312 -3.45549 -2.71095 0
M  V30 2618 H 255.918 -4.0906 -1.16405 0
M  V30 2619 N 254.233 0.115231 -1.57178 0
M  V30 2620 C 255.479 0.82357 -1.85325 0
M  V30 2621 C 255.812 1.79349 -0.744814 0
M  V30 2622 O 255.087 1.92899 0.249024 0
M  V30 2623 C 255.37 1.57014 -3.24066 0
M  V30 2624 C 255.223 0.619565 -4.45513 0
M  V30 2625 C 256.542 2.52545 -3.60429 0
M  V30 2626 H 253.661 0.297948 -0.674089 0
M  V30 2627 H 256.303 0.0877138 -1.89797 0
M  V30 2628 H 254.453 2.19742 -3.20383 0
M  V30 2629 H 256.125 0.000837639 -4.613 0
M  V30 2630 H 254.368 -0.0686174 -4.33746 0
M  V30 2631 H 255.039 1.17866 -5.3927 0
M  V30 2632 H 257.515 1.9992 -3.64926 0
M  V30 2633 H 256.391 3.01811 -4.58477 0
M  V30 2634 H 256.652 3.35383 -2.88047 0
M  V30 2635 N 255.711 1.52812 0.385517 0
M  V30 2636 C 256.641 1.80808 1.47752 0
M  V30 2637 C 257.622 0.660318 1.5676 0
M  V30 2638 O 258.807 0.908246 1.71652 0
M  V30 2639 C 255.937 1.98008 2.85324 0
M  V30 2640 C 254.891 3.13709 2.91154 0
M  V30 2641 C 254.217 3.16169 4.31209 0
M  V30 2642 C 255.517 4.52709 2.60483 0
M  V30 2643 H 257.211 2.72253 1.24573 0
M  V30 2644 H 254.757 1.31003 0.597839 0
M  V30 2645 H 256.71 2.16176 3.61726 0
M  V30 2646 H 255.434 1.03255 3.09848 0
M  V30 2647 H 254.093 2.95329 2.17201 0
M  V30 2648 H 253.741 2.19092 4.52778 0
M  V30 2649 H 253.441 3.93894 4.36029 0
M  V30 2650 H 254.965 3.36496 5.09512 0
M  V30 2651 H 256.379 4.71173 3.26602 0
M  V30 2652 H 254.776 5.32528 2.76648 0
M  V30 2653 H 255.846 4.59186 1.55809 0
M  V30 2654 N 257.189 -0.644168 1.43834 0
M  V30 2655 C 258.435 -1.40603 1.46146 0
M  V30 2656 C 258.768 -1.93997 0.0887717 0
M  V30 2657 O 258.043 -1.72854 -0.891724 0
M  V30 2658 C 258.326 -2.58086 2.51124 0
M  V30 2659 C 258.179 -2.10126 3.97702 0
M  V30 2660 C 259.498 -3.60291 2.52742 0
M  V30 2661 H 256.617 -0.509905 0.532134 0
M  V30 2662 H 259.259 -0.729502 1.75437 0
M  V30 2663 H 257.409 -3.15801 2.26278 0
M  V30 2664 H 259.081 -1.57342 4.33637 0
M  V30 2665 H 257.324 -1.41419 4.10101 0
M  V30 2666 H 257.995 -2.94649 4.66783 0
M  V30 2667 H 260.471 -3.12352 2.7491 0
M  V30 2668 H 259.347 -4.40032 3.28121 0
M  V30 2669 H 259.608 -4.1349 1.56455 0
M  V30 2670 N 258.668 -1.30515 -0.883378 0
M  V30 2671 C 260.084 -1.08881 -1.16692 0
M  V30 2672 C 260.284 0.149409 -2.00945 0
M  V30 2673 O 259.34 0.84257 -2.38027 0
M  V30 2674 C 260.653 -2.35319 -1.87204 0
M  V30 2675 C 262.201 -2.40799 -1.99962 0
M  V30 2676 C 262.676 -3.67083 -2.73887 0
M  V30 2677 N 264.167 -3.679 -2.81432 0
M  V30 2678 C 264.902 -4.62303 -3.3921 0
M  V30 2679 N 264.398 -5.67052 -3.98025 0
M  V30 2680 N 266.191 -4.49845 -3.3704 0
M  V30 2681 H 258.342 -2.09951 -0.321633 0
M  V30 2682 H 260.605 -0.92556 -0.205043 0
M  V30 2683 H 260.311 -3.25689 -1.3274 0
M  V30 2684 H 260.185 -2.44089 -2.87577 0
M  V30 2685 H 262.572 -1.50907 -2.53597 0
M  V30 2686 H 262.653 -2.36003 -0.98673 0
M  V30 2687 H 262.297 -4.57334 -2.20925 0
M  V30 2688 H 262.227 -3.69141 -3.75556 0
M  V30 2689 H 264.718 -2.92171 -2.39676 0
M  V30 2690 H 265.031 -6.35184 -4.40183 0
M  V30 2691 H 263.376 -5.70842 -3.96439 0
M  V30 2692 H 266.567 -3.67194 -2.90321 0
M  V30 2693 H 266.74 -5.23597 -3.81772 0
M  V30 2694 N 260.146 1.09593 -1.13257 0
M  V30 2695 C 261.562 1.33775 -0.870423 0
M  V30 2696 C 261.762 1.95327 0.494926 0
M  V30 2697 O 260.818 2.19853 1.2418 0
M  V30 2698 C 262.131 2.25106 -1.99369 0
M  V30 2699 C 263.679 2.3862 -2.02558 0
M  V30 2700 C 264.154 3.33285 -3.14142 0
M  V30 2701 N 265.645 3.40857 -3.13641 0
M  V30 2702 C 266.38 4.14101 -3.96621 0
M  V30 2703 N 265.876 4.90157 -4.8961 0
M  V30 2704 N 267.669 4.09808 -3.84726 0
M  V30 2705 H 259.82 0.680136 -2.01216 0
M  V30 2706 H 262.083 0.362133 -0.876107 0
M  V30 2707 H 261.789 1.87103 -2.97801 0
M  V30 2708 H 261.663 3.25481 -1.90635 0
M  V30 2709 H 264.05 2.75887 -1.0474 0
M  V30 2710 H 264.131 1.38028 -2.15364 0
M  V30 2711 H 263.775 2.96741 -4.12198 0
M  V30 2712 H 263.705 4.33776 -2.98574 0
M  V30 2713 H 266.196 2.86624 -2.46282 0
M  V30 2714 H 266.509 5.4347 -5.49418 0
M  V30 2715 H 264.854 4.89251 -4.93617 0
M  V30 2716 H 268.045 3.4949 -3.11408 0
M  V30 2717 H 268.218 4.66629 -4.49623 0
M  V30 2718 N 261.624 0.925811 1.2754 0
M  V30 2719 C 262.901 0.483726 1.89524 0
M  V30 2720 C 263.281 -1.03809 1.83812 0
M  V30 2721 O 262.629 -1.89143 1.28207 0
M  V30 2722 C 262.839 1.02769 3.33526 0
M  V30 2723 C 264.187 1.08703 4.10449 0
M  V30 2724 O 265.211 0.977175 3.42534 0
M  V30 2725 O 264.07 1.25599 5.31871 0
M  V30 2726 H 261.164 0.15529 0.812289 0
M  V30 2727 H 263.71 1.01738 1.35822 0
M  V30 2728 H 262.482 2.07155 3.31967 0
M  V30 2729 H 262.105 0.475567 3.94746 0
M  V30 2730 N 263.102 -1.41638 0.69111 0
M  V30 2731 C 264.052 -2.28 -0.000107832 0
M  V30 2732 C 265.036 -1.41964 -0.757304 0
M  V30 2733 O 266.228 -1.65274 -0.633532 0
M  V30 2734 C 263.357 -3.30209 -0.938983 0
M  V30 2735 C 262.443 -4.23725 -0.17827 0
M  V30 2736 N 262.834 -4.99017 0.825563 0
M  V30 2737 C 261.132 -4.44071 -0.414392 0
M  V30 2738 C 261.833 -5.67431 1.28052 0
M  V30 2739 N 260.809 -5.40197 0.607304 0
M  V30 2740 H 264.611 -2.83644 0.769617 0
M  V30 2741 H 262.125 -1.53797 0.521562 0
M  V30 2742 H 264.122 -3.90898 -1.44929 0
M  V30 2743 H 262.782 -2.76126 -1.70836 0
M  V30 2744 H 263.793 -5.03671 1.20566 0
M  V30 2745 H 260.47 -4.01004 -1.162 0
M  V30 2746 H 261.86 -6.37801 2.11327 0
M  V30 2747 N 264.58 -0.43555 -1.51462 0
M  V30 2748 C 265.53 0.394701 -2.24558 0
M  V30 2749 C 266.514 0.99157 -1.26715 0
M  V30 2750 O 267.706 0.910007 -1.51815 0
M  V30 2751 C 264.835 1.4963 -3.08975 0
M  V30 2752 C 263.921 0.908912 -4.14246 0
M  V30 2753 N 264.312 0.0505335 -5.05775 0
M  V30 2754 C 262.61 1.17668 -4.30198 0
M  V30 2755 C 263.311 -0.279161 -5.8103 0
M  V30 2756 N 262.287 0.336767 -5.42556 0
M  V30 2757 H 266.089 -0.267106 -2.92684 0
M  V30 2758 H 263.603 -0.247518 -1.60503 0
M  V30 2759 H 265.6 2.10394 -3.59917 0
M  V30 2760 H 264.26 2.16046 -2.42393 0
M  V30 2761 H 265.271 -0.31577 -5.16936 0
M  V30 2762 H 261.948 1.83847 -3.74842 0
M  V30 2763 H 263.338 -0.977553 -6.64751 0
M  V30 2764 N 266.058 1.56714 -0.166846 0
M  V30 2765 C 267.306 1.96358 0.478305 0
M  V30 2766 C 267.627 1.0537 1.6408 0
M  V30 2767 O 266.897 0.119154 1.95537 0
M  V30 2768 H 265.477 0.725065 0.179692 0
M  V30 2769 H 268.139 1.93329 -0.246985 0
M  V30 2770 H 267.235 3.00547 0.841292 0
M  V30 2771 N 267.536 -0.106894 1.57237 0
M  V30 2772 C 268.499 -1.11466 2.0027 0
M  V30 2773 C 269.499 -1.33623 0.894519 0
M  V30 2774 O 270.689 -1.29935 1.16028 0
M  V30 2775 C 267.821 -2.46646 2.35327 0
M  V30 2776 H 269.014 -0.744516 2.90512 0
M  V30 2777 H 266.567 -0.351576 1.52295 0
M  V30 2778 H 267.302 -2.88558 1.48003 0
M  V30 2779 H 267.087 -2.31915 3.16161 0
M  V30 2780 H 268.577 -3.19151 2.69318 0
M  V30 2781 N 269.014 -1.53014 -0.377408 0
M  V30 2782 C 269.962 -1.7927 -1.48206 0
M  V30 2783 C 270.956 -0.661195 -1.55963 0
M  V30 2784 O 272.162 -0.843908 -1.58991 0
M  V30 2785 H 268.537 -0.567425 -0.493491 0
M  V30 2786 H 270.508 -2.71753 -1.2326 0
M  V30 2787 C 269.257 -1.98894 -2.85196 0
M  V30 2788 H 268.58 -2.85395 -2.79981 0
M  V30 2789 H 270.02 -2.21249 -3.61698 0
M  V30 2790 C 268.479 -0.764691 -3.28107 0
M  V30 2791 O 269.009 0.0523226 -4.01666 0
M  V30 2792 N 267.215 -0.591493 -2.84517 0
M  V30 2793 H 266.762 -1.25749 -2.24822 0
M  V30 2794 H 266.72 0.226253 -3.13585 0
M  V30 2795 N 270.492 0.636531 -1.44174 0
M  V30 2796 C 271.739 1.39619 -1.46672 0
M  V30 2797 C 272.067 1.94257 -0.0972691 0
M  V30 2798 O 271.322 1.73768 0.900175 0
M  V30 2799 C 271.621 2.58309 -2.47005 0
M  V30 2800 C 271.287 2.21992 -3.92467 0
M  V30 2801 C 269.949 2.118 -4.32081 0
M  V30 2802 C 272.301 1.9321 -4.84065 0
M  V30 2803 C 269.629 1.71007 -5.61225 0
M  V30 2804 C 271.981 1.53911 -6.13591 0
M  V30 2805 C 270.645 1.42257 -6.52165 0
M  V30 2806 H 269.915 0.510902 -0.536712 0
M  V30 2807 H 272.562 0.722328 -1.77355 0
M  V30 2808 H 270.867 3.30903 -2.09786 0
M  V30 2809 H 272.564 3.16533 -2.46186 0
M  V30 2810 H 269.154 2.30841 -3.61124 0
M  V30 2811 H 273.338 1.99997 -4.54219 0
M  V30 2812 H 268.594 1.60583 -5.89935 0
M  V30 2813 H 272.768 1.30677 -6.8403 0
M  V30 2814 H 270.395 1.10419 -7.52138 0
M  V30 2815 N 271.97 1.30982 0.876444 0
M  V30 2816 C 273.195 1.23373 1.66715 0
M  V30 2817 C 273.62 -0.19885 1.87046 0
M  V30 2818 O 272.978 -1.1427 1.40756 0
M  V30 2819 C 273.026 1.97644 3.01611 0
M  V30 2820 O 272.13 1.30935 3.91062 0
M  V30 2821 H 271.471 0.426279 0.509099 0
M  V30 2822 H 274.001 1.72944 1.09323 0
M  V30 2823 H 274.011 2.06992 3.51594 0
M  V30 2824 H 272.686 3.01829 2.86133 0
M  V30 2825 H 271.263 1.29996 3.49507 0
M  V30 2826 N 273.449 -1.08991 1.13837 0
M  V30 2827 C 274.689 -1.82867 0.913183 0
M  V30 2828 C 275.053 -1.83936 -0.550604 0
M  V30 2829 O 276.254 -2.53515 -0.893515 0
M  V30 2830 C 274.525 -3.24843 1.49036 0
M  V30 2831 S 276.084 -4.15669 1.40588 0
M  V30 2832 H 272.902 -0.630278 0.329046 0
M  V30 2833 H 275.504 -1.31049 1.45073 0
M  V30 2834 H 274.208 -3.21644 2.54899 0
M  V30 2835 H 273.739 -3.81734 0.950947 0
M  V30 2836 H 275.754 -4.94686 0.387353 0
M  V30 2837 N 274.927 -0.932562 -1.27047 0
M  V30 2838 C 276.343 -0.633544 -1.46487 0
M  V30 2839 C 276.543 0.815746 -1.84249 0
M  V30 2840 O 275.599 1.59319 -1.95892 0
M  V30 2841 C 276.912 -1.58758 -2.55375 0
M  V30 2842 C 278.46 -1.59634 -2.69232 0
M  V30 2843 C 278.935 -2.53747 -3.81283 0
M  V30 2844 N 280.426 -2.51982 -3.88664 0
M  V30 2845 C 281.161 -3.21491 -4.74796 0
M  V30 2846 N 280.657 -4.00395 -5.65381 0
M  V30 2847 N 282.45 -3.10485 -4.68568 0
M  V30 2848 H 274.601 -1.86946 -1.00821 0
M  V30 2849 H 276.864 -0.802897 -0.504044 0
M  V30 2850 H 276.57 -2.62172 -2.34432 0
M  V30 2851 H 276.444 -1.33301 -3.52861 0
M  V30 2852 H 278.831 -0.569488 -2.89553 0
M  V30 2853 H 278.912 -1.89142 -1.72218 0
M  V30 2854 H 278.556 -3.56545 -3.61715 0
M  V30 2855 H 278.486 -2.21532 -4.77735 0
M  V30 2856 H 280.977 -1.94681 -3.23895 0
M  V30 2857 H 281.29 -4.50406 -6.27976 0
M  V30 2858 H 279.635 -4.04498 -5.65161 0
M  V30 2859 H 282.826 -2.48331 -3.96799 0
M  V30 2860 H 282.999 -3.64925 -5.35475 0
M  V30 2861 N 276.405 1.4127 -0.698611 0
M  V30 2862 C 277.633 2.05503 -0.239992 0
M  V30 2863 C 278.048 1.52584 1.11191 0
M  V30 2864 O 277.405 0.675323 1.69545 0
M  V30 2865 C 277.456 3.60987 -0.192429 0
M  V30 2866 O 277.177 4.1195 -1.49094 0
M  V30 2867 C 278.678 4.42371 0.28681 0
M  V30 2868 H 275.898 0.661748 -0.111045 0
M  V30 2869 H 278.442 1.80987 -0.95205 0
M  V30 2870 H 276.597 3.84533 0.470472 0
M  V30 2871 H 277.011 5.06018 -1.38007 0
M  V30 2872 H 278.485 5.51344 0.26896 0
M  V30 2873 H 278.962 4.18699 1.32619 0
M  V30 2874 H 279.568 4.23897 -0.345201 0
M  V30 2875 N 277.883 0.443576 1.51229 0
M  V30 2876 C 278.793 -0.370721 2.31652 0
M  V30 2877 C 279.809 -1.02186 1.40833 0
M  V30 2878 O 280.985 -1.01586 1.73903 0
M  V30 2879 C 278.05 -1.45376 3.14749 0
M  V30 2880 C 277.111 -0.822099 4.21355 0
M  V30 2881 C 276.344 -1.85353 5.0048 0
M  V30 2882 O 276.567 -3.07656 4.80316 0
M  V30 2883 O 275.501 -1.4406 5.84406 0
M  V30 2884 H 279.327 0.286002 3.0235 0
M  V30 2885 H 276.912 0.20598 1.47973 0
M  V30 2886 H 278.794 -2.08173 3.66391 0
M  V30 2887 H 277.469 -2.09445 2.46809 0
M  V30 2888 H 276.376 -0.155909 3.73775 0
M  V30 2889 H 277.709 -0.224797 4.91686 0
M  V30 2890 N 279.361 -1.56624 0.175154 0
M  V30 2891 C 280.291 -2.21155 -0.749195 0
M  V30 2892 C 281.272 -1.16836 -1.23626 0
M  V30 2893 O 282.457 -1.45277 -1.28873 0
M  V30 2894 C 279.587 -2.8553 -1.97711 0
M  V30 2895 C 278.541 -3.95921 -1.62575 0
M  V30 2896 C 277.867 -4.47365 -2.92864 0
M  V30 2897 C 279.167 -5.15323 -0.850838 0
M  V30 2898 H 280.861 -2.98653 -0.211295 0
M  V30 2899 H 278.407 -1.43651 -0.100188 0
M  V30 2900 H 280.36 -3.2935 -2.62881 0
M  V30 2901 H 279.084 -2.05406 -2.53921 0
M  V30 2902 H 277.743 -3.52762 -0.997719 0
M  V30 2903 H 277.391 -3.64027 -3.47122 0
M  V30 2904 H 277.091 -5.21839 -2.70106 0
M  V30 2905 H 278.615 -4.93873 -3.59056 0
M  V30 2906 H 280.029 -5.55812 -1.40521 0
M  V30 2907 H 278.426 -5.95739 -0.722154 0
M  V30 2908 H 279.496 -4.84661 0.152082 0
M  V30 2909 N 280.839 0.0985539 -1.57292 0
M  V30 2910 C 282.116 0.834155 -1.76921 0
M  V30 2911 C 282.496 1.97101 -0.755928 0
M  V30 2912 O 281.844 2.27474 0.216245 0
M  V30 2913 C 282.054 1.33194 -3.22584 0
M  V30 2914 C 283.402 1.77611 -3.85668 0
M  V30 2915 O 284.426 1.42825 -3.26312 0
M  V30 2916 O 283.285 2.4192 -4.90038 0
M  V30 2917 H 280.379 0.397628 -0.725135 0
M  V30 2918 H 282.925 0.0807044 -1.69508 0
M  V30 2919 H 281.697 0.517248 -3.87866 0
M  V30 2920 H 281.32 2.1475 -3.34616 0
M  V30 2921 N 282.317 1.53212 0.369288 0
M  V30 2922 C 283.247 1.82365 1.45826 0
M  V30 2923 C 284.228 0.676907 1.56051 0
M  V30 2924 O 285.413 0.926401 1.70679 0
M  V30 2925 C 282.543 2.01023 2.83208 0
M  V30 2926 C 281.497 3.1678 2.8781 0
M  V30 2927 C 280.823 3.20724 4.27832 0
M  V30 2928 C 282.123 4.55447 2.55667 0
M  V30 2929 H 283.817 2.73559 1.21678 0
M  V30 2930 H 281.363 1.3163 0.583911 0
M  V30 2931 H 283.316 2.20001 3.59413 0
M  V30 2932 H 282.04 1.06536 3.08736 0
M  V30 2933 H 280.699 2.97616 2.14056 0
M  V30 2934 H 280.347 2.23882 4.50429 0
M  V30 2935 H 280.047 3.98496 4.31827 0
M  V30 2936 H 281.571 3.41881 5.05915 0
M  V30 2937 H 282.985 4.74611 3.21586 0
M  V30 2938 H 281.382 5.35432 2.70984 0
M  V30 2939 H 282.452 4.60812 1.5093 0
M  V30 2940 N 283.795 -0.628877 1.44509 0
M  V30 2941 C 285.211 -0.947305 1.28446 0
M  V30 2942 C 285.411 -2.00275 0.221872 0
M  V30 2943 O 284.467 -2.49447 -0.391471 0
M  V30 2944 C 285.78 -1.40843 2.65676 0
M  V30 2945 C 287.328 -1.52379 2.73404 0
M  V30 2946 C 287.803 -2.01875 4.11109 0
M  V30 2947 N 289.294 -2.09142 4.13296 0
M  V30 2948 C 290.029 -2.48615 5.16699 0
M  V30 2949 N 289.525 -2.87209 6.30462 0
M  V30 2950 N 291.318 -2.48768 5.04054 0
M  V30 2951 H 283.469 0.0690977 2.12288 0
M  V30 2952 H 285.732 -0.0317164 0.947469 0
M  V30 2953 H 285.438 -0.707206 3.44516 0
M  V30 2954 H 285.312 -2.37902 2.92716 0
M  V30 2955 H 287.699 -2.21598 1.9488 0
M  V30 2956 H 287.78 -0.536898 2.50102 0
M  V30 2957 H 287.424 -1.3325 4.90109 0
M  V30 2958 H 287.354 -3.0144 4.31789 0
M  V30 2959 H 289.845 -1.81991 3.31191 0
M  V30 2960 H 290.158 -3.16149 7.05174 0
M  V30 2961 H 288.503 -2.84955 6.33897 0
M  V30 2962 H 291.694 -2.18009 4.14234 0
M  V30 2963 H 291.867 -2.79207 5.84763 0
M  V30 2964 N 285.273 -1.31445 -0.869486 0
M  V30 2965 C 286.684 -1.19042 -1.43826 0
M  V30 2966 C 287.035 0.202919 -1.95148 0
M  V30 2967 O 286.16 1.10071 -1.86315 0
M  V30 2968 C 286.755 -2.15499 -2.6143 0
M  V30 2969 C 285.314 -2.07028 -3.14351 0
M  V30 2970 C 284.461 -2.04701 -1.87063 0
M  V30 2971 H 287.412 -1.43489 -0.677984 0
M  V30 2972 H 287.433 -1.74488 -3.38134 0
M  V30 2973 H 286.945 -3.16899 -2.24046 0
M  V30 2974 H 285.046 -1.08825 -3.56354 0
M  V30 2975 H 285.159 -2.96157 -3.766 0
M  V30 2976 H 283.523 -1.49724 -2.06046 0
M  V30 2977 H 284.306 -3.07857 -1.51917 0
M  V30 2978 N 286.751 1.08385 -1.14413 0
M  V30 2979 C 287.683 2.1519 -0.789036 0
M  V30 2980 C 288.696 1.61638 0.19417 0
M  V30 2981 O 289.885 1.78479 -0.0275711 0
M  V30 2982 C 286.985 3.38565 -0.15058 0
M  V30 2983 C 286.158 4.21501 -1.16857 0
M  V30 2984 C 285.217 5.23277 -0.553832 0
M  V30 2985 O 284.243 5.56041 -1.21686 0
M  V30 2986 N 285.445 5.76629 0.669296 0
M  V30 2987 H 288.21 2.46257 -1.70814 0
M  V30 2988 H 285.771 1.24198 -1.03858 0
M  V30 2989 H 287.763 4.03777 0.273181 0
M  V30 2990 H 286.333 3.05299 0.671667 0
M  V30 2991 H 285.553 3.52265 -1.76926 0
M  V30 2992 H 286.841 4.73731 -1.85624 0
M  V30 2993 H 286.239 5.52243 1.22654 0
M  V30 2994 H 284.796 6.43521 1.03556 0
M  V30 2995 N 288.23 0.939286 1.26551 0
M  V30 2996 C 289.478 0.58469 1.93457 0
M  V30 2997 C 289.799 -0.878774 1.74076 0
M  V30 2998 O 289.069 -1.62421 1.09528 0
M  V30 2999 H 287.649 0.21325 0.715914 0
M  V30 3000 H 290.311 1.1942 1.54029 0
M  V30 3001 H 289.407 0.800849 3.0165 0
M  V30 3002 N 289.708 -1.40897 0.706093 0
M  V30 3003 C 290.638 -2.33418 0.0620085 0
M  V30 3004 C 291.619 -1.52385 -0.755827 0
M  V30 3005 O 292.804 -1.80886 -0.706674 0
M  V30 3006 C 289.934 -3.36293 -0.867445 0
M  V30 3007 C 288.888 -4.27716 -0.155932 0
M  V30 3008 C 288.214 -5.2105 -1.20046 0
M  V30 3009 C 289.514 -5.12944 0.984149 0
M  V30 3010 H 291.208 -2.87527 0.83477 0
M  V30 3011 H 288.754 -1.38249 0.402875 0
M  V30 3012 H 290.707 -3.99949 -1.32735 0
M  V30 3013 H 289.431 -2.80556 -1.67199 0
M  V30 3014 H 288.09 -3.65498 0.284047 0
M  V30 3015 H 287.738 -4.61624 -1.99781 0
M  V30 3016 H 287.438 -5.83056 -0.729328 0
M  V30 3017 H 288.962 -5.87584 -1.66066 0
M  V30 3018 H 290.376 -5.70109 0.604048 0
M  V30 3019 H 288.773 -5.83945 1.38304 0
M  V30 3020 H 289.843 -4.49485 1.81911 0
M  V30 3021 N 291.186 -0.45159 -1.50991 0
M  V30 3022 C 292.096 0.358431 -2.31846 0
M  V30 3023 C 293.112 1.01438 -1.41373 0
M  V30 3024 O 294.288 1.00663 -1.74439 0
M  V30 3025 C 291.353 1.43704 -3.15515 0
M  V30 3026 C 290.414 0.799742 -4.21785 0
M  V30 3027 C 289.647 1.82696 -5.01456 0
M  V30 3028 O 289.87 3.05105 -4.81941 0
M  V30 3029 O 288.804 1.40958 -5.85162 0
M  V30 3030 H 292.63 -0.302032 -3.02194 0
M  V30 3031 H 290.215 -0.213825 -1.47862 0
M  V30 3032 H 292.097 2.06227 -3.67489 0
M  V30 3033 H 290.772 2.08133 -2.47916 0
M  V30 3034 H 289.679 0.136084 -3.73852 0
M  V30 3035 H 291.012 0.198718 -4.91799 0
M  V30 3036 N 292.664 1.56529 -0.183458 0
M  V30 3037 C 293.594 2.21549 0.737456 0
M  V30 3038 C 294.575 1.17489 1.23005 0
M  V30 3039 O 295.76 1.45959 1.281 0
M  V30 3040 C 292.89 2.86575 1.96194 0
M  V30 3041 C 291.844 3.96778 1.60473 0
M  V30 3042 C 291.17 4.48911 2.90487 0
M  V30 3043 C 292.47 5.15767 0.823497 0
M  V30 3044 H 294.164 2.98761 0.195453 0
M  V30 3045 H 291.71 1.43702 0.0925686 0
M  V30 3046 H 293.663 3.30739 2.61131 0
M  V30 3047 H 292.387 2.06749 2.52828 0
M  V30 3048 H 291.046 3.53286 0.978997 0
M  V30 3049 H 290.694 3.65862 3.45186 0
M  V30 3050 H 290.394 5.23265 2.67335 0
M  V30 3051 H 291.918 4.95771 3.56432 0
M  V30 3052 H 293.332 5.56549 1.37571 0
M  V30 3053 H 291.729 5.96114 0.690551 0
M  V30 3054 H 292.799 4.84574 -0.177782 0
M  V30 3055 N 294.142 -0.090211 1.57342 0
M  V30 3056 C 295.389 -0.792807 1.86335 0
M  V30 3057 C 295.717 -1.78494 0.772662 0
M  V30 3058 O 294.972 -1.94305 -0.233258 0
M  V30 3059 C 295.271 -1.55222 3.21933 0
M  V30 3060 C 294.937 -0.701765 4.45406 0
M  V30 3061 C 293.599 -0.467334 4.78925 0
M  V30 3062 C 295.951 -0.11086 5.21082 0
M  V30 3063 C 293.279 0.367785 5.85546 0
M  V30 3064 C 295.631 0.711609 6.28585 0
M  V30 3065 C 294.295 0.956086 6.60617 0
M  V30 3066 H 293.565 -0.290109 0.681849 0
M  V30 3067 H 296.212 -0.0541332 1.91423 0
M  V30 3068 H 294.517 -2.3626 3.12551 0
M  V30 3069 H 296.214 -2.10032 3.41595 0
M  V30 3070 H 292.804 -0.894598 4.1916 0
M  V30 3071 H 296.988 -0.279129 4.95514 0
M  V30 3072 H 292.244 0.566128 6.08773 0
M  V30 3073 H 296.418 1.17632 6.86393 0
M  V30 3074 H 294.045 1.60499 7.43064 0
M  V30 3075 N 295.62 -1.53406 -0.361157 0
M  V30 3076 C 296.53 -1.83122 -1.4664 0
M  V30 3077 C 297.546 -0.719943 -1.58407 0
M  V30 3078 O 298.722 -1.01046 -1.74218 0
M  V30 3079 C 295.787 -2.01891 -2.81853 0
M  V30 3080 C 294.848 -3.25784 -2.79577 0
M  V30 3081 C 294.081 -3.43648 -4.0834 0
M  V30 3082 O 294.304 -2.65714 -5.0473 0
M  V30 3083 O 293.238 -4.37018 -4.13883 0
M  V30 3084 H 297.064 -2.7703 -1.24451 0
M  V30 3085 H 294.649 -1.38841 -0.551678 0
M  V30 3086 H 296.531 -2.15782 -3.61962 0
M  V30 3087 H 295.206 -1.11173 -3.0401 0
M  V30 3088 H 294.113 -3.17312 -1.98151 0
M  V30 3089 H 295.446 -4.16439 -2.62373 0
M  V30 3090 N 297.098 0.621204 -1.44841 0
M  V30 3091 C 298.046 1.75385 -1.52784 0
M  V30 3092 C 299.04 1.64639 -0.398779 0
M  V30 3093 O 300.246 1.70598 -0.574137 0
M  V30 3094 H 296.621 0.579193 -0.479625 0
M  V30 3095 H 298.592 1.6581 -2.48092 0
M  V30 3096 C 297.341 3.13742 -1.4987 0
M  V30 3097 H 296.664 3.22663 -2.36069 0
M  V30 3098 H 298.104 3.92861 -1.59487 0
M  V30 3099 C 296.563 3.36175 -0.220973 0
M  V30 3100 O 297.093 3.95469 0.704782 0
M  V30 3101 N 295.299 2.90348 -0.120963 0
M  V30 3102 H 294.846 2.42278 -0.875162 0
M  V30 3103 H 294.804 3.05732 0.733168 0
M  V30 3104 N 298.576 1.31904 0.862503 0
M  V30 3105 C 299.804 1.24998 1.64873 0
M  V30 3106 C 300.219 -0.183425 1.87907 0
M  V30 3107 O 299.576 -1.11794 1.44251 0
M  V30 3108 C 299.627 1.99829 3.01248 0
M  V30 3109 O 299.348 3.37575 2.79239 0
M  V30 3110 C 300.849 1.99852 3.95694 0
M  V30 3111 H 298.069 0.431599 0.513773 0
M  V30 3112 H 300.613 1.73901 1.07604 0
M  V30 3113 H 298.768 1.54668 3.55185 0
M  V30 3114 H 299.182 3.75776 3.65914 0
M  V30 3115 H 300.656 2.56709 4.88676 0
M  V30 3116 H 301.133 0.982852 4.28062 0
M  V30 3117 H 301.739 2.44926 3.47694 0
M  V30 3118 N 300.054 -1.07777 1.14986 0
M  V30 3119 C 301.279 -1.84558 0.946213 0
M  V30 3120 C 301.704 -1.81323 -0.500362 0
M  V30 3121 O 301.062 -1.20301 -1.35637 0
M  V30 3122 C 301.11 -3.29736 1.45968 0
M  V30 3123 O 300.214 -4.07149 0.65601 0
M  V30 3124 H 299.555 -0.571641 0.33782 0
M  V30 3125 H 302.085 -1.35991 1.52865 0
M  V30 3126 H 302.095 -3.80574 1.47063 0
M  V30 3127 H 300.77 -3.31406 2.51283 0
M  V30 3128 H 299.347 -3.65994 0.714322 0
M  V30 3129 N 301.532 -0.945985 -1.26051 0
M  V30 3130 C 302.495 -0.463897 -2.24456 0
M  V30 3131 C 303.495 0.427655 -1.55009 0
M  V30 3132 O 304.685 0.226157 -1.72726 0
M  V30 3133 C 301.817 0.330812 -3.39291 0
M  V30 3134 H 303.01 -1.33357 -2.68619 0
M  V30 3135 H 300.563 -0.728416 -1.38289 0
M  V30 3136 H 301.298 1.21852 -3.00537 0
M  V30 3137 H 301.083 -0.308679 -3.90883 0
M  V30 3138 H 302.573 0.657865 -4.12386 0
M  V30 3139 N 303.011 1.40521 -0.713556 0
M  V30 3140 C 304.422 1.83853 -0.324807 0
M  V30 3141 C 304.773 1.59667 1.14021 0
M  V30 3142 O 303.898 1.07649 1.87725 0
M  V30 3143 C 304.493 3.33751 -0.582746 0
M  V30 3144 C 303.052 3.75584 -0.247727 0
M  V30 3145 C 302.199 2.63753 -0.856121 0
M  V30 3146 H 305.15 1.29817 -0.91286 0
M  V30 3147 H 305.171 3.80194 0.152682 0
M  V30 3148 H 304.683 3.51322 -1.64908 0
M  V30 3149 H 302.784 3.63608 0.813624 0
M  V30 3150 H 302.897 4.7373 -0.715307 0
M  V30 3151 H 301.261 2.53108 -0.28432 0
M  V30 3152 H 302.044 2.84137 -1.92668 0
M  V30 3153 N 304.489 0.459591 1.5075 0
M  V30 3154 C 305.719 -0.0972338 2.06371 0
M  V30 3155 C 306.127 -1.35074 1.32483 0
M  V30 3156 O 305.47 -1.79637 0.384226 0
M  V30 3157 C 305.532 -0.462759 3.56509 0
M  V30 3158 C 305.196 0.687084 4.51805 0
M  V30 3159 C 306.193 1.56578 4.95761 0
M  V30 3160 C 303.878 0.874144 4.94635 0
M  V30 3161 C 305.872 2.61604 5.81242 0
M  V30 3162 C 303.559 1.92765 5.79901 0
M  V30 3163 C 304.557 2.79697 6.23104 0
M  V30 3164 O 304.245 3.83235 7.06673 0
M  V30 3165 H 303.977 -0.00140687 0.675999 0
M  V30 3166 H 306.531 0.644011 1.95043 0
M  V30 3167 H 304.761 -1.25703 3.65699 0
M  V30 3168 H 306.45 -0.953323 3.94546 0
M  V30 3169 H 307.216 1.4329 4.6335 0
M  V30 3170 H 303.095 0.207006 4.60535 0
M  V30 3171 H 306.639 3.29489 6.14884 0
M  V30 3172 H 302.536 2.06064 6.11725 0
M  V30 3173 H 303.304 3.80084 7.24899 0
M  V30 3174 N 305.967 -1.56429 0.191757 0
M  V30 3175 C 306.899 -2.16154 -0.762245 0
M  V30 3176 C 307.912 -1.12247 -1.17917 0
M  V30 3177 O 309.101 -1.39353 -1.11548 0
M  V30 3178 C 306.201 -2.70606 -2.04024 0
M  V30 3179 C 305.374 -3.99381 -1.78364 0
M  V30 3180 C 304.433 -4.38692 -2.90578 0
M  V30 3181 O 303.459 -5.06179 -2.6033 0
M  V30 3182 N 304.661 -4.01922 -4.18854 0
M  V30 3183 H 307.426 -2.98643 -0.251526 0
M  V30 3184 H 304.987 -1.61897 0.00967373 0
M  V30 3185 H 306.979 -2.93891 -2.78227 0
M  V30 3186 H 305.549 -1.9259 -2.46227 0
M  V30 3187 H 304.769 -3.84262 -0.879581 0
M  V30 3188 H 306.057 -4.83445 -1.58614 0
M  V30 3189 H 305.455 -3.47631 -4.46283 0
M  V30 3190 H 304.012 -4.30165 -4.89695 0
M  V30 3191 N 307.445 0.0818655 -1.57387 0
M  V30 3192 C 308.375 1.09885 -2.06028 0
M  V30 3193 C 309.356 1.4098 -0.951774 0
M  V30 3194 O 310.541 1.50781 -1.22387 0
M  V30 3195 C 307.671 2.4151 -2.4958 0
M  V30 3196 C 306.625 2.24792 -3.64215 0
M  V30 3197 C 305.951 3.61712 -3.93787 0
M  V30 3198 C 307.251 1.67749 -4.94629 0
M  V30 3199 H 308.945 0.694128 -2.91243 0
M  V30 3200 H 306.491 0.332448 -1.4011 0
M  V30 3201 H 308.444 3.12939 -2.82219 0
M  V30 3202 H 307.168 2.83943 -1.61381 0
M  V30 3203 H 305.827 1.55807 -3.31843 0
M  V30 3204 H 305.475 4.01697 -3.02735 0
M  V30 3205 H 305.175 3.51368 -4.70971 0
M  V30 3206 H 306.699 4.34587 -4.28913 0
M  V30 3207 H 308.113 2.29032 -5.25564 0
M  V30 3208 H 306.51 1.68128 -5.76067 0
M  V30 3209 H 307.58 0.638059 -4.80684 0
M  V30 3210 N 308.923 1.53595 0.353017 0
M  V30 3211 C 309.855 1.77219 1.45348 0
M  V30 3212 C 310.868 0.65324 1.49119 0
M  V30 3213 O 312.057 0.929775 1.52373 0
M  V30 3214 C 309.157 1.84841 2.84055 0
M  V30 3215 C 308.33 3.14649 3.03833 0
M  V30 3216 C 307.389 3.13351 4.22727 0
M  V30 3217 O 306.415 3.87107 4.17297 0
M  V30 3218 N 307.617 2.35052 5.30783 0
M  V30 3219 H 310.382 2.72178 1.25457 0
M  V30 3220 H 307.943 1.52528 0.542833 0
M  V30 3221 H 309.935 1.81435 3.61751 0
M  V30 3222 H 308.505 0.971114 2.97133 0
M  V30 3223 H 307.725 3.31256 2.13689 0
M  V30 3224 H 309.013 4.00411 3.13925 0
M  V30 3225 H 308.411 1.74663 5.38061 0
M  V30 3226 H 306.968 2.37453 6.07009 0
M  V30 3227 N 310.401 -0.613514 1.45168 0
M  V30 3228 C 311.629 -1.39946 1.5239 0
M  V30 3229 C 312.044 -1.88167 0.154531 0
M  V30 3230 O 311.401 -1.61872 -0.842843 0
M  V30 3231 C 311.452 -2.60795 2.50337 0
M  V30 3232 O 311.173 -2.1458 3.81952 0
M  V30 3233 C 312.674 -3.53723 2.67198 0
M  V30 3234 H 309.894 -0.428593 0.516284 0
M  V30 3235 H 312.438 -0.748753 1.903 0
M  V30 3236 H 310.593 -3.21919 2.15515 0
M  V30 3237 H 311.007 -2.93055 4.34993 0
M  V30 3238 H 312.481 -4.35079 3.39721 0
M  V30 3239 H 312.958 -4.0368 1.73029 0
M  V30 3240 H 313.564 -2.98456 3.02992 0
M  V30 3241 N 311.879 -1.3236 -0.855495 0
M  V30 3242 C 313.126 -1.22872 -1.60962 0
M  V30 3243 C 313.454 0.209658 -1.93367 0
M  V30 3244 O 312.709 1.16243 -1.57436 0
M  V30 3245 C 313.008 -2.03275 -2.93963 0
M  V30 3246 C 312.674 -3.5264 -2.80991 0
M  V30 3247 C 311.336 -3.93364 -2.7716 0
M  V30 3248 C 313.688 -4.47626 -2.66983 0
M  V30 3249 C 311.016 -5.27319 -2.572 0
M  V30 3250 C 313.368 -5.81723 -2.48558 0
M  V30 3251 C 312.032 -6.2165 -2.4312 0
M  V30 3252 H 311.302 -0.44962 -0.589001 0
M  V30 3253 H 313.949 -1.63777 -0.992442 0
M  V30 3254 H 312.254 -1.55095 -3.59795 0
M  V30 3255 H 313.951 -1.93303 -3.51333 0
M  V30 3256 H 310.541 -3.20295 -2.84797 0
M  V30 3257 H 314.725 -4.17084 -2.68988 0
M  V30 3258 H 309.981 -5.57311 -2.51424 0
M  V30 3259 H 314.155 -6.5494 -2.36699 0
M  V30 3260 H 311.782 -7.25388 -2.27412 0
M  V30 3261 N 313.357 1.07166 -1.15556 0
M  V30 3262 C 314.603 1.80065 -0.932984 0
M  V30 3263 C 314.936 1.86586 0.53845 0
M  V30 3264 O 314.211 1.35098 1.39924 0
M  V30 3265 C 314.494 3.25022 -1.55025 0
M  V30 3266 C 314.347 3.26634 -3.09242 0
M  V30 3267 C 315.666 4.22341 -1.2376 0
M  V30 3268 H 312.785 0.653697 -0.340366 0
M  V30 3269 H 315.427 1.25389 -1.4275 0
M  V30 3270 H 313.577 3.71712 -1.12972 0
M  V30 3271 H 315.249 2.88173 -3.60214 0
M  V30 3272 H 313.492 2.65539 -3.43033 0
M  V30 3273 H 314.163 4.28854 -3.47546 0
M  V30 3274 H 316.639 3.8405 -1.60139 0
M  V30 3275 H 315.515 5.22053 -1.69564 0
M  V30 3276 H 315.776 4.41828 -0.154938 0
M  V30 3277 N 314.835 0.952656 1.25548 0
M  V30 3278 C 315.765 0.489287 2.28316 0
M  V30 3279 C 316.746 -0.463359 1.63667 0
M  V30 3280 O 317.931 -0.36274 1.90782 0
M  V30 3281 C 315.061 -0.235603 3.465 0
M  V30 3282 C 314.015 0.631593 4.23314 0
M  V30 3283 C 313.341 -0.223923 5.34231 0
M  V30 3284 C 314.641 1.90871 4.86174 0
M  V30 3285 H 316.335 1.34822 2.67326 0
M  V30 3286 H 313.881 0.649728 1.28509 0
M  V30 3287 H 315.834 -0.570882 4.17515 0
M  V30 3288 H 314.558 -1.12877 3.06474 0
M  V30 3289 H 313.217 0.949929 3.54079 0
M  V30 3290 H 312.865 -1.11678 4.90446 0
M  V30 3291 H 312.565 0.35299 5.86539 0
M  V30 3292 H 314.089 -0.554214 6.0808 0
M  V30 3293 H 315.503 1.63997 5.49343 0
M  V30 3294 H 313.9 2.43112 5.4865 0
M  V30 3295 H 314.97 2.61304 4.08471 0
M  V30 3296 N 316.313 -1.40141 0.720998 0
M  V30 3297 C 317.724 -1.83678 0.334553 0
M  V30 3298 C 318.075 -1.6027 -1.13173 0
M  V30 3299 O 317.2 -1.08643 -1.87152 0
M  V30 3300 C 317.795 -3.33437 0.600437 0
M  V30 3301 C 316.354 -3.75447 0.267642 0
M  V30 3302 C 315.501 -2.63296 0.870097 0
M  V30 3303 H 318.452 -1.29331 0.919732 0
M  V30 3304 H 318.473 -3.80269 -0.132517 0
M  V30 3305 H 317.985 -3.50442 1.66768 0
M  V30 3306 H 316.086 -3.64035 -0.794329 0
M  V30 3307 H 316.199 -4.73344 0.74042 0
M  V30 3308 H 314.563 -2.52954 0.297739 0
M  V30 3309 H 315.346 -2.83112 1.94172 0
M  V30 3310 N 317.792 -0.46758 -1.50504 0
M  V30 3311 C 318.755 0.317059 -2.26996 0
M  V30 3312 C 319.755 0.923513 -1.31635 0
M  V30 3313 O 320.945 0.793239 -1.55091 0
M  V30 3314 C 318.077 1.45134 -3.08462 0
M  V30 3315 H 319.27 -0.353723 -2.97807 0
M  V30 3316 H 316.823 -0.221545 -1.54722 0
M  V30 3317 H 317.558 2.15728 -2.4214 0
M  V30 3318 H 317.343 1.02232 -3.78538 0
M  V30 3319 H 318.833 2.00493 -3.66323 0
M  V30 3320 N 319.27 1.56325 -0.20005 0
M  V30 3321 C 320.498 2.02105 0.442874 0
M  V30 3322 C 320.913 1.08014 1.5485 0
M  V30 3323 O 320.27 0.0858797 1.82298 0
M  V30 3324 C 320.321 3.47549 0.994583 0
M  V30 3325 O 320.042 4.38049 -0.0669322 0
M  V30 3326 C 321.543 4.0887 1.7129 0
M  V30 3327 H 318.763 0.661807 0.110691 0
M  V30 3328 H 321.307 2.02134 -0.310207 0
M  V30 3329 H 319.462 3.48204 1.69803 0
M  V30 3330 H 319.876 5.23368 0.344462 0
M  V30 3331 H 321.35 5.12475 2.05118 0
M  V30 3332 H 321.827 3.52615 2.61838 0
M  V30 3333 H 322.433 4.12002 1.05518 0
M  V30 3334 N 320.748 -0.0735177 1.57428 0
M  V30 3335 C 322.159 -0.625551 1.75908 0
M  V30 3336 C 322.51 -1.78 0.825261 0
M  V30 3337 O 321.635 -2.16398 0.00893964 0
M  V30 3338 C 322.23 -1.14155 3.18989 0
M  V30 3339 C 320.789 -1.63946 3.38819 0
M  V30 3340 C 319.936 -0.558151 2.71625 0
M  V30 3341 H 322.887 0.152647 1.57964 0
M  V30 3342 H 322.908 -2.0104 3.23053 0
M  V30 3343 H 322.42 -0.301116 3.8693 0
M  V30 3344 H 320.521 -2.50321 2.7599 0
M  V30 3345 H 320.634 -1.71759 4.47253 0
M  V30 3346 H 318.998 -1.00278 2.34129 0
M  V30 3347 H 319.781 0.272071 3.4222 0
M  V30 3348 N 322.226 -1.5378 -0.344866 0
M  V30 3349 C 323.637 -1.62428 -0.920552 0
M  V30 3350 C 323.988 -0.504747 -1.89596 0
M  V30 3351 O 323.113 0.365711 -2.13287 0
M  V30 3352 C 323.708 -2.94419 -1.67639 0
M  V30 3353 C 322.267 -3.05333 -2.20111 0
M  V30 3354 C 321.414 -2.57866 -1.01982 0
M  V30 3355 H 324.365 -1.58222 -0.123042 0
M  V30 3356 H 324.386 -2.83384 -2.53917 0
M  V30 3357 H 323.898 -3.7588 -0.966224 0
M  V30 3358 H 321.999 -2.28502 -2.94308 0
M  V30 3359 H 322.112 -4.10778 -2.46573 0
M  V30 3360 H 320.476 -2.13241 -1.39285 0
M  V30 3361 H 321.259 -3.41765 -0.324308 0
M  V30 3362 N 323.704 0.605807 -1.45491 0
M  V30 3363 C 324.636 1.73031 -1.5031 0
M  V30 3364 C 325.649 1.57968 -0.393687 0
M  V30 3365 O 326.838 1.65817 -0.660839 0
M  V30 3366 C 323.938 3.11049 -1.34543 0
M  V30 3367 C 323.111 3.52334 -2.59189 0
M  V30 3368 C 322.17 4.69323 -2.37954 0
M  V30 3369 O 321.196 4.7635 -3.11575 0
M  V30 3370 N 322.398 5.62705 -1.4263 0
M  V30 3371 H 325.163 1.6936 -2.4726 0
M  V30 3372 H 322.724 0.79114 -1.41254 0
M  V30 3373 H 324.716 3.87071 -1.18144 0
M  V30 3374 H 323.286 3.09217 -0.458623 0
M  V30 3375 H 322.506 2.66256 -2.90691 0
M  V30 3376 H 323.794 3.76677 -3.42041 0
M  V30 3377 H 323.192 5.59744 -0.818758 0
M  V30 3378 H 321.749 6.38252 -1.32202 0
M  V30 3379 N 325.182 1.32811 0.848464 0
M  V30 3380 C 326.112 1.24882 1.97299 0
M  V30 3381 C 327.093 0.131357 1.69592 0
M  V30 3382 O 328.278 0.319553 1.91553 0
M  V30 3383 C 325.408 0.97746 3.33261 0
M  V30 3384 C 324.362 2.05682 3.75338 0
M  V30 3385 C 323.688 1.63777 5.09 0
M  V30 3386 C 324.988 3.47254 3.90144 0
M  V30 3387 H 326.682 2.18966 2.04191 0
M  V30 3388 H 324.228 1.05413 0.981029 0
M  V30 3389 H 326.181 0.908513 4.1149 0
M  V30 3390 H 324.905 0.000980011 3.266 0
M  V30 3391 H 323.564 2.11603 2.99366 0
M  V30 3392 H 323.212 0.648569 4.98801 0
M  V30 3393 H 322.912 2.36 5.38124 0
M  V30 3394 H 324.436 1.5833 5.89715 0
M  V30 3395 H 325.85 3.43888 4.58709 0
M  V30 3396 H 324.247 4.1788 4.30693 0
M  V30 3397 H 325.317 3.86462 2.92874 0
M  V30 3398 N 326.66 -1.06551 1.16123 0
M  V30 3399 C 327.906 -1.79567 0.94252 0
M  V30 3400 C 328.239 -1.86869 -0.528547 0
M  V30 3401 O 327.514 -1.35838 -1.39206 0
M  V30 3402 C 327.797 -3.24195 1.56747 0
M  V30 3403 C 327.65 -3.24989 3.10969 0
M  V30 3404 C 328.969 -4.21678 1.25998 0
M  V30 3405 H 326.088 -0.651883 0.343828 0
M  V30 3406 H 328.73 -1.2463 1.43413 0
M  V30 3407 H 326.88 -3.71107 1.14942 0
M  V30 3408 H 328.552 -2.86258 3.61737 0
M  V30 3409 H 326.795 -2.63716 3.44436 0
M  V30 3410 H 327.466 -4.27005 3.49815 0
M  V30 3411 H 329.942 -3.83196 1.62174 0
M  V30 3412 H 328.818 -5.21146 1.7233 0
M  V30 3413 H 329.079 -4.4174 0.178367 0
M  V30 3414 N 328.138 -0.959301 -1.25041 0
M  V30 3415 C 329.363 -0.633507 -1.97488 0
M  V30 3416 C 329.788 0.788555 -1.70773 0
M  V30 3417 O 329.146 1.53394 -0.966431 0
M  V30 3418 C 329.194 -0.904057 -3.49083 0
M  V30 3419 O 328.298 0.0147939 -4.12397 0
M  V30 3420 H 327.639 -0.240368 -0.618966 0
M  V30 3421 H 330.169 -1.28717 -1.59038 0
M  V30 3422 H 330.179 -0.832203 -3.99423 0
M  V30 3423 H 328.854 -1.94048 -3.67856 0
M  V30 3424 H 327.431 -0.109664 -3.72739 0
M  V30 3425 N 329.616 1.39756 -0.72842 0
M  V30 3426 C 331.027 1.83498 -0.344289 0
M  V30 3427 C 331.378 1.60868 1.12321 0
M  V30 3428 O 330.503 1.09634 1.86573 0
M  V30 3429 C 331.098 3.33114 -0.618112 0
M  V30 3430 C 329.657 3.753 -0.287549 0
M  V30 3431 C 328.804 2.62831 -0.884048 0
M  V30 3432 H 331.755 1.28842 -0.926578 0
M  V30 3433 H 331.776 3.80334 0.112349 0
M  V30 3434 H 331.288 3.49553 -1.68625 0
M  V30 3435 H 329.389 3.64451 0.775012 0
M  V30 3436 H 329.502 4.72945 -0.765512 0
M  V30 3437 H 327.866 2.52792 -0.311149 0
M  V30 3438 H 328.649 2.82078 -1.95671 0
M  V30 3439 N 331.094 0.475555 1.50254 0
M  V30 3440 C 332.51 0.12997 1.5907 0
M  V30 3441 C 332.71 -1.36385 1.48328 0
M  V30 3442 O 331.766 -2.13754 1.34407 0
M  V30 3443 C 333.079 0.684139 2.92814 0
M  V30 3444 C 334.627 0.647965 3.0622 0
M  V30 3445 C 335.102 1.17975 4.42545 0
M  V30 3446 N 336.593 1.13936 4.48969 0
M  V30 3447 C 337.328 1.52129 5.52851 0
M  V30 3448 N 336.824 1.97793 6.63965 0
M  V30 3449 N 338.617 1.43704 5.4342 0
M  V30 3450 H 330.768 1.44706 1.55479 0
M  V30 3451 H 333.031 0.598691 0.735033 0
M  V30 3452 H 332.737 1.73079 3.06164 0
M  V30 3453 H 332.611 0.130204 3.76975 0
M  V30 3454 H 334.998 -0.38979 2.92514 0
M  V30 3455 H 335.079 1.23876 2.23805 0
M  V30 3456 H 334.723 2.21616 4.57 0
M  V30 3457 H 334.653 0.565138 5.23559 0
M  V30 3458 H 337.144 0.804488 3.69238 0
M  V30 3459 H 337.457 2.25072 7.39299 0
M  V30 3460 H 335.802 2.01749 6.65073 0
M  V30 3461 H 338.993 1.07867 4.55502 0
M  V30 3462 H 339.166 1.73794 6.24259 0
M  V30 3463 N 332.573 -1.56217 0.208337 0
M  V30 3464 C 333.819 -1.98242 -0.427552 0
M  V30 3465 C 334.152 -1.09554 -1.60348 0
M  V30 3466 O 333.427 -0.15035 -1.93918 0
M  V30 3467 C 333.71 -3.4931 -0.874907 0
M  V30 3468 C 333.563 -4.48773 0.303751 0
M  V30 3469 C 334.882 -4.04424 -1.73577 0
M  V30 3470 H 332.001 -0.720744 -0.153936 0
M  V30 3471 H 334.643 -1.87586 0.30192 0
M  V30 3472 H 332.793 -3.58522 -1.49648 0
M  V30 3473 H 334.465 -4.51586 0.941682 0
M  V30 3474 H 332.708 -4.23194 0.953375 0
M  V30 3475 H 333.379 -5.51976 -0.0519883 0
M  V30 3476 H 335.855 -3.98075 -1.21143 0
M  V30 3477 H 334.731 -5.1047 -2.01771 0
M  V30 3478 H 334.992 -3.50494 -2.69456 0
M  V30 3479 N 334.051 0.0651679 -1.57465 0
M  V30 3480 C 334.981 1.07693 -2.07182 0
M  V30 3481 C 335.962 1.39962 -0.966673 0
M  V30 3482 O 337.147 1.49475 -1.2398 0
M  V30 3483 C 334.277 2.3885 -2.52127 0
M  V30 3484 C 333.231 2.20917 -3.66579 0
M  V30 3485 C 332.557 3.57515 -3.97601 0
M  V30 3486 C 333.857 1.62493 -4.9638 0
M  V30 3487 H 335.551 0.663199 -2.91962 0
M  V30 3488 H 333.097 0.317569 -1.40455 0
M  V30 3489 H 335.05 3.09928 -2.85522 0
M  V30 3490 H 333.774 2.82215 -1.64384 0
M  V30 3491 H 332.433 1.52279 -3.33477 0
M  V30 3492 H 332.081 3.98463 -3.06979 0
M  V30 3493 H 331.781 3.46353 -4.74672 0
M  V30 3494 H 333.305 4.30013 -4.33499 0
M  V30 3495 H 334.719 2.23445 -5.27963 0
M  V30 3496 H 333.116 1.62009 -5.77818 0
M  V30 3497 H 334.186 0.587041 -4.81333 0
M  V30 3498 N 335.529 1.53961 0.336706 0
M  V30 3499 C 336.439 1.85432 1.43708 0
M  V30 3500 C 337.455 0.745053 1.57242 0
M  V30 3501 O 338.631 1.03804 1.72588 0
M  V30 3502 C 335.696 2.06349 2.78605 0
M  V30 3503 C 334.757 3.30191 2.74358 0
M  V30 3504 C 333.99 3.50101 4.02822 0
M  V30 3505 O 334.213 2.7371 5.00439 0
M  V30 3506 O 333.147 4.43547 4.06878 0
M  V30 3507 H 336.973 2.78975 1.20028 0
M  V30 3508 H 334.558 1.39701 0.52952 0
M  V30 3509 H 336.44 2.21513 3.58483 0
M  V30 3510 H 335.115 1.15995 3.02203 0
M  V30 3511 H 334.022 3.20425 1.93078 0
M  V30 3512 H 335.355 4.2056 2.55715 0
M  V30 3513 N 337.007 -0.598083 1.45811 0
M  V30 3514 C 338.253 -1.35882 1.50545 0
M  V30 3515 C 338.586 -1.93616 0.150445 0
M  V30 3516 O 337.861 -1.75604 -0.83628 0
M  V30 3517 C 338.144 -2.49966 2.59208 0
M  V30 3518 C 337.997 -1.97367 4.04186 0
M  V30 3519 C 339.316 -3.52068 2.64076 0
M  V30 3520 H 336.435 -0.492717 0.548087 0
M  V30 3521 H 339.077 -0.673319 1.77669 0
M  V30 3522 H 337.227 -3.08443 2.3621 0
M  V30 3523 H 338.899 -1.43466 4.38423 0
M  V30 3524 H 337.142 -1.283 4.14393 0
M  V30 3525 H 337.813 -2.79649 4.75921 0
M  V30 3526 H 340.289 -3.03448 2.84708 0
M  V30 3527 H 339.165 -4.2937 3.41954 0
M  V30 3528 H 339.426 -4.08304 1.69531 0
M  V30 3529 N 338.485 -1.33259 -0.841409 0
M  V30 3530 C 339.762 -1.15174 -1.58096 0
M  V30 3531 C 340.142 0.282858 -2.09196 0
M  V30 3532 O 339.49 1.28151 -1.89181 0
M  V30 3533 C 339.7 -2.1907 -2.71679 0
M  V30 3534 C 341.048 -2.53093 -3.40924 0
M  V30 3535 O 342.072 -2.17717 -2.81918 0
M  V30 3536 O 340.931 -3.1379 -4.47435 0
M  V30 3537 H 338.025 -0.445303 -0.696875 0
M  V30 3538 H 340.571 -1.44833 -0.884385 0
M  V30 3539 H 339.343 -3.15443 -2.31541 0
M  V30 3540 H 338.966 -1.90481 -3.49002 0
M  V30 3541 N 339.963 1.05934 -1.16686 0
M  V30 3542 C 341.191 1.8249 -0.974929 0
M  V30 3543 C 341.606 1.82679 0.476861 0
M  V30 3544 O 340.963 1.2486 1.33103 0
M  V30 3545 C 341.014 3.28943 -1.49929 0
M  V30 3546 O 340.735 3.28886 -2.89423 0
M  V30 3547 C 342.236 4.22215 -1.35089 0
M  V30 3548 H 339.456 0.575295 -0.345365 0
M  V30 3549 H 342 1.33631 -1.548 0
M  V30 3550 H 340.155 3.751 -0.968423 0
M  V30 3551 H 340.569 4.20493 -3.13506 0
M  V30 3552 H 342.043 5.22987 -1.76603 0
M  V30 3553 H 342.52 4.38195 -0.296935 0
M  V30 3554 H 343.126 3.81907 -1.87155 0
M  V30 3555 N 341.441 0.965919 1.2453 0
M  V30 3556 C 342.373 0.452465 2.2469 0
M  V30 3557 C 343.386 -0.437821 1.56802 0
M  V30 3558 O 344.575 -0.244283 1.76821 0
M  V30 3559 C 341.675 -0.366258 3.36915 0
M  V30 3560 C 340.848 0.513701 4.34373 0
M  V30 3561 C 339.907 -0.248716 5.25612 0
M  V30 3562 O 338.933 0.356745 5.68081 0
M  V30 3563 N 340.135 -1.53877 5.59734 0
M  V30 3564 H 342.9 1.31361 2.69378 0
M  V30 3565 H 340.461 0.837541 1.38553 0
M  V30 3566 H 342.453 -0.884297 3.94921 0
M  V30 3567 H 341.023 -1.12832 2.91526 0
M  V30 3568 H 340.243 1.21273 3.75082 0
M  V30 3569 H 341.531 1.11391 4.96457 0
M  V30 3570 H 340.929 -2.05243 5.27154 0
M  V30 3571 H 339.486 -2.00254 6.20275 0
M  V30 3572 N 342.919 -1.39368 0.735821 0
M  V30 3573 C 344.167 -2.00101 0.283562 0
M  V30 3574 C 344.488 -1.5868 -1.13338 0
M  V30 3575 O 343.758 -0.835423 -1.77193 0
M  V30 3576 H 342.338 -0.740024 0.101851 0
M  V30 3577 H 345 -1.70404 0.945962 0
M  V30 3578 H 344.096 -3.10323 0.332604 0
M  V30 3579 N 344.397 -0.483516 -1.5 0
M  V30 3580 C 345.625 0.0644831 -2.06799 0
M  V30 3581 C 346.04 1.32399 -1.34596 0
M  V30 3582 O 345.397 1.77626 -0.418946 0
M  V30 3583 C 345.448 0.339927 -3.59898 0
M  V30 3584 O 345.169 -0.869635 -4.29382 0
M  V30 3585 C 346.67 0.933515 -4.33359 0
M  V30 3586 H 343.89 -0.0126333 -0.670881 0
M  V30 3587 H 346.434 -0.675864 -1.93009 0
M  V30 3588 H 344.589 1.03022 -3.7345 0
M  V30 3589 H 345.003 -0.62179 -5.20801 0
M  V30 3590 H 346.477 1.07593 -5.41413 0
M  V30 3591 H 346.954 1.92685 -3.94676 0
M  V30 3592 H 347.56 0.281221 -4.24369 0
M  V30 3593 N 345.875 1.56104 -0.216619 0
M  V30 3594 C 347.121 1.98466 0.417033 0
M  V30 3595 C 347.454 1.10403 1.59765 0
M  V30 3596 O 346.729 0.160632 1.93836 0
M  V30 3597 C 347.012 3.49769 0.85637 0
M  V30 3598 C 346.865 4.48606 -0.327546 0
M  V30 3599 C 348.184 4.05339 1.7143 0
M  V30 3600 H 345.303 0.721551 0.150112 0
M  V30 3601 H 347.945 1.87423 -0.311864 0
M  V30 3602 H 346.095 3.5931 1.47745 0
M  V30 3603 H 347.767 4.5108 -0.965618 0
M  V30 3604 H 346.01 4.22682 -0.975805 0
M  V30 3605 H 346.681 5.51995 0.0227149 0
M  V30 3606 H 349.157 3.98712 1.19031 0
M  V30 3607 H 348.033 5.11533 1.99061 0
M  V30 3608 H 348.294 3.51918 2.67593 0
M  V30 3609 N 347.353 -0.0568162 1.57498 0
M  V30 3610 C 348.599 -0.75422 1.88253 0
M  V30 3611 C 348.932 -1.76461 0.810865 0
M  V30 3612 O 348.207 -1.93691 -0.177259 0
M  V30 3613 C 348.49 -1.44878 3.2967 0
M  V30 3614 C 348.343 -0.453789 4.47505 0
M  V30 3615 C 349.662 -2.38994 3.69554 0
M  V30 3616 H 346.781 -0.272724 0.684683 0
M  V30 3617 H 349.423 -0.0172113 1.89992 0
M  V30 3618 H 347.573 -2.077 3.28318 0
M  V30 3619 H 349.245 0.170371 4.60985 0
M  V30 3620 H 347.488 0.229552 4.33192 0
M  V30 3621 H 348.159 -0.977699 5.43273 0
M  V30 3622 H 350.635 -1.86239 3.72095 0
M  V30 3623 H 349.511 -2.84587 4.69363 0
M  V30 3624 H 349.772 -3.24461 3.00296 0
M  V30 3625 N 348.832 -1.54138 -0.328536 0
M  V30 3626 C 350.072 -1.73827 -1.07534 0
M  V30 3627 C 350.436 -0.498777 -1.85408 0
M  V30 3628 O 351.637 -0.572937 -2.62623 0
M  V30 3629 C 349.908 -2.97573 -1.97952 0
M  V30 3630 S 351.467 -3.38143 -2.79652 0
M  V30 3631 H 348.285 -0.611287 -0.36311 0
M  V30 3632 H 350.887 -1.92306 -0.351931 0
M  V30 3633 H 349.591 -3.85939 -1.39569 0
M  V30 3634 H 349.122 -2.81603 -2.74706 0
M  V30 3635 H 351.137 -2.93052 -4.00418 0
M  V30 3636 N 350.31 0.590341 -1.46126 0
M  V30 3637 C 351.535 1.37991 -1.54833 0
M  V30 3638 C 351.96 1.87163 -0.187506 0
M  V30 3639 O 351.318 1.61133 0.831008 0
M  V30 3640 C 351.366 2.54867 -2.55098 0
M  V30 3641 O 350.47 3.56061 -2.08073 0
M  V30 3642 H 349.811 0.411265 -0.521303 0
M  V30 3643 H 352.341 0.716819 -1.91632 0
M  V30 3644 H 352.351 3.01886 -2.74461 0
M  V30 3645 H 351.026 2.18429 -3.53923 0
M  V30 3646 H 349.603 3.15574 -1.98664 0
M  V30 3647 N 351.788 1.33704 0.83433 0
M  V30 3648 C 352.718 1.26967 1.95963 0
M  V30 3649 C 353.699 0.149337 1.69443 0
M  V30 3650 O 354.884 0.339852 1.91203 0
M  V30 3651 C 352.014 1.01275 3.32206 0
M  V30 3652 C 350.968 2.09652 3.73136 0
M  V30 3653 C 350.294 1.69166 5.07235 0
M  V30 3654 C 351.594 3.51372 3.86439 0
M  V30 3655 H 353.288 2.2112 2.01857 0
M  V30 3656 H 350.834 1.06447 0.969793 0
M  V30 3657 H 352.787 0.952106 4.10503 0
M  V30 3658 H 351.511 0.0356203 3.26581 0
M  V30 3659 H 350.17 2.14766 2.97104 0
M  V30 3660 H 349.818 0.701437 4.98085 0
M  V30 3661 H 349.518 2.41694 5.35591 0
M  V30 3662 H 351.042 1.64576 5.88003 0
M  V30 3663 H 352.456 3.48734 4.55036 0
M  V30 3664 H 350.853 4.22425 4.26236 0
M  V30 3665 H 351.923 3.89546 2.88759 0
M  V30 3666 N 353.266 -1.05314 1.17247 0
M  V30 3667 C 354.543 -1.75184 0.87005 0
M  V30 3668 C 354.923 -2.01481 -0.629965 0
M  V30 3669 O 354.271 -1.64988 -1.58086 0
M  V30 3670 C 354.481 -3.04594 1.70363 0
M  V30 3671 C 355.829 -3.78567 1.92281 0
M  V30 3672 O 356.853 -3.14461 1.67311 0
M  V30 3673 O 355.712 -4.93755 2.3424 0
M  V30 3674 H 352.806 -0.761729 0.322021 0
M  V30 3675 H 355.352 -1.11493 1.27935 0
M  V30 3676 H 354.124 -2.81201 2.72106 0
M  V30 3677 H 353.747 -3.76022 1.29202 0
M  V30 3678 N 354.744 -0.972509 -1.24016 0
M  V30 3679 C 355.992 -0.635776 -1.91839 0
M  V30 3680 C 356.313 0.832312 -1.76345 0
M  V30 3681 O 355.583 1.5946 -1.13795 0
M  V30 3682 H 354.163 -0.232157 -0.710009 0
M  V30 3683 H 356.825 -1.23462 -1.50809 0
M  V30 3684 H 355.921 -0.880545 -2.99421 0
M  V30 3685 N 356.222 1.38976 -0.743202 0
M  V30 3686 C 357.152 2.33171 -0.123873 0
M  V30 3687 C 358.133 1.54336 0.71516 0
M  V30 3688 O 359.318 1.82696 0.658467 0
M  V30 3689 C 356.448 3.38474 0.777978 0
M  V30 3690 C 355.402 4.27979 0.0424758 0
M  V30 3691 C 354.728 5.2405 1.06189 0
M  V30 3692 C 356.028 5.10155 -1.1198 0
M  V30 3693 H 357.722 2.85213 -0.910709 0
M  V30 3694 H 355.268 1.37133 -0.439388 0
M  V30 3695 H 357.221 4.03328 1.22084 0
M  V30 3696 H 355.945 2.84891 1.59702 0
M  V30 3697 H 354.604 3.64616 -0.380853 0
M  V30 3698 H 354.252 4.66758 1.87472 0
M  V30 3699 H 353.952 5.84785 0.574485 0
M  V30 3700 H 355.476 5.9178 1.50428 0
M  V30 3701 H 356.89 5.68307 -0.75499 0
M  V30 3702 H 355.287 5.80073 -1.53738 0
M  V30 3703 H 356.357 4.44504 -1.93764 0
M  V30 3704 N 357.7 0.491464 1.49741 0
M  V30 3705 C 358.947 -0.0564256 2.02421 0
M  V30 3706 C 359.275 -1.37872 1.37192 0
M  V30 3707 O 358.53 -1.89375 0.493508 0
M  V30 3708 C 358.829 -0.267329 3.56399 0
M  V30 3709 C 358.495 0.975775 4.40215 0
M  V30 3710 C 357.157 1.31655 4.62839 0
M  V30 3711 C 359.509 1.80251 4.89039 0
M  V30 3712 C 356.837 2.48375 5.31532 0
M  V30 3713 C 359.189 2.96116 5.59015 0
M  V30 3714 C 357.853 3.30585 5.79888 0
M  V30 3715 H 357.123 -0.0206476 0.740712 0
M  V30 3716 H 359.77 0.649686 1.80143 0
M  V30 3717 H 358.075 -1.05588 3.77304 0
M  V30 3718 H 359.772 -0.705549 3.94744 0
M  V30 3719 H 356.362 0.700315 4.2284 0
M  V30 3720 H 360.546 1.55239 4.71396 0
M  V30 3721 H 355.802 2.7533 5.45897 0
M  V30 3722 H 359.976 3.60509 5.95824 0
M  V30 3723 H 357.603 4.21132 6.32892 0
M  V30 3724 N 359.178 -1.55987 0.224894 0
M  V30 3725 C 360.589 -1.84553 -0.282345 0
M  V30 3726 C 360.94 -1.14634 -1.59227 0
M  V30 3727 O 360.065 -0.417155 -2.12341 0
M  V30 3728 C 360.66 -3.348 -0.519062 0
M  V30 3729 C 359.219 -3.63671 -0.970604 0
M  V30 3730 C 358.366 -2.77277 -0.0355261 0
M  V30 3731 H 361.317 -1.52245 0.448006 0
M  V30 3732 H 361.338 -3.55187 -1.36463 0
M  V30 3733 H 360.85 -3.8566 0.43449 0
M  V30 3734 H 358.951 -3.1827 -1.9374 0
M  V30 3735 H 359.064 -4.71631 -0.842698 0
M  V30 3736 H 357.428 -2.48846 -0.542927 0
M  V30 3737 H 358.211 -3.30937 0.913003 0
M  V30 3738 N 360.656 0.0484629 -1.57525 0
M  V30 3739 C 361.902 0.744226 -1.88651 0
M  V30 3740 C 362.235 1.76029 -0.820212 0
M  V30 3741 O 361.51 1.93782 0.166985 0
M  V30 3742 C 361.793 1.43128 -3.30434 0
M  V30 3743 C 361.646 0.43005 -4.47739 0
M  V30 3744 C 362.965 2.37031 -3.70816 0
M  V30 3745 H 360.084 0.269089 -0.68612 0
M  V30 3746 H 362.726 0.00713532 -1.89999 0
M  V30 3747 H 360.876 2.05956 -3.29415 0
M  V30 3748 H 362.548 -0.194816 -4.60888 0
M  V30 3749 H 360.791 -0.252522 -4.33064 0
M  V30 3750 H 361.462 0.948874 -5.43783 0
M  V30 3751 H 363.938 1.84263 -3.73077 0
M  V30 3752 H 362.814 2.82094 -4.70865 0
M  V30 3753 H 363.075 3.22864 -3.02012 0
M  V30 3754 N 362.134 1.5431 0.320358 0
M  V30 3755 C 363.359 1.76954 1.08175 0
M  V30 3756 C 363.784 0.518193 1.80821 0
M  V30 3757 O 363.142 -0.530411 1.73368 0
M  V30 3758 C 363.19 2.96451 2.05303 0
M  V30 3759 O 362.294 2.68221 3.13259 0
M  V30 3760 H 361.635 0.586275 0.311733 0
M  V30 3761 H 364.165 2.01342 0.363676 0
M  V30 3762 H 364.175 3.23887 2.48116 0
M  V30 3763 H 362.85 3.87196 1.51829 0
M  V30 3764 H 361.427 2.51744 2.75099 0
M  V30 3765 N 363.613 -0.582584 1.46437 0
M  V30 3766 C 364.523 -1.71949 1.59595 0
M  V30 3767 C 365.539 -1.67264 0.479443 0
M  V30 3768 O 366.715 -1.87171 0.743579 0
M  V30 3769 C 363.78 -3.08452 1.58298 0
M  V30 3770 C 362.841 -3.244 2.81182 0
M  V30 3771 C 362.074 -4.54391 2.79937 0
M  V30 3772 O 362.297 -5.38287 1.8869 0
M  V30 3773 O 361.231 -4.73588 3.71481 0
M  V30 3774 H 365.057 -1.63795 2.55744 0
M  V30 3775 H 362.642 -0.749643 1.29231 0
M  V30 3776 H 364.524 -3.89732 1.60271 0
M  V30 3777 H 363.199 -3.17043 0.653094 0
M  V30 3778 H 362.106 -2.42613 2.84763 0
M  V30 3779 H 363.439 -3.20699 3.7338 0
M  V30 3780 N 365.091 -1.34144 -0.827227 0
M  V30 3781 C 366.054 -1.25264 -1.91942 0
M  V30 3782 C 367.054 -0.168866 -1.59911 0
M  V30 3783 O 368.244 -0.421198 -1.69031 0
M  V30 3784 C 365.376 -0.932952 -3.27885 0
M  V30 3785 H 366.569 -2.22357 -2.0124 0
M  V30 3786 H 364.122 -1.1837 -1.0207 0
M  V30 3787 H 364.857 0.0349917 -3.24281 0
M  V30 3788 H 364.642 -1.71682 -3.52516 0
M  V30 3789 H 366.132 -0.895874 -4.07877 0
M  V30 3790 N 366.569 1.04691 -1.17803 0
M  V30 3791 C 367.501 2.12571 -0.857097 0
M  V30 3792 C 368.514 1.62174 0.142647 0
M  V30 3793 O 369.703 1.78301 -0.0843387 0
M  V30 3794 C 366.803 3.37915 -0.258216 0
M  V30 3795 C 365.976 4.1757 -1.30207 0
M  V30 3796 C 365.035 5.2125 -0.720029 0
M  V30 3797 O 364.061 5.51888 -1.39314 0
M  V30 3798 N 365.263 5.78466 0.485507 0
M  V30 3799 H 368.028 2.40698 -1.78562 0
M  V30 3800 H 365.589 1.20831 -1.07757 0
M  V30 3801 H 367.581 4.04442 0.144584 0
M  V30 3802 H 366.151 3.07281 0.574199 0
M  V30 3803 H 365.371 3.46458 -1.88043 0
M  V30 3804 H 366.659 4.67586 -2.00601 0
M  V30 3805 H 366.057 5.55866 1.05022 0
M  V30 3806 H 364.614 6.4649 0.830307 0
M  V30 3807 N 368.047 0.979072 1.23499 0
M  V30 3808 C 369.293 0.648178 1.92163 0
M  V30 3809 C 369.626 -0.816049 1.76222 0
M  V30 3810 O 368.901 -1.58849 1.12237 0
M  V30 3811 C 369.184 1.03773 3.44824 0
M  V30 3812 C 369.037 2.55948 3.69879 0
M  V30 3813 C 370.356 0.580653 4.36253 0
M  V30 3814 H 367.475 0.236952 0.69787 0
M  V30 3815 H 370.117 1.22012 1.45647 0
M  V30 3816 H 368.267 0.551058 3.84572 0
M  V30 3817 H 369.939 3.12179 3.3962 0
M  V30 3818 H 368.182 2.98641 3.14636 0
M  V30 3819 H 368.853 2.78255 4.76737 0
M  V30 3820 H 371.329 0.998465 4.03943 0
M  V30 3821 H 370.205 0.881663 5.41773 0
M  V30 3822 H 370.466 -0.519052 4.39042 0
M  V30 3823 N 369.525 -1.3858 0.750561 0
M  V30 3824 C 370.475 -2.27795 0.0965949 0
M  V30 3825 C 371.459 -1.45048 -0.696411 0
M  V30 3826 O 372.651 -1.67812 -0.562863 0
M  V30 3827 C 369.78 -3.33894 -0.798085 0
M  V30 3828 C 368.866 -4.241 0.0016067 0
M  V30 3829 N 369.257 -4.95067 1.03647 0
M  V30 3830 C 367.555 -4.45429 -0.225674 0
M  V30 3831 C 368.256 -5.61489 1.52004 0
M  V30 3832 N 367.232 -5.37135 0.835874 0
M  V30 3833 H 371.034 -2.80125 0.889228 0
M  V30 3834 H 368.548 -1.51446 0.586323 0
M  V30 3835 H 370.545 -3.96693 -1.28219 0
M  V30 3836 H 369.205 -2.83123 -1.5897 0
M  V30 3837 H 370.216 -4.98104 1.41819 0
M  V30 3838 H 366.893 -4.05571 -0.990872 0
M  V30 3839 H 368.283 -6.28264 2.38188 0
M  V30 3840 N 371.003 -0.499398 -1.49478 0
M  V30 3841 C 371.933 0.269244 -2.31943 0
M  V30 3842 C 372.914 0.964054 -1.40143 0
M  V30 3843 O 374.099 0.955767 -1.69052 0
M  V30 3844 C 371.229 1.33504 -3.20615 0
M  V30 3845 C 370.183 0.760202 -4.21195 0
M  V30 3846 C 369.509 1.9264 -4.98792 0
M  V30 3847 C 370.809 -0.247661 -5.21712 0
M  V30 3848 H 372.503 -0.419082 -2.96452 0
M  V30 3849 H 370.049 -0.202988 -1.42562 0
M  V30 3850 H 372.002 1.88048 -3.77115 0
M  V30 3851 H 370.726 2.05253 -2.54045 0
M  V30 3852 H 369.385 0.23653 -3.65836 0
M  V30 3853 H 369.033 2.63154 -4.28671 0
M  V30 3854 H 368.733 1.54785 -5.66847 0
M  V30 3855 H 370.257 2.4762 -5.58137 0
M  V30 3856 H 371.671 0.209579 -5.72917 0
M  V30 3857 H 370.068 -0.541962 -5.97648 0
M  V30 3858 H 371.138 -1.16409 -4.7072 0
M  V30 3859 N 372.481 1.55866 -0.233164 0
M  V30 3860 C 373.444 2.1953 0.658715 0
M  V30 3861 C 374.444 1.16053 1.11303 0
M  V30 3862 O 375.634 1.41218 1.01996 0
M  V30 3863 C 372.766 2.82791 1.90373 0
M  V30 3864 H 373.959 2.99721 0.10347 0
M  V30 3865 H 371.512 1.56291 0.0164245 0
M  V30 3866 H 372.247 2.06501 2.50056 0
M  V30 3867 H 372.032 3.58578 1.58632 0
M  V30 3868 H 373.522 3.31556 2.53891 0
M  V30 3869 N 373.959 -0.0401083 1.57549 0
M  V30 3870 C 374.889 -1.04384 2.08869 0
M  V30 3871 C 375.87 -1.38407 0.988817 0
M  V30 3872 O 377.055 -1.47483 1.26342 0
M  V30 3873 C 374.185 -2.34808 2.55895 0
M  V30 3874 C 373.139 -2.15057 3.70047 0
M  V30 3875 C 372.465 -3.51145 4.03239 0
M  V30 3876 C 373.765 -1.54576 4.98902 0
M  V30 3877 H 375.459 -0.616666 2.92981 0
M  V30 3878 H 373.005 -0.295184 1.40942 0
M  V30 3879 H 374.958 -3.05346 2.90417 0
M  V30 3880 H 373.682 -2.79565 1.68853 0
M  V30 3881 H 372.341 -1.46954 3.35857 0
M  V30 3882 H 371.989 -3.93529 3.13279 0
M  V30 3883 H 371.689 -3.38758 4.80122 0
M  V30 3884 H 373.213 -4.23062 4.40285 0
M  V30 3885 H 374.627 -2.15017 5.31451 0
M  V30 3886 H 373.024 -1.52796 5.80322 0
M  V30 3887 H 374.094 -0.51039 4.82206 0
M  V30 3888 N 375.437 -1.54477 -0.31217 0
M  V30 3889 C 376.685 -1.72884 -1.04668 0
M  V30 3890 C 377.006 -0.511477 -1.88173 0
M  V30 3891 O 376.276 0.474407 -1.90069 0
M  V30 3892 H 374.856 -0.637461 -0.389425 0
M  V30 3893 H 377.518 -1.91807 -0.345852 0
M  V30 3894 H 376.614 -2.61334 -1.70619 0
M  V30 3895 N 376.915 0.57481 -1.46744 0
M  V30 3896 C 378.192 1.3352 -1.4294 0
M  V30 3897 C 378.572 2.10775 -0.117009 0
M  V30 3898 O 377.92 2.09966 0.901474 0
M  V30 3899 C 378.13 2.25456 -2.66403 0
M  V30 3900 C 379.478 2.87035 -3.12883 0
M  V30 3901 O 380.502 2.35766 -2.67007 0
M  V30 3902 O 379.361 3.80179 -3.92589 0
M  V30 3903 H 376.455 0.600318 -0.568812 0
M  V30 3904 H 379.001 0.595171 -1.58921 0
M  V30 3905 H 377.773 1.67851 -3.53471 0
M  V30 3906 H 377.396 3.06785 -2.52921 0
M  V30 3907 N 378.394 1.34581 0.820102 0
M  V30 3908 C 379.326 1.22236 1.93884 0
M  V30 3909 C 380.339 0.148776 1.62119 0
M  V30 3910 O 381.528 0.400877 1.7394 0
M  V30 3911 C 378.628 0.856542 3.27897 0
M  V30 3912 C 377.801 2.02569 3.87666 0
M  V30 3913 C 376.86 1.63782 5.00062 0
M  V30 3914 O 375.886 2.35477 5.18208 0
M  V30 3915 N 377.088 0.553611 5.77854 0
M  V30 3916 H 379.853 2.18615 2.05006 0
M  V30 3917 H 377.414 1.27573 0.99683 0
M  V30 3918 H 379.406 0.578806 4.0054 0
M  V30 3919 H 377.976 -0.0171518 3.12595 0
M  V30 3920 H 377.196 2.468 3.07382 0
M  V30 3921 H 378.484 2.80752 4.24329 0
M  V30 3922 H 377.882 -0.0423528 5.65684 0
M  V30 3923 H 376.439 0.335614 6.50935 0
M  V30 3924 N 379.872 -1.04064 1.18357 0
M  V30 3925 C 381.288 -1.2947 0.933258 0
M  V30 3926 C 381.488 -1.97466 -0.401169 0
M  V30 3927 O 380.544 -2.25528 -1.13549 0
M  V30 3928 C 381.857 -2.15337 2.09882 0
M  V30 3929 C 383.405 -2.28683 2.13712 0
M  V30 3930 C 383.88 -3.17917 3.29686 0
M  V30 3931 N 385.371 -3.25504 3.29547 0
M  V30 3932 C 386.106 -3.94706 4.15926 0
M  V30 3933 N 385.602 -4.66239 5.12439 0
M  V30 3934 N 387.395 -3.90986 4.0384 0
M  V30 3935 H 379.546 -0.583359 2.04232 0
M  V30 3936 H 381.809 -0.319921 0.892387 0
M  V30 3937 H 381.515 -1.72682 3.06389 0
M  V30 3938 H 381.389 -3.16015 2.05947 0
M  V30 3939 H 383.776 -2.70575 1.17784 0
M  V30 3940 H 383.857 -1.27596 2.21705 0
M  V30 3941 H 383.501 -2.76736 4.25887 0
M  V30 3942 H 383.431 -4.19036 3.1893 0
M  V30 3943 H 385.922 -2.74547 2.59677 0
M  V30 3944 H 386.235 -5.16638 5.74722 0
M  V30 3945 H 384.58 -4.65143 5.16398 0
M  V30 3946 H 387.771 -3.34234 3.27727 0
M  V30 3947 H 387.944 -4.44646 4.71375 0
M  V30 3948 N 381.35 -0.985608 -1.22978 0
M  V30 3949 C 382.28 -0.549649 -2.26939 0
M  V30 3950 C 383.261 0.419803 -1.64838 0
M  V30 3951 O 384.446 0.31203 -1.91677 0
M  V30 3952 C 381.576 0.143652 -3.47003 0
M  V30 3953 C 380.53 -0.743606 -4.21491 0
M  V30 3954 C 379.856 0.0822027 -5.34637 0
M  V30 3955 C 381.156 -2.03694 -4.80943 0
M  V30 3956 H 382.85 -1.41862 -2.63658 0
M  V30 3957 H 380.396 -0.683571 -1.26741 0
M  V30 3958 H 382.349 0.459985 -4.18882 0
M  V30 3959 H 381.073 1.04711 -3.09359 0
M  V30 3960 H 379.732 -1.04347 -3.51436 0
M  V30 3961 H 379.38 0.986359 -4.93234 0
M  V30 3962 H 379.08 -0.508377 -5.85397 0
M  V30 3963 H 380.604 0.392797 -6.09335 0
M  V30 3964 H 382.018 -1.78504 -5.44802 0
M  V30 3965 H 380.415 -2.57573 -5.42011 0
M  V30 3966 H 381.485 -2.72042 -4.01399 0
M  V30 3967 N 382.828 1.3818 -0.7579 0
M  V30 3968 C 383.776 2.32277 -0.122482 0
M  V30 3969 C 384.77 1.54238 0.700505 0
M  V30 3970 O 385.976 1.69737 0.599119 0
M  V30 3971 H 382.351 0.751712 -0.0208143 0
M  V30 3972 H 384.322 2.83469 -0.932099 0
M  V30 3973 C 383.071 3.39447 0.753076 0
M  V30 3974 H 382.394 3.99591 0.129184 0
M  V30 3975 H 383.834 4.07684 1.16489 0
M  V30 3976 C 382.293 2.78375 1.8976 0
M  V30 3977 O 382.823 2.68025 2.99208 0
M  V30 3978 N 381.029 2.36121 1.69397 0
M  V30 3979 H 380.576 2.4474 0.803762 0
M  V30 3980 H 380.534 1.95602 2.46145 0
M  V30 3981 N 384.306 0.507319 1.49211 0
M  V30 3982 C 385.717 0.0611118 1.866 0
M  V30 3983 C 386.068 -1.35488 1.41907 0
M  V30 3984 O 385.193 -2.0108 0.799726 0
M  V30 3985 C 385.788 0.104125 3.3864 0
M  V30 3986 C 384.347 -0.28677 3.75306 0
M  V30 3987 C 383.494 0.473893 2.73221 0
M  V30 3988 H 386.445 0.719775 1.41439 0
M  V30 3989 H 386.466 -0.689672 3.74198 0
M  V30 3990 H 385.978 1.13482 3.71138 0
M  V30 3991 H 384.079 -1.32046 3.48417 0
M  V30 3992 H 384.192 0.0370745 4.79086 0
M  V30 3993 H 382.556 -0.0770644 2.54583 0
M  V30 3994 H 383.339 1.50478 3.08563 0
M  V30 3995 N 385.784 -1.5574 0.241426 0
M  V30 3996 C 387.012 -2.03208 -0.389134 0
M  V30 3997 C 387.427 -1.12082 -1.51931 0
M  V30 3998 O 386.784 -0.134183 -1.82006 0
M  V30 3999 C 386.835 -3.50064 -0.902087 0
M  V30 4000 O 386.556 -4.37717 0.18305 0
M  V30 4001 C 388.057 -4.13268 -1.60389 0
M  V30 4002 H 385.277 -0.664509 -0.0931053 0
M  V30 4003 H 387.821 -2.0124 0.36369 0
M  V30 4004 H 385.976 -3.52583 -1.60511 0
M  V30 4005 H 386.39 -5.24097 -0.205579 0
M  V30 4006 H 387.864 -5.17733 -1.91458 0
M  V30 4007 H 388.341 -3.59434 -2.52397 0
M  V30 4008 H 388.947 -4.14655 -0.945576 0
M  V30 4009 N 387.262 0.0317525 -1.57568 0
M  V30 4010 C 388.508 0.724175 -1.8943 0
M  V30 4011 C 388.841 1.75149 -0.838836 0
M  V30 4012 O 388.116 1.93948 0.146422 0
M  V30 4013 C 388.399 1.39615 -3.31933 0
M  V30 4014 C 388.252 0.382537 -4.4817 0
M  V30 4015 C 389.571 2.33084 -3.73309 0
M  V30 4016 H 386.69 0.261797 -0.688935 0
M  V30 4017 H 389.332 -0.013017 -1.89996 0
M  V30 4018 H 387.482 2.02451 -3.31581 0
M  V30 4019 H 389.154 -0.243689 -4.60656 0
M  V30 4020 H 387.397 -0.29844 -4.32772 0
M  V30 4021 H 388.068 0.891145 -5.44759 0
M  V30 4022 H 390.544 1.80295 -3.7501 0
M  V30 4023 H 389.42 2.77084 -4.73831 0
M  V30 4024 H 389.681 3.19643 -3.05419 0
M  V30 4025 N 388.74 1.54641 0.303973 0
M  V30 4026 C 389.968 1.77768 1.05858 0
M  V30 4027 C 390.383 0.535722 1.8104 0
M  V30 4028 O 389.74 -0.494337 1.75677 0
M  V30 4029 C 389.791 2.9834 2.04146 0
M  V30 4030 O 389.512 4.17736 1.32015 0
M  V30 4031 C 391.013 3.33832 2.91669 0
M  V30 4032 H 388.233 0.592961 0.314067 0
M  V30 4033 H 390.777 2.01583 0.344149 0
M  V30 4034 H 388.932 2.76742 2.71096 0
M  V30 4035 H 389.346 4.85693 1.97998 0
M  V30 4036 H 390.82 4.21448 3.56491 0
M  V30 4037 H 391.297 2.51857 3.59812 0
M  V30 4038 H 391.903 3.57579 2.30254 0
M  V30 4039 N 390.218 -0.567019 1.47046 0
M  V30 4040 C 391.448 -1.34831 1.56538 0
M  V30 4041 C 391.856 -1.8802 0.21101 0
M  V30 4042 O 391.199 -1.65152 -0.804387 0
M  V30 4043 C 391.261 -2.56139 2.52256 0
M  V30 4044 C 390.925 -2.24307 3.98165 0
M  V30 4045 C 391.922 -1.82192 4.86931 0
M  V30 4046 C 389.607 -2.35968 4.43423 0
M  V30 4047 C 391.601 -1.52153 6.18973 0
M  V30 4048 C 389.288 -2.05542 5.75496 0
M  V30 4049 C 390.286 -1.63701 6.63092 0
M  V30 4050 O 389.974 -1.33657 7.92711 0
M  V30 4051 H 389.706 -0.417683 0.531523 0
M  V30 4052 H 392.26 -0.694726 1.93294 0
M  V30 4053 H 390.49 -3.24356 2.10548 0
M  V30 4054 H 392.179 -3.18214 2.51982 0
M  V30 4055 H 392.945 -1.72684 4.53217 0
M  V30 4056 H 388.824 -2.67495 3.75456 0
M  V30 4057 H 392.368 -1.19421 6.87302 0
M  V30 4058 H 388.265 -2.14679 6.08755 0
M  V30 4059 H 389.033 -1.4737 8.05124 0
M  V30 4060 N 391.696 -1.35014 -0.812953 0
M  V30 4061 C 392.944 -1.27678 -1.56661 0
M  V30 4062 C 393.265 0.150359 -1.94419 0
M  V30 4063 O 392.535 1.08532 -1.63088 0
M  V30 4064 H 391.115 -0.469602 -0.580933 0
M  V30 4065 H 393.777 -1.69043 -0.970076 0
M  V30 4066 H 392.873 -1.88833 -2.48492 0
M  V30 4067 N 393.175 1.03435 -1.18907 0
M  V30 4068 C 394.123 2.13703 -0.918353 0
M  V30 4069 C 395.117 1.68947 0.123767 0
M  V30 4070 O 396.323 1.79983 -0.0249701 0
M  V30 4071 H 392.698 0.698112 -0.279542 0
M  V30 4072 H 394.669 2.33731 -1.85506 0
M  V30 4073 C 393.418 3.44542 -0.467532 0
M  V30 4074 H 392.741 3.79394 -1.26095 0
M  V30 4075 H 394.181 4.22812 -0.317164 0
M  V30 4076 C 392.64 3.26829 0.817588 0
M  V30 4077 O 393.17 3.54975 1.88031 0
M  V30 4078 N 391.376 2.80139 0.772677 0
M  V30 4079 H 390.923 2.57434 -0.0923883 0
M  V30 4080 H 390.881 2.68668 1.63294 0
M  V30 4081 N 394.653 0.992116 1.22453 0
M  V30 4082 C 395.93 0.583508 1.86694 0
M  V30 4083 C 396.31 -0.9392 1.89056 0
M  V30 4084 O 395.658 -1.82081 1.38053 0
M  V30 4085 C 395.868 1.20304 3.2761 0
M  V30 4086 C 397.216 1.30308 4.0411 0
M  V30 4087 O 398.24 1.15737 3.36873 0
M  V30 4088 O 397.099 1.53615 5.24466 0
M  V30 4089 H 394.193 0.198129 0.802916 0
M  V30 4090 H 396.739 1.08794 1.30238 0
M  V30 4091 H 395.511 2.24461 3.2052 0
M  V30 4092 H 395.134 0.684144 3.9167 0
M  V30 4093 N 396.131 -1.37776 0.765217 0
M  V30 4094 C 397.356 -2.04651 0.336537 0
M  V30 4095 C 397.781 -1.57337 -1.03086 0
M  V30 4096 O 397.139 -0.730621 -1.65927 0
M  V30 4097 C 397.187 -3.58577 0.381468 0
M  V30 4098 O 396.291 -4.07706 -0.62042 0
M  V30 4099 H 395.632 -0.64756 0.146838 0
M  V30 4100 H 398.162 -1.76221 1.03959 0
M  V30 4101 H 398.172 -4.07314 0.236448 0
M  V30 4102 H 396.847 -3.9237 1.37907 0
M  V30 4103 H 395.424 -3.70306 -0.439056 0
M  V30 4104 N 397.609 -0.515225 -1.4894 0
M  V30 4105 C 398.856 0.024215 -2.02486 0
M  V30 4106 C 399.184 1.35671 -1.39368 0
M  V30 4107 O 398.439 1.88566 -0.523574 0
M  V30 4108 C 398.738 0.210595 -3.56779 0
M  V30 4109 C 398.404 -1.04569 -4.38607 0
M  V30 4110 C 397.066 -1.39002 -4.60686 0
M  V30 4111 C 399.418 -1.88008 -4.86109 0
M  V30 4112 C 396.746 -2.568 -5.27514 0
M  V30 4113 C 399.098 -3.04972 -5.54234 0
M  V30 4114 C 397.762 -3.39768 -5.74555 0
M  V30 4115 H 397.032 0.00886088 -0.740947 0
M  V30 4116 H 399.679 -0.678263 -1.79086 0
M  V30 4117 H 397.984 0.99572 -3.78936 0
M  V30 4118 H 399.681 0.642659 -3.95817 0
M  V30 4119 H 396.271 -0.767497 -4.21672 0
M  V30 4120 H 400.455 -1.62719 -4.68867 0
M  V30 4121 H 395.711 -2.8398 -5.41447 0
M  V30 4122 H 399.885 -3.69943 -5.90013 0
M  V30 4123 H 397.512 -4.31148 -6.26112 0
M  V30 4124 N 399.087 1.5561 -0.249682 0
M  V30 4125 C 400.312 2.03865 0.381305 0
M  V30 4126 C 400.737 1.12769 1.50548 0
M  V30 4127 O 400.095 0.121189 1.80895 0
M  V30 4128 C 400.143 3.50101 0.863816 0
M  V30 4129 O 399.247 3.62132 1.97318 0
M  V30 4130 H 398.588 0.658827 0.0827194 0
M  V30 4131 H 401.118 2.01105 -0.376552 0
M  V30 4132 H 401.128 3.90975 1.1663 0
M  V30 4133 H 399.803 4.1588 0.0411816 0
M  V30 4134 H 398.38 3.33155 1.67517 0
M  V30 4135 N 400.565 -0.0233959 1.57583 0
M  V30 4136 C 401.528 -1.00693 2.05897 0
M  V30 4137 C 402.528 -1.28693 0.964092 0
M  V30 4138 O 403.718 -1.23602 1.22753 0
M  V30 4139 C 400.85 -2.33825 2.4807 0
M  V30 4140 H 402.043 -0.589476 2.9405 0
M  V30 4141 H 399.596 -0.270354 1.53944 0
M  V30 4142 H 400.331 -2.80307 1.6309 0
M  V30 4143 H 400.116 -2.1483 3.2801 0
M  V30 4144 H 401.606 -3.04426 2.85857 0
M  V30 4145 N 402.043 -1.548 -0.295768 0
M  V30 4146 C 402.99 -1.86113 -1.36494 0
M  V30 4147 C 403.96 -0.7105 -1.50137 0
M  V30 4148 O 405.145 -0.959626 -1.64912 0
M  V30 4149 C 402.285 -2.11861 -2.72413 0
M  V30 4150 C 401.398 -3.39471 -2.67177 0
M  V30 4151 C 400.533 -3.55035 -3.95125 0
M  V30 4152 C 399.572 -4.76418 -3.84308 0
M  V30 4153 N 398.709 -4.8876 -5.04042 0
M  V30 4154 H 403.549 -2.77314 -1.09091 0
M  V30 4155 H 401.086 -1.37315 -0.52753 0
M  V30 4156 H 403.044 -2.24786 -3.51464 0
M  V30 4157 H 401.674 -1.2392 -2.98066 0
M  V30 4158 H 400.726 -3.35139 -1.79962 0
M  V30 4159 H 402.038 -4.28646 -2.55076 0
M  V30 4160 H 401.192 -3.67653 -4.82614 0
M  V30 4161 H 399.931 -2.64002 -4.10066 0
M  V30 4162 H 398.936 -4.63827 -2.95202 0
M  V30 4163 H 400.161 -5.68863 -3.70906 0
M  V30 4164 H 398.107 -4.00652 -5.19436 0
M  V30 4165 H 398.024 -5.71945 -4.94384 0
M  V30 4166 H 399.292 -5.0574 -5.93167 0
M  V30 4167 N 403.521 0.559213 -1.47345 0
M  V30 4168 C 404.484 1.64854 -1.59235 0
M  V30 4169 C 405.484 1.53851 -0.467607 0
M  V30 4170 O 406.674 1.58045 -0.732617 0
M  V30 4171 C 403.806 3.04388 -1.53496 0
M  V30 4172 H 404.999 1.55662 -2.56339 0
M  V30 4173 H 402.552 0.778973 -1.35505 0
M  V30 4174 H 403.287 3.19115 -0.577604 0
M  V30 4175 H 403.072 3.13783 -2.35123 0
M  V30 4176 H 404.562 3.83642 -1.6495 0
M  V30 4177 N 404.999 1.35443 0.805782 0
M  V30 4178 C 406.224 1.32037 1.59941 0
M  V30 4179 C 406.649 -0.0994215 1.87837 0
M  V30 4180 O 406.007 -1.06648 1.46615 0
M  V30 4181 C 406.055 2.13354 2.90711 0
M  V30 4182 O 405.159 1.5148 3.83572 0
M  V30 4183 H 404.5 0.452666 0.485787 0
M  V30 4184 H 407.03 1.78496 1.00002 0
M  V30 4185 H 407.04 2.25338 3.40128 0
M  V30 4186 H 405.715 3.16572 2.69732 0
M  V30 4187 H 404.292 1.4834 3.42125 0
M  V30 4188 N 406.477 -1.02803 1.19454 0
M  V30 4189 C 407.723 -1.76478 0.999171 0
M  V30 4190 C 408.056 -1.88456 -0.468828 0
M  V30 4191 O 407.331 -1.40198 -1.34814 0
M  V30 4192 C 407.614 -3.19044 1.66981 0
M  V30 4193 C 407.467 -3.14932 3.21151 0
M  V30 4194 C 408.786 -4.17456 1.39349 0
M  V30 4195 H 405.905 -0.640614 0.364393 0
M  V30 4196 H 408.547 -1.20005 1.47305 0
M  V30 4197 H 406.697 -3.67263 1.2669 0
M  V30 4198 H 408.369 -2.74605 3.70661 0
M  V30 4199 H 406.612 -2.52625 3.52652 0
M  V30 4200 H 407.283 -4.1566 3.63223 0
M  V30 4201 H 409.759 -3.77842 1.74283 0
M  V30 4202 H 408.635 -5.154 1.88823 0
M  V30 4203 H 408.896 -4.40949 0.318813 0
M  V30 4204 N 407.956 -0.998596 -1.21925 0
M  V30 4205 C 409.181 -0.696015 -1.95372 0
M  V30 4206 C 409.606 0.733826 -1.73195 0
M  V30 4207 O 408.964 1.50242 -1.01474 0
M  V30 4208 C 409.012 -1.01466 -3.4603 0
M  V30 4209 O 408.116 -0.116415 -4.12236 0
M  V30 4210 H 407.457 -0.259938 -0.611006 0
M  V30 4211 H 409.987 -1.33711 -1.54863 0
M  V30 4212 H 409.997 -0.958855 -3.96573 0
M  V30 4213 H 408.672 -2.05653 -3.61497 0
M  V30 4214 H 407.249 -0.228193 -3.72201 0
M  V30 4215 N 409.434 1.37368 -0.772513 0
M  V30 4216 C 410.68 1.99969 -0.337681 0
M  V30 4217 C 411.013 1.61184 1.08321 0
M  V30 4218 O 410.288 0.858395 1.74533 0
M  V30 4219 C 410.571 3.56858 -0.482121 0
M  V30 4220 C 410.424 4.0555 -1.94549 0
M  V30 4221 C 411.743 4.39955 0.113143 0
M  V30 4222 H 408.862 0.726464 -0.124171 0
M  V30 4223 H 411.504 1.63034 -0.975699 0
M  V30 4224 H 409.654 3.88452 0.0610361 0
M  V30 4225 H 411.326 3.84518 -2.54841 0
M  V30 4226 H 409.569 3.57715 -2.45403 0
M  V30 4227 H 410.24 5.14587 -1.9976 0
M  V30 4228 H 412.716 4.14623 -0.35031 0
M  V30 4229 H 411.592 5.48897 -0.0180514 0
M  V30 4230 H 411.853 4.25403 1.20354 0
M  V30 4231 N 410.912 0.523116 1.48665 0
M  V30 4232 C 412.14 -0.0096312 2.06898 0
M  V30 4233 C 412.555 -1.28784 1.38059 0
M  V30 4234 O 411.912 -1.76453 0.465893 0
M  V30 4235 C 411.963 -0.244386 3.60673 0
M  V30 4236 O 411.684 0.983172 4.26925 0
M  V30 4237 C 413.185 -0.818289 4.35682 0
M  V30 4238 H 410.405 0.0304161 0.67031 0
M  V30 4239 H 412.949 0.726799 1.91149 0
M  V30 4240 H 411.104 -0.930847 3.76051 0
M  V30 4241 H 411.518 0.759653 5.1897 0
M  V30 4242 H 412.992 -0.93201 5.44075 0
M  V30 4243 H 413.469 -1.82153 3.99646 0
M  V30 4244 H 414.075 -0.168609 4.24966 0
M  V30 4245 N 412.39 -1.55475 0.257931 0
M  V30 4246 C 413.353 -2.20551 -0.623706 0
M  V30 4247 C 414.353 -1.17809 -1.09443 0
M  V30 4248 O 415.543 -1.42823 -0.997362 0
M  V30 4249 C 412.675 -2.85784 -1.8585 0
M  V30 4250 H 413.868 -2.99848 -0.0557743 0
M  V30 4251 H 411.421 -1.56298 0.0084422 0
M  V30 4252 H 412.156 -2.10453 -2.46739 0
M  V30 4253 H 411.941 -3.61057 -1.52907 0
M  V30 4254 H 413.431 -3.35553 -2.48584 0
M  V30 4255 N 413.868 0.0150385 -1.57593 0
M  V30 4256 C 414.778 1.02791 -2.10882 0
M  V30 4257 C 415.794 1.38702 -1.0506 0
M  V30 4258 O 416.97 1.47739 -1.36877 0
M  V30 4259 C 414.035 2.30568 -2.58919 0
M  V30 4260 C 413.096 2.01108 -3.79281 0
M  V30 4261 C 412.329 3.22794 -4.25018 0
M  V30 4262 O 412.552 4.33959 -3.70183 0
M  V30 4263 O 411.486 3.07672 -5.17322 0
M  V30 4264 H 415.312 0.604973 -2.97613 0
M  V30 4265 H 412.897 0.23292 -1.47573 0
M  V30 4266 H 414.779 3.05662 -2.90084 0
M  V30 4267 H 413.454 2.72129 -1.75293 0
M  V30 4268 H 412.361 1.23537 -3.53114 0
M  V30 4269 H 413.694 1.64394 -4.63935 0
M  V30 4270 N 415.346 1.54954 0.287554 0
M  V30 4271 C 416.623 1.65569 1.04146 0
M  V30 4272 C 417.003 0.512672 2.0478 0
M  V30 4273 O 416.351 -0.489038 2.23205 0
M  V30 4274 C 416.561 3.04163 1.71131 0
M  V30 4275 C 417.909 3.61429 2.22832 0
M  V30 4276 O 418.933 3.06702 1.81141 0
M  V30 4277 O 417.792 4.57281 2.9926 0
M  V30 4278 H 414.886 0.671881 0.482188 0
M  V30 4279 H 417.432 1.67297 0.28457 0
M  V30 4280 H 416.204 3.78796 0.981303 0
M  V30 4281 H 415.827 3.06271 2.53543 0
M  V30 4282 N 416.824 -0.551391 1.4764 0
M  V30 4283 C 417.734 -1.68525 1.63207 0
M  V30 4284 C 418.75 -1.6621 0.514815 0
M  V30 4285 O 419.926 -1.85551 0.783113 0
M  V30 4286 C 416.991 -3.05025 1.64805 0
M  V30 4287 C 416.052 -3.18362 2.88 0
M  V30 4288 C 415.285 -4.4835 2.89513 0
M  V30 4289 O 415.508 -5.34163 2.00065 0
M  V30 4290 O 414.442 -4.65602 3.81443 0
M  V30 4291 H 418.268 -1.58333 2.59161 0
M  V30 4292 H 415.853 -0.722063 1.30792 0
M  V30 4293 H 417.735 -3.86245 1.68502 0
M  V30 4294 H 416.41 -3.15587 0.720197 0
M  V30 4295 H 415.317 -2.36518 2.89845 0
M  V30 4296 H 416.65 -3.12707 3.80099 0
M  V30 4297 N 418.302 -1.35869 -0.798587 0
M  V30 4298 C 419.55 -1.29332 -1.55298 0
M  V30 4299 C 419.871 0.129729 -1.94568 0
M  V30 4300 O 419.141 1.06796 -1.6423 0
M  V30 4301 H 417.721 -0.475737 -0.57592 0
M  V30 4302 H 420.383 -1.70062 -0.952093 0
M  V30 4303 H 419.479 -1.91458 -2.46476 0
M  V30 4304 N 419.78 1.02168 -1.19998 0
M  V30 4305 C 421.008 1.79296 -1.03249 0
M  V30 4306 C 421.423 1.84103 0.418502 0
M  V30 4307 O 420.78 1.29031 1.29063 0
M  V30 4308 C 420.831 3.24007 -1.60319 0
M  V30 4309 O 420.552 3.19512 -2.99739 0
M  V30 4310 C 422.053 4.17704 -1.48453 0
M  V30 4311 H 419.273 0.564016 -0.363493 0
M  V30 4312 H 421.817 1.28639 -1.58973 0
M  V30 4313 H 419.972 3.7183 -1.08727 0
M  V30 4314 H 420.386 4.10306 -3.26725 0
M  V30 4315 H 421.86 5.17104 -1.93153 0
M  V30 4316 H 422.337 4.37029 -0.436193 0
M  V30 4317 H 422.943 3.7576 -1.99211 0
M  V30 4318 N 421.258 1.00505 1.21394 0
M  V30 4319 C 422.19 0.52372 2.23136 0
M  V30 4320 C 423.203 -0.387714 1.58116 0
M  V30 4321 O 424.392 -0.187905 1.77508 0
M  V30 4322 C 421.492 -0.258885 3.3791 0
M  V30 4323 C 420.665 0.651634 4.32519 0
M  V30 4324 C 419.724 -0.0813705 5.26137 0
M  V30 4325 O 418.75 0.537295 5.66658 0
M  V30 4326 N 419.952 -1.35992 5.64346 0
M  V30 4327 H 422.717 1.39865 2.65062 0
M  V30 4328 H 420.278 0.881196 1.35818 0
M  V30 4329 H 422.27 -0.758208 3.97534 0
M  V30 4330 H 420.84 -1.035 2.94968 0
M  V30 4331 H 420.06 1.33145 3.71034 0
M  V30 4332 H 421.348 1.27129 4.92662 0
M  V30 4333 H 420.746 -1.88368 5.33417 0
M  V30 4334 H 419.303 -1.8042 6.26332 0
M  V30 4335 N 422.737 -1.36956 0.779787 0
M  V30 4336 C 424.153 -1.52817 0.460342 0
M  V30 4337 C 424.353 -1.7361 -1.02283 0
M  V30 4338 O 423.409 -1.76207 -1.80852 0
M  V30 4339 C 424.722 -2.71983 1.28241 0
M  V30 4340 C 426.27 -2.85849 1.27512 0
M  V30 4341 C 426.745 -4.08008 2.08072 0
M  V30 4342 N 428.236 -4.15135 2.05467 0
M  V30 4343 C 428.971 -5.08711 2.64577 0
M  V30 4344 N 428.467 -6.07792 3.32506 0
M  V30 4345 N 430.26 -5.01254 2.54363 0
M  V30 4346 H 422.411 -1.21713 1.74068 0
M  V30 4347 H 424.674 -0.593294 0.739396 0
M  V30 4348 H 424.38 -2.63109 2.33381 0
M  V30 4349 H 424.254 -3.65882 0.917088 0
M  V30 4350 H 426.641 -2.94189 0.231686 0
M  V30 4351 H 426.722 -1.92886 1.68014 0
M  V30 4352 H 426.366 -4.00429 3.12441 0
M  V30 4353 H 426.296 -5.001 1.64947 0
M  V30 4354 H 428.787 -3.44189 1.5602 0
M  V30 4355 H 429.1 -6.75739 3.74963 0
M  V30 4356 H 427.445 -6.08047 3.36606 0
M  V30 4357 H 430.636 -4.22795 2.00902 0
M  V30 4358 H 430.809 -5.73995 3.00722 0
M  V30 4359 N 424.215 -0.530993 -1.48385 0
M  V30 4360 C 425.145 0.219985 -2.32461 0
M  V30 4361 C 426.126 0.934111 -1.42156 0
M  V30 4362 O 427.311 0.919694 -1.71042 0
M  V30 4363 C 424.441 1.26674 -3.23375 0
M  V30 4364 C 423.395 0.67069 -4.22712 0
M  V30 4365 C 422.721 1.82017 -5.02766 0
M  V30 4366 C 424.021 -0.358268 -5.2107 0
M  V30 4367 H 425.715 -0.48187 -2.95497 0
M  V30 4368 H 423.261 -0.233182 -1.42099 0
M  V30 4369 H 425.214 1.80006 -3.81019 0
M  V30 4370 H 423.938 1.99818 -2.58341 0
M  V30 4371 H 422.597 0.158878 -3.66256 0
M  V30 4372 H 422.245 2.54002 -4.34157 0
M  V30 4373 H 421.945 1.42727 -5.70003 0
M  V30 4374 H 423.469 2.35725 -5.63264 0
M  V30 4375 H 424.883 0.0880081 -5.73232 0
M  V30 4376 H 423.28 -0.66861 -5.96364 0
M  V30 4377 H 424.35 -1.26367 -4.68145 0
M  V30 4378 N 425.693 1.55336 -0.266172 0
M  V30 4379 C 426.921 2.03801 0.356756 0
M  V30 4380 C 427.336 1.14485 1.50129 0
M  V30 4381 O 426.693 0.163121 1.8177 0
M  V30 4382 C 426.744 3.51455 0.846281 0
M  V30 4383 O 426.465 4.37371 -0.252663 0
M  V30 4384 C 427.966 4.15767 1.53794 0
M  V30 4385 H 425.186 0.665906 0.0825218 0
M  V30 4386 H 427.73 2.00636 -0.39566 0
M  V30 4387 H 425.885 3.55092 1.54881 0
M  V30 4388 H 426.299 5.24358 0.122173 0
M  V30 4389 H 427.773 5.20714 1.83198 0
M  V30 4390 H 428.25 3.63404 2.46646 0
M  V30 4391 H 428.856 4.16107 0.879488 0
M  V30 4392 N 427.171 -0.0066808 1.57599 0
M  V30 4393 C 428.411 -0.697501 1.92131 0
M  V30 4394 C 428.775 -1.71306 0.867071 0
M  V30 4395 O 429.976 -2.45377 1.09743 0
M  V30 4396 C 428.247 -1.32978 3.3174 0
M  V30 4397 S 429.806 -2.04665 3.88146 0
M  V30 4398 H 426.624 -0.230555 0.672581 0
M  V30 4399 H 429.226 0.0484026 1.9544 0
M  V30 4400 H 427.93 -0.57772 4.06313 0
M  V30 4401 H 427.461 -2.11376 3.31789 0
M  V30 4402 H 429.476 -3.32097 3.68682 0
M  V30 4403 N 428.649 -1.55105 -0.279332 0
M  V30 4404 C 429.612 -1.86783 -1.32834 0
M  V30 4405 C 430.612 -0.74199 -1.42657 0
M  V30 4406 O 431.802 -1.0102 -1.41918 0
M  V30 4407 C 428.934 -2.06746 -2.71052 0
M  V30 4408 H 430.127 -2.8055 -1.05979 0
M  V30 4409 H 427.68 -1.47499 -0.517087 0
M  V30 4410 H 428.415 -1.15339 -3.03097 0
M  V30 4411 H 428.2 -2.88711 -2.65309 0
M  V30 4412 H 429.69 -2.32549 -3.46858 0
M  V30 4413 N 430.127 0.543554 -1.4793 0
M  V30 4414 C 431.373 1.30201 -1.55485 0
M  V30 4415 C 431.706 1.92925 -0.222201 0
M  V30 4416 O 430.981 1.78586 0.77053 0
M  V30 4417 C 431.264 2.40174 -2.68307 0
M  V30 4418 C 431.117 1.8223 -4.11233 0
M  V30 4419 C 432.436 3.42024 -2.76961 0
M  V30 4420 H 429.555 0.472036 -0.565996 0
M  V30 4421 H 432.197 0.606914 -1.80046 0
M  V30 4422 H 430.347 2.99463 -2.47495 0
M  V30 4423 H 432.019 1.27096 -4.43446 0
M  V30 4424 H 430.262 1.12832 -4.18869 0
M  V30 4425 H 430.933 2.61793 -4.85972 0
M  V30 4426 H 433.409 2.92672 -2.95774 0
M  V30 4427 H 432.285 4.16383 -3.57654 0
M  V30 4428 H 432.546 4.0173 -1.84568 0
M  V30 4429 N 431.605 1.3629 0.791371 0
M  V30 4430 C 432.854 1.29742 1.54434 0
M  V30 4431 C 433.167 -0.121729 1.95221 0
M  V30 4432 O 434.373 -0.309579 2.69729 0
M  V30 4433 C 432.829 2.27623 2.78776 0
M  V30 4434 C 432.437 3.74963 2.45166 0
M  V30 4435 C 434.181 2.30047 3.56761 0
M  V30 4436 C 432.088 4.64626 3.65891 0
M  V30 4437 H 431.018 0.482113 0.579727 0
M  V30 4438 H 433.669 1.61642 0.868565 0
M  V30 4439 H 432.051 1.88714 3.48142 0
M  V30 4440 H 433.225 4.22596 1.83709 0
M  V30 4441 H 431.54 3.75295 1.80396 0
M  V30 4442 H 434.137 2.94247 4.46456 0
M  V30 4443 H 434.48 1.30846 3.95203 0
M  V30 4444 H 435.013 2.67563 2.94372 0
M  V30 4445 H 431.752 5.64883 3.32547 0
M  V30 4446 H 431.272 4.2171 4.26521 0
M  V30 4447 H 432.951 4.80801 4.32943 0
M  V30 4448 N 433.083 -1.0153 1.20538 0
M  V30 4449 C 434.013 -2.11972 0.979295 0
M  V30 4450 C 434.994 -1.6985 -0.0921787 0
M  V30 4451 O 436.179 -1.94089 0.0655932 0
M  V30 4452 C 433.309 -3.43201 0.531984 0
M  V30 4453 C 432.263 -3.9907 1.54685 0
M  V30 4454 C 431.589 -5.26082 0.956127 0
M  V30 4455 C 432.889 -4.32313 2.93092 0
M  V30 4456 H 434.583 -2.31143 1.90298 0
M  V30 4457 H 432.129 -1.11079 0.916372 0
M  V30 4458 H 434.082 -4.1985 0.361044 0
M  V30 4459 H 432.806 -3.23792 -0.427327 0
M  V30 4460 H 431.465 -3.2453 1.70517 0
M  V30 4461 H 431.113 -5.02999 -0.0111538 0
M  V30 4462 H 430.813 -5.64426 1.63393 0
M  V30 4463 H 432.337 -6.05386 0.796284 0
M  V30 4464 H 433.751 -4.99845 2.80763 0
M  V30 4465 H 432.148 -4.81774 3.57791 0
M  V30 4466 H 433.218 -3.41025 3.44717 0
M  V30 4467 N 434.561 -1.01147 -1.20859 0
M  V30 4468 C 435.809 -0.696486 -1.89719 0
M  V30 4469 C 436.13 0.775788 -1.78904 0
M  V30 4470 O 435.4 1.55759 -1.18811 0
M  V30 4471 H 433.98 -0.254628 -0.702263 0
M  V30 4472 H 436.642 -1.28197 -1.46804 0
M  V30 4473 H 435.738 -0.975357 -2.96468 0
M  V30 4474 N 436.039 1.36541 -0.78704 0
M  V30 4475 C 436.987 2.31965 -0.171724 0
M  V30 4476 C 437.981 1.55689 0.667631 0
M  V30 4477 O 439.187 1.70969 0.562981 0
M  V30 4478 H 435.562 0.751101 -0.0367545 0
M  V30 4479 H 437.533 2.81428 -0.992017 0
M  V30 4480 C 436.282 3.40968 0.680904 0
M  V30 4481 H 435.605 3.99775 0.0443961 0
M  V30 4482 H 437.045 4.10063 1.07815 0
M  V30 4483 C 435.504 2.82338 1.83813 0
M  V30 4484 O 436.034 2.74311 2.93456 0
M  V30 4485 N 434.24 2.39661 1.6435 0
M  V30 4486 H 433.787 2.46389 0.751668 0
M  V30 4487 H 433.745 2.00779 2.4194 0
M  V30 4488 N 437.518 0.538854 1.48102 0
M  V30 4489 C 438.45 -0.256278 2.27763 0
M  V30 4490 C 439.463 -0.89633 1.35904 0
M  V30 4491 O 440.652 -0.773275 1.60881 0
M  V30 4492 C 437.752 -1.37896 3.09577 0
M  V30 4493 C 436.925 -0.839159 4.29275 0
M  V30 4494 C 435.984 -1.84405 4.9283 0
M  V30 4495 O 435.01 -1.39746 5.51779 0
M  V30 4496 N 436.212 -3.17666 4.85869 0
M  V30 4497 H 438.977 0.426968 2.96643 0
M  V30 4498 H 436.538 0.373747 1.57527 0
M  V30 4499 H 438.53 -2.04955 3.48963 0
M  V30 4500 H 437.1 -1.96572 2.4306 0
M  V30 4501 H 436.32 0.00769287 3.94199 0
M  V30 4502 H 437.608 -0.457548 5.06739 0
M  V30 4503 H 437.006 -3.56609 4.39143 0
M  V30 4504 H 435.563 -3.80334 5.29329 0
M  V30 4505 N 438.996 -1.55193 0.274407 0
M  V30 4506 C 440.221 -2.04446 -0.348824 0
M  V30 4507 C 440.646 -1.15149 -1.48735 0
M  V30 4508 O 440.004 -0.149952 -1.80679 0
M  V30 4509 C 440.052 -3.51431 -0.808009 0
M  V30 4510 O 439.156 -3.65225 -1.91531 0
M  V30 4511 H 438.497 -0.66006 -0.0722276 0
M  V30 4512 H 441.027 -2.00481 0.408498 0
M  V30 4513 H 441.037 -3.92781 -1.10395 0
M  V30 4514 H 439.712 -4.15892 0.0249865 0
M  V30 4515 H 438.289 -3.35778 -1.62196 0
M  V30 4516 N 440.474 -0.00167713 -1.576 0
M  V30 4517 C 441.406 1.0174 -2.05382 0
M  V30 4518 C 442.419 1.30595 -0.972052 0
M  V30 4519 O 443.608 1.27542 -1.24882 0
M  V30 4520 C 440.708 2.35174 -2.44022 0
M  V30 4521 C 439.881 2.25234 -3.74951 0
M  V30 4522 C 438.94 3.4137 -4.00441 0
M  V30 4523 O 437.966 3.19483 -4.71083 0
M  V30 4524 N 439.168 4.64275 -3.48467 0
M  V30 4525 H 441.933 0.609902 -2.93428 0
M  V30 4526 H 439.494 0.185672 -1.60832 0
M  V30 4527 H 441.486 3.11643 -2.58187 0
M  V30 4528 H 440.056 2.67659 -1.61485 0
M  V30 4529 H 439.276 1.33664 -3.70847 0
M  V30 4530 H 440.564 2.15767 -4.60784 0
M  V30 4531 H 439.962 4.84955 -2.91264 0
M  V30 4532 H 438.519 5.38005 -3.67959 0
M  V30 4533 N 441.952 1.55251 0.271103 0
M  V30 4534 C 442.862 1.9136 1.35714 0
M  V30 4535 C 443.878 0.811075 1.5394 0
M  V30 4536 O 445.054 1.11031 1.6803 0
M  V30 4537 C 442.119 2.1798 2.69603 0
M  V30 4538 C 441.18 3.4153 2.60107 0
M  V30 4539 C 440.413 3.66871 3.8761 0
M  V30 4540 O 440.636 2.94689 4.8838 0
M  V30 4541 O 439.57 4.60405 3.87699 0
M  V30 4542 H 443.396 2.83815 1.08088 0
M  V30 4543 H 440.981 1.41821 0.469792 0
M  V30 4544 H 442.863 2.36518 3.48765 0
M  V30 4545 H 441.538 1.28708 2.97012 0
M  V30 4546 H 440.445 3.28325 1.79314 0
M  V30 4547 H 441.778 4.31027 2.37647 0
M  V30 4548 N 443.43 -0.535701 1.48216 0
M  V30 4549 C 444.658 -1.31671 1.59594 0
M  V30 4550 C 445.073 -1.87083 0.254056 0
M  V30 4551 O 444.43 -1.66112 -0.755854 0
M  V30 4552 C 444.481 -2.47158 2.63809 0
M  V30 4553 O 444.202 -1.94032 3.92789 0
M  V30 4554 C 445.703 -3.39062 2.85573 0
M  V30 4555 H 442.923 -0.400623 0.538277 0
M  V30 4556 H 445.467 -0.646827 1.94001 0
M  V30 4557 H 443.622 -3.10043 2.32276 0
M  V30 4558 H 444.036 -2.69585 4.49916 0
M  V30 4559 H 445.51 -4.16459 3.62306 0
M  V30 4560 H 445.987 -3.93941 1.94184 0
M  V30 4561 H 446.593 -2.81975 3.18387 0
M  V30 4562 N 444.908 -1.36708 -0.784132 0
M  V30 4563 C 445.838 -1.34153 -1.91116 0
M  V30 4564 C 446.819 -0.212121 -1.68772 0
M  V30 4565 O 448.004 -0.410581 -1.8981 0
M  V30 4566 C 445.134 -1.13535 -3.28218 0
M  V30 4567 C 444.088 -2.23356 -3.65097 0
M  V30 4568 C 443.414 -1.87875 -5.00607 0
M  V30 4569 C 444.714 -3.65473 -3.73131 0
M  V30 4570 H 446.408 -2.28459 -1.93512 0
M  V30 4571 H 443.954 -1.09973 -0.929618 0
M  V30 4572 H 445.907 -1.10381 -4.06687 0
M  V30 4573 H 444.631 -0.156804 -3.26223 0
M  V30 4574 H 443.29 -2.25645 -2.88929 0
M  V30 4575 H 442.938 -0.885814 -4.95139 0
M  V30 4576 H 442.638 -2.61406 -5.26252 0
M  V30 4577 H 444.162 -1.86286 -5.81489 0
M  V30 4578 H 445.576 -3.65382 -4.41779 0
M  V30 4579 H 443.973 -4.37953 -4.10265 0
M  V30 4580 H 445.043 -3.99995 -2.74102 0
M  V30 4581 N 446.386 1.0089 -1.21074 0
M  V30 4582 C 447.318 2.09737 -0.924291 0
M  V30 4583 C 448.331 1.62546 0.0909809 0
M  V30 4584 O 449.52 1.77942 -0.141021 0
M  V30 4585 C 446.62 3.36922 -0.36559 0
M  V30 4586 C 445.793 4.13216 -1.43426 0
M  V30 4587 C 444.852 5.18696 -0.885496 0
M  V30 4588 O 443.878 5.47176 -1.56801 0
M  V30 4589 N 445.08 5.79718 0.301227 0
M  V30 4590 H 447.845 2.34895 -1.8613 0
M  V30 4591 H 445.406 1.17341 -1.11546 0
M  V30 4592 H 447.398 4.04697 0.0158407 0
M  V30 4593 H 445.968 3.08952 0.476149 0
M  V30 4594 H 445.188 3.40301 -1.9897 0
M  V30 4595 H 446.476 4.60967 -2.15376 0
M  V30 4596 H 445.874 5.58926 0.872849 0
M  V30 4597 H 444.431 6.48804 0.624211 0
M  V30 4598 N 447.864 1.01787 1.20321 0
M  V30 4599 C 449.092 0.727194 1.937 0
M  V30 4600 C 449.507 -0.712305 1.74848 0
M  V30 4601 O 448.864 -1.48327 1.06327 0
M  V30 4602 C 448.915 1.05497 3.45764 0
M  V30 4603 O 448.636 2.43794 3.64 0
M  V30 4604 C 450.137 0.785534 4.36285 0
M  V30 4605 H 447.357 0.266939 0.615617 0
M  V30 4606 H 449.901 1.35939 1.52777 0
M  V30 4607 H 448.056 0.468158 3.84561 0
M  V30 4608 H 448.47 2.55656 4.57974 0
M  V30 4609 H 449.944 1.06495 5.4163 0
M  V30 4610 H 450.421 -0.280273 4.38305 0
M  V30 4611 H 451.027 1.35456 4.03152 0
M  V30 4612 N 449.342 -1.36122 0.79427 0
M  V30 4613 C 450.588 -1.99406 0.369452 0
M  V30 4614 C 450.921 -1.62886 -1.05743 0
M  V30 4615 O 450.196 -0.886053 -1.73145 0
M  V30 4616 C 450.479 -3.56046 0.538833 0
M  V30 4617 C 450.332 -4.02404 2.00976 0
M  V30 4618 C 451.651 -4.40079 -0.0431359 0
M  V30 4619 H 448.77 -0.724397 0.135712 0
M  V30 4620 H 451.412 -1.61461 1.00151 0
M  V30 4621 H 449.562 -3.885 0.000771004 0
M  V30 4622 H 451.234 -3.80415 2.60926 0
M  V30 4623 H 449.477 -3.53765 2.51063 0
M  V30 4624 H 450.148 -5.11344 2.07922 0
M  V30 4625 H 452.624 -4.14013 0.416228 0
M  V30 4626 H 451.5 -5.48799 0.105374 0
M  V30 4627 H 451.761 -4.27264 -1.13571 0
M  V30 4628 N 450.82 -0.546701 -1.47814 0
M  V30 4629 C 452.048 -0.0232857 -2.06887 0
M  V30 4630 C 452.463 1.26571 -1.4009 0
M  V30 4631 O 451.82 1.7569 -0.493906 0
M  V30 4632 C 451.871 0.186975 -3.61016 0
M  V30 4633 O 451.592 -1.05097 -4.25307 0
M  V30 4634 C 453.093 0.748872 -4.36929 0
M  V30 4635 H 450.313 -0.0410763 -0.669742 0
M  V30 4636 H 452.857 -0.757117 -1.89968 0
M  V30 4637 H 451.012 0.870903 -3.77484 0
M  V30 4638 H 451.426 -0.842121 -5.17695 0
M  V30 4639 H 452.9 0.845334 -5.45489 0
M  V30 4640 H 453.377 1.75772 -4.02493 0
M  V30 4641 H 453.983 0.100979 -4.2518 0
M  V30 4642 N 452.299 1.55045 -0.282633 0
M  V30 4643 C 453.548 1.98938 0.332667 0
M  V30 4644 C 453.861 1.17455 1.56409 0
M  V30 4645 O 455.067 1.51527 2.25282 0
M  V30 4646 C 453.523 3.54105 0.643226 0
M  V30 4647 C 453.131 4.44374 -0.568814 0
M  V30 4648 C 454.875 4.06569 1.22074 0
M  V30 4649 C 452.782 5.90943 -0.232426 0
M  V30 4650 H 451.712 0.743043 0.128075 0
M  V30 4651 H 454.363 1.79341 -0.388464 0
M  V30 4652 H 452.745 3.69532 1.42346 0
M  V30 4653 H 453.919 4.40718 -1.34551 0
M  V30 4654 H 452.234 4.02585 -1.06369 0
M  V30 4655 H 454.831 5.13626 1.48635 0
M  V30 4656 H 455.174 3.56057 2.15707 0
M  V30 4657 H 455.707 3.94612 0.502621 0
M  V30 4658 H 452.446 6.45567 -1.13683 0
M  V30 4659 H 451.966 5.9765 0.507357 0
M  V30 4660 H 453.645 6.4677 0.172657 0
M  V30 4661 N 453.777 0.010035 1.57597 0
M  V30 4662 C 455.007 -0.682422 1.95004 0
M  V30 4663 C 455.415 -1.67278 0.884014 0
M  V30 4664 O 454.758 -1.83129 -0.144672 0
M  V30 4665 C 454.82 -1.46141 3.28456 0
M  V30 4666 C 454.484 -0.631523 4.52615 0
M  V30 4667 C 455.481 0.0850905 5.1983 0
M  V30 4668 C 453.166 -0.574539 4.99003 0
M  V30 4669 C 455.16 0.847566 6.3174 0
M  V30 4670 C 452.847 0.191655 6.10799 0
M  V30 4671 C 453.845 0.901432 6.77025 0
M  V30 4672 O 453.533 1.65511 7.86677 0
M  V30 4673 H 453.265 -0.194361 0.647456 0
M  V30 4674 H 455.819 0.060312 2.05311 0
M  V30 4675 H 454.049 -2.24885 3.14585 0
M  V30 4676 H 455.738 -2.04016 3.50902 0
M  V30 4677 H 456.504 0.0502812 4.84974 0
M  V30 4678 H 452.383 -1.11654 4.47274 0
M  V30 4679 H 455.927 1.4021 6.83364 0
M  V30 4680 H 451.824 0.228249 6.45096 0
M  V30 4681 H 452.592 1.57287 8.03245 0
M  V30 4682 N 455.255 -1.55392 -0.262866 0
M  V30 4683 C 456.48 -1.80847 -1.01533 0
M  V30 4684 C 456.905 -0.584946 -1.78774 0
M  V30 4685 O 456.263 0.465701 -1.75217 0
M  V30 4686 C 456.311 -3.03866 -1.94159 0
M  V30 4687 O 455.415 -2.79662 -3.03089 0
M  V30 4688 H 454.756 -0.597441 -0.289759 0
M  V30 4689 H 457.286 -2.02553 -0.288698 0
M  V30 4690 H 457.296 -3.32872 -2.35924 0
M  V30 4691 H 455.971 -3.92564 -1.37354 0
M  V30 4692 H 454.548 -2.61781 -2.65566 0
M  V30 4693 N 456.733 0.527833 -1.48498 0
M  V30 4694 C 457.98 1.28354 -1.56625 0
M  V30 4695 C 458.308 1.93 -0.241096 0
M  V30 4696 O 457.563 1.79967 0.768798 0
M  V30 4697 C 457.862 2.39275 -2.65485 0
M  V30 4698 C 457.528 1.92268 -4.07853 0
M  V30 4699 C 456.19 1.79166 -4.46602 0
M  V30 4700 C 458.542 1.56771 -4.97064 0
M  V30 4701 C 455.87 1.28905 -5.72364 0
M  V30 4702 C 458.222 1.07972 -6.23318 0
M  V30 4703 C 456.886 0.934887 -6.60921 0
M  V30 4704 H 456.156 0.469682 -0.573131 0
M  V30 4705 H 458.803 0.588781 -1.82224 0
M  V30 4706 H 457.108 3.1443 -2.33754 0
M  V30 4707 H 458.805 2.974 -2.68988 0
M  V30 4708 H 455.395 2.03417 -3.77252 0
M  V30 4709 H 459.579 1.65753 -4.67803 0
M  V30 4710 H 454.835 1.16381 -6.00221 0
M  V30 4711 H 459.009 0.795775 -6.91838 0
M  V30 4712 H 456.636 0.543231 -7.58257 0
M  V30 4713 N 458.211 1.37122 0.776871 0
M  V30 4714 C 459.622 1.28667 1.35284 0
M  V30 4715 C 459.973 -0.0680035 1.96082 0
M  V30 4716 O 459.098 -0.969743 1.93455 0
M  V30 4717 C 459.693 2.32997 2.45963 0
M  V30 4718 C 458.252 2.28191 2.99342 0
M  V30 4719 C 457.399 2.17101 1.72517 0
M  V30 4720 H 460.35 1.47819 0.577527 0
M  V30 4721 H 460.371 1.97366 3.2531 0
M  V30 4722 H 459.883 3.3158 2.01684 0
M  V30 4723 H 457.984 1.33115 3.4801 0
M  V30 4724 H 458.097 3.21397 3.55304 0
M  V30 4725 H 456.461 1.63562 1.95242 0
M  V30 4726 H 457.244 3.17591 1.30348 0
M  V30 4727 N 459.689 -1.00246 1.21608 0
M  V30 4728 C 460.652 -2.07233 0.979133 0
M  V30 4729 C 461.652 -1.6072 -0.0508219 0
M  V30 4730 O 462.842 -1.73196 0.186712 0
M  V30 4731 C 459.974 -3.37546 0.477016 0
M  V30 4732 H 461.167 -2.29687 1.92831 0
M  V30 4733 H 458.72 -1.17261 1.03342 0
M  V30 4734 H 459.455 -3.20773 -0.476966 0
M  V30 4735 H 459.24 -3.72638 1.21997 0
M  V30 4736 H 460.73 -4.16285 0.331181 0
M  V30 4737 N 461.167 -1.02423 -1.1978 0
M  V30 4738 C 462.578 -0.748389 -1.71044 0
M  V30 4739 C 462.929 0.732398 -1.82017 0
M  V30 4740 O 462.054 1.57116 -1.48807 0
M  V30 4741 C 462.649 -1.35187 -3.1066 0
M  V30 4742 C 461.208 -1.12472 -3.59203 0
M  V30 4743 C 460.355 -1.45283 -2.36195 0
M  V30 4744 H 463.306 -1.19275 -1.04686 0
M  V30 4745 H 463.327 -0.746408 -3.73107 0
M  V30 4746 H 462.839 -2.4296 -3.02642 0
M  V30 4747 H 460.94 -0.0649983 -3.72543 0
M  V30 4748 H 461.053 -1.81016 -4.43588 0
M  V30 4749 H 459.417 -0.872034 -2.39307 0
M  V30 4750 H 460.2 -2.54129 -2.30811 0
M  V30 4751 N 462.645 1.35699 -0.801477 0
M  V30 4752 C 463.593 2.3177 -0.196317 0
M  V30 4753 C 464.587 1.56388 0.651081 0
M  V30 4754 O 465.793 1.71557 0.544815 0
M  V30 4755 H 462.168 0.750669 -0.0447189 0
M  V30 4756 H 464.139 2.8036 -1.02181 0
M  V30 4757 C 462.888 3.41671 0.644702 0
M  V30 4758 H 462.211 3.998 0.0019921 0
M  V30 4759 H 463.651 4.11184 1.0346 0
M  V30 4760 C 462.11 2.84271 1.80808 0
M  V30 4761 O 462.64 2.77408 2.9053 0
M  V30 4762 N 460.846 2.41391 1.61799 0
M  V30 4763 H 460.393 2.47173 0.725493 0
M  V30 4764 H 460.351 2.03334 2.39797 0
M  V30 4765 N 464.123 0.554532 1.47522 0
M  V30 4766 C 465.369 0.0295227 2.02779 0
M  V30 4767 C 465.702 -1.31582 1.42828 0
M  V30 4768 O 464.977 -1.85561 0.582872 0
M  V30 4769 C 465.26 -0.0664057 3.60039 0
M  V30 4770 C 465.113 1.30585 4.30427 0
M  V30 4771 C 466.432 -0.781162 4.33112 0
M  V30 4772 H 463.551 0.0122027 0.736899 0
M  V30 4773 H 466.193 0.716305 1.7598 0
M  V30 4774 H 464.343 -0.651307 3.83002 0
M  V30 4775 H 466.015 1.93374 4.18813 0
M  V30 4776 H 464.258 1.88125 3.90886 0
M  V30 4777 H 464.929 1.19147 5.38988 0
M  V30 4778 H 467.405 -0.284565 4.15126 0
M  V30 4779 H 466.281 -0.817237 5.42782 0
M  V30 4780 H 466.542 -1.83672 4.0214 0
M  V30 4781 N 465.601 -1.54893 0.290851 0
M  V30 4782 C 466.85 -1.99111 -0.322113 0
M  V30 4783 C 467.163 -1.18283 -1.55784 0
M  V30 4784 O 468.369 -1.5272 -2.24475 0
M  V30 4785 C 466.825 -3.54442 -0.624438 0
M  V30 4786 C 466.433 -4.44066 0.592373 0
M  V30 4787 C 468.177 -4.07211 -1.19916 0
M  V30 4788 C 466.084 -5.90812 0.263762 0
M  V30 4789 H 465.014 -0.743712 -0.124133 0
M  V30 4790 H 467.665 -1.79132 0.39797 0
M  V30 4791 H 466.047 -3.70281 -1.40384 0
M  V30 4792 H 467.221 -4.39999 1.36886 0
M  V30 4793 H 465.536 -4.02015 1.08502 0
M  V30 4794 H 468.133 -5.14407 -1.45909 0
M  V30 4795 H 468.476 -3.57196 -2.13815 0
M  V30 4796 H 469.009 -3.94873 -0.481687 0
M  V30 4797 H 465.748 -6.44955 1.17105 0
M  V30 4798 H 465.268 -5.97911 -0.475655 0
M  V30 4799 H 466.947 -6.46852 -0.138354 0
M  V30 4800 N 467.08 -0.0183926 -1.57589 0
M  V30 4801 C 468.01 0.965596 -2.12599 0
M  V30 4802 C 468.991 1.34641 -1.0395 0
M  V30 4803 O 470.176 1.42693 -1.31729 0
M  V30 4804 C 467.306 2.25149 -2.64434 0
M  V30 4805 C 466.26 2.01175 -3.77773 0
M  V30 4806 C 465.586 3.35937 -4.15994 0
M  V30 4807 C 466.886 1.35953 -5.04296 0
M  V30 4808 H 468.58 0.507504 -2.95067 0
M  V30 4809 H 466.126 0.242671 -1.41941 0
M  V30 4810 H 468.079 2.94357 -3.01549 0
M  V30 4811 H 466.803 2.73105 -1.79112 0
M  V30 4812 H 465.462 1.34388 -3.4108 0
M  V30 4813 H 465.11 3.81631 -3.27669 0
M  V30 4814 H 464.81 3.20705 -4.92364 0
M  V30 4815 H 466.334 4.0643 -4.55683 0
M  V30 4816 H 467.748 1.95144 -5.39065 0
M  V30 4817 H 466.145 1.31152 -5.85593 0
M  V30 4818 H 467.215 0.331071 -4.83768 0
M  V30 4819 N 468.558 1.5553 0.254621 0
M  V30 4820 C 469.786 1.81046 1.00149 0
M  V30 4821 C 470.201 0.593047 1.79244 0
M  V30 4822 O 469.558 -0.438196 1.77161 0
M  V30 4823 C 469.609 3.04684 1.94551 0
M  V30 4824 O 469.33 4.21725 1.18658 0
M  V30 4825 C 470.831 3.42943 2.80901 0
M  V30 4826 H 468.051 0.602653 0.295044 0
M  V30 4827 H 470.595 2.02576 0.279842 0
M  V30 4828 H 468.75 2.85226 2.62154 0
M  V30 4829 H 469.164 4.91746 1.82445 0
M  V30 4830 H 470.638 4.32576 3.42902 0
M  V30 4831 H 471.115 2.63176 3.51617 0
M  V30 4832 H 471.721 3.64724 2.18762 0
M  V30 4833 N 470.036 -0.519951 1.48776 0
M  V30 4834 C 470.983 -1.62352 1.64044 0
M  V30 4835 C 471.953 -1.58945 0.482251 0
M  V30 4836 O 473.138 -1.77219 0.706971 0
M  V30 4837 C 470.278 -3.00579 1.69547 0
M  V30 4838 C 469.391 -3.14145 2.96541 0
M  V30 4839 C 468.526 -4.42991 2.93142 0
M  V30 4840 C 467.565 -4.50122 4.14797 0
M  V30 4841 N 466.702 -5.7037 4.09418 0
M  V30 4842 H 471.542 -1.48643 2.58281 0
M  V30 4843 H 469.079 -0.723516 1.28077 0
M  V30 4844 H 471.037 -3.80671 1.70719 0
M  V30 4845 H 469.667 -3.13036 0.787918 0
M  V30 4846 H 468.719 -2.27239 3.05068 0
M  V30 4847 H 470.031 -3.15275 3.86527 0
M  V30 4848 H 469.185 -5.31385 2.92772 0
M  V30 4849 H 467.924 -4.44398 2.00902 0
M  V30 4850 H 466.929 -3.60133 4.15433 0
M  V30 4851 H 468.154 -4.50445 5.08208 0
M  V30 4852 H 466.1 -5.72655 3.20004 0
M  V30 4853 H 466.017 -5.73036 4.93119 0
M  V30 4854 H 467.285 -6.61023 4.13121 0
M  V30 4855 N 471.514 -1.37532 -0.769588 0
M  V30 4856 C 472.925 -1.29382 -1.346 0
M  V30 4857 C 473.276 0.0576039 -1.96115 0
M  V30 4858 O 472.401 0.95947 -1.93967 0
M  V30 4859 C 472.996 -2.34298 -2.44724 0
M  V30 4860 C 471.555 -2.29776 -2.98128 0
M  V30 4861 C 470.702 -2.18013 -1.71364 0
M  V30 4862 H 473.653 -1.48123 -0.56968 0
M  V30 4863 H 473.674 -1.99089 -3.24259 0
M  V30 4864 H 473.186 -3.32645 -1.99922 0
M  V30 4865 H 471.287 -1.34959 -3.47299 0
M  V30 4866 H 471.4 -3.23276 -3.53595 0
M  V30 4867 H 469.764 -1.64595 -1.94372 0
M  V30 4868 H 470.547 -3.18278 -1.28662 0
M  V30 4869 N 472.992 0.995999 -1.22138 0
M  V30 4870 C 473.902 2.11985 -1.00496 0
M  V30 4871 C 474.918 1.7394 0.0457701 0
M  V30 4872 O 476.094 2.00868 -0.146273 0
M  V30 4873 C 473.159 3.41779 -0.582086 0
M  V30 4874 C 472.22 3.93943 -1.70608 0
M  V30 4875 C 471.453 5.17542 -1.30328 0
M  V30 4876 O 471.676 5.70114 -0.180743 0
M  V30 4877 O 470.61 5.63382 -2.11861 0
M  V30 4878 H 474.436 2.33123 -1.94647 0
M  V30 4879 H 472.021 1.10358 -1.00705 0
M  V30 4880 H 473.903 4.1989 -0.356467 0
M  V30 4881 H 472.578 3.22007 0.330592 0
M  V30 4882 H 471.485 3.17019 -1.98619 0
M  V30 4883 H 472.818 4.18141 -2.59651 0
M  V30 4884 N 474.47 1.03057 1.19235 0
M  V30 4885 C 475.716 0.729098 1.89241 0
M  V30 4886 C 476.049 -0.740573 1.79525 0
M  V30 4887 O 475.324 -1.53946 1.18874 0
M  V30 4888 C 475.607 1.18304 3.40112 0
M  V30 4889 C 475.46 2.71406 3.5869 0
M  V30 4890 C 476.779 0.765161 4.33397 0
M  V30 4891 H 473.898 0.266338 0.687192 0
M  V30 4892 H 476.54 1.28079 1.40341 0
M  V30 4893 H 474.69 0.713672 3.81889 0
M  V30 4894 H 476.362 3.26303 3.26074 0
M  V30 4895 H 474.605 3.11717 3.01687 0
M  V30 4896 H 475.276 2.98225 4.64506 0
M  V30 4897 H 477.752 1.16889 3.99345 0
M  V30 4898 H 476.628 1.11065 5.37546 0
M  V30 4899 H 476.889 -0.332372 4.40849 0
M  V30 4900 N 475.948 -1.35272 0.808662 0
M  V30 4901 C 477.173 -2.03477 0.401475 0
M  V30 4902 C 477.598 -1.60537 -0.980279 0
M  V30 4903 O 476.956 -0.78304 -1.63518 0
M  V30 4904 C 477.004 -3.57181 0.495354 0
M  V30 4905 O 476.108 -4.09474 -0.490397 0
M  V30 4906 H 475.449 -0.642561 0.167366 0
M  V30 4907 H 477.979 -1.72824 1.09512 0
M  V30 4908 H 477.989 -4.06356 0.365912 0
M  V30 4909 H 476.664 -3.87784 1.5032 0
M  V30 4910 H 475.241 -3.71516 -0.321023 0
M  V30 4911 N 477.426 -0.562348 -1.47226 0
M  V30 4912 C 478.336 0.185466 -2.33866 0
M  V30 4913 C 479.352 0.906713 -1.48508 0
M  V30 4914 O 480.528 0.874458 -1.81425 0
M  V30 4915 C 477.593 1.19904 -3.25306 0
M  V30 4916 C 476.654 0.484669 -4.26555 0
M  V30 4917 C 475.887 1.44996 -5.13626 0
M  V30 4918 O 476.11 2.68515 -5.03245 0
M  V30 4919 O 475.044 0.971642 -5.94006 0
M  V30 4920 H 478.87 -0.525361 -2.99121 0
M  V30 4921 H 476.455 -0.322916 -1.45868 0
M  V30 4922 H 478.337 1.78399 -3.81774 0
M  V30 4923 H 477.012 1.8917 -2.62672 0
M  V30 4924 H 475.919 -0.141605 -3.73832 0
M  V30 4925 H 477.252 -0.166634 -4.91918 0
M  V30 4926 N 478.904 1.54736 -0.299062 0
M  V30 4927 C 480.152 1.99706 0.31017 0
M  V30 4928 C 480.473 1.18896 1.54559 0
M  V30 4929 O 479.743 0.284445 1.93824 0
M  V30 4930 H 478.323 0.737686 0.117596 0
M  V30 4931 H 480.985 1.9054 -0.409943 0
M  V30 4932 H 480.081 3.06596 0.58355 0
M  V30 4933 N 480.382 0.0267497 1.57577 0
M  V30 4934 C 481.61 -0.662661 1.96001 0
M  V30 4935 C 482.025 -1.65799 0.903117 0
M  V30 4936 O 481.382 -1.82135 -0.115317 0
M  V30 4937 C 481.433 -1.37112 3.34488 0
M  V30 4938 O 481.154 -0.415683 4.36123 0
M  V30 4939 C 482.655 -2.15257 3.8753 0
M  V30 4940 H 479.875 -0.18287 0.6456 0
M  V30 4941 H 482.419 0.0858116 2.0432 0
M  V30 4942 H 480.574 -2.07101 3.27395 0
M  V30 4943 H 480.988 -0.918496 5.16395 0
M  V30 4944 H 482.462 -2.60285 4.86781 0
M  V30 4945 H 482.939 -2.99063 3.21649 0
M  V30 4946 H 483.545 -1.50231 3.97883 0
M  V30 4947 N 481.861 -1.55662 -0.24637 0
M  V30 4948 C 482.771 -1.93495 -1.32653 0
M  V30 4949 C 483.787 -0.835462 -1.5263 0
M  V30 4950 O 484.963 -1.1369 -1.66242 0
M  V30 4951 C 482.028 -2.22242 -2.66101 0
M  V30 4952 C 481.089 -3.45625 -2.54641 0
M  V30 4953 C 480.322 -3.72991 -3.81724 0
M  V30 4954 O 480.545 -3.02421 -4.8363 0
M  V30 4955 O 479.479 -4.66515 -3.80325 0
M  V30 4956 H 483.305 -2.85498 -1.03559 0
M  V30 4957 H 480.89 -1.42551 -0.44717 0
M  V30 4958 H 482.772 -2.42037 -3.44958 0
M  V30 4959 H 481.447 -1.33417 -2.94926 0
M  V30 4960 H 480.354 -3.31136 -1.74067 0
M  V30 4961 H 481.687 -4.34754 -2.3076 0
M  V30 4962 N 483.339 0.512053 -1.4905 0
M  V30 4963 C 484.585 1.26874 -1.58212 0
M  V30 4964 C 484.918 1.9241 -0.263073 0
M  V30 4965 O 484.193 1.80181 0.732476 0
M  V30 4966 C 484.476 2.34428 -2.73341 0
M  V30 4967 C 484.329 1.73466 -4.15006 0
M  V30 4968 C 485.648 3.36073 -2.84154 0
M  V30 4969 H 482.767 0.459924 -0.575881 0
M  V30 4970 H 485.409 0.568587 -1.81293 0
M  V30 4971 H 483.559 2.94146 -2.53792 0
M  V30 4972 H 485.231 1.17661 -4.46042 0
M  V30 4973 H 483.474 1.03921 -4.21168 0
M  V30 4974 H 484.145 2.51426 -4.91415 0
M  V30 4975 H 486.621 2.86332 -3.01916 0
M  V30 4976 H 485.497 4.08703 -3.66406 0
M  V30 4977 H 485.758 3.97725 -1.93048 0
M  V30 4978 N 484.817 1.37938 0.762283 0
M  V30 4979 C 486.045 1.36883 1.55147 0
M  V30 4980 C 486.46 -0.0435348 1.8875 0
M  V30 4981 O 485.817 -1.00786 1.52146 0
M  V30 4982 C 485.868 2.21624 2.85596 0
M  V30 4983 O 485.589 3.57358 2.5343 0
M  V30 4984 C 487.09 2.28653 3.7978 0
M  V30 4985 H 484.31 0.468521 0.480343 0
M  V30 4986 H 486.854 1.81404 0.944079 0
M  V30 4987 H 485.009 1.80588 3.42734 0
M  V30 4988 H 485.423 4.01883 3.37032 0
M  V30 4989 H 486.897 2.9225 4.68288 0
M  V30 4990 H 487.374 1.29767 4.19592 0
M  V30 4991 H 487.98 2.70043 3.28568 0
M  V30 4992 N 486.295 -0.989507 1.22664 0
M  V30 4993 C 487.541 -1.7321 1.05481 0
M  V30 4994 C 487.874 -1.89852 -0.408635 0
M  V30 4995 O 487.149 -1.44416 -1.30285 0
M  V30 4996 C 487.432 -3.1357 1.77047 0
M  V30 4997 C 487.285 -3.04555 3.31008 0
M  V30 4998 C 488.604 -4.12812 1.5256 0
M  V30 4999 H 485.723 -0.628697 0.384589 0
M  V30 5000 H 488.365 -1.15258 1.51049 0
M  V30 5001 H 486.515 -3.63046 1.3831 0
M  V30 5002 H 488.187 -2.62674 3.7921 0
M  V30 5003 H 486.43 -2.41278 3.6051 0
M  V30 5004 H 487.101 -4.03894 3.76263 0
M  V30 5005 H 489.577 -3.72106 1.86215 0
M  V30 5006 H 488.453 -5.09132 2.05124 0
M  V30 5007 H 488.714 -4.39711 0.458936 0
M  V30 5008 N 487.773 -1.03688 -1.18687 0
M  V30 5009 C 488.72 -0.624624 -2.22187 0
M  V30 5010 C 489.69 0.365636 -1.62026 0
M  V30 5011 O 490.875 0.260481 -1.89014 0
M  V30 5012 C 488.015 0.0101738 -3.45099 0
M  V30 5013 C 487.128 -1.02709 -4.19613 0
M  V30 5014 C 486.263 -0.361213 -5.2997 0
M  V30 5015 C 485.302 -1.38384 -5.96252 0
M  V30 5016 N 484.439 -0.743196 -6.98155 0
M  V30 5017 H 489.279 -1.51176 -2.56807 0
M  V30 5018 H 486.816 -0.75636 -1.26165 0
M  V30 5019 H 488.774 0.395528 -4.15321 0
M  V30 5020 H 487.404 0.860848 -3.1111 0
M  V30 5021 H 486.456 -1.53043 -3.48256 0
M  V30 5022 H 487.768 -1.80398 -4.65036 0
M  V30 5023 H 486.922 0.0785537 -6.06649 0
M  V30 5024 H 485.661 0.447799 -4.8564 0
M  V30 5025 H 484.666 -1.83378 -5.18317 0
M  V30 5026 H 485.891 -2.19448 -6.42666 0
M  V30 5027 H 483.837 0.0455789 -6.55984 0
M  V30 5028 H 483.754 -1.45784 -7.41811 0
M  V30 5029 H 485.022 -0.327698 -7.78811 0
M  V30 5030 N 489.251 1.34841 -0.815825 0
M  V30 5031 C 490.491 2.00321 -0.406297 0
M  V30 5032 C 490.855 1.63293 1.00992 0
M  V30 5033 O 492.056 2.21563 1.52195 0
M  V30 5034 C 490.327 3.52421 -0.594469 0
M  V30 5035 S 491.886 4.37926 -0.276735 0
M  V30 5036 H 488.704 0.694155 -0.153848 0
M  V30 5037 H 491.306 1.64263 -1.06009 0
M  V30 5038 H 490.01 3.76858 -1.625 0
M  V30 5039 H 489.541 3.9333 0.0743157 0
M  V30 5040 H 491.556 4.87743 0.912215 0
M  V30 5041 N 490.729 0.570148 1.46925 0
M  V30 5042 C 491.639 -0.173061 2.33961 0
M  V30 5043 C 492.655 -0.898825 1.48987 0
M  V30 5044 O 493.831 -0.864825 1.81887 0
M  V30 5045 C 490.896 -1.18177 3.25937 0
M  V30 5046 C 489.957 -0.462041 4.26806 0
M  V30 5047 C 489.19 -1.4227 5.14388 0
M  V30 5048 O 489.413 -2.65842 5.04662 0
M  V30 5049 O 488.347 -0.940127 5.94513 0
M  V30 5050 H 492.173 0.541216 2.98839 0
M  V30 5051 H 489.758 0.330647 1.45695 0
M  V30 5052 H 491.64 -1.76372 3.82715 0
M  V30 5053 H 490.315 -1.87774 2.63671 0
M  V30 5054 H 489.222 0.161429 3.73752 0
M  V30 5055 H 490.555 0.192719 4.91823 0
M  V30 5056 N 492.207 -1.54576 0.307264 0
M  V30 5057 C 493.17 -2.22423 -0.553224 0
M  V30 5058 C 494.17 -1.21231 -1.05639 0
M  V30 5059 O 495.36 -1.45923 -0.951419 0
M  V30 5060 C 492.492 -2.91552 -1.76664 0
M  V30 5061 H 493.685 -2.99874 0.0396484 0
M  V30 5062 H 491.238 -1.56192 0.0581629 0
M  V30 5063 H 491.973 -2.18196 -2.39918 0
M  V30 5064 H 491.758 -3.65738 -1.41343 0
M  V30 5065 H 493.248 -3.43292 -2.37783 0
M  V30 5066 N 493.685 -0.035106 -1.57561 0
M  V30 5067 C 494.635 0.954034 -2.0708 0
M  V30 5068 C 495.619 1.2818 -0.972558 0
M  V30 5069 O 496.811 1.26691 -1.23606 0
M  V30 5070 C 493.94 2.23442 -2.60631 0
M  V30 5071 C 493.026 1.93475 -3.77396 0
M  V30 5072 N 493.417 1.33802 -4.87781 0
M  V30 5073 C 491.715 2.23434 -3.85996 0
M  V30 5074 C 492.416 1.21103 -5.68954 0
M  V30 5075 N 491.392 1.70855 -5.16052 0
M  V30 5076 H 495.194 0.487731 -2.89825 0
M  V30 5077 H 492.708 0.169759 -1.6151 0
M  V30 5078 H 494.705 2.95183 -2.94402 0
M  V30 5079 H 493.365 2.70693 -1.79319 0
M  V30 5080 H 494.376 1.01227 -5.07911 0
M  V30 5081 H 491.053 2.73317 -3.15601 0
M  V30 5082 H 492.443 0.749105 -6.67711 0
M  V30 5083 N 495.163 1.55791 0.238111 0
M  V30 5084 C 496.574 1.68383 0.806472 0
M  V30 5085 C 496.925 0.634157 1.85669 0
M  V30 5086 O 496.05 -0.217913 2.153 0
M  V30 5087 C 496.645 3.05268 1.46959 0
M  V30 5088 C 495.204 3.1977 1.98555 0
M  V30 5089 C 494.351 2.64279 0.839763 0
M  V30 5090 H 497.302 1.58694 0.0137535 0
M  V30 5091 H 497.323 3.00203 2.33792 0
M  V30 5092 H 496.835 3.81643 0.704993 0
M  V30 5093 H 494.936 2.48234 2.77868 0
M  V30 5094 H 495.049 4.26788 2.17689 0
M  V30 5095 H 493.413 2.22329 1.24265 0
M  V30 5096 H 494.196 3.43187 0.0881032 0
M  V30 5097 N 496.642 -0.504142 1.49319 0
M  V30 5098 C 498.058 -0.835039 1.36012 0
M  V30 5099 C 498.258 -1.97674 0.390808 0
M  V30 5100 O 497.314 -2.51867 -0.178655 0
M  V30 5101 C 498.627 -1.17821 2.76656 0
M  V30 5102 C 500.175 -1.2866 2.85334 0
M  V30 5103 C 500.65 -1.66307 4.26739 0
M  V30 5104 N 502.141 -1.73362 4.29534 0
M  V30 5105 C 502.876 -2.0393 5.35911 0
M  V30 5106 N 502.372 -2.32744 6.52535 0
M  V30 5107 N 504.165 -2.05155 5.23324 0
M  V30 5108 H 496.316 0.248764 2.10938 0
M  V30 5109 H 498.579 0.0486962 0.946748 0
M  V30 5110 H 498.285 -0.412682 3.4927 0
M  V30 5111 H 498.159 -2.12239 3.11825 0
M  V30 5112 H 500.546 -2.04285 2.1296 0
M  V30 5113 H 500.627 -0.323004 2.53752 0
M  V30 5114 H 500.271 -0.91234 4.99639 0
M  V30 5115 H 500.201 -2.63761 4.55782 0
M  V30 5116 H 502.692 -1.53268 3.45424 0
M  V30 5117 H 503.005 -2.55248 7.2943 0
M  V30 5118 H 501.35 -2.30207 6.55767 0
M  V30 5119 H 504.541 -1.82119 4.3122 0
M  V30 5120 H 504.714 -2.28644 6.06322 0
M  V30 5121 N 498.12 -1.38341 -0.754957 0
M  V30 5122 C 499.083 -1.35262 -1.85032 0
M  V30 5123 C 500.083 -0.253393 -1.58791 0
M  V30 5124 O 501.273 -0.510205 -1.66561 0
M  V30 5125 C 498.405 -1.10544 -3.22479 0
M  V30 5126 H 499.598 -2.32712 -1.8917 0
M  V30 5127 H 497.151 -1.23614 -0.956515 0
M  V30 5128 H 497.886 -0.136952 -3.24011 0
M  V30 5129 H 497.671 -1.90127 -3.4292 0
M  V30 5130 H 499.161 -1.11082 -4.02555 0
M  V30 5131 N 499.598 0.982988 -1.23187 0
M  V30 5132 C 500.545 2.07491 -1.01075 0
M  V30 5133 C 501.515 1.65949 0.070905 0
M  V30 5134 O 502.7 1.90629 -0.0806822 0
M  V30 5135 C 499.84 3.39751 -0.605261 0
M  V30 5136 C 498.953 3.94578 -1.75876 0
M  V30 5137 C 498.088 5.15039 -1.3003 0
M  V30 5138 C 497.127 5.62027 -2.42472 0
M  V30 5139 N 496.264 6.73719 -1.97602 0
M  V30 5140 H 501.104 2.25739 -1.9454 0
M  V30 5141 H 498.641 1.10659 -0.969179 0
M  V30 5142 H 500.599 4.15719 -0.351279 0
M  V30 5143 H 499.229 3.21473 0.292382 0
M  V30 5144 H 498.281 3.1539 -2.12681 0
M  V30 5145 H 499.593 4.25422 -2.60418 0
M  V30 5146 H 498.747 5.9833 -1.00429 0
M  V30 5147 H 497.486 4.85843 -0.425216 0
M  V30 5148 H 496.491 4.77318 -2.7285 0
M  V30 5149 H 497.716 5.93244 -3.30512 0
M  V30 5150 H 495.662 6.46287 -1.1247 0
M  V30 5151 H 495.579 7.03934 -2.75705 0
M  V30 5152 H 496.847 7.6049 -1.71098 0
M  V30 5153 N 501.076 1.04316 1.18135 0
M  V30 5154 C 502.322 0.749128 1.88457 0
M  V30 5155 C 502.655 -0.72149 1.803 0
M  V30 5156 O 501.93 -1.52676 1.205 0
M  V30 5157 C 502.213 1.21905 3.38838 0
M  V30 5158 C 502.066 2.75195 3.55792 0
M  V30 5159 C 503.385 0.811085 4.32561 0
M  V30 5160 H 500.504 0.273611 0.684329 0
M  V30 5161 H 503.146 1.29561 1.38975 0
M  V30 5162 H 501.296 0.754137 3.8111 0
M  V30 5163 H 502.968 3.29743 3.22595 0
M  V30 5164 H 501.211 3.14899 2.98364 0
M  V30 5165 H 501.882 3.03135 4.61317 0
M  V30 5166 H 504.358 1.21118 3.98082 0
M  V30 5167 H 503.234 1.16761 5.36338 0
M  V30 5168 H 503.495 -0.285596 4.41177 0
M  V30 5169 N 502.554 -1.34406 0.822964 0
M  V30 5170 C 503.782 -2.02508 0.424039 0
M  V30 5171 C 504.197 -1.61975 -0.970022 0
M  V30 5172 O 503.554 -0.825228 -1.62777 0
M  V30 5173 C 503.605 -3.57789 0.516657 0
M  V30 5174 O 503.326 -3.96853 1.85577 0
M  V30 5175 C 504.827 -4.43157 0.112637 0
M  V30 5176 H 502.047 -0.649063 0.170173 0
M  V30 5177 H 504.591 -1.7168 1.11113 0
M  V30 5178 H 502.746 -3.87207 -0.122353 0
M  V30 5179 H 503.16 -4.91538 1.83005 0
M  V30 5180 H 504.634 -5.51527 0.228526 0
M  V30 5181 H 505.111 -4.28939 -0.943837 0
M  V30 5182 H 505.717 -4.19067 0.725449 0
M  V30 5183 N 504.032 -0.577932 -1.46621 0
M  V30 5184 C 504.962 0.145917 -2.33044 0
M  V30 5185 C 505.943 0.888412 -1.45056 0
M  V30 5186 O 507.128 0.864812 -1.73881 0
M  V30 5187 C 504.258 1.16322 -3.27241 0
M  V30 5188 C 503.212 0.535868 -4.24632 0
M  V30 5189 C 502.538 1.65929 -5.08303 0
M  V30 5190 C 503.838 -0.523861 -5.19666 0
M  V30 5191 H 505.532 -0.575636 -2.93814 0
M  V30 5192 H 503.078 -0.278272 -1.41286 0
M  V30 5193 H 505.031 1.67793 -3.86553 0
M  V30 5194 H 503.755 1.91498 -2.64567 0
M  V30 5195 H 502.414 0.0422759 -3.66576 0
M  V30 5196 H 502.062 2.40061 -4.42018 0
M  V30 5197 H 501.762 1.2452 -5.74255 0
M  V30 5198 H 503.286 2.17686 -5.70478 0
M  V30 5199 H 504.7 -0.0944059 -5.73222 0
M  V30 5200 H 503.097 -0.858 -5.93935 0
M  V30 5201 H 504.167 -1.41197 -4.63887 0
M  V30 5202 N 505.51 1.54411 -0.315457 0
M  V30 5203 C 506.458 2.25514 0.569771 0
M  V30 5204 C 507.452 1.2663 1.12522 0
M  V30 5205 O 508.658 1.44434 1.07419 0
M  V30 5206 H 505.033 0.724257 0.202376 0
M  V30 5207 H 507.004 2.98354 -0.0522895 0
M  V30 5208 C 505.753 3.02004 1.72305 0
M  V30 5209 H 505.076 3.77906 1.30488 0
M  V30 5210 H 506.516 3.55014 2.31821 0
M  V30 5211 C 504.975 2.09822 2.63583 0
M  V30 5212 O 505.505 1.67574 3.65078 0
M  V30 5213 N 503.711 1.75478 2.31637 0
M  V30 5214 H 503.258 2.10032 1.49145 0
M  V30 5215 H 503.216 1.14079 2.92973 0
M  V30 5216 N 506.988 0.0434614 1.5754 0
M  V30 5217 C 508.236 -0.630786 1.92004 0
M  V30 5218 C 508.557 -1.71836 0.921807 0
M  V30 5219 O 507.827 -1.9587 -0.034522 0
M  V30 5220 H 506.407 -0.235988 0.708745 0
M  V30 5221 H 509.069 0.0946462 1.9467 0
M  V30 5222 H 508.165 -1.07434 2.93026 0
M  V30 5223 N 508.466 -1.55915 -0.229846 0
M  V30 5224 C 509.712 -1.78807 -0.956868 0
M  V30 5225 C 510.045 -0.611687 -1.84315 0
M  V30 5226 O 509.32 0.389398 -1.90562 0
M  V30 5227 C 509.603 -3.11718 -1.80288 0
M  V30 5228 C 509.456 -4.3979 -0.943649 0
M  V30 5229 C 510.775 -3.40999 -2.78222 0
M  V30 5230 H 507.894 -0.6505 -0.346437 0
M  V30 5231 H 510.536 -1.88648 -0.226252 0
M  V30 5232 H 508.686 -3.03459 -2.42579 0
M  V30 5233 H 510.358 -4.60059 -0.338121 0
M  V30 5234 H 508.601 -4.33086 -0.248705 0
M  V30 5235 H 509.272 -5.29208 -1.5698 0
M  V30 5236 H 511.748 -3.49332 -2.26067 0
M  V30 5237 H 510.624 -4.35183 -3.34526 0
M  V30 5238 H 510.885 -2.62754 -3.55546 0
M  V30 5239 N 509.944 0.496216 -1.49584 0
M  V30 5240 C 511.355 1.07765 -1.52459 0
M  V30 5241 C 511.706 1.93679 -0.31353 0
M  V30 5242 O 510.831 2.08588 0.576186 0
M  V30 5243 C 511.426 1.96111 -2.76271 0
M  V30 5244 C 509.985 2.49409 -2.81908 0
M  V30 5245 C 509.132 1.27142 -2.46435 0
M  V30 5246 H 512.083 0.279914 -1.56212 0
M  V30 5247 H 512.104 2.80862 -2.56704 0
M  V30 5248 H 511.616 1.33555 -3.64396 0
M  V30 5249 H 509.717 3.1559 -1.98074 0
M  V30 5250 H 509.83 2.86234 -3.84196 0
M  V30 5251 H 508.194 1.59818 -1.98319 0
M  V30 5252 H 508.977 0.662866 -3.3684 0
M  V30 5253 N 511.423 1.38739 0.74761 0
M  V30 5254 C 512.386 1.36241 1.84312 0
M  V30 5255 C 513.386 0.261811 1.58654 0
M  V30 5256 O 514.576 0.519031 1.66288 0
M  V30 5257 C 511.708 1.12253 3.21888 0
M  V30 5258 H 512.901 2.33712 1.87933 0
M  V30 5259 H 510.454 1.2412 0.949946 0
M  V30 5260 H 511.189 0.154133 3.23934 0
M  V30 5261 H 510.974 1.91943 3.41907 0
M  V30 5262 H 512.464 1.13215 4.0196 0
M  V30 5263 N 512.901 -0.976442 1.23707 0
M  V30 5264 C 513.833 -2.07212 0.979574 0
M  V30 5265 C 514.846 -1.6273 -0.0478528 0
M  V30 5266 O 516.035 -1.77506 0.18815 0
M  V30 5267 C 513.135 -3.35835 0.45479 0
M  V30 5268 C 512.308 -4.09268 1.54331 0
M  V30 5269 C 511.367 -5.16166 1.02271 0
M  V30 5270 O 510.393 -5.42827 1.71254 0
M  V30 5271 N 511.595 -5.80313 -0.147419 0
M  V30 5272 H 514.36 -2.29878 1.92292 0
M  V30 5273 H 511.921 -1.14343 1.14618 0
M  V30 5274 H 513.913 -4.04597 0.0914631 0
M  V30 5275 H 512.483 -3.10106 -0.394068 0
M  V30 5276 H 511.703 -3.34906 2.07923 0
M  V30 5277 H 512.991 -4.55095 2.27522 0
M  V30 5278 H 512.389 -5.61043 -0.724353 0
M  V30 5279 H 510.946 -6.50231 -0.451972 0
M  V30 5280 N 514.379 -1.04941 -1.1758 0
M  V30 5281 C 515.79 -0.784501 -1.69418 0
M  V30 5282 C 516.141 0.693625 -1.8353 0
M  V30 5283 O 515.266 1.53925 -1.52106 0
M  V30 5284 C 515.861 -1.41746 -3.07723 0
M  V30 5285 C 514.42 -1.20066 -3.56737 0
M  V30 5286 C 513.567 -1.5026 -2.33061 0
M  V30 5287 H 516.518 -1.21469 -1.02133 0
M  V30 5288 H 516.539 -0.825381 -3.7144 0
M  V30 5289 H 516.051 -2.49325 -2.9742 0
M  V30 5290 H 514.152 -0.144006 -3.72322 0
M  V30 5291 H 514.265 -1.90384 -4.39648 0
M  V30 5292 H 512.629 -0.922598 -2.37403 0
M  V30 5293 H 513.412 -2.58967 -2.25368 0
M  V30 5294 N 515.857 1.33968 -0.830081 0
M  V30 5295 C 516.787 2.31911 -0.271911 0
M  V30 5296 C 517.768 1.58571 0.61556 0
M  V30 5297 O 518.953 1.86514 0.540946 0
M  V30 5298 C 516.083 3.42737 0.561146 0
M  V30 5299 C 515.037 4.27383 -0.229789 0
M  V30 5300 C 514.363 5.29742 0.726463 0
M  V30 5301 C 515.663 5.02 -1.44197 0
M  V30 5302 H 517.357 2.78844 -1.09025 0
M  V30 5303 H 514.903 1.34061 -0.52571 0
M  V30 5304 H 516.856 4.10276 0.961867 0
M  V30 5305 H 515.58 2.94471 1.41261 0
M  V30 5306 H 514.239 3.61456 -0.611964 0
M  V30 5307 H 513.887 4.77736 1.57408 0
M  V30 5308 H 513.587 5.87255 0.20142 0
M  V30 5309 H 515.111 6.00149 1.12489 0
M  V30 5310 H 516.525 5.62355 -1.11488 0
M  V30 5311 H 514.922 5.69122 -1.90317 0
M  V30 5312 H 515.992 4.31281 -2.2164 0
M  V30 5313 N 517.335 0.585699 1.46312 0
M  V30 5314 C 518.583 0.072278 2.01971 0
M  V30 5315 C 518.904 -1.29345 1.45928 0
M  V30 5316 O 518.174 -1.84973 0.645109 0
M  V30 5317 H 516.754 0.023729 0.746623 0
M  V30 5318 H 519.416 0.762155 1.7938 0
M  V30 5319 H 518.512 0.00552767 3.121 0
M  V30 5320 N 518.813 -1.54241 0.323641 0
M  V30 5321 C 520.224 -1.85975 -0.164405 0
M  V30 5322 C 520.575 -1.24529 -1.51615 0
M  V30 5323 O 519.7 -0.551351 -2.09258 0
M  V30 5324 C 520.295 -3.37424 -0.305091 0
M  V30 5325 C 518.854 -3.69107 -0.737358 0
M  V30 5326 C 518.001 -2.76942 0.140884 0
M  V30 5327 H 520.952 -1.49088 0.543922 0
M  V30 5328 H 520.973 -3.63147 -1.13598 0
M  V30 5329 H 520.485 -3.82116 0.678876 0
M  V30 5330 H 518.586 -3.29947 -1.73107 0
M  V30 5331 H 518.699 -4.76035 -0.541053 0
M  V30 5332 H 517.063 -2.51795 -0.383572 0
M  V30 5333 H 517.846 -3.24461 1.12162 0
M  V30 5334 N 520.291 -0.0518155 -1.57515 0
M  V30 5335 C 521.707 0.304735 -1.56664 0
M  V30 5336 C 521.907 1.71395 -1.05953 0
M  V30 5337 O 520.963 2.42123 -0.716414 0
M  V30 5338 C 522.276 0.132614 -3.00407 0
M  V30 5339 C 523.824 0.20367 -3.12337 0
M  V30 5340 C 524.299 0.0600706 -4.57961 0
M  V30 5341 N 525.79 0.116326 -4.63054 0
M  V30 5342 C 526.525 0.0293363 -5.73392 0
M  V30 5343 N 526.021 -0.110038 -6.92713 0
M  V30 5344 N 527.814 0.0849651 -5.62036 0
M  V30 5345 H 519.965 -0.973056 -1.888 0
M  V30 5346 H 522.228 -0.377781 -0.869474 0
M  V30 5347 H 521.934 -0.839019 -3.41546 0
M  V30 5348 H 521.808 0.893376 -3.66468 0
M  V30 5349 H 524.195 1.16578 -2.71097 0
M  V30 5350 H 524.276 -0.587857 -2.48954 0
M  V30 5351 H 523.92 -0.898715 -4.99886 0
M  V30 5352 H 523.85 0.87075 -5.19351 0
M  V30 5353 H 526.341 0.22327 -3.7724 0
M  V30 5354 H 526.654 -0.169104 -7.72615 0
M  V30 5355 H 524.999 -0.145132 -6.94848 0
M  V30 5356 H 528.19 0.192411 -4.67704 0
M  V30 5357 H 528.363 0.0137131 -6.47999 0
M  V30 5358 N 521.769 1.56035 0.221574 0
M  V30 5359 C 522.732 1.91584 1.2581 0
M  V30 5360 C 523.732 0.794425 1.39805 0
M  V30 5361 O 524.922 1.06217 1.38071 0
M  V30 5362 C 522.054 2.16663 2.63192 0
M  V30 5363 H 523.247 2.8429 0.954935 0
M  V30 5364 H 520.8 1.49316 0.461988 0
M  V30 5365 H 521.535 1.26508 2.98607 0
M  V30 5366 H 521.32 2.98358 2.5441 0
M  V30 5367 H 522.81 2.45262 3.37988 0
M  V30 5368 N 523.247 -0.488276 1.49845 0
M  V30 5369 C 524.179 -1.60539 1.63584 0
M  V30 5370 C 525.192 -1.5434 0.517972 0
M  V30 5371 O 526.381 -1.60041 0.790516 0
M  V30 5372 C 523.481 -2.99374 1.58835 0
M  V30 5373 C 522.654 -3.30624 2.86368 0
M  V30 5374 C 521.713 -4.4893 2.74496 0
M  V30 5375 O 520.739 -4.50085 3.48443 0
M  V30 5376 N 521.941 -5.49591 1.86894 0
M  V30 5377 H 524.706 -1.49176 2.59936 0
M  V30 5378 H 522.267 -0.67639 1.47094 0
M  V30 5379 H 524.259 -3.76459 1.48529 0
M  V30 5380 H 522.829 -3.04595 0.702892 0
M  V30 5381 H 522.049 -2.42314 3.1093 0
M  V30 5382 H 523.337 -3.48305 3.70892 0
M  V30 5383 H 522.735 -5.51467 1.26097 0
M  V30 5384 H 521.292 -6.25728 1.82503 0
M  V30 5385 N 524.725 -1.39134 -0.740242 0
M  V30 5386 C 525.655 -1.40165 -1.86751 0
M  V30 5387 C 526.636 -0.265708 -1.68012 0
M  V30 5388 O 527.821 -0.47076 -1.88408 0
M  V30 5389 C 524.951 -1.2392 -3.2444 0
M  V30 5390 C 523.905 -2.34858 -3.57807 0
M  V30 5391 C 523.231 -2.03707 -4.94376 0
M  V30 5392 C 524.531 -3.77159 -3.61315 0
M  V30 5393 H 526.225 -2.345 -1.86145 0
M  V30 5394 H 523.771 -1.12875 -0.89416 0
M  V30 5395 H 525.724 -1.23263 -4.02969 0
M  V30 5396 H 524.448 -0.26051 -3.25559 0
M  V30 5397 H 523.107 -2.34723 -2.81604 0
M  V30 5398 H 522.755 -1.04289 -4.9207 0
M  V30 5399 H 522.455 -2.78016 -5.17669 0
M  V30 5400 H 523.979 -2.04691 -5.75268 0
M  V30 5401 H 525.393 -3.79252 -4.29931 0
M  V30 5402 H 523.79 -4.50784 -3.96124 0
M  V30 5403 H 524.86 -4.08513 -2.61238 0
M  V30 5404 N 526.204 0.969867 -1.24223 0
M  V30 5405 C 527.134 2.08191 -1.05729 0
M  V30 5406 C 528.115 1.70075 0.0290765 0
M  V30 5407 O 529.3 1.93712 -0.137583 0
M  V30 5408 C 526.43 3.40991 -0.658995 0
M  V30 5409 C 525.384 3.93054 -1.69389 0
M  V30 5410 C 524.71 5.22171 -1.15072 0
M  V30 5411 C 526.01 4.21137 -3.08935 0
M  V30 5412 H 527.704 2.23921 -1.98746 0
M  V30 5413 H 525.25 1.07602 -0.956967 0
M  V30 5414 H 527.203 4.18221 -0.51662 0
M  V30 5415 H 525.927 3.25155 0.30686 0
M  V30 5416 H 524.586 3.17977 -1.82444 0
M  V30 5417 H 524.234 5.02694 -0.175539 0
M  V30 5418 H 523.934 5.57973 -1.84229 0
M  V30 5419 H 525.458 6.02013 -1.02042 0
M  V30 5420 H 526.872 4.8908 -2.99121 0
M  V30 5421 H 525.269 4.68163 -3.75425 0
M  V30 5422 H 526.339 3.27996 -3.57137 0
M  V30 5423 N 527.682 1.05563 1.17022 0
M  V30 5424 C 528.612 0.681026 2.23348 0
M  V30 5425 C 529.593 -0.322983 1.67005 0
M  V30 5426 O 530.778 -0.199746 1.9317 0
M  V30 5427 C 527.908 0.0589053 3.4725 0
M  V30 5428 C 526.862 0.988082 4.16438 0
M  V30 5429 C 526.188 0.229646 5.34207 0
M  V30 5430 C 527.488 2.31388 4.68249 0
M  V30 5431 H 529.182 1.56993 2.54938 0
M  V30 5432 H 526.728 0.756302 1.2254 0
M  V30 5433 H 528.681 -0.214982 4.20851 0
M  V30 5434 H 527.405 -0.864968 3.14938 0
M  V30 5435 H 526.064 1.24659 3.44754 0
M  V30 5436 H 525.712 -0.697111 4.98146 0
M  V30 5437 H 525.412 0.848815 5.81437 0
M  V30 5438 H 526.936 -0.0368694 6.10589 0
M  V30 5439 H 528.35 2.09964 5.33468 0
M  V30 5440 H 526.747 2.88736 5.26072 0
M  V30 5441 H 527.817 2.94982 3.84855 0
M  V30 5442 N 529.16 -1.33526 0.837174 0
M  V30 5443 C 530.107 -2.29248 0.267169 0
M  V30 5444 C 531.077 -1.54252 -0.616071 0
M  V30 5445 O 532.262 -1.82559 -0.554699 0
M  V30 5446 C 529.402 -3.40638 -0.553152 0
M  V30 5447 C 528.515 -4.30548 0.353921 0
M  V30 5448 C 527.65 -5.29051 -0.477339 0
M  V30 5449 C 526.689 -6.106 0.42823 0
M  V30 5450 N 525.826 -7.01152 -0.364801 0
M  V30 5451 H 530.666 -2.77398 1.08877 0
M  V30 5452 H 528.203 -1.36496 0.54838 0
M  V30 5453 H 530.161 -4.03921 -1.04422 0
M  V30 5454 H 528.791 -2.93685 -1.33973 0
M  V30 5455 H 527.843 -3.68001 0.963289 0
M  V30 5456 H 529.155 -4.87631 1.04964 0
M  V30 5457 H 528.309 -5.97853 -1.0323 0
M  V30 5458 H 527.048 -4.72541 -1.2065 0
M  V30 5459 H 526.053 -5.40718 0.995219 0
M  V30 5460 H 527.278 -6.69193 1.15573 0
M  V30 5461 H 525.224 -6.47092 -1.07738 0
M  V30 5462 H 525.141 -7.5551 0.272238 0
M  V30 5463 H 526.409 -7.74263 -0.902054 0
M  V30 5464 N 530.638 -0.59345 -1.46 0
M  V30 5465 C 531.601 0.123538 -2.28867 0
M  V30 5466 C 532.601 0.808628 -1.38989 0
M  V30 5467 O 533.791 0.658945 -1.61256 0
M  V30 5468 C 530.923 1.1847 -3.19653 0
M  V30 5469 H 532.116 -0.604843 -2.93737 0
M  V30 5470 H 529.669 -0.351875 -1.52288 0
M  V30 5471 H 530.404 1.94431 -2.59552 0
M  V30 5472 H 530.189 0.69783 -3.8584 0
M  V30 5473 H 531.679 1.68726 -3.81997 0
M  V30 5474 N 532.116 1.54067 -0.331816 0
M  V30 5475 C 533.344 2.05131 0.269996 0
M  V30 5476 C 533.759 1.20749 1.45138 0
M  V30 5477 O 533.116 0.240069 1.80914 0
M  V30 5478 C 533.167 3.54728 0.696456 0
M  V30 5479 O 532.888 4.35906 -0.43794 0
M  V30 5480 C 534.389 4.21916 1.36021 0
M  V30 5481 H 531.609 0.668807 0.0542042 0
M  V30 5482 H 534.153 1.98777 -0.4804 0
M  V30 5483 H 532.308 3.61342 1.39681 0
M  V30 5484 H 532.722 5.24404 -0.100334 0
M  V30 5485 H 534.196 5.28015 1.60947 0
M  V30 5486 H 534.673 3.73538 2.31011 0
M  V30 5487 H 535.279 4.19463 0.702212 0
M  V30 5488 N 533.594 0.0601682 1.57485 0
M  V30 5489 C 535.005 -0.474217 1.80577 0
M  V30 5490 C 535.356 -1.70365 0.973147 0
M  V30 5491 O 534.481 -2.15544 0.192306 0
M  V30 5492 C 535.076 -0.867102 3.27516 0
M  V30 5493 C 533.635 -1.34642 3.51495 0
M  V30 5494 C 532.782 -0.32594 2.75378 0
M  V30 5495 H 535.733 0.285973 1.56102 0
M  V30 5496 H 535.754 -1.72938 3.38929 0
M  V30 5497 H 535.266 0.0278927 3.8809 0
M  V30 5498 H 533.367 -2.2603 2.96212 0
M  V30 5499 H 533.48 -1.33237 4.60201 0
M  V30 5500 H 531.844 -0.800749 2.41785 0
M  V30 5501 H 532.627 0.561125 3.38683 0
M  V30 5502 N 535.072 -1.5615 -0.213296 0
M  V30 5503 C 535.982 -1.96265 -1.28519 0
M  V30 5504 C 536.998 -0.86765 -1.50824 0
M  V30 5505 O 538.174 -1.17191 -1.63793 0
M  V30 5506 C 535.239 -2.27836 -2.61327 0
M  V30 5507 C 534.3 -3.50949 -2.47252 0
M  V30 5508 C 533.533 -3.81004 -3.73727 0
M  V30 5509 O 533.756 -3.12612 -4.77106 0
M  V30 5510 O 532.69 -4.74477 -3.70344 0
M  V30 5511 H 536.516 -2.87631 -0.974795 0
M  V30 5512 H 534.101 -1.43467 -0.416832 0
M  V30 5513 H 535.983 -2.49299 -3.39747 0
M  V30 5514 H 534.658 -1.39643 -2.9203 0
M  V30 5515 H 533.565 -3.34754 -1.67004 0
M  V30 5516 H 534.898 -4.39551 -2.21486 0
M  V30 5517 N 536.55 0.480323 -1.50102 0
M  V30 5518 C 537.827 1.24159 -1.51142 0
M  V30 5519 C 538.207 2.09605 -0.250818 0
M  V30 5520 O 537.555 2.15274 0.766118 0
M  V30 5521 C 537.765 2.08057 -2.80202 0
M  V30 5522 C 539.113 2.66556 -3.30504 0
M  V30 5523 O 540.137 2.18308 -2.81461 0
M  V30 5524 O 538.996 3.54442 -4.15973 0
M  V30 5525 H 536.09 0.562928 -0.605839 0
M  V30 5526 H 538.636 0.492899 -1.62384 0
M  V30 5527 H 537.408 1.45032 -3.6343 0
M  V30 5528 H 537.031 2.90079 -2.71919 0
M  V30 5529 N 538.028 1.39524 0.732853 0
M  V30 5530 C 538.976 1.38563 1.86824 0
M  V30 5531 C 539.97 0.268467 1.67259 0
M  V30 5532 O 541.176 0.438613 1.74574 0
M  V30 5533 H 537.551 0.432737 0.615014 0
M  V30 5534 H 539.522 2.34328 1.84751 0
M  V30 5535 C 538.271 1.2481 3.24527 0
M  V30 5536 H 537.594 2.10044 3.40179 0
M  V30 5537 H 539.034 1.28194 4.04156 0
M  V30 5538 C 537.493 -0.0432825 3.36872 0
M  V30 5539 O 538.023 -1.01268 3.88726 0
M  V30 5540 N 536.229 -0.107055 2.90403 0
M  V30 5541 H 535.776 0.682512 2.48394 0
M  V30 5542 H 535.734 -0.970618 2.99042 0
M  V30 5543 N 539.506 -0.963266 1.24736 0
M  V30 5544 C 540.754 -1.70343 1.08755 0
M  V30 5545 C 541.075 -1.91387 -0.373619 0
M  V30 5546 O 540.345 -1.4948 -1.2662 0
M  V30 5547 H 538.925 -0.631224 0.399456 0
M  V30 5548 H 541.587 -1.15859 1.56725 0
M  V30 5549 H 540.683 -2.68616 1.58909 0
M  V30 5550 N 540.985 -1.06182 -1.16461 0
M  V30 5551 C 542.401 -0.785065 -1.38956 0
M  V30 5552 C 542.601 0.616103 -1.9185 0
M  V30 5553 O 541.657 1.37686 -2.11657 0
M  V30 5554 C 542.97 -1.84902 -2.37132 0
M  V30 5555 C 544.518 -1.8724 -2.50819 0
M  V30 5556 C 544.993 -2.92686 -3.52277 0
M  V30 5557 N 546.484 -2.91712 -3.59803 0
M  V30 5558 C 547.219 -3.69949 -4.38093 0
M  V30 5559 N 546.715 -4.58 -5.19815 0
M  V30 5560 N 548.508 -3.58346 -4.33064 0
M  V30 5561 H 540.659 -1.96569 -0.804634 0
M  V30 5562 H 542.922 -0.851747 -0.416211 0
M  V30 5563 H 542.628 -2.85518 -2.0536 0
M  V30 5564 H 542.502 -1.69908 -3.36766 0
M  V30 5565 H 544.889 -0.872827 -2.81897 0
M  V30 5566 H 544.97 -2.06311 -1.51226 0
M  V30 5567 H 544.614 -3.92835 -3.21937 0
M  V30 5568 H 544.544 -2.70864 -4.51598 0
M  V30 5569 H 547.035 -2.27876 -3.01464 0
M  V30 5570 H 547.348 -5.14357 -5.76764 0
M  V30 5571 H 545.693 -4.62056 -5.19162 0
M  V30 5572 H 548.884 -2.88943 -3.68279 0
M  V30 5573 H 549.057 -4.19563 -4.93833 0
M  V30 5574 N 542.463 1.3308 -0.844243 0
M  V30 5575 C 543.688 2.02341 -0.455282 0
M  V30 5576 C 544.113 1.6308 0.93737 0
M  V30 5577 O 543.471 0.826118 1.61385 0
M  V30 5578 C 543.519 3.55743 -0.58988 0
M  V30 5579 O 542.623 4.1063 0.38166 0
M  V30 5580 H 541.964 0.637898 -0.184343 0
M  V30 5581 H 544.494 1.6986 -1.14056 0
M  V30 5582 H 544.504 4.05243 -0.473522 0
M  V30 5583 H 543.179 3.83662 -1.60549 0
M  V30 5584 H 541.756 3.72236 0.22241 0
M  V30 5585 N 543.941 0.601185 1.45683 0
M  V30 5586 C 545.188 0.0938811 2.02282 0
M  V30 5587 C 545.516 -1.27315 1.47041 0
M  V30 5588 O 544.771 -1.85193 0.632623 0
M  V30 5589 C 545.07 -0.00222425 3.574 0
M  V30 5590 C 544.736 1.29963 4.31764 0
M  V30 5591 C 543.398 1.65625 4.51798 0
M  V30 5592 C 545.75 2.1603 4.74321 0
M  V30 5593 C 543.078 2.87119 5.11644 0
M  V30 5594 C 545.43 3.36766 5.3551 0
M  V30 5595 C 544.094 3.72689 5.53768 0
M  V30 5596 H 543.364 0.0343535 0.740203 0
M  V30 5597 H 546.011 0.781522 1.74827 0
M  V30 5598 H 544.316 -0.773096 3.84097 0
M  V30 5599 H 546.013 -0.410794 3.9889 0
M  V30 5600 H 542.603 1.01204 4.1648 0
M  V30 5601 H 546.787 1.89778 4.58582 0
M  V30 5602 H 542.043 3.15065 5.2397 0
M  V30 5603 H 546.217 4.03713 5.67441 0
M  V30 5604 H 543.844 4.66918 5.99909 0
M  V30 5605 N 545.419 -1.53889 0.339982 0
M  V30 5606 C 546.644 -2.05741 -0.261798 0
M  V30 5607 C 547.069 -1.21354 -1.43718 0
M  V30 5608 O 546.427 -0.22645 -1.7988 0
M  V30 5609 C 546.475 -3.54542 -0.658228 0
M  V30 5610 O 545.579 -3.7302 -1.75869 0
M  V30 5611 H 544.92 -0.662529 -0.0441672 0
M  V30 5612 H 547.45 -1.98568 0.493161 0
M  V30 5613 H 547.46 -3.9711 -0.936368 0
M  V30 5614 H 546.135 -4.15412 0.201358 0
M  V30 5615 H 544.712 -3.42355 -1.47809 0
M  V30 5616 N 546.897 -0.0685191 -1.57451 0
M  V30 5617 C 548.137 0.605038 -1.9524 0
M  V30 5618 C 548.501 1.66974 -0.947816 0
M  V30 5619 O 549.702 2.39862 -1.21325 0
M  V30 5620 C 547.973 1.16999 -3.37707 0
M  V30 5621 S 549.532 1.85913 -3.97469 0
M  V30 5622 H 546.35 0.198203 -0.682815 0
M  V30 5623 H 548.952 -0.141594 -1.94987 0
M  V30 5624 H 547.656 0.383205 -4.08607 0
M  V30 5625 H 547.187 1.95305 -3.41496 0
M  V30 5626 H 549.202 3.14128 -3.84107 0
M  V30 5627 N 548.375 1.56261 0.205012 0
M  V30 5628 C 549.6 1.84491 0.947512 0
M  V30 5629 C 550.025 0.650894 1.76479 0
M  V30 5630 O 549.383 -0.40035 1.76824 0
M  V30 5631 C 549.431 3.10863 1.82747 0
M  V30 5632 O 548.535 2.90719 2.925 0
M  V30 5633 H 547.876 0.607783 0.267386 0
M  V30 5634 H 550.406 2.03485 0.213323 0
M  V30 5635 H 550.416 3.41399 2.23407 0
M  V30 5636 H 549.091 3.97392 1.2269 0
M  V30 5637 H 547.668 2.71457 2.55667 0
M  V30 5638 N 549.853 -0.472356 1.50355 0
M  V30 5639 C 550.816 -1.5529 1.68576 0
M  V30 5640 C 551.816 -1.50863 0.556511 0
M  V30 5641 O 553.006 -1.53505 0.823516 0
M  V30 5642 C 550.138 -2.94921 1.70981 0
M  V30 5643 H 551.331 -1.40451 2.64978 0
M  V30 5644 H 548.884 -0.698645 1.39816 0
M  V30 5645 H 549.619 -3.15204 0.762675 0
M  V30 5646 H 549.404 -2.99541 2.53017 0
M  V30 5647 H 550.894 -3.73372 1.87037 0
M  V30 5648 N 551.331 -1.39911 -0.725443 0
M  V30 5649 C 552.559 -1.40949 -1.51463 0
M  V30 5650 C 552.974 -0.0065242 -1.88799 0
M  V30 5651 O 552.331 0.967163 -1.54765 0
M  V30 5652 C 552.382 -2.29119 -2.79619 0
M  V30 5653 O 552.103 -3.63952 -2.43866 0
M  V30 5654 C 553.604 -2.38642 -3.73584 0
M  V30 5655 H 550.824 -0.481091 -0.467752 0
M  V30 5656 H 553.368 -1.83843 -0.895651 0
M  V30 5657 H 551.523 -1.89612 -3.37826 0
M  V30 5658 H 551.937 -4.10677 -3.26258 0
M  V30 5659 H 553.411 -3.04563 -4.60375 0
M  V30 5660 H 553.888 -1.40846 -4.16004 0
M  V30 5661 H 554.494 -2.78659 -3.21293 0
M  V30 5662 N 552.809 0.956637 -1.25245 0
M  V30 5663 C 553.739 2.07058 -1.07931 0
M  V30 5664 C 554.72 1.70096 0.0110361 0
M  V30 5665 O 555.905 1.93555 -0.158121 0
M  V30 5666 C 553.035 3.40272 -0.695124 0
M  V30 5667 C 551.989 3.91235 -1.73549 0
M  V30 5668 C 551.315 5.20921 -1.20604 0
M  V30 5669 C 552.615 4.17837 -3.13385 0
M  V30 5670 H 554.309 2.218 -2.01109 0
M  V30 5671 H 551.855 1.06581 -0.968326 0
M  V30 5672 H 553.808 4.1765 -0.560949 0
M  V30 5673 H 552.532 3.25462 0.272355 0
M  V30 5674 H 551.191 3.16025 -1.85807 0
M  V30 5675 H 550.839 5.02479 -0.228846 0
M  V30 5676 H 550.539 5.55987 -1.90136 0
M  V30 5677 H 552.063 6.00897 -1.08421 0
M  V30 5678 H 553.477 4.8588 -3.04292 0
M  V30 5679 H 551.874 4.64154 -3.80369 0
M  V30 5680 H 552.944 3.2419 -3.60595 0
M  V30 5681 N 554.287 1.06798 1.15896 0
M  V30 5682 C 555.197 0.694564 2.24083 0
M  V30 5683 C 556.213 -0.291687 1.71538 0
M  V30 5684 O 557.389 -0.139723 2.00915 0
M  V30 5685 C 554.454 0.0921014 3.46578 0
M  V30 5686 C 553.515 1.13087 4.14137 0
M  V30 5687 C 552.748 0.557064 5.30785 0
M  V30 5688 O 552.971 -0.628623 5.66925 0
M  V30 5689 O 551.905 1.29924 5.8771 0
M  V30 5690 H 555.731 1.59663 2.58344 0
M  V30 5691 H 553.316 0.840575 1.2351 0
M  V30 5692 H 555.198 -0.241884 4.20705 0
M  V30 5693 H 553.873 -0.78337 3.14078 0
M  V30 5694 H 552.78 1.51712 3.41957 0
M  V30 5695 H 554.113 1.97805 4.50704 0
M  V30 5696 N 555.766 -1.3263 0.851289 0
M  V30 5697 C 557.012 -1.9766 0.453694 0
M  V30 5698 C 557.345 -1.67225 -0.987396 0
M  V30 5699 O 556.62 -0.958693 -1.69232 0
M  V30 5700 C 556.903 -3.5344 0.68936 0
M  V30 5701 C 556.756 -3.93517 2.17862 0
M  V30 5702 C 558.075 -4.39866 0.143555 0
M  V30 5703 H 555.194 -0.717989 0.166314 0
M  V30 5704 H 557.836 -1.57068 1.06909 0
M  V30 5705 H 555.986 -3.88147 0.165546 0
M  V30 5706 H 557.658 -3.69006 2.76826 0
M  V30 5707 H 555.901 -3.42798 2.65841 0
M  V30 5708 H 556.572 -5.02065 2.29422 0
M  V30 5709 H 559.048 -4.11875 0.591451 0
M  V30 5710 H 557.924 -5.47858 0.338043 0
M  V30 5711 H 558.185 -4.31696 -0.953466 0
M  V30 5712 N 557.244 -0.608902 -1.45362 0
M  V30 5713 C 558.207 0.0992563 -2.28985 0
M  V30 5714 C 559.207 0.793841 -1.39838 0
M  V30 5715 O 560.397 0.641804 -1.61946 0
M  V30 5716 C 557.529 1.15073 -3.20891 0
M  V30 5717 H 558.722 -0.635964 -2.93079 0
M  V30 5718 H 556.275 -0.368007 -1.51906 0
M  V30 5719 H 557.01 1.91667 -2.616 0
M  V30 5720 H 556.795 0.656867 -3.86559 0
M  V30 5721 H 558.285 1.64665 -3.83765 0
M  V30 5722 N 558.722 1.53707 -0.348139 0
M  V30 5723 C 559.97 2.00591 0.246478 0
M  V30 5724 C 560.291 1.23753 1.50699 0
M  V30 5725 O 559.561 0.345964 1.92821 0
M  V30 5726 H 558.141 0.741053 0.0940679 0
M  V30 5727 H 560.803 1.89139 -0.470354 0
M  V30 5728 H 559.899 3.08297 0.485714 0
M  V30 5729 N 560.2 0.0768682 1.57412 0
M  V30 5730 C 561.132 -0.918248 2.10002 0
M  V30 5731 C 562.145 -1.25808 1.03325 0
M  V30 5732 O 563.334 -1.21438 1.30824 0
M  V30 5733 C 560.434 -2.23263 2.54964 0
M  V30 5734 C 559.607 -2.07088 3.8527 0
M  V30 5735 C 558.666 -3.21876 4.16272 0
M  V30 5736 O 557.692 -2.96643 4.8579 0
M  V30 5737 N 558.894 -4.4712 3.70221 0
M  V30 5738 H 561.659 -0.469209 2.96004 0
M  V30 5739 H 559.22 -0.108725 1.61535 0
M  V30 5740 H 561.212 -2.9897 2.72762 0
M  V30 5741 H 559.782 -2.59649 1.74072 0
M  V30 5742 H 559.002 -1.15818 3.76802 0
M  V30 5743 H 560.29 -1.93537 4.70554 0
M  V30 5744 H 559.688 -4.70506 3.1407 0
M  V30 5745 H 558.245 -5.19837 3.93209 0
M  V30 5746 N 561.678 -1.56367 -0.196722 0
M  V30 5747 C 562.608 -1.97442 -1.24655 0
M  V30 5748 C 563.589 -0.846147 -1.47561 0
M  V30 5749 O 564.774 -1.11035 -1.59326 0
M  V30 5750 C 561.904 -2.31253 -2.59112 0
M  V30 5751 C 560.858 -3.46804 -2.50821 0
M  V30 5752 C 560.184 -3.66286 -3.89536 0
M  V30 5753 C 561.484 -4.8104 -2.03465 0
M  V30 5754 H 563.178 -2.85388 -0.905216 0
M  V30 5755 H 560.724 -1.37304 -0.434002 0
M  V30 5756 H 562.677 -2.58583 -3.32736 0
M  V30 5757 H 561.401 -1.40188 -2.94983 0
M  V30 5758 H 560.06 -3.19563 -1.79653 0
M  V30 5759 H 559.708 -2.72555 -4.22756 0
M  V30 5760 H 559.408 -4.4402 -3.84864 0
M  V30 5761 H 560.932 -3.9599 -4.64784 0
M  V30 5762 H 562.346 -5.07411 -2.66846 0
M  V30 5763 H 560.743 -5.62232 -2.09798 0
M  V30 5764 H 561.813 -4.74732 -0.98781 0
M  V30 5765 N 563.156 0.464375 -1.50603 0
M  V30 5766 C 564.405 1.21277 -1.61167 0
M  V30 5767 C 564.718 1.92953 -0.320704 0
M  V30 5768 O 565.924 2.69778 -0.30534 0
M  V30 5769 C 564.38 2.20403 -2.84518 0
M  V30 5770 C 563.988 1.54499 -4.20516 0
M  V30 5771 C 565.732 2.95843 -3.0443 0
M  V30 5772 C 563.639 2.51951 -5.35047 0
M  V30 5773 H 562.569 0.456367 -0.600204 0
M  V30 5774 H 565.22 0.48254 -1.77042 0
M  V30 5775 H 563.602 2.96746 -2.62217 0
M  V30 5776 H 564.776 0.83899 -4.53098 0
M  V30 5777 H 563.091 0.913152 -4.06264 0
M  V30 5778 H 565.688 3.6879 -3.87167 0
M  V30 5779 H 566.031 3.55622 -2.16423 0
M  V30 5780 H 566.564 2.26611 -3.26944 0
M  V30 5781 H 563.303 1.96901 -6.25228 0
M  V30 5782 H 562.823 3.20683 -5.06875 0
M  V30 5783 H 564.502 3.13643 -5.65895 0
M  V30 5784 N 564.634 1.40294 0.718013 0
M  V30 5785 C 565.584 1.36847 1.82365 0
M  V30 5786 C 566.568 0.246424 1.59002 0
M  V30 5787 O 567.76 0.485336 1.70216 0
M  V30 5788 C 564.889 1.23105 3.20469 0
M  V30 5789 C 563.975 2.4008 3.49603 0
M  V30 5790 N 564.366 3.65562 3.49568 0
M  V30 5791 C 562.664 2.33407 3.80049 0
M  V30 5792 C 563.365 4.43015 3.76978 0
M  V30 5793 N 562.341 3.72823 3.95606 0
M  V30 5794 H 566.143 2.31811 1.80668 0
M  V30 5795 H 563.657 1.34031 0.91703 0
M  V30 5796 H 565.654 1.18718 3.9964 0
M  V30 5797 H 564.314 0.291056 3.23393 0
M  V30 5798 H 565.325 3.98756 3.30476 0
M  V30 5799 H 562.002 1.47762 3.90478 0
M  V30 5800 H 563.392 5.51859 3.83276 0
M  V30 5801 N 566.112 -0.949982 1.2575 0
M  V30 5802 C 567.059 -2.04738 1.06541 0
M  V30 5803 C 568.029 -1.66078 -0.0268818 0
M  V30 5804 O 569.214 -1.90348 0.131196 0
M  V30 5805 C 566.354 -3.38027 0.695127 0
M  V30 5806 C 565.467 -3.89776 1.86276 0
M  V30 5807 C 564.602 -5.11411 1.4364 0
M  V30 5808 C 563.641 -5.554 2.57287 0
M  V30 5809 N 562.778 -6.68244 2.15395 0
M  V30 5810 H 567.618 -2.20502 2.00457 0
M  V30 5811 H 565.155 -1.0805 0.998178 0
M  V30 5812 H 567.113 -4.14641 0.461375 0
M  V30 5813 H 565.743 -3.22135 -0.207046 0
M  V30 5814 H 564.795 -3.0964 2.20969 0
M  V30 5815 H 566.107 -4.18368 2.71606 0
M  V30 5816 H 565.261 -5.95457 1.16257 0
M  V30 5817 H 564 -4.84545 0.553879 0
M  V30 5818 H 563.005 -4.69916 2.85409 0
M  V30 5819 H 564.23 -5.84272 3.46125 0
M  V30 5820 H 562.176 -6.43078 1.29565 0
M  V30 5821 H 562.093 -6.96377 2.94272 0
M  V30 5822 H 563.361 -7.55687 1.91201 0
M  V30 5823 N 567.59 -1.07411 -1.15328 0
M  V30 5824 C 568.538 -0.689316 -2.22151 0
M  V30 5825 C 569.532 0.300156 -1.6672 0
M  V30 5826 O 570.738 0.163804 -1.79253 0
M  V30 5827 H 567.113 -0.204834 -0.723566 0
M  V30 5828 H 569.084 -1.59988 -2.51886 0
M  V30 5829 C 567.833 -0.103848 -3.47545 0
M  V30 5830 H 567.156 -0.856367 -3.90521 0
M  V30 5831 H 568.596 0.127725 -4.23808 0
M  V30 5832 C 567.055 1.15563 -3.1646 0
M  V30 5833 O 567.585 2.242 -3.33312 0
M  V30 5834 N 565.791 1.06203 -2.70498 0
M  V30 5835 H 565.338 0.177933 -2.56985 0
M  V30 5836 H 565.296 1.90553 -2.50074 0
M  V30 5837 N 569.068 1.32177 -0.85831 0
M  V30 5838 C 570 2.27688 -0.262835 0
M  V30 5839 C 571.013 1.52588 0.567513 0
M  V30 5840 O 572.202 1.74156 0.391407 0
M  V30 5841 C 569.302 3.32668 0.646937 0
M  V30 5842 C 568.475 4.37148 -0.148372 0
M  V30 5843 C 567.534 5.21686 0.687728 0
M  V30 5844 O 566.56 5.69074 0.119934 0
M  V30 5845 N 567.762 5.44892 2.00182 0
M  V30 5846 H 570.527 2.79426 -1.08356 0
M  V30 5847 H 568.088 1.45076 -0.718647 0
M  V30 5848 H 570.08 3.86134 1.2117 0
M  V30 5849 H 568.65 2.81061 1.36834 0
M  V30 5850 H 567.87 3.83915 -0.894572 0
M  V30 5851 H 569.158 5.04038 -0.694514 0
M  V30 5852 H 568.556 5.08128 2.4864 0
M  V30 5853 H 567.113 6.0134 2.51463 0
M  V30 5854 N 570.547 0.616602 1.45037 0
M  V30 5855 C 571.775 0.121968 2.0654 0
M  V30 5856 C 572.19 -1.19743 1.45969 0
M  V30 5857 O 571.547 -1.73133 0.577168 0
M  V30 5858 C 571.598 -0.0145171 3.61497 0
M  V30 5859 O 571.319 1.25269 4.19809 0
M  V30 5860 C 572.82 -0.539555 4.40004 0
M  V30 5861 H 570.04 0.0729837 0.667019 0
M  V30 5862 H 572.584 0.846891 1.8614 0
M  V30 5863 H 570.739 -0.689809 3.81209 0
M  V30 5864 H 571.153 1.08816 5.13088 0
M  V30 5865 H 572.627 -0.584112 5.48901 0
M  V30 5866 H 573.104 -1.56368 4.10421 0
M  V30 5867 H 573.71 0.101995 4.25178 0
M  V30 5868 N 572.025 -1.5352 0.356285 0
M  V30 5869 C 573.441 -1.59599 0.00485267 0
M  V30 5870 C 573.641 -1.37179 -1.47595 0
M  V30 5871 O 572.697 -1.17234 -2.23635 0
M  V30 5872 C 574.01 -2.97277 0.452454 0
M  V30 5873 C 575.558 -3.10357 0.405881 0
M  V30 5874 C 576.033 -4.50432 0.829148 0
M  V30 5875 N 577.524 -4.5652 0.783838 0
M  V30 5876 C 578.259 -5.63077 1.08315 0
M  V30 5877 N 577.755 -6.77429 1.45126 0
M  V30 5878 N 579.548 -5.53014 1.00655 0
M  V30 5879 H 571.699 -1.66346 1.32071 0
M  V30 5880 H 573.962 -0.77971 0.539218 0
M  V30 5881 H 573.668 -3.18792 1.48542 0
M  V30 5882 H 573.542 -3.76836 -0.165762 0
M  V30 5883 H 575.929 -2.88558 -0.617934 0
M  V30 5884 H 576.01 -2.32828 1.05947 0
M  V30 5885 H 575.654 -4.72968 1.85103 0
M  V30 5886 H 575.584 -5.26378 0.152906 0
M  V30 5887 H 578.075 -3.74408 0.512513 0
M  V30 5888 H 578.388 -7.54669 1.66415 0
M  V30 5889 H 576.733 -6.78844 1.48983 0
M  V30 5890 H 579.924 -4.62557 0.718215 0
M  V30 5891 H 580.097 -6.35964 1.24315 0
M  V30 5892 N 573.503 -0.0852151 -1.57369 0
M  V30 5893 C 574.413 0.891712 -2.16992 0
M  V30 5894 C 575.429 1.3174 -1.13669 0
M  V30 5895 O 576.605 1.38735 -1.45995 0
M  V30 5896 C 573.67 2.13635 -2.73059 0
M  V30 5897 C 572.731 1.7658 -3.91303 0
M  V30 5898 C 571.964 2.95111 -4.44686 0
M  V30 5899 O 572.187 4.09539 -3.97032 0
M  V30 5900 O 571.121 2.74149 -5.35841 0
M  V30 5901 H 574.947 0.414477 -3.00858 0
M  V30 5902 H 572.532 0.138598 -1.48756 0
M  V30 5903 H 574.414 2.86595 -3.08935 0
M  V30 5904 H 573.089 2.6043 -1.92244 0
M  V30 5905 H 571.996 1.00831 -3.60255 0
M  V30 5906 H 573.329 1.34557 -4.7345 0
M  V30 5907 N 574.981 1.5647 0.188427 0
M  V30 5908 C 575.911 1.98101 1.23606 0
M  V30 5909 C 576.892 0.853961 1.47111 0
M  V30 5910 O 578.077 1.11879 1.58735 0
M  V30 5911 C 575.207 2.32624 2.57882 0
M  V30 5912 C 574.161 3.48129 2.48978 0
M  V30 5913 C 573.487 3.68347 3.87588 0
M  V30 5914 C 574.787 4.82112 2.00911 0
M  V30 5915 H 576.481 2.85864 0.890068 0
M  V30 5916 H 574.027 1.37532 0.426714 0
M  V30 5917 H 575.98 2.60343 3.3136 0
M  V30 5918 H 574.704 1.41751 2.94235 0
M  V30 5919 H 573.363 3.20511 1.77956 0
M  V30 5920 H 573.011 2.74793 4.21305 0
M  V30 5921 H 572.711 4.46055 3.82503 0
M  V30 5922 H 574.235 3.98449 4.62678 0
M  V30 5923 H 575.649 5.08819 2.64151 0
M  V30 5924 H 574.046 5.63337 2.06814 0
M  V30 5925 H 575.116 4.75249 0.96262 0
M  V30 5926 N 576.459 -0.456382 1.50847 0
M  V30 5927 C 577.875 -0.791345 1.386 0
M  V30 5928 C 578.075 -1.9633 0.453498 0
M  V30 5929 O 577.131 -2.52308 -0.0984353 0
M  V30 5930 C 578.444 -1.08959 2.80265 0
M  V30 5931 C 579.992 -1.19517 2.89283 0
M  V30 5932 C 580.467 -1.52647 4.31814 0
M  V30 5933 N 581.958 -1.59609 4.34832 0
M  V30 5934 C 582.693 -1.86777 5.42127 0
M  V30 5935 N 582.189 -2.11866 6.59609 0
M  V30 5936 N 583.982 -1.88402 5.29586 0
M  V30 5937 H 576.133 0.315746 2.1004 0
M  V30 5938 H 578.396 0.0787916 0.94472 0
M  V30 5939 H 578.102 -0.301355 3.50407 0
M  V30 5940 H 577.976 -2.02211 3.18419 0
M  V30 5941 H 580.363 -1.97406 2.19351 0
M  V30 5942 H 580.444 -0.242111 2.54652 0
M  V30 5943 H 580.088 -0.752922 5.02288 0
M  V30 5944 H 580.018 -2.49127 4.63943 0
M  V30 5945 H 582.509 -1.42201 3.50125 0
M  V30 5946 H 582.822 -2.31912 7.37182 0
M  V30 5947 H 581.167 -2.09228 6.62758 0
M  V30 5948 H 584.358 -1.68307 4.36795 0
M  V30 5949 H 584.531 -2.09238 6.13289 0
M  V30 5950 N 577.937 -1.40673 -0.710563 0
M  V30 5951 C 579.183 -1.39428 -1.47267 0
M  V30 5952 C 579.516 0.00182129 -1.942 0
M  V30 5953 O 578.791 0.971387 -1.68506 0
M  V30 5954 C 579.074 -2.38812 -2.6952 0
M  V30 5955 C 578.927 -3.87467 -2.28449 0
M  V30 5956 C 580.246 -2.3566 -3.71689 0
M  V30 5957 H 577.365 -0.507768 -0.534173 0
M  V30 5958 H 580.007 -1.71843 -0.810547 0
M  V30 5959 H 578.157 -2.113 -3.26013 0
M  V30 5960 H 579.829 -4.25825 -1.77399 0
M  V30 5961 H 578.072 -4.03058 -1.60395 0
M  V30 5962 H 578.743 -4.5253 -3.16103 0
M  V30 5963 H 581.219 -2.6004 -3.24836 0
M  V30 5964 H 580.095 -3.07237 -4.54859 0
M  V30 5965 H 580.356 -1.36996 -4.20339 0
M  V30 5966 N 579.415 0.9433 -1.26252 0
M  V30 5967 C 580.345 2.05902 -1.10122 0
M  V30 5968 C 581.326 1.70099 -0.00700552 0
M  V30 5969 O 582.511 1.93377 -0.178641 0
M  V30 5970 C 579.641 3.39516 -0.731175 0
M  V30 5971 C 578.595 3.89372 -1.77688 0
M  V30 5972 C 577.921 5.19613 -1.26122 0
M  V30 5973 C 579.221 4.14489 -3.17799 0
M  V30 5974 H 580.915 2.19655 -2.03451 0
M  V30 5975 H 578.461 1.05548 -0.979576 0
M  V30 5976 H 580.414 4.17031 -0.605215 0
M  V30 5977 H 579.138 3.25733 0.23782 0
M  V30 5978 H 577.797 3.14036 -1.89148 0
M  V30 5979 H 577.445 5.02208 -0.282128 0
M  V30 5980 H 577.145 5.53939 -1.96023 0
M  V30 5981 H 578.669 5.99713 -1.14789 0
M  V30 5982 H 580.083 4.82625 -3.09428 0
M  V30 5983 H 578.48 4.60094 -3.85271 0
M  V30 5984 H 579.55 3.20347 -3.64014 0
M  V30 5985 N 580.893 1.08022 1.14757 0
M  V30 5986 C 582.123 0.827646 1.89298 0
M  V30 5987 C 582.531 -0.623506 1.78631 0
M  V30 5988 O 581.874 -1.43991 1.14071 0
M  V30 5989 C 581.936 1.16553 3.40082 0
M  V30 5990 C 581.6 2.61866 3.74533 0
M  V30 5991 C 582.597 3.60116 3.74984 0
M  V30 5992 C 580.282 2.97619 4.04633 0
M  V30 5993 C 582.276 4.92151 4.05051 0
M  V30 5994 C 579.963 4.2985 4.34364 0
M  V30 5995 C 580.961 5.26926 4.34555 0
M  V30 5996 O 580.649 6.5678 4.63568 0
M  V30 5997 H 580.381 0.298396 0.606577 0
M  V30 5998 H 582.935 1.44187 1.46285 0
M  V30 5999 H 581.165 0.494296 3.83528 0
M  V30 6000 H 582.854 0.894407 3.95923 0
M  V30 6001 H 583.62 3.33837 3.51821 0
M  V30 6002 H 579.499 2.22702 4.03639 0
M  V30 6003 H 583.043 5.67915 4.05115 0
M  V30 6004 H 578.94 4.55879 4.56995 0
M  V30 6005 H 579.708 6.62035 4.81303 0
M  V30 6006 N 582.371 -1.3172 0.865308 0
M  V30 6007 C 583.619 -1.96487 0.472995 0
M  V30 6008 C 583.94 -1.68761 -0.976975 0
M  V30 6009 O 583.21 -1.00051 -1.68424 0
M  V30 6010 H 581.79 -0.726947 0.171922 0
M  V30 6011 H 584.452 -1.60612 1.10407 0
M  V30 6012 H 583.548 -3.0574 0.62687 0
M  V30 6013 N 583.85 -0.624285 -1.44708 0
M  V30 6014 C 585.26 -0.2092 -1.85524 0
M  V30 6015 C 585.611 1.23783 -1.52225 0
M  V30 6016 O 584.736 1.94089 -0.956986 0
M  V30 6017 C 585.332 -0.372897 -3.36742 0
M  V30 6018 C 583.891 -0.012374 -3.76398 0
M  V30 6019 C 583.038 -0.68951 -2.68591 0
M  V30 6020 H 585.989 -0.829894 -1.35272 0
M  V30 6021 H 586.01 0.390134 -3.78495 0
M  V30 6022 H 585.522 -1.42615 -3.60947 0
M  V30 6023 H 583.623 1.03941 -3.57809 0
M  V30 6024 H 583.736 -0.417663 -4.77276 0
M  V30 6025 H 582.1 -0.125484 -2.54391 0
M  V30 6026 H 582.883 -1.74522 -2.9563 0
M  V30 6027 N 585.328 1.53329 -0.364422 0
M  V30 6028 C 586.744 1.59594 -0.0133165 0
M  V30 6029 C 586.944 1.37959 1.46865 0
M  V30 6030 O 586 1.18418 2.2301 0
M  V30 6031 C 587.313 2.97032 -0.468213 0
M  V30 6032 C 588.861 3.10138 -0.422334 0
M  V30 6033 C 589.336 4.49986 -0.853024 0
M  V30 6034 N 590.827 4.56098 -0.808037 0
M  V30 6035 C 591.562 5.62495 -1.11299 0
M  V30 6036 N 591.058 6.7665 -1.48717 0
M  V30 6037 N 592.851 5.52473 -1.03586 0
M  V30 6038 H 585.002 1.65644 -1.32951 0
M  V30 6039 H 587.265 0.77684 -0.543345 0
M  V30 6040 H 586.971 3.18 -1.5023 0
M  V30 6041 H 586.845 3.76918 0.145775 0
M  V30 6042 H 589.232 2.88881 0.602622 0
M  V30 6043 H 589.313 2.32263 -1.0718 0
M  V30 6044 H 588.957 4.7198 -1.87609 0
M  V30 6045 H 588.887 5.26289 -0.180819 0
M  V30 6046 H 591.378 3.74131 -0.532361 0
M  V30 6047 H 591.691 7.53776 -1.70415 0
M  V30 6048 H 590.036 6.78044 -1.52581 0
M  V30 6049 H 593.227 4.6217 -0.742736 0
M  V30 6050 H 593.4 6.35295 -1.27686 0
M  V30 6051 N 586.806 0.0935595 1.57322 0
M  V30 6052 C 587.736 -0.863062 2.16964 0
M  V30 6053 C 588.717 -1.29528 1.10256 0
M  V30 6054 O 589.902 -1.36245 1.38387 0
M  V30 6055 C 587.032 -2.12276 2.74875 0
M  V30 6056 C 585.986 -1.82921 3.86942 0
M  V30 6057 C 585.312 -3.15707 4.31548 0
M  V30 6058 C 586.612 -1.11737 5.10208 0
M  V30 6059 H 588.306 -0.366145 2.97153 0
M  V30 6060 H 585.852 -0.174673 1.42937 0
M  V30 6061 H 587.805 -2.79634 3.1525 0
M  V30 6062 H 586.529 -2.64248 1.91938 0
M  V30 6063 H 585.188 -1.17961 3.47103 0
M  V30 6064 H 584.836 -3.65563 3.45504 0
M  V30 6065 H 584.536 -2.96849 5.07104 0
M  V30 6066 H 586.06 -3.84226 4.74555 0
M  V30 6067 H 587.474 -1.69203 5.47762 0
M  V30 6068 H 585.871 -1.03064 5.91183 0
M  V30 6069 H 586.941 -0.0998818 4.84797 0
M  V30 6070 N 588.284 -1.56567 -0.180126 0
M  V30 6071 C 589.561 -1.7235 -0.924931 0
M  V30 6072 C 589.941 -0.652523 -2.00762 0
M  V30 6073 O 589.289 0.334115 -2.26044 0
M  V30 6074 C 589.499 -3.1523 -1.49771 0
M  V30 6075 C 590.847 -3.75921 -1.97405 0
M  V30 6076 O 591.871 -3.18452 -1.59583 0
M  V30 6077 O 590.73 -4.7681 -2.67048 0
M  V30 6078 H 587.824 -0.703502 -0.434758 0
M  V30 6079 H 590.37 -1.6886 -0.168647 0
M  V30 6080 H 589.142 -3.84656 -0.718027 0
M  V30 6081 H 588.765 -3.23009 -2.31842 0
M  V30 6082 N 589.762 0.448376 -1.51087 0
M  V30 6083 C 590.672 1.56882 -1.74428 0
M  V30 6084 C 591.688 1.62268 -0.62809 0
M  V30 6085 O 592.864 1.79716 -0.909075 0
M  V30 6086 C 589.929 2.92947 -1.85426 0
M  V30 6087 C 588.99 2.97766 -3.09247 0
M  V30 6088 C 588.223 4.27341 -3.19711 0
M  V30 6089 O 588.446 5.19112 -2.36387 0
M  V30 6090 O 587.38 4.38219 -4.12611 0
M  V30 6091 H 591.206 1.40104 -2.69452 0
M  V30 6092 H 588.791 0.630247 -1.35456 0
M  V30 6093 H 590.673 3.73719 -1.94709 0
M  V30 6094 H 589.348 3.09876 -0.935887 0
M  V30 6095 H 588.255 2.15989 -3.0545 0
M  V30 6096 H 589.588 2.8578 -4.00738 0
M  V30 6097 N 591.24 1.41047 0.703093 0
M  V30 6098 C 592.656 1.23351 1.01275 0
M  V30 6099 C 592.856 0.11754 2.01157 0
M  V30 6100 O 591.912 -0.520518 2.47077 0
M  V30 6101 C 593.225 2.58001 1.54454 0
M  V30 6102 C 594.773 2.65119 1.66376 0
M  V30 6103 C 595.248 4.00067 2.22958 0
M  V30 6104 N 596.739 4.01875 2.30328 0
M  V30 6105 C 597.474 5.03087 2.75119 0
M  V30 6106 N 596.97 6.14692 3.19571 0
M  V30 6107 N 598.763 4.90451 2.74616 0
M  V30 6108 H 590.914 2.1236 0.0412686 0
M  V30 6109 H 593.177 0.944543 0.08089 0
M  V30 6110 H 592.883 3.40378 0.88521 0
M  V30 6111 H 592.757 2.79962 2.52786 0
M  V30 6112 H 595.144 1.83106 2.31422 0
M  V30 6113 H 595.225 2.46975 0.666089 0
M  V30 6114 H 594.869 4.82526 1.58529 0
M  V30 6115 H 594.799 4.15547 3.23462 0
M  V30 6116 H 597.29 3.21291 1.98949 0
M  V30 6117 H 597.603 6.87799 3.52352 0
M  V30 6118 H 595.948 6.18239 3.17498 0
M  V30 6119 H 599.139 4.0235 2.39233 0
M  V30 6120 H 599.312 5.6947 3.09206 0
M  V30 6121 N 592.718 -0.936591 1.26751 0
M  V30 6122 C 593.995 -1.66094 1.03306 0
M  V30 6123 C 594.375 -2.06568 -0.435058 0
M  V30 6124 O 593.723 -1.79305 -1.41641 0
M  V30 6125 C 593.933 -2.86969 1.98619 0
M  V30 6126 C 595.281 -3.58516 2.27489 0
M  V30 6127 O 596.305 -2.97082 1.96522 0
M  V30 6128 O 595.164 -4.69181 2.80235 0
M  V30 6129 H 592.258 -0.727568 0.393158 0
M  V30 6130 H 594.804 -0.987914 1.3798 0
M  V30 6131 H 593.576 -2.53985 2.9767 0
M  V30 6132 H 593.199 -3.61996 1.64454 0
M  V30 6133 N 594.196 -1.08629 -1.14182 0
M  V30 6134 C 595.436 -0.826884 -1.86928 0
M  V30 6135 C 595.8 0.635808 -1.81167 0
M  V30 6136 O 597.001 1.0108 -2.49071 0
M  V30 6137 C 595.272 -1.33721 -3.31442 0
M  V30 6138 S 596.831 -1.21045 -4.21774 0
M  V30 6139 H 593.649 -0.299286 -0.644941 0
M  V30 6140 H 596.251 -1.38802 -1.37674 0
M  V30 6141 H 594.955 -2.39617 -3.33184 0
M  V30 6142 H 594.486 -0.771839 -3.85754 0
M  V30 6143 H 596.501 -0.156168 -4.95954 0
M  V30 6144 N 595.674 1.31259 -0.872281 0
M  V30 6145 C 597.085 1.78822 -0.536617 0
M  V30 6146 C 597.436 1.71855 0.946594 0
M  V30 6147 O 596.561 1.28769 1.73918 0
M  V30 6148 C 597.156 3.24698 -0.967294 0
M  V30 6149 C 595.715 3.70147 -0.683251 0
M  V30 6150 C 594.862 2.51994 -1.15733 0
M  V30 6151 H 597.813 1.18308 -1.05777 0
M  V30 6152 H 597.834 3.79386 -0.290929 0
M  V30 6153 H 597.346 3.29737 -2.04683 0
M  V30 6154 H 595.447 3.70607 0.384825 0
M  V30 6155 H 595.56 4.62183 -1.2619 0
M  V30 6156 H 593.924 2.48078 -0.577024 0
M  V30 6157 H 594.707 2.59778 -2.24434 0
M  V30 6158 N 597.152 0.631951 1.44375 0
M  V30 6159 C 598.4 0.136497 2.01639 0
M  V30 6160 C 598.721 -1.24637 1.49969 0
M  V30 6161 O 597.991 -1.82827 0.70363 0
M  V30 6162 H 596.571 0.0474703 0.74549 0
M  V30 6163 H 599.233 0.818837 1.76865 0
M  V30 6164 H 598.329 0.104817 3.11924 0
M  V30 6165 N 598.631 -1.53133 0.372548 0
M  V30 6166 C 599.579 -2.27473 -0.485681 0
M  V30 6167 C 600.573 -1.30719 -1.07745 0
M  V30 6168 O 601.779 -1.48321 -1.01985 0
M  V30 6169 H 598.154 -0.731269 -0.175356 0
M  V30 6170 H 600.125 -2.97955 0.162986 0
M  V30 6171 C 598.874 -3.08191 -1.60978 0
M  V30 6172 H 598.197 -3.82488 -1.16373 0
M  V30 6173 H 599.637 -3.63373 -2.18485 0
M  V30 6174 C 598.096 -2.19461 -2.55614 0
M  V30 6175 O 598.626 -1.81008 -3.58607 0
M  V30 6176 N 596.832 -1.83955 -2.24965 0
M  V30 6177 H 596.379 -2.15423 -1.41247 0
M  V30 6178 H 596.337 -1.24874 -2.88538 0
M  V30 6179 N 600.109 -0.101901 -1.5727 0
M  V30 6180 C 601.355 0.554864 -1.95686 0
M  V30 6181 C 601.71 1.65368 -0.983415 0
M  V30 6182 O 601.003 1.91597 -0.0105374 0
M  V30 6183 C 601.197 1.14898 -3.38427 0
M  V30 6184 C 601.026 0.109251 -4.49567 0
M  V30 6185 C 599.796 -0.316633 -5.04307 0
M  V30 6186 C 601.994 -0.665196 -5.0998 0
M  V30 6187 N 599.976 -1.34393 -5.99009 0
M  V30 6188 C 601.347 -1.54413 -6.00464 0
M  V30 6189 C 603.402 -0.717966 -4.92696 0
M  V30 6190 C 602.105 -2.47122 -6.75517 0
M  V30 6191 C 604.131 -1.63268 -5.68417 0
M  V30 6192 C 603.493 -2.49923 -6.58572 0
M  V30 6193 H 599.592 0.17317 -0.762585 0
M  V30 6194 H 602.176 -0.18605 -1.93809 0
M  V30 6195 H 600.347 1.85969 -3.40984 0
M  V30 6196 H 602.079 1.76867 -3.64006 0
M  V30 6197 H 598.834 0.0724419 -4.73545 0
M  V30 6198 H 599.258 -1.85598 -6.51062 0
M  V30 6199 H 603.9 -0.0621637 -4.22754 0
M  V30 6200 H 601.618 -3.13724 -7.44717 0
M  V30 6201 H 605.204 -1.67874 -5.57054 0
M  V30 6202 H 604.084 -3.19553 -7.16139 0
M  V30 6203 N 601.587 1.56661 0.17182 0
M  V30 6204 C 602.815 1.861 0.904115 0
M  V30 6205 C 603.23 0.687227 1.75848 0
M  V30 6206 O 602.587 -0.343671 1.79235 0
M  V30 6207 C 602.638 3.14568 1.78127 0
M  V30 6208 O 602.359 4.27422 0.961366 0
M  V30 6209 C 603.86 3.5735 2.62327 0
M  V30 6210 H 601.08 0.617445 0.262684 0
M  V30 6211 H 603.624 2.03775 0.172068 0
M  V30 6212 H 601.779 2.98721 2.46666 0
M  V30 6213 H 602.193 5.00725 1.56123 0
M  V30 6214 H 603.667 4.50144 3.1949 0
M  V30 6215 H 604.144 2.81445 3.37173 0
M  V30 6216 H 604.75 3.75807 1.99121 0
M  V30 6217 N 603.065 -0.440357 1.51323 0
M  V30 6218 C 604.311 -1.18874 1.65047 0
M  V30 6219 C 604.666 -1.88988 0.360742 0
M  V30 6220 O 603.959 -1.80479 -0.643272 0
M  V30 6221 C 604.153 -2.2339 2.78984 0
M  V30 6222 C 603.982 -1.63534 4.18911 0
M  V30 6223 C 602.752 -1.42158 4.84891 0
M  V30 6224 C 604.95 -1.11324 5.02107 0
M  V30 6225 N 602.932 -0.778679 6.08942 0
M  V30 6226 C 604.303 -0.595421 6.17134 0
M  V30 6227 C 606.358 -1.00471 4.87658 0
M  V30 6228 C 605.061 0.0202557 7.19297 0
M  V30 6229 C 607.087 -0.402928 5.90026 0
M  V30 6230 C 606.449 0.10436 7.04323 0
M  V30 6231 H 602.548 -0.422771 0.657866 0
M  V30 6232 H 605.132 -0.485814 1.88542 0
M  V30 6233 H 603.303 -2.91074 2.57158 0
M  V30 6234 H 605.035 -2.90366 2.81904 0
M  V30 6235 H 601.79 -1.68247 4.42707 0
M  V30 6236 H 602.214 -0.474755 6.75333 0
M  V30 6237 H 606.856 -1.38278 3.99548 0
M  V30 6238 H 604.574 0.410468 8.07057 0
M  V30 6239 H 608.16 -0.320897 5.80914 0
M  V30 6240 H 607.04 0.562697 7.82179 0
M  V30 6241 N 604.543 -1.41418 -0.695603 0
M  V30 6242 C 605.954 -1.36335 -1.27552 0
M  V30 6243 C 606.305 -0.0464336 -1.96145 0
M  V30 6244 O 605.43 0.855304 -1.9878 0
M  V30 6245 C 606.025 -2.46941 -2.3196 0
M  V30 6246 C 604.584 -2.45256 -2.85529 0
M  V30 6247 C 603.731 -2.2679 -1.59566 0
M  V30 6248 H 606.682 -1.50934 -0.490362 0
M  V30 6249 H 606.703 -2.15997 -3.1325 0
M  V30 6250 H 606.215 -3.42775 -1.82008 0
M  V30 6251 H 604.316 -1.53179 -3.39657 0
M  V30 6252 H 604.429 -3.41565 -3.35961 0
M  V30 6253 H 602.793 -1.74667 -1.85374 0
M  V30 6254 H 603.576 -3.24651 -1.1161 0
M  V30 6255 N 606.021 0.929856 -1.27246 0
M  V30 6256 C 606.931 2.0636 -1.11592 0
M  V30 6257 C 607.947 1.73938 -0.046496 0
M  V30 6258 O 609.123 1.9981 -0.252544 0
M  V30 6259 C 606.188 3.38213 -0.762437 0
M  V30 6260 C 605.249 3.84346 -1.9125 0
M  V30 6261 C 604.482 5.09906 -1.57579 0
M  V30 6262 O 604.705 5.68354 -0.482694 0
M  V30 6263 O 603.639 5.51359 -2.41426 0
M  V30 6264 H 607.465 2.22478 -2.0673 0
M  V30 6265 H 605.05 1.04865 -1.06413 0
M  V30 6266 H 606.932 4.1741 -0.57854 0
M  V30 6267 H 605.607 3.23307 0.159439 0
M  V30 6268 H 604.514 3.06045 -2.15144 0
M  V30 6269 H 605.847 4.0379 -2.81451 0
M  V30 6270 N 607.499 1.09233 1.13605 0
M  V30 6271 C 608.447 0.724572 2.21027 0
M  V30 6272 C 609.441 -0.273595 1.67176 0
M  V30 6273 O 610.647 -0.135266 1.79491 0
M  V30 6274 H 607.022 0.216319 0.720215 0
M  V30 6275 H 608.993 1.63975 2.49309 0
M  V30 6276 C 607.742 0.159126 3.47336 0
M  V30 6277 H 607.065 0.918387 3.89109 0
M  V30 6278 H 608.505 -0.0602851 4.23957 0
M  V30 6279 C 606.964 -1.10514 3.18258 0
M  V30 6280 O 607.494 -2.18869 3.36837 0
M  V30 6281 N 605.7 -1.01886 2.72154 0
M  V30 6282 H 605.247 -0.137027 2.57235 0
M  V30 6283 H 605.205 -1.8655 2.53074 0
M  V30 6284 N 608.977 -1.30795 0.87923 0
M  V30 6285 C 610.202 -2.01063 0.508769 0
M  V30 6286 C 610.627 -1.65508 -0.893803 0
M  V30 6287 O 609.985 -0.868616 -1.59138 0
M  V30 6288 C 610.033 -3.54054 0.683991 0
M  V30 6289 O 609.137 -4.11498 -0.272654 0
M  V30 6290 H 608.478 -0.632786 0.201191 0
M  V30 6291 H 611.008 -1.66776 1.18519 0
M  V30 6292 H 611.018 -4.03845 0.580798 0
M  V30 6293 H 609.693 -3.79271 1.70665 0
M  V30 6294 H 608.27 -3.72695 -0.12364 0
M  V30 6295 N 610.455 -0.639598 -1.44038 0
M  V30 6296 C 611.387 0.0987684 -2.28987 0
M  V30 6297 C 612.4 0.80058 -1.41755 0
M  V30 6298 O 613.589 0.660611 -1.65826 0
M  V30 6299 C 610.689 1.16242 -3.18341 0
M  V30 6300 C 609.862 0.541447 -4.34036 0
M  V30 6301 C 608.921 1.50017 -5.04362 0
M  V30 6302 O 607.947 1.01403 -5.60095 0
M  V30 6303 N 609.149 2.83441 -5.06598 0
M  V30 6304 H 611.914 -0.630305 -2.92997 0
M  V30 6305 H 609.475 -0.481376 -1.54578 0
M  V30 6306 H 611.467 1.80429 -3.62253 0
M  V30 6307 H 610.037 1.79362 -2.56024 0
M  V30 6308 H 609.257 -0.27923 -3.9321 0
M  V30 6309 H 610.545 0.107379 -5.08687 0
M  V30 6310 H 609.943 3.2551 -4.62666 0
M  V30 6311 H 608.5 3.42966 -5.54272 0
M  V30 6312 N 611.933 1.52934 -0.380664 0
M  V30 6313 C 612.865 2.23822 0.493581 0
M  V30 6314 C 613.878 1.25761 1.03383 0
M  V30 6315 O 615.067 1.5189 0.937633 0
M  V30 6316 C 612.167 2.9342 1.69582 0
M  V30 6317 C 611.34 4.18115 1.28445 0
M  V30 6318 C 610.399 4.70788 2.35042 0
M  V30 6319 O 609.425 5.34093 1.96807 0
M  V30 6320 N 610.627 4.49899 3.66839 0
M  V30 6321 H 613.392 2.99484 -0.11371 0
M  V30 6322 H 610.953 1.60577 -0.206587 0
M  V30 6323 H 612.945 3.2556 2.40401 0
M  V30 6324 H 611.515 2.21119 2.20965 0
M  V30 6325 H 610.735 3.92109 0.405503 0
M  V30 6326 H 612.023 4.99152 0.986132 0
M  V30 6327 H 611.421 3.99349 4.0067 0
M  V30 6328 H 609.978 4.86551 4.33718 0
M  V30 6329 N 613.412 0.11024 1.57214 0
M  V30 6330 C 614.64 -0.557834 1.99238 0
M  V30 6331 C 615.055 -1.60778 0.989734 0
M  V30 6332 O 614.412 -1.82491 -0.0186092 0
M  V30 6333 C 614.463 -1.19189 3.41286 0
M  V30 6334 O 614.184 -0.183919 4.37714 0
M  V30 6335 C 615.685 -1.94413 3.98395 0
M  V30 6336 H 612.905 -0.148392 0.654386 0
M  V30 6337 H 615.449 0.193996 2.03578 0
M  V30 6338 H 613.604 -1.89456 3.37913 0
M  V30 6339 H 614.018 -0.643475 5.20538 0
M  V30 6340 H 615.492 -2.34116 4.99894 0
M  V30 6341 H 615.969 -2.81592 3.3705 0
M  V30 6342 H 616.575 -1.28928 4.05287 0
M  V30 6343 N 614.89 -1.56749 -0.16351 0
M  V30 6344 C 616.301 -1.72039 -0.725216 0
M  V30 6345 C 616.652 -0.72202 -1.82432 0
M  V30 6346 O 615.777 0.114942 -2.16095 0
M  V30 6347 C 616.372 -3.11932 -1.32227 0
M  V30 6348 C 614.931 -3.28879 -1.83072 0
M  V30 6349 C 614.078 -2.67984 -0.712716 0
M  V30 6350 H 617.029 -1.58579 0.0619772 0
M  V30 6351 H 617.05 -3.11015 -2.19202 0
M  V30 6352 H 616.562 -3.84572 -0.522103 0
M  V30 6353 H 614.663 -2.61209 -2.65708 0
M  V30 6354 H 614.776 -4.36688 -1.97079 0
M  V30 6355 H 613.14 -2.28005 -1.13515 0
M  V30 6356 H 613.923 -3.43216 0.0757361 0
M  V30 6357 N 616.368 0.432326 -1.51554 0
M  V30 6358 C 617.301 1.54525 -1.6792 0
M  V30 6359 C 618.279 1.53831 -0.526764 0
M  V30 6360 O 619.463 1.72884 -0.751233 0
M  V30 6361 C 616.59 2.931 -1.69736 0
M  V30 6362 C 615.636 3.11799 -2.91005 0
M  V30 6363 S 616.469 2.87565 -4.51737 0
M  V30 6364 C 617.625 4.28412 -4.56305 0
M  V30 6365 H 617.858 1.4041 -2.62054 0
M  V30 6366 H 615.391 0.622357 -1.41301 0
M  V30 6367 H 617.349 3.72974 -1.71467 0
M  V30 6368 H 616.01 3.04574 -0.767705 0
M  V30 6369 H 615.203 4.13127 -2.8869 0
M  V30 6370 H 614.805 2.39757 -2.87041 0
M  V30 6371 H 617.097 5.21692 -4.32254 0
M  V30 6372 H 618.04 4.35758 -5.58141 0
M  V30 6373 H 618.448 4.12301 -3.85576 0
M  V30 6374 N 617.846 1.41785 0.688094 0
M  V30 6375 C 619.086 1.43018 1.46032 0
M  V30 6376 C 619.45 0.0402632 1.91958 0
M  V30 6377 O 620.651 -0.0726425 2.68702 0
M  V30 6378 C 618.922 2.4151 2.63453 0
M  V30 6379 S 620.481 2.61335 3.5249 0
M  V30 6380 H 617.299 0.506546 0.498931 0
M  V30 6381 H 619.901 1.78283 0.80221 0
M  V30 6382 H 618.605 3.41286 2.27929 0
M  V30 6383 H 618.136 2.07624 3.34149 0
M  V30 6384 H 620.151 1.88637 4.58945 0
M  V30 6385 N 619.324 -0.923095 1.27737 0
M  V30 6386 C 620.256 -2.02871 1.06658 0
M  V30 6387 C 621.269 -1.62786 0.0212095 0
M  V30 6388 O 622.458 -1.76548 0.263267 0
M  V30 6389 C 619.558 -3.33603 0.59682 0
M  V30 6390 C 618.731 -4.02354 1.71551 0
M  V30 6391 C 617.79 -5.11364 1.24071 0
M  V30 6392 O 616.816 -5.35075 1.94123 0
M  V30 6393 N 618.018 -5.80416 0.0988444 0
M  V30 6394 H 620.783 -2.21515 2.01869 0
M  V30 6395 H 618.344 -1.09378 1.19365 0
M  V30 6396 H 620.336 -4.03845 0.262984 0
M  V30 6397 H 618.906 -3.11499 -0.262187 0
M  V30 6398 H 618.126 -3.25786 2.2194 0
M  V30 6399 H 619.414 -4.45035 2.46619 0
M  V30 6400 H 618.812 -5.63611 -0.485743 0
M  V30 6401 H 617.369 -6.51563 -0.17578 0
M  V30 6402 N 620.802 -1.09834 -1.13024 0
M  V30 6403 C 621.765 -0.745058 -2.16752 0
M  V30 6404 C 622.765 0.227435 -1.59183 0
M  V30 6405 O 623.955 0.0050786 -1.74199 0
M  V30 6406 C 621.087 -0.102543 -3.40746 0
M  V30 6407 H 622.28 -1.66375 -2.49518 0
M  V30 6408 H 619.833 -0.898061 -1.27924 0
M  V30 6409 H 620.568 0.827177 -3.13573 0
M  V30 6410 H 620.353 -0.80235 -3.83803 0
M  V30 6411 H 621.843 0.129082 -4.174 0
M  V30 6412 N 622.28 1.30327 -0.886154 0
M  V30 6413 C 623.526 1.96764 -0.515312 0
M  V30 6414 C 623.881 1.68675 0.925552 0
M  V30 6415 O 623.174 0.981693 1.6454 0
M  V30 6416 C 623.368 3.49906 -0.728042 0
M  V30 6417 C 623.197 3.92881 -2.18803 0
M  V30 6418 C 621.967 4.18424 -2.83284 0
M  V30 6419 C 624.165 4.05617 -3.16195 0
M  V30 6420 N 622.147 4.47867 -4.19867 0
M  V30 6421 C 623.518 4.38957 -4.37855 0
M  V30 6422 C 625.573 3.88047 -3.11968 0
M  V30 6423 C 624.276 4.56559 -5.55829 0
M  V30 6424 C 626.302 4.06851 -4.29215 0
M  V30 6425 C 625.664 4.40538 -5.49641 0
M  V30 6426 H 621.763 0.74493 -0.237916 0
M  V30 6427 H 624.347 1.57536 -1.14414 0
M  V30 6428 H 622.518 3.88187 -0.128696 0
M  V30 6429 H 624.25 4.03401 -0.323983 0
M  V30 6430 H 621.005 4.1167 -2.34146 0
M  V30 6431 H 621.429 4.66721 -4.90408 0
M  V30 6432 H 626.071 3.61078 -2.19961 0
M  V30 6433 H 623.789 4.8237 -6.4834 0
M  V30 6434 H 627.375 3.94724 -4.27416 0
M  V30 6435 H 626.255 4.54789 -6.38856 0
M  V30 6436 N 623.758 0.647228 1.43697 0
M  V30 6437 C 625.006 0.157876 2.01482 0
M  V30 6438 C 625.327 -1.23039 1.51282 0
M  V30 6439 O 624.597 -1.82071 0.722982 0
M  V30 6440 H 623.177 0.0553745 0.744945 0
M  V30 6441 H 625.839 0.83755 1.75986 0
M  V30 6442 H 624.935 0.137895 3.11795 0
M  V30 6443 N 625.236 -1.5273 0.388769 0
M  V30 6444 C 626.184 -2.27975 -0.461527 0
M  V30 6445 C 627.178 -1.31854 -1.06352 0
M  V30 6446 O 628.384 -1.49394 -1.00406 0
M  V30 6447 H 624.759 -0.733088 -0.16759 0
M  V30 6448 H 626.73 -2.97765 0.194579 0
M  V30 6449 C 625.479 -3.09881 -1.577 0
M  V30 6450 H 624.802 -3.83701 -1.12309 0
M  V30 6451 H 626.242 -3.6567 -2.14619 0
M  V30 6452 C 624.701 -2.22159 -2.53272 0
M  V30 6453 O 625.231 -1.84802 -3.56667 0
M  V30 6454 N 623.437 -1.8633 -2.23001 0
M  V30 6455 H 622.984 -2.16909 -1.38954 0
M  V30 6456 H 622.942 -1.27927 -2.87197 0
M  V30 6457 N 626.714 -0.118576 -1.57153 0
M  V30 6458 C 628.125 0.40687 -1.82213 0
M  V30 6459 C 628.476 1.66636 -1.03571 0
M  V30 6460 O 627.601 2.14682 -0.272171 0
M  V30 6461 C 628.196 0.744949 -3.30509 0
M  V30 6462 C 626.755 1.21503 -3.5625 0
M  V30 6463 C 625.902 0.223511 -2.76398 0
M  V30 6464 H 628.853 -0.343712 -1.54933 0
M  V30 6465 H 628.874 1.6024 -3.45114 0
M  V30 6466 H 628.386 -0.171911 -3.87719 0
M  V30 6467 H 626.487 2.1488 -3.04396 0
M  V30 6468 H 626.6 1.16065 -4.64829 0
M  V30 6469 H 624.964 0.71046 -2.44591 0
M  V30 6470 H 625.747 -0.686439 -3.36367 0
M  V30 6471 N 628.193 1.56834 0.155195 0
M  V30 6472 C 629.123 2.00678 1.19376 0
M  V30 6473 C 630.104 0.884973 1.45266 0
M  V30 6474 O 631.289 1.1522 1.56326 0
M  V30 6475 C 628.419 2.38042 2.5289 0
M  V30 6476 C 627.373 3.53332 2.41538 0
M  V30 6477 C 626.699 3.76485 3.79688 0
M  V30 6478 C 627.999 4.86265 1.9064 0
M  V30 6479 H 629.693 2.87688 0.829232 0
M  V30 6480 H 627.239 1.38407 0.397445 0
M  V30 6481 H 629.192 2.67314 3.25763 0
M  V30 6482 H 627.916 1.4796 2.91162 0
M  V30 6483 H 626.575 3.24213 1.71117 0
M  V30 6484 H 626.223 2.83667 4.15382 0
M  V30 6485 H 625.923 4.54068 3.72956 0
M  V30 6486 H 627.447 4.08174 4.54122 0
M  V30 6487 H 628.861 5.14308 2.53299 0
M  V30 6488 H 627.258 5.67597 1.94818 0
M  V30 6489 H 628.328 4.77184 0.861596 0
M  V30 6490 N 629.671 -0.424282 1.51781 0
M  V30 6491 C 631.082 -1.00368 1.57427 0
M  V30 6492 C 631.433 -1.91962 0.40558 0
M  V30 6493 O 630.558 -2.111 -0.47601 0
M  V30 6494 C 631.153 -1.82707 2.85313 0
M  V30 6495 C 629.712 -2.35675 2.93487 0
M  V30 6496 C 628.859 -1.1524 2.5222 0
M  V30 6497 H 631.81 -0.205064 1.5737 0
M  V30 6498 H 631.831 -2.68294 2.69812 0
M  V30 6499 H 631.343 -1.16017 3.70353 0
M  V30 6500 H 629.444 -3.05781 2.12906 0
M  V30 6501 H 629.557 -2.67578 3.97415 0
M  V30 6502 H 627.921 -1.50174 2.05718 0
M  V30 6503 H 628.704 -0.5014 3.39619 0
M  V30 6504 N 631.149 -1.42148 -0.680565 0
M  V30 6505 C 632.059 -1.47565 -1.82378 0
M  V30 6506 C 633.075 -0.36489 -1.70131 0
M  V30 6507 O 634.251 -0.614916 -1.91783 0
M  V30 6508 C 631.316 -1.37013 -3.18478 0
M  V30 6509 C 630.377 -2.58532 -3.42724 0
M  V30 6510 C 629.61 -2.48473 -4.72331 0
M  V30 6511 O 629.833 -1.51745 -5.49845 0
M  V30 6512 O 628.767 -3.38503 -4.97694 0
M  V30 6513 H 632.593 -2.44045 -1.80764 0
M  V30 6514 H 630.178 -1.23849 -0.835569 0
M  V30 6515 H 632.06 -1.33468 -3.99705 0
M  V30 6516 H 630.735 -0.436552 -3.20743 0
M  V30 6517 H 629.642 -2.67652 -2.61368 0
M  V30 6518 H 630.975 -3.50769 -3.45286 0
M  V30 6519 N 632.627 0.916307 -1.28225 0
M  V30 6520 C 633.557 2.0352 -1.14464 0
M  V30 6521 C 634.538 1.70045 -0.0430844 0
M  V30 6522 O 635.723 1.92954 -0.219619 0
M  V30 6523 C 632.853 3.37889 -0.803027 0
M  V30 6524 C 631.807 3.85516 -1.85908 0
M  V30 6525 C 631.133 5.1682 -1.37116 0
M  V30 6526 C 632.433 4.07655 -3.26519 0
M  V30 6527 H 634.127 2.1529 -2.08064 0
M  V30 6528 H 631.673 1.03446 -1.00174 0
M  V30 6529 H 633.626 4.15654 -0.693537 0
M  V30 6530 H 632.35 3.26164 0.168674 0
M  V30 6531 H 631.009 3.09953 -1.95767 0
M  V30 6532 H 630.657 5.01497 -0.38859 0
M  V30 6533 H 630.357 5.49657 -2.07728 0
M  V30 6534 H 631.881 5.97143 -1.27484 0
M  V30 6535 H 633.295 4.75953 -3.19596 0
M  V30 6536 H 631.692 4.51818 -3.94943 0
M  V30 6537 H 632.762 3.12553 -3.70727 0
M  V30 6538 N 634.105 1.10431 1.1244 0
M  V30 6539 C 635.052 0.753103 2.18167 0
M  V30 6540 C 636.022 -0.270549 1.63882 0
M  V30 6541 O 637.207 -0.149837 1.90211 0
M  V30 6542 C 634.347 0.191046 3.44571 0
M  V30 6543 C 633.46 1.26999 4.12911 0
M  V30 6544 C 632.595 0.669586 5.26963 0
M  V30 6545 C 631.634 1.72912 5.87169 0
M  V30 6546 N 630.771 1.14898 6.92635 0
M  V30 6547 H 635.611 1.65892 2.47556 0
M  V30 6548 H 633.148 0.828631 1.21541 0
M  V30 6549 H 635.106 -0.152712 4.1692 0
M  V30 6550 H 633.736 -0.677997 3.15599 0
M  V30 6551 H 632.788 1.73087 3.3874 0
M  V30 6552 H 634.1 2.07204 4.53727 0
M  V30 6553 H 633.254 0.275274 6.06075 0
M  V30 6554 H 631.993 -0.163895 4.87425 0
M  V30 6555 H 630.998 2.13286 5.06744 0
M  V30 6556 H 632.223 2.56544 6.28778 0
M  V30 6557 H 630.169 0.336956 6.55134 0
M  V30 6558 H 630.086 1.88786 7.32049 0
M  V30 6559 H 631.354 0.78121 7.75576 0
M  V30 6560 N 635.583 -1.29855 0.893053 0
M  V30 6561 C 636.823 -1.97612 0.522399 0
M  V30 6562 C 637.187 -1.68903 -0.913 0
M  V30 6563 O 638.388 -2.30059 -1.39019 0
M  V30 6564 C 636.659 -3.48356 0.79893 0
M  V30 6565 S 638.218 -4.35568 0.531588 0
M  V30 6566 H 635.036 -0.684005 0.194058 0
M  V30 6567 H 637.638 -1.57803 1.15406 0
M  V30 6568 H 636.342 -3.66743 1.84196 0
M  V30 6569 H 635.873 -3.93094 0.155133 0
M  V30 6570 H 637.888 -4.92232 -0.626295 0
M  V30 6571 N 637.061 -0.65484 -1.43351 0
M  V30 6572 C 637.991 0.0221809 -2.33489 0
M  V30 6573 C 638.972 0.810272 -1.49561 0
M  V30 6574 O 640.157 0.771426 -1.78221 0
M  V30 6575 C 637.287 0.988117 -3.32947 0
M  V30 6576 C 636.241 0.310026 -4.26876 0
M  V30 6577 C 635.567 1.38752 -5.16384 0
M  V30 6578 C 636.867 -0.798589 -5.16159 0
M  V30 6579 H 638.561 -0.730571 -2.9035 0
M  V30 6580 H 636.107 -0.352773 -1.39612 0
M  V30 6581 H 638.06 1.47067 -3.94904 0
M  V30 6582 H 636.784 1.77205 -2.74346 0
M  V30 6583 H 635.443 -0.152097 -3.66284 0
M  V30 6584 H 635.091 2.16293 -4.54121 0
M  V30 6585 H 634.791 0.939051 -5.80048 0
M  V30 6586 H 636.315 1.87141 -5.81215 0
M  V30 6587 H 637.729 -0.398126 -5.71916 0
M  V30 6588 H 636.126 -1.17163 -5.88552 0
M  V30 6589 H 637.196 -1.65588 -4.55751 0
M  V30 6590 N 638.539 1.52521 -0.396863 0
M  V30 6591 C 639.486 2.26671 0.434624 0
M  V30 6592 C 640.456 1.28584 1.05144 0
M  V30 6593 O 641.641 1.57426 1.07804 0
M  V30 6594 C 638.781 3.08234 1.55196 0
M  V30 6595 C 637.894 4.21261 0.957262 0
M  V30 6596 C 637.029 4.90205 2.04627 0
M  V30 6597 C 636.068 5.95213 1.42787 0
M  V30 6598 N 635.205 6.57723 2.45651 0
M  V30 6599 H 640.045 2.973 -0.204139 0
M  V30 6600 H 637.582 1.46669 -0.112505 0
M  V30 6601 H 639.54 3.53819 2.2106 0
M  V30 6602 H 638.17 2.398 2.16092 0
M  V30 6603 H 637.222 3.79935 0.188005 0
M  V30 6604 H 638.534 4.96624 0.465416 0
M  V30 6605 H 637.688 5.39133 2.78246 0
M  V30 6606 H 636.427 4.14383 2.57174 0
M  V30 6607 H 635.432 5.45616 0.676968 0
M  V30 6608 H 636.657 6.72972 0.910255 0
M  V30 6609 H 634.603 5.84737 2.97353 0
M  V30 6610 H 634.52 7.28723 2.01243 0
M  V30 6611 H 635.788 7.11293 3.18876 0
M  V30 6612 N 640.017 0.126909 1.57088 0
M  V30 6613 C 641.294 -0.573152 1.87014 0
M  V30 6614 C 641.674 -1.84297 1.02945 0
M  V30 6615 O 641.022 -2.28232 0.110573 0
M  V30 6616 C 641.232 -0.857984 3.38289 0
M  V30 6617 C 642.58 -1.20759 4.07066 0
M  V30 6618 O 643.604 -0.947992 3.43353 0
M  V30 6619 O 642.463 -1.69516 5.19545 0
M  V30 6620 H 639.557 -0.290082 0.774456 0
M  V30 6621 H 642.103 0.162008 1.68925 0
M  V30 6622 H 640.875 0.0415286 3.91278 0
M  V30 6623 H 640.498 -1.64803 3.61837 0
M  V30 6624 N 641.495 -1.56914 -0.146875 0
M  V30 6625 C 642.743 -1.82994 -0.85777 0
M  V30 6626 C 643.064 -0.707814 -1.817 0
M  V30 6627 O 642.334 0.270521 -1.94023 0
M  V30 6628 H 640.914 -0.675106 -0.319751 0
M  V30 6629 H 643.576 -1.9439 -0.140849 0
M  V30 6630 H 642.672 -2.77928 -1.41994 0
M  V30 6631 N 642.974 0.416227 -1.52004 0
M  V30 6632 C 644.202 1.18573 -1.69553 0
M  V30 6633 C 644.617 1.84472 -0.401919 0
M  V30 6634 O 643.974 1.71593 0.621463 0
M  V30 6635 C 644.025 2.25413 -2.82615 0
M  V30 6636 O 643.746 1.62205 -4.06966 0
M  V30 6637 C 645.247 3.15297 -3.11613 0
M  V30 6638 H 642.467 0.356582 -0.56841 0
M  V30 6639 H 645.011 0.490618 -1.98528 0
M  V30 6640 H 643.166 2.90604 -2.56179 0
M  V30 6641 H 643.58 2.3298 -4.69916 0
M  V30 6642 H 645.054 3.86351 -3.94255 0
M  V30 6643 H 645.531 3.77264 -2.24874 0
M  V30 6644 H 646.137 2.55783 -3.39787 0
M  V30 6645 N 644.452 1.42507 0.673017 0
M  V30 6646 C 645.699 1.43072 1.43306 0
M  V30 6647 C 646.027 0.0478004 1.94441 0
M  V30 6648 O 645.282 -0.944106 1.71421 0
M  V30 6649 C 645.581 2.40351 2.64511 0
M  V30 6650 C 645.247 3.8669 2.31908 0
M  V30 6651 C 643.909 4.26551 2.22728 0
M  V30 6652 C 646.261 4.78991 2.05467 0
M  V30 6653 C 643.589 5.56691 1.85234 0
M  V30 6654 C 645.941 6.09476 1.69477 0
M  V30 6655 C 644.605 6.48334 1.58808 0
M  V30 6656 H 643.875 0.523536 0.524395 0
M  V30 6657 H 646.522 1.75459 0.76723 0
M  V30 6658 H 644.827 2.01297 3.36135 0
M  V30 6659 H 646.524 2.38051 3.22696 0
M  V30 6660 H 643.114 3.55132 2.39956 0
M  V30 6661 H 647.298 4.48982 2.11492 0
M  V30 6662 H 642.554 5.85657 1.75545 0
M  V30 6663 H 646.728 6.80482 1.48043 0
M  V30 6664 H 644.355 7.49084 1.29525 0
M  V30 6665 N 645.93 -0.909495 1.28709 0
M  V30 6666 C 647.341 -1.47419 1.14563 0
M  V30 6667 C 647.692 -1.94432 -0.262832 0
M  V30 6668 O 646.817 -1.82842 -1.15748 0
M  V30 6669 C 647.412 -2.67933 2.07358 0
M  V30 6670 C 645.971 -3.20568 1.97264 0
M  V30 6671 C 645.118 -1.93269 1.98852 0
M  V30 6672 H 648.069 -0.721787 1.41336 0
M  V30 6673 H 648.09 -3.43339 1.64007 0
M  V30 6674 H 647.602 -2.33685 3.09859 0
M  V30 6675 H 645.703 -3.59531 0.978157 0
M  V30 6676 H 645.816 -3.85529 2.84436 0
M  V30 6677 H 644.18 -2.10553 1.43317 0
M  V30 6678 H 644.963 -1.61312 3.0304 0
M  V30 6679 N 647.408 -1.11026 -1.11852 0
M  V30 6680 C 648.338 -0.786812 -2.19844 0
M  V30 6681 C 649.319 0.242935 -1.68356 0
M  V30 6682 O 650.504 0.107355 -1.93903 0
M  V30 6683 C 647.634 -0.224516 -3.46574 0
M  V30 6684 C 646.588 -1.18564 -4.1125 0
M  V30 6685 C 645.914 -0.484261 -5.32503 0
M  V30 6686 C 647.214 -2.53465 -4.56676 0
M  V30 6687 H 648.908 -1.68978 -2.47158 0
M  V30 6688 H 646.454 -0.813906 -1.18792 0
M  V30 6689 H 648.407 0.0139435 -4.21398 0
M  V30 6690 H 647.131 0.713722 -3.18706 0
M  V30 6691 H 645.79 -1.40966 -3.38414 0
M  V30 6692 H 645.438 0.458646 -5.00905 0
M  V30 6693 H 645.138 -1.12526 -5.76725 0
M  V30 6694 H 646.662 -0.254492 -6.10069 0
M  V30 6695 H 648.076 -2.35177 -5.22843 0
M  V30 6696 H 646.473 -3.13507 -5.11697 0
M  V30 6697 H 647.543 -3.13008 -3.70343 0
M  V30 6698 N 648.886 1.2938 -0.899927 0
M  V30 6699 C 650.297 1.77644 -0.574427 0
M  V30 6700 C 650.648 1.73824 0.909928 0
M  V30 6701 O 649.773 1.32429 1.71147 0
M  V30 6702 C 650.368 3.22573 -1.03595 0
M  V30 6703 C 648.927 3.68614 -0.76161 0
M  V30 6704 C 648.074 2.49483 -1.21052 0
M  V30 6705 H 651.025 1.16038 -1.08263 0
M  V30 6706 H 651.046 3.78684 -0.371337 0
M  V30 6707 H 650.558 3.25321 -2.11631 0
M  V30 6708 H 648.659 3.7134 0.306127 0
M  V30 6709 H 648.772 4.59402 -1.35965 0
M  V30 6710 H 647.136 2.46798 -0.629515 0
M  V30 6711 H 647.919 2.54959 -2.29893 0
M  V30 6712 N 650.364 0.662433 1.43002 0
M  V30 6713 C 651.613 0.176873 2.00923 0
M  V30 6714 C 651.926 -1.21954 1.52927 0
M  V30 6715 O 653.132 -1.80081 2.03182 0
M  V30 6716 C 651.588 0.265379 3.5892 0
M  V30 6717 C 651.196 1.66507 4.15908 0
M  V30 6718 C 652.94 -0.162103 4.2419 0
M  V30 6719 C 650.847 1.707 5.66229 0
M  V30 6720 H 649.777 0.0623627 0.751417 0
M  V30 6721 H 652.428 0.825813 1.63868 0
M  V30 6722 H 650.81 -0.451235 3.93421 0
M  V30 6723 H 651.984 2.40777 3.92891 0
M  V30 6724 H 650.299 2.03932 3.63044 0
M  V30 6725 H 652.896 -0.150745 5.34487 0
M  V30 6726 H 653.239 -1.19519 3.98774 0
M  V30 6727 H 653.772 0.503075 3.94606 0
M  V30 6728 H 650.511 2.7195 5.96426 0
M  V30 6729 H 650.031 1.00768 5.91275 0
M  V30 6730 H 651.71 1.45487 6.3043 0
M  V30 6731 N 651.842 -1.52309 0.404946 0
M  V30 6732 C 653.09 -2.01368 -0.17186 0
M  V30 6733 C 653.411 -1.29261 -1.46002 0
M  V30 6734 O 652.681 -0.41729 -1.91404 0
M  V30 6735 H 651.261 -0.744034 -0.0664993 0
M  V30 6736 H 653.923 -1.87263 0.540228 0
M  V30 6737 H 653.019 -3.09888 -0.370957 0
M  V30 6738 N 653.32 -0.135238 -1.57019 0
M  V30 6739 C 654.23 0.822226 -2.19719 0
M  V30 6740 C 655.246 1.28057 -1.17802 0
M  V30 6741 O 656.422 1.3402 -1.50335 0
M  V30 6742 C 653.487 2.0484 -2.79717 0
M  V30 6743 C 652.548 1.64042 -3.96723 0
M  V30 6744 C 651.781 2.80814 -4.53849 0
M  V30 6745 O 652.004 3.967 -4.0986 0
M  V30 6746 O 650.938 2.56963 -5.44292 0
M  V30 6747 H 654.764 0.318552 -3.02025 0
M  V30 6748 H 652.349 0.0912021 -1.49121 0
M  V30 6749 H 654.231 2.76622 -3.17897 0
M  V30 6750 H 652.906 2.54182 -2.00432 0
M  V30 6751 H 651.813 0.893182 -3.63281 0
M  V30 6752 H 653.146 1.19426 -4.77492 0
M  V30 6753 N 654.798 1.5699 0.138552 0
M  V30 6754 C 656.023 1.88344 0.86841 0
M  V30 6755 C 656.448 0.725159 1.7356 0
M  V30 6756 O 655.806 -0.324992 1.78363 0
M  V30 6757 C 655.854 3.18334 1.69398 0
M  V30 6758 O 654.958 3.02863 2.79907 0
M  V30 6759 H 654.299 0.618577 0.241367 0
M  V30 6760 H 656.829 2.04207 0.126826 0
M  V30 6761 H 656.839 3.50567 2.08726 0
M  V30 6762 H 655.514 4.02238 1.05725 0
M  V30 6763 H 654.091 2.82056 2.43924 0
M  V30 6764 N 656.276 -0.40816 1.52223 0
M  V30 6765 C 657.522 -1.15673 1.66576 0
M  V30 6766 C 657.855 -1.90141 0.394996 0
M  V30 6767 O 657.13 -1.84798 -0.606613 0
M  V30 6768 C 657.413 -2.15042 2.88841 0
M  V30 6769 C 657.266 -1.44465 4.25969 0
M  V30 6770 C 658.585 -3.15699 3.0663 0
M  V30 6771 H 655.704 -0.41916 0.606196 0
M  V30 6772 H 658.346 -0.442348 1.84779 0
M  V30 6773 H 656.496 -2.75964 2.73452 0
M  V30 6774 H 658.168 -0.866544 4.53088 0
M  V30 6775 H 656.411 -0.746612 4.27327 0
M  V30 6776 H 657.082 -2.16976 5.07568 0
M  V30 6777 H 659.558 -2.64854 3.20923 0
M  V30 6778 H 658.434 -3.82491 3.9369 0
M  V30 6779 H 658.695 -3.83481 2.19987 0
M  V30 6780 N 657.755 -1.42862 -0.66545 0
M  V30 6781 C 658.983 -1.47246 -1.45349 0
M  V30 6782 C 659.398 -0.0865944 -1.88601 0
M  V30 6783 O 658.755 0.900652 -1.58728 0
M  V30 6784 C 658.806 -2.40772 -2.6965 0
M  V30 6785 O 658.527 -3.73968 -2.2821 0
M  V30 6786 C 660.028 -2.54272 -3.63126 0
M  V30 6787 H 657.248 -0.500497 -0.446927 0
M  V30 6788 H 659.792 -1.87477 -0.816871 0
M  V30 6789 H 657.947 -2.0377 -3.29479 0
M  V30 6790 H 658.361 -4.24146 -3.08546 0
M  V30 6791 H 659.835 -3.23815 -4.47043 0
M  V30 6792 H 660.312 -1.58364 -4.09656 0
M  V30 6793 H 660.918 -2.92036 -3.09185 0
M  V30 6794 N 659.233 0.902656 -1.29189 0
M  V30 6795 C 660.479 1.65532 -1.17163 0
M  V30 6796 C 660.812 1.92216 0.276879 0
M  V30 6797 O 660.087 1.53048 1.20027 0
M  V30 6798 C 660.37 3.00629 -1.98228 0
M  V30 6799 C 660.223 2.81029 -3.51202 0
M  V30 6800 C 661.542 4.01321 -1.80635 0
M  V30 6801 H 658.661 0.60071 -0.426985 0
M  V30 6802 H 661.303 1.04578 -1.5863 0
M  V30 6803 H 659.453 3.52656 -1.62991 0
M  V30 6804 H 661.125 2.35927 -3.96404 0
M  V30 6805 H 659.368 2.1587 -3.76275 0
M  V30 6806 H 660.039 3.77014 -4.03192 0
M  V30 6807 H 662.515 3.58394 -2.11406 0
M  V30 6808 H 661.391 4.93792 -2.3971 0
M  V30 6809 H 661.652 4.35505 -0.760754 0
M  V30 6810 N 660.711 1.11618 1.11262 0
M  V30 6811 C 661.939 0.888739 1.8684 0
M  V30 6812 C 662.354 -0.561558 1.80255 0
M  V30 6813 O 661.711 -1.38782 1.18515 0
M  V30 6814 C 661.762 1.34422 3.35579 0
M  V30 6815 O 661.483 2.73766 3.42029 0
M  V30 6816 C 662.984 1.15246 4.28058 0
M  V30 6817 H 660.204 0.318152 0.590779 0
M  V30 6818 H 662.748 1.48398 1.40707 0
M  V30 6819 H 660.903 0.79239 3.7921 0
M  V30 6820 H 661.317 2.9355 4.34659 0
M  V30 6821 H 662.791 1.52015 5.30656 0
M  V30 6822 H 663.268 0.0922007 4.39103 0
M  V30 6823 H 663.874 1.69136 3.90222 0
M  V30 6824 N 662.189 -1.289 0.906776 0
M  V30 6825 C 663.605 -1.47733 0.603902 0
M  V30 6826 C 663.805 -1.82568 -0.852702 0
M  V30 6827 O 662.861 -1.92642 -1.63234 0
M  V30 6828 C 664.174 -2.58522 1.53581 0
M  V30 6829 C 665.722 -2.72394 1.54177 0
M  V30 6830 C 666.197 -3.86318 2.46013 0
M  V30 6831 N 667.688 -3.93661 2.441 0
M  V30 6832 C 668.423 -4.81177 3.11859 0
M  V30 6833 N 667.919 -5.73333 3.88923 0
M  V30 6834 N 669.712 -4.74728 3.00981 0
M  V30 6835 H 661.863 -1.04567 1.84877 0
M  V30 6836 H 664.126 -0.520118 0.792579 0
M  V30 6837 H 663.832 -2.39667 2.57396 0
M  V30 6838 H 663.706 -3.55475 1.26165 0
M  V30 6839 H 666.093 -2.90641 0.511034 0
M  V30 6840 H 666.174 -1.75993 1.85634 0
M  V30 6841 H 665.818 -3.68826 3.49185 0
M  V30 6842 H 665.748 -4.82102 2.11862 0
M  V30 6843 H 668.239 -3.27751 1.88115 0
M  V30 6844 H 668.552 -6.36923 4.37663 0
M  V30 6845 H 666.897 -5.73196 3.93029 0
M  V30 6846 H 670.088 -4.01722 2.40286 0
M  V30 6847 H 670.261 -5.42719 3.54062 0
M  V30 6848 N 663.667 -0.670007 -1.42649 0
M  V30 6849 C 664.944 -0.119451 -1.95235 0
M  V30 6850 C 665.324 1.36461 -1.61064 0
M  V30 6851 O 664.672 2.09843 -0.904329 0
M  V30 6852 C 664.882 -0.383498 -3.46887 0
M  V30 6853 C 666.23 -0.297431 -4.23557 0
M  V30 6854 O 667.254 -0.31698 -3.54787 0
M  V30 6855 O 666.113 -0.235507 -5.45992 0
M  V30 6856 H 663.207 -8.85474e-05 -0.827 0
M  V30 6857 H 665.753 -0.744406 -1.52501 0
M  V30 6858 H 664.525 -1.41174 -3.64946 0
M  V30 6859 H 664.148 0.273702 -3.96657 0
M  V30 6860 N 665.145 1.52092 -0.413018 0
M  V30 6861 C 666.075 2.30021 0.401567 0
M  V30 6862 C 667.056 1.34395 1.04269 0
M  V30 6863 O 668.241 1.63304 1.05097 0
M  V30 6864 C 665.371 3.12447 1.51638 0
M  V30 6865 C 664.325 4.16153 1.00005 0
M  V30 6866 C 663.651 4.86948 2.20875 0
M  V30 6867 C 664.951 5.22275 0.0513757 0
M  V30 6868 H 666.645 2.98365 -0.248704 0
M  V30 6869 H 664.191 1.4349 -0.121052 0
M  V30 6870 H 666.144 3.65733 2.09326 0
M  V30 6871 H 664.868 2.41879 2.19458 0
M  V30 6872 H 663.527 3.63882 0.445549 0
M  V30 6873 H 663.175 4.12905 2.8726 0
M  V30 6874 H 662.875 5.57057 1.86978 0
M  V30 6875 H 664.399 5.43048 2.79162 0
M  V30 6876 H 665.813 5.70778 0.537176 0
M  V30 6877 H 664.21 5.9977 -0.198977 0
M  V30 6878 H 665.28 4.76611 -0.892736 0
M  V30 6879 N 666.623 0.143563 1.56945 0
M  V30 6880 C 667.533 -0.810562 2.20152 0
M  V30 6881 C 668.549 -1.27431 1.1848 0
M  V30 6882 O 669.725 -1.33221 1.51044 0
M  V30 6883 C 666.79 -2.03353 2.80799 0
M  V30 6884 C 665.851 -1.61936 3.97587 0
M  V30 6885 C 665.084 -2.78403 4.55332 0
M  V30 6886 O 665.307 -3.94521 4.11958 0
M  V30 6887 O 664.241 -2.54073 5.45647 0
M  V30 6888 H 668.067 -0.30253 3.02189 0
M  V30 6889 H 665.652 -0.0832925 1.49168 0
M  V30 6890 H 667.534 -2.74932 3.19359 0
M  V30 6891 H 666.209 -2.53116 2.01777 0
M  V30 6892 H 665.116 -0.873904 3.6375 0
M  V30 6893 H 666.449 -1.16892 4.78118 0
M  V30 6894 N 668.101 -1.57061 -0.130224 0
M  V30 6895 C 669.349 -1.83893 -0.838313 0
M  V30 6896 C 669.67 -0.727046 -1.80939 0
M  V30 6897 O 668.94 0.249927 -1.94299 0
M  V30 6898 H 667.52 -0.67846 -0.312573 0
M  V30 6899 H 670.182 -1.94529 -0.120224 0
M  V30 6900 H 669.278 -2.79419 -1.39038 0
M  V30 6901 N 669.579 0.400081 -1.52437 0
M  V30 6902 C 670.807 1.16768 -1.70801 0
M  V30 6903 C 671.222 1.84036 -0.421462 0
M  V30 6904 O 670.579 1.72242 0.603228 0
M  V30 6905 C 670.63 2.22403 -2.8499 0
M  V30 6906 O 670.351 1.57879 -4.08663 0
M  V30 6907 C 671.852 3.11974 -3.1494 0
M  V30 6908 H 669.072 0.350533 -0.57216 0
M  V30 6909 H 671.616 0.469534 -1.99037 0
M  V30 6910 H 669.771 2.87871 -2.59247 0
M  V30 6911 H 670.185 2.27982 -4.7236 0
M  V30 6912 H 671.659 3.82148 -3.9833 0
M  V30 6913 H 672.136 3.74858 -2.28863 0
M  V30 6914 H 672.742 2.52165 -3.42481 0
M  V30 6915 N 671.057 1.43213 0.657864 0
M  V30 6916 C 672.287 1.478 1.44356 0
M  V30 6917 C 672.695 0.0930206 1.88971 0
M  V30 6918 O 672.038 -0.906089 1.59799 0
M  V30 6919 C 672.1 2.35745 2.71412 0
M  V30 6920 C 671.764 3.83359 2.48767 0
M  V30 6921 C 672.761 4.74585 2.12285 0
M  V30 6922 C 670.446 4.27799 2.63235 0
M  V30 6923 C 672.44 6.08247 1.90562 0
M  V30 6924 C 670.127 5.61516 2.41128 0
M  V30 6925 C 671.125 6.51557 2.04847 0
M  V30 6926 O 670.813 7.82802 1.82967 0
M  V30 6927 H 670.545 0.504363 0.450104 0
M  V30 6928 H 673.099 1.88572 0.814241 0
M  V30 6929 H 671.329 1.89852 3.36887 0
M  V30 6930 H 673.018 2.31589 3.33348 0
M  V30 6931 H 673.784 4.41531 2.00687 0
M  V30 6932 H 669.663 3.57993 2.90451 0
M  V30 6933 H 673.207 6.78489 1.62168 0
M  V30 6934 H 669.104 5.94139 2.52327 0
M  V30 6935 H 669.872 7.94332 1.97429 0
M  V30 6936 N 672.536 -0.895792 1.29666 0
M  V30 6937 C 673.466 -2.01673 1.17688 0
M  V30 6938 C 674.447 -1.69955 0.0701317 0
M  V30 6939 O 675.632 -1.9258 0.250289 0
M  V30 6940 C 672.762 -3.36568 0.856681 0
M  V30 6941 C 671.716 -3.82509 1.92017 0
M  V30 6942 C 671.042 -5.14574 1.4532 0
M  V30 6943 C 672.342 -4.02409 3.32963 0
M  V30 6944 H 674.036 -2.11953 2.11463 0
M  V30 6945 H 671.582 -1.01839 1.01807 0
M  V30 6946 H 673.535 -4.14498 0.759577 0
M  V30 6947 H 672.259 -3.26391 -0.116763 0
M  V30 6948 H 670.918 -3.068 2.00673 0
M  V30 6949 H 670.566 -5.00815 0.468325 0
M  V30 6950 H 670.266 -5.46283 2.16447 0
M  V30 6951 H 671.79 -5.9504 1.36968 0
M  V30 6952 H 673.204 -4.70808 3.27127 0
M  V30 6953 H 671.601 -4.45478 4.02082 0
M  V30 6954 H 672.671 -3.06616 3.75652 0
M  V30 6955 N 674.014 -1.12206 -1.10668 0
M  V30 6956 C 675.254 -0.885935 -1.84202 0
M  V30 6957 C 675.618 0.577849 -1.83098 0
M  V30 6958 O 676.819 0.931051 -2.5216 0
M  V30 6959 C 675.09 -1.44197 -3.2702 0
M  V30 6960 S 676.649 -1.34402 -4.1771 0
M  V30 6961 H 673.467 -0.319653 -0.635093 0
M  V30 6962 H 676.069 -1.43112 -1.33189 0
M  V30 6963 H 674.773 -2.50096 -3.25392 0
M  V30 6964 H 674.304 -0.894173 -3.83103 0
M  V30 6965 H 676.319 -0.313873 -4.95206 0
M  V30 6966 N 675.492 1.28418 -0.913599 0
M  V30 6967 C 676.908 1.47411 -0.611728 0
M  V30 6968 C 677.108 1.83018 0.843008 0
M  V30 6969 O 676.164 1.93505 1.6221 0
M  V30 6970 C 677.477 2.57703 -1.5495 0
M  V30 6971 C 679.025 2.71572 -1.5562 0
M  V30 6972 C 679.5 3.85008 -2.48058 0
M  V30 6973 N 680.991 3.92361 -2.46184 0
M  V30 6974 C 681.726 4.79516 -3.14407 0
M  V30 6975 N 681.222 5.71262 -3.91958 0
M  V30 6976 N 683.015 4.73125 -3.03495 0
M  V30 6977 H 675.166 1.03585 -1.85429 0
M  V30 6978 H 677.429 0.515907 -0.795326 0
M  V30 6979 H 677.135 2.38298 -2.58663 0
M  V30 6980 H 677.009 3.54801 -1.28048 0
M  V30 6981 H 679.396 2.90366 -0.526441 0
M  V30 6982 H 679.477 1.75006 -1.86565 0
M  V30 6983 H 679.121 3.66969 -3.51136 0
M  V30 6984 H 679.051 4.80971 -2.14416 0
M  V30 6985 H 681.542 3.26749 -1.89851 0
M  V30 6986 H 681.855 6.34593 -4.41034 0
M  V30 6987 H 680.2 5.71103 -3.96063 0
M  V30 6988 H 683.391 4.00442 -2.42413 0
M  V30 6989 H 683.564 5.40834 -3.56935 0
M  V30 6990 N 676.97 0.677563 1.42291 0
M  V30 6991 C 677.933 0.0101085 2.29198 0
M  V30 6992 C 678.933 -0.726219 1.43467 0
M  V30 6993 O 680.123 -0.563807 1.64824 0
M  V30 6994 C 677.255 -0.996316 3.26016 0
M  V30 6995 H 678.448 0.775071 2.89711 0
M  V30 6996 H 676.001 0.440065 1.49977 0
M  V30 6997 H 676.736 -1.78967 2.70446 0
M  V30 6998 H 676.521 -0.471687 3.89253 0
M  V30 6999 H 678.011 -1.46167 3.91184 0
M  V30 7000 N 678.448 -1.51871 0.421078 0
M  V30 7001 C 679.864 -1.59435 0.0725398 0
M  V30 7002 C 680.064 -1.43315 -1.41644 0
M  V30 7003 O 679.12 -1.26614 -2.18461 0
M  V30 7004 C 680.433 -2.9509 0.578132 0
M  V30 7005 C 681.981 -3.08356 0.537149 0
M  V30 7006 C 682.456 -4.4651 1.01945 0
M  V30 7007 N 683.947 -4.52784 0.976758 0
M  V30 7008 C 684.682 -5.57976 1.32099 0
M  V30 7009 N 684.178 -6.70664 1.73727 0
M  V30 7010 N 685.971 -5.48248 1.2402 0
M  V30 7011 H 678.122 -1.60595 1.39007 0
M  V30 7012 H 680.385 -0.756138 0.571803 0
M  V30 7013 H 680.091 -3.12205 1.61929 0
M  V30 7014 H 679.965 -3.772 -0.00578374 0
M  V30 7015 H 682.352 -2.90919 -0.494991 0
M  V30 7016 H 682.433 -2.28125 1.15727 0
M  V30 7017 H 682.077 -4.64692 2.04997 0
M  V30 7018 H 682.007 -5.25256 0.376023 0
M  V30 7019 H 684.498 -3.71898 0.670851 0
M  V30 7020 H 684.811 -7.46932 1.98274 0
M  V30 7021 H 683.156 -6.71914 1.77641 0
M  V30 7022 H 686.347 -4.59095 0.913756 0
M  V30 7023 H 686.52 -6.30119 1.51176 0
M  V30 7024 N 679.926 -0.151884 -1.56866 0
M  V30 7025 C 681.151 0.508044 -2.01081 0
M  V30 7026 C 681.576 1.57306 -1.03134 0
M  V30 7027 O 680.934 1.81298 -0.0078309 0
M  V30 7028 C 680.982 1.08106 -3.44014 0
M  V30 7029 O 680.086 2.19577 -3.49084 0
M  V30 7030 H 679.427 0.123757 -0.652365 0
M  V30 7031 H 681.957 -0.250055 -2.03066 0
M  V30 7032 H 681.967 1.40851 -3.82916 0
M  V30 7033 H 680.642 0.301168 -4.14808 0
M  V30 7034 H 679.219 1.88023 -3.22027 0
M  V30 7035 N 681.404 1.57128 0.121893 0
M  V30 7036 C 682.632 1.88883 0.844451 0
M  V30 7037 C 683.047 0.742824 1.73573 0
M  V30 7038 O 682.404 -0.286475 1.80238 0
M  V30 7039 C 682.455 3.20076 1.68029 0
M  V30 7040 O 682.176 4.30264 0.824898 0
M  V30 7041 C 683.677 3.65515 2.50826 0
M  V30 7042 H 680.897 0.62549 0.242907 0
M  V30 7043 H 683.441 2.04219 0.107151 0
M  V30 7044 H 681.596 3.06418 2.37038 0
M  V30 7045 H 682.01 5.05439 1.40113 0
M  V30 7046 H 683.484 4.60081 3.05008 0
M  V30 7047 H 683.961 2.92029 3.28048 0
M  V30 7048 H 684.567 3.81952 1.87064 0
M  V30 7049 N 682.882 -0.391992 1.52647 0
M  V30 7050 C 683.814 -1.49811 1.73463 0
M  V30 7051 C 684.827 -1.50734 0.615078 0
M  V30 7052 O 686.016 -1.5469 0.890696 0
M  V30 7053 C 683.116 -2.88667 1.77552 0
M  V30 7054 C 682.289 -3.11743 3.06815 0
M  V30 7055 C 681.348 -4.30564 3.02491 0
M  V30 7056 O 680.374 -4.27014 3.76361 0
M  V30 7057 N 681.576 -5.36593 2.21468 0
M  V30 7058 H 684.341 -1.32343 2.68897 0
M  V30 7059 H 681.902 -0.581475 1.51098 0
M  V30 7060 H 683.894 -3.66251 1.7217 0
M  V30 7061 H 682.464 -2.99508 0.895181 0
M  V30 7062 H 681.684 -2.2205 3.25711 0
M  V30 7063 H 682.972 -3.24013 3.92292 0
M  V30 7064 H 682.37 -5.42332 1.60913 0
M  V30 7065 H 680.927 -6.12855 2.21928 0
M  V30 7066 N 684.36 -1.4356 -0.65026 0
M  V30 7067 C 685.608 -1.45046 -1.40734 0
M  V30 7068 C 685.929 -0.0769822 -1.94848 0
M  V30 7069 O 685.199 0.888098 -1.74613 0
M  V30 7070 H 683.779 -0.534034 -0.522318 0
M  V30 7071 H 686.441 -1.79186 -0.766703 0
M  V30 7072 H 685.537 -2.16476 -2.24822 0
M  V30 7073 N 685.838 0.888903 -1.30139 0
M  V30 7074 C 686.748 2.02705 -1.18101 0
M  V30 7075 C 687.764 1.73702 -0.101809 0
M  V30 7076 O 688.94 1.98906 -0.315984 0
M  V30 7077 C 686.005 3.35616 -0.869651 0
M  V30 7078 C 685.066 3.78067 -2.03381 0
M  V30 7079 C 684.299 5.04635 -1.73721 0
M  V30 7080 O 684.522 5.66531 -0.663267 0
M  V30 7081 O 683.456 5.43399 -2.58845 0
M  V30 7082 H 687.282 2.15788 -2.13704 0
M  V30 7083 H 684.867 1.01426 -1.09695 0
M  V30 7084 H 686.749 4.15358 -0.711043 0
M  V30 7085 H 685.424 3.23651 0.0565002 0
M  V30 7086 H 684.331 2.99046 -2.24772 0
M  V30 7087 H 685.664 3.94631 -2.94155 0
M  V30 7088 N 687.317 1.12792 1.10072 0
M  V30 7089 C 688.563 0.886857 1.82381 0
M  V30 7090 C 688.896 -0.58576 1.85155 0
M  V30 7091 O 688.171 -1.43317 1.31493 0
M  V30 7092 C 688.454 1.46703 3.28862 0
M  V30 7093 C 688.307 3.00829 3.34398 0
M  V30 7094 C 689.626 1.12971 4.25353 0
M  V30 7095 H 686.745 0.32362 0.662148 0
M  V30 7096 H 689.387 1.39513 1.28982 0
M  V30 7097 H 687.537 1.03476 3.74466 0
M  V30 7098 H 689.209 3.52764 2.97247 0
M  V30 7099 H 687.452 3.36164 2.74183 0
M  V30 7100 H 688.123 3.36519 4.3756 0
M  V30 7101 H 690.599 1.50313 3.88001 0
M  V30 7102 H 689.475 1.56223 5.26199 0
M  V30 7103 H 689.736 0.0424452 4.4208 0
M  V30 7104 N 688.795 -1.27931 0.920396 0
M  V30 7105 C 690.023 -1.98805 0.573087 0
M  V30 7106 C 690.438 -1.68724 -0.847201 0
M  V30 7107 O 689.795 -0.943699 -1.56207 0
M  V30 7108 C 689.846 -3.52971 0.780633 0
M  V30 7109 O 689.567 -3.81994 2.14504 0
M  V30 7110 C 691.068 -4.411 0.44105 0
M  V30 7111 H 688.288 -0.634651 0.21785 0
M  V30 7112 H 690.832 -1.62965 1.23542 0
M  V30 7113 H 688.987 -3.87048 0.165204 0
M  V30 7114 H 689.401 -4.76609 2.18962 0
M  V30 7115 H 690.875 -5.48312 0.637006 0
M  V30 7116 H 691.352 -4.34758 -0.62306 0
M  V30 7117 H 691.958 -4.12532 1.0343 0
M  V30 7118 N 690.273 -0.685099 -1.4193 0
M  V30 7119 C 691.689 -0.355632 -1.55587 0
M  V30 7120 C 691.889 1.13823 -1.66273 0
M  V30 7121 O 690.945 1.92387 -1.63534 0
M  V30 7122 C 692.258 -1.09498 -2.80055 0
M  V30 7123 C 693.806 -1.07831 -2.93839 0
M  V30 7124 C 694.281 -1.79919 -4.21181 0
M  V30 7125 N 695.772 -1.76837 -4.28115 0
M  V30 7126 C 696.507 -2.29463 -5.25485 0
M  V30 7127 N 696.003 -2.90516 -6.28945 0
M  V30 7128 N 697.796 -2.19779 -5.17353 0
M  V30 7129 H 689.947 -1.65412 -1.33239 0
M  V30 7130 H 692.21 -0.697453 -0.642078 0
M  V30 7131 H 691.916 -2.14997 -2.78333 0
M  V30 7132 H 691.79 -0.666813 -3.71259 0
M  V30 7133 H 694.177 -0.0316152 -2.95083 0
M  V30 7134 H 694.258 -1.54545 -2.03837 0
M  V30 7135 H 693.902 -2.84562 -4.20698 0
M  V30 7136 H 693.832 -1.30647 -5.10136 0
M  V30 7137 H 696.323 -1.32315 -3.53979 0
M  V30 7138 H 696.636 -3.28266 -6.99615 0
M  V30 7139 H 694.981 -2.94589 -6.29478 0
M  V30 7140 H 698.172 -1.71763 -4.35448 0
M  V30 7141 H 698.345 -2.61097 -5.9307 0
M  V30 7142 N 691.751 1.51645 -0.429126 0
M  V30 7143 C 692.698 2.27542 0.386446 0
M  V30 7144 C 693.668 1.30786 1.02393 0
M  V30 7145 O 694.853 1.59678 1.0444 0
M  V30 7146 C 691.993 3.11457 1.48623 0
M  V30 7147 C 691.106 4.23196 0.867691 0
M  V30 7148 C 690.241 4.94435 1.94183 0
M  V30 7149 C 689.28 5.98108 1.30129 0
M  V30 7150 N 688.417 6.62786 2.31644 0
M  V30 7151 H 693.257 2.968 -0.267155 0
M  V30 7152 H 690.794 1.46397 -0.143591 0
M  V30 7153 H 692.752 3.58429 2.13506 0
M  V30 7154 H 691.382 2.44329 2.10957 0
M  V30 7155 H 690.434 3.80248 0.107373 0
M  V30 7156 H 691.746 4.97499 0.35997 0
M  V30 7157 H 690.9 5.44914 2.66747 0
M  V30 7158 H 689.639 4.19744 2.48326 0
M  V30 7159 H 688.644 5.4693 0.561082 0
M  V30 7160 H 689.869 6.74751 0.767303 0
M  V30 7161 H 687.815 5.90913 2.84883 0
M  V30 7162 H 687.732 7.32828 1.85741 0
M  V30 7163 H 689 7.17897 3.03717 0
M  V30 7164 N 693.229 0.160201 1.56784 0
M  V30 7165 C 694.475 -0.48831 1.96833 0
M  V30 7166 C 694.808 -1.63641 1.04571 0
M  V30 7167 O 694.083 -1.94289 0.0906481 0
M  V30 7168 C 694.366 -0.981908 3.46454 0
M  V30 7169 C 694.219 0.165607 4.49495 0
M  V30 7170 C 695.538 -1.85931 3.98896 0
M  V30 7171 H 692.657 -0.176027 0.71567 0
M  V30 7172 H 695.299 0.244093 1.88426 0
M  V30 7173 H 693.449 -1.60602 3.5375 0
M  V30 7174 H 695.121 0.802372 4.54268 0
M  V30 7175 H 693.364 0.822789 4.25926 0
M  V30 7176 H 694.035 -0.221699 5.51555 0
M  V30 7177 H 696.511 -1.33327 3.94161 0
M  V30 7178 H 695.387 -2.17373 5.04024 0
M  V30 7179 H 695.648 -2.80106 3.42042 0
M  V30 7180 N 694.707 -1.5719 -0.113559 0
M  V30 7181 C 695.935 -1.89328 -0.834422 0
M  V30 7182 C 696.35 -0.752018 -1.73177 0
M  V30 7183 O 695.707 0.276912 -1.80387 0
M  V30 7184 C 695.758 -3.20962 -1.66329 0
M  V30 7185 O 695.479 -4.30695 -0.802069 0
M  V30 7186 C 696.98 -3.6684 -2.48884 0
M  V30 7187 H 694.2 -0.626769 -0.239587 0
M  V30 7188 H 696.744 -2.04273 -0.0963195 0
M  V30 7189 H 694.899 -3.0767 -2.35409 0
M  V30 7190 H 695.313 -5.06175 -1.37431 0
M  V30 7191 H 696.787 -4.61692 -3.02563 0
M  V30 7192 H 697.264 -2.93765 -3.26495 0
M  V30 7193 H 697.87 -3.82938 -1.85036 0
M  V30 7194 N 696.185 0.383891 -1.52853 0
M  V30 7195 C 697.431 1.13009 -1.68395 0
M  V30 7196 C 697.764 1.89488 -0.425195 0
M  V30 7197 O 697.039 1.8574 0.577136 0
M  V30 7198 C 697.322 2.10419 -2.92226 0
M  V30 7199 C 697.175 1.3767 -4.28214 0
M  V30 7200 C 698.494 3.10781 -3.11614 0
M  V30 7201 H 695.613 0.409463 -0.612788 0
M  V30 7202 H 698.255 0.412895 -1.85459 0
M  V30 7203 H 696.405 2.71579 -2.77808 0
M  V30 7204 H 698.077 0.794352 -4.54409 0
M  V30 7205 H 696.32 0.678533 -4.2846 0
M  V30 7206 H 696.991 2.08874 -5.10956 0
M  V30 7207 H 699.467 2.59715 -3.25096 0
M  V30 7208 H 698.343 3.76179 -3.99725 0
M  V30 7209 H 698.604 3.79933 -2.2606 0
M  V30 7210 N 697.663 1.43903 0.642637 0
M  V30 7211 C 698.611 1.50164 1.77634 0
M  V30 7212 C 699.605 0.374294 1.65213 0
M  V30 7213 O 700.811 0.548748 1.71431 0
M  V30 7214 H 697.186 0.470974 0.586249 0
M  V30 7215 H 699.157 2.45603 1.69474 0
M  V30 7216 C 697.906 1.45196 3.15933 0
M  V30 7217 H 697.229 2.31253 3.26132 0
M  V30 7218 H 698.669 1.53638 3.95185 0
M  V30 7219 C 697.128 0.171043 3.36466 0
M  V30 7220 O 697.658 -0.763413 3.94379 0
M  V30 7221 N 695.864 0.077847 2.90496 0
M  V30 7222 H 695.411 0.8391 2.43551 0
M  V30 7223 H 695.369 -0.778473 3.0461 0
M  V30 7224 N 699.141 -0.881989 1.30609 0
M  V30 7225 C 700.387 -1.63647 1.19781 0
M  V30 7226 C 700.72 -1.92632 -0.246265 0
M  V30 7227 O 699.995 -1.54938 -1.17577 0
M  V30 7228 C 700.278 -2.97437 2.02985 0
M  V30 7229 C 700.131 -2.75406 3.55628 0
M  V30 7230 C 701.45 -3.98397 1.86997 0
M  V30 7231 H 698.569 -0.593841 0.436488 0
M  V30 7232 H 701.211 -1.02041 1.60273 0
M  V30 7233 H 699.361 -3.50018 1.68581 0
M  V30 7234 H 701.033 -2.2959 4.00107 0
M  V30 7235 H 699.276 -2.09856 3.79662 0
M  V30 7236 H 699.947 -3.70552 4.09139 0
M  V30 7237 H 702.423 -3.54986 2.17081 0
M  V30 7238 H 701.299 -4.89916 2.47536 0
M  V30 7239 H 701.56 -4.3424 0.829943 0
M  V30 7240 N 700.619 -1.13374 -1.09472 0
M  V30 7241 C 701.549 -0.833268 -2.18126 0
M  V30 7242 C 702.53 0.207169 -1.68834 0
M  V30 7243 O 703.715 0.0662012 -1.94087 0
M  V30 7244 C 700.845 -0.297979 -3.46019 0
M  V30 7245 C 699.799 -1.27261 -4.08642 0
M  V30 7246 C 699.125 -0.597104 -5.31356 0
M  V30 7247 C 700.425 -2.63095 -4.51197 0
M  V30 7248 H 702.119 -1.74182 -2.43518 0
M  V30 7249 H 699.665 -0.838921 -1.17039 0
M  V30 7250 H 701.618 -0.0754444 -4.21332 0
M  V30 7251 H 700.342 0.645959 -3.20148 0
M  V30 7252 H 699.001 -1.48113 -3.35348 0
M  V30 7253 H 698.649 0.352293 -5.01765 0
M  V30 7254 H 698.349 -1.24734 -5.74208 0
M  V30 7255 H 699.873 -0.38384 -6.09392 0
M  V30 7256 H 701.287 -2.46214 -5.17737 0
M  V30 7257 H 699.684 -3.2429 -5.04932 0
M  V30 7258 H 700.754 -3.20793 -3.6362 0
M  V30 7259 N 702.098 1.27442 -0.927168 0
M  V30 7260 C 703.323 1.99036 -0.583042 0
M  V30 7261 C 703.748 1.68711 0.83176 0
M  V30 7262 O 703.106 0.927081 1.55804 0
M  V30 7263 C 703.154 3.51271 -0.814925 0
M  V30 7264 O 702.258 4.12226 0.119742 0
M  V30 7265 H 701.599 0.624883 -0.224538 0
M  V30 7266 H 704.129 1.62263 -1.24628 0
M  V30 7267 H 704.139 4.01411 -0.730282 0
M  V30 7268 H 702.814 3.72676 -1.84623 0
M  V30 7269 H 701.391 3.72897 -0.0147688 0
M  V30 7270 N 703.576 0.692616 1.41565 0
M  V30 7271 C 704.987 0.297478 1.84315 0
M  V30 7272 C 705.338 -1.16379 1.57957 0
M  V30 7273 O 704.463 -1.89303 1.0485 0
M  V30 7274 C 705.058 0.533136 3.34579 0
M  V30 7275 C 703.617 0.191944 3.7591 0
M  V30 7276 C 702.764 0.816873 2.64995 0
M  V30 7277 H 705.715 0.893488 1.31158 0
M  V30 7278 H 705.736 -0.209105 3.79925 0
M  V30 7279 H 705.248 1.59674 3.53731 0
M  V30 7280 H 703.349 -0.867512 3.6236 0
M  V30 7281 H 703.462 0.644902 4.7474 0
M  V30 7282 H 701.826 0.246715 2.53502 0
M  V30 7283 H 702.609 1.88429 2.86966 0
M  V30 7284 N 705.054 -1.51416 0.437162 0
M  V30 7285 C 706.47 -1.59349 0.0894459 0
M  V30 7286 C 706.67 -1.44809 -1.40116 0
M  V30 7287 O 705.726 -1.28924 -2.17106 0
M  V30 7288 C 707.039 -2.9446 0.609398 0
M  V30 7289 C 708.587 -3.07769 0.569824 0
M  V30 7290 C 709.062 -4.45404 1.06675 0
M  V30 7291 N 710.553 -4.51723 1.02473 0
M  V30 7292 C 711.288 -5.56544 1.3801 0
M  V30 7293 N 710.784 -6.68784 1.80831 0
M  V30 7294 N 712.577 -5.46901 1.29828 0
M  V30 7295 H 704.728 -1.59112 1.40703 0
M  V30 7296 H 706.991 -0.750031 0.579791 0
M  V30 7297 H 706.697 -3.1047 1.65231 0
M  V30 7298 H 706.571 -3.77184 0.0342236 0
M  V30 7299 H 708.958 -2.91428 -0.464107 0
M  V30 7300 H 709.039 -2.26885 1.1814 0
M  V30 7301 H 708.683 -4.62492 2.09914 0
M  V30 7302 H 708.613 -5.24827 0.431712 0
M  V30 7303 H 711.104 -3.71165 0.710258 0
M  V30 7304 H 711.417 -7.44787 2.06185 0
M  V30 7305 H 709.762 -6.69992 1.84757 0
M  V30 7306 H 712.953 -4.581 0.962397 0
M  V30 7307 H 713.126 -6.2848 1.57851 0
M  V30 7308 N 706.532 -0.168513 -1.56696 0
M  V30 7309 C 707.762 0.482802 -2.0088 0
M  V30 7310 C 708.17 1.57537 -1.0478 0
M  V30 7311 O 707.513 1.83656 -0.0402746 0
M  V30 7312 C 707.575 1.1236 -3.4149 0
M  V30 7313 C 707.239 0.173027 -4.56672 0
M  V30 7314 C 708.236 -0.607565 -5.16338 0
M  V30 7315 C 705.921 0.0696691 -5.02252 0
M  V30 7316 C 707.915 -1.47874 -6.2001 0
M  V30 7317 C 705.602 -0.805096 -6.05773 0
M  V30 7318 C 706.6 -1.57789 -6.64524 0
M  V30 7319 O 706.288 -2.43804 -7.66038 0
M  V30 7320 H 706.02 0.128246 -0.663723 0
M  V30 7321 H 708.574 -0.266532 -2.03663 0
M  V30 7322 H 706.804 1.921 -3.35611 0
M  V30 7323 H 708.493 1.67683 -3.69645 0
M  V30 7324 H 709.259 -0.53787 -4.82008 0
M  V30 7325 H 705.138 0.660957 -4.56237 0
M  V30 7326 H 708.682 -2.0824 -6.65794 0
M  V30 7327 H 704.579 -0.876005 -6.39528 0
M  V30 7328 H 705.347 -2.37289 -7.83349 0
M  V30 7329 N 708.01 1.57248 0.105221 0
M  V30 7330 C 708.92 2.04653 1.14693 0
M  V30 7331 C 709.936 0.969488 1.44489 0
M  V30 7332 O 711.112 1.28196 1.55331 0
M  V30 7333 C 708.177 2.45297 2.45011 0
M  V30 7334 C 707.238 3.67148 2.22489 0
M  V30 7335 C 706.471 4.05844 3.46592 0
M  V30 7336 O 706.694 3.44736 4.54437 0
M  V30 7337 O 705.628 4.98862 3.36779 0
M  V30 7338 H 709.454 2.93663 0.774336 0
M  V30 7339 H 707.039 1.45998 0.31701 0
M  V30 7340 H 708.921 2.72112 3.21766 0
M  V30 7341 H 707.596 1.59429 2.81717 0
M  V30 7342 H 706.503 3.45463 1.43547 0
M  V30 7343 H 707.836 4.53764 1.9068 0
M  V30 7344 N 709.488 -0.375779 1.53054 0
M  V30 7345 C 710.737 -1.11674 1.67964 0
M  V30 7346 C 711.05 -1.90755 0.432655 0
M  V30 7347 O 712.256 -2.67538 0.462109 0
M  V30 7348 C 710.712 -2.0344 2.96884 0
M  V30 7349 C 710.32 -1.29719 4.28809 0
M  V30 7350 C 712.064 -2.7759 3.2116 0
M  V30 7351 C 709.971 -2.20327 5.48826 0
M  V30 7352 H 708.901 -0.420597 0.625791 0
M  V30 7353 H 711.552 -0.378499 1.79554 0
M  V30 7354 H 709.934 -2.80953 2.79072 0
M  V30 7355 H 711.108 -0.573394 4.57219 0
M  V30 7356 H 709.423 -0.674735 4.10897 0
M  V30 7357 H 712.02 -3.4559 4.0801 0
M  V30 7358 H 712.363 -3.42399 2.36789 0
M  V30 7359 H 712.896 -2.07164 3.396 0
M  V30 7360 H 709.635 -1.60113 6.35645 0
M  V30 7361 H 709.155 -2.90585 5.2471 0
M  V30 7362 H 710.834 -2.80116 5.83219 0
M  V30 7363 N 710.966 -1.44241 -0.634997 0
M  V30 7364 C 712.212 -1.47038 -1.39669 0
M  V30 7365 C 712.545 -0.101122 -1.93937 0
M  V30 7366 O 711.82 0.880699 -1.73418 0
M  V30 7367 C 712.103 -2.52763 -2.56482 0
M  V30 7368 C 711.956 -3.99032 -2.07589 0
M  V30 7369 C 713.275 -2.55031 -3.58674 0
M  V30 7370 H 710.394 -0.53537 -0.506506 0
M  V30 7371 H 713.036 -1.75898 -0.718317 0
M  V30 7372 H 711.186 -2.28284 -3.14354 0
M  V30 7373 H 712.858 -4.3463 -1.54577 0
M  V30 7374 H 711.101 -4.10994 -1.38804 0
M  V30 7375 H 711.772 -4.68649 -2.91671 0
M  V30 7376 H 714.248 -2.76893 -3.10595 0
M  V30 7377 H 713.124 -3.30916 -4.37934 0
M  V30 7378 H 713.385 -1.59085 -4.12486 0
M  V30 7379 N 712.444 0.87505 -1.31075 0
M  V30 7380 C 713.693 1.62245 -1.19831 0
M  V30 7381 C 714.006 1.94078 0.24357 0
M  V30 7382 O 715.212 2.67265 0.477646 0
M  V30 7383 C 713.668 2.92464 -2.09744 0
M  V30 7384 C 713.276 2.68134 -3.58898 0
M  V30 7385 C 715.02 3.70449 -2.07287 0
M  V30 7386 C 712.927 3.9423 -4.40836 0
M  V30 7387 H 711.857 0.608741 -0.444916 0
M  V30 7388 H 714.508 0.967947 -1.55894 0
M  V30 7389 H 712.89 3.59262 -1.66574 0
M  V30 7390 H 714.064 2.09776 -4.10281 0
M  V30 7391 H 712.379 2.03511 -3.6328 0
M  V30 7392 H 714.976 4.63983 -2.65752 0
M  V30 7393 H 715.319 4.02611 -1.05876 0
M  V30 7394 H 715.852 3.10528 -2.48631 0
M  V30 7395 H 712.591 3.67221 -5.42982 0
M  V30 7396 H 712.111 4.52058 -3.94213 0
M  V30 7397 H 713.79 4.62162 -4.52786 0
M  V30 7398 N 713.922 1.13953 1.08869 0
M  V30 7399 C 715.171 0.899431 1.80536 0
M  V30 7400 C 715.484 -0.575781 1.86933 0
M  V30 7401 O 716.69 -0.932988 2.54966 0
M  V30 7402 C 715.146 1.55963 3.24351 0
M  V30 7403 C 714.754 3.07077 3.26202 0
M  V30 7404 C 716.498 1.40046 4.00733 0
M  V30 7405 C 714.405 3.65955 4.64576 0
M  V30 7406 H 713.335 0.332849 0.676556 0
M  V30 7407 H 715.986 1.3679 1.22314 0
M  V30 7408 H 714.368 1.01883 3.82669 0
M  V30 7409 H 715.542 3.67785 2.77617 0
M  V30 7410 H 713.857 3.22576 2.63312 0
M  V30 7411 H 716.454 1.81441 5.02974 0
M  V30 7412 H 716.797 0.345993 4.1486 0
M  V30 7413 H 717.33 1.91137 3.48872 0
M  V30 7414 H 714.069 4.71234 4.55652 0
M  V30 7415 H 713.589 3.10027 5.13462 0
M  V30 7416 H 715.268 3.65968 5.33551 0
M  V30 7417 N 715.4 -1.26948 0.933913 0
M  V30 7418 C 716.628 -1.98186 0.59414 0
M  V30 7419 C 717.043 -1.69614 -0.829257 0
M  V30 7420 O 716.4 -0.960213 -1.55197 0
M  V30 7421 C 716.451 -3.52123 0.818026 0
M  V30 7422 O 716.172 -3.79698 2.18543 0
M  V30 7423 C 717.673 -4.40608 0.48781 0
M  V30 7424 H 714.893 -0.632305 0.224569 0
M  V30 7425 H 717.437 -1.61646 1.25263 0
M  V30 7426 H 715.592 -3.86851 0.206246 0
M  V30 7427 H 716.006 -4.7426 2.24005 0
M  V30 7428 H 717.48 -5.47606 0.695126 0
M  V30 7429 H 717.957 -4.35394 -0.576913 0
M  V30 7430 H 718.563 -4.11411 1.078 0
M  V30 7431 N 716.879 -0.700114 -1.41195 0
M  V30 7432 C 718.125 -0.233351 -2.01453 0
M  V30 7433 C 718.458 1.16548 -1.55339 0
M  V30 7434 O 717.733 1.78756 -0.766575 0
M  V30 7435 C 718.016 -0.2961 -3.58881 0
M  V30 7436 C 717.869 -1.7322 -4.15108 0
M  V30 7437 C 719.188 0.341525 -4.38773 0
M  V30 7438 H 716.307 -0.0862667 -0.731934 0
M  V30 7439 H 718.949 -0.889693 -1.67882 0
M  V30 7440 H 717.099 0.262736 -3.87611 0
M  V30 7441 H 718.771 -2.34523 -3.97236 0
M  V30 7442 H 717.014 -2.2649 -3.69979 0
M  V30 7443 H 717.685 -1.7276 -5.24269 0
M  V30 7444 H 720.161 -0.134461 -4.15883 0
M  V30 7445 H 719.037 0.267098 -5.4825 0
M  V30 7446 H 719.298 1.42289 -4.18577 0
M  V30 7447 N 718.357 1.51182 -0.445186 0
M  V30 7448 C 719.603 2.02452 0.11882 0
M  V30 7449 C 719.936 1.32824 1.41673 0
M  V30 7450 O 719.211 0.445637 1.89326 0
M  V30 7451 C 719.494 3.5859 0.329475 0
M  V30 7452 C 719.347 4.38823 -0.987638 0
M  V30 7453 C 720.666 4.26241 1.09575 0
M  V30 7454 H 717.785 0.735819 0.0417092 0
M  V30 7455 H 720.427 1.80747 -0.585718 0
M  V30 7456 H 718.577 3.77214 0.9296 0
M  V30 7457 H 720.249 4.3183 -1.62235 0
M  V30 7458 H 718.492 4.03594 -1.59041 0
M  V30 7459 H 719.163 5.46257 -0.794192 0
M  V30 7460 H 721.639 4.11934 0.587328 0
M  V30 7461 H 720.515 5.35354 1.21191 0
M  V30 7462 H 720.776 3.87635 2.12584 0
M  V30 7463 N 719.835 0.176821 1.56605 0
M  V30 7464 C 720.798 -0.737429 2.17013 0
M  V30 7465 C 721.798 -1.15414 1.11965 0
M  V30 7466 O 722.988 -1.0702 1.37449 0
M  V30 7467 C 720.12 -2.00445 2.75744 0
M  V30 7468 H 721.313 -0.211455 2.99154 0
M  V30 7469 H 718.866 -0.0727582 1.56131 0
M  V30 7470 H 719.601 -2.57338 1.97352 0
M  V30 7471 H 719.386 -1.71456 3.52626 0
M  V30 7472 H 720.876 -2.65679 3.22187 0
M  V30 7473 N 721.313 -1.57302 -0.09688 0
M  V30 7474 C 722.276 -2.00976 -1.10188 0
M  V30 7475 C 723.276 -0.903009 -1.3305 0
M  V30 7476 O 724.466 -1.16853 -1.29194 0
M  V30 7477 C 721.598 -2.36893 -2.45142 0
M  V30 7478 H 722.791 -2.9098 -0.726003 0
M  V30 7479 H 720.344 -1.52515 -0.341872 0
M  V30 7480 H 721.079 -1.49837 -2.8761 0
M  V30 7481 H 720.864 -3.17632 -2.29897 0
M  V30 7482 H 722.354 -2.71345 -3.1743 0
M  V30 7483 N 722.791 0.367657 -1.53252 0
M  V30 7484 C 723.754 1.43308 -1.78873 0
M  V30 7485 C 724.754 1.46671 -0.659115 0
M  V30 7486 O 725.944 1.47468 -0.927306 0
M  V30 7487 C 723.076 2.82442 -1.90892 0
M  V30 7488 H 724.269 1.21864 -2.74024 0
M  V30 7489 H 721.822 0.600668 -1.44297 0
M  V30 7490 H 722.557 3.09202 -0.978 0
M  V30 7491 H 722.342 2.81399 -2.73051 0
M  V30 7492 H 723.832 3.59601 -2.12314 0
M  V30 7493 N 724.269 1.44576 0.627338 0
M  V30 7494 C 725.515 1.47777 1.38888 0
M  V30 7495 C 725.848 0.111406 1.9388 0
M  V30 7496 O 725.123 -0.87149 1.73883 0
M  V30 7497 C 725.406 2.54119 2.55138 0
M  V30 7498 C 725.259 4.00128 2.0547 0
M  V30 7499 C 726.578 2.56929 3.57317 0
M  V30 7500 H 723.697 0.538048 0.50366 0
M  V30 7501 H 726.339 1.76277 0.708978 0
M  V30 7502 H 724.489 2.29948 3.13139 0
M  V30 7503 H 726.161 4.35444 1.5227 0
M  V30 7504 H 724.404 4.11724 1.36623 0
M  V30 7505 H 725.075 4.7019 2.89181 0
M  V30 7506 H 727.551 2.78536 3.09122 0
M  V30 7507 H 726.427 3.33234 4.36173 0
M  V30 7508 H 726.688 1.6127 4.11636 0
M  V30 7509 N 725.747 -0.868086 1.31537 0
M  V30 7510 C 726.996 -1.61607 1.20689 0
M  V30 7511 C 727.309 -1.94204 -0.233275 0
M  V30 7512 O 728.515 -2.67515 -0.463465 0
M  V30 7513 C 726.971 -2.91348 2.11292 0
M  V30 7514 C 726.579 -2.66227 3.60315 0
M  V30 7515 C 728.323 -3.69344 2.09249 0
M  V30 7516 C 726.23 -3.91887 4.42921 0
M  V30 7517 H 725.16 -0.606373 0.448138 0
M  V30 7518 H 727.811 -0.959666 1.56405 0
M  V30 7519 H 726.193 -3.58374 1.68477 0
M  V30 7520 H 727.367 -2.07597 4.11388 0
M  V30 7521 H 725.682 -2.01582 3.64354 0
M  V30 7522 H 728.279 -4.62567 2.68209 0
M  V30 7523 H 728.622 -4.02044 1.0801 0
M  V30 7524 H 729.155 -3.09205 2.50274 0
M  V30 7525 H 725.894 -3.64336 5.44922 0
M  V30 7526 H 725.414 -4.49961 3.96605 0
M  V30 7527 H 727.093 -4.59754 4.55231 0
M  V30 7528 N 727.225 -1.14528 -1.08264 0
M  V30 7529 C 728.158 -0.777154 -2.14559 0
M  V30 7530 C 729.136 0.242165 -1.60787 0
M  V30 7531 O 730.32 0.130882 -1.88045 0
M  V30 7532 C 727.447 -0.154092 -3.38349 0
M  V30 7533 C 726.493 -1.14382 -4.10876 0
M  V30 7534 S 727.326 -2.68173 -4.63512 0
M  V30 7535 C 728.482 -2.0726 -5.90588 0
M  V30 7536 H 728.715 -1.67748 -2.45454 0
M  V30 7537 H 726.248 -0.966661 -1.20395 0
M  V30 7538 H 728.206 0.19897 -4.10018 0
M  V30 7539 H 726.867 0.723688 -3.05649 0
M  V30 7540 H 726.06 -0.655908 -4.99714 0
M  V30 7541 H 725.662 -1.44095 -3.45127 0
M  V30 7542 H 727.954 -1.42895 -6.62259 0
M  V30 7543 H 728.897 -2.94227 -6.44078 0
M  V30 7544 H 729.305 -1.51935 -5.43669 0
M  V30 7545 N 728.703 1.26451 -0.940633 0
M  V30 7546 C 729.951 1.93395 -0.586748 0
M  V30 7547 C 730.272 1.7417 0.876921 0
M  V30 7548 O 729.542 1.097 1.62304 0
M  V30 7549 H 728.122 0.715687 -0.214012 0
M  V30 7550 H 730.784 1.53902 -1.19584 0
M  V30 7551 H 729.88 3.01565 -0.804059 0
M  V30 7552 N 730.181 0.707592 1.40822 0
M  V30 7553 C 731.409 0.253073 2.05346 0
M  V30 7554 C 731.824 -1.10218 1.53289 0
M  V30 7555 O 731.181 -1.69112 0.686105 0
M  V30 7556 C 731.232 0.215411 3.60858 0
M  V30 7557 O 730.953 1.51714 4.10992 0
M  V30 7558 C 732.454 -0.258636 4.42545 0
M  V30 7559 H 729.674 0.115256 0.661027 0
M  V30 7560 H 732.218 0.963555 1.80377 0
M  V30 7561 H 730.373 -0.445978 3.84824 0
M  V30 7562 H 730.787 1.41226 5.05129 0
M  V30 7563 H 732.261 -0.233849 5.51504 0
M  V30 7564 H 732.738 -1.2995 4.19535 0
M  V30 7565 H 733.344 0.372186 4.23668 0
M  V30 7566 N 731.66 -1.50943 0.453197 0
M  V30 7567 C 732.623 -2.26684 -0.338705 0
M  V30 7568 C 733.623 -1.30748 -0.936032 0
M  V30 7569 O 734.813 -1.54327 -0.808002 0
M  V30 7570 C 731.945 -3.07063 -1.48071 0
M  V30 7571 H 733.138 -2.98131 0.325289 0
M  V30 7572 H 730.691 -1.54926 0.206771 0
M  V30 7573 H 731.426 -2.4007 -2.18029 0
M  V30 7574 H 731.211 -3.77545 -1.0584 0
M  V30 7575 H 732.701 -3.64393 -2.0398 0
M  V30 7576 N 733.138 -0.185124 -1.56509 0
M  V30 7577 C 734.386 0.455357 -1.96903 0
M  V30 7578 C 734.707 1.62839 -1.07277 0
M  V30 7579 O 733.977 1.95385 -0.141966 0
M  V30 7580 H 732.557 0.171218 -0.727113 0
M  V30 7581 H 735.219 -0.26953 -1.93027 0
M  V30 7582 H 734.315 0.80616 -3.01509 0
M  V30 7583 N 734.616 1.57351 0.0885366 0
M  V30 7584 C 735.546 2.05561 1.10757 0
M  V30 7585 C 736.527 0.945789 1.41382 0
M  V30 7586 O 737.712 1.21747 1.51299 0
M  V30 7587 C 734.842 2.48554 2.42566 0
M  V30 7588 C 733.796 3.63259 2.26334 0
M  V30 7589 C 733.122 3.9225 3.63378 0
M  V30 7590 C 734.422 4.93913 1.69844 0
M  V30 7591 H 736.116 2.90946 0.706468 0
M  V30 7592 H 733.662 1.39968 0.338385 0
M  V30 7593 H 735.615 2.8089 3.14132 0
M  V30 7594 H 734.339 1.60176 2.84625 0
M  V30 7595 H 732.998 3.31179 1.57213 0
M  V30 7596 H 732.646 3.0103 4.02976 0
M  V30 7597 H 732.346 4.69478 3.53362 0
M  V30 7598 H 733.87 4.27067 4.36401 0
M  V30 7599 H 735.284 5.24588 2.31258 0
M  V30 7600 H 733.681 5.75349 1.70569 0
M  V30 7601 H 734.751 4.80409 0.65843 0
M  V30 7602 N 736.094 -0.359525 1.53444 0
M  V30 7603 C 737.319 -1.12644 1.74144 0
M  V30 7604 C 737.744 -1.82082 0.472007 0
M  V30 7605 O 737.102 -1.71962 -0.57436 0
M  V30 7606 C 737.15 -2.12781 2.9113 0
M  V30 7607 O 736.254 -3.19984 2.60162 0
M  V30 7608 H 735.595 -0.326553 0.578152 0
M  V30 7609 H 738.125 -0.414798 2.00351 0
M  V30 7610 H 738.135 -2.56278 3.17467 0
M  V30 7611 H 736.81 -1.61634 3.83207 0
M  V30 7612 H 735.387 -2.81417 2.44661 0
M  V30 7613 N 737.572 -1.44907 -0.619662 0
M  V30 7614 C 738.8 -1.51795 -1.40591 0
M  V30 7615 C 739.215 -0.146553 -1.8823 0
M  V30 7616 O 738.572 0.849698 -1.61513 0
M  V30 7617 C 738.623 -2.49229 -2.61853 0
M  V30 7618 O 738.344 -3.81039 -2.16197 0
M  V30 7619 C 739.845 -2.65696 -3.54853 0
M  V30 7620 H 737.065 -0.514463 -0.430777 0
M  V30 7621 H 739.609 -1.8998 -0.756813 0
M  V30 7622 H 737.764 -2.14149 -3.2283 0
M  V30 7623 H 738.178 -4.33747 -2.94896 0
M  V30 7624 H 739.652 -3.37874 -4.36515 0
M  V30 7625 H 740.129 -1.71316 -4.0441 0
M  V30 7626 H 740.735 -3.01724 -2.99737 0
M  V30 7627 N 739.05 0.861098 -1.31996 0
M  V30 7628 C 740.28 1.64501 -1.24992 0
M  V30 7629 C 740.688 1.88288 0.185576 0
M  V30 7630 O 740.031 1.44756 1.131 0
M  V30 7631 C 740.093 3.03098 -1.93319 0
M  V30 7632 C 739.757 3.02381 -3.42658 0
M  V30 7633 C 740.754 2.79696 -4.38254 0
M  V30 7634 C 738.439 3.23221 -3.84491 0
M  V30 7635 C 740.433 2.77843 -5.73657 0
M  V30 7636 C 738.12 3.20996 -5.20005 0
M  V30 7637 C 739.118 2.98335 -6.14398 0
M  V30 7638 O 738.806 2.95971 -7.47433 0
M  V30 7639 H 738.538 0.519309 -0.432775 0
M  V30 7640 H 741.092 1.08241 -1.74565 0
M  V30 7641 H 739.322 3.61121 -1.38306 0
M  V30 7642 H 741.011 3.63751 -1.8011 0
M  V30 7643 H 741.777 2.63368 -4.07262 0
M  V30 7644 H 737.656 3.39887 -3.11445 0
M  V30 7645 H 741.2 2.60074 -6.47308 0
M  V30 7646 H 737.097 3.36865 -5.50629 0
M  V30 7647 H 737.865 3.1197 -7.56714 0
M  V30 7648 N 740.528 1.15101 1.07655 0
M  V30 7649 C 741.458 0.867864 2.16773 0
M  V30 7650 C 742.439 -0.180283 1.69142 0
M  V30 7651 O 743.624 -0.0353152 1.94168 0
M  V30 7652 C 740.754 0.35299 3.45501 0
M  V30 7653 C 739.708 1.33746 4.06566 0
M  V30 7654 C 739.034 0.681562 5.30338 0
M  V30 7655 C 740.334 2.7024 4.46954 0
M  V30 7656 H 742.028 1.78034 2.40716 0
M  V30 7657 H 739.574 0.857435 1.15689 0
M  V30 7658 H 741.527 0.142465 4.21159 0
M  V30 7659 H 740.251 -0.594945 3.21135 0
M  V30 7660 H 738.91 1.53429 3.32949 0
M  V30 7661 H 738.558 -0.272422 5.02262 0
M  V30 7662 H 738.258 1.33853 5.72151 0
M  V30 7663 H 739.782 0.48074 6.08705 0
M  V30 7664 H 741.196 2.5442 5.13754 0
M  V30 7665 H 739.593 3.32282 4.99709 0
M  V30 7666 H 740.663 3.26537 3.58471 0
M  V30 7667 N 742.006 -1.2595 0.947325 0
M  V30 7668 C 743.236 -1.97258 0.614235 0
M  V30 7669 C 743.644 -1.70682 -0.816355 0
M  V30 7670 O 742.987 -0.97527 -1.55673 0
M  V30 7671 C 743.049 -3.50845 0.784081 0
M  V30 7672 C 742.713 -4.01084 2.19045 0
M  V30 7673 C 743.71 -4.12347 3.16648 0
M  V30 7674 C 741.395 -4.34936 2.51268 0
M  V30 7675 C 743.389 -4.56766 4.44572 0
M  V30 7676 C 741.076 -4.79043 3.79422 0
M  V30 7677 C 742.074 -4.89919 4.75887 0
M  V30 7678 O 741.762 -5.3305 6.01758 0
M  V30 7679 H 741.494 -0.635738 0.22981 0
M  V30 7680 H 744.048 -1.61268 1.27207 0
M  V30 7681 H 742.278 -3.86638 0.069101 0
M  V30 7682 H 743.967 -4.03363 0.453135 0
M  V30 7683 H 744.733 -3.86432 2.93079 0
M  V30 7684 H 740.612 -4.25702 1.76916 0
M  V30 7685 H 744.156 -4.6517 5.19868 0
M  V30 7686 H 740.053 -5.04402 4.02802 0
M  V30 7687 H 740.821 -5.51255 6.05029 0
M  V30 7688 N 743.484 -0.715051 -1.40445 0
M  V30 7689 C 744.432 -0.0509974 -2.32544 0
M  V30 7690 C 745.426 0.747602 -1.52011 0
M  V30 7691 O 746.632 0.651031 -1.67814 0
M  V30 7692 H 743.007 0.00231113 -0.751996 0
M  V30 7693 H 744.978 -0.84449 -2.86201 0
M  V30 7694 C 743.727 0.857101 -3.3697 0
M  V30 7695 H 743.05 0.252 -3.99005 0
M  V30 7696 H 744.49 1.28971 -4.03909 0
M  V30 7697 C 742.949 1.98231 -2.72408 0
M  V30 7698 O 743.479 3.07309 -2.58697 0
M  V30 7699 N 741.685 1.76577 -2.308 0
M  V30 7700 H 741.232 0.878641 -2.42152 0
M  V30 7701 H 741.19 2.52043 -1.87941 0
M  V30 7702 N 744.962 1.50701 -0.461195 0
M  V30 7703 C 746.378 1.59187 -0.114786 0
M  V30 7704 C 746.578 1.4702 1.37794 0
M  V30 7705 O 745.634 1.32361 2.15027 0
M  V30 7706 C 746.947 2.93453 -0.656167 0
M  V30 7707 C 748.495 3.06824 -0.618715 0
M  V30 7708 C 748.97 4.4365 -1.13747 0
M  V30 7709 N 750.461 4.50035 -1.09646 0
M  V30 7710 C 751.196 5.54278 -1.46846 0
M  V30 7711 N 750.692 6.65822 -1.91448 0
M  V30 7712 N 752.485 5.44767 -1.38512 0
M  V30 7713 H 744.636 1.56853 -1.43216 0
M  V30 7714 H 746.899 0.740712 -0.59165 0
M  V30 7715 H 746.605 3.07802 -1.7015 0
M  V30 7716 H 746.479 3.77082 -0.0942261 0
M  V30 7717 H 748.866 2.92129 0.417685 0
M  V30 7718 H 748.947 2.24976 -1.21734 0
M  V30 7719 H 748.591 4.59093 -2.17245 0
M  V30 7720 H 748.521 5.24074 -0.515153 0
M  V30 7721 H 751.012 3.69988 -0.769217 0
M  V30 7722 H 751.325 7.41413 -2.18007 0
M  V30 7723 H 749.67 6.66968 -1.95393 0
M  V30 7724 H 752.861 4.56511 -1.03516 0
M  V30 7725 H 753.034 6.25889 -1.6783 0
M  V30 7726 N 746.441 0.193421 1.56409 0
M  V30 7727 C 747.373 -0.759944 2.16235 0
M  V30 7728 C 748.386 -1.17797 1.12373 0
M  V30 7729 O 749.575 -1.11399 1.39472 0
M  V30 7730 C 746.675 -2.03735 2.70823 0
M  V30 7731 C 745.848 -1.77939 3.9957 0
M  V30 7732 C 744.907 -2.90111 4.39001 0
M  V30 7733 O 743.933 -2.59791 5.06456 0
M  V30 7734 N 745.135 -4.18426 4.02368 0
M  V30 7735 H 747.9 -0.248348 2.98669 0
M  V30 7736 H 745.461 0.0113966 1.61896 0
M  V30 7737 H 747.453 -2.77914 2.94187 0
M  V30 7738 H 746.023 -2.46022 1.92852 0
M  V30 7739 H 745.243 -0.875491 3.84355 0
M  V30 7740 H 746.531 -1.58099 4.83614 0
M  V30 7741 H 745.929 -4.45913 3.48106 0
M  V30 7742 H 744.486 -4.89237 4.30686 0
M  V30 7743 N 747.919 -1.57396 -0.0801906 0
M  V30 7744 C 749.335 -1.53564 -0.434778 0
M  V30 7745 C 749.535 -0.912372 -1.79661 0
M  V30 7746 O 748.591 -0.511268 -2.4727 0
M  V30 7747 C 749.904 -2.98244 -0.383561 0
M  V30 7748 C 751.452 -3.09536 -0.46435 0
M  V30 7749 C 751.927 -4.55851 -0.443128 0
M  V30 7750 N 753.418 -4.60456 -0.503448 0
M  V30 7751 C 754.153 -5.71135 -0.509106 0
M  V30 7752 N 753.649 -6.91203 -0.47008 0
M  V30 7753 N 755.442 -5.59353 -0.555035 0
M  V30 7754 H 747.593 -1.96281 0.811635 0
M  V30 7755 H 749.856 -0.898041 0.303689 0
M  V30 7756 H 749.562 -3.47369 0.550236 0
M  V30 7757 H 749.436 -3.57705 -1.19694 0
M  V30 7758 H 751.823 -2.6039 -1.38857 0
M  V30 7759 H 751.904 -2.53 0.377445 0
M  V30 7760 H 751.548 -5.05653 0.477207 0
M  V30 7761 H 751.478 -5.10242 -1.30234 0
M  V30 7762 H 753.969 -3.74048 -0.538199 0
M  V30 7763 H 754.282 -7.7132 -0.478091 0
M  V30 7764 H 752.627 -6.93625 -0.436897 0
M  V30 7765 H 755.818 -4.64453 -0.583158 0
M  V30 7766 H 755.991 -6.4561 -0.555976 0
M  V30 7767 N 749.397 0.351382 -1.53633 0
M  V30 7768 C 750.344 1.43115 -1.81071 0
M  V30 7769 C 751.314 1.52601 -0.655913 0
M  V30 7770 O 752.499 1.68264 -0.89955 0
M  V30 7771 C 749.639 2.79874 -2.01903 0
M  V30 7772 C 748.752 2.79242 -3.29618 0
M  V30 7773 C 747.887 4.07667 -3.40559 0
M  V30 7774 C 746.926 4.01233 -4.62254 0
M  V30 7775 N 746.063 5.21334 -4.70271 0
M  V30 7776 H 750.903 1.19017 -2.73201 0
M  V30 7777 H 748.44 0.576691 -1.35324 0
M  V30 7778 H 750.398 3.5934 -2.11969 0
M  V30 7779 H 749.028 3.0234 -1.13094 0
M  V30 7780 H 748.08 1.91927 -3.28433 0
M  V30 7781 H 749.392 2.70363 -4.19172 0
M  V30 7782 H 748.546 4.95555 -3.50015 0
M  V30 7783 H 747.285 4.19317 -2.49047 0
M  V30 7784 H 746.29 3.11732 -4.52884 0
M  V30 7785 H 747.515 3.91173 -5.55122 0
M  V30 7786 H 745.461 5.33543 -3.81665 0
M  V30 7787 H 745.378 5.14681 -5.5375 0
M  V30 7788 H 746.646 6.11014 -4.84027 0
M  V30 7789 N 750.875 1.45233 0.611969 0
M  V30 7790 C 752.124 1.48296 1.36716 0
M  V30 7791 C 752.437 0.12706 1.95187 0
M  V30 7792 O 753.643 0.0353066 2.71477 0
M  V30 7793 C 752.099 2.61168 2.47627 0
M  V30 7794 C 751.707 4.03051 1.95587 0
M  V30 7795 C 753.451 2.73472 3.24674 0
M  V30 7796 C 751.358 5.07312 3.03954 0
M  V30 7797 H 750.288 0.5518 0.513841 0
M  V30 7798 H 752.939 1.7136 0.656359 0
M  V30 7799 H 751.321 2.31379 3.21372 0
M  V30 7800 H 752.495 4.42497 1.2858 0
M  V30 7801 H 750.81 3.95158 1.31298 0
M  V30 7802 H 753.407 3.48537 4.05494 0
M  V30 7803 H 753.75 1.79953 3.75397 0
M  V30 7804 H 754.283 3.02765 2.58028 0
M  V30 7805 H 751.022 6.02525 2.58154 0
M  V30 7806 H 750.542 4.7244 3.69541 0
M  V30 7807 H 752.221 5.31867 3.6841 0
M  V30 7808 N 752.353 -0.854086 1.3245 0
M  V30 7809 C 753.3 -1.96271 1.21434 0
M  V30 7810 C 754.27 -1.6582 0.0963851 0
M  V30 7811 O 755.455 -1.88851 0.27203 0
M  V30 7812 C 752.595 -3.31939 0.943952 0
M  V30 7813 C 751.708 -3.74885 2.14675 0
M  V30 7814 C 750.843 -4.99347 1.81179 0
M  V30 7815 C 749.882 -5.34785 2.97777 0
M  V30 7816 N 749.019 -6.50425 2.6437 0
M  V30 7817 H 753.859 -2.05025 2.16261 0
M  V30 7818 H 751.396 -1.00348 1.07558 0
M  V30 7819 H 753.354 -4.10076 0.767675 0
M  V30 7820 H 751.984 -3.22784 0.0324763 0
M  V30 7821 H 751.036 -2.92396 2.43328 0
M  V30 7822 H 752.348 -3.97068 3.01891 0
M  V30 7823 H 751.502 -5.85193 1.60107 0
M  V30 7824 H 750.241 -4.79101 0.911777 0
M  V30 7825 H 749.246 -4.47451 3.1948 0
M  V30 7826 H 750.471 -5.56988 3.88511 0
M  V30 7827 H 748.417 -6.31695 1.7691 0
M  V30 7828 H 748.334 -6.7263 3.45116 0
M  V30 7829 H 749.602 -7.39422 2.46729 0
M  V30 7830 N 753.831 -1.1567 -1.07043 0
M  V30 7831 C 754.778 -0.856336 -2.14326 0
M  V30 7832 C 755.748 0.192051 -1.64986 0
M  V30 7833 O 756.933 0.0589148 -1.90709 0
M  V30 7834 C 754.073 -0.355227 -3.43267 0
M  V30 7835 C 753.186 -1.46555 -4.06381 0
M  V30 7836 C 752.321 -0.920245 -5.23168 0
M  V30 7837 C 751.36 -2.00729 -5.78251 0
M  V30 7838 N 750.497 -1.47813 -6.86364 0
M  V30 7839 H 755.337 -1.77514 -2.39359 0
M  V30 7840 H 752.874 -0.885676 -1.17449 0
M  V30 7841 H 754.832 -0.0463804 -4.17174 0
M  V30 7842 H 753.462 0.526649 -3.18475 0
M  V30 7843 H 752.514 -1.89052 -3.30096 0
M  V30 7844 H 753.826 -2.28616 -4.43324 0
M  V30 7845 H 752.98 -0.564127 -6.04072 0
M  V30 7846 H 751.719 -0.0688477 -4.87651 0
M  V30 7847 H 750.724 -2.3722 -4.95991 0
M  V30 7848 H 751.949 -2.86252 -6.15822 0
M  V30 7849 H 749.895 -0.649145 -6.5278 0
M  V30 7850 H 749.812 -2.23498 -7.22208 0
M  V30 7851 H 751.08 -1.15036 -7.70965 0
M  V30 7852 N 755.309 1.25446 -0.953992 0
M  V30 7853 C 756.539 1.96929 -0.624688 0
M  V30 7854 C 756.947 1.71112 0.807292 0
M  V30 7855 O 756.29 0.983512 1.55154 0
M  V30 7856 C 756.352 3.50425 -0.802676 0
M  V30 7857 C 756.016 3.99916 -2.21169 0
M  V30 7858 C 757.013 4.10662 -3.18831 0
M  V30 7859 C 754.698 4.33598 -2.53571 0
M  V30 7860 C 756.692 4.54401 -4.46988 0
M  V30 7861 C 754.379 4.77024 -3.81958 0
M  V30 7862 C 755.377 4.87388 -4.78478 0
M  V30 7863 O 755.065 5.29851 -6.04577 0
M  V30 7864 H 754.797 0.634511 -0.233179 0
M  V30 7865 H 757.351 1.60591 -1.28061 0
M  V30 7866 H 755.581 3.86596 -0.0896044 0
M  V30 7867 H 757.27 4.03117 -0.47452 0
M  V30 7868 H 758.036 3.84872 -2.95124 0
M  V30 7869 H 753.915 4.24757 -1.79171 0
M  V30 7870 H 757.459 4.62406 -5.22328 0
M  V30 7871 H 753.356 5.02258 -4.05471 0
M  V30 7872 H 754.124 5.48039 -6.07944 0
M  V30 7873 N 756.787 0.722489 1.40064 0
M  V30 7874 C 758.203 0.396758 1.5459 0
M  V30 7875 C 758.403 -1.09375 1.69232 0
M  V30 7876 O 757.459 -1.87984 1.68578 0
M  V30 7877 C 758.772 1.16885 2.77053 0
M  V30 7878 C 760.32 1.15583 2.90877 0
M  V30 7879 C 760.795 1.91023 4.16262 0
M  V30 7880 N 762.286 1.88126 4.23276 0
M  V30 7881 C 763.021 2.43315 5.19216 0
M  V30 7882 N 762.517 3.07089 6.21022 0
M  V30 7883 N 764.31 2.33418 5.11344 0
M  V30 7884 H 756.461 1.68887 1.28806 0
M  V30 7885 H 758.724 0.714231 0.62336 0
M  V30 7886 H 758.43 2.22301 2.72534 0
M  V30 7887 H 758.304 0.765011 3.69361 0
M  V30 7888 H 760.691 0.10984 2.94896 0
M  V30 7889 H 760.772 1.59895 1.99668 0
M  V30 7890 H 760.416 2.95616 4.13006 0
M  V30 7891 H 760.346 1.44126 5.06493 0
M  V30 7892 H 762.837 1.41654 3.50346 0
M  V30 7893 H 763.15 3.467 6.90666 0
M  V30 7894 H 761.495 3.11175 6.21446 0
M  V30 7895 H 764.686 1.83248 4.30741 0
M  V30 7896 H 764.859 2.7673 5.85939 0
M  V30 7897 N 758.265 -1.50454 0.469181 0
M  V30 7898 C 759.195 -2.31353 -0.31592 0
M  V30 7899 C 760.176 -1.38172 -0.992094 0
M  V30 7900 O 761.361 -1.67093 -0.989633 0
M  V30 7901 C 758.491 -3.1786 -1.39937 0
M  V30 7902 C 757.445 -4.19578 -0.844909 0
M  V30 7903 C 756.771 -4.9481 -2.0265 0
M  V30 7904 C 758.071 -5.22106 0.142499 0
M  V30 7905 H 759.765 -2.97237 0.359269 0
M  V30 7906 H 757.311 -1.42942 0.174224 0
M  V30 7907 H 759.264 -3.7325 -1.95607 0
M  V30 7908 H 757.988 -2.49858 -2.1033 0
M  V30 7909 H 756.647 -3.65285 -0.310189 0
M  V30 7910 H 756.295 -4.23282 -2.71737 0
M  V30 7911 H 755.995 -5.63613 -1.66174 0
M  V30 7912 H 757.519 -5.53035 -2.58815 0
M  V30 7913 H 758.933 -5.72378 -0.324966 0
M  V30 7914 H 757.33 -5.98618 0.421441 0
M  V30 7915 H 758.4 -4.7297 1.06901 0
M  V30 7916 N 759.743 -0.201713 -1.56304 0
M  V30 7917 C 760.675 0.748466 -2.16635 0
M  V30 7918 C 761.688 1.172 -1.12996 0
M  V30 7919 O 762.877 1.10658 -1.40061 0
M  V30 7920 C 759.977 2.02296 -2.719 0
M  V30 7921 C 759.15 1.75818 -4.00508 0
M  V30 7922 C 758.209 2.87779 -4.40533 0
M  V30 7923 O 757.235 2.57101 -5.07826 0
M  V30 7924 N 758.437 4.16287 -4.04581 0
M  V30 7925 H 761.202 0.232505 -2.98797 0
M  V30 7926 H 758.763 -0.0199822 -1.61888 0
M  V30 7927 H 760.755 2.7635 -2.95657 0
M  V30 7928 H 759.325 2.44996 -1.94154 0
M  V30 7929 H 758.545 0.855095 -3.84814 0
M  V30 7930 H 759.833 1.55532 -4.84445 0
M  V30 7931 H 759.231 4.44061 -3.50466 0
M  V30 7932 H 757.788 4.86946 -4.33274 0
M  V30 7933 N 761.222 1.57436 0.0718424 0
M  V30 7934 C 762.154 2.00412 1.1121 0
M  V30 7935 C 763.167 0.910074 1.34987 0
M  V30 7936 O 764.356 1.18796 1.33228 0
M  V30 7937 C 761.456 2.32786 2.46301 0
M  V30 7938 C 760.629 3.64036 2.4248 0
M  V30 7939 C 759.688 3.8408 3.59679 0
M  V30 7940 O 758.714 4.55667 3.4111 0
M  V30 7941 N 759.916 3.2643 4.80025 0
M  V30 7942 H 762.681 2.90264 0.746118 0
M  V30 7943 H 760.242 1.59791 0.260495 0
M  V30 7944 H 762.234 2.43368 3.23348 0
M  V30 7945 H 760.804 1.48824 2.74901 0
M  V30 7946 H 760.024 3.64208 1.50818 0
M  V30 7947 H 761.312 4.50217 2.37027 0
M  V30 7948 H 760.71 2.68325 4.98014 0
M  V30 7949 H 759.267 3.42461 5.54584 0
M  V30 7950 N 762.7 -0.34323 1.53817 0
M  V30 7951 C 763.663 -1.40444 1.8113 0
M  V30 7952 C 764.663 -1.45604 0.682366 0
M  V30 7953 O 765.853 -1.45974 0.950649 0
M  V30 7954 C 762.985 -2.79369 1.95361 0
M  V30 7955 H 764.178 -1.17489 2.75928 0
M  V30 7956 H 761.731 -0.577636 1.45234 0
M  V30 7957 H 762.466 -3.07607 1.02707 0
M  V30 7958 H 762.251 -2.7702 2.77493 0
M  V30 7959 H 763.741 -3.56178 2.18008 0
M  V30 7960 N 764.178 -1.45556 -0.604258 0
M  V30 7961 C 765.11 -1.50494 -1.72871 0
M  V30 7962 C 766.123 -0.395368 -1.57926 0
M  V30 7963 O 767.312 -0.662603 -1.65746 0
M  V30 7964 C 764.412 -1.34874 -3.10906 0
M  V30 7965 C 763.585 -2.59564 -3.52058 0
M  V30 7966 C 762.644 -2.38453 -4.6907 0
M  V30 7967 O 761.67 -3.12082 -4.76018 0
M  V30 7968 N 762.872 -1.43229 -5.62553 0
M  V30 7969 H 765.637 -2.4744 -1.69097 0
M  V30 7970 H 763.198 -1.41338 -0.789636 0
M  V30 7971 H 765.19 -1.18556 -3.86945 0
M  V30 7972 H 763.76 -0.461913 -3.09168 0
M  V30 7973 H 762.98 -2.90974 -2.65946 0
M  V30 7974 H 764.268 -3.42441 -3.76313 0
M  V30 7975 H 763.666 -0.824714 -5.59656 0
M  V30 7976 H 762.223 -1.32882 -6.38111 0
M  V30 7977 N 765.656 0.84705 -1.32902 0
M  V30 7978 C 766.603 1.95624 -1.22473 0
M  V30 7979 C 767.573 1.65767 -0.105178 0
M  V30 7980 O 768.758 1.88704 -0.282042 0
M  V30 7981 C 765.898 3.31434 -0.961542 0
M  V30 7982 C 765.011 3.73741 -2.1666 0
M  V30 7983 C 764.146 4.98379 -1.83825 0
M  V30 7984 C 763.185 5.33199 -3.00609 0
M  V30 7985 N 762.322 6.49014 -2.67816 0
M  V30 7986 H 767.162 2.03875 -2.17345 0
M  V30 7987 H 764.699 0.997764 -1.08088 0
M  V30 7988 H 766.657 4.09663 -0.789411 0
M  V30 7989 H 765.287 3.22762 -0.0495938 0
M  V30 7990 H 764.339 2.91102 -2.44875 0
M  V30 7991 H 765.651 3.95462 -3.03993 0
M  V30 7992 H 764.805 5.84336 -1.63208 0
M  V30 7993 H 763.544 4.78611 -0.937172 0
M  V30 7994 H 762.549 4.4575 -3.21849 0
M  V30 7995 H 763.774 5.5492 -3.9146 0
M  V30 7996 H 761.72 6.30748 -1.80258 0
M  V30 7997 H 761.637 6.7079 -3.48679 0
M  V30 7998 H 762.905 7.38103 -2.50647 0
M  V30 7999 N 767.134 1.16236 1.06428 0
M  V30 8000 C 768.382 0.941171 1.78847 0
M  V30 8001 C 768.703 -0.53248 1.87589 0
M  V30 8002 O 767.973 -1.38686 1.38358 0
M  V30 8003 H 766.553 0.345228 0.66244 0
M  V30 8004 H 769.215 1.46479 1.28569 0
M  V30 8005 H 768.311 1.35871 2.80972 0
M  V30 8006 N 768.612 -1.24939 0.960631 0
M  V30 8007 C 769.84 -1.96881 0.636045 0
M  V30 8008 C 770.255 -1.71334 -0.793093 0
M  V30 8009 O 769.612 -0.992917 -1.53125 0
M  V30 8010 C 769.663 -3.50309 0.892533 0
M  V30 8011 O 769.384 -3.74977 2.26548 0
M  V30 8012 C 770.885 -4.39474 0.581159 0
M  V30 8013 H 768.105 -0.627399 0.237931 0
M  V30 8014 H 770.649 -1.58952 1.28664 0
M  V30 8015 H 768.804 -3.86326 0.288257 0
M  V30 8016 H 769.218 -4.69401 2.34014 0
M  V30 8017 H 770.692 -5.46008 0.811125 0
M  V30 8018 H 771.169 -4.3652 -0.48443 0
M  V30 8019 H 771.775 -4.09032 1.16502 0
M  V30 8020 N 770.09 -0.729906 -1.39679 0
M  V30 8021 C 771.501 -0.346241 -1.83461 0
M  V30 8022 C 771.852 1.1215 -1.60987 0
M  V30 8023 O 770.977 1.86456 -1.09832 0
M  V30 8024 C 771.572 -0.621656 -3.33048 0
M  V30 8025 C 770.131 -0.291543 -3.75269 0
M  V30 8026 C 769.278 -0.886844 -2.62736 0
M  V30 8027 H 772.229 -0.927949 -1.28743 0
M  V30 8028 H 772.25 0.108301 -3.80346 0
M  V30 8029 H 771.762 -1.68996 -3.49373 0
M  V30 8030 H 769.863 0.771133 -3.64533 0
M  V30 8031 H 769.976 -0.770544 -4.72863 0
M  V30 8032 H 768.34 -0.313839 -2.52759 0
M  V30 8033 H 769.123 -1.95971 -2.81869 0
M  V30 8034 N 771.568 1.50203 -0.477153 0
M  V30 8035 C 772.501 2.25343 0.359983 0
M  V30 8036 C 773.479 1.28909 0.991022 0
M  V30 8037 O 774.663 1.58146 1.02578 0
M  V30 8038 C 771.79 3.03431 1.5049 0
M  V30 8039 C 770.836 4.14836 0.99063 0
M  V30 8040 S 771.669 5.35407 -0.0995413 0
M  V30 8041 C 772.825 6.17045 1.04911 0
M  V30 8042 H 773.058 2.95999 -0.277836 0
M  V30 8043 H 770.591 1.52159 -0.262115 0
M  V30 8044 H 772.549 3.49012 2.16105 0
M  V30 8045 H 771.21 2.32289 2.11425 0
M  V30 8046 H 770.403 4.689 1.84794 0
M  V30 8047 H 770.005 3.71723 0.412097 0
M  V30 8048 H 772.297 6.48546 1.95946 0
M  V30 8049 H 773.24 7.05979 0.547596 0
M  V30 8050 H 773.648 5.49193 1.30567 0
M  V30 8051 N 773.046 0.209999 1.56195 0
M  V30 8052 C 773.993 -0.704854 2.19774 0
M  V30 8053 C 774.963 -1.19886 1.14964 0
M  V30 8054 O 776.148 -1.26005 1.43274 0
M  V30 8055 C 773.288 -1.91241 2.87265 0
M  V30 8056 C 772.401 -1.45838 4.06639 0
M  V30 8057 C 771.536 -2.6226 4.61945 0
M  V30 8058 C 770.575 -2.13537 5.73645 0
M  V30 8059 N 769.712 -3.2319 6.23292 0
M  V30 8060 H 774.552 -0.155944 2.97592 0
M  V30 8061 H 772.089 -0.0652235 1.46955 0
M  V30 8062 H 774.047 -2.62123 3.24573 0
M  V30 8063 H 772.677 -2.43439 2.11985 0
M  V30 8064 H 771.729 -0.644897 3.74894 0
M  V30 8065 H 773.041 -1.06103 4.87384 0
M  V30 8066 H 772.195 -3.41243 5.01636 0
M  V30 8067 H 770.934 -3.05278 3.80338 0
M  V30 8068 H 769.939 -1.33013 5.33468 0
M  V30 8069 H 771.164 -1.71533 6.57079 0
M  V30 8070 H 769.11 -3.65711 5.44602 0
M  V30 8071 H 769.027 -2.8767 6.99129 0
M  V30 8072 H 770.295 -4.02342 6.67639 0
M  V30 8073 N 774.524 -1.57472 -0.0634922 0
M  V30 8074 C 775.935 -1.76303 -0.614337 0
M  V30 8075 C 776.286 -0.836578 -1.77471 0
M  V30 8076 O 775.411 -0.0227184 -2.16388 0
M  V30 8077 C 776.006 -3.19709 -1.12122 0
M  V30 8078 C 774.565 -3.39856 -1.61786 0
M  V30 8079 C 773.712 -2.71975 -0.540845 0
M  V30 8080 H 776.663 -1.57864 0.162702 0
M  V30 8081 H 776.684 -3.24326 -1.98979 0
M  V30 8082 H 776.196 -3.87114 -0.276472 0
M  V30 8083 H 774.297 -2.77578 -2.48558 0
M  V30 8084 H 774.41 -4.48338 -1.68908 0
M  V30 8085 H 772.774 -2.34763 -0.987854 0
M  V30 8086 H 773.557 -3.4204 0.293856 0
M  V30 8087 N 776.003 0.335068 -1.53997 0
M  V30 8088 C 776.951 1.43206 -1.83289 0
M  V30 8089 C 777.945 1.54081 -0.703953 0
M  V30 8090 O 779.151 1.56603 -0.887432 0
M  V30 8091 H 775.526 0.477655 -0.580818 0
M  V30 8092 H 777.497 1.15719 -2.75049 0
M  V30 8093 C 776.246 2.79602 -2.06683 0
M  V30 8094 H 775.569 2.72004 -2.93008 0
M  V30 8095 H 777.009 3.55459 -2.31139 0
M  V30 8096 C 775.468 3.25873 -0.854883 0
M  V30 8097 O 775.998 4.01657 -0.0584648 0
M  V30 8098 N 774.204 2.82777 -0.669729 0
M  V30 8099 H 773.751 2.21269 -1.31901 0
M  V30 8100 H 773.709 3.1409 0.13969 0
M  V30 8101 N 777.481 1.45874 0.596531 0
M  V30 8102 C 778.709 1.54013 1.38158 0
M  V30 8103 C 779.124 0.17648 1.87973 0
M  V30 8104 O 778.481 -0.823895 1.62844 0
M  V30 8105 C 778.532 2.53363 2.57855 0
M  V30 8106 O 778.253 3.8443 2.10108 0
M  V30 8107 C 779.754 2.71308 3.50581 0
M  V30 8108 H 776.974 0.521251 0.422538 0
M  V30 8109 H 779.518 1.9116 0.726493 0
M  V30 8110 H 777.673 2.19257 3.19382 0
M  V30 8111 H 778.087 4.38384 2.87958 0
M  V30 8112 H 779.561 3.44776 4.31084 0
M  V30 8113 H 780.038 1.77728 4.01633 0
M  V30 8114 H 780.644 3.06455 2.94899 0
M  V30 8115 N 778.959 -0.83999 1.33349 0
M  V30 8116 C 779.891 -1.95678 1.19344 0
M  V30 8117 C 780.904 -1.62322 0.124692 0
M  V30 8118 O 782.093 -1.74516 0.375012 0
M  V30 8119 C 779.193 -3.29133 0.807771 0
M  V30 8120 C 778.366 -3.9063 1.96792 0
M  V30 8121 C 777.425 -5.02438 1.56341 0
M  V30 8122 O 776.451 -5.21646 2.27759 0
M  V30 8123 N 777.653 -5.78612 0.467767 0
M  V30 8124 H 780.418 -2.08229 2.15548 0
M  V30 8125 H 777.979 -1.01566 1.26079 0
M  V30 8126 H 779.971 -4.01355 0.519282 0
M  V30 8127 H 778.541 -3.12535 -0.063555 0
M  V30 8128 H 777.761 -3.11011 2.4221 0
M  V30 8129 H 779.049 -4.2845 2.74422 0
M  V30 8130 H 778.447 -5.65559 -0.126324 0
M  V30 8131 H 777.004 -6.51362 0.238945 0
M  V30 8132 N 780.437 -1.16799 -1.0581 0
M  V30 8133 C 781.4 -0.881396 -2.11575 0
M  V30 8134 C 782.4 0.12574 -1.60308 0
M  V30 8135 O 783.59 -0.105716 -1.73879 0
M  V30 8136 C 780.722 -0.319037 -3.39404 0
M  V30 8137 H 781.915 -1.81907 -2.38432 0
M  V30 8138 H 779.468 -0.977597 -1.21954 0
M  V30 8139 H 780.203 0.626082 -3.18199 0
M  V30 8140 H 779.988 -1.04481 -3.77923 0
M  V30 8141 H 781.478 -0.13663 -4.17376 0
M  V30 8142 N 781.915 1.24427 -0.967243 0
M  V30 8143 C 783.143 1.96541 -0.646477 0
M  V30 8144 C 783.558 1.71753 0.783996 0
M  V30 8145 O 782.915 1.00102 1.52597 0
M  V30 8146 C 782.966 3.4983 -0.911098 0
M  V30 8147 O 782.687 3.7377 -2.28534 0
M  V30 8148 C 784.188 4.3916 -0.604458 0
M  V30 8149 H 781.408 0.626129 -0.241255 0
M  V30 8150 H 783.952 1.58268 -1.29505 0
M  V30 8151 H 782.107 3.86168 -0.308741 0
M  V30 8152 H 782.521 4.68154 -2.365 0
M  V30 8153 H 783.995 5.4557 -0.840069 0
M  V30 8154 H 784.472 4.36771 0.461273 0
M  V30 8155 H 785.078 4.08409 -1.1867 0
M  V30 8156 N 783.393 0.737304 1.3929 0
M  V30 8157 C 784.804 0.355966 1.83275 0
M  V30 8158 C 785.155 -1.11295 1.6158 0
M  V30 8159 O 784.28 -1.85871 1.10819 0
M  V30 8160 C 784.875 0.63931 3.32713 0
M  V30 8161 C 783.434 0.31144 3.75109 0
M  V30 8162 C 782.581 0.900765 2.62262 0
M  V30 8163 H 785.532 0.934763 1.28249 0
M  V30 8164 H 785.553 -0.0881293 3.80398 0
M  V30 8165 H 785.065 1.70847 3.48472 0
M  V30 8166 H 783.166 -0.751791 3.64937 0
M  V30 8167 H 783.279 0.795611 4.72448 0
M  V30 8168 H 781.643 0.327239 2.52589 0
M  V30 8169 H 782.426 1.97463 2.80826 0
M  V30 8170 N 784.871 -1.49948 0.485112 0
M  V30 8171 C 786.282 -1.8667 0.0334041 0
M  V30 8172 C 786.633 -1.3988 -1.37579 0
M  V30 8173 O 785.758 -0.769788 -2.02245 0
M  V30 8174 C 786.353 -3.38757 0.0538426 0
M  V30 8175 C 784.912 -3.74839 -0.342453 0
M  V30 8176 C 784.059 -2.73894 0.433281 0
M  V30 8177 H 787.01 -1.42492 0.698699 0
M  V30 8178 H 787.031 -3.73132 -0.745146 0
M  V30 8179 H 786.543 -3.72782 1.07959 0
M  V30 8180 H 784.644 -3.46419 -1.37203 0
M  V30 8181 H 784.757 -4.79088 -0.0340503 0
M  V30 8182 H 783.121 -2.54441 -0.114849 0
M  V30 8183 H 783.904 -3.10763 1.45881 0
M  V30 8184 O 786.388 -0.359827 -1.5744 0
M  V30 8185 H 787.079 0.192049 -1.92746 0
M  V30 END ATOM
M  V30 BEGIN BOND
M  V30 END BOND
M  V30 END CTAB
M  END
$$$$
