drugbank_target|P05305 Endothelin-1 (DB05407)
 OpenBabel12092120313D

  0  0  0     0  0            999 V3000
M  V30 BEGIN CTAB
M  V30 COUNTS 3423 3460 0 0 0
M  V30 BEGIN ATOM
M  V30 1 H -0.908 1.98254 -0.117106 0
M  V30 2 N 0 1.576 0 0
M  V30 3 C 0.933 2.03868 1.02534 0
M  V30 4 C 1.911 0.928543 1.3348 0
M  V30 5 O 3.095 1.19667 1.45644 0
M  V30 6 C 0.222 2.43627 2.35294 0
M  V30 7 C -0.732 3.65373 2.2001 0
M  V30 8 S 0.101 5.13292 1.52614 0
M  V30 9 C 1.257 5.56322 2.86805 0
M  V30 10 H 1.49 2.90518 0.631377 0
M  V30 11 H -0.977 1.52953 0.210867 0
M  V30 12 H 0.981 2.67203 3.11629 0
M  V30 13 H -0.358 1.57376 2.7183 0
M  V30 14 H -1.165 3.90944 3.18086 0
M  V30 15 H -1.563 3.418 1.51819 0
M  V30 16 H 0.729 5.58782 3.83104 0
M  V30 17 H 1.672 6.56266 2.65933 0
M  V30 18 H 2.08 4.83886 2.90714 0
M  V30 19 N 1.4781 -0.272755 1.55222 0
M  V30 20 C 2.7551 -1.02562 1.66555 0
M  V30 21 C 3.1351 -2.04282 0.532189 0
M  V30 22 O 2.4831 -2.23662 -0.467717 0
M  V30 23 C 2.6931 -1.6822 3.05782 0
M  V30 24 C 4.0411 -2.19373 3.63539 0
M  V30 25 O 5.0651 -1.78206 3.08417 0
M  V30 26 O 3.9241 -2.94883 4.60115 0
M  V30 27 H 1.0181 -0.475755 0.676451 0
M  V30 28 H 3.5641 -0.268593 1.67561 0
M  V30 29 H 2.3361 -0.945112 3.79715 0
M  V30 30 H 1.9591 -2.50609 3.08676 0
M  V30 31 N 2.9562 -1.48159 -0.537278 0
M  V30 32 C 4.1862 -1.59223 -1.3165 0
M  V30 33 C 4.5942 -0.248849 -1.87556 0
M  V30 34 O 3.9372 0.770949 -1.6674 0
M  V30 35 C 3.9992 -2.57365 -2.51005 0
M  V30 36 C 3.6632 -4.02603 -2.16239 0
M  V30 37 C 4.6602 -4.90503 -1.72344 0
M  V30 38 C 2.3452 -4.48088 -2.26986 0
M  V30 39 C 4.3392 -6.21913 -1.39651 0
M  V30 40 C 2.0262 -5.7952 -1.93906 0
M  V30 41 C 3.0242 -6.66255 -1.50309 0
M  V30 42 O 2.7122 -7.95243 -1.17659 0
M  V30 43 H 2.4442 -0.539831 -0.406889 0
M  V30 44 H 4.9982 -1.94655 -0.655641 0
M  V30 45 H 3.2282 -2.1704 -3.20048 0
M  V30 46 H 4.9172 -2.58342 -3.13072 0
M  V30 47 H 5.6832 -4.56604 -1.63517 0
M  V30 48 H 1.5622 -3.80769 -2.59877 0
M  V30 49 H 5.1062 -6.89569 -1.0555 0
M  V30 50 H 1.0032 -6.12957 -2.02371 0
M  V30 51 H 1.7712 -8.0793 -1.31119 0
M  V30 52 N 4.4343 0.785586 -1.36625 0
M  V30 53 C 5.3643 1.91259 -1.33949 0
M  V30 54 C 6.3453 1.68795 -0.210325 0
M  V30 55 O 7.5303 1.89854 -0.408561 0
M  V30 56 C 4.6603 3.28339 -1.13186 0
M  V30 57 C 3.6143 3.65335 -2.22967 0
M  V30 58 C 2.9403 5.00806 -1.87342 0
M  V30 59 C 4.2403 3.7352 -3.65075 0
M  V30 60 H 5.9343 1.93755 -2.28253 0
M  V30 61 H 3.4803 0.930788 -1.09874 0
M  V30 62 H 5.4333 4.06804 -1.09948 0
M  V30 63 H 4.1573 3.2624 -0.153332 0
M  V30 64 H 2.8163 2.89169 -2.25337 0
M  V30 65 H 2.4643 4.95233 -0.880545 0
M  V30 66 H 2.1643 5.26529 -2.60846 0
M  V30 67 H 3.6883 5.81687 -1.85667 0
M  V30 68 H 5.1023 4.42168 -3.64911 0
M  V30 69 H 3.4993 4.10731 -4.37516 0
M  V30 70 H 4.5693 2.74527 -3.99703 0
M  V30 71 N 5.9124 1.20967 1.01018 0
M  V30 72 C 6.8424 0.988272 2.11555 0
M  V30 73 C 7.8234 -0.0849778 1.69888 0
M  V30 74 O 9.0084 0.0738202 1.9406 0
M  V30 75 C 6.1384 0.546528 3.42973 0
M  V30 76 C 5.0924 1.56375 3.9841 0
M  V30 77 C 4.4184 0.97842 5.25672 0
M  V30 78 C 5.7184 2.94922 4.31066 0
M  V30 79 H 7.4124 1.91276 2.30334 0
M  V30 80 H 4.9584 0.921073 1.1069 0
M  V30 81 H 6.9114 0.378839 4.19694 0
M  V30 82 H 5.6354 -0.413598 3.23971 0
M  V30 83 H 4.2944 1.71891 3.23804 0
M  V30 84 H 3.9424 0.0101688 5.02999 0
M  V30 85 H 3.6424 1.65784 5.63728 0
M  V30 86 H 5.1664 0.821939 6.05043 0
M  V30 87 H 6.5804 2.8288 4.9865 0
M  V30 88 H 4.9774 3.5983 4.80253 0
M  V30 89 H 6.0474 3.4616 3.39561 0
M  V30 90 N 7.3905 -1.2043 1.01659 0
M  V30 91 C 8.3235 -2.21924 0.531521 0
M  V30 92 C 9.3015 -1.57054 -0.421032 0
M  V30 93 O 10.4855 -1.85389 -0.341035 0
M  V30 94 C 7.6125 -3.37942 -0.226496 0
M  V30 95 C 6.6585 -4.21115 0.67561 0
M  V30 96 S 7.4915 -4.90674 2.14475 0
M  V30 97 C 8.6475 -6.10113 1.3969 0
M  V30 98 H 8.8805 -2.62725 1.3915 0
M  V30 99 H 6.4135 -1.30481 0.825479 0
M  V30 100 H 8.3715 -4.05196 -0.657738 0
M  V30 101 H 7.0325 -2.956 -1.06205 0
M  V30 102 H 6.2255 -5.03918 0.091108 0
M  V30 103 H 5.8275 -3.59115 1.04463 0
M  V30 104 H 8.1195 -6.7411 0.676897 0
M  V30 105 H 9.0625 -6.73022 2.20107 0
M  V30 106 H 9.4705 -5.57283 0.899786 0
M  V30 107 N 8.8686 -0.792821 -1.36206 0
M  V30 108 C 10.1176 -0.363353 -1.984 0
M  V30 109 C 10.4306 1.07172 -1.63626 0
M  V30 110 O 11.6366 1.60362 -2.19081 0
M  V30 111 C 10.0926 -0.59872 -3.54885 0
M  V30 112 C 9.7006 -2.04543 -3.9858 0
M  V30 113 C 11.4446 -0.233926 -4.23855 0
M  V30 114 C 9.3516 -2.22727 -5.47856 0
M  V30 115 H 8.2816 -0.13212 -0.742334 0
M  V30 116 H 10.9326 -0.974935 -1.55458 0
M  V30 117 H 9.3146 0.0826222 -3.95914 0
M  V30 118 H 10.4886 -2.76345 -3.68741 0
M  V30 119 H 8.8036 -2.36879 -3.42458 0
M  V30 120 H 11.4006 -0.348027 -5.33566 0
M  V30 121 H 11.7436 0.818351 -4.08177 0
M  V30 122 H 12.2766 -0.868639 -3.882 0
M  V30 123 H 9.0156 -3.2635 -5.68486 0
M  V30 124 H 8.5356 -1.55434 -5.7931 0
M  V30 125 H 10.2146 -2.03607 -6.14128 0
M  V30 126 N 10.3467 1.47872 -0.545128 0
M  V30 127 C 11.5937 2.02493 -0.0165858 0
M  V30 128 C 11.9217 1.42073 1.32836 0
M  V30 129 O 11.1767 0.561459 1.87473 0
M  V30 130 C 11.4757 3.57131 0.13867 0
M  V30 131 C 11.1417 4.36411 -1.13384 0
M  V30 132 C 9.8037 4.57792 -1.48256 0
M  V30 133 C 12.1557 4.82223 -1.97764 0
M  V30 134 C 9.4837 5.22233 -2.67376 0
M  V30 135 C 11.8357 5.47977 -3.16076 0
M  V30 136 C 10.4997 5.67593 -3.51275 0
M  V30 137 H 9.7697 0.740975 -0.00606918 0
M  V30 138 H 12.4167 1.77683 -0.714207 0
M  V30 139 H 10.7217 3.80865 0.919172 0
M  V30 140 H 12.4187 3.97031 0.562782 0
M  V30 141 H 9.0087 4.2004 -0.852297 0
M  V30 142 H 13.1927 4.65493 -1.72132 0
M  V30 143 H 8.4487 5.35616 -2.94831 0
M  V30 144 H 12.6227 5.8244 -3.81755 0
M  V30 145 H 10.2497 6.17298 -4.43675 0
M  V30 146 N 11.8248 0.280983 1.55075 0
M  V30 147 C 13.0498 -0.340154 2.04592 0
M  V30 148 C 13.4748 -1.48246 1.15779 0
M  V30 149 O 12.8328 -1.80614 0.15761 0
M  V30 150 C 12.8808 -0.793104 3.5177 0
M  V30 151 O 11.9848 -1.89981 3.66034 0
M  V30 152 H 11.3258 -0.0694289 0.66036 0
M  V30 153 H 13.8558 0.416993 2.00306 0
M  V30 154 H 13.8658 -1.08729 3.93245 0
M  V30 155 H 12.5408 0.0426163 4.15878 0
M  V30 156 H 11.1178 -1.60771 3.36463 0
M  V30 157 N 13.3029 -1.57598 0.00835791 0
M  V30 158 C 14.2329 -2.1198 -0.979113 0
M  V30 159 C 15.2139 -1.03091 -1.35301 0
M  V30 160 O 16.3989 -1.30818 -1.43528 0
M  V30 161 C 13.5289 -2.62995 -2.26828 0
M  V30 162 C 12.4829 -3.76485 -2.03576 0
M  V30 163 C 11.8089 -4.13846 -3.38579 0
M  V30 164 C 13.1089 -5.0342 -1.39161 0
M  V30 165 H 14.8029 -2.94738 -0.526281 0
M  V30 166 H 12.3489 -1.41783 -0.251704 0
M  V30 167 H 14.3019 -2.99669 -2.96271 0
M  V30 168 H 13.0259 -1.7737 -2.7424 0
M  V30 169 H 11.6849 -3.40217 -1.36557 0
M  V30 170 H 11.3329 -3.25232 -3.83709 0
M  V30 171 H 11.0329 -4.90312 -3.23834 0
M  V30 172 H 12.5569 -4.53086 -4.09323 0
M  V30 173 H 13.9709 -5.37812 -1.98573 0
M  V30 174 H 12.3679 -5.84746 -1.34878 0
M  V30 175 H 13.4379 -4.83548 -0.361868 0
M  V30 176 N 14.781 0.264519 -1.55364 0
M  V30 177 C 15.711 1.33121 -1.91836 0
M  V30 178 C 16.692 1.51101 -0.781192 0
M  V30 179 O 17.877 1.64003 -1.04003 0
M  V30 180 C 15.007 2.68921 -2.19769 0
M  V30 181 C 13.961 2.65661 -3.35571 0
M  V30 182 C 13.287 4.05093 -3.49004 0
M  V30 183 C 14.587 2.24187 -4.71739 0
M  V30 184 H 16.281 1.02844 -2.81182 0
M  V30 185 H 13.827 0.493286 -1.35287 0
M  V30 186 H 15.78 3.43663 -2.43872 0
M  V30 187 H 14.504 3.00799 -1.27231 0
M  V30 188 H 13.163 1.93377 -3.1145 0
M  V30 189 H 12.811 4.34206 -2.53917 0
M  V30 190 H 12.511 4.03804 -4.26868 0
M  V30 191 H 14.035 4.81561 -3.75408 0
M  V30 192 H 15.449 2.88654 -4.9533 0
M  V30 193 H 13.846 2.34044 -5.52579 0
M  V30 194 H 14.916 1.19327 -4.69988 0
M  V30 195 N 16.2591 1.48442 0.529413 0
M  V30 196 C 17.5061 1.56488 1.28521 0
M  V30 197 C 17.8341 0.239042 1.93025 0
M  V30 198 O 17.0891 -0.770713 1.79885 0
M  V30 199 C 17.3881 2.6523 2.39558 0
M  V30 200 C 17.0541 4.07648 1.92702 0
M  V30 201 C 15.7161 4.46411 1.79641 0
M  V30 202 C 18.0681 4.96896 1.573 0
M  V30 203 C 15.3961 5.72226 1.29514 0
M  V30 204 C 17.7481 6.23202 1.08636 0
M  V30 205 C 16.4121 6.60821 0.941919 0
M  V30 206 H 15.6821 0.572631 0.470292 0
M  V30 207 H 18.3291 1.82161 0.59072 0
M  V30 208 H 16.6341 2.33419 3.14679 0
M  V30 209 H 18.3311 2.68671 2.97686 0
M  V30 210 H 14.9211 3.77036 2.03819 0
M  V30 211 H 19.1051 4.67626 1.66251 0
M  V30 212 H 14.3611 6.00097 1.17019 0
M  V30 213 H 18.5351 6.91753 0.803136 0
M  V30 214 H 16.1621 7.58198 0.5513 0
M  V30 215 N 17.7372 -0.778329 1.37039 0
M  V30 216 C 18.9832 -1.53892 1.32079 0
M  V30 217 C 19.3162 -1.9396 -0.0965386 0
M  V30 218 O 18.5912 -1.63568 -1.05242 0
M  V30 219 C 18.8742 -2.80847 2.25382 0
M  V30 220 C 18.7272 -2.47076 3.75864 0
M  V30 221 C 20.0462 -3.82741 2.1725 0
M  V30 222 H 17.1652 -0.558303 0.48111 0
M  V30 223 H 19.8072 -0.893397 1.67685 0
M  V30 224 H 17.9572 -3.35931 1.95148 0
M  V30 225 H 19.6292 -1.97957 4.16666 0
M  V30 226 H 17.8722 -1.79863 3.94755 0
M  V30 227 H 18.5432 -3.37798 4.36574 0
M  V30 228 H 21.0192 -3.37133 2.43887 0
M  V30 229 H 19.8952 -4.69303 2.84686 0
M  V30 230 H 20.1562 -4.2652 1.16331 0
M  V30 231 N 19.2153 -1.21501 -1.00376 0
M  V30 232 C 20.1783 -0.976927 -2.07337 0
M  V30 233 C 21.1783 0.0525322 -1.60714 0
M  V30 234 O 22.3683 -0.184869 -1.73216 0
M  V30 235 C 19.5003 -0.473423 -3.37597 0
M  V30 236 H 20.6933 -1.92587 -2.29892 0
M  V30 237 H 18.2463 -1.03217 -1.17371 0
M  V30 238 H 18.9813 0.480379 -3.20722 0
M  V30 239 H 18.7663 -1.216 -3.72768 0
M  V30 240 H 20.2563 -0.32675 -4.1632 0
M  V30 241 N 20.6934 1.19889 -1.02296 0
M  V30 242 C 21.9334 1.91125 -0.724602 0
M  V30 243 C 22.2974 1.77464 0.732835 0
M  V30 244 O 23.4984 2.43241 1.144 0
M  V30 245 C 21.7694 3.38187 -1.15604 0
M  V30 246 S 23.3284 4.27702 -0.980621 0
M  V30 247 H 20.1464 0.66018 -0.263976 0
M  V30 248 H 22.7484 1.44978 -1.31155 0
M  V30 249 H 21.4524 3.45653 -2.21251 0
M  V30 250 H 20.9834 3.89363 -0.562131 0
M  V30 251 H 22.9984 4.96073 0.112225 0
M  V30 252 N 22.1715 0.800033 1.35784 0
M  V30 253 C 23.1035 0.163596 2.28615 0
M  V30 254 C 24.1165 -0.633317 1.49976 0
M  V30 255 O 25.3055 -0.466754 1.72289 0
M  V30 256 C 22.4055 -0.790958 3.29541 0
M  V30 257 C 21.5785 -0.0418255 4.3738 0
M  V30 258 C 20.6375 -0.91389 5.18203 0
M  V30 259 O 19.6635 -0.367234 5.68014 0
M  V30 260 N 20.8655 -2.23682 5.35674 0
M  V30 261 H 23.6305 0.96105 2.83873 0
M  V30 262 H 21.1915 0.654894 1.48063 0
M  V30 263 H 23.1835 -1.37844 3.80501 0
M  V30 264 H 21.7535 -1.48925 2.74846 0
M  V30 265 H 20.9735 0.726813 3.87442 0
M  V30 266 H 22.2615 0.474719 5.06581 0
M  V30 267 H 21.6595 -2.70497 4.96838 0
M  V30 268 H 20.2165 -2.77369 5.89839 0
M  V30 269 N 23.6496 -1.47581 0.552962 0
M  V30 270 C 24.8976 -2.02082 0.0272703 0
M  V30 271 C 25.2186 -1.4301 -1.32563 0
M  V30 272 O 24.4886 -0.603745 -1.86365 0
M  V30 273 H 23.0686 -0.746966 0.00709182 0
M  V30 274 H 25.7306 -1.81033 0.722008 0
M  V30 275 H 24.8266 -3.12034 -0.0639951 0
M  V30 276 N 25.1277 -0.289203 -1.54924 0
M  V30 277 C 26.0907 0.579144 -2.21762 0
M  V30 278 C 27.0907 1.07047 -1.1999 0
M  V30 279 O 28.2807 0.968384 -1.44803 0
M  V30 280 C 25.4127 1.80055 -2.8947 0
M  V30 281 H 26.6057 -0.00464908 -2.999 0
M  V30 282 H 24.1587 -0.0399306 -1.56249 0
M  V30 283 H 24.8937 2.42449 -2.15381 0
M  V30 284 H 24.6787 1.45602 -3.64064 0
M  V30 285 H 26.1687 2.41773 -3.40493 0
M  V30 286 N 26.6058 1.57591 -0.0167156 0
M  V30 287 C 28.0168 1.79201 0.523834 0
M  V30 288 C 28.3678 0.925796 1.72984 0
M  V30 289 O 27.4928 0.132792 2.15992 0
M  V30 290 C 28.0878 3.25 0.957091 0
M  V30 291 C 26.6468 3.47648 1.44283 0
M  V30 292 C 25.7938 2.74374 0.401757 0
M  V30 293 H 28.7448 1.56831 -0.242816 0
M  V30 294 H 28.7658 3.34031 1.82219 0
M  V30 295 H 28.2778 3.88019 0.0791415 0
M  V30 296 H 26.3788 2.89866 2.34113 0
M  V30 297 H 26.4918 4.56352 1.45877 0
M  V30 298 H 24.8558 2.39485 0.867121 0
M  V30 299 H 25.6388 3.40102 -0.467513 0
M  V30 300 N 28.0839 -0.256276 1.55502 0
M  V30 301 C 28.9939 -1.33882 1.92647 0
M  V30 302 C 30.0099 -1.53159 0.825727 0
M  V30 303 O 31.1859 -1.66963 1.12629 0
M  V30 304 C 28.2509 -2.6751 2.20543 0
M  V30 305 C 27.3119 -2.56836 3.43997 0
M  V30 306 C 26.5449 -3.84092 3.70553 0
M  V30 307 O 26.7679 -4.85545 2.99336 0
M  V30 308 O 25.7019 -3.83288 4.64084 0
M  V30 309 H 29.5279 -1.05374 2.84833 0
M  V30 310 H 27.1129 -0.456237 1.42263 0
M  V30 311 H 28.9949 -3.46492 2.39835 0
M  V30 312 H 27.6699 -2.9577 1.31536 0
M  V30 313 H 26.5769 -1.76172 3.30021 0
M  V30 314 H 27.9099 -2.33523 4.33275 0
M  V30 315 N 29.562 -1.4872 -0.521534 0
M  V30 316 C 30.79 -1.60843 -1.30142 0
M  V30 317 C 31.205 -0.271897 -1.86832 0
M  V30 318 O 30.562 0.739969 -1.66825 0
M  V30 319 C 30.613 -2.66155 -2.4463 0
M  V30 320 O 30.334 -3.94623 -1.90275 0
M  V30 321 C 31.835 -2.88795 -3.36322 0
M  V30 322 H 29.055 -0.542075 -0.395468 0
M  V30 323 H 31.599 -1.94609 -0.628285 0
M  V30 324 H 29.754 -2.35224 -3.07812 0
M  V30 325 H 30.168 -4.52468 -2.65279 0
M  V30 326 H 31.642 -3.66264 -4.12983 0
M  V30 327 H 32.119 -1.97934 -3.9207 0
M  V30 328 H 32.725 -3.21063 -2.78924 0
M  V30 329 N 31.0401 0.771051 -1.3745 0
M  V30 330 C 32.0031 1.86598 -1.33093 0
M  V30 331 C 33.0031 1.59076 -0.234845 0
M  V30 332 O 34.1931 1.67145 -0.490732 0
M  V30 333 C 31.3251 3.23747 -1.06773 0
M  V30 334 H 32.5181 1.91873 -2.30488 0
M  V30 335 H 30.0711 0.970876 -1.2249 0
M  V30 336 H 30.8061 3.24148 -0.099129 0
M  V30 337 H 30.5911 3.45115 -1.86112 0
M  V30 338 H 32.0811 4.03824 -1.06377 0
M  V30 339 N 32.5182 1.22032 0.997298 0
M  V30 340 C 33.7642 1.04376 1.73878 0
M  V30 341 C 34.0972 -0.420716 1.89588 0
M  V30 342 O 33.3722 -1.31202 1.43583 0
M  V30 343 C 33.6552 1.75047 3.14691 0
M  V30 344 C 33.5082 3.29062 3.06656 0
M  V30 345 C 34.8272 1.49928 4.13775 0
M  V30 346 H 31.9462 0.380578 0.631133 0
M  V30 347 H 34.5882 1.50312 1.16217 0
M  V30 348 H 32.7382 1.35996 3.63919 0
M  V30 349 H 34.4102 3.7753 2.65083 0
M  V30 350 H 32.6532 3.58967 2.43568 0
M  V30 351 H 33.3242 3.73683 4.06282 0
M  V30 352 H 35.8002 1.83842 3.73285 0
M  V30 353 H 34.6762 2.01878 5.10428 0
M  V30 354 H 34.9372 0.430929 4.39995 0
M  V30 355 N 33.9963 -1.19345 1.0293 0
M  V30 356 C 34.9263 -2.2481 0.631105 0
M  V30 357 C 35.9073 -1.66245 -0.360104 0
M  V30 358 O 37.0923 -1.92677 -0.242726 0
M  V30 359 C 34.2223 -3.47295 -0.0184607 0
M  V30 360 C 33.1763 -4.18536 0.895073 0
M  V30 361 C 32.5023 -5.34586 0.110592 0
M  V30 362 C 33.8023 -4.73287 2.209 0
M  V30 363 H 35.4963 -2.58372 1.51275 0
M  V30 364 H 33.0423 -1.24194 0.728818 0
M  V30 365 H 34.9953 -4.20268 -0.308675 0
M  V30 366 H 33.7193 -3.12933 -0.934907 0
M  V30 367 H 32.3783 -3.47446 1.16949 0
M  V30 368 H 32.0263 -4.96469 -0.807902 0
M  V30 369 H 31.7263 -5.83183 0.719087 0
M  V30 370 H 33.2503 -6.10355 -0.172871 0
M  V30 371 H 34.6643 -5.38013 1.98028 0
M  V30 372 H 33.0613 -5.32373 2.76946 0
M  V30 373 H 34.1313 -3.91331 2.86336 0
M  V30 374 N 35.4744 -0.807222 -1.35358 0
M  V30 375 C 36.7224 -0.387122 -1.98358 0
M  V30 376 C 37.0434 1.04942 -1.64354 0
M  V30 377 O 36.3134 1.72615 -0.926339 0
M  V30 378 H 34.8934 -0.140154 -0.733734 0
M  V30 379 H 37.5554 -1.0332 -1.6526 0
M  V30 380 H 36.6514 -0.493352 -3.08176 0
M  V30 381 N 36.9525 1.47285 -0.560781 0
M  V30 382 C 37.9155 2.28535 0.174488 0
M  V30 383 C 38.9155 1.37153 0.839388 0
M  V30 384 O 40.1055 1.59748 0.694702 0
M  V30 385 C 37.2375 3.16934 1.25561 0
M  V30 386 H 38.4305 2.95012 -0.539262 0
M  V30 387 H 35.9835 1.53034 -0.317865 0
M  V30 388 H 36.7185 2.55157 2.00164 0
M  V30 389 H 36.5035 3.8419 0.783604 0
M  V30 390 H 37.9935 3.78143 1.77193 0
M  V30 391 N 38.4306 0.297415 1.54768 0
M  V30 392 C 39.3406 -0.58983 2.27064 0
M  V30 393 C 40.3566 -1.15144 1.30453 0
M  V30 394 O 41.5326 -1.17699 1.63428 0
M  V30 395 C 38.5976 -1.74714 2.9946 0
M  V30 396 C 37.6586 -1.21997 4.11601 0
M  V30 397 C 36.8916 -2.32212 4.80535 0
M  V30 398 O 37.1146 -3.52036 4.48806 0
M  V30 399 O 36.0486 -1.99106 5.68014 0
M  V30 400 H 39.8746 -0.00348199 3.037 0
M  V30 401 H 37.4596 0.0640035 1.49263 0
M  V30 402 H 39.3416 -2.42147 3.44881 0
M  V30 403 H 38.0166 -2.32016 2.25722 0
M  V30 404 H 36.9236 -0.511458 3.70587 0
M  V30 405 H 38.2566 -0.692419 4.87305 0
M  V30 406 N 39.9087 -1.5758 0.0250728 0
M  V30 407 C 40.8387 -2.13007 -0.956575 0
M  V30 408 C 41.8197 -1.0452 -1.342 0
M  V30 409 O 43.0047 -1.32332 -1.42133 0
M  V30 410 C 40.1347 -2.65386 -2.24026 0
M  V30 411 C 39.0887 -3.78623 -1.99571 0
M  V30 412 C 38.4147 -4.17414 -3.3417 0
M  V30 413 C 39.7147 -5.04867 -1.33814 0
M  V30 414 H 41.4087 -2.9528 -0.494991 0
M  V30 415 H 38.9547 -1.42042 -0.236651 0
M  V30 416 H 40.9077 -3.02794 -2.93076 0
M  V30 417 H 39.6317 -1.80268 -2.72343 0
M  V30 418 H 38.2907 -3.41646 -1.32941 0
M  V30 419 H 37.9387 -3.29284 -3.80238 0
M  V30 420 H 37.6387 -4.93719 -3.18615 0
M  V30 421 H 39.1627 -4.57402 -4.04495 0
M  V30 422 H 40.5767 -5.39888 -1.92857 0
M  V30 423 H 38.9737 -5.86144 -1.28669 0
M  V30 424 H 40.0437 -4.83904 -0.310561 0
M  V30 425 N 41.3868 0.248026 -1.55636 0
M  V30 426 C 42.6118 0.998028 -1.81808 0
M  V30 427 C 43.0368 1.78207 -0.601979 0
M  V30 428 O 42.3948 1.75653 0.448961 0
M  V30 429 C 42.4428 1.9125 -3.05705 0
M  V30 430 O 41.5468 3.00406 -2.82542 0
M  V30 431 H 40.8878 0.284045 -0.600179 0
M  V30 432 H 43.4178 0.269357 -2.02819 0
M  V30 433 H 43.4278 2.32737 -3.35108 0
M  V30 434 H 42.1028 1.33602 -3.93857 0
M  V30 435 H 40.6798 2.63056 -2.64303 0
M  V30 436 N 42.8649 1.48995 0.513639 0
M  V30 437 C 43.8279 1.64229 1.59879 0
M  V30 438 C 44.8279 0.514696 1.5234 0
M  V30 439 O 46.0179 0.78087 1.55718 0
M  V30 440 C 43.1499 1.62783 2.99524 0
M  V30 441 H 44.3429 2.61004 1.47705 0
M  V30 442 H 41.8959 1.37837 0.736936 0
M  V30 443 H 42.6309 0.675461 3.17188 0
M  V30 444 H 42.4159 2.4466 3.06404 0
M  V30 445 H 43.9059 1.76669 3.78388 0
M  V30 446 N 44.343 -0.763751 1.37857 0
M  V30 447 C 45.589 -1.52483 1.33704 0
M  V30 448 C 45.922 -1.94051 -0.0759612 0
M  V30 449 O 45.197 -1.64675 -1.03501 0
M  V30 450 C 45.48 -2.78441 2.28348 0
M  V30 451 C 45.333 -2.43075 3.78463 0
M  V30 452 C 46.652 -3.80415 2.21298 0
M  V30 453 H 43.771 -0.553169 0.487005 0
M  V30 454 H 46.413 -0.875562 1.68624 0
M  V30 455 H 44.563 -3.33842 1.987 0
M  V30 456 H 46.235 -1.93527 4.18742 0
M  V30 457 H 44.478 -1.75666 3.96641 0
M  V30 458 H 45.149 -3.33149 4.40132 0
M  V30 459 H 47.625 -3.34527 2.47449 0
M  V30 460 H 46.501 -4.66257 2.89647 0
M  V30 461 H 46.762 -4.25262 1.20849 0
M  V30 462 N 45.8211 -1.22559 -0.990812 0
M  V30 463 C 47.0691 -1.04933 -1.72724 0
M  V30 464 C 47.3901 0.416158 -1.90508 0
M  V30 465 O 46.6601 1.29918 -1.46622 0
M  V30 466 H 45.2401 -0.385296 -0.639965 0
M  V30 467 H 47.9021 -1.54105 -1.19322 0
M  V30 468 H 46.9981 -1.52886 -2.72089 0
M  V30 469 N 47.2992 1.18797 -1.03562 0
M  V30 470 C 48.2092 2.25913 -0.632505 0
M  V30 471 C 49.2252 1.70668 0.338882 0
M  V30 472 O 50.4012 2.00453 0.195076 0
M  V30 473 C 47.4662 3.467 0.00350942 0
M  V30 474 C 46.5272 4.17098 -1.01624 0
M  V30 475 C 45.7602 5.32119 -0.410478 0
M  V30 476 O 45.9832 5.64976 0.784725 0
M  V30 477 O 44.9172 5.9107 -1.13667 0
M  V30 478 H 48.7432 2.62648 -1.52478 0
M  V30 479 H 46.3282 1.25781 -0.806195 0
M  V30 480 H 48.2102 4.19878 0.35781 0
M  V30 481 H 46.8852 3.11798 0.869686 0
M  V30 482 H 45.7922 3.4601 -1.42224 0
M  V30 483 H 47.1252 4.55987 -1.85301 0
M  V30 484 N 48.7773 0.814389 1.34928 0
M  V30 485 C 49.7253 0.218424 2.31572 0
M  V30 486 C 50.7193 -0.636128 1.57002 0
M  V30 487 O 51.9253 -0.52842 1.72069 0
M  V30 488 H 48.3003 0.0518799 0.750208 0
M  V30 489 H 50.2713 1.04852 2.79372 0
M  V30 490 C 49.0203 -0.61207 3.4227 0
M  V30 491 H 48.3433 0.0361578 3.99784 0
M  V30 492 H 49.7833 -0.995317 4.12152 0
M  V30 493 C 48.2423 -1.78087 2.85984 0
M  V30 494 O 48.7723 -2.8787 2.80168 0
M  V30 495 N 46.9783 -1.59488 2.42924 0
M  V30 496 H 46.5253 -0.701874 2.47854 0
M  V30 497 H 46.4833 -2.37846 2.05613 0
M  V30 498 N 50.2554 -1.46986 0.568584 0
M  V30 499 C 51.5034 -2.02041 0.0487022 0
M  V30 500 C 51.8244 -1.44408 -1.31039 0
M  V30 501 O 51.0944 -0.623477 -1.85714 0
M  V30 502 H 49.6744 -0.746849 0.015014 0
M  V30 503 H 52.3364 -1.80257 0.741168 0
M  V30 504 H 51.4324 -3.12085 -0.0308961 0
M  V30 505 N 51.7335 -0.305618 -1.54608 0
M  V30 506 C 52.9815 0.301701 -1.99835 0
M  V30 507 C 53.3025 1.54054 -1.19551 0
M  V30 508 O 52.5725 1.93702 -0.292658 0
M  V30 509 H 51.1525 0.114468 -0.738178 0
M  V30 510 H 53.8145 -0.418016 -1.90364 0
M  V30 511 H 52.9105 0.570548 -3.06841 0
M  V30 512 N 53.2116 1.57565 -0.0334293 0
M  V30 513 C 54.1216 2.13943 0.962572 0
M  V30 514 C 55.1376 1.09276 1.35406 0
M  V30 515 O 56.3136 1.41355 1.4346 0
M  V30 516 C 53.3786 2.65887 2.22497 0
M  V30 517 C 52.4396 3.85286 1.8935 0
M  V30 518 C 51.6726 4.34743 3.09571 0
M  V30 519 O 51.8956 3.83352 4.22371 0
M  V30 520 O 50.8296 5.26538 2.91618 0
M  V30 521 H 54.6556 2.99333 0.513169 0
M  V30 522 H 52.2406 1.4822 0.18743 0
M  V30 523 H 54.1226 2.99346 2.96598 0
M  V30 524 H 52.7976 1.83578 2.6661 0
M  V30 525 H 51.7046 3.56746 1.1262 0
M  V30 526 H 53.0376 4.68771 1.5005 0
M  V30 527 N 54.6897 -0.239769 1.55765 0
M  V30 528 C 55.6367 -1.29696 1.90913 0
M  V30 529 C 56.6067 -1.47478 0.764164 0
M  V30 530 O 57.7917 -1.61345 1.01845 0
M  V30 531 C 54.9317 -2.64598 2.21544 0
M  V30 532 C 54.0447 -2.54765 3.48882 0
M  V30 533 C 53.1797 -3.82069 3.69049 0
M  V30 534 C 52.2187 -3.66883 4.89963 0
M  V30 535 N 51.3557 -4.86094 5.06614 0
M  V30 536 H 56.1957 -0.990224 2.81067 0
M  V30 537 H 53.7327 -0.477684 1.39128 0
M  V30 538 H 55.6907 -3.43132 2.3731 0
M  V30 539 H 54.3207 -2.93405 1.34585 0
M  V30 540 H 53.3727 -1.67763 3.41409 0
M  V30 541 H 54.6847 -2.39457 4.37563 0
M  V30 542 H 53.8387 -4.69046 3.84812 0
M  V30 543 H 52.5777 -4.00282 2.78614 0
M  V30 544 H 51.5827 -2.78289 4.74168 0
M  V30 545 H 52.8077 -3.50157 5.81865 0
M  V30 546 H 50.7537 -5.04655 4.19117 0
M  V30 547 H 50.6707 -4.73443 5.89396 0
M  V30 548 H 51.9387 -5.74549 5.26795 0
M  V30 549 N 56.1678 -1.49265 -0.50573 0
M  V30 550 C 57.5788 -1.51769 -1.08734 0
M  V30 551 C 57.9298 -0.301192 -1.93874 0
M  V30 552 O 57.0548 0.589456 -2.08217 0
M  V30 553 C 57.6498 -2.75017 -1.97867 0
M  V30 554 C 56.2088 -2.80314 -2.51199 0
M  V30 555 C 55.3558 -2.4562 -1.28709 0
M  V30 556 H 58.3068 -1.56031 -0.289855 0
M  V30 557 H 58.3278 -2.5491 -2.82491 0
M  V30 558 H 57.8398 -3.63539 -1.35873 0
M  V30 559 H 55.9408 -1.96061 -3.16845 0
M  V30 560 H 56.0538 -3.82366 -2.88675 0
M  V30 561 H 54.4178 -1.97297 -1.61078 0
M  V30 562 H 55.2008 -3.36411 -0.6843 0
M  V30 563 N 57.6459 0.756429 -1.3826 0
M  V30 564 C 58.8739 1.54565 -1.3754 0
M  V30 565 C 59.2889 1.88767 0.0355331 0
M  V30 566 O 58.6459 1.52572 1.0014 0
M  V30 567 C 58.6969 2.84654 -2.22833 0
M  V30 568 O 58.4179 2.51912 -3.5843 0
M  V30 569 C 59.9189 3.78807 -2.30261 0
M  V30 570 H 57.1389 0.478353 -0.470553 0
M  V30 571 H 59.6829 0.936381 -1.81803 0
M  V30 572 H 57.8379 3.41965 -1.8204 0
M  V30 573 H 58.2519 3.35325 -4.03308 0
M  V30 574 H 59.7259 4.67045 -2.94233 0
M  V30 575 H 60.2029 4.19038 -1.31545 0
M  V30 576 H 60.8089 3.2742 -2.71433 0
M  V30 577 N 59.124 1.23083 0.984299 0
M  V30 578 C 60.535 1.05609 1.5396 0
M  V30 579 C 60.886 -0.377793 1.92528 0
M  V30 580 O 60.011 -1.26398 1.75649 0
M  V30 581 C 60.606 1.91087 2.7977 0
M  V30 582 C 59.165 1.77885 3.31713 0
M  V30 583 C 58.312 1.87028 2.04733 0
M  V30 584 H 61.263 1.36802 0.804419 0
M  V30 585 H 61.284 1.43336 3.5247 0
M  V30 586 H 60.796 2.9544 2.51668 0
M  V30 587 H 58.897 0.762995 3.64704 0
M  V30 588 H 59.01 2.61047 4.01735 0
M  V30 589 H 57.374 1.30565 2.18689 0
M  V30 590 H 58.157 2.92929 1.79017 0
M  V30 591 N 60.6021 -1.18246 1.0419 0
M  V30 592 C 61.8271 -1.92736 0.765996 0
M  V30 593 C 62.2521 -1.75728 -0.67091 0
M  V30 594 O 61.6101 -1.06825 -1.46486 0
M  V30 595 C 61.6581 -3.42148 1.13875 0
M  V30 596 O 60.7621 -4.11548 0.264954 0
M  V30 597 H 60.1031 -0.601238 0.281797 0
M  V30 598 H 62.6331 -1.49942 1.39207 0
M  V30 599 H 62.6431 -3.92858 1.1012 0
M  V30 600 H 61.3181 -3.53848 2.18551 0
M  V30 601 H 59.8951 -3.71137 0.362226 0
M  V30 602 N 62.0802 -0.821533 -1.34494 0
M  V30 603 C 63.4912 -0.467956 -1.8074 0
M  V30 604 C 63.8422 1.01151 -1.68116 0
M  V30 605 O 62.9672 1.78707 -1.22036 0
M  V30 606 C 63.5622 -0.842627 -3.28154 0
M  V30 607 C 62.1212 -0.541439 -3.72485 0
M  V30 608 C 61.2682 -1.06028 -2.56229 0
M  V30 609 H 64.2192 -1.01183 -1.22261 0
M  V30 610 H 64.2402 -0.145876 -3.8022 0
M  V30 611 H 63.7522 -1.91945 -3.37311 0
M  V30 612 H 61.8532 0.526034 -3.68868 0
M  V30 613 H 61.9662 -1.08453 -4.66663 0
M  V30 614 H 60.3302 -0.481892 -2.501 0
M  V30 615 H 61.1132 -2.14352 -2.68157 0
M  V30 616 N 63.5583 1.46682 -0.576371 0
M  V30 617 C 64.9693 1.86112 -0.148091 0
M  V30 618 C 65.3203 1.48073 1.2872 0
M  V30 619 O 64.4453 0.892656 1.97131 0
M  V30 620 C 65.0403 3.37786 -0.261982 0
M  V30 621 C 63.5993 3.76235 0.111384 0
M  V30 622 C 62.7463 2.70713 -0.60083 0
M  V30 623 H 65.6973 1.37927 -0.78497 0
M  V30 624 H 65.7183 3.77007 0.514364 0
M  V30 625 H 65.2303 3.6544 -1.30671 0
M  V30 626 H 63.3313 3.54198 1.15649 0
M  V30 627 H 63.4443 4.78391 -0.26052 0
M  V30 628 H 61.8083 2.54666 -0.0417783 0
M  V30 629 H 62.5913 3.01208 -1.64708 0
M  V30 630 N 65.0364 0.313813 1.54444 0
M  V30 631 C 66.2824 -0.284918 2.01395 0
M  V30 632 C 66.6374 -1.50537 1.19818 0
M  V30 633 O 65.9304 -1.89692 0.269748 0
M  V30 634 C 66.1244 -0.680386 3.50864 0
M  V30 635 C 65.9534 0.500198 4.4691 0
M  V30 636 C 64.7234 0.996248 4.95382 0
M  V30 637 C 66.9214 1.34928 4.96285 0
M  V30 638 N 64.9034 2.14226 5.75309 0
M  V30 639 C 66.2744 2.3426 5.7404 0
M  V30 640 C 68.3294 1.37818 4.78446 0
M  V30 641 C 67.0324 3.36272 6.35856 0
M  V30 642 C 69.0584 2.38695 5.4109 0
M  V30 643 C 68.4204 3.36755 6.18688 0
M  V30 644 H 64.5194 -0.0683689 0.779006 0
M  V30 645 H 67.1034 0.44664 1.89508 0
M  V30 646 H 65.2744 -1.38109 3.63016 0
M  V30 647 H 67.0064 -1.25975 3.84594 0
M  V30 648 H 63.7614 0.56912 4.70168 0
M  V30 649 H 64.1854 2.72005 6.19953 0
M  V30 650 H 68.8274 0.633747 4.18023 0
M  V30 651 H 66.5454 4.11627 6.95405 0
M  V30 652 H 70.1314 2.41721 5.29209 0
M  V30 653 H 69.0114 4.13535 6.66302 0
M  V30 654 N 66.5145 -1.57545 0.0417849 0
M  V30 655 C 67.9305 -1.56467 -0.314704 0
M  V30 656 C 68.1305 -1.04859 -1.72066 0
M  V30 657 O 67.1865 -0.700983 -2.42575 0
M  V30 658 C 68.4995 -3.00317 -0.15174 0
M  V30 659 C 70.0475 -3.12201 -0.223553 0
M  V30 660 C 70.5225 -4.57913 -0.0892295 0
M  V30 661 N 72.0135 -4.6297 -0.145808 0
M  V30 662 C 72.7485 -5.73362 -0.0658459 0
M  V30 663 N 72.2445 -6.92769 0.0659282 0
M  V30 664 N 74.0375 -5.6197 -0.12075 0
M  V30 665 H 66.1885 -1.89416 0.961014 0
M  V30 666 H 68.4515 -0.871862 0.372237 0
M  V30 667 H 68.1575 -3.42073 0.817254 0
M  V30 668 H 68.0315 -3.65892 -0.916692 0
M  V30 669 H 70.4185 -2.70349 -1.18301 0
M  V30 670 H 70.4995 -2.49323 0.571994 0
M  V30 671 H 70.1435 -5.00448 0.866867 0
M  V30 672 H 70.0735 -5.18786 -0.903802 0
M  V30 673 H 72.5645 -3.7709 -0.247286 0
M  V30 674 H 72.8775 -7.72707 0.119905 0
M  V30 675 H 71.2225 -6.94927 0.100885 0
M  V30 676 H 74.4135 -4.67572 -0.222187 0
M  V30 677 H 74.5865 -6.47977 -0.0549735 0
M  V30 678 N 67.9926 0.231505 -1.5589 0
M  V30 679 C 68.9226 1.29022 -1.94617 0
M  V30 680 C 69.9036 1.4941 -0.813067 0
M  V30 681 O 71.0886 1.6176 -1.07459 0
M  V30 682 C 68.2186 2.64199 -2.25424 0
M  V30 683 C 67.1726 2.58484 -3.41131 0
M  V30 684 C 66.4986 3.97599 -3.57518 0
M  V30 685 C 67.7986 2.1413 -4.76388 0
M  V30 686 H 69.4926 0.968563 -2.83301 0
M  V30 687 H 67.0386 0.464479 -1.36303 0
M  V30 688 H 68.9916 3.38413 -2.51107 0
M  V30 689 H 67.7156 2.98032 -1.33583 0
M  V30 690 H 66.3746 1.86727 -3.15481 0
M  V30 691 H 66.0226 4.28723 -2.6307 0
M  V30 692 H 65.7226 3.94659 -4.35337 0
M  V30 693 H 67.2466 4.7349 -3.85538 0
M  V30 694 H 68.6606 2.78083 -5.01341 0
M  V30 695 H 67.0576 2.2227 -5.57419 0
M  V30 696 H 68.1276 1.09331 -4.72414 0
M  V30 697 N 69.4707 1.49531 0.497807 0
M  V30 698 C 70.8867 1.36365 0.829266 0
M  V30 699 C 71.0867 0.399184 1.97506 0
M  V30 700 O 70.1427 -0.167977 2.51941 0
M  V30 701 C 71.4557 2.77153 1.16647 0
M  V30 702 C 73.0037 2.85877 1.27449 0
M  V30 703 C 73.4787 4.2744 1.64497 0
M  V30 704 N 74.9697 4.30265 1.7154 0
M  V30 705 C 75.7047 5.3677 2.01656 0
M  V30 706 N 75.2007 6.53516 2.29976 0
M  V30 707 N 76.9937 5.24189 2.02934 0
M  V30 708 H 69.1447 2.10831 -0.257703 0
M  V30 709 H 71.4077 0.946534 -0.0527091 0
M  V30 710 H 71.1137 3.49442 0.397872 0
M  V30 711 H 70.9877 3.12722 2.10915 0
M  V30 712 H 73.3747 2.13824 2.0338 0
M  V30 713 H 73.4557 2.53887 0.312244 0
M  V30 714 H 73.0997 5.00021 0.891151 0
M  V30 715 H 73.0297 4.56896 2.61827 0
M  V30 716 H 75.5207 3.4607 1.51802 0
M  V30 717 H 75.8337 7.30506 2.52153 0
M  V30 718 H 74.1787 6.56737 2.27425 0
M  V30 719 H 77.3697 4.31988 1.80289 0
M  V30 720 H 77.5427 6.07286 2.26071 0
M  V30 721 N 70.9488 -0.749086 1.3866 0
M  V30 722 C 72.3648 -1.05276 1.19955 0
M  V30 723 C 72.5648 -2.01435 0.05134 0
M  V30 724 O 71.6208 -2.45232 -0.60147 0
M  V30 725 C 72.9338 -1.62853 2.52783 0
M  V30 726 C 74.4818 -1.75002 2.59506 0
M  V30 727 C 74.9568 -2.35991 3.92521 0
M  V30 728 N 76.4478 -2.43416 3.94085 0
M  V30 729 C 77.1828 -2.91511 4.9377 0
M  V30 730 N 76.6788 -3.39608 6.03853 0
M  V30 731 N 78.4718 -2.90592 4.81157 0
M  V30 732 H 70.6228 -0.111066 2.12109 0
M  V30 733 H 72.8858 -0.111901 0.941373 0
M  V30 734 H 72.5918 -0.99664 3.37283 0
M  V30 735 H 72.4658 -2.61854 2.715 0
M  V30 736 H 74.8528 -2.37317 1.75398 0
M  V30 737 H 74.9338 -0.74693 2.44652 0
M  V30 738 H 74.5778 -1.74308 4.77053 0
M  V30 739 H 74.5078 -3.3695 4.04688 0
M  V30 740 H 76.9988 -2.09405 3.14576 0
M  V30 741 H 77.3118 -3.74775 6.75843 0
M  V30 742 H 75.6568 -3.37653 6.07466 0
M  V30 743 H 78.8478 -2.52332 3.94267 0
M  V30 744 H 79.0208 -3.27762 5.58996 0
M  V30 745 N 72.4269 -1.23603 -0.977757 0
M  V30 746 C 73.6519 -1.09735 -1.75991 0
M  V30 747 C 74.0769 0.346858 -1.84874 0
M  V30 748 O 73.4349 1.25093 -1.3123 0
M  V30 749 C 73.4829 -1.73051 -3.16363 0
M  V30 750 O 72.5869 -0.994452 -4.0023 0
M  V30 751 H 71.9279 -0.384476 -0.541364 0
M  V30 752 H 74.4579 -1.6371 -1.2272 0
M  V30 753 H 74.4679 -1.78398 -3.66931 0
M  V30 754 H 73.1429 -2.78137 -3.09213 0
M  V30 755 H 71.7199 -1.01812 -3.58732 0
M  V30 756 N 73.905 1.17692 -1.04816 0
M  V30 757 C 74.852 2.21581 -0.645797 0
M  V30 758 C 75.822 1.62367 0.350159 0
M  V30 759 O 77.007 1.89254 0.242433 0
M  V30 760 C 74.147 3.45092 -0.0227568 0
M  V30 761 C 73.26 4.18613 -1.06709 0
M  V30 762 C 72.395 5.29602 -0.411767 0
M  V30 763 C 71.434 5.94904 -1.44067 0
M  V30 764 N 70.571 6.97414 -0.809781 0
M  V30 765 H 75.411 2.55353 -1.5362 0
M  V30 766 H 72.948 1.25438 -0.768364 0
M  V30 767 H 74.906 4.15679 0.35588 0
M  V30 768 H 73.536 3.11917 0.831122 0
M  V30 769 H 72.588 3.46779 -1.5636 0
M  V30 770 H 73.9 4.63293 -1.84827 0
M  V30 771 H 73.054 6.06696 0.0206623 0
M  V30 772 H 71.793 4.86045 0.401438 0
M  V30 773 H 70.798 5.16544 -1.88316 0
M  V30 774 H 72.023 6.40542 -2.25571 0
M  V30 775 H 69.969 6.55998 -0.0170186 0
M  V30 776 H 69.886 7.40386 -1.52856 0
M  V30 777 H 71.154 7.78463 -0.401999 0
M  V30 778 N 75.3831 0.828654 1.34056 0
M  V30 779 C 76.7991 0.515135 1.51058 0
M  V30 780 C 76.9991 -0.959581 1.77184 0
M  V30 781 O 76.0551 -1.74382 1.82612 0
M  V30 782 C 77.3681 1.37963 2.67183 0
M  V30 783 C 78.9161 1.37735 2.81066 0
M  V30 784 C 79.3911 2.22645 4.00241 0
M  V30 785 N 80.8821 2.203 4.07458 0
M  V30 786 C 81.6171 2.82744 4.98842 0
M  V30 787 N 81.1131 3.54201 5.9541 0
M  V30 788 N 82.9061 2.72268 4.91759 0
M  V30 789 H 75.0571 1.78343 1.15358 0
M  V30 790 H 77.3201 0.760304 0.566252 0
M  V30 791 H 77.0261 2.42714 2.54525 0
M  V30 792 H 76.9001 1.0484 3.62338 0
M  V30 793 H 79.2871 0.337593 2.93163 0
M  V30 794 H 79.3681 1.74859 1.86703 0
M  V30 795 H 79.0121 3.26674 3.88905 0
M  V30 796 H 78.9421 1.82869 4.93829 0
M  V30 797 H 81.4331 1.68327 3.38341 0
M  V30 798 H 81.7461 3.9908 6.61782 0
M  V30 799 H 80.0911 3.58308 5.95517 0
M  V30 800 H 83.2821 2.16014 4.15278 0
M  V30 801 H 83.4551 3.21219 5.62781 0
M  V30 802 N 76.8612 -1.46375 0.584142 0
M  V30 803 C 78.1012 -2.0427 0.0729695 0
M  V30 804 C 78.4652 -1.44563 -1.26355 0
M  V30 805 O 79.6662 -1.93667 -1.86405 0
M  V30 806 C 77.9372 -3.57399 0.00967464 0
M  V30 807 S 79.4962 -4.36551 -0.443714 0
M  V30 808 H 76.3142 -0.709975 0.0381673 0
M  V30 809 H 78.9162 -1.79398 0.776962 0
M  V30 810 H 77.6202 -3.98372 0.986319 0
M  V30 811 H 77.1512 -3.8681 -0.717044 0
M  V30 812 H 79.1662 -4.66237 -1.69816 0
M  V30 813 N 78.3393 -0.321999 -1.54275 0
M  V30 814 C 79.5643 0.285791 -2.05422 0
M  V30 815 C 79.9893 1.45124 -1.19669 0
M  V30 816 O 79.3473 1.80132 -0.205441 0
M  V30 817 C 79.3953 0.69956 -3.53749 0
M  V30 818 O 78.4993 1.8021 -3.70942 0
M  V30 819 H 77.8403 0.0518962 -0.661969 0
M  V30 820 H 80.3703 -0.469954 -1.9913 0
M  V30 821 H 80.3803 0.982649 -3.9599 0
M  V30 822 H 79.0553 -0.152864 -4.15619 0
M  V30 823 H 77.6323 1.51794 -3.40607 0
M  V30 824 N 79.8174 1.5752 -0.0501392 0
M  V30 825 C 81.0574 1.94521 0.627783 0
M  V30 826 C 81.4214 0.928265 1.68069 0
M  V30 827 O 82.6224 1.18517 2.41261 0
M  V30 828 C 80.8934 3.36319 1.20932 0
M  V30 829 S 82.4524 3.95272 1.90539 0
M  V30 830 H 79.2704 0.680456 0.206158 0
M  V30 831 H 81.8724 1.95139 -0.118829 0
M  V30 832 H 80.5764 4.08132 0.430865 0
M  V30 833 H 80.1074 3.39193 1.99277 0
M  V30 834 H 82.1224 3.80415 3.18589 0
M  V30 835 N 81.2955 -0.223234 1.56011 0
M  V30 836 C 82.5205 -0.968978 1.83373 0
M  V30 837 C 82.9455 -1.77227 0.630254 0
M  V30 838 O 82.3035 -1.76345 -0.420959 0
M  V30 839 C 82.3515 -1.86363 3.08709 0
M  V30 840 O 81.4555 -2.95873 2.87285 0
M  V30 841 H 80.7965 -0.274461 0.604622 0
M  V30 842 H 83.3265 -0.237056 2.03222 0
M  V30 843 H 83.3365 -2.27376 3.38768 0
M  V30 844 H 82.0115 -1.27319 3.95933 0
M  V30 845 H 80.5885 -2.58818 2.68454 0
M  V30 846 N 82.7736 -1.49793 -0.48987 0
M  V30 847 C 83.9986 -1.63836 -1.27172 0
M  V30 848 C 84.4236 -0.31402 -1.8546 0
M  V30 849 O 83.7816 0.719803 -1.66399 0
M  V30 850 C 83.8296 -2.71797 -2.36978 0
M  V30 851 O 82.9336 -2.31744 -3.41128 0
M  V30 852 H 82.2746 -0.547997 -0.37496 0
M  V30 853 H 84.8046 -1.96053 -0.585191 0
M  V30 854 H 84.8146 -2.94305 -2.82575 0
M  V30 855 H 83.4896 -3.67923 -1.93921 0
M  V30 856 H 82.0666 -2.1961 -3.01373 0
M  V30 857 N 84.2517 0.741722 -1.39055 0
M  V30 858 C 85.1817 1.869 -1.39966 0
M  V30 859 C 86.1627 1.6804 -0.26392 0
M  V30 860 O 87.3477 1.88458 -0.468755 0
M  V30 861 C 84.4777 3.24572 -1.23574 0
M  V30 862 C 83.4317 3.58056 -2.34477 0
M  V30 863 C 82.7577 4.94593 -2.0318 0
M  V30 864 C 84.0577 3.61716 -3.76774 0
M  V30 865 H 85.7517 1.86395 -2.34302 0
M  V30 866 H 83.2977 0.895361 -1.1278 0
M  V30 867 H 85.2507 4.031 -1.22834 0
M  V30 868 H 83.9747 3.25587 -0.257045 0
M  V30 869 H 82.6337 2.81854 -2.34423 0
M  V30 870 H 82.2817 4.92181 -1.03765 0
M  V30 871 H 81.9817 5.17964 -2.77465 0
M  V30 872 H 83.5057 5.75486 -2.04079 0
M  V30 873 H 84.9197 4.30335 -3.78794 0
M  V30 874 H 83.3167 3.96603 -4.50362 0
M  V30 875 H 84.3867 2.61672 -4.08235 0
M  V30 876 N 85.7298 1.2412 0.971189 0
M  V30 877 C 86.6628 0.97373 2.06382 0
M  V30 878 C 87.6408 -0.0912662 1.62344 0
M  V30 879 O 88.8248 0.0449365 1.88446 0
M  V30 880 C 85.9518 0.468746 3.35441 0
M  V30 881 C 84.9978 1.52176 3.98428 0
M  V30 882 S 85.8308 3.10203 4.36503 0
M  V30 883 C 86.9868 2.61398 5.68702 0
M  V30 884 H 87.2198 1.89893 2.28753 0
M  V30 885 H 84.7528 1.07466 1.10862 0
M  V30 886 H 86.7108 0.184012 4.10087 0
M  V30 887 H 85.3718 -0.435688 3.11064 0
M  V30 888 H 84.5648 1.11876 4.91426 0
M  V30 889 H 84.1668 1.75632 3.30196 0
M  V30 890 H 86.4588 2.03992 6.4606 0
M  V30 891 H 87.4018 3.52972 6.13854 0
M  V30 892 H 87.8098 2.01941 5.27143 0
M  V30 893 N 87.2079 -1.17134 1.05439 0
M  V30 894 C 88.4849 -1.83411 0.679699 0
M  V30 895 C 88.8649 -1.9368 -0.839726 0
M  V30 896 O 88.2129 -1.47325 -1.74664 0
M  V30 897 C 88.4229 -3.20918 1.37159 0
M  V30 898 C 89.7709 -3.96796 1.51123 0
M  V30 899 O 90.7949 -3.30406 1.3308 0
M  V30 900 O 89.6539 -5.15778 1.80651 0
M  V30 901 H 86.7479 -0.79154 0.239569 0
M  V30 902 H 89.2939 -1.24411 1.15413 0
M  V30 903 H 88.0659 -3.08428 2.40807 0
M  V30 904 H 87.6889 -3.87587 0.886674 0
M  V30 905 N 88.686 -0.835752 -1.33615 0
M  V30 906 C 89.633 -0.26473 -2.29277 0
M  V30 907 C 90.603 0.617712 -1.54187 0
M  V30 908 O 91.788 0.556641 -1.825 0
M  V30 909 C 88.928 0.556777 -3.40579 0
M  V30 910 C 88.041 -0.349339 -4.30585 0
M  V30 911 C 87.176 0.482969 -5.29 0
M  V30 912 C 86.215 -0.421732 -6.10645 0
M  V30 913 N 85.352 0.372262 -7.01112 0
M  V30 914 H 90.192 -1.08582 -2.77514 0
M  V30 915 H 87.729 -0.546927 -1.36554 0
M  V30 916 H 89.687 1.04852 -4.03809 0
M  V30 917 H 88.317 1.34286 -2.93542 0
M  V30 918 H 87.369 -0.959372 -3.68104 0
M  V30 919 H 88.681 -1.04445 -4.87742 0
M  V30 920 H 87.835 1.03866 -5.97743 0
M  V30 921 H 86.574 1.21153 -4.72412 0
M  V30 922 H 85.579 -0.989464 -5.40823 0
M  V30 923 H 86.804 -1.14861 -6.69316 0
M  V30 924 H 84.75 1.08426 -6.46977 0
M  V30 925 H 84.667 -0.264198 -7.55538 0
M  V30 926 H 85.935 0.910293 -7.74167 0
M  V30 927 N 90.1641 1.46063 -0.591896 0
M  V30 928 C 91.0741 2.34192 0.13831 0
M  V30 929 C 92.0901 1.50305 0.876608 0
M  V30 930 O 93.2661 1.8315 0.837728 0
M  V30 931 C 90.3311 3.27656 1.13326 0
M  V30 932 C 89.3921 4.27445 0.39863 0
M  V30 933 C 88.6251 5.16443 1.34618 0
M  V30 934 O 88.8481 5.08553 2.58321 0
M  V30 935 O 87.7821 5.95843 0.851768 0
M  V30 936 H 91.6081 2.98002 -0.58552 0
M  V30 937 H 89.1931 1.45188 -0.352239 0
M  V30 938 H 91.0751 3.85291 1.70671 0
M  V30 939 H 89.7501 2.6643 1.83839 0
M  V30 940 H 88.6571 3.73471 -0.216895 0
M  V30 941 H 89.9901 4.91482 -0.265709 0
M  V30 942 N 91.6422 0.330177 1.54103 0
M  V30 943 C 92.8822 -0.270916 2.02597 0
M  V30 944 C 93.2462 -1.48826 1.21304 0
M  V30 945 O 94.4472 -2.16266 1.59633 0
M  V30 946 C 92.7182 -0.590328 3.52491 0
M  V30 947 S 94.2772 -1.17014 4.2291 0
M  V30 948 H 91.0952 -0.0815379 0.706309 0
M  V30 949 H 93.6972 0.464835 1.89893 0
M  V30 950 H 92.4012 0.303691 4.09275 0
M  V30 951 H 91.9322 -1.3561 3.69288 0
M  V30 952 H 93.9472 -2.45662 4.3112 0
M  V30 953 N 93.1203 -1.57491 0.0584922 0
M  V30 954 C 94.3663 -1.93264 -0.614558 0
M  V30 955 C 94.6993 -0.937717 -1.7006 0
M  V30 956 O 93.9743 0.0351652 -1.94468 0
M  V30 957 C 94.2573 -3.3938 -1.20386 0
M  V30 958 C 94.1103 -4.49625 -0.125375 0
M  V30 959 C 95.4293 -3.86039 -2.11334 0
M  V30 960 H 92.5483 -0.702791 -0.221933 0
M  V30 961 H 95.1903 -1.8961 0.12175 0
M  V30 962 H 93.3403 -3.42626 -1.83139 0
M  V30 963 H 95.0123 -4.58506 0.506971 0
M  V30 964 H 93.2553 -4.30354 0.545672 0
M  V30 965 H 93.9263 -5.48967 -0.577861 0
M  V30 966 H 96.4023 -3.84716 -1.58534 0
M  V30 967 H 95.2783 -4.88914 -2.49507 0
M  V30 968 H 95.5393 -3.23215 -3.01636 0
M  V30 969 N 94.5984 0.214957 -1.56127 0
M  V30 970 C 95.8284 0.953707 -1.8327 0
M  V30 971 C 96.2364 1.78181 -0.636262 0
M  V30 972 O 95.5794 1.79191 0.404516 0
M  V30 973 C 95.6414 1.91516 -3.0424 0
M  V30 974 C 95.3054 1.27094 -4.38972 0
M  V30 975 C 96.3024 0.657575 -5.15725 0
M  V30 976 C 93.9874 1.28073 -4.85698 0
M  V30 977 C 95.9814 0.0625968 -6.37369 0
M  V30 978 C 93.6684 0.681914 -6.07283 0
M  V30 979 C 94.6664 0.0739046 -6.8296 0
M  V30 980 O 94.3544 -0.515582 -8.02245 0
M  V30 981 H 94.0864 0.284764 -0.613095 0
M  V30 982 H 96.6404 0.233283 -2.04071 0
M  V30 983 H 94.8704 2.67475 -2.79274 0
M  V30 984 H 96.5594 2.52001 -3.18198 0
M  V30 985 H 97.3254 0.642288 -4.80728 0
M  V30 986 H 93.2044 1.74337 -4.26764 0
M  V30 987 H 96.7484 -0.412593 -6.96379 0
M  V30 988 H 92.6454 0.694636 -6.41752 0
M  V30 989 H 93.4134 -0.410544 -8.1747 0
M  V30 990 N 96.0765 1.50051 0.48192 0
M  V30 991 C 97.3235 1.60498 1.23477 0
M  V30 992 C 97.6515 0.300331 1.92167 0
M  V30 993 O 96.9065 -0.713094 1.82246 0
M  V30 994 C 97.2055 2.72717 2.30998 0
M  V30 995 C 96.8715 4.13572 1.79636 0
M  V30 996 C 95.5335 4.519 1.65348 0
M  V30 997 C 97.8855 5.01649 1.41412 0
M  V30 998 C 95.2135 5.76057 1.11244 0
M  V30 999 C 97.5655 6.26343 0.887538 0
M  V30 1000 C 96.2295 6.63483 0.731207 0
M  V30 1001 H 95.4995 0.587303 0.451836 0
M  V30 1002 H 98.1465 1.83948 0.532468 0
M  V30 1003 H 96.4515 2.43312 3.07094 0
M  V30 1004 H 98.1485 2.78006 2.88988 0
M  V30 1005 H 94.7385 3.83329 1.91721 0
M  V30 1006 H 98.9225 4.72679 1.51289 0
M  V30 1007 H 94.1785 6.03516 0.978686 0
M  V30 1008 H 98.3525 6.93958 0.582654 0
M  V30 1009 H 95.9795 7.59568 0.309806 0
M  V30 1010 N 97.5546 -0.734337 1.39446 0
M  V30 1011 C 98.7946 -1.50655 1.38139 0
M  V30 1012 C 99.1586 -1.91986 -0.0228701 0
M  V30 1013 O 100.36 -2.68318 -0.160947 0
M  V30 1014 C 98.6306 -2.71251 2.32718 0
M  V30 1015 S 100.19 -3.60892 2.49605 0
M  V30 1016 H 97.0076 -0.515315 0.489869 0
M  V30 1017 H 99.6096 -0.860392 1.75549 0
M  V30 1018 H 98.3136 -2.39027 3.33608 0
M  V30 1019 H 97.8446 -3.40795 1.96526 0
M  V30 1020 H 99.8596 -4.64899 1.73446 0
M  V30 1021 N 99.0327 -1.24633 -0.964593 0
M  V30 1022 C 99.9827 -1.00841 -2.04487 0
M  V30 1023 C 100.967 0.0512468 -1.60818 0
M  V30 1024 O 102.159 -0.162865 -1.76249 0
M  V30 1025 C 99.2877 -0.618474 -3.37683 0
M  V30 1026 C 98.3737 -1.71437 -3.87905 0
M  V30 1027 N 98.7647 -2.9477 -4.11029 0
M  V30 1028 C 97.0627 -1.5926 -4.16596 0
M  V30 1029 C 97.7637 -3.65834 -4.52261 0
M  V30 1030 N 96.7397 -2.9341 -4.57615 0
M  V30 1031 H 100.542 -1.94487 -2.20345 0
M  V30 1032 H 98.0557 -1.14805 -1.14863 0
M  V30 1033 H 100.053 -0.429247 -4.14684 0
M  V30 1034 H 98.7127 0.310766 -3.23209 0
M  V30 1035 H 99.7237 -3.30917 -3.9839 0
M  V30 1036 H 96.4007 -0.731606 -4.1104 0
M  V30 1037 H 97.7907 -4.71646 -4.78539 0
M  V30 1038 N 100.511 1.16574 -1.06058 0
M  V30 1039 C 101.441 2.23057 -0.690488 0
M  V30 1040 C 102.422 1.67141 0.315901 0
M  V30 1041 O 103.607 1.93253 0.191556 0
M  V30 1042 C 100.737 3.47222 -0.073625 0
M  V30 1043 C 99.6908 4.16016 -1.00573 0
M  V30 1044 C 99.0168 5.34104 -0.252289 0
M  V30 1045 C 100.317 4.67264 -2.33371 0
M  V30 1046 H 102.011 2.54271 -1.58072 0
M  V30 1047 H 99.5568 1.22218 -0.76149 0
M  V30 1048 H 101.51 4.20939 0.19714 0
M  V30 1049 H 100.234 3.15302 0.85161 0
M  V30 1050 H 98.8928 3.44223 -1.2612 0
M  V30 1051 H 98.5408 4.98437 0.675988 0
M  V30 1052 H 98.2408 5.81072 -0.873455 0
M  V30 1053 H 99.7648 6.10599 0.0109857 0
M  V30 1054 H 101.179 5.32573 -2.12223 0
M  V30 1055 H 99.5758 5.24843 -2.90963 0
M  V30 1056 H 100.646 3.83602 -2.96611 0
M  V30 1057 N 101.989 0.842826 1.3317 0
M  V30 1058 C 103.266 0.362216 1.92217 0
M  V30 1059 C 103.646 -1.15289 1.76838 0
M  V30 1060 O 102.994 -1.96914 1.15919 0
M  V30 1061 C 103.204 0.813495 3.39387 0
M  V30 1062 C 104.552 0.823804 4.16532 0
M  V30 1063 O 105.576 0.757358 3.48055 0
M  V30 1064 O 104.435 0.915193 5.38782 0
M  V30 1065 H 101.529 0.103317 0.820521 0
M  V30 1066 H 104.075 0.928942 1.42017 0
M  V30 1067 H 102.847 1.85624 3.4447 0
M  V30 1068 H 102.47 0.223561 3.96971 0
M  V30 1069 N 103.467 -1.45747 0.599634 0
M  V30 1070 C 104.716 -2.01502 0.0893511 0
M  V30 1071 C 105.029 -1.4748 -1.28488 0
M  V30 1072 O 106.235 -1.95161 -1.88745 0
M  V30 1073 C 104.691 -3.59735 0.109082 0
M  V30 1074 C 104.299 -4.22754 1.48267 0
M  V30 1075 C 106.043 -4.23085 -0.346374 0
M  V30 1076 C 103.95 -5.73115 1.45921 0
M  V30 1077 H 102.88 -0.753417 0.0296347 0
M  V30 1078 H 105.531 -1.67303 0.753788 0
M  V30 1079 H 103.913 -3.91087 -0.621854 0
M  V30 1080 H 105.087 -4.02987 2.23468 0
M  V30 1081 H 103.402 -3.71567 1.87955 0
M  V30 1082 H 105.999 -5.33327 -0.38298 0
M  V30 1083 H 106.342 -3.93201 -1.36743 0
M  V30 1084 H 106.875 -3.9642 0.331038 0
M  V30 1085 H 103.614 -6.07685 2.45762 0
M  V30 1086 H 103.134 -5.95097 0.749665 0
M  V30 1087 H 104.813 -6.3616 1.17941 0
M  V30 1088 N 104.945 -0.338344 -1.53925 0
M  V30 1089 C 106.194 0.260732 -2.00008 0
M  V30 1090 C 106.507 1.52073 -1.23017 0
M  V30 1091 O 107.713 2.19672 -1.5955 0
M  V30 1092 C 106.169 0.51515 -3.56194 0
M  V30 1093 C 105.777 -0.728645 -4.42035 0
M  V30 1094 C 107.521 1.07337 -4.10706 0
M  V30 1095 C 105.428 -0.445315 -5.89721 0
M  V30 1096 H 104.358 0.101205 -0.747177 0
M  V30 1097 H 107.009 -0.452866 -1.77824 0
M  V30 1098 H 105.391 1.28932 -3.74423 0
M  V30 1099 H 106.565 -1.50352 -4.35581 0
M  V30 1100 H 104.88 -1.20813 -3.98489 0
M  V30 1101 H 107.477 1.30022 -5.18651 0
M  V30 1102 H 107.82 2.0273 -3.63602 0
M  V30 1103 H 108.353 0.360034 -3.96167 0
M  V30 1104 H 105.092 -1.36883 -6.41049 0
M  V30 1105 H 104.612 0.291569 -5.99091 0
M  V30 1106 H 106.291 -0.0606218 -6.46972 0
M  V30 1107 N 106.423 1.57458 -0.0668435 0
M  V30 1108 C 107.669 1.94401 0.598316 0
M  V30 1109 C 108.024 0.946335 1.67518 0
M  V30 1110 O 107.317 -0.0321442 1.91573 0
M  V30 1111 C 107.511 3.35784 1.22409 0
M  V30 1112 C 107.34 4.49212 0.209367 0
M  V30 1113 C 106.11 5.04887 -0.204218 0
M  V30 1114 C 108.308 5.11335 -0.551431 0
M  V30 1115 N 106.29 6.01854 -1.21016 0
M  V30 1116 C 107.661 6.03754 -1.41 0
M  V30 1117 C 109.716 4.94173 -0.608038 0
M  V30 1118 C 108.419 6.80854 -2.32013 0
M  V30 1119 C 110.445 5.71912 -1.50566 0
M  V30 1120 C 109.807 6.63976 -2.35191 0
M  V30 1121 H 105.906 0.758538 0.190114 0
M  V30 1122 H 108.49 1.94175 -0.142832 0
M  V30 1123 H 106.661 3.36757 1.93518 0
M  V30 1124 H 108.393 3.59976 1.84931 0
M  V30 1125 H 105.148 4.73266 0.177908 0
M  V30 1126 H 105.572 6.55035 -1.71049 0
M  V30 1127 H 110.214 4.22788 0.032022 0
M  V30 1128 H 107.932 7.5152 -2.97057 0
M  V30 1129 H 111.518 5.60656 -1.55423 0
M  V30 1130 H 110.398 7.2308 -3.03522 0
M  V30 1131 N 107.901 -0.206675 1.56239 0
M  V30 1132 C 109.147 -0.930218 1.80208 0
M  V30 1133 C 109.48 -1.83387 0.638981 0
M  V30 1134 O 108.755 -1.91119 -0.361066 0
M  V30 1135 C 109.038 -1.75641 3.1436 0
M  V30 1136 C 108.891 -0.878257 4.41142 0
M  V30 1137 C 110.21 -2.73129 3.45092 0
M  V30 1138 H 107.329 -0.336742 0.655571 0
M  V30 1139 H 109.971 -0.198222 1.88963 0
M  V30 1140 H 108.121 -2.38048 3.07027 0
M  V30 1141 H 109.793 -0.269787 4.6051 0
M  V30 1142 H 108.036 -0.184385 4.33408 0
M  V30 1143 H 108.707 -1.49106 5.3148 0
M  V30 1144 H 111.183 -2.20856 3.52649 0
M  V30 1145 H 110.059 -3.28028 4.40101 0
M  V30 1146 H 110.32 -3.51606 2.68003 0
M  V30 1147 N 109.379 -1.50304 -0.473955 0
M  V30 1148 C 110.327 -1.69482 -1.59307 0
M  V30 1149 C 111.321 -0.560669 -1.59853 0
M  V30 1150 O 112.527 -0.741087 -1.64036 0
M  V30 1151 H 108.902 -0.534892 -0.528578 0
M  V30 1152 H 110.873 -2.63364 -1.40293 0
M  V30 1153 C 109.622 -1.80354 -2.97267 0
M  V30 1154 H 108.945 -2.67012 -2.97564 0
M  V30 1155 H 110.385 -1.97798 -3.75036 0
M  V30 1156 C 108.844 -0.55448 -3.32306 0
M  V30 1157 O 109.374 0.307661 -4.0052 0
M  V30 1158 N 107.58 -0.409354 -2.87702 0
M  V30 1159 H 107.127 -1.11196 -2.32364 0
M  V30 1160 H 107.085 0.425223 -3.11511 0
M  V30 1161 N 110.857 0.726932 -1.39834 0
M  V30 1162 C 112.085 1.51613 -1.40787 0
M  V30 1163 C 112.5 1.88799 -0.00451505 0
M  V30 1164 O 111.857 1.54662 0.968809 0
M  V30 1165 C 111.908 2.79863 -2.28821 0
M  V30 1166 O 111.629 2.44253 -3.63692 0
M  V30 1167 C 113.13 3.73837 -2.38245 0
M  V30 1168 H 110.35 0.468264 -0.480593 0
M  V30 1169 H 112.894 0.897607 -1.83748 0
M  V30 1170 H 111.049 3.38027 -1.89252 0
M  V30 1171 H 111.463 3.26695 -4.1033 0
M  V30 1172 H 112.937 4.60699 -3.04073 0
M  V30 1173 H 113.414 4.16153 -1.40403 0
M  V30 1174 H 114.02 3.21589 -2.78317 0
M  V30 1175 N 112.336 1.25143 0.95797 0
M  V30 1176 C 113.747 1.08851 1.51685 0
M  V30 1177 C 114.098 -0.33687 1.93286 0
M  V30 1178 O 113.223 -1.22644 1.7829 0
M  V30 1179 C 113.818 1.96978 2.75654 0
M  V30 1180 C 112.377 1.84881 3.27866 0
M  V30 1181 C 111.524 1.91329 2.0072 0
M  V30 1182 H 114.475 1.38478 0.77522 0
M  V30 1183 H 114.496 1.5078 3.4935 0
M  V30 1184 H 114.008 3.00712 2.45345 0
M  V30 1185 H 112.109 0.840182 3.63004 0
M  V30 1186 H 112.222 2.6951 3.96107 0
M  V30 1187 H 110.586 1.35174 2.15871 0
M  V30 1188 H 111.369 2.96661 1.72764 0
M  V30 1189 N 113.814 -1.1601 1.06675 0
M  V30 1190 C 114.724 -2.24156 0.692179 0
M  V30 1191 C 115.74 -1.71507 -0.293513 0
M  V30 1192 O 116.916 -2.009 -0.141861 0
M  V30 1193 C 113.981 -3.46587 0.0884131 0
M  V30 1194 C 113.042 -4.14257 1.12646 0
M  V30 1195 C 112.275 -5.30844 0.551416 0
M  V30 1196 O 112.498 -5.66858 -0.634656 0
M  V30 1197 O 111.432 -5.87848 1.29298 0
M  V30 1198 H 115.258 -2.58513 1.59388 0
M  V30 1199 H 112.843 -1.23599 0.83926 0
M  V30 1200 H 114.725 -4.20679 -0.246361 0
M  V30 1201 H 113.4 -3.13994 -0.786712 0
M  V30 1202 H 112.307 -3.42118 1.51348 0
M  V30 1203 H 113.64 -4.50914 1.97325 0
M  V30 1204 N 115.292 -0.849877 -1.32721 0
M  V30 1205 C 116.242 -0.262892 -2.26479 0
M  V30 1206 C 117.226 0.588493 -1.49752 0
M  V30 1207 O 118.418 0.438659 -1.71478 0
M  V30 1208 C 115.547 0.551818 -3.38836 0
M  V30 1209 C 114.633 -0.311689 -4.22953 0
M  V30 1210 N 115.024 -1.39567 -4.86163 0
M  V30 1211 C 113.322 -0.100611 -4.45887 0
M  V30 1212 C 114.023 -1.92651 -5.48872 0
M  V30 1213 N 112.999 -1.22637 -5.29586 0
M  V30 1214 H 116.801 -1.09166 -2.72873 0
M  V30 1215 H 114.315 -0.695486 -1.46754 0
M  V30 1216 H 116.312 0.988713 -4.05006 0
M  V30 1217 H 114.972 1.37844 -2.93988 0
M  V30 1218 H 115.983 -1.77859 -4.86402 0
M  V30 1219 H 112.66 0.691681 -4.11731 0
M  V30 1220 H 114.05 -2.83487 -6.09167 0
M  V30 1221 N 116.77 1.45427 -0.607355 0
M  V30 1222 C 118.016 2.0254 -0.102607 0
M  V30 1223 C 118.349 1.47478 1.26348 0
M  V30 1224 O 117.624 0.64939 1.83339 0
M  V30 1225 C 117.907 3.60044 -0.0634347 0
M  V30 1226 C 117.76 4.2544 -1.46017 0
M  V30 1227 C 119.079 4.35646 0.624514 0
M  V30 1228 H 116.198 0.73598 -0.0387607 0
M  V30 1229 H 118.84 1.73284 -0.779282 0
M  V30 1230 H 116.99 3.85101 0.512808 0
M  V30 1231 H 118.662 4.11569 -2.08347 0
M  V30 1232 H 116.905 3.83849 -2.02094 0
M  V30 1233 H 117.576 5.34342 -1.385 0
M  V30 1234 H 120.052 4.15882 0.134723 0
M  V30 1235 H 118.928 5.45376 0.621028 0
M  V30 1236 H 119.189 4.08501 1.69055 0
M  V30 1237 N 118.248 0.346503 1.53744 0
M  V30 1238 C 119.494 -0.249473 2.0126 0
M  V30 1239 C 119.827 -1.49965 1.23386 0
M  V30 1240 O 119.102 -1.91811 0.32229 0
M  V30 1241 C 119.385 -0.560643 3.55709 0
M  V30 1242 C 119.238 0.701836 4.44291 0
M  V30 1243 C 120.557 -1.36905 4.18264 0
M  V30 1244 H 117.676 -0.0891987 0.731582 0
M  V30 1245 H 120.318 0.467624 1.84156 0
M  V30 1246 H 118.468 -1.17156 3.70414 0
M  V30 1247 H 120.14 1.33974 4.41417 0
M  V30 1248 H 118.383 1.32612 4.13033 0
M  V30 1249 H 119.054 0.43933 5.50249 0
M  V30 1250 H 121.53 -0.852448 4.07275 0
M  V30 1251 H 120.406 -1.55553 5.26398 0
M  V30 1252 H 120.667 -2.37203 3.73078 0
M  V30 1253 N 119.726 -1.57421 0.075193 0
M  V30 1254 C 121.137 -1.81021 -0.456964 0
M  V30 1255 C 121.488 -0.98936 -1.69429 0
M  V30 1256 O 120.613 -0.212865 -2.15351 0
M  V30 1257 C 121.208 -3.28329 -0.83581 0
M  V30 1258 C 119.767 -3.52764 -1.31281 0
M  V30 1259 C 118.914 -2.75676 -0.299648 0
M  V30 1260 H 121.865 -1.55822 0.300856 0
M  V30 1261 H 121.886 -3.40564 -1.69696 0
M  V30 1262 H 121.398 -3.88046 0.0649238 0
M  V30 1263 H 119.499 -2.98355 -2.23193 0
M  V30 1264 H 119.612 -4.61451 -1.28839 0
M  V30 1265 H 117.976 -2.42538 -0.777641 0
M  V30 1266 H 118.759 -3.38132 0.593417 0
M  V30 1267 N 121.204 0.198386 -1.56346 0
M  V30 1268 C 122.434 0.934215 -1.84271 0
M  V30 1269 C 122.842 1.77496 -0.655125 0
M  V30 1270 O 122.185 1.7961 0.385488 0
M  V30 1271 C 122.247 1.88278 -3.06254 0
M  V30 1272 C 121.911 1.22431 -4.40295 0
M  V30 1273 C 122.908 0.602839 -5.16393 0
M  V30 1274 C 120.593 1.22915 -4.87029 0
M  V30 1275 C 122.587 -0.0050083 -6.374 0
M  V30 1276 C 120.274 0.617465 -6.07973 0
M  V30 1277 C 121.272 0.00146341 -6.83 0
M  V30 1278 O 120.96 -0.600642 -8.01653 0
M  V30 1279 H 120.692 0.278245 -0.616081 0
M  V30 1280 H 123.246 0.211626 -2.04307 0
M  V30 1281 H 121.476 2.64498 -2.82095 0
M  V30 1282 H 123.165 2.48612 -3.20853 0
M  V30 1283 H 123.931 0.591265 -4.81382 0
M  V30 1284 H 119.81 1.69801 -4.28589 0
M  V30 1285 H 123.354 -0.48643 -6.95902 0
M  V30 1286 H 119.251 0.62653 -6.42452 0
M  V30 1287 H 120.019 -0.497225 -8.16988 0
M  V30 1288 N 122.682 1.50554 0.465978 0
M  V30 1289 C 123.93 1.61479 1.21528 0
M  V30 1290 C 124.251 0.319596 1.92363 0
M  V30 1291 O 123.521 -0.663194 1.84333 0
M  V30 1292 H 122.101 0.595055 0.451573 0
M  V30 1293 H 124.763 1.87355 0.53704 0
M  V30 1294 H 123.859 2.42846 1.96042 0
M  V30 1295 N 124.16 -0.719506 1.40217 0
M  V30 1296 C 125.09 -1.8465 1.42922 0
M  V30 1297 C 126.071 -1.67599 0.29062 0
M  V30 1298 O 127.256 -1.87688 0.498677 0
M  V30 1299 C 124.386 -3.22565 1.28722 0
M  V30 1300 C 123.34 -3.54281 2.40144 0
M  V30 1301 C 122.666 -4.91298 2.11023 0
M  V30 1302 C 123.966 -3.55676 3.82481 0
M  V30 1303 H 125.66 -1.82644 2.37237 0
M  V30 1304 H 123.206 -0.877305 1.1419 0
M  V30 1305 H 125.159 -4.01095 1.29232 0
M  V30 1306 H 123.883 -3.25137 0.308811 0
M  V30 1307 H 122.542 -2.78088 2.38877 0
M  V30 1308 H 122.19 -4.90468 1.11582 0
M  V30 1309 H 121.89 -5.13485 2.8567 0
M  V30 1310 H 123.414 -5.72166 2.13209 0
M  V30 1311 H 124.828 -4.24254 3.85592 0
M  V30 1312 H 123.225 -3.89388 4.56614 0
M  V30 1313 H 124.295 -2.55144 4.12346 0
M  V30 1314 N 125.638 -1.25649 -0.95132 0
M  V30 1315 C 126.886 -1.10375 -1.69298 0
M  V30 1316 C 127.207 0.355339 -1.91735 0
M  V30 1317 O 126.477 1.25188 -1.50681 0
M  V30 1318 H 125.057 -0.405461 -0.627384 0
M  V30 1319 H 127.719 -1.57823 -1.14358 0
M  V30 1320 H 126.815 -1.61465 -2.67087 0
M  V30 1321 N 127.117 1.15442 -1.07289 0
M  V30 1322 C 128.342 1.90638 -0.816828 0
M  V30 1323 C 128.767 1.77445 0.624083 0
M  V30 1324 O 128.125 1.10671 1.43602 0
M  V30 1325 C 128.173 3.39008 -1.22906 0
M  V30 1326 O 127.277 4.10701 -0.373975 0
M  V30 1327 H 126.618 0.593555 -0.297638 0
M  V30 1328 H 129.148 1.46198 -1.43134 0
M  V30 1329 H 129.158 3.89801 -1.20497 0
M  V30 1330 H 127.833 3.47929 -2.27856 0
M  V30 1331 H 126.41 3.70046 -0.460499 0
M  V30 1332 N 128.595 0.856903 1.32268 0
M  V30 1333 C 130.006 0.515711 1.79436 0
M  V30 1334 C 130.357 -0.966586 1.70738 0
M  V30 1335 O 129.482 -1.75409 1.26731 0
M  V30 1336 C 130.077 0.929335 3.25805 0
M  V30 1337 C 128.636 0.640006 3.70919 0
M  V30 1338 C 127.783 1.12784 2.53328 0
M  V30 1339 H 130.734 1.04389 1.19535 0
M  V30 1340 H 130.755 0.246633 3.797 0
M  V30 1341 H 130.267 2.00821 3.32103 0
M  V30 1342 H 128.368 -0.428051 3.70133 0
M  V30 1343 H 128.481 1.20788 4.63624 0
M  V30 1344 H 126.845 0.548033 2.48734 0
M  V30 1345 H 127.628 2.21387 2.62379 0
M  V30 1346 N 130.073 -1.45103 0.615059 0
M  V30 1347 C 131.489 -1.57137 0.279322 0
M  V30 1348 C 131.689 -1.60523 -1.21797 0
M  V30 1349 O 130.745 -1.53956 -2.00134 0
M  V30 1350 C 132.058 -2.85062 0.957083 0
M  V30 1351 C 133.606 -2.98749 0.933706 0
M  V30 1352 C 134.081 -4.29455 1.59162 0
M  V30 1353 N 135.572 -4.36231 1.55746 0
M  V30 1354 C 136.307 -5.36051 2.0356 0
M  V30 1355 N 135.803 -6.42367 2.59494 0
M  V30 1356 N 137.596 -5.27456 1.94284 0
M  V30 1357 H 129.747 -1.41148 1.58717 0
M  V30 1358 H 132.01 -0.675331 0.665306 0
M  V30 1359 H 131.716 -2.88488 2.01166 0
M  V30 1360 H 131.59 -3.7407 0.48494 0
M  V30 1361 H 133.977 -2.94886 -0.112347 0
M  V30 1362 H 134.058 -2.11132 1.44419 0
M  V30 1363 H 133.702 -4.34077 2.63704 0
M  V30 1364 H 133.632 -5.15901 1.0561 0
M  V30 1365 H 136.123 -3.60011 1.14893 0
M  V30 1366 H 136.436 -7.14793 2.93752 0
M  V30 1367 H 134.781 -6.43097 2.63537 0
M  V30 1368 H 137.972 -4.43308 1.5032 0
M  V30 1369 H 138.145 -6.05099 2.3186 0
M  V30 1370 N 131.551 -0.354651 -1.53558 0
M  V30 1371 C 132.776 0.242153 -2.05981 0
M  V30 1372 C 133.201 1.42553 -1.2272 0
M  V30 1373 O 132.559 1.79656 -0.243604 0
M  V30 1374 C 132.607 0.624367 -3.55154 0
M  V30 1375 O 131.711 1.72301 -3.74681 0
M  V30 1376 H 131.052 0.0378432 -0.662921 0
M  V30 1377 H 133.582 -0.512087 -1.98088 0
M  V30 1378 H 133.592 0.898433 -3.97985 0
M  V30 1379 H 132.267 -0.240989 -4.15201 0
M  V30 1380 H 130.844 1.44535 -3.4375 0
M  V30 1381 N 133.029 1.57378 -0.0835403 0
M  V30 1382 C 133.976 2.13384 0.879539 0
M  V30 1383 C 134.946 1.04936 1.28754 0
M  V30 1384 O 136.131 1.32662 1.37133 0
M  V30 1385 C 133.271 2.70932 2.13752 0
M  V30 1386 C 132.384 3.93575 1.7811 0
M  V30 1387 C 131.519 4.39326 2.98607 0
M  V30 1388 C 130.558 5.54587 2.59037 0
M  V30 1389 N 129.695 5.95243 3.72331 0
M  V30 1390 H 134.535 2.9537 0.395076 0
M  V30 1391 H 132.072 1.45953 0.183349 0
M  V30 1392 H 134.03 3.02411 2.87408 0
M  V30 1393 H 132.66 1.91693 2.59718 0
M  V30 1394 H 131.712 3.68483 0.94469 0
M  V30 1395 H 133.024 4.77258 1.45005 0
M  V30 1396 H 132.178 4.72528 3.80529 0
M  V30 1397 H 130.917 3.5452 3.34913 0
M  V30 1398 H 129.922 5.21024 1.75539 0
M  V30 1399 H 131.147 6.41133 2.23887 0
M  V30 1400 H 129.093 5.13385 4.08378 0
M  V30 1401 H 129.01 6.73694 3.43034 0
M  V30 1402 H 130.278 6.33072 4.54797 0
M  V30 1403 N 134.507 -0.190092 1.56449 0
M  V30 1404 C 135.923 -0.54113 1.50146 0
M  V30 1405 C 136.123 -1.85603 0.784465 0
M  V30 1406 O 135.179 -2.5024 0.337051 0
M  V30 1407 C 136.492 -0.591241 2.9483 0
M  V30 1408 C 138.04 -0.679732 3.0553 0
M  V30 1409 C 138.515 -0.760908 4.51635 0
M  V30 1410 N 140.006 -0.824302 4.55806 0
M  V30 1411 C 140.741 -0.907365 5.66175 0
M  V30 1412 N 140.237 -0.952422 6.86222 0
M  V30 1413 N 142.03 -0.94494 5.541 0
M  V30 1414 H 134.181 0.67235 2.01478 0
M  V30 1415 H 136.444 0.240127 0.917084 0
M  V30 1416 H 136.15 0.305905 3.50367 0
M  V30 1417 H 136.024 -1.44422 3.48457 0
M  V30 1418 H 138.411 -1.56731 2.50039 0
M  V30 1419 H 138.492 0.199549 2.5502 0
M  V30 1420 H 138.136 0.122336 5.07753 0
M  V30 1421 H 138.066 -1.65606 4.99882 0
M  V30 1422 H 140.557 -0.798526 3.69367 0
M  V30 1423 H 140.87 -1.01645 7.66086 0
M  V30 1424 H 139.215 -0.921014 6.8887 0
M  V30 1425 H 142.406 -0.906612 4.59236 0
M  V30 1426 H 142.579 -1.00622 6.4014 0
M  V30 1427 N 135.985 -1.50799 -0.457987 0
M  V30 1428 C 136.948 -1.7005 -1.53674 0
M  V30 1429 C 137.948 -0.570881 -1.50325 0
M  V30 1430 O 139.138 -0.838126 -1.52712 0
M  V30 1431 C 136.27 -1.73788 -2.93276 0
M  V30 1432 H 137.463 -2.66306 -1.37917 0
M  V30 1433 H 135.016 -1.40477 -0.685271 0
M  V30 1434 H 135.751 -0.792717 -3.14462 0
M  V30 1435 H 135.536 -2.55864 -2.97113 0
M  V30 1436 H 137.026 -1.90591 -3.71571 0
M  V30 1437 N 137.463 0.71206 -1.40597 0
M  V30 1438 C 138.393 1.83889 -1.43899 0
M  V30 1439 C 139.374 1.67442 -0.299504 0
M  V30 1440 O 140.559 1.87421 -0.508624 0
M  V30 1441 C 137.689 3.21877 -1.30431 0
M  V30 1442 C 136.643 3.53002 -2.42019 0
M  V30 1443 C 135.969 4.90172 -2.13626 0
M  V30 1444 C 137.269 3.53643 -3.84362 0
M  V30 1445 H 138.963 1.81383 -2.38203 0
M  V30 1446 H 136.509 0.871237 -1.14654 0
M  V30 1447 H 138.462 4.00404 -1.31357 0
M  V30 1448 H 137.186 3.24968 -0.326049 0
M  V30 1449 H 135.845 2.76818 -2.40349 0
M  V30 1450 H 135.493 4.89869 -1.14182 0
M  V30 1451 H 135.193 5.11962 -2.88389 0
M  V30 1452 H 136.717 5.71028 -2.1624 0
M  V30 1453 H 138.131 4.22203 -3.87837 0
M  V30 1454 H 136.528 3.86961 -4.58673 0
M  V30 1455 H 137.598 2.52954 -4.13693 0
M  V30 1456 N 138.941 1.26152 0.944643 0
M  V30 1457 C 139.851 1.09176 2.07648 0
M  V30 1458 C 140.867 0.0261935 1.7398 0
M  V30 1459 O 142.043 0.229208 2.00091 0
M  V30 1460 C 139.108 0.722915 3.39079 0
M  V30 1461 C 138.169 1.86752 3.86552 0
M  V30 1462 C 137.402 1.51617 5.11711 0
M  V30 1463 O 137.625 0.416331 5.68879 0
M  V30 1464 O 136.559 2.34975 5.54139 0
M  V30 1465 H 140.385 2.0412 2.24875 0
M  V30 1466 H 137.97 1.05182 1.061 0
M  V30 1467 H 139.852 0.529787 4.18056 0
M  V30 1468 H 138.527 -0.197159 3.23099 0
M  V30 1469 H 137.434 2.11558 3.08535 0
M  V30 1470 H 138.767 2.76719 4.07047 0
M  V30 1471 N 140.419 -1.14872 1.07899 0
M  V30 1472 C 141.367 -2.21857 0.698727 0
M  V30 1473 C 142.361 -1.66845 -0.293086 0
M  V30 1474 O 143.567 -1.79321 -0.156204 0
M  V30 1475 H 139.942 -0.722691 0.207899 0
M  V30 1476 H 141.913 -2.51205 1.61054 0
M  V30 1477 C 140.662 -3.47498 0.11858 0
M  V30 1478 H 139.985 -3.90154 0.872914 0
M  V30 1479 H 141.425 -4.23858 -0.109759 0
M  V30 1480 C 139.884 -3.16947 -1.1422 0
M  V30 1481 O 140.414 -3.3426 -2.22785 0
M  V30 1482 N 138.62 -2.70946 -1.05055 0
M  V30 1483 H 138.167 -2.57058 -0.167038 0
M  V30 1484 H 138.125 -2.50879 -1.89491 0
M  V30 1485 N 141.898 -0.863906 -1.31812 0
M  V30 1486 C 142.828 -0.330843 -2.31144 0
M  V30 1487 C 143.809 0.575005 -1.60087 0
M  V30 1488 O 144.994 0.493304 -1.8783 0
M  V30 1489 C 142.124 0.47374 -3.44054 0
M  V30 1490 C 141.078 -0.338481 -4.26659 0
M  V30 1491 C 140.404 0.591412 -5.31419 0
M  V30 1492 C 141.704 -1.56926 -4.98168 0
M  V30 1493 H 143.398 -1.16086 -2.75979 0
M  V30 1494 H 140.944 -0.559657 -1.32679 0
M  V30 1495 H 142.897 0.857143 -4.12591 0
M  V30 1496 H 141.621 1.33721 -2.9797 0
M  V30 1497 H 140.28 -0.703754 -3.59782 0
M  V30 1498 H 139.928 1.45199 -4.81587 0
M  V30 1499 H 139.628 0.0519022 -5.87577 0
M  V30 1500 H 141.152 0.97179 -6.02817 0
M  V30 1501 H 142.566 -1.25764 -5.59336 0
M  V30 1502 H 140.963 -2.04739 -5.64094 0
M  V30 1503 H 142.033 -2.32544 -4.25501 0
M  V30 1504 N 143.376 1.44774 -0.622745 0
M  V30 1505 C 144.306 2.33382 0.0741861 0
M  V30 1506 C 145.287 1.47719 0.843387 0
M  V30 1507 O 146.472 1.76458 0.810934 0
M  V30 1508 C 143.602 3.30663 1.06204 0
M  V30 1509 C 142.556 4.26079 0.405037 0
M  V30 1510 C 141.882 5.13165 1.5022 0
M  V30 1511 C 143.182 5.1781 -0.683414 0
M  V30 1512 H 144.876 2.91905 -0.665713 0
M  V30 1513 H 142.422 1.40363 -0.321587 0
M  V30 1514 H 144.375 3.9153 1.55827 0
M  V30 1515 H 143.099 2.70331 1.83272 0
M  V30 1516 H 141.758 3.66532 -0.0704683 0
M  V30 1517 H 141.406 4.49191 2.26355 0
M  V30 1518 H 141.106 5.77812 1.06803 0
M  V30 1519 H 142.63 5.76902 2.00041 0
M  V30 1520 H 144.044 5.72661 -0.270631 0
M  V30 1521 H 142.441 5.91015 -1.04023 0
M  V30 1522 H 143.511 4.59326 -1.55395 0
M  V30 1523 N 144.854 0.36279 1.53368 0
M  V30 1524 C 146.265 -0.117022 1.86333 0
M  V30 1525 C 146.616 -1.48397 1.28347 0
M  V30 1526 O 145.741 -2.07787 0.604428 0
M  V30 1527 C 146.336 -0.21912 3.38091 0
M  V30 1528 C 144.895 -0.643184 3.70864 0
M  V30 1529 C 144.042 0.211318 2.76494 0
M  V30 1530 H 146.993 0.581687 1.47655 0
M  V30 1531 H 147.014 -1.04319 3.6592 0
M  V30 1532 H 146.526 0.775902 3.80265 0
M  V30 1533 H 144.627 -1.64654 3.34245 0
M  V30 1534 H 144.74 -0.41973 4.77258 0
M  V30 1535 H 143.104 -0.319367 2.5269 0
M  V30 1536 H 143.887 1.20383 3.21501 0
M  V30 1537 N 146.332 -1.57332 0.0918853 0
M  V30 1538 C 147.56 -1.98574 -0.581048 0
M  V30 1539 C 147.975 -0.970903 -1.61923 0
M  V30 1540 O 147.332 0.0399054 -1.82456 0
M  V30 1541 C 147.383 -3.39872 -1.23164 0
M  V30 1542 O 147.104 -4.37469 -0.234989 0
M  V30 1543 C 148.605 -3.96099 -1.99049 0
M  V30 1544 H 145.825 -0.65261 -0.156018 0
M  V30 1545 H 148.369 -2.0379 0.170225 0
M  V30 1546 H 146.524 -3.35679 -1.93386 0
M  V30 1547 H 146.938 -5.19751 -0.70418 0
M  V30 1548 H 148.412 -4.97127 -2.39934 0
M  V30 1549 H 148.889 -3.3374 -2.85507 0
M  V30 1550 H 149.495 -4.03755 -1.3365 0
M  V30 1551 N 147.81 0.181792 -1.56548 0
M  V30 1552 C 148.757 1.22521 -1.95595 0
M  V30 1553 C 149.727 1.4454 -0.818373 0
M  V30 1554 O 150.912 1.57454 -1.07763 0
M  V30 1555 C 148.052 2.56193 -2.31212 0
M  V30 1556 C 147.165 2.41641 -3.58097 0
M  V30 1557 C 146.3 3.68108 -3.82975 0
M  V30 1558 C 145.339 3.48445 -5.03242 0
M  V30 1559 N 144.476 4.66956 -5.24306 0
M  V30 1560 H 149.316 0.885226 -2.84548 0
M  V30 1561 H 146.853 0.425718 -1.40805 0
M  V30 1562 H 148.811 3.34088 -2.49882 0
M  V30 1563 H 147.441 2.88208 -1.45382 0
M  V30 1564 H 146.493 1.54976 -3.474 0
M  V30 1565 H 147.805 2.23052 -4.46149 0
M  V30 1566 H 146.959 4.54441 -4.01956 0
M  V30 1567 H 145.698 3.89666 -2.93278 0
M  V30 1568 H 144.703 2.60499 -4.8417 0
M  V30 1569 H 145.928 3.2832 -5.9446 0
M  V30 1570 H 143.874 4.88752 -4.37559 0
M  V30 1571 H 143.791 4.51242 -6.06561 0
M  V30 1572 H 145.059 5.54602 -5.47756 0
M  V30 1573 N 149.288 1.51039 0.449983 0
M  V30 1574 C 150.251 1.70863 1.5277 0
M  V30 1575 C 151.251 0.578846 1.5002 0
M  V30 1576 O 152.441 0.846213 1.52266 0
M  V30 1577 C 149.573 1.75341 2.9235 0
M  V30 1578 H 150.766 2.67034 1.36502 0
M  V30 1579 H 148.319 1.40838 0.677812 0
M  V30 1580 H 149.054 0.809383 3.14037 0
M  V30 1581 H 148.839 2.57436 2.95752 0
M  V30 1582 H 150.329 1.92559 3.70555 0
M  V30 1583 N 150.766 -0.704594 1.40972 0
M  V30 1584 C 151.994 -1.49354 1.43182 0
M  V30 1585 C 152.409 -1.88768 0.0345508 0
M  V30 1586 O 151.766 -1.56184 -0.944081 0
M  V30 1587 C 151.817 -2.76187 2.33244 0
M  V30 1588 O 151.538 -2.38436 3.67532 0
M  V30 1589 C 153.039 -3.7 2.44162 0
M  V30 1590 H 150.259 -0.460559 0.487982 0
M  V30 1591 H 152.803 -0.868261 1.85153 0
M  V30 1592 H 150.958 -3.34974 1.94606 0
M  V30 1593 H 151.372 -3.20126 4.15475 0
M  V30 1594 H 152.846 -4.55803 3.11364 0
M  V30 1595 H 153.323 -4.13867 1.47006 0
M  V30 1596 H 153.929 -3.17121 2.83398 0
M  V30 1597 N 152.244 -1.26651 -0.937939 0
M  V30 1598 C 153.521 -1.0313 -1.66204 0
M  V30 1599 C 153.901 0.437256 -2.06522 0
M  V30 1600 O 153.249 1.41831 -1.79154 0
M  V30 1601 C 153.459 -1.98314 -2.87181 0
M  V30 1602 C 154.807 -2.27107 -3.58758 0
M  V30 1603 O 155.831 -1.96205 -2.97291 0
M  V30 1604 O 154.69 -2.79736 -4.69479 0
M  V30 1605 H 151.784 -0.392384 -0.727986 0
M  V30 1606 H 154.33 -1.37874 -0.989382 0
M  V30 1607 H 153.102 -2.97399 -2.54302 0
M  V30 1608 H 152.725 -1.64068 -3.6217 0
M  V30 1609 N 153.722 1.14298 -1.08507 0
M  V30 1610 C 155.138 1.37347 -0.812901 0
M  V30 1611 C 155.338 1.93052 0.577325 0
M  V30 1612 O 154.394 2.14389 1.33393 0
M  V30 1613 C 155.707 2.33359 -1.89642 0
M  V30 1614 C 157.255 2.46996 -1.92255 0
M  V30 1615 C 157.73 3.46309 -2.99724 0
M  V30 1616 N 159.221 3.53853 -2.98902 0
M  V30 1617 C 159.956 4.3055 -3.787 0
M  V30 1618 N 159.452 5.10482 -4.6838 0
M  V30 1619 N 161.245 4.25757 -3.66998 0
M  V30 1620 H 153.396 0.764867 -1.9815 0
M  V30 1621 H 155.659 0.398966 -0.859959 0
M  V30 1622 H 155.365 1.99565 -2.89597 0
M  V30 1623 H 155.239 3.33274 -1.76659 0
M  V30 1624 H 157.626 2.80081 -0.929445 0
M  V30 1625 H 157.707 1.47039 -2.09316 0
M  V30 1626 H 157.351 3.13957 -3.99241 0
M  V30 1627 H 157.281 4.46049 -2.79907 0
M  V30 1628 H 159.772 2.96812 -2.33904 0
M  V30 1629 H 160.085 5.66284 -5.25873 0
M  V30 1630 H 158.43 5.09747 -4.72422 0
M  V30 1631 H 161.621 3.62383 -2.96304 0
M  V30 1632 H 161.794 4.85279 -4.29427 0
M  V30 1633 N 155.201 0.870884 1.31352 0
M  V30 1634 C 156.111 0.330783 2.32256 0
M  V30 1635 C 157.127 -0.559767 1.6475 0
M  V30 1636 O 158.303 -0.456263 1.96164 0
M  V30 1637 C 155.368 -0.458137 3.4366 0
M  V30 1638 C 154.429 0.460482 4.26823 0
M  V30 1639 C 153.662 -0.290881 5.32907 0
M  V30 1640 O 153.885 -1.51885 5.49806 0
M  V30 1641 O 152.819 0.351732 6.00871 0
M  V30 1642 H 156.645 1.16718 2.80376 0
M  V30 1643 H 154.23 0.634285 1.35267 0
M  V30 1644 H 156.112 -0.905343 4.1156 0
M  V30 1645 H 154.787 -1.27106 2.97701 0
M  V30 1646 H 153.694 0.956207 3.61673 0
M  V30 1647 H 155.027 1.23903 4.7635 0
M  V30 1648 N 156.679 -1.44442 0.630414 0
M  V30 1649 C 157.627 -2.32437 -0.0871428 0
M  V30 1650 C 158.621 -1.47304 -0.836525 0
M  V30 1651 O 159.827 -1.63653 -0.749506 0
M  V30 1652 H 156.202 -0.750533 -0.0469495 0
M  V30 1653 H 158.173 -2.90709 0.673096 0
M  V30 1654 C 156.922 -3.31288 -1.05563 0
M  V30 1655 H 156.245 -3.96805 -0.488426 0
M  V30 1656 H 157.685 -3.9554 -1.52721 0
M  V30 1657 C 156.144 -2.6016 -2.14052 0
M  V30 1658 O 156.674 -2.39997 -3.22124 0
M  V30 1659 N 154.88 -2.19911 -1.89967 0
M  V30 1660 H 154.427 -2.36509 -1.02085 0
M  V30 1661 H 154.385 -1.72646 -2.62756 0
M  V30 1662 N 158.157 -0.370918 -1.53173 0
M  V30 1663 C 159.573 -0.0200818 -1.59587 0
M  V30 1664 C 159.773 1.46279 -1.38581 0
M  V30 1665 O 158.829 2.22506 -1.19363 0
M  V30 1666 C 160.142 -0.4808 -2.96831 0
M  V30 1667 C 161.69 -0.435477 -3.09956 0
M  V30 1668 C 162.165 -0.872092 -4.4962 0
M  V30 1669 N 163.656 -0.827364 -4.55751 0
M  V30 1670 C 164.391 -1.13683 -5.62018 0
M  V30 1671 N 163.887 -1.51584 -6.76014 0
M  V30 1672 N 165.68 -1.05927 -5.52029 0
M  V30 1673 H 157.831 -1.33652 -1.65079 0
M  V30 1674 H 160.094 -0.546634 -0.774529 0
M  V30 1675 H 159.8 -1.51577 -3.1736 0
M  V30 1676 H 159.674 0.129796 -3.76977 0
M  V30 1677 H 162.061 0.590371 -2.89134 0
M  V30 1678 H 162.142 -1.08164 -2.31806 0
M  V30 1679 H 161.786 -1.89608 -4.71181 0
M  V30 1680 H 161.716 -0.203127 -5.26208 0
M  V30 1681 H 164.207 -0.548216 -3.73902 0
M  V30 1682 H 164.52 -1.73609 -7.53047 0
M  V30 1683 H 162.865 -1.55454 -6.77391 0
M  V30 1684 H 166.056 -0.762321 -4.61851 0
M  V30 1685 H 166.229 -1.30378 -6.34749 0
M  V30 1686 N 159.635 1.57281 -0.100228 0
M  V30 1687 C 160.875 1.96419 0.56558 0
M  V30 1688 C 161.239 0.981265 1.65031 0
M  V30 1689 O 162.44 1.26133 2.37369 0
M  V30 1690 C 160.711 3.39996 1.10171 0
M  V30 1691 S 162.27 4.01134 1.77867 0
M  V30 1692 H 159.088 0.68667 0.184406 0
M  V30 1693 H 161.69 1.94662 -0.180851 0
M  V30 1694 H 160.394 4.09296 0.300803 0
M  V30 1695 H 159.925 3.45361 1.88385 0
M  V30 1696 H 161.94 3.90358 3.06326 0
M  V30 1697 N 161.113 -0.173488 1.56642 0
M  V30 1698 C 162.045 -1.23935 1.92802 0
M  V30 1699 C 163.058 -1.40589 0.820889 0
M  V30 1700 O 164.247 -1.40631 1.09933 0
M  V30 1701 C 161.347 -2.60837 2.16373 0
M  V30 1702 C 160.52 -2.6551 3.47596 0
M  V30 1703 C 159.579 -3.8376 3.60021 0
M  V30 1704 O 158.605 -3.69859 4.32658 0
M  V30 1705 N 159.807 -5.00127 2.94709 0
M  V30 1706 H 162.572 -0.932236 2.84832 0
M  V30 1707 H 160.133 -0.363268 1.57772 0
M  V30 1708 H 162.125 -3.38407 2.21952 0
M  V30 1709 H 160.695 -2.83948 1.30738 0
M  V30 1710 H 159.915 -1.74052 3.53694 0
M  V30 1711 H 161.203 -2.65641 4.33949 0
M  V30 1712 H 160.601 -5.14322 2.35563 0
M  V30 1713 H 159.158 -5.75567 3.05886 0
M  V30 1714 N 162.591 -1.51276 -0.441967 0
M  V30 1715 C 163.831 -1.65372 -1.20132 0
M  V30 1716 C 164.195 -0.359871 -1.88597 0
M  V30 1717 O 165.396 -0.376551 -2.66149 0
M  V30 1718 C 163.667 -2.8207 -2.1948 0
M  V30 1719 S 165.226 -3.16467 -3.03964 0
M  V30 1720 H 162.044 -0.582669 -0.407453 0
M  V30 1721 H 164.646 -1.89166 -0.493609 0
M  V30 1722 H 163.35 -3.74523 -1.67812 0
M  V30 1723 H 162.881 -2.6045 -2.94838 0
M  V30 1724 H 164.896 -2.62543 -4.21053 0
M  V30 1725 N 164.069 0.697108 -1.41344 0
M  V30 1726 C 165.032 1.79281 -1.42797 0
M  V30 1727 C 166.032 1.57607 -0.318837 0
M  V30 1728 O 167.222 1.64309 -0.578642 0
M  V30 1729 C 164.354 3.17632 -1.23785 0
M  V30 1730 H 165.547 1.79385 -2.40335 0
M  V30 1731 H 163.1 0.904582 -1.27464 0
M  V30 1732 H 163.835 3.23167 -0.270814 0
M  V30 1733 H 163.62 3.34765 -2.04144 0
M  V30 1734 H 165.11 3.97617 -1.27633 0
M  V30 1735 N 165.547 1.27147 0.931209 0
M  V30 1736 C 166.772 1.16191 1.71797 0
M  V30 1737 C 167.197 -0.278004 1.86034 0
M  V30 1738 O 166.555 -1.20137 1.35782 0
M  V30 1739 C 166.603 1.84673 3.09723 0
M  V30 1740 O 165.707 1.14231 3.96264 0
M  V30 1741 H 165.048 0.404303 0.526721 0
M  V30 1742 H 167.578 1.68152 1.1656 0
M  V30 1743 H 167.588 1.91893 3.60057 0
M  V30 1744 H 166.263 2.89421 2.98677 0
M  V30 1745 H 164.84 1.15056 3.54706 0
M  V30 1746 N 167.025 -1.13721 1.09112 0
M  V30 1747 C 167.957 -2.1871 0.685467 0
M  V30 1748 C 168.97 -1.60527 -0.271068 0
M  V30 1749 O 170.159 -1.78407 -0.0576148 0
M  V30 1750 C 167.259 -3.38898 -0.0111255 0
M  V30 1751 C 166.432 -4.26597 0.966131 0
M  V30 1752 C 165.491 -5.25324 0.303539 0
M  V30 1753 O 164.517 -5.61213 0.950177 0
M  V30 1754 N 165.719 -5.72779 -0.943651 0
M  V30 1755 H 168.484 -2.54126 1.58871 0
M  V30 1756 H 166.045 -1.29012 0.978143 0
M  V30 1757 H 168.037 -4.02014 -0.465517 0
M  V30 1758 H 166.607 -3.01747 -0.816565 0
M  V30 1759 H 165.827 -3.60306 1.59917 0
M  V30 1760 H 167.115 -4.82048 1.6281 0
M  V30 1761 H 166.513 -5.45762 -1.48862 0
M  V30 1762 H 165.07 -6.37847 -1.34142 0
M  V30 1763 N 168.503 -0.877838 -1.30888 0
M  V30 1764 C 169.45 -0.337538 -2.28318 0
M  V30 1765 C 170.42 0.568346 -1.56074 0
M  V30 1766 O 171.605 0.498298 -1.84178 0
M  V30 1767 C 168.745 0.448142 -3.42178 0
M  V30 1768 C 167.858 -0.48615 -4.29256 0
M  V30 1769 C 166.993 0.314427 -5.30269 0
M  V30 1770 C 166.032 -0.615791 -6.08995 0
M  V30 1771 N 165.169 0.14902 -7.01942 0
M  V30 1772 H 170.009 -1.17356 -2.73919 0
M  V30 1773 H 167.546 -0.590094 -1.34745 0
M  V30 1774 H 169.504 0.919517 -4.06941 0
M  V30 1775 H 168.134 1.24879 -2.97666 0
M  V30 1776 H 167.186 -1.076 -3.64865 0
M  V30 1777 H 168.498 -1.19909 -4.84173 0
M  V30 1778 H 167.652 0.847969 -6.00745 0
M  V30 1779 H 166.391 1.06062 -4.76027 0
M  V30 1780 H 165.396 -1.16102 -5.37401 0
M  V30 1781 H 166.621 -1.36097 -6.65323 0
M  V30 1782 H 164.567 0.877884 -6.50099 0
M  V30 1783 H 164.484 -0.504433 -7.54315 0
M  V30 1784 H 165.752 0.663537 -7.76671 0
M  V30 1785 N 169.982 1.44106 -0.638065 0
M  V30 1786 C 171.259 1.95453 -0.0759321 0
M  V30 1787 C 171.639 1.57984 1.40015 0
M  V30 1788 O 170.987 0.857361 2.11806 0
M  V30 1789 C 171.197 3.47655 -0.306132 0
M  V30 1790 C 172.545 4.24114 -0.203008 0
M  V30 1791 O 173.569 3.55405 -0.237871 0
M  V30 1792 O 172.428 5.46381 -0.113827 0
M  V30 1793 H 169.522 0.826797 0.0183332 0
M  V30 1794 H 172.068 1.54122 -0.710251 0
M  V30 1795 H 170.84 3.68 -1.3301 0
M  V30 1796 H 170.463 3.95949 0.361991 0
M  V30 1797 N 171.46 0.379036 1.52974 0
M  V30 1798 C 172.407 -0.461048 2.26148 0
M  V30 1799 C 173.377 -1.06637 1.27349 0
M  V30 1800 O 174.562 -1.09633 1.56157 0
M  V30 1801 C 171.702 -1.58782 3.06402 0
M  V30 1802 C 170.815 -1.00636 4.20115 0
M  V30 1803 C 169.95 -2.10334 4.87784 0
M  V30 1804 C 168.989 -1.49724 5.93506 0
M  V30 1805 N 168.126 -2.5331 6.54812 0
M  V30 1806 H 172.966 0.169429 2.97518 0
M  V30 1807 H 170.503 0.0953806 1.4679 0
M  V30 1808 H 172.461 -2.25174 3.51215 0
M  V30 1809 H 171.091 -2.18876 2.37261 0
M  V30 1810 H 170.143 -0.232332 3.7969 0
M  V30 1811 H 171.455 -0.523343 4.96047 0
M  V30 1812 H 170.609 -2.84519 5.35849 0
M  V30 1813 H 169.348 -2.61992 4.11353 0
M  V30 1814 H 168.353 -0.740598 5.44789 0
M  V30 1815 H 169.578 -0.988732 6.71864 0
M  V30 1816 H 167.524 -3.04156 5.81227 0
M  V30 1817 H 167.441 -2.09734 7.26325 0
M  V30 1818 H 168.709 -3.27155 7.07524 0
M  V30 1819 N 172.938 -1.57226 0.108567 0
M  V30 1820 C 173.885 -2.14756 -0.845481 0
M  V30 1821 C 174.855 -1.06971 -1.27068 0
M  V30 1822 O 176.04 -1.34827 -1.35005 0
M  V30 1823 C 173.18 -2.74298 -2.09415 0
M  V30 1824 C 172.293 -3.96358 -1.71826 0
M  V30 1825 C 171.428 -4.44021 -2.9158 0
M  V30 1826 C 170.467 -5.58637 -2.50181 0
M  V30 1827 N 169.604 -6.01091 -3.62814 0
M  V30 1828 H 174.444 -2.95961 -0.348035 0
M  V30 1829 H 171.981 -1.46226 -0.160106 0
M  V30 1830 H 173.939 -3.06945 -2.82561 0
M  V30 1831 H 172.569 -1.95801 -2.56636 0
M  V30 1832 H 171.621 -3.69939 -0.885947 0
M  V30 1833 H 172.933 -4.79504 -1.37394 0
M  V30 1834 H 172.087 -4.78522 -3.72963 0
M  V30 1835 H 170.826 -3.59803 -3.29231 0
M  V30 1836 H 169.831 -5.23751 -1.67228 0
M  V30 1837 H 171.056 -6.44613 -2.13659 0
M  V30 1838 H 169.002 -5.19817 -4.00158 0
M  V30 1839 H 168.919 -6.79066 -3.32273 0
M  V30 1840 H 170.187 -6.40227 -4.44668 0
M  V30 1841 N 174.416 0.165178 -1.56732 0
M  V30 1842 C 175.656 0.887231 -1.8414 0
M  V30 1843 C 176.02 1.79159 -0.690353 0
M  V30 1844 O 177.221 2.55172 -0.845032 0
M  V30 1845 C 175.492 1.65674 -3.16681 0
M  V30 1846 S 177.051 2.42671 -3.6559 0
M  V30 1847 H 173.869 0.297042 -0.645978 0
M  V30 1848 H 176.471 0.148439 -1.94936 0
M  V30 1849 H 175.175 0.983507 -3.98441 0
M  V30 1850 H 174.706 2.43679 -3.08843 0
M  V30 1851 H 176.721 3.67499 -3.33406 0
M  V30 1852 N 175.894 1.51508 0.433938 0
M  V30 1853 C 177.14 1.65549 1.18173 0
M  V30 1854 C 177.495 0.368751 1.88833 0
M  V30 1855 O 176.788 -0.635616 1.8075 0
M  V30 1856 C 176.982 2.79928 2.22205 0
M  V30 1857 C 176.811 4.19601 1.61756 0
M  V30 1858 C 175.581 4.85489 1.40101 0
M  V30 1859 C 177.779 5.02574 1.09194 0
M  V30 1860 N 175.761 6.09266 0.752859 0
M  V30 1861 C 177.132 6.17381 0.569255 0
M  V30 1862 C 179.187 4.88079 0.984025 0
M  V30 1863 C 177.89 7.19282 -0.0507472 0
M  V30 1864 C 179.916 5.90191 0.377912 0
M  V30 1865 C 179.278 7.04272 -0.134216 0
M  V30 1866 H 175.377 0.659653 0.419979 0
M  V30 1867 H 177.961 1.88746 0.477818 0
M  V30 1868 H 176.132 2.5839 2.89982 0
M  V30 1869 H 177.864 2.83132 2.89168 0
M  V30 1870 H 174.619 4.43417 1.66369 0
M  V30 1871 H 175.043 6.75528 0.446123 0
M  V30 1872 H 179.685 4.00131 1.36583 0
M  V30 1873 H 177.403 8.06876 -0.444676 0
M  V30 1874 H 180.989 5.81045 0.296269 0
M  V30 1875 H 179.869 7.81933 -0.59585 0
M  V30 1876 N 177.372 -0.689602 1.41712 0
M  V30 1877 C 178.32 -1.82475 1.44242 0
M  V30 1878 C 179.314 -1.66354 0.319774 0
M  V30 1879 O 180.52 -1.73143 0.492089 0
M  V30 1880 H 176.895 -0.601416 0.451445 0
M  V30 1881 H 178.866 -1.77458 2.39899 0
M  V30 1882 C 177.615 -3.20535 1.3473 0
M  V30 1883 H 176.938 -3.33559 2.20405 0
M  V30 1884 H 178.378 -4.00023 1.40562 0
M  V30 1885 C 176.837 -3.36846 0.0603281 0
M  V30 1886 O 177.367 -3.91656 -0.892663 0
M  V30 1887 N 175.573 -2.90595 -0.0177039 0
M  V30 1888 H 175.12 -2.46178 0.758572 0
M  V30 1889 H 175.078 -3.01886 -0.878201 0
M  V30 1890 N 178.85 -1.27639 -0.924453 0
M  V30 1891 C 180.097 -1.14167 -1.67249 0
M  V30 1892 C 180.425 0.311863 -1.91984 0
M  V30 1893 O 179.68 1.24425 -1.51053 0
M  V30 1894 C 179.979 -1.87407 -3.04325 0
M  V30 1895 C 179.645 -3.37249 -2.99289 0
M  V30 1896 C 178.307 -3.7812 -2.97622 0
M  V30 1897 C 180.659 -4.32845 -2.90336 0
M  V30 1898 C 177.987 -5.12944 -2.8479 0
M  V30 1899 C 180.339 -5.6773 -2.79045 0
M  V30 1900 C 179.003 -6.07889 -2.7573 0
M  V30 1901 H 178.273 -0.417766 -0.612007 0
M  V30 1902 H 180.92 -1.58286 -1.07786 0
M  V30 1903 H 179.225 -1.35805 -3.67511 0
M  V30 1904 H 180.922 -1.74408 -3.61086 0
M  V30 1905 H 177.512 -3.04748 -3.01374 0
M  V30 1906 H 181.696 -4.02239 -2.90719 0
M  V30 1907 H 176.952 -5.432 -2.80612 0
M  V30 1908 H 181.126 -6.41472 -2.71083 0
M  V30 1909 H 178.753 -7.12314 -2.65544 0
M  V30 1910 N 180.328 1.1314 -1.09713 0
M  V30 1911 C 181.568 1.8613 -0.844683 0
M  V30 1912 C 181.932 1.81765 0.618491 0
M  V30 1913 O 183.133 2.50024 0.98699 0
M  V30 1914 C 181.404 3.30151 -1.36877 0
M  V30 1915 S 182.963 4.206 -1.25064 0
M  V30 1916 H 179.781 0.642056 -0.305427 0
M  V30 1917 H 182.383 1.36343 -1.4011 0
M  V30 1918 H 181.087 3.30883 -2.42786 0
M  V30 1919 H 180.618 3.85 -0.808614 0
M  V30 1920 H 182.633 4.95783 -0.203486 0
M  V30 1921 N 181.806 0.884767 1.30421 0
M  V30 1922 C 182.738 0.308655 2.27112 0
M  V30 1923 C 183.751 -0.536655 1.53701 0
M  V30 1924 O 184.94 -0.35624 1.74909 0
M  V30 1925 C 182.04 -0.579782 3.33904 0
M  V30 1926 C 181.213 0.236417 4.36761 0
M  V30 1927 C 180.272 -0.582482 5.22966 0
M  V30 1928 O 179.298 -0.00525502 5.692 0
M  V30 1929 N 180.5 -1.89163 5.48815 0
M  V30 1930 H 183.265 1.13964 2.77186 0
M  V30 1931 H 180.826 0.747731 1.43599 0
M  V30 1932 H 182.818 -1.13366 3.88497 0
M  V30 1933 H 181.388 -1.31144 2.83761 0
M  V30 1934 H 180.608 0.97174 3.82035 0
M  V30 1935 H 181.896 0.795924 5.02536 0
M  V30 1936 H 181.294 -2.38352 5.13035 0
M  V30 1937 H 179.851 -2.39296 6.06284 0
M  V30 1938 N 183.284 -1.43765 0.645699 0
M  V30 1939 C 184.247 -2.29163 -0.0409488 0
M  V30 1940 C 185.247 -1.41813 -0.757996 0
M  V30 1941 O 186.437 -1.63527 -0.600382 0
M  V30 1942 C 183.569 -3.23716 -1.06869 0
M  V30 1943 H 184.762 -2.91366 0.710345 0
M  V30 1944 H 182.315 -1.5092 0.406547 0
M  V30 1945 H 183.05 -2.66393 -1.84947 0
M  V30 1946 H 182.835 -3.88105 -0.558277 0
M  V30 1947 H 184.325 -3.87831 -1.54845 0
M  V30 1948 N 184.763 -0.387143 -1.52771 0
M  V30 1949 C 186.011 0.195349 -2.01154 0
M  V30 1950 C 186.332 1.475 -1.27549 0
M  V30 1951 O 185.602 1.91878 -0.394924 0
M  V30 1952 H 184.182 0.075178 -0.743207 0
M  V30 1953 H 186.844 -0.518337 -1.87881 0
M  V30 1954 H 185.94 0.407096 -3.09434 0
M  V30 1955 N 186.241 1.57166 -0.116904 0
M  V30 1956 C 187.188 2.15202 0.83408 0
M  V30 1957 C 188.158 1.07644 1.26499 0
M  V30 1958 O 189.343 1.35541 1.34288 0
M  V30 1959 C 186.483 2.75405 2.07957 0
M  V30 1960 C 185.596 3.97264 1.69721 0
M  V30 1961 C 184.731 4.45561 2.89221 0
M  V30 1962 C 183.77 5.59956 2.47215 0
M  V30 1963 N 182.907 6.03006 3.59622 0
M  V30 1964 H 187.747 2.96141 0.332335 0
M  V30 1965 H 185.284 1.46309 0.152349 0
M  V30 1966 H 187.242 3.08439 2.80929 0
M  V30 1967 H 185.872 1.97159 2.55594 0
M  V30 1968 H 184.924 3.70404 0.866316 0
M  V30 1969 H 186.236 4.80226 1.34849 0
M  V30 1970 H 185.39 4.80493 3.7042 0
M  V30 1971 H 184.129 3.61544 3.27318 0
M  V30 1972 H 183.134 5.2463 1.64448 0
M  V30 1973 H 184.359 6.45738 2.10238 0
M  V30 1974 H 182.305 5.21931 3.97396 0
M  V30 1975 H 182.222 6.80819 3.28667 0
M  V30 1976 H 183.49 6.42576 4.41267 0
M  V30 1977 N 187.719 -0.156864 1.56817 0
M  V30 1978 C 188.629 -1.2136 2.00771 0
M  V30 1979 C 189.645 -1.47598 0.921459 0
M  V30 1980 O 190.821 -1.59462 1.2302 0
M  V30 1981 C 187.886 -2.52943 2.37109 0
M  V30 1982 C 186.947 -2.34439 3.59634 0
M  V30 1983 C 186.18 -3.59748 3.94229 0
M  V30 1984 O 186.403 -4.65526 3.29609 0
M  V30 1985 O 185.337 -3.52998 4.8752 0
M  V30 1986 H 189.163 -0.870468 2.90958 0
M  V30 1987 H 186.748 -0.36484 1.44877 0
M  V30 1988 H 188.63 -3.30538 2.61386 0
M  V30 1989 H 187.305 -2.86806 1.5008 0
M  V30 1990 H 186.212 -1.54828 3.40557 0
M  V30 1991 H 187.545 -2.05496 4.4725 0
M  V30 1992 N 189.197 -1.51736 -0.425897 0
M  V30 1993 C 190.127 -1.76827 -1.52494 0
M  V30 1994 C 191.108 -0.618524 -1.58456 0
M  V30 1995 O 192.293 -0.862416 -1.74 0
M  V30 1996 C 189.423 -1.90374 -2.90474 0
M  V30 1997 C 188.377 -3.0588 -2.99369 0
M  V30 1998 C 187.703 -3.04625 -4.3944 0
M  V30 1999 C 189.003 -4.45644 -2.72394 0
M  V30 2000 H 190.697 -2.68855 -1.31748 0
M  V30 2001 H 188.243 -1.29372 -0.632362 0
M  V30 2002 H 190.196 -2.0651 -3.6733 0
M  V30 2003 H 188.92 -0.95004 -3.12477 0
M  V30 2004 H 187.579 -2.89467 -2.24954 0
M  V30 2005 H 187.227 -2.0701 -4.58428 0
M  V30 2006 H 186.927 -3.82195 -4.46319 0
M  V30 2007 H 188.451 -3.22869 -5.18255 0
M  V30 2008 H 189.865 -4.62348 -3.38979 0
M  V30 2009 H 188.262 -5.25006 -2.9067 0
M  V30 2010 H 189.332 -4.54893 -1.67929 0
M  V30 2011 N 190.675 0.682077 -1.42076 0
M  V30 2012 C 192.091 0.994324 -1.24841 0
M  V30 2013 C 192.291 2.0096 -0.147389 0
M  V30 2014 O 191.347 2.47822 0.483782 0
M  V30 2015 C 192.66 1.50607 -2.60265 0
M  V30 2016 C 194.208 1.62421 -2.6756 0
M  V30 2017 C 194.683 2.16994 -4.03333 0
M  V30 2018 N 196.174 2.24337 -4.0525 0
M  V30 2019 C 196.909 2.67621 -5.07116 0
M  V30 2020 N 196.405 3.1041 -6.19368 0
M  V30 2021 N 198.198 2.67305 -4.94474 0
M  V30 2022 H 190.349 0.00973908 -2.12398 0
M  V30 2023 H 192.612 0.0668593 -0.945639 0
M  V30 2024 H 192.318 0.834583 -3.41654 0
M  V30 2025 H 192.192 2.48602 -2.83684 0
M  V30 2026 H 194.579 2.28678 -1.86521 0
M  V30 2027 H 194.66 0.629352 -2.47937 0
M  V30 2028 H 194.304 1.51349 -4.84826 0
M  V30 2029 H 194.234 3.17258 -4.20304 0
M  V30 2030 H 196.725 1.94158 -3.24209 0
M  V30 2031 H 197.038 3.42103 -6.92954 0
M  V30 2032 H 195.383 3.08286 -6.22884 0
M  V30 2033 H 198.574 2.33233 -4.05857 0
M  V30 2034 H 198.747 3.00718 -5.73997 0
M  V30 2035 N 192.153 1.28127 0.917671 0
M  V30 2036 C 193.116 1.11744 2.00115 0
M  V30 2037 C 194.116 0.0583052 1.60694 0
M  V30 2038 O 195.306 0.303755 1.71531 0
M  V30 2039 C 192.438 0.704862 3.33533 0
M  V30 2040 H 193.631 2.07966 2.16079 0
M  V30 2041 H 191.184 1.11058 1.09981 0
M  V30 2042 H 191.919 -0.258299 3.2327 0
M  V30 2043 H 191.704 1.4699 3.63505 0
M  V30 2044 H 193.194 0.612768 4.1308 0
M  V30 2045 N 193.631 -1.12557 1.10312 0
M  V30 2046 C 194.541 -2.21841 0.763142 0
M  V30 2047 C 195.557 -1.72354 -0.238801 0
M  V30 2048 O 196.733 -2.01249 -0.0778746 0
M  V30 2049 C 193.798 -3.46131 0.198632 0
M  V30 2050 C 192.859 -4.10464 1.25769 0
M  V30 2051 C 192.092 -5.28821 0.72002 0
M  V30 2052 O 192.315 -5.6859 -0.453993 0
M  V30 2053 O 191.249 -5.83437 1.47935 0
M  V30 2054 H 195.075 -2.53312 1.67532 0
M  V30 2055 H 192.66 -1.20867 0.878157 0
M  V30 2056 H 194.542 -4.2125 -0.112401 0
M  V30 2057 H 193.217 -3.16338 -0.686419 0
M  V30 2058 H 192.124 -3.3713 1.62156 0
M  V30 2059 H 193.457 -4.44408 2.11571 0
M  V30 2060 N 195.109 -0.891671 -1.2995 0
M  V30 2061 C 196.386 -0.433307 -1.9074 0
M  V30 2062 C 196.766 1.08646 -1.80995 0
M  V30 2063 O 196.114 1.92476 -1.23147 0
M  V30 2064 C 196.324 -0.938895 -3.36134 0
M  V30 2065 C 197.672 -0.977829 -4.13187 0
M  V30 2066 O 198.696 -0.886015 -3.45005 0
M  V30 2067 O 197.555 -1.11453 -5.35015 0
M  V30 2068 H 194.649 -0.133699 -0.816121 0
M  V30 2069 H 197.195 -0.981011 -1.38471 0
M  V30 2070 H 195.967 -1.98281 -3.37343 0
M  V30 2071 H 195.59 -0.37074 -3.95868 0
M  V30 2072 N 196.587 1.43421 -0.653314 0
M  V30 2073 C 197.836 2.01032 -0.164076 0
M  V30 2074 C 198.149 1.52147 1.22926 0
M  V30 2075 O 199.355 2.02031 1.81371 0
M  V30 2076 C 197.811 3.59082 -0.24252 0
M  V30 2077 C 197.419 4.1696 -1.63855 0
M  V30 2078 C 199.163 4.24079 0.18911 0
M  V30 2079 C 197.07 5.67304 -1.67092 0
M  V30 2080 H 196 0.751798 -0.0575769 0
M  V30 2081 H 198.651 1.6439 -0.815362 0
M  V30 2082 H 197.033 3.93125 0.476276 0
M  V30 2083 H 198.207 3.94416 -2.38271 0
M  V30 2084 H 196.522 3.64335 -2.01616 0
M  V30 2085 H 199.119 5.34381 0.184775 0
M  V30 2086 H 199.462 3.98005 1.22056 0
M  V30 2087 H 199.995 3.94918 -0.477938 0
M  V30 2088 H 196.734 5.98145 -2.68146 0
M  V30 2089 H 196.254 5.91904 -0.970014 0
M  V30 2090 H 197.933 6.31344 -1.4147 0
M  V30 2091 N 198.065 0.39524 1.52563 0
M  V30 2092 C 198.998 -0.4813 2.23067 0
M  V30 2093 C 199.976 -1.05927 1.23362 0
M  V30 2094 O 201.16 -1.10979 1.52368 0
M  V30 2095 C 198.287 -1.66676 2.9485 0
M  V30 2096 C 197.333 -1.21348 4.08873 0
M  V30 2097 S 198.166 -0.190102 5.35162 0
M  V30 2098 C 199.322 -1.38121 6.1047 0
M  V30 2099 H 199.555 0.117381 2.97068 0
M  V30 2100 H 197.088 0.179458 1.53354 0
M  V30 2101 H 199.046 -2.3466 3.36816 0
M  V30 2102 H 197.707 -2.23676 2.20518 0
M  V30 2103 H 196.9 -2.09877 4.58222 0
M  V30 2104 H 196.502 -0.612486 3.68951 0
M  V30 2105 H 198.794 -2.30726 6.37002 0
M  V30 2106 H 199.737 -0.928521 7.01986 0
M  V30 2107 H 200.145 -1.60071 5.41329 0
M  V30 2108 N 199.544 -1.57102 0.125237 0
M  V30 2109 C 200.454 -2.19191 -0.8362 0
M  V30 2110 C 201.47 -1.16985 -1.28805 0
M  V30 2111 O 202.646 -1.49479 -1.34974 0
M  V30 2112 C 199.711 -2.78407 -2.06617 0
M  V30 2113 C 198.772 -3.9567 -1.66565 0
M  V30 2114 C 198.005 -4.52052 -2.83698 0
M  V30 2115 O 198.228 -4.07326 -3.99302 0
M  V30 2116 O 197.162 -5.42645 -2.60423 0
M  V30 2117 H 200.988 -3.01816 -0.337776 0
M  V30 2118 H 198.573 -1.4906 -0.100695 0
M  V30 2119 H 200.455 -3.16129 -2.7864 0
M  V30 2120 H 199.13 -1.9881 -2.55453 0
M  V30 2121 H 198.037 -3.62705 -0.916296 0
M  V30 2122 H 199.37 -4.76722 -1.22464 0
M  V30 2123 N 201.022 0.148545 -1.56898 0
M  V30 2124 C 201.969 1.18345 -1.98149 0
M  V30 2125 C 202.939 1.42772 -0.848848 0
M  V30 2126 O 204.124 1.55132 -1.11079 0
M  V30 2127 C 201.264 2.51231 -2.36594 0
M  V30 2128 C 200.377 2.33991 -3.63142 0
M  V30 2129 C 199.512 3.59902 -3.90697 0
M  V30 2130 C 198.551 3.37692 -5.1052 0
M  V30 2131 N 197.688 4.5573 -5.34092 0
M  V30 2132 H 202.528 0.82467 -2.86362 0
M  V30 2133 H 200.065 0.395756 -1.41676 0
M  V30 2134 H 202.023 3.28713 -2.56912 0
M  V30 2135 H 200.653 2.85059 -1.51463 0
M  V30 2136 H 199.705 1.47572 -3.50609 0
M  V30 2137 H 201.017 2.13539 -4.5078 0
M  V30 2138 H 200.171 4.45813 -4.11505 0
M  V30 2139 H 198.91 3.83357 -3.01477 0
M  V30 2140 H 197.915 2.5017 -4.89587 0
M  V30 2141 H 199.14 3.15637 -6.0129 0
M  V30 2142 H 197.086 4.79361 -4.47827 0
M  V30 2143 H 197.003 4.38274 -6.15996 0
M  V30 2144 H 198.271 5.42858 -5.59397 0
M  V30 2145 N 202.5 1.5196 0.417844 0
M  V30 2146 C 203.777 1.56146 1.17803 0
M  V30 2147 C 204.157 0.337275 2.08388 0
M  V30 2148 O 203.505 -0.676447 2.18258 0
M  V30 2149 C 203.715 2.88566 1.96293 0
M  V30 2150 C 205.063 3.41244 2.52662 0
M  V30 2151 O 206.087 2.90247 2.06483 0
M  V30 2152 O 204.946 4.30273 3.36938 0
M  V30 2153 H 202.04 0.628598 0.537395 0
M  V30 2154 H 204.586 1.64283 0.425331 0
M  V30 2155 H 203.358 3.69116 1.2988 0
M  V30 2156 H 202.981 2.83681 2.78587 0
M  V30 2157 N 203.978 -0.674533 1.42435 0
M  V30 2158 C 205.224 -1.43521 1.4413 0
M  V30 2159 C 205.579 -1.92316 0.0567773 0
M  V30 2160 O 204.872 -1.68008 -0.921076 0
M  V30 2161 C 205.066 -2.64767 2.40069 0
M  V30 2162 C 204.895 -2.27836 3.87713 0
M  V30 2163 C 203.665 -2.17183 4.56245 0
M  V30 2164 C 205.863 -1.89466 4.78129 0
M  V30 2165 N 203.845 -1.73358 5.88915 0
M  V30 2166 C 205.216 -1.56561 5.99907 0
M  V30 2167 C 207.271 -1.7646 4.65582 0
M  V30 2168 C 205.974 -1.11957 7.10534 0
M  V30 2169 C 208 -1.3326 5.76191 0
M  V30 2170 C 207.362 -1.0128 6.97081 0
M  V30 2171 H 203.461 -0.521656 0.582579 0
M  V30 2172 H 206.045 -0.778381 1.78464 0
M  V30 2173 H 204.216 -3.28139 2.07796 0
M  V30 2174 H 205.948 -3.3136 2.32342 0
M  V30 2175 H 202.703 -2.3626 4.10461 0
M  V30 2176 H 203.127 -1.53867 6.59283 0
M  V30 2177 H 207.769 -1.99831 3.72595 0
M  V30 2178 H 205.487 -0.873318 8.03367 0
M  V30 2179 H 209.073 -1.23717 5.68494 0
M  V30 2180 H 207.953 -0.683597 7.81215 0
M  V30 2181 N 205.456 -1.28612 -0.910864 0
M  V30 2182 C 206.404 -1.1265 -2.03501 0
M  V30 2183 C 207.398 -0.0450054 -1.6934 0
M  V30 2184 O 208.604 -0.203988 -1.7884 0
M  V30 2185 H 204.979 -0.347639 -0.666822 0
M  V30 2186 H 206.95 -2.07849 -2.14106 0
M  V30 2187 C 205.699 -0.808143 -3.38178 0
M  V30 2188 H 205.022 -1.63231 -3.6496 0
M  V30 2189 H 206.462 -0.736426 -4.17556 0
M  V30 2190 C 204.921 0.488226 -3.33344 0
M  V30 2191 O 205.451 1.51766 -3.71927 0
M  V30 2192 N 203.657 0.490009 -2.86439 0
M  V30 2193 H 203.204 -0.348161 -2.55236 0
M  V30 2194 H 203.162 1.35741 -2.83587 0
M  V30 2195 N 206.934 1.1197 -1.10907 0
M  V30 2196 C 207.882 2.19927 -0.757303 0
M  V30 2197 C 208.876 1.67564 0.248747 0
M  V30 2198 O 210.082 1.79672 0.108605 0
M  V30 2199 H 206.457 0.716925 -0.226987 0
M  V30 2200 H 208.428 2.46847 -1.67658 0
M  V30 2201 C 207.177 3.47061 -0.210671 0
M  V30 2202 H 206.5 3.87703 -0.976049 0
M  V30 2203 H 207.94 4.24 -0.0026584 0
M  V30 2204 C 206.399 3.19864 1.05777 0
M  V30 2205 O 206.929 3.40049 2.13845 0
M  V30 2206 N 205.135 2.73636 0.978349 0
M  V30 2207 H 204.682 2.5741 0.0988246 0
M  V30 2208 H 204.64 2.55815 1.82773 0
M  V30 2209 N 208.412 0.89855 1.29475 0
M  V30 2210 C 209.362 0.346767 2.25348 0
M  V30 2211 C 210.346 -0.532509 1.51833 0
M  V30 2212 O 211.538 -0.374714 1.72988 0
M  V30 2213 C 208.667 -0.425681 3.40651 0
M  V30 2214 C 207.753 0.46845 4.21505 0
M  V30 2215 N 208.144 1.57514 4.80648 0
M  V30 2216 C 206.442 0.26603 4.45206 0
M  V30 2217 C 207.143 2.12889 5.41344 0
M  V30 2218 N 206.119 1.42208 5.24669 0
M  V30 2219 H 209.921 1.19219 2.68634 0
M  V30 2220 H 207.435 0.749473 1.44072 0
M  V30 2221 H 209.432 -0.837716 4.08397 0
M  V30 2222 H 208.092 -1.26838 2.98902 0
M  V30 2223 H 209.103 1.95789 4.79465 0
M  V30 2224 H 205.78 -0.538394 4.14014 0
M  V30 2225 H 207.17 3.05901 5.98226 0
M  V30 2226 N 209.89 -1.43072 0.660911 0
M  V30 2227 C 210.837 -2.30785 -0.0259884 0
M  V30 2228 C 211.807 -1.45184 -0.806888 0
M  V30 2229 O 212.992 -1.74041 -0.781943 0
M  V30 2230 C 210.132 -3.30861 -0.981067 0
M  V30 2231 C 209.245 -4.31558 -0.195458 0
M  V30 2232 C 208.38 -5.18712 -1.14503 0
M  V30 2233 C 207.419 -6.11097 -0.350299 0
M  V30 2234 N 206.556 -6.90849 -1.25186 0
M  V30 2235 H 211.396 -2.88975 0.727846 0
M  V30 2236 H 208.933 -1.42353 0.370682 0
M  V30 2237 H 210.891 -3.87399 -1.54849 0
M  V30 2238 H 209.521 -2.74304 -1.70169 0
M  V30 2239 H 208.573 -3.77252 0.488374 0
M  V30 2240 H 209.885 -4.9701 0.422176 0
M  V30 2241 H 209.039 -5.79914 -1.78284 0
M  V30 2242 H 207.778 -4.53404 -1.79656 0
M  V30 2243 H 206.783 -5.48976 0.300808 0
M  V30 2244 H 208.008 -6.7845 0.296941 0
M  V30 2245 H 205.954 -6.28182 -1.89005 0
M  V30 2246 H 205.871 -7.52854 -0.688971 0
M  V30 2247 H 207.139 -7.5655 -1.87757 0
M  V30 2248 N 211.368 -0.403325 -1.52352 0
M  V30 2249 C 212.315 0.425011 -2.26853 0
M  V30 2250 C 213.285 1.04598 -1.29029 0
M  V30 2251 O 214.47 1.07135 -1.57882 0
M  V30 2252 C 211.61 1.53888 -3.08889 0
M  V30 2253 C 210.723 0.939396 -4.21663 0
M  V30 2254 C 209.858 2.02547 -4.91068 0
M  V30 2255 C 208.897 1.40263 -5.95813 0
M  V30 2256 N 208.034 2.4286 -6.58759 0
M  V30 2257 H 212.874 -0.21674 -2.97211 0
M  V30 2258 H 210.411 -0.118722 -1.4662 0
M  V30 2259 H 212.369 2.19558 -3.54753 0
M  V30 2260 H 210.999 2.15074 -2.40714 0
M  V30 2261 H 210.051 0.171898 -3.80011 0
M  V30 2262 H 211.363 0.44436 -4.96817 0
M  V30 2263 H 210.517 2.75958 -5.40308 0
M  V30 2264 H 209.256 2.55415 -4.15469 0
M  V30 2265 H 208.261 0.653833 -5.45898 0
M  V30 2266 H 209.486 0.881719 -6.73352 0
M  V30 2267 H 207.432 2.94871 -5.85992 0
M  V30 2268 H 207.349 1.98152 -7.2957 0
M  V30 2269 H 208.617 3.15858 -7.12639 0
M  V30 2270 N 212.846 1.57033 -0.133567 0
M  V30 2271 C 214.094 1.953 0.519848 0
M  V30 2272 C 214.415 1.01866 1.66278 0
M  V30 2273 O 213.685 0.0776513 1.95746 0
M  V30 2274 H 212.265 0.721091 0.195032 0
M  V30 2275 H 214.927 1.93809 -0.205921 0
M  V30 2276 H 214.023 2.98695 0.904854 0
M  V30 2277 N 214.325 -0.140222 1.56975 0
M  V30 2278 C 215.272 -1.17292 1.98774 0
M  V30 2279 C 216.242 -1.4232 0.856408 0
M  V30 2280 O 217.427 -1.54541 1.119 0
M  V30 2281 C 214.567 -2.49973 2.37923 0
M  V30 2282 C 213.68 -2.32062 3.64378 0
M  V30 2283 C 212.815 -3.57825 3.926 0
M  V30 2284 C 211.854 -3.3498 5.12303 0
M  V30 2285 N 210.991 -4.52891 5.36502 0
M  V30 2286 H 215.831 -0.809472 2.86795 0
M  V30 2287 H 213.368 -0.388237 1.41884 0
M  V30 2288 H 215.326 -3.27346 2.58652 0
M  V30 2289 H 213.956 -2.84252 1.52972 0
M  V30 2290 H 213.008 -1.45711 3.51387 0
M  V30 2291 H 214.32 -2.11145 4.51906 0
M  V30 2292 H 213.474 -4.43624 4.13863 0
M  V30 2293 H 212.213 -3.81753 3.03506 0
M  V30 2294 H 211.218 -2.4757 4.90906 0
M  V30 2295 H 212.443 -3.12444 6.02956 0
M  V30 2296 H 210.389 -4.76979 4.50363 0
M  V30 2297 H 210.306 -4.35001 6.18312 0
M  V30 2298 H 211.574 -5.39884 5.62268 0
M  V30 2299 N 215.803 -1.52179 -0.40978 0
M  V30 2300 C 217.08 -1.56769 -1.16974 0
M  V30 2301 C 217.46 -0.348322 -2.08206 0
M  V30 2302 O 216.808 0.664862 -2.18613 0
M  V30 2303 C 217.018 -2.89603 -1.9476 0
M  V30 2304 C 218.366 -3.42579 -2.50849 0
M  V30 2305 O 219.39 -2.91338 -2.04941 0
M  V30 2306 O 218.249 -4.32054 -3.34652 0
M  V30 2307 H 215.343 -0.631439 -0.534054 0
M  V30 2308 H 217.889 -1.64507 -0.416613 0
M  V30 2309 H 216.661 -3.698 -1.27921 0
M  V30 2310 H 216.284 -2.85155 -2.77079 0
M  V30 2311 N 217.281 0.66697 -1.42791 0
M  V30 2312 C 218.521 1.43892 -1.4517 0
M  V30 2313 C 218.885 1.91877 -0.0687551 0
M  V30 2314 O 220.086 2.6878 0.0327455 0
M  V30 2315 C 218.357 2.59839 -2.45395 0
M  V30 2316 S 219.916 3.48572 -2.66539 0
M  V30 2317 H 216.734 0.491356 -0.513897 0
M  V30 2318 H 219.336 0.775656 -1.79454 0
M  V30 2319 H 218.04 2.22838 -3.44632 0
M  V30 2320 H 217.571 3.3103 -2.12562 0
M  V30 2321 H 219.586 4.56094 -1.95429 0
M  V30 2322 N 218.759 1.29093 0.90403 0
M  V30 2323 C 219.984 1.19809 1.69294 0
M  V30 2324 C 220.409 -0.238481 1.86582 0
M  V30 2325 O 219.767 -1.1723 1.383 0
M  V30 2326 C 219.815 1.91202 3.05736 0
M  V30 2327 O 218.919 1.22611 3.93752 0
M  V30 2328 H 218.26 0.415385 0.518027 0
M  V30 2329 H 220.79 1.70586 1.12967 0
M  V30 2330 H 220.8 1.99487 3.55906 0
M  V30 2331 H 219.475 2.95692 2.92471 0
M  V30 2332 H 218.052 1.22554 3.52186 0
M  V30 2333 N 220.237 -1.11381 1.11499 0
M  V30 2334 C 221.184 -2.17439 0.773887 0
M  V30 2335 C 222.154 -1.64132 -0.254899 0
M  V30 2336 O 223.339 -1.90345 -0.13168 0
M  V30 2337 C 220.479 -3.44373 0.223917 0
M  V30 2338 C 219.592 -4.1168 1.30934 0
M  V30 2339 C 218.727 -5.263 0.71984 0
M  V30 2340 C 217.766 -5.85493 1.78507 0
M  V30 2341 N 216.903 -6.91507 1.21502 0
M  V30 2342 H 221.743 -2.45962 1.68246 0
M  V30 2343 H 219.28 -1.20744 0.840191 0
M  V30 2344 H 221.238 -4.17047 -0.112921 0
M  V30 2345 H 219.868 -3.16232 -0.647851 0
M  V30 2346 H 218.92 -3.37073 1.76312 0
M  V30 2347 H 220.232 -4.51729 2.11524 0
M  V30 2348 H 219.386 -6.05785 0.333094 0
M  V30 2349 H 218.125 -4.87559 -0.117377 0
M  V30 2350 H 217.13 -5.04686 2.18111 0
M  V30 2351 H 218.355 -6.26301 2.62533 0
M  V30 2352 H 216.301 -6.54783 0.399455 0
M  V30 2353 H 216.218 -7.30214 1.95763 0
M  V30 2354 H 217.486 -7.74795 0.855181 0
M  V30 2355 N 221.715 -0.905404 -1.28997 0
M  V30 2356 C 222.645 -0.404212 -2.29975 0
M  V30 2357 C 223.626 0.523784 -1.61835 0
M  V30 2358 O 224.811 0.433298 -1.89304 0
M  V30 2359 C 221.941 0.364042 -3.45387 0
M  V30 2360 C 220.895 -0.474048 -4.25367 0
M  V30 2361 C 220.221 0.422045 -5.33032 0
M  V30 2362 C 221.521 -1.72696 -4.92923 0
M  V30 2363 H 223.215 -1.24807 -2.72146 0
M  V30 2364 H 220.761 -0.601585 -1.30832 0
M  V30 2365 H 222.714 0.725447 -4.15109 0
M  V30 2366 H 221.438 1.24174 -3.02074 0
M  V30 2367 H 220.097 -0.81786 -3.57361 0
M  V30 2368 H 219.745 1.29804 -4.85963 0
M  V30 2369 H 219.445 -0.135057 -5.87445 0
M  V30 2370 H 220.969 0.779517 -6.05604 0
M  V30 2371 H 222.383 -1.43495 -5.55051 0
M  V30 2372 H 220.78 -2.22582 -5.57295 0
M  V30 2373 H 221.85 -2.45964 -4.17887 0
M  V30 2374 N 223.193 1.4272 -0.668489 0
M  V30 2375 C 224.441 2.01226 -0.187769 0
M  V30 2376 C 224.762 1.53092 1.2078 0
M  V30 2377 O 224.032 0.74993 1.80977 0
M  V30 2378 H 222.612 0.744041 -0.0664272 0
M  V30 2379 H 225.274 1.74723 -0.863583 0
M  V30 2380 H 224.37 3.11556 -0.184166 0
M  V30 2381 N 224.671 0.411399 1.52136 0
M  V30 2382 C 225.618 -0.412975 2.27075 0
M  V30 2383 C 226.588 -1.03912 1.29582 0
M  V30 2384 O 227.773 -1.06296 1.58448 0
M  V30 2385 C 224.913 -1.52247 3.09701 0
M  V30 2386 C 224.026 -0.917021 4.22155 0
M  V30 2387 C 223.161 -1.9994 4.92135 0
M  V30 2388 C 222.2 -1.37101 5.96548 0
M  V30 2389 N 221.337 -2.39364 6.60038 0
M  V30 2390 H 226.177 0.232499 2.97092 0
M  V30 2391 H 223.714 0.126496 1.46555 0
M  V30 2392 H 225.672 -2.17674 3.55913 0
M  V30 2393 H 224.302 -2.13794 2.41851 0
M  V30 2394 H 223.354 -0.151742 3.80097 0
M  V30 2395 H 224.666 -0.418006 4.97045 0
M  V30 2396 H 223.82 -2.73088 5.41763 0
M  V30 2397 H 222.559 -2.53208 4.16818 0
M  V30 2398 H 221.564 -0.624873 5.46237 0
M  V30 2399 H 222.789 -0.845998 6.7381 0
M  V30 2400 H 220.735 -2.91759 5.87548 0
M  V30 2401 H 220.652 -1.9428 7.3061 0
M  V30 2402 H 221.92 -3.12074 7.14304 0
M  V30 2403 N 226.149 -1.5696 0.141893 0
M  V30 2404 C 227.096 -2.16501 -0.799737 0
M  V30 2405 C 228.066 -1.09643 -1.24771 0
M  V30 2406 O 229.251 -1.3766 -1.32115 0
M  V30 2407 C 226.391 -2.78679 -2.03549 0
M  V30 2408 C 225.504 -3.99914 -1.6338 0
M  V30 2409 C 224.639 -4.50106 -2.82096 0
M  V30 2410 C 223.678 -5.63819 -2.38275 0
M  V30 2411 N 222.815 -6.08651 -3.49983 0
M  V30 2412 H 227.655 -2.96632 -0.285179 0
M  V30 2413 H 225.192 -1.46533 -0.129053 0
M  V30 2414 H 227.15 -3.1287 -2.75986 0
M  V30 2415 H 225.78 -2.012 -2.52425 0
M  V30 2416 H 224.832 -3.71735 -0.807279 0
M  V30 2417 H 226.144 -4.82311 -1.27192 0
M  V30 2418 H 225.298 -4.86325 -3.62729 0
M  V30 2419 H 224.037 -3.66706 -3.21525 0
M  V30 2420 H 223.042 -5.2718 -1.56081 0
M  V30 2421 H 224.267 -6.49 -1.99938 0
M  V30 2422 H 222.213 -5.28188 -3.89042 0
M  V30 2423 H 222.13 -6.85961 -3.17794 0
M  V30 2424 H 223.398 -6.49515 -4.30988 0
M  V30 2425 N 227.627 0.131896 -1.57047 0
M  V30 2426 C 228.867 0.847972 -1.85981 0
M  V30 2427 C 229.231 1.77655 -0.7282 0
M  V30 2428 O 230.432 2.53322 -0.898968 0
M  V30 2429 C 228.703 1.58919 -3.20124 0
M  V30 2430 S 230.262 2.34862 -3.70655 0
M  V30 2431 H 227.08 0.283273 -0.652133 0
M  V30 2432 H 229.682 0.107057 -1.95207 0
M  V30 2433 H 228.386 0.898771 -4.00438 0
M  V30 2434 H 227.917 2.37073 -3.13942 0
M  V30 2435 H 229.932 3.60344 -3.41126 0
M  V30 2436 N 229.106 1.52395 0.401703 0
M  V30 2437 C 230.355 1.66044 1.14509 0
M  V30 2438 C 230.668 0.400216 1.91462 0
M  V30 2439 O 231.874 0.416632 2.68284 0
M  V30 2440 C 230.33 2.93388 2.0845 0
M  V30 2441 C 229.938 4.26545 1.36978 0
M  V30 2442 C 231.682 3.16402 2.83001 0
M  V30 2443 C 229.589 5.45007 2.29611 0
M  V30 2444 H 228.519 0.618562 0.431158 0
M  V30 2445 H 231.17 1.78886 0.40892 0
M  V30 2446 H 229.552 2.74263 2.8565 0
M  V30 2447 H 230.726 4.56179 0.650916 0
M  V30 2448 H 229.041 4.09692 0.74438 0
M  V30 2449 H 231.638 4.02085 3.52465 0
M  V30 2450 H 231.981 2.30943 3.46368 0
M  V30 2451 H 232.514 3.36034 2.12898 0
M  V30 2452 H 229.253 6.32835 1.70879 0
M  V30 2453 H 228.773 5.19702 2.9945 0
M  V30 2454 H 230.452 5.7838 2.89974 0
M  V30 2455 N 230.584 -0.659388 1.43143 0
M  V30 2456 C 231.814 -1.44513 1.47646 0
M  V30 2457 C 232.222 -1.88981 0.0910095 0
M  V30 2458 O 231.565 -1.59702 -0.907789 0
M  V30 2459 C 231.627 -2.71663 2.35456 0
M  V30 2460 C 231.291 -2.49175 3.83094 0
M  V30 2461 C 232.288 -2.1279 4.74359 0
M  V30 2462 C 229.973 -2.63691 4.27519 0
M  V30 2463 C 231.967 -1.9121 6.08044 0
M  V30 2464 C 229.654 -2.41726 5.61259 0
M  V30 2465 C 230.652 -2.0554 6.51339 0
M  V30 2466 O 230.34 -1.838 7.82606 0
M  V30 2467 H 230.072 -0.45064 0.503884 0
M  V30 2468 H 232.626 -0.816248 1.88485 0
M  V30 2469 H 230.856 -3.37089 1.89493 0
M  V30 2470 H 232.545 -3.33595 2.31235 0
M  V30 2471 H 233.311 -2.01157 4.41317 0
M  V30 2472 H 229.19 -2.90832 3.57684 0
M  V30 2473 H 232.734 -1.62889 6.78316 0
M  V30 2474 H 228.631 -2.52959 5.9387 0
M  V30 2475 H 229.399 -1.98275 7.94122 0
M  V30 2476 N 232.062 -1.29571 -0.897171 0
M  V30 2477 C 232.994 -1.10724 -2.00681 0
M  V30 2478 C 234.007 -0.0540026 -1.6271 0
M  V30 2479 O 235.196 -0.298783 -1.75982 0
M  V30 2480 C 232.296 -0.663912 -3.32333 0
M  V30 2481 C 231.469 -1.79622 -3.98816 0
M  V30 2482 C 230.528 -1.34349 -5.0876 0
M  V30 2483 O 229.554 -2.04864 -5.31055 0
M  V30 2484 N 230.756 -0.215764 -5.80099 0
M  V30 2485 H 233.521 -2.06291 -2.17403 0
M  V30 2486 H 231.082 -1.21544 -1.06951 0
M  V30 2487 H 233.074 -0.344295 -4.03233 0
M  V30 2488 H 231.644 0.199375 -3.11964 0
M  V30 2489 H 230.864 -2.28459 -3.21248 0
M  V30 2490 H 232.152 -2.55535 -4.39976 0
M  V30 2491 H 231.55 0.372091 -5.64475 0
M  V30 2492 H 230.107 0.0444707 -6.51785 0
M  V30 2493 N 233.54 1.10788 -1.12088 0
M  V30 2494 C 234.472 2.16816 -0.743213 0
M  V30 2495 C 235.485 1.6119 0.228412 0
M  V30 2496 O 236.674 1.78497 0.0102931 0
M  V30 2497 C 233.774 3.38809 -0.0787313 0
M  V30 2498 C 232.947 4.23885 -1.0789 0
M  V30 2499 C 232.006 5.24334 -0.442713 0
M  V30 2500 O 231.032 5.58497 -1.09864 0
M  V30 2501 N 232.234 5.75079 0.791457 0
M  V30 2502 H 234.999 2.49825 -1.65552 0
M  V30 2503 H 232.56 1.26373 -1.012 0
M  V30 2504 H 234.552 4.03107 0.358766 0
M  V30 2505 H 233.122 3.03805 0.736275 0
M  V30 2506 H 232.342 3.55939 -1.69414 0
M  V30 2507 H 233.63 4.77562 -1.75533 0
M  V30 2508 H 233.028 5.49517 1.3434 0
M  V30 2509 H 231.585 6.4118 1.17183 0
M  V30 2510 N 235.018 0.912232 1.28515 0
M  V30 2511 C 235.948 0.416403 2.29757 0
M  V30 2512 C 236.929 -0.515194 1.6211 0
M  V30 2513 O 238.114 -0.423253 1.89532 0
M  V30 2514 C 235.244 -0.34572 3.45575 0
M  V30 2515 C 234.198 0.496599 4.25109 0
M  V30 2516 C 233.524 -0.393771 5.33248 0
M  V30 2517 C 234.824 1.75307 4.92001 0
M  V30 2518 H 236.518 1.26249 2.7148 0
M  V30 2519 H 234.064 0.608515 1.30511 0
M  V30 2520 H 236.017 -0.703422 4.15488 0
M  V30 2521 H 234.741 -1.2257 3.02728 0
M  V30 2522 H 233.4 0.8368 3.56922 0
M  V30 2523 H 233.048 -1.27225 4.86644 0
M  V30 2524 H 232.748 0.166209 5.87365 0
M  V30 2525 H 234.272 -0.747389 6.06009 0
M  V30 2526 H 235.686 1.46437 5.54283 0
M  V30 2527 H 234.083 2.25534 5.56106 0
M  V30 2528 H 235.153 2.48176 4.16577 0
M  V30 2529 N 236.496 -1.42363 0.676048 0
M  V30 2530 C 237.742 -2.0182 0.199125 0
M  V30 2531 C 238.075 -1.53339 -1.19168 0
M  V30 2532 O 237.35 -0.736124 -1.80032 0
M  V30 2533 C 237.633 -3.59331 0.235144 0
M  V30 2534 C 237.486 -4.17989 1.66149 0
M  V30 2535 C 238.805 -4.3813 -0.41595 0
M  V30 2536 H 235.924 -0.733293 0.0738311 0
M  V30 2537 H 238.566 -1.69368 0.86107 0
M  V30 2538 H 236.716 -3.87109 -0.328487 0
M  V30 2539 H 238.388 -4.0116 2.27747 0
M  V30 2540 H 236.631 -3.7377 2.20178 0
M  V30 2541 H 237.302 -5.27126 1.63837 0
M  V30 2542 H 239.778 -4.16051 0.0638529 0
M  V30 2543 H 238.654 -5.47717 -0.360115 0
M  V30 2544 H 238.915 -4.16101 -1.49373 0
M  V30 2545 N 237.974 -0.419461 -1.51915 0
M  V30 2546 C 239.39 -0.0708431 -1.59443 0
M  V30 2547 C 239.59 1.41796 -1.43164 0
M  V30 2548 O 238.646 2.18596 -1.26381 0
M  V30 2549 C 239.959 -0.574991 -2.95151 0
M  V30 2550 C 241.507 -0.533867 -3.08413 0
M  V30 2551 C 241.982 -1.01469 -4.46618 0
M  V30 2552 N 243.473 -0.971939 -4.52888 0
M  V30 2553 C 244.208 -1.31505 -5.58116 0
M  V30 2554 N 243.704 -1.73014 -6.70849 0
M  V30 2555 N 245.497 -1.23436 -5.48379 0
M  V30 2556 H 237.648 -1.38836 -1.60743 0
M  V30 2557 H 239.911 -0.570998 -0.756747 0
M  V30 2558 H 239.617 -1.61597 -3.12377 0
M  V30 2559 H 239.491 0.00979777 -3.77199 0
M  V30 2560 H 241.878 0.498086 -2.90866 0
M  V30 2561 H 241.959 -1.15484 -2.28248 0
M  V30 2562 H 241.603 -2.04502 -4.6491 0
M  V30 2563 H 241.533 -0.370433 -5.25295 0
M  V30 2564 H 244.024 -0.666893 -3.71969 0
M  V30 2565 H 244.337 -1.97479 -7.47143 0
M  V30 2566 H 242.682 -1.76926 -6.72103 0
M  V30 2567 H 245.873 -0.908869 -4.59192 0
M  V30 2568 H 246.046 -1.50506 -6.30279 0
M  V30 2569 N 239.452 1.56882 -0.150215 0
M  V30 2570 C 240.7 1.9584 0.499105 0
M  V30 2571 C 241.021 1.03623 1.65188 0
M  V30 2572 O 240.291 0.0984084 1.95653 0
M  V30 2573 H 238.871 0.723119 0.187373 0
M  V30 2574 H 241.533 1.9358 -0.226466 0
M  V30 2575 H 240.629 2.99638 0.873122 0
M  V30 2576 N 240.93 -0.123565 1.57115 0
M  V30 2577 C 242.346 -0.476961 1.52306 0
M  V30 2578 C 242.546 -1.82109 0.86248 0
M  V30 2579 O 241.602 -2.48586 0.442884 0
M  V30 2580 C 242.915 -0.465661 2.97073 0
M  V30 2581 C 244.463 -0.549534 3.08138 0
M  V30 2582 C 244.938 -0.568669 4.54456 0
M  V30 2583 N 246.429 -0.630237 4.58892 0
M  V30 2584 C 247.164 -0.666415 5.69514 0
M  V30 2585 N 246.66 -0.660514 6.89644 0
M  V30 2586 N 248.453 -0.709077 5.5761 0
M  V30 2587 H 240.604 0.757198 1.98445 0
M  V30 2588 H 242.867 0.278808 0.906074 0
M  V30 2589 H 242.573 0.454232 3.48754 0
M  V30 2590 H 242.447 -1.29513 3.54269 0
M  V30 2591 H 244.834 -1.45985 2.56461 0
M  V30 2592 H 244.915 0.307532 2.53945 0
M  V30 2593 H 244.559 0.337581 5.06777 0
M  V30 2594 H 244.489 -1.44256 5.06456 0
M  V30 2595 H 246.98 -0.641146 3.72421 0
M  V30 2596 H 247.293 -0.690616 7.69708 0
M  V30 2597 H 245.638 -0.628012 6.92157 0
M  V30 2598 H 248.829 -0.711019 4.62668 0
M  V30 2599 H 249.002 -0.733804 6.43832 0
M  V30 2600 N 242.408 -1.52605 -0.393616 0
M  V30 2601 C 243.355 -1.77055 -1.48054 0
M  V30 2602 C 244.325 -0.61358 -1.54352 0
M  V30 2603 O 245.51 -0.852806 -1.70681 0
M  V30 2604 C 242.65 -1.94108 -2.85335 0
M  V30 2605 C 241.763 -3.21792 -2.88226 0
M  V30 2606 C 240.898 -3.29188 -4.16904 0
M  V30 2607 C 239.937 -4.51013 -4.13828 0
M  V30 2608 N 239.074 -4.55716 -5.34105 0
M  V30 2609 H 243.914 -2.69815 -1.26506 0
M  V30 2610 H 241.451 -1.33683 -0.61379 0
M  V30 2611 H 243.409 -2.01979 -3.65049 0
M  V30 2612 H 242.039 -1.04713 -3.05344 0
M  V30 2613 H 241.091 -3.23015 -2.00911 0
M  V30 2614 H 242.403 -4.11557 -2.8182 0
M  V30 2615 H 241.557 -3.36216 -5.05018 0
M  V30 2616 H 240.296 -2.37389 -4.26026 0
M  V30 2617 H 239.301 -4.44115 -3.24102 0
M  V30 2618 H 240.526 -5.44123 -4.06333 0
M  V30 2619 H 238.472 -3.66807 -5.43865 0
M  V30 2620 H 238.389 -5.39346 -5.29756 0
M  V30 2621 H 239.657 -4.66993 -6.2413 0
M  V30 2622 N 243.887 0.651787 -1.4349 0
M  V30 2623 C 245.136 1.40754 -1.44469 0
M  V30 2624 C 245.449 1.95463 -0.0731845 0
M  V30 2625 O 246.655 2.71471 0.0395721 0
M  V30 2626 C 245.111 2.54735 -2.5424 0
M  V30 2627 C 244.719 2.06628 -3.97504 0
M  V30 2628 C 246.463 3.32092 -2.64414 0
M  V30 2629 C 244.37 3.17829 -4.98737 0
M  V30 2630 H 243.3 0.528862 -0.53742 0
M  V30 2631 H 245.951 0.703365 -1.69485 0
M  V30 2632 H 244.333 3.2763 -2.22428 0
M  V30 2633 H 245.507 1.40734 -4.38783 0
M  V30 2634 H 243.822 1.42146 -3.91387 0
M  V30 2635 H 246.419 4.14952 -3.37223 0
M  V30 2636 H 246.762 3.80217 -1.69532 0
M  V30 2637 H 247.295 2.66279 -2.95534 0
M  V30 2638 H 244.034 2.74671 -5.95177 0
M  V30 2639 H 243.554 3.82429 -4.62069 0
M  V30 2640 H 245.233 3.82937 -5.21505 0
M  V30 2641 N 245.365 1.30045 0.890287 0
M  V30 2642 C 246.781 1.08261 1.17268 0
M  V30 2643 C 246.981 -0.160063 2.00863 0
M  V30 2644 O 246.037 -0.855181 2.37577 0
M  V30 2645 C 247.35 2.34323 1.8845 0
M  V30 2646 C 248.898 2.39735 2.01237 0
M  V30 2647 C 249.373 3.65625 2.7583 0
M  V30 2648 N 250.864 3.66402 2.83379 0
M  V30 2649 C 251.599 4.60498 3.41657 0
M  V30 2650 N 251.095 5.64933 4.01026 0
M  V30 2651 N 252.888 4.48051 3.39421 0
M  V30 2652 H 245.039 2.09777 0.332762 0
M  V30 2653 H 247.302 0.92446 0.209948 0
M  V30 2654 H 247.008 3.2498 1.34465 0
M  V30 2655 H 246.882 2.4256 2.88867 0
M  V30 2656 H 249.269 1.4956 2.54393 0
M  V30 2657 H 249.35 2.35476 0.999232 0
M  V30 2658 H 248.994 4.56156 2.23347 0
M  V30 2659 H 248.924 3.67144 3.77509 0
M  V30 2660 H 251.415 2.90896 2.41222 0
M  V30 2661 H 251.728 6.32841 4.43545 0
M  V30 2662 H 250.073 5.68732 3.99461 0
M  V30 2663 H 253.264 3.65649 2.92264 0
M  V30 2664 H 253.437 5.21565 3.84544 0
M  V30 2665 N 246.843 -1.10192 1.12674 0
M  V30 2666 C 248.259 -1.34235 0.863317 0
M  V30 2667 C 248.459 -1.95062 -0.505277 0
M  V30 2668 O 247.515 -2.19192 -1.25345 0
M  V30 2669 C 248.828 -2.2616 1.98172 0
M  V30 2670 C 250.376 -2.3969 2.0129 0
M  V30 2671 C 250.851 -3.34946 3.1237 0
M  V30 2672 N 252.342 -3.42515 3.11829 0
M  V30 2673 C 253.077 -4.16199 3.94419 0
M  V30 2674 N 252.573 -4.92747 4.87004 0
M  V30 2675 N 254.366 -4.11843 3.82547 0
M  V30 2676 H 246.517 -0.690798 2.00853 0
M  V30 2677 H 248.78 -0.366774 0.874174 0
M  V30 2678 H 248.486 -1.8868 2.96804 0
M  V30 2679 H 248.36 -3.26488 1.88906 0
M  V30 2680 H 250.747 -2.76438 1.03276 0
M  V30 2681 H 250.828 -1.39169 2.14629 0
M  V30 2682 H 250.472 -2.98923 4.10619 0
M  V30 2683 H 250.402 -4.35353 2.96269 0
M  V30 2684 H 252.893 -2.87926 2.44759 0
M  V30 2685 H 253.206 -5.46376 5.46528 0
M  V30 2686 H 251.551 -4.91862 4.91016 0
M  V30 2687 H 254.742 -3.51136 3.0955 0
M  V30 2688 H 254.915 -4.69007 4.47142 0
M  V30 2689 N 248.321 -0.919034 -1.28029 0
M  V30 2690 C 249.546 -0.570357 -1.99403 0
M  V30 2691 C 249.971 0.842486 -1.68178 0
M  V30 2692 O 249.329 1.56391 -0.917141 0
M  V30 2693 C 249.377 -0.792541 -3.51783 0
M  V30 2694 O 248.481 0.145988 -4.12142 0
M  V30 2695 H 247.822 -0.220555 -0.6263 0
M  V30 2696 H 250.352 -1.23592 -1.63053 0
M  V30 2697 H 250.362 -0.704708 -4.01868 0
M  V30 2698 H 249.037 -1.82247 -3.73844 0
M  V30 2699 H 247.614 0.00897528 -3.72899 0
M  V30 2700 N 249.799 1.42003 -0.683588 0
M  V30 2701 C 251.024 2.06265 -0.216647 0
M  V30 2702 C 251.449 1.51059 1.12083 0
M  V30 2703 O 250.807 0.632638 1.69904 0
M  V30 2704 C 250.855 3.60191 -0.171759 0
M  V30 2705 O 249.959 4.03396 0.857069 0
M  V30 2706 H 249.3 0.65502 -0.108834 0
M  V30 2707 H 251.83 1.81982 -0.935077 0
M  V30 2708 H 251.84 4.08 0.0014303 0
M  V30 2709 H 250.515 3.99743 -1.14796 0
M  V30 2710 H 249.092 3.67117 0.654208 0
M  V30 2711 N 251.277 0.427512 1.51691 0
M  V30 2712 C 252.187 -0.39527 2.31246 0
M  V30 2713 C 253.203 -1.03674 1.39742 0
M  V30 2714 O 254.379 -1.03425 1.72816 0
M  V30 2715 C 251.444 -1.48706 3.13189 0
M  V30 2716 C 250.505 -0.866743 4.20459 0
M  V30 2717 C 249.738 -1.90651 4.98486 0
M  V30 2718 O 249.961 -3.12733 4.77026 0
M  V30 2719 O 248.895 -1.5025 5.82845 0
M  V30 2720 H 252.721 0.253918 3.02637 0
M  V30 2721 H 250.306 0.190274 1.48183 0
M  V30 2722 H 252.188 -2.12047 3.64162 0
M  V30 2723 H 250.863 -2.12051 2.44573 0
M  V30 2724 H 249.77 -0.195544 3.73589 0
M  V30 2725 H 251.103 -0.276934 4.9142 0
M  V30 2726 N 252.755 -1.56801 0.158532 0
M  V30 2727 C 253.665 -2.20916 -0.789518 0
M  V30 2728 C 254.681 -1.1969 -1.26294 0
M  V30 2729 O 255.857 -1.52308 -1.31773 0
M  V30 2730 C 252.922 -2.82727 -2.00665 0
M  V30 2731 C 251.983 -3.99114 -1.58134 0
M  V30 2732 C 251.216 -4.57968 -2.74045 0
M  V30 2733 O 251.439 -4.15704 -3.90572 0
M  V30 2734 O 250.373 -5.48047 -2.48855 0
M  V30 2735 H 254.199 -3.02464 -0.273681 0
M  V30 2736 H 251.784 -1.4924 -0.0690548 0
M  V30 2737 H 253.666 -3.21968 -2.71872 0
M  V30 2738 H 252.341 -2.04184 -2.51179 0
M  V30 2739 H 251.248 -3.64567 -0.839155 0
M  V30 2740 H 252.581 -4.79212 -1.12325 0
M  V30 2741 N 254.233 0.115231 -1.57178 0
M  V30 2742 C 255.183 1.14707 -1.97044 0
M  V30 2743 C 256.167 1.36866 -0.845957 0
M  V30 2744 O 257.359 1.37895 -1.10968 0
M  V30 2745 C 254.488 2.47266 -2.38148 0
M  V30 2746 C 253.574 2.28566 -3.57237 0
M  V30 2747 N 253.965 1.79685 -4.72807 0
M  V30 2748 C 252.263 2.59208 -3.62943 0
M  V30 2749 C 252.964 1.74781 -5.54821 0
M  V30 2750 N 251.94 2.19264 -4.97417 0
M  V30 2751 H 255.742 0.761754 -2.83857 0
M  V30 2752 H 253.256 0.322928 -1.59157 0
M  V30 2753 H 255.253 3.219 -2.64927 0
M  V30 2754 H 253.913 2.86552 -1.52702 0
M  V30 2755 H 254.924 1.49177 -4.9595 0
M  V30 2756 H 251.601 3.02154 -2.88113 0
M  V30 2757 H 252.991 1.38212 -6.57531 0
M  V30 2758 N 255.711 1.52812 0.385517 0
M  V30 2759 C 256.641 1.80808 1.47752 0
M  V30 2760 C 257.622 0.660318 1.5676 0
M  V30 2761 O 258.807 0.908246 1.71652 0
M  V30 2762 C 255.937 1.98008 2.85324 0
M  V30 2763 C 254.891 3.13709 2.91154 0
M  V30 2764 C 254.217 3.16169 4.31209 0
M  V30 2765 C 255.517 4.52709 2.60483 0
M  V30 2766 H 257.211 2.72253 1.24573 0
M  V30 2767 H 254.757 1.31003 0.597839 0
M  V30 2768 H 256.71 2.16176 3.61726 0
M  V30 2769 H 255.434 1.03255 3.09848 0
M  V30 2770 H 254.093 2.95329 2.17201 0
M  V30 2771 H 253.741 2.19092 4.52778 0
M  V30 2772 H 253.441 3.93894 4.36029 0
M  V30 2773 H 254.965 3.36496 5.09512 0
M  V30 2774 H 256.379 4.71173 3.26602 0
M  V30 2775 H 254.776 5.32528 2.76648 0
M  V30 2776 H 255.846 4.59186 1.55809 0
M  V30 2777 N 257.189 -0.644168 1.43834 0
M  V30 2778 C 258.605 -0.960875 1.27434 0
M  V30 2779 C 258.805 -2.00499 0.200618 0
M  V30 2780 O 257.861 -2.49018 -0.417906 0
M  V30 2781 C 259.174 -1.43653 2.64167 0
M  V30 2782 C 260.722 -1.55271 2.71772 0
M  V30 2783 C 261.197 -2.06224 4.08944 0
M  V30 2784 N 262.688 -2.13513 4.11055 0
M  V30 2785 C 263.423 -2.54081 5.14033 0
M  V30 2786 N 262.919 -2.9388 6.27381 0
M  V30 2787 N 264.712 -2.54101 5.01387 0
M  V30 2788 H 256.863 0.0465779 2.12349 0
M  V30 2789 H 259.126 -0.0417638 0.94708 0
M  V30 2790 H 258.832 -0.743706 3.43747 0
M  V30 2791 H 258.706 -2.40993 2.90176 0
M  V30 2792 H 261.093 -2.23653 1.92519 0
M  V30 2793 H 261.174 -0.563395 2.49519 0
M  V30 2794 H 260.818 -1.38441 4.88668 0
M  V30 2795 H 260.748 -3.06003 4.28567 0
M  V30 2796 H 263.239 -1.85493 3.29242 0
M  V30 2797 H 263.552 -3.2361 7.01781 0
M  V30 2798 H 261.897 -2.91663 6.30839 0
M  V30 2799 H 265.088 -2.22391 4.11898 0
M  V30 2800 H 265.261 -2.85394 5.81768 0
M  V30 2801 N 258.668 -1.30515 -0.883378 0
M  V30 2802 C 259.6 -1.12846 -1.99496 0
M  V30 2803 C 260.613 -0.0712571 -1.62644 0
M  V30 2804 O 261.802 -0.317432 -1.75655 0
M  V30 2805 C 258.902 -0.699123 -3.3161 0
M  V30 2806 C 258.075 -1.83842 -3.96889 0
M  V30 2807 C 257.134 -1.39737 -5.07307 0
M  V30 2808 O 256.16 -2.10485 -5.28852 0
M  V30 2809 N 257.362 -0.277279 -5.79837 0
M  V30 2810 H 260.127 -2.08585 -2.15203 0
M  V30 2811 H 257.688 -1.22672 -1.05656 0
M  V30 2812 H 259.68 -0.387044 -4.02845 0
M  V30 2813 H 258.25 0.166276 -3.12157 0
M  V30 2814 H 257.47 -2.31853 -3.18807 0
M  V30 2815 H 258.758 -2.60187 -4.37241 0
M  V30 2816 H 258.156 0.3122 -5.64838 0
M  V30 2817 H 256.713 -0.0246623 -6.51795 0
M  V30 2818 N 260.146 1.09593 -1.13257 0
M  V30 2819 C 261.374 1.855 -0.916378 0
M  V30 2820 C 261.789 1.81069 0.534738 0
M  V30 2821 O 261.146 1.20562 1.37007 0
M  V30 2822 C 261.197 3.33546 -1.39388 0
M  V30 2823 O 260.918 3.37927 -2.78813 0
M  V30 2824 C 262.419 4.26299 -1.21588 0
M  V30 2825 H 259.639 0.585991 -0.326887 0
M  V30 2826 H 262.183 1.38488 -1.5047 0
M  V30 2827 H 260.338 3.77992 -0.848597 0
M  V30 2828 H 260.752 4.30254 -2.9997 0
M  V30 2829 H 262.226 5.28341 -1.59876 0
M  V30 2830 H 262.703 4.38918 -0.157376 0
M  V30 2831 H 263.309 3.87668 -1.7491 0
M  V30 2832 N 261.624 0.925811 1.2754 0
M  V30 2833 C 263.04 0.625767 1.46821 0
M  V30 2834 C 263.24 -0.825506 1.83814 0
M  V30 2835 O 262.296 -1.60356 1.95044 0
M  V30 2836 C 263.609 1.57402 2.56213 0
M  V30 2837 C 265.157 1.58204 2.70075 0
M  V30 2838 C 265.632 2.51721 3.82623 0
M  V30 2839 N 267.123 2.49917 3.89994 0
M  V30 2840 C 267.858 3.18968 4.76494 0
M  V30 2841 N 267.354 3.97391 5.67496 0
M  V30 2842 N 269.147 3.07996 4.70208 0
M  V30 2843 H 261.298 1.86409 1.01811 0
M  V30 2844 H 263.561 0.800213 0.508295 0
M  V30 2845 H 263.267 2.60925 2.35819 0
M  V30 2846 H 263.141 1.31428 3.53563 0
M  V30 2847 H 265.528 0.554124 2.89851 0
M  V30 2848 H 265.609 1.88226 1.73218 0
M  V30 2849 H 265.253 3.54622 3.63601 0
M  V30 2850 H 265.183 2.18996 4.78903 0
M  V30 2851 H 267.674 1.9296 3.24923 0
M  V30 2852 H 267.987 4.4707 6.30356 0
M  V30 2853 H 266.332 4.01495 5.67298 0
M  V30 2854 H 269.523 2.46223 3.9811 0
M  V30 2855 H 269.696 3.6208 5.37403 0
M  V30 2856 N 263.102 -1.41638 0.69111 0
M  V30 2857 C 264.327 -2.06148 0.227583 0
M  V30 2858 C 264.752 -1.51652 -1.11281 0
M  V30 2859 O 264.11 -0.64164 -1.69566 0
M  V30 2860 C 264.158 -3.60095 0.190858 0
M  V30 2861 O 263.262 -4.03845 -0.835664 0
M  V30 2862 H 262.603 -0.654434 0.112306 0
M  V30 2863 H 265.133 -1.81484 0.944714 0
M  V30 2864 H 265.143 -4.07995 0.020207 0
M  V30 2865 H 263.818 -3.99129 1.16915 0
M  V30 2866 H 262.395 -3.67458 -0.63473 0
M  V30 2867 N 264.58 -0.43555 -1.51462 0
M  V30 2868 C 265.49 0.383001 -2.31453 0
M  V30 2869 C 266.506 1.02931 -1.4029 0
M  V30 2870 O 267.682 1.02507 -1.73362 0
M  V30 2871 C 264.747 1.47043 -3.13973 0
M  V30 2872 C 263.808 0.844433 -4.20913 0
M  V30 2873 C 263.041 1.88004 -4.9949 0
M  V30 2874 O 263.264 3.10199 -4.78678 0
M  V30 2875 O 262.198 1.47157 -5.83634 0
M  V30 2876 H 266.024 -0.269964 -3.02498 0
M  V30 2877 H 263.609 -0.19813 -1.4808 0
M  V30 2878 H 265.491 2.10113 -3.65281 0
M  V30 2879 H 264.166 2.10751 -2.45695 0
M  V30 2880 H 263.073 0.175729 -3.73687 0
M  V30 2881 H 264.406 0.250869 -4.9156 0
M  V30 2882 N 266.058 1.56714 -0.166846 0
M  V30 2883 C 267.286 2.0112 0.485644 0
M  V30 2884 C 267.701 1.04705 1.57106 0
M  V30 2885 O 267.058 0.0471923 1.82439 0
M  V30 2886 C 267.109 3.45361 1.06808 0
M  V30 2887 O 266.83 4.38092 0.0259995 0
M  V30 2888 C 268.331 4.05145 1.79924 0
M  V30 2889 H 265.551 0.65931 0.124704 0
M  V30 2890 H 268.095 2.02746 -0.267262 0
M  V30 2891 H 266.25 3.44524 1.7715 0
M  V30 2892 H 266.664 5.22519 0.455398 0
M  V30 2893 H 268.138 5.08009 2.15942 0
M  V30 2894 H 268.615 3.46982 2.69258 0
M  V30 2895 H 269.221 4.09672 1.14234 0
M  V30 2896 N 267.536 -0.106894 1.57237 0
M  V30 2897 C 268.469 -1.16125 1.96444 0
M  V30 2898 C 269.447 -1.3947 0.835871 0
M  V30 2899 O 270.631 -1.53425 1.09513 0
M  V30 2900 C 267.758 -2.51277 2.27107 0
M  V30 2901 C 266.804 -2.44285 3.4961 0
M  V30 2902 S 267.637 -1.87077 5.01759 0
M  V30 2903 C 268.793 -3.23877 5.35588 0
M  V30 2904 H 269.026 -0.826971 2.85567 0
M  V30 2905 H 266.559 -0.314124 1.51171 0
M  V30 2906 H 268.517 -3.29035 2.45451 0
M  V30 2907 H 267.178 -2.81879 1.38576 0
M  V30 2908 H 266.371 -3.4387 3.68469 0
M  V30 2909 H 265.973 -1.74652 3.30715 0
M  V30 2910 H 268.265 -4.20122 5.31511 0
M  V30 2911 H 269.208 -3.09833 6.36717 0
M  V30 2912 H 269.616 -3.22864 4.63054 0
M  V30 2913 N 269.014 -1.53014 -0.377408 0
M  V30 2914 C 270.43 -1.42523 -0.718281 0
M  V30 2915 C 270.63 -0.55487 -1.9371 0
M  V30 2916 O 269.686 -0.0327593 -2.52479 0
M  V30 2917 C 270.999 -2.85546 -0.942539 0
M  V30 2918 C 272.547 -2.95101 -1.04329 0
M  V30 2919 C 273.022 -4.3916 -1.3001 0
M  V30 2920 N 274.513 -4.42536 -1.36806 0
M  V30 2921 C 275.248 -5.51097 -1.58364 0
M  V30 2922 N 274.744 -6.69724 -1.77317 0
M  V30 2923 N 276.537 -5.38657 -1.60638 0
M  V30 2924 H 268.688 -2.08116 0.424426 0
M  V30 2925 H 270.951 -0.939352 0.127759 0
M  V30 2926 H 270.657 -3.51499 -0.118929 0
M  V30 2927 H 270.531 -3.28493 -1.85397 0
M  V30 2928 H 272.918 -2.29309 -1.85745 0
M  V30 2929 H 272.999 -2.55566 -0.109505 0
M  V30 2930 H 272.643 -5.05521 -0.490991 0
M  V30 2931 H 272.573 -4.76258 -2.24691 0
M  V30 2932 H 275.064 -3.57039 -1.23821 0
M  V30 2933 H 275.377 -7.48233 -1.93306 0
M  V30 2934 H 273.722 -6.72732 -1.74518 0
M  V30 2935 H 276.913 -4.44948 -1.45391 0
M  V30 2936 H 277.086 -6.2333 -1.77098 0
M  V30 2937 N 270.492 0.636531 -1.44174 0
M  V30 2938 C 271.44 1.76995 -1.50915 0
M  V30 2939 C 272.434 1.65053 -0.381295 0
M  V30 2940 O 273.64 1.71197 -0.55601 0
M  V30 2941 H 270.015 0.584247 -0.473455 0
M  V30 2942 H 271.986 1.68432 -2.4632 0
M  V30 2943 C 270.735 3.15314 -1.46534 0
M  V30 2944 H 270.058 3.25149 -2.32633 0
M  V30 2945 H 271.498 3.9453 -1.55312 0
M  V30 2946 C 269.957 3.3639 -0.185305 0
M  V30 2947 O 270.487 3.94699 0.746688 0
M  V30 2948 N 268.693 2.9046 -0.0901606 0
M  V30 2949 H 268.24 2.43193 -0.849416 0
M  V30 2950 H 268.198 3.04937 0.765553 0
M  V30 2951 N 271.97 1.30982 0.876444 0
M  V30 2952 C 273.195 1.23373 1.66715 0
M  V30 2953 C 273.62 -0.19885 1.87046 0
M  V30 2954 O 272.978 -1.1427 1.40756 0
M  V30 2955 C 273.026 1.97644 3.01611 0
M  V30 2956 O 272.13 1.30935 3.91062 0
M  V30 2957 H 271.471 0.426279 0.509099 0
M  V30 2958 H 274.001 1.72944 1.09323 0
M  V30 2959 H 274.011 2.06992 3.51594 0
M  V30 2960 H 272.686 3.01829 2.86133 0
M  V30 2961 H 271.263 1.29996 3.49507 0
M  V30 2962 N 273.449 -1.08991 1.13837 0
M  V30 2963 C 274.695 -1.81526 0.90422 0
M  V30 2964 C 275.028 -1.85706 -0.568066 0
M  V30 2965 O 274.303 -1.32855 -1.42056 0
M  V30 2966 C 274.586 -3.27447 1.49835 0
M  V30 2967 C 274.439 -3.31512 3.04006 0
M  V30 2968 C 275.758 -4.24256 1.17025 0
M  V30 2969 H 272.877 -0.659029 0.329923 0
M  V30 2970 H 275.519 -1.27644 1.40737 0
M  V30 2971 H 273.669 -3.73462 1.07044 0
M  V30 2972 H 275.341 -2.93867 3.55584 0
M  V30 2973 H 273.584 -2.70963 3.38765 0
M  V30 2974 H 274.255 -4.34329 3.40679 0
M  V30 2975 H 276.731 -3.86549 1.54009 0
M  V30 2976 H 275.607 -5.24684 1.61237 0
M  V30 2977 H 275.868 -4.42019 0.0846274 0
M  V30 2978 N 274.927 -0.932562 -1.27047 0
M  V30 2979 C 275.874 -0.434072 -2.26681 0
M  V30 2980 C 276.844 0.501639 -1.58344 0
M  V30 2981 O 278.029 0.419734 -1.86126 0
M  V30 2982 C 275.169 0.30261 -3.43771 0
M  V30 2983 C 274.282 -0.667774 -4.26808 0
M  V30 2984 C 273.417 0.0892393 -5.31125 0
M  V30 2985 C 272.456 -0.873532 -6.05835 0
M  V30 2986 N 271.593 -0.148832 -7.01942 0
M  V30 2987 H 276.433 -1.28868 -2.68695 0
M  V30 2988 H 273.97 -0.646713 -1.32121 0
M  V30 2989 H 275.928 0.746092 -4.10474 0
M  V30 2990 H 274.558 1.12142 -3.02695 0
M  V30 2991 H 273.61 -1.22978 -3.59973 0
M  V30 2992 H 274.922 -1.40337 -4.78651 0
M  V30 2993 H 274.076 0.592409 -6.03801 0
M  V30 2994 H 272.815 0.85777 -4.80097 0
M  V30 2995 H 271.82 -1.38791 -5.31994 0
M  V30 2996 H 273.045 -1.64193 -6.58952 0
M  V30 2997 H 270.991 0.601365 -6.53238 0
M  V30 2998 H 270.908 -0.82391 -7.51497 0
M  V30 2999 H 272.176 0.333527 -7.78786 0
M  V30 3000 N 276.405 1.4127 -0.698611 0
M  V30 3001 C 277.63 2.06024 -0.238512 0
M  V30 3002 C 278.055 1.5224 1.10475 0
M  V30 3003 O 277.413 0.650623 1.69223 0
M  V30 3004 C 277.461 3.59988 -0.209952 0
M  V30 3005 O 276.565 4.04282 0.814235 0
M  V30 3006 H 275.906 0.653829 -0.115775 0
M  V30 3007 H 278.436 1.8098 -0.954326 0
M  V30 3008 H 278.446 4.07979 -0.0418436 0
M  V30 3009 H 277.121 3.98503 -1.1903 0
M  V30 3010 H 275.698 3.6779 0.615234 0
M  V30 3011 N 277.883 0.443576 1.51229 0
M  V30 3012 C 279.108 -0.121648 2.07043 0
M  V30 3013 C 279.533 -1.35156 1.30823 0
M  V30 3014 O 278.891 -1.7793 0.347934 0
M  V30 3015 C 278.939 -0.41624 3.5819 0
M  V30 3016 O 278.043 -1.50163 3.8409 0
M  V30 3017 H 277.384 0.000871367 0.663999 0
M  V30 3018 H 279.914 0.626706 1.94765 0
M  V30 3019 H 279.924 -0.664867 4.02546 0
M  V30 3020 H 278.599 0.482653 4.1309 0
M  V30 3021 H 277.176 -1.24248 3.51592 0
M  V30 3022 N 279.361 -1.56624 0.175154 0
M  V30 3023 C 280.608 -1.96999 -0.468811 0
M  V30 3024 C 280.936 -1.06129 -1.62994 0
M  V30 3025 O 280.191 -0.0961771 -1.95464 0
M  V30 3026 C 280.49 -3.43419 -0.989864 0
M  V30 3027 C 280.156 -4.50866 0.0557687 0
M  V30 3028 C 278.818 -4.79975 0.343134 0
M  V30 3029 C 281.17 -5.15551 0.765308 0
M  V30 3030 C 278.498 -5.71066 1.34536 0
M  V30 3031 C 280.85 -6.07724 1.75654 0
M  V30 3032 C 279.514 -6.35199 2.05132 0
M  V30 3033 H 278.784 -0.720869 -0.17155 0
M  V30 3034 H 281.431 -1.89616 0.267924 0
M  V30 3035 H 279.736 -3.47772 -1.80449 0
M  V30 3036 H 281.433 -3.72002 -1.49719 0
M  V30 3037 H 278.023 -4.28229 -0.178381 0
M  V30 3038 H 282.207 -4.9317 0.556513 0
M  V30 3039 H 277.463 -5.90635 1.57988 0
M  V30 3040 H 281.637 -6.56912 2.31169 0
M  V30 3041 H 279.264 -7.05584 2.8294 0
M  V30 3042 N 280.839 0.0985539 -1.57292 0
M  V30 3043 C 281.789 1.1261 -1.9825 0
M  V30 3044 C 282.773 1.35961 -0.860426 0
M  V30 3045 O 283.965 1.36711 -1.12424 0
M  V30 3046 C 281.094 2.44727 -2.40757 0
M  V30 3047 C 280.18 2.24764 -3.59642 0
M  V30 3048 N 280.571 1.74661 -4.74687 0
M  V30 3049 C 278.869 2.55344 -3.65672 0
M  V30 3050 C 279.57 1.68887 -5.56644 0
M  V30 3051 N 278.546 2.13976 -4.99715 0
M  V30 3052 H 282.348 0.731604 -2.84648 0
M  V30 3053 H 279.862 0.306029 -1.59491 0
M  V30 3054 H 281.859 3.19072 -2.68326 0
M  V30 3055 H 280.519 2.84917 -1.55733 0
M  V30 3056 H 281.53 1.43908 -4.97505 0
M  V30 3057 H 278.207 2.99081 -2.91302 0
M  V30 3058 H 279.597 1.3123 -6.5896 0
M  V30 3059 N 282.317 1.53212 0.369288 0
M  V30 3060 C 283.594 1.59815 1.12776 0
M  V30 3061 C 283.974 0.403402 2.0721 0
M  V30 3062 O 283.322 -0.606667 2.20299 0
M  V30 3063 C 283.532 2.94664 1.87013 0
M  V30 3064 C 284.88 3.49109 2.41677 0
M  V30 3065 O 285.904 2.96669 1.97144 0
M  V30 3066 O 284.763 4.40775 3.23079 0
M  V30 3067 H 281.857 0.645376 0.517125 0
M  V30 3068 H 284.403 1.65553 0.37285 0
M  V30 3069 H 283.175 3.73061 1.18071 0
M  V30 3070 H 282.798 2.92401 2.69421 0
M  V30 3071 N 283.795 -0.628877 1.44509 0
M  V30 3072 C 285.206 -1.21054 1.42137 0
M  V30 3073 C 285.557 -1.95715 0.137881 0
M  V30 3074 O 284.682 -2.02554 -0.761645 0
M  V30 3075 C 285.277 -2.20189 2.57493 0
M  V30 3076 C 283.836 -2.73777 2.58308 0
M  V30 3077 C 282.983 -1.48813 2.33987 0
M  V30 3078 H 285.934 -0.41942 1.53057 0
M  V30 3079 H 285.955 -3.02833 2.30375 0
M  V30 3080 H 285.467 -1.6582 3.50892 0
M  V30 3081 H 283.568 -3.32142 1.68856 0
M  V30 3082 H 283.681 -3.19662 3.56865 0
M  V30 3083 H 282.045 -1.77024 1.83124 0
M  V30 3084 H 282.828 -0.963442 3.29504 0
M  V30 3085 N 285.273 -1.31445 -0.869486 0
M  V30 3086 C 286.22 -1.19135 -1.97675 0
M  V30 3087 C 287.19 -0.0770266 -1.65921 0
M  V30 3088 O 288.375 -0.249972 -1.89155 0
M  V30 3089 C 285.515 -0.905149 -3.33018 0
M  V30 3090 C 284.628 -2.10285 -3.77365 0
M  V30 3091 C 283.763 -1.75339 -5.01427 0
M  V30 3092 C 282.802 -2.91515 -5.38224 0
M  V30 3093 N 281.939 -2.56762 -6.53466 0
M  V30 3094 H 286.779 -2.13853 -2.07535 0
M  V30 3095 H 284.316 -1.06379 -1.01597 0
M  V30 3096 H 286.274 -0.719765 -4.10944 0
M  V30 3097 H 284.904 0.00519624 -3.228 0
M  V30 3098 H 283.956 -2.39899 -2.95216 0
M  V30 3099 H 285.268 -2.97237 -4.00564 0
M  V30 3100 H 284.422 -1.53266 -5.87022 0
M  V30 3101 H 283.161 -0.855801 -4.80133 0
M  V30 3102 H 282.166 -3.14237 -4.51149 0
M  V30 3103 H 283.391 -3.81985 -5.61484 0
M  V30 3104 H 281.337 -1.69526 -6.33717 0
M  V30 3105 H 281.254 -3.37243 -6.76612 0
M  V30 3106 H 282.522 -2.38083 -7.42251 0
M  V30 3107 N 286.751 1.08385 -1.14413 0
M  V30 3108 C 287.681 2.17321 -0.854044 0
M  V30 3109 C 288.662 1.69024 0.191049 0
M  V30 3110 O 289.847 1.94141 0.0476779 0
M  V30 3111 C 286.977 3.45719 -0.330983 0
M  V30 3112 C 285.931 4.07409 -1.31155 0
M  V30 3113 C 285.257 5.30762 -0.64778 0
M  V30 3114 C 286.557 4.48665 -2.67388 0
M  V30 3115 H 288.251 2.41845 -1.76498 0
M  V30 3116 H 285.797 1.16233 -0.850051 0
M  V30 3117 H 287.75 4.21241 -0.115645 0
M  V30 3118 H 286.474 3.2075 0.615381 0
M  V30 3119 H 285.133 3.33919 -1.51306 0
M  V30 3120 H 284.781 5.02078 0.304398 0
M  V30 3121 H 284.481 5.72992 -1.30207 0
M  V30 3122 H 286.005 6.08998 -0.441972 0
M  V30 3123 H 287.419 5.15364 -2.51143 0
M  V30 3124 H 285.816 5.01814 -3.29093 0
M  V30 3125 H 286.886 3.60543 -3.24248 0
M  V30 3126 N 288.23 0.939286 1.26551 0
M  V30 3127 C 289.177 0.446088 2.26448 0
M  V30 3128 C 290.147 -0.493234 1.58608 0
M  V30 3129 O 291.332 -0.409857 1.86346 0
M  V30 3130 C 288.472 -0.284375 3.43926 0
M  V30 3131 C 287.585 0.690399 4.26448 0
M  V30 3132 C 286.72 -0.0610712 5.31165 0
M  V30 3133 C 285.759 0.905649 6.05363 0
M  V30 3134 N 284.896 0.186055 7.01853 0
M  V30 3135 H 289.736 1.30291 2.68008 0
M  V30 3136 H 287.273 0.65371 1.31776 0
M  V30 3137 H 289.231 -0.724313 4.10864 0
M  V30 3138 H 287.861 -1.10535 3.03285 0
M  V30 3139 H 286.913 1.24885 3.59316 0
M  V30 3140 H 288.225 1.42873 4.779 0
M  V30 3141 H 287.379 -0.56038 6.04106 0
M  V30 3142 H 286.118 -0.832297 4.80546 0
M  V30 3143 H 285.123 1.4161 5.3125 0
M  V30 3144 H 286.348 1.67685 6.58072 0
M  V30 3145 H 284.294 -0.566714 6.53548 0
M  V30 3146 H 284.211 0.863752 7.51049 0
M  V30 3147 H 285.479 -0.292221 7.78952 0
M  V30 3148 N 289.708 -1.40897 0.706093 0
M  V30 3149 C 290.956 -2.00657 0.241054 0
M  V30 3150 C 291.277 -1.56241 -1.16678 0
M  V30 3151 O 290.547 -0.79765 -1.78926 0
M  V30 3152 H 289.127 -0.742018 0.0861308 0
M  V30 3153 H 291.789 -1.72372 0.909604 0
M  V30 3154 H 290.885 -3.10958 0.266705 0
M  V30 3155 N 291.186 -0.45159 -1.50991 0
M  V30 3156 C 292.133 0.352625 -2.2809 0
M  V30 3157 C 293.103 1.0044 -1.32291 0
M  V30 3158 O 294.288 1.02058 -1.6121 0
M  V30 3159 C 291.428 1.43983 -3.13629 0
M  V30 3160 C 290.541 0.804772 -4.24438 0
M  V30 3161 C 289.676 1.86822 -4.97263 0
M  V30 3162 C 288.715 1.21236 -5.99973 0
M  V30 3163 N 287.852 2.2178 -6.66152 0
M  V30 3164 H 292.692 -0.311186 -2.96371 0
M  V30 3165 H 290.229 -0.165308 -1.46168 0
M  V30 3166 H 292.187 2.08161 -3.61559 0
M  V30 3167 H 290.817 2.07307 -2.47434 0
M  V30 3168 H 289.869 0.0509129 -3.80366 0
M  V30 3169 H 291.181 0.286076 -4.97979 0
M  V30 3170 H 290.335 2.58628 -5.48813 0
M  V30 3171 H 289.074 2.42068 -4.23385 0
M  V30 3172 H 288.079 0.479828 -5.47702 0
M  V30 3173 H 289.304 0.667051 -6.75816 0
M  V30 3174 H 287.25 2.76079 -5.95077 0
M  V30 3175 H 287.167 1.74841 -7.35504 0
M  V30 3176 H 288.435 2.93026 -7.22327 0
M  V30 3177 N 292.664 1.56529 -0.183458 0
M  V30 3178 C 294.075 1.83739 0.331177 0
M  V30 3179 C 294.426 1.10373 1.62211 0
M  V30 3180 O 293.551 0.36071 2.13373 0
M  V30 3181 C 294.146 3.33306 0.607646 0
M  V30 3182 C 292.705 3.60969 1.06668 0
M  V30 3183 C 291.852 2.77086 0.109029 0
M  V30 3184 H 294.803 1.53379 -0.407484 0
M  V30 3185 H 294.824 3.51444 1.45832 0
M  V30 3186 H 294.336 3.86677 -0.332086 0
M  V30 3187 H 292.437 3.13021 2.0211 0
M  V30 3188 H 292.55 4.69231 0.967447 0
M  V30 3189 H 290.914 2.47319 0.608714 0
M  V30 3190 H 291.697 3.33241 -0.82494 0
M  V30 3191 N 294.142 -0.090211 1.57342 0
M  V30 3192 C 295.367 -0.810082 1.90925 0
M  V30 3193 C 295.792 -1.71248 0.778187 0
M  V30 3194 O 295.15 -1.79278 -0.269991 0
M  V30 3195 C 295.198 -1.59529 3.23393 0
M  V30 3196 O 294.302 -2.70461 3.11327 0
M  V30 3197 H 293.643 -0.222231 0.625707 0
M  V30 3198 H 296.173 -0.0639716 2.045 0
M  V30 3199 H 296.183 -1.97847 3.5682 0
M  V30 3200 H 294.858 -0.933055 4.05299 0
M  V30 3201 H 293.435 -2.35135 2.89423 0
M  V30 3202 N 295.62 -1.53406 -0.361157 0
M  V30 3203 C 297.036 -1.43277 -0.703124 0
M  V30 3204 C 297.236 -0.575384 -1.9311 0
M  V30 3205 O 296.292 -0.0595362 -2.5243 0
M  V30 3206 C 297.605 -2.8653 -0.9122 0
M  V30 3207 C 299.153 -2.96191 -1.01193 0
M  V30 3208 C 299.628 -4.40514 -1.25345 0
M  V30 3209 N 301.119 -4.43962 -1.32105 0
M  V30 3210 C 301.854 -5.52746 -1.5251 0
M  V30 3211 N 301.35 -6.71567 -1.70203 0
M  V30 3212 N 303.143 -5.40331 -1.54916 0
M  V30 3213 H 295.294 -2.07654 0.446475 0
M  V30 3214 H 297.557 -0.937944 0.137715 0
M  V30 3215 H 297.263 -3.51605 -0.0816414 0
M  V30 3216 H 297.137 -3.30441 -1.81903 0
M  V30 3217 H 299.524 -2.31266 -1.83303 0
M  V30 3218 H 299.605 -2.55667 -0.0823929 0
M  V30 3219 H 299.249 -5.06014 -0.437346 0
M  V30 3220 H 299.179 -4.78614 -2.19627 0
M  V30 3221 H 301.67 -3.58332 -1.20028 0
M  V30 3222 H 301.983 -7.50241 -1.85359 0
M  V30 3223 H 300.328 -6.74545 -1.67373 0
M  V30 3224 H 303.519 -4.46465 -1.40663 0
M  V30 3225 H 303.692 -6.25173 -1.70477 0
M  V30 3226 N 297.098 0.621204 -1.44841 0
M  V30 3227 C 298.008 1.7612 -1.5498 0
M  V30 3228 C 299.024 1.68477 -0.434927 0
M  V30 3229 O 300.2 1.89076 -0.693693 0
M  V30 3230 C 297.265 3.1254 -1.50065 0
M  V30 3231 C 296.326 3.31741 -2.72482 0
M  V30 3232 C 295.559 4.61653 -2.67792 0
M  V30 3233 O 295.782 5.431 -1.74352 0
M  V30 3234 O 294.716 4.83271 -3.58794 0
M  V30 3235 H 298.542 1.70518 -2.51311 0
M  V30 3236 H 296.127 0.783643 -1.27198 0
M  V30 3237 H 298.009 3.93844 -1.49882 0
M  V30 3238 H 296.684 3.18663 -0.568806 0
M  V30 3239 H 295.591 2.50077 -2.7823 0
M  V30 3240 H 296.924 3.30486 -3.64746 0
M  V30 3241 N 298.576 1.31904 0.862503 0
M  V30 3242 C 299.992 1.10724 1.14945 0
M  V30 3243 C 300.192 -0.117421 2.01158 0
M  V30 3244 O 299.248 -0.804595 2.39338 0
M  V30 3245 C 300.561 2.38267 1.83437 0
M  V30 3246 C 302.109 2.43949 1.96106 0
M  V30 3247 C 302.584 3.71394 2.68013 0
M  V30 3248 N 304.075 3.72331 2.75543 0
M  V30 3249 C 304.81 4.67641 3.31812 0
M  V30 3250 N 304.306 5.73313 3.88953 0
M  V30 3251 N 306.099 4.5515 3.29841 0
M  V30 3252 H 298.25 2.10436 0.288191 0
M  V30 3253 H 300.513 0.928705 0.190292 0
M  V30 3254 H 300.219 3.27759 1.27542 0
M  V30 3255 H 300.093 2.48633 2.83657 0
M  V30 3256 H 302.48 1.54922 2.51164 0
M  V30 3257 H 302.561 2.37543 0.949059 0
M  V30 3258 H 302.205 4.60791 2.13621 0
M  V30 3259 H 302.135 3.75069 3.69636 0
M  V30 3260 H 304.626 2.95947 2.34997 0
M  V30 3261 H 304.939 6.42107 4.30022 0
M  V30 3262 H 303.284 5.77077 3.87308 0
M  V30 3263 H 306.475 3.71766 2.84443 0
M  V30 3264 H 306.648 5.29604 3.73394 0
M  V30 3265 N 300.054 -1.07777 1.14986 0
M  V30 3266 C 301.284 -1.83752 0.944402 0
M  V30 3267 C 301.692 -1.8218 -0.51058 0
M  V30 3268 O 301.035 -1.22852 -1.36576 0
M  V30 3269 C 301.097 -3.32128 1.37592 0
M  V30 3270 C 300.761 -3.57425 2.84775 0
M  V30 3271 C 301.758 -3.5173 3.8286 0
M  V30 3272 C 299.443 -3.8523 3.2234 0
M  V30 3273 C 301.437 -3.73482 5.16517 0
M  V30 3274 C 299.124 -4.06634 4.56171 0
M  V30 3275 C 300.122 -4.00754 5.53069 0
M  V30 3276 O 299.81 -4.2159 6.84483 0
M  V30 3277 H 299.542 -0.58673 0.335744 0
M  V30 3278 H 302.096 -1.36982 1.53052 0
M  V30 3279 H 300.326 -3.79686 0.733165 0
M  V30 3280 H 302.015 -3.89555 1.14024 0
M  V30 3281 H 302.781 -3.30256 3.55184 0
M  V30 3282 H 298.66 -3.88923 2.47508 0
M  V30 3283 H 302.204 -3.68808 5.92137 0
M  V30 3284 H 298.101 -4.27593 4.83564 0
M  V30 3285 H 298.869 -4.38961 6.90837 0
M  V30 3286 N 301.532 -0.945985 -1.26051 0
M  V30 3287 C 302.778 -0.597002 -1.93814 0
M  V30 3288 C 303.111 0.862484 -1.73997 0
M  V30 3289 O 302.386 1.61769 -1.07986 0
M  V30 3290 C 302.669 -0.945937 -3.47454 0
M  V30 3291 C 302.522 -2.46052 -3.76535 0
M  V30 3292 C 303.841 -0.464785 -4.37639 0
M  V30 3293 H 300.96 -0.218366 -0.703907 0
M  V30 3294 H 303.602 -1.18107 -1.48831 0
M  V30 3295 H 301.752 -0.448902 -3.85898 0
M  V30 3296 H 303.424 -3.03065 -3.47778 0
M  V30 3297 H 301.667 -2.90194 -3.22444 0
M  V30 3298 H 302.338 -2.65517 -4.83947 0
M  V30 3299 H 304.814 -0.891016 -4.06448 0
M  V30 3300 H 303.69 -0.737712 -5.4392 0
M  V30 3301 H 303.951 0.635274 -4.37512 0
M  V30 3302 N 303.011 1.40521 -0.713556 0
M  V30 3303 C 304.239 2.05237 -0.261775 0
M  V30 3304 C 304.654 1.53755 1.09567 0
M  V30 3305 O 304.011 0.693268 1.6882 0
M  V30 3306 C 304.062 3.60763 -0.230706 0
M  V30 3307 O 303.783 4.10345 -1.53455 0
M  V30 3308 C 305.284 4.42651 0.239874 0
M  V30 3309 H 302.504 0.660533 -0.118057 0
M  V30 3310 H 305.048 1.79967 -0.971192 0
M  V30 3311 H 303.203 3.8501 0.429661 0
M  V30 3312 H 303.617 5.04526 -1.43366 0
M  V30 3313 H 305.091 5.51599 0.210468 0
M  V30 3314 H 305.568 4.20082 1.28171 0
M  V30 3315 H 306.174 4.23507 -0.390142 0
M  V30 3316 N 304.489 0.459591 1.5075 0
M  V30 3317 C 305.439 -0.358926 2.25157 0
M  V30 3318 C 306.423 -0.971285 1.28276 0
M  V30 3319 O 307.615 -0.885739 1.53244 0
M  V30 3320 C 304.744 -1.44695 3.11317 0
M  V30 3321 C 303.83 -0.842894 4.15639 0
M  V30 3322 N 304.221 0.0299373 5.05791 0
M  V30 3323 C 302.519 -1.10809 4.32015 0
M  V30 3324 C 303.22 0.371563 5.80512 0
M  V30 3325 N 302.196 -0.250409 5.43023 0
M  V30 3326 H 305.998 0.313636 2.92222 0
M  V30 3327 H 303.512 0.273021 1.60089 0
M  V30 3328 H 305.509 -2.04641 3.63218 0
M  V30 3329 H 304.169 -2.12162 2.45799 0
M  V30 3330 H 305.18 0.39797 5.16369 0
M  V30 3331 H 301.857 -1.7786 3.77719 0
M  V30 3332 H 303.247 1.08319 6.63111 0
M  V30 3333 N 305.967 -1.56429 0.191757 0
M  V30 3334 C 306.915 -2.20273 -0.747174 0
M  V30 3335 C 307.909 -1.17288 -1.22229 0
M  V30 3336 O 309.115 -1.35441 -1.18557 0
M  V30 3337 H 305.49 -0.705885 -0.259289 0
M  V30 3338 H 307.461 -2.97826 -0.184963 0
M  V30 3339 C 306.21 -2.87356 -1.95759 0
M  V30 3340 H 305.533 -3.66341 -1.60106 0
M  V30 3341 H 306.973 -3.3547 -2.59299 0
M  V30 3342 C 305.432 -1.88213 -2.79423 0
M  V30 3343 O 305.962 -1.38033 -3.7724 0
M  V30 3344 N 304.168 -1.56516 -2.44849 0
M  V30 3345 H 303.715 -1.97516 -1.65364 0
M  V30 3346 H 303.673 -0.904369 -3.01112 0
M  V30 3347 N 307.445 0.0818655 -1.57387 0
M  V30 3348 C 308.861 0.436412 -1.53517 0
M  V30 3349 C 309.061 1.79758 -0.910459 0
M  V30 3350 O 308.117 2.47324 -0.508636 0
M  V30 3351 C 309.43 0.386734 -2.98203 0
M  V30 3352 C 310.978 0.467644 -3.09487 0
M  V30 3353 C 311.453 0.447978 -4.55804 0
M  V30 3354 N 312.944 0.508348 -4.60402 0
M  V30 3355 C 313.679 0.515184 -5.71081 0
M  V30 3356 N 313.175 0.477435 -6.91153 0
M  V30 3357 N 314.968 0.560988 -5.59294 0
M  V30 3358 H 307.119 -0.809546 -1.96367 0
M  V30 3359 H 309.382 -0.302733 -0.898363 0
M  V30 3360 H 309.088 -0.546539 -3.47427 0
M  V30 3361 H 308.962 1.20075 -3.57578 0
M  V30 3362 H 311.349 1.39134 -2.60242 0
M  V30 3363 H 311.43 -0.374753 -2.5304 0
M  V30 3364 H 311.074 -0.471826 -5.05704 0
M  V30 3365 H 311.004 1.30777 -5.10103 0
M  V30 3366 H 313.495 0.54218 -3.7399 0
M  V30 3367 H 313.808 0.486299 -7.71268 0
M  V30 3368 H 312.153 0.444278 -6.93579 0
M  V30 3369 H 315.344 0.5881 -4.64391 0
M  V30 3370 H 315.517 0.562846 -6.45551 0
M  V30 3371 N 308.923 1.53595 0.353017 0
M  V30 3372 C 309.886 1.80232 1.41594 0
M  V30 3373 C 310.886 0.673081 1.46035 0
M  V30 3374 O 312.076 0.941335 1.46576 0
M  V30 3375 C 309.208 1.93578 2.80607 0
M  V30 3376 H 310.401 2.75174 1.19244 0
M  V30 3377 H 307.954 1.44864 0.586872 0
M  V30 3378 H 308.689 1.00746 3.08254 0
M  V30 3379 H 308.474 2.75724 2.78781 0
M  V30 3380 H 309.964 2.15735 3.57558 0
M  V30 3381 N 310.401 -0.613514 1.45168 0
M  V30 3382 C 311.351 -1.71871 1.49815 0
M  V30 3383 C 312.335 -1.56774 0.362021 0
M  V30 3384 O 313.527 -1.66212 0.608493 0
M  V30 3385 C 310.656 -3.1061 1.46207 0
M  V30 3386 C 309.742 -3.31114 2.64999 0
M  V30 3387 N 310.133 -3.21904 3.90143 0
M  V30 3388 C 308.431 -3.61966 2.6057 0
M  V30 3389 C 309.132 -3.43577 4.69393 0
M  V30 3390 N 308.108 -3.67287 4.00751 0
M  V30 3391 H 311.91 -1.63235 2.444 0
M  V30 3392 H 309.424 -0.816577 1.40377 0
M  V30 3393 H 311.421 -3.8989 1.4762 0
M  V30 3394 H 310.081 -3.20399 0.52673 0
M  V30 3395 H 311.092 -3.00436 4.21852 0
M  V30 3396 H 307.769 -3.78629 1.75916 0
M  V30 3397 H 309.159 -3.41901 5.78406 0
M  V30 3398 N 311.879 -1.3236 -0.855495 0
M  V30 3399 C 313.125 -1.24064 -1.61182 0
M  V30 3400 C 313.48 0.195914 -1.914 0
M  V30 3401 O 312.773 1.13345 -1.54478 0
M  V30 3402 C 312.967 -2.03275 -2.93963 0
M  V30 3403 C 312.796 -3.54486 -2.76712 0
M  V30 3404 C 311.566 -4.23824 -2.75139 0
M  V30 3405 C 313.764 -4.49154 -2.50531 0
M  V30 3406 N 311.746 -5.61095 -2.4909 0
M  V30 3407 C 313.117 -5.74195 -2.3388 0
M  V30 3408 C 315.172 -4.3842 -2.35992 0
M  V30 3409 C 313.875 -6.89716 -2.04168 0
M  V30 3410 C 315.901 -5.53739 -2.0767 0
M  V30 3411 C 315.263 -6.77779 -1.9182 0
M  V30 3412 H 311.362 -0.509139 -0.59355 0
M  V30 3413 H 313.946 -1.66715 -1.00569 0
M  V30 3414 H 312.117 -1.6297 -3.52555 0
M  V30 3415 H 313.849 -1.86881 -3.58967 0
M  V30 3416 H 310.604 -3.75934 -2.88047 0
M  V30 3417 H 311.028 -6.33411 -2.38996 0
M  V30 3418 H 315.67 -3.43172 -2.46967 0
M  V30 3419 H 313.388 -7.84977 -1.9193 0
M  V30 3420 H 316.974 -5.4736 -1.97201 0
M  V30 3421 H 315.854 -7.65504 -1.70217 0
M  V30 3422 O 313.396 0.992737 -1.27385 0
M  V30 3423 H 314.087 1.61512 -1.06928 0
M  V30 END ATOM
M  V30 BEGIN BOND
M  V30 END BOND
M  V30 END CTAB
M  END
$$$$
